# generated using pymatgen
data_NdTlP2S7
_symmetry_space_group_name_H-M   'P 1'
_cell_length_a   12.52643500
_cell_length_b   9.09791900
_cell_length_c   9.89173408
_cell_angle_alpha   89.51248035
_cell_angle_beta   90.00000000
_cell_angle_gamma   90.00000000
_symmetry_Int_Tables_number   1
_chemical_formula_structural   NdTlP2S7
_chemical_formula_sum   'Nd4 Tl4 P8 S28'
_cell_volume   1127.26563102
_cell_formula_units_Z   4
loop_
 _symmetry_equiv_pos_site_id
 _symmetry_equiv_pos_as_xyz
  1  'x, y, z'
loop_
 _atom_site_type_symbol
 _atom_site_label
 _atom_site_symmetry_multiplicity
 _atom_site_fract_x
 _atom_site_fract_y
 _atom_site_fract_z
 _atom_site_occupancy
  Nd  Nd0  1  0.64275600  0.10703300  0.14367200  1
  Nd  Nd1  1  0.14275600  0.39296700  0.85632800  1
  Nd  Nd2  1  0.35724400  0.89296700  0.85632800  1
  Nd  Nd3  1  0.85724400  0.60703300  0.14367200  1
  Tl  Tl0  1  0.81105400  0.37194900  0.60407100  1
  Tl  Tl1  1  0.31105400  0.12805100  0.39592900  1
  Tl  Tl2  1  0.18894600  0.62805100  0.39592900  1
  Tl  Tl3  1  0.68894600  0.87194900  0.60407100  1
  P  P0  1  0.03724200  0.30283500  0.18641000  1
  P  P1  1  0.53724200  0.19716500  0.81359000  1
  P  P2  1  0.96275800  0.69716500  0.81359000  1
  P  P3  1  0.46275800  0.80283500  0.18641000  1
  P  P4  1  0.60085000  0.47715900  0.27561400  1
  P  P5  1  0.10085000  0.02284100  0.72438600  1
  P  P6  1  0.39915000  0.52284100  0.72438600  1
  P  P7  1  0.89915000  0.97715900  0.27561400  1
  S  S0  1  0.19230600  0.35317800  0.14793100  1
  S  S1  1  0.69230600  0.14682200  0.85206900  1
  S  S2  1  0.80769400  0.64682200  0.85206900  1
  S  S3  1  0.30769400  0.85317800  0.14793100  1
  S  S4  1  0.97688800  0.43009100  0.33576700  1
  S  S5  1  0.47688800  0.06990900  0.66423300  1
  S  S6  1  0.02311200  0.56990900  0.66423300  1
  S  S7  1  0.52311200  0.93009100  0.33576700  1
  S  S8  1  0.05333700  0.07821100  0.25111600  1
  S  S9  1  0.55333700  0.42178900  0.74888400  1
  S  S10  1  0.94666300  0.92178900  0.74888400  1
  S  S11  1  0.44666300  0.57821100  0.25111600  1
  S  S12  1  0.79364800  0.11018000  0.37160800  1
  S  S13  1  0.29364800  0.38982000  0.62839200  1
  S  S14  1  0.20635200  0.88982000  0.62839200  1
  S  S15  1  0.70635200  0.61018000  0.37160800  1
  S  S16  1  0.66653200  0.42839600  0.09183500  1
  S  S17  1  0.16653200  0.07160400  0.90816500  1
  S  S18  1  0.33346800  0.57160400  0.90816500  1
  S  S19  1  0.83346800  0.92839600  0.09183500  1
  S  S20  1  0.55615300  0.28913900  0.36837800  1
  S  S21  1  0.05615300  0.21086100  0.63162200  1
  S  S22  1  0.44384700  0.71086100  0.63162200  1
  S  S23  1  0.94384700  0.78913900  0.36837800  1
  S  S24  1  0.94196500  0.32178000  0.02004000  1
  S  S25  1  0.44196500  0.17822000  0.97996000  1
  S  S26  1  0.05803500  0.67822000  0.97996000  1
  S  S27  1  0.55803500  0.82178000  0.02004000  1
loop_
_geom_bond_atom_site_label_1
_geom_bond_atom_site_label_2
_geom_bond_distance
_geom_bond_site_symmetry_2
Nd0 S7 2.897608 1_545
Nd0 S19 2.936920 1_545
Nd0 S12 2.942471 1_555
Nd0 S1 2.969618 1_554
Nd0 S16 2.978982 1_555
Nd0 S20 2.987473 1_555
Nd0 S25 3.057819 1_554
Nd0 S27 3.067726 1_545
Nd1 S6 2.897608 1_555
Nd1 S18 2.936920 1_555
Nd1 S13 2.942471 1_555
Nd1 S0 2.969618 1_556
Nd1 S17 2.978982 1_555
Nd1 S21 2.987473 1_555
Nd1 S24 3.057819 1_456
Nd1 S26 3.067726 1_555
Nd2 S5 2.897608 1_565
Nd2 S17 2.936920 1_565
Nd2 S14 2.942471 1_555
Nd2 S3 2.969618 1_556
Nd2 S18 2.978982 1_555
Nd2 S22 2.987473 1_555
Nd2 S27 3.057819 1_556
Nd2 S25 3.067726 1_565
Nd3 S4 2.897608 1_555
Nd3 S16 2.936920 1_555
Nd3 S15 2.942471 1_555
Nd3 S2 2.969618 1_554
Nd3 S19 2.978982 1_555
Nd3 S23 2.987473 1_555
Nd3 S26 3.057819 1_654
Nd3 S24 3.067726 1_555
P0 S4 2.030715 1_455
P0 S0 2.030911 1_555
P0 S24 2.039011 1_455
P0 S8 2.145788 1_555
P1 S5 2.030715 1_555
P1 S1 2.030911 1_555
P1 S25 2.039011 1_555
P1 S9 2.145788 1_555
P2 S6 2.030715 1_655
P2 S2 2.030911 1_555
P2 S26 2.039011 1_655
P2 S10 2.145788 1_555
P3 S7 2.030715 1_555
P3 S3 2.030911 1_555
P3 S27 2.039011 1_555
P3 S11 2.145788 1_555
P4 S20 2.013672 1_555
P4 S15 2.032817 1_555
P4 S16 2.047490 1_555
P4 S11 2.151864 1_555
P5 S21 2.013672 1_555
P5 S14 2.032817 1_545
P5 S17 2.047490 1_555
P5 S10 2.151864 1_445
P6 S22 2.013672 1_555
P6 S13 2.032817 1_555
P6 S18 2.047490 1_555
P6 S9 2.151864 1_555
P7 S23 2.013672 1_555
P7 S12 2.032817 1_565
P7 S19 2.047490 1_555
P7 S8 2.151864 1_665
