# generated using pymatgen
data_NaTi2BiO6
_symmetry_space_group_name_H-M   'P 1'
_cell_length_a   5.47688318
_cell_length_b   5.47688318
_cell_length_c   4.23080900
_cell_angle_alpha   90.00000000
_cell_angle_beta   90.00000000
_cell_angle_gamma   90.64439837
_symmetry_Int_Tables_number   1
_chemical_formula_structural   NaTi2BiO6
_chemical_formula_sum   'Na1 Ti2 Bi1 O6'
_cell_volume   126.90037525
_cell_formula_units_Z   1
loop_
 _symmetry_equiv_pos_site_id
 _symmetry_equiv_pos_as_xyz
  1  'x, y, z'
loop_
 _atom_site_type_symbol
 _atom_site_label
 _atom_site_symmetry_multiplicity
 _atom_site_fract_x
 _atom_site_fract_y
 _atom_site_fract_z
 _atom_site_occupancy
  Na  Na0  1  0.00000000  0.00000000  0.56501600  1
  Ti  Ti0  1  0.50000000  0.00000000  0.02279300  1
  Ti  Ti1  1  0.00000000  0.50000000  0.02279300  1
  Bi  Bi0  1  0.50000000  0.50000000  0.61136600  1
  O  O0  1  0.50000000  0.00000000  0.44041500  1
  O  O1  1  0.00000000  0.50000000  0.44041500  1
  O  O2  1  0.73352200  0.73352200  0.93723300  1
  O  O3  1  0.26647800  0.26647800  0.93723300  1
  O  O4  1  0.75069400  0.24930600  0.92136800  1
  O  O5  1  0.24930600  0.75069400  0.92136800  1
loop_
_geom_bond_atom_site_label_1
_geom_bond_atom_site_label_2
_geom_bond_distance
_geom_bond_site_symmetry_2
Na0 O5 2.458396 1_545
Na0 O4 2.458396 1_455
Na0 O3 2.586912 1_555
Na0 O2 2.586912 1_445
Na0 O0 2.788721 1_455
Na0 O1 2.788721 1_545
Na0 O0 2.788721 1_555
Na0 O1 2.788721 1_555
Bi0 O3 2.266166 1_555
Bi0 O2 2.266166 1_555
Bi0 O4 2.352226 1_555
Bi0 O5 2.352226 1_555
O0 Ti0 1.766879 1_555
O0 Ti0 2.463930 1_556
O1 Ti1 1.766879 1_555
O1 Ti1 2.463930 1_556
O2 Ti0 1.984652 1_566
O2 Ti1 1.984652 1_656
O3 Ti0 1.984652 1_556
O3 Ti1 1.984652 1_556
O4 Ti1 1.972695 1_656
O4 Ti0 1.972695 1_556
O5 Ti1 1.972695 1_556
O5 Ti0 1.972695 1_566
