# generated using pymatgen
data_Pr4Si2Se3O7
_symmetry_space_group_name_H-M   'P 1'
_cell_length_a   11.35350914
_cell_length_b   11.35350914
_cell_length_c   11.35350914
_cell_angle_alpha   114.62457895
_cell_angle_beta   114.62457895
_cell_angle_gamma   99.59358771
_symmetry_Int_Tables_number   1
_chemical_formula_structural   Pr4Si2Se3O7
_chemical_formula_sum   'Pr16 Si8 Se12 O28'
_cell_volume   1102.12432355
_cell_formula_units_Z   4
loop_
 _symmetry_equiv_pos_site_id
 _symmetry_equiv_pos_as_xyz
  1  'x, y, z'
loop_
 _atom_site_type_symbol
 _atom_site_label
 _atom_site_symmetry_multiplicity
 _atom_site_fract_x
 _atom_site_fract_y
 _atom_site_fract_z
 _atom_site_occupancy
  Pr  Pr0  1  0.92237000  0.42237000  0.84474000  1
  Pr  Pr1  1  0.17237000  0.82763000  0.00000000  1
  Pr  Pr2  1  0.82763000  0.17237000  0.00000000  1
  Pr  Pr3  1  0.57763000  0.07763000  0.15526000  1
  Pr  Pr4  1  0.82763000  0.82763000  0.65526000  1
  Pr  Pr5  1  0.57763000  0.42237000  0.50000000  1
  Pr  Pr6  1  0.92237000  0.07763000  0.50000000  1
  Pr  Pr7  1  0.17237000  0.17237000  0.34474000  1
  Pr  Pr8  1  0.54077800  0.30101400  0.76023600  1
  Pr  Pr9  1  0.54077800  0.78054200  0.23976400  1
  Pr  Pr10  1  0.69898600  0.45922200  0.23976400  1
  Pr  Pr11  1  0.53054200  0.79077800  0.73976400  1
  Pr  Pr12  1  0.05101400  0.79077800  0.26023600  1
  Pr  Pr13  1  0.20922200  0.46945800  0.26023600  1
  Pr  Pr14  1  0.20922200  0.94898600  0.73976400  1
  Pr  Pr15  1  0.21945800  0.45922200  0.76023600  1
  Si  Si0  1  0.78110100  0.90490600  0.12380500  1
  Si  Si1  1  0.78110100  0.65729600  0.87619500  1
  Si  Si2  1  0.09509400  0.21889900  0.87619500  1
  Si  Si3  1  0.40729600  0.03110100  0.37619500  1
  Si  Si4  1  0.65490600  0.03110100  0.62380500  1
  Si  Si5  1  0.96889900  0.59270400  0.62380500  1
  Si  Si6  1  0.96889900  0.34509400  0.37619500  1
  Si  Si7  1  0.34270400  0.21889900  0.12380500  1
  Se  Se0  1  0.00000000  0.00000000  0.00000000  1
  Se  Se1  1  0.75000000  0.25000000  0.50000000  1
  Se  Se2  1  0.25000000  0.75000000  0.50000000  1
  Se  Se3  1  0.50000000  0.50000000  0.00000000  1
  Se  Se4  1  0.37500000  0.47865400  0.60365400  1
  Se  Se5  1  0.22865400  0.12500000  0.60365400  1
  Se  Se6  1  0.52134600  0.62500000  0.39634600  1
  Se  Se7  1  0.87500000  0.77134600  0.39634600  1
  Se  Se8  1  0.37500000  0.77134600  0.89634600  1
  Se  Se9  1  0.52134600  0.12500000  0.89634600  1
  Se  Se10  1  0.22865400  0.62500000  0.10365400  1
  Se  Se11  1  0.87500000  0.47865400  0.10365400  1
  O  O0  1  0.26460900  0.26460900  0.00000000  1
  O  O1  1  0.01460900  0.51460900  0.50000000  1
  O  O2  1  0.48539100  0.98539100  0.50000000  1
  O  O3  1  0.73539100  0.73539100  0.00000000  1
  O  O4  1  0.70536300  0.48032600  0.77496300  1
  O  O5  1  0.70536300  0.93040000  0.22503700  1
  O  O6  1  0.51967400  0.29463700  0.22503700  1
  O  O7  1  0.68040000  0.95536300  0.72503700  1
  O  O8  1  0.23032600  0.95536300  0.27496300  1
  O  O9  1  0.04463700  0.31960000  0.27496300  1
  O  O10  1  0.04463700  0.76967400  0.72503700  1
  O  O11  1  0.06960000  0.29463700  0.77496300  1
  O  O12  1  0.79892100  0.55713800  0.52292900  1
  O  O13  1  0.03420800  0.27599200  0.47707100  1
  O  O14  1  0.44286200  0.20107900  0.47707100  1
  O  O15  1  0.02599200  0.04892100  0.74178400  1
  O  O16  1  0.30713800  0.28420800  0.25821600  1
  O  O17  1  0.95107900  0.97400800  0.25821600  1
  O  O18  1  0.71579200  0.69286200  0.74178400  1
  O  O19  1  0.72400800  0.96579200  0.52292900  1
  O  O20  1  0.95107900  0.69286200  0.97707100  1
  O  O21  1  0.71579200  0.97400800  0.02292900  1
  O  O22  1  0.30713800  0.04892100  0.02292900  1
  O  O23  1  0.72400800  0.20107900  0.75821600  1
  O  O24  1  0.44286200  0.96579200  0.24178400  1
  O  O25  1  0.79892100  0.27599200  0.24178400  1
  O  O26  1  0.03420800  0.55713800  0.75821600  1
  O  O27  1  0.02599200  0.28420800  0.97707100  1
loop_
_geom_bond_atom_site_label_1
_geom_bond_atom_site_label_2
_geom_bond_distance
_geom_bond_site_symmetry_2
Pr0 Se1 2.989363 1_555
Pr0 Se10 3.034036 1_656
Pr0 Se11 3.034036 1_556
Pr1 Se0 2.989363 1_565
Pr1 Se8 3.034036 1_554
Pr1 Se10 3.034036 1_555
Pr2 Se0 2.989363 1_655
Pr2 Se11 3.034036 1_555
Pr2 Se9 3.034036 1_554
Pr3 Se1 2.989363 1_555
Pr3 Se9 3.034036 1_554
Pr3 Se8 3.034036 1_544
Pr4 Se0 2.989363 1_666
Pr4 Se7 3.034036 1_555
Pr4 Se6 3.034036 1_555
Pr5 Se1 2.989363 1_555
Pr5 Se4 3.034036 1_555
Pr5 Se6 3.034036 1_555
Pr6 Se1 2.989363 1_555
Pr6 Se5 3.034036 1_655
Pr6 Se7 3.034036 1_545
Pr7 Se0 2.989363 1_555
Pr7 Se4 3.034036 1_555
Pr7 Se5 3.034036 1_555
Pr8 Se3 3.000397 1_556
Pr8 Se5 3.023384 1_555
Pr8 Se9 3.023384 1_555
Pr8 Se4 3.497910 1_555
Pr8 Se11 3.497910 1_556
Pr9 Se3 3.000397 1_555
Pr9 Se10 3.023384 1_555
Pr9 Se6 3.023384 1_555
Pr9 Se8 3.497910 1_554
Pr9 Se7 3.497910 1_555
Pr10 Se3 3.000397 1_555
Pr10 Se11 3.023384 1_555
Pr10 Se7 3.023384 1_555
Pr10 Se9 3.497910 1_554
Pr10 Se6 3.497910 1_555
Pr11 Se2 3.000397 1_555
Pr11 Se8 3.023384 1_555
Pr11 Se4 3.023384 1_555
Pr11 Se6 3.497910 1_555
Pr11 Se9 3.497910 1_565
Pr12 Se2 3.000397 1_555
Pr12 Se7 3.023384 1_455
Pr12 Se11 3.023384 1_455
Pr12 Se10 3.497910 1_555
Pr12 Se5 3.497910 1_565
Pr13 Se2 3.000397 1_555
Pr13 Se10 3.023384 1_555
Pr13 Se6 3.023384 1_555
Pr13 Se11 3.497910 1_455
Pr13 Se4 3.497910 1_555
Pr14 Se2 3.000397 1_555
Pr14 Se5 3.023384 1_565
Pr14 Se9 3.023384 1_565
Pr14 Se7 3.497910 1_455
Pr14 Se8 3.497910 1_555
Pr15 Se3 3.000397 1_556
Pr15 Se4 3.023384 1_555
Pr15 Se8 3.023384 1_555
Pr15 Se5 3.497910 1_555
Pr15 Se10 3.497910 1_556
O0 Si2 1.659499 1_554
O0 Si7 1.659499 1_555
O1 Si5 1.659499 1_455
O1 Si6 1.659499 1_455
O2 Si4 1.659499 1_565
O2 Si3 1.659499 1_565
O3 Si1 1.659499 1_554
O3 Si0 1.659499 1_555
O4 Si1 1.665383 1_555
O4 Pr8 2.419137 1_555
O4 Pr5 2.545398 1_555
O4 Pr0 2.545398 1_555
O5 Si0 1.665383 1_555
O5 Pr9 2.419137 1_555
O5 Pr6 2.545398 1_565
O5 Pr3 2.545398 1_565
O6 Si7 1.665383 1_555
O6 Pr10 2.419137 1_555
O6 Pr5 2.545398 1_555
O6 Pr3 2.545398 1_555
O7 Si4 1.665383 1_565
O7 Pr11 2.419137 1_555
O7 Pr4 2.545398 1_555
O7 Pr2 2.545398 1_566
O8 Si3 1.665383 1_565
O8 Pr12 2.419137 1_555
O8 Pr7 2.545398 1_565
O8 Pr1 2.545398 1_555
O9 Si6 1.665383 1_455
O9 Pr13 2.419137 1_555
O9 Pr2 2.545398 1_455
O9 Pr7 2.545398 1_555
O10 Si5 1.665383 1_455
O10 Pr14 2.419137 1_555
O10 Pr4 2.545398 1_455
O10 Pr1 2.545398 1_556
O11 Si2 1.665383 1_555
O11 Pr15 2.419137 1_555
O11 Pr6 2.545398 1_455
O11 Pr0 2.545398 1_455
O12 Si5 1.646826 1_555
O12 Pr10 2.533839 1_555
O12 Pr5 2.561818 1_555
O12 Pr4 2.684769 1_555
O13 Si6 1.646824 1_455
O13 Pr15 2.533841 1_555
O13 Pr6 2.561814 1_455
O13 Pr7 2.684779 1_555
O14 Si3 1.646826 1_555
O14 Pr8 2.533839 1_555
O14 Pr5 2.561818 1_555
O14 Pr7 2.684769 1_555
O15 Si2 1.646824 1_555
O15 Pr14 2.533841 1_545
O15 Pr4 2.561814 1_445
O15 Pr6 2.684779 1_455
O16 Si7 1.646816 1_555
O16 Pr13 2.533848 1_555
O16 Pr7 2.561822 1_555
O16 Pr5 2.684772 1_555
O17 Si0 1.646824 1_555
O17 Pr12 2.533841 1_655
O17 Pr7 2.561814 1_665
O17 Pr6 2.684779 1_565
O18 Si1 1.646816 1_555
O18 Pr11 2.533848 1_555
O18 Pr4 2.561822 1_555
O18 Pr5 2.684772 1_555
O19 Si4 1.646824 1_565
O19 Pr9 2.533841 1_555
O19 Pr6 2.561814 1_565
O19 Pr4 2.684779 1_555
O20 Si1 1.646826 1_555
O20 Pr12 2.533839 1_656
O20 Pr1 2.561818 1_656
O20 Pr0 2.684769 1_555
O21 Si0 1.646824 1_555
O21 Pr11 2.533841 1_554
O21 Pr2 2.561814 1_565
O21 Pr3 2.684779 1_565
O22 Si7 1.646826 1_555
O22 Pr14 2.533839 1_544
O22 Pr1 2.561818 1_545
O22 Pr3 2.684769 1_555
O23 Si4 1.646824 1_555
O23 Pr8 2.533841 1_555
O23 Pr0 2.561814 1_555
O23 Pr2 2.684779 1_556
O24 Si3 1.646816 1_565
O24 Pr9 2.533848 1_555
O24 Pr3 2.561822 1_565
O24 Pr1 2.684772 1_555
O25 Si6 1.646824 1_555
O25 Pr10 2.533841 1_555
O25 Pr3 2.561814 1_555
O25 Pr2 2.684779 1_555
O26 Si5 1.646816 1_455
O26 Pr15 2.533848 1_555
O26 Pr0 2.561822 1_455
O26 Pr1 2.684772 1_556
O27 Si2 1.646824 1_555
O27 Pr13 2.533841 1_556
O27 Pr2 2.561814 1_456
O27 Pr0 2.684779 1_455
