# generated using pymatgen
data_SrCuSO
_symmetry_space_group_name_H-M   'P 1'
_cell_length_a   9.96131838
_cell_length_b   9.96131838
_cell_length_c   9.96131838
_cell_angle_alpha   157.96115214
_cell_angle_beta   157.96115214
_cell_angle_gamma   31.36605737
_symmetry_Int_Tables_number   1
_chemical_formula_structural   SrCuSO
_chemical_formula_sum   'Sr2 Cu2 S2 O2'
_cell_volume   139.07370867
_cell_formula_units_Z   2
loop_
 _symmetry_equiv_pos_site_id
 _symmetry_equiv_pos_as_xyz
  1  'x, y, z'
loop_
 _atom_site_type_symbol
 _atom_site_label
 _atom_site_symmetry_multiplicity
 _atom_site_fract_x
 _atom_site_fract_y
 _atom_site_fract_z
 _atom_site_occupancy
  Sr  Sr0  1  0.58075000  0.58075000  0.00000000  1
  Sr  Sr1  1  0.41925000  0.41925000  0.00000000  1
  Cu  Cu0  1  0.25000000  0.75000000  0.50000000  1
  Cu  Cu1  1  0.75000000  0.25000000  0.50000000  1
  S  S0  1  0.82208500  0.82208500  0.00000000  1
  S  S1  1  0.17791500  0.17791500  0.00000000  1
  O  O0  1  0.00000000  0.50000000  0.50000000  1
  O  O1  1  0.50000000  0.00000000  0.50000000  1
loop_
_geom_bond_atom_site_label_1
_geom_bond_atom_site_label_2
_geom_bond_distance
_geom_bond_site_symmetry_2
Cu0 S0 2.353094 1_455
Cu0 S1 2.353094 1_555
Cu0 S1 2.353094 1_566
Cu0 S0 2.353094 1_556
Cu1 S0 2.353094 1_545
Cu1 S0 2.353094 1_556
Cu1 S1 2.353094 1_656
Cu1 S1 2.353094 1_555
S0 Sr1 3.274761 1_565
S0 Sr1 3.274761 1_666
S0 Sr1 3.274761 1_655
S0 Sr1 3.274761 1_554
S1 Sr0 3.274761 1_556
S1 Sr0 3.274761 1_545
S1 Sr0 3.274761 1_444
S1 Sr0 3.274761 1_455
O0 Sr1 2.454441 1_556
O0 Sr1 2.454441 1_455
O0 Sr0 2.454441 1_455
O0 Sr0 2.454441 1_556
O1 Sr1 2.454441 1_556
O1 Sr1 2.454441 1_545
O1 Sr0 2.454441 1_556
O1 Sr0 2.454441 1_545
