# generated using pymatgen
data_SrSn2H10Cl6O5
_symmetry_space_group_name_H-M   'P 1'
_cell_length_a   9.69510611
_cell_length_b   9.69510611
_cell_length_c   9.29470169
_cell_angle_alpha   69.59383709
_cell_angle_beta   69.59383709
_cell_angle_gamma   76.55197117
_symmetry_Int_Tables_number   1
_chemical_formula_structural   SrSn2H10Cl6O5
_chemical_formula_sum   'Sr2 Sn4 H20 Cl12 O10'
_cell_volume   761.29280729
_cell_formula_units_Z   2
loop_
 _symmetry_equiv_pos_site_id
 _symmetry_equiv_pos_as_xyz
  1  'x, y, z'
loop_
 _atom_site_type_symbol
 _atom_site_label
 _atom_site_symmetry_multiplicity
 _atom_site_fract_x
 _atom_site_fract_y
 _atom_site_fract_z
 _atom_site_occupancy
  Sr  Sr0  1  0.99154800  0.00845200  0.25000000  1
  Sr  Sr1  1  0.00845200  0.99154800  0.75000000  1
  Sn  Sn0  1  0.47430700  0.26040800  0.97904700  1
  Sn  Sn1  1  0.73959200  0.52569300  0.52095300  1
  Sn  Sn2  1  0.52569300  0.73959200  0.02095300  1
  Sn  Sn3  1  0.26040800  0.47430700  0.47904700  1
  H  H0  1  0.07759900  0.34161800  0.09565500  1
  H  H1  1  0.65838200  0.92240100  0.40434500  1
  H  H2  1  0.92240100  0.65838200  0.90434500  1
  H  H3  1  0.34161800  0.07759900  0.59565500  1
  H  H4  1  0.06606500  0.29722000  0.27703600  1
  H  H5  1  0.70278000  0.93393500  0.22296400  1
  H  H6  1  0.93393500  0.70278000  0.72296400  1
  H  H7  1  0.29722000  0.06606500  0.77703600  1
  H  H8  1  0.23059800  0.88647500  0.45356000  1
  H  H9  1  0.11352500  0.76940200  0.04644000  1
  H  H10  1  0.76940200  0.11352500  0.54644000  1
  H  H11  1  0.88647500  0.23059800  0.95356000  1
  H  H12  1  0.24686700  0.05340000  0.37999000  1
  H  H13  1  0.94660000  0.75313300  0.12001000  1
  H  H14  1  0.75313300  0.94660000  0.62001000  1
  H  H15  1  0.05340000  0.24686700  0.87999000  1
  H  H16  1  0.78471600  0.32419400  0.23801900  1
  H  H17  1  0.67580600  0.21528400  0.26198100  1
  H  H18  1  0.21528400  0.67580600  0.76198100  1
  H  H19  1  0.32419400  0.78471600  0.73801900  1
  Cl  Cl0  1  0.44600700  0.17498000  0.29300100  1
  Cl  Cl1  1  0.82502000  0.55399300  0.20699900  1
  Cl  Cl2  1  0.55399300  0.82502000  0.70699900  1
  Cl  Cl3  1  0.17498000  0.44600700  0.79300100  1
  Cl  Cl4  1  0.68908400  0.41967300  0.90242600  1
  Cl  Cl5  1  0.58032700  0.31091600  0.59757400  1
  Cl  Cl6  1  0.31091600  0.58032700  0.09757400  1
  Cl  Cl7  1  0.41967300  0.68908400  0.40242600  1
  Cl  Cl8  1  0.68524400  0.02601900  0.96925300  1
  Cl  Cl9  1  0.97398100  0.31475600  0.53074700  1
  Cl  Cl10  1  0.31475600  0.97398100  0.03074700  1
  Cl  Cl11  1  0.02601900  0.68524400  0.46925300  1
  O  O0  1  0.09418300  0.25672700  0.18604100  1
  O  O1  1  0.74327300  0.90581700  0.31395900  1
  O  O2  1  0.90581700  0.74327300  0.81395900  1
  O  O3  1  0.25672700  0.09418300  0.68604100  1
  O  O4  1  0.17063100  0.98461500  0.43641000  1
  O  O5  1  0.01538500  0.82936900  0.06359000  1
  O  O6  1  0.82936900  0.01538500  0.56359000  1
  O  O7  1  0.98461500  0.17063100  0.93641000  1
  O  O8  1  0.77939300  0.22060700  0.25000000  1
  O  O9  1  0.22060700  0.77939300  0.75000000  1
loop_
_geom_bond_atom_site_label_1
_geom_bond_atom_site_label_2
_geom_bond_distance
_geom_bond_site_symmetry_2
H0 O0 0.979534 1_555
H1 O1 0.979534 1_555
H2 O2 0.979534 1_555
H3 O3 0.979534 1_555
H4 O0 0.982217 1_555
H5 O1 0.982217 1_555
H6 O2 0.982217 1_555
H7 O3 0.982217 1_555
H8 O4 0.985035 1_555
H9 O5 0.985035 1_555
H10 O6 0.985035 1_555
H11 O7 0.985035 1_555
H12 O4 0.990515 1_545
H13 O5 0.990515 1_655
H14 O6 0.990515 1_565
H15 O7 0.990515 1_455
H16 O8 0.982734 1_555
H17 O8 0.982734 1_555
H18 O9 0.982734 1_555
H19 O9 0.982734 1_555
Cl0 Sn0 2.671812 1_554
Cl1 Sn1 2.671812 1_555
Cl2 Sn2 2.671812 1_556
Cl3 Sn3 2.671812 1_555
Cl4 Sn0 2.630941 1_555
Cl5 Sn1 2.630941 1_555
Cl6 Sn2 2.630941 1_555
Cl7 Sn3 2.630941 1_555
Cl8 Sn0 2.684650 1_555
Cl8 Sr1 3.101365 1_645
Cl9 Sn1 2.684650 1_555
Cl9 Sr1 3.101365 1_645
Cl10 Sn2 2.684650 1_555
Cl10 Sr0 3.101365 1_465
Cl11 Sn3 2.684650 1_555
Cl11 Sr0 3.101365 1_465
O0 Sr0 2.615554 1_455
O1 Sr0 2.615554 1_565
O2 Sr1 2.615554 1_655
O3 Sr1 2.615554 1_545
O4 Sr0 2.775214 1_465
O4 Sr1 2.804277 1_555
O5 Sr0 2.775214 1_465
O5 Sr1 2.804277 1_554
O6 Sr1 2.775214 1_645
O6 Sr0 2.804277 1_555
O7 Sr1 2.775214 1_645
O7 Sr0 2.804277 1_556
O8 Sr0 2.548251 1_555
O9 Sr1 2.548251 1_555
