# generated using pymatgen
data_Mn3Zn3(AsO4)4
_symmetry_space_group_name_H-M   'P 1'
_cell_length_a   5.30450800
_cell_length_b   8.71762000
_cell_length_c   16.33657657
_cell_angle_alpha   68.45994112
_cell_angle_beta   90.00000000
_cell_angle_gamma   90.00000000
_symmetry_Int_Tables_number   1
_chemical_formula_structural   Mn3Zn3(AsO4)4
_chemical_formula_sum   'Mn6 Zn6 As8 O32'
_cell_volume   702.68756431
_cell_formula_units_Z   2
loop_
 _symmetry_equiv_pos_site_id
 _symmetry_equiv_pos_as_xyz
  1  'x, y, z'
loop_
 _atom_site_type_symbol
 _atom_site_label
 _atom_site_symmetry_multiplicity
 _atom_site_fract_x
 _atom_site_fract_y
 _atom_site_fract_z
 _atom_site_occupancy
  Mn  Mn0  1  0.49965700  0.19926400  0.62366100  1
  Mn  Mn1  1  0.50034300  0.80073600  0.37633900  1
  Mn  Mn2  1  0.99965700  0.80073600  0.87633900  1
  Mn  Mn3  1  0.00034300  0.19926400  0.12366100  1
  Mn  Mn4  1  0.00000000  0.50000000  0.50000000  1
  Mn  Mn5  1  0.50000000  0.50000000  0.00000000  1
  Zn  Zn0  1  0.55156000  0.30432400  0.21620600  1
  Zn  Zn1  1  0.05156000  0.69567600  0.28379400  1
  Zn  Zn2  1  0.44844000  0.69567600  0.78379400  1
  Zn  Zn3  1  0.94844000  0.30432400  0.71620600  1
  Zn  Zn4  1  0.50000000  0.00000000  0.50000000  1
  Zn  Zn5  1  0.00000000  0.00000000  0.00000000  1
  As  As0  1  0.98032200  0.03117400  0.35252400  1
  As  As1  1  0.49989900  0.41677200  0.39154900  1
  As  As2  1  0.99989900  0.58322800  0.10845100  1
  As  As3  1  0.00010100  0.41677200  0.89154900  1
  As  As4  1  0.01967800  0.96882600  0.64747600  1
  As  As5  1  0.50010100  0.58322800  0.60845100  1
  As  As6  1  0.51967800  0.03117400  0.85252400  1
  As  As7  1  0.48032200  0.96882600  0.14747600  1
  O  O0  1  0.39166900  0.82216400  0.24845100  1
  O  O1  1  0.94483100  0.75074400  0.01327200  1
  O  O2  1  0.41092400  0.39477500  0.29725200  1
  O  O3  1  0.39540600  0.16415100  0.14927500  1
  O  O4  1  0.58907600  0.60522500  0.70274800  1
  O  O5  1  0.10833100  0.82216400  0.74845100  1
  O  O6  1  0.91092400  0.60522500  0.20274800  1
  O  O7  1  0.70618800  0.50117900  0.89166500  1
  O  O8  1  0.68925200  0.07654900  0.92840700  1
  O  O9  1  0.60833100  0.17783600  0.75154900  1
  O  O10  1  0.10459400  0.16415100  0.64927500  1
  O  O11  1  0.29381200  0.49882100  0.10833500  1
  O  O12  1  0.29136100  0.56940700  0.40129700  1
  O  O13  1  0.31074800  0.92345100  0.07159300  1
  O  O14  1  0.69797300  0.97869400  0.63118100  1
  O  O15  1  0.19797300  0.02130600  0.86881900  1
  O  O16  1  0.79136100  0.43059300  0.09870300  1
  O  O17  1  0.08907600  0.39477500  0.79725200  1
  O  O18  1  0.18925200  0.92345100  0.57159300  1
  O  O19  1  0.20618800  0.49882100  0.60833500  1
  O  O20  1  0.80202700  0.97869400  0.13118100  1
  O  O21  1  0.30202700  0.02130600  0.36881900  1
  O  O22  1  0.05516900  0.24925600  0.98672800  1
  O  O23  1  0.44483100  0.24925600  0.48672800  1
  O  O24  1  0.70863900  0.43059300  0.59870300  1
  O  O25  1  0.89166900  0.17783600  0.25154900  1
  O  O26  1  0.60459400  0.83584900  0.85072500  1
  O  O27  1  0.81074800  0.07654900  0.42840700  1
  O  O28  1  0.55516900  0.75074400  0.51327200  1
  O  O29  1  0.79381200  0.50117900  0.39166500  1
  O  O30  1  0.20863900  0.56940700  0.90129700  1
  O  O31  1  0.89540600  0.83584900  0.35072500  1
loop_
_geom_bond_atom_site_label_1
_geom_bond_atom_site_label_2
_geom_bond_distance
_geom_bond_site_symmetry_2
Mn0 O9 2.108459 1_555
Mn0 O23 2.136087 1_555
Mn0 O10 2.136900 1_555
Mn0 O14 2.155367 1_545
Mn0 O24 2.204127 1_555
Mn1 O0 2.108459 1_555
Mn1 O28 2.136087 1_555
Mn1 O31 2.136900 1_555
Mn1 O21 2.155367 1_565
Mn1 O12 2.204127 1_555
Mn2 O5 2.108459 1_655
Mn2 O1 2.136087 1_556
Mn2 O26 2.136900 1_555
Mn2 O15 2.155367 1_665
Mn2 O30 2.204127 1_655
Mn3 O25 2.108459 1_455
Mn3 O22 2.136087 1_554
Mn3 O3 2.136900 1_555
Mn3 O20 2.155367 1_445
Mn3 O16 2.204127 1_455
Mn4 O19 2.077320 1_555
Mn4 O29 2.077320 1_455
Mn4 O24 2.153692 1_455
Mn4 O12 2.153692 1_555
Mn5 O7 2.077320 1_554
Mn5 O11 2.077320 1_555
Mn5 O30 2.153692 1_554
Mn5 O16 2.153692 1_555
As0 O27 1.691874 1_555
As0 O21 1.724397 1_655
As0 O25 1.740189 1_555
As0 O31 1.771984 1_545
As1 O2 1.688062 1_555
As1 O23 1.722865 1_555
As1 O29 1.724283 1_555
As1 O12 1.781895 1_555
As2 O6 1.688062 1_555
As2 O1 1.722865 1_555
As2 O11 1.724283 1_655
As2 O16 1.781895 1_555
As3 O17 1.688062 1_555
As3 O22 1.722865 1_555
As3 O7 1.724283 1_455
As3 O30 1.781895 1_555
As4 O18 1.691874 1_555
As4 O14 1.724397 1_455
As4 O5 1.740189 1_555
As4 O10 1.771984 1_565
As5 O4 1.688062 1_555
As5 O28 1.722865 1_555
As5 O19 1.724283 1_555
As5 O24 1.781895 1_555
As6 O8 1.691874 1_555
As6 O15 1.724397 1_555
As6 O9 1.740189 1_555
As6 O26 1.771984 1_545
As7 O13 1.691874 1_555
As7 O20 1.724397 1_555
As7 O0 1.740189 1_555
As7 O3 1.771984 1_565
O0 Zn1 2.082444 1_555
O1 Zn5 2.123270 1_665
O2 Zn0 1.922996 1_555
O3 Zn0 2.087113 1_555
O4 Zn2 1.922996 1_555
O5 Zn2 2.082444 1_555
O6 Zn1 1.922996 1_655
O7 Zn2 2.378155 1_555
O8 Zn5 1.989281 1_656
O9 Zn3 2.082444 1_555
O10 Zn3 2.087113 1_455
O11 Zn0 2.378155 1_555
O12 Zn1 2.227776 1_555
O13 Zn5 1.989281 1_565
O14 Zn4 2.331884 1_565
O15 Zn5 2.331884 1_556
O16 Zn0 2.227776 1_555
O17 Zn3 1.922996 1_455
O18 Zn4 1.989281 1_565
O19 Zn3 2.378155 1_455
O20 Zn5 2.331884 1_665
O21 Zn4 2.331884 1_555
O22 Zn5 2.123270 1_556
O23 Zn4 2.123270 1_555
O24 Zn3 2.227776 1_555
O25 Zn0 2.082444 1_555
O26 Zn2 2.087113 1_555
O27 Zn4 1.989281 1_555
O28 Zn4 2.123270 1_565
O29 Zn1 2.378155 1_655
O30 Zn2 2.227776 1_555
O31 Zn1 2.087113 1_655
