# generated using pymatgen
data_BaCaTbBiO6
_symmetry_space_group_name_H-M   'P 1'
_cell_length_a   6.00515740
_cell_length_b   6.08218355
_cell_length_c   8.56942477
_cell_angle_alpha   90.06373842
_cell_angle_beta   89.72484487
_cell_angle_gamma   90.11811803
_symmetry_Int_Tables_number   1
_chemical_formula_structural   BaCaTbBiO6
_chemical_formula_sum   'Ba2 Ca2 Tb2 Bi2 O12'
_cell_volume   312.98922985
_cell_formula_units_Z   2
loop_
 _symmetry_equiv_pos_site_id
 _symmetry_equiv_pos_as_xyz
  1  'x, y, z'
loop_
 _atom_site_type_symbol
 _atom_site_label
 _atom_site_symmetry_multiplicity
 _atom_site_fract_x
 _atom_site_fract_y
 _atom_site_fract_z
 _atom_site_occupancy
  Ba  Ba0  1  0.99433673  0.03373512  0.25039759  1
  Ba  Ba1  1  0.00566327  0.96626488  0.74960241  1
  Ca  Ca0  1  0.51002758  0.53951268  0.25206223  1
  Ca  Ca1  1  0.48997242  0.46048732  0.74793777  1
  Tb  Tb0  1  0.50000000  0.00000000  -0.00000000  1
  Tb  Tb1  1  0.00000000  0.50000000  0.50000000  1
  Bi  Bi0  1  0.00000000  0.50000000  -0.00000000  1
  Bi  Bi1  1  0.50000000  0.00000000  0.50000000  1
  O  O0  1  0.20397988  0.21843274  0.96231739  1
  O  O1  1  0.30930770  0.70740855  0.55915528  1
  O  O2  1  0.79602012  0.78156726  0.03768261  1
  O  O3  1  0.69069230  0.29259145  0.44084472  1
  O  O4  1  0.28828642  0.69566236  0.93666791  1
  O  O5  1  0.21574547  0.20489348  0.53104544  1
  O  O6  1  0.71171358  0.30433764  0.06333209  1
  O  O7  1  0.78425453  0.79510652  0.46895456  1
  O  O8  1  0.43314136  0.93435355  0.25772680  1
  O  O9  1  0.11133325  0.49671645  0.24150949  1
  O  O10  1  0.56685864  0.06564645  0.74227320  1
  O  O11  1  0.88866675  0.50328355  0.75849051  1
loop_
_geom_bond_atom_site_label_1
_geom_bond_atom_site_label_2
_geom_bond_distance
_geom_bond_site_symmetry_2
Ba0 O2 2.664675 1_545
Ba0 O7 2.679865 1_545
Ba0 O8 2.705782 1_645
Ba0 O6 2.864015 1_555
Ba0 O9 2.901850 1_655
Ba0 O3 2.905979 1_555
Ba0 O5 2.941930 1_655
Ba0 O0 2.985256 1_654
Ba1 O0 2.664675 1_565
Ba1 O5 2.679865 1_565
Ba1 O10 2.705782 1_465
Ba1 O4 2.864015 1_555
Ba1 O11 2.901850 1_455
Ba1 O1 2.905979 1_555
Ba1 O7 2.941930 1_455
Ba1 O2 2.985256 1_456
Ca0 O9 2.409915 1_555
Ca0 O8 2.446796 1_555
Ca0 O3 2.465489 1_555
Ca0 O6 2.472195 1_555
Ca0 O2 2.908137 1_555
Ca0 O7 2.931812 1_555
Ca0 O1 3.064258 1_555
Ca1 O11 2.409915 1_555
Ca1 O10 2.446796 1_555
Ca1 O1 2.465489 1_555
Ca1 O4 2.472195 1_555
Ca1 O0 2.908137 1_555
Ca1 O5 2.931812 1_555
Ca1 O3 3.064258 1_555
Bi0 O2 2.130999 1_455
Bi0 O0 2.130999 1_554
Bi0 O4 2.166048 1_554
Bi0 O6 2.166048 1_455
Bi0 O9 2.178086 1_555
Bi0 O11 2.178086 1_454
Bi1 O5 2.131030 1_555
Bi1 O7 2.131030 1_545
Bi1 O10 2.153250 1_555
Bi1 O8 2.153250 1_545
Bi1 O3 2.173316 1_555
Bi1 O1 2.173316 1_545
O0 Tb0 2.246231 1_556
O1 Tb1 2.301390 1_555
O2 Tb0 2.246231 1_565
O3 Tb1 2.301390 1_655
O4 Tb0 2.309104 1_566
O5 Tb1 2.232693 1_555
O6 Tb0 2.309104 1_555
O7 Tb1 2.232693 1_655
O8 Tb0 2.278418 1_565
O9 Tb1 2.310813 1_555
O10 Tb0 2.278418 1_556
O11 Tb1 2.310813 1_655
