# generated using pymatgen
data_CsYb(MoO4)2
_symmetry_space_group_name_H-M   'P 1'
_cell_length_a   5.05606800
_cell_length_b   8.23349300
_cell_length_c   9.93148825
_cell_angle_alpha   87.98054582
_cell_angle_beta   90.00000000
_cell_angle_gamma   90.00000000
_symmetry_Int_Tables_number   1
_chemical_formula_structural   CsYb(MoO4)2
_chemical_formula_sum   'Cs2 Yb2 Mo4 O16'
_cell_volume   413.18214363
_cell_formula_units_Z   2
loop_
 _symmetry_equiv_pos_site_id
 _symmetry_equiv_pos_as_xyz
  1  'x, y, z'
loop_
 _atom_site_type_symbol
 _atom_site_label
 _atom_site_symmetry_multiplicity
 _atom_site_fract_x
 _atom_site_fract_y
 _atom_site_fract_z
 _atom_site_occupancy
  Cs  Cs0  1  0.46624800  0.75000000  0.50000000  1
  Cs  Cs1  1  0.53375200  0.25000000  0.50000000  1
  Yb  Yb0  1  0.50076700  0.75000000  0.00000000  1
  Yb  Yb1  1  0.49923300  0.25000000  0.00000000  1
  Mo  Mo0  1  0.98451500  0.49165300  0.19273200  1
  Mo  Mo1  1  0.01548500  0.50834700  0.80726800  1
  Mo  Mo2  1  0.98451500  0.00834700  0.80726800  1
  Mo  Mo3  1  0.01548500  0.99165300  0.19273200  1
  O  O0  1  0.87825600  0.98291300  0.35560700  1
  O  O1  1  0.12174400  0.01708700  0.64439300  1
  O  O2  1  0.87825600  0.51708700  0.64439300  1
  O  O3  1  0.12174400  0.48291300  0.35560700  1
  O  O4  1  0.76516700  0.31764400  0.18379000  1
  O  O5  1  0.23483300  0.68235600  0.81621000  1
  O  O6  1  0.76516700  0.18235600  0.81621000  1
  O  O7  1  0.23483300  0.81764400  0.18379000  1
  O  O8  1  0.75198900  0.99756100  0.06479400  1
  O  O9  1  0.24801100  0.00243900  0.93520600  1
  O  O10  1  0.75198900  0.50243900  0.93520600  1
  O  O11  1  0.24801100  0.49756100  0.06479400  1
  O  O12  1  0.76558200  0.66659700  0.18459500  1
  O  O13  1  0.23441800  0.33340300  0.81540500  1
  O  O14  1  0.76558200  0.83340300  0.81540500  1
  O  O15  1  0.23441800  0.16659700  0.18459500  1
loop_
_geom_bond_atom_site_label_1
_geom_bond_atom_site_label_2
_geom_bond_distance
_geom_bond_site_symmetry_2
Cs0 O2 3.143191 1_555
Cs0 O0 3.143191 1_555
Cs0 O3 3.185682 1_555
Cs0 O1 3.185682 1_565
Cs0 O7 3.379094 1_555
Cs0 O5 3.379094 1_555
Cs0 O12 3.567335 1_555
Cs0 O14 3.567335 1_555
Cs1 O1 3.143191 1_555
Cs1 O3 3.143191 1_555
Cs1 O0 3.185682 1_545
Cs1 O2 3.185682 1_555
Cs1 O4 3.379094 1_555
Cs1 O6 3.379094 1_555
Cs1 O15 3.567335 1_555
Cs1 O13 3.567335 1_555
Mo0 O3 1.759258 1_655
Mo0 O12 1.816149 1_555
Mo0 O4 1.816440 1_555
Mo0 O11 1.840481 1_655
Mo1 O2 1.759258 1_455
Mo1 O13 1.816149 1_555
Mo1 O5 1.816440 1_555
Mo1 O10 1.840481 1_455
Mo2 O1 1.759258 1_655
Mo2 O14 1.816149 1_545
Mo2 O6 1.816440 1_555
Mo2 O9 1.840481 1_655
Mo3 O0 1.759258 1_455
Mo3 O15 1.816149 1_565
Mo3 O7 1.816440 1_555
Mo3 O8 1.840481 1_455
O4 Yb1 2.349784 1_555
O5 Yb0 2.349784 1_556
O6 Yb1 2.349784 1_556
O7 Yb0 2.349784 1_555
O8 Yb1 2.504589 1_565
O8 Yb0 2.504908 1_555
O9 Yb0 2.504589 1_546
O9 Yb1 2.504908 1_556
O10 Yb1 2.504589 1_556
O10 Yb0 2.504908 1_556
O11 Yb0 2.504589 1_555
O11 Yb1 2.504908 1_555
O12 Yb0 2.352986 1_555
O13 Yb1 2.352986 1_556
O14 Yb0 2.352986 1_556
O15 Yb1 2.352986 1_555
