# generated using pymatgen
data_NdNiRu
_symmetry_space_group_name_H-M   'P 1'
_cell_length_a   5.32428135
_cell_length_b   5.32428135
_cell_length_c   5.32428135
_cell_angle_alpha   93.34299956
_cell_angle_beta   59.58976956
_cell_angle_gamma   123.51295288
_symmetry_Int_Tables_number   1
_chemical_formula_structural   NdNiRu
_chemical_formula_sum   'Nd2 Ni2 Ru2'
_cell_volume   103.26762857
_cell_formula_units_Z   2
loop_
 _symmetry_equiv_pos_site_id
 _symmetry_equiv_pos_as_xyz
  1  'x, y, z'
loop_
 _atom_site_type_symbol
 _atom_site_label
 _atom_site_symmetry_multiplicity
 _atom_site_fract_x
 _atom_site_fract_y
 _atom_site_fract_z
 _atom_site_occupancy
  Nd  Nd0  1  0.50000000  0.75368640  0.74631360  1
  Nd  Nd1  1  -0.00000000  0.99631360  0.00368640  1
  Ni  Ni0  1  0.75000000  0.37500000  0.87500000  1
  Ni  Ni1  1  0.25000000  0.37500000  0.37500000  1
  Ru  Ru0  1  0.25000000  0.87500000  0.37500000  1
  Ru  Ru1  1  0.75000000  0.37500000  0.37500000  1
loop_
_geom_bond_atom_site_label_1
_geom_bond_atom_site_label_2
_geom_bond_distance
_geom_bond_site_symmetry_2
Nd0 Ni1 2.996838 1_665
Nd0 Ni0 2.996838 1_455
Nd0 Ni0 2.996838 1_565
Nd0 Ni1 2.996838 1_555
Nd0 Ru1 3.095153 1_456
Nd0 Ru0 3.095153 1_655
Nd0 Ru0 3.095153 1_556
Nd0 Ru1 3.095153 1_555
Nd0 Ru1 3.140025 1_565
Nd0 Ru0 3.140025 1_555
Nd0 Nd1 3.212904 1_656
Nd0 Nd1 3.212904 1_546
Nd0 Ni0 3.217813 1_555
Nd0 Ni1 3.217813 1_556
Nd0 Nd1 3.245225 1_556
Nd0 Nd1 3.245225 1_655
Nd1 Ni0 2.996838 1_454
Nd1 Ni1 2.996838 1_455
Nd1 Ni0 2.996838 1_564
Nd1 Ni1 2.996838 1_565
Nd1 Ru0 3.095153 1_554
Nd1 Ru1 3.095153 1_564
Nd1 Ru0 3.095153 1_455
Nd1 Ru1 3.095153 1_465
Nd1 Ru1 3.140025 1_455
Nd1 Ru0 3.140025 1_555
Nd1 Ni1 3.217813 1_564
Nd1 Ni0 3.217813 1_464
Ni0 Ni1 2.645617 1_556
Ni0 Ni1 2.645617 1_655
Ni0 Ru0 2.662141 1_655
Ni0 Ru1 2.662141 1_555
Ni0 Ru1 2.662141 1_556
Ni0 Ru0 2.662141 1_546
Ni1 Ru1 2.662141 1_555
Ni1 Ru0 2.662141 1_545
Ni1 Ru1 2.662141 1_455
Ni1 Ru0 2.662141 1_555
Ru0 Ru1 2.519557 1_565
Ru0 Ru1 2.519557 1_455
