# generated using pymatgen
data_DyAgS2
_symmetry_space_group_name_H-M   'P 1'
_cell_length_a   7.63636300
_cell_length_b   7.64471100
_cell_length_c   12.71427359
_cell_angle_alpha   89.91027276
_cell_angle_beta   90.00000000
_cell_angle_gamma   90.00000000
_symmetry_Int_Tables_number   1
_chemical_formula_structural   DyAgS2
_chemical_formula_sum   'Dy8 Ag8 S16'
_cell_volume   742.23026098
_cell_formula_units_Z   8
loop_
 _symmetry_equiv_pos_site_id
 _symmetry_equiv_pos_as_xyz
  1  'x, y, z'
loop_
 _atom_site_type_symbol
 _atom_site_label
 _atom_site_symmetry_multiplicity
 _atom_site_fract_x
 _atom_site_fract_y
 _atom_site_fract_z
 _atom_site_occupancy
  Dy  Dy0  1  0.50424200  0.74649300  0.00343700  1
  Dy  Dy1  1  0.00424200  0.25350700  0.99656300  1
  Dy  Dy2  1  0.25652900  0.00181300  0.75374900  1
  Dy  Dy3  1  0.75652900  0.99818700  0.24625100  1
  Dy  Dy4  1  0.74864300  0.50203100  0.74706500  1
  Dy  Dy5  1  0.24864300  0.49796900  0.25293500  1
  Dy  Dy6  1  0.00260400  0.75267400  0.50318400  1
  Dy  Dy7  1  0.50260400  0.24732600  0.49681600  1
  Ag  Ag0  1  0.25176200  0.49868500  0.79002400  1
  Ag  Ag1  1  0.75176200  0.50131500  0.20997600  1
  Ag  Ag2  1  0.75265300  0.99761100  0.69682300  1
  Ag  Ag3  1  0.25265300  0.00238900  0.30317700  1
  Ag  Ag4  1  0.00299600  0.75423900  0.03117200  1
  Ag  Ag5  1  0.50299600  0.24576100  0.96882800  1
  Ag  Ag6  1  0.50197000  0.74515500  0.52809600  1
  Ag  Ag7  1  0.00197000  0.25484500  0.47190400  1
  S  S0  1  0.77682300  0.02408800  0.46396500  1
  S  S1  1  0.27682300  0.97591200  0.53603500  1
  S  S2  1  0.23217700  0.47986300  0.47125300  1
  S  S3  1  0.73217700  0.52013700  0.52874700  1
  S  S4  1  0.52277100  0.72810500  0.22154400  1
  S  S5  1  0.02277100  0.27189500  0.77845600  1
  S  S6  1  0.47937800  0.72819900  0.78687800  1
  S  S7  1  0.97937800  0.27180100  0.21312200  1
  S  S8  1  0.98211200  0.77223800  0.72081000  1
  S  S9  1  0.48211200  0.22776200  0.27919000  1
  S  S10  1  0.52578100  0.22803800  0.71315100  1
  S  S11  1  0.02578100  0.77196200  0.28684900  1
  S  S12  1  0.27288400  0.01925100  0.97101300  1
  S  S13  1  0.77288400  0.98074900  0.02898700  1
  S  S14  1  0.72967500  0.47630800  0.96380900  1
  S  S15  1  0.22967500  0.52369200  0.03619100  1
loop_
_geom_bond_atom_site_label_1
_geom_bond_atom_site_label_2
_geom_bond_distance
_geom_bond_site_symmetry_2
Dy0 S15 2.732834 1_555
Dy0 S14 2.736215 1_554
Dy0 S13 2.742776 1_555
Dy0 S12 2.763418 1_564
Dy0 S6 2.763688 1_554
Dy0 S4 2.780016 1_555
Dy1 S14 2.732834 1_455
Dy1 S15 2.736215 1_556
Dy1 S12 2.742776 1_555
Dy1 S13 2.763418 1_446
Dy1 S7 2.763688 1_456
Dy1 S5 2.780016 1_555
Dy2 S6 2.728707 1_545
Dy2 S10 2.735347 1_555
Dy2 S5 2.747751 1_555
Dy2 S8 2.765711 1_445
Dy2 S12 2.768596 1_555
Dy2 S1 2.779781 1_545
Dy3 S7 2.728707 1_565
Dy3 S11 2.735347 1_655
Dy3 S4 2.747751 1_555
Dy3 S9 2.765711 1_565
Dy3 S13 2.768596 1_555
Dy3 S0 2.779781 1_565
Dy4 S10 2.733570 1_555
Dy4 S6 2.734293 1_555
Dy4 S8 2.748594 1_555
Dy4 S5 2.763039 1_655
Dy4 S14 2.766237 1_555
Dy4 S3 2.781830 1_555
Dy5 S11 2.733570 1_555
Dy5 S7 2.734293 1_455
Dy5 S9 2.748594 1_555
Dy5 S4 2.763039 1_555
Dy5 S15 2.766237 1_555
Dy5 S2 2.781830 1_555
Dy6 S1 2.733884 1_555
Dy6 S0 2.742848 1_465
Dy6 S3 2.743814 1_455
Dy6 S2 2.755069 1_555
Dy6 S11 2.759942 1_555
Dy6 S8 2.775644 1_455
Dy7 S0 2.733884 1_555
Dy7 S1 2.742848 1_545
Dy7 S2 2.743814 1_555
Dy7 S3 2.755069 1_555
Dy7 S10 2.759942 1_555
Dy7 S9 2.775644 1_555
Ag0 S5 2.467003 1_555
Ag0 S6 2.470037 1_555
Ag0 S8 3.063002 1_455
Ag0 S10 3.101780 1_555
Ag0 S15 3.140499 1_556
Ag1 S4 2.467003 1_555
Ag1 S7 2.470037 1_555
Ag1 S9 3.063002 1_555
Ag1 S11 3.101780 1_655
Ag1 S14 3.140499 1_554
Ag2 S8 2.475905 1_555
Ag2 S10 2.479671 1_565
Ag2 S0 2.972950 1_565
Ag2 S5 3.120182 1_665
Ag2 S6 3.146475 1_555
Ag3 S9 2.475905 1_555
Ag3 S11 2.479671 1_545
Ag3 S1 2.972950 1_545
Ag3 S4 3.120182 1_545
Ag3 S7 3.146475 1_455
Ag4 S13 2.467162 1_455
Ag4 S15 2.471108 1_555
Ag4 S12 2.988676 1_564
Ag4 S14 3.099986 1_454
Ag5 S12 2.467162 1_555
Ag5 S14 2.471108 1_555
Ag5 S13 2.988676 1_546
Ag5 S15 3.099986 1_556
Ag6 S3 2.459567 1_555
Ag6 S1 2.465502 1_555
Ag6 S2 2.980705 1_555
Ag6 S0 3.100266 1_565
Ag7 S2 2.459567 1_555
Ag7 S0 2.465502 1_455
Ag7 S3 2.980705 1_455
Ag7 S1 3.100266 1_545
