# generated using pymatgen
data_AgSbWO7
_symmetry_space_group_name_H-M   'P 1'
_cell_length_a   7.38045411
_cell_length_b   7.38045411
_cell_length_c   7.38045411
_cell_angle_alpha   120.93272627
_cell_angle_beta   119.62805207
_cell_angle_gamma   89.51877902
_symmetry_Int_Tables_number   1
_chemical_formula_structural   AgSbWO7
_chemical_formula_sum   'Ag2 Sb2 W2 O14'
_cell_volume   283.01017610
_cell_formula_units_Z   2
loop_
 _symmetry_equiv_pos_site_id
 _symmetry_equiv_pos_as_xyz
  1  'x, y, z'
loop_
 _atom_site_type_symbol
 _atom_site_label
 _atom_site_symmetry_multiplicity
 _atom_site_fract_x
 _atom_site_fract_y
 _atom_site_fract_z
 _atom_site_occupancy
  Ag  Ag0  1  0.50000000  0.50000000  0.50000000  1
  Ag  Ag1  1  0.50000000  0.00000000  0.00000000  1
  Sb  Sb0  1  0.00000000  0.00000000  0.00000000  1
  Sb  Sb1  1  0.50000000  0.00000000  0.50000000  1
  W  W0  1  0.00000000  0.00000000  0.50000000  1
  W  W1  1  0.00000000  0.50000000  0.00000000  1
  O  O0  1  0.41895200  0.66895200  0.75000000  1
  O  O1  1  0.58104800  0.33104800  0.25000000  1
  O  O2  1  0.32632000  0.07632000  0.25000000  1
  O  O3  1  0.94308200  0.69308200  0.25000000  1
  O  O4  1  0.31056600  0.68074500  0.24482500  1
  O  O5  1  0.93592100  0.06574100  0.25517500  1
  O  O6  1  0.31056600  0.06574100  0.62982100  1
  O  O7  1  0.93592100  0.68074500  0.87017900  1
  O  O8  1  0.67368000  0.92368000  0.75000000  1
  O  O9  1  0.05691800  0.30691800  0.75000000  1
  O  O10  1  0.68943400  0.31925500  0.75517500  1
  O  O11  1  0.06407900  0.93425900  0.74482500  1
  O  O12  1  0.68943400  0.93425900  0.37017900  1
  O  O13  1  0.06407900  0.31925500  0.12982100  1
loop_
_geom_bond_atom_site_label_1
_geom_bond_atom_site_label_2
_geom_bond_distance
_geom_bond_site_symmetry_2
Ag0 O1 2.007619 1_555
Ag0 O0 2.007619 1_555
Ag0 O2 2.573465 1_555
Ag0 O8 2.573465 1_555
Ag0 O4 2.688702 1_555
Ag0 O10 2.688702 1_555
Ag0 O7 2.688707 1_555
Ag0 O13 2.688707 1_555
Ag1 O1 2.007619 1_555
Ag1 O0 2.007619 1_544
Ag1 O2 2.573465 1_555
Ag1 O8 2.573465 1_544
Ag1 O12 2.688702 1_545
Ag1 O6 2.688702 1_554
Ag1 O5 2.688708 1_555
Ag1 O11 2.688708 1_544
O2 Sb0 2.020565 1_555
O2 Sb1 2.020565 1_555
O3 W1 1.914368 1_655
O3 W0 1.914368 1_665
O4 W1 1.943341 1_555
O4 Sb1 1.985779 1_565
O5 W0 1.943343 1_655
O5 Sb0 1.985774 1_655
O6 W0 1.943341 1_555
O6 Sb1 1.985779 1_555
O7 W1 1.943341 1_656
O7 Sb0 1.985779 1_666
O8 Sb1 2.020565 1_565
O8 Sb0 2.020565 1_666
O9 W1 1.914368 1_556
O9 W0 1.914368 1_555
O10 W1 1.943341 1_656
O10 Sb1 1.985779 1_555
O11 W0 1.943343 1_565
O11 Sb0 1.985774 1_566
O12 W0 1.943341 1_665
O12 Sb1 1.985779 1_565
O13 W1 1.943341 1_555
O13 Sb0 1.985779 1_555
