# generated using pymatgen
data_Li9Mn2Co5O16
_symmetry_space_group_name_H-M   'P 1'
_cell_length_a   2.88561500
_cell_length_b   5.86056700
_cell_length_c   17.07324568
_cell_angle_alpha   89.81325832
_cell_angle_beta   90.00000000
_cell_angle_gamma   90.00000000
_symmetry_Int_Tables_number   1
_chemical_formula_structural   Li9Mn2Co5O16
_chemical_formula_sum   'Li9 Mn2 Co5 O16'
_cell_volume   288.72992982
_cell_formula_units_Z   1
loop_
 _symmetry_equiv_pos_site_id
 _symmetry_equiv_pos_as_xyz
  1  'x, y, z'
loop_
 _atom_site_type_symbol
 _atom_site_label
 _atom_site_symmetry_multiplicity
 _atom_site_fract_x
 _atom_site_fract_y
 _atom_site_fract_z
 _atom_site_occupancy
  Li  Li0  1  0.50000000  0.74625200  0.86743300  1
  Li  Li1  1  0.50000000  0.24109000  0.62694100  1
  Li  Li2  1  0.50000000  0.75100500  0.37827000  1
  Li  Li3  1  0.00000000  0.99647500  0.74099300  1
  Li  Li4  1  0.00000000  0.50623500  0.50995500  1
  Li  Li5  1  0.00000000  0.99635500  0.25174600  1
  Li  Li6  1  0.50000000  0.24900600  0.12768800  1
  Li  Li7  1  0.00000000  0.50045400  0.99790600  1
  Li  Li8  1  0.50000000  0.75935300  0.62687300  1
  Mn  Mn0  1  0.00000000  0.00098800  0.99767100  1
  Mn  Mn1  1  0.00000000  0.99518400  0.50688900  1
  Co  Co0  1  0.00000000  0.50714200  0.73384300  1
  Co  Co1  1  0.00000000  0.50034400  0.25501000  1
  Co  Co2  1  0.50000000  0.24756900  0.37731800  1
  Co  Co3  1  0.50000000  0.74928300  0.12882500  1
  Co  Co4  1  0.50000000  0.25332900  0.86733000  1
  O  O0  1  0.50000000  0.77092400  0.99694900  1
  O  O1  1  0.50000000  0.27041400  0.74966300  1
  O  O2  1  0.50000000  0.77461400  0.50060000  1
  O  O3  1  0.00000000  0.03165500  0.87361300  1
  O  O4  1  0.00000000  0.49959000  0.62974500  1
  O  O5  1  0.00000000  0.01431200  0.38424900  1
  O  O6  1  0.50000000  0.26070300  0.25550600  1
  O  O7  1  0.00000000  0.52399200  0.13015900  1
  O  O8  1  0.50000000  0.73062500  0.75077600  1
  O  O9  1  0.50000000  0.22687000  0.49778600  1
  O  O10  1  0.50000000  0.73383300  0.25232100  1
  O  O11  1  0.00000000  0.00225800  0.61383200  1
  O  O12  1  0.00000000  0.48397000  0.37421700  1
  O  O13  1  0.00000000  0.97403000  0.12425300  1
  O  O14  1  0.50000000  0.22985800  0.00048300  1
  O  O15  1  0.00000000  0.47228900  0.87115700  1
loop_
_geom_bond_atom_site_label_1
_geom_bond_atom_site_label_2
_geom_bond_distance
_geom_bond_site_symmetry_2
Li0 O8 1.994116 1_555
Li0 O15 2.159387 1_555
Li0 O15 2.159387 1_655
Li0 O3 2.211707 1_665
Li0 O3 2.211707 1_565
Li0 O0 2.216451 1_555
Li1 O11 2.023107 1_555
Li1 O11 2.023107 1_655
Li1 O4 2.092738 1_555
Li1 O4 2.092738 1_655
Li1 O1 2.102857 1_555
Li1 O9 2.206941 1_555
Li2 O2 2.093598 1_555
Li2 O5 2.115274 1_565
Li2 O5 2.115274 1_665
Li2 O12 2.129868 1_655
Li2 O12 2.129868 1_555
Li2 O10 2.153039 1_555
Li3 O8 2.129638 1_455
Li3 O8 2.129638 1_555
Li3 O1 2.163928 1_565
Li3 O1 2.163928 1_465
Li3 O11 2.171205 1_565
Li3 O3 2.274290 1_565
Li4 O4 2.045448 1_555
Li4 O2 2.139961 1_455
Li4 O2 2.139961 1_555
Li4 O9 2.192629 1_555
Li4 O9 2.192629 1_455
Li4 O12 2.321583 1_555
Li5 O10 2.109208 1_555
Li5 O10 2.109208 1_455
Li5 O6 2.118153 1_565
Li5 O6 2.118153 1_465
Li5 O13 2.181074 1_555
Li5 O5 2.265045 1_565
Li6 O7 2.163582 1_655
Li6 O7 2.163582 1_555
Li6 O13 2.163962 1_545
Li6 O13 2.163962 1_645
Li6 O14 2.175065 1_555
Li6 O6 2.183568 1_555
Li7 O0 2.143445 1_555
Li7 O0 2.143445 1_455
Li7 O14 2.144314 1_556
Li7 O14 2.144314 1_456
Li7 O15 2.170839 1_555
Li7 O7 2.262646 1_556
Li8 O11 2.038560 1_565
Li8 O11 2.038560 1_665
Li8 O4 2.097901 1_555
Li8 O4 2.097901 1_655
Li8 O8 2.121569 1_555
Li8 O2 2.157453 1_555
Mn0 O14 1.970666 1_456
Mn0 O14 1.970666 1_556
Mn0 O0 1.974812 1_445
Mn0 O0 1.974812 1_545
Mn0 O3 2.125100 1_555
Mn0 O13 2.166419 1_546
Mn1 O11 1.826470 1_565
Mn1 O2 1.940389 1_555
Mn1 O2 1.940389 1_455
Mn1 O9 1.986989 1_465
Mn1 O9 1.986989 1_565
Mn1 O5 2.096497 1_565
Co0 O4 1.777986 1_555
Co0 O8 1.970572 1_455
Co0 O8 1.970572 1_555
Co0 O1 2.019152 1_455
Co0 O1 2.019152 1_555
Co0 O15 2.352614 1_555
Co1 O10 1.988932 1_455
Co1 O10 1.988932 1_555
Co1 O6 2.013484 1_455
Co1 O6 2.013484 1_555
Co1 O12 2.037199 1_555
Co1 O7 2.135662 1_555
Co2 O5 1.990824 1_555
Co2 O5 1.990824 1_655
Co2 O12 2.000868 1_655
Co2 O12 2.000868 1_555
Co2 O9 2.059959 1_555
Co2 O6 2.080899 1_555
Co3 O13 1.954990 1_655
Co3 O13 1.954990 1_555
Co3 O7 1.955836 1_655
Co3 O7 1.955836 1_555
Co3 O10 2.110126 1_555
Co3 O0 2.254708 1_554
Co4 O15 1.932146 1_655
Co4 O15 1.932146 1_555
Co4 O3 1.944234 1_655
Co4 O3 1.944234 1_555
Co4 O1 2.011125 1_555
Co4 O14 2.277064 1_556
