# generated using pymatgen
data_CsEr(MoO4)2
_symmetry_space_group_name_H-M   'P 1'
_cell_length_a   6.04971176
_cell_length_b   6.04971176
_cell_length_c   8.23393000
_cell_angle_alpha   90.00000000
_cell_angle_beta   90.00000000
_cell_angle_gamma   119.99999737
_symmetry_Int_Tables_number   1
_chemical_formula_structural   CsEr(MoO4)2
_chemical_formula_sum   'Cs1 Er1 Mo2 O8'
_cell_volume   260.97997180
_cell_formula_units_Z   1
loop_
 _symmetry_equiv_pos_site_id
 _symmetry_equiv_pos_as_xyz
  1  'x, y, z'
loop_
 _atom_site_type_symbol
 _atom_site_label
 _atom_site_symmetry_multiplicity
 _atom_site_fract_x
 _atom_site_fract_y
 _atom_site_fract_z
 _atom_site_occupancy
  Cs  Cs0  1  0.00000000  0.00000000  0.00000000  1
  Er  Er0  1  0.00000000  0.00000000  0.50000000  1
  Mo  Mo0  1  0.33333300  0.66666700  0.26487300  1
  Mo  Mo1  1  0.66666700  0.33333300  0.73512700  1
  O  O0  1  0.16961500  0.83038500  0.33522300  1
  O  O1  1  0.83038500  0.16961500  0.66477700  1
  O  O2  1  0.16961500  0.33922900  0.33522300  1
  O  O3  1  0.83038500  0.66077100  0.66477700  1
  O  O4  1  0.66077100  0.83038500  0.33522300  1
  O  O5  1  0.33922900  0.16961500  0.66477700  1
  O  O6  1  0.33333300  0.66666700  0.05179900  1
  O  O7  1  0.66666700  0.33333300  0.94820100  1
loop_
_geom_bond_atom_site_label_1
_geom_bond_atom_site_label_2
_geom_bond_distance
_geom_bond_site_symmetry_2
Cs0 O3 3.282907 1_444
Cs0 O4 3.282907 1_445
Cs0 O2 3.282907 1_555
Cs0 O5 3.282907 1_554
Cs0 O0 3.282910 1_545
Cs0 O1 3.282910 1_454
Cs0 O6 3.518744 1_545
Cs0 O7 3.518744 1_454
Cs0 O6 3.518749 1_445
Cs0 O6 3.518749 1_555
Cs0 O7 3.518749 1_554
Cs0 O7 3.518749 1_444
Er0 O5 2.235970 1_555
Er0 O2 2.235970 1_555
Er0 O3 2.235970 1_445
Er0 O4 2.235970 1_445
Er0 O1 2.235975 1_455
Er0 O0 2.235975 1_545
Mo0 O6 1.754436 1_555
Mo0 O0 1.810661 1_555
Mo0 O4 1.810671 1_555
Mo0 O2 1.810671 1_555
Mo1 O7 1.754436 1_555
Mo1 O1 1.810661 1_555
Mo1 O3 1.810671 1_555
Mo1 O5 1.810671 1_555
