# generated using pymatgen
data_CaSnS3
_symmetry_space_group_name_H-M   'P 1'
_cell_length_a   9.31343100
_cell_length_b   9.60514725
_cell_length_c   10.34168933
_cell_angle_alpha   103.55543401
_cell_angle_beta   96.07033638
_cell_angle_gamma   90.11763806
_symmetry_Int_Tables_number   1
_chemical_formula_structural   CaSnS3
_chemical_formula_sum   'Ca6 Sn6 S18'
_cell_volume   893.97664038
_cell_formula_units_Z   6
loop_
 _symmetry_equiv_pos_site_id
 _symmetry_equiv_pos_as_xyz
  1  'x, y, z'
loop_
 _atom_site_type_symbol
 _atom_site_label
 _atom_site_symmetry_multiplicity
 _atom_site_fract_x
 _atom_site_fract_y
 _atom_site_fract_z
 _atom_site_occupancy
  Ca  Ca0  1  0.97038500  0.24127300  0.96956600  1
  Ca  Ca1  1  0.02961500  0.75872700  0.03043400  1
  Ca  Ca2  1  0.25901300  0.92212400  0.71421200  1
  Ca  Ca3  1  0.74098700  0.07787600  0.28578800  1
  Ca  Ca4  1  0.25736300  0.43380100  0.71864000  1
  Ca  Ca5  1  0.74263700  0.56619900  0.28136000  1
  Sn  Sn0  1  0.21132600  0.05880700  0.33158400  1
  Sn  Sn1  1  0.78867400  0.94119300  0.66841600  1
  Sn  Sn2  1  0.21457600  0.60572200  0.32470700  1
  Sn  Sn3  1  0.78542400  0.39427800  0.67529300  1
  Sn  Sn4  1  0.44633500  0.27236300  0.09089300  1
  Sn  Sn5  1  0.55366500  0.72763700  0.90910700  1
  S  S0  1  0.70585800  0.27326800  0.10787500  1
  S  S1  1  0.29414200  0.72673200  0.89212500  1
  S  S2  1  0.27050300  0.22052100  0.89972200  1
  S  S3  1  0.72949700  0.77947900  0.10027800  1
  S  S4  1  0.00698600  0.51752600  0.17068600  1
  S  S5  1  0.99301400  0.48247400  0.82931400  1
  S  S6  1  0.43719100  0.51620900  0.22355500  1
  S  S7  1  0.56280900  0.48379100  0.77644500  1
  S  S8  1  0.00657100  0.07143800  0.17609300  1
  S  S9  1  0.99342900  0.92856200  0.82390800  1
  S  S10  1  0.43660700  0.11795800  0.24607900  1
  S  S11  1  0.56339300  0.88204200  0.75392100  1
  S  S12  1  0.21926200  0.14092300  0.56688300  1
  S  S13  1  0.78073800  0.85907700  0.43311700  1
  S  S14  1  0.22129100  0.63559000  0.55681200  1
  S  S15  1  0.77870900  0.36441000  0.44318800  1
  S  S16  1  0.28064500  0.81381700  0.24431600  1
  S  S17  1  0.71935500  0.18618300  0.75568400  1
loop_
_geom_bond_atom_site_label_1
_geom_bond_atom_site_label_2
_geom_bond_distance
_geom_bond_site_symmetry_2
Ca0 S2 2.955672 1_655
Ca0 S4 2.956732 1_656
Ca0 S0 2.958425 1_556
Ca0 S8 2.969814 1_656
Ca0 S17 2.998508 1_555
Ca0 S5 3.025477 1_555
Ca0 S9 3.047462 1_545
Ca1 S3 2.955672 1_455
Ca1 S5 2.956732 1_454
Ca1 S1 2.958425 1_554
Ca1 S9 2.969805 1_454
Ca1 S16 2.998508 1_555
Ca1 S4 3.025477 1_555
Ca1 S8 3.047465 1_565
Ca2 S9 2.823153 1_455
Ca2 S14 2.850035 1_555
Ca2 S11 2.861024 1_555
Ca2 S12 2.874048 1_565
Ca2 S1 2.916940 1_555
Ca2 S2 3.047055 1_565
Ca3 S8 2.823148 1_655
Ca3 S15 2.850035 1_555
Ca3 S10 2.861024 1_555
Ca3 S13 2.874048 1_545
Ca3 S0 2.916940 1_555
Ca3 S3 3.047055 1_545
Ca4 S5 2.817778 1_455
Ca4 S14 2.841606 1_555
Ca4 S7 2.860190 1_555
Ca4 S12 2.882921 1_555
Ca4 S1 2.958465 1_555
Ca4 S2 3.077272 1_555
Ca5 S4 2.817778 1_655
Ca5 S15 2.841606 1_555
Ca5 S6 2.860190 1_555
Ca5 S13 2.882921 1_555
Ca5 S0 2.958465 1_555
Ca5 S3 3.077272 1_555
S0 Sn4 2.404676 1_555
S1 Sn5 2.404676 1_555
S2 Sn4 2.385111 1_556
S3 Sn5 2.385111 1_554
S4 Sn2 2.387912 1_555
S5 Sn3 2.387912 1_555
S6 Sn4 2.427857 1_555
S6 Sn2 2.485265 1_555
S7 Sn5 2.427857 1_555
S7 Sn3 2.485265 1_555
S8 Sn0 2.383463 1_555
S9 Sn1 2.383470 1_555
S10 Sn4 2.435028 1_555
S10 Sn0 2.475869 1_555
S11 Sn5 2.435028 1_555
S11 Sn1 2.475869 1_555
S12 Sn0 2.368746 1_555
S13 Sn1 2.368746 1_555
S14 Sn2 2.343779 1_555
S15 Sn3 2.343779 1_555
S16 Sn0 2.429529 1_565
S16 Sn2 2.438664 1_555
S17 Sn1 2.429529 1_545
S17 Sn3 2.438664 1_555
