# generated using pymatgen
data_SrLa4Cr5O15
_symmetry_space_group_name_H-M   'P 1'
_cell_length_a   8.74382386
_cell_length_b   8.74382386
_cell_length_c   6.77971604
_cell_angle_alpha   75.14404029
_cell_angle_beta   75.14404029
_cell_angle_gamma   36.96165247
_symmetry_Int_Tables_number   1
_chemical_formula_structural   SrLa4Cr5O15
_chemical_formula_sum   'Sr1 La4 Cr5 O15'
_cell_volume   300.06319851
_cell_formula_units_Z   1
loop_
 _symmetry_equiv_pos_site_id
 _symmetry_equiv_pos_as_xyz
  1  'x, y, z'
loop_
 _atom_site_type_symbol
 _atom_site_label
 _atom_site_symmetry_multiplicity
 _atom_site_fract_x
 _atom_site_fract_y
 _atom_site_fract_z
 _atom_site_occupancy
  Sr  Sr0  1  0.00000000  0.00000000  0.00000000  1
  La  La0  1  0.40147100  0.40147100  0.39868500  1
  La  La1  1  0.80044900  0.80044900  0.79969900  1
  La  La2  1  0.19955100  0.19955100  0.20030100  1
  La  La3  1  0.59852900  0.59852900  0.60131500  1
  Cr  Cr0  1  0.59974200  0.59974200  0.09907100  1
  Cr  Cr1  1  0.00000000  0.00000000  0.50000000  1
  Cr  Cr2  1  0.40025800  0.40025800  0.90092900  1
  Cr  Cr3  1  0.80012600  0.80012600  0.29910100  1
  Cr  Cr4  1  0.19987400  0.19987400  0.70089900  1
  O  O0  1  0.30710700  0.79521800  0.30665600  1
  O  O1  1  0.69289300  0.20478200  0.69334400  1
  O  O2  1  0.10147400  0.59090000  0.10150100  1
  O  O3  1  0.50000000  0.00000000  0.50000000  1
  O  O4  1  0.89852600  0.40910000  0.89849900  1
  O  O5  1  0.69950600  0.69950600  0.20149500  1
  O  O6  1  0.10229500  0.10229500  0.59161400  1
  O  O7  1  0.50000000  0.50000000  0.00000000  1
  O  O8  1  0.89770500  0.89770500  0.40838600  1
  O  O9  1  0.30049400  0.30049400  0.79850500  1
  O  O10  1  0.40910000  0.89852600  0.89849900  1
  O  O11  1  0.79521800  0.30710700  0.30665600  1
  O  O12  1  0.20478200  0.69289300  0.69334400  1
  O  O13  1  0.59090000  0.10147400  0.10150100  1
  O  O14  1  0.00000000  0.50000000  0.50000000  1
loop_
_geom_bond_atom_site_label_1
_geom_bond_atom_site_label_2
_geom_bond_distance
_geom_bond_site_symmetry_2
La0 O1 2.699415 1_555
La0 O12 2.699415 1_555
La0 O11 2.747024 1_555
La0 O0 2.747024 1_555
La0 O7 2.754709 1_555
La0 O8 2.772764 1_545
La0 O8 2.772764 1_455
La0 O9 2.774550 1_555
La0 O2 2.781960 1_555
La0 O13 2.781960 1_555
La0 O3 2.787628 1_555
La0 O14 2.787628 1_555
La1 O10 2.706117 1_555
La1 O4 2.706117 1_555
La1 O8 2.706772 1_555
La1 O13 2.757534 1_566
La1 O2 2.757534 1_656
La1 O12 2.762363 1_655
La1 O1 2.762363 1_565
La1 O3 2.769187 1_565
La1 O14 2.769187 1_655
La1 O9 2.771692 1_565
La1 O9 2.771692 1_655
La1 O5 2.785273 1_556
La2 O2 2.706117 1_555
La2 O13 2.706117 1_555
La2 O6 2.706772 1_555
La2 O4 2.757534 1_454
La2 O10 2.757534 1_544
La2 O0 2.762363 1_545
La2 O11 2.762363 1_455
La2 O3 2.769187 1_555
La2 O14 2.769187 1_555
La2 O5 2.771692 1_455
La2 O5 2.771692 1_545
La2 O9 2.785273 1_554
La3 O11 2.699415 1_555
La3 O0 2.699415 1_555
La3 O12 2.747024 1_555
La3 O1 2.747024 1_555
La3 O7 2.754709 1_556
La3 O6 2.772764 1_655
La3 O6 2.772764 1_565
La3 O5 2.774550 1_555
La3 O4 2.781960 1_555
La3 O10 2.781960 1_555
La3 O3 2.787628 1_565
La3 O14 2.787628 1_655
Cr0 O7 1.946436 1_555
Cr0 O10 1.958118 1_554
Cr0 O4 1.958118 1_554
Cr0 O5 1.959935 1_555
Cr0 O0 1.961403 1_555
Cr0 O11 1.961403 1_555
Cr1 O6 1.958098 1_555
Cr1 O8 1.958098 1_445
Cr1 O12 1.962116 1_545
Cr1 O1 1.962116 1_455
Cr1 O0 1.962116 1_545
Cr1 O11 1.962116 1_455
Cr2 O7 1.946436 1_556
Cr2 O2 1.958118 1_556
Cr2 O13 1.958118 1_556
Cr2 O9 1.959935 1_555
Cr2 O12 1.961403 1_555
Cr2 O1 1.961403 1_555
Cr3 O8 1.953610 1_555
Cr3 O5 1.954505 1_555
Cr3 O2 1.956440 1_655
Cr3 O13 1.956440 1_565
Cr3 O14 1.963330 1_655
Cr3 O3 1.963330 1_565
Cr4 O6 1.953610 1_555
Cr4 O9 1.954505 1_555
Cr4 O10 1.956440 1_545
Cr4 O4 1.956440 1_455
Cr4 O3 1.963330 1_555
Cr4 O14 1.963330 1_555
O0 Sr0 2.830071 1_565
O1 Sr0 2.830071 1_656
O2 Sr0 2.834645 1_565
O4 Sr0 2.834645 1_656
O6 Sr0 2.829264 1_556
O7 Sr0 2.771681 1_565
O7 Sr0 2.771681 1_655
O8 Sr0 2.829264 1_665
O10 Sr0 2.834645 1_566
O11 Sr0 2.830071 1_655
O12 Sr0 2.830071 1_566
O13 Sr0 2.834645 1_655
