# generated using pymatgen
data_Y4Rh6Pb19
_symmetry_space_group_name_H-M   'P 1'
_cell_length_a   10.17121722
_cell_length_b   10.17121722
_cell_length_c   10.17121722
_cell_angle_alpha   109.47122063
_cell_angle_beta   109.47122063
_cell_angle_gamma   109.47122063
_symmetry_Int_Tables_number   1
_chemical_formula_structural   Y4Rh6Pb19
_chemical_formula_sum   'Y4 Rh6 Pb19'
_cell_volume   810.02215471
_cell_formula_units_Z   1
loop_
 _symmetry_equiv_pos_site_id
 _symmetry_equiv_pos_as_xyz
  1  'x, y, z'
loop_
 _atom_site_type_symbol
 _atom_site_label
 _atom_site_symmetry_multiplicity
 _atom_site_fract_x
 _atom_site_fract_y
 _atom_site_fract_z
 _atom_site_occupancy
  Y  Y0  1  0.64960000  0.64960000  0.64960000  1
  Y  Y1  1  0.35040000  0.00000000  0.00000000  1
  Y  Y2  1  0.00000000  0.35040000  0.00000000  1
  Y  Y3  1  0.00000000  0.00000000  0.35040000  1
  Rh  Rh0  1  0.38029900  0.88029900  0.50000000  1
  Rh  Rh1  1  0.61970100  0.11970100  0.50000000  1
  Rh  Rh2  1  0.88029900  0.50000000  0.38029900  1
  Rh  Rh3  1  0.11970100  0.50000000  0.61970100  1
  Rh  Rh4  1  0.50000000  0.38029900  0.88029900  1
  Rh  Rh5  1  0.50000000  0.61970100  0.11970100  1
  Pb  Pb0  1  0.69952600  0.69952600  0.00000000  1
  Pb  Pb1  1  0.30047400  0.30047400  0.00000000  1
  Pb  Pb2  1  0.69952600  0.00000000  0.69952600  1
  Pb  Pb3  1  0.30047400  0.00000000  0.30047400  1
  Pb  Pb4  1  0.00000000  0.69952600  0.69952600  1
  Pb  Pb5  1  0.00000000  0.30047400  0.30047400  1
  Pb  Pb6  1  0.00000000  0.00000000  0.00000000  1
  Pb  Pb7  1  0.36112100  0.59531700  0.32776200  1
  Pb  Pb8  1  0.63887900  0.96664100  0.23419600  1
  Pb  Pb9  1  0.73244500  0.40468300  0.76580400  1
  Pb  Pb10  1  0.59531700  0.32776200  0.36112100  1
  Pb  Pb11  1  0.26755500  0.03335900  0.67223800  1
  Pb  Pb12  1  0.96664100  0.23419600  0.63887900  1
  Pb  Pb13  1  0.40468300  0.76580400  0.73244500  1
  Pb  Pb14  1  0.03335900  0.67223800  0.26755500  1
  Pb  Pb15  1  0.32776200  0.36112100  0.59531700  1
  Pb  Pb16  1  0.76580400  0.73244500  0.40468300  1
  Pb  Pb17  1  0.67223800  0.26755500  0.03335900  1
  Pb  Pb18  1  0.23419600  0.63887900  0.96664100  1
loop_
_geom_bond_atom_site_label_1
_geom_bond_atom_site_label_2
_geom_bond_distance
_geom_bond_site_symmetry_2
Rh0 Rh1 2.811707 1_565
Rh2 Rh3 2.811707 1_655
Rh4 Rh5 2.811707 1_556
Pb0 Rh5 2.732733 1_555
Pb0 Rh4 2.732733 1_554
Pb0 Y3 3.260795 1_665
Pb0 Y0 3.260795 1_554
Pb1 Rh5 2.732733 1_555
Pb1 Rh4 2.732733 1_554
Pb1 Y1 3.260795 1_555
Pb1 Y2 3.260795 1_555
Pb2 Rh1 2.732733 1_555
Pb2 Rh0 2.732733 1_545
Pb2 Y2 3.260795 1_656
Pb2 Y0 3.260795 1_545
Pb3 Rh0 2.732733 1_545
Pb3 Rh1 2.732733 1_555
Pb3 Y1 3.260795 1_555
Pb3 Y3 3.260795 1_555
Pb4 Rh3 2.732733 1_555
Pb4 Rh2 2.732733 1_455
Pb4 Y1 3.260795 1_566
Pb4 Y0 3.260795 1_455
Pb5 Rh2 2.732733 1_455
Pb5 Rh3 2.732733 1_555
Pb5 Y3 3.260795 1_555
Pb5 Y2 3.260795 1_555
Pb6 Y3 3.563995 1_555
Pb6 Y2 3.563995 1_555
Pb6 Y1 3.563995 1_555
Pb6 Y0 3.563995 1_444
Pb7 Rh0 2.742074 1_555
Pb7 Rh5 2.940159 1_555
Pb7 Y0 3.307824 1_555
Pb7 Y2 3.318271 1_555
Pb8 Rh1 2.742074 1_565
Pb8 Rh5 2.940159 1_555
Pb8 Y1 3.307824 1_565
Pb8 Y3 3.318271 1_665
Pb9 Rh1 2.742074 1_555
Pb9 Rh4 2.940159 1_555
Pb9 Y2 3.307824 1_656
Pb9 Y0 3.318271 1_555
Pb10 Rh2 2.742074 1_555
Pb10 Rh1 2.940159 1_555
Pb10 Y0 3.307824 1_555
Pb10 Y1 3.318271 1_555
Pb11 Rh0 2.742074 1_545
Pb11 Rh4 2.940159 1_555
Pb11 Y3 3.307824 1_555
Pb11 Y1 3.318271 1_556
Pb12 Rh3 2.742074 1_655
Pb12 Rh1 2.940159 1_555
Pb12 Y3 3.307824 1_655
Pb12 Y2 3.318271 1_656
Pb13 Rh3 2.742074 1_555
Pb13 Rh0 2.940159 1_555
Pb13 Y1 3.307824 1_566
Pb13 Y0 3.318271 1_555
Pb14 Rh2 2.742074 1_455
Pb14 Rh0 2.940159 1_555
Pb14 Y2 3.307824 1_555
Pb14 Y3 3.318271 1_565
Pb15 Rh4 2.742074 1_555
Pb15 Rh3 2.940159 1_555
Pb15 Y0 3.307824 1_555
Pb15 Y3 3.318271 1_555
Pb16 Rh5 2.742074 1_555
Pb16 Rh2 2.940159 1_555
Pb16 Y3 3.307824 1_665
Pb16 Y0 3.318271 1_555
Pb17 Rh4 2.742074 1_554
Pb17 Rh2 2.940159 1_555
Pb17 Y1 3.307824 1_555
Pb17 Y2 3.318271 1_655
Pb18 Rh5 2.742074 1_556
Pb18 Rh3 2.940159 1_555
Pb18 Y2 3.307824 1_556
Pb18 Y1 3.318271 1_566
