# generated using pymatgen
data_Na2(TaSe2)3
_symmetry_space_group_name_H-M   'P 1'
_cell_length_a   15.61215240
_cell_length_b   15.61215240
_cell_length_c   15.61215323
_cell_angle_alpha   22.41820566
_cell_angle_beta   22.41820566
_cell_angle_gamma   22.41820957
_symmetry_Int_Tables_number   1
_chemical_formula_structural   Na2(TaSe2)3
_chemical_formula_sum   'Na4 Ta6 Se12'
_cell_volume   485.40239156
_cell_formula_units_Z   2
loop_
 _symmetry_equiv_pos_site_id
 _symmetry_equiv_pos_as_xyz
  1  'x, y, z'
loop_
 _atom_site_type_symbol
 _atom_site_label
 _atom_site_symmetry_multiplicity
 _atom_site_fract_x
 _atom_site_fract_y
 _atom_site_fract_z
 _atom_site_occupancy
  Na  Na0  1  0.41673673  0.41673673  0.41673673  1
  Na  Na1  1  0.08340641  0.08340641  0.08340641  1
  Na  Na2  1  0.91659359  0.91659359  0.91659359  1
  Na  Na3  1  0.58326327  0.58326327  0.58326327  1
  Ta  Ta0  1  0.83333313  0.83333313  0.83333313  1
  Ta  Ta1  1  0.16666687  0.16666687  0.16666687  1
  Ta  Ta2  1  0.50000000  0.50000000  0.50000000  1
  Ta  Ta3  1  0.33343099  0.66656901  -0.00000000  1
  Ta  Ta4  1  0.00000000  0.33343099  0.66656901  1
  Ta  Ta5  1  0.66656901  -0.00000000  0.33343099  1
  Se  Se0  1  0.46579441  0.12877955  0.79724187  1
  Se  Se1  1  0.79724187  0.46579441  0.12877955  1
  Se  Se2  1  0.12877955  0.79724187  0.46579441  1
  Se  Se3  1  0.20275813  0.87122045  0.53420559  1
  Se  Se4  1  0.53420559  0.20275813  0.87122045  1
  Se  Se5  1  0.87122045  0.53420559  0.20275813  1
  Se  Se6  1  0.37048319  0.03499107  0.70264246  1
  Se  Se7  1  0.70264246  0.37048319  0.03499107  1
  Se  Se8  1  0.03499107  0.70264246  0.37048319  1
  Se  Se9  1  0.29735754  0.96500893  0.62951681  1
  Se  Se10  1  0.62951681  0.29735754  0.96500893  1
  Se  Se11  1  0.96500893  0.62951681  0.29735754  1
loop_
_geom_bond_atom_site_label_1
_geom_bond_atom_site_label_2
_geom_bond_distance
_geom_bond_site_symmetry_2
Na0 Se1 2.959205 1_555
Na0 Se2 2.959206 1_555
Na0 Se0 2.959206 1_555
Na0 Se6 2.962919 1_555
Na0 Se8 2.962920 1_555
Na0 Se7 2.962920 1_555
Na1 Se0 2.959292 1_554
Na1 Se1 2.959293 1_455
Na1 Se2 2.959293 1_545
Na1 Se8 2.963412 1_545
Na1 Se7 2.963412 1_455
Na1 Se6 2.963412 1_554
Na2 Se5 2.959292 1_556
Na2 Se4 2.959293 1_565
Na2 Se3 2.959293 1_655
Na2 Se9 2.963412 1_655
Na2 Se10 2.963412 1_565
Na2 Se11 2.963412 1_556
Na3 Se4 2.959205 1_555
Na3 Se3 2.959206 1_555
Na3 Se5 2.959206 1_555
Na3 Se11 2.962919 1_555
Na3 Se9 2.962920 1_555
Na3 Se10 2.962920 1_555
Se0 Ta0 2.599482 1_545
Se0 Ta2 2.612393 1_555
Se0 Ta1 2.612612 1_556
Se1 Ta0 2.599482 1_554
Se1 Ta2 2.612394 1_555
Se1 Ta1 2.612612 1_655
Se2 Ta0 2.599482 1_455
Se2 Ta2 2.612394 1_555
Se2 Ta1 2.612611 1_565
Se3 Ta1 2.599482 1_565
Se3 Ta2 2.612394 1_555
Se3 Ta0 2.612611 1_455
Se4 Ta1 2.599482 1_556
Se4 Ta2 2.612394 1_555
Se4 Ta0 2.612612 1_545
Se5 Ta1 2.599482 1_655
Se5 Ta2 2.612393 1_555
Se5 Ta0 2.612612 1_554
Se6 Ta5 2.604281 1_555
Se6 Ta3 2.605415 1_546
Se6 Ta4 2.612816 1_555
Se7 Ta3 2.604281 1_555
Se7 Ta4 2.605416 1_654
Se7 Ta5 2.612815 1_555
Se8 Ta4 2.604280 1_555
Se8 Ta5 2.605416 1_465
Se8 Ta3 2.612816 1_555
Se9 Ta5 2.604280 1_565
Se9 Ta4 2.605416 1_565
Se9 Ta3 2.612816 1_556
Se10 Ta3 2.604281 1_556
Se10 Ta5 2.605416 1_556
Se10 Ta4 2.612815 1_655
Se11 Ta4 2.604281 1_655
Se11 Ta3 2.605415 1_655
Se11 Ta5 2.612816 1_565
