# generated using pymatgen
data_Cs3DyO3
_symmetry_space_group_name_H-M   'P 1'
_cell_length_a   14.82176866
_cell_length_b   7.45905377
_cell_length_c   7.85258114
_cell_angle_alpha   63.73518574
_cell_angle_beta   90.00000000
_cell_angle_gamma   90.00000000
_symmetry_Int_Tables_number   1
_chemical_formula_structural   Cs3DyO3
_chemical_formula_sum   'Cs12 Dy4 O12'
_cell_volume   778.52333157
_cell_formula_units_Z   4
loop_
 _symmetry_equiv_pos_site_id
 _symmetry_equiv_pos_as_xyz
  1  'x, y, z'
loop_
 _atom_site_type_symbol
 _atom_site_label
 _atom_site_symmetry_multiplicity
 _atom_site_fract_x
 _atom_site_fract_y
 _atom_site_fract_z
 _atom_site_occupancy
  Cs  Cs0  1  0.95802807  0.49036780  0.26918592  1
  Cs  Cs1  1  0.69024637  0.40696159  0.46552607  1
  Cs  Cs2  1  0.20192908  0.64620768  0.07427922  1
  Cs  Cs3  1  0.54197193  0.99036780  0.26918592  1
  Cs  Cs4  1  0.80975363  0.90696159  0.46552607  1
  Cs  Cs5  1  0.29807092  0.14620768  0.07427922  1
  Cs  Cs6  1  0.79807092  0.35379232  0.92572078  1
  Cs  Cs7  1  0.30975363  0.59303841  0.53447393  1
  Cs  Cs8  1  0.04197193  0.50963220  0.73081408  1
  Cs  Cs9  1  0.70192908  0.85379232  0.92572078  1
  Cs  Cs10  1  0.19024637  0.09303841  0.53447393  1
  Cs  Cs11  1  0.45802807  0.00963220  0.73081408  1
  Dy  Dy0  1  0.44059766  0.51509903  0.16473905  1
  Dy  Dy1  1  0.05940234  0.01509903  0.16473905  1
  Dy  Dy2  1  0.55940234  0.48490097  0.83526095  1
  Dy  Dy3  1  0.94059766  0.98490097  0.83526095  1
  O  O0  1  0.58417593  0.47454749  0.11322150  1
  O  O1  1  0.86750782  0.22585223  0.62780876  1
  O  O2  1  0.91582407  0.97454749  0.11322150  1
  O  O3  1  0.63249218  0.72585223  0.62780876  1
  O  O4  1  0.59973226  0.21636518  0.82981336  1
  O  O5  1  0.90026774  0.71636518  0.82981336  1
  O  O6  1  0.40026774  0.78363482  0.17018664  1
  O  O7  1  0.09973226  0.28363482  0.17018664  1
  O  O8  1  0.13249218  0.77414777  0.37219124  1
  O  O9  1  0.41582407  0.52545251  0.88677850  1
  O  O10  1  0.36750782  0.27414777  0.37219124  1
  O  O11  1  0.08417593  0.02545251  0.88677850  1
loop_
_geom_bond_atom_site_label_1
_geom_bond_atom_site_label_2
_geom_bond_distance
_geom_bond_site_symmetry_2
Cs0 O7 2.907657 1_655
Cs0 O1 2.950577 1_555
Cs0 O5 3.214194 1_554
Cs0 O2 3.319593 1_555
Cs0 O8 3.651960 1_655
Cs1 O4 2.899083 1_555
Cs1 O1 2.971216 1_555
Cs1 O0 3.024068 1_555
Cs1 O3 3.270667 1_555
Cs2 O7 2.893621 1_555
Cs2 O8 3.068951 1_555
Cs2 O11 3.087052 1_564
Cs2 O6 3.308057 1_555
Cs3 O6 2.907657 1_555
Cs3 O3 2.950577 1_555
Cs3 O4 3.214194 1_564
Cs3 O0 3.319593 1_565
Cs3 O10 3.651960 1_565
Cs4 O5 2.899083 1_555
Cs4 O3 2.971216 1_555
Cs4 O2 3.024068 1_555
Cs4 O1 3.270667 1_565
Cs5 O6 2.893621 1_545
Cs5 O10 3.068951 1_555
Cs5 O9 3.087052 1_554
Cs5 O7 3.308057 1_555
Cs6 O5 2.893621 1_555
Cs6 O1 3.068951 1_555
Cs6 O2 3.087052 1_546
Cs6 O4 3.308057 1_555
Cs7 O6 2.899083 1_555
Cs7 O8 2.971216 1_555
Cs7 O9 3.024068 1_555
Cs7 O10 3.270667 1_555
Cs8 O5 2.907657 1_455
Cs8 O8 2.950577 1_555
Cs8 O7 3.214194 1_556
Cs8 O11 3.319593 1_555
Cs8 O1 3.651960 1_455
Cs9 O4 2.893621 1_565
Cs9 O3 3.068951 1_555
Cs9 O0 3.087052 1_556
Cs9 O5 3.308057 1_555
Cs10 O7 2.899083 1_555
Cs10 O10 2.971216 1_555
Cs10 O11 3.024068 1_555
Cs10 O8 3.270667 1_545
Cs11 O4 2.907657 1_555
Cs11 O10 2.950577 1_555
Cs11 O6 3.214194 1_546
Cs11 O9 3.319593 1_545
Cs11 O3 3.651960 1_545
Dy0 O6 2.108811 1_555
Dy0 O10 2.113357 1_555
Dy0 O9 2.180784 1_554
Dy0 O0 2.211829 1_555
Dy1 O7 2.108811 1_555
Dy1 O8 2.113357 1_545
Dy1 O11 2.180784 1_554
Dy1 O2 2.211829 1_445
Dy2 O4 2.108811 1_555
Dy2 O3 2.113357 1_555
Dy2 O0 2.180784 1_556
Dy2 O9 2.211829 1_555
Dy3 O5 2.108811 1_555
Dy3 O1 2.113357 1_565
Dy3 O2 2.180784 1_556
Dy3 O11 2.211829 1_665
