# generated using pymatgen
data_NaU(Te3O8)2
_symmetry_space_group_name_H-M   'P 1'
_cell_length_a   11.34846398
_cell_length_b   11.34846398
_cell_length_c   11.34846398
_cell_angle_alpha   90.00000000
_cell_angle_beta   90.00000000
_cell_angle_gamma   90.00000000
_symmetry_Int_Tables_number   1
_chemical_formula_structural   NaU(Te3O8)2
_chemical_formula_sum   'Na4 U4 Te24 O64'
_cell_volume   1461.54183352
_cell_formula_units_Z   4
loop_
 _symmetry_equiv_pos_site_id
 _symmetry_equiv_pos_as_xyz
  1  'x, y, z'
loop_
 _atom_site_type_symbol
 _atom_site_label
 _atom_site_symmetry_multiplicity
 _atom_site_fract_x
 _atom_site_fract_y
 _atom_site_fract_z
 _atom_site_occupancy
  Na  Na0  1  0.50000000  0.50000000  -0.00000000  1
  Na  Na1  1  0.50000000  0.00000000  0.50000000  1
  Na  Na2  1  0.00000000  0.50000000  0.50000000  1
  Na  Na3  1  0.00000000  0.00000000  0.00000000  1
  U  U0  1  0.50000000  0.50000000  0.50000000  1
  U  U1  1  0.50000000  0.00000000  -0.00000000  1
  U  U2  1  0.00000000  0.50000000  0.00000000  1
  U  U3  1  0.00000000  0.00000000  0.50000000  1
  Te  Te0  1  0.24043483  0.71606159  0.52877491  1
  Te  Te1  1  0.75956517  0.21606159  0.97122509  1
  Te  Te2  1  0.25956517  0.28393841  0.02877491  1
  Te  Te3  1  0.74043483  0.78393841  0.47122509  1
  Te  Te4  1  0.52877491  0.24043483  0.71606159  1
  Te  Te5  1  0.97122509  0.75956517  0.21606159  1
  Te  Te6  1  0.02877491  0.25956517  0.28393841  1
  Te  Te7  1  0.47122509  0.74043483  0.78393841  1
  Te  Te8  1  0.71606159  0.52877491  0.24043483  1
  Te  Te9  1  0.21606159  0.97122509  0.75956517  1
  Te  Te10  1  0.28393841  0.02877491  0.25956517  1
  Te  Te11  1  0.78393841  0.47122509  0.74043483  1
  Te  Te12  1  0.75956517  0.28393841  0.47122509  1
  Te  Te13  1  0.24043483  0.78393841  0.02877491  1
  Te  Te14  1  0.74043483  0.71606159  0.97122509  1
  Te  Te15  1  0.25956517  0.21606159  0.52877491  1
  Te  Te16  1  0.47122509  0.75956517  0.28393841  1
  Te  Te17  1  0.02877491  0.24043483  0.78393841  1
  Te  Te18  1  0.97122509  0.74043483  0.71606159  1
  Te  Te19  1  0.52877491  0.25956517  0.21606159  1
  Te  Te20  1  0.28393841  0.47122509  0.75956517  1
  Te  Te21  1  0.78393841  0.02877491  0.24043483  1
  Te  Te22  1  0.71606159  0.97122509  0.74043483  1
  Te  Te23  1  0.21606159  0.52877491  0.25956517  1
  O  O0  1  0.16152232  0.61750914  0.39911576  1
  O  O1  1  0.83847768  0.11750914  0.10088424  1
  O  O2  1  0.33847768  0.38249086  0.89911576  1
  O  O3  1  0.66152232  0.88249086  0.60088424  1
  O  O4  1  0.39911576  0.16152232  0.61750914  1
  O  O5  1  0.10088424  0.83847768  0.11750914  1
  O  O6  1  0.89911576  0.33847768  0.38249086  1
  O  O7  1  0.60088424  0.66152232  0.88249086  1
  O  O8  1  0.61750914  0.39911576  0.16152232  1
  O  O9  1  0.11750914  0.10088424  0.83847768  1
  O  O10  1  0.38249086  0.89911576  0.33847768  1
  O  O11  1  0.88249086  0.60088424  0.66152232  1
  O  O12  1  0.83847768  0.38249086  0.60088424  1
  O  O13  1  0.16152232  0.88249086  0.89911576  1
  O  O14  1  0.66152232  0.61750914  0.10088424  1
  O  O15  1  0.33847768  0.11750914  0.39911576  1
  O  O16  1  0.60088424  0.83847768  0.38249086  1
  O  O17  1  0.89911576  0.16152232  0.88249086  1
  O  O18  1  0.10088424  0.66152232  0.61750914  1
  O  O19  1  0.39911576  0.33847768  0.11750914  1
  O  O20  1  0.38249086  0.60088424  0.83847768  1
  O  O21  1  0.88249086  0.89911576  0.16152232  1
  O  O22  1  0.61750914  0.10088424  0.66152232  1
  O  O23  1  0.11750914  0.39911576  0.33847768  1
  O  O24  1  0.40612007  0.40612007  0.40612007  1
  O  O25  1  0.59387993  0.90612007  0.09387993  1
  O  O26  1  0.09387993  0.59387993  0.90612007  1
  O  O27  1  0.90612007  0.09387993  0.59387993  1
  O  O28  1  0.59387993  0.59387993  0.59387993  1
  O  O29  1  0.40612007  0.09387993  0.90612007  1
  O  O30  1  0.90612007  0.40612007  0.09387993  1
  O  O31  1  0.09387993  0.90612007  0.40612007  1
  O  O32  1  0.40921018  0.67734530  0.41971369  1
  O  O33  1  0.59078982  0.17734530  0.08028631  1
  O  O34  1  0.09078982  0.32265470  0.91971369  1
  O  O35  1  0.90921018  0.82265470  0.58028631  1
  O  O36  1  0.41971369  0.40921018  0.67734530  1
  O  O37  1  0.08028631  0.59078982  0.17734530  1
  O  O38  1  0.91971369  0.09078982  0.32265470  1
  O  O39  1  0.58028631  0.90921018  0.82265470  1
  O  O40  1  0.67734530  0.41971369  0.40921018  1
  O  O41  1  0.17734530  0.08028631  0.59078982  1
  O  O42  1  0.32265470  0.91971369  0.09078982  1
  O  O43  1  0.82265470  0.58028631  0.90921018  1
  O  O44  1  0.59078982  0.32265470  0.58028631  1
  O  O45  1  0.40921018  0.82265470  0.91971369  1
  O  O46  1  0.90921018  0.67734530  0.08028631  1
  O  O47  1  0.09078982  0.17734530  0.41971369  1
  O  O48  1  0.58028631  0.59078982  0.32265470  1
  O  O49  1  0.91971369  0.40921018  0.82265470  1
  O  O50  1  0.08028631  0.90921018  0.67734530  1
  O  O51  1  0.41971369  0.09078982  0.17734530  1
  O  O52  1  0.32265470  0.58028631  0.59078982  1
  O  O53  1  0.82265470  0.91971369  0.40921018  1
  O  O54  1  0.67734530  0.08028631  0.90921018  1
  O  O55  1  0.17734530  0.41971369  0.09078982  1
  O  O56  1  0.31553171  0.81553171  0.68446829  1
  O  O57  1  0.68446829  0.31553171  0.81553171  1
  O  O58  1  0.18446829  0.18446829  0.18446829  1
  O  O59  1  0.81553171  0.68446829  0.31553171  1
  O  O60  1  0.68446829  0.18446829  0.31553171  1
  O  O61  1  0.31553171  0.68446829  0.18446829  1
  O  O62  1  0.81553171  0.81553171  0.81553171  1
  O  O63  1  0.18446829  0.31553171  0.68446829  1
loop_
_geom_bond_atom_site_label_1
_geom_bond_atom_site_label_2
_geom_bond_distance
_geom_bond_site_symmetry_2
Na0 O20 2.539509 1_554
Na0 O2 2.539509 1_554
Na0 O7 2.539509 1_554
Na0 O8 2.539509 1_555
Na0 O19 2.539509 1_555
Na0 O14 2.539509 1_555
Na1 O16 2.539509 1_545
Na1 O10 2.539509 1_545
Na1 O3 2.539509 1_545
Na1 O15 2.539509 1_555
Na1 O22 2.539509 1_555
Na1 O4 2.539509 1_555
Na2 O12 2.539509 1_455
Na2 O11 2.539509 1_455
Na2 O6 2.539509 1_455
Na2 O0 2.539509 1_555
Na2 O18 2.539509 1_555
Na2 O23 2.539509 1_555
Na3 O17 2.539509 1_454
Na3 O13 2.539509 1_544
Na3 O9 2.539509 1_554
Na3 O21 2.539509 1_445
Na3 O5 2.539509 1_545
Na3 O1 2.539509 1_455
O0 Te23 1.976154 1_555
O0 Te0 2.053767 1_555
O1 Te21 1.976154 1_555
O1 Te1 2.053767 1_554
O2 Te20 1.976154 1_555
O2 Te2 2.053767 1_556
O3 Te22 1.976154 1_555
O3 Te3 2.053767 1_555
O4 Te15 1.976154 1_555
O4 Te4 2.053767 1_555
O5 Te13 1.976154 1_555
O5 Te5 2.053767 1_455
O6 Te12 1.976154 1_555
O6 Te6 2.053767 1_655
O7 Te14 1.976154 1_555
O7 Te7 2.053767 1_555
O8 Te19 1.976154 1_555
O8 Te8 2.053767 1_555
O9 Te17 1.976154 1_555
O9 Te9 2.053767 1_545
O10 Te16 1.976154 1_555
O10 Te10 2.053767 1_565
O11 Te18 1.976154 1_555
O11 Te11 2.053767 1_555
O12 Te11 1.976154 1_555
O12 Te12 2.053767 1_555
O13 Te9 1.976154 1_555
O13 Te13 2.053767 1_556
O14 Te8 1.976154 1_555
O14 Te14 2.053767 1_554
O15 Te10 1.976154 1_555
O15 Te15 2.053767 1_555
O16 Te3 1.976154 1_555
O16 Te16 2.053767 1_555
O17 Te1 1.976154 1_555
O17 Te17 2.053767 1_655
O18 Te0 1.976154 1_555
O18 Te18 2.053767 1_455
O19 Te2 1.976154 1_555
O19 Te19 2.053767 1_555
O20 Te7 1.976154 1_555
O20 Te20 2.053767 1_555
O21 Te5 1.976154 1_555
O21 Te21 2.053767 1_565
O22 Te4 1.976154 1_555
O22 Te22 2.053767 1_545
O23 Te6 1.976154 1_555
O23 Te23 2.053767 1_555
O24 U0 1.845315 1_555
O25 U1 1.845315 1_565
O26 U2 1.845315 1_556
O27 U3 1.845315 1_655
O28 U0 1.845315 1_555
O29 U1 1.845315 1_556
O30 U2 1.845315 1_655
O31 U3 1.845315 1_565
O32 Te16 1.933936 1_555
O32 Te0 2.322374 1_555
O32 U0 2.437676 1_555
O33 Te19 1.933936 1_555
O33 Te1 2.322374 1_554
O33 U1 2.437676 1_555
O34 Te17 1.933936 1_555
O34 Te2 2.322374 1_556
O34 U2 2.437676 1_556
O35 Te18 1.933936 1_555
O35 Te3 2.322374 1_555
O35 U3 2.437676 1_665
O36 Te20 1.933936 1_555
O36 Te4 2.322374 1_555
O36 U0 2.437676 1_555
O37 Te23 1.933936 1_555
O37 Te5 2.322374 1_455
O37 U2 2.437676 1_555
O38 Te21 1.933936 1_555
O38 Te6 2.322374 1_655
O38 U3 2.437676 1_655
O39 Te22 1.933936 1_555
O39 Te7 2.322374 1_555
O39 U1 2.437676 1_566
O40 Te12 1.933936 1_555
O40 Te8 2.322374 1_555
O40 U0 2.437676 1_555
O41 Te15 1.933936 1_555
O41 Te9 2.322374 1_545
O41 U3 2.437676 1_555
O42 Te13 1.933936 1_555
O42 Te10 2.322374 1_565
O42 U1 2.437676 1_565
O43 Te14 1.933936 1_555
O43 Te11 2.322374 1_555
O43 U2 2.437676 1_656
O44 Te4 1.933936 1_555
O44 Te12 2.322374 1_555
O44 U0 2.437676 1_555
O45 Te7 1.933936 1_555
O45 Te13 2.322374 1_556
O45 U1 2.437676 1_566
O46 Te5 1.933936 1_555
O46 Te14 2.322374 1_554
O46 U2 2.437676 1_655
O47 Te6 1.933936 1_555
O47 Te15 2.322374 1_555
O47 U3 2.437676 1_555
O48 Te8 1.933936 1_555
O48 Te16 2.322374 1_555
O48 U0 2.437676 1_555
O49 Te11 1.933936 1_555
O49 Te17 2.322374 1_655
O49 U2 2.437676 1_656
O50 Te9 1.933936 1_555
O50 Te18 2.322374 1_455
O50 U3 2.437676 1_565
O51 Te10 1.933936 1_555
O51 Te19 2.322374 1_555
O51 U1 2.437676 1_555
O52 Te0 1.933936 1_555
O52 Te20 2.322374 1_555
O52 U0 2.437676 1_555
O53 Te3 1.933936 1_555
O53 Te21 2.322374 1_565
O53 U3 2.437676 1_665
O54 Te1 1.933936 1_555
O54 Te22 2.322374 1_545
O54 U1 2.437676 1_556
O55 Te2 1.933936 1_555
O55 Te23 2.322374 1_555
O55 U2 2.437676 1_555
O56 Te0 2.263280 1_555
O56 Te9 2.263280 1_555
O56 Te7 2.263280 1_555
O57 Te4 2.263280 1_555
O57 Te1 2.263280 1_555
O57 Te11 2.263280 1_555
O58 Te2 2.263280 1_555
O58 Te10 2.263280 1_555
O58 Te6 2.263280 1_555
O59 Te8 2.263280 1_555
O59 Te3 2.263280 1_555
O59 Te5 2.263280 1_555
O60 Te21 2.263280 1_555
O60 Te12 2.263280 1_555
O60 Te19 2.263280 1_555
O61 Te13 2.263280 1_555
O61 Te23 2.263280 1_555
O61 Te16 2.263280 1_555
O62 Te14 2.263280 1_555
O62 Te18 2.263280 1_555
O62 Te22 2.263280 1_555
O63 Te17 2.263280 1_555
O63 Te15 2.263280 1_555
O63 Te20 2.263280 1_555
