# generated using pymatgen
data_Tb2CdPd2
_symmetry_space_group_name_H-M   'P 1'
_cell_length_a   3.71237649
_cell_length_b   7.69540488
_cell_length_c   7.69540488
_cell_angle_alpha   90.00000000
_cell_angle_beta   90.00000000
_cell_angle_gamma   90.00000000
_symmetry_Int_Tables_number   1
_chemical_formula_structural   Tb2CdPd2
_chemical_formula_sum   'Tb4 Cd2 Pd4'
_cell_volume   219.84417472
_cell_formula_units_Z   2
loop_
 _symmetry_equiv_pos_site_id
 _symmetry_equiv_pos_as_xyz
  1  'x, y, z'
loop_
 _atom_site_type_symbol
 _atom_site_label
 _atom_site_symmetry_multiplicity
 _atom_site_fract_x
 _atom_site_fract_y
 _atom_site_fract_z
 _atom_site_occupancy
  Tb  Tb0  1  0.50000000  0.17249646  0.67249646  1
  Tb  Tb1  1  0.50000000  0.82750354  0.32750354  1
  Tb  Tb2  1  0.50000000  0.32750354  0.17249646  1
  Tb  Tb3  1  0.50000000  0.67249646  0.82750354  1
  Cd  Cd0  1  0.00000000  -0.00000000  -0.00000000  1
  Cd  Cd1  1  0.00000000  0.50000000  0.50000000  1
  Pd  Pd0  1  0.00000000  0.62825032  0.12825032  1
  Pd  Pd1  1  -0.00000000  0.37174968  0.87174968  1
  Pd  Pd2  1  -0.00000000  0.87174968  0.62825032  1
  Pd  Pd3  1  0.00000000  0.12825032  0.37174968  1
loop_
_geom_bond_atom_site_label_1
_geom_bond_atom_site_label_2
_geom_bond_distance
_geom_bond_site_symmetry_2
Cd0 Pd2 3.026222 1_544
Cd0 Pd0 3.026222 1_545
Cd0 Pd3 3.026222 1_555
Cd0 Pd1 3.026222 1_554
Cd0 Tb1 3.399894 1_545
Cd0 Tb2 3.399894 1_455
Cd0 Tb1 3.399894 1_445
Cd0 Tb2 3.399894 1_555
Cd0 Tb0 3.399894 1_554
Cd0 Tb0 3.399894 1_454
Cd0 Tb3 3.399894 1_544
Cd0 Tb3 3.399894 1_444
Cd1 Pd3 3.026222 1_555
Cd1 Pd1 3.026222 1_555
Cd1 Pd0 3.026222 1_555
Cd1 Pd2 3.026222 1_555
Cd1 Tb3 3.399894 1_455
Cd1 Tb0 3.399894 1_555
Cd1 Tb0 3.399894 1_455
Cd1 Tb3 3.399894 1_555
Cd1 Tb1 3.399894 1_455
Cd1 Tb1 3.399894 1_555
Cd1 Tb2 3.399894 1_455
Cd1 Tb2 3.399894 1_555
Pd0 Pd1 2.791483 1_554
Pd0 Tb1 2.854411 1_455
Pd0 Tb1 2.854411 1_555
Pd0 Tb3 2.986247 1_554
Pd0 Tb3 2.986247 1_454
Pd0 Tb2 2.986247 1_455
Pd0 Tb2 2.986247 1_555
Pd1 Tb0 2.854411 1_555
Pd1 Tb0 2.854411 1_455
Pd1 Tb3 2.986247 1_455
Pd1 Tb3 2.986247 1_555
Pd1 Tb2 2.986247 1_556
Pd1 Tb2 2.986247 1_456
Pd2 Pd3 2.791483 1_565
Pd2 Tb3 2.854411 1_555
Pd2 Tb3 2.854411 1_455
Pd2 Tb1 2.986247 1_555
Pd2 Tb1 2.986247 1_455
Pd2 Tb0 2.986247 1_565
Pd2 Tb0 2.986247 1_465
Pd3 Tb2 2.854411 1_455
Pd3 Tb2 2.854411 1_555
Pd3 Tb0 2.986247 1_555
Pd3 Tb0 2.986247 1_455
Pd3 Tb1 2.986247 1_445
Pd3 Tb1 2.986247 1_545
