# generated using pymatgen
data_Ti6Ga16Ru7
_symmetry_space_group_name_H-M   'P 1'
_cell_length_a   8.66387251
_cell_length_b   8.66387251
_cell_length_c   8.66387251
_cell_angle_alpha   60.00000000
_cell_angle_beta   60.00000000
_cell_angle_gamma   60.00000000
_symmetry_Int_Tables_number   1
_chemical_formula_structural   Ti6Ga16Ru7
_chemical_formula_sum   'Ti6 Ga16 Ru7'
_cell_volume   459.85526203
_cell_formula_units_Z   1
loop_
 _symmetry_equiv_pos_site_id
 _symmetry_equiv_pos_as_xyz
  1  'x, y, z'
loop_
 _atom_site_type_symbol
 _atom_site_label
 _atom_site_symmetry_multiplicity
 _atom_site_fract_x
 _atom_site_fract_y
 _atom_site_fract_z
 _atom_site_occupancy
  Ti  Ti0  1  0.72332900  0.72332900  0.27667100  1
  Ti  Ti1  1  0.27667100  0.72332900  0.27667100  1
  Ti  Ti2  1  0.72332900  0.27667100  0.27667100  1
  Ti  Ti3  1  0.27667100  0.27667100  0.72332900  1
  Ti  Ti4  1  0.72332900  0.27667100  0.72332900  1
  Ti  Ti5  1  0.27667100  0.72332900  0.72332900  1
  Ga  Ga0  1  0.87689100  0.87689100  0.36932800  1
  Ga  Ga1  1  0.87689100  0.36932800  0.87689100  1
  Ga  Ga2  1  0.36932800  0.87689100  0.87689100  1
  Ga  Ga3  1  0.87689100  0.87689100  0.87689100  1
  Ga  Ga4  1  0.12310900  0.12310900  0.63067200  1
  Ga  Ga5  1  0.12310900  0.63067200  0.12310900  1
  Ga  Ga6  1  0.63067200  0.12310900  0.12310900  1
  Ga  Ga7  1  0.12310900  0.12310900  0.12310900  1
  Ga  Ga8  1  0.64786000  0.64786000  0.05642100  1
  Ga  Ga9  1  0.64786000  0.05642100  0.64786000  1
  Ga  Ga10  1  0.05642100  0.64786000  0.64786000  1
  Ga  Ga11  1  0.64786000  0.64786000  0.64786000  1
  Ga  Ga12  1  0.35214000  0.35214000  0.94357900  1
  Ga  Ga13  1  0.35214000  0.94357900  0.35214000  1
  Ga  Ga14  1  0.94357900  0.35214000  0.35214000  1
  Ga  Ga15  1  0.35214000  0.35214000  0.35214000  1
  Ru  Ru0  1  0.00000000  0.00000000  0.00000000  1
  Ru  Ru1  1  0.00000000  0.00000000  0.50000000  1
  Ru  Ru2  1  0.50000000  0.00000000  0.50000000  1
  Ru  Ru3  1  0.00000000  0.50000000  0.50000000  1
  Ru  Ru4  1  0.50000000  0.50000000  0.00000000  1
  Ru  Ru5  1  0.00000000  0.50000000  0.00000000  1
  Ru  Ru6  1  0.50000000  0.00000000  0.00000000  1
loop_
_geom_bond_atom_site_label_1
_geom_bond_atom_site_label_2
_geom_bond_distance
_geom_bond_site_symmetry_2
Ga0 Ru0 2.612635 1_665
Ga0 Ru1 2.666397 1_665
Ga0 Ru2 2.666404 1_565
Ga0 Ru3 2.666404 1_655
Ga0 Ti1 2.844414 1_655
Ga0 Ti2 2.844414 1_565
Ga0 Ti0 2.844422 1_555
Ga1 Ru0 2.612635 1_656
Ga1 Ru5 2.666397 1_656
Ga1 Ru3 2.666404 1_655
Ga1 Ru4 2.666404 1_556
Ga1 Ti3 2.844414 1_655
Ga1 Ti2 2.844414 1_556
Ga1 Ti4 2.844422 1_555
Ga2 Ru0 2.612635 1_566
Ga2 Ru6 2.666397 1_566
Ga2 Ru2 2.666404 1_565
Ga2 Ru4 2.666404 1_556
Ga2 Ti3 2.844414 1_565
Ga2 Ti1 2.844414 1_556
Ga2 Ti5 2.844422 1_555
Ga3 Ru0 2.612627 1_666
Ga3 Ru5 2.666404 1_656
Ga3 Ru6 2.666404 1_566
Ga3 Ru1 2.666404 1_665
Ga3 Ti4 2.844415 1_565
Ga3 Ti0 2.844415 1_556
Ga3 Ti5 2.844415 1_655
Ga4 Ru0 2.612635 1_556
Ga4 Ru1 2.666397 1_555
Ga4 Ru3 2.666404 1_555
Ga4 Ru2 2.666404 1_555
Ga4 Ti4 2.844414 1_455
Ga4 Ti5 2.844414 1_545
Ga4 Ti3 2.844422 1_555
Ga5 Ru0 2.612635 1_565
Ga5 Ru5 2.666397 1_555
Ga5 Ru3 2.666404 1_555
Ga5 Ru4 2.666404 1_555
Ga5 Ti5 2.844414 1_554
Ga5 Ti0 2.844414 1_455
Ga5 Ti1 2.844422 1_555
Ga6 Ru0 2.612635 1_655
Ga6 Ru6 2.666397 1_555
Ga6 Ru4 2.666404 1_555
Ga6 Ru2 2.666404 1_555
Ga6 Ti0 2.844414 1_545
Ga6 Ti4 2.844414 1_554
Ga6 Ti2 2.844422 1_555
Ga7 Ru0 2.612627 1_555
Ga7 Ru5 2.666404 1_555
Ga7 Ru1 2.666404 1_555
Ga7 Ru6 2.666404 1_555
Ga7 Ti3 2.844415 1_554
Ga7 Ti1 2.844415 1_545
Ga7 Ti2 2.844415 1_455
Ga8 Ru5 2.532688 1_655
Ga8 Ru6 2.532688 1_565
Ga8 Ru4 2.532696 1_555
Ga8 Ti0 2.723832 1_555
Ga8 Ti2 2.723838 1_555
Ga8 Ti1 2.723838 1_555
Ga9 Ru6 2.532688 1_556
Ga9 Ru1 2.532688 1_655
Ga9 Ru2 2.532696 1_555
Ga9 Ti4 2.723832 1_555
Ga9 Ti3 2.723838 1_555
Ga9 Ti2 2.723838 1_555
Ga10 Ru1 2.532688 1_565
Ga10 Ru5 2.532688 1_556
Ga10 Ru3 2.532696 1_555
Ga10 Ti5 2.723832 1_555
Ga10 Ti1 2.723838 1_555
Ga10 Ti3 2.723838 1_555
Ga11 Ru4 2.532690 1_556
Ga11 Ru2 2.532690 1_565
Ga11 Ru3 2.532690 1_655
Ga11 Ti0 2.723840 1_555
Ga11 Ti4 2.723840 1_555
Ga11 Ti5 2.723840 1_555
Ga12 Ru6 2.532688 1_556
Ga12 Ru5 2.532688 1_556
Ga12 Ru4 2.532696 1_556
Ga12 Ti3 2.723832 1_555
Ga12 Ti5 2.723838 1_555
Ga12 Ti4 2.723838 1_555
Ga13 Ru6 2.532688 1_565
Ga13 Ru1 2.532688 1_565
Ga13 Ru2 2.532696 1_565
Ga13 Ti1 2.723832 1_555
Ga13 Ti5 2.723838 1_555
Ga13 Ti0 2.723838 1_555
Ga14 Ru1 2.532688 1_655
Ga14 Ru5 2.532688 1_655
Ga14 Ru3 2.532696 1_655
Ga14 Ti2 2.723832 1_555
Ga14 Ti0 2.723838 1_555
Ga14 Ti4 2.723838 1_555
Ga15 Ru4 2.532690 1_555
Ga15 Ru2 2.532690 1_555
Ga15 Ru3 2.532690 1_555
Ga15 Ti3 2.723840 1_555
Ga15 Ti1 2.723840 1_555
Ga15 Ti2 2.723840 1_555
Ru1 Ti5 3.080524 1_545
Ru1 Ti4 3.080524 1_455
Ru1 Ti1 3.080524 1_545
Ru1 Ti2 3.080524 1_455
Ru2 Ti5 3.080524 1_545
Ru2 Ti3 3.080524 1_555
Ru2 Ti0 3.080524 1_545
Ru2 Ti2 3.080524 1_555
Ru3 Ti0 3.080524 1_455
Ru3 Ti4 3.080524 1_455
Ru3 Ti3 3.080524 1_555
Ru3 Ti1 3.080524 1_555
Ru4 Ti4 3.080524 1_554
Ru4 Ti5 3.080524 1_554
Ru4 Ti1 3.080524 1_555
Ru4 Ti2 3.080524 1_555
Ru5 Ti0 3.080524 1_455
Ru5 Ti2 3.080524 1_455
Ru5 Ti5 3.080524 1_554
Ru5 Ti3 3.080524 1_554
Ru6 Ti4 3.080524 1_554
Ru6 Ti0 3.080524 1_545
Ru6 Ti1 3.080524 1_545
Ru6 Ti3 3.080524 1_554
