# generated using pymatgen
data_RbTeOF4
_symmetry_space_group_name_H-M   'P 1'
_cell_length_a   8.51839259
_cell_length_b   8.51839259
_cell_length_c   14.13179812
_cell_angle_alpha   85.36864814
_cell_angle_beta   85.36864814
_cell_angle_gamma   33.06813283
_symmetry_Int_Tables_number   1
_chemical_formula_structural   RbTeOF4
_chemical_formula_sum   'Rb4 Te4 O4 F16'
_cell_volume   557.53190732
_cell_formula_units_Z   4
loop_
 _symmetry_equiv_pos_site_id
 _symmetry_equiv_pos_as_xyz
  1  'x, y, z'
loop_
 _atom_site_type_symbol
 _atom_site_label
 _atom_site_symmetry_multiplicity
 _atom_site_fract_x
 _atom_site_fract_y
 _atom_site_fract_z
 _atom_site_occupancy
  Rb  Rb0  1  0.16200200  0.35798600  0.49180500  1
  Rb  Rb1  1  0.35798600  0.16200200  0.99180500  1
  Rb  Rb2  1  0.47235200  0.64178800  0.25213700  1
  Rb  Rb3  1  0.64178800  0.47235200  0.75213700  1
  Te  Te0  1  0.97055900  0.02629200  0.50308300  1
  Te  Te1  1  0.02629200  0.97055900  0.00308300  1
  Te  Te2  1  0.79130900  0.84868100  0.24281300  1
  Te  Te3  1  0.84868100  0.79130900  0.74281300  1
  O  O0  1  0.91292900  0.53024700  0.27111000  1
  O  O1  1  0.53024700  0.91292900  0.77111000  1
  O  O2  1  0.28979200  0.90157200  0.46723800  1
  O  O3  1  0.90157200  0.28979200  0.96723800  1
  F  F0  1  0.43993700  0.01333600  0.21587200  1
  F  F1  1  0.01333600  0.43993700  0.71587200  1
  F  F2  1  0.69056700  0.91785200  0.38419200  1
  F  F3  1  0.91785200  0.69056700  0.88419200  1
  F  F4  1  0.92009200  0.71050900  0.10612200  1
  F  F5  1  0.71050900  0.92009200  0.60612200  1
  F  F6  1  0.20711000  0.54060600  0.27042500  1
  F  F7  1  0.54060600  0.20711000  0.77042500  1
  F  F8  1  0.90183000  0.11632800  0.13790000  1
  F  F9  1  0.11632800  0.90183000  0.63790000  1
  F  F10  1  0.26895400  0.60920700  0.48323500  1
  F  F11  1  0.60920700  0.26895400  0.98323500  1
  F  F12  1  0.91543300  0.11806700  0.36036900  1
  F  F13  1  0.11806700  0.91543300  0.86036900  1
  F  F14  1  0.39426500  0.78209800  0.02900900  1
  F  F15  1  0.78209800  0.39426500  0.52900900  1
loop_
_geom_bond_atom_site_label_1
_geom_bond_atom_site_label_2
_geom_bond_distance
_geom_bond_site_symmetry_2
O0 Te2 1.942373 1_555
O0 Rb2 3.033885 1_555
O0 Rb0 3.390175 1_655
O1 Te3 1.942373 1_555
O1 Rb3 3.033885 1_555
O1 Rb1 3.390175 1_565
O2 Te0 1.949982 1_465
O2 Rb0 3.079754 1_565
O2 Rb2 3.333267 1_555
O3 Te1 1.949982 1_646
O3 Rb1 3.079754 1_655
O3 Rb3 3.333267 1_555
F0 Te2 2.032864 1_545
F0 Rb2 2.941468 1_545
F0 Rb1 3.216410 1_554
F1 Te3 2.032864 1_455
F1 Rb3 2.941468 1_455
F1 Rb0 3.216410 1_555
F2 Te2 2.034976 1_555
F2 Rb0 2.857249 1_565
F2 Rb0 2.983231 1_655
F3 Te3 2.034976 1_555
F3 Rb1 2.857249 1_655
F3 Rb1 2.983231 1_565
F4 Te2 2.044765 1_555
F4 Rb1 3.064252 1_654
F4 Rb1 3.115977 1_564
F5 Te3 2.044765 1_555
F5 Rb0 3.064252 1_565
F5 Rb0 3.115977 1_655
F6 Te2 2.015786 1_455
F6 Rb2 3.008060 1_555
F7 Te3 2.015786 1_545
F7 Rb3 3.008060 1_555
F8 Te1 2.035947 1_645
F8 Rb2 2.965265 1_555
F8 Rb2 3.138802 1_645
F9 Te0 2.035947 1_465
F9 Rb3 2.965265 1_555
F9 Rb3 3.138802 1_465
F10 Te0 2.017994 1_465
F10 Rb0 2.938086 1_555
F11 Te1 2.017994 1_646
F11 Rb1 2.938086 1_555
F12 Te0 2.045047 1_555
F12 Rb2 2.845428 1_555
F12 Rb2 2.979405 1_645
F13 Te1 2.045047 1_556
F13 Rb3 2.845428 1_555
F13 Rb3 2.979405 1_465
F14 Te1 2.047733 1_555
F14 Rb1 2.986635 1_564
F14 Rb2 3.195507 1_555
F15 Te0 2.047733 1_555
F15 Rb0 2.986635 1_655
F15 Rb3 3.195507 1_555
