# generated using pymatgen
data_Na3H2SNO8
_symmetry_space_group_name_H-M   'P 1'
_cell_length_a   7.03207500
_cell_length_b   5.25153200
_cell_length_c   10.76816309
_cell_angle_alpha   77.33334417
_cell_angle_beta   90.00000000
_cell_angle_gamma   90.00000000
_symmetry_Int_Tables_number   1
_chemical_formula_structural   Na3H2SNO8
_chemical_formula_sum   'Na6 H4 S2 N2 O16'
_cell_volume   387.98118789
_cell_formula_units_Z   2
loop_
 _symmetry_equiv_pos_site_id
 _symmetry_equiv_pos_as_xyz
  1  'x, y, z'
loop_
 _atom_site_type_symbol
 _atom_site_label
 _atom_site_symmetry_multiplicity
 _atom_site_fract_x
 _atom_site_fract_y
 _atom_site_fract_z
 _atom_site_occupancy
  Na  Na0  1  0.75000000  0.77165600  0.40457600  1
  Na  Na1  1  0.25000000  0.22834400  0.59542400  1
  Na  Na2  1  0.99296900  0.63342600  0.72420900  1
  Na  Na3  1  0.00703100  0.36657400  0.27579100  1
  Na  Na4  1  0.49296900  0.36657400  0.27579100  1
  Na  Na5  1  0.50703100  0.63342600  0.72420900  1
  H  H0  1  0.75000000  0.36661800  0.93966000  1
  H  H1  1  0.25000000  0.63338200  0.06034000  1
  H  H2  1  0.75000000  0.66429900  0.94438600  1
  H  H3  1  0.25000000  0.33570100  0.05561400  1
  S  S0  1  0.75000000  0.17846700  0.57812500  1
  S  S1  1  0.25000000  0.82153300  0.42187500  1
  N  N0  1  0.75000000  0.92815100  0.11945100  1
  N  N1  1  0.25000000  0.07184900  0.88054900  1
  O  O0  1  0.75000000  0.28033500  0.43613700  1
  O  O1  1  0.25000000  0.71966500  0.56386300  1
  O  O2  1  0.75000000  0.68685300  0.17197100  1
  O  O3  1  0.25000000  0.31314700  0.82802900  1
  O  O4  1  0.75000000  0.09661400  0.18790700  1
  O  O5  1  0.25000000  0.90338600  0.81209300  1
  O  O6  1  0.75000000  0.99860900  0.99954200  1
  O  O7  1  0.25000000  0.00139100  0.00045800  1
  O  O8  1  0.75000000  0.88557900  0.60350200  1
  O  O9  1  0.25000000  0.11442100  0.39649800  1
  O  O10  1  0.42316600  0.73105900  0.36576200  1
  O  O11  1  0.57683400  0.26894100  0.63423800  1
  O  O12  1  0.92316600  0.26894100  0.63423800  1
  O  O13  1  0.07683400  0.73105900  0.36576200  1
  O  O14  1  0.75000000  0.54436600  0.88586400  1
  O  O15  1  0.25000000  0.45563400  0.11413600  1
loop_
_geom_bond_atom_site_label_1
_geom_bond_atom_site_label_2
_geom_bond_distance
_geom_bond_site_symmetry_2
Na0 O8 2.347000 1_555
Na0 O10 2.354039 1_555
Na0 O13 2.354039 1_655
Na0 O0 2.527510 1_555
Na0 O4 2.570911 1_565
Na0 O2 2.638408 1_555
Na0 O0 2.765815 1_565
Na1 O9 2.347000 1_555
Na1 O12 2.354039 1_455
Na1 O11 2.354039 1_555
Na1 O1 2.527510 1_555
Na1 O5 2.570911 1_545
Na1 O3 2.638408 1_555
Na1 O1 2.765815 1_545
Na2 O8 2.367982 1_555
Na2 O12 2.378367 1_555
Na2 O14 2.410614 1_555
Na2 O1 2.471911 1_655
Na2 O3 2.553638 1_655
Na2 O5 2.600147 1_655
Na3 O9 2.367982 1_555
Na3 O13 2.378367 1_555
Na3 O15 2.410614 1_555
Na3 O0 2.471911 1_455
Na3 O2 2.553638 1_455
Na3 O4 2.600147 1_455
Na4 O9 2.367982 1_555
Na4 O10 2.378367 1_555
Na4 O15 2.410614 1_555
Na4 O0 2.471911 1_555
Na4 O2 2.553638 1_555
Na4 O4 2.600147 1_555
Na5 O8 2.367982 1_555
Na5 O11 2.378367 1_555
Na5 O14 2.410614 1_555
Na5 O1 2.471911 1_555
Na5 O3 2.553638 1_555
Na5 O5 2.600147 1_555
H0 O14 0.984762 1_555
H1 O15 0.984762 1_555
H2 O14 0.983805 1_555
H3 O15 0.983805 1_555
N0 O6 1.262767 1_554
N0 O2 1.269372 1_555
N0 O4 1.269669 1_565
N1 O7 1.262767 1_556
N1 O3 1.269372 1_555
N1 O5 1.269669 1_545
O0 S0 1.505046 1_555
O1 S1 1.505046 1_555
O8 S0 1.502041 1_565
O9 S1 1.502041 1_545
O10 S1 1.483099 1_555
O11 S0 1.483099 1_555
O12 S0 1.483099 1_555
O13 S1 1.483099 1_555
