# generated using pymatgen
data_Yb11(Sm2S11)2
_symmetry_space_group_name_H-M   'P 1'
_cell_length_a   20.58231669
_cell_length_b   20.58231669
_cell_length_c   11.21217454
_cell_angle_alpha   83.84690078
_cell_angle_beta   83.84690078
_cell_angle_gamma   11.38422996
_symmetry_Int_Tables_number   1
_chemical_formula_structural   Yb11(Sm2S11)2
_chemical_formula_sum   'Yb11 Sm4 S22'
_cell_volume   932.10276725
_cell_formula_units_Z   1
loop_
 _symmetry_equiv_pos_site_id
 _symmetry_equiv_pos_as_xyz
  1  'x, y, z'
loop_
 _atom_site_type_symbol
 _atom_site_label
 _atom_site_symmetry_multiplicity
 _atom_site_fract_x
 _atom_site_fract_y
 _atom_site_fract_z
 _atom_site_occupancy
  Yb  Yb0  1  0.80122600  0.80122600  0.97398800  1
  Yb  Yb1  1  0.19877400  0.19877400  0.02601200  1
  Yb  Yb2  1  0.46209100  0.46209100  0.70388300  1
  Yb  Yb3  1  0.53790900  0.53790900  0.29611700  1
  Yb  Yb4  1  0.66312100  0.66312100  0.68292500  1
  Yb  Yb5  1  0.33687900  0.33687900  0.31707500  1
  Yb  Yb6  1  0.26576400  0.26576400  0.63990900  1
  Yb  Yb7  1  0.73423600  0.73423600  0.36009100  1
  Yb  Yb8  1  0.06231000  0.06231000  0.65930900  1
  Yb  Yb9  1  0.93769000  0.93769000  0.34069100  1
  Yb  Yb10  1  0.00000000  0.00000000  0.00000000  1
  Sm  Sm0  1  0.10848300  0.10848300  0.00137600  1
  Sm  Sm1  1  0.89151700  0.89151700  0.99862400  1
  Sm  Sm2  1  0.37529600  0.37529600  0.66007200  1
  Sm  Sm3  1  0.62470400  0.62470400  0.33992800  1
  S  S0  1  0.08754500  0.08754500  0.24887100  1
  S  S1  1  0.91245500  0.91245500  0.75112900  1
  S  S2  1  0.17760700  0.17760700  0.35046200  1
  S  S3  1  0.82239300  0.82239300  0.64953800  1
  S  S4  1  0.27413900  0.27413900  0.39552700  1
  S  S5  1  0.72586100  0.72586100  0.60447300  1
  S  S6  1  0.43398900  0.43398900  0.49473100  1
  S  S7  1  0.56601100  0.56601100  0.50526900  1
  S  S8  1  0.14380700  0.14380700  0.50804800  1
  S  S9  1  0.85619300  0.85619300  0.49195200  1
  S  S10  1  0.58509600  0.58509600  0.83475800  1
  S  S11  1  0.41490400  0.41490400  0.16524200  1
  S  S12  1  0.44729200  0.44729200  0.00458000  1
  S  S13  1  0.55270800  0.55270800  0.99542000  1
  S  S14  1  0.35290600  0.35290600  0.91067900  1
  S  S15  1  0.64709400  0.64709400  0.08932100  1
  S  S16  1  0.16331000  0.16331000  0.83391500  1
  S  S17  1  0.83669000  0.83669000  0.16608500  1
  S  S18  1  0.00088700  0.00088700  0.76152200  1
  S  S19  1  0.99911300  0.99911300  0.23847800  1
  S  S20  1  0.26152600  0.26152600  0.89203700  1
  S  S21  1  0.73847400  0.73847400  0.10796300  1
loop_
_geom_bond_atom_site_label_1
_geom_bond_atom_site_label_2
_geom_bond_distance
_geom_bond_site_symmetry_2
S0 Sm3 2.803791 1_545
S0 Sm3 2.803791 1_455
S0 Sm0 2.814825 1_555
S0 Yb3 2.889592 1_455
S0 Yb3 2.889592 1_545
S1 Sm2 2.803791 1_565
S1 Sm2 2.803791 1_655
S1 Sm1 2.814825 1_555
S1 Yb2 2.889592 1_565
S1 Yb2 2.889592 1_655
S2 S8 2.124080 1_555
S2 Sm3 2.988698 1_455
S2 Sm3 2.988698 1_545
S2 Yb7 3.100580 1_545
S2 Yb7 3.100580 1_455
S3 S9 2.124080 1_555
S3 Sm2 2.988698 1_655
S3 Sm2 2.988698 1_565
S3 Yb6 3.100580 1_655
S3 Yb6 3.100580 1_565
S4 Yb5 2.625127 1_555
S4 Yb7 2.671459 1_455
S4 Yb7 2.671459 1_545
S4 Yb6 2.724532 1_555
S5 Yb4 2.625127 1_555
S5 Yb6 2.671459 1_565
S5 Yb6 2.671459 1_655
S5 Yb7 2.724532 1_555
S6 Yb9 2.667751 1_545
S6 Yb9 2.667751 1_455
S6 Yb2 2.721366 1_555
S6 Sm2 2.873417 1_555
S7 Yb8 2.667751 1_655
S7 Yb8 2.667751 1_565
S7 Yb3 2.721366 1_555
S7 Sm3 2.873417 1_555
S8 Sm3 2.941191 1_545
S8 Sm3 2.941191 1_455
S8 Yb4 2.995327 1_455
S8 Yb4 2.995327 1_545
S8 Yb8 3.577784 1_555
S9 Sm2 2.941191 1_565
S9 Sm2 2.941191 1_655
S9 Yb5 2.995327 1_565
S9 Yb5 2.995327 1_655
S9 Yb9 3.577784 1_555
S10 S13 2.118993 1_555
S10 Sm0 2.993426 1_656
S10 Sm0 2.993426 1_566
S10 Yb8 3.050212 1_655
S10 Yb8 3.050212 1_565
S10 Yb4 3.455514 1_555
S11 S12 2.118993 1_555
S11 Sm1 2.993426 1_454
S11 Sm1 2.993426 1_544
S11 Yb9 3.050212 1_455
S11 Yb9 3.050212 1_545
S11 Yb5 3.455514 1_555
S12 Yb10 2.967731 1_565
S12 Yb10 2.967731 1_655
S12 Sm1 3.069895 1_454
S12 Sm1 3.069895 1_544
S12 Yb2 3.360650 1_554
S13 Yb10 2.967731 1_566
S13 Yb10 2.967731 1_656
S13 Sm0 3.069895 1_566
S13 Sm0 3.069895 1_656
S13 Yb3 3.360650 1_556
S14 Sm1 2.824359 1_545
S14 Sm1 2.824359 1_455
S14 Sm2 2.860282 1_555
S14 Yb0 2.971324 1_455
S14 Yb0 2.971324 1_545
S15 Sm0 2.824359 1_655
S15 Sm0 2.824359 1_565
S15 Sm3 2.860282 1_555
S15 Yb1 2.971324 1_655
S15 Yb1 2.971324 1_565
S16 Yb4 2.652592 1_545
S16 Yb4 2.652592 1_455
S16 Yb1 2.724562 1_556
S16 Sm0 2.767780 1_556
S17 Yb5 2.652592 1_565
S17 Yb5 2.652592 1_655
S17 Yb0 2.724562 1_554
S17 Sm1 2.767780 1_554
S18 Yb8 2.649981 1_555
S18 Yb10 2.670188 1_556
S18 Yb2 2.707703 1_455
S18 Yb2 2.707703 1_545
S19 Yb9 2.649981 1_555
S19 Yb10 2.670188 1_665
S19 Yb3 2.707703 1_655
S19 Yb3 2.707703 1_565
S20 Yb6 2.813502 1_555
S20 Yb0 2.824536 1_545
S20 Yb0 2.824536 1_455
S20 Yb1 2.834030 1_556
S21 Yb7 2.813502 1_555
S21 Yb1 2.824536 1_565
S21 Yb1 2.824536 1_655
S21 Yb0 2.834030 1_554
