# generated using pymatgen
data_Cs5FeO4
_symmetry_space_group_name_H-M   'P 1'
_cell_length_a   10.71291007
_cell_length_b   8.96098757
_cell_length_c   11.19101993
_cell_angle_alpha   82.30135441
_cell_angle_beta   90.00000000
_cell_angle_gamma   90.00000000
_symmetry_Int_Tables_number   1
_chemical_formula_structural   Cs5FeO4
_chemical_formula_sum   'Cs20 Fe4 O16'
_cell_volume   1064.63486091
_cell_formula_units_Z   4
loop_
 _symmetry_equiv_pos_site_id
 _symmetry_equiv_pos_as_xyz
  1  'x, y, z'
loop_
 _atom_site_type_symbol
 _atom_site_label
 _atom_site_symmetry_multiplicity
 _atom_site_fract_x
 _atom_site_fract_y
 _atom_site_fract_z
 _atom_site_occupancy
  Cs  Cs0  1  0.83082589  0.95548948  0.53187543  1
  Cs  Cs1  1  0.33082589  0.04451052  0.96812457  1
  Cs  Cs2  1  0.16917411  0.04451052  0.46812457  1
  Cs  Cs3  1  0.66917411  0.95548948  0.03187543  1
  Cs  Cs4  1  0.85027188  0.26755412  0.75944545  1
  Cs  Cs5  1  0.35027188  0.73244588  0.74055455  1
  Cs  Cs6  1  0.14972812  0.73244588  0.24055455  1
  Cs  Cs7  1  0.64972812  0.26755412  0.25944545  1
  Cs  Cs8  1  0.69052921  0.56415813  0.52115142  1
  Cs  Cs9  1  0.19052921  0.43584187  0.97884858  1
  Cs  Cs10  1  0.30947079  0.43584187  0.47884858  1
  Cs  Cs11  1  0.80947079  0.56415813  0.02115142  1
  Cs  Cs12  1  0.99340640  0.89175811  0.85739545  1
  Cs  Cs13  1  0.49340640  0.10824189  0.64260455  1
  Cs  Cs14  1  0.00659360  0.10824189  0.14260455  1
  Cs  Cs15  1  0.50659360  0.89175811  0.35739545  1
  Cs  Cs16  1  0.03293906  0.60075688  0.64029218  1
  Cs  Cs17  1  0.53293906  0.39924312  0.85970782  1
  Cs  Cs18  1  0.96706094  0.39924312  0.35970782  1
  Cs  Cs19  1  0.46706094  0.60075688  0.14029218  1
  Fe  Fe0  1  0.66793270  0.77970225  0.76737380  1
  Fe  Fe1  1  0.16793270  0.22029775  0.73262620  1
  Fe  Fe2  1  0.33206730  0.22029775  0.23262620  1
  Fe  Fe3  1  0.83206730  0.77970225  0.26737380  1
  O  O0  1  0.57297386  0.79633682  0.62078511  1
  O  O1  1  0.07297386  0.20366318  0.87921489  1
  O  O2  1  0.42702614  0.20366318  0.37921489  1
  O  O3  1  0.92702614  0.79633682  0.12078511  1
  O  O4  1  0.56289455  0.71105843  0.90302817  1
  O  O5  1  0.06289455  0.28894157  0.59697183  1
  O  O6  1  0.43710545  0.28894157  0.09697183  1
  O  O7  1  0.93710545  0.71105843  0.40302817  1
  O  O8  1  0.73167663  0.97360044  0.78296203  1
  O  O9  1  0.23167663  0.02639956  0.71703797  1
  O  O10  1  0.26832337  0.02639956  0.21703797  1
  O  O11  1  0.76832337  0.97360044  0.28296203  1
  O  O12  1  0.79890288  0.63969234  0.75432413  1
  O  O13  1  0.29890288  0.36030766  0.74567587  1
  O  O14  1  0.20109712  0.36030766  0.24567587  1
  O  O15  1  0.70109712  0.63969234  0.25432413  1
loop_
_geom_bond_atom_site_label_1
_geom_bond_atom_site_label_2
_geom_bond_distance
_geom_bond_site_symmetry_2
Cs0 O11 2.848350 1_555
Cs0 O7 3.003214 1_555
Cs0 O8 3.028591 1_555
Cs0 O0 3.205357 1_555
Cs1 O10 2.848350 1_556
Cs1 O6 3.003214 1_556
Cs1 O9 3.028591 1_555
Cs1 O1 3.205357 1_555
Cs2 O9 2.848350 1_555
Cs2 O5 3.003214 1_555
Cs2 O10 3.028591 1_555
Cs2 O2 3.205357 1_555
Cs3 O8 2.848350 1_554
Cs3 O4 3.003214 1_554
Cs3 O11 3.028591 1_555
Cs3 O3 3.205357 1_555
Cs4 O1 2.758746 1_655
Cs4 O8 2.904524 1_545
Cs4 O5 2.904787 1_655
Cs4 O12 3.372732 1_555
Cs5 O0 2.758746 1_555
Cs5 O9 2.904524 1_565
Cs5 O4 2.904787 1_555
Cs5 O13 3.372732 1_555
Cs6 O3 2.758746 1_455
Cs6 O10 2.904524 1_565
Cs6 O7 2.904787 1_455
Cs6 O14 3.372732 1_555
Cs7 O2 2.758746 1_555
Cs7 O11 2.904524 1_545
Cs7 O6 2.904787 1_555
Cs7 O15 3.372732 1_555
Cs8 O0 2.789166 1_555
Cs8 O15 2.974231 1_555
Cs8 O12 3.014706 1_555
Cs8 O7 3.160990 1_555
Cs9 O1 2.789166 1_555
Cs9 O14 2.974231 1_556
Cs9 O13 3.014706 1_555
Cs9 O6 3.160990 1_556
Cs10 O2 2.789166 1_555
Cs10 O13 2.974231 1_555
Cs10 O14 3.014706 1_555
Cs10 O5 3.160990 1_555
Cs11 O3 2.789166 1_555
Cs11 O12 2.974231 1_554
Cs11 O15 3.014706 1_555
Cs11 O4 3.160990 1_554
Cs12 O1 2.963269 1_665
Cs12 O8 2.988283 1_555
Cs12 O3 3.041365 1_556
Cs12 O9 3.151313 1_665
Cs12 O12 3.387085 1_555
Cs13 O0 2.963269 1_545
Cs13 O9 2.988283 1_555
Cs13 O2 3.041365 1_555
Cs13 O8 3.151313 1_545
Cs13 O13 3.387085 1_555
Cs14 O3 2.963269 1_445
Cs14 O10 2.988283 1_555
Cs14 O1 3.041365 1_554
Cs14 O11 3.151313 1_445
Cs14 O14 3.387085 1_555
Cs15 O2 2.963269 1_565
Cs15 O11 2.988283 1_555
Cs15 O0 3.041365 1_555
Cs15 O10 3.151313 1_565
Cs15 O15 3.387085 1_555
Cs16 O12 2.855807 1_455
Cs16 O7 2.894486 1_455
Cs16 O5 2.916908 1_555
Cs17 O13 2.855807 1_555
Cs17 O6 2.894486 1_556
Cs17 O4 2.916908 1_555
Cs18 O14 2.855807 1_655
Cs18 O5 2.894486 1_655
Cs18 O7 2.916908 1_555
Cs19 O15 2.855807 1_555
Cs19 O4 2.894486 1_554
Cs19 O6 2.916908 1_555
Fe0 O8 1.896561 1_555
Fe0 O12 1.900820 1_555
Fe0 O0 1.919046 1_555
Fe0 O4 1.923293 1_555
Fe1 O9 1.896561 1_555
Fe1 O13 1.900820 1_555
Fe1 O1 1.919046 1_555
Fe1 O5 1.923293 1_555
Fe2 O10 1.896561 1_555
Fe2 O14 1.900820 1_555
Fe2 O2 1.919046 1_555
Fe2 O6 1.923293 1_555
Fe3 O11 1.896561 1_555
Fe3 O15 1.900820 1_555
Fe3 O3 1.919046 1_555
Fe3 O7 1.923293 1_555
