# generated using pymatgen
data_ZnSnN2
_symmetry_space_group_name_H-M   'P 1'
_cell_length_a   5.85427310
_cell_length_b   6.73745420
_cell_length_c   5.48058331
_cell_angle_alpha   90.00000000
_cell_angle_beta   90.00000000
_cell_angle_gamma   90.00000000
_symmetry_Int_Tables_number   1
_chemical_formula_structural   ZnSnN2
_chemical_formula_sum   'Zn4 Sn4 N8'
_cell_volume   216.17008237
_cell_formula_units_Z   4
loop_
 _symmetry_equiv_pos_site_id
 _symmetry_equiv_pos_as_xyz
  1  'x, y, z'
loop_
 _atom_site_type_symbol
 _atom_site_label
 _atom_site_symmetry_multiplicity
 _atom_site_fract_x
 _atom_site_fract_y
 _atom_site_fract_z
 _atom_site_occupancy
  Zn  Zn0  1  0.58306262  0.87494525  0.99881237  1
  Zn  Zn1  1  0.41693738  0.12505475  0.49881237  1
  Zn  Zn2  1  0.91693738  0.37494525  0.49881237  1
  Zn  Zn3  1  0.08306262  0.62505475  0.99881237  1
  Sn  Sn0  1  0.58840042  0.37506264  0.99927460  1
  Sn  Sn1  1  0.41159958  0.62493736  0.49927460  1
  Sn  Sn2  1  0.91159958  0.87506264  0.49927460  1
  Sn  Sn3  1  0.08840042  0.12493736  0.99927460  1
  N  N0  1  0.58239595  0.37436694  0.37835473  1
  N  N1  1  0.41760405  0.62563306  0.87835473  1
  N  N2  1  0.91760405  0.87436694  0.87835473  1
  N  N3  1  0.08239595  0.12563306  0.37835473  1
  N  N4  1  0.57971582  0.87578583  0.37355931  1
  N  N5  1  0.42028418  0.12421417  0.87355931  1
  N  N6  1  0.92028418  0.37578583  0.87355931  1
  N  N7  1  0.07971582  0.62421417  0.37355931  1
loop_
_geom_bond_atom_site_label_1
_geom_bond_atom_site_label_2
_geom_bond_distance
_geom_bond_site_symmetry_2
N0 Zn1 2.048314 1_555
N0 Zn2 2.066775 1_555
N0 Sn1 2.070991 1_555
N0 Sn0 2.077883 1_554
N1 Zn0 2.048314 1_555
N1 Zn3 2.066775 1_555
N1 Sn0 2.070991 1_555
N1 Sn1 2.077883 1_555
N2 Zn3 2.048314 1_655
N2 Zn0 2.066775 1_555
N2 Sn3 2.070991 1_665
N2 Sn2 2.077883 1_555
N3 Zn2 2.048314 1_455
N3 Zn1 2.066775 1_555
N3 Sn2 2.070991 1_445
N3 Sn3 2.077883 1_554
N4 Zn1 2.049354 1_565
N4 Zn0 2.053933 1_554
N4 Sn2 2.061491 1_555
N4 Sn1 2.073579 1_555
N5 Zn0 2.049354 1_545
N5 Zn1 2.053933 1_555
N5 Sn3 2.061491 1_555
N5 Sn0 2.073579 1_555
N6 Zn3 2.049354 1_655
N6 Zn2 2.053933 1_555
N6 Sn0 2.061491 1_555
N6 Sn3 2.073579 1_655
N7 Zn2 2.049354 1_455
N7 Zn3 2.053933 1_554
N7 Sn1 2.061491 1_555
N7 Sn2 2.073579 1_455
