# generated using pymatgen
data_CaCd(NO3)4
_symmetry_space_group_name_H-M   'P 1'
_cell_length_a   7.59773120
_cell_length_b   7.59773120
_cell_length_c   18.28346200
_cell_angle_alpha   90.00000000
_cell_angle_beta   90.00000000
_cell_angle_gamma   119.99999304
_symmetry_Int_Tables_number   1
_chemical_formula_structural   CaCd(NO3)4
_chemical_formula_sum   'Ca3 Cd3 N12 O36'
_cell_volume   914.02262254
_cell_formula_units_Z   3
loop_
 _symmetry_equiv_pos_site_id
 _symmetry_equiv_pos_as_xyz
  1  'x, y, z'
loop_
 _atom_site_type_symbol
 _atom_site_label
 _atom_site_symmetry_multiplicity
 _atom_site_fract_x
 _atom_site_fract_y
 _atom_site_fract_z
 _atom_site_occupancy
  Ca  Ca0  1  0.00000000  0.51087100  0.83333300  1
  Ca  Ca1  1  0.48912900  0.48912900  0.50000000  1
  Ca  Ca2  1  0.51087100  0.00000000  0.16666700  1
  Cd  Cd0  1  0.98592000  0.98592000  0.00000000  1
  Cd  Cd1  1  0.01408000  0.00000000  0.66666700  1
  Cd  Cd2  1  0.00000000  0.01408000  0.33333300  1
  N  N0  1  0.25386000  0.94727600  0.89243000  1
  N  N1  1  0.05272400  0.30658300  0.55909700  1
  N  N2  1  0.69341700  0.74614000  0.22576400  1
  N  N3  1  0.94727600  0.25386000  0.10757000  1
  N  N4  1  0.30658300  0.05272400  0.44090300  1
  N  N5  1  0.74614000  0.69341700  0.77423600  1
  N  N6  1  0.78480400  0.09862600  0.89415800  1
  N  N7  1  0.90137400  0.68617800  0.56082400  1
  N  N8  1  0.31382200  0.21519600  0.22749100  1
  N  N9  1  0.09862600  0.78480400  0.10584200  1
  N  N10  1  0.68617800  0.90137400  0.43917600  1
  N  N11  1  0.21519600  0.31382200  0.77250900  1
  O  O0  1  0.31607300  0.11660900  0.91820200  1
  O  O1  1  0.88339100  0.19946400  0.58486900  1
  O  O2  1  0.80053600  0.68392700  0.25153500  1
  O  O3  1  0.11660900  0.31607300  0.08179800  1
  O  O4  1  0.19946400  0.88339100  0.41513100  1
  O  O5  1  0.68392700  0.80053600  0.74846500  1
  O  O6  1  0.08212500  0.80258900  0.91578000  1
  O  O7  1  0.19741100  0.27953600  0.58244700  1
  O  O8  1  0.72046400  0.91787500  0.24911400  1
  O  O9  1  0.80258900  0.08212500  0.08422000  1
  O  O10  1  0.27953600  0.19741100  0.41755300  1
  O  O11  1  0.91787500  0.72046400  0.75088600  1
  O  O12  1  0.70432800  0.91982400  0.91908800  1
  O  O13  1  0.08017600  0.78450400  0.58575500  1
  O  O14  1  0.21549600  0.29567200  0.25242100  1
  O  O15  1  0.91982400  0.70432800  0.08091200  1
  O  O16  1  0.78450400  0.08017600  0.41424500  1
  O  O17  1  0.29567200  0.21549600  0.74757900  1
  O  O18  1  0.96085600  0.23455700  0.92058800  1
  O  O19  1  0.76544300  0.72629900  0.58725500  1
  O  O20  1  0.27370100  0.03914400  0.25392200  1
  O  O21  1  0.23455700  0.96085600  0.07941200  1
  O  O22  1  0.72629900  0.76544300  0.41274500  1
  O  O23  1  0.03914400  0.27370100  0.74607800  1
  O  O24  1  0.29223400  0.80453500  0.77966800  1
  O  O25  1  0.19546500  0.48769900  0.44633400  1
  O  O26  1  0.51230100  0.70776600  0.11300100  1
  O  O27  1  0.80453500  0.29223400  0.22033200  1
  O  O28  1  0.48769900  0.19546500  0.55366600  1
  O  O29  1  0.70776600  0.51230100  0.88699900  1
  O  O30  1  0.29440800  0.44542600  0.82169100  1
  O  O31  1  0.55457400  0.84898200  0.48835800  1
  O  O32  1  0.15101800  0.70559200  0.15502400  1
  O  O33  1  0.44542600  0.29440800  0.17830900  1
  O  O34  1  0.84898200  0.55457400  0.51164200  1
  O  O35  1  0.70559200  0.15101800  0.84497600  1
loop_
_geom_bond_atom_site_label_1
_geom_bond_atom_site_label_2
_geom_bond_distance
_geom_bond_site_symmetry_2
Ca0 O24 2.432439 1_555
Ca0 O29 2.432446 1_455
Ca0 O11 2.488190 1_455
Ca0 O6 2.488191 1_555
Ca0 O30 2.531442 1_555
Ca0 O35 2.531444 1_455
Ca0 O23 2.533072 1_555
Ca0 O18 2.533072 1_455
Ca1 O28 2.432446 1_555
Ca1 O25 2.432446 1_555
Ca1 O7 2.488191 1_555
Ca1 O10 2.488191 1_555
Ca1 O34 2.531442 1_555
Ca1 O31 2.531442 1_555
Ca1 O19 2.533073 1_555
Ca1 O22 2.533073 1_555
Ca2 O27 2.432439 1_555
Ca2 O26 2.432446 1_545
Ca2 O8 2.488190 1_545
Ca2 O9 2.488191 1_555
Ca2 O33 2.531442 1_555
Ca2 O32 2.531444 1_545
Ca2 O20 2.533072 1_555
Ca2 O21 2.533072 1_545
Cd0 O6 2.421498 1_654
Cd0 O9 2.421498 1_565
Cd0 O15 2.437942 1_555
Cd0 O12 2.437942 1_554
Cd0 O21 2.464285 1_655
Cd0 O18 2.464285 1_564
Cd0 O0 2.650290 1_664
Cd0 O3 2.650290 1_665
Cd1 O11 2.421487 1_445
Cd1 O7 2.421498 1_555
Cd1 O13 2.437942 1_545
Cd1 O17 2.437942 1_555
Cd1 O23 2.464274 1_555
Cd1 O19 2.464285 1_445
Cd1 O1 2.650290 1_455
Cd1 O5 2.650290 1_445
Cd2 O8 2.421487 1_445
Cd2 O10 2.421498 1_555
Cd2 O16 2.437942 1_455
Cd2 O14 2.437942 1_555
Cd2 O20 2.464274 1_555
Cd2 O22 2.464285 1_445
Cd2 O4 2.650290 1_545
Cd2 O2 2.650290 1_445
N0 O0 1.221694 1_565
N0 O6 1.287962 1_555
N1 O1 1.221693 1_455
N1 O7 1.287957 1_555
N2 O2 1.221680 1_555
N2 O8 1.287964 1_555
N3 O3 1.221694 1_655
N3 O9 1.287962 1_555
N4 O4 1.221693 1_545
N4 O10 1.287957 1_555
N5 O5 1.221680 1_555
N5 O11 1.287964 1_555
N6 O35 1.252521 1_555
N6 O12 1.263518 1_545
N6 O18 1.306851 1_555
N7 O34 1.252522 1_555
N7 O13 1.263525 1_655
N7 O19 1.306857 1_555
N8 O33 1.252522 1_555
N8 O14 1.263518 1_555
N8 O20 1.306857 1_555
N9 O32 1.252521 1_555
N9 O15 1.263518 1_455
N9 O21 1.306851 1_555
N10 O31 1.252522 1_555
N10 O16 1.263525 1_565
N10 O22 1.306857 1_555
N11 O30 1.252522 1_555
N11 O17 1.263518 1_555
N11 O23 1.306857 1_555
