# generated using pymatgen
data_Na2Ti2Si2O11
_symmetry_space_group_name_H-M   'P 1'
_cell_length_a   5.40495500
_cell_length_b   7.09436859
_cell_length_c   12.35318788
_cell_angle_alpha   93.54464372
_cell_angle_beta   97.40996605
_cell_angle_gamma   90.27310696
_symmetry_Int_Tables_number   1
_chemical_formula_structural   Na2Ti2Si2O11
_chemical_formula_sum   'Na4 Ti4 Si4 O22'
_cell_volume   468.78653576
_cell_formula_units_Z   2
loop_
 _symmetry_equiv_pos_site_id
 _symmetry_equiv_pos_as_xyz
  1  'x, y, z'
loop_
 _atom_site_type_symbol
 _atom_site_label
 _atom_site_symmetry_multiplicity
 _atom_site_fract_x
 _atom_site_fract_y
 _atom_site_fract_z
 _atom_site_occupancy
  Na  Na0  1  0.81607900  0.33089600  0.20698100  1
  Na  Na1  1  0.18065900  0.66816400  0.79837600  1
  Na  Na2  1  0.74439300  0.11440800  0.49081300  1
  Na  Na3  1  0.25144700  0.88703500  0.51550800  1
  Ti  Ti0  1  0.83095800  0.82474400  0.26426600  1
  Ti  Ti1  1  0.77783900  0.61263800  0.50677400  1
  Ti  Ti2  1  0.17143000  0.17512600  0.74195500  1
  Ti  Ti3  1  0.22024000  0.38690500  0.49883700  1
  Si  Si0  1  0.32153500  0.12286500  0.28052100  1
  Si  Si1  1  0.34529800  0.55313400  0.26930900  1
  Si  Si2  1  0.67642500  0.87639000  0.72440400  1
  Si  Si3  1  0.65593100  0.44626800  0.73659500  1
  O  O0  1  0.32222400  0.32816400  0.22336200  1
  O  O1  1  0.40455700  0.56311200  0.40679800  1
  O  O2  1  0.34072100  0.16722100  0.41457300  1
  O  O3  1  0.38655300  0.80593800  0.00029900  1
  O  O4  1  0.59237400  0.43573700  0.59917500  1
  O  O5  1  0.91166900  0.39924800  0.41963100  1
  O  O6  1  0.13675000  0.19473000  0.59636900  1
  O  O7  1  0.07957000  0.64511900  0.22785600  1
  O  O8  1  0.05243600  0.02603600  0.23498600  1
  O  O9  1  0.61219300  0.83854700  0.02010400  1
  O  O10  1  0.86615100  0.80505200  0.40987400  1
  O  O11  1  0.65321500  0.83216300  0.59027000  1
  O  O12  1  0.08499600  0.60028700  0.58645300  1
  O  O13  1  0.92468400  0.35731900  0.77624400  1
  O  O14  1  0.58527300  0.63084100  0.21779300  1
  O  O15  1  0.94583800  0.97437200  0.76757900  1
  O  O16  1  0.42077700  0.36612500  0.79069900  1
  O  O17  1  0.57019800  0.01379200  0.25301600  1
  O  O18  1  0.42911800  0.98410900  0.75472200  1
  O  O19  1  0.67966300  0.67141200  0.78194400  1
  O  O20  1  0.09116000  0.16152600  0.98545800  1
  O  O21  1  0.87724200  0.20127700  0.00185500  1
loop_
_geom_bond_atom_site_label_1
_geom_bond_atom_site_label_2
_geom_bond_distance
_geom_bond_site_symmetry_2
Na0 O14 2.476948 1_555
Na0 O8 2.536574 1_655
Na0 O7 2.620695 1_655
Na0 O5 2.625402 1_555
Na0 O0 2.702889 1_555
Na0 O21 2.703087 1_555
Na0 O0 2.717265 1_655
Na0 O17 2.734070 1_555
Na1 O16 2.513557 1_555
Na1 O15 2.545318 1_455
Na1 O13 2.578920 1_455
Na1 O12 2.616364 1_555
Na1 O19 2.689543 1_455
Na1 O3 2.718075 1_556
Na1 O18 2.725029 1_555
Na1 O19 2.730797 1_555
Na2 O2 2.304162 1_555
Na2 O6 2.388639 1_655
Na2 O5 2.466065 1_555
Na2 O10 2.482256 1_545
Na2 O11 2.492533 1_545
Na2 O4 2.754620 1_555
Na3 O11 2.292439 1_555
Na3 O10 2.360421 1_455
Na3 O6 2.459708 1_565
Na3 O12 2.474308 1_555
Na3 O2 2.488200 1_565
Na3 O1 2.773515 1_555
O0 Si0 1.657610 1_555
O0 Si1 1.659163 1_555
O1 Si1 1.684297 1_555
O1 Ti3 2.074586 1_555
O1 Ti1 2.239688 1_555
O2 Si0 1.656192 1_555
O2 Ti3 1.980021 1_555
O3 O9 1.230482 1_555
O4 Si3 1.684935 1_555
O4 Ti1 2.084004 1_555
O4 Ti3 2.235881 1_555
O5 Ti3 1.826935 1_655
O5 Ti1 1.995905 1_555
O6 Ti2 1.798090 1_555
O6 Ti3 1.962522 1_555
O7 Si1 1.615994 1_555
O7 Ti0 1.932144 1_455
O8 Si0 1.623404 1_555
O8 Ti0 1.939685 1_445
O10 Ti0 1.798382 1_555
O10 Ti1 1.966544 1_555
O11 Si2 1.655747 1_555
O11 Ti1 1.983339 1_555
O12 Ti1 1.822972 1_455
O12 Ti3 2.002359 1_555
O13 Si3 1.616040 1_555
O13 Ti2 1.929549 1_655
O14 Si1 1.625030 1_555
O14 Ti0 1.916655 1_555
O15 Si2 1.622422 1_555
O15 Ti2 1.937544 1_665
O16 Si3 1.626226 1_555
O16 Ti2 1.920248 1_555
O17 Si0 1.617338 1_555
O17 Ti0 1.948079 1_545
O18 Si2 1.616931 1_555
O18 Ti2 1.946516 1_565
O19 Si2 1.656822 1_555
O19 Si3 1.658425 1_555
O20 O21 1.230386 1_456
