# generated using pymatgen
data_Ca3ScN3
_symmetry_space_group_name_H-M   'P 1'
_cell_length_a   7.55918300
_cell_length_b   7.55921499
_cell_length_c   5.02949500
_cell_angle_alpha   90.00000000
_cell_angle_beta   90.00000000
_cell_angle_gamma   119.99854799
_symmetry_Int_Tables_number   1
_chemical_formula_structural   Ca3ScN3
_chemical_formula_sum   'Ca6 Sc2 N6'
_cell_volume   248.89313802
_cell_formula_units_Z   2
loop_
 _symmetry_equiv_pos_site_id
 _symmetry_equiv_pos_as_xyz
  1  'x, y, z'
loop_
 _atom_site_type_symbol
 _atom_site_label
 _atom_site_symmetry_multiplicity
 _atom_site_fract_x
 _atom_site_fract_y
 _atom_site_fract_z
 _atom_site_occupancy
  Ca  Ca0  1  0.93378700  0.66918400  0.25000000  1
  Ca  Ca1  1  0.73543100  0.06621300  0.25000000  1
  Ca  Ca2  1  0.33078800  0.26458400  0.25000000  1
  Ca  Ca3  1  0.06621300  0.33081600  0.75000000  1
  Ca  Ca4  1  0.26456900  0.93378700  0.75000000  1
  Ca  Ca5  1  0.66921200  0.73541600  0.75000000  1
  Sc  Sc0  1  0.66666600  0.33332800  0.75000000  1
  Sc  Sc1  1  0.33333400  0.66667200  0.25000000  1
  N  N0  1  0.91817900  0.62392100  0.75000000  1
  N  N1  1  0.70576400  0.08182000  0.75000000  1
  N  N2  1  0.37605400  0.29424500  0.75000000  1
  N  N3  1  0.08182100  0.37607900  0.25000000  1
  N  N4  1  0.29423600  0.91818000  0.25000000  1
  N  N5  1  0.62394600  0.70575500  0.25000000  1
loop_
_geom_bond_atom_site_label_1
_geom_bond_atom_site_label_2
_geom_bond_distance
_geom_bond_site_symmetry_2
Ca0 N4 2.416294 1_655
Ca0 N5 2.491891 1_555
Ca0 N0 2.532702 1_555
Ca0 N0 2.532702 1_554
Ca0 N3 2.939474 1_655
Ca1 N5 2.416290 1_545
Ca1 N3 2.491936 1_655
Ca1 N1 2.532710 1_554
Ca1 N1 2.532710 1_555
Ca1 N4 2.939911 1_545
Ca2 N3 2.416259 1_555
Ca2 N4 2.491912 1_545
Ca2 N2 2.532705 1_555
Ca2 N2 2.532705 1_554
Ca2 N5 2.939807 1_555
Ca3 N1 2.416294 1_455
Ca3 N2 2.491891 1_555
Ca3 N3 2.532702 1_555
Ca3 N3 2.532702 1_556
Ca3 N0 2.939474 1_455
Ca4 N2 2.416290 1_565
Ca4 N0 2.491936 1_455
Ca4 N4 2.532710 1_555
Ca4 N4 2.532710 1_556
Ca4 N1 2.939911 1_565
Ca5 N0 2.416259 1_555
Ca5 N1 2.491912 1_565
Ca5 N5 2.532705 1_556
Ca5 N5 2.532705 1_555
Ca5 N2 2.939807 1_555
N0 Sc0 2.064900 1_555
N1 Sc0 2.064896 1_555
N2 Sc0 2.064990 1_555
N3 Sc1 2.064900 1_555
N4 Sc1 2.064896 1_555
N5 Sc1 2.064990 1_555
