# generated using pymatgen
data_PrMg(CuO3)2
_symmetry_space_group_name_H-M   'P 1'
_cell_length_a   5.25528500
_cell_length_b   5.44195800
_cell_length_c   7.54998300
_cell_angle_alpha   90.00000000
_cell_angle_beta   90.00000000
_cell_angle_gamma   90.00000000
_symmetry_Int_Tables_number   1
_chemical_formula_structural   PrMg(CuO3)2
_chemical_formula_sum   'Pr2 Mg2 Cu4 O12'
_cell_volume   215.92226769
_cell_formula_units_Z   2
loop_
 _symmetry_equiv_pos_site_id
 _symmetry_equiv_pos_as_xyz
  1  'x, y, z'
loop_
 _atom_site_type_symbol
 _atom_site_label
 _atom_site_symmetry_multiplicity
 _atom_site_fract_x
 _atom_site_fract_y
 _atom_site_fract_z
 _atom_site_occupancy
  Pr  Pr0  1  0.01066900  0.70521400  0.00000000  1
  Pr  Pr1  1  0.51066900  0.29478600  0.50000000  1
  Mg  Mg0  1  0.47240300  0.18582800  0.00000000  1
  Mg  Mg1  1  0.97240300  0.81417200  0.50000000  1
  Cu  Cu0  1  0.99866100  0.24928900  0.75183800  1
  Cu  Cu1  1  0.99866100  0.24928900  0.24816200  1
  Cu  Cu2  1  0.49866100  0.75071100  0.25183800  1
  Cu  Cu3  1  0.49866100  0.75071100  0.74816200  1
  O  O0  1  0.07246100  0.20017300  0.50000000  1
  O  O1  1  0.22971800  0.98398300  0.80440600  1
  O  O2  1  0.22971800  0.98398300  0.19559400  1
  O  O3  1  0.30959900  0.44756000  0.19310900  1
  O  O4  1  0.30959900  0.44756000  0.80689100  1
  O  O5  1  0.37036600  0.72951300  0.50000000  1
  O  O6  1  0.57246100  0.79982700  0.00000000  1
  O  O7  1  0.72971800  0.01601700  0.69559400  1
  O  O8  1  0.72971800  0.01601700  0.30440600  1
  O  O9  1  0.80959900  0.55244000  0.69310900  1
  O  O10  1  0.80959900  0.55244000  0.30689100  1
  O  O11  1  0.87036600  0.27048700  0.00000000  1
loop_
_geom_bond_atom_site_label_1
_geom_bond_atom_site_label_2
_geom_bond_distance
_geom_bond_site_symmetry_2
Mg0 O11 2.141552 1_555
Mg0 O6 2.165416 1_545
Mg0 O3 2.210526 1_555
Mg0 O4 2.210526 1_554
Mg0 O2 2.239169 1_545
Mg0 O1 2.239169 1_544
Mg1 O5 2.141552 1_655
Mg1 O0 2.165416 1_665
Mg1 O9 2.210526 1_555
Mg1 O10 2.210526 1_555
Mg1 O7 2.239169 1_565
Mg1 O8 2.239169 1_565
Cu0 O1 1.927819 1_645
Cu0 O7 1.946654 1_555
Cu0 O0 1.958847 1_655
Cu0 O9 1.976214 1_555
Cu0 O11 1.994577 1_556
Cu0 O4 2.001785 1_655
Cu1 O2 1.927819 1_645
Cu1 O8 1.946654 1_555
Cu1 O0 1.958847 1_655
Cu1 O10 1.976214 1_555
Cu1 O11 1.994577 1_555
Cu1 O3 2.001785 1_655
Cu2 O8 1.927819 1_565
Cu2 O2 1.946654 1_555
Cu2 O6 1.958847 1_555
Cu2 O3 1.976214 1_555
Cu2 O5 1.994577 1_555
Cu2 O10 2.001785 1_555
Cu3 O7 1.927819 1_565
Cu3 O1 1.946654 1_555
Cu3 O6 1.958847 1_556
Cu3 O4 1.976214 1_555
Cu3 O5 1.994577 1_555
Cu3 O9 2.001785 1_555
O0 Pr1 2.359764 1_555
O1 Pr0 2.409845 1_556
O2 Pr0 2.409845 1_555
O3 Pr0 2.561172 1_555
O3 Pr1 2.678875 1_555
O4 Pr0 2.561172 1_556
O4 Pr1 2.678875 1_555
O5 Pr1 2.478005 1_555
O6 Pr0 2.359764 1_655
O7 Pr1 2.409845 1_555
O8 Pr1 2.409845 1_555
O9 Pr1 2.561172 1_555
O9 Pr0 2.678875 1_656
O10 Pr1 2.561172 1_555
O10 Pr0 2.678875 1_655
O11 Pr0 2.478005 1_655
