# generated using pymatgen
data_Ba3LaNb3O12
_symmetry_space_group_name_H-M   'P 1'
_cell_length_a   9.93219031
_cell_length_b   9.93219031
_cell_length_c   9.93218995
_cell_angle_alpha   34.14224127
_cell_angle_beta   34.14224127
_cell_angle_gamma   34.14223902
_symmetry_Int_Tables_number   1
_chemical_formula_structural   Ba3LaNb3O12
_chemical_formula_sum   'Ba3 La1 Nb3 O12'
_cell_volume   275.17611772
_cell_formula_units_Z   1
loop_
 _symmetry_equiv_pos_site_id
 _symmetry_equiv_pos_as_xyz
  1  'x, y, z'
loop_
 _atom_site_type_symbol
 _atom_site_label
 _atom_site_symmetry_multiplicity
 _atom_site_fract_x
 _atom_site_fract_y
 _atom_site_fract_z
 _atom_site_occupancy
  Ba  Ba0  1  0.71027000  0.71027000  0.71027000  1
  Ba  Ba1  1  0.28852800  0.28852800  0.28852800  1
  Ba  Ba2  1  0.13114400  0.13114400  0.13114400  1
  La  La0  1  0.85379600  0.85379600  0.85379600  1
  Nb  Nb0  1  0.57475000  0.57475000  0.57475000  1
  Nb  Nb1  1  0.42392400  0.42392400  0.42392400  1
  Nb  Nb2  1  0.99870500  0.99870500  0.99870500  1
  O  O0  1  0.20887700  0.71245800  0.20887700  1
  O  O1  1  0.20887700  0.20887700  0.71245800  1
  O  O2  1  0.71245800  0.20887700  0.20887700  1
  O  O3  1  0.79558200  0.28894800  0.79558200  1
  O  O4  1  0.79558200  0.79558200  0.28894800  1
  O  O5  1  0.28894800  0.79558200  0.79558200  1
  O  O6  1  0.37800400  0.87643000  0.37800400  1
  O  O7  1  0.37800400  0.37800400  0.87643000  1
  O  O8  1  0.87643000  0.37800400  0.37800400  1
  O  O9  1  0.62541100  0.12529900  0.62541100  1
  O  O10  1  0.62541100  0.62541100  0.12529900  1
  O  O11  1  0.12529900  0.62541100  0.62541100  1
loop_
_geom_bond_atom_site_label_1
_geom_bond_atom_site_label_2
_geom_bond_distance
_geom_bond_site_symmetry_2
Ba0 O10 2.843724 1_556
Ba0 O9 2.843724 1_565
Ba0 O11 2.843724 1_655
Ba0 O4 2.897763 1_555
Ba0 O5 2.897763 1_555
Ba0 O3 2.897763 1_555
Ba0 O1 2.915709 1_655
Ba0 O1 2.915709 1_565
Ba0 O2 2.915709 1_556
Ba0 O0 2.915709 1_556
Ba0 O0 2.915709 1_655
Ba0 O2 2.915709 1_565
Ba1 O7 2.756393 1_554
Ba1 O6 2.756393 1_545
Ba1 O8 2.756393 1_455
Ba1 O4 2.918923 1_545
Ba1 O4 2.918923 1_455
Ba1 O3 2.918923 1_455
Ba1 O5 2.918923 1_545
Ba1 O5 2.918923 1_554
Ba1 O3 2.918923 1_554
Ba1 O1 2.998141 1_555
Ba1 O2 2.998141 1_555
Ba1 O0 2.998141 1_555
Ba2 O8 2.799872 1_455
Ba2 O6 2.799872 1_545
Ba2 O7 2.799872 1_554
Ba2 O10 2.920163 1_455
Ba2 O10 2.920163 1_545
Ba2 O11 2.920163 1_554
Ba2 O9 2.920163 1_554
Ba2 O9 2.920163 1_455
Ba2 O11 2.920163 1_545
Ba2 O1 2.973681 1_554
Ba2 O0 2.973681 1_545
Ba2 O2 2.973681 1_455
La0 O9 2.414414 1_565
La0 O11 2.414414 1_655
La0 O10 2.414414 1_556
Nb0 O6 1.884654 1_555
Nb0 O8 1.884654 1_555
Nb0 O7 1.884654 1_555
Nb0 O3 2.242883 1_555
Nb0 O5 2.242883 1_555
Nb0 O4 2.242884 1_555
Nb1 O11 1.945695 1_555
Nb1 O9 1.945695 1_555
Nb1 O10 1.945695 1_555
Nb1 O0 2.150386 1_555
Nb1 O2 2.150386 1_555
Nb1 O1 2.150386 1_555
Nb2 O5 1.983427 1_655
Nb2 O3 1.983427 1_565
Nb2 O4 1.983427 1_556
Nb2 O0 2.088864 1_656
Nb2 O2 2.088864 1_566
Nb2 O1 2.088865 1_665
