# generated using pymatgen
data_Sr2Ti6N2O11
_symmetry_space_group_name_H-M   'P 1'
_cell_length_a   7.92334221
_cell_length_b   7.92334221
_cell_length_c   9.30001486
_cell_angle_alpha   81.09532498
_cell_angle_beta   81.09532498
_cell_angle_gamma   27.89579459
_symmetry_Int_Tables_number   1
_chemical_formula_structural   Sr2Ti6N2O11
_chemical_formula_sum   'Sr2 Ti6 N2 O11'
_cell_volume   269.66567294
_cell_formula_units_Z   1
loop_
 _symmetry_equiv_pos_site_id
 _symmetry_equiv_pos_as_xyz
  1  'x, y, z'
loop_
 _atom_site_type_symbol
 _atom_site_label
 _atom_site_symmetry_multiplicity
 _atom_site_fract_x
 _atom_site_fract_y
 _atom_site_fract_z
 _atom_site_occupancy
  Sr  Sr0  1  0.55106300  0.55106300  0.24176900  1
  Sr  Sr1  1  0.45241100  0.45241100  0.76691500  1
  Ti  Ti0  1  0.11823300  0.11823300  0.90447100  1
  Ti  Ti1  1  0.16793000  0.16793000  0.56100300  1
  Ti  Ti2  1  0.23616300  0.23616300  0.22793000  1
  Ti  Ti3  1  0.77426500  0.77426500  0.76447600  1
  Ti  Ti4  1  0.83507500  0.83507500  0.44163000  1
  Ti  Ti5  1  0.88708100  0.88708100  0.11222500  1
  N  N0  1  0.87485800  0.87485800  0.61778000  1
  N  N1  1  0.93261900  0.93261900  0.28595200  1
  O  O0  1  0.07034600  0.07034600  0.70384700  1
  O  O1  1  0.12729200  0.12729200  0.38388000  1
  O  O2  1  0.15822200  0.15822200  0.09594800  1
  O  O3  1  0.63453700  0.63453700  0.88957800  1
  O  O4  1  0.69984300  0.69984300  0.56975800  1
  O  O5  1  0.75595700  0.75595700  0.23780500  1
  O  O6  1  0.23675800  0.23675800  0.75820400  1
  O  O7  1  0.29411200  0.29411200  0.42412900  1
  O  O8  1  0.35529700  0.35529700  0.11387300  1
  O  O9  1  0.83785200  0.83785200  0.90843300  1
  O  O10  1  0.00008500  0.00008500  0.99039400  1
loop_
_geom_bond_atom_site_label_1
_geom_bond_atom_site_label_2
_geom_bond_distance
_geom_bond_site_symmetry_2
N0 Ti4 1.837870 1_555
N0 Ti3 1.892457 1_555
N0 Sr1 2.742518 1_655
N0 Sr1 2.742518 1_565
N1 Ti5 1.860592 1_555
N1 Ti4 1.911502 1_555
N1 Sr0 2.625985 1_565
N1 Sr0 2.625985 1_655
O0 Ti1 1.838797 1_555
O0 Ti0 2.112334 1_555
O0 Sr1 2.634755 1_455
O0 Sr1 2.634755 1_545
O1 Ti1 1.852683 1_555
O1 Ti2 2.032826 1_555
O1 Sr0 2.694972 1_455
O1 Sr0 2.694972 1_545
O2 Ti2 1.847372 1_555
O2 Ti0 1.974490 1_554
O2 Sr0 2.736735 1_455
O2 Sr0 2.736735 1_545
O3 Ti0 1.928331 1_565
O3 Ti0 1.928331 1_655
O3 Ti3 2.274650 1_555
O4 Ti1 1.976802 1_565
O4 Ti1 1.976802 1_655
O4 Ti4 2.225960 1_555
O4 Ti3 2.291394 1_555
O5 Ti2 1.938429 1_655
O5 Ti2 1.938429 1_565
O5 Ti5 2.163201 1_555
O5 Ti4 2.410298 1_555
O6 Ti3 1.998589 1_455
O6 Ti3 1.998589 1_545
O6 Ti0 2.093370 1_555
O6 Ti1 2.259029 1_555
O7 Ti4 2.025726 1_455
O7 Ti4 2.025726 1_545
O7 Ti1 2.144373 1_555
O7 Ti2 2.154616 1_555
O8 Ti2 1.965252 1_555
O8 Ti5 1.970856 1_545
O8 Ti5 1.970856 1_455
O9 Ti3 1.779433 1_555
O9 Ti5 2.150115 1_556
O9 Sr1 2.782824 1_655
O9 Sr1 2.782824 1_565
O10 Ti0 1.864685 1_555
O10 Ti5 1.917306 1_446
