# generated using pymatgen
data_Mg15C
_symmetry_space_group_name_H-M   'P 1'
_cell_length_a   6.30586674
_cell_length_b   6.30586674
_cell_length_c   9.92864500
_cell_angle_alpha   90.00000000
_cell_angle_beta   90.00000000
_cell_angle_gamma   120.00000773
_symmetry_Int_Tables_number   1
_chemical_formula_structural   Mg15C
_chemical_formula_sum   'Mg15 C1'
_cell_volume   341.90870459
_cell_formula_units_Z   1
loop_
 _symmetry_equiv_pos_site_id
 _symmetry_equiv_pos_as_xyz
  1  'x, y, z'
loop_
 _atom_site_type_symbol
 _atom_site_label
 _atom_site_symmetry_multiplicity
 _atom_site_fract_x
 _atom_site_fract_y
 _atom_site_fract_z
 _atom_site_occupancy
  Mg  Mg0  1  0.00000000  0.00000000  0.00000000  1
  Mg  Mg1  1  0.99060400  0.49530200  0.50000000  1
  Mg  Mg2  1  0.00556100  0.50278100  0.00000000  1
  Mg  Mg3  1  0.50469800  0.49530200  0.50000000  1
  Mg  Mg4  1  0.49721900  0.50278100  0.00000000  1
  Mg  Mg5  1  0.50469800  0.00939600  0.50000000  1
  Mg  Mg6  1  0.49721900  0.99443900  0.00000000  1
  Mg  Mg7  1  0.15942200  0.31884300  0.26860700  1
  Mg  Mg8  1  0.15942200  0.31884300  0.73139300  1
  Mg  Mg9  1  0.15942200  0.84057800  0.26860700  1
  Mg  Mg10  1  0.15942200  0.84057800  0.73139300  1
  Mg  Mg11  1  0.68115700  0.84057800  0.26860700  1
  Mg  Mg12  1  0.68115700  0.84057800  0.73139300  1
  Mg  Mg13  1  0.66666700  0.33333300  0.24719900  1
  Mg  Mg14  1  0.66666700  0.33333300  0.75280100  1
  C  C0  1  0.00000000  0.00000000  0.50000000  1
loop_
_geom_bond_atom_site_label_1
_geom_bond_atom_site_label_2
_geom_bond_distance
_geom_bond_site_symmetry_2
Mg0 Mg6 3.153076 1_545
Mg0 Mg2 3.153076 1_545
Mg0 Mg4 3.153079 1_555
Mg0 Mg4 3.153079 1_445
Mg0 Mg2 3.153083 1_555
Mg0 Mg6 3.153083 1_445
Mg0 Mg7 3.184996 1_555
Mg0 Mg11 3.184996 1_445
Mg0 Mg8 3.184996 1_554
Mg0 Mg12 3.184996 1_444
Mg0 Mg9 3.185000 1_545
Mg0 Mg10 3.185000 1_544
Mg1 Mg10 2.972217 1_655
Mg1 Mg9 2.972217 1_655
Mg1 Mg8 2.972221 1_655
Mg1 Mg7 2.972221 1_655
Mg1 Mg5 3.064058 1_555
Mg1 Mg3 3.064058 1_555
Mg1 Mg14 3.070738 1_555
Mg1 Mg13 3.070738 1_555
Mg1 Mg5 3.241808 1_665
Mg1 Mg3 3.241808 1_655
Mg2 Mg6 3.100329 1_555
Mg2 Mg4 3.100330 1_555
Mg2 Mg6 3.205537 1_445
Mg2 Mg4 3.205537 1_455
Mg2 Mg9 3.244128 1_555
Mg2 Mg7 3.244135 1_555
Mg2 Mg8 3.244135 1_554
Mg3 Mg8 2.972217 1_555
Mg3 Mg7 2.972217 1_555
Mg3 Mg5 3.064058 1_555
Mg3 Mg5 3.241808 1_565
Mg4 Mg6 3.100330 1_555
Mg4 Mg6 3.205537 1_545
Mg4 Mg7 3.244129 1_555
Mg4 Mg8 3.244129 1_554
Mg5 Mg9 2.972217 1_545
Mg6 Mg9 3.244128 1_555
Mg10 Mg5 2.972217 1_565
Mg10 Mg14 3.161080 1_455
Mg10 Mg14 3.161080 1_565
Mg10 Mg2 3.244128 1_556
Mg10 Mg6 3.244128 1_556
Mg11 Mg3 2.972217 1_555
Mg11 Mg5 2.972221 1_565
Mg11 Mg13 3.161080 1_555
Mg11 Mg13 3.161080 1_565
Mg11 Mg4 3.244129 1_555
Mg11 Mg6 3.244135 1_555
Mg12 Mg3 2.972217 1_555
Mg12 Mg5 2.972221 1_565
Mg12 Mg14 3.161080 1_555
Mg12 Mg14 3.161080 1_565
Mg12 Mg4 3.244129 1_556
Mg12 Mg6 3.244135 1_556
Mg13 Mg5 3.070738 1_555
Mg13 Mg3 3.070742 1_555
Mg13 Mg2 3.073919 1_655
Mg13 Mg6 3.073919 1_545
Mg13 Mg4 3.073926 1_555
Mg13 Mg9 3.161080 1_655
Mg13 Mg9 3.161080 1_545
Mg13 Mg7 3.161080 1_555
Mg13 Mg7 3.161080 1_655
Mg14 Mg5 3.070738 1_555
Mg14 Mg3 3.070742 1_555
Mg14 Mg2 3.073919 1_656
Mg14 Mg6 3.073919 1_546
Mg14 Mg4 3.073926 1_556
Mg14 Mg8 3.161080 1_555
Mg14 Mg8 3.161080 1_655
C0 Mg8 2.882700 1_555
C0 Mg12 2.882700 1_445
C0 Mg7 2.882700 1_555
C0 Mg11 2.882700 1_445
C0 Mg10 2.882704 1_545
C0 Mg9 2.882704 1_545
