# generated using pymatgen
data_CaCd(CO3)2
_symmetry_space_group_name_H-M   'P 1'
_cell_length_a   6.33370221
_cell_length_b   6.33370221
_cell_length_c   6.33370278
_cell_angle_alpha   46.89651270
_cell_angle_beta   46.89651270
_cell_angle_gamma   46.89650692
_symmetry_Int_Tables_number   1
_chemical_formula_structural   CaCd(CO3)2
_chemical_formula_sum   'Ca1 Cd1 C2 O6'
_cell_volume   123.78322379
_cell_formula_units_Z   1
loop_
 _symmetry_equiv_pos_site_id
 _symmetry_equiv_pos_as_xyz
  1  'x, y, z'
loop_
 _atom_site_type_symbol
 _atom_site_label
 _atom_site_symmetry_multiplicity
 _atom_site_fract_x
 _atom_site_fract_y
 _atom_site_fract_z
 _atom_site_occupancy
  Ca  Ca0  1  0.00000000  0.00000000  0.00000000  1
  Cd  Cd0  1  0.50000000  0.50000000  0.50000000  1
  C  C0  1  0.24885700  0.24885700  0.24885700  1
  C  C1  1  0.75114300  0.75114300  0.75114300  1
  O  O0  1  0.99068600  0.25050400  0.50716500  1
  O  O1  1  0.50716500  0.99068600  0.25050400  1
  O  O2  1  0.25050400  0.50716500  0.99068600  1
  O  O3  1  0.00931400  0.74949600  0.49283500  1
  O  O4  1  0.49283500  0.00931400  0.74949600  1
  O  O5  1  0.74949600  0.49283500  0.00931400  1
loop_
_geom_bond_atom_site_label_1
_geom_bond_atom_site_label_2
_geom_bond_distance
_geom_bond_site_symmetry_2
Ca0 O5 2.370607 1_455
Ca0 O2 2.370607 1_544
Ca0 O4 2.370607 1_554
Ca0 O1 2.370607 1_445
Ca0 O0 2.370607 1_454
Ca0 O3 2.370607 1_545
Cd0 O3 2.353929 1_555
Cd0 O0 2.353929 1_555
Cd0 O1 2.353929 1_555
Cd0 O4 2.353929 1_555
Cd0 O5 2.353929 1_555
Cd0 O2 2.353929 1_555
C0 O1 1.301734 1_545
C0 O0 1.301735 1_455
C0 O2 1.301735 1_554
C1 O4 1.301734 1_565
C1 O3 1.301735 1_655
C1 O5 1.301735 1_556
