# generated using pymatgen
data_Hf7Au10
_symmetry_space_group_name_H-M   'P 1'
_cell_length_a   8.25385770
_cell_length_b   8.25385770
_cell_length_c   9.81571051
_cell_angle_alpha   90.00000000
_cell_angle_beta   90.00000000
_cell_angle_gamma   107.22488375
_symmetry_Int_Tables_number   1
_chemical_formula_structural   Hf7Au10
_chemical_formula_sum   'Hf14 Au20'
_cell_volume   638.71513254
_cell_formula_units_Z   2
loop_
 _symmetry_equiv_pos_site_id
 _symmetry_equiv_pos_as_xyz
  1  'x, y, z'
loop_
 _atom_site_type_symbol
 _atom_site_label
 _atom_site_symmetry_multiplicity
 _atom_site_fract_x
 _atom_site_fract_y
 _atom_site_fract_z
 _atom_site_occupancy
  Hf  Hf0  1  0.31010654  0.68989346  0.00000000  1
  Hf  Hf1  1  0.68989346  0.31010654  0.00000000  1
  Hf  Hf2  1  0.18989346  0.81010654  0.50000000  1
  Hf  Hf3  1  0.81010654  0.18989346  0.50000000  1
  Hf  Hf4  1  0.00000000  0.00000000  0.00000000  1
  Hf  Hf5  1  0.50000000  0.50000000  0.50000000  1
  Hf  Hf6  1  0.50452920  0.00452920  0.25000000  1
  Hf  Hf7  1  0.49547080  0.99547080  0.75000000  1
  Hf  Hf8  1  0.99547080  0.49547080  0.75000000  1
  Hf  Hf9  1  0.00452920  0.50452920  0.25000000  1
  Hf  Hf10  1  0.31414833  0.31414833  0.18767534  1
  Hf  Hf11  1  0.68585167  0.68585167  0.81232466  1
  Hf  Hf12  1  0.18585167  0.18585167  0.68767534  1
  Hf  Hf13  1  0.81414833  0.81414833  0.31232466  1
  Au  Au0  1  0.14824247  0.85610384  0.20768372  1
  Au  Au1  1  0.85175753  0.14389616  0.79231628  1
  Au  Au2  1  0.35175753  0.64389616  0.70768372  1
  Au  Au3  1  0.35610384  0.64824247  0.29231628  1
  Au  Au4  1  0.64824247  0.35610384  0.29231628  1
  Au  Au5  1  0.64389616  0.35175753  0.70768372  1
  Au  Au6  1  0.14389616  0.85175753  0.79231628  1
  Au  Au7  1  0.85610384  0.14824247  0.20768372  1
  Au  Au8  1  0.64717785  0.94078358  -0.00044112  1
  Au  Au9  1  0.35282215  0.05921642  0.00044112  1
  Au  Au10  1  0.85282215  0.55921642  0.49955888  1
  Au  Au11  1  0.44078358  0.14717785  0.50044112  1
  Au  Au12  1  0.14717785  0.44078358  0.50044112  1
  Au  Au13  1  0.55921642  0.85282215  0.49955888  1
  Au  Au14  1  0.05921642  0.35282215  0.00044112  1
  Au  Au15  1  0.94078358  0.64717785  -0.00044112  1
  Au  Au16  1  0.10535333  0.10535333  0.39733014  1
  Au  Au17  1  0.89464667  0.89464667  0.60266986  1
  Au  Au18  1  0.39464667  0.39464667  0.89733014  1
  Au  Au19  1  0.60535333  0.60535333  0.10266986  1
loop_
_geom_bond_atom_site_label_1
_geom_bond_atom_site_label_2
_geom_bond_distance
_geom_bond_site_symmetry_2
Au0 Hf4 2.814990 1_565
Au0 Hf9 2.821648 1_555
Au0 Au9 2.850151 1_565
Au0 Hf6 2.861407 1_565
Au0 Hf13 2.865924 1_455
Au0 Au16 2.873017 1_565
Au0 Au3 2.884500 1_555
Au0 Au15 2.886246 1_455
Au0 Hf2 2.927876 1_555
Au0 Hf0 2.984657 1_555
Au1 Hf4 2.814990 1_656
Au1 Hf8 2.821648 1_555
Au1 Au8 2.850151 1_546
Au1 Hf7 2.861407 1_545
Au1 Hf12 2.865924 1_655
Au1 Au17 2.873017 1_545
Au1 Au5 2.884500 1_555
Au1 Au14 2.886246 1_656
Au1 Hf3 2.927876 1_555
Au1 Hf1 2.984657 1_556
Au2 Hf5 2.814990 1_555
Au2 Hf7 2.821648 1_555
Au2 Hf8 2.861407 1_455
Au2 Hf11 2.865924 1_555
Au2 Au6 2.884500 1_555
Au2 Hf0 2.927876 1_556
Au2 Hf2 2.984657 1_555
Au3 Hf5 2.814990 1_555
Au3 Hf9 2.821648 1_555
Au3 Hf6 2.861407 1_565
Au3 Hf10 2.865924 1_555
Au3 Hf0 2.927876 1_555
Au3 Hf2 2.984657 1_555
Au4 Hf5 2.814990 1_555
Au4 Hf6 2.821648 1_555
Au4 Hf9 2.861407 1_655
Au4 Hf10 2.865924 1_555
Au4 Au7 2.884500 1_555
Au4 Hf1 2.927876 1_555
Au4 Hf3 2.984657 1_555
Au5 Hf5 2.814990 1_555
Au5 Hf8 2.821648 1_555
Au5 Hf7 2.861407 1_545
Au5 Hf11 2.865924 1_555
Au5 Hf1 2.927876 1_556
Au5 Hf3 2.984657 1_555
Au6 Hf4 2.814990 1_566
Au6 Hf7 2.821648 1_555
Au6 Hf8 2.861407 1_455
Au6 Hf12 2.865924 1_565
Au6 Au9 2.886246 1_566
Au6 Hf2 2.927876 1_555
Au6 Hf0 2.984657 1_556
Au7 Hf4 2.814990 1_655
Au7 Hf6 2.821648 1_555
Au7 Hf9 2.861407 1_655
Au7 Hf13 2.865924 1_545
Au7 Au8 2.886246 1_545
Au7 Hf3 2.927876 1_555
Au7 Hf1 2.984657 1_555
Au8 Hf4 2.806513 1_665
Au8 Hf6 2.841307 1_565
Au8 Hf7 2.847269 1_554
Au8 Au9 2.874894 1_565
Au8 Hf11 2.881817 1_554
Au8 Hf0 2.935384 1_555
Au8 Hf1 2.963137 1_565
Au9 Hf4 2.806513 1_555
Au9 Hf7 2.841307 1_544
Au9 Hf6 2.847269 1_555
Au9 Hf10 2.881817 1_555
Au9 Hf1 2.935384 1_555
Au9 Hf0 2.963137 1_545
Au10 Hf5 2.806513 1_555
Au10 Hf8 2.841307 1_555
Au10 Hf9 2.847269 1_655
Au10 Au4 2.850151 1_555
Au10 Au17 2.870993 1_555
Au10 Au12 2.874894 1_655
Au10 Hf13 2.881817 1_555
Au10 Au5 2.886246 1_555
Au10 Hf2 2.935384 1_655
Au10 Hf3 2.963137 1_555
Au11 Hf5 2.806513 1_555
Au11 Hf6 2.841307 1_555
Au11 Hf7 2.847269 1_545
Au11 Au5 2.850151 1_555
Au11 Au16 2.870993 1_555
Au11 Au13 2.874894 1_545
Au11 Hf12 2.881817 1_555
Au11 Au4 2.886246 1_555
Au11 Hf2 2.935384 1_545
Au11 Hf3 2.963137 1_555
Au12 Hf5 2.806513 1_555
Au12 Hf9 2.841307 1_555
Au12 Hf8 2.847269 1_455
Au12 Au2 2.850151 1_555
Au12 Au16 2.870993 1_555
Au12 Hf12 2.881817 1_555
Au12 Au3 2.886246 1_555
Au12 Hf3 2.935384 1_455
Au12 Hf2 2.963137 1_555
Au13 Hf5 2.806513 1_555
Au13 Hf7 2.841307 1_555
Au13 Hf6 2.847269 1_565
Au13 Au3 2.850151 1_555
Au13 Au17 2.870993 1_555
Au13 Hf13 2.881817 1_555
Au13 Au2 2.886246 1_555
Au13 Hf3 2.935384 1_565
Au13 Hf2 2.963137 1_555
Au14 Hf4 2.806513 1_555
Au14 Hf8 2.841307 1_454
Au14 Hf9 2.847269 1_555
Au14 Au7 2.850151 1_455
Au14 Au18 2.870993 1_554
Au14 Au15 2.874894 1_455
Au14 Hf10 2.881817 1_555
Au14 Hf0 2.935384 1_555
Au14 Hf1 2.963137 1_455
Au15 Hf4 2.806513 1_665
Au15 Hf9 2.841307 1_655
Au15 Hf8 2.847269 1_554
Au15 Au6 2.850151 1_654
Au15 Au19 2.870993 1_555
Au15 Hf11 2.881817 1_554
Au15 Hf1 2.935384 1_555
Au15 Hf0 2.963137 1_655
Au16 Au7 2.873017 1_455
Au16 Au17 2.884507 1_445
Au16 Hf10 2.901035 1_555
Au16 Hf3 2.906579 1_455
Au16 Hf2 2.906579 1_545
Au16 Hf12 2.956966 1_555
Au16 Hf13 2.971359 1_445
Au17 Au6 2.873017 1_655
Au17 Hf11 2.901035 1_555
Au17 Hf2 2.906579 1_655
Au17 Hf3 2.906579 1_565
Au17 Hf13 2.956966 1_555
Au17 Hf12 2.971359 1_665
Au18 Au9 2.870993 1_556
Au18 Au2 2.873017 1_555
Au18 Au5 2.873017 1_555
Au18 Au19 2.884507 1_556
Au18 Hf12 2.901035 1_555
Au18 Hf0 2.906579 1_556
Au18 Hf1 2.906579 1_556
Au18 Hf10 2.956966 1_556
Au18 Hf11 2.971359 1_555
Au19 Au8 2.870993 1_555
Au19 Au3 2.873017 1_555
Au19 Au4 2.873017 1_555
Au19 Hf13 2.901035 1_555
Au19 Hf1 2.906579 1_555
Au19 Hf0 2.906579 1_555
Au19 Hf11 2.956966 1_554
Au19 Hf10 2.971359 1_555
