# generated using pymatgen
data_Nb8S8O45
_symmetry_space_group_name_H-M   'P 1'
_cell_length_a   10.86482624
_cell_length_b   10.86482624
_cell_length_c   10.86482635
_cell_angle_alpha   58.36260465
_cell_angle_beta   58.36260465
_cell_angle_gamma   58.36260315
_symmetry_Int_Tables_number   1
_chemical_formula_structural   Nb8S8O45
_chemical_formula_sum   'Nb8 S8 O45'
_cell_volume   872.89219483
_cell_formula_units_Z   1
loop_
 _symmetry_equiv_pos_site_id
 _symmetry_equiv_pos_as_xyz
  1  'x, y, z'
loop_
 _atom_site_type_symbol
 _atom_site_label
 _atom_site_symmetry_multiplicity
 _atom_site_fract_x
 _atom_site_fract_y
 _atom_site_fract_z
 _atom_site_occupancy
  Nb  Nb0  1  0.42193000  0.87921400  0.32342800  1
  Nb  Nb1  1  0.87921400  0.32342800  0.42193000  1
  Nb  Nb2  1  0.32342800  0.42193000  0.87921400  1
  Nb  Nb3  1  0.57807000  0.12078600  0.67657200  1
  Nb  Nb4  1  0.12078600  0.67657200  0.57807000  1
  Nb  Nb5  1  0.67657200  0.57807000  0.12078600  1
  Nb  Nb6  1  0.37591200  0.37591200  0.37591200  1
  Nb  Nb7  1  0.62408800  0.62408800  0.62408800  1
  S  S0  1  0.18117500  0.11799800  0.55306600  1
  S  S1  1  0.11799800  0.55306600  0.18117500  1
  S  S2  1  0.55306600  0.18117500  0.11799800  1
  S  S3  1  0.81882500  0.88200200  0.44693400  1
  S  S4  1  0.88200200  0.44693400  0.81882500  1
  S  S5  1  0.44693400  0.81882500  0.88200200  1
  S  S6  1  0.14678900  0.14678900  0.14678900  1
  S  S7  1  0.85321100  0.85321100  0.85321100  1
  O  O0  1  0.54814500  0.74358900  0.21158300  1
  O  O1  1  0.74358900  0.21158300  0.54814500  1
  O  O2  1  0.21158300  0.54814500  0.74358900  1
  O  O3  1  0.45185500  0.25641100  0.78841700  1
  O  O4  1  0.25641100  0.78841700  0.45185500  1
  O  O5  1  0.78841700  0.45185500  0.25641100  1
  O  O6  1  0.48353900  0.23703300  0.52155400  1
  O  O7  1  0.23703300  0.52155400  0.48353900  1
  O  O8  1  0.52155400  0.48353900  0.23703300  1
  O  O9  1  0.51646100  0.76296700  0.47844600  1
  O  O10  1  0.76296700  0.47844600  0.51646100  1
  O  O11  1  0.47844600  0.51646100  0.76296700  1
  O  O12  1  0.03471500  0.16972500  0.29942100  1
  O  O13  1  0.16972500  0.29942100  0.03471500  1
  O  O14  1  0.29942100  0.03471500  0.16972500  1
  O  O15  1  0.96528500  0.83027500  0.70057900  1
  O  O16  1  0.83027500  0.70057900  0.96528500  1
  O  O17  1  0.70057900  0.96528500  0.83027500  1
  O  O18  1  0.27680300  0.05570500  0.42339200  1
  O  O19  1  0.05570500  0.42339200  0.27680300  1
  O  O20  1  0.42339200  0.27680300  0.05570500  1
  O  O21  1  0.72319700  0.94429500  0.57660800  1
  O  O22  1  0.94429500  0.57660800  0.72319700  1
  O  O23  1  0.57660800  0.72319700  0.94429500  1
  O  O24  1  0.22500900  0.25243600  0.50291300  1
  O  O25  1  0.25243600  0.50291300  0.22500900  1
  O  O26  1  0.50291300  0.22500900  0.25243600  1
  O  O27  1  0.77499100  0.74756400  0.49708700  1
  O  O28  1  0.74756400  0.49708700  0.77499100  1
  O  O29  1  0.49708700  0.77499100  0.74756400  1
  O  O30  1  0.80448900  0.99422000  0.30259500  1
  O  O31  1  0.99422000  0.30259500  0.80448900  1
  O  O32  1  0.30259500  0.80448900  0.99422000  1
  O  O33  1  0.19551100  0.00578000  0.69740500  1
  O  O34  1  0.00578000  0.69740500  0.19551100  1
  O  O35  1  0.69740500  0.19551100  0.00578000  1
  O  O36  1  0.01592400  0.18825800  0.55755100  1
  O  O37  1  0.18825800  0.55755100  0.01592400  1
  O  O38  1  0.55755100  0.01592400  0.18825800  1
  O  O39  1  0.98407600  0.81174200  0.44244900  1
  O  O40  1  0.81174200  0.44244900  0.98407600  1
  O  O41  1  0.44244900  0.98407600  0.81174200  1
  O  O42  1  0.09414700  0.09414700  0.09414700  1
  O  O43  1  0.90585300  0.90585300  0.90585300  1
  O  O44  1  0.00000000  0.00000000  0.00000000  1
loop_
_geom_bond_atom_site_label_1
_geom_bond_atom_site_label_2
_geom_bond_distance
_geom_bond_site_symmetry_2
Nb0 O0 1.881206 1_555
Nb0 O9 1.925869 1_555
Nb0 O4 1.984632 1_555
Nb0 O38 2.066792 1_565
Nb0 O14 2.104201 1_565
Nb0 O18 2.135210 1_565
Nb1 O1 1.881206 1_555
Nb1 O10 1.925869 1_555
Nb1 O5 1.984632 1_555
Nb1 O36 2.066792 1_655
Nb1 O12 2.104201 1_655
Nb1 O19 2.135210 1_655
Nb2 O2 1.881206 1_555
Nb2 O11 1.925869 1_555
Nb2 O3 1.984632 1_555
Nb2 O37 2.066792 1_556
Nb2 O13 2.104201 1_556
Nb2 O20 2.135210 1_556
Nb3 O3 1.881206 1_555
Nb3 O6 1.925869 1_555
Nb3 O1 1.984632 1_555
Nb3 O41 2.066792 1_545
Nb3 O17 2.104201 1_545
Nb3 O21 2.135210 1_545
Nb4 O4 1.881206 1_555
Nb4 O7 1.925869 1_555
Nb4 O2 1.984632 1_555
Nb4 O39 2.066792 1_455
Nb4 O15 2.104201 1_455
Nb4 O22 2.135210 1_455
Nb5 O5 1.881206 1_555
Nb5 O8 1.925869 1_555
Nb5 O0 1.984632 1_555
Nb5 O40 2.066792 1_554
Nb5 O16 2.104201 1_554
Nb5 O23 2.135210 1_554
Nb6 O7 1.932191 1_555
Nb6 O6 1.932191 1_555
Nb6 O8 1.932191 1_555
Nb6 O26 2.093784 1_555
Nb6 O25 2.093784 1_555
Nb6 O24 2.093784 1_555
Nb7 O10 1.932191 1_555
Nb7 O9 1.932191 1_555
Nb7 O11 1.932191 1_555
Nb7 O29 2.093784 1_555
Nb7 O28 2.093784 1_555
Nb7 O27 2.093784 1_555
O12 S6 1.513816 1_555
O13 S6 1.513816 1_555
O14 S6 1.513816 1_555
O15 S7 1.513816 1_555
O16 S7 1.513816 1_555
O17 S7 1.513816 1_555
O18 S0 1.499829 1_555
O19 S1 1.499829 1_555
O20 S2 1.499829 1_555
O21 S3 1.499829 1_555
O22 S4 1.499829 1_555
O23 S5 1.499829 1_555
O24 S0 1.509890 1_555
O25 S1 1.509890 1_555
O26 S2 1.509890 1_555
O27 S3 1.509890 1_555
O28 S4 1.509890 1_555
O29 S5 1.509890 1_555
O30 S3 1.421706 1_555
O31 S4 1.421706 1_555
O32 S5 1.421706 1_555
O33 S0 1.421706 1_555
O34 S1 1.421706 1_555
O35 S2 1.421706 1_555
O36 S0 1.522515 1_555
O37 S1 1.522515 1_555
O38 S2 1.522515 1_555
O39 S3 1.522515 1_555
O40 S4 1.522515 1_555
O41 S5 1.522515 1_555
O42 S6 1.418063 1_555
O43 S7 1.418063 1_555
