# generated using pymatgen
data_YMgCu
_symmetry_space_group_name_H-M   'P 1'
_cell_length_a   7.44739484
_cell_length_b   7.44740466
_cell_length_c   3.98564788
_cell_angle_alpha   90.00000000
_cell_angle_beta   90.00000000
_cell_angle_gamma   120.00004521
_symmetry_Int_Tables_number   1
_chemical_formula_structural   YMgCu
_chemical_formula_sum   'Y3 Mg3 Cu3'
_cell_volume   191.44264813
_cell_formula_units_Z   3
loop_
 _symmetry_equiv_pos_site_id
 _symmetry_equiv_pos_as_xyz
  1  'x, y, z'
loop_
 _atom_site_type_symbol
 _atom_site_label
 _atom_site_symmetry_multiplicity
 _atom_site_fract_x
 _atom_site_fract_y
 _atom_site_fract_z
 _atom_site_occupancy
  Y  Y0  1  -0.00000000  0.58580147  -0.00000000  1
  Y  Y1  1  0.58580147  -0.00000000  0.00000000  1
  Y  Y2  1  0.41419853  0.41419853  0.00000000  1
  Mg  Mg0  1  -0.00000000  0.24154001  0.50000000  1
  Mg  Mg1  1  0.75845999  0.75845999  0.50000000  1
  Mg  Mg2  1  0.24154001  -0.00000000  0.50000000  1
  Cu  Cu0  1  0.33333300  0.66666700  0.50000000  1
  Cu  Cu1  1  0.00000000  0.00000000  0.00000000  1
  Cu  Cu2  1  0.66666700  0.33333300  0.50000000  1
loop_
_geom_bond_atom_site_label_1
_geom_bond_atom_site_label_2
_geom_bond_distance
_geom_bond_site_symmetry_2
Cu0 Mg2 2.885660 1_565
Cu0 Mg0 2.885662 1_555
Cu0 Mg1 2.885663 1_555
Cu0 Y0 3.000270 1_555
Cu0 Y0 3.000270 1_556
Cu0 Y1 3.000273 1_565
Cu0 Y1 3.000273 1_566
Cu0 Y2 3.000278 1_556
Cu0 Y2 3.000278 1_555
Cu1 Mg1 2.684620 1_445
Cu1 Mg1 2.684620 1_444
Cu1 Mg2 2.684620 1_554
Cu1 Mg2 2.684620 1_555
Cu1 Mg0 2.684622 1_555
Cu1 Mg0 2.684622 1_554
Cu1 Y2 3.084700 1_555
Cu1 Y1 3.084700 1_455
Cu1 Y0 3.084704 1_545
Cu2 Mg0 2.885657 1_655
Cu2 Mg2 2.885660 1_555
Cu2 Mg1 2.885667 1_555
Cu2 Y0 3.000272 1_655
Cu2 Y0 3.000272 1_656
Cu2 Y1 3.000273 1_556
Cu2 Y1 3.000273 1_555
Cu2 Y2 3.000277 1_556
Cu2 Y2 3.000277 1_555
