# generated using pymatgen
data_Li3Cr(PO4)2
_symmetry_space_group_name_H-M   'P 1'
_cell_length_a   8.21661558
_cell_length_b   5.40977802
_cell_length_c   6.25142771
_cell_angle_alpha   89.99013552
_cell_angle_beta   90.51692919
_cell_angle_gamma   89.99803056
_symmetry_Int_Tables_number   1
_chemical_formula_structural   Li3Cr(PO4)2
_chemical_formula_sum   'Li6 Cr2 P4 O16'
_cell_volume   277.86506325
_cell_formula_units_Z   2
loop_
 _symmetry_equiv_pos_site_id
 _symmetry_equiv_pos_as_xyz
  1  'x, y, z'
loop_
 _atom_site_type_symbol
 _atom_site_label
 _atom_site_symmetry_multiplicity
 _atom_site_fract_x
 _atom_site_fract_y
 _atom_site_fract_z
 _atom_site_occupancy
  Li  Li0  1  0.07754400  0.75003300  0.27151300  1
  Li  Li1  1  0.24823100  0.24999400  0.50320100  1
  Li  Li2  1  0.42414400  0.75002000  0.72387300  1
  Li  Li3  1  0.57583900  0.24998400  0.27612600  1
  Li  Li4  1  0.75176300  0.74996600  0.49678800  1
  Li  Li5  1  0.92246100  0.24999400  0.72848900  1
  Cr  Cr0  1  0.25036600  0.24995300  0.00060200  1
  Cr  Cr1  1  0.74959800  0.75004900  0.99951900  1
  P  P0  1  0.10047100  0.75001000  0.76501000  1
  P  P1  1  0.40007000  0.74999400  0.23212300  1
  P  P2  1  0.59994200  0.25001200  0.76786800  1
  P  P3  1  0.89956700  0.24999500  0.23495800  1
  O  O0  1  0.99195100  0.74999600  0.96689000  1
  O  O1  1  0.00123800  0.24974700  0.43782000  1
  O  O2  1  0.21821100  0.51853700  0.77145100  1
  O  O3  1  0.21821200  0.98147400  0.77146300  1
  O  O4  1  0.28196400  0.51876400  0.22834600  1
  O  O5  1  0.28198100  0.98124400  0.22830800  1
  O  O6  1  0.50397800  0.75001300  0.43304600  1
  O  O7  1  0.49302800  0.25000000  0.97133900  1
  O  O8  1  0.50697200  0.75000500  0.02868600  1
  O  O9  1  0.49601200  0.25000400  0.56695200  1
  O  O10  1  0.71803300  0.01875400  0.77166200  1
  O  O11  1  0.71803300  0.48125400  0.77166800  1
  O  O12  1  0.78179700  0.01853200  0.22848000  1
  O  O13  1  0.78177800  0.48147700  0.22856000  1
  O  O14  1  0.99872800  0.75018600  0.56217800  1
  O  O15  1  0.00808500  0.25001100  0.03308000  1
loop_
_geom_bond_atom_site_label_1
_geom_bond_atom_site_label_2
_geom_bond_distance
_geom_bond_site_symmetry_2
Li0 O14 1.934520 1_455
Li0 O0 2.024083 1_454
Li0 O5 2.113605 1_555
Li0 O4 2.113635 1_555
Li1 O1 2.066578 1_555
Li1 O9 2.071030 1_555
Li1 O3 2.233838 1_545
Li1 O2 2.234227 1_555
Li1 O4 2.269580 1_555
Li1 O5 2.270076 1_545
Li2 O6 1.938360 1_555
Li2 O8 2.017613 1_556
Li2 O3 2.128015 1_555
Li2 O2 2.128111 1_555
Li3 O9 1.938334 1_555
Li3 O7 2.017414 1_554
Li3 O13 2.128171 1_555
Li3 O12 2.128230 1_555
Li4 O14 2.066363 1_555
Li4 O6 2.071052 1_555
Li4 O13 2.233929 1_555
Li4 O12 2.234230 1_565
Li4 O11 2.269495 1_555
Li4 O10 2.270097 1_565
Li5 O1 1.934434 1_655
Li5 O15 2.023982 1_656
Li5 O10 2.113612 1_555
Li5 O11 2.113668 1_555
Cr0 O15 2.002878 1_555
Cr0 O7 2.003878 1_554
Cr0 O5 2.049269 1_545
Cr0 O4 2.050168 1_555
Cr0 O3 2.055509 1_544
Cr0 O2 2.055602 1_554
Cr1 O8 2.003523 1_556
Cr1 O0 2.003571 1_555
Cr1 O10 2.049858 1_565
Cr1 O11 2.050538 1_555
Cr1 O12 2.054795 1_566
Cr1 O13 2.055103 1_556
O0 P0 1.551811 1_655
O1 P3 1.512295 1_455
O2 P0 1.582649 1_555
O3 P0 1.582680 1_555
O4 P1 1.583267 1_555
O5 P1 1.583210 1_555
O6 P1 1.512367 1_555
O7 P2 1.552359 1_555
O8 P1 1.552127 1_555
O9 P2 1.512431 1_555
O10 P2 1.583253 1_555
O11 P2 1.583244 1_555
O12 P3 1.582825 1_555
O13 P3 1.582928 1_555
O14 P0 1.512461 1_655
O15 P3 1.551791 1_455
