# generated using pymatgen
data_Sr3(BO3)2
_symmetry_space_group_name_H-M   'P 1'
_cell_length_a   6.69264208
_cell_length_b   6.69264208
_cell_length_c   6.69264117
_cell_angle_alpha   85.34647714
_cell_angle_beta   85.34647714
_cell_angle_gamma   85.34648183
_symmetry_Int_Tables_number   1
_chemical_formula_structural   Sr3(BO3)2
_chemical_formula_sum   'Sr6 B4 O12'
_cell_volume   296.96034393
_cell_formula_units_Z   2
loop_
 _symmetry_equiv_pos_site_id
 _symmetry_equiv_pos_as_xyz
  1  'x, y, z'
loop_
 _atom_site_type_symbol
 _atom_site_label
 _atom_site_symmetry_multiplicity
 _atom_site_fract_x
 _atom_site_fract_y
 _atom_site_fract_z
 _atom_site_occupancy
  Sr  Sr0  1  0.75000000  0.10455512  0.39544488  1
  Sr  Sr1  1  0.39544488  0.75000000  0.10455512  1
  Sr  Sr2  1  0.10455512  0.39544488  0.75000000  1
  Sr  Sr3  1  0.25000000  0.89544488  0.60455512  1
  Sr  Sr4  1  0.60455512  0.25000000  0.89544488  1
  Sr  Sr5  1  0.89544488  0.60455512  0.25000000  1
  B  B0  1  0.38480117  0.38480117  0.38480117  1
  B  B1  1  0.61519883  0.61519883  0.61519883  1
  B  B2  1  0.88480117  0.88480117  0.88480117  1
  B  B3  1  0.11519883  0.11519883  0.11519883  1
  O  O0  1  0.72816948  0.89573413  0.03429045  1
  O  O1  1  0.03429045  0.72816948  0.89573413  1
  O  O2  1  0.89573413  0.03429045  0.72816948  1
  O  O3  1  0.60426587  0.77183052  0.46570955  1
  O  O4  1  0.77183052  0.46570955  0.60426587  1
  O  O5  1  0.46570955  0.60426587  0.77183052  1
  O  O6  1  0.96570955  0.27183052  0.10426587  1
  O  O7  1  0.27183052  0.10426587  0.96570955  1
  O  O8  1  0.10426587  0.96570955  0.27183052  1
  O  O9  1  0.22816948  0.53429045  0.39573413  1
  O  O10  1  0.53429045  0.39573413  0.22816948  1
  O  O11  1  0.39573413  0.22816948  0.53429045  1
loop_
_geom_bond_atom_site_label_1
_geom_bond_atom_site_label_2
_geom_bond_distance
_geom_bond_site_symmetry_2
B0 O10 1.390848 1_555
B0 O11 1.390848 1_555
B0 O9 1.390848 1_555
B1 O5 1.390848 1_555
B1 O3 1.390848 1_555
B1 O4 1.390848 1_555
B2 O2 1.390848 1_565
B2 O0 1.390848 1_556
B2 O1 1.390848 1_655
B3 O8 1.390848 1_545
B3 O7 1.390848 1_554
B3 O6 1.390848 1_455
O0 Sr1 2.497836 1_555
O0 Sr5 2.566494 1_555
O0 Sr4 2.572629 1_564
O0 Sr0 2.907807 1_565
O1 Sr2 2.497836 1_555
O1 Sr3 2.566494 1_555
O1 Sr5 2.572629 1_456
O1 Sr1 2.907808 1_556
O2 Sr0 2.497836 1_555
O2 Sr4 2.566494 1_555
O2 Sr3 2.572629 1_645
O2 Sr2 2.907808 1_655
O3 Sr0 2.497836 1_565
O3 Sr5 2.566494 1_555
O3 Sr3 2.572629 1_555
O3 Sr1 2.907807 1_555
O4 Sr2 2.497836 1_655
O4 Sr4 2.566494 1_555
O4 Sr5 2.572629 1_555
O4 Sr0 2.907808 1_555
O5 Sr1 2.497836 1_556
O5 Sr3 2.566494 1_555
O5 Sr4 2.572629 1_555
O5 Sr2 2.907808 1_555
O6 Sr5 2.497836 1_555
O6 Sr0 2.566494 1_555
O6 Sr2 2.572629 1_654
O6 Sr4 2.907808 1_554
O7 Sr4 2.497836 1_555
O7 Sr2 2.566494 1_555
O7 Sr1 2.572629 1_546
O7 Sr3 2.907807 1_545
O8 Sr3 2.497836 1_555
O8 Sr1 2.566494 1_555
O8 Sr0 2.572629 1_465
O8 Sr5 2.907808 1_455
O9 Sr5 2.497836 1_455
O9 Sr1 2.566494 1_555
O9 Sr2 2.572629 1_555
O9 Sr3 2.907808 1_555
O10 Sr4 2.497836 1_554
O10 Sr0 2.566494 1_555
O10 Sr1 2.572629 1_555
O10 Sr5 2.907808 1_555
O11 Sr3 2.497836 1_545
O11 Sr2 2.566494 1_555
O11 Sr0 2.572629 1_555
O11 Sr4 2.907807 1_555
