# generated using pymatgen
data_K2Se5
_symmetry_space_group_name_H-M   'P 1'
_cell_length_a   6.75689330
_cell_length_b   7.01584933
_cell_length_c   17.98654916
_cell_angle_alpha   90.00000000
_cell_angle_beta   90.00000000
_cell_angle_gamma   90.00000000
_symmetry_Int_Tables_number   1
_chemical_formula_structural   K2Se5
_chemical_formula_sum   'K8 Se20'
_cell_volume   852.65857426
_cell_formula_units_Z   4
loop_
 _symmetry_equiv_pos_site_id
 _symmetry_equiv_pos_as_xyz
  1  'x, y, z'
loop_
 _atom_site_type_symbol
 _atom_site_label
 _atom_site_symmetry_multiplicity
 _atom_site_fract_x
 _atom_site_fract_y
 _atom_site_fract_z
 _atom_site_occupancy
  K  K0  1  0.87304272  0.08602870  0.50624247  1
  K  K1  1  0.37304272  0.41397130  0.49375753  1
  K  K2  1  0.12695728  0.58602870  0.99375753  1
  K  K3  1  0.62695728  0.91397130  0.00624247  1
  K  K4  1  0.08573371  0.76115139  0.33752288  1
  K  K5  1  0.58573371  0.73884861  0.66247712  1
  K  K6  1  0.91426629  0.26115139  0.16247712  1
  K  K7  1  0.41426629  0.23884861  0.83752288  1
  Se  Se0  1  0.46633803  0.62734432  0.20517126  1
  Se  Se1  1  0.96633803  0.87265568  0.79482874  1
  Se  Se2  1  0.53366197  0.12734432  0.29482874  1
  Se  Se3  1  0.03366197  0.37265568  0.70517126  1
  Se  Se4  1  0.26055668  0.86490403  0.15045866  1
  Se  Se5  1  0.76055668  0.63509597  0.84954134  1
  Se  Se6  1  0.73944332  0.36490403  0.34954134  1
  Se  Se7  1  0.23944332  0.13509597  0.65045866  1
  Se  Se8  1  0.93033510  0.75880767  0.16212426  1
  Se  Se9  1  0.43033510  0.74119233  0.83787574  1
  Se  Se10  1  0.06966490  0.25880767  0.33787574  1
  Se  Se11  1  0.56966490  0.24119233  0.66212426  1
  Se  Se12  1  0.07230063  0.64164482  0.62630931  1
  Se  Se13  1  0.57230063  0.85835518  0.37369069  1
  Se  Se14  1  0.92769937  0.14164482  0.87369069  1
  Se  Se15  1  0.42770037  0.35835518  0.12630931  1
  Se  Se16  1  0.89690806  0.57952132  0.51674296  1
  Se  Se17  1  0.39690806  0.92047868  0.48325704  1
  Se  Se18  1  0.10309194  0.07952132  0.98325704  1
  Se  Se19  1  0.60309194  0.42047868  0.01674296  1
loop_
_geom_bond_atom_site_label_1
_geom_bond_atom_site_label_2
_geom_bond_distance
_geom_bond_site_symmetry_2
K0 Se17 3.445325 1_545
K0 Se16 3.471165 1_555
K0 Se13 3.516385 1_545
K0 Se10 3.522114 1_655
K0 Se6 3.547815 1_555
K0 Se16 3.562247 1_545
K0 Se7 3.602267 1_655
K0 Se11 3.639818 1_555
K0 Se17 3.748258 1_645
K1 Se16 3.445325 1_455
K1 Se17 3.471165 1_545
K1 Se12 3.516385 1_555
K1 Se11 3.522114 1_555
K1 Se7 3.547815 1_555
K1 Se17 3.562247 1_555
K1 Se6 3.602267 1_555
K1 Se10 3.639818 1_555
K1 Se16 3.748258 1_555
K2 Se19 3.445325 1_556
K2 Se18 3.471165 1_565
K2 Se15 3.516389 1_556
K2 Se8 3.522114 1_456
K2 Se4 3.547815 1_556
K2 Se18 3.562247 1_555
K2 Se5 3.602267 1_455
K2 Se9 3.639818 1_555
K2 Se19 3.748258 1_456
K3 Se18 3.445325 1_664
K3 Se19 3.471165 1_555
K3 Se14 3.516385 1_564
K3 Se9 3.522114 1_554
K3 Se5 3.547815 1_554
K3 Se19 3.562247 1_565
K3 Se4 3.602267 1_555
K3 Se8 3.639818 1_555
K3 Se18 3.748258 1_564
K4 Se8 3.325005 1_455
K4 Se13 3.420105 1_555
K4 Se10 3.493175 1_565
K4 Se10 3.526046 1_555
K4 Se17 3.541369 1_555
K4 Se13 3.594956 1_455
K4 Se0 3.627941 1_555
K4 Se4 3.639510 1_555
K4 Se6 3.640066 1_455
K4 Se16 3.693636 1_455
K5 Se9 3.325005 1_555
K5 Se12 3.420105 1_655
K5 Se11 3.493175 1_555
K5 Se11 3.526046 1_565
K5 Se16 3.541369 1_555
K5 Se12 3.594956 1_555
K5 Se1 3.627941 1_555
K5 Se5 3.639510 1_555
K5 Se7 3.640066 1_565
K5 Se17 3.693636 1_555
K6 Se10 3.325005 1_655
K6 Se15 3.420099 1_555
K6 Se8 3.493175 1_555
K6 Se8 3.526046 1_545
K6 Se19 3.541369 1_555
K6 Se15 3.594963 1_655
K6 Se2 3.627941 1_555
K6 Se6 3.639510 1_555
K6 Se4 3.640066 1_645
K6 Se18 3.693636 1_654
K7 Se11 3.325005 1_555
K7 Se14 3.420105 1_455
K7 Se9 3.493175 1_545
K7 Se9 3.526046 1_555
K7 Se18 3.541369 1_555
K7 Se14 3.594956 1_555
K7 Se3 3.627941 1_555
K7 Se7 3.639510 1_555
K7 Se5 3.640066 1_555
K7 Se19 3.693636 1_556
Se0 Se15 2.375215 1_555
Se0 Se4 2.383191 1_555
Se1 Se14 2.375216 1_565
Se1 Se5 2.383191 1_555
Se2 Se6 2.383191 1_555
Se3 Se7 2.383191 1_555
Se4 Se8 2.361497 1_455
Se5 Se9 2.361497 1_555
Se10 Se6 2.361497 1_455
Se11 Se7 2.361497 1_555
Se12 Se16 2.340553 1_455
Se12 Se3 2.375216 1_555
Se13 Se17 2.340553 1_555
Se13 Se2 2.375216 1_565
Se14 Se18 2.340553 1_655
Se15 Se19 2.340549 1_555
