# generated using pymatgen
data_Mg14VC
_symmetry_space_group_name_H-M   'P 1'
_cell_length_a   6.29809358
_cell_length_b   6.45490132
_cell_length_c   9.70635236
_cell_angle_alpha   90.00000000
_cell_angle_beta   90.00000000
_cell_angle_gamma   120.82708830
_symmetry_Int_Tables_number   1
_chemical_formula_structural   Mg14VC
_chemical_formula_sum   'Mg14 V1 C1'
_cell_volume   338.84820787
_cell_formula_units_Z   1
loop_
 _symmetry_equiv_pos_site_id
 _symmetry_equiv_pos_as_xyz
  1  'x, y, z'
loop_
 _atom_site_type_symbol
 _atom_site_label
 _atom_site_symmetry_multiplicity
 _atom_site_fract_x
 _atom_site_fract_y
 _atom_site_fract_z
 _atom_site_occupancy
  Mg  Mg0  1  0.17945223  0.33972562  0.62500000  1
  Mg  Mg1  1  0.17344802  0.83672351  0.62500000  1
  Mg  Mg2  1  0.73250118  0.37242461  0.12500000  1
  Mg  Mg3  1  0.66537342  0.33831451  0.62500000  1
  Mg  Mg4  1  0.73250118  0.86007557  0.12500000  1
  Mg  Mg5  1  0.66537342  0.82705791  0.62500000  1
  Mg  Mg6  1  0.31879002  0.14554399  0.34324133  1
  Mg  Mg7  1  0.31879002  0.14554399  0.90675867  1
  Mg  Mg8  1  0.31879002  0.67324704  0.34324133  1
  Mg  Mg9  1  0.31879002  0.67324704  0.90675867  1
  Mg  Mg10  1  0.83513296  0.16756698  0.37760726  1
  Mg  Mg11  1  0.83513296  0.16756698  0.87239274  1
  Mg  Mg12  1  0.83874694  0.66937397  0.36307066  1
  Mg  Mg13  1  0.83874694  0.66937397  0.88692934  1
  V  V0  1  0.17803103  0.33901501  0.12500000  1
  C  C0  1  0.05039961  0.77519930  0.12500000  1
loop_
_geom_bond_atom_site_label_1
_geom_bond_atom_site_label_2
_geom_bond_distance
_geom_bond_site_symmetry_2
Mg0 Mg11 3.038725 1_455
Mg0 Mg10 3.038725 1_455
Mg0 Mg5 3.065054 1_555
Mg0 Mg3 3.065055 1_555
Mg0 Mg1 3.227614 1_555
Mg0 Mg1 3.227614 1_545
Mg0 Mg5 3.233058 1_445
Mg0 Mg3 3.233058 1_455
Mg0 Mg7 3.308765 1_555
Mg0 Mg6 3.308765 1_555
Mg0 Mg8 3.308772 1_555
Mg0 Mg9 3.308772 1_555
Mg1 Mg12 3.120955 1_455
Mg1 Mg13 3.120955 1_455
Mg1 Mg3 3.130622 1_565
Mg1 Mg5 3.130623 1_555
Mg1 Mg3 3.168382 1_455
Mg1 Mg5 3.168382 1_455
Mg1 Mg8 3.228125 1_555
Mg1 Mg9 3.228125 1_555
Mg1 Mg6 3.228131 1_565
Mg1 Mg7 3.228131 1_565
Mg2 V0 2.922375 1_655
Mg2 V0 3.386659 1_555
Mg3 Mg5 3.154790 1_555
Mg3 Mg5 3.300111 1_545
Mg3 Mg7 3.317931 1_555
Mg3 Mg6 3.317931 1_555
Mg4 V0 2.922374 1_665
Mg4 V0 3.386659 1_555
Mg5 Mg8 3.317931 1_555
Mg5 Mg9 3.317931 1_555
Mg6 V0 2.822673 1_555
Mg7 V0 2.822673 1_556
Mg8 V0 2.822681 1_555
Mg9 V0 2.822681 1_556
Mg10 Mg2 3.009019 1_555
Mg10 Mg4 3.009026 1_545
Mg10 Mg3 3.054789 1_555
Mg10 Mg5 3.054796 1_545
Mg10 V0 3.074235 1_655
Mg10 Mg8 3.139126 1_655
Mg10 Mg6 3.139126 1_655
Mg10 Mg8 3.198910 1_545
Mg10 Mg6 3.198910 1_555
Mg10 Mg12 3.230593 1_555
Mg10 Mg12 3.230593 1_545
Mg11 Mg2 3.009019 1_556
Mg11 Mg4 3.009026 1_546
Mg11 Mg3 3.054789 1_555
Mg11 Mg5 3.054796 1_545
Mg11 V0 3.074235 1_656
Mg11 Mg9 3.139126 1_655
Mg11 Mg7 3.139126 1_655
Mg11 Mg9 3.198910 1_545
Mg11 Mg7 3.198910 1_555
Mg11 Mg13 3.230593 1_555
Mg11 Mg13 3.230593 1_545
Mg12 Mg5 3.135449 1_555
Mg12 Mg3 3.135455 1_555
Mg13 Mg5 3.135449 1_555
Mg13 Mg3 3.135455 1_555
C0 Mg2 2.330881 1_455
C0 Mg4 2.330881 1_455
C0 Mg13 2.578774 1_454
C0 Mg12 2.578774 1_455
