# generated using pymatgen
data_AlCrN2
_symmetry_space_group_name_H-M   'P 1'
_cell_length_a   5.39825998
_cell_length_b   4.49810238
_cell_length_c   8.72347379
_cell_angle_alpha   90.00000192
_cell_angle_beta   143.89995920
_cell_angle_gamma   114.62170295
_symmetry_Int_Tables_number   1
_chemical_formula_structural   AlCrN2
_chemical_formula_sum   'Al2 Cr2 N4'
_cell_volume   88.25067180
_cell_formula_units_Z   2
loop_
 _symmetry_equiv_pos_site_id
 _symmetry_equiv_pos_as_xyz
  1  'x, y, z'
loop_
 _atom_site_type_symbol
 _atom_site_label
 _atom_site_symmetry_multiplicity
 _atom_site_fract_x
 _atom_site_fract_y
 _atom_site_fract_z
 _atom_site_occupancy
  Al  Al0  1  0.00000000  0.50000000  0.25000000  1
  Al  Al1  1  0.00000000  0.00000000  0.00000000  1
  Cr  Cr0  1  0.00000000  0.50000000  0.75000000  1
  Cr  Cr1  1  0.00000000  0.00000000  0.50000000  1
  N  N0  1  0.50000000  0.01204000  0.12500000  1
  N  N1  1  0.50000000  0.98796000  0.62500000  1
  N  N2  1  0.47591900  0.48796000  0.36296000  1
  N  N3  1  0.52408100  0.51204000  0.88704000  1
loop_
_geom_bond_atom_site_label_1
_geom_bond_atom_site_label_2
_geom_bond_distance
_geom_bond_site_symmetry_2
Al0 N2 1.897175 1_555
Al0 N3 1.897180 1_454
Al0 N1 1.897180 1_555
Al0 N0 1.897180 1_455
Al1 N3 1.897178 1_444
Al1 N1 1.897180 1_444
Al1 N0 1.897180 1_555
Al1 N2 1.897183 1_555
Cr0 N0 1.960331 1_566
Cr0 N2 1.960331 1_455
Cr0 N1 1.960331 1_445
Cr0 N3 1.960336 1_555
Cr1 N3 1.960328 1_555
Cr1 N0 1.960331 1_455
Cr1 N1 1.960331 1_545
Cr1 N2 1.960333 1_445
