# generated using pymatgen
data_Mg5Nb(BO4)3
_symmetry_space_group_name_H-M   'P 1'
_cell_length_a   9.43298400
_cell_length_b   9.47318000
_cell_length_c   9.56623800
_cell_angle_alpha   90.00000000
_cell_angle_beta   90.00000000
_cell_angle_gamma   90.00000000
_symmetry_Int_Tables_number   1
_chemical_formula_structural   Mg5Nb(BO4)3
_chemical_formula_sum   'Mg20 Nb4 B12 O48'
_cell_volume   854.84242723
_cell_formula_units_Z   4
loop_
 _symmetry_equiv_pos_site_id
 _symmetry_equiv_pos_as_xyz
  1  'x, y, z'
loop_
 _atom_site_type_symbol
 _atom_site_label
 _atom_site_symmetry_multiplicity
 _atom_site_fract_x
 _atom_site_fract_y
 _atom_site_fract_z
 _atom_site_occupancy
  Mg  Mg0  1  0.42734600  0.62542700  0.58427300  1
  Mg  Mg1  1  0.07265400  0.12542700  0.91572700  1
  Mg  Mg2  1  0.57265400  0.37457300  0.08427300  1
  Mg  Mg3  1  0.92734600  0.87457300  0.41572700  1
  Mg  Mg4  1  0.57265400  0.37457300  0.41572700  1
  Mg  Mg5  1  0.92734600  0.87457300  0.08427300  1
  Mg  Mg6  1  0.42734600  0.62542700  0.91572700  1
  Mg  Mg7  1  0.07265400  0.12542700  0.58427300  1
  Mg  Mg8  1  0.32124500  0.90171200  0.07595600  1
  Mg  Mg9  1  0.17875500  0.40171200  0.42404400  1
  Mg  Mg10  1  0.67875500  0.09828800  0.57595600  1
  Mg  Mg11  1  0.82124500  0.59828800  0.92404400  1
  Mg  Mg12  1  0.67875500  0.09828800  0.92404400  1
  Mg  Mg13  1  0.82124500  0.59828800  0.57595600  1
  Mg  Mg14  1  0.32124500  0.90171200  0.42404400  1
  Mg  Mg15  1  0.17875500  0.40171200  0.07595600  1
  Mg  Mg16  1  0.80860500  0.60149400  0.25000000  1
  Mg  Mg17  1  0.69139500  0.10149400  0.25000000  1
  Mg  Mg18  1  0.19139500  0.39850600  0.75000000  1
  Mg  Mg19  1  0.30860500  0.89850600  0.75000000  1
  Nb  Nb0  1  0.41265300  0.59756300  0.25000000  1
  Nb  Nb1  1  0.08734700  0.09756300  0.25000000  1
  Nb  Nb2  1  0.58734700  0.40243700  0.75000000  1
  Nb  Nb3  1  0.91265300  0.90243700  0.75000000  1
  B  B0  1  0.12938000  0.67819800  0.25000000  1
  B  B1  1  0.37062000  0.17819800  0.25000000  1
  B  B2  1  0.87062000  0.32180200  0.75000000  1
  B  B3  1  0.62938000  0.82180200  0.75000000  1
  B  B4  1  0.12652900  0.67311600  0.58850900  1
  B  B5  1  0.37347100  0.17311600  0.91149100  1
  B  B6  1  0.87347100  0.32688400  0.08850900  1
  B  B7  1  0.62652900  0.82688400  0.41149100  1
  B  B8  1  0.87347100  0.32688400  0.41149100  1
  B  B9  1  0.62652900  0.82688400  0.08850900  1
  B  B10  1  0.12652900  0.67311600  0.91149100  1
  B  B11  1  0.37347100  0.17311600  0.58850900  1
  O  O0  1  0.15989500  0.53592700  0.25000000  1
  O  O1  1  0.34010500  0.03592700  0.25000000  1
  O  O2  1  0.84010500  0.46407300  0.75000000  1
  O  O3  1  0.65989500  0.96407300  0.75000000  1
  O  O4  1  0.99715000  0.73593600  0.25000000  1
  O  O5  1  0.50285000  0.23593600  0.25000000  1
  O  O6  1  0.00285000  0.26406400  0.75000000  1
  O  O7  1  0.49715000  0.76406400  0.75000000  1
  O  O8  1  0.25457200  0.76147900  0.25000000  1
  O  O9  1  0.24542800  0.26147900  0.25000000  1
  O  O10  1  0.74542800  0.23852100  0.75000000  1
  O  O11  1  0.75457200  0.73852100  0.75000000  1
  O  O12  1  0.13052100  0.52891300  0.58827000  1
  O  O13  1  0.36947900  0.02891300  0.91173000  1
  O  O14  1  0.86947900  0.47108700  0.08827000  1
  O  O15  1  0.63052100  0.97108700  0.41173000  1
  O  O16  1  0.86947900  0.47108700  0.41173000  1
  O  O17  1  0.63052100  0.97108700  0.08827000  1
  O  O18  1  0.13052100  0.52891300  0.91173000  1
  O  O19  1  0.36947900  0.02891300  0.58827000  1
  O  O20  1  0.25075500  0.75250300  0.58352700  1
  O  O21  1  0.24924500  0.25250300  0.91647300  1
  O  O22  1  0.74924500  0.24749700  0.08352700  1
  O  O23  1  0.75075500  0.74749700  0.41647300  1
  O  O24  1  0.74924500  0.24749700  0.41647300  1
  O  O25  1  0.75075500  0.74749700  0.08352700  1
  O  O26  1  0.25075500  0.75250300  0.91647300  1
  O  O27  1  0.24924500  0.25250300  0.58352700  1
  O  O28  1  0.49301200  0.75863100  0.09167900  1
  O  O29  1  0.00698800  0.25863100  0.40832100  1
  O  O30  1  0.50698800  0.24136900  0.59167900  1
  O  O31  1  0.99301200  0.74136900  0.90832100  1
  O  O32  1  0.50698800  0.24136900  0.90832100  1
  O  O33  1  0.99301200  0.74136900  0.59167900  1
  O  O34  1  0.49301200  0.75863100  0.40832100  1
  O  O35  1  0.00698800  0.25863100  0.09167900  1
  O  O36  1  0.89587400  0.02011500  0.25000000  1
  O  O37  1  0.60412600  0.52011500  0.25000000  1
  O  O38  1  0.10412600  0.97988500  0.75000000  1
  O  O39  1  0.39587400  0.47988500  0.75000000  1
  O  O40  1  0.11911000  0.99080500  0.08334600  1
  O  O41  1  0.38089000  0.49080500  0.41665400  1
  O  O42  1  0.88089000  0.00919500  0.58334600  1
  O  O43  1  0.61911000  0.50919500  0.91665400  1
  O  O44  1  0.88089000  0.00919500  0.91665400  1
  O  O45  1  0.61911000  0.50919500  0.58334600  1
  O  O46  1  0.11911000  0.99080500  0.41665400  1
  O  O47  1  0.38089000  0.49080500  0.08334600  1
loop_
_geom_bond_atom_site_label_1
_geom_bond_atom_site_label_2
_geom_bond_distance
_geom_bond_site_symmetry_2
Mg0 O20 2.055247 1_555
Mg0 O41 2.095133 1_555
Mg0 O45 2.117691 1_555
Mg0 O39 2.121913 1_555
Mg0 O7 2.161448 1_555
Mg0 O34 2.192978 1_555
Mg1 O21 2.055247 1_555
Mg1 O40 2.095133 1_546
Mg1 O44 2.117691 1_455
Mg1 O38 2.121913 1_545
Mg1 O6 2.161448 1_555
Mg1 O35 2.192978 1_556
Mg2 O22 2.055247 1_555
Mg2 O43 2.095133 1_554
Mg2 O47 2.117691 1_555
Mg2 O37 2.121913 1_555
Mg2 O5 2.161448 1_555
Mg2 O32 2.192978 1_554
Mg3 O23 2.055247 1_555
Mg3 O42 2.095133 1_565
Mg3 O46 2.117691 1_655
Mg3 O36 2.121913 1_565
Mg3 O4 2.161448 1_555
Mg3 O33 2.192978 1_555
Mg4 O24 2.055247 1_555
Mg4 O45 2.095133 1_555
Mg4 O41 2.117691 1_555
Mg4 O37 2.121913 1_555
Mg4 O5 2.161448 1_555
Mg4 O30 2.192978 1_555
Mg5 O25 2.055247 1_555
Mg5 O44 2.095133 1_564
Mg5 O40 2.117691 1_655
Mg5 O36 2.121913 1_565
Mg5 O4 2.161448 1_555
Mg5 O31 2.192978 1_554
Mg6 O26 2.055247 1_555
Mg6 O47 2.095133 1_556
Mg6 O43 2.117691 1_555
Mg6 O39 2.121913 1_555
Mg6 O7 2.161448 1_555
Mg6 O28 2.192978 1_556
Mg7 O27 2.055247 1_555
Mg7 O46 2.095133 1_545
Mg7 O42 2.117691 1_455
Mg7 O38 2.121913 1_545
Mg7 O6 2.161448 1_555
Mg7 O29 2.192978 1_555
Mg8 O13 2.031540 1_564
Mg8 O40 2.086376 1_555
Mg8 O1 2.102442 1_565
Mg8 O28 2.117808 1_555
Mg8 O26 2.183503 1_554
Mg8 O8 2.220896 1_555
Mg9 O12 2.031540 1_555
Mg9 O41 2.086376 1_555
Mg9 O0 2.102442 1_555
Mg9 O29 2.117808 1_555
Mg9 O27 2.183503 1_555
Mg9 O9 2.220896 1_555
Mg10 O15 2.031540 1_545
Mg10 O42 2.086376 1_555
Mg10 O3 2.102442 1_545
Mg10 O30 2.117808 1_555
Mg10 O24 2.183503 1_555
Mg10 O10 2.220896 1_555
Mg11 O14 2.031540 1_556
Mg11 O43 2.086376 1_555
Mg11 O2 2.102442 1_555
Mg11 O31 2.117808 1_555
Mg11 O25 2.183503 1_556
Mg11 O11 2.220896 1_555
Mg12 O17 2.031540 1_546
Mg12 O44 2.086376 1_555
Mg12 O3 2.102442 1_545
Mg12 O32 2.117808 1_555
Mg12 O22 2.183503 1_556
Mg12 O10 2.220896 1_555
Mg13 O16 2.031540 1_555
Mg13 O45 2.086376 1_555
Mg13 O2 2.102442 1_555
Mg13 O33 2.117808 1_555
Mg13 O23 2.183503 1_555
Mg13 O11 2.220896 1_555
Mg14 O19 2.031540 1_565
Mg14 O46 2.086376 1_555
Mg14 O1 2.102442 1_565
Mg14 O34 2.117808 1_555
Mg14 O20 2.183503 1_555
Mg14 O8 2.220896 1_555
Mg15 O18 2.031540 1_554
Mg15 O47 2.086376 1_555
Mg15 O0 2.102442 1_555
Mg15 O35 2.117808 1_555
Mg15 O21 2.183503 1_554
Mg15 O9 2.220896 1_555
Mg16 O14 2.061440 1_555
Mg16 O16 2.061440 1_555
Mg16 O37 2.077201 1_555
Mg16 O23 2.178740 1_555
Mg16 O25 2.178740 1_555
Mg16 O4 2.187522 1_555
Mg17 O15 2.061440 1_545
Mg17 O17 2.061440 1_545
Mg17 O36 2.077201 1_555
Mg17 O24 2.178740 1_555
Mg17 O22 2.178740 1_555
Mg17 O5 2.187522 1_555
Mg18 O12 2.061440 1_555
Mg18 O18 2.061440 1_555
Mg18 O39 2.077201 1_555
Mg18 O21 2.178740 1_555
Mg18 O27 2.178740 1_555
Mg18 O6 2.187522 1_555
Mg19 O19 2.061440 1_565
Mg19 O13 2.061440 1_565
Mg19 O38 2.077201 1_555
Mg19 O20 2.178740 1_555
Mg19 O26 2.178740 1_555
Mg19 O7 2.187522 1_555
Nb0 O47 1.911600 1_555
Nb0 O41 1.911600 1_555
Nb0 O37 1.949488 1_555
Nb0 O8 2.152861 1_555
Nb0 O34 2.279598 1_555
Nb0 O28 2.279598 1_555
Nb0 O0 2.454716 1_555
Nb1 O40 1.911600 1_545
Nb1 O46 1.911600 1_545
Nb1 O36 1.949488 1_455
Nb1 O9 2.152861 1_555
Nb1 O35 2.279598 1_555
Nb1 O29 2.279598 1_555
Nb1 O1 2.454716 1_555
Nb2 O45 1.911600 1_555
Nb2 O43 1.911600 1_555
Nb2 O39 1.949488 1_555
Nb2 O10 2.152861 1_555
Nb2 O32 2.279598 1_555
Nb2 O30 2.279598 1_555
Nb2 O2 2.454716 1_555
Nb3 O44 1.911600 1_565
Nb3 O42 1.911600 1_565
Nb3 O38 1.949488 1_655
Nb3 O11 2.152861 1_555
Nb3 O33 2.279598 1_555
Nb3 O31 2.279598 1_555
Nb3 O3 2.454716 1_555
B0 O4 1.361978 1_455
B0 O0 1.378155 1_555
B0 O8 1.420220 1_555
B1 O5 1.361978 1_555
B1 O1 1.378155 1_555
B1 O9 1.420220 1_555
B2 O6 1.361978 1_655
B2 O2 1.378155 1_555
B2 O10 1.420220 1_555
B3 O7 1.361978 1_555
B3 O3 1.378155 1_555
B3 O11 1.420220 1_555
B4 O12 1.366582 1_555
B4 O20 1.393202 1_555
B4 O33 1.416060 1_455
B5 O13 1.366582 1_555
B5 O21 1.393202 1_555
B5 O32 1.416060 1_555
B6 O14 1.366582 1_555
B6 O22 1.393202 1_555
B6 O35 1.416060 1_655
B7 O15 1.366582 1_555
B7 O23 1.393202 1_555
B7 O34 1.416060 1_555
B8 O16 1.366582 1_555
B8 O24 1.393202 1_555
B8 O29 1.416060 1_655
B9 O17 1.366582 1_555
B9 O25 1.393202 1_555
B9 O28 1.416060 1_555
B10 O18 1.366582 1_555
B10 O26 1.393202 1_555
B10 O31 1.416060 1_455
B11 O19 1.366582 1_555
B11 O27 1.393202 1_555
B11 O30 1.416060 1_555
