# generated using pymatgen
data_Sb8Pd3Au
_symmetry_space_group_name_H-M   'P 1'
_cell_length_a   6.56776552
_cell_length_b   6.56776552
_cell_length_c   6.56776495
_cell_angle_alpha   89.84641990
_cell_angle_beta   89.84641985
_cell_angle_gamma   89.84641832
_symmetry_Int_Tables_number   1
_chemical_formula_structural   Sb8Pd3Au
_chemical_formula_sum   'Sb8 Pd3 Au1'
_cell_volume   283.30106574
_cell_formula_units_Z   1
loop_
 _symmetry_equiv_pos_site_id
 _symmetry_equiv_pos_as_xyz
  1  'x, y, z'
loop_
 _atom_site_type_symbol
 _atom_site_label
 _atom_site_symmetry_multiplicity
 _atom_site_fract_x
 _atom_site_fract_y
 _atom_site_fract_z
 _atom_site_occupancy
  Sb  Sb0  1  0.87444188  0.87444188  0.87444188  1
  Sb  Sb1  1  0.11739493  0.37053706  0.62916083  1
  Sb  Sb2  1  0.62916083  0.11739493  0.37053706  1
  Sb  Sb3  1  0.37053706  0.62916083  0.11739493  1
  Sb  Sb4  1  0.12555812  0.12555812  0.12555812  1
  Sb  Sb5  1  0.88260507  0.62946294  0.37083917  1
  Sb  Sb6  1  0.37083917  0.88260507  0.62946294  1
  Sb  Sb7  1  0.62946294  0.37083917  0.88260507  1
  Pd  Pd0  1  0.50000000  -0.00000000  -0.00000000  1
  Pd  Pd1  1  0.00000000  0.50000000  -0.00000000  1
  Pd  Pd2  1  0.00000000  -0.00000000  0.50000000  1
  Au  Au0  1  0.50000000  0.50000000  0.50000000  1
loop_
_geom_bond_atom_site_label_1
_geom_bond_atom_site_label_2
_geom_bond_distance
_geom_bond_site_symmetry_2
Sb0 Sb4 2.864271 1_666
Sb1 Sb5 2.851799 1_455
Sb2 Sb6 2.851799 1_545
Sb3 Sb7 2.851799 1_554
Pd0 Sb7 2.692034 1_554
Pd0 Sb3 2.692034 1_545
Pd0 Sb6 2.694648 1_544
Pd0 Sb2 2.694648 1_555
Pd0 Sb4 2.718427 1_555
Pd0 Sb0 2.718427 1_544
Pd1 Sb1 2.692034 1_554
Pd1 Sb5 2.692034 1_455
Pd1 Sb3 2.694648 1_555
Pd1 Sb7 2.694648 1_454
Pd1 Sb0 2.718427 1_454
Pd1 Sb4 2.718427 1_555
Pd2 Sb2 2.692034 1_455
Pd2 Sb6 2.692034 1_545
Pd2 Sb5 2.694648 1_445
Pd2 Sb1 2.694648 1_555
Pd2 Sb4 2.718427 1_555
Pd2 Sb0 2.718427 1_445
Au0 Sb3 2.784460 1_555
Au0 Sb7 2.784460 1_555
Au0 Sb6 2.784460 1_555
Au0 Sb2 2.784460 1_555
Au0 Sb1 2.784460 1_555
Au0 Sb5 2.784460 1_555
