# generated using pymatgen
data_Ni8Bi8SI
_symmetry_space_group_name_H-M   'P 1'
_cell_length_a   9.84904900
_cell_length_b   9.84904900
_cell_length_c   4.21037100
_cell_angle_alpha   90.00000000
_cell_angle_beta   90.00000000
_cell_angle_gamma   90.00000000
_symmetry_Int_Tables_number   1
_chemical_formula_structural   Ni8Bi8SI
_chemical_formula_sum   'Ni8 Bi8 S1 I1'
_cell_volume   408.42184412
_cell_formula_units_Z   1
loop_
 _symmetry_equiv_pos_site_id
 _symmetry_equiv_pos_as_xyz
  1  'x, y, z'
loop_
 _atom_site_type_symbol
 _atom_site_label
 _atom_site_symmetry_multiplicity
 _atom_site_fract_x
 _atom_site_fract_y
 _atom_site_fract_z
 _atom_site_occupancy
  Ni  Ni0  1  0.08803400  0.82034700  0.50140400  1
  Ni  Ni1  1  0.91196600  0.17965300  0.50140400  1
  Ni  Ni2  1  0.82034700  0.91196600  0.50140400  1
  Ni  Ni3  1  0.17965300  0.08803400  0.50140400  1
  Ni  Ni4  1  0.18957700  0.93800200  0.00130100  1
  Ni  Ni5  1  0.81042300  0.06199800  0.00130100  1
  Ni  Ni6  1  0.93800200  0.81042300  0.00130100  1
  Ni  Ni7  1  0.06199800  0.18957700  0.00130100  1
  Bi  Bi0  1  0.35655200  0.87804700  0.50254300  1
  Bi  Bi1  1  0.64344800  0.12195300  0.50254300  1
  Bi  Bi2  1  0.87804700  0.64344800  0.50254300  1
  Bi  Bi3  1  0.12195300  0.35655200  0.50254300  1
  Bi  Bi4  1  0.17128500  0.66330600  0.00022000  1
  Bi  Bi5  1  0.82871500  0.33669400  0.00022000  1
  Bi  Bi6  1  0.66330600  0.82871500  0.00022000  1
  Bi  Bi7  1  0.33669400  0.17128500  0.00022000  1
  S  S0  1  0.00000000  0.00000000  0.25225300  1
  I  I0  1  0.50000000  0.50000000  0.51527500  1
loop_
_geom_bond_atom_site_label_1
_geom_bond_atom_site_label_2
_geom_bond_distance
_geom_bond_site_symmetry_2
Ni0 S0 2.232271 1_565
Ni1 S0 2.232271 1_655
Ni2 S0 2.232271 1_665
Ni3 S0 2.232271 1_555
Ni4 S0 2.230589 1_565
Ni5 S0 2.230589 1_655
Ni6 S0 2.230589 1_665
Ni7 S0 2.230589 1_555
Bi0 Ni3 2.704242 1_565
Bi0 Ni0 2.705020 1_555
Bi0 Ni4 2.731855 1_556
Bi0 Ni4 2.739903 1_555
Bi1 Ni2 2.704242 1_545
Bi1 Ni1 2.705020 1_555
Bi1 Ni5 2.731855 1_556
Bi1 Ni5 2.739903 1_555
Bi2 Ni0 2.704242 1_655
Bi2 Ni2 2.705020 1_555
Bi2 Ni6 2.731855 1_556
Bi2 Ni6 2.739903 1_555
Bi3 Ni1 2.704242 1_455
Bi3 Ni3 2.705020 1_555
Bi3 Ni7 2.731855 1_556
Bi3 Ni7 2.739903 1_555
Bi4 Ni4 2.711490 1_555
Bi4 Ni6 2.716349 1_455
Bi4 Ni0 2.734126 1_554
Bi4 Ni0 2.741792 1_555
Bi5 Ni5 2.711490 1_555
Bi5 Ni7 2.716349 1_655
Bi5 Ni1 2.734126 1_554
Bi5 Ni1 2.741792 1_555
Bi6 Ni6 2.711490 1_555
Bi6 Ni5 2.716349 1_565
Bi6 Ni2 2.734126 1_554
Bi6 Ni2 2.741792 1_555
Bi7 Ni7 2.711490 1_555
Bi7 Ni4 2.716349 1_545
Bi7 Ni3 2.734126 1_554
Bi7 Ni3 2.741792 1_555
