# generated using pymatgen
data_Li2Fe3S4
_symmetry_space_group_name_H-M   'P 1'
_cell_length_a   6.75945308
_cell_length_b   6.75945308
_cell_length_c   5.94017505
_cell_angle_alpha   88.13490978
_cell_angle_beta   88.13490978
_cell_angle_gamma   89.28665941
_symmetry_Int_Tables_number   1
_chemical_formula_structural   Li2Fe3S4
_chemical_formula_sum   'Li4 Fe6 S8'
_cell_volume   271.10270464
_cell_formula_units_Z   2
loop_
 _symmetry_equiv_pos_site_id
 _symmetry_equiv_pos_as_xyz
  1  'x, y, z'
loop_
 _atom_site_type_symbol
 _atom_site_label
 _atom_site_symmetry_multiplicity
 _atom_site_fract_x
 _atom_site_fract_y
 _atom_site_fract_z
 _atom_site_occupancy
  Li  Li0  1  0.27003500  0.48456700  0.61076200  1
  Li  Li1  1  0.48456700  0.27003500  0.11076200  1
  Li  Li2  1  0.51543300  0.72996500  0.88923800  1
  Li  Li3  1  0.72996500  0.51543300  0.38923800  1
  Fe  Fe0  1  0.00247500  0.78329000  0.91866600  1
  Fe  Fe1  1  0.78329000  0.00247500  0.41866600  1
  Fe  Fe2  1  0.78636800  0.21363200  0.75000000  1
  Fe  Fe3  1  0.21363200  0.78636800  0.25000000  1
  Fe  Fe4  1  0.21671000  0.99752500  0.58133400  1
  Fe  Fe5  1  0.99752500  0.21671000  0.08133400  1
  S  S0  1  0.22362000  0.52080800  0.02534100  1
  S  S1  1  0.52080800  0.22362000  0.52534100  1
  S  S2  1  0.74702300  0.98630500  0.03172400  1
  S  S3  1  0.98630500  0.74702300  0.53172400  1
  S  S4  1  0.01369500  0.25297700  0.46827600  1
  S  S5  1  0.25297700  0.01369500  0.96827600  1
  S  S6  1  0.47919200  0.77638000  0.47465900  1
  S  S7  1  0.77638000  0.47919200  0.97465900  1
loop_
_geom_bond_atom_site_label_1
_geom_bond_atom_site_label_2
_geom_bond_distance
_geom_bond_site_symmetry_2
Li0 S1 2.483912 1_555
Li0 S0 2.492039 1_556
Li0 S4 2.533472 1_555
Li0 S6 2.536612 1_555
Li0 S3 2.639238 1_455
Li1 S0 2.483912 1_555
Li1 S1 2.492039 1_555
Li1 S5 2.533472 1_554
Li1 S7 2.536612 1_554
Li1 S2 2.639238 1_545
Li2 S7 2.483912 1_555
Li2 S6 2.492039 1_555
Li2 S2 2.533472 1_556
Li2 S0 2.536612 1_556
Li2 S5 2.639238 1_565
Li3 S6 2.483912 1_555
Li3 S7 2.492039 1_554
Li3 S3 2.533472 1_555
Li3 S1 2.536612 1_555
Li3 S4 2.639238 1_655
Fe0 S2 2.289368 1_456
Fe0 S3 2.325695 1_455
Fe0 S5 2.346809 1_565
Fe0 S0 2.388800 1_556
Fe0 S7 2.583045 1_455
Fe1 S3 2.289368 1_545
Fe1 S2 2.325695 1_545
Fe1 S4 2.346809 1_655
Fe1 S1 2.388800 1_555
Fe1 S6 2.583045 1_545
Fe2 S2 2.246392 1_546
Fe2 S4 2.246392 1_655
Fe2 S7 2.270397 1_555
Fe2 S1 2.270397 1_555
Fe3 S3 2.246392 1_455
Fe3 S5 2.246392 1_564
Fe3 S6 2.270397 1_555
Fe3 S0 2.270397 1_555
Fe4 S4 2.289368 1_565
Fe4 S5 2.325695 1_565
Fe4 S3 2.346809 1_455
Fe4 S6 2.388800 1_555
Fe4 S1 2.583045 1_565
Fe5 S5 2.289368 1_654
Fe5 S4 2.325695 1_655
Fe5 S2 2.346809 1_545
Fe5 S7 2.388800 1_554
Fe5 S0 2.583045 1_655
