# generated using pymatgen
data_MgGe5
_symmetry_space_group_name_H-M   'P 1'
_cell_length_a   15.81447851
_cell_length_b   15.81447851
_cell_length_c   10.01453000
_cell_angle_alpha   90.00000000
_cell_angle_beta   90.00000000
_cell_angle_gamma   158.41219918
_symmetry_Int_Tables_number   1
_chemical_formula_structural   MgGe5
_chemical_formula_sum   'Mg8 Ge40'
_cell_volume   921.51304286
_cell_formula_units_Z   8
loop_
 _symmetry_equiv_pos_site_id
 _symmetry_equiv_pos_as_xyz
  1  'x, y, z'
loop_
 _atom_site_type_symbol
 _atom_site_label
 _atom_site_symmetry_multiplicity
 _atom_site_fract_x
 _atom_site_fract_y
 _atom_site_fract_z
 _atom_site_occupancy
  Mg  Mg0_0  1  0.38975100  0.11024900  0.00000000  1
  Mg  Mg0_1  1  0.38975100  0.11024900  0.50000000  1
  Mg  Mg0_2  1  0.38975100  0.61024900  0.00000000  1
  Mg  Mg0_3  1  0.38975100  0.61024900  0.50000000  1
  Mg  Mg0_4  1  0.88975100  0.11024900  0.00000000  1
  Mg  Mg0_5  1  0.88975100  0.11024900  0.50000000  1
  Mg  Mg0_6  1  0.88975100  0.61024900  0.00000000  1
  Mg  Mg0_7  1  0.88975100  0.61024900  0.50000000  1
  Ge  Ge0_0  1  0.16513350  0.33486650  0.25000000  1
  Ge  Ge0_1  1  0.16513350  0.33486650  0.75000000  1
  Ge  Ge0_2  1  0.16513350  0.83486650  0.25000000  1
  Ge  Ge0_3  1  0.16513350  0.83486650  0.75000000  1
  Ge  Ge0_4  1  0.66513350  0.33486650  0.25000000  1
  Ge  Ge0_5  1  0.66513350  0.33486650  0.75000000  1
  Ge  Ge0_6  1  0.66513350  0.83486650  0.25000000  1
  Ge  Ge0_7  1  0.66513350  0.83486650  0.75000000  1
  Ge  Ge1_0  1  0.33168550  0.16831450  0.25000000  1
  Ge  Ge1_1  1  0.33168550  0.16831450  0.75000000  1
  Ge  Ge1_2  1  0.33168550  0.66831450  0.25000000  1
  Ge  Ge1_3  1  0.33168550  0.66831450  0.75000000  1
  Ge  Ge1_4  1  0.83168550  0.16831450  0.25000000  1
  Ge  Ge1_5  1  0.83168550  0.16831450  0.75000000  1
  Ge  Ge1_6  1  0.83168550  0.66831450  0.25000000  1
  Ge  Ge1_7  1  0.83168550  0.66831450  0.75000000  1
  Ge  Ge2_0  1  0.49938450  0.00061550  0.25000000  1
  Ge  Ge2_1  1  0.49938450  0.00061550  0.75000000  1
  Ge  Ge2_2  1  0.49938450  0.50061550  0.25000000  1
  Ge  Ge2_3  1  0.49938450  0.50061550  0.75000000  1
  Ge  Ge2_4  1  0.99938450  0.00061550  0.25000000  1
  Ge  Ge2_5  1  0.99938450  0.00061550  0.75000000  1
  Ge  Ge2_6  1  0.99938450  0.50061550  0.25000000  1
  Ge  Ge2_7  1  0.99938450  0.50061550  0.75000000  1
  Ge  Ge3_0  1  0.22380700  0.27619300  0.00000000  1
  Ge  Ge3_1  1  0.22380700  0.27619300  0.50000000  1
  Ge  Ge3_2  1  0.22380700  0.77619300  0.00000000  1
  Ge  Ge3_3  1  0.22380700  0.77619300  0.50000000  1
  Ge  Ge3_4  1  0.72380700  0.27619300  0.00000000  1
  Ge  Ge3_5  1  0.72380700  0.27619300  0.50000000  1
  Ge  Ge3_6  1  0.72380700  0.77619300  0.00000000  1
  Ge  Ge3_7  1  0.72380700  0.77619300  0.50000000  1
  Ge  Ge4_0  1  0.05690750  0.44309250  0.00000000  1
  Ge  Ge4_1  1  0.05690750  0.44309250  0.50000000  1
  Ge  Ge4_2  1  0.05690750  0.94309250  0.00000000  1
  Ge  Ge4_3  1  0.05690750  0.94309250  0.50000000  1
  Ge  Ge4_4  1  0.55690750  0.44309250  0.00000000  1
  Ge  Ge4_5  1  0.55690750  0.44309250  0.50000000  1
  Ge  Ge4_6  1  0.55690750  0.94309250  0.00000000  1
  Ge  Ge4_7  1  0.55690750  0.94309250  0.50000000  1
loop_
_geom_bond_atom_site_label_1
_geom_bond_atom_site_label_2
_geom_bond_distance
_geom_bond_site_symmetry_2
Mg0_0 Mg0_6 2.961684 1_445
Mg0_0 Mg0_6 2.961684 1_555
Mg0_1 Mg0_7 2.961684 1_555
Mg0_1 Mg0_7 2.961684 1_445
Mg0_2 Mg0_4 2.961684 1_455
Mg0_2 Mg0_4 2.961684 1_565
Mg0_3 Mg0_5 2.961684 1_455
Mg0_3 Mg0_5 2.961684 1_565
Ge0_0 Ge1_2 2.985776 1_555
Ge0_0 Ge1_4 2.985776 1_455
Ge0_0 Ge2_2 3.007465 1_555
Ge0_0 Ge2_4 3.007465 1_455
Ge0_0 Mg0_4 3.013799 1_455
Ge0_0 Mg0_3 3.013799 1_555
Ge0_0 Mg0_5 3.013799 1_455
Ge0_0 Mg0_2 3.013799 1_555
Ge0_1 Ge1_5 2.985776 1_455
Ge0_1 Ge1_3 2.985776 1_555
Ge0_1 Ge2_3 3.007465 1_555
Ge0_1 Ge2_5 3.007465 1_455
Ge0_1 Mg0_4 3.013799 1_456
Ge0_1 Mg0_2 3.013799 1_556
Ge0_1 Mg0_3 3.013799 1_555
Ge0_1 Mg0_5 3.013799 1_455
Ge0_2 Ge1_0 2.985776 1_565
Ge0_2 Ge1_6 2.985776 1_455
Ge0_2 Ge2_6 3.007465 1_455
Ge0_2 Ge2_0 3.007465 1_565
Ge0_2 Mg0_7 3.013799 1_455
Ge0_2 Mg0_6 3.013799 1_455
Ge0_2 Mg0_0 3.013799 1_565
Ge0_2 Mg0_1 3.013799 1_565
Ge0_3 Ge1_1 2.985776 1_565
Ge0_3 Ge1_7 2.985776 1_455
Ge0_3 Ge2_7 3.007465 1_455
Ge0_3 Ge2_1 3.007465 1_565
Ge0_3 Mg0_7 3.013799 1_455
Ge0_3 Mg0_6 3.013799 1_456
Ge0_3 Mg0_0 3.013799 1_566
Ge0_3 Mg0_1 3.013799 1_565
Ge0_4 Ge1_0 2.985776 1_555
Ge0_4 Ge1_6 2.985776 1_555
Ge0_4 Ge2_0 3.007465 1_555
Ge0_4 Ge2_6 3.007465 1_555
Ge0_4 Mg0_0 3.013799 1_555
Ge0_4 Mg0_6 3.013799 1_555
Ge0_4 Mg0_7 3.013799 1_555
Ge0_4 Mg0_1 3.013799 1_555
Ge0_5 Ge1_1 2.985776 1_555
Ge0_5 Ge1_7 2.985776 1_555
Ge0_5 Ge2_1 3.007465 1_555
Ge0_5 Ge2_7 3.007465 1_555
Ge0_5 Mg0_0 3.013799 1_556
Ge0_5 Mg0_7 3.013799 1_555
Ge0_5 Mg0_6 3.013799 1_556
Ge0_5 Mg0_1 3.013799 1_555
Ge0_6 Ge1_4 2.985776 1_565
Ge0_6 Ge1_2 2.985776 1_555
Ge0_6 Ge2_2 3.007465 1_555
Ge0_6 Ge2_4 3.007465 1_565
Ge0_6 Mg0_3 3.013799 1_555
Ge0_6 Mg0_2 3.013799 1_555
Ge0_6 Mg0_5 3.013799 1_565
Ge0_6 Mg0_4 3.013799 1_565
Ge0_7 Ge1_5 2.985776 1_565
Ge0_7 Ge1_3 2.985776 1_555
Ge0_7 Ge2_3 3.007465 1_555
Ge0_7 Ge2_5 3.007465 1_565
Ge0_7 Mg0_2 3.013799 1_556
Ge0_7 Mg0_3 3.013799 1_555
Ge0_7 Mg0_5 3.013799 1_565
Ge0_7 Mg0_4 3.013799 1_566
Ge1_0 Ge2_4 2.954884 1_455
Ge1_0 Ge2_2 2.954884 1_555
Ge1_0 Ge1_6 2.961684 1_445
Ge1_0 Ge1_6 2.961684 1_555
Ge1_0 Ge4_3 3.008939 1_545
Ge1_0 Ge4_5 3.008939 1_555
Ge1_0 Ge4_2 3.008939 1_545
Ge1_0 Ge4_4 3.008939 1_555
Ge1_0 Mg0_1 3.085903 1_555
Ge1_0 Mg0_0 3.085903 1_555
Ge1_1 Ge2_5 2.954884 1_455
Ge1_1 Ge2_3 2.954884 1_555
Ge1_1 Ge1_7 2.961684 1_555
Ge1_1 Ge1_7 2.961684 1_445
Ge1_1 Ge4_3 3.008939 1_545
Ge1_1 Ge4_5 3.008939 1_555
Ge1_1 Ge4_2 3.008939 1_546
Ge1_1 Ge4_4 3.008939 1_556
Ge1_1 Mg0_1 3.085903 1_555
Ge1_1 Mg0_0 3.085903 1_556
Ge1_2 Ge2_0 2.954884 1_565
Ge1_2 Ge2_6 2.954884 1_455
Ge1_2 Ge1_4 2.961684 1_565
Ge1_2 Ge1_4 2.961684 1_455
Ge1_2 Ge4_6 3.008939 1_555
Ge1_2 Ge4_7 3.008939 1_555
Ge1_2 Ge4_1 3.008939 1_555
Ge1_2 Ge4_0 3.008939 1_555
Ge1_2 Mg0_2 3.085903 1_555
Ge1_2 Mg0_3 3.085903 1_555
Ge1_3 Ge2_1 2.954884 1_565
Ge1_3 Ge2_7 2.954884 1_455
Ge1_3 Ge1_5 2.961684 1_565
Ge1_3 Ge1_5 2.961684 1_455
Ge1_3 Ge4_6 3.008939 1_556
Ge1_3 Ge4_7 3.008939 1_555
Ge1_3 Ge4_0 3.008939 1_556
Ge1_3 Ge4_1 3.008939 1_555
Ge1_3 Mg0_2 3.085903 1_556
Ge1_3 Mg0_3 3.085903 1_555
Ge1_4 Ge2_0 2.954884 1_555
Ge1_4 Ge2_6 2.954884 1_555
Ge1_4 Ge4_7 3.008939 1_545
Ge1_4 Ge4_6 3.008939 1_545
Ge1_4 Ge4_0 3.008939 1_655
Ge1_4 Ge4_1 3.008939 1_655
Ge1_4 Mg0_5 3.085903 1_555
Ge1_4 Mg0_4 3.085903 1_555
Ge1_5 Ge2_1 2.954884 1_555
Ge1_5 Ge2_7 2.954884 1_555
Ge1_5 Ge4_7 3.008939 1_545
Ge1_5 Ge4_6 3.008939 1_546
Ge1_5 Ge4_0 3.008939 1_656
Ge1_5 Ge4_1 3.008939 1_655
Ge1_5 Mg0_5 3.085903 1_555
Ge1_5 Mg0_4 3.085903 1_556
Ge1_6 Ge2_4 2.954884 1_565
Ge1_6 Ge2_2 2.954884 1_555
Ge1_6 Ge4_5 3.008939 1_555
Ge1_6 Ge4_4 3.008939 1_555
Ge1_6 Ge4_3 3.008939 1_655
Ge1_6 Ge4_2 3.008939 1_655
Ge1_6 Mg0_6 3.085903 1_555
Ge1_6 Mg0_7 3.085903 1_555
Ge1_7 Ge2_5 2.954884 1_565
Ge1_7 Ge2_3 2.954884 1_555
Ge1_7 Ge4_5 3.008939 1_555
Ge1_7 Ge4_4 3.008939 1_556
Ge1_7 Ge4_3 3.008939 1_655
Ge1_7 Ge4_2 3.008939 1_656
Ge1_7 Mg0_6 3.085903 1_556
Ge1_7 Mg0_7 3.085903 1_555
Ge2_0 Ge2_6 2.961684 1_555
Ge2_0 Ge2_6 2.961684 1_445
Ge2_0 Ge3_4 3.015390 1_555
Ge2_0 Ge3_5 3.015390 1_555
Ge2_0 Ge3_3 3.015390 1_545
Ge2_0 Ge3_2 3.015390 1_545
Ge2_0 Ge4_6 3.076080 1_545
Ge2_0 Ge4_7 3.076080 1_545
Ge2_1 Ge2_7 2.961684 1_445
Ge2_1 Ge2_7 2.961684 1_555
Ge2_1 Ge3_4 3.015390 1_556
Ge2_1 Ge3_5 3.015390 1_555
Ge2_1 Ge3_3 3.015390 1_545
Ge2_1 Ge3_2 3.015390 1_546
Ge2_1 Ge4_6 3.076080 1_546
Ge2_1 Ge4_7 3.076080 1_545
Ge2_2 Ge2_4 2.961684 1_565
Ge2_2 Ge2_4 2.961684 1_455
Ge2_2 Ge3_0 3.015390 1_555
Ge2_2 Ge3_6 3.015390 1_555
Ge2_2 Ge3_1 3.015390 1_555
Ge2_2 Ge3_7 3.015390 1_555
Ge2_2 Ge4_5 3.076080 1_555
Ge2_2 Ge4_4 3.076080 1_555
Ge2_3 Ge2_5 2.961684 1_565
Ge2_3 Ge2_5 2.961684 1_455
Ge2_3 Ge3_6 3.015390 1_556
Ge2_3 Ge3_0 3.015390 1_556
Ge2_3 Ge3_7 3.015390 1_555
Ge2_3 Ge3_1 3.015390 1_555
Ge2_3 Ge4_5 3.076080 1_555
Ge2_3 Ge4_4 3.076080 1_556
Ge2_4 Ge3_1 3.015390 1_655
Ge2_4 Ge3_7 3.015390 1_545
Ge2_4 Ge3_0 3.015390 1_655
Ge2_4 Ge3_6 3.015390 1_545
Ge2_4 Ge4_3 3.076080 1_645
Ge2_4 Ge4_2 3.076080 1_645
Ge2_5 Ge3_6 3.015390 1_546
Ge2_5 Ge3_1 3.015390 1_655
Ge2_5 Ge3_7 3.015390 1_545
Ge2_5 Ge3_0 3.015390 1_656
Ge2_5 Ge4_3 3.076080 1_645
Ge2_5 Ge4_2 3.076080 1_646
Ge2_6 Ge3_5 3.015390 1_555
Ge2_6 Ge3_4 3.015390 1_555
Ge2_6 Ge3_3 3.015390 1_655
Ge2_6 Ge3_2 3.015390 1_655
Ge2_6 Ge4_0 3.076080 1_655
Ge2_6 Ge4_1 3.076080 1_655
Ge2_7 Ge3_4 3.015390 1_556
Ge2_7 Ge3_5 3.015390 1_555
Ge2_7 Ge3_3 3.015390 1_655
Ge2_7 Ge3_2 3.015390 1_656
Ge2_7 Ge4_1 3.076080 1_655
Ge2_7 Ge4_0 3.076080 1_656
Ge3_0 Mg0_4 3.002194 1_455
Ge3_0 Mg0_2 3.002194 1_555
Ge3_1 Mg0_5 3.002194 1_455
Ge3_1 Mg0_3 3.002194 1_555
Ge3_2 Mg0_6 3.002194 1_455
Ge3_2 Mg0_0 3.002194 1_565
Ge3_3 Mg0_7 3.002194 1_455
Ge3_3 Mg0_1 3.002194 1_565
Ge3_4 Mg0_6 3.002194 1_555
Ge3_4 Mg0_0 3.002194 1_555
Ge3_5 Mg0_7 3.002194 1_555
Ge3_5 Mg0_1 3.002194 1_555
Ge3_6 Mg0_2 3.002194 1_555
Ge3_6 Mg0_4 3.002194 1_565
Ge3_7 Mg0_3 3.002194 1_555
Ge3_7 Mg0_5 3.002194 1_565
Ge4_0 Mg0_2 2.969482 1_555
Ge4_0 Mg0_4 2.969482 1_455
Ge4_1 Mg0_3 2.969482 1_555
Ge4_1 Mg0_5 2.969482 1_455
Ge4_2 Mg0_0 2.969482 1_565
Ge4_2 Mg0_6 2.969482 1_455
Ge4_3 Mg0_1 2.969482 1_565
Ge4_3 Mg0_7 2.969482 1_455
Ge4_4 Mg0_0 2.969482 1_555
Ge4_4 Mg0_6 2.969482 1_555
Ge4_5 Mg0_1 2.969482 1_555
Ge4_5 Mg0_7 2.969482 1_555
Ge4_6 Mg0_4 2.969482 1_565
Ge4_6 Mg0_2 2.969482 1_555
Ge4_7 Mg0_5 2.969482 1_565
Ge4_7 Mg0_3 2.969482 1_555
