# generated using pymatgen
data_Sm2HgO4
_symmetry_space_group_name_H-M   'P 1'
_cell_length_a   7.14443680
_cell_length_b   7.14443680
_cell_length_c   10.21425385
_cell_angle_alpha   59.42651696
_cell_angle_beta   59.42651696
_cell_angle_gamma   30.33566282
_symmetry_Int_Tables_number   1
_chemical_formula_structural   Sm2HgO4
_chemical_formula_sum   'Sm4 Hg2 O8'
_cell_volume   223.78931855
_cell_formula_units_Z   2
loop_
 _symmetry_equiv_pos_site_id
 _symmetry_equiv_pos_as_xyz
  1  'x, y, z'
loop_
 _atom_site_type_symbol
 _atom_site_label
 _atom_site_symmetry_multiplicity
 _atom_site_fract_x
 _atom_site_fract_y
 _atom_site_fract_z
 _atom_site_occupancy
  Sm  Sm0  1  0.61934396  0.61934396  0.53999566  1
  Sm  Sm1  1  0.38065604  0.38065604  0.46000434  1
  Sm  Sm2  1  0.83999617  0.83999617  0.79974019  1
  Sm  Sm3  1  0.16000383  0.16000383  0.20025981  1
  Hg  Hg0  1  0.88592687  0.88592687  0.16162041  1
  Hg  Hg1  1  0.11407313  0.11407313  0.83837959  1
  O  O0  1  0.96427076  0.96427076  0.28010969  1
  O  O1  1  0.03572924  0.03572924  0.71989031  1
  O  O2  1  0.58148789  0.58148789  0.34666233  1
  O  O3  1  0.41851211  0.41851211  0.65333767  1
  O  O4  1  0.79769377  0.79769377  0.05608494  1
  O  O5  1  0.20230623  0.20230623  0.94391506  1
  O  O6  1  0.76844091  0.76844091  0.61339340  1
  O  O7  1  0.23155909  0.23155909  0.38660660  1
loop_
_geom_bond_atom_site_label_1
_geom_bond_atom_site_label_2
_geom_bond_distance
_geom_bond_site_symmetry_2
Hg0 O0 2.002600 1_555
Hg0 O4 2.006298 1_555
Hg1 O1 2.002600 1_555
Hg1 O5 2.006298 1_555
O0 Sm3 2.373039 1_665
O0 Sm1 2.442776 1_565
O0 Sm1 2.442776 1_655
O1 Sm2 2.373039 1_445
O1 Sm0 2.442776 1_455
O1 Sm0 2.442776 1_545
O2 Sm3 2.279557 1_655
O2 Sm3 2.279557 1_565
O2 Sm0 2.293224 1_555
O2 Sm1 2.373147 1_555
O3 Sm2 2.279557 1_455
O3 Sm2 2.279557 1_545
O3 Sm1 2.293224 1_555
O3 Sm0 2.373147 1_555
O4 Sm2 2.363509 1_554
O4 Sm3 2.514246 1_655
O4 Sm3 2.514246 1_565
O5 Sm3 2.363509 1_556
O5 Sm2 2.514246 1_545
O5 Sm2 2.514246 1_455
O6 Sm1 2.405921 1_655
O6 Sm1 2.405921 1_565
O6 Sm0 2.532756 1_555
O6 Sm2 2.564466 1_555
O7 Sm0 2.405921 1_455
O7 Sm0 2.405921 1_545
O7 Sm1 2.532756 1_555
O7 Sm3 2.564466 1_555
