# generated using pymatgen
data_K2Pt(N2O5)2
_symmetry_space_group_name_H-M   'P 1'
_cell_length_a   6.83844200
_cell_length_b   7.09887487
_cell_length_c   7.28532827
_cell_angle_alpha   118.90483863
_cell_angle_beta   102.50112263
_cell_angle_gamma   93.82945114
_symmetry_Int_Tables_number   1
_chemical_formula_structural   K2Pt(N2O5)2
_chemical_formula_sum   'K2 Pt1 N4 O10'
_cell_volume   296.12733876
_cell_formula_units_Z   1
loop_
 _symmetry_equiv_pos_site_id
 _symmetry_equiv_pos_as_xyz
  1  'x, y, z'
loop_
 _atom_site_type_symbol
 _atom_site_label
 _atom_site_symmetry_multiplicity
 _atom_site_fract_x
 _atom_site_fract_y
 _atom_site_fract_z
 _atom_site_occupancy
  K  K0  1  0.88747000  0.66201100  0.15958800  1
  K  K1  1  0.11253000  0.33798900  0.84041200  1
  Pt  Pt0  1  0.50000000  0.00000000  0.50000000  1
  N  N0  1  0.31503200  0.82353400  0.37646800  1
  N  N1  1  0.68496800  0.17646600  0.62353200  1
  N  N2  1  0.75480200  0.82891000  0.54282500  1
  N  N3  1  0.24519800  0.17109000  0.45717500  1
  O  O0  1  0.22502800  0.91429200  0.17595300  1
  O  O1  1  0.77497200  0.08570800  0.82404700  1
  O  O2  1  0.28631000  0.63197500  0.49800300  1
  O  O3  1  0.71369000  0.36802500  0.50199700  1
  O  O4  1  0.80378400  0.85823200  0.37993300  1
  O  O5  1  0.19621600  0.14176800  0.62006700  1
  O  O6  1  0.85907600  0.69751600  0.73254000  1
  O  O7  1  0.14092400  0.30248400  0.26746000  1
  O  O8  1  0.54824600  0.40875600  0.04795900  1
  O  O9  1  0.45175400  0.59124400  0.95204100  1
loop_
_geom_bond_atom_site_label_1
_geom_bond_atom_site_label_2
_geom_bond_distance
_geom_bond_site_symmetry_2
K0 O4 1.785300 1_555
K0 O8 2.547086 1_555
K0 O0 2.769908 1_655
K0 N0 2.856747 1_655
K0 O9 2.920975 1_554
K0 O6 3.206832 1_554
K1 O5 1.785300 1_555
K1 O9 2.547086 1_555
K1 O1 2.769908 1_455
K1 N1 2.856747 1_455
K1 O8 2.920975 1_556
K1 O7 3.206832 1_556
N0 Pt0 1.478120 1_565
N0 O0 1.871224 1_555
N0 O2 1.968586 1_555
N1 Pt0 1.478120 1_555
N1 O1 1.871224 1_555
N1 O3 1.968586 1_555
N2 O4 1.401929 1_555
N2 O1 1.942504 1_565
N2 O6 2.048717 1_555
N2 Pt0 2.241035 1_565
N3 O5 1.401929 1_555
N3 O0 1.942504 1_545
N3 O7 2.048717 1_555
N3 Pt0 2.241035 1_555
O8 O9 1.841636 1_554
