# generated using pymatgen
data_Y2InNi2
_symmetry_space_group_name_H-M   'P 1'
_cell_length_a   3.65064423
_cell_length_b   7.33768220
_cell_length_c   7.33768220
_cell_angle_alpha   90.00000000
_cell_angle_beta   90.00000000
_cell_angle_gamma   90.00000000
_symmetry_Int_Tables_number   1
_chemical_formula_structural   Y2InNi2
_chemical_formula_sum   'Y4 In2 Ni4'
_cell_volume   196.55645361
_cell_formula_units_Z   2
loop_
 _symmetry_equiv_pos_site_id
 _symmetry_equiv_pos_as_xyz
  1  'x, y, z'
loop_
 _atom_site_type_symbol
 _atom_site_label
 _atom_site_symmetry_multiplicity
 _atom_site_fract_x
 _atom_site_fract_y
 _atom_site_fract_z
 _atom_site_occupancy
  Y  Y0  1  0.50000000  0.17715046  0.67715046  1
  Y  Y1  1  0.50000000  0.82284954  0.32284954  1
  Y  Y2  1  0.50000000  0.32284954  0.17715046  1
  Y  Y3  1  0.50000000  0.67715046  0.82284954  1
  In  In0  1  -0.00000000  0.50000000  0.50000000  1
  In  In1  1  -0.00000000  0.00000000  -0.00000000  1
  Ni  Ni0  1  -0.00000000  0.61703430  0.11703430  1
  Ni  Ni1  1  0.00000000  0.38296570  0.88296570  1
  Ni  Ni2  1  -0.00000000  0.88296570  0.61703430  1
  Ni  Ni3  1  0.00000000  0.11703430  0.38296570  1
loop_
_geom_bond_atom_site_label_1
_geom_bond_atom_site_label_2
_geom_bond_distance
_geom_bond_site_symmetry_2
In0 Ni2 2.938371 1_555
In0 Ni0 2.938371 1_555
In0 Ni1 2.938371 1_555
In0 Ni3 2.938371 1_555
In0 Y0 3.260902 1_455
In0 Y2 3.260902 1_555
In0 Y1 3.260902 1_455
In0 Y0 3.260902 1_555
In0 Y3 3.260902 1_555
In0 Y2 3.260902 1_455
In0 Y3 3.260902 1_455
In0 Y1 3.260902 1_555
In1 Ni3 2.938371 1_555
In1 Ni1 2.938371 1_554
In1 Ni2 2.938371 1_544
In1 Ni0 2.938371 1_545
In1 Y2 3.260902 1_555
In1 Y2 3.260902 1_455
In1 Y0 3.260902 1_454
In1 Y3 3.260902 1_444
In1 Y1 3.260902 1_445
In1 Y3 3.260902 1_544
In1 Y1 3.260902 1_545
In1 Y0 3.260902 1_554
Ni0 Ni1 2.428941 1_554
Ni0 Y1 2.809493 1_555
Ni0 Y1 2.809493 1_455
Ni0 Y2 2.861133 1_455
Ni0 Y2 2.861133 1_555
Ni0 Y3 2.861133 1_554
Ni0 Y3 2.861133 1_454
Ni1 Y0 2.809493 1_455
Ni1 Y0 2.809493 1_555
Ni1 Y2 2.861133 1_456
Ni1 Y2 2.861133 1_556
Ni1 Y3 2.861133 1_455
Ni1 Y3 2.861133 1_555
Ni2 Ni3 2.428941 1_565
Ni2 Y3 2.809493 1_555
Ni2 Y3 2.809493 1_455
Ni2 Y1 2.861133 1_555
Ni2 Y1 2.861133 1_455
Ni2 Y0 2.861133 1_465
Ni2 Y0 2.861133 1_565
Ni3 Y2 2.809493 1_555
Ni3 Y2 2.809493 1_455
Ni3 Y1 2.861133 1_445
Ni3 Y1 2.861133 1_545
Ni3 Y0 2.861133 1_455
Ni3 Y0 2.861133 1_555
