# generated using pymatgen
data_Ba3V4CoO14
_symmetry_space_group_name_H-M   'P 1'
_cell_length_a   14.18988900
_cell_length_b   7.29494600
_cell_length_c   14.25666370
_cell_angle_alpha   71.09500311
_cell_angle_beta   90.00000000
_cell_angle_gamma   90.00000000
_symmetry_Int_Tables_number   1
_chemical_formula_structural   Ba3V4CoO14
_chemical_formula_sum   'Ba12 V16 Co4 O56'
_cell_volume   1396.16368280
_cell_formula_units_Z   4
loop_
 _symmetry_equiv_pos_site_id
 _symmetry_equiv_pos_as_xyz
  1  'x, y, z'
loop_
 _atom_site_type_symbol
 _atom_site_label
 _atom_site_symmetry_multiplicity
 _atom_site_fract_x
 _atom_site_fract_y
 _atom_site_fract_z
 _atom_site_occupancy
  Ba  Ba0  1  0.89394500  0.73021600  0.01472500  1
  Ba  Ba1  1  0.39394500  0.26978400  0.48527500  1
  Ba  Ba2  1  0.10605500  0.26978400  0.98527500  1
  Ba  Ba3  1  0.60605500  0.73021600  0.51472500  1
  Ba  Ba4  1  0.94451600  0.61040200  0.71723700  1
  Ba  Ba5  1  0.44451600  0.38959800  0.78276300  1
  Ba  Ba6  1  0.05548400  0.38959800  0.28276300  1
  Ba  Ba7  1  0.55548400  0.61040200  0.21723700  1
  Ba  Ba8  1  0.73057100  0.05982000  0.70278300  1
  Ba  Ba9  1  0.23057100  0.94018000  0.79721700  1
  Ba  Ba10  1  0.26942900  0.94018000  0.29721700  1
  Ba  Ba11  1  0.76942900  0.05982000  0.20278300  1
  V  V0  1  0.97313900  0.10068400  0.73887000  1
  V  V1  1  0.47313900  0.89931600  0.76113000  1
  V  V2  1  0.02686100  0.89931600  0.26113000  1
  V  V3  1  0.52686100  0.10068400  0.23887000  1
  V  V4  1  0.11093500  0.11144600  0.54899700  1
  V  V5  1  0.61093500  0.88855400  0.95100300  1
  V  V6  1  0.88906500  0.88855400  0.45100300  1
  V  V7  1  0.38906500  0.11144600  0.04899700  1
  V  V8  1  0.82963500  0.30468400  0.94876900  1
  V  V9  1  0.32963500  0.69531600  0.55123100  1
  V  V10  1  0.17036500  0.69531600  0.05123100  1
  V  V11  1  0.67036500  0.30468400  0.44876900  1
  V  V12  1  0.68673800  0.48615500  0.76816500  1
  V  V13  1  0.18673800  0.51384500  0.73183500  1
  V  V14  1  0.31326200  0.51384500  0.23183500  1
  V  V15  1  0.81326200  0.48615500  0.26816500  1
  Co  Co0  1  0.59771500  0.38000700  0.00620600  1
  Co  Co1  1  0.09771500  0.61999300  0.49379400  1
  Co  Co2  1  0.40228500  0.61999300  0.99379400  1
  Co  Co3  1  0.90228500  0.38000700  0.50620600  1
  O  O0  1  0.90148400  0.90895700  0.79905600  1
  O  O1  1  0.40148400  0.09104300  0.70094400  1
  O  O2  1  0.09851600  0.09104300  0.20094400  1
  O  O3  1  0.59851600  0.90895700  0.29905600  1
  O  O4  1  0.02408000  0.19571100  0.81985400  1
  O  O5  1  0.52408000  0.80428900  0.68014600  1
  O  O6  1  0.97592000  0.80428900  0.18014600  1
  O  O7  1  0.47592000  0.19571100  0.31985400  1
  O  O8  1  0.90273100  0.27776300  0.65718300  1
  O  O9  1  0.40273100  0.72223700  0.84281700  1
  O  O10  1  0.09726900  0.72223700  0.34281700  1
  O  O11  1  0.59726900  0.27776300  0.15718300  1
  O  O12  1  0.05927200  0.99624500  0.67415500  1
  O  O13  1  0.55927200  0.00375500  0.82584500  1
  O  O14  1  0.94072800  0.00375500  0.32584500  1
  O  O15  1  0.44072800  0.99624500  0.17415500  1
  O  O16  1  0.05456300  0.33788700  0.48712100  1
  O  O17  1  0.55456300  0.66211300  0.01287900  1
  O  O18  1  0.94543700  0.66211300  0.51287900  1
  O  O19  1  0.44543700  0.33788700  0.98712100  1
  O  O20  1  0.22342700  0.14902800  0.57522200  1
  O  O21  1  0.72342700  0.85097200  0.92477800  1
  O  O22  1  0.77657300  0.85097200  0.42477800  1
  O  O23  1  0.27657300  0.14902800  0.07522200  1
  O  O24  1  0.10938800  0.95754200  0.48027000  1
  O  O25  1  0.60938800  0.04245800  0.01973000  1
  O  O26  1  0.89061200  0.04245800  0.51973000  1
  O  O27  1  0.39061200  0.95754200  0.98027000  1
  O  O28  1  0.92398800  0.46217200  0.92201900  1
  O  O29  1  0.42398800  0.53782800  0.57798100  1
  O  O30  1  0.07601200  0.53782800  0.07798100  1
  O  O31  1  0.57601200  0.46217200  0.42201900  1
  O  O32  1  0.74805300  0.38557900  0.01530100  1
  O  O33  1  0.24805300  0.61442100  0.48469900  1
  O  O34  1  0.25194700  0.61442100  0.98469900  1
  O  O35  1  0.75194700  0.38557900  0.51530100  1
  O  O36  1  0.86848800  0.08602200  0.02346900  1
  O  O37  1  0.36848800  0.91397800  0.47653100  1
  O  O38  1  0.13151200  0.91397800  0.97653100  1
  O  O39  1  0.63151200  0.08602200  0.52346900  1
  O  O40  1  0.77788800  0.30984700  0.82766300  1
  O  O41  1  0.27788800  0.69015300  0.67233700  1
  O  O42  1  0.22211200  0.69015300  0.17233700  1
  O  O43  1  0.72211200  0.30984700  0.32766300  1
  O  O44  1  0.74274700  0.69644200  0.70015200  1
  O  O45  1  0.24274700  0.30355800  0.79984800  1
  O  O46  1  0.25725300  0.30355800  0.29984800  1
  O  O47  1  0.75725300  0.69644200  0.20015200  1
  O  O48  1  0.60794200  0.49856000  0.85828800  1
  O  O49  1  0.10794200  0.50144000  0.64171200  1
  O  O50  1  0.39205800  0.50144000  0.14171200  1
  O  O51  1  0.89205800  0.49856000  0.35828800  1
  O  O52  1  0.62431000  0.39876300  0.68917100  1
  O  O53  1  0.12431000  0.60123700  0.81082900  1
  O  O54  1  0.37569000  0.60123700  0.31082900  1
  O  O55  1  0.87569000  0.39876300  0.18917100  1
loop_
_geom_bond_atom_site_label_1
_geom_bond_atom_site_label_2
_geom_bond_distance
_geom_bond_site_symmetry_2
Ba0 O36 2.663224 1_565
Ba0 O28 2.725197 1_554
Ba0 O21 2.746457 1_554
Ba0 O6 2.834195 1_555
Ba0 O55 2.863921 1_555
Ba0 O0 2.927045 1_554
Ba0 O30 2.938937 1_655
Ba0 O47 3.223249 1_555
Ba0 O32 3.254708 1_555
Ba1 O37 2.663224 1_545
Ba1 O29 2.725197 1_555
Ba1 O20 2.746457 1_555
Ba1 O7 2.834195 1_555
Ba1 O54 2.863921 1_555
Ba1 O1 2.927045 1_555
Ba1 O31 2.938937 1_555
Ba1 O46 3.223249 1_555
Ba1 O33 3.254708 1_555
Ba2 O38 2.663224 1_545
Ba2 O30 2.725197 1_556
Ba2 O23 2.746457 1_556
Ba2 O4 2.834195 1_555
Ba2 O53 2.863921 1_555
Ba2 O2 2.927045 1_556
Ba2 O28 2.938937 1_455
Ba2 O45 3.223249 1_555
Ba2 O34 3.254708 1_555
Ba3 O39 2.663224 1_565
Ba3 O31 2.725197 1_555
Ba3 O22 2.746457 1_555
Ba3 O5 2.834195 1_555
Ba3 O52 2.863921 1_555
Ba3 O3 2.927045 1_555
Ba3 O29 2.938937 1_555
Ba3 O44 3.223249 1_555
Ba3 O35 3.254708 1_555
Ba4 O49 2.779123 1_655
Ba4 O28 2.780638 1_555
Ba4 O18 2.813994 1_555
Ba4 O0 2.850118 1_555
Ba4 O53 2.869836 1_655
Ba4 O8 2.884295 1_555
Ba4 O44 2.924285 1_555
Ba4 O4 3.114259 1_655
Ba4 O12 3.135466 1_655
Ba4 O40 3.261820 1_555
Ba5 O48 2.779123 1_555
Ba5 O29 2.780638 1_555
Ba5 O19 2.813994 1_555
Ba5 O1 2.850118 1_555
Ba5 O52 2.869836 1_555
Ba5 O9 2.884295 1_555
Ba5 O45 2.924285 1_555
Ba5 O5 3.114259 1_555
Ba5 O13 3.135466 1_555
Ba5 O41 3.261820 1_555
Ba6 O51 2.779123 1_455
Ba6 O30 2.780638 1_555
Ba6 O16 2.813994 1_555
Ba6 O2 2.850118 1_555
Ba6 O55 2.869836 1_455
Ba6 O10 2.884295 1_555
Ba6 O46 2.924285 1_555
Ba6 O6 3.114259 1_455
Ba6 O14 3.135466 1_455
Ba6 O42 3.261820 1_555
Ba7 O50 2.779123 1_555
Ba7 O31 2.780638 1_555
Ba7 O17 2.813994 1_555
Ba7 O3 2.850118 1_555
Ba7 O54 2.869836 1_555
Ba7 O11 2.884295 1_555
Ba7 O47 2.924285 1_555
Ba7 O7 3.114259 1_555
Ba7 O15 3.135466 1_555
Ba7 O43 3.261820 1_555
Ba8 O44 2.668811 1_545
Ba8 O0 2.828070 1_545
Ba8 O52 2.848490 1_555
Ba8 O39 2.868970 1_555
Ba8 O8 2.872022 1_555
Ba8 O13 2.947673 1_555
Ba8 O35 2.961000 1_555
Ba8 O40 3.008572 1_555
Ba8 O21 3.037025 1_545
Ba9 O45 2.668811 1_565
Ba9 O1 2.828070 1_565
Ba9 O53 2.848490 1_555
Ba9 O38 2.868970 1_555
Ba9 O9 2.872022 1_555
Ba9 O12 2.947673 1_555
Ba9 O34 2.961000 1_555
Ba9 O41 3.008572 1_555
Ba9 O20 3.037025 1_565
Ba10 O46 2.668811 1_565
Ba10 O2 2.828070 1_565
Ba10 O54 2.848490 1_555
Ba10 O37 2.868970 1_555
Ba10 O10 2.872022 1_555
Ba10 O15 2.947673 1_555
Ba10 O33 2.961000 1_555
Ba10 O42 3.008572 1_555
Ba10 O23 3.037025 1_565
Ba11 O47 2.668811 1_545
Ba11 O3 2.828070 1_545
Ba11 O55 2.848490 1_555
Ba11 O36 2.868970 1_555
Ba11 O11 2.872022 1_555
Ba11 O14 2.947673 1_555
Ba11 O32 2.961000 1_555
Ba11 O43 3.008572 1_555
Ba11 O22 3.037025 1_545
Co0 O48 2.008557 1_554
Co0 O11 2.036907 1_555
Co0 O32 2.138402 1_555
Co0 O17 2.178533 1_555
Co0 O19 2.211721 1_554
Co0 O25 2.412547 1_555
Co1 O49 2.008557 1_555
Co1 O10 2.036907 1_555
Co1 O33 2.138402 1_555
Co1 O16 2.178533 1_555
Co1 O18 2.211721 1_455
Co1 O24 2.412547 1_555
Co2 O50 2.008557 1_556
Co2 O9 2.036907 1_555
Co2 O34 2.138402 1_555
Co2 O19 2.178533 1_555
Co2 O17 2.211721 1_556
Co2 O27 2.412547 1_555
Co3 O51 2.008557 1_555
Co3 O8 2.036907 1_555
Co3 O35 2.138402 1_555
Co3 O18 2.178533 1_555
Co3 O16 2.211721 1_655
Co3 O26 2.412547 1_555
O0 V0 1.717151 1_565
O1 V1 1.717151 1_545
O2 V2 1.717151 1_545
O3 V3 1.717151 1_565
O4 V0 1.689587 1_455
O5 V1 1.689587 1_555
O6 V2 1.689587 1_655
O7 V3 1.689587 1_555
O8 V0 1.745932 1_555
O9 V1 1.745932 1_555
O10 V2 1.745932 1_555
O11 V3 1.745932 1_555
O12 V0 1.838748 1_465
O12 V4 1.858986 1_565
O13 V1 1.838748 1_545
O13 V5 1.858986 1_545
O14 V2 1.838748 1_645
O14 V6 1.858986 1_545
O15 V3 1.838748 1_565
O15 V7 1.858986 1_565
O16 V4 1.789545 1_555
O17 V5 1.789545 1_554
O18 V6 1.789545 1_555
O19 V7 1.789545 1_556
O20 V4 1.682077 1_555
O21 V5 1.682077 1_555
O22 V6 1.682077 1_555
O23 V7 1.682077 1_555
O24 V4 1.712854 1_565
O25 V5 1.712854 1_544
O26 V6 1.712854 1_545
O27 V7 1.712854 1_566
O28 V8 1.724518 1_555
O29 V9 1.724518 1_555
O30 V10 1.724518 1_555
O31 V11 1.724518 1_555
O32 V8 1.717787 1_554
O33 V9 1.717787 1_555
O34 V10 1.717787 1_556
O35 V11 1.717787 1_555
O36 V8 1.697572 1_554
O37 V9 1.697572 1_555
O38 V10 1.697572 1_556
O39 V11 1.697572 1_555
O40 V12 1.827477 1_555
O40 V8 1.865339 1_555
O41 V13 1.827477 1_555
O41 V9 1.865339 1_555
O42 V14 1.827477 1_555
O42 V10 1.865339 1_555
O43 V15 1.827477 1_555
O43 V11 1.865339 1_555
O44 V12 1.720822 1_555
O45 V13 1.720822 1_555
O46 V14 1.720822 1_555
O47 V15 1.720822 1_555
O48 V12 1.727583 1_555
O49 V13 1.727583 1_555
O50 V14 1.727583 1_555
O51 V15 1.727583 1_555
O52 V12 1.710177 1_555
O53 V13 1.710177 1_555
O54 V14 1.710177 1_555
O55 V15 1.710177 1_555
