# generated using pymatgen
data_Li9Co7O16
_symmetry_space_group_name_H-M   'P 1'
_cell_length_a   5.72773000
_cell_length_b   5.79275313
_cell_length_c   9.71999291
_cell_angle_alpha   91.38937564
_cell_angle_beta   98.25389382
_cell_angle_gamma   119.52344583
_symmetry_Int_Tables_number   1
_chemical_formula_structural   Li9Co7O16
_chemical_formula_sum   'Li9 Co7 O16'
_cell_volume   276.02552877
_cell_formula_units_Z   1
loop_
 _symmetry_equiv_pos_site_id
 _symmetry_equiv_pos_as_xyz
  1  'x, y, z'
loop_
 _atom_site_type_symbol
 _atom_site_label
 _atom_site_symmetry_multiplicity
 _atom_site_fract_x
 _atom_site_fract_y
 _atom_site_fract_z
 _atom_site_occupancy
  Li  Li0  1  0.74574100  0.86695900  0.24917700  1
  Li  Li1  1  0.74395800  0.62368900  0.74775000  1
  Li  Li2  1  0.74575200  0.37864600  0.24878200  1
  Li  Li3  1  0.25604200  0.37631100  0.25225000  1
  Li  Li4  1  0.25425900  0.13304100  0.75082300  1
  Li  Li5  1  0.25171500  0.87526300  0.24922600  1
  Li  Li6  1  0.74828500  0.12473700  0.75077400  1
  Li  Li7  1  0.25424800  0.62135400  0.75121800  1
  Li  Li8  1  0.50000000  0.50000000  0.00000000  1
  Co  Co0  1  0.00000000  0.00000000  0.00000000  1
  Co  Co1  1  0.00000000  0.50000000  0.00000000  1
  Co  Co2  1  0.00045100  0.75018400  0.49991400  1
  Co  Co3  1  0.99954900  0.24981600  0.50008600  1
  Co  Co4  1  0.49979500  0.24938700  0.49991600  1
  Co  Co5  1  0.50000000  0.00000000  0.00000000  1
  Co  Co6  1  0.50020500  0.75061300  0.50008400  1
  O  O0  1  0.86730100  0.19695600  0.10975900  1
  O  O1  1  0.86053000  0.93072600  0.61600600  1
  O  O2  1  0.88897100  0.68212200  0.11080100  1
  O  O3  1  0.36236700  0.70368000  0.10483400  1
  O  O4  1  0.37718800  0.42070600  0.62123700  1
  O  O5  1  0.35340400  0.15988300  0.10455200  1
  O  O6  1  0.85812500  0.43122700  0.61496700  1
  O  O7  1  0.37590300  0.91963200  0.61978900  1
  O  O8  1  0.62281200  0.57929400  0.37876300  1
  O  O9  1  0.63763300  0.29632000  0.89516600  1
  O  O10  1  0.62409700  0.08036800  0.38021100  1
  O  O11  1  0.13947000  0.06927400  0.38399400  1
  O  O12  1  0.13269900  0.80304400  0.89024100  1
  O  O13  1  0.14187500  0.56877300  0.38503300  1
  O  O14  1  0.64659600  0.84011700  0.89544800  1
  O  O15  1  0.11102900  0.31787800  0.88919900  1
loop_
_geom_bond_atom_site_label_1
_geom_bond_atom_site_label_2
_geom_bond_distance
_geom_bond_site_symmetry_2
Li0 O8 2.014734 1_555
Li0 O11 2.156088 1_665
Li0 O10 2.159449 1_565
Li0 O3 2.165413 1_555
Li0 O2 2.177432 1_555
Li0 O0 2.249478 1_565
Li1 O4 2.015351 1_555
Li1 O6 2.056067 1_555
Li1 O1 2.105835 1_555
Li1 O12 2.172623 1_655
Li1 O14 2.185278 1_555
Li1 O9 2.294417 1_555
Li2 O10 2.068579 1_555
Li2 O0 2.083685 1_555
Li2 O8 2.105679 1_555
Li2 O2 2.138003 1_555
Li2 O13 2.172214 1_655
Li2 O5 2.196370 1_555
Li3 O8 2.015351 1_555
Li3 O13 2.056067 1_555
Li3 O11 2.105835 1_555
Li3 O0 2.172623 1_455
Li3 O5 2.185278 1_555
Li3 O3 2.294417 1_555
Li4 O4 2.014734 1_555
Li4 O1 2.156088 1_445
Li4 O7 2.159449 1_545
Li4 O9 2.165413 1_555
Li4 O15 2.177432 1_555
Li4 O12 2.249478 1_545
Li5 O3 2.041561 1_555
Li5 O2 2.052385 1_455
Li5 O10 2.057008 1_565
Li5 O11 2.067573 1_565
Li5 O5 2.106233 1_565
Li5 O13 2.131125 1_555
Li6 O9 2.041561 1_555
Li6 O15 2.052385 1_655
Li6 O7 2.057008 1_545
Li6 O1 2.067573 1_545
Li6 O14 2.106233 1_545
Li6 O6 2.131125 1_555
Li7 O7 2.068579 1_555
Li7 O12 2.083685 1_555
Li7 O4 2.105679 1_555
Li7 O15 2.138003 1_555
Li7 O6 2.172214 1_455
Li7 O14 2.196370 1_555
Li8 O3 2.034921 1_555
Li8 O9 2.034921 1_554
Li8 O2 2.043530 1_555
Li8 O15 2.043530 1_554
Li8 O5 2.081153 1_555
Li8 O14 2.081153 1_554
Co0 O5 1.871894 1_555
Co0 O14 1.871894 1_444
Co0 O12 2.011471 1_544
Co0 O0 2.011471 1_455
Co0 O2 2.023300 1_445
Co0 O15 2.023300 1_554
Co1 O15 1.865501 1_554
Co1 O2 1.865501 1_455
Co1 O3 1.912915 1_555
Co1 O9 1.912915 1_454
Co1 O0 1.950939 1_455
Co1 O12 1.950939 1_554
Co2 O1 2.009444 1_455
Co2 O13 2.012246 1_555
Co2 O7 2.022488 1_555
Co2 O8 2.036450 1_455
Co2 O6 2.050965 1_455
Co2 O11 2.056266 1_565
Co3 O11 2.009444 1_655
Co3 O6 2.012246 1_555
Co3 O10 2.022488 1_555
Co3 O4 2.036450 1_655
Co3 O13 2.050965 1_655
Co3 O1 2.056266 1_545
Co4 O10 1.920659 1_555
Co4 O6 1.930215 1_555
Co4 O4 1.933012 1_555
Co4 O11 1.941832 1_555
Co4 O7 2.125885 1_545
Co4 O8 2.134404 1_555
Co5 O5 1.887155 1_555
Co5 O14 1.887155 1_544
Co5 O3 1.894208 1_545
Co5 O9 1.894208 1_554
Co5 O0 1.948538 1_555
Co5 O12 1.948538 1_544
Co6 O7 1.920659 1_555
Co6 O13 1.930215 1_555
Co6 O8 1.933012 1_555
Co6 O1 1.941832 1_555
Co6 O10 2.125885 1_565
Co6 O4 2.134404 1_555
