# generated using pymatgen
data_Rb2As2Pd
_symmetry_space_group_name_H-M   'P 1'
_cell_length_a   8.13475549
_cell_length_b   8.13475549
_cell_length_c   6.17991217
_cell_angle_alpha   90.00000000
_cell_angle_beta   90.00000000
_cell_angle_gamma   130.88499655
_symmetry_Int_Tables_number   1
_chemical_formula_structural   Rb2As2Pd
_chemical_formula_sum   'Rb4 As4 Pd2'
_cell_volume   309.17716134
_cell_formula_units_Z   2
loop_
 _symmetry_equiv_pos_site_id
 _symmetry_equiv_pos_as_xyz
  1  'x, y, z'
loop_
 _atom_site_type_symbol
 _atom_site_label
 _atom_site_symmetry_multiplicity
 _atom_site_fract_x
 _atom_site_fract_y
 _atom_site_fract_z
 _atom_site_occupancy
  Rb  Rb0  1  0.79336993  0.20663007  0.25000000  1
  Rb  Rb1  1  0.20663007  0.79336993  0.75000000  1
  Rb  Rb2  1  0.41656530  0.58343470  0.25000000  1
  Rb  Rb3  1  0.58343470  0.41656530  0.75000000  1
  As  As0  1  0.92855176  0.71549798  0.25000000  1
  As  As1  1  0.07144824  0.28450202  0.75000000  1
  As  As2  1  0.28450202  0.07144824  0.25000000  1
  As  As3  1  0.71549798  0.92855176  0.75000000  1
  Pd  Pd0  1  0.00000000  0.00000000  -0.00000000  1
  Pd  Pd1  1  0.00000000  0.00000000  0.50000000  1
loop_
_geom_bond_atom_site_label_1
_geom_bond_atom_site_label_2
_geom_bond_distance
_geom_bond_site_symmetry_2
As0 As2 2.406833 1_665
As0 Pd1 2.513982 1_665
As0 Pd0 2.513982 1_665
As0 Rb0 3.519343 1_555
As0 Rb2 3.555712 1_555
As0 Rb1 3.631848 1_654
As0 Rb1 3.631848 1_655
As0 Rb3 3.795502 1_554
As0 Rb3 3.795502 1_555
As1 As3 2.406833 1_445
As1 Pd0 2.513982 1_556
As1 Pd1 2.513982 1_555
As1 Rb1 3.519343 1_555
As1 Rb3 3.555712 1_555
As1 Rb0 3.631848 1_456
As1 Rb0 3.631848 1_455
As1 Rb2 3.795502 1_556
As1 Rb2 3.795502 1_555
As2 Pd0 2.513982 1_555
As2 Pd1 2.513982 1_555
As2 Rb0 3.519343 1_555
As2 Rb2 3.555712 1_555
As2 Rb1 3.631848 1_545
As2 Rb1 3.631848 1_544
As2 Rb3 3.795502 1_555
As2 Rb3 3.795502 1_554
As3 Pd0 2.513982 1_666
As3 Pd1 2.513982 1_665
As3 Rb1 3.519343 1_555
As3 Rb3 3.555712 1_555
As3 Rb0 3.631848 1_565
As3 Rb0 3.631848 1_566
As3 Rb2 3.795502 1_556
As3 Rb2 3.795502 1_555
Pd0 Rb0 3.425838 1_455
Pd0 Rb1 3.425838 1_544
Pd1 Rb0 3.425838 1_455
Pd1 Rb1 3.425838 1_545
