# generated using pymatgen
data_Eu3U
_symmetry_space_group_name_H-M   'P 1'
_cell_length_a   6.24073777
_cell_length_b   6.24073777
_cell_length_c   6.24073777
_cell_angle_alpha   60.00000000
_cell_angle_beta   60.00000000
_cell_angle_gamma   60.00000000
_symmetry_Int_Tables_number   1
_chemical_formula_structural   Eu3U
_chemical_formula_sum   'Eu3 U1'
_cell_volume   171.86712260
_cell_formula_units_Z   1
loop_
 _symmetry_equiv_pos_site_id
 _symmetry_equiv_pos_as_xyz
  1  'x, y, z'
loop_
 _atom_site_type_symbol
 _atom_site_label
 _atom_site_symmetry_multiplicity
 _atom_site_fract_x
 _atom_site_fract_y
 _atom_site_fract_z
 _atom_site_occupancy
  Eu  Eu0  1  0.25000000  0.25000000  0.25000000  1
  Eu  Eu1  1  0.75000000  0.75000000  0.75000000  1
  Eu  Eu2  1  0.50000000  0.50000000  0.50000000  1
  U  U0  1  0.00000000  0.00000000  0.00000000  1
loop_
_geom_bond_atom_site_label_1
_geom_bond_atom_site_label_2
_geom_bond_distance
_geom_bond_site_symmetry_2
Eu0 U0 3.821656 1_655
Eu0 Eu2 3.821656 1_455
Eu0 U0 3.821656 1_565
Eu0 U0 3.821656 1_555
Eu0 Eu2 3.821656 1_555
Eu0 U0 3.821656 1_556
Eu0 Eu2 3.821656 1_545
Eu0 Eu2 3.821656 1_554
Eu1 Eu2 3.821656 1_565
Eu1 U0 3.821656 1_566
Eu1 U0 3.821656 1_666
Eu1 U0 3.821656 1_665
Eu1 Eu2 3.821656 1_556
Eu1 Eu2 3.821656 1_555
Eu1 Eu2 3.821656 1_655
Eu1 U0 3.821656 1_656
Eu2 U0 4.412868 1_556
Eu2 U0 4.412868 1_565
Eu2 U0 4.412868 1_656
Eu2 U0 4.412868 1_655
Eu2 U0 4.412868 1_566
Eu2 U0 4.412868 1_665
