# generated using pymatgen
data_BaEuSnWO6
_symmetry_space_group_name_H-M   'P 1'
_cell_length_a   6.02867214
_cell_length_b   6.09190038
_cell_length_c   8.57682203
_cell_angle_alpha   89.12631737
_cell_angle_beta   90.66104387
_cell_angle_gamma   89.30162226
_symmetry_Int_Tables_number   1
_chemical_formula_structural   BaEuSnWO6
_chemical_formula_sum   'Ba2 Eu2 Sn2 W2 O12'
_cell_volume   314.91130030
_cell_formula_units_Z   2
loop_
 _symmetry_equiv_pos_site_id
 _symmetry_equiv_pos_as_xyz
  1  'x, y, z'
loop_
 _atom_site_type_symbol
 _atom_site_label
 _atom_site_symmetry_multiplicity
 _atom_site_fract_x
 _atom_site_fract_y
 _atom_site_fract_z
 _atom_site_occupancy
  Ba  Ba0  1  0.99485276  0.03861743  0.24906824  1
  Ba  Ba1  1  0.00514724  0.96138257  0.75093176  1
  Eu  Eu0  1  0.51176240  0.54512519  0.24499800  1
  Eu  Eu1  1  0.48823760  0.45487481  0.75500200  1
  Sn  Sn0  1  0.00000000  0.50000000  0.00000000  1
  Sn  Sn1  1  0.50000000  0.00000000  0.50000000  1
  W  W0  1  0.50000000  0.00000000  0.00000000  1
  W  W1  1  0.00000000  0.50000000  0.50000000  1
  O  O0  1  0.23471971  0.18232796  0.96376995  1
  O  O1  1  0.25856255  0.67705845  0.56074904  1
  O  O2  1  0.76528029  0.81767204  0.03623005  1
  O  O3  1  0.74143745  0.32294155  0.43925096  1
  O  O4  1  0.33608164  0.72957919  0.94635957  1
  O  O5  1  0.17736216  0.23634672  0.54860832  1
  O  O6  1  0.66391836  0.27042081  0.05364043  1
  O  O7  1  0.82263784  0.76365328  0.45139168  1
  O  O8  1  0.42438481  0.95193505  0.21997877  1
  O  O9  1  0.11043465  0.49091044  0.28351312  1
  O  O10  1  0.57561519  0.04806495  0.78002123  1
  O  O11  1  0.88956535  0.50908956  0.71648688  1
loop_
_geom_bond_atom_site_label_1
_geom_bond_atom_site_label_2
_geom_bond_distance
_geom_bond_site_symmetry_2
Ba0 O7 2.624935 1_545
Ba0 O8 2.651837 1_645
Ba0 O2 2.668626 1_545
Ba0 O3 2.841474 1_555
Ba0 O9 2.869059 1_655
Ba0 O6 2.926764 1_555
Ba0 O0 2.982004 1_654
Ba0 O5 3.053410 1_655
Ba1 O5 2.624935 1_565
Ba1 O10 2.651837 1_465
Ba1 O0 2.668626 1_565
Ba1 O1 2.841474 1_555
Ba1 O11 2.869059 1_455
Ba1 O4 2.926764 1_555
Ba1 O2 2.982004 1_456
Ba1 O7 3.053410 1_455
Eu0 O9 2.471163 1_555
Eu0 O3 2.521378 1_555
Eu0 O8 2.532703 1_555
Eu0 O6 2.533118 1_555
Eu0 O2 2.886710 1_555
Eu0 O7 2.911096 1_555
Eu0 O4 2.960678 1_554
Eu0 O1 3.231398 1_555
Eu1 O11 2.471163 1_555
Eu1 O1 2.521378 1_555
Eu1 O10 2.532703 1_555
Eu1 O4 2.533118 1_555
Eu1 O0 2.886710 1_555
Eu1 O5 2.911096 1_555
Eu1 O6 2.960678 1_556
Eu1 O3 3.231398 1_555
O0 W0 1.955171 1_556
O0 Sn0 2.409512 1_556
O1 W1 1.975882 1_555
O1 Sn1 2.513268 1_565
O2 W0 1.955171 1_565
O2 Sn0 2.409512 1_655
O3 W1 1.975882 1_655
O3 Sn1 2.513268 1_555
O4 W0 1.988561 1_566
O4 Sn0 2.518694 1_556
O5 W1 1.955573 1_555
O5 Sn1 2.449267 1_555
O6 W0 1.988561 1_555
O6 Sn0 2.518694 1_655
O7 W1 1.955573 1_655
O7 Sn1 2.449267 1_565
O8 W0 1.964562 1_565
O8 Sn1 2.461931 1_565
O9 W1 1.981079 1_555
O9 Sn0 2.513333 1_555
O10 W0 1.964562 1_556
O10 Sn1 2.461931 1_555
O11 W1 1.981079 1_655
O11 Sn0 2.513333 1_656
