# generated using pymatgen
data_Dy2Al5Fe12
_symmetry_space_group_name_H-M   'P 1'
_cell_length_a   6.45728681
_cell_length_b   6.45728681
_cell_length_c   6.45728671
_cell_angle_alpha   82.62784243
_cell_angle_beta   82.62784243
_cell_angle_gamma   82.62785142
_symmetry_Int_Tables_number   1
_chemical_formula_structural   Dy2Al5Fe12
_chemical_formula_sum   'Dy2 Al5 Fe12'
_cell_volume   263.09567887
_cell_formula_units_Z   1
loop_
 _symmetry_equiv_pos_site_id
 _symmetry_equiv_pos_as_xyz
  1  'x, y, z'
loop_
 _atom_site_type_symbol
 _atom_site_label
 _atom_site_symmetry_multiplicity
 _atom_site_fract_x
 _atom_site_fract_y
 _atom_site_fract_z
 _atom_site_occupancy
  Dy  Dy0  1  0.66201000  0.66201000  0.66201000  1
  Dy  Dy1  1  0.34756900  0.34756900  0.34756900  1
  Al  Al0  1  0.89841700  0.89841700  0.89841700  1
  Al  Al1  1  0.10177400  0.10177400  0.10177400  1
  Al  Al2  1  0.35104700  0.35104700  0.83868400  1
  Al  Al3  1  0.83868400  0.35104700  0.35104700  1
  Al  Al4  1  0.35104700  0.83868400  0.35104700  1
  Fe  Fe0  1  0.99788400  0.99788400  0.49804400  1
  Fe  Fe1  1  0.49804400  0.99788400  0.99788400  1
  Fe  Fe2  1  0.99788400  0.49804400  0.99788400  1
  Fe  Fe3  1  0.65920500  0.65920500  0.14135500  1
  Fe  Fe4  1  0.14135500  0.65920500  0.65920500  1
  Fe  Fe5  1  0.65920500  0.14135500  0.65920500  1
  Fe  Fe6  1  0.70824300  0.29103700  0.99865700  1
  Fe  Fe7  1  0.99865700  0.70824300  0.29103700  1
  Fe  Fe8  1  0.29103700  0.99865700  0.70824300  1
  Fe  Fe9  1  0.99865700  0.29103700  0.70824300  1
  Fe  Fe10  1  0.70824300  0.99865700  0.29103700  1
  Fe  Fe11  1  0.29103700  0.70824300  0.99865700  1
loop_
_geom_bond_atom_site_label_1
_geom_bond_atom_site_label_2
_geom_bond_distance
_geom_bond_site_symmetry_2
Dy0 Fe10 3.033090 1_555
Dy0 Fe7 3.033090 1_555
Dy0 Fe11 3.033090 1_555
Dy0 Fe6 3.033090 1_555
Dy0 Fe9 3.033090 1_555
Dy0 Fe8 3.033090 1_555
Dy0 Fe3 3.090736 1_556
Dy0 Fe5 3.090736 1_565
Dy0 Fe4 3.090736 1_655
Dy1 Fe8 3.046277 1_545
Dy1 Fe9 3.046277 1_455
Dy1 Fe11 3.046277 1_554
Dy1 Fe6 3.046277 1_554
Dy1 Fe10 3.046277 1_545
Dy1 Fe7 3.046277 1_455
Dy1 Fe3 3.088024 1_555
Dy1 Fe4 3.088025 1_555
Dy1 Fe5 3.088025 1_555
Dy1 Fe0 3.365079 1_445
Dy1 Fe1 3.365079 1_544
Dy1 Fe2 3.365079 1_454
Al0 Al1 2.549606 1_666
Al0 Fe3 2.569329 1_556
Al0 Fe4 2.569330 1_655
Al0 Fe5 2.569330 1_565
Al0 Fe0 2.600492 1_555
Al0 Fe1 2.600492 1_555
Al0 Fe2 2.600492 1_555
Al0 Fe8 2.787956 1_655
Al0 Fe9 2.787956 1_565
Al0 Fe10 2.787956 1_556
Al0 Fe7 2.787956 1_556
Al0 Fe6 2.787956 1_565
Al0 Fe11 2.787956 1_655
Al0 Dy0 2.963973 1_555
Al1 Fe0 2.584981 1_445
Al1 Fe1 2.584981 1_544
Al1 Fe2 2.584981 1_454
Al1 Al2 2.707264 1_554
Al1 Al3 2.707264 1_455
Al1 Al4 2.707264 1_545
Al1 Fe7 2.796921 1_445
Al1 Fe10 2.796921 1_445
Al1 Fe8 2.796921 1_544
Al1 Fe9 2.796921 1_454
Al1 Fe6 2.796922 1_454
Al1 Fe11 2.796922 1_544
Al1 Dy1 3.081676 1_555
Al2 Fe1 2.500325 1_545
Al2 Fe2 2.500325 1_455
Al2 Fe4 2.501119 1_555
Al2 Fe5 2.501119 1_555
Al2 Fe11 2.610862 1_555
Al2 Fe6 2.610862 1_555
Al2 Fe9 2.615214 1_455
Al2 Fe8 2.615214 1_545
Al2 Dy0 3.037172 1_555
Al2 Dy1 3.177208 1_555
Al2 Dy1 3.280421 1_556
Al3 Fe2 2.500324 1_554
Al3 Fe0 2.500325 1_545
Al3 Fe5 2.501119 1_555
Al3 Fe3 2.501119 1_555
Al3 Fe7 2.610862 1_555
Al3 Fe9 2.610862 1_555
Al3 Fe10 2.615214 1_545
Al3 Fe6 2.615214 1_554
Al3 Dy0 3.037172 1_555
Al3 Dy1 3.177208 1_555
Al3 Dy1 3.280421 1_655
Al4 Fe1 2.500324 1_554
Al4 Fe0 2.500325 1_455
Al4 Fe4 2.501119 1_555
Al4 Fe3 2.501119 1_555
Al4 Fe10 2.610862 1_555
Al4 Fe8 2.610862 1_555
Al4 Fe7 2.615214 1_455
Al4 Fe11 2.615214 1_554
Al4 Dy0 3.037172 1_555
Al4 Dy1 3.177208 1_555
Al4 Dy1 3.280421 1_565
Fe0 Fe5 2.422276 1_565
Fe0 Fe4 2.422276 1_655
Fe0 Fe10 2.433572 1_555
Fe0 Fe7 2.433572 1_555
Fe0 Fe9 2.467632 1_565
Fe0 Fe8 2.467632 1_655
Fe1 Fe5 2.422275 1_565
Fe1 Fe3 2.422276 1_556
Fe1 Fe11 2.433572 1_555
Fe1 Fe8 2.433572 1_555
Fe1 Fe6 2.467632 1_565
Fe1 Fe10 2.467632 1_556
Fe2 Fe4 2.422275 1_655
Fe2 Fe3 2.422276 1_556
Fe2 Fe6 2.433572 1_555
Fe2 Fe9 2.433572 1_555
Fe2 Fe7 2.467632 1_556
Fe3 Fe7 2.576707 1_555
Fe3 Fe6 2.625890 1_554
Fe4 Fe8 2.576706 1_555
Fe4 Fe9 2.625890 1_455
Fe4 Fe7 2.625890 1_455
Fe5 Fe9 2.576706 1_555
Fe5 Fe6 2.576707 1_555
Fe5 Fe8 2.625890 1_545
Fe6 Fe9 2.476069 1_555
Fe8 Fe9 2.492831 1_465
Fe10 Fe7 2.476069 1_555
Fe10 Fe6 2.492831 1_564
Fe10 Fe3 2.576707 1_555
Fe10 Fe5 2.625890 1_565
Fe11 Fe2 2.467632 1_455
Fe11 Fe8 2.476069 1_555
Fe11 Fe7 2.492831 1_456
Fe11 Fe4 2.576707 1_555
Fe11 Fe3 2.625890 1_556
