# generated using pymatgen
data_V2Si2O7
_symmetry_space_group_name_H-M   'P 1'
_cell_length_a   5.21146860
_cell_length_b   5.38436350
_cell_length_c   4.68632667
_cell_angle_alpha   83.75830317
_cell_angle_beta   97.84196763
_cell_angle_gamma   73.74324431
_symmetry_Int_Tables_number   1
_chemical_formula_structural   V2Si2O7
_chemical_formula_sum   'V2 Si2 O7'
_cell_volume   123.56069958
_cell_formula_units_Z   1
loop_
 _symmetry_equiv_pos_site_id
 _symmetry_equiv_pos_as_xyz
  1  'x, y, z'
loop_
 _atom_site_type_symbol
 _atom_site_label
 _atom_site_symmetry_multiplicity
 _atom_site_fract_x
 _atom_site_fract_y
 _atom_site_fract_z
 _atom_site_occupancy
  V  V0  1  0.67894200  0.69055500  0.00836100  1
  V  V1  1  0.32105600  0.30944300  0.99163900  1
  Si  Si0  1  0.22884800  0.77055200  0.40518000  1
  Si  Si1  1  0.77115200  0.22944800  0.59482000  1
  O  O0  1  0.07089200  0.60295700  0.21214200  1
  O  O1  1  0.40525600  0.91448600  0.21059700  1
  O  O2  1  0.40259800  0.60717800  0.72542700  1
  O  O3  1  0.00000300  0.00000300  0.50000100  1
  O  O4  1  0.59740100  0.39282100  0.27457300  1
  O  O5  1  0.59474700  0.08551100  0.78940300  1
  O  O6  1  0.92910500  0.39704700  0.78785800  1
loop_
_geom_bond_atom_site_label_1
_geom_bond_atom_site_label_2
_geom_bond_distance
_geom_bond_site_symmetry_2
O0 Si0 1.643324 1_555
O0 V0 2.034000 1_455
O0 V1 2.198700 1_554
O1 Si0 1.658716 1_555
O1 V0 2.010185 1_555
O1 V1 2.155927 1_564
O2 Si0 1.655961 1_555
O2 V0 2.001000 1_556
O2 V1 2.097179 1_555
O3 Si1 1.607842 1_455
O3 Si0 1.607848 1_545
O4 Si1 1.655961 1_555
O4 V1 2.001006 1_554
O4 V0 2.097172 1_555
O5 Si1 1.658714 1_555
O5 V1 2.010203 1_555
O5 V0 2.155926 1_546
O6 Si1 1.643331 1_555
O6 V1 2.034001 1_655
O6 V0 2.198678 1_556
