# generated using pymatgen
data_La2YC6
_symmetry_space_group_name_H-M   'P 1'
_cell_length_a   4.22672566
_cell_length_b   4.22672566
_cell_length_c   10.11130282
_cell_angle_alpha   82.49266706
_cell_angle_beta   82.49266706
_cell_angle_gamma   53.87165361
_symmetry_Int_Tables_number   1
_chemical_formula_structural   La2YC6
_chemical_formula_sum   'La2 Y1 C6'
_cell_volume   144.32774321
_cell_formula_units_Z   1
loop_
 _symmetry_equiv_pos_site_id
 _symmetry_equiv_pos_as_xyz
  1  'x, y, z'
loop_
 _atom_site_type_symbol
 _atom_site_label
 _atom_site_symmetry_multiplicity
 _atom_site_fract_x
 _atom_site_fract_y
 _atom_site_fract_z
 _atom_site_occupancy
  La  La0  1  0.33456300  0.33456300  0.67038100  1
  La  La1  1  0.66543700  0.66543700  0.32961900  1
  Y  Y0  1  0.00000000  0.00000000  0.00000000  1
  C  C0  1  0.73625600  0.73625600  0.88105600  1
  C  C1  1  0.06639300  0.06639300  0.53458300  1
  C  C2  1  0.40042400  0.40042400  0.18314300  1
  C  C3  1  0.26374400  0.26374400  0.11894400  1
  C  C4  1  0.59957600  0.59957600  0.81685700  1
  C  C5  1  0.93360700  0.93360700  0.46541700  1
loop_
_geom_bond_atom_site_label_1
_geom_bond_atom_site_label_2
_geom_bond_distance
_geom_bond_site_symmetry_2
C0 C4 1.295535 1_555
C0 Y0 2.469404 1_666
C0 Y0 2.766766 1_656
C0 Y0 2.766766 1_566
C0 La0 2.879243 1_565
C0 La0 2.879243 1_655
C1 C5 1.302185 1_445
C1 La0 2.604483 1_555
C1 La0 2.810830 1_455
C1 La0 2.810830 1_545
C1 La1 2.839856 1_545
C1 La1 2.839856 1_455
C2 C3 1.295535 1_555
C2 La1 2.655092 1_555
C2 Y0 2.692775 1_565
C2 Y0 2.692775 1_655
C2 La1 2.868276 1_545
C2 La1 2.868276 1_455
C3 Y0 2.469404 1_555
C3 Y0 2.766766 1_655
C3 Y0 2.766766 1_565
C3 La1 2.879243 1_455
C3 La1 2.879243 1_545
C4 La0 2.655092 1_555
C4 Y0 2.692775 1_656
C4 Y0 2.692775 1_566
C4 La0 2.868276 1_565
C4 La0 2.868276 1_655
C5 La1 2.604483 1_555
C5 La1 2.810830 1_565
C5 La1 2.810830 1_655
C5 La0 2.839856 1_565
C5 La0 2.839856 1_655
