# generated using pymatgen
data_Bi4(TeSe)3
_symmetry_space_group_name_H-M   'P 1'
_cell_length_a   20.81931764
_cell_length_b   20.81931764
_cell_length_c   20.81931815
_cell_angle_alpha   11.86860416
_cell_angle_beta   11.86860416
_cell_angle_gamma   11.86860271
_symmetry_Int_Tables_number   1
_chemical_formula_structural   Bi4(TeSe)3
_chemical_formula_sum   'Bi4 Te3 Se3'
_cell_volume   331.75198524
_cell_formula_units_Z   1
loop_
 _symmetry_equiv_pos_site_id
 _symmetry_equiv_pos_as_xyz
  1  'x, y, z'
loop_
 _atom_site_type_symbol
 _atom_site_label
 _atom_site_symmetry_multiplicity
 _atom_site_fract_x
 _atom_site_fract_y
 _atom_site_fract_z
 _atom_site_occupancy
  Bi  Bi0  1  0.19856100  0.19856100  0.19856100  1
  Bi  Bi1  1  0.69624900  0.69624900  0.69624900  1
  Bi  Bi2  1  0.30212800  0.30212800  0.30212800  1
  Bi  Bi3  1  0.80481100  0.80481100  0.80481100  1
  Te  Te0  1  0.39187400  0.39187400  0.39187400  1
  Te  Te1  1  0.60652600  0.60652600  0.60652600  1
  Te  Te2  1  0.10912000  0.10912000  0.10912000  1
  Se  Se0  1  0.99940800  0.99940800  0.99940800  1
  Se  Se1  1  0.50176900  0.50176900  0.50176900  1
  Se  Se2  1  0.88955600  0.88955600  0.88955600  1
loop_
_geom_bond_atom_site_label_1
_geom_bond_atom_site_label_2
_geom_bond_distance
_geom_bond_site_symmetry_2
Bi0 Se2 2.907483 1_544
Bi0 Se2 2.907483 1_454
Bi0 Se2 2.907484 1_445
Bi0 Se1 3.109233 1_455
Bi0 Se1 3.109233 1_545
Bi0 Se1 3.109233 1_554
Bi1 Te0 3.066298 1_565
Bi1 Te0 3.066298 1_655
Bi1 Te0 3.066299 1_556
Bi1 Se0 3.111059 1_455
Bi1 Se0 3.111059 1_545
Bi1 Se0 3.111060 1_554
Bi2 Te1 3.065463 1_455
Bi2 Te1 3.065463 1_545
Bi2 Te1 3.065464 1_554
Bi2 Se0 3.127508 1_454
Bi2 Se0 3.127508 1_544
Bi2 Se0 3.127509 1_445
Bi3 Te2 3.068697 1_566
Bi3 Te2 3.068697 1_656
Bi3 Te2 3.068697 1_665
Bi3 Se1 3.115428 1_565
Bi3 Se1 3.115428 1_655
Bi3 Se1 3.115429 1_556
