# generated using pymatgen
data_Nd3In
_symmetry_space_group_name_H-M   'P 1'
_cell_length_a   7.15718789
_cell_length_b   7.15718789
_cell_length_c   5.60574686
_cell_angle_alpha   90.00000000
_cell_angle_beta   90.00000000
_cell_angle_gamma   119.99999217
_symmetry_Int_Tables_number   1
_chemical_formula_structural   Nd3In
_chemical_formula_sum   'Nd6 In2'
_cell_volume   248.68465350
_cell_formula_units_Z   2
loop_
 _symmetry_equiv_pos_site_id
 _symmetry_equiv_pos_as_xyz
  1  'x, y, z'
loop_
 _atom_site_type_symbol
 _atom_site_label
 _atom_site_symmetry_multiplicity
 _atom_site_fract_x
 _atom_site_fract_y
 _atom_site_fract_z
 _atom_site_occupancy
  Nd  Nd0  1  0.82363905  0.17636095  0.75000000  1
  Nd  Nd1  1  0.35272290  0.17636095  0.75000000  1
  Nd  Nd2  1  0.82363905  0.64727710  0.75000000  1
  Nd  Nd3  1  0.17636095  0.82363905  0.25000000  1
  Nd  Nd4  1  0.64727710  0.82363905  0.25000000  1
  Nd  Nd5  1  0.17636095  0.35272290  0.25000000  1
  In  In0  1  0.66666700  0.33333300  0.25000000  1
  In  In1  1  0.33333300  0.66666700  0.75000000  1
loop_
_geom_bond_atom_site_label_1
_geom_bond_atom_site_label_2
_geom_bond_distance
_geom_bond_site_symmetry_2
Nd0 Nd2 3.370435 1_555
Nd0 Nd1 3.370435 1_555
Nd0 Nd5 3.554703 1_656
Nd0 Nd4 3.554703 1_546
Nd0 Nd5 3.554703 1_655
Nd0 Nd4 3.554703 1_545
Nd0 Nd1 3.786753 1_655
Nd0 Nd2 3.786753 1_545
Nd1 Nd2 3.370436 1_555
Nd1 Nd3 3.554703 1_545
Nd1 Nd3 3.554703 1_546
Nd1 Nd5 3.554711 1_555
Nd1 Nd5 3.554711 1_556
Nd1 Nd2 3.786753 1_445
Nd2 Nd3 3.554703 1_656
Nd2 Nd3 3.554703 1_655
Nd2 Nd4 3.554711 1_556
Nd2 Nd4 3.554711 1_555
Nd3 Nd4 3.370435 1_555
Nd3 Nd5 3.370435 1_555
Nd3 Nd5 3.786753 1_565
Nd3 Nd4 3.786753 1_455
Nd4 Nd5 3.370436 1_555
Nd4 Nd5 3.786753 1_665
In0 Nd0 3.412142 1_554
In0 Nd0 3.412142 1_555
In0 Nd2 3.412142 1_554
In0 Nd2 3.412142 1_555
In0 Nd1 3.412142 1_554
In0 Nd1 3.412142 1_555
In0 Nd4 3.580604 1_545
In0 Nd5 3.580604 1_655
In0 Nd3 3.580612 1_545
In0 Nd3 3.580612 1_655
In0 Nd5 3.580619 1_555
In0 Nd4 3.580619 1_555
In1 Nd3 3.412142 1_556
In1 Nd3 3.412142 1_555
In1 Nd4 3.412142 1_556
In1 Nd4 3.412142 1_555
In1 Nd5 3.412142 1_555
In1 Nd5 3.412142 1_556
In1 Nd2 3.580604 1_455
In1 Nd1 3.580604 1_565
In1 Nd0 3.580612 1_455
In1 Nd0 3.580612 1_565
In1 Nd1 3.580619 1_555
In1 Nd2 3.580619 1_555
