# generated using pymatgen
data_TmCu(MoO4)2
_symmetry_space_group_name_H-M   'P 1'
_cell_length_a   5.06423032
_cell_length_b   7.67539492
_cell_length_c   7.67539492
_cell_angle_alpha   100.29236461
_cell_angle_beta   91.31424599
_cell_angle_gamma   91.31424599
_symmetry_Int_Tables_number   1
_chemical_formula_structural   TmCu(MoO4)2
_chemical_formula_sum   'Tm2 Cu2 Mo4 O16'
_cell_volume   293.35361090
_cell_formula_units_Z   2
loop_
 _symmetry_equiv_pos_site_id
 _symmetry_equiv_pos_as_xyz
  1  'x, y, z'
loop_
 _atom_site_type_symbol
 _atom_site_label
 _atom_site_symmetry_multiplicity
 _atom_site_fract_x
 _atom_site_fract_y
 _atom_site_fract_z
 _atom_site_occupancy
  Tm  Tm0  1  0.75000000  0.84677400  0.15322600  1
  Tm  Tm1  1  0.25000000  0.15322600  0.84677400  1
  Cu  Cu0  1  0.75000000  0.34019400  0.65980600  1
  Cu  Cu1  1  0.25000000  0.65980600  0.34019400  1
  Mo  Mo0  1  0.74307800  0.35211200  0.17454500  1
  Mo  Mo1  1  0.25692200  0.64788800  0.82545500  1
  Mo  Mo2  1  0.75692200  0.82545500  0.64788800  1
  Mo  Mo3  1  0.24307800  0.17454500  0.35211200  1
  O  O0  1  0.39554600  0.68312100  0.05117300  1
  O  O1  1  0.60445400  0.31687900  0.94882800  1
  O  O2  1  0.10445400  0.94882800  0.31687900  1
  O  O3  1  0.89554600  0.05117300  0.68312100  1
  O  O4  1  0.95945000  0.80366700  0.90257600  1
  O  O5  1  0.04055000  0.19633300  0.09742400  1
  O  O6  1  0.54055000  0.09742400  0.19633300  1
  O  O7  1  0.45945000  0.90257600  0.80366700  1
  O  O8  1  0.90043700  0.57185800  0.19876300  1
  O  O9  1  0.09956300  0.42814200  0.80123700  1
  O  O10  1  0.59956300  0.80123700  0.42814200  1
  O  O11  1  0.40043700  0.19876300  0.57185800  1
  O  O12  1  0.56824300  0.58707800  0.69454200  1
  O  O13  1  0.43175700  0.41292200  0.30545800  1
  O  O14  1  0.93175700  0.30545800  0.41292200  1
  O  O15  1  0.06824300  0.69454200  0.58707800  1
loop_
_geom_bond_atom_site_label_1
_geom_bond_atom_site_label_2
_geom_bond_distance
_geom_bond_site_symmetry_2
Cu0 O9 2.088802 1_655
Cu0 O11 2.088802 1_555
Cu0 O12 2.102339 1_555
Cu0 O14 2.102339 1_555
Cu0 O3 2.388974 1_555
Cu0 O1 2.388982 1_555
Cu1 O8 2.088802 1_455
Cu1 O10 2.088802 1_555
Cu1 O13 2.102339 1_555
Cu1 O15 2.102339 1_555
Cu1 O0 2.388974 1_555
Cu1 O2 2.388982 1_555
Mo0 O8 1.825888 1_555
Mo0 O1 1.826334 1_554
Mo0 O13 1.911020 1_555
Mo0 O5 1.979915 1_655
Mo0 O14 2.135048 1_555
Mo0 O6 2.221261 1_555
Mo1 O9 1.825888 1_555
Mo1 O0 1.826341 1_556
Mo1 O12 1.911020 1_555
Mo1 O4 1.979915 1_455
Mo1 O15 2.135048 1_555
Mo1 O7 2.221261 1_555
Mo2 O10 1.825888 1_555
Mo2 O3 1.826341 1_565
Mo2 O15 1.911020 1_655
Mo2 O7 1.979915 1_555
Mo2 O12 2.135048 1_555
Mo2 O4 2.221261 1_555
Mo3 O11 1.825888 1_555
Mo3 O2 1.826334 1_545
Mo3 O14 1.911020 1_455
Mo3 O6 1.979915 1_555
Mo3 O13 2.135048 1_555
Mo3 O5 2.221261 1_555
O0 Tm0 2.212235 1_555
O1 Tm1 2.212237 1_555
O2 Tm0 2.212237 1_455
O3 Tm1 2.212235 1_655
O4 Tm0 2.194985 1_556
O5 Tm1 2.194985 1_554
O6 Tm0 2.194985 1_545
O7 Tm1 2.194985 1_565
O8 Tm0 2.340965 1_555
O9 Tm1 2.340965 1_555
O10 Tm0 2.340965 1_555
O11 Tm1 2.340965 1_555
