# generated using pymatgen
data_ZnCr2(SeS)2
_symmetry_space_group_name_H-M   'P 1'
_cell_length_a   7.30627274
_cell_length_b   7.30627274
_cell_length_c   7.30627274
_cell_angle_alpha   60.00000000
_cell_angle_beta   60.00000000
_cell_angle_gamma   60.00000000
_symmetry_Int_Tables_number   1
_chemical_formula_structural   ZnCr2(SeS)2
_chemical_formula_sum   'Zn2 Cr4 Se4 S4'
_cell_volume   275.78627115
_cell_formula_units_Z   2
loop_
 _symmetry_equiv_pos_site_id
 _symmetry_equiv_pos_as_xyz
  1  'x, y, z'
loop_
 _atom_site_type_symbol
 _atom_site_label
 _atom_site_symmetry_multiplicity
 _atom_site_fract_x
 _atom_site_fract_y
 _atom_site_fract_z
 _atom_site_occupancy
  Zn  Zn0  1  0.75000000  0.75000000  0.75000000  1
  Zn  Zn1  1  0.50000000  0.50000000  0.50000000  1
  Cr  Cr0  1  0.63790100  0.12070000  0.12070000  1
  Cr  Cr1  1  0.12070000  0.63790100  0.12070000  1
  Cr  Cr2  1  0.12070000  0.12070000  0.63790100  1
  Cr  Cr3  1  0.12070000  0.12070000  0.12070000  1
  Se  Se0  1  0.90610900  0.36463000  0.36463000  1
  Se  Se1  1  0.36463000  0.90610900  0.36463000  1
  Se  Se2  1  0.36463000  0.36463000  0.90610900  1
  Se  Se3  1  0.36463000  0.36463000  0.36463000  1
  S  S0  1  0.34186100  0.88604600  0.88604600  1
  S  S1  1  0.88604600  0.34186100  0.88604600  1
  S  S2  1  0.88604600  0.88604600  0.34186100  1
  S  S3  1  0.88604600  0.88604600  0.88604600  1
loop_
_geom_bond_atom_site_label_1
_geom_bond_atom_site_label_2
_geom_bond_distance
_geom_bond_site_symmetry_2
Cr0 S2 2.426586 1_545
Cr0 S1 2.426586 1_554
Cr0 S3 2.426596 1_544
Cr0 Se3 2.529539 1_555
Cr0 Se1 2.529548 1_545
Cr0 Se2 2.529548 1_554
Cr1 S2 2.426586 1_455
Cr1 S0 2.426586 1_554
Cr1 S3 2.426596 1_454
Cr1 Se3 2.529539 1_555
Cr1 Se0 2.529548 1_455
Cr1 Se2 2.529548 1_554
Cr2 S0 2.426586 1_545
Cr2 S1 2.426586 1_455
Cr2 S3 2.426596 1_445
Cr2 Se3 2.529539 1_555
Cr2 Se1 2.529548 1_545
Cr2 Se0 2.529548 1_455
Cr3 S2 2.426596 1_445
Cr3 S1 2.426596 1_454
Cr3 S0 2.426596 1_544
Cr3 Se0 2.529537 1_455
Cr3 Se1 2.529537 1_545
Cr3 Se2 2.529537 1_554
Se0 Zn1 2.422662 1_555
Se1 Zn1 2.422662 1_555
Se2 Zn1 2.422662 1_555
Se3 Zn1 2.422668 1_555
S0 Zn0 2.434772 1_555
S1 Zn0 2.434772 1_555
S2 Zn0 2.434772 1_555
S3 Zn0 2.434766 1_555
