# generated using pymatgen
data_MnHO2
_symmetry_space_group_name_H-M   'P 1'
_cell_length_a   6.07632000
_cell_length_b   6.10186800
_cell_length_c   9.00165200
_cell_angle_alpha   90.00000000
_cell_angle_beta   90.00000000
_cell_angle_gamma   90.00000000
_symmetry_Int_Tables_number   1
_chemical_formula_structural   MnHO2
_chemical_formula_sum   'Mn8 H8 O16'
_cell_volume   333.75337413
_cell_formula_units_Z   8
loop_
 _symmetry_equiv_pos_site_id
 _symmetry_equiv_pos_as_xyz
  1  'x, y, z'
loop_
 _atom_site_type_symbol
 _atom_site_label
 _atom_site_symmetry_multiplicity
 _atom_site_fract_x
 _atom_site_fract_y
 _atom_site_fract_z
 _atom_site_occupancy
  Mn  Mn0  1  0.71890700  0.25075600  0.50053300  1
  Mn  Mn1  1  0.28109300  0.75075600  0.99946700  1
  Mn  Mn2  1  0.21890700  0.24924400  0.49946700  1
  Mn  Mn3  1  0.78109300  0.74924400  0.00053300  1
  Mn  Mn4  1  0.49984700  0.02941200  0.25032700  1
  Mn  Mn5  1  0.99984700  0.47058800  0.74967300  1
  Mn  Mn6  1  0.50015300  0.52941200  0.24967300  1
  Mn  Mn7  1  0.00015300  0.97058800  0.75032700  1
  H  H0  1  0.54450400  0.17063300  0.98906300  1
  H  H1  1  0.95549600  0.82936700  0.48906300  1
  H  H2  1  0.07420100  0.28511700  0.23946500  1
  H  H3  1  0.42579900  0.71488300  0.73946500  1
  H  H4  1  0.45549600  0.67063300  0.51093700  1
  H  H5  1  0.04450400  0.32936700  0.01093700  1
  H  H6  1  0.92579900  0.78511700  0.26053500  1
  H  H7  1  0.57420100  0.21488300  0.76053500  1
  O  O0  1  0.47077900  0.05402500  0.47122300  1
  O  O1  1  0.02895800  0.47723200  0.97034000  1
  O  O2  1  0.47104200  0.52276800  0.47034000  1
  O  O3  1  0.02922100  0.94597500  0.97122300  1
  O  O4  1  0.69591100  0.27713500  0.27856900  1
  O  O5  1  0.27462900  0.72787100  0.77759500  1
  O  O6  1  0.22537100  0.27212900  0.27759500  1
  O  O7  1  0.80408900  0.72286500  0.77856900  1
  O  O8  1  0.52922100  0.55402500  0.02877700  1
  O  O9  1  0.97104200  0.97723200  0.52966000  1
  O  O10  1  0.52895800  0.02276800  0.02966000  1
  O  O11  1  0.97077900  0.44597500  0.52877700  1
  O  O12  1  0.77462900  0.77212900  0.22240500  1
  O  O13  1  0.19591100  0.22286500  0.72143100  1
  O  O14  1  0.30408900  0.77713500  0.22143100  1
  O  O15  1  0.72537100  0.22787100  0.72240500  1
loop_
_geom_bond_atom_site_label_1
_geom_bond_atom_site_label_2
_geom_bond_distance
_geom_bond_site_symmetry_2
Mn0 O0 1.945202 1_555
Mn0 O11 1.955988 1_555
Mn0 O15 2.002476 1_555
Mn0 O4 2.009380 1_555
Mn0 O2 2.257676 1_555
Mn0 O9 2.280683 1_545
Mn1 O8 1.945202 1_556
Mn1 O3 1.955988 1_555
Mn1 O5 2.002476 1_555
Mn1 O14 2.009380 1_556
Mn1 O10 2.257676 1_566
Mn1 O1 2.280683 1_555
Mn2 O11 1.945202 1_455
Mn2 O0 1.955988 1_555
Mn2 O6 2.002476 1_555
Mn2 O13 2.009380 1_555
Mn2 O9 2.257676 1_445
Mn2 O2 2.280683 1_555
Mn3 O3 1.945202 1_654
Mn3 O8 1.955988 1_555
Mn3 O12 2.002476 1_555
Mn3 O7 2.009380 1_554
Mn3 O1 2.257676 1_654
Mn3 O10 2.280683 1_565
Mn4 O4 1.941338 1_555
Mn4 O14 1.962695 1_545
Mn4 O10 1.994640 1_555
Mn4 O0 2.001900 1_555
Mn4 O6 2.243939 1_555
Mn4 O12 2.305549 1_545
Mn5 O13 1.941338 1_655
Mn5 O7 1.962695 1_555
Mn5 O1 1.994640 1_655
Mn5 O11 2.001900 1_555
Mn5 O15 2.243939 1_555
Mn5 O5 2.305549 1_655
Mn6 O14 1.941338 1_555
Mn6 O4 1.962695 1_555
Mn6 O2 1.994640 1_555
Mn6 O8 2.001900 1_555
Mn6 O12 2.243939 1_555
Mn6 O6 2.305549 1_555
Mn7 O7 1.941338 1_455
Mn7 O13 1.962695 1_565
Mn7 O9 1.994640 1_455
Mn7 O3 2.001900 1_555
Mn7 O5 2.243939 1_555
Mn7 O15 2.305549 1_465
H0 O10 0.978023 1_556
H1 O9 0.978023 1_555
H2 O6 0.983787 1_555
H3 O5 0.983787 1_555
H4 O2 0.978023 1_555
H5 O1 0.978023 1_554
H6 O12 0.983787 1_555
H7 O15 0.983787 1_555
