# generated using pymatgen
data_U6Fe16Si7
_symmetry_space_group_name_H-M   'P 1'
_cell_length_a   8.21478757
_cell_length_b   8.21478757
_cell_length_c   8.21478757
_cell_angle_alpha   60.00000000
_cell_angle_beta   60.00000000
_cell_angle_gamma   60.00000000
_symmetry_Int_Tables_number   1
_chemical_formula_structural   U6Fe16Si7
_chemical_formula_sum   'U6 Fe16 Si7'
_cell_volume   391.98912164
_cell_formula_units_Z   1
loop_
 _symmetry_equiv_pos_site_id
 _symmetry_equiv_pos_as_xyz
  1  'x, y, z'
loop_
 _atom_site_type_symbol
 _atom_site_label
 _atom_site_symmetry_multiplicity
 _atom_site_fract_x
 _atom_site_fract_y
 _atom_site_fract_z
 _atom_site_occupancy
  U  U0  1  0.28244700  0.71755400  0.28244700  1
  U  U1  1  0.71755400  0.28244700  0.71755300  1
  U  U2  1  0.71755400  0.71755400  0.28244600  1
  U  U3  1  0.28244700  0.28244700  0.71755300  1
  U  U4  1  0.71755300  0.28244700  0.28244600  1
  U  U5  1  0.28244700  0.71755400  0.71755300  1
  Fe  Fe0  1  0.65876500  0.65876500  0.65876500  1
  Fe  Fe1  1  0.65876500  0.65876500  0.02370600  1
  Fe  Fe2  1  0.32486200  0.32486200  0.02541500  1
  Fe  Fe3  1  0.32486200  0.02541500  0.32486200  1
  Fe  Fe4  1  0.12304900  0.63085300  0.12304900  1
  Fe  Fe5  1  0.32486200  0.32486200  0.32486200  1
  Fe  Fe6  1  0.87885600  0.87885600  0.87885600  1
  Fe  Fe7  1  0.12304900  0.12304900  0.12304900  1
  Fe  Fe8  1  0.02370600  0.65876500  0.65876500  1
  Fe  Fe9  1  0.02541500  0.32486200  0.32486200  1
  Fe  Fe10  1  0.65876500  0.02370600  0.65876500  1
  Fe  Fe11  1  0.12304900  0.12304900  0.63085300  1
  Fe  Fe12  1  0.87885600  0.87885600  0.36343300  1
  Fe  Fe13  1  0.36343300  0.87885600  0.87885600  1
  Fe  Fe14  1  0.87885600  0.36343300  0.87885600  1
  Fe  Fe15  1  0.63085300  0.12304900  0.12304900  1
  Si  Si0  1  0.99681300  0.99681300  0.50318700  1
  Si  Si1  1  0.00000000  0.00000000  0.00000000  1
  Si  Si2  1  0.99681300  0.50318700  0.99681300  1
  Si  Si3  1  0.50318700  0.50318700  0.99681300  1
  Si  Si4  1  0.50318700  0.99681300  0.99681300  1
  Si  Si5  1  0.50318700  0.99681300  0.50318700  1
  Si  Si6  1  0.99681300  0.50318700  0.50318700  1
loop_
_geom_bond_atom_site_label_1
_geom_bond_atom_site_label_2
_geom_bond_distance
_geom_bond_site_symmetry_2
Fe0 Si6 2.348112 1_555
Fe0 Si3 2.348112 1_555
Fe0 Si5 2.348112 1_555
Fe0 Fe12 2.630545 1_555
Fe0 Fe13 2.630545 1_555
Fe0 Fe14 2.630545 1_555
Fe0 U1 2.696368 1_555
Fe0 U5 2.696368 1_555
Fe0 U2 2.696373 1_555
Fe1 Si4 2.348110 1_554
Fe1 Si2 2.348110 1_554
Fe1 Si3 2.348118 1_554
Fe1 Fe6 2.630545 1_554
Fe1 Fe13 2.630545 1_554
Fe1 Fe14 2.630545 1_554
Fe1 U2 2.696365 1_555
Fe1 U4 2.696365 1_555
Fe1 U0 2.696368 1_555
Fe2 Si3 2.409281 1_554
Fe2 Si2 2.409288 1_454
Fe2 Si4 2.409288 1_544
Fe2 Fe5 2.459893 1_555
Fe2 Fe9 2.459893 1_555
Fe2 Fe3 2.459893 1_555
Fe2 Fe4 2.495859 1_555
Fe2 Fe7 2.495866 1_555
Fe2 U3 2.919338 1_554
Fe2 U5 2.919338 1_554
Fe2 U1 2.919338 1_554
Fe3 Si5 2.409281 1_545
Fe3 Si0 2.409288 1_445
Fe3 Si4 2.409288 1_544
Fe3 Fe5 2.459893 1_555
Fe3 Fe9 2.459893 1_555
Fe3 Fe7 2.495866 1_555
Fe3 U0 2.919330 1_545
Fe3 U5 2.919330 1_545
Fe3 U2 2.919335 1_545
Fe4 Si1 2.475997 1_565
Fe4 Fe9 2.495859 1_555
Fe4 Fe5 2.495863 1_555
Fe4 Si6 2.549726 1_455
Fe4 Si3 2.549726 1_554
Fe4 Si2 2.549726 1_454
Fe4 U2 2.741562 1_455
Fe4 U5 2.741569 1_554
Fe4 U0 2.741576 1_555
Fe4 Fe6 2.837076 1_454
Fe5 Si6 2.409285 1_455
Fe5 Si3 2.409285 1_554
Fe5 Si5 2.409285 1_545
Fe5 Fe9 2.459893 1_555
Fe5 U4 2.919326 1_555
Fe5 U3 2.919330 1_555
Fe5 U0 2.919338 1_555
Fe6 Si1 2.437664 1_666
Fe6 Si0 2.521862 1_555
Fe6 Si4 2.521862 1_555
Fe6 Si2 2.521862 1_555
Fe6 Fe8 2.630545 1_655
Fe6 U2 2.733688 1_556
Fe6 U5 2.733695 1_655
Fe6 U1 2.733695 1_565
Fe7 Si1 2.475997 1_555
Fe7 Fe9 2.495866 1_555
Fe7 Si0 2.549726 1_445
Fe7 Si4 2.549726 1_544
Fe7 Si2 2.549726 1_454
Fe7 U0 2.741564 1_545
Fe7 U4 2.741569 1_455
Fe7 U3 2.741570 1_554
Fe8 Si2 2.348110 1_455
Fe8 Si0 2.348110 1_455
Fe8 Si6 2.348118 1_455
Fe8 U5 2.696368 1_555
Fe8 U0 2.696368 1_555
Fe8 U3 2.696368 1_555
Fe9 Si6 2.409281 1_455
Fe9 Si2 2.409288 1_454
Fe9 Si0 2.409288 1_445
Fe9 U1 2.919330 1_455
Fe9 U2 2.919335 1_455
Fe9 U4 2.919343 1_455
Fe10 Si0 2.348110 1_545
Fe10 Si4 2.348110 1_545
Fe10 Si5 2.348118 1_545
Fe10 Fe6 2.630545 1_545
Fe10 Fe12 2.630545 1_545
Fe10 Fe13 2.630545 1_545
Fe10 U1 2.696368 1_555
Fe10 U3 2.696368 1_555
Fe10 U4 2.696373 1_555
Fe11 Si1 2.475997 1_556
Fe11 Fe9 2.495859 1_555
Fe11 Fe3 2.495859 1_555
Fe11 Fe5 2.495863 1_555
Fe11 Si6 2.549726 1_455
Fe11 Si5 2.549726 1_545
Fe11 Si0 2.549726 1_445
Fe11 U1 2.741563 1_455
Fe11 U5 2.741563 1_545
Fe11 U3 2.741570 1_555
Fe11 Fe6 2.837076 1_445
Fe11 Fe14 2.837082 1_455
Fe11 Fe13 2.837082 1_545
Fe12 Si1 2.437671 1_665
Fe12 Si0 2.521855 1_555
Fe12 Si5 2.521862 1_555
Fe12 Si6 2.521862 1_555
Fe12 Fe8 2.630545 1_655
Fe12 U2 2.733694 1_555
Fe12 U4 2.733694 1_565
Fe12 U0 2.733695 1_655
Fe12 Fe7 2.837076 1_665
Fe12 Fe15 2.837082 1_565
Fe12 Fe4 2.837082 1_655
Fe13 Si1 2.437671 1_566
Fe13 Si4 2.521855 1_555
Fe13 Si3 2.521862 1_555
Fe13 Si5 2.521862 1_555
Fe13 U0 2.733695 1_556
Fe13 U3 2.733695 1_565
Fe13 U5 2.733695 1_555
Fe13 Fe7 2.837076 1_566
Fe13 Fe4 2.837082 1_556
Fe14 Si1 2.437671 1_656
Fe14 Si2 2.521855 1_555
Fe14 Si3 2.521862 1_555
Fe14 Si6 2.521862 1_555
Fe14 Fe8 2.630545 1_655
Fe14 U4 2.733688 1_556
Fe14 U1 2.733695 1_555
Fe14 U3 2.733695 1_655
Fe14 Fe7 2.837076 1_656
Fe14 Fe15 2.837082 1_556
Fe15 Si1 2.475997 1_655
Fe15 Fe3 2.495859 1_555
Fe15 Fe2 2.495859 1_555
Fe15 Fe5 2.495863 1_555
Fe15 Si5 2.549726 1_545
Fe15 Si3 2.549726 1_554
Fe15 Si4 2.549726 1_544
Fe15 U2 2.741562 1_545
Fe15 U4 2.741563 1_555
Fe15 U1 2.741569 1_554
Fe15 Fe6 2.837076 1_544
Si0 U0 2.928954 1_655
Si0 U1 2.928959 1_565
Si0 U5 2.928959 1_655
Si0 U4 2.928965 1_565
Si2 U2 2.928958 1_556
Si2 U4 2.928959 1_556
Si2 U3 2.928960 1_655
Si2 U5 2.928965 1_655
Si3 U4 2.928953 1_556
Si3 U5 2.928959 1_555
Si3 U1 2.928959 1_555
Si3 U0 2.928965 1_556
Si4 U0 2.928954 1_556
Si4 U2 2.928958 1_556
Si4 U3 2.928960 1_565
Si4 U1 2.928965 1_565
Si5 U5 2.928953 1_555
Si5 U2 2.928958 1_555
Si5 U4 2.928959 1_565
Si5 U3 2.928960 1_565
Si6 U1 2.928953 1_555
Si6 U2 2.928958 1_555
Si6 U3 2.928960 1_655
Si6 U0 2.928965 1_655
