# generated using pymatgen
data_InBi3Te4
_symmetry_space_group_name_H-M   'P 1'
_cell_length_a   4.46782200
_cell_length_b   7.69950900
_cell_length_c   24.28373274
_cell_angle_alpha   89.46069465
_cell_angle_beta   90.00000000
_cell_angle_gamma   90.00000000
_symmetry_Int_Tables_number   1
_chemical_formula_structural   InBi3Te4
_chemical_formula_sum   'In3 Bi9 Te12'
_cell_volume   835.32426768
_cell_formula_units_Z   3
loop_
 _symmetry_equiv_pos_site_id
 _symmetry_equiv_pos_as_xyz
  1  'x, y, z'
loop_
 _atom_site_type_symbol
 _atom_site_label
 _atom_site_symmetry_multiplicity
 _atom_site_fract_x
 _atom_site_fract_y
 _atom_site_fract_z
 _atom_site_occupancy
  In  In0  1  0.50000000  0.99946800  0.12152800  1
  In  In1  1  0.00000000  0.50037700  0.12123100  1
  In  In2  1  0.50000000  0.00078000  0.87809500  1
  Bi  Bi0  1  0.00000000  0.50076200  0.87637000  1
  Bi  Bi1  1  0.50000000  0.66595200  0.53482700  1
  Bi  Bi2  1  0.00000000  0.16640700  0.53482900  1
  Bi  Bi3  1  0.00000000  0.83454600  0.46495300  1
  Bi  Bi4  1  0.50000000  0.33350200  0.46459000  1
  Bi  Bi5  1  0.50000000  0.66673200  0.28943600  1
  Bi  Bi6  1  0.00000000  0.16671700  0.28908200  1
  Bi  Bi7  1  0.00000000  0.83321200  0.70984900  1
  Bi  Bi8  1  0.50000000  0.33379500  0.71026700  1
  Te  Te0  1  0.50000000  0.67188100  0.79185800  1
  Te  Te1  1  0.00000000  0.15860100  0.79409100  1
  Te  Te2  1  0.00000000  0.83380700  0.20523800  1
  Te  Te3  1  0.50000000  0.33348600  0.20513200  1
  Te  Te4  1  0.50000000  0.66824900  0.06151300  1
  Te  Te5  1  0.00000000  0.16665600  0.06209600  1
  Te  Te6  1  0.00000000  0.83925700  0.94143800  1
  Te  Te7  1  0.50000000  0.32742000  0.94439300  1
  Te  Te8  1  0.50000000  0.99844400  0.36186800  1
  Te  Te9  1  0.00000000  0.49820500  0.36210300  1
  Te  Te10  1  0.50000000  0.00093300  0.63743500  1
  Te  Te11  1  0.00000000  0.50081100  0.63777800  1
loop_
_geom_bond_atom_site_label_1
_geom_bond_atom_site_label_2
_geom_bond_distance
_geom_bond_site_symmetry_2
In0 Te5 2.948788 1_565
In0 Te5 2.948788 1_665
In0 Te4 2.949167 1_555
In0 Te2 3.271194 1_555
In0 Te2 3.271194 1_655
In0 Te3 3.291519 1_565
In1 Te4 2.954441 1_555
In1 Te4 2.954441 1_455
In1 Te5 2.955314 1_555
In1 Te3 3.277707 1_455
In1 Te3 3.277707 1_555
In1 Te2 3.294080 1_555
In2 Te6 2.977764 1_645
In2 Te6 2.977764 1_545
In2 Te7 2.998877 1_555
In2 Te1 3.252935 1_655
In2 Te1 3.252935 1_555
In2 Te0 3.301238 1_545
Bi0 Te6 3.060512 1_555
Bi0 Te7 3.075509 1_455
Bi0 Te7 3.075509 1_555
Bi0 Te0 3.299568 1_555
Bi0 Te0 3.299568 1_455
Bi0 Te1 3.321400 1_555
Bi1 Bi3 3.084327 1_555
Bi1 Bi3 3.084327 1_655
Bi1 Bi4 3.089238 1_555
Bi1 Te11 3.577347 1_655
Bi1 Te11 3.577347 1_555
Bi1 Te10 3.603025 1_565
Bi2 Bi3 3.080552 1_545
Bi2 Bi4 3.084405 1_455
Bi2 Bi4 3.084405 1_555
Bi2 Te10 3.572422 1_555
Bi2 Te10 3.572422 1_455
Bi2 Te11 3.605610 1_555
Bi3 Te8 3.576286 1_555
Bi3 Te8 3.576286 1_455
Bi3 Te9 3.614694 1_555
Bi4 Te9 3.568342 1_555
Bi4 Te9 3.568342 1_655
Bi4 Te8 3.605387 1_545
Bi5 Te8 3.114704 1_555
Bi5 Te9 3.121676 1_655
Bi5 Te9 3.121676 1_555
Bi5 Te2 3.282715 1_555
Bi5 Te2 3.282715 1_655
Bi5 Te3 3.297494 1_555
Bi6 Te9 3.121494 1_555
Bi6 Te8 3.122497 1_445
Bi6 Te8 3.122497 1_545
Bi6 Te3 3.278080 1_555
Bi6 Te3 3.278080 1_455
Bi6 Te2 3.288456 1_545
Bi7 Te11 3.114081 1_555
Bi7 Te10 3.115687 1_465
Bi7 Te10 3.115687 1_565
Bi7 Te0 3.233077 1_555
Bi7 Te0 3.233077 1_455
Bi7 Te1 3.249326 1_565
Bi8 Te11 3.114492 1_555
Bi8 Te11 3.114492 1_655
Bi8 Te10 3.127573 1_555
Bi8 Te0 3.286166 1_555
Bi8 Te1 3.301776 1_655
Bi8 Te1 3.301776 1_555
