# generated using pymatgen
data_Mg5Si6
_symmetry_space_group_name_H-M   'P 1'
_cell_length_a   5.06448200
_cell_length_b   5.69842644
_cell_length_c   14.31023609
_cell_angle_alpha   89.99875311
_cell_angle_beta   92.72451317
_cell_angle_gamma   100.05506225
_symmetry_Int_Tables_number   1
_chemical_formula_structural   Mg5Si6
_chemical_formula_sum   'Mg10 Si12'
_cell_volume   406.17002028
_cell_formula_units_Z   2
loop_
 _symmetry_equiv_pos_site_id
 _symmetry_equiv_pos_as_xyz
  1  'x, y, z'
loop_
 _atom_site_type_symbol
 _atom_site_label
 _atom_site_symmetry_multiplicity
 _atom_site_fract_x
 _atom_site_fract_y
 _atom_site_fract_z
 _atom_site_occupancy
  Mg  Mg0  1  0.17031700  0.04754500  0.99741800  1
  Mg  Mg1  1  0.26414400  0.64755200  0.49469800  1
  Mg  Mg2  1  0.75226900  0.83797400  0.33138700  1
  Mg  Mg3  1  0.38777000  0.13488500  0.59530100  1
  Mg  Mg4  1  0.63106300  0.92060500  0.86562400  1
  Mg  Mg5  1  0.53961400  0.36631800  0.19841000  1
  Mg  Mg6  1  0.31777400  0.14757600  0.38086300  1
  Mg  Mg7  1  0.92239200  0.32066500  0.67115100  1
  Mg  Mg8  1  0.01645100  0.51372200  0.88225100  1
  Mg  Mg9  1  0.07591600  0.55031400  0.10492000  1
  Si  Si0  1  0.52651300  0.59326500  0.00726900  1
  Si  Si1  1  0.70375300  0.22382600  0.02009200  1
  Si  Si2  1  0.85099600  0.93181700  0.52217200  1
  Si  Si3  1  0.73013100  0.47953800  0.50259300  1
  Si  Si4  1  0.63177600  0.90173300  0.13498800  1
  Si  Si5  1  0.14048500  0.01495000  0.80186600  1
  Si  Si6  1  0.81431700  0.79320300  0.68390600  1
  Si  Si7  1  0.13336500  0.97955700  0.18645100  1
  Si  Si8  1  0.22258700  0.66149400  0.29247000  1
  Si  Si9  1  0.47686600  0.37329200  0.77213800  1
  Si  Si10  1  0.31259100  0.71525700  0.70338100  1
  Si  Si11  1  0.87506900  0.35187200  0.35417300  1
loop_
_geom_bond_atom_site_label_1
_geom_bond_atom_site_label_2
_geom_bond_distance
_geom_bond_site_symmetry_2
Mg0 Si1 2.716969 1_556
Mg0 Si7 2.743262 1_546
Mg0 Si1 2.756702 1_456
Mg0 Si5 2.799709 1_555
Mg0 Si4 3.204439 1_546
Mg1 Si3 2.694914 1_555
Mg1 Si3 2.714517 1_455
Mg1 Si8 2.893677 1_555
Mg1 Si2 2.901440 1_455
Mg1 Si10 3.004063 1_555
Mg1 Si11 3.038037 1_455
Mg1 Si2 3.133644 1_555
Mg2 Si8 2.726468 1_555
Mg2 Si2 2.786891 1_555
Mg2 Si8 2.820923 1_655
Mg2 Si4 2.884046 1_555
Mg2 Si11 2.900603 1_565
Mg2 Si7 2.917968 1_655
Mg2 Si11 2.957759 1_555
Mg2 Si3 3.183219 1_555
Mg2 Mg5 3.286242 1_555
Mg3 Si3 2.766423 1_555
Mg3 Si10 2.827177 1_545
Mg3 Si9 2.851424 1_555
Mg3 Mg7 2.889578 1_555
Mg3 Si2 2.907829 1_445
Mg3 Mg7 2.994731 1_455
Mg3 Si2 3.019818 1_545
Mg4 Si5 2.741734 1_665
Mg4 Si5 2.746861 1_565
Mg4 Si0 2.761412 1_556
Mg4 Si1 2.776325 1_566
Mg4 Si10 2.888986 1_555
Mg4 Si6 2.935205 1_555
Mg4 Si9 3.107715 1_565
Mg5 Si7 2.739127 1_545
Mg5 Si11 2.747788 1_555
Mg5 Si1 2.880855 1_555
Mg5 Si8 2.892662 1_555
Mg5 Si4 2.919277 1_545
Mg5 Mg9 2.994193 1_555
Mg5 Si0 3.028390 1_555
Mg5 Mg6 3.069648 1_555
Mg5 Mg9 3.101183 1_655
Mg5 Si4 3.145344 1_555
Mg6 Si11 2.712572 1_455
Mg6 Si11 2.902116 1_555
Mg6 Si7 2.994958 1_545
Mg6 Si8 2.996782 1_545
Mg6 Si3 3.041221 1_555
Mg6 Si2 3.260164 1_445
Mg7 Si10 2.745120 1_655
Mg7 Si3 2.769549 1_555
Mg7 Si9 2.795682 1_555
Mg7 Si6 2.847425 1_555
Mg7 Si5 2.868663 1_655
Mg7 Si6 2.966843 1_545
Mg7 Si2 3.038562 1_545
Mg7 Si9 3.063348 1_655
Mg7 Mg8 3.200518 1_655
Mg8 Si1 2.917382 1_456
Mg8 Si0 3.038232 1_556
Mg8 Si5 3.052513 1_565
Mg8 Si9 3.068903 1_455
Mg8 Si9 3.092148 1_555
Mg8 Si10 3.143818 1_555
Mg9 Si1 2.654344 1_455
Mg9 Si7 2.673615 1_555
Mg9 Si0 2.707116 1_555
Mg9 Si8 2.793315 1_555
Mg9 Si4 3.168071 1_555
Si0 Si1 2.432191 1_555
Si0 Si4 2.508932 1_555
Si1 Si4 2.455246 1_545
Si2 Si6 2.450442 1_555
Si2 Si3 2.555074 1_555
Si4 Si7 2.573106 1_655
Si4 Si7 2.770957 1_555
Si5 Si9 2.471245 1_555
Si5 Si6 2.486159 1_445
Si7 Si8 2.451864 1_555
Si10 Si9 2.438397 1_555
Si10 Si5 2.509814 1_565
Si10 Si6 2.530763 1_555
Si10 Si6 2.639609 1_455
Si11 Si3 2.431844 1_555
Si11 Si8 2.460399 1_655
