# generated using pymatgen
data_Li4Nb3Ni3(TeO8)2
_symmetry_space_group_name_H-M   'P 1'
_cell_length_a   6.16302165
_cell_length_b   6.16302165
_cell_length_c   10.40931879
_cell_angle_alpha   89.47752724
_cell_angle_beta   89.47752724
_cell_angle_gamma   58.36769782
_symmetry_Int_Tables_number   1
_chemical_formula_structural   Li4Nb3Ni3(TeO8)2
_chemical_formula_sum   'Li4 Nb3 Ni3 Te2 O16'
_cell_volume   336.61670250
_cell_formula_units_Z   1
loop_
 _symmetry_equiv_pos_site_id
 _symmetry_equiv_pos_as_xyz
  1  'x, y, z'
loop_
 _atom_site_type_symbol
 _atom_site_label
 _atom_site_symmetry_multiplicity
 _atom_site_fract_x
 _atom_site_fract_y
 _atom_site_fract_z
 _atom_site_occupancy
  Li  Li0  1  0.66357300  0.66357300  0.90496700  1
  Li  Li1  1  0.99594200  0.99594200  0.98192100  1
  Li  Li2  1  0.99222300  0.99222300  0.49970400  1
  Li  Li3  1  0.33709700  0.33709700  0.40482800  1
  Nb  Nb0  1  0.84293500  0.34360100  0.22081500  1
  Nb  Nb1  1  0.34360100  0.84293500  0.22081500  1
  Nb  Nb2  1  0.17995400  0.17995400  0.73249700  1
  Ni  Ni0  1  0.83251800  0.83251800  0.20529600  1
  Ni  Ni1  1  0.65873200  0.17043000  0.71513600  1
  Ni  Ni2  1  0.17043000  0.65873200  0.71513600  1
  Te  Te0  1  0.67111400  0.67111400  0.51680400  1
  Te  Te1  1  0.35712100  0.35712100  0.99350400  1
  O  O0  1  0.83343500  0.33570600  0.60302500  1
  O  O1  1  0.50883700  0.50883700  0.32922400  1
  O  O2  1  0.66549600  0.66549600  0.10125100  1
  O  O3  1  0.99200000  0.99200000  0.31404800  1
  O  O4  1  0.00620700  0.00620700  0.79911000  1
  O  O5  1  0.33570600  0.83343500  0.60302500  1
  O  O6  1  0.98941600  0.49020000  0.31939200  1
  O  O7  1  0.49020000  0.98941600  0.31939200  1
  O  O8  1  0.14180500  0.14180500  0.09620300  1
  O  O9  1  0.83309500  0.83309500  0.60238200  1
  O  O10  1  0.48253900  0.01634500  0.83349800  1
  O  O11  1  0.01634500  0.48253900  0.83349800  1
  O  O12  1  0.32096900  0.32096900  0.60717600  1
  O  O13  1  0.68223200  0.17643600  0.09139000  1
  O  O14  1  0.48093100  0.48093100  0.85209600  1
  O  O15  1  0.17643600  0.68223200  0.09139000  1
loop_
_geom_bond_atom_site_label_1
_geom_bond_atom_site_label_2
_geom_bond_distance
_geom_bond_site_symmetry_2
Li0 O10 1.991579 1_565
Li0 O11 1.991579 1_655
Li0 O2 2.043504 1_556
Li0 O14 2.046604 1_555
Li1 O4 1.904989 1_665
Li1 O8 1.979410 1_666
Li1 O13 2.000228 1_566
Li1 O15 2.000228 1_656
Li2 O3 1.932579 1_555
Li2 O9 2.009117 1_555
Li2 O5 2.108308 1_655
Li2 O0 2.108308 1_565
Li3 O1 2.001162 1_555
Li3 O6 2.042386 1_455
Li3 O7 2.042386 1_545
Li3 O12 2.111636 1_555
Nb0 O6 1.890387 1_555
Nb0 O8 2.050607 1_655
Nb0 O1 2.080699 1_555
Nb0 O3 2.090735 1_545
Nb0 O2 2.093962 1_555
Nb0 O13 2.230983 1_555
Nb1 O7 1.890387 1_555
Nb1 O8 2.050607 1_565
Nb1 O1 2.080699 1_555
Nb1 O3 2.090735 1_455
Nb1 O2 2.093962 1_555
Nb1 O15 2.230983 1_555
Nb2 O11 1.908856 1_555
Nb2 O10 1.908856 1_555
Nb2 O4 1.987386 1_555
Nb2 O12 1.990787 1_555
Nb2 O0 2.275340 1_455
Nb2 O5 2.275340 1_545
Ni0 O3 2.065813 1_555
Ni0 O2 2.108134 1_555
Ni0 O7 2.152175 1_555
Ni0 O6 2.152175 1_555
Ni0 O15 2.161311 1_655
Ni0 O13 2.161311 1_565
Ni1 O4 2.029523 1_655
Ni1 O12 2.110628 1_555
Ni1 O9 2.129003 1_545
Ni1 O10 2.152865 1_555
Ni1 O0 2.159747 1_555
Ni1 O14 2.171854 1_555
Ni2 O4 2.029523 1_565
Ni2 O12 2.110628 1_555
Ni2 O9 2.129003 1_455
Ni2 O11 2.152865 1_555
Ni2 O5 2.159747 1_555
Ni2 O14 2.171854 1_555
O0 Te0 1.972998 1_555
O1 Te0 2.633143 1_555
O5 Te0 1.972998 1_555
O6 Te0 2.643511 1_555
O7 Te0 2.643511 1_555
O8 Te1 2.541654 1_554
O9 Te0 1.965834 1_555
O10 Te1 2.473848 1_555
O11 Te1 2.473848 1_555
O13 Te1 1.992252 1_554
O14 Te1 1.975069 1_555
O15 Te1 1.992252 1_554
