# generated using pymatgen
data_Sr5Fe4MoO15
_symmetry_space_group_name_H-M   'P 1'
_cell_length_a   5.59156530
_cell_length_b   6.85409453
_cell_length_c   8.85595721
_cell_angle_alpha   104.89346458
_cell_angle_beta   71.56536654
_cell_angle_gamma   89.92689525
_symmetry_Int_Tables_number   1
_chemical_formula_structural   Sr5Fe4MoO15
_chemical_formula_sum   'Sr5 Fe4 Mo1 O15'
_cell_volume   309.90791741
_cell_formula_units_Z   1
loop_
 _symmetry_equiv_pos_site_id
 _symmetry_equiv_pos_as_xyz
  1  'x, y, z'
loop_
 _atom_site_type_symbol
 _atom_site_label
 _atom_site_symmetry_multiplicity
 _atom_site_fract_x
 _atom_site_fract_y
 _atom_site_fract_z
 _atom_site_occupancy
  Sr  Sr0  1  0.60000000  0.59996900  0.79999500  1
  Sr  Sr1  1  0.20621500  0.20333900  0.58691900  1
  Sr  Sr2  1  0.99375700  0.99669000  0.01308100  1
  Sr  Sr3  1  0.39507000  0.40902800  0.20968700  1
  Sr  Sr4  1  0.80489600  0.79097700  0.39031100  1
  Fe  Fe0  1  0.99940100  0.50798500  0.00155900  1
  Fe  Fe1  1  0.20060500  0.69201300  0.59842700  1
  Fe  Fe2  1  0.39726000  0.89902600  0.20541300  1
  Fe  Fe3  1  0.80271900  0.30098100  0.39459600  1
  Mo  Mo0  1  0.60001200  0.09996800  0.79999300  1
  O  O0  1  0.10003000  0.59998300  0.79999200  1
  O  O1  1  0.10003900  0.10002000  0.30002000  1
  O  O2  1  0.60003400  0.09999000  0.30001800  1
  O  O3  1  0.69800900  0.19375400  0.60254400  1
  O  O4  1  0.50203500  0.00617500  0.99742600  1
  O  O5  1  0.90242000  0.40018900  0.19353400  1
  O  O6  1  0.29753500  0.79984500  0.40647300  1
  O  O7  1  0.50285300  0.49691100  0.49970700  1
  O  O8  1  0.69716400  0.70314500  0.10031400  1
  O  O9  1  0.99621500  0.49617300  0.49982700  1
  O  O10  1  0.20375000  0.70386200  0.10016200  1
  O  O11  1  0.89299400  0.90331900  0.70478100  1
  O  O12  1  0.30702300  0.29665500  0.89519200  1
  O  O13  1  0.40257700  0.90360500  0.70559300  1
  O  O14  1  0.79738600  0.29639600  0.89443800  1
loop_
_geom_bond_atom_site_label_1
_geom_bond_atom_site_label_2
_geom_bond_distance
_geom_bond_site_symmetry_2
Fe0 O5 1.947825 1_555
Fe0 O0 1.960857 1_654
Fe0 O8 1.966801 1_555
Fe0 O10 1.975576 1_655
Fe0 O12 2.052226 1_654
Fe0 O14 2.062477 1_554
Fe1 O6 1.947810 1_555
Fe1 O0 1.960963 1_555
Fe1 O7 1.966621 1_555
Fe1 O9 1.975585 1_455
Fe1 O11 2.052085 1_455
Fe1 O13 2.062503 1_555
Fe2 O10 1.956927 1_555
Fe2 O8 1.961049 1_555
Fe2 O1 1.970292 1_565
Fe2 O2 1.973916 1_565
Fe2 O6 1.984631 1_555
Fe2 O4 2.071052 1_564
Fe3 O9 1.956896 1_555
Fe3 O7 1.961091 1_555
Fe3 O1 1.970557 1_655
Fe3 O2 1.973570 1_555
Fe3 O5 1.984753 1_555
Fe3 O3 2.071055 1_555
Mo0 O13 1.933436 1_545
Mo0 O14 1.933628 1_555
Mo0 O4 1.934788 1_555
Mo0 O3 1.934888 1_555
Mo0 O11 1.935975 1_545
Mo0 O12 1.936156 1_555
O0 Sr0 2.795623 1_555
O0 Sr0 2.795942 1_455
O0 Sr1 2.820358 1_555
O0 Sr2 2.820749 1_456
O1 Sr1 2.709172 1_555
O1 Sr2 2.709812 1_445
O1 Sr3 2.809354 1_555
O1 Sr4 2.809755 1_445
O2 Sr2 2.708930 1_545
O2 Sr1 2.709018 1_555
O2 Sr4 2.807353 1_545
O2 Sr3 2.807983 1_555
O3 Sr1 2.798262 1_555
O3 Sr1 2.802677 1_655
O3 Sr0 2.827958 1_555
O3 Sr4 2.851179 1_545
O4 Sr2 2.797934 1_546
O4 Sr2 2.802983 1_446
O4 Sr0 2.827854 1_545
O4 Sr3 2.851681 1_556
O5 Sr4 2.739418 1_555
O5 Sr2 2.769775 1_545
O5 Sr3 2.794723 1_555
O5 Sr3 2.803143 1_655
O6 Sr3 2.739605 1_555
O6 Sr1 2.769729 1_565
O6 Sr4 2.794764 1_555
O6 Sr4 2.803112 1_455
O7 Sr1 2.719140 1_555
O7 Sr3 2.739959 1_555
O7 Sr0 2.795545 1_555
O7 Sr4 2.798402 1_555
O8 Sr2 2.718910 1_555
O8 Sr4 2.739625 1_555
O8 Sr0 2.795859 1_554
O8 Sr3 2.798757 1_555
O9 Sr1 2.713803 1_655
O9 Sr3 2.741584 1_655
O9 Sr0 2.789264 1_555
O9 Sr4 2.797499 1_555
O10 Sr2 2.713689 1_455
O10 Sr4 2.741636 1_455
O10 Sr0 2.789361 1_554
O10 Sr3 2.797721 1_555
O11 Sr0 2.784651 1_555
O11 Sr2 2.873521 1_556
O11 Sr1 2.888232 1_665
O11 Sr4 2.890968 1_555
O12 Sr0 2.784354 1_555
O12 Sr1 2.873425 1_555
O12 Sr2 2.888136 1_446
O12 Sr3 2.891047 1_556
O13 Sr0 2.778652 1_555
O13 Sr2 2.866040 1_456
O13 Sr1 2.892161 1_565
O13 Sr4 2.892691 1_555
O14 Sr0 2.778419 1_555
O14 Sr1 2.866246 1_655
O14 Sr2 2.891849 1_546
O14 Sr3 2.892493 1_556
