# generated using pymatgen
data_UPt5
_symmetry_space_group_name_H-M   'P 1'
_cell_length_a   5.27681175
_cell_length_b   5.27681175
_cell_length_c   5.27681175
_cell_angle_alpha   60.00009149
_cell_angle_beta   59.99999087
_cell_angle_gamma   59.99999087
_symmetry_Int_Tables_number   1
_chemical_formula_structural   UPt5
_chemical_formula_sum   'U1 Pt5'
_cell_volume   103.89629127
_cell_formula_units_Z   1
loop_
 _symmetry_equiv_pos_site_id
 _symmetry_equiv_pos_as_xyz
  1  'x, y, z'
loop_
 _atom_site_type_symbol
 _atom_site_label
 _atom_site_symmetry_multiplicity
 _atom_site_fract_x
 _atom_site_fract_y
 _atom_site_fract_z
 _atom_site_occupancy
  U  U0  1  -0.00000000  0.00000000  0.00000000  1
  Pt  Pt0  1  0.75000000  0.75000000  0.75000000  1
  Pt  Pt1  1  0.87373972  0.37541976  0.37541976  1
  Pt  Pt2  1  0.37541976  0.87373872  0.37541976  1
  Pt  Pt3  1  0.37541976  0.37541976  0.87373872  1
  Pt  Pt4  1  0.37541976  0.37541976  0.37541976  1
loop_
_geom_bond_atom_site_label_1
_geom_bond_atom_site_label_2
_geom_bond_distance
_geom_bond_site_symmetry_2
Pt0 Pt2 3.092859 1_556
Pt0 Pt3 3.092859 1_565
Pt0 Pt2 3.092861 1_655
Pt0 Pt3 3.092861 1_655
Pt0 Pt4 3.092863 1_655
Pt0 Pt1 3.092866 1_555
Pt0 Pt1 3.092866 1_565
Pt0 Pt1 3.092866 1_556
Pt0 Pt4 3.092868 1_556
Pt0 Pt4 3.092868 1_565
Pt0 Pt2 3.092870 1_555
Pt0 Pt3 3.092870 1_555
Pt0 U0 3.231373 1_566
Pt0 U0 3.231373 1_666
Pt0 U0 3.231376 1_665
Pt0 U0 3.231376 1_656
Pt1 Pt2 2.629538 1_555
Pt1 Pt3 2.629538 1_555
Pt1 Pt4 2.629541 1_555
Pt1 Pt4 2.647271 1_655
Pt1 Pt3 2.647273 1_654
Pt1 Pt2 2.647273 1_645
Pt1 U0 3.094750 1_655
Pt1 U0 3.094759 1_665
Pt1 U0 3.094759 1_656
Pt2 Pt4 2.629535 1_555
Pt2 Pt3 2.629539 1_555
Pt2 Pt4 2.647276 1_565
Pt2 Pt3 2.647280 1_564
Pt2 U0 3.094750 1_565
Pt2 U0 3.094757 1_566
Pt2 U0 3.094759 1_665
Pt3 Pt4 2.629535 1_555
Pt3 Pt4 2.647276 1_556
Pt3 U0 3.094750 1_556
Pt3 U0 3.094757 1_566
Pt3 U0 3.094759 1_656
Pt4 U0 3.094752 1_655
Pt4 U0 3.094757 1_565
Pt4 U0 3.094757 1_556
