# generated using pymatgen
data_U3Sn7
_symmetry_space_group_name_H-M   'P 1'
_cell_length_a   12.27196199
_cell_length_b   12.27196199
_cell_length_c   4.65825700
_cell_angle_alpha   90.00000000
_cell_angle_beta   90.00000000
_cell_angle_gamma   158.89996740
_symmetry_Int_Tables_number   1
_chemical_formula_structural   U3Sn7
_chemical_formula_sum   'U3 Sn7'
_cell_volume   252.55195725
_cell_formula_units_Z   1
loop_
 _symmetry_equiv_pos_site_id
 _symmetry_equiv_pos_as_xyz
  1  'x, y, z'
loop_
 _atom_site_type_symbol
 _atom_site_label
 _atom_site_symmetry_multiplicity
 _atom_site_fract_x
 _atom_site_fract_y
 _atom_site_fract_z
 _atom_site_occupancy
  U  U0  1  0.80830100  0.19169900  0.00000000  1
  U  U1  1  0.19169900  0.80830100  0.00000000  1
  U  U2  1  0.00000000  0.00000000  0.00000000  1
  Sn  Sn0  1  0.90101800  0.09898200  0.50000000  1
  Sn  Sn1  1  0.09898200  0.90101800  0.50000000  1
  Sn  Sn2  1  0.70575100  0.29424900  0.50000000  1
  Sn  Sn3  1  0.29424900  0.70575100  0.50000000  1
  Sn  Sn4  1  0.59726400  0.40273600  0.00000000  1
  Sn  Sn5  1  0.40273600  0.59726400  0.00000000  1
  Sn  Sn6  1  0.50000000  0.50000000  0.50000000  1
loop_
_geom_bond_atom_site_label_1
_geom_bond_atom_site_label_2
_geom_bond_distance
_geom_bond_site_symmetry_2
Sn0 U0 3.229516 1_556
Sn0 U0 3.229516 1_555
Sn0 U2 3.336016 1_656
Sn0 U2 3.336016 1_655
Sn1 U1 3.229516 1_555
Sn1 U1 3.229516 1_556
Sn1 U2 3.336016 1_566
Sn1 U2 3.336016 1_565
Sn2 Sn3 3.099751 1_545
Sn2 Sn3 3.099751 1_655
Sn2 U1 3.253990 1_545
Sn2 U1 3.253990 1_546
Sn2 U1 3.253990 1_656
Sn2 U1 3.253990 1_655
Sn2 U0 3.398183 1_556
Sn2 U0 3.398183 1_555
Sn3 U0 3.253990 1_456
Sn3 U0 3.253990 1_455
Sn3 U0 3.253990 1_566
Sn3 U0 3.253990 1_565
Sn3 U1 3.398183 1_556
Sn3 U1 3.398183 1_555
Sn4 U1 3.200121 1_545
Sn4 U1 3.200121 1_655
Sn4 U2 3.249080 1_665
Sn4 U2 3.249080 1_555
Sn5 U0 3.200121 1_455
Sn5 U0 3.200121 1_565
Sn5 U2 3.249080 1_665
Sn5 U2 3.249080 1_555
Sn6 U2 3.236277 1_665
Sn6 U2 3.236277 1_555
Sn6 U2 3.236277 1_556
Sn6 U2 3.236277 1_666
