# generated using pymatgen
data_Mg16ZrAl12
_symmetry_space_group_name_H-M   'P 1'
_cell_length_a   9.14429888
_cell_length_b   9.14429888
_cell_length_c   8.95854908
_cell_angle_alpha   70.97159723
_cell_angle_beta   70.97159723
_cell_angle_gamma   109.55583309
_symmetry_Int_Tables_number   1
_chemical_formula_structural   Mg16ZrAl12
_chemical_formula_sum   'Mg16 Zr1 Al12'
_cell_volume   582.27420869
_cell_formula_units_Z   1
loop_
 _symmetry_equiv_pos_site_id
 _symmetry_equiv_pos_as_xyz
  1  'x, y, z'
loop_
 _atom_site_type_symbol
 _atom_site_label
 _atom_site_symmetry_multiplicity
 _atom_site_fract_x
 _atom_site_fract_y
 _atom_site_fract_z
 _atom_site_occupancy
  Mg  Mg0  1  0.00495500  0.00495500  0.64650200  1
  Mg  Mg1  1  0.99898300  0.99898300  0.00337000  1
  Mg  Mg2  1  0.40111400  0.40111400  0.27991900  1
  Mg  Mg3  1  0.65519300  0.65519300  0.35147100  1
  Mg  Mg4  1  0.60369100  0.31531000  0.99594700  1
  Mg  Mg5  1  0.71596300  0.39993900  0.60307400  1
  Mg  Mg6  1  0.32037600  0.00104200  0.39378700  1
  Mg  Mg7  1  0.33619800  0.99553200  0.00926100  1
  Mg  Mg8  1  0.68362000  0.28961200  0.31573900  1
  Mg  Mg9  1  0.00150300  0.59791800  0.68555300  1
  Mg  Mg10  1  0.59791800  0.00150300  0.68555300  1
  Mg  Mg11  1  0.28961200  0.68362000  0.31573900  1
  Mg  Mg12  1  0.99553200  0.33619800  0.00926100  1
  Mg  Mg13  1  0.00104200  0.32037600  0.39378700  1
  Mg  Mg14  1  0.39993900  0.71596300  0.60307400  1
  Mg  Mg15  1  0.31531000  0.60369100  0.99594700  1
  Zr  Zr0  1  0.68452800  0.68452800  0.72044500  1
  Al  Al0  1  0.18208400  0.18208400  0.18083900  1
  Al  Al1  1  0.37392200  0.37392200  0.81655500  1
  Al  Al2  1  0.81338900  0.63467700  0.99544200  1
  Al  Al3  1  0.99419300  0.81066500  0.37394600  1
  Al  Al4  1  0.36341500  0.17894000  0.63534900  1
  Al  Al5  1  0.18403300  0.82272500  0.81222000  1
  Al  Al6  1  0.00135500  0.63512600  0.18012800  1
  Al  Al7  1  0.63512600  0.00135500  0.18012800  1
  Al  Al8  1  0.82272500  0.18403300  0.81222000  1
  Al  Al9  1  0.17894000  0.36341500  0.63534900  1
  Al  Al10  1  0.81066500  0.99419300  0.37394600  1
  Al  Al11  1  0.63467700  0.81338900  0.99544200  1
loop_
_geom_bond_atom_site_label_1
_geom_bond_atom_site_label_2
_geom_bond_distance
_geom_bond_site_symmetry_2
Mg0 Mg6 3.051215 1_555
Mg0 Mg13 3.051215 1_555
Mg0 Zr0 3.054632 1_445
Mg0 Mg1 3.161837 1_446
Mg1 Mg12 3.111673 1_565
Mg1 Mg7 3.111673 1_655
Mg1 Mg3 3.176370 1_555
Mg2 Mg3 3.087966 1_555
Mg2 Mg4 3.117786 1_554
Mg2 Mg8 3.147480 1_555
Mg2 Mg6 3.199482 1_555
Mg3 Mg5 3.015273 1_555
Mg3 Zr0 3.489736 1_555
Mg4 Mg7 3.056467 1_546
Mg4 Mg5 3.062052 1_555
Mg4 Zr0 3.121354 1_555
Mg4 Mg8 3.136607 1_556
Mg4 Mg6 3.160559 1_556
Mg4 Mg9 3.173078 1_655
Mg5 Mg9 3.099498 1_655
Mg5 Mg8 3.117908 1_555
Mg5 Zr0 3.169940 1_555
Mg6 Mg8 3.146406 1_555
Mg6 Mg9 3.236443 1_545
Mg6 Mg7 3.418062 1_545
Mg9 Zr0 3.199024 1_455
Mg10 Mg7 3.069857 1_546
Mg10 Mg14 3.099498 1_545
Mg10 Mg8 3.124791 1_555
Mg10 Mg15 3.173078 1_545
Mg10 Mg5 3.174471 1_555
Mg10 Zr0 3.199024 1_545
Mg10 Mg13 3.236443 1_655
Mg11 Mg7 3.028601 1_555
Mg11 Mg14 3.117908 1_555
Mg11 Mg9 3.124791 1_555
Mg11 Mg15 3.136607 1_554
Mg11 Mg6 3.146126 1_565
Mg11 Mg13 3.146406 1_555
Mg11 Mg2 3.147480 1_555
Mg12 Mg8 3.028601 1_555
Mg12 Mg15 3.056467 1_654
Mg12 Mg9 3.069857 1_654
Mg12 Mg13 3.418062 1_655
Mg13 Mg5 3.132468 1_455
Mg13 Mg8 3.146126 1_455
Mg13 Mg15 3.160559 1_554
Mg13 Mg2 3.199482 1_555
Mg14 Mg3 3.015273 1_555
Mg14 Mg15 3.062052 1_555
Mg14 Mg6 3.132468 1_565
Mg14 Zr0 3.169940 1_555
Mg14 Mg9 3.174471 1_555
Mg15 Mg2 3.117786 1_556
Mg15 Zr0 3.121354 1_555
Al0 Al1 2.697892 1_554
Al0 Al3 2.793575 1_445
Al0 Al10 2.793575 1_445
Al0 Mg2 2.905831 1_555
Al0 Mg6 2.982351 1_555
Al0 Mg13 2.982351 1_555
Al0 Mg7 3.027444 1_545
Al0 Mg12 3.027444 1_455
Al0 Mg1 3.119182 1_445
Al0 Mg4 3.235272 1_554
Al0 Mg15 3.235272 1_554
Al1 Al9 2.774498 1_555
Al1 Al4 2.774498 1_555
Al1 Zr0 2.878506 1_555
Al1 Mg5 2.966731 1_555
Al1 Mg14 2.966731 1_555
Al1 Mg15 3.111036 1_555
Al1 Mg4 3.111036 1_555
Al1 Mg12 3.160572 1_456
Al1 Mg7 3.160572 1_546
Al1 Mg1 3.310332 1_446
Al2 Al6 2.746974 1_656
Al2 Al5 2.787226 1_655
Al2 Mg4 2.905594 1_555
Al2 Mg9 2.942896 1_655
Al2 Mg8 2.994522 1_556
Al2 Zr0 3.030795 1_555
Al2 Mg0 3.140345 1_665
Al2 Mg3 3.140701 1_556
Al2 Mg2 3.172465 1_556
Al2 Mg1 3.229709 1_556
Al3 Al6 2.722015 1_655
Al3 Mg9 2.872170 1_655
Al3 Zr0 2.954915 1_555
Al3 Mg6 3.005020 1_665
Al3 Mg3 3.051969 1_555
Al3 Mg7 3.083649 1_655
Al3 Mg5 3.156427 1_555
Al3 Mg1 3.180476 1_555
Al3 Mg11 3.239835 1_655
Al4 Al5 2.678488 1_545
Al4 Al9 2.756125 1_555
Al4 Mg8 2.907884 1_555
Al4 Mg2 2.997032 1_555
Al4 Mg5 3.034836 1_555
Al4 Mg0 3.078503 1_555
Al4 Mg7 3.099828 1_546
Al4 Mg6 3.147476 1_555
Al4 Mg10 3.148885 1_555
Al4 Mg1 3.210901 1_446
Al5 Al6 2.720477 1_556
Al5 Mg14 2.903876 1_555
Al5 Mg9 2.959499 1_555
Al5 Mg15 2.984982 1_555
Al5 Mg0 3.075905 1_565
Al5 Mg7 3.081818 1_556
Al5 Mg6 3.141770 1_565
Al5 Mg1 3.182701 1_456
Al5 Mg10 3.183074 1_565
Al6 Mg13 2.888972 1_555
Al6 Mg15 2.969857 1_554
Al6 Mg8 2.991654 1_455
Al6 Mg7 3.078727 1_555
Al6 Mg3 3.132706 1_455
Al6 Mg1 3.195853 1_455
Al6 Mg5 3.205234 1_455
Al6 Mg11 3.205855 1_555
Al7 Al8 2.720477 1_554
Al7 Mg6 2.888972 1_555
Al7 Mg4 2.969857 1_554
Al7 Mg11 2.991654 1_545
Al7 Mg12 3.078727 1_555
Al7 Mg3 3.132706 1_545
Al7 Mg1 3.195853 1_545
Al7 Mg14 3.205234 1_545
Al7 Mg8 3.205855 1_555
Al8 Al9 2.678488 1_655
Al8 Mg5 2.903876 1_555
Al8 Mg10 2.959499 1_555
Al8 Mg4 2.984982 1_555
Al8 Mg0 3.075905 1_655
Al8 Mg12 3.081818 1_556
Al8 Mg13 3.141770 1_655
Al8 Mg1 3.182701 1_546
Al8 Mg9 3.183074 1_655
Al9 Mg11 2.907884 1_555
Al9 Mg2 2.997032 1_555
Al9 Mg14 3.034836 1_555
Al9 Mg0 3.078503 1_555
Al9 Mg12 3.099828 1_456
Al9 Mg13 3.147476 1_555
Al9 Mg9 3.148885 1_555
Al9 Mg1 3.210901 1_446
Al10 Al7 2.722015 1_565
Al10 Al3 2.741976 1_555
Al10 Mg10 2.872170 1_565
Al10 Zr0 2.954915 1_555
Al10 Mg13 3.005020 1_665
Al10 Mg3 3.051969 1_555
Al10 Mg12 3.083649 1_565
Al10 Mg14 3.156427 1_555
Al10 Mg1 3.180476 1_555
Al10 Mg8 3.239835 1_565
Al11 Al2 2.670023 1_555
Al11 Al7 2.746974 1_566
Al11 Al8 2.787226 1_565
Al11 Mg15 2.905594 1_555
Al11 Mg10 2.942896 1_565
Al11 Mg11 2.994522 1_556
Al11 Zr0 3.030795 1_555
Al11 Mg0 3.140345 1_665
Al11 Mg3 3.140701 1_556
Al11 Mg2 3.172465 1_556
Al11 Mg1 3.229709 1_556
