# generated using pymatgen
data_LaMgCr2O6
_symmetry_space_group_name_H-M   'P 1'
_cell_length_a   5.31745300
_cell_length_b   5.41851000
_cell_length_c   7.74920600
_cell_angle_alpha   90.00000000
_cell_angle_beta   90.00000000
_cell_angle_gamma   90.00000000
_symmetry_Int_Tables_number   1
_chemical_formula_structural   LaMgCr2O6
_chemical_formula_sum   'La2 Mg2 Cr4 O12'
_cell_volume   223.27533271
_cell_formula_units_Z   2
loop_
 _symmetry_equiv_pos_site_id
 _symmetry_equiv_pos_as_xyz
  1  'x, y, z'
loop_
 _atom_site_type_symbol
 _atom_site_label
 _atom_site_symmetry_multiplicity
 _atom_site_fract_x
 _atom_site_fract_y
 _atom_site_fract_z
 _atom_site_occupancy
  La  La0  1  0.00435700  0.71269600  0.00000000  1
  La  La1  1  0.50435700  0.28730400  0.50000000  1
  Mg  Mg0  1  0.48298700  0.19727500  0.00000000  1
  Mg  Mg1  1  0.98298700  0.80272500  0.50000000  1
  Cr  Cr0  1  0.49642000  0.75397500  0.24988300  1
  Cr  Cr1  1  0.99642000  0.24602500  0.74988300  1
  Cr  Cr2  1  0.49642000  0.75397500  0.75011700  1
  Cr  Cr3  1  0.99642000  0.24602500  0.25011700  1
  O  O0  1  0.07742100  0.19614400  0.50000000  1
  O  O1  1  0.21492000  0.97654700  0.80358100  1
  O  O2  1  0.21492000  0.97654700  0.19641900  1
  O  O3  1  0.30585800  0.44105900  0.80836700  1
  O  O4  1  0.30585800  0.44105900  0.19163300  1
  O  O5  1  0.37474100  0.72694000  0.50000000  1
  O  O6  1  0.57742100  0.80385600  0.00000000  1
  O  O7  1  0.71492000  0.02345300  0.30358100  1
  O  O8  1  0.71492000  0.02345300  0.69641900  1
  O  O9  1  0.80585800  0.55894100  0.30836700  1
  O  O10  1  0.80585800  0.55894100  0.69163300  1
  O  O11  1  0.87474100  0.27306000  0.00000000  1
loop_
_geom_bond_atom_site_label_1
_geom_bond_atom_site_label_2
_geom_bond_distance
_geom_bond_site_symmetry_2
La0 O6 2.323328 1_455
La0 O1 2.369468 1_554
La0 O2 2.369468 1_555
La0 O11 2.479875 1_455
La0 O3 2.634755 1_554
La0 O4 2.634755 1_555
La0 O9 2.741966 1_455
La0 O10 2.741966 1_454
La1 O0 2.323328 1_555
La1 O8 2.369468 1_555
La1 O7 2.369468 1_555
La1 O5 2.479875 1_555
La1 O10 2.634755 1_555
La1 O9 2.634755 1_555
La1 O4 2.741966 1_555
La1 O3 2.741966 1_555
Mg0 O11 2.123222 1_555
Mg0 O6 2.190089 1_545
Mg0 O3 2.199378 1_554
Mg0 O4 2.199378 1_555
Mg0 O2 2.403972 1_545
Mg0 O1 2.403972 1_544
Mg1 O5 2.123222 1_655
Mg1 O0 2.190089 1_665
Mg1 O10 2.199378 1_555
Mg1 O9 2.199378 1_555
Mg1 O7 2.403972 1_565
Mg1 O8 2.403972 1_565
Cr0 O7 1.911851 1_565
Cr0 O2 1.966393 1_555
Cr0 O6 2.002048 1_555
Cr0 O9 2.007392 1_555
Cr0 O4 2.026176 1_555
Cr0 O5 2.048597 1_555
Cr1 O1 1.911851 1_645
Cr1 O8 1.966393 1_555
Cr1 O0 2.002048 1_655
Cr1 O3 2.007392 1_655
Cr1 O10 2.026176 1_555
Cr1 O11 2.048597 1_556
Cr2 O8 1.911851 1_565
Cr2 O1 1.966393 1_555
Cr2 O6 2.002048 1_556
Cr2 O10 2.007392 1_555
Cr2 O3 2.026176 1_555
Cr2 O5 2.048597 1_555
Cr3 O2 1.911851 1_645
Cr3 O7 1.966393 1_555
Cr3 O0 2.002048 1_655
Cr3 O4 2.007392 1_655
Cr3 O9 2.026176 1_555
Cr3 O11 2.048597 1_555
