# generated using pymatgen
data_TiO
_symmetry_space_group_name_H-M   'P 1'
_cell_length_a   10.66753434
_cell_length_b   10.24863692
_cell_length_c   10.89470760
_cell_angle_alpha   90.37474369
_cell_angle_beta   91.40825003
_cell_angle_gamma   88.99343963
_symmetry_Int_Tables_number   1
_chemical_formula_structural   TiO
_chemical_formula_sum   'Ti50 O50'
_cell_volume   1190.52744240
_cell_formula_units_Z   50
loop_
 _symmetry_equiv_pos_site_id
 _symmetry_equiv_pos_as_xyz
  1  'x, y, z'
loop_
 _atom_site_type_symbol
 _atom_site_label
 _atom_site_symmetry_multiplicity
 _atom_site_fract_x
 _atom_site_fract_y
 _atom_site_fract_z
 _atom_site_occupancy
  Ti  Ti0  1  0.33917600  0.35761300  0.17148400  1
  Ti  Ti1  1  0.58209200  0.87819400  0.36742900  1
  Ti  Ti2  1  0.52803900  0.04349800  0.17623100  1
  Ti  Ti3  1  0.83254500  0.98146700  0.80825700  1
  Ti  Ti4  1  0.36736300  0.14762400  0.99109900  1
  Ti  Ti5  1  0.57726900  0.99897300  0.91782000  1
  Ti  Ti6  1  0.72509300  0.77447000  0.96527300  1
  Ti  Ti7  1  0.18524500  0.27140000  0.39307500  1
  Ti  Ti8  1  0.11306400  0.80309800  0.34669700  1
  Ti  Ti9  1  0.25523600  0.03510800  0.24819500  1
  Ti  Ti10  1  0.10858400  0.10240700  0.85837600  1
  Ti  Ti11  1  0.53984500  0.64528600  0.12368700  1
  Ti  Ti12  1  0.36370900  0.72790900  0.28658000  1
  Ti  Ti13  1  0.01122600  0.05684600  0.32456600  1
  Ti  Ti14  1  0.34930000  0.48571600  0.39621700  1
  Ti  Ti15  1  0.03243800  0.48930700  0.77358900  1
  Ti  Ti16  1  0.53964100  0.65882400  0.49721100  1
  Ti  Ti17  1  0.51969600  0.70581600  0.85056700  1
  Ti  Ti18  1  0.25398500  0.65164800  0.86277300  1
  Ti  Ti19  1  0.15401500  0.36379300  0.95694100  1
  Ti  Ti20  1  0.22151200  0.29841000  0.68211200  1
  Ti  Ti21  1  0.77774500  0.53915100  0.03482200  1
  Ti  Ti22  1  0.74239500  0.61931300  0.68926200  1
  Ti  Ti23  1  0.99412000  0.76721600  0.83115100  1
  Ti  Ti24  1  0.07472500  0.88082200  0.08389800  1
  Ti  Ti25  1  0.04685600  0.59603700  0.04194500  1
  Ti  Ti26  1  0.58665700  0.90568100  0.65743400  1
  Ti  Ti27  1  0.05284300  0.24795900  0.14765700  1
  Ti  Ti28  1  0.85856000  0.94040300  0.54952900  1
  Ti  Ti29  1  0.36460400  0.86698100  0.02731000  1
  Ti  Ti30  1  0.33627400  0.93773900  0.76922500  1
  Ti  Ti31  1  0.68138700  0.27922700  0.14536200  1
  Ti  Ti32  1  0.68452900  0.49996500  0.34631900  1
  Ti  Ti33  1  0.98374400  0.24581600  0.62706000  1
  Ti  Ti34  1  0.37891400  0.38075900  0.86211700  1
  Ti  Ti35  1  0.36955600  0.93636800  0.48117600  1
  Ti  Ti36  1  0.91693200  0.54127200  0.52278700  1
  Ti  Ti37  1  0.44783400  0.23081200  0.42140500  1
  Ti  Ti38  1  0.12211000  0.91860800  0.60815900  1
  Ti  Ti39  1  0.07963400  0.50992600  0.29547900  1
  Ti  Ti40  1  0.48927200  0.41869800  0.61943900  1
  Ti  Ti41  1  0.80959800  0.04343800  0.14122400  1
  Ti  Ti42  1  0.26311700  0.70882500  0.55157300  1
  Ti  Ti43  1  0.88680000  0.28661000  0.90905400  1
  Ti  Ti44  1  0.73301500  0.11171700  0.37231800  1
  Ti  Ti45  1  0.89628200  0.69324500  0.23126500  1
  Ti  Ti46  1  0.74282500  0.25930300  0.66467000  1
  Ti  Ti47  1  0.62296800  0.40682700  0.84661500  1
  Ti  Ti48  1  0.50701700  0.17077000  0.73168600  1
  Ti  Ti49  1  0.90740600  0.31573700  0.36238100  1
  O  O0  1  0.21581800  0.63287700  0.37107600  1
  O  O1  1  0.30231600  0.11194200  0.41087300  1
  O  O2  1  0.38747800  0.57119800  0.56422800  1
  O  O3  1  0.13212800  0.43758900  0.13026400  1
  O  O4  1  0.16814200  0.09113500  0.67953300  1
  O  O5  1  0.56152700  0.24696900  0.56588000  1
  O  O6  1  0.66605000  0.06933000  0.75283700  1
  O  O7  1  0.01957700  0.92894300  0.45999100  1
  O  O8  1  0.07597400  0.41829200  0.61058400  1
  O  O9  1  0.76123200  0.96620400  0.97251200  1
  O  O10  1  0.14220700  0.74504800  0.97413300  1
  O  O11  1  0.24938100  0.99456300  0.93682700  1
  O  O12  1  0.88383600  0.52102800  0.32820200  1
  O  O13  1  0.51040000  0.24052000  0.89876500  1
  O  O14  1  0.71616500  0.30534100  0.33047600  1
  O  O15  1  0.03141200  0.19589600  0.45307600  1
  O  O16  1  0.55047500  0.86032400  0.04795800  1
  O  O17  1  0.82819800  0.12191200  0.54779100  1
  O  O18  1  0.58706400  0.71893400  0.66919200  1
  O  O19  1  0.55222600  0.09276500  0.36200800  1
  O  O20  1  0.96397100  0.90123500  0.69673400  1
  O  O21  1  0.69392400  0.91838300  0.49998500  1
  O  O22  1  0.92871100  0.63407000  0.69947900  1
  O  O23  1  0.95250600  0.87721800  0.22376800  1
  O  O24  1  0.31449400  0.33299500  0.52569400  1
  O  O25  1  0.40219500  0.67073800  0.98773600  1
  O  O26  1  0.87657300  0.20364100  0.07580600  1
  O  O27  1  0.95550700  0.45669000  0.93996900  1
  O  O28  1  0.21870900  0.46844600  0.79507600  1
  O  O29  1  0.43121900  0.02483700  0.63092300  1
  O  O30  1  0.56484900  0.69224400  0.31230200  1
  O  O31  1  0.90158600  0.70124500  0.96945100  1
  O  O32  1  0.22741100  0.84083800  0.18408800  1
  O  O33  1  0.85390500  0.36420400  0.53328200  1
  O  O34  1  0.70662300  0.59504400  0.86583800  1
  O  O35  1  0.67018700  0.44357600  0.67241700  1
  O  O36  1  0.72546800  0.35424400  0.98466800  1
  O  O37  1  0.00090900  0.95319300  0.92223600  1
  O  O38  1  0.25488300  0.23093100  0.85715100  1
  O  O39  1  0.19903800  0.77289000  0.72043900  1
  O  O40  1  0.38967700  0.53821200  0.21900600  1
  O  O41  1  0.73373800  0.61392100  0.49828900  1
  O  O42  1  0.64958300  0.48142700  0.17067400  1
  O  O43  1  0.91661000  0.15507600  0.77913000  1
  O  O44  1  0.69716800  0.95618900  0.24701200  1
  O  O45  1  0.46734900  0.52221400  0.78781700  1
  O  O46  1  0.73596300  0.69953400  0.13631700  1
  O  O47  1  0.49147300  0.23906300  0.14410900  1
  O  O48  1  0.41801000  0.91890100  0.29011900  1
  O  O49  1  0.08941300  0.06165300  0.14931700  1
loop_
_geom_bond_atom_site_label_1
_geom_bond_atom_site_label_2
_geom_bond_distance
_geom_bond_site_symmetry_2
O0 Ti8 2.059129 1_555
O0 Ti14 2.070756 1_555
O0 Ti39 2.090104 1_555
O0 Ti12 2.102861 1_555
O0 Ti42 2.161577 1_555
O1 Ti37 1.990694 1_555
O1 Ti9 1.991316 1_555
O1 Ti7 2.046578 1_555
O1 Ti35 2.069938 1_545
O2 Ti42 1.922559 1_555
O2 Ti40 1.975916 1_555
O2 Ti16 2.022972 1_555
O2 Ti14 2.058826 1_555
O3 Ti39 2.029921 1_555
O3 Ti19 2.046702 1_554
O3 Ti25 2.077448 1_555
O3 Ti27 2.144454 1_555
O3 Ti0 2.375767 1_555
O4 Ti38 1.991470 1_545
O4 Ti10 2.066095 1_555
O4 Ti20 2.208719 1_555
O4 Ti30 2.545207 1_545
O4 Ti33 2.560525 1_455
O5 Ti37 1.971216 1_555
O5 Ti40 1.998289 1_555
O5 Ti48 2.072953 1_555
O5 Ti46 2.195276 1_555
O6 Ti48 1.983417 1_555
O6 Ti3 2.056240 1_545
O6 Ti26 2.143450 1_545
O6 Ti5 2.184559 1_545
O6 Ti46 2.345900 1_555
O7 Ti38 1.929958 1_555
O7 Ti13 1.979344 1_565
O7 Ti28 1.997369 1_455
O7 Ti8 2.043523 1_555
O8 Ti15 1.977609 1_555
O8 Ti33 2.049076 1_455
O8 Ti20 2.100760 1_555
O8 Ti36 2.289709 1_455
O9 Ti3 1.969844 1_555
O9 Ti6 2.009778 1_555
O9 Ti41 2.054249 1_566
O9 Ti5 2.059358 1_555
O10 Ti18 1.955974 1_555
O10 Ti24 1.967207 1_556
O10 Ti25 2.004723 1_556
O10 Ti23 2.201087 1_455
O11 Ti29 2.023135 1_556
O11 Ti10 2.024576 1_565
O11 Ti4 2.101189 1_565
O11 Ti30 2.140762 1_555
O12 Ti45 2.070669 1_555
O12 Ti39 2.128463 1_655
O12 Ti49 2.148385 1_555
O12 Ti36 2.149860 1_555
O12 Ti32 2.154815 1_555
O13 Ti48 1.950991 1_555
O13 Ti34 2.025254 1_555
O13 Ti4 2.094180 1_555
O13 Ti47 2.188136 1_555
O13 Ti5 2.572464 1_545
O14 Ti32 2.024091 1_555
O14 Ti44 2.042831 1_555
O14 Ti31 2.058215 1_555
O14 Ti49 2.065516 1_555
O15 Ti7 1.955250 1_555
O15 Ti13 2.001821 1_555
O15 Ti49 2.032061 1_455
O15 Ti33 2.034406 1_455
O16 Ti29 1.990030 1_555
O16 Ti5 2.042444 1_554
O16 Ti6 2.251673 1_554
O16 Ti2 2.345381 1_565
O16 Ti11 2.363823 1_555
O16 Ti17 2.679367 1_554
O17 Ti28 1.882730 1_545
O17 Ti46 2.102859 1_555
O17 Ti44 2.145296 1_555
O17 Ti33 2.258504 1_555
O18 Ti26 1.918942 1_555
O18 Ti22 1.939466 1_555
O18 Ti16 2.023705 1_555
O18 Ti17 2.125062 1_555
O19 Ti37 1.904889 1_555
O19 Ti44 1.942154 1_555
O19 Ti2 2.093699 1_555
O19 Ti1 2.217435 1_545
O20 Ti28 1.975230 1_555
O20 Ti38 1.975234 1_655
O20 Ti23 2.030315 1_555
O20 Ti3 2.036691 1_555
O21 Ti28 1.841864 1_555
O21 Ti1 1.898216 1_555
O21 Ti26 2.091269 1_555
O21 Ti44 2.475491 1_565
O22 Ti22 1.996250 1_555
O22 Ti15 1.997872 1_655
O22 Ti23 2.089357 1_555
O22 Ti36 2.143433 1_555
O23 Ti45 1.991371 1_555
O23 Ti24 2.030609 1_655
O23 Ti13 2.228826 1_665
O23 Ti8 2.271362 1_655
O23 Ti41 2.428204 1_565
O24 Ti20 2.029006 1_555
O24 Ti7 2.075526 1_555
O24 Ti37 2.102959 1_555
O24 Ti14 2.156972 1_555
O24 Ti40 2.289752 1_555
O25 Ti17 2.012108 1_555
O25 Ti18 2.071965 1_555
O25 Ti11 2.074293 1_556
O25 Ti29 2.088188 1_556
O26 Ti41 1.948247 1_555
O26 Ti43 2.017078 1_554
O26 Ti27 2.075536 1_655
O26 Ti31 2.350086 1_555
O27 Ti43 1.927190 1_555
O27 Ti15 2.040014 1_655
O27 Ti25 2.048988 1_656
O27 Ti19 2.310203 1_655
O27 Ti21 2.325210 1_556
O28 Ti15 2.002936 1_555
O28 Ti34 2.038385 1_555
O28 Ti18 2.050344 1_555
O28 Ti20 2.127028 1_555
O28 Ti19 2.201599 1_555
O29 Ti35 1.966026 1_545
O29 Ti48 2.018210 1_555
O29 Ti30 2.053610 1_545
O29 Ti26 2.057688 1_545
O30 Ti1 2.004565 1_555
O30 Ti16 2.070469 1_555
O30 Ti11 2.118967 1_555
O30 Ti12 2.181801 1_555
O30 Ti32 2.355514 1_555
O31 Ti23 1.952345 1_555
O31 Ti6 2.014095 1_555
O31 Ti25 2.019937 1_656
O31 Ti21 2.269588 1_556
O32 Ti24 1.976697 1_555
O32 Ti9 2.128939 1_565
O32 Ti12 2.139705 1_555
O32 Ti8 2.215346 1_555
O32 Ti29 2.296458 1_555
O33 Ti36 1.951316 1_555
O33 Ti49 2.017266 1_555
O33 Ti33 2.078939 1_555
O33 Ti46 2.181099 1_555
O34 Ti22 1.988454 1_555
O34 Ti21 2.054998 1_556
O34 Ti6 2.137761 1_555
O34 Ti47 2.146427 1_555
O34 Ti17 2.280212 1_555
O35 Ti22 1.976947 1_555
O35 Ti47 2.015033 1_555
O35 Ti40 2.020726 1_555
O35 Ti46 2.030731 1_555
O36 Ti47 1.912384 1_555
O36 Ti31 1.986953 1_556
O36 Ti43 2.035017 1_555
O36 Ti21 2.051673 1_556
O37 Ti24 2.049540 1_556
O37 Ti10 2.063220 1_565
O37 Ti23 2.144632 1_455
O37 Ti3 2.174505 1_455
O38 Ti34 2.044057 1_555
O38 Ti19 2.044635 1_555
O38 Ti4 2.047568 1_555
O38 Ti20 2.053502 1_555
O38 Ti10 2.060167 1_555
O39 Ti18 2.060852 1_555
O39 Ti42 2.076840 1_555
O39 Ti38 2.081242 1_555
O39 Ti30 2.305851 1_555
O39 Ti23 2.524220 1_455
O40 Ti0 1.998216 1_555
O40 Ti14 2.065197 1_555
O40 Ti12 2.090639 1_555
O40 Ti11 2.237682 1_555
O41 Ti22 2.080790 1_555
O41 Ti32 2.081899 1_555
O41 Ti36 2.090561 1_555
O41 Ti16 2.112921 1_555
O42 Ti32 1.949257 1_555
O42 Ti11 2.089333 1_555
O42 Ti31 2.111373 1_555
O42 Ti21 2.132856 1_555
O43 Ti43 1.975866 1_555
O43 Ti3 2.036681 1_545
O43 Ti33 2.055340 1_555
O43 Ti10 2.260745 1_655
O43 Ti46 2.442756 1_555
O44 Ti41 1.919748 1_565
O44 Ti1 1.998586 1_555
O44 Ti44 2.125533 1_565
O44 Ti2 2.129399 1_565
O45 Ti34 1.935937 1_555
O45 Ti17 2.078750 1_555
O45 Ti47 2.110285 1_555
O45 Ti40 2.128906 1_555
O46 Ti45 1.977134 1_555
O46 Ti6 2.020090 1_554
O46 Ti21 2.024313 1_555
O46 Ti11 2.174997 1_555
O47 Ti0 2.038204 1_555
O47 Ti2 2.065609 1_555
O47 Ti31 2.074082 1_555
O47 Ti4 2.307510 1_554
O48 Ti1 1.963077 1_555
O48 Ti12 2.050908 1_555
O48 Ti9 2.130156 1_565
O48 Ti35 2.162558 1_555
O48 Ti2 2.166277 1_565
O49 Ti27 1.942213 1_555
O49 Ti24 1.988610 1_545
O49 Ti9 2.063207 1_555
O49 Ti13 2.103428 1_555
