# generated using pymatgen
data_Sr8Cu(WO6)3
_symmetry_space_group_name_H-M   'P 1'
_cell_length_a   5.96010900
_cell_length_b   10.41704140
_cell_length_c   15.81446166
_cell_angle_alpha   109.16933925
_cell_angle_beta   100.79198310
_cell_angle_gamma   90.01595607
_symmetry_Int_Tables_number   1
_chemical_formula_structural   Sr8Cu(WO6)3
_chemical_formula_sum   'Sr16 Cu2 W6 O36'
_cell_volume   909.00187276
_cell_formula_units_Z   2
loop_
 _symmetry_equiv_pos_site_id
 _symmetry_equiv_pos_as_xyz
  1  'x, y, z'
loop_
 _atom_site_type_symbol
 _atom_site_label
 _atom_site_symmetry_multiplicity
 _atom_site_fract_x
 _atom_site_fract_y
 _atom_site_fract_z
 _atom_site_occupancy
  Sr  Sr0  1  0.53582400  0.84531400  0.06644300  1
  Sr  Sr1  1  0.87477100  0.85628800  0.74606400  1
  Sr  Sr2  1  0.20377700  0.84907800  0.41996200  1
  Sr  Sr3  1  0.45335800  0.05604600  0.90020200  1
  Sr  Sr4  1  0.78446300  0.04321400  0.56563800  1
  Sr  Sr5  1  0.11539900  0.08697900  0.24037600  1
  Sr  Sr6  1  0.96126600  0.64222300  0.90741000  1
  Sr  Sr7  1  0.29444100  0.65115800  0.59374600  1
  Sr  Sr8  1  0.62453900  0.65223100  0.26633100  1
  Sr  Sr9  1  0.04406200  0.33877600  0.07325400  1
  Sr  Sr10  1  0.36196200  0.33789200  0.74040700  1
  Sr  Sr11  1  0.71080300  0.34481900  0.41273600  1
  Sr  Sr12  1  0.07932000  0.73571700  0.16162700  1
  Sr  Sr13  1  0.25272300  0.24786600  0.50096600  1
  Sr  Sr14  1  0.58356600  0.25247500  0.16560300  1
  Sr  Sr15  1  0.91450000  0.25260300  0.83400900  1
  Cu  Cu0  1  0.40578000  0.67489100  0.81555900  1
  Cu  Cu1  1  0.73570400  0.67436800  0.48809600  1
  W  W0  1  0.50765800  0.50234100  0.99840200  1
  W  W1  1  0.82990500  0.50681000  0.66834700  1
  W  W2  1  0.16485900  0.50317600  0.33808800  1
  W  W3  1  0.66352300  0.00327000  0.33284800  1
  W  W4  1  0.00298000  0.99951000  0.99881500  1
  W  W5  1  0.33563200  0.99567600  0.66660300  1
  O  O0  1  0.41108200  0.63675200  0.10469100  1
  O  O1  1  0.68267100  0.64228600  0.76700100  1
  O  O2  1  0.02207300  0.62162800  0.44470800  1
  O  O3  1  0.78310100  0.62559600  0.03177600  1
  O  O4  1  0.11468500  0.64221800  0.72776600  1
  O  O5  1  0.45176100  0.63698700  0.39629000  1
  O  O6  1  0.37981300  0.63244200  0.92232500  1
  O  O7  1  0.73323400  0.63904200  0.60141100  1
  O  O8  1  0.04808700  0.63682500  0.27965000  1
  O  O9  1  0.60690800  0.39159700  0.89071600  1
  O  O10  1  0.97044200  0.40855400  0.57129700  1
  O  O11  1  0.30110400  0.41434400  0.23527600  1
  O  O12  1  0.20332300  0.41427400  0.96082300  1
  O  O13  1  0.54160200  0.40877500  0.62552600  1
  O  O14  1  0.88784900  0.39191400  0.29242200  1
  O  O15  1  0.63756400  0.39904400  0.07196000  1
  O  O16  1  0.95422700  0.41565900  0.75082100  1
  O  O17  1  0.30160300  0.40059600  0.41253700  1
  O  O18  1  0.56291600  0.12210300  0.44261600  1
  O  O19  1  0.88773000  0.12445400  0.10474600  1
  O  O20  1  0.21535000  0.11802300  0.77059200  1
  O  O21  1  0.94741700  0.12386100  0.37635100  1
  O  O22  1  0.28442400  0.12438100  0.04155900  1
  O  O23  1  0.61612500  0.11884800  0.70711900  1
  O  O24  1  0.20241700  0.11349400  0.59534100  1
  O  O25  1  0.53377300  0.12947100  0.26953800  1
  O  O26  1  0.87461000  0.11944300  0.93025400  1
  O  O27  1  0.13783100  0.88796100  0.90030300  1
  O  O28  1  0.46956300  0.88097400  0.56674900  1
  O  O29  1  0.78795600  0.89567900  0.22725000  1
  O  O30  1  0.72100100  0.88800500  0.95127200  1
  O  O31  1  0.05219400  0.88111000  0.61784600  1
  O  O32  1  0.37187800  0.89348600  0.29000800  1
  O  O33  1  0.45268500  0.88764400  0.74127100  1
  O  O34  1  0.78438900  0.88479600  0.40066000  1
  O  O35  1  0.12579400  0.89501300  0.07799600  1
loop_
_geom_bond_atom_site_label_1
_geom_bond_atom_site_label_2
_geom_bond_distance
_geom_bond_site_symmetry_2
Cu0 O6 1.912716 1_555
Cu0 O1 1.931881 1_555
Cu0 O4 1.959806 1_555
Cu1 O7 1.946768 1_555
Cu1 O5 1.957484 1_555
Cu1 O2 1.969089 1_655
O0 W0 1.983525 1_554
O0 Sr12 2.416957 1_555
O0 Sr0 2.582508 1_555
O0 Sr8 2.586559 1_555
O1 W1 2.064762 1_555
O1 Sr6 2.511556 1_555
O1 Sr1 2.648667 1_555
O2 W2 2.064329 1_555
O2 Sr7 2.525042 1_555
O2 Sr2 2.775978 1_555
O3 W0 1.962522 1_554
O3 Sr12 2.396666 1_655
O3 Sr6 2.455922 1_554
O3 Sr0 2.681735 1_555
O4 W1 2.069895 1_455
O4 Sr7 2.574588 1_555
O4 Sr1 2.614218 1_455
O4 Sr6 3.143244 1_455
O5 W2 2.069026 1_555
O5 Sr8 2.513255 1_555
O5 Sr2 2.621410 1_555
O6 W0 2.143110 1_555
O6 Sr6 2.466688 1_455
O6 Sr0 2.619648 1_556
O7 W1 2.019790 1_555
O7 Sr7 2.600325 1_555
O7 Sr1 2.634887 1_555
O8 W2 1.970127 1_555
O8 Sr12 2.443835 1_555
O8 Sr8 2.503194 1_455
O8 Sr2 2.584436 1_555
O9 W0 1.915305 1_555
O9 Sr10 2.433379 1_555
O9 Sr15 2.454795 1_555
O9 Sr6 3.268324 1_555
O10 W1 1.885489 1_555
O10 Sr13 2.519768 1_655
O10 Sr11 2.564422 1_555
O10 Sr7 3.064835 1_655
O11 W2 1.914701 1_555
O11 Sr14 2.523410 1_555
O11 Sr9 2.595517 1_555
O11 Sr8 2.990264 1_555
O12 W0 1.929317 1_555
O12 Sr9 2.496177 1_556
O12 Sr15 2.511780 1_455
O12 Sr6 3.048959 1_455
O13 W1 1.887647 1_555
O13 Sr13 2.492839 1_555
O13 Sr10 2.569291 1_555
O13 Sr7 3.058759 1_555
O14 W2 1.895637 1_655
O14 Sr14 2.478808 1_555
O14 Sr11 2.517744 1_555
O15 W0 1.896258 1_554
O15 Sr9 2.501022 1_655
O15 Sr14 2.508179 1_555
O16 W1 1.898309 1_555
O16 Sr15 2.501167 1_555
O16 Sr10 2.579215 1_655
O16 Sr6 2.797707 1_555
O17 W2 1.913028 1_555
O17 Sr13 2.487026 1_555
O17 Sr11 2.506959 1_555
O17 Sr7 3.187564 1_555
O18 W3 1.970876 1_555
O18 Sr13 2.414981 1_555
O18 Sr4 2.508490 1_555
O18 Sr11 2.693992 1_555
O19 W4 1.992939 1_644
O19 Sr14 2.408942 1_555
O19 Sr5 2.460602 1_655
O19 Sr9 2.646420 1_655
O20 W5 1.976945 1_545
O20 Sr15 2.436783 1_455
O20 Sr3 2.532022 1_555
O20 Sr10 2.666536 1_555
O21 W3 1.977288 1_555
O21 Sr13 2.418158 1_655
O21 Sr5 2.457231 1_655
O21 Sr11 2.655889 1_555
O22 W4 1.989844 1_544
O22 Sr14 2.403622 1_555
O22 Sr3 2.513194 1_554
O22 Sr9 2.612846 1_555
O23 W5 1.977228 1_545
O23 Sr15 2.440646 1_555
O23 Sr4 2.513359 1_555
O23 Sr10 2.700026 1_555
O24 W5 1.995134 1_545
O24 Sr13 2.411653 1_555
O24 Sr4 2.509364 1_455
O24 Sr10 2.700280 1_555
O25 W3 1.975793 1_555
O25 Sr14 2.448910 1_555
O25 Sr5 2.461931 1_555
O25 Sr11 2.653611 1_555
O26 W4 1.975178 1_645
O26 Sr15 2.412304 1_555
O26 Sr3 2.512323 1_555
O26 Sr9 2.665457 1_656
O27 W4 1.924552 1_555
O27 Sr1 2.560432 1_455
O27 Sr3 2.569730 1_565
O27 Sr6 2.811530 1_455
O28 W5 1.947306 1_555
O28 Sr2 2.474791 1_555
O28 Sr4 2.531644 1_565
O28 Sr7 2.799940 1_555
O29 W3 1.957061 1_565
O29 Sr12 2.531828 1_655
O29 Sr0 2.587067 1_555
O29 Sr5 2.719826 1_665
O29 Sr8 3.002555 1_555
O30 W4 1.921244 1_655
O30 Sr0 2.453101 1_556
O30 Sr3 2.590107 1_565
O30 Sr6 2.880060 1_555
O31 W5 1.944066 1_555
O31 Sr1 2.538463 1_455
O31 Sr4 2.550140 1_465
O31 Sr7 2.752516 1_555
O32 W3 1.958926 1_565
O32 Sr12 2.518896 1_555
O32 Sr2 2.614698 1_555
O32 Sr5 2.758068 1_565
O32 Sr8 2.884296 1_555
O33 W5 1.926703 1_555
O33 Sr1 2.527130 1_555
O33 Sr3 2.548581 1_565
O33 Sr7 2.793128 1_555
O34 W3 1.942292 1_565
O34 Sr2 2.503793 1_655
O34 Sr4 2.588901 1_565
O34 Sr8 2.674068 1_555
O35 W4 1.959877 1_554
O35 Sr12 2.481482 1_555
O35 Sr0 2.525763 1_555
O35 Sr5 2.698953 1_565
O35 Sr6 3.084842 1_454
