# generated using pymatgen
data_BaS4O
_symmetry_space_group_name_H-M   'P 1'
_cell_length_a   7.22428300
_cell_length_b   8.74258800
_cell_length_c   10.53455000
_cell_angle_alpha   90.00000000
_cell_angle_beta   90.00000000
_cell_angle_gamma   90.00000000
_symmetry_Int_Tables_number   1
_chemical_formula_structural   BaS4O
_chemical_formula_sum   'Ba4 S16 O4'
_cell_volume   665.35090460
_cell_formula_units_Z   4
loop_
 _symmetry_equiv_pos_site_id
 _symmetry_equiv_pos_as_xyz
  1  'x, y, z'
loop_
 _atom_site_type_symbol
 _atom_site_label
 _atom_site_symmetry_multiplicity
 _atom_site_fract_x
 _atom_site_fract_y
 _atom_site_fract_z
 _atom_site_occupancy
  Ba  Ba0  1  0.24547500  0.24903900  0.62321100  1
  Ba  Ba1  1  0.24547500  0.75096100  0.37678900  1
  Ba  Ba2  1  0.75452500  0.25096100  0.12321100  1
  Ba  Ba3  1  0.75452500  0.74903900  0.87678900  1
  S  S0  1  0.42804900  0.89344000  0.65704500  1
  S  S1  1  0.42804900  0.10656000  0.34295500  1
  S  S2  1  0.57195100  0.60656000  0.15704500  1
  S  S3  1  0.57195100  0.39344000  0.84295500  1
  S  S4  1  0.94313600  0.11485600  0.84793200  1
  S  S5  1  0.94313600  0.88514400  0.15206800  1
  S  S6  1  0.05686400  0.38514400  0.34793200  1
  S  S7  1  0.05686400  0.61485600  0.65206800  1
  S  S8  1  0.64902200  0.01899200  0.59937400  1
  S  S9  1  0.64902200  0.98100800  0.40062600  1
  S  S10  1  0.35097800  0.48100800  0.09937400  1
  S  S11  1  0.35097800  0.51899200  0.90062600  1
  S  S12  1  0.16422500  0.11412900  0.96685300  1
  S  S13  1  0.16422500  0.88587100  0.03314700  1
  S  S14  1  0.83577500  0.38587100  0.46685300  1
  S  S15  1  0.83577500  0.61412900  0.53314700  1
  O  O0  1  0.29327400  0.50000000  0.50000000  1
  O  O1  1  0.70672600  0.00000000  0.00000000  1
  O  O2  1  0.19009200  0.00000000  0.50000000  1
  O  O3  1  0.80990800  0.50000000  0.00000000  1
loop_
_geom_bond_atom_site_label_1
_geom_bond_atom_site_label_2
_geom_bond_distance
_geom_bond_site_symmetry_2
Ba0 O2 2.566167 1_555
Ba0 O0 2.572513 1_555
Ba0 S4 3.427989 1_455
Ba0 S8 3.550662 1_555
Ba0 S14 3.592289 1_455
Ba0 S11 3.832963 1_555
Ba0 S12 3.852388 1_555
Ba1 O2 2.566167 1_565
Ba1 O0 2.572513 1_555
Ba1 S5 3.427989 1_455
Ba1 S9 3.550662 1_555
Ba1 S15 3.592289 1_455
Ba1 S10 3.832963 1_555
Ba1 S13 3.852388 1_555
Ba2 O3 2.566167 1_555
Ba2 O1 2.572513 1_555
Ba2 S6 3.427989 1_655
Ba2 S10 3.550662 1_555
Ba2 S12 3.592289 1_654
Ba2 S9 3.832963 1_545
Ba2 S14 3.852388 1_555
Ba3 O3 2.566167 1_556
Ba3 O1 2.572513 1_566
Ba3 S7 3.427989 1_655
Ba3 S11 3.550662 1_555
Ba3 S13 3.592289 1_656
Ba3 S8 3.832963 1_565
Ba3 S15 3.852388 1_555
S0 S8 2.030354 1_565
S1 S9 2.030354 1_545
S8 S9 2.119892 1_545
S10 S2 2.030354 1_555
S10 S11 2.119892 1_554
S11 S3 2.030354 1_555
S12 S4 2.029920 1_455
S12 S13 2.114241 1_546
S13 S5 2.029920 1_455
S14 S6 2.029920 1_655
S14 S15 2.114241 1_555
S15 S7 2.029920 1_655
