# generated using pymatgen
data_Ba2Ni5Ge4
_symmetry_space_group_name_H-M   'P 1'
_cell_length_a   6.55543308
_cell_length_b   6.55543308
_cell_length_c   9.55474350
_cell_angle_alpha   63.07300860
_cell_angle_beta   63.07300860
_cell_angle_gamma   35.81686463
_symmetry_Int_Tables_number   1
_chemical_formula_structural   Ba2Ni5Ge4
_chemical_formula_sum   'Ba2 Ni5 Ge4'
_cell_volume   211.32723371
_cell_formula_units_Z   1
loop_
 _symmetry_equiv_pos_site_id
 _symmetry_equiv_pos_as_xyz
  1  'x, y, z'
loop_
 _atom_site_type_symbol
 _atom_site_label
 _atom_site_symmetry_multiplicity
 _atom_site_fract_x
 _atom_site_fract_y
 _atom_site_fract_z
 _atom_site_occupancy
  Ba  Ba0  1  0.17572952  0.17572952  0.85762793  1
  Ba  Ba1  1  0.82427048  0.82427048  0.14237207  1
  Ni  Ni0  1  0.03394865  0.03394865  0.30859975  1
  Ni  Ni1  1  0.96605135  0.96605135  0.69140025  1
  Ni  Ni2  1  0.33615116  0.33615116  0.42545529  1
  Ni  Ni3  1  0.66384884  0.66384884  0.57454471  1
  Ni  Ni4  1  0.50000000  0.50000000  0.50000000  1
  Ge  Ge0  1  0.85615715  0.85615715  0.55138617  1
  Ge  Ge1  1  0.14384285  0.14384285  0.44861383  1
  Ge  Ge2  1  0.46821418  0.46821418  0.80062181  1
  Ge  Ge3  1  0.53178582  0.53178582  0.19937819  1
loop_
_geom_bond_atom_site_label_1
_geom_bond_atom_site_label_2
_geom_bond_distance
_geom_bond_site_symmetry_2
Ba0 Ge0 3.379767 1_545
Ba0 Ge0 3.379767 1_455
Ba0 Ge2 3.423394 1_555
Ba0 Ni3 3.432605 1_455
Ba0 Ni3 3.432605 1_545
Ba0 Ge3 3.516995 1_456
Ba0 Ge3 3.516995 1_546
Ba0 Ge2 3.522006 1_545
Ba0 Ge2 3.522006 1_455
Ba1 Ge1 3.379767 1_565
Ba1 Ge1 3.379767 1_655
Ba1 Ge3 3.423394 1_555
Ba1 Ni2 3.432605 1_565
Ba1 Ni2 3.432605 1_655
Ba1 Ge2 3.516995 1_564
Ba1 Ge2 3.516995 1_654
Ba1 Ge3 3.522006 1_565
Ba1 Ge3 3.522006 1_655
Ni0 Ni4 2.617237 1_455
Ni0 Ni4 2.617237 1_545
Ni1 Ni4 2.617237 1_655
Ni1 Ni4 2.617237 1_565
Ni2 Ni4 2.464046 1_555
Ni3 Ni4 2.464046 1_555
Ge0 Ni3 2.302101 1_555
Ge0 Ni0 2.324562 1_665
Ge0 Ni1 2.327039 1_555
Ge0 Ni2 2.420592 1_655
Ge0 Ni2 2.420592 1_565
Ge0 Ni4 2.585751 1_565
Ge0 Ni4 2.585751 1_655
Ge1 Ni2 2.302101 1_555
Ge1 Ni1 2.324562 1_445
Ge1 Ni0 2.327039 1_555
Ge1 Ni3 2.420592 1_545
Ge1 Ni3 2.420592 1_455
Ge1 Ni4 2.585751 1_545
Ge1 Ni4 2.585751 1_455
Ge2 Ni1 2.275949 1_455
Ge2 Ni1 2.275949 1_545
Ge2 Ni3 2.367445 1_555
Ge2 Ni4 2.706209 1_555
Ge3 Ni0 2.275949 1_655
Ge3 Ni0 2.275949 1_565
Ge3 Ni2 2.367445 1_555
Ge3 Ni4 2.706209 1_555
