# generated using pymatgen
data_Sr2(AsIr)3
_symmetry_space_group_name_H-M   'P 1'
_cell_length_a   5.92437100
_cell_length_b   5.92437100
_cell_length_c   20.62530500
_cell_angle_alpha   90.00000000
_cell_angle_beta   90.00000000
_cell_angle_gamma   90.00000000
_symmetry_Int_Tables_number   1
_chemical_formula_structural   Sr2(AsIr)3
_chemical_formula_sum   'Sr2 As3 Ir3'
_cell_volume   723.91049720
_cell_formula_units_Z   1
loop_
 _symmetry_equiv_pos_site_id
 _symmetry_equiv_pos_as_xyz
  1  'x, y, z'
loop_
 _atom_site_type_symbol
 _atom_site_label
 _atom_site_symmetry_multiplicity
 _atom_site_fract_x
 _atom_site_fract_y
 _atom_site_fract_z
 _atom_site_occupancy
  Sr  Sr0  1  0.50000000  0.50000000  0.75039200  1
  Sr  Sr1  1  0.50000000  0.50000000  0.24960800  1
  As  As0  1  0.50000000  0.50000000  0.39078300  1
  As  As1  1  0.50000000  0.50000000  0.60921700  1
  As  As2  1  0.50000000  0.50000000  0.00000000  1
  Ir  Ir0  1  0.50000000  0.50000000  0.10794400  1
  Ir  Ir1  1  0.50000000  0.50000000  0.89205600  1
  Ir  Ir2  1  0.50000000  0.50000000  0.50000000  1
loop_
_geom_bond_atom_site_label_1
_geom_bond_atom_site_label_2
_geom_bond_distance
_geom_bond_site_symmetry_2
As0 Ir2 2.252634 1_555
As0 Sr1 2.911777 1_555
As1 Ir2 2.252634 1_555
As1 Sr0 2.911777 1_555
As2 Ir0 2.226378 1_555
As2 Ir1 2.226378 1_554
Ir0 Sr1 2.921863 1_555
Ir1 Sr0 2.921863 1_555
