# generated using pymatgen
data_SrGe2(BO4)2
_symmetry_space_group_name_H-M   'P 1'
_cell_length_a   8.20150100
_cell_length_b   8.36263900
_cell_length_c   9.26722100
_cell_angle_alpha   90.00000000
_cell_angle_beta   90.00000000
_cell_angle_gamma   90.00000000
_symmetry_Int_Tables_number   1
_chemical_formula_structural   SrGe2(BO4)2
_chemical_formula_sum   'Sr4 Ge8 B8 O32'
_cell_volume   635.60339994
_cell_formula_units_Z   4
loop_
 _symmetry_equiv_pos_site_id
 _symmetry_equiv_pos_as_xyz
  1  'x, y, z'
loop_
 _atom_site_type_symbol
 _atom_site_label
 _atom_site_symmetry_multiplicity
 _atom_site_fract_x
 _atom_site_fract_y
 _atom_site_fract_z
 _atom_site_occupancy
  Sr  Sr0  1  0.25000000  0.88798500  0.07032400  1
  Sr  Sr1  1  0.25000000  0.38798500  0.42967600  1
  Sr  Sr2  1  0.75000000  0.11201500  0.92967600  1
  Sr  Sr3  1  0.75000000  0.61201500  0.57032400  1
  Ge  Ge0  1  0.94687000  0.55261300  0.18979600  1
  Ge  Ge1  1  0.55313000  0.05261300  0.31020400  1
  Ge  Ge2  1  0.44687000  0.44738700  0.81020400  1
  Ge  Ge3  1  0.05313000  0.94738700  0.68979600  1
  Ge  Ge4  1  0.05313000  0.44738700  0.81020400  1
  Ge  Ge5  1  0.44687000  0.94738700  0.68979600  1
  Ge  Ge6  1  0.55313000  0.55261300  0.18979600  1
  Ge  Ge7  1  0.94687000  0.05261300  0.31020400  1
  B  B0  1  0.91378000  0.74045400  0.91814500  1
  B  B1  1  0.58622000  0.24045400  0.58185500  1
  B  B2  1  0.41378000  0.25954600  0.08185500  1
  B  B3  1  0.08622000  0.75954600  0.41814500  1
  B  B4  1  0.08622000  0.25954600  0.08185500  1
  B  B5  1  0.41378000  0.75954600  0.41814500  1
  B  B6  1  0.58622000  0.74045400  0.91814500  1
  B  B7  1  0.91378000  0.24045400  0.58185500  1
  O  O0  1  0.75000000  0.80732700  0.93381300  1
  O  O1  1  0.75000000  0.30732700  0.56618700  1
  O  O2  1  0.25000000  0.19267300  0.06618700  1
  O  O3  1  0.25000000  0.69267300  0.43381300  1
  O  O4  1  0.91388200  0.60739600  0.81500000  1
  O  O5  1  0.58611800  0.10739600  0.68500000  1
  O  O6  1  0.41388200  0.39260400  0.18500000  1
  O  O7  1  0.08611800  0.89260400  0.31500000  1
  O  O8  1  0.08611800  0.39260400  0.18500000  1
  O  O9  1  0.41388200  0.89260400  0.31500000  1
  O  O10  1  0.58611800  0.60739600  0.81500000  1
  O  O11  1  0.91388200  0.10739600  0.68500000  1
  O  O12  1  0.02660700  0.87478500  0.86768500  1
  O  O13  1  0.47339300  0.37478500  0.63231500  1
  O  O14  1  0.52660700  0.12521500  0.13231500  1
  O  O15  1  0.97339300  0.62521500  0.36768500  1
  O  O16  1  0.97339300  0.12521500  0.13231500  1
  O  O17  1  0.52660700  0.62521500  0.36768500  1
  O  O18  1  0.47339300  0.87478500  0.86768500  1
  O  O19  1  0.02660700  0.37478500  0.63231500  1
  O  O20  1  0.99555500  0.69630000  0.05790800  1
  O  O21  1  0.50444500  0.19630000  0.44209200  1
  O  O22  1  0.49555500  0.30370000  0.94209200  1
  O  O23  1  0.00444500  0.80370000  0.55790800  1
  O  O24  1  0.00444500  0.30370000  0.94209200  1
  O  O25  1  0.49555500  0.80370000  0.55790800  1
  O  O26  1  0.50444500  0.69630000  0.05790800  1
  O  O27  1  0.99555500  0.19630000  0.44209200  1
  O  O28  1  0.75000000  0.46916200  0.17171200  1
  O  O29  1  0.75000000  0.96916200  0.32828800  1
  O  O30  1  0.25000000  0.53083800  0.82828800  1
  O  O31  1  0.25000000  0.03083800  0.67171200  1
loop_
_geom_bond_atom_site_label_1
_geom_bond_atom_site_label_2
_geom_bond_distance
_geom_bond_site_symmetry_2
Ge0 O8 1.759756 1_655
Ge0 O20 1.759869 1_555
Ge0 O28 1.766957 1_555
Ge0 O15 1.770202 1_555
Ge1 O9 1.759756 1_545
Ge1 O21 1.759869 1_555
Ge1 O29 1.766957 1_545
Ge1 O14 1.770202 1_555
Ge2 O10 1.759756 1_555
Ge2 O22 1.759869 1_555
Ge2 O30 1.766957 1_555
Ge2 O13 1.770202 1_555
Ge3 O11 1.759756 1_465
Ge3 O23 1.759869 1_555
Ge3 O31 1.766957 1_565
Ge3 O12 1.770202 1_555
Ge4 O4 1.759756 1_455
Ge4 O24 1.759869 1_555
Ge4 O30 1.766957 1_555
Ge4 O19 1.770202 1_555
Ge5 O5 1.759756 1_565
Ge5 O25 1.759869 1_555
Ge5 O31 1.766957 1_565
Ge5 O18 1.770202 1_555
Ge6 O6 1.759756 1_555
Ge6 O26 1.759869 1_555
Ge6 O28 1.766957 1_555
Ge6 O17 1.770202 1_555
Ge7 O7 1.759756 1_645
Ge7 O27 1.759869 1_555
Ge7 O29 1.766957 1_545
Ge7 O16 1.770202 1_555
B0 O0 1.462233 1_555
B0 O4 1.466908 1_555
B0 O20 1.504570 1_556
B0 O12 1.528688 1_655
B1 O1 1.462233 1_555
B1 O5 1.466908 1_555
B1 O21 1.504570 1_555
B1 O13 1.528688 1_555
B2 O2 1.462233 1_555
B2 O6 1.466908 1_555
B2 O22 1.504570 1_554
B2 O14 1.528688 1_555
B3 O3 1.462233 1_555
B3 O7 1.466908 1_555
B3 O23 1.504570 1_555
B3 O15 1.528688 1_455
B4 O2 1.462233 1_555
B4 O8 1.466908 1_555
B4 O24 1.504570 1_554
B4 O16 1.528688 1_455
B5 O3 1.462233 1_555
B5 O9 1.466908 1_555
B5 O25 1.504570 1_555
B5 O17 1.528688 1_555
B6 O0 1.462233 1_555
B6 O10 1.466908 1_555
B6 O26 1.504570 1_556
B6 O18 1.528688 1_555
B7 O1 1.462233 1_555
B7 O11 1.466908 1_555
B7 O27 1.504570 1_555
B7 O19 1.528688 1_655
O0 Sr2 2.548284 1_565
O1 Sr3 2.548284 1_555
O2 Sr0 2.548284 1_545
O3 Sr1 2.548284 1_555
O4 Sr3 2.636180 1_555
O5 Sr2 2.636180 1_555
O6 Sr1 2.636180 1_555
O7 Sr0 2.636180 1_555
O8 Sr1 2.636180 1_555
O9 Sr0 2.636180 1_555
O10 Sr3 2.636180 1_555
O11 Sr2 2.636180 1_555
O12 Sr0 2.625928 1_556
O13 Sr1 2.625928 1_555
O14 Sr2 2.625928 1_554
O15 Sr3 2.625928 1_555
O16 Sr2 2.625928 1_554
O17 Sr3 2.625928 1_555
O18 Sr0 2.625928 1_556
O19 Sr1 2.625928 1_555
O20 Sr0 2.633949 1_655
O21 Sr1 2.633949 1_555
O22 Sr2 2.633949 1_555
O23 Sr3 2.633949 1_455
O24 Sr2 2.633949 1_455
O25 Sr3 2.633949 1_555
O26 Sr0 2.633949 1_555
O27 Sr1 2.633949 1_655
