# generated using pymatgen
data_PrH10N(ClO4)2
_symmetry_space_group_name_H-M   'P 1'
_cell_length_a   6.58619400
_cell_length_b   12.32430400
_cell_length_c   12.72956373
_cell_angle_alpha   87.69308633
_cell_angle_beta   90.00000000
_cell_angle_gamma   90.00000000
_symmetry_Int_Tables_number   1
_chemical_formula_structural   PrH10N(ClO4)2
_chemical_formula_sum   'Pr4 H40 N4 Cl8 O32'
_cell_volume   1032.42454859
_cell_formula_units_Z   4
loop_
 _symmetry_equiv_pos_site_id
 _symmetry_equiv_pos_as_xyz
  1  'x, y, z'
loop_
 _atom_site_type_symbol
 _atom_site_label
 _atom_site_symmetry_multiplicity
 _atom_site_fract_x
 _atom_site_fract_y
 _atom_site_fract_z
 _atom_site_occupancy
  Pr  Pr0  1  0.71546800  0.50000000  0.75000000  1
  Pr  Pr1  1  0.28453200  0.50000000  0.25000000  1
  Pr  Pr2  1  0.25454000  0.00000000  0.75000000  1
  Pr  Pr3  1  0.74546000  0.00000000  0.25000000  1
  H  H0  1  0.99484800  0.77860100  0.26293800  1
  H  H1  1  0.00515200  0.22139900  0.73706200  1
  H  H2  1  0.99484800  0.22139900  0.23706200  1
  H  H3  1  0.00515200  0.77860100  0.76293800  1
  H  H4  1  0.84662200  0.98719500  0.87683900  1
  H  H5  1  0.15337800  0.01280500  0.12316100  1
  H  H6  1  0.84662200  0.01280500  0.62316100  1
  H  H7  1  0.15337800  0.98719500  0.37683900  1
  H  H8  1  0.88529800  0.78755200  0.37360800  1
  H  H9  1  0.11470200  0.21244800  0.62639200  1
  H  H10  1  0.88529800  0.21244800  0.12639200  1
  H  H11  1  0.11470200  0.78755200  0.87360800  1
  H  H12  1  0.94058200  0.89849100  0.59246600  1
  H  H13  1  0.05941800  0.10150900  0.40753400  1
  H  H14  1  0.94058200  0.10150900  0.90753400  1
  H  H15  1  0.05941800  0.89849100  0.09246600  1
  H  H16  1  0.84068200  0.47728900  0.16208400  1
  H  H17  1  0.15931800  0.52271100  0.83791600  1
  H  H18  1  0.84068200  0.52271100  0.33791600  1
  H  H19  1  0.15931800  0.47728900  0.66208400  1
  H  H20  1  0.37562100  0.78437100  0.63941800  1
  H  H21  1  0.62437900  0.21562900  0.36058200  1
  H  H22  1  0.37562100  0.21562900  0.86058200  1
  H  H23  1  0.62437900  0.78437100  0.13941800  1
  H  H24  1  0.40076700  0.87542600  0.54883800  1
  H  H25  1  0.59923300  0.12457400  0.45116200  1
  H  H26  1  0.40076700  0.12457400  0.95116200  1
  H  H27  1  0.59923300  0.87542600  0.04883800  1
  H  H28  1  0.59020300  0.71189400  0.87171100  1
  H  H29  1  0.40979700  0.28810600  0.12828900  1
  H  H30  1  0.59020300  0.28810600  0.62828900  1
  H  H31  1  0.40979700  0.71189400  0.37171100  1
  H  H32  1  0.59237300  0.61594400  0.95882600  1
  H  H33  1  0.40762700  0.38405600  0.04117400  1
  H  H34  1  0.59237300  0.38405600  0.54117400  1
  H  H35  1  0.40762700  0.61594400  0.45882600  1
  H  H36  1  0.97258200  0.40598500  0.09298100  1
  H  H37  1  0.02741800  0.59401500  0.90701900  1
  H  H38  1  0.97258200  0.59401500  0.40701900  1
  H  H39  1  0.02741800  0.40598500  0.59298100  1
  N  N0  1  0.85305500  0.68644300  0.58533800  1
  N  N1  1  0.14694500  0.31355700  0.41466200  1
  N  N2  1  0.85305500  0.31355700  0.91466200  1
  N  N3  1  0.14694500  0.68644300  0.08533800  1
  Cl  Cl0  1  0.37781600  0.60463300  0.63610900  1
  Cl  Cl1  1  0.62218400  0.39536700  0.36389100  1
  Cl  Cl2  1  0.37781600  0.39536700  0.86389100  1
  Cl  Cl3  1  0.62218400  0.60463300  0.13610900  1
  Cl  Cl4  1  0.55928200  0.88706400  0.87842800  1
  Cl  Cl5  1  0.44071800  0.11293600  0.12157200  1
  Cl  Cl6  1  0.55928200  0.11293600  0.62157200  1
  Cl  Cl7  1  0.44071800  0.88706400  0.37842800  1
  O  O0  1  0.90137300  0.82289500  0.30369300  1
  O  O1  1  0.09862700  0.17710500  0.69630700  1
  O  O2  1  0.90137300  0.17710500  0.19630700  1
  O  O3  1  0.09862700  0.82289500  0.80369300  1
  O  O4  1  0.82560100  0.59301200  0.55041600  1
  O  O5  1  0.17439900  0.40698800  0.44958400  1
  O  O6  1  0.82560100  0.40698800  0.94958400  1
  O  O7  1  0.17439900  0.59301200  0.05041600  1
  O  O8  1  0.96416700  0.43099300  0.16470000  1
  O  O9  1  0.03583300  0.56900700  0.83530000  1
  O  O10  1  0.96416700  0.56900700  0.33530000  1
  O  O11  1  0.03583300  0.43099300  0.66470000  1
  O  O12  1  0.90592000  0.76571100  0.52588500  1
  O  O13  1  0.09408000  0.23428900  0.47411500  1
  O  O14  1  0.90592000  0.23428900  0.97411500  1
  O  O15  1  0.09408000  0.76571100  0.02588500  1
  O  O16  1  0.97142600  0.96812700  0.62451400  1
  O  O17  1  0.02857400  0.03187300  0.37548600  1
  O  O18  1  0.97142600  0.03187300  0.87548600  1
  O  O19  1  0.02857400  0.96812700  0.12451400  1
  O  O20  1  0.61054000  0.63252600  0.88305300  1
  O  O21  1  0.38946000  0.36747400  0.11694700  1
  O  O22  1  0.61054000  0.36747400  0.61694700  1
  O  O23  1  0.38946000  0.63252600  0.38305300  1
  O  O24  1  0.37134600  0.86367400  0.62443000  1
  O  O25  1  0.62865400  0.13632600  0.37557000  1
  O  O26  1  0.37134600  0.13632600  0.87557000  1
  O  O27  1  0.62865400  0.86367400  0.12443000  1
  O  O28  1  0.82476600  0.69875400  0.68345900  1
  O  O29  1  0.17523400  0.30124600  0.31654100  1
  O  O30  1  0.82476600  0.30124600  0.81654100  1
  O  O31  1  0.17523400  0.69875400  0.18345900  1
loop_
_geom_bond_atom_site_label_1
_geom_bond_atom_site_label_2
_geom_bond_distance
_geom_bond_site_symmetry_2
H0 O0 0.984359 1_555
H1 O1 0.984359 1_555
H2 O2 0.984359 1_555
H3 O3 0.984359 1_555
H4 O18 0.989130 1_565
H5 O19 0.989130 1_545
H6 O16 0.989130 1_545
H7 O17 0.989130 1_565
H8 O0 0.980717 1_555
H9 O1 0.980717 1_555
H10 O2 0.980717 1_555
H11 O3 0.980717 1_555
H12 O16 0.986112 1_555
H13 O17 0.986112 1_555
H14 O18 0.986112 1_555
H15 O19 0.986112 1_555
H16 O8 0.993265 1_555
H17 O9 0.993265 1_555
H18 O10 0.993265 1_555
H19 O11 0.993265 1_555
H20 O24 0.988637 1_555
H21 O25 0.988637 1_555
H22 O26 0.988637 1_555
H23 O27 0.988637 1_555
H24 O24 0.986527 1_555
H25 O25 0.986527 1_555
H26 O26 0.986527 1_555
H27 O27 0.986527 1_555
H28 O20 0.992071 1_555
H29 O21 0.992071 1_555
H30 O22 0.992071 1_555
H31 O23 0.992071 1_555
H32 O20 0.985181 1_555
H33 O21 0.985181 1_555
H34 O22 0.985181 1_555
H35 O23 0.985181 1_555
H36 O8 0.976829 1_555
H37 O9 0.976829 1_555
H38 O10 0.976829 1_555
H39 O11 0.976829 1_555
N0 O12 1.260495 1_555
N0 O4 1.263886 1_555
N0 O28 1.277922 1_555
N1 O13 1.260495 1_555
N1 O5 1.263886 1_555
N1 O29 1.277922 1_555
N2 O14 1.260495 1_555
N2 O6 1.263886 1_555
N2 O30 1.277922 1_555
N3 O15 1.260495 1_555
N3 O7 1.263886 1_555
N3 O31 1.277922 1_555
Cl0 Pr0 2.925700 1_555
Cl1 Pr1 2.925700 1_555
Cl2 Pr0 2.925700 1_555
Cl3 Pr1 2.925700 1_555
Cl4 Pr2 2.907777 1_565
Cl5 Pr3 2.907777 1_555
Cl6 Pr2 2.907777 1_555
Cl7 Pr3 2.907777 1_565
O0 Pr3 2.483080 1_565
O1 Pr2 2.483080 1_555
O2 Pr3 2.483080 1_555
O3 Pr2 2.483080 1_565
O4 Pr0 2.839092 1_555
O5 Pr1 2.839092 1_555
O6 Pr0 2.839092 1_555
O7 Pr1 2.839092 1_555
O8 Pr1 2.535489 1_655
O9 Pr0 2.535489 1_455
O10 Pr1 2.535489 1_655
O11 Pr0 2.535489 1_455
O16 Pr2 2.496666 1_665
O17 Pr3 2.496666 1_455
O18 Pr2 2.496666 1_655
O19 Pr3 2.496666 1_465
O20 Pr0 2.497312 1_555
O21 Pr1 2.497312 1_555
O22 Pr0 2.497312 1_555
O23 Pr1 2.497312 1_555
O24 Pr2 2.487146 1_565
O25 Pr3 2.487146 1_555
O26 Pr2 2.487146 1_555
O27 Pr3 2.487146 1_565
O28 Pr0 2.658704 1_555
O29 Pr1 2.658704 1_555
O30 Pr0 2.658704 1_555
O31 Pr1 2.658704 1_555
