# generated using pymatgen
data_Eu4BClO7
_symmetry_space_group_name_H-M   'P 1'
_cell_length_a   8.92023000
_cell_length_b   8.31218500
_cell_length_c   12.66842519
_cell_angle_alpha   90.00000000
_cell_angle_beta   121.55099967
_cell_angle_gamma   90.00000000
_symmetry_Int_Tables_number   1
_chemical_formula_structural   Eu4BClO7
_chemical_formula_sum   'Eu16 B4 Cl4 O28'
_cell_volume   800.46536100
_cell_formula_units_Z   4
loop_
 _symmetry_equiv_pos_site_id
 _symmetry_equiv_pos_as_xyz
  1  'x, y, z'
loop_
 _atom_site_type_symbol
 _atom_site_label
 _atom_site_symmetry_multiplicity
 _atom_site_fract_x
 _atom_site_fract_y
 _atom_site_fract_z
 _atom_site_occupancy
  Eu  Eu0  1  0.19782000  0.36991300  0.21798200  1
  Eu  Eu1  1  0.19782000  0.13008700  0.71798200  1
  Eu  Eu2  1  0.80218000  0.63008700  0.78201800  1
  Eu  Eu3  1  0.80218000  0.86991300  0.28201800  1
  Eu  Eu4  1  0.58956700  0.38122100  0.91763700  1
  Eu  Eu5  1  0.58956700  0.11877900  0.41763700  1
  Eu  Eu6  1  0.41043300  0.61877900  0.08236300  1
  Eu  Eu7  1  0.41043300  0.88122100  0.58236300  1
  Eu  Eu8  1  0.42113400  0.36547000  0.57782000  1
  Eu  Eu9  1  0.42113400  0.13453000  0.07782000  1
  Eu  Eu10  1  0.57886600  0.63453000  0.42218000  1
  Eu  Eu11  1  0.57886600  0.86547000  0.92218000  1
  Eu  Eu12  1  0.81824800  0.38572700  0.28097400  1
  Eu  Eu13  1  0.81824800  0.11427300  0.78097400  1
  Eu  Eu14  1  0.18175200  0.61427300  0.71902600  1
  Eu  Eu15  1  0.18175200  0.88572700  0.21902600  1
  B  B0  1  0.13234400  0.12854900  0.41371200  1
  B  B1  1  0.13234400  0.37145100  0.91371200  1
  B  B2  1  0.86765600  0.87145100  0.58628800  1
  B  B3  1  0.86765600  0.62854900  0.08628800  1
  Cl  Cl0  1  0.88252300  0.13593300  0.03623500  1
  Cl  Cl1  1  0.88252300  0.36406700  0.53623500  1
  Cl  Cl2  1  0.11747700  0.86406700  0.96376500  1
  Cl  Cl3  1  0.11747700  0.63593300  0.46376500  1
  O  O0  1  0.45923700  0.37700200  0.40507000  1
  O  O1  1  0.45923700  0.12299800  0.90507000  1
  O  O2  1  0.54076300  0.62299800  0.59493000  1
  O  O3  1  0.54076300  0.87700200  0.09493000  1
  O  O4  1  0.69218200  0.36450000  0.77705700  1
  O  O5  1  0.69218200  0.13550000  0.27705700  1
  O  O6  1  0.30781800  0.63550000  0.22294300  1
  O  O7  1  0.30781800  0.86450000  0.72294300  1
  O  O8  1  0.32757200  0.38330600  0.72117700  1
  O  O9  1  0.32757200  0.11669400  0.22117700  1
  O  O10  1  0.67242800  0.61669400  0.27882300  1
  O  O11  1  0.67242800  0.88330600  0.77882300  1
  O  O12  1  0.56474400  0.37620800  0.09024500  1
  O  O13  1  0.56474400  0.12379200  0.59024500  1
  O  O14  1  0.43525600  0.62379200  0.90975500  1
  O  O15  1  0.43525600  0.87620800  0.40975500  1
  O  O16  1  0.22015100  0.11989900  0.54138700  1
  O  O17  1  0.22015100  0.38010100  0.04138700  1
  O  O18  1  0.77984900  0.88010100  0.45861300  1
  O  O19  1  0.77984900  0.61989900  0.95861300  1
  O  O20  1  0.07948700  0.98927500  0.34595600  1
  O  O21  1  0.07948700  0.51072500  0.84595600  1
  O  O22  1  0.92051300  0.01072500  0.65404400  1
  O  O23  1  0.92051300  0.48927500  0.15404400  1
  O  O24  1  0.11037400  0.27691700  0.35997000  1
  O  O25  1  0.11037400  0.22308300  0.85997000  1
  O  O26  1  0.88962600  0.72308300  0.64003000  1
  O  O27  1  0.88962600  0.77691700  0.14003000  1
loop_
_geom_bond_atom_site_label_1
_geom_bond_atom_site_label_2
_geom_bond_distance
_geom_bond_site_symmetry_2
Eu0 O0 2.296674 1_555
Eu0 O17 2.349084 1_555
Eu0 O23 2.379610 1_455
Eu0 O9 2.392159 1_555
Eu0 O6 2.403272 1_555
Eu0 O24 2.431031 1_555
Eu1 O1 2.296674 1_555
Eu1 O16 2.349084 1_555
Eu1 O22 2.379610 1_455
Eu1 O8 2.392159 1_555
Eu1 O7 2.403272 1_545
Eu1 O25 2.431031 1_555
Eu2 O2 2.296674 1_555
Eu2 O19 2.349084 1_555
Eu2 O21 2.379610 1_655
Eu2 O11 2.392159 1_555
Eu2 O4 2.403272 1_555
Eu2 O26 2.431031 1_555
Eu3 O3 2.296674 1_555
Eu3 O18 2.349084 1_555
Eu3 O20 2.379610 1_655
Eu3 O10 2.392159 1_555
Eu3 O5 2.403272 1_565
Eu3 O27 2.431031 1_555
Eu4 O12 2.310629 1_556
Eu4 O8 2.359945 1_555
Eu4 O4 2.394761 1_555
Eu4 O1 2.406294 1_555
Eu4 O14 2.413773 1_555
Eu4 O19 2.482823 1_555
Eu5 O13 2.310629 1_555
Eu5 O9 2.359945 1_555
Eu5 O5 2.394761 1_555
Eu5 O0 2.406294 1_555
Eu5 O15 2.413773 1_545
Eu5 O18 2.482823 1_545
Eu6 O14 2.310629 1_554
Eu6 O10 2.359945 1_555
Eu6 O6 2.394761 1_555
Eu6 O3 2.406294 1_555
Eu6 O12 2.413773 1_555
Eu6 O17 2.482823 1_555
Eu7 O15 2.310629 1_555
Eu7 O11 2.359945 1_555
Eu7 O7 2.394761 1_555
Eu7 O2 2.406294 1_555
Eu7 O13 2.413773 1_565
Eu7 O16 2.482823 1_565
Eu8 O13 2.343154 1_555
Eu8 O2 2.350727 1_555
Eu8 O8 2.367064 1_555
Eu8 O0 2.385906 1_555
Eu8 O4 2.414557 1_555
Eu8 O16 2.593815 1_555
Eu8 O24 2.799365 1_555
Eu9 O12 2.343154 1_555
Eu9 O3 2.350727 1_545
Eu9 O9 2.367064 1_555
Eu9 O1 2.385906 1_554
Eu9 O5 2.414557 1_555
Eu9 O17 2.593815 1_555
Eu9 O25 2.799365 1_554
Eu10 O15 2.343154 1_555
Eu10 O0 2.350727 1_555
Eu10 O10 2.367064 1_555
Eu10 O2 2.385906 1_555
Eu10 O6 2.414557 1_555
Eu10 O18 2.593815 1_555
Eu10 O26 2.799365 1_555
Eu11 O14 2.343154 1_555
Eu11 O1 2.350727 1_565
Eu11 O11 2.367064 1_555
Eu11 O3 2.385906 1_556
Eu11 O7 2.414557 1_555
Eu11 O19 2.593815 1_555
Eu11 O27 2.799365 1_556
Eu12 O12 2.289100 1_555
Eu12 O10 2.311143 1_555
Eu12 O5 2.352610 1_555
Eu12 O23 2.386158 1_555
Eu12 O24 2.425035 1_655
Eu13 O13 2.289100 1_555
Eu13 O11 2.311143 1_545
Eu13 O4 2.352610 1_555
Eu13 O22 2.386158 1_555
Eu13 O25 2.425035 1_655
Eu14 O14 2.289100 1_555
Eu14 O8 2.311143 1_555
Eu14 O7 2.352610 1_555
Eu14 O21 2.386158 1_555
Eu14 O26 2.425035 1_455
Eu15 O15 2.289100 1_555
Eu15 O9 2.311143 1_565
Eu15 O6 2.352610 1_555
Eu15 O20 2.386158 1_555
Eu15 O27 2.425035 1_455
B0 O20 1.369583 1_545
B0 O24 1.372310 1_555
B0 O16 1.381657 1_555
B1 O21 1.369583 1_555
B1 O25 1.372310 1_555
B1 O17 1.381657 1_556
B2 O22 1.369583 1_565
B2 O26 1.372310 1_555
B2 O18 1.381657 1_555
B3 O23 1.369583 1_555
B3 O27 1.372310 1_555
B3 O19 1.381657 1_554
Cl0 Eu13 2.979598 1_554
Cl0 Eu4 3.022333 1_554
Cl0 Eu0 3.196439 1_655
Cl0 Eu15 3.216184 1_645
Cl0 Eu11 3.222271 1_544
Cl1 Eu12 2.979598 1_555
Cl1 Eu5 3.022333 1_555
Cl1 Eu1 3.196439 1_655
Cl1 Eu14 3.216184 1_655
Cl1 Eu10 3.222271 1_555
Cl2 Eu15 2.979598 1_556
Cl2 Eu6 3.022333 1_556
Cl2 Eu2 3.196439 1_455
Cl2 Eu13 3.216184 1_465
Cl2 Eu9 3.222271 1_566
Cl3 Eu14 2.979598 1_555
Cl3 Eu7 3.022333 1_555
Cl3 Eu3 3.196439 1_455
Cl3 Eu12 3.216184 1_455
Cl3 Eu8 3.222271 1_555
