# generated using pymatgen
data_HfMg6Ga
_symmetry_space_group_name_H-M   'P 1'
_cell_length_a   4.99953200
_cell_length_b   5.99812200
_cell_length_c   11.32101900
_cell_angle_alpha   90.00000000
_cell_angle_beta   90.00000000
_cell_angle_gamma   90.00000000
_symmetry_Int_Tables_number   1
_chemical_formula_structural   HfMg6Ga
_chemical_formula_sum   'Hf2 Mg12 Ga2'
_cell_volume   339.49248616
_cell_formula_units_Z   2
loop_
 _symmetry_equiv_pos_site_id
 _symmetry_equiv_pos_as_xyz
  1  'x, y, z'
loop_
 _atom_site_type_symbol
 _atom_site_label
 _atom_site_symmetry_multiplicity
 _atom_site_fract_x
 _atom_site_fract_y
 _atom_site_fract_z
 _atom_site_occupancy
  Hf  Hf0  1  0.50000000  0.00000000  0.67663800  1
  Hf  Hf1  1  0.50000000  0.50000000  0.17663800  1
  Mg  Mg0  1  0.50000000  0.74977300  0.92458200  1
  Mg  Mg1  1  0.50000000  0.25022700  0.92458200  1
  Mg  Mg2  1  0.00000000  0.24499700  0.57880500  1
  Mg  Mg3  1  0.00000000  0.75500300  0.57880500  1
  Mg  Mg4  1  0.00000000  0.50000000  0.82023800  1
  Mg  Mg5  1  0.00000000  0.00000000  0.82898200  1
  Mg  Mg6  1  0.50000000  0.24977300  0.42458200  1
  Mg  Mg7  1  0.50000000  0.75022700  0.42458200  1
  Mg  Mg8  1  0.00000000  0.74499700  0.07880500  1
  Mg  Mg9  1  0.00000000  0.25500300  0.07880500  1
  Mg  Mg10  1  0.00000000  0.00000000  0.32023800  1
  Mg  Mg11  1  0.00000000  0.50000000  0.32898200  1
  Ga  Ga0  1  0.50000000  0.50000000  0.66736300  1
  Ga  Ga1  1  0.50000000  0.00000000  0.16736300  1
loop_
_geom_bond_atom_site_label_1
_geom_bond_atom_site_label_2
_geom_bond_distance
_geom_bond_site_symmetry_2
Hf0 Mg5 3.037002 1_655
Hf0 Mg5 3.037002 1_555
Hf0 Mg2 3.104035 1_555
Hf0 Mg3 3.104035 1_645
Hf0 Mg2 3.104035 1_655
Hf0 Mg3 3.104035 1_545
Hf0 Mg1 3.183050 1_555
Hf0 Mg0 3.183050 1_545
Hf0 Mg7 3.222910 1_545
Hf0 Mg6 3.222910 1_555
Hf1 Mg11 3.037002 1_655
Hf1 Mg11 3.037002 1_555
Hf1 Mg9 3.104035 1_555
Hf1 Mg9 3.104035 1_655
Hf1 Mg8 3.104035 1_555
Hf1 Mg8 3.104035 1_655
Hf1 Mg6 3.183050 1_555
Hf1 Mg7 3.183050 1_555
Hf1 Mg0 3.222910 1_554
Hf1 Mg1 3.222910 1_554
Mg0 Mg1 2.996338 1_555
Mg0 Mg1 3.001784 1_565
Mg0 Mg8 3.049268 1_656
Mg0 Mg8 3.049268 1_556
Mg0 Mg5 3.110122 1_665
Mg0 Mg5 3.110122 1_565
Mg0 Mg4 3.144640 1_555
Mg0 Mg4 3.144640 1_655
Mg1 Mg9 3.049268 1_556
Mg1 Mg9 3.049268 1_656
Mg1 Mg5 3.110122 1_555
Mg1 Mg5 3.110122 1_655
Mg1 Mg4 3.144640 1_655
Mg1 Mg4 3.144640 1_555
Mg2 Mg3 2.939044 1_545
Mg2 Mg6 3.049268 1_455
Mg2 Mg6 3.049268 1_555
Mg2 Mg3 3.059078 1_555
Mg2 Mg4 3.132131 1_555
Mg2 Mg5 3.190797 1_555
Mg3 Mg7 3.049268 1_455
Mg3 Mg7 3.049268 1_555
Mg3 Mg4 3.132131 1_555
Mg3 Mg5 3.190797 1_565
Mg4 Mg5 3.000694 1_565
Mg4 Mg5 3.000694 1_555
Mg4 Mg8 3.275399 1_556
Mg4 Mg9 3.275399 1_556
Mg5 Mg9 3.215353 1_556
Mg5 Mg8 3.215353 1_546
Mg6 Mg7 2.996338 1_545
Mg6 Mg7 3.001784 1_555
Mg8 Mg9 2.939044 1_555
Mg8 Mg9 3.059078 1_565
Mg10 Mg11 3.000694 1_555
Mg10 Mg11 3.000694 1_545
Mg10 Mg9 3.132131 1_555
Mg10 Mg8 3.132131 1_545
Mg10 Mg7 3.144640 1_545
Mg10 Mg7 3.144640 1_445
Mg10 Mg6 3.144640 1_455
Mg10 Mg6 3.144640 1_555
Mg10 Mg3 3.275399 1_545
Mg10 Mg2 3.275399 1_555
Mg11 Mg6 3.110122 1_455
Mg11 Mg6 3.110122 1_555
Mg11 Mg7 3.110122 1_455
Mg11 Mg7 3.110122 1_555
Mg11 Mg8 3.190797 1_555
Mg11 Mg9 3.190797 1_555
Mg11 Mg3 3.215353 1_555
Mg11 Mg2 3.215353 1_555
Ga0 Hf0 3.000899 1_555
Ga0 Hf0 3.000899 1_565
Ga0 Mg4 3.040420 1_655
Ga0 Mg4 3.040420 1_555
Ga0 Mg2 3.097331 1_555
Ga0 Mg3 3.097331 1_555
Ga0 Mg3 3.097331 1_655
Ga0 Mg2 3.097331 1_655
Ga0 Mg6 3.131627 1_555
Ga0 Mg7 3.131627 1_555
Ga0 Mg0 3.274774 1_555
Ga0 Mg1 3.274774 1_555
Ga1 Hf1 3.000899 1_545
Ga1 Hf1 3.000899 1_555
Ga1 Mg10 3.040420 1_555
Ga1 Mg10 3.040420 1_655
Ga1 Mg8 3.097331 1_545
Ga1 Mg9 3.097331 1_555
Ga1 Mg9 3.097331 1_655
Ga1 Mg8 3.097331 1_645
Ga1 Mg1 3.131627 1_554
Ga1 Mg0 3.131627 1_544
Ga1 Mg7 3.274774 1_545
Ga1 Mg6 3.274774 1_555
