# generated using pymatgen
data_Li9Mn2Co5O16
_symmetry_space_group_name_H-M   'P 1'
_cell_length_a   2.87271800
_cell_length_b   10.38845500
_cell_length_c   10.40281519
_cell_angle_alpha   68.81360186
_cell_angle_beta   90.00000000
_cell_angle_gamma   90.00000000
_symmetry_Int_Tables_number   1
_chemical_formula_structural   Li9Mn2Co5O16
_chemical_formula_sum   'Li9 Mn2 Co5 O16'
_cell_volume   289.46868563
_cell_formula_units_Z   1
loop_
 _symmetry_equiv_pos_site_id
 _symmetry_equiv_pos_as_xyz
  1  'x, y, z'
loop_
 _atom_site_type_symbol
 _atom_site_label
 _atom_site_symmetry_multiplicity
 _atom_site_fract_x
 _atom_site_fract_y
 _atom_site_fract_z
 _atom_site_occupancy
  Li  Li0  1  0.50000000  0.74006800  0.75269600  1
  Li  Li1  1  0.50000000  0.25760300  0.75052700  1
  Li  Li2  1  0.00000000  0.74990500  0.50154900  1
  Li  Li3  1  0.00000000  0.25009500  0.49845100  1
  Li  Li4  1  0.50000000  0.74239700  0.24947300  1
  Li  Li5  1  0.50000000  0.25993200  0.24730400  1
  Li  Li6  1  0.00000000  0.74253800  0.00018700  1
  Li  Li7  1  0.00000000  0.25746200  0.99981300  1
  Li  Li8  1  0.50000000  0.50000000  0.00000000  1
  Mn  Mn0  1  0.00000000  0.99952300  0.75070600  1
  Mn  Mn1  1  0.00000000  0.00047700  0.24929400  1
  Co  Co0  1  0.00000000  0.50455100  0.76045600  1
  Co  Co1  1  0.50000000  0.00000000  0.50000000  1
  Co  Co2  1  0.50000000  0.50000000  0.50000000  1
  Co  Co3  1  0.00000000  0.49544900  0.23954400  1
  Co  Co4  1  0.50000000  0.00000000  0.00000000  1
  O  O0  1  0.50000000  0.88338500  0.86007200  1
  O  O1  1  0.50000000  0.38106900  0.86395000  1
  O  O2  1  0.00000000  0.88940100  0.60875000  1
  O  O3  1  0.00000000  0.38680900  0.62562400  1
  O  O4  1  0.50000000  0.88396700  0.35833200  1
  O  O5  1  0.50000000  0.38703600  0.37552300  1
  O  O6  1  0.00000000  0.89003300  0.10828200  1
  O  O7  1  0.00000000  0.38486600  0.13963800  1
  O  O8  1  0.50000000  0.61296400  0.62447700  1
  O  O9  1  0.50000000  0.11603300  0.64166800  1
  O  O10  1  0.00000000  0.61319100  0.37437600  1
  O  O11  1  0.00000000  0.11059900  0.39125000  1
  O  O12  1  0.50000000  0.61893100  0.13605000  1
  O  O13  1  0.50000000  0.11661500  0.13992800  1
  O  O14  1  0.00000000  0.61513400  0.86036200  1
  O  O15  1  0.00000000  0.10996700  0.89171800  1
loop_
_geom_bond_atom_site_label_1
_geom_bond_atom_site_label_2
_geom_bond_distance
_geom_bond_site_symmetry_2
Li0 O14 1.987801 1_555
Li0 O14 1.987801 1_655
Li0 O0 2.160193 1_555
Li0 O8 2.189895 1_555
Li0 O2 2.243437 1_655
Li0 O2 2.243437 1_555
Li1 O1 2.032538 1_555
Li1 O3 2.071823 1_555
Li1 O3 2.071823 1_655
Li1 O9 2.156194 1_555
Li1 O15 2.223615 1_555
Li1 O15 2.223615 1_655
Li2 O8 2.099359 1_455
Li2 O8 2.099359 1_555
Li2 O2 2.124099 1_555
Li2 O4 2.173165 1_455
Li2 O4 2.173165 1_555
Li2 O10 2.263939 1_555
Li3 O5 2.099359 1_455
Li3 O5 2.099359 1_555
Li3 O11 2.124099 1_555
Li3 O9 2.173165 1_455
Li3 O9 2.173165 1_555
Li3 O3 2.263939 1_555
Li4 O12 2.032538 1_555
Li4 O10 2.071823 1_655
Li4 O10 2.071823 1_555
Li4 O4 2.156194 1_555
Li4 O6 2.223615 1_555
Li4 O6 2.223615 1_655
Li5 O7 1.987801 1_555
Li5 O7 1.987801 1_655
Li5 O13 2.160193 1_555
Li5 O5 2.189895 1_555
Li5 O11 2.243437 1_655
Li5 O11 2.243437 1_555
Li6 O12 2.097089 1_455
Li6 O12 2.097089 1_555
Li6 O0 2.187934 1_454
Li6 O0 2.187934 1_554
Li6 O6 2.204008 1_555
Li6 O14 2.293261 1_554
Li7 O1 2.097089 1_455
Li7 O1 2.097089 1_555
Li7 O13 2.187934 1_456
Li7 O13 2.187934 1_556
Li7 O15 2.204008 1_555
Li7 O7 2.293261 1_556
Li8 O7 2.085185 1_555
Li8 O14 2.085185 1_554
Li8 O14 2.085185 1_654
Li8 O7 2.085185 1_655
Li8 O12 2.189402 1_555
Li8 O1 2.189402 1_554
Mn0 O0 1.954736 1_455
Mn0 O0 1.954736 1_555
Mn0 O9 1.955093 1_565
Mn0 O9 1.955093 1_465
Mn0 O15 2.164436 1_565
Mn0 O2 2.170391 1_555
Mn1 O13 1.954736 1_555
Mn1 O13 1.954736 1_455
Mn1 O4 1.955093 1_445
Mn1 O4 1.955093 1_545
Mn1 O6 2.164436 1_545
Mn1 O11 2.170391 1_555
Co0 O14 1.806336 1_555
Co0 O1 1.967115 1_455
Co0 O1 1.967115 1_555
Co0 O8 2.044752 1_455
Co0 O8 2.044752 1_555
Co0 O3 2.168771 1_555
Co1 O2 1.929652 1_645
Co1 O11 1.929652 1_655
Co1 O2 1.929652 1_545
Co1 O11 1.929652 1_555
Co1 O9 2.215618 1_555
Co1 O4 2.215618 1_545
Co2 O3 2.010704 1_655
Co2 O3 2.010704 1_555
Co2 O10 2.010704 1_555
Co2 O10 2.010704 1_655
Co2 O8 2.037726 1_555
Co2 O5 2.037726 1_555
Co3 O7 1.806336 1_555
Co3 O12 1.967115 1_455
Co3 O12 1.967115 1_555
Co3 O5 2.044752 1_555
Co3 O5 2.044752 1_455
Co3 O10 2.168771 1_555
Co4 O15 1.925334 1_654
Co4 O6 1.925334 1_545
Co4 O6 1.925334 1_645
Co4 O15 1.925334 1_554
Co4 O13 2.204799 1_555
Co4 O0 2.204799 1_544
