# generated using pymatgen
data_SmGd3
_symmetry_space_group_name_H-M   'P 1'
_cell_length_a   7.32360655
_cell_length_b   7.32359603
_cell_length_c   5.91161641
_cell_angle_alpha   90.00000000
_cell_angle_beta   90.00000000
_cell_angle_gamma   119.99755505
_symmetry_Int_Tables_number   1
_chemical_formula_structural   SmGd3
_chemical_formula_sum   'Sm2 Gd6'
_cell_volume   274.59774213
_cell_formula_units_Z   2
loop_
 _symmetry_equiv_pos_site_id
 _symmetry_equiv_pos_as_xyz
  1  'x, y, z'
loop_
 _atom_site_type_symbol
 _atom_site_label
 _atom_site_symmetry_multiplicity
 _atom_site_fract_x
 _atom_site_fract_y
 _atom_site_fract_z
 _atom_site_occupancy
  Sm  Sm0  1  0.66665616  0.33334374  0.24999900  1
  Sm  Sm1  1  0.33333527  0.66665317  0.75000000  1
  Gd  Gd0  1  0.83440806  0.16560785  0.75000000  1
  Gd  Gd1  1  0.33118268  0.16559940  0.75000000  1
  Gd  Gd2  1  0.83440598  0.66881280  0.75000000  1
  Gd  Gd3  1  0.16559800  0.83440030  0.24999900  1
  Gd  Gd4  1  0.66881403  0.83439882  0.24999900  1
  Gd  Gd5  1  0.16559882  0.33118391  0.24999900  1
loop_
_geom_bond_atom_site_label_1
_geom_bond_atom_site_label_2
_geom_bond_distance
_geom_bond_site_symmetry_2
Gd0 Gd5 3.626198 1_656
Gd0 Gd5 3.626208 1_655
Gd0 Gd4 3.626263 1_546
Gd0 Gd4 3.626273 1_545
Gd0 Gd1 3.638213 1_655
Gd0 Gd2 3.638319 1_545
Gd0 Sm0 3.642007 1_556
Gd0 Sm0 3.642017 1_555
Gd0 Sm1 3.661860 1_655
Gd0 Sm1 3.662061 1_545
Gd0 Gd2 3.685277 1_555
Gd0 Gd1 3.685394 1_555
Gd1 Gd5 3.626070 1_556
Gd1 Gd5 3.626080 1_555
Gd1 Gd3 3.626227 1_546
Gd1 Gd3 3.626236 1_545
Gd1 Gd2 3.638365 1_445
Gd1 Sm0 3.642001 1_556
Gd1 Sm0 3.642010 1_555
Gd1 Sm1 3.661659 1_555
Gd1 Sm1 3.661988 1_545
Gd1 Gd2 3.685507 1_555
Gd2 Gd4 3.626105 1_556
Gd2 Gd4 3.626115 1_555
Gd2 Gd3 3.626203 1_656
Gd2 Gd3 3.626212 1_655
Gd2 Sm0 3.641983 1_556
Gd2 Sm0 3.641992 1_555
Gd2 Sm1 3.661763 1_555
Gd2 Sm1 3.661895 1_655
Gd3 Gd5 3.638239 1_565
Gd3 Gd4 3.638245 1_455
Gd3 Sm1 3.641994 1_554
Gd3 Sm1 3.642004 1_555
Gd3 Sm0 3.661955 1_455
Gd3 Sm0 3.661966 1_565
Gd3 Gd5 3.685357 1_555
Gd3 Gd4 3.685362 1_555
Gd4 Gd5 3.638389 1_665
Gd4 Sm1 3.642020 1_554
Gd4 Sm1 3.642030 1_555
Gd4 Sm0 3.661649 1_555
Gd4 Sm0 3.661998 1_565
Gd4 Gd5 3.685483 1_555
Gd5 Sm1 3.641983 1_554
Gd5 Sm1 3.641993 1_555
Gd5 Sm0 3.661664 1_555
Gd5 Sm0 3.661994 1_455
