# generated using pymatgen
data_CaSm4V4O12
_symmetry_space_group_name_H-M   'P 1'
_cell_length_a   5.85166592
_cell_length_b   6.14154408
_cell_length_c   7.72615224
_cell_angle_alpha   91.37862070
_cell_angle_beta   91.66746655
_cell_angle_gamma   82.08610158
_symmetry_Int_Tables_number   1
_chemical_formula_structural   CaSm4V4O12
_chemical_formula_sum   'Ca1 Sm4 V4 O12'
_cell_volume   274.84719840
_cell_formula_units_Z   1
loop_
 _symmetry_equiv_pos_site_id
 _symmetry_equiv_pos_as_xyz
  1  'x, y, z'
loop_
 _atom_site_type_symbol
 _atom_site_label
 _atom_site_symmetry_multiplicity
 _atom_site_fract_x
 _atom_site_fract_y
 _atom_site_fract_z
 _atom_site_occupancy
  Ca  Ca0  1  0.88348000  0.29726200  0.32870800  1
  Sm  Sm0  1  0.03729300  0.43874000  0.74908000  1
  Sm  Sm1  1  0.14180600  0.62824200  0.20978900  1
  Sm  Sm2  1  0.45611400  0.06939200  0.25660700  1
  Sm  Sm3  1  0.50932100  0.92680300  0.74898300  1
  V  V0  1  0.97152000  0.92023000  0.53164300  1
  V  V1  1  0.48840700  0.50050700  0.51287800  1
  V  V2  1  0.97686500  0.00973100  0.98900600  1
  V  V3  1  0.57020900  0.50839300  0.98808300  1
  O  O0  1  0.31150100  0.81749800  0.44880000  1
  O  O1  1  0.66141300  0.15984400  0.53987600  1
  O  O2  1  0.77986800  0.64582000  0.55571300  1
  O  O3  1  0.20545300  0.35656100  0.45836300  1
  O  O4  1  0.84185000  0.70792700  0.93017900  1
  O  O5  1  0.12115800  0.28421800  0.08262800  1
  O  O6  1  0.33043700  0.83183600  0.04591700  1
  O  O7  1  0.66641900  0.17295500  0.95114400  1
  O  O8  1  0.88050400  0.94661000  0.24850200  1
  O  O9  1  0.10779100  0.05407400  0.75561500  1
  O  O10  1  0.39237300  0.55652500  0.75258100  1
  O  O11  1  0.53526600  0.44808300  0.24923700  1
loop_
_geom_bond_atom_site_label_1
_geom_bond_atom_site_label_2
_geom_bond_distance
_geom_bond_site_symmetry_2
Ca0 O3 2.178855 1_655
Ca0 O11 2.195848 1_555
Ca0 O8 2.228800 1_545
Ca0 O1 2.356766 1_555
Ca0 O5 2.381473 1_655
Ca0 O2 2.747732 1_555
O0 V0 2.115351 1_455
O0 V1 2.137383 1_555
O0 Sm1 2.419697 1_555
O0 Sm2 2.420432 1_565
O0 Sm3 2.674401 1_555
O1 V0 2.174727 1_545
O1 V1 2.207068 1_555
O1 Sm3 2.448745 1_545
O1 Sm2 2.552245 1_555
O2 V1 2.046193 1_555
O2 V0 2.163383 1_555
O2 Sm0 2.356158 1_655
O2 Sm3 2.641084 1_555
O3 V1 2.011228 1_555
O3 Sm0 2.491066 1_555
O3 Sm1 2.559801 1_555
O3 Sm2 2.642012 1_555
O4 V2 2.146675 1_565
O4 V3 2.198341 1_555
O4 Sm0 2.336675 1_655
O4 Sm3 2.600940 1_555
O4 Sm1 2.753356 1_656
O5 V2 2.091824 1_454
O5 Sm1 2.325388 1_555
O5 Sm2 2.570847 1_555
O5 Sm0 2.774603 1_554
O6 Sm1 2.218652 1_555
O6 V2 2.239511 1_464
O6 V3 2.310949 1_554
O6 Sm2 2.330392 1_565
O6 Sm3 2.659195 1_554
O7 V2 1.967821 1_555
O7 V3 2.074640 1_555
O7 Sm3 2.399084 1_545
O7 Sm2 2.818803 1_556
O8 V2 2.156679 1_564
O8 V0 2.240747 1_555
O8 Sm1 2.329323 1_655
O8 Sm2 2.496171 1_565
O9 V2 2.018464 1_455
O9 V0 2.082725 1_445
O9 Sm0 2.343081 1_555
O9 Sm3 2.373530 1_545
O10 V1 1.959762 1_555
O10 V3 2.076524 1_555
O10 Sm0 2.291503 1_555
O10 Sm3 2.464390 1_555
O11 V1 2.074746 1_555
O11 V3 2.081107 1_554
O11 Sm1 2.427354 1_555
O11 Sm2 2.435449 1_555
