# generated using pymatgen
data_Tl(Mo3S4)2
_symmetry_space_group_name_H-M   'P 1'
_cell_length_a   6.66215198
_cell_length_b   6.66215198
_cell_length_c   6.66215193
_cell_angle_alpha   88.98488101
_cell_angle_beta   88.98488101
_cell_angle_gamma   88.98487958
_symmetry_Int_Tables_number   1
_chemical_formula_structural   Tl(Mo3S4)2
_chemical_formula_sum   'Tl1 Mo6 S8'
_cell_volume   295.55714298
_cell_formula_units_Z   1
loop_
 _symmetry_equiv_pos_site_id
 _symmetry_equiv_pos_as_xyz
  1  'x, y, z'
loop_
 _atom_site_type_symbol
 _atom_site_label
 _atom_site_symmetry_multiplicity
 _atom_site_fract_x
 _atom_site_fract_y
 _atom_site_fract_z
 _atom_site_occupancy
  Tl  Tl0  1  0.00000000  0.00000000  0.00000000  1
  Mo  Mo0  1  0.77068400  0.58718200  0.43673300  1
  Mo  Mo1  1  0.43673300  0.77068400  0.58718200  1
  Mo  Mo2  1  0.58718200  0.43673300  0.77068400  1
  Mo  Mo3  1  0.22931600  0.41281800  0.56326700  1
  Mo  Mo4  1  0.56326700  0.22931600  0.41281800  1
  Mo  Mo5  1  0.41281800  0.56326700  0.22931600  1
  S  S0  1  0.75289900  0.75289900  0.75289900  1
  S  S1  1  0.24710100  0.24710100  0.24710100  1
  S  S2  1  0.26733500  0.60689300  0.87581100  1
  S  S3  1  0.87581100  0.26733500  0.60689300  1
  S  S4  1  0.60689300  0.87581100  0.26733500  1
  S  S5  1  0.73266500  0.39310700  0.12418900  1
  S  S6  1  0.12418900  0.73266500  0.39310700  1
  S  S7  1  0.39310700  0.12418900  0.73266500  1
loop_
_geom_bond_atom_site_label_1
_geom_bond_atom_site_label_2
_geom_bond_distance
_geom_bond_site_symmetry_2
Mo0 S0 2.395525 1_555
Mo0 S4 2.460540 1_555
Mo0 S5 2.489417 1_555
Mo0 S3 2.491166 1_555
Mo0 S6 2.572361 1_655
Mo1 S0 2.395525 1_555
Mo1 S2 2.460540 1_555
Mo1 S6 2.489417 1_555
Mo1 S4 2.491166 1_555
Mo1 S7 2.572361 1_565
Mo2 S0 2.395525 1_555
Mo2 S3 2.460540 1_555
Mo2 S7 2.489417 1_555
Mo2 S2 2.491166 1_555
Mo2 S5 2.572361 1_556
Mo3 S1 2.395525 1_555
Mo3 S7 2.460540 1_555
Mo3 S2 2.489417 1_555
Mo3 S6 2.491166 1_555
Mo3 S3 2.572361 1_455
Mo4 S1 2.395525 1_555
Mo4 S5 2.460540 1_555
Mo4 S3 2.489417 1_555
Mo4 S7 2.491166 1_555
Mo4 S4 2.572361 1_545
Mo5 S1 2.395525 1_555
Mo5 S6 2.460540 1_555
Mo5 S4 2.489417 1_555
Mo5 S5 2.491166 1_555
Mo5 S2 2.572361 1_554
S0 Tl0 2.901420 1_666
S1 Tl0 2.901420 1_555
