# generated using pymatgen
data_Hf3Sb7Pd
_symmetry_space_group_name_H-M   'P 1'
_cell_length_a   3.96574742
_cell_length_b   14.63407083
_cell_length_c   17.54612760
_cell_angle_alpha   90.00000000
_cell_angle_beta   90.00000000
_cell_angle_gamma   90.00000000
_symmetry_Int_Tables_number   1
_chemical_formula_structural   Hf3Sb7Pd
_chemical_formula_sum   'Hf12 Sb28 Pd4'
_cell_volume   1018.29001775
_cell_formula_units_Z   4
loop_
 _symmetry_equiv_pos_site_id
 _symmetry_equiv_pos_as_xyz
  1  'x, y, z'
loop_
 _atom_site_type_symbol
 _atom_site_label
 _atom_site_symmetry_multiplicity
 _atom_site_fract_x
 _atom_site_fract_y
 _atom_site_fract_z
 _atom_site_occupancy
  Hf  Hf0  1  0.25000000  0.31136330  0.84822064  1
  Hf  Hf1  1  0.25000000  0.18863670  0.34822064  1
  Hf  Hf2  1  0.75000000  0.68863670  0.15177936  1
  Hf  Hf3  1  0.75000000  0.81136330  0.65177936  1
  Hf  Hf4  1  0.25000000  0.03192787  0.86965102  1
  Hf  Hf5  1  0.25000000  0.46807213  0.36965102  1
  Hf  Hf6  1  0.75000000  0.96807213  0.13034898  1
  Hf  Hf7  1  0.75000000  0.53192787  0.63034898  1
  Hf  Hf8  1  0.25000000  0.58696984  0.89297125  1
  Hf  Hf9  1  0.25000000  0.91303016  0.39297125  1
  Hf  Hf10  1  0.75000000  0.41303016  0.10702875  1
  Hf  Hf11  1  0.75000000  0.08696984  0.60702875  1
  Sb  Sb0  1  0.25000000  0.19506538  0.52032707  1
  Sb  Sb1  1  0.25000000  0.30493462  0.02032707  1
  Sb  Sb2  1  0.75000000  0.80493462  0.47967293  1
  Sb  Sb3  1  0.75000000  0.69506538  0.97967293  1
  Sb  Sb4  1  0.25000000  0.42906338  0.53658542  1
  Sb  Sb5  1  0.25000000  0.07093662  0.03658542  1
  Sb  Sb6  1  0.75000000  0.57093662  0.46341458  1
  Sb  Sb7  1  0.75000000  0.92906338  0.96341458  1
  Sb  Sb8  1  0.25000000  0.94004132  0.57179917  1
  Sb  Sb9  1  0.25000000  0.55995868  0.07179917  1
  Sb  Sb10  1  0.75000000  0.05995868  0.42820083  1
  Sb  Sb11  1  0.75000000  0.44004132  0.92820083  1
  Sb  Sb12  1  0.25000000  0.67665935  0.59441745  1
  Sb  Sb13  1  0.25000000  0.82334065  0.09441745  1
  Sb  Sb14  1  0.75000000  0.32334065  0.40558255  1
  Sb  Sb15  1  0.75000000  0.17665935  0.90558255  1
  Sb  Sb16  1  0.25000000  0.14771360  0.72702490  1
  Sb  Sb17  1  0.25000000  0.35228640  0.22702490  1
  Sb  Sb18  1  0.75000000  0.85228640  0.27297510  1
  Sb  Sb19  1  0.75000000  0.64771360  0.77297510  1
  Sb  Sb20  1  0.25000000  0.48080967  0.74822485  1
  Sb  Sb21  1  0.25000000  0.01919033  0.24822485  1
  Sb  Sb22  1  0.75000000  0.51919033  0.25177515  1
  Sb  Sb23  1  0.75000000  0.98080967  0.75177515  1
  Sb  Sb24  1  0.25000000  0.82080390  0.78309948  1
  Sb  Sb25  1  0.25000000  0.67919610  0.28309948  1
  Sb  Sb26  1  0.75000000  0.17919610  0.21690052  1
  Sb  Sb27  1  0.75000000  0.32080390  0.71690052  1
  Pd  Pd0  1  0.25000000  0.81010055  0.93561858  1
  Pd  Pd1  1  0.25000000  0.68989945  0.43561858  1
  Pd  Pd2  1  0.75000000  0.18989945  0.06438142  1
  Pd  Pd3  1  0.75000000  0.31010055  0.56438142  1
loop_
_geom_bond_atom_site_label_1
_geom_bond_atom_site_label_2
_geom_bond_distance
_geom_bond_site_symmetry_2
Hf0 Sb15 2.971647 1_455
Hf0 Sb15 2.971647 1_555
Hf0 Sb1 3.021266 1_556
Hf0 Sb20 3.037642 1_555
Hf0 Sb27 3.043029 1_455
Hf0 Sb27 3.043029 1_555
Hf0 Sb11 3.073623 1_455
Hf0 Sb11 3.073623 1_555
Hf0 Sb16 3.202722 1_555
Hf1 Sb14 2.971647 1_455
Hf1 Sb14 2.971647 1_555
Hf1 Sb0 3.021266 1_555
Hf1 Sb21 3.037642 1_555
Hf1 Sb26 3.043029 1_555
Hf1 Sb26 3.043029 1_455
Hf1 Sb10 3.073623 1_455
Hf1 Sb10 3.073623 1_555
Hf1 Sb17 3.202722 1_555
Hf2 Sb13 2.971647 1_655
Hf2 Sb13 2.971647 1_555
Hf2 Sb3 3.021266 1_554
Hf2 Sb22 3.037642 1_555
Hf2 Sb25 3.043029 1_555
Hf2 Sb25 3.043029 1_655
Hf2 Sb9 3.073623 1_555
Hf2 Sb9 3.073623 1_655
Hf2 Sb18 3.202722 1_555
Hf3 Sb12 2.971647 1_555
Hf3 Sb12 2.971647 1_655
Hf3 Sb2 3.021266 1_555
Hf3 Sb23 3.037642 1_555
Hf3 Sb24 3.043029 1_555
Hf3 Sb24 3.043029 1_655
Hf3 Sb8 3.073623 1_555
Hf3 Sb8 3.073623 1_655
Hf3 Sb19 3.202722 1_555
Hf4 Sb23 2.961269 1_445
Hf4 Sb23 2.961269 1_545
Hf4 Sb15 2.969046 1_455
Hf4 Sb15 2.969046 1_555
Hf4 Sb7 2.984030 1_545
Hf4 Sb7 2.984030 1_445
Hf4 Sb5 2.984162 1_556
Hf4 Sb16 3.022207 1_555
Hf4 Pd0 3.446419 1_545
Hf5 Sb22 2.961269 1_455
Hf5 Sb22 2.961269 1_555
Hf5 Sb14 2.969046 1_455
Hf5 Sb14 2.969046 1_555
Hf5 Sb6 2.984030 1_555
Hf5 Sb6 2.984030 1_455
Hf5 Sb4 2.984162 1_555
Hf5 Sb17 3.022207 1_555
Hf5 Pd1 3.446419 1_555
Hf6 Sb21 2.961269 1_565
Hf6 Sb21 2.961269 1_665
Hf6 Sb13 2.969046 1_555
Hf6 Sb13 2.969046 1_655
Hf6 Sb5 2.984030 1_665
Hf6 Sb5 2.984030 1_565
Hf6 Sb7 2.984162 1_554
Hf6 Sb18 3.022207 1_555
Hf6 Pd2 3.446419 1_565
Hf7 Sb20 2.961269 1_555
Hf7 Sb20 2.961269 1_655
Hf7 Sb12 2.969046 1_555
Hf7 Sb12 2.969046 1_655
Hf7 Sb4 2.984030 1_555
Hf7 Sb4 2.984030 1_655
Hf7 Sb6 2.984162 1_555
Hf7 Sb19 3.022207 1_555
Hf7 Pd3 3.446419 1_555
Hf8 Sb3 2.957772 1_555
Hf8 Sb3 2.957772 1_455
Hf8 Sb20 2.977215 1_555
Hf8 Sb11 2.989496 1_555
Hf8 Sb11 2.989496 1_455
Hf8 Sb19 3.025719 1_555
Hf8 Sb19 3.025719 1_455
Hf8 Sb9 3.162538 1_556
Hf8 Pd0 3.349955 1_555
Hf9 Sb2 2.957772 1_555
Hf9 Sb2 2.957772 1_455
Hf9 Sb21 2.977215 1_565
Hf9 Sb10 2.989496 1_465
Hf9 Sb10 2.989496 1_565
Hf9 Sb18 3.025719 1_455
Hf9 Sb18 3.025719 1_555
Hf9 Sb8 3.162538 1_555
Hf9 Pd1 3.349955 1_555
Hf10 Sb1 2.957772 1_655
Hf10 Sb1 2.957772 1_555
Hf10 Sb22 2.977215 1_555
Hf10 Sb9 2.989496 1_555
Hf10 Sb9 2.989496 1_655
Hf10 Sb17 3.025719 1_555
Hf10 Sb17 3.025719 1_655
Hf10 Sb11 3.162538 1_554
Hf10 Pd2 3.349955 1_555
Hf11 Sb0 2.957772 1_555
Hf11 Sb0 2.957772 1_655
Hf11 Sb23 2.977215 1_545
Hf11 Sb8 2.989496 1_545
Hf11 Sb8 2.989496 1_645
Hf11 Sb16 3.025719 1_555
Hf11 Sb16 3.025719 1_655
Hf11 Sb10 3.162538 1_555
Hf11 Pd3 3.349955 1_555
Pd0 Sb24 2.680700 1_555
Pd0 Sb7 2.683360 1_455
Pd0 Sb7 2.683360 1_555
Pd0 Sb3 2.713529 1_555
Pd0 Sb3 2.713529 1_455
Pd0 Sb13 2.793034 1_556
Pd1 Sb25 2.680700 1_555
Pd1 Sb6 2.683360 1_455
Pd1 Sb6 2.683360 1_555
Pd1 Sb2 2.713529 1_455
Pd1 Sb2 2.713529 1_555
Pd1 Sb12 2.793034 1_555
Pd2 Sb26 2.680700 1_555
Pd2 Sb5 2.683360 1_655
Pd2 Sb5 2.683360 1_555
Pd2 Sb1 2.713529 1_655
Pd2 Sb1 2.713529 1_555
Pd2 Sb15 2.793034 1_554
Pd3 Sb27 2.680700 1_555
Pd3 Sb4 2.683360 1_555
Pd3 Sb4 2.683360 1_655
Pd3 Sb0 2.713529 1_555
Pd3 Sb0 2.713529 1_655
Pd3 Sb14 2.793034 1_555
