# generated using pymatgen
data_RbSm2I5
_symmetry_space_group_name_H-M   'P 1'
_cell_length_a   8.78873800
_cell_length_b   9.78271800
_cell_length_c   14.13182983
_cell_angle_alpha   89.23615284
_cell_angle_beta   90.00000000
_cell_angle_gamma   90.00000000
_symmetry_Int_Tables_number   1
_chemical_formula_structural   RbSm2I5
_chemical_formula_sum   'Rb4 Sm8 I20'
_cell_volume   1214.91489415
_cell_formula_units_Z   4
loop_
 _symmetry_equiv_pos_site_id
 _symmetry_equiv_pos_as_xyz
  1  'x, y, z'
loop_
 _atom_site_type_symbol
 _atom_site_label
 _atom_site_symmetry_multiplicity
 _atom_site_fract_x
 _atom_site_fract_y
 _atom_site_fract_z
 _atom_site_occupancy
  Rb  Rb0  1  0.45310700  0.50062400  0.82763600  1
  Rb  Rb1  1  0.54689300  0.49937600  0.17236400  1
  Rb  Rb2  1  0.95310700  0.49937600  0.67236400  1
  Rb  Rb3  1  0.04689300  0.50062400  0.32763600  1
  Sm  Sm0  1  0.44669400  0.99400100  0.82350700  1
  Sm  Sm1  1  0.55330600  0.00599900  0.17649300  1
  Sm  Sm2  1  0.94669400  0.00599900  0.67649300  1
  Sm  Sm3  1  0.05330600  0.99400100  0.32350700  1
  Sm  Sm4  1  0.41288300  0.76662300  0.49925300  1
  Sm  Sm5  1  0.58711700  0.23337700  0.50074700  1
  Sm  Sm6  1  0.91288300  0.23337700  0.00074700  1
  Sm  Sm7  1  0.08711700  0.76662300  0.99925300  1
  I  I0  1  0.33494800  0.46406800  0.57965400  1
  I  I1  1  0.66505200  0.53593200  0.42034600  1
  I  I2  1  0.83494800  0.53593200  0.92034600  1
  I  I3  1  0.16505200  0.46406800  0.07965400  1
  I  I4  1  0.65379200  0.79237800  0.67909700  1
  I  I5  1  0.34620800  0.20762200  0.32090300  1
  I  I6  1  0.15379200  0.20762200  0.82090300  1
  I  I7  1  0.84620800  0.79237800  0.17909700  1
  I  I8  1  0.18313000  0.77637500  0.78261300  1
  I  I9  1  0.81687000  0.22362500  0.21738700  1
  I  I10  1  0.68313000  0.22362500  0.71738700  1
  I  I11  1  0.31687000  0.77637500  0.28261300  1
  I  I12  1  0.04025500  0.79086200  0.50661700  1
  I  I13  1  0.95974500  0.20913800  0.49338300  1
  I  I14  1  0.54025500  0.20913800  0.99338300  1
  I  I15  1  0.45974500  0.79086200  0.00661700  1
  I  I16  1  0.83788000  0.95457900  0.89730300  1
  I  I17  1  0.16212000  0.04542100  0.10269700  1
  I  I18  1  0.33788000  0.04542100  0.60269700  1
  I  I19  1  0.66212000  0.95457900  0.39730300  1
loop_
_geom_bond_atom_site_label_1
_geom_bond_atom_site_label_2
_geom_bond_distance
_geom_bond_site_symmetry_2
I0 Sm4 3.229698 1_555
I0 Sm5 3.363834 1_555
I0 Rb2 3.620769 1_455
I0 Rb0 3.677066 1_555
I1 Sm5 3.229698 1_555
I1 Sm4 3.363834 1_555
I1 Rb3 3.620769 1_655
I1 Rb1 3.677066 1_555
I2 Sm6 3.229698 1_556
I2 Sm7 3.363834 1_655
I2 Rb0 3.620769 1_555
I2 Rb2 3.677066 1_555
I3 Sm7 3.229698 1_554
I3 Sm6 3.363834 1_455
I3 Rb1 3.620769 1_555
I3 Rb3 3.677066 1_555
I4 Sm2 3.315607 1_565
I4 Sm4 3.320061 1_555
I4 Sm0 3.387538 1_555
I4 Rb2 3.892606 1_555
I4 Rb0 3.937465 1_555
I5 Sm3 3.315607 1_545
I5 Sm5 3.320061 1_555
I5 Sm1 3.387538 1_555
I5 Rb3 3.892606 1_555
I5 Rb1 3.937465 1_555
I6 Sm0 3.315607 1_545
I6 Sm6 3.320061 1_456
I6 Sm2 3.387538 1_455
I6 Rb0 3.892606 1_555
I6 Rb2 3.937465 1_455
I7 Sm1 3.315607 1_565
I7 Sm7 3.320061 1_654
I7 Sm3 3.387538 1_655
I7 Rb1 3.892606 1_555
I7 Rb3 3.937465 1_655
I8 Sm7 3.175889 1_555
I8 Sm0 3.203903 1_555
I8 Sm2 3.394590 1_465
I8 Rb0 3.642259 1_555
I8 Rb2 3.737638 1_455
I9 Sm6 3.175889 1_555
I9 Sm1 3.203903 1_555
I9 Sm3 3.394590 1_645
I9 Rb1 3.642259 1_555
I9 Rb3 3.737638 1_655
I10 Sm5 3.175889 1_555
I10 Sm2 3.203903 1_555
I10 Sm0 3.394590 1_545
I10 Rb2 3.642259 1_555
I10 Rb0 3.737638 1_555
I11 Sm4 3.175889 1_555
I11 Sm3 3.203903 1_555
I11 Sm1 3.394590 1_565
I11 Rb3 3.642259 1_555
I11 Rb1 3.737638 1_555
I12 Sm3 3.243656 1_555
I12 Sm4 3.285252 1_555
I12 Sm2 3.317148 1_465
I12 Rb2 3.745151 1_455
I12 Rb3 3.828068 1_555
I13 Sm2 3.243656 1_555
I13 Sm5 3.285252 1_555
I13 Sm3 3.317148 1_645
I13 Rb3 3.745151 1_655
I13 Rb2 3.828068 1_555
I14 Sm1 3.243656 1_556
I14 Sm6 3.285252 1_556
I14 Sm0 3.317148 1_545
I14 Rb0 3.745151 1_555
I14 Rb1 3.828068 1_556
I15 Sm0 3.243656 1_554
I15 Sm7 3.285252 1_554
I15 Sm1 3.317148 1_565
I15 Rb1 3.745151 1_555
I15 Rb0 3.828068 1_554
I16 Sm6 3.180654 1_566
I16 Sm7 3.191268 1_655
I16 Sm2 3.295902 1_565
I16 Sm0 3.611876 1_555
I17 Sm7 3.180654 1_544
I17 Sm6 3.191268 1_455
I17 Sm3 3.295902 1_545
I17 Sm1 3.611876 1_555
I18 Sm4 3.180654 1_545
I18 Sm5 3.191268 1_555
I18 Sm0 3.295902 1_545
I18 Sm2 3.611876 1_455
I19 Sm5 3.180654 1_565
I19 Sm4 3.191268 1_555
I19 Sm1 3.295902 1_565
I19 Sm3 3.611876 1_655
