# generated using pymatgen
data_Li9Mn2Co5O16
_symmetry_space_group_name_H-M   'P 1'
_cell_length_a   2.90384900
_cell_length_b   5.16740700
_cell_length_c   19.34525757
_cell_angle_alpha   84.77193268
_cell_angle_beta   90.00000000
_cell_angle_gamma   90.00000000
_symmetry_Int_Tables_number   1
_chemical_formula_structural   Li9Mn2Co5O16
_chemical_formula_sum   'Li9 Mn2 Co5 O16'
_cell_volume   289.07513011
_cell_formula_units_Z   1
loop_
 _symmetry_equiv_pos_site_id
 _symmetry_equiv_pos_as_xyz
  1  'x, y, z'
loop_
 _atom_site_type_symbol
 _atom_site_label
 _atom_site_symmetry_multiplicity
 _atom_site_fract_x
 _atom_site_fract_y
 _atom_site_fract_z
 _atom_site_occupancy
  Li  Li0  1  0.50000000  0.50799700  0.99539200  1
  Li  Li1  1  0.00000000  0.61406000  0.12254100  1
  Li  Li2  1  0.50000000  0.74593800  0.24978200  1
  Li  Li3  1  0.00000000  0.87693500  0.37565500  1
  Li  Li4  1  0.50000000  0.00103000  0.50131500  1
  Li  Li5  1  0.00000000  0.39864100  0.87686200  1
  Li  Li6  1  0.50000000  0.25040300  0.74954000  1
  Li  Li7  1  0.00000000  0.12826200  0.62731500  1
  Li  Li8  1  0.50000000  0.85922100  0.87532000  1
  Mn  Mn0  1  0.00000000  0.99201900  0.99384600  1
  Mn  Mn1  1  0.00000000  0.24715400  0.24959200  1
  Co  Co0  1  0.50000000  0.11000700  0.12313300  1
  Co  Co1  1  0.50000000  0.37717700  0.37828500  1
  Co  Co2  1  0.00000000  0.50556900  0.50367800  1
  Co  Co3  1  0.50000000  0.65196000  0.62636200  1
  Co  Co4  1  0.00000000  0.74832100  0.75445400  1
  O  O0  1  0.50000000  0.16921500  0.94235800  1
  O  O1  1  0.00000000  0.28013300  0.06211900  1
  O  O2  1  0.50000000  0.40669800  0.19037400  1
  O  O3  1  0.00000000  0.55873600  0.31920800  1
  O  O4  1  0.50000000  0.65651500  0.44592300  1
  O  O5  1  0.00000000  0.01484400  0.80184600  1
  O  O6  1  0.50000000  0.92545900  0.68761900  1
  O  O7  1  0.00000000  0.81785000  0.56670900  1
  O  O8  1  0.50000000  0.83456900  0.05382700  1
  O  O9  1  0.00000000  0.92964100  0.18173800  1
  O  O10  1  0.50000000  0.08692100  0.30804400  1
  O  O11  1  0.00000000  0.19406800  0.43575500  1
  O  O12  1  0.50000000  0.35437500  0.56259800  1
  O  O13  1  0.00000000  0.71343500  0.94138200  1
  O  O14  1  0.50000000  0.56347800  0.80769500  1
  O  O15  1  0.00000000  0.47937000  0.68973300  1
loop_
_geom_bond_atom_site_label_1
_geom_bond_atom_site_label_2
_geom_bond_distance
_geom_bond_site_symmetry_2
Li0 O13 2.030908 1_555
Li0 O13 2.030908 1_655
Li0 O0 2.108219 1_555
Li0 O8 2.115019 1_556
Li0 O1 2.209935 1_656
Li0 O1 2.209935 1_556
Li1 O9 2.076312 1_555
Li1 O1 2.170559 1_555
Li1 O2 2.173014 1_455
Li1 O2 2.173014 1_555
Li1 O8 2.213014 1_555
Li1 O8 2.213014 1_455
Li2 O9 2.124664 1_655
Li2 O9 2.124664 1_555
Li2 O3 2.147301 1_555
Li2 O3 2.147301 1_655
Li2 O10 2.176441 1_565
Li2 O2 2.181957 1_555
Li3 O3 2.055053 1_555
Li3 O11 2.093919 1_565
Li3 O10 2.176600 1_465
Li3 O10 2.176600 1_565
Li3 O4 2.229592 1_555
Li3 O4 2.229592 1_455
Li4 O7 2.094333 1_545
Li4 O7 2.094333 1_645
Li4 O11 2.116854 1_555
Li4 O11 2.116854 1_655
Li4 O4 2.159910 1_545
Li4 O12 2.265791 1_555
Li5 O14 2.101498 1_455
Li5 O14 2.101498 1_555
Li5 O13 2.138681 1_555
Li5 O0 2.201186 1_455
Li5 O0 2.201186 1_555
Li5 O5 2.561975 1_555
Li6 O14 2.052948 1_555
Li6 O5 2.095031 1_655
Li6 O5 2.095031 1_555
Li6 O15 2.144086 1_555
Li6 O15 2.144086 1_655
Li6 O6 2.149629 1_545
Li7 O7 2.071288 1_545
Li7 O6 2.084338 1_545
Li7 O6 2.084338 1_445
Li7 O12 2.184976 1_455
Li7 O12 2.184976 1_555
Li7 O15 2.269149 1_555
Li8 O13 2.033075 1_655
Li8 O13 2.033075 1_555
Li8 O14 2.100301 1_555
Li8 O5 2.137000 1_665
Li8 O5 2.137000 1_565
Li8 O0 2.150913 1_565
Mn0 O13 1.835393 1_555
Mn0 O0 1.942265 1_565
Mn0 O0 1.942265 1_465
Mn0 O8 1.986052 1_556
Mn0 O8 1.986052 1_456
Mn0 O1 2.078289 1_566
Mn1 O10 1.975263 1_455
Mn1 O10 1.975263 1_555
Mn1 O2 1.981923 1_555
Mn1 O2 1.981923 1_455
Mn1 O3 2.191163 1_555
Mn1 O9 2.192603 1_545
Co0 O9 2.017307 1_645
Co0 O9 2.017307 1_545
Co0 O1 2.021139 1_555
Co0 O1 2.021139 1_655
Co0 O8 2.042337 1_545
Co0 O2 2.099041 1_555
Co1 O11 2.011891 1_555
Co1 O11 2.011891 1_655
Co1 O3 2.024601 1_555
Co1 O3 2.024601 1_655
Co1 O4 2.034666 1_555
Co1 O10 2.113635 1_555
Co2 O4 1.950895 1_455
Co2 O4 1.950895 1_555
Co2 O12 1.963515 1_455
Co2 O12 1.963515 1_555
Co2 O7 2.109354 1_555
Co2 O11 2.168639 1_555
Co3 O6 1.925325 1_555
Co3 O7 1.998588 1_655
Co3 O7 1.998588 1_555
Co3 O15 2.051126 1_655
Co3 O15 2.051126 1_555
Co3 O12 2.057167 1_555
Co4 O5 1.722620 1_565
Co4 O15 1.953513 1_555
Co4 O14 1.975335 1_455
Co4 O14 1.975335 1_555
Co4 O6 2.098084 1_555
Co4 O6 2.098084 1_455
