# generated using pymatgen
data_ReOs
_symmetry_space_group_name_H-M   'P 1'
_cell_length_a   5.51466121
_cell_length_b   5.51468774
_cell_length_c   8.76485636
_cell_angle_alpha   90.00000000
_cell_angle_beta   90.00000000
_cell_angle_gamma   59.99982875
_symmetry_Int_Tables_number   1
_chemical_formula_structural   ReOs
_chemical_formula_sum   'Re8 Os8'
_cell_volume   230.84179821
_cell_formula_units_Z   8
loop_
 _symmetry_equiv_pos_site_id
 _symmetry_equiv_pos_as_xyz
  1  'x, y, z'
loop_
 _atom_site_type_symbol
 _atom_site_label
 _atom_site_symmetry_multiplicity
 _atom_site_fract_x
 _atom_site_fract_y
 _atom_site_fract_z
 _atom_site_occupancy
  Re  Re0_0  1  0.33332724  0.33333638  0.12500000  1
  Re  Re0_1  1  0.33332724  0.33333638  0.62500000  1
  Re  Re0_2  1  0.33332724  0.83333638  0.12500000  1
  Re  Re0_3  1  0.33332724  0.83333638  0.62500000  1
  Re  Re0_4  1  0.83332724  0.33333638  0.12500000  1
  Re  Re0_5  1  0.83332724  0.33333638  0.62500000  1
  Re  Re0_6  1  0.83332724  0.83333638  0.12500000  1
  Re  Re0_7  1  0.83332724  0.83333638  0.62500000  1
  Os  Os0_0  1  0.16667276  0.16666362  0.37500000  1
  Os  Os0_1  1  0.16667276  0.16666362  0.87500000  1
  Os  Os0_2  1  0.16667276  0.66666362  0.37500000  1
  Os  Os0_3  1  0.16667276  0.66666362  0.87500000  1
  Os  Os0_4  1  0.66667276  0.16666362  0.37500000  1
  Os  Os0_5  1  0.66667276  0.16666362  0.87500000  1
  Os  Os0_6  1  0.66667276  0.66666362  0.37500000  1
  Os  Os0_7  1  0.66667276  0.66666362  0.87500000  1
loop_
_geom_bond_atom_site_label_1
_geom_bond_atom_site_label_2
_geom_bond_distance
_geom_bond_site_symmetry_2
Re0_0 Re0_6 2.757330 1_545
Re0_0 Re0_6 2.757330 1_455
Re0_0 Re0_4 2.757331 1_455
Re0_0 Re0_4 2.757331 1_555
Re0_0 Re0_2 2.757344 1_545
Re0_0 Re0_2 2.757344 1_555
Re0_1 Re0_7 2.757330 1_545
Re0_1 Re0_7 2.757330 1_455
Re0_1 Re0_5 2.757331 1_555
Re0_1 Re0_5 2.757331 1_455
Re0_1 Re0_3 2.757344 1_555
Re0_1 Re0_3 2.757344 1_545
Re0_2 Re0_4 2.757330 1_555
Re0_2 Re0_4 2.757330 1_465
Re0_2 Re0_6 2.757331 1_455
Re0_2 Re0_6 2.757331 1_555
Re0_3 Re0_5 2.757330 1_555
Re0_3 Re0_5 2.757330 1_465
Re0_3 Re0_7 2.757331 1_455
Re0_3 Re0_7 2.757331 1_555
Re0_4 Re0_6 2.757344 1_545
Re0_4 Re0_6 2.757344 1_555
Re0_5 Re0_7 2.757344 1_545
Re0_5 Re0_7 2.757344 1_555
Os0_0 Re0_2 2.708437 1_545
Os0_0 Re0_3 2.708437 1_545
Os0_0 Re0_0 2.708438 1_555
Os0_0 Re0_1 2.708438 1_555
Os0_0 Re0_5 2.708484 1_455
Os0_0 Re0_4 2.708484 1_455
Os0_0 Os0_6 2.757330 1_455
Os0_0 Os0_6 2.757330 1_545
Os0_0 Os0_4 2.757331 1_455
Os0_0 Os0_4 2.757331 1_555
Os0_0 Os0_2 2.757344 1_555
Os0_0 Os0_2 2.757344 1_545
Os0_1 Re0_2 2.708437 1_546
Os0_1 Re0_3 2.708437 1_545
Os0_1 Re0_0 2.708438 1_556
Os0_1 Re0_1 2.708438 1_555
Os0_1 Re0_4 2.708484 1_456
Os0_1 Re0_5 2.708484 1_455
Os0_1 Os0_7 2.757330 1_455
Os0_1 Os0_7 2.757330 1_545
Os0_1 Os0_5 2.757331 1_555
Os0_1 Os0_5 2.757331 1_455
Os0_1 Os0_3 2.757344 1_555
Os0_1 Os0_3 2.757344 1_545
Os0_2 Re0_1 2.708437 1_555
Os0_2 Re0_0 2.708437 1_555
Os0_2 Re0_3 2.708438 1_555
Os0_2 Re0_2 2.708438 1_555
Os0_2 Re0_6 2.708484 1_455
Os0_2 Re0_7 2.708484 1_455
Os0_2 Os0_4 2.757330 1_555
Os0_2 Os0_4 2.757330 1_465
Os0_2 Os0_6 2.757331 1_455
Os0_2 Os0_6 2.757331 1_555
Os0_3 Re0_0 2.708437 1_556
Os0_3 Re0_1 2.708437 1_555
Os0_3 Re0_2 2.708438 1_556
Os0_3 Re0_3 2.708438 1_555
Os0_3 Re0_6 2.708484 1_456
Os0_3 Re0_7 2.708484 1_455
Os0_3 Os0_5 2.757330 1_555
Os0_3 Os0_5 2.757330 1_465
Os0_3 Os0_7 2.757331 1_455
Os0_3 Os0_7 2.757331 1_555
Os0_4 Re0_6 2.708437 1_545
Os0_4 Re0_7 2.708437 1_545
Os0_4 Re0_5 2.708438 1_555
Os0_4 Re0_4 2.708438 1_555
Os0_4 Re0_1 2.708484 1_555
Os0_4 Re0_0 2.708484 1_555
Os0_4 Os0_6 2.757344 1_545
Os0_4 Os0_6 2.757344 1_555
Os0_5 Re0_6 2.708437 1_546
Os0_5 Re0_7 2.708437 1_545
Os0_5 Re0_4 2.708438 1_556
Os0_5 Re0_5 2.708438 1_555
Os0_5 Re0_0 2.708484 1_556
Os0_5 Re0_1 2.708484 1_555
Os0_5 Os0_7 2.757344 1_545
Os0_5 Os0_7 2.757344 1_555
Os0_6 Re0_4 2.708437 1_555
Os0_6 Re0_5 2.708437 1_555
Os0_6 Re0_7 2.708438 1_555
Os0_6 Re0_6 2.708438 1_555
Os0_6 Re0_3 2.708484 1_555
Os0_6 Re0_2 2.708484 1_555
Os0_7 Re0_4 2.708437 1_556
Os0_7 Re0_5 2.708437 1_555
Os0_7 Re0_6 2.708438 1_556
Os0_7 Re0_7 2.708438 1_555
Os0_7 Re0_2 2.708484 1_556
Os0_7 Re0_3 2.708484 1_555
