# generated using pymatgen
data_Li2MnV3O8
_symmetry_space_group_name_H-M   'P 1'
_cell_length_a   6.41798444
_cell_length_b   6.41798444
_cell_length_c   6.57508507
_cell_angle_alpha   73.65574422
_cell_angle_beta   73.65574422
_cell_angle_gamma   36.70981173
_symmetry_Int_Tables_number   1
_chemical_formula_structural   Li2MnV3O8
_chemical_formula_sum   'Li2 Mn1 V3 O8'
_cell_volume   154.61325340
_cell_formula_units_Z   1
loop_
 _symmetry_equiv_pos_site_id
 _symmetry_equiv_pos_as_xyz
  1  'x, y, z'
loop_
 _atom_site_type_symbol
 _atom_site_label
 _atom_site_symmetry_multiplicity
 _atom_site_fract_x
 _atom_site_fract_y
 _atom_site_fract_z
 _atom_site_occupancy
  Li  Li0  1  0.93978200  0.93978200  0.35282600  1
  Li  Li1  1  0.05912200  0.05912200  0.64078400  1
  Mn  Mn0  1  0.28956300  0.28956300  0.29822500  1
  V  V0  1  0.60903100  0.60903100  0.28778300  1
  V  V1  1  0.38810700  0.38810700  0.71233400  1
  V  V2  1  0.70782400  0.70782400  0.70748400  1
  O  O0  1  0.87543700  0.87543700  0.67284800  1
  O  O1  1  0.76512400  0.76512400  0.35601000  1
  O  O2  1  0.64997000  0.64997000  0.00354900  1
  O  O3  1  0.56223200  0.56223200  0.62759000  1
  O  O4  1  0.44245100  0.44245100  0.36595500  1
  O  O5  1  0.36557700  0.36557700  0.97720900  1
  O  O6  1  0.22771100  0.22771100  0.67931400  1
  O  O7  1  0.11806600  0.11806600  0.31808700  1
loop_
_geom_bond_atom_site_label_1
_geom_bond_atom_site_label_2
_geom_bond_distance
_geom_bond_site_symmetry_2
Li0 O0 2.015921 1_555
Li0 O4 2.023552 1_655
Li0 O4 2.023552 1_565
Li0 O7 2.115575 1_665
Li0 O1 2.121733 1_555
Li1 O3 2.022771 1_545
Li1 O3 2.022771 1_455
Li1 O7 2.028310 1_555
Li1 O6 2.142724 1_555
Li1 O0 2.184612 1_445
Mn0 O5 2.038040 1_554
Mn0 O4 2.039499 1_555
Mn0 O7 2.054405 1_555
Mn0 O1 2.061677 1_545
Mn0 O1 2.061677 1_455
Mn0 O6 2.393048 1_555
O0 V2 1.986438 1_555
O0 V1 2.049289 1_655
O0 V1 2.049289 1_565
O1 V0 2.079292 1_555
O1 V2 2.207097 1_555
O2 V0 1.785688 1_555
O2 V2 1.863500 1_554
O3 V2 1.993643 1_555
O3 V1 2.027237 1_555
O3 V0 2.135792 1_555
O4 V0 1.940163 1_555
O4 V1 2.175105 1_555
O5 V1 1.680762 1_555
O6 V1 2.029086 1_555
O6 V2 2.037397 1_545
O6 V2 2.037397 1_455
O7 V0 2.037011 1_545
O7 V0 2.037011 1_455
