# generated using pymatgen
data_SiPt5Pb
_symmetry_space_group_name_H-M   'P 1'
_cell_length_a   4.00105549
_cell_length_b   4.00105549
_cell_length_c   7.21288500
_cell_angle_alpha   90.00000000
_cell_angle_beta   90.00000000
_cell_angle_gamma   90.00000000
_symmetry_Int_Tables_number   1
_chemical_formula_structural   SiPt5Pb
_chemical_formula_sum   'Si1 Pt5 Pb1'
_cell_volume   115.46707306
_cell_formula_units_Z   1
loop_
 _symmetry_equiv_pos_site_id
 _symmetry_equiv_pos_as_xyz
  1  'x, y, z'
loop_
 _atom_site_type_symbol
 _atom_site_label
 _atom_site_symmetry_multiplicity
 _atom_site_fract_x
 _atom_site_fract_y
 _atom_site_fract_z
 _atom_site_occupancy
  Si  Si0  1  0.00000000  -0.00000000  0.50000000  1
  Pt  Pt0  1  -0.00000000  0.50000000  0.30293302  1
  Pt  Pt1  1  0.00000000  0.50000000  0.69706698  1
  Pt  Pt2  1  0.50000000  -0.00000000  0.30293302  1
  Pt  Pt3  1  0.50000000  0.00000000  0.69706698  1
  Pt  Pt4  1  0.00000000  -0.00000000  0.00000000  1
  Pb  Pb0  1  0.50000000  0.50000000  0.00000000  1
loop_
_geom_bond_atom_site_label_1
_geom_bond_atom_site_label_2
_geom_bond_distance
_geom_bond_site_symmetry_2
Pt0 Si0 2.454088 1_555
Pt0 Si0 2.454088 1_565
Pt0 Pt4 2.962504 1_565
Pt0 Pt4 2.962504 1_555
Pt1 Si0 2.454088 1_555
Pt1 Si0 2.454088 1_565
Pt1 Pt4 2.962504 1_556
Pt1 Pt4 2.962504 1_566
Pt2 Si0 2.454088 1_555
Pt2 Si0 2.454088 1_655
Pt2 Pt4 2.962504 1_655
Pt2 Pt4 2.962504 1_555
Pt3 Si0 2.454088 1_555
Pt3 Si0 2.454088 1_655
Pt3 Pt4 2.962504 1_556
Pt3 Pt4 2.962504 1_656
Pb0 Pt4 2.829173 1_665
Pb0 Pt4 2.829173 1_555
Pb0 Pt4 2.829173 1_655
Pb0 Pt4 2.829173 1_565
Pb0 Pt1 2.962504 1_554
Pb0 Pt2 2.962504 1_555
Pb0 Pt1 2.962504 1_654
Pb0 Pt2 2.962504 1_565
Pb0 Pt3 2.962504 1_554
Pb0 Pt0 2.962504 1_655
Pb0 Pt0 2.962504 1_555
Pb0 Pt3 2.962504 1_564
