# generated using pymatgen
data_Mn2O3F
_symmetry_space_group_name_H-M   'P 1'
_cell_length_a   5.49359258
_cell_length_b   5.49359258
_cell_length_c   7.04285340
_cell_angle_alpha   73.63906112
_cell_angle_beta   73.63906112
_cell_angle_gamma   74.15680359
_symmetry_Int_Tables_number   1
_chemical_formula_structural   Mn2O3F
_chemical_formula_sum   'Mn6 O9 F3'
_cell_volume   191.30666316
_cell_formula_units_Z   3
loop_
 _symmetry_equiv_pos_site_id
 _symmetry_equiv_pos_as_xyz
  1  'x, y, z'
loop_
 _atom_site_type_symbol
 _atom_site_label
 _atom_site_symmetry_multiplicity
 _atom_site_fract_x
 _atom_site_fract_y
 _atom_site_fract_z
 _atom_site_occupancy
  Mn  Mn0  1  0.66501900  0.66585900  0.83537700  1
  Mn  Mn1  1  0.31233800  0.35282000  0.66586500  1
  Mn  Mn2  1  0.64718000  0.68766200  0.33413500  1
  Mn  Mn3  1  0.33414100  0.33498100  0.16462300  1
  Mn  Mn4  1  0.01758500  0.98241500  0.50000000  1
  Mn  Mn5  1  0.02911900  0.97088100  0.00000000  1
  O  O0  1  0.90237500  0.89690600  0.29580700  1
  O  O1  1  0.55127400  0.57514400  0.62801400  1
  O  O2  1  0.23898300  0.22336100  0.95823900  1
  O  O3  1  0.10309400  0.09762500  0.70419300  1
  O  O4  1  0.77663900  0.76101700  0.04176100  1
  O  O5  1  0.42485600  0.44872600  0.37198600  1
  O  O6  1  0.36631000  0.98085800  0.32741300  1
  O  O7  1  0.01914200  0.63369000  0.67258700  1
  O  O8  1  0.31454000  0.68546000  0.00000000  1
  F  F0  1  0.62692200  0.05561400  0.65735000  1
  F  F1  1  0.94438600  0.37307800  0.34265000  1
  F  F2  1  0.72609900  0.27390100  0.00000000  1
loop_
_geom_bond_atom_site_label_1
_geom_bond_atom_site_label_2
_geom_bond_distance
_geom_bond_site_symmetry_2
Mn0 O8 1.939706 1_556
Mn0 O7 1.949406 1_655
Mn0 O1 1.966174 1_555
Mn0 O4 1.966540 1_556
Mn1 O7 1.902261 1_555
Mn1 O2 1.942226 1_555
Mn1 O1 1.944359 1_555
Mn1 O5 1.945824 1_555
Mn1 O3 1.962536 1_555
Mn2 O6 1.902261 1_555
Mn2 O4 1.942226 1_555
Mn2 O5 1.944359 1_555
Mn2 O1 1.945824 1_555
Mn2 O0 1.962536 1_555
Mn3 O8 1.939706 1_555
Mn3 O6 1.949406 1_545
Mn3 O5 1.966174 1_555
Mn3 O2 1.966540 1_554
Mn4 O3 1.935224 1_565
Mn4 O0 1.935224 1_455
Mn4 O6 1.957720 1_555
Mn4 O7 1.957720 1_555
Mn5 O8 1.890701 1_555
Mn5 O4 1.947255 1_455
Mn5 O2 1.947255 1_564
Mn5 O0 1.962271 1_455
Mn5 O3 1.962271 1_564
F0 Mn1 2.027849 1_555
F0 Mn4 2.106103 1_645
F0 Mn0 2.142689 1_545
F1 Mn2 2.027849 1_555
F1 Mn4 2.106103 1_645
F1 Mn3 2.142689 1_655
F2 Mn5 2.007281 1_645
F2 Mn0 2.124041 1_554
F2 Mn3 2.124041 1_555
