# generated using pymatgen
data_BaNd2BeO5
_symmetry_space_group_name_H-M   'P 1'
_cell_length_a   6.77191500
_cell_length_b   7.46121900
_cell_length_c   9.85398864
_cell_angle_alpha   89.17413558
_cell_angle_beta   90.00000000
_cell_angle_gamma   90.00000000
_symmetry_Int_Tables_number   1
_chemical_formula_structural   BaNd2BeO5
_chemical_formula_sum   'Ba4 Nd8 Be4 O20'
_cell_volume   497.83820930
_cell_formula_units_Z   4
loop_
 _symmetry_equiv_pos_site_id
 _symmetry_equiv_pos_as_xyz
  1  'x, y, z'
loop_
 _atom_site_type_symbol
 _atom_site_label
 _atom_site_symmetry_multiplicity
 _atom_site_fract_x
 _atom_site_fract_y
 _atom_site_fract_z
 _atom_site_occupancy
  Ba  Ba0  1  0.58198000  0.02033200  0.67320700  1
  Ba  Ba1  1  0.08198000  0.97966800  0.82679300  1
  Ba  Ba2  1  0.41802000  0.97966800  0.32679300  1
  Ba  Ba3  1  0.91802000  0.02033200  0.17320700  1
  Nd  Nd0  1  0.41718100  0.52055000  0.32358000  1
  Nd  Nd1  1  0.91718100  0.47945000  0.17642000  1
  Nd  Nd2  1  0.58281900  0.47945000  0.67642000  1
  Nd  Nd3  1  0.08281900  0.52055000  0.82358000  1
  Nd  Nd4  1  0.09066000  0.25702200  0.52052900  1
  Nd  Nd5  1  0.59066000  0.74297800  0.97947100  1
  Nd  Nd6  1  0.90934000  0.74297800  0.47947100  1
  Nd  Nd7  1  0.40934000  0.25702200  0.02052900  1
  Be  Be0  1  0.80713300  0.26153300  0.90342600  1
  Be  Be1  1  0.69286700  0.26153300  0.40342600  1
  Be  Be2  1  0.19286700  0.73846700  0.09657400  1
  Be  Be3  1  0.30713300  0.73846700  0.59657400  1
  O  O0  1  0.63072300  0.28009300  0.23175100  1
  O  O1  1  0.13072300  0.71990700  0.26824900  1
  O  O2  1  0.36927700  0.71990700  0.76824900  1
  O  O3  1  0.86927700  0.28009300  0.73175100  1
  O  O4  1  0.16500300  0.28514800  0.28475400  1
  O  O5  1  0.66500300  0.71485200  0.21524600  1
  O  O6  1  0.83499700  0.71485200  0.71524600  1
  O  O7  1  0.33499700  0.28514800  0.78475400  1
  O  O8  1  0.01771300  0.28091800  0.99035700  1
  O  O9  1  0.48228700  0.28091800  0.49035700  1
  O  O10  1  0.98228700  0.71908200  0.00964300  1
  O  O11  1  0.51771300  0.71908200  0.50964300  1
  O  O12  1  0.19228900  0.93102900  0.56159500  1
  O  O13  1  0.69228900  0.06897100  0.93840500  1
  O  O14  1  0.80771100  0.06897100  0.43840500  1
  O  O15  1  0.30771100  0.93102900  0.06159500  1
  O  O16  1  0.82137400  0.44123500  0.43413000  1
  O  O17  1  0.32137400  0.55876500  0.06587000  1
  O  O18  1  0.17862600  0.55876500  0.56587000  1
  O  O19  1  0.67862600  0.44123500  0.93413000  1
loop_
_geom_bond_atom_site_label_1
_geom_bond_atom_site_label_2
_geom_bond_distance
_geom_bond_site_symmetry_2
Ba0 O9 2.716899 1_555
Ba0 O13 2.747030 1_555
Ba0 O14 2.792415 1_555
Ba0 O3 2.811862 1_555
Ba0 O2 2.813513 1_545
Ba0 O11 2.818461 1_545
Ba0 O7 2.823510 1_555
Ba0 O6 2.876657 1_545
Ba0 O12 2.939181 1_545
Ba1 O10 2.716899 1_456
Ba1 O12 2.747030 1_555
Ba1 O15 2.792415 1_556
Ba1 O2 2.811862 1_555
Ba1 O3 2.813513 1_465
Ba1 O8 2.818461 1_565
Ba1 O6 2.823510 1_455
Ba1 O7 2.876657 1_565
Ba1 O13 2.939181 1_465
Ba2 O11 2.716899 1_555
Ba2 O15 2.747030 1_555
Ba2 O12 2.792415 1_555
Ba2 O1 2.811862 1_555
Ba2 O0 2.813513 1_565
Ba2 O9 2.818461 1_565
Ba2 O5 2.823510 1_555
Ba2 O4 2.876657 1_565
Ba2 O14 2.939181 1_565
Ba3 O8 2.716899 1_654
Ba3 O14 2.747030 1_555
Ba3 O13 2.792415 1_554
Ba3 O0 2.811862 1_555
Ba3 O1 2.813513 1_645
Ba3 O10 2.818461 1_545
Ba3 O4 2.823510 1_655
Ba3 O5 2.876657 1_545
Ba3 O15 2.939181 1_645
Nd0 O9 2.450971 1_555
Nd0 O5 2.452175 1_555
Nd0 O11 2.469328 1_555
Nd0 O4 2.483339 1_555
Nd0 O0 2.485072 1_555
Nd0 O1 2.499897 1_555
Nd0 O17 2.632542 1_555
Nd1 O10 2.450971 1_555
Nd1 O4 2.452175 1_655
Nd1 O8 2.469328 1_654
Nd1 O5 2.483339 1_555
Nd1 O1 2.485072 1_655
Nd1 O0 2.499897 1_555
Nd1 O16 2.632542 1_555
Nd2 O11 2.450971 1_555
Nd2 O7 2.452175 1_555
Nd2 O9 2.469328 1_555
Nd2 O6 2.483339 1_555
Nd2 O2 2.485072 1_555
Nd2 O3 2.499897 1_555
Nd2 O19 2.632542 1_555
Nd3 O8 2.450971 1_555
Nd3 O6 2.452175 1_455
Nd3 O10 2.469328 1_456
Nd3 O7 2.483339 1_555
Nd3 O3 2.485072 1_455
Nd3 O2 2.499897 1_555
Nd3 O18 2.632542 1_555
Nd4 O18 2.377424 1_555
Nd4 O4 2.383543 1_555
Nd4 O16 2.430160 1_455
Nd4 O14 2.515500 1_455
Nd4 O12 2.554435 1_545
Nd4 O3 2.572870 1_455
Nd4 O9 2.674342 1_555
Nd4 O7 3.094622 1_555
Nd5 O19 2.377424 1_555
Nd5 O5 2.383543 1_556
Nd5 O17 2.430160 1_556
Nd5 O15 2.515500 1_556
Nd5 O13 2.554435 1_565
Nd5 O2 2.572870 1_555
Nd5 O10 2.674342 1_556
Nd5 O6 3.094622 1_555
Nd6 O16 2.377424 1_555
Nd6 O6 2.383543 1_555
Nd6 O18 2.430160 1_655
Nd6 O12 2.515500 1_655
Nd6 O14 2.554435 1_565
Nd6 O1 2.572870 1_655
Nd6 O11 2.674342 1_555
Nd6 O5 3.094622 1_555
Nd7 O17 2.377424 1_555
Nd7 O7 2.383543 1_554
Nd7 O19 2.430160 1_554
Nd7 O13 2.515500 1_554
Nd7 O15 2.554435 1_545
Nd7 O0 2.572870 1_555
Nd7 O8 2.674342 1_554
Nd7 O4 3.094622 1_555
Be0 O19 1.630424 1_555
Be0 O13 1.665416 1_555
Be0 O8 1.670882 1_655
Be0 O3 1.746802 1_555
Be1 O16 1.630424 1_555
Be1 O14 1.665416 1_555
Be1 O9 1.670882 1_555
Be1 O0 1.746802 1_555
Be2 O17 1.630424 1_555
Be2 O15 1.665416 1_555
Be2 O10 1.670882 1_455
Be2 O1 1.746802 1_555
Be3 O18 1.630424 1_555
Be3 O12 1.665416 1_555
Be3 O11 1.670882 1_555
Be3 O2 1.746802 1_555
