# generated using pymatgen
data_La2Nd(GaO3)3
_symmetry_space_group_name_H-M   'P 1'
_cell_length_a   5.58099800
_cell_length_b   9.60761370
_cell_length_c   13.56921452
_cell_angle_alpha   90.18987730
_cell_angle_beta   90.04913282
_cell_angle_gamma   90.03404012
_symmetry_Int_Tables_number   1
_chemical_formula_structural   La2Nd(GaO3)3
_chemical_formula_sum   'La8 Nd4 Ga12 O36'
_cell_volume   727.57787840
_cell_formula_units_Z   4
loop_
 _symmetry_equiv_pos_site_id
 _symmetry_equiv_pos_as_xyz
  1  'x, y, z'
loop_
 _atom_site_type_symbol
 _atom_site_label
 _atom_site_symmetry_multiplicity
 _atom_site_fract_x
 _atom_site_fract_y
 _atom_site_fract_z
 _atom_site_occupancy
  La  La0  1  0.03481700  0.83565500  0.08547800  1
  La  La1  1  0.03457400  0.16844500  0.41874600  1
  La  La2  1  0.46740900  0.33528300  0.08613400  1
  La  La3  1  0.46745800  0.66898400  0.41883200  1
  La  La4  1  0.46672700  0.00293600  0.75214900  1
  La  La5  1  0.96475100  0.49752400  0.24758000  1
  La  La6  1  0.96494200  0.83003800  0.58112500  1
  La  La7  1  0.96476800  0.16452200  0.91344300  1
  Nd  Nd0  1  0.54647700  0.66281500  0.91277900  1
  Nd  Nd1  1  0.54454400  0.99646800  0.24667100  1
  Nd  Nd2  1  0.54457800  0.33078600  0.58062000  1
  Nd  Nd3  1  0.04613100  0.50375500  0.75364100  1
  Ga  Ga0  1  0.50142200  0.66499900  0.66695400  1
  Ga  Ga1  1  0.49906800  0.99866300  0.99994100  1
  Ga  Ga2  1  0.49899200  0.33214800  0.33407800  1
  Ga  Ga3  1  0.00208900  0.16884800  0.66662100  1
  Ga  Ga4  1  0.00222200  0.50054600  0.99919600  1
  Ga  Ga5  1  0.00254600  0.83373300  0.33327700  1
  Ga  Ga6  1  0.50139800  0.33435200  0.83236900  1
  Ga  Ga7  1  0.49891700  0.66725300  0.16560100  1
  Ga  Ga8  1  0.49917100  0.00104900  0.49959000  1
  Ga  Ga9  1  0.00231800  0.49930800  0.50156900  1
  Ga  Ga10  1  0.00226800  0.83234800  0.83339000  1
  Ga  Ga11  1  0.00222900  0.16613400  0.16676800  1
  O  O0  1  0.97820800  0.36140800  0.61140900  1
  O  O1  1  0.97961100  0.69212800  0.94196700  1
  O  O2  1  0.97929100  0.02479300  0.27486800  1
  O  O3  1  0.47819700  0.47194100  0.72204300  1
  O  O4  1  0.48489400  0.80534800  0.05530000  1
  O  O5  1  0.48460800  0.13873100  0.38876500  1
  O  O6  1  0.01459000  0.97475500  0.72500600  1
  O  O7  1  0.01439800  0.30839200  0.05778200  1
  O  O8  1  0.01474800  0.64149300  0.39192500  1
  O  O9  1  0.51414600  0.85811300  0.60860600  1
  O  O10  1  0.51411200  0.19206100  0.94131300  1
  O  O11  1  0.51398700  0.52444100  0.27463600  1
  O  O12  1  0.78511500  0.37706000  0.42012300  1
  O  O13  1  0.78772800  0.70696400  0.75266700  1
  O  O14  1  0.78435000  0.04402000  0.08600800  1
  O  O15  1  0.28956400  0.12593900  0.58214100  1
  O  O16  1  0.28843000  0.45952100  0.91349200  1
  O  O17  1  0.28980600  0.79179900  0.24859900  1
  O  O18  1  0.20810100  0.23786300  0.77634000  1
  O  O19  1  0.21010000  0.56917400  0.10937900  1
  O  O20  1  0.21033700  0.90293000  0.44316600  1
  O  O21  1  0.71063000  0.92917200  0.89099200  1
  O  O22  1  0.71144600  0.26306500  0.22498300  1
  O  O23  1  0.70903900  0.59653500  0.55747700  1
  O  O24  1  0.21027900  0.95636400  0.91595500  1
  O  O25  1  0.21004600  0.28954200  0.24950100  1
  O  O26  1  0.20827400  0.62256500  0.58418600  1
  O  O27  1  0.70904900  0.21103700  0.75012100  1
  O  O28  1  0.71076900  0.54496000  0.08301300  1
  O  O29  1  0.71131000  0.87905400  0.41715400  1
  O  O30  1  0.78485800  0.10124300  0.55818000  1
  O  O31  1  0.78783100  0.43458500  0.88879600  1
  O  O32  1  0.78458000  0.76661100  0.22468900  1
  O  O33  1  0.28943100  0.40068000  0.44463900  1
  O  O34  1  0.28828600  0.73136900  0.77750900  1
  O  O35  1  0.29003200  0.06774900  0.11071500  1
loop_
_geom_bond_atom_site_label_1
_geom_bond_atom_site_label_2
_geom_bond_distance
_geom_bond_site_symmetry_2
La0 O1 2.401917 1_454
La0 O14 2.442307 1_465
La0 O32 2.443447 1_455
La0 O4 2.562000 1_555
La0 O17 2.665233 1_555
La0 O35 2.666215 1_565
La0 O24 2.759610 1_554
La0 O19 2.761333 1_555
La1 O2 2.406686 1_455
La1 O30 2.439348 1_455
La1 O12 2.441097 1_455
La1 O5 2.560696 1_555
La1 O15 2.666268 1_555
La1 O33 2.667411 1_555
La1 O20 2.754537 1_545
La1 O25 2.758060 1_555
La2 O10 2.409648 1_554
La2 O22 2.427240 1_555
La2 O28 2.429420 1_555
La2 O7 2.569770 1_555
La2 O25 2.679815 1_555
La2 O19 2.685373 1_555
La2 O35 2.775109 1_555
La2 O16 2.815370 1_554
La3 O11 2.409904 1_555
La3 O23 2.418070 1_555
La3 O29 2.433759 1_555
La3 O8 2.565857 1_555
La3 O20 2.686995 1_555
La3 O26 2.708690 1_555
La3 O17 2.779680 1_555
La3 O33 2.785353 1_555
La4 O9 2.404827 1_545
La4 O27 2.413373 1_555
La4 O21 2.431089 1_545
La4 O6 2.563848 1_545
La4 O24 2.683358 1_545
La4 O18 2.699138 1_555
La4 O15 2.776942 1_555
La4 O34 2.814445 1_545
La5 O8 2.409989 1_655
La5 O25 2.423055 1_655
La5 O19 2.424324 1_655
La5 O11 2.555817 1_555
La5 O22 2.675372 1_555
La5 O28 2.684308 1_555
La5 O32 2.792695 1_555
La5 O12 2.801210 1_555
La6 O6 2.408786 1_655
La6 O26 2.413085 1_655
La6 O20 2.425371 1_655
La6 O9 2.557981 1_555
La6 O23 2.676979 1_555
La6 O29 2.679224 1_555
La6 O13 2.795587 1_555
La6 O30 2.811465 1_565
La7 O7 2.409146 1_656
La7 O18 2.411157 1_655
La7 O24 2.425249 1_645
La7 O10 2.557452 1_555
La7 O27 2.673901 1_555
La7 O21 2.684808 1_545
La7 O31 2.797762 1_555
La7 O14 2.803179 1_556
Nd0 O4 2.391129 1_556
Nd0 O34 2.425670 1_555
Nd0 O16 2.426074 1_555
Nd0 O1 2.465040 1_555
Nd0 O13 2.592948 1_555
Nd0 O31 2.593833 1_555
Nd0 O28 2.733791 1_556
Nd0 O21 2.734623 1_555
Nd1 O5 2.383658 1_565
Nd1 O17 2.426032 1_555
Nd1 O35 2.427965 1_565
Nd1 O2 2.470713 1_565
Nd1 O32 2.600071 1_555
Nd1 O14 2.600675 1_565
Nd1 O29 2.739540 1_555
Nd1 O22 2.741799 1_565
Nd2 O3 2.375616 1_555
Nd2 O33 2.426536 1_555
Nd2 O15 2.428248 1_555
Nd2 O0 2.472758 1_555
Nd2 O12 2.598731 1_555
Nd2 O30 2.598919 1_555
Nd2 O23 2.731849 1_555
Nd2 O27 2.733381 1_555
Nd3 O0 2.391551 1_455
Nd3 O31 2.427880 1_455
Nd3 O13 2.427989 1_455
Nd3 O3 2.468541 1_555
Nd3 O34 2.589326 1_555
Nd3 O16 2.591485 1_555
Nd3 O26 2.725565 1_555
Nd3 O18 2.728626 1_555
Ga0 O23 1.994848 1_555
Ga0 O3 2.006248 1_555
Ga0 O13 2.015291 1_555
Ga0 O34 2.017325 1_555
Ga0 O9 2.020877 1_555
Ga0 O26 2.024170 1_555
Ga1 O21 2.005686 1_555
Ga1 O4 2.007299 1_556
Ga1 O24 2.013598 1_555
Ga1 O35 2.014513 1_566
Ga1 O14 2.020243 1_566
Ga1 O10 2.025380 1_565
Ga2 O5 2.004832 1_555
Ga2 O22 2.008792 1_555
Ga2 O33 2.012325 1_555
Ga2 O25 2.019425 1_555
Ga2 O11 2.020039 1_555
Ga2 O12 2.022863 1_555
Ga3 O18 1.991917 1_555
Ga3 O0 2.002749 1_455
Ga3 O30 2.011610 1_455
Ga3 O15 2.014676 1_555
Ga3 O6 2.029712 1_545
Ga3 O27 2.030687 1_455
Ga4 O19 2.001406 1_556
Ga4 O1 2.004125 1_455
Ga4 O7 2.013606 1_556
Ga4 O16 2.014975 1_555
Ga4 O31 2.016710 1_455
Ga4 O28 2.030322 1_456
Ga5 O20 1.999948 1_555
Ga5 O2 2.006064 1_465
Ga5 O17 2.013368 1_555
Ga5 O32 2.014058 1_455
Ga5 O8 2.014705 1_555
Ga5 O29 2.031646 1_455
Ga6 O27 1.996834 1_555
Ga6 O3 2.004569 1_555
Ga6 O31 2.015011 1_555
Ga6 O16 2.016376 1_555
Ga6 O10 2.018066 1_555
Ga6 O18 2.026868 1_555
Ga7 O4 2.004898 1_555
Ga7 O28 2.007361 1_555
Ga7 O17 2.014243 1_555
Ga7 O19 2.014805 1_555
Ga7 O32 2.021575 1_555
Ga7 O11 2.022879 1_555
Ga8 O29 2.005488 1_545
Ga8 O5 2.007719 1_555
Ga8 O15 2.014439 1_555
Ga8 O20 2.016093 1_545
Ga8 O30 2.022821 1_555
Ga8 O9 2.023479 1_545
Ga9 O26 1.991903 1_555
Ga9 O0 2.002019 1_455
Ga9 O12 2.014376 1_455
Ga9 O33 2.015278 1_555
Ga9 O8 2.024342 1_555
Ga9 O23 2.031360 1_455
Ga10 O24 2.002454 1_555
Ga10 O1 2.003692 1_455
Ga10 O6 2.013204 1_555
Ga10 O34 2.015760 1_555
Ga10 O13 2.017890 1_455
Ga10 O21 2.030917 1_455
Ga11 O25 1.999642 1_555
Ga11 O2 2.006322 1_455
Ga11 O14 2.010834 1_455
Ga11 O35 2.012733 1_555
Ga11 O7 2.018196 1_555
Ga11 O22 2.030778 1_455
