# generated using pymatgen
data_K5BaNbAs4
_symmetry_space_group_name_H-M   'P 1'
_cell_length_a   10.52715618
_cell_length_b   10.52715618
_cell_length_c   8.19243979
_cell_angle_alpha   89.38831186
_cell_angle_beta   89.38831186
_cell_angle_gamma   120.63015854
_symmetry_Int_Tables_number   1
_chemical_formula_structural   K5BaNbAs4
_chemical_formula_sum   'K10 Ba2 Nb2 As8'
_cell_volume   781.03804771
_cell_formula_units_Z   2
loop_
 _symmetry_equiv_pos_site_id
 _symmetry_equiv_pos_as_xyz
  1  'x, y, z'
loop_
 _atom_site_type_symbol
 _atom_site_label
 _atom_site_symmetry_multiplicity
 _atom_site_fract_x
 _atom_site_fract_y
 _atom_site_fract_z
 _atom_site_occupancy
  K  K0  1  0.46599000  0.52522600  0.60902400  1
  K  K1  1  0.05906200  0.52605500  0.60981600  1
  K  K2  1  0.52522600  0.46599000  0.10902400  1
  K  K3  1  0.52605500  0.05906200  0.10981600  1
  K  K4  1  0.86490300  0.14585900  0.78686100  1
  K  K5  1  0.28773900  0.15235300  0.80140100  1
  K  K6  1  0.85353500  0.71325900  0.77896600  1
  K  K7  1  0.14585900  0.86490300  0.28686100  1
  K  K8  1  0.71325900  0.85353500  0.27896600  1
  K  K9  1  0.15235300  0.28773900  0.30140100  1
  Ba  Ba0  1  0.46635200  0.93604400  0.60569900  1
  Ba  Ba1  1  0.93604400  0.46635200  0.10569900  1
  Nb  Nb0  1  0.66847000  0.33493200  0.50169400  1
  Nb  Nb1  1  0.33493200  0.66847000  0.00169400  1
  As  As0  1  0.67510500  0.33244300  0.80950600  1
  As  As1  1  0.33244300  0.67510500  0.30950600  1
  As  As2  1  0.20092000  0.79646000  0.89880000  1
  As  As3  1  0.59517600  0.80284800  0.89052400  1
  As  As4  1  0.19455200  0.40271700  0.91490900  1
  As  As5  1  0.79646000  0.20092000  0.39880000  1
  As  As6  1  0.40271700  0.19455200  0.41490900  1
  As  As7  1  0.80284800  0.59517600  0.39052400  1
loop_
_geom_bond_atom_site_label_1
_geom_bond_atom_site_label_2
_geom_bond_distance
_geom_bond_site_symmetry_2
As0 Nb0 2.523670 1_555
As0 Ba1 3.419142 1_556
As0 K4 3.447253 1_555
As0 K6 3.457973 1_555
As0 K3 3.458663 1_556
As0 K5 3.515434 1_555
As0 K2 3.569071 1_556
As1 Nb1 2.523670 1_555
As1 Ba0 3.419142 1_555
As1 K7 3.447253 1_555
As1 K8 3.457973 1_555
As1 K1 3.458663 1_555
As1 K9 3.515434 1_555
As1 K0 3.569071 1_555
As2 Nb1 2.540531 1_556
As2 Ba0 3.366056 1_555
As2 K7 3.375994 1_556
As2 K1 3.438878 1_555
As2 K6 3.454791 1_455
As2 K5 3.455429 1_565
As2 Ba1 3.553008 1_456
As2 K3 3.596193 1_566
As3 Nb1 2.511231 1_556
As3 Ba0 3.344462 1_555
As3 K4 3.355269 1_565
As3 K8 3.376647 1_556
As3 K6 3.420686 1_555
As3 K0 3.445310 1_555
As3 K3 3.620409 1_566
As3 K2 3.673851 1_556
As4 Nb1 2.523520 1_556
As4 K9 3.320867 1_556
As4 K4 3.321340 1_455
As4 K5 3.382462 1_555
As4 K1 3.444046 1_555
As4 Ba1 3.476605 1_456
As4 K0 3.482969 1_555
As4 K2 3.587270 1_556
As5 Nb0 2.540531 1_555
As5 Ba1 3.366056 1_555
As5 K4 3.375994 1_555
As5 K3 3.438878 1_555
As5 K8 3.454791 1_545
As5 K9 3.455429 1_655
As5 Ba0 3.553008 1_545
As5 K1 3.596193 1_655
As6 Nb0 2.523520 1_555
As6 K5 3.320867 1_555
As6 K7 3.321340 1_545
As6 K9 3.382462 1_555
As6 K3 3.444046 1_555
As6 Ba0 3.476605 1_545
As6 K2 3.482969 1_555
As6 K0 3.587270 1_555
As7 Nb0 2.511231 1_555
As7 Ba1 3.344462 1_555
As7 K7 3.355269 1_655
As7 K6 3.376647 1_555
As7 K8 3.420686 1_555
As7 K2 3.445310 1_555
As7 K1 3.620409 1_655
As7 K0 3.673851 1_555
