# generated using pymatgen
data_NaV5H18N2O19
_symmetry_space_group_name_H-M   'P 1'
_cell_length_a   8.58823700
_cell_length_b   10.54526819
_cell_length_c   11.51974270
_cell_angle_alpha   111.30603809
_cell_angle_beta   87.49942309
_cell_angle_gamma   113.51244323
_symmetry_Int_Tables_number   1
_chemical_formula_structural   NaV5H18N2O19
_chemical_formula_sum   'Na2 V10 H36 N4 O38'
_cell_volume   884.99086870
_cell_formula_units_Z   2
loop_
 _symmetry_equiv_pos_site_id
 _symmetry_equiv_pos_as_xyz
  1  'x, y, z'
loop_
 _atom_site_type_symbol
 _atom_site_label
 _atom_site_symmetry_multiplicity
 _atom_site_fract_x
 _atom_site_fract_y
 _atom_site_fract_z
 _atom_site_occupancy
  Na  Na0  1  0.57398600  0.16689900  0.12652600  1
  Na  Na1  1  0.42601400  0.83310100  0.87347400  1
  V  V0  1  0.03231300  0.70855700  0.23776700  1
  V  V1  1  0.96768700  0.29144300  0.76223300  1
  V  V2  1  0.18805500  0.99764600  0.48070000  1
  V  V3  1  0.81194500  0.00235400  0.51930000  1
  V  V4  1  0.97376000  0.99823100  0.26116500  1
  V  V5  1  0.02624000  0.00176900  0.73883500  1
  V  V6  1  0.12481500  0.28642300  0.50528600  1
  V  V7  1  0.87518500  0.71357700  0.49471400  1
  V  V8  1  0.33310900  0.28497000  0.72314800  1
  V  V9  1  0.66689100  0.71503000  0.27685200  1
  H  H0  1  0.89386400  0.42955600  0.28832700  1
  H  H1  1  0.10613600  0.57044400  0.71167300  1
  H  H2  1  0.92724600  0.28700000  0.26272100  1
  H  H3  1  0.07275400  0.71300000  0.73727900  1
  H  H4  1  0.34488900  0.57010200  0.92287700  1
  H  H5  1  0.65511100  0.42989800  0.07712300  1
  H  H6  1  0.84940600  0.74668000  0.88055700  1
  H  H7  1  0.15059400  0.25332000  0.11944300  1
  H  H8  1  0.40697000  0.70046500  0.05437000  1
  H  H9  1  0.59303000  0.29953500  0.94563000  1
  H  H10  1  0.42084700  0.95893800  0.27711700  1
  H  H11  1  0.57915300  0.04106200  0.72288300  1
  H  H12  1  0.35972300  0.27187100  0.32506600  1
  H  H13  1  0.64027700  0.72812900  0.67493400  1
  H  H14  1  0.59880200  0.96369000  0.23664500  1
  H  H15  1  0.40119800  0.03631000  0.76335500  1
  H  H16  1  0.25662300  0.76710600  0.56010900  1
  H  H17  1  0.74337700  0.23289400  0.43989100  1
  H  H18  1  0.50936000  0.42535100  0.33253400  1
  H  H19  1  0.49064000  0.57464900  0.66746600  1
  H  H20  1  0.66560300  0.68854400  0.94817500  1
  H  H21  1  0.33439700  0.31145600  0.05182500  1
  H  H22  1  0.41405700  0.76199200  0.46784400  1
  H  H23  1  0.58594300  0.23800800  0.53215600  1
  H  H24  1  0.22379000  0.94642700  0.07473300  1
  H  H25  1  0.77621000  0.05357300  0.92526700  1
  H  H26  1  0.75766600  0.57020200  0.88114300  1
  H  H27  1  0.24233400  0.42979800  0.11885700  1
  H  H28  1  0.24994100  0.59996100  0.46084800  1
  H  H29  1  0.75005900  0.40003900  0.53915200  1
  H  H30  1  0.39781100  0.70278500  0.58823800  1
  H  H31  1  0.60218900  0.29721500  0.41176200  1
  H  H32  1  0.20774300  0.97892900  0.95546400  1
  H  H33  1  0.79225700  0.02107100  0.04453600  1
  H  H34  1  0.85625300  0.71903200  0.01498400  1
  H  H35  1  0.14374700  0.28096800  0.98501600  1
  N  N0  1  0.32882500  0.70794400  0.51842700  1
  N  N1  1  0.67117500  0.29205600  0.48157300  1
  N  N2  1  0.78300300  0.68130400  0.93077600  1
  N  N3  1  0.21699700  0.31869600  0.06922400  1
  O  O0  1  0.23801800  0.86994900  0.35655000  1
  O  O1  1  0.76198200  0.13005100  0.64345000  1
  O  O2  1  0.93405200  0.88037900  0.39778900  1
  O  O3  1  0.06594800  0.11962100  0.60221100  1
  O  O4  1  0.05848400  0.86209100  0.17362200  1
  O  O5  1  0.94151600  0.13790900  0.82637800  1
  O  O6  1  0.98121400  0.63005800  0.36432200  1
  O  O7  1  0.01878600  0.36994200  0.63567800  1
  O  O8  1  0.11460800  0.60458600  0.13895000  1
  O  O9  1  0.88539200  0.39541400  0.86105000  1
  O  O10  1  0.20193800  0.37740700  0.82065200  1
  O  O11  1  0.79806200  0.62259300  0.17934800  1
  O  O12  1  0.37674100  0.12702500  0.57560200  1
  O  O13  1  0.62325900  0.87297500  0.42439800  1
  O  O14  1  0.10518700  0.87759000  0.58016400  1
  O  O15  1  0.89481300  0.12241000  0.41983600  1
  O  O16  1  0.18262400  0.11965900  0.38700500  1
  O  O17  1  0.81737600  0.88034100  0.61299500  1
  O  O18  1  0.00498000  0.10331100  0.17649800  1
  O  O19  1  0.99502000  0.89668900  0.82350200  1
  O  O20  1  0.25149100  0.13094300  0.78795700  1
  O  O21  1  0.74850900  0.86905700  0.21204300  1
  O  O22  1  0.15890800  0.38640900  0.41753000  1
  O  O23  1  0.84109200  0.61359100  0.58247000  1
  O  O24  1  0.32974100  0.36725300  0.60266800  1
  O  O25  1  0.67025900  0.63274700  0.39733200  1
  O  O26  1  0.52836000  0.38667700  0.79377100  1
  O  O27  1  0.47164000  0.61332300  0.20622900  1
  O  O28  1  0.29269100  0.99085900  0.01760300  1
  O  O29  1  0.70730900  0.00914100  0.98239700  1
  O  O30  1  0.51634100  0.00702300  0.23578400  1
  O  O31  1  0.48365900  0.99297700  0.76421600  1
  O  O32  1  0.47529800  0.31667200  0.30360200  1
  O  O33  1  0.52470200  0.68332800  0.69639800  1
  O  O34  1  0.84168200  0.31983400  0.24627000  1
  O  O35  1  0.15831800  0.68016600  0.75373000  1
  O  O36  1  0.43268700  0.67243200  0.96748900  1
  O  O37  1  0.56731300  0.32756800  0.03251100  1
loop_
_geom_bond_atom_site_label_1
_geom_bond_atom_site_label_2
_geom_bond_distance
_geom_bond_site_symmetry_2
Na0 O37 2.337358 1_555
Na0 O34 2.343284 1_555
Na0 O30 2.343777 1_555
Na0 O28 2.418736 1_545
Na0 O32 2.439239 1_555
Na0 O29 2.486373 1_554
Na1 O36 2.337358 1_555
Na1 O35 2.343284 1_555
Na1 O31 2.343777 1_555
Na1 O29 2.418736 1_565
Na1 O33 2.439239 1_555
Na1 O28 2.486373 1_556
H0 O34 0.985986 1_555
H1 O35 0.985986 1_555
H2 O34 0.979103 1_555
H3 O35 0.979103 1_555
H4 O36 0.989297 1_555
H5 O37 0.989297 1_555
H6 N2 1.040443 1_555
H7 N3 1.040443 1_555
H8 O36 0.977581 1_554
H9 O37 0.977581 1_556
H10 O30 0.982855 1_565
H11 O31 0.982855 1_545
H12 O32 0.979221 1_555
H13 O33 0.979221 1_555
H14 O30 0.986188 1_565
H15 O31 0.986188 1_545
H16 N0 1.034066 1_555
H17 N1 1.034066 1_555
H18 O32 0.986671 1_555
H19 O33 0.986671 1_555
H20 N2 1.046544 1_555
H21 N3 1.046544 1_555
H22 N0 1.035106 1_555
H23 N1 1.035106 1_555
H24 O28 0.985747 1_555
H25 O29 0.985747 1_555
H26 N2 1.033223 1_555
H27 N3 1.033223 1_555
H28 N0 1.034598 1_555
H29 N1 1.034598 1_555
H30 N0 1.048719 1_555
H31 N1 1.048719 1_555
H32 O28 0.983553 1_556
H33 O29 0.983553 1_554
H34 N2 1.033505 1_554
H35 N3 1.033505 1_556
O0 V2 1.746658 1_555
O0 V0 2.002375 1_555
O1 V3 1.746658 1_555
O1 V1 2.002375 1_555
O2 V3 2.086467 1_565
O2 V2 2.090747 1_655
O2 V4 2.274707 1_555
O2 V7 2.294490 1_555
O2 V9 2.359486 1_555
O2 V0 2.459750 1_655
O3 V2 2.086467 1_545
O3 V3 2.090747 1_455
O3 V5 2.274707 1_555
O3 V6 2.294490 1_555
O3 V8 2.359486 1_555
O3 V1 2.459750 1_455
O4 V4 1.823418 1_455
O4 V0 1.944850 1_555
O5 V5 1.823418 1_655
O5 V1 1.944850 1_555
O6 V7 1.849410 1_555
O6 V0 1.880043 1_655
O7 V6 1.849410 1_555
O7 V1 1.880043 1_455
O8 V0 1.624364 1_555
O9 V1 1.624364 1_555
O10 V8 1.857683 1_555
O10 V1 1.881934 1_455
O11 V9 1.857683 1_555
O11 V0 1.881934 1_655
O12 V2 1.728924 1_545
O12 V8 2.046621 1_555
O13 V3 1.728924 1_565
O13 V9 2.046621 1_555
O14 V2 1.919962 1_555
O14 V7 2.017104 1_455
O14 V5 2.091986 1_565
O15 V3 1.919962 1_555
O15 V6 2.017104 1_655
O15 V4 2.091986 1_545
O16 V2 1.970819 1_545
O16 V4 2.001004 1_445
O16 V6 2.022860 1_555
O17 V3 1.970819 1_565
O17 V5 2.001004 1_665
O17 V7 2.022860 1_555
O18 V4 1.666306 1_445
O19 V5 1.666306 1_665
O20 V5 1.830535 1_555
O20 V8 1.901069 1_555
O21 V4 1.830535 1_555
O21 V9 1.901069 1_555
O22 V6 1.649803 1_555
O23 V7 1.649803 1_555
O24 V6 1.833820 1_555
O24 V8 1.891737 1_555
O25 V7 1.833820 1_555
O25 V9 1.891737 1_555
O26 V8 1.635239 1_555
O27 V9 1.635239 1_555
