# generated using pymatgen
data_Ca6As4PO35
_symmetry_space_group_name_H-M   'P 1'
_cell_length_a   11.22881846
_cell_length_b   11.22881846
_cell_length_c   11.22881809
_cell_angle_alpha   81.27725759
_cell_angle_beta   81.27725759
_cell_angle_gamma   81.27725868
_symmetry_Int_Tables_number   1
_chemical_formula_structural   Ca6As4PO35
_chemical_formula_sum   'Ca12 As8 P2 O70'
_cell_volume   1371.19387092
_cell_formula_units_Z   2
loop_
 _symmetry_equiv_pos_site_id
 _symmetry_equiv_pos_as_xyz
  1  'x, y, z'
loop_
 _atom_site_type_symbol
 _atom_site_label
 _atom_site_symmetry_multiplicity
 _atom_site_fract_x
 _atom_site_fract_y
 _atom_site_fract_z
 _atom_site_occupancy
  Ca  Ca0  1  0.13592200  0.39432300  0.96843400  1
  Ca  Ca1  1  0.39432300  0.96843400  0.13592200  1
  Ca  Ca2  1  0.96843400  0.13592200  0.39432300  1
  Ca  Ca3  1  0.46843400  0.89432300  0.63592200  1
  Ca  Ca4  1  0.89432300  0.63592200  0.46843400  1
  Ca  Ca5  1  0.63592200  0.46843400  0.89432300  1
  Ca  Ca6  1  0.39219100  0.47533800  0.16277800  1
  Ca  Ca7  1  0.47533800  0.16277800  0.39219100  1
  Ca  Ca8  1  0.16277800  0.39219100  0.47533800  1
  Ca  Ca9  1  0.66277800  0.97533800  0.89219100  1
  Ca  Ca10  1  0.97533800  0.89219100  0.66277800  1
  Ca  Ca11  1  0.89219100  0.66277800  0.97533800  1
  As  As0  1  0.59715700  0.20581400  0.07456400  1
  As  As1  1  0.20581400  0.07456400  0.59715700  1
  As  As2  1  0.07456400  0.59715700  0.20581400  1
  As  As3  1  0.57456400  0.70581400  0.09715700  1
  As  As4  1  0.70581400  0.09715700  0.57456400  1
  As  As5  1  0.09715700  0.57456400  0.70581400  1
  As  As6  1  0.47076900  0.47076900  0.47076900  1
  As  As7  1  0.97076900  0.97076900  0.97076900  1
  P  P0  1  0.25210100  0.25210100  0.25210100  1
  P  P1  1  0.75210100  0.75210100  0.75210100  1
  O  O0  1  0.51325200  0.34449000  0.03218400  1
  O  O1  1  0.34449000  0.03218400  0.51325200  1
  O  O2  1  0.03218400  0.51325200  0.34449000  1
  O  O3  1  0.53218400  0.84449000  0.01325200  1
  O  O4  1  0.84449000  0.01325200  0.53218400  1
  O  O5  1  0.01325200  0.53218400  0.84449000  1
  O  O6  1  0.54156800  0.08708900  0.03341400  1
  O  O7  1  0.08708900  0.03341400  0.54156800  1
  O  O8  1  0.03341400  0.54156800  0.08708900  1
  O  O9  1  0.53341400  0.58708900  0.04156800  1
  O  O10  1  0.58708900  0.04156800  0.53341400  1
  O  O11  1  0.04156800  0.53341400  0.58708900  1
  O  O12  1  0.72878100  0.23814400  0.97549300  1
  O  O13  1  0.23814400  0.97549300  0.72878100  1
  O  O14  1  0.97549300  0.72878100  0.23814400  1
  O  O15  1  0.47549300  0.73814400  0.22878100  1
  O  O16  1  0.73814400  0.22878100  0.47549300  1
  O  O17  1  0.22878100  0.47549300  0.73814400  1
  O  O18  1  0.61326500  0.18901600  0.22422500  1
  O  O19  1  0.18901600  0.22422500  0.61326500  1
  O  O20  1  0.22422500  0.61326500  0.18901600  1
  O  O21  1  0.72422500  0.68901600  0.11326500  1
  O  O22  1  0.68901600  0.11326500  0.72422500  1
  O  O23  1  0.11326500  0.72422500  0.68901600  1
  O  O24  1  0.55101900  0.55101900  0.55101900  1
  O  O25  1  0.05101900  0.05101900  0.05101900  1
  O  O26  1  0.49259100  0.52399100  0.31783600  1
  O  O27  1  0.52399100  0.31783600  0.49259100  1
  O  O28  1  0.31783600  0.49259100  0.52399100  1
  O  O29  1  0.81783600  0.02399100  0.99259100  1
  O  O30  1  0.02399100  0.99259100  0.81783600  1
  O  O31  1  0.99259100  0.81783600  0.02399100  1
  O  O32  1  0.32366300  0.32366300  0.32366300  1
  O  O33  1  0.82366300  0.82366300  0.82366300  1
  O  O34  1  0.24336200  0.32888300  0.12598700  1
  O  O35  1  0.32888300  0.12598700  0.24336200  1
  O  O36  1  0.12598700  0.24336200  0.32888300  1
  O  O37  1  0.62598700  0.82888300  0.74336200  1
  O  O38  1  0.82888300  0.74336200  0.62598700  1
  O  O39  1  0.74336200  0.62598700  0.82888300  1
  O  O40  1  0.36714700  0.24709900  0.86836000  1
  O  O41  1  0.24709900  0.86836000  0.36714700  1
  O  O42  1  0.86836000  0.36714700  0.24709900  1
  O  O43  1  0.36836000  0.74709900  0.86714700  1
  O  O44  1  0.74709900  0.86714700  0.36836000  1
  O  O45  1  0.86714700  0.36836000  0.74709900  1
  O  O46  1  0.12076200  0.21458900  0.87417500  1
  O  O47  1  0.21458900  0.87417500  0.12076200  1
  O  O48  1  0.87417500  0.12076200  0.21458900  1
  O  O49  1  0.37417500  0.71458900  0.62076200  1
  O  O50  1  0.71458900  0.62076200  0.37417500  1
  O  O51  1  0.62076200  0.37417500  0.71458900  1
  O  O52  1  0.27822200  0.58662500  0.94162400  1
  O  O53  1  0.58662500  0.94162400  0.27822200  1
  O  O54  1  0.94162400  0.27822200  0.58662500  1
  O  O55  1  0.44162400  0.08662500  0.77822200  1
  O  O56  1  0.08662500  0.77822200  0.44162400  1
  O  O57  1  0.77822200  0.44162400  0.08662500  1
  O  O58  1  0.95600600  0.23174700  0.09056500  1
  O  O59  1  0.23174700  0.09056500  0.95600600  1
  O  O60  1  0.09056500  0.95600600  0.23174700  1
  O  O61  1  0.59056500  0.73174700  0.45600600  1
  O  O62  1  0.73174700  0.45600600  0.59056500  1
  O  O63  1  0.45600600  0.59056500  0.73174700  1
  O  O64  1  0.89559900  0.26825200  0.70062900  1
  O  O65  1  0.26825200  0.70062900  0.89559900  1
  O  O66  1  0.70062900  0.89559900  0.26825200  1
  O  O67  1  0.20062900  0.76825200  0.39559900  1
  O  O68  1  0.76825200  0.39559900  0.20062900  1
  O  O69  1  0.39559900  0.20062900  0.76825200  1
loop_
_geom_bond_atom_site_label_1
_geom_bond_atom_site_label_2
_geom_bond_distance
_geom_bond_site_symmetry_2
Ca0 O34 2.260404 1_556
Ca0 O8 2.336565 1_556
Ca0 O5 2.347744 1_555
Ca0 O46 2.455423 1_555
Ca0 O17 2.712993 1_555
Ca0 O52 2.830177 1_555
Ca0 O58 2.968774 1_456
Ca0 O40 3.018859 1_555
Ca1 O35 2.260404 1_565
Ca1 O6 2.336565 1_565
Ca1 O3 2.347744 1_555
Ca1 O47 2.455423 1_555
Ca1 O15 2.712993 1_555
Ca1 O53 2.830177 1_555
Ca1 O59 2.968774 1_564
Ca1 O41 3.018859 1_555
Ca2 O36 2.260404 1_655
Ca2 O7 2.336565 1_655
Ca2 O4 2.347744 1_555
Ca2 O48 2.455423 1_555
Ca2 O16 2.712993 1_555
Ca2 O54 2.830177 1_555
Ca2 O60 2.968774 1_645
Ca2 O42 3.018859 1_555
Ca3 O37 2.260404 1_555
Ca3 O10 2.336565 1_565
Ca3 O1 2.347744 1_565
Ca3 O49 2.455423 1_555
Ca3 O13 2.712993 1_555
Ca3 O55 2.830177 1_565
Ca3 O61 2.968774 1_555
Ca3 O43 3.018859 1_555
Ca4 O38 2.260404 1_555
Ca4 O11 2.336565 1_655
Ca4 O2 2.347744 1_655
Ca4 O50 2.455423 1_555
Ca4 O14 2.712993 1_555
Ca4 O56 2.830177 1_655
Ca4 O62 2.968774 1_555
Ca4 O44 3.018859 1_555
Ca5 O39 2.260404 1_555
Ca5 O9 2.336565 1_556
Ca5 O0 2.347744 1_556
Ca5 O51 2.455423 1_555
Ca5 O12 2.712993 1_555
Ca5 O57 2.830177 1_556
Ca5 O63 2.968774 1_555
Ca5 O45 3.018859 1_555
Ca6 O20 2.264190 1_555
Ca6 O9 2.317888 1_555
Ca6 O0 2.366455 1_555
Ca6 O26 2.381511 1_555
Ca6 O32 2.408119 1_555
Ca6 O34 2.630010 1_555
Ca6 O52 2.983905 1_554
Ca7 O18 2.264190 1_555
Ca7 O10 2.317889 1_555
Ca7 O1 2.366455 1_555
Ca7 O27 2.381511 1_555
Ca7 O32 2.408119 1_555
Ca7 O35 2.630010 1_555
Ca7 O53 2.983905 1_545
Ca8 O19 2.264190 1_555
Ca8 O11 2.317889 1_555
Ca8 O2 2.366455 1_555
Ca8 O28 2.381511 1_555
Ca8 O32 2.408119 1_555
Ca8 O36 2.630010 1_555
Ca8 O54 2.983905 1_455
Ca9 O22 2.264190 1_565
Ca9 O6 2.317889 1_566
Ca9 O3 2.366455 1_556
Ca9 O29 2.381511 1_565
Ca9 O33 2.408119 1_555
Ca9 O37 2.630010 1_555
Ca9 O55 2.983905 1_565
Ca10 O23 2.264190 1_655
Ca10 O7 2.317888 1_665
Ca10 O4 2.366455 1_565
Ca10 O30 2.381511 1_655
Ca10 O33 2.408119 1_555
Ca10 O38 2.630010 1_555
Ca10 O56 2.983905 1_655
Ca11 O21 2.264190 1_556
Ca11 O8 2.317889 1_656
Ca11 O5 2.366455 1_655
Ca11 O31 2.381511 1_556
Ca11 O33 2.408119 1_555
Ca11 O39 2.630010 1_555
Ca11 O57 2.983905 1_556
As0 O18 1.696506 1_555
As0 O6 1.705024 1_555
As0 O0 1.733533 1_555
As0 O12 1.759353 1_554
As1 O19 1.696506 1_555
As1 O7 1.705024 1_555
As1 O1 1.733533 1_555
As1 O13 1.759353 1_545
As2 O20 1.696506 1_555
As2 O8 1.705024 1_555
As2 O2 1.733533 1_555
As2 O14 1.759353 1_455
As3 O21 1.696506 1_555
As3 O9 1.705024 1_555
As3 O3 1.733533 1_555
As3 O15 1.759353 1_555
As4 O22 1.696506 1_555
As4 O10 1.705024 1_555
As4 O4 1.733533 1_555
As4 O16 1.759353 1_555
As5 O23 1.696506 1_555
As5 O11 1.705024 1_555
As5 O5 1.733533 1_555
As5 O17 1.759353 1_555
As6 O26 1.723855 1_555
As6 O28 1.723855 1_555
As6 O27 1.723856 1_555
As6 O24 1.781817 1_555
As7 O30 1.723855 1_655
As7 O31 1.723855 1_556
As7 O29 1.723856 1_565
As7 O25 1.781817 1_666
O32 P0 1.588914 1_555
O33 P1 1.588914 1_555
O34 P0 1.550648 1_555
O35 P0 1.550648 1_555
O36 P0 1.550648 1_555
O37 P1 1.550648 1_555
O38 P1 1.550648 1_555
O39 P1 1.550648 1_555
O40 O69 1.286994 1_555
O41 O67 1.286994 1_555
O42 O68 1.286994 1_555
O43 O65 1.286994 1_555
O44 O66 1.286994 1_555
O45 O64 1.286994 1_555
O46 O59 1.941558 1_555
O47 O60 1.941558 1_555
O48 O58 1.941558 1_555
O49 O63 1.941558 1_555
O50 O61 1.941558 1_555
O51 O62 1.941558 1_555
O52 O65 1.300683 1_555
O53 O66 1.300683 1_555
O54 O64 1.300682 1_555
O55 O69 1.300683 1_555
O56 O67 1.300683 1_555
O57 O68 1.300682 1_555
