# generated using pymatgen
data_Ni2Mo3O8
_symmetry_space_group_name_H-M   'P 1'
_cell_length_a   5.83864981
_cell_length_b   5.83864981
_cell_length_c   10.03440100
_cell_angle_alpha   90.00000000
_cell_angle_beta   90.00000000
_cell_angle_gamma   119.99999780
_symmetry_Int_Tables_number   1
_chemical_formula_structural   Ni2Mo3O8
_chemical_formula_sum   'Ni4 Mo6 O16'
_cell_volume   296.24221700
_cell_formula_units_Z   2
loop_
 _symmetry_equiv_pos_site_id
 _symmetry_equiv_pos_as_xyz
  1  'x, y, z'
loop_
 _atom_site_type_symbol
 _atom_site_label
 _atom_site_symmetry_multiplicity
 _atom_site_fract_x
 _atom_site_fract_y
 _atom_site_fract_z
 _atom_site_occupancy
  Ni  Ni0  1  0.66666700  0.33333300  0.94130900  1
  Ni  Ni1  1  0.33333300  0.66666700  0.44130900  1
  Ni  Ni2  1  0.66666700  0.33333300  0.37565000  1
  Ni  Ni3  1  0.33333300  0.66666700  0.87565000  1
  Mo  Mo0  1  0.85394800  0.70789700  0.63927800  1
  Mo  Mo1  1  0.85394800  0.14605200  0.63927800  1
  Mo  Mo2  1  0.14605200  0.29210300  0.13927800  1
  Mo  Mo3  1  0.29210300  0.14605200  0.63927800  1
  Mo  Mo4  1  0.14605200  0.85394800  0.13927800  1
  Mo  Mo5  1  0.70789700  0.85394800  0.13927800  1
  O  O0  1  0.51175500  0.02351000  0.52238900  1
  O  O1  1  0.51175500  0.48824500  0.52238900  1
  O  O2  1  0.48824500  0.97649000  0.02238900  1
  O  O3  1  0.97649000  0.48824500  0.52238900  1
  O  O4  1  0.48824500  0.51175500  0.02238900  1
  O  O5  1  0.02351000  0.51175500  0.02238900  1
  O  O6  1  0.16892400  0.33784700  0.75597600  1
  O  O7  1  0.16892400  0.83107600  0.75597600  1
  O  O8  1  0.83107600  0.66215300  0.25597600  1
  O  O9  1  0.66215300  0.83107600  0.75597600  1
  O  O10  1  0.83107600  0.16892400  0.25597600  1
  O  O11  1  0.33784700  0.16892400  0.25597600  1
  O  O12  1  0.00000000  0.00000000  0.99597100  1
  O  O13  1  0.00000000  0.00000000  0.49597100  1
  O  O14  1  0.66666700  0.33333300  0.74274200  1
  O  O15  1  0.33333300  0.66666700  0.24274200  1
loop_
_geom_bond_atom_site_label_1
_geom_bond_atom_site_label_2
_geom_bond_distance
_geom_bond_site_symmetry_2
Ni0 O5 1.979292 1_656
Ni0 O2 1.979292 1_546
Ni0 O4 1.979297 1_556
Ni0 O14 1.992501 1_555
Ni1 O3 1.979292 1_455
Ni1 O0 1.979292 1_565
Ni1 O1 1.979297 1_555
Ni1 O15 1.992501 1_555
Ni2 O10 2.050959 1_555
Ni2 O8 2.050968 1_555
Ni2 O11 2.050968 1_555
Ni2 O0 2.149952 1_555
Ni2 O3 2.149952 1_555
Ni2 O1 2.149956 1_555
Ni3 O7 2.050959 1_555
Ni3 O6 2.050968 1_555
Ni3 O9 2.050968 1_555
Ni3 O5 2.149952 1_556
Ni3 O2 2.149952 1_556
Ni3 O4 2.149956 1_556
Mo0 O9 1.986922 1_555
Mo0 O7 1.986930 1_655
Mo0 O13 2.061397 1_665
Mo0 O1 2.109486 1_555
Mo0 O3 2.109490 1_555
Mo0 O14 2.159841 1_555
Mo1 O9 1.986929 1_545
Mo1 O6 1.986929 1_655
Mo1 O13 2.061401 1_655
Mo1 O0 2.109485 1_555
Mo1 O3 2.109485 1_555
Mo1 O14 2.159832 1_555
Mo2 O11 1.986922 1_555
Mo2 O10 1.986930 1_455
Mo2 O12 2.061397 1_554
Mo2 O4 2.109486 1_555
Mo2 O5 2.109490 1_555
Mo2 O15 2.159841 1_555
Mo3 O6 1.986922 1_555
Mo3 O7 1.986930 1_545
Mo3 O13 2.061397 1_555
Mo3 O1 2.109486 1_555
Mo3 O0 2.109490 1_555
Mo3 O14 2.159841 1_555
Mo4 O8 1.986929 1_455
Mo4 O11 1.986929 1_565
Mo4 O12 2.061401 1_564
Mo4 O5 2.109485 1_555
Mo4 O2 2.109485 1_555
Mo4 O15 2.159832 1_555
Mo5 O8 1.986922 1_555
Mo5 O10 1.986930 1_565
Mo5 O12 2.061397 1_664
Mo5 O4 2.109486 1_555
Mo5 O2 2.109490 1_555
Mo5 O15 2.159841 1_555
