# generated using pymatgen
data_Ba3CaTi3O8
_symmetry_space_group_name_H-M   'P 1'
_cell_length_a   5.87648413
_cell_length_b   5.87504875
_cell_length_c   8.71434805
_cell_angle_alpha   105.53968830
_cell_angle_beta   74.48203878
_cell_angle_gamma   120.36952206
_symmetry_Int_Tables_number   1
_chemical_formula_structural   Ba3CaTi3O8
_chemical_formula_sum   'Ba3 Ca1 Ti3 O8'
_cell_volume   246.90982011
_cell_formula_units_Z   1
loop_
 _symmetry_equiv_pos_site_id
 _symmetry_equiv_pos_as_xyz
  1  'x, y, z'
loop_
 _atom_site_type_symbol
 _atom_site_label
 _atom_site_symmetry_multiplicity
 _atom_site_fract_x
 _atom_site_fract_y
 _atom_site_fract_z
 _atom_site_occupancy
  Ba  Ba0  1  0.98226800  0.01759400  0.00961800  1
  Ba  Ba1  1  0.38397700  0.61563500  0.73791100  1
  Ba  Ba2  1  0.58364600  0.41630300  0.24833200  1
  Ca  Ca0  1  0.81389700  0.18598300  0.46856200  1
  Ti  Ti0  1  0.08830100  0.91113200  0.60011300  1
  Ti  Ti1  1  0.29939700  0.70046300  0.14001600  1
  Ti  Ti2  1  0.69167400  0.30787400  0.85443900  1
  O  O0  1  0.98044500  0.52451400  0.98927700  1
  O  O1  1  0.08762800  0.42997700  0.26457100  1
  O  O2  1  0.47493100  0.01934100  0.98913400  1
  O  O3  1  0.57032400  0.91293800  0.26431100  1
  O  O4  1  0.41590700  0.09787900  0.67499400  1
  O  O5  1  0.48566600  0.51431100  0.98104600  1
  O  O6  1  0.90156600  0.58358800  0.67518200  1
  O  O7  1  0.90009100  0.09927900  0.70437900  1
loop_
_geom_bond_atom_site_label_1
_geom_bond_atom_site_label_2
_geom_bond_distance
_geom_bond_site_symmetry_2
Ba0 O3 2.741457 1_545
Ba0 O1 2.743072 1_655
Ba0 O2 2.847479 1_654
Ba0 O0 2.849190 1_544
Ba0 O5 2.930936 1_544
Ba0 O5 2.931775 1_654
Ba0 O7 3.023992 1_554
Ba0 O0 3.035988 1_554
Ba0 O2 3.039268 1_554
Ba0 O6 3.279520 1_544
Ba0 O4 3.280992 1_654
Ba1 O5 2.629369 1_555
Ba1 O2 2.695549 1_565
Ba1 O0 2.696923 1_455
Ba1 O4 2.933022 1_565
Ba1 O6 2.933457 1_455
Ba1 O7 2.935050 1_565
Ba1 O7 2.936188 1_455
Ba1 O4 3.035964 1_555
Ba1 O6 3.036422 1_555
Ba2 O0 2.718649 1_554
Ba2 O2 2.718848 1_554
Ba2 O5 2.803533 1_554
Ba2 O1 2.921088 1_555
Ba2 O3 2.923397 1_555
Ba2 O3 2.958347 1_545
Ba2 O1 2.962329 1_655
Ca0 O3 2.302564 1_545
Ca0 O1 2.303508 1_655
Ca0 O6 2.447436 1_555
Ca0 O4 2.448987 1_555
Ca0 O7 2.473411 1_555
O0 Ti2 1.990473 1_555
O0 Ti1 2.222137 1_656
O1 Ti1 1.858465 1_555
O2 Ti2 1.989109 1_555
O2 Ti1 2.223206 1_546
O3 Ti1 1.858746 1_555
O4 Ti0 1.867798 1_545
O4 Ti2 2.212281 1_555
O5 Ti1 1.975005 1_556
O5 Ti2 2.051034 1_555
O6 Ti0 1.868256 1_655
O6 Ti2 2.211332 1_555
O7 Ti0 1.852298 1_645
O7 Ti2 2.124605 1_555
