# generated using pymatgen
data_Nb3Co5B2
_symmetry_space_group_name_H-M   'P 1'
_cell_length_a   8.44826200
_cell_length_b   8.44826200
_cell_length_c   3.24184800
_cell_angle_alpha   90.00000000
_cell_angle_beta   90.00000000
_cell_angle_gamma   90.00000000
_symmetry_Int_Tables_number   1
_chemical_formula_structural   Nb3Co5B2
_chemical_formula_sum   'Nb6 Co10 B4'
_cell_volume   231.38084140
_cell_formula_units_Z   2
loop_
 _symmetry_equiv_pos_site_id
 _symmetry_equiv_pos_as_xyz
  1  'x, y, z'
loop_
 _atom_site_type_symbol
 _atom_site_label
 _atom_site_symmetry_multiplicity
 _atom_site_fract_x
 _atom_site_fract_y
 _atom_site_fract_z
 _atom_site_occupancy
  Nb  Nb0  1  0.67502900  0.17502900  0.00000000  1
  Nb  Nb1  1  0.32497100  0.82497100  0.00000000  1
  Nb  Nb2  1  0.17502900  0.32497100  0.00000000  1
  Nb  Nb3  1  0.82497100  0.67502900  0.00000000  1
  Nb  Nb4  1  0.00000000  0.00000000  0.00000000  1
  Nb  Nb5  1  0.50000000  0.50000000  0.00000000  1
  Co  Co0  1  0.50000000  0.00000000  0.50000000  1
  Co  Co1  1  0.00000000  0.50000000  0.50000000  1
  Co  Co2  1  0.22081400  0.06956600  0.50000000  1
  Co  Co3  1  0.77918600  0.93043400  0.50000000  1
  Co  Co4  1  0.06956600  0.77918600  0.50000000  1
  Co  Co5  1  0.72081400  0.43043400  0.50000000  1
  Co  Co6  1  0.93043400  0.22081400  0.50000000  1
  Co  Co7  1  0.27918600  0.56956600  0.50000000  1
  Co  Co8  1  0.56956600  0.72081400  0.50000000  1
  Co  Co9  1  0.43043400  0.27918600  0.50000000  1
  B  B0  1  0.11790500  0.61790500  0.00000000  1
  B  B1  1  0.88209500  0.38209500  0.00000000  1
  B  B2  1  0.61790500  0.88209500  0.00000000  1
  B  B3  1  0.38209500  0.11790500  0.00000000  1
loop_
_geom_bond_atom_site_label_1
_geom_bond_atom_site_label_2
_geom_bond_distance
_geom_bond_site_symmetry_2
Co0 Co3 2.430755 1_545
Co0 Co9 2.430755 1_555
Co0 Co8 2.430755 1_545
Co0 Co2 2.430755 1_555
Co0 Nb1 2.645836 1_546
Co0 Nb0 2.645836 1_556
Co0 Nb0 2.645836 1_555
Co0 Nb1 2.645836 1_545
Co1 Co4 2.430755 1_555
Co1 Co7 2.430755 1_555
Co1 Co5 2.430755 1_455
Co1 Co6 2.430755 1_455
Co1 Nb2 2.645836 1_555
Co1 Nb2 2.645836 1_556
Co1 Nb3 2.645836 1_456
Co1 Nb3 2.645836 1_455
Co2 Co9 2.504466 1_555
Co2 Nb4 2.540250 1_555
Co2 Nb4 2.540250 1_556
Co2 Nb2 2.726317 1_555
Co2 Nb2 2.726317 1_556
Co2 Co6 2.766035 1_455
Co2 Co4 2.766035 1_545
Co2 Nb1 2.769787 1_546
Co2 Nb1 2.769787 1_545
Co3 Co8 2.504466 1_555
Co3 Nb4 2.540250 1_665
Co3 Nb4 2.540250 1_666
Co3 Nb3 2.726317 1_556
Co3 Nb3 2.726317 1_555
Co3 Co6 2.766035 1_565
Co3 Co4 2.766035 1_655
Co3 Nb0 2.769787 1_566
Co3 Nb0 2.769787 1_565
Co4 Co7 2.504466 1_555
Co4 Nb4 2.540250 1_566
Co4 Nb4 2.540250 1_565
Co4 Nb1 2.726317 1_556
Co4 Nb1 2.726317 1_555
Co4 Nb3 2.769787 1_455
Co4 Nb3 2.769787 1_456
Co5 Co6 2.504466 1_555
Co5 Nb5 2.540250 1_556
Co5 Nb5 2.540250 1_555
Co5 Nb0 2.726317 1_556
Co5 Nb0 2.726317 1_555
Co5 Co9 2.766035 1_555
Co5 Co8 2.766035 1_555
Co5 Nb3 2.769787 1_556
Co5 Nb3 2.769787 1_555
Co6 Nb4 2.540250 1_655
Co6 Nb4 2.540250 1_656
Co6 Nb0 2.726317 1_556
Co6 Nb0 2.726317 1_555
Co6 Nb2 2.769787 1_656
Co6 Nb2 2.769787 1_655
Co7 Nb5 2.540250 1_556
Co7 Nb5 2.540250 1_555
Co7 Nb1 2.726317 1_556
Co7 Nb1 2.726317 1_555
Co7 Co8 2.766035 1_555
Co7 Co9 2.766035 1_555
Co7 Nb2 2.769787 1_555
Co7 Nb2 2.769787 1_556
Co8 Nb5 2.540250 1_556
Co8 Nb5 2.540250 1_555
Co8 Nb3 2.726317 1_555
Co8 Nb3 2.726317 1_556
Co8 Nb1 2.769787 1_556
Co8 Nb1 2.769787 1_555
Co9 Nb5 2.540250 1_555
Co9 Nb5 2.540250 1_556
Co9 Nb2 2.726317 1_555
Co9 Nb2 2.726317 1_556
Co9 Nb0 2.769787 1_556
Co9 Nb0 2.769787 1_555
B0 Co1 2.147509 1_555
B0 Co1 2.147509 1_554
B0 Co7 2.156547 1_554
B0 Co7 2.156547 1_555
B0 Co4 2.156547 1_554
B0 Co4 2.156547 1_555
B0 Nb1 2.473951 1_555
B0 Nb2 2.521399 1_555
B0 Nb3 2.521399 1_455
B1 Co1 2.147509 1_655
B1 Co1 2.147509 1_654
B1 Co6 2.156547 1_554
B1 Co6 2.156547 1_555
B1 Co5 2.156547 1_555
B1 Co5 2.156547 1_554
B1 Nb0 2.473951 1_555
B1 Nb2 2.521399 1_655
B1 Nb3 2.521399 1_555
B2 Co0 2.147509 1_564
B2 Co0 2.147509 1_565
B2 Co8 2.156547 1_554
B2 Co8 2.156547 1_555
B2 Co3 2.156547 1_554
B2 Co3 2.156547 1_555
B2 Nb3 2.473951 1_555
B2 Nb1 2.521399 1_555
B2 Nb0 2.521399 1_565
B3 Co0 2.147509 1_555
B3 Co0 2.147509 1_554
B3 Co2 2.156547 1_554
B3 Co2 2.156547 1_555
B3 Co9 2.156547 1_554
B3 Co9 2.156547 1_555
B3 Nb2 2.473951 1_555
B3 Nb1 2.521399 1_545
B3 Nb0 2.521399 1_555
