# generated using pymatgen
data_Ti2Al3
_symmetry_space_group_name_H-M   'P 1'
_cell_length_a   6.11879100
_cell_length_b   6.11879100
_cell_length_c   10.29645148
_cell_angle_alpha   107.28537181
_cell_angle_beta   107.28537181
_cell_angle_gamma   90.00000000
_symmetry_Int_Tables_number   1
_chemical_formula_structural   Ti2Al3
_chemical_formula_sum   'Ti8 Al12'
_cell_volume   349.80914601
_cell_formula_units_Z   4
loop_
 _symmetry_equiv_pos_site_id
 _symmetry_equiv_pos_as_xyz
  1  'x, y, z'
loop_
 _atom_site_type_symbol
 _atom_site_label
 _atom_site_symmetry_multiplicity
 _atom_site_fract_x
 _atom_site_fract_y
 _atom_site_fract_z
 _atom_site_occupancy
  Ti  Ti0  1  0.29235000  0.52408800  0.58470100  1
  Ti  Ti1  1  0.29235000  0.06061200  0.58470100  1
  Ti  Ti2  1  0.31061200  0.04235000  0.08470100  1
  Ti  Ti3  1  0.95765000  0.68938800  0.91529900  1
  Ti  Ti4  1  0.95765000  0.22591200  0.91529900  1
  Ti  Ti5  1  0.77408800  0.04235000  0.08470100  1
  Ti  Ti6  1  0.93938800  0.70765000  0.41529900  1
  Ti  Ti7  1  0.47591200  0.70765000  0.41529900  1
  Al  Al0  1  0.80104400  0.07721200  0.60208900  1
  Al  Al1  1  0.80104400  0.52487700  0.60208900  1
  Al  Al2  1  0.77487700  0.55104400  0.10208900  1
  Al  Al3  1  0.44895600  0.22512300  0.89791100  1
  Al  Al4  1  0.44895600  0.67278800  0.89791100  1
  Al  Al5  1  0.32721200  0.55104400  0.10208900  1
  Al  Al6  1  0.47512300  0.19895600  0.39791100  1
  Al  Al7  1  0.92278800  0.19895600  0.39791100  1
  Al  Al8  1  0.12500000  0.37500000  0.25000000  1
  Al  Al9  1  0.12500000  0.87500000  0.25000000  1
  Al  Al10  1  0.12500000  0.87500000  0.75000000  1
  Al  Al11  1  0.62500000  0.87500000  0.75000000  1
loop_
_geom_bond_atom_site_label_1
_geom_bond_atom_site_label_2
_geom_bond_distance
_geom_bond_site_symmetry_2
Ti0 Ti6 2.809593 1_455
Ti0 Ti7 2.809600 1_555
Ti0 Ti1 2.835913 1_555
Ti0 Ti1 3.282878 1_565
Ti1 Ti6 2.809586 1_445
Ti1 Ti7 2.809593 1_545
Ti2 Ti3 2.809586 1_444
Ti2 Ti4 2.809593 1_454
Ti2 Ti5 2.835913 1_555
Ti2 Ti5 3.282878 1_455
Ti3 Ti5 2.809593 1_566
Ti3 Ti4 2.835913 1_555
Ti3 Ti4 3.282878 1_565
Ti4 Ti5 2.809600 1_556
Ti6 Ti7 2.835913 1_555
Ti6 Ti7 3.282878 1_655
Al0 Al11 2.665574 1_545
Al0 Al10 2.665577 1_645
Al0 Al6 2.718606 1_555
Al0 Al7 2.718610 1_555
Al0 Al1 2.739169 1_555
Al0 Ti7 2.812805 1_545
Al0 Ti6 2.812812 1_545
Al0 Ti4 2.926812 1_555
Al0 Ti1 3.064088 1_555
Al0 Ti1 3.064088 1_655
Al1 Al11 2.665574 1_555
Al1 Al10 2.665577 1_655
Al1 Al6 2.718603 1_555
Al1 Al7 2.718606 1_555
Al1 Ti7 2.812809 1_555
Al1 Ti6 2.812815 1_555
Al1 Ti3 2.926812 1_555
Al1 Ti0 3.064088 1_555
Al1 Ti0 3.064088 1_655
Al2 Al8 2.665574 1_655
Al2 Al9 2.665577 1_655
Al2 Al3 2.718603 1_554
Al2 Al4 2.718606 1_554
Al2 Al5 2.739169 1_555
Al2 Ti4 2.812809 1_554
Al2 Ti3 2.812815 1_554
Al2 Ti6 2.926812 1_555
Al2 Ti5 3.064088 1_555
Al2 Ti5 3.064088 1_565
Al3 Al5 2.718606 1_556
Al3 Al4 2.739169 1_555
Al3 Ti5 2.812809 1_556
Al3 Ti2 2.812815 1_556
Al3 Ti1 2.926812 1_555
Al3 Ti4 3.064088 1_555
Al3 Ti4 3.064088 1_455
Al4 Al5 2.718610 1_556
Al4 Ti5 2.812805 1_566
Al4 Ti2 2.812812 1_566
Al4 Ti0 2.926812 1_555
Al4 Ti3 3.064088 1_555
Al4 Ti3 3.064088 1_455
Al5 Al8 2.665574 1_555
Al5 Al9 2.665577 1_555
Al5 Ti4 2.812805 1_454
Al5 Ti3 2.812812 1_454
Al5 Ti7 2.926812 1_555
Al5 Ti2 3.064088 1_555
Al5 Ti2 3.064088 1_565
Al6 Al8 2.665574 1_555
Al6 Al9 2.665577 1_545
Al6 Al7 2.739169 1_555
Al6 Ti0 2.812809 1_555
Al6 Ti1 2.812815 1_555
Al6 Ti2 2.926812 1_555
Al6 Ti7 3.064088 1_555
Al6 Ti7 3.064088 1_545
Al7 Al8 2.665574 1_655
Al7 Al9 2.665577 1_645
Al7 Ti0 2.812805 1_655
Al7 Ti1 2.812812 1_655
Al7 Ti5 2.926812 1_555
Al7 Ti6 3.064088 1_555
Al7 Ti6 3.064088 1_545
Al8 Ti2 2.723891 1_555
Al8 Ti6 2.723891 1_455
Al8 Ti5 2.723895 1_455
Al8 Ti7 2.723895 1_555
Al8 Ti4 3.129205 1_454
Al8 Ti0 3.129205 1_555
Al9 Ti6 2.723888 1_455
Al9 Ti2 2.723888 1_565
Al9 Ti7 2.723891 1_555
Al9 Ti5 2.723891 1_465
Al9 Ti3 3.129205 1_454
Al9 Ti1 3.129205 1_565
Al10 Al3 2.665577 1_565
Al10 Al4 2.665577 1_555
Al10 Ti1 2.723888 1_565
Al10 Ti3 2.723888 1_455
Al10 Ti4 2.723891 1_465
Al10 Ti0 2.723891 1_555
Al10 Ti2 3.129205 1_566
Al10 Ti6 3.129205 1_455
Al11 Al3 2.665574 1_565
Al11 Al4 2.665574 1_555
Al11 Ti1 2.723891 1_565
Al11 Ti3 2.723891 1_555
Al11 Ti0 2.723895 1_555
Al11 Ti4 2.723895 1_565
Al11 Ti5 3.129205 1_566
Al11 Ti7 3.129205 1_555
