# generated using pymatgen
data_Zr4NiP
_symmetry_space_group_name_H-M   'P 1'
_cell_length_a   6.48255900
_cell_length_b   6.48255900
_cell_length_c   5.35538400
_cell_angle_alpha   90.00000000
_cell_angle_beta   90.00000000
_cell_angle_gamma   90.00000000
_symmetry_Int_Tables_number   1
_chemical_formula_structural   Zr4NiP
_chemical_formula_sum   'Zr8 Ni2 P2'
_cell_volume   225.05236077
_cell_formula_units_Z   2
loop_
 _symmetry_equiv_pos_site_id
 _symmetry_equiv_pos_as_xyz
  1  'x, y, z'
loop_
 _atom_site_type_symbol
 _atom_site_label
 _atom_site_symmetry_multiplicity
 _atom_site_fract_x
 _atom_site_fract_y
 _atom_site_fract_z
 _atom_site_occupancy
  Zr  Zr0  1  0.16146000  0.66160700  0.50000000  1
  Zr  Zr1  1  0.83854000  0.33839300  0.50000000  1
  Zr  Zr2  1  0.66160700  0.83854000  0.50000000  1
  Zr  Zr3  1  0.33839300  0.16146000  0.50000000  1
  Zr  Zr4  1  0.16146000  0.33839300  0.00000000  1
  Zr  Zr5  1  0.83854000  0.66160700  0.00000000  1
  Zr  Zr6  1  0.66160700  0.16146000  0.00000000  1
  Zr  Zr7  1  0.33839300  0.83854000  0.00000000  1
  Ni  Ni0  1  0.00000000  0.00000000  0.25000000  1
  Ni  Ni1  1  0.00000000  0.00000000  0.75000000  1
  P  P0  1  0.50000000  0.50000000  0.25000000  1
  P  P1  1  0.50000000  0.50000000  0.75000000  1
loop_
_geom_bond_atom_site_label_1
_geom_bond_atom_site_label_2
_geom_bond_distance
_geom_bond_site_symmetry_2
Ni0 Ni1 2.677692 1_555
Ni0 Ni1 2.677692 1_554
Ni0 Zr7 2.774914 1_545
Ni0 Zr3 2.774914 1_555
Ni0 Zr1 2.774914 1_455
Ni0 Zr4 2.774914 1_555
Ni0 Zr5 2.774914 1_445
Ni0 Zr6 2.774914 1_455
Ni0 Zr0 2.774914 1_545
Ni0 Zr2 2.774914 1_445
Ni1 Zr7 2.774914 1_546
Ni1 Zr3 2.774914 1_555
Ni1 Zr1 2.774914 1_455
Ni1 Zr4 2.774914 1_556
Ni1 Zr5 2.774914 1_446
Ni1 Zr6 2.774914 1_456
Ni1 Zr0 2.774914 1_545
Ni1 Zr2 2.774914 1_445
P0 Zr7 2.776027 1_555
P0 Zr4 2.776027 1_555
P0 Zr6 2.776027 1_555
P0 Zr5 2.776027 1_555
P0 Zr2 2.776027 1_555
P0 Zr1 2.776027 1_555
P0 Zr3 2.776027 1_555
P0 Zr0 2.776027 1_555
P1 Zr7 2.776027 1_556
P1 Zr4 2.776027 1_556
P1 Zr5 2.776027 1_556
P1 Zr2 2.776027 1_555
P1 Zr6 2.776027 1_556
P1 Zr1 2.776027 1_555
P1 Zr3 2.776027 1_555
P1 Zr0 2.776027 1_555
