# generated using pymatgen
data_Na5Co2P(CO4)4
_symmetry_space_group_name_H-M   'P 1'
_cell_length_a   9.94579479
_cell_length_b   9.94112542
_cell_length_c   9.94579479
_cell_angle_alpha   59.60690533
_cell_angle_beta   90.65230185
_cell_angle_gamma   120.39309467
_symmetry_Int_Tables_number   1
_chemical_formula_structural   Na5Co2P(CO4)4
_chemical_formula_sum   'Na10 Co4 P2 C8 O32'
_cell_volume   690.99714603
_cell_formula_units_Z   2
loop_
 _symmetry_equiv_pos_site_id
 _symmetry_equiv_pos_as_xyz
  1  'x, y, z'
loop_
 _atom_site_type_symbol
 _atom_site_label
 _atom_site_symmetry_multiplicity
 _atom_site_fract_x
 _atom_site_fract_y
 _atom_site_fract_z
 _atom_site_occupancy
  Na  Na0  1  0.67399700  0.32424300  0.09434800  1
  Na  Na1  1  0.34806000  0.26671500  0.32707900  1
  Na  Na2  1  0.90565200  0.82424300  0.32600300  1
  Na  Na3  1  0.90620600  0.23328500  0.91865500  1
  Na  Na4  1  0.08134500  0.73328500  0.09379400  1
  Na  Na5  1  0.08141000  0.17575700  0.65024500  1
  Na  Na6  1  0.67292100  0.76671500  0.65194000  1
  Na  Na7  1  0.33797500  0.25000000  0.91202500  1
  Na  Na8  1  0.34975500  0.67575700  0.91859000  1
  Na  Na9  1  0.08797500  0.75000000  0.66202500  1
  Co  Co0  1  0.49995200  0.99648100  0.00322300  1
  Co  Co1  1  0.50347200  0.00351900  0.49970300  1
  Co  Co2  1  0.50029700  0.50351900  0.49652800  1
  Co  Co3  1  0.99677700  0.49648100  0.50004800  1
  P  P0  1  0.12932000  0.25000000  0.12068000  1
  P  P1  1  0.87932000  0.75000000  0.87068000  1
  C  C0  1  0.71370900  0.07048800  0.71688000  1
  C  C1  1  0.71263200  0.42951200  0.35677900  1
  C  C2  1  0.35068100  0.06683500  0.71637600  1
  C  C3  1  0.71678800  0.43316500  0.71615500  1
  C  C4  1  0.64322100  0.92951200  0.28736800  1
  C  C5  1  0.28312000  0.57048800  0.28629100  1
  C  C6  1  0.28384500  0.93316500  0.28321200  1
  C  C7  1  0.28362400  0.56683500  0.64931900  1
  O  O0  1  0.65020900  0.05029200  0.14184500  1
  O  O1  1  0.85807300  0.20750300  0.60689600  1
  O  O2  1  0.68560100  0.29249700  0.34943000  1
  O  O3  1  0.39963100  0.05219300  0.30733700  1
  O  O4  1  0.85815500  0.55029200  0.34979100  1
  O  O5  1  0.32071700  0.37829000  0.05858500  1
  O  O6  1  0.06312600  0.12171000  0.05757300  1
  O  O7  1  0.59761800  0.45362200  0.36345400  1
  O  O8  1  0.68292400  0.04637800  0.85600500  1
  O  O9  1  0.35016800  0.04036700  0.60074100  1
  O  O10  1  0.85889200  0.45963300  0.69019900  1
  O  O11  1  0.06646800  0.37930600  0.05605600  1
  O  O12  1  0.06463800  0.12069400  0.31283700  1
  O  O13  1  0.65057000  0.79249700  0.31439900  1
  O  O14  1  0.39310400  0.70750300  0.14192700  1
  O  O15  1  0.69266300  0.55219300  0.60036900  1
  O  O16  1  0.30786300  0.44970800  0.40008200  1
  O  O17  1  0.34641100  0.20585800  0.69120600  1
  O  O18  1  0.60293600  0.29414200  0.85944700  1
  O  O19  1  0.94242700  0.62171000  0.93687400  1
  O  O20  1  0.94141500  0.87829000  0.67928300  1
  O  O21  1  0.14399500  0.54637800  0.31707600  1
  O  O22  1  0.63654600  0.95362200  0.40238200  1
  O  O23  1  0.30980100  0.95963300  0.14110800  1
  O  O24  1  0.39925900  0.54036700  0.64983200  1
  O  O25  1  0.94394400  0.87930600  0.93353200  1
  O  O26  1  0.68716300  0.62069400  0.93536200  1
  O  O27  1  0.14047000  0.44780700  0.65256100  1
  O  O28  1  0.59991800  0.94970800  0.69213700  1
  O  O29  1  0.30879400  0.70585800  0.65358900  1
  O  O30  1  0.14055300  0.79414200  0.39706400  1
  O  O31  1  0.34743900  0.94780700  0.85953000  1
loop_
_geom_bond_atom_site_label_1
_geom_bond_atom_site_label_2
_geom_bond_distance
_geom_bond_site_symmetry_2
Na0 O0 2.396820 1_555
Na0 O19 2.396999 1_554
Na0 O2 2.401935 1_555
Na0 O26 2.470136 1_554
Na0 O3 2.472864 1_555
Na0 O18 2.550106 1_554
Na1 O5 2.393076 1_555
Na1 O7 2.395225 1_555
Na1 O16 2.464826 1_555
Na1 O12 2.476236 1_555
Na1 O9 2.514183 1_555
Na1 O3 2.526337 1_555
Na2 O4 2.396820 1_555
Na2 O6 2.396999 1_665
Na2 O13 2.401935 1_555
Na2 O12 2.470136 1_665
Na2 O15 2.472864 1_555
Na2 O30 2.550106 1_655
Na3 O6 2.393085 1_656
Na3 O8 2.395218 1_555
Na3 O0 2.464833 1_556
Na3 O11 2.476233 1_656
Na3 O10 2.514183 1_555
Na3 O27 2.526343 1_655
Na4 O19 2.393085 1_454
Na4 O21 2.395218 1_555
Na4 O4 2.464833 1_455
Na4 O25 2.476233 1_454
Na4 O23 2.514183 1_555
Na4 O31 2.526343 1_554
Na5 O16 2.396816 1_555
Na5 O20 2.396993 1_445
Na5 O1 2.401944 1_455
Na5 O25 2.470146 1_445
Na5 O27 2.472868 1_555
Na5 O17 2.550099 1_555
Na6 O20 2.393076 1_555
Na6 O22 2.395225 1_555
Na6 O28 2.464826 1_555
Na6 O26 2.476236 1_555
Na6 O24 2.514183 1_555
Na6 O15 2.526337 1_555
Na7 O6 2.426717 1_556
Na7 O5 2.426725 1_556
Na7 O17 2.457563 1_555
Na7 O18 2.457563 1_555
Na7 O24 2.478564 1_555
Na7 O23 2.478564 1_546
Na8 O28 2.396816 1_555
Na8 O5 2.396993 1_556
Na8 O14 2.401944 1_556
Na8 O11 2.470146 1_556
Na8 O31 2.472868 1_555
Na8 O29 2.550099 1_555
Na9 O19 2.426717 1_455
Na9 O20 2.426725 1_455
Na9 O30 2.457563 1_555
Na9 O29 2.457563 1_555
Na9 O9 2.478564 1_565
Na9 O10 2.478564 1_455
Co0 O8 2.028297 1_564
Co0 O14 2.054130 1_555
Co0 O0 2.076235 1_565
Co0 O23 2.107431 1_555
Co0 O31 2.117816 1_554
Co0 O18 2.129567 1_564
Co1 O22 2.028289 1_545
Co1 O2 2.054128 1_555
Co1 O28 2.076242 1_545
Co1 O9 2.107445 1_555
Co1 O3 2.117820 1_555
Co1 O29 2.129570 1_545
Co2 O7 2.028289 1_555
Co2 O13 2.054128 1_555
Co2 O16 2.076242 1_555
Co2 O24 2.107445 1_555
Co2 O15 2.117820 1_555
Co2 O17 2.129570 1_555
Co3 O21 2.028297 1_655
Co3 O1 2.054130 1_555
Co3 O4 2.076235 1_555
Co3 O10 2.107431 1_555
Co3 O27 2.117816 1_655
Co3 O30 2.129567 1_655
C0 O1 1.289438 1_555
C0 O8 1.290602 1_555
C0 O28 1.304112 1_545
C1 O2 1.289438 1_555
C1 O7 1.290592 1_555
C1 O4 1.304116 1_555
C2 O17 1.297532 1_555
C2 O31 1.298485 1_545
C2 O9 1.302557 1_555
C3 O18 1.297523 1_555
C3 O15 1.298478 1_555
C3 O10 1.302568 1_555
C4 O13 1.289438 1_555
C4 O22 1.290592 1_555
C4 O0 1.304116 1_565
C5 O14 1.289438 1_555
C5 O21 1.290602 1_555
C5 O16 1.304112 1_555
C6 O30 1.297523 1_555
C6 O3 1.298478 1_565
C6 O23 1.302568 1_555
C7 O29 1.297532 1_555
C7 O27 1.298485 1_555
C7 O24 1.302557 1_555
O5 P0 1.550758 1_555
O6 P0 1.550758 1_555
O11 P0 1.556978 1_555
O12 P0 1.556970 1_555
O19 P1 1.550758 1_555
O20 P1 1.550758 1_555
O25 P1 1.556978 1_555
O26 P1 1.556970 1_555
