# generated using pymatgen
data_Rb2ZnGeO4
_symmetry_space_group_name_H-M   'P 1'
_cell_length_a   5.79598000
_cell_length_b   11.55537500
_cell_length_c   16.39272200
_cell_angle_alpha   90.00000000
_cell_angle_beta   90.00000000
_cell_angle_gamma   90.00000000
_symmetry_Int_Tables_number   1
_chemical_formula_structural   Rb2ZnGeO4
_chemical_formula_sum   'Rb16 Zn8 Ge8 O32'
_cell_volume   1097.89800521
_cell_formula_units_Z   8
loop_
 _symmetry_equiv_pos_site_id
 _symmetry_equiv_pos_as_xyz
  1  'x, y, z'
loop_
 _atom_site_type_symbol
 _atom_site_label
 _atom_site_symmetry_multiplicity
 _atom_site_fract_x
 _atom_site_fract_y
 _atom_site_fract_z
 _atom_site_occupancy
  Rb  Rb0  1  0.96682000  0.76821100  0.62935400  1
  Rb  Rb1  1  0.03318000  0.23178900  0.12935400  1
  Rb  Rb2  1  0.03318000  0.26821100  0.62935400  1
  Rb  Rb3  1  0.96682000  0.73178900  0.12935400  1
  Rb  Rb4  1  0.98648700  0.50506700  0.75525500  1
  Rb  Rb5  1  0.01351300  0.49493300  0.25525500  1
  Rb  Rb6  1  0.01351300  0.00506700  0.75525500  1
  Rb  Rb7  1  0.98648700  0.99493300  0.25525500  1
  Rb  Rb8  1  0.46366600  0.73516800  0.99995100  1
  Rb  Rb9  1  0.53633400  0.26483200  0.49995100  1
  Rb  Rb10  1  0.53633400  0.23516800  0.99995100  1
  Rb  Rb11  1  0.46366600  0.76483200  0.49995100  1
  Rb  Rb12  1  0.49222200  0.98999000  0.87587500  1
  Rb  Rb13  1  0.50777800  0.01001000  0.37587500  1
  Rb  Rb14  1  0.50777800  0.48999000  0.87587500  1
  Rb  Rb15  1  0.49222200  0.51001000  0.37587500  1
  Zn  Zn0  1  0.98185200  0.98397000  0.00433500  1
  Zn  Zn1  1  0.01814800  0.01603000  0.50433500  1
  Zn  Zn2  1  0.01814800  0.48397000  0.00433500  1
  Zn  Zn3  1  0.98185200  0.51603000  0.50433500  1
  Zn  Zn4  1  0.48769600  0.76073400  0.75127700  1
  Zn  Zn5  1  0.51230400  0.23926600  0.25127700  1
  Zn  Zn6  1  0.51230400  0.26073400  0.75127700  1
  Zn  Zn7  1  0.48769600  0.73926600  0.25127700  1
  Ge  Ge0  1  0.47926300  0.51326800  0.62595000  1
  Ge  Ge1  1  0.52073700  0.48673200  0.12595000  1
  Ge  Ge2  1  0.52073700  0.01326800  0.62595000  1
  Ge  Ge3  1  0.47926300  0.98673200  0.12595000  1
  Ge  Ge4  1  0.98933300  0.73303100  0.88009500  1
  Ge  Ge5  1  0.01066700  0.26696900  0.38009500  1
  Ge  Ge6  1  0.01066700  0.23303100  0.88009500  1
  Ge  Ge7  1  0.98933300  0.76696900  0.38009500  1
  O  O0  1  0.41921400  0.65808600  0.65836300  1
  O  O1  1  0.58078600  0.34191400  0.15836300  1
  O  O2  1  0.58078600  0.15808600  0.65836300  1
  O  O3  1  0.41921400  0.84191400  0.15836300  1
  O  O4  1  0.74038000  0.69918100  0.82068000  1
  O  O5  1  0.25962000  0.30081900  0.32068000  1
  O  O6  1  0.25962000  0.19918100  0.82068000  1
  O  O7  1  0.74038000  0.80081900  0.32068000  1
  O  O8  1  0.90098000  0.40040900  0.41814100  1
  O  O9  1  0.09902000  0.59959100  0.91814100  1
  O  O10  1  0.09902000  0.90040900  0.41814100  1
  O  O11  1  0.90098000  0.09959100  0.91814100  1
  O  O12  1  0.77719900  0.49176100  0.60080800  1
  O  O13  1  0.22280100  0.50823900  0.10080800  1
  O  O14  1  0.22280100  0.99176100  0.60080800  1
  O  O15  1  0.77719900  0.00823900  0.10080800  1
  O  O16  1  0.79091200  0.29777900  0.81872800  1
  O  O17  1  0.20908800  0.70222100  0.31872800  1
  O  O18  1  0.20908800  0.79777900  0.81872800  1
  O  O19  1  0.79091200  0.20222100  0.31872800  1
  O  O20  1  0.69212900  0.98800400  0.53703000  1
  O  O21  1  0.30787100  0.01199600  0.03703000  1
  O  O22  1  0.30787100  0.48800400  0.53703000  1
  O  O23  1  0.69212900  0.51199600  0.03703000  1
  O  O24  1  0.91471900  0.82490300  0.96356500  1
  O  O25  1  0.08528100  0.17509700  0.46356500  1
  O  O26  1  0.08528100  0.32490300  0.96356500  1
  O  O27  1  0.91471900  0.67509700  0.46356500  1
  O  O28  1  0.59346600  0.91372400  0.70589100  1
  O  O29  1  0.40653400  0.08627600  0.20589100  1
  O  O30  1  0.40653400  0.41372400  0.70589100  1
  O  O31  1  0.59346600  0.58627600  0.20589100  1
loop_
_geom_bond_atom_site_label_1
_geom_bond_atom_site_label_2
_geom_bond_distance
_geom_bond_site_symmetry_2
Ge0 O22 1.787947 1_555
Ge0 O0 1.789919 1_555
Ge0 O12 1.792644 1_555
Ge0 O30 1.793904 1_555
Ge1 O23 1.787947 1_555
Ge1 O1 1.789919 1_555
Ge1 O13 1.792644 1_555
Ge1 O31 1.793904 1_555
Ge2 O20 1.787947 1_545
Ge2 O2 1.789919 1_555
Ge2 O14 1.792644 1_545
Ge2 O28 1.793904 1_545
Ge3 O21 1.787947 1_565
Ge3 O3 1.789919 1_555
Ge3 O15 1.792644 1_565
Ge3 O29 1.793904 1_565
Ge4 O9 1.780660 1_655
Ge4 O4 1.784281 1_555
Ge4 O24 1.785020 1_555
Ge4 O18 1.787195 1_655
Ge5 O8 1.780660 1_455
Ge5 O5 1.784281 1_555
Ge5 O25 1.785020 1_555
Ge5 O19 1.787195 1_455
Ge6 O11 1.780660 1_455
Ge6 O6 1.784281 1_555
Ge6 O26 1.785020 1_555
Ge6 O16 1.787195 1_455
Ge7 O10 1.780660 1_655
Ge7 O7 1.784281 1_555
Ge7 O27 1.785020 1_555
Ge7 O17 1.787195 1_655
O0 Zn4 1.970873 1_555
O0 Rb11 2.886394 1_555
O0 Rb0 2.953086 1_455
O1 Zn5 1.970873 1_555
O1 Rb10 2.886394 1_554
O1 Rb1 2.953086 1_655
O2 Zn6 1.970873 1_555
O2 Rb9 2.886394 1_555
O2 Rb2 2.953086 1_655
O3 Zn7 1.970873 1_555
O3 Rb8 2.886394 1_554
O3 Rb3 2.953086 1_455
O4 Zn4 1.986249 1_555
O4 Rb4 2.866403 1_555
O4 Rb14 2.911946 1_555
O5 Zn5 1.986249 1_555
O5 Rb5 2.866403 1_555
O5 Rb15 2.911946 1_555
O6 Zn6 1.986249 1_555
O6 Rb6 2.866403 1_555
O6 Rb12 2.911946 1_545
O7 Zn7 1.986249 1_555
O7 Rb7 2.866403 1_555
O7 Rb13 2.911946 1_565
O8 Zn3 2.000291 1_555
O8 Rb15 2.774330 1_555
O8 Rb9 2.952912 1_555
O8 Rb5 2.957722 1_655
O9 Zn2 2.000291 1_556
O9 Rb14 2.774330 1_555
O9 Rb8 2.952912 1_555
O9 Rb4 2.957722 1_455
O10 Zn1 2.000291 1_565
O10 Rb13 2.774330 1_565
O10 Rb11 2.952912 1_555
O10 Rb7 2.957722 1_455
O11 Zn0 2.000291 1_546
O11 Rb12 2.774330 1_545
O11 Rb10 2.952912 1_555
O11 Rb6 2.957722 1_655
O12 Zn3 1.996655 1_555
O12 Rb4 2.811606 1_555
O12 Rb2 3.015488 1_655
O13 Zn2 1.996655 1_555
O13 Rb5 2.811606 1_555
O13 Rb3 3.015488 1_455
O14 Zn1 1.996655 1_565
O14 Rb6 2.811606 1_565
O14 Rb0 3.015488 1_455
O15 Zn0 1.996655 1_545
O15 Rb7 2.811606 1_545
O15 Rb1 3.015488 1_655
O16 Zn6 2.003354 1_555
O16 Rb4 2.846925 1_555
O16 Rb14 2.916118 1_555
O17 Zn7 2.003354 1_555
O17 Rb5 2.846925 1_555
O17 Rb15 2.916118 1_555
O18 Zn4 2.003354 1_555
O18 Rb6 2.846925 1_565
O18 Rb12 2.916118 1_555
O19 Zn5 2.003354 1_555
O19 Rb7 2.846925 1_545
O19 Rb13 2.916118 1_555
O20 Zn1 1.990658 1_665
O20 Rb13 2.860994 1_565
O20 Rb11 2.961970 1_555
O21 Zn0 1.990658 1_445
O21 Rb12 2.860994 1_544
O21 Rb10 2.961970 1_554
O22 Zn3 1.990658 1_455
O22 Rb15 2.860994 1_555
O22 Rb9 2.961970 1_555
O23 Zn2 1.990658 1_655
O23 Rb14 2.860994 1_554
O23 Rb8 2.961970 1_554
O24 Zn0 1.994142 1_556
O24 Rb8 2.874980 1_555
O24 Rb3 2.938532 1_556
O25 Zn1 1.994142 1_555
O25 Rb9 2.874980 1_555
O25 Rb2 2.938532 1_555
O26 Zn2 1.994142 1_556
O26 Rb10 2.874980 1_555
O26 Rb1 2.938532 1_556
O27 Zn3 1.994142 1_555
O27 Rb11 2.874980 1_555
O27 Rb0 2.938532 1_555
O28 Zn4 2.013622 1_555
O28 Rb6 2.774186 1_665
O28 Rb12 2.980870 1_555
O28 Rb0 3.013990 1_555
O29 Zn5 2.013622 1_555
O29 Rb7 2.774186 1_445
O29 Rb13 2.980870 1_555
O29 Rb1 3.013990 1_555
O30 Zn6 2.013622 1_555
O30 Rb4 2.774186 1_455
O30 Rb14 2.980870 1_555
O30 Rb2 3.013990 1_555
O31 Zn7 2.013622 1_555
O31 Rb5 2.774186 1_655
O31 Rb15 2.980870 1_555
O31 Rb3 3.013990 1_555
