# generated using pymatgen
data_Nd(SiP3)2
_symmetry_space_group_name_H-M   'P 1'
_cell_length_a   14.93003606
_cell_length_b   14.93003606
_cell_length_c   10.36067800
_cell_angle_alpha   90.00000000
_cell_angle_beta   90.00000000
_cell_angle_gamma   140.13763909
_symmetry_Int_Tables_number   1
_chemical_formula_structural   Nd(SiP3)2
_chemical_formula_sum   'Nd8 Si16 P48'
_cell_volume   1480.23615545
_cell_formula_units_Z   8
loop_
 _symmetry_equiv_pos_site_id
 _symmetry_equiv_pos_as_xyz
  1  'x, y, z'
loop_
 _atom_site_type_symbol
 _atom_site_label
 _atom_site_symmetry_multiplicity
 _atom_site_fract_x
 _atom_site_fract_y
 _atom_site_fract_z
 _atom_site_occupancy
  Nd  Nd0  1  0.31076000  0.68924000  0.24093000  1
  Nd  Nd1  1  0.68924000  0.31076000  0.74093000  1
  Nd  Nd2  1  0.58049000  0.41951000  0.14793600  1
  Nd  Nd3  1  0.41951000  0.58049000  0.64793600  1
  Nd  Nd4  1  0.76599600  0.23400400  0.26206300  1
  Nd  Nd5  1  0.23400400  0.76599600  0.76206300  1
  Nd  Nd6  1  0.95964800  0.04035200  0.72322800  1
  Nd  Nd7  1  0.04035200  0.95964800  0.22322800  1
  Si  Si0  1  0.98777500  0.65754100  0.36460300  1
  Si  Si1  1  0.01222500  0.34245900  0.86460300  1
  Si  Si2  1  0.65754100  0.98777500  0.86460300  1
  Si  Si3  1  0.34245900  0.01222500  0.36460300  1
  Si  Si4  1  0.00685700  0.65001700  0.03177500  1
  Si  Si5  1  0.99314300  0.34998300  0.53177500  1
  Si  Si6  1  0.65001700  0.00685700  0.53177500  1
  Si  Si7  1  0.34998300  0.99314300  0.03177500  1
  Si  Si8  1  0.07970700  0.24091300  0.32374600  1
  Si  Si9  1  0.92029300  0.75908700  0.82374600  1
  Si  Si10  1  0.24091300  0.07970700  0.82374600  1
  Si  Si11  1  0.75908700  0.92029300  0.32374600  1
  Si  Si12  1  0.26328200  0.39620900  0.00481000  1
  Si  Si13  1  0.73671800  0.60379100  0.50481000  1
  Si  Si14  1  0.39620900  0.26328200  0.50481000  1
  Si  Si15  1  0.60379100  0.73671800  0.00481000  1
  P  P0  1  0.03572000  0.54952200  0.33380000  1
  P  P1  1  0.96428000  0.45047800  0.83380000  1
  P  P2  1  0.54952200  0.03572000  0.83380000  1
  P  P3  1  0.45047800  0.96428000  0.33380000  1
  P  P4  1  0.79997600  0.50666600  0.50086200  1
  P  P5  1  0.20002400  0.49333400  0.00086200  1
  P  P6  1  0.50666600  0.79997600  0.00086200  1
  P  P7  1  0.49333400  0.20002400  0.50086200  1
  P  P8  1  0.84347800  0.15652200  0.99991900  1
  P  P9  1  0.15652200  0.84347800  0.49991900  1
  P  P10  1  0.95849100  0.04150900  0.42580600  1
  P  P11  1  0.04150900  0.95849100  0.92580600  1
  P  P12  1  0.89703300  0.43051400  0.03460200  1
  P  P13  1  0.10296700  0.56948600  0.53460200  1
  P  P14  1  0.43051400  0.89703300  0.53460200  1
  P  P15  1  0.56948600  0.10296700  0.03460200  1
  P  P16  1  0.10632800  0.19865900  0.12439200  1
  P  P17  1  0.89367200  0.80134100  0.62439200  1
  P  P18  1  0.19865900  0.10632800  0.62439200  1
  P  P19  1  0.80134100  0.89367200  0.12439200  1
  P  P20  1  0.42429900  0.57570100  0.28422900  1
  P  P21  1  0.57570100  0.42429900  0.78422900  1
  P  P22  1  0.77205100  0.22794900  0.54692400  1
  P  P23  1  0.22794900  0.77205100  0.04692400  1
  P  P24  1  0.46963400  0.53036600  0.10884200  1
  P  P25  1  0.53036600  0.46963400  0.60884200  1
  P  P26  1  0.91500500  0.67276400  0.18314900  1
  P  P27  1  0.08499500  0.32723600  0.68314900  1
  P  P28  1  0.67276400  0.91500500  0.68314900  1
  P  P29  1  0.32723600  0.08499500  0.18314900  1
  P  P30  1  0.29856100  0.38348600  0.40024600  1
  P  P31  1  0.70143900  0.61651400  0.90024600  1
  P  P32  1  0.38348600  0.29856100  0.90024600  1
  P  P33  1  0.61651400  0.70143900  0.40024600  1
  P  P34  1  0.65483800  0.34516200  0.35143000  1
  P  P35  1  0.34516200  0.65483800  0.85143000  1
  P  P36  1  0.92268500  0.07731500  0.99934000  1
  P  P37  1  0.07731500  0.92268500  0.49934000  1
  P  P38  1  0.68112600  0.31887400  0.02142200  1
  P  P39  1  0.31887400  0.68112600  0.52142200  1
  P  P40  1  0.73004400  0.67090400  0.31566400  1
  P  P41  1  0.26995600  0.32909600  0.81566400  1
  P  P42  1  0.67090400  0.73004400  0.81566400  1
  P  P43  1  0.32909600  0.26995600  0.31566400  1
  P  P44  1  0.04635500  0.36136000  0.32200300  1
  P  P45  1  0.95364500  0.63864000  0.82200300  1
  P  P46  1  0.36136000  0.04635500  0.82200300  1
  P  P47  1  0.63864000  0.95364500  0.32200300  1
loop_
_geom_bond_atom_site_label_1
_geom_bond_atom_site_label_2
_geom_bond_distance
_geom_bond_site_symmetry_2
Nd0 P39 2.915000 1_555
Nd0 P3 2.998220 1_555
Nd0 P0 2.998220 1_555
Nd0 P23 3.073133 1_555
Nd0 P5 3.170363 1_555
Nd0 P6 3.170363 1_555
Nd0 P20 3.218630 1_555
Nd0 P44 3.253640 1_555
Nd0 P47 3.253640 1_555
Nd1 P38 2.915000 1_556
Nd1 P1 2.998220 1_555
Nd1 P2 2.998220 1_555
Nd1 P22 3.073133 1_555
Nd1 P7 3.170363 1_555
Nd1 P4 3.170363 1_555
Nd1 P21 3.218630 1_555
Nd1 P45 3.253640 1_555
Nd1 P46 3.253640 1_555
Nd2 P34 2.966633 1_555
Nd2 P43 3.037637 1_555
Nd2 P40 3.037637 1_555
Nd2 P38 3.114287 1_555
Nd2 P24 3.138147 1_555
Nd2 P32 3.216172 1_554
Nd2 P31 3.216172 1_554
Nd2 P26 3.222238 1_555
Nd2 P29 3.222238 1_555
Nd3 P35 2.966633 1_555
Nd3 P41 3.037637 1_555
Nd3 P42 3.037637 1_555
Nd3 P39 3.114287 1_555
Nd3 P25 3.138147 1_555
Nd3 P30 3.216172 1_555
Nd3 P33 3.216172 1_555
Nd3 P28 3.222238 1_555
Nd3 P27 3.222238 1_555
Nd4 P22 2.956244 1_555
Nd4 P12 3.029418 1_555
Nd4 P15 3.029418 1_555
Nd4 P44 3.050149 1_655
Nd4 P47 3.050149 1_545
Nd4 P0 3.136495 1_655
Nd4 P3 3.136495 1_545
Nd4 P34 3.254849 1_555
Nd4 P8 3.479568 1_554
Nd5 P23 2.956244 1_556
Nd5 P14 3.029418 1_555
Nd5 P13 3.029418 1_555
Nd5 P46 3.050149 1_565
Nd5 P45 3.050149 1_455
Nd5 P2 3.136495 1_565
Nd5 P1 3.136495 1_455
Nd5 P35 3.254849 1_555
Nd5 P9 3.479568 1_555
Nd6 P36 3.043071 1_555
Nd6 P17 3.058842 1_545
Nd6 P18 3.058842 1_655
Nd6 P10 3.081665 1_555
Nd6 P11 3.112200 1_645
Nd6 P27 3.116874 1_655
Nd6 P28 3.116874 1_545
Nd6 P41 3.210063 1_655
Nd6 P42 3.210063 1_545
Nd7 P37 3.043071 1_555
Nd7 P19 3.058842 1_455
Nd7 P16 3.058842 1_565
Nd7 P11 3.081665 1_554
Nd7 P10 3.112200 1_465
Nd7 P29 3.116874 1_565
Nd7 P26 3.116874 1_455
Nd7 P43 3.210063 1_565
Nd7 P40 3.210063 1_455
P0 P13 2.228385 1_555
P0 Si0 2.233244 1_455
P1 P12 2.228385 1_556
P1 Si1 2.233244 1_655
P2 Si2 2.233244 1_545
P3 Si3 2.233244 1_565
P4 Si13 2.258059 1_555
P4 Si0 2.287506 1_555
P5 Si12 2.258059 1_555
P5 Si1 2.287506 1_554
P6 Si15 2.258059 1_555
P6 Si2 2.287506 1_554
P7 Si14 2.258059 1_555
P7 Si3 2.287506 1_555
P8 Si1 2.298339 1_655
P8 Si2 2.298339 1_545
P9 Si3 2.298339 1_565
P9 Si0 2.298339 1_455
P10 Si11 2.232766 1_545
P10 Si8 2.232766 1_655
P11 Si9 2.232766 1_455
P11 Si10 2.232766 1_565
P12 P38 2.222490 1_555
P12 Si4 2.275975 1_655
P13 P39 2.222490 1_555
P13 Si5 2.275975 1_455
P14 P39 2.222490 1_555
P14 P3 2.228385 1_555
P14 Si6 2.275975 1_565
P15 P38 2.222490 1_555
P15 P2 2.228385 1_554
P15 Si7 2.275975 1_545
P16 P36 2.202880 1_454
P16 Si12 2.261637 1_555
P16 Si8 2.281867 1_555
P17 P37 2.202880 1_655
P17 Si13 2.261637 1_555
P17 Si9 2.281867 1_555
P18 P37 2.202880 1_545
P18 Si14 2.261637 1_555
P18 Si10 2.281867 1_555
P19 P36 2.202880 1_564
P19 Si15 2.261637 1_555
P19 Si11 2.281867 1_555
P20 P24 2.218451 1_555
P20 P30 2.221282 1_555
P20 P33 2.221282 1_555
P21 P25 2.218451 1_555
P21 P32 2.221282 1_555
P21 P31 2.221282 1_555
P22 Si6 2.237732 1_555
P22 Si5 2.237732 1_555
P23 Si4 2.237732 1_555
P23 Si7 2.237732 1_555
P24 Si15 2.278580 1_555
P24 Si12 2.278580 1_555
P25 Si13 2.278580 1_555
P25 Si14 2.278580 1_555
P26 Si0 2.268365 1_555
P26 Si4 2.273897 1_655
P27 Si1 2.268365 1_555
P27 Si5 2.273897 1_455
P28 Si2 2.268365 1_555
P28 Si6 2.273897 1_565
P29 Si3 2.268365 1_555
P29 Si7 2.273897 1_545
P30 P43 2.243906 1_555
P30 Si8 2.271176 1_555
P31 P42 2.243906 1_555
P31 Si9 2.271176 1_555
P32 P41 2.243906 1_555
P32 Si10 2.271176 1_555
P33 P40 2.243906 1_555
P33 Si11 2.271176 1_555
P34 P7 2.210294 1_555
P34 P4 2.210294 1_555
P35 P5 2.210294 1_556
P35 P6 2.210294 1_556
P36 P8 2.223470 1_555
P37 P9 2.223470 1_555
P40 Si13 2.237757 1_555
P41 Si12 2.237757 1_556
P42 Si15 2.237757 1_556
P43 Si14 2.237757 1_555
P44 Si8 2.203803 1_555
P44 Si5 2.275177 1_455
P45 Si9 2.203803 1_555
P45 Si4 2.275177 1_656
P46 Si10 2.203803 1_555
P46 Si7 2.275177 1_546
P47 Si11 2.203803 1_555
P47 Si6 2.275177 1_565
