# generated using pymatgen
data_Al11(PO4)12
_symmetry_space_group_name_H-M   'P 1'
_cell_length_a   16.44286953
_cell_length_b   16.44280306
_cell_length_c   16.44280304
_cell_angle_alpha   51.28121641
_cell_angle_beta   51.28093072
_cell_angle_gamma   51.28093095
_symmetry_Int_Tables_number   1
_chemical_formula_structural   Al11(PO4)12
_chemical_formula_sum   'Al22 P24 O96'
_cell_volume   2497.85864456
_cell_formula_units_Z   2
loop_
 _symmetry_equiv_pos_site_id
 _symmetry_equiv_pos_as_xyz
  1  'x, y, z'
loop_
 _atom_site_type_symbol
 _atom_site_label
 _atom_site_symmetry_multiplicity
 _atom_site_fract_x
 _atom_site_fract_y
 _atom_site_fract_z
 _atom_site_occupancy
  Al  Al0  1  0.74996147  0.12349441  0.37654689  1
  Al  Al1  1  0.12349464  0.37654671  0.74996119  1
  Al  Al2  1  0.37654609  0.74996158  0.12349495  1
  Al  Al3  1  0.24996147  0.87654689  0.62349441  1
  Al  Al4  1  0.87654609  0.62349495  0.24996158  1
  Al  Al5  1  0.62349464  0.24996119  0.87654671  1
  Al  Al6  1  0.80514644  0.46578944  0.13612844  1
  Al  Al7  1  0.46578763  0.13612797  0.80514729  1
  Al  Al8  1  0.13612906  0.80514499  0.46578839  1
  Al  Al9  1  0.30514644  0.63612844  0.96578944  1
  Al  Al10  1  0.63612906  0.96578839  0.30514499  1
  Al  Al11  1  0.96578763  0.30514729  0.63612797  1
  Al  Al12  1  0.19480583  0.53426559  0.86386620  1
  Al  Al13  1  0.53426551  0.86386560  0.19480551  1
  Al  Al14  1  0.86386583  0.19480736  0.53426470  1
  Al  Al15  1  0.69480583  0.36386620  0.03426559  1
  Al  Al16  1  0.36386583  0.03426470  0.69480736  1
  Al  Al17  1  0.03426551  0.69480551  0.36386560  1
  Al  Al18  1  0.11406114  0.11408521  0.11409075  1
  Al  Al19  1  0.61406114  0.61409075  0.61408521  1
  Al  Al20  1  0.88592655  0.88590209  0.88589542  1
  Al  Al21  1  0.38592655  0.38589542  0.38590209  1
  P  P0  1  0.90326067  0.23877140  0.29660988  1
  P  P1  1  0.23876685  0.29660332  0.90327098  1
  P  P2  1  0.29660278  0.90326887  0.23876710  1
  P  P3  1  0.40326067  0.79660988  0.73877140  1
  P  P4  1  0.79660278  0.73876710  0.40326887  1
  P  P5  1  0.73876685  0.40327098  0.79660332  1
  P  P6  1  0.09664186  0.76126086  0.70351901  1
  P  P7  1  0.76126033  0.70350760  0.09665042  1
  P  P8  1  0.70352670  0.09663331  0.76126437  1
  P  P9  1  0.59664186  0.20351901  0.26126086  1
  P  P10  1  0.20352670  0.26126437  0.59663331  1
  P  P11  1  0.26126033  0.59665042  0.20350760  1
  P  P12  1  0.93322749  0.32898438  0.98579893  1
  P  P13  1  0.32897777  0.98580077  0.93323337  1
  P  P14  1  0.98579592  0.93323014  0.32898583  1
  P  P15  1  0.43322749  0.48579893  0.82898438  1
  P  P16  1  0.48579592  0.82898583  0.43323014  1
  P  P17  1  0.82897777  0.43323337  0.48580077  1
  P  P18  1  0.06669609  0.67113077  0.01412459  1
  P  P19  1  0.67114741  0.01411615  0.06668433  1
  P  P20  1  0.01412118  0.06668322  0.67114360  1
  P  P21  1  0.56669609  0.51412459  0.17113077  1
  P  P22  1  0.51412118  0.17114360  0.56668322  1
  P  P23  1  0.17114741  0.56668433  0.51411615  1
  O  O0  1  0.81396354  0.20893832  0.32483336  1
  O  O1  1  0.20893681  0.32483247  0.81396330  1
  O  O2  1  0.32483275  0.81396498  0.20893631  1
  O  O3  1  0.31396354  0.82483336  0.70893832  1
  O  O4  1  0.82483275  0.70893631  0.31396498  1
  O  O5  1  0.70893681  0.31396330  0.82483247  1
  O  O6  1  0.18602561  0.79107350  0.67515941  1
  O  O7  1  0.79107400  0.67516165  0.18602387  1
  O  O8  1  0.67515776  0.18602694  0.79107655  1
  O  O9  1  0.68602561  0.17515941  0.29107350  1
  O  O10  1  0.17515776  0.29107655  0.68602694  1
  O  O11  1  0.29107400  0.68602387  0.17516165  1
  O  O12  1  0.86036559  0.36927863  0.24276961  1
  O  O13  1  0.36927639  0.24276523  0.86037107  1
  O  O14  1  0.24276782  0.86036891  0.36927600  1
  O  O15  1  0.36036559  0.74276961  0.86927863  1
  O  O16  1  0.74276782  0.86927600  0.36036891  1
  O  O17  1  0.86927639  0.36037107  0.74276523  1
  O  O18  1  0.13966780  0.63077214  0.75716858  1
  O  O19  1  0.63077570  0.75717275  0.13966324  1
  O  O20  1  0.75717032  0.13966751  0.63077281  1
  O  O21  1  0.63966780  0.25716858  0.13077214  1
  O  O22  1  0.25717032  0.13077281  0.63966751  1
  O  O23  1  0.13077570  0.63966324  0.25717275  1
  O  O24  1  0.01863412  0.18805615  0.21504175  1
  O  O25  1  0.18804910  0.21503968  0.01863902  1
  O  O26  1  0.21503821  0.01863710  0.18804973  1
  O  O27  1  0.51863412  0.71504175  0.68805615  1
  O  O28  1  0.71503821  0.68804973  0.51863710  1
  O  O29  1  0.68804910  0.51863902  0.71503968  1
  O  O30  1  0.98146042  0.81188046  0.78493108  1
  O  O31  1  0.81189747  0.78494666  0.98143640  1
  O  O32  1  0.78493384  0.98145896  0.81188773  1
  O  O33  1  0.48146042  0.28493108  0.31188046  1
  O  O34  1  0.28493384  0.31188773  0.48145896  1
  O  O35  1  0.31189747  0.48143640  0.28494666  1
  O  O36  1  0.91520973  0.19480157  0.40429950  1
  O  O37  1  0.19480232  0.40429591  0.91521096  1
  O  O38  1  0.40429739  0.91521177  0.19480133  1
  O  O39  1  0.41520973  0.90429950  0.69480157  1
  O  O40  1  0.90429739  0.69480133  0.41521177  1
  O  O41  1  0.69480232  0.41521096  0.90429591  1
  O  O42  1  0.08480350  0.80518977  0.59570674  1
  O  O43  1  0.80518965  0.59571102  0.08480136  1
  O  O44  1  0.59570759  0.08480153  0.80519117  1
  O  O45  1  0.58480350  0.09570674  0.30518977  1
  O  O46  1  0.09570759  0.30519117  0.58480153  1
  O  O47  1  0.30518965  0.58480136  0.09571102  1
  O  O48  1  0.89120952  0.41464559  0.02908495  1
  O  O49  1  0.41464578  0.02908694  0.89120800  1
  O  O50  1  0.02908549  0.89120735  0.41464641  1
  O  O51  1  0.39120952  0.52908495  0.91464559  1
  O  O52  1  0.52908549  0.91464641  0.39120735  1
  O  O53  1  0.91464578  0.39120800  0.52908694  1
  O  O54  1  0.10879725  0.58537060  0.97092889  1
  O  O55  1  0.58537149  0.97092892  0.10879631  1
  O  O56  1  0.97092761  0.10879811  0.58536932  1
  O  O57  1  0.60879725  0.47092889  0.08537060  1
  O  O58  1  0.47092761  0.08536932  0.60879811  1
  O  O59  1  0.08537149  0.60879631  0.47092892  1
  O  O60  1  0.01542788  0.21355988  0.03624972  1
  O  O61  1  0.21355626  0.03625547  0.01543284  1
  O  O62  1  0.03624950  0.01542968  0.21355828  1
  O  O63  1  0.51542788  0.53624972  0.71355988  1
  O  O64  1  0.53624950  0.71355828  0.51542968  1
  O  O65  1  0.71355626  0.51543284  0.53625547  1
  O  O66  1  0.98460709  0.78639197  0.96377398  1
  O  O67  1  0.78638519  0.96377313  0.98460952  1
  O  O68  1  0.96378083  0.98461348  0.78637998  1
  O  O69  1  0.48460709  0.46377398  0.28639197  1
  O  O70  1  0.46378083  0.28637998  0.48461348  1
  O  O71  1  0.28638519  0.48460952  0.46377313  1
  O  O72  1  0.98952923  0.37986776  0.85622336  1
  O  O73  1  0.37986435  0.85622714  0.98953024  1
  O  O74  1  0.85622510  0.98952763  0.37986828  1
  O  O75  1  0.48952923  0.35622336  0.87986776  1
  O  O76  1  0.35622510  0.87986828  0.48952763  1
  O  O77  1  0.87986435  0.48953024  0.35622714  1
  O  O78  1  0.01052488  0.62012199  0.14375078  1
  O  O79  1  0.62012524  0.14374920  0.01052229  1
  O  O80  1  0.14375106  0.01052710  0.62012116  1
  O  O81  1  0.51052488  0.64375078  0.12012199  1
  O  O82  1  0.64375106  0.12012116  0.51052710  1
  O  O83  1  0.12012524  0.51052229  0.64374920  1
  O  O84  1  0.83258069  0.31333790  0.01752625  1
  O  O85  1  0.31333544  0.01752777  0.83258196  1
  O  O86  1  0.01752705  0.83257872  0.31333883  1
  O  O87  1  0.33258069  0.51752625  0.81333790  1
  O  O88  1  0.51752705  0.81333883  0.33257872  1
  O  O89  1  0.81333544  0.33258196  0.51752777  1
  O  O90  1  0.16742313  0.68665264  0.98246555  1
  O  O91  1  0.68665247  0.98246490  0.16742176  1
  O  O92  1  0.98246483  0.16742819  0.68665092  1
  O  O93  1  0.66742313  0.48246555  0.18665264  1
  O  O94  1  0.48246483  0.18665092  0.66742819  1
  O  O95  1  0.18665247  0.66742176  0.48246490  1
loop_
_geom_bond_atom_site_label_1
_geom_bond_atom_site_label_2
_geom_bond_distance
_geom_bond_site_symmetry_2
Al0 O9 1.743446 1_555
Al0 O0 1.743579 1_555
Al0 O82 1.749722 1_555
Al0 O74 1.749900 1_545
Al1 O10 1.743380 1_555
Al1 O1 1.743551 1_555
Al1 O83 1.749696 1_555
Al1 O72 1.749885 1_455
Al2 O11 1.743442 1_555
Al2 O2 1.743551 1_555
Al2 O81 1.749713 1_555
Al2 O73 1.749900 1_554
Al3 O6 1.743446 1_555
Al3 O3 1.743579 1_555
Al3 O80 1.749722 1_565
Al3 O76 1.749900 1_555
Al4 O7 1.743442 1_555
Al4 O4 1.743551 1_555
Al4 O78 1.749713 1_655
Al4 O77 1.749900 1_555
Al5 O8 1.743380 1_555
Al5 O5 1.743551 1_555
Al5 O79 1.749696 1_556
Al5 O75 1.749885 1_555
Al6 O43 1.738283 1_555
Al6 O93 1.745922 1_555
Al6 O48 1.747761 1_555
Al6 O12 1.767916 1_555
Al7 O44 1.738270 1_555
Al7 O94 1.745854 1_555
Al7 O49 1.747725 1_555
Al7 O13 1.767899 1_555
Al8 O42 1.738248 1_555
Al8 O95 1.745914 1_555
Al8 O50 1.747757 1_555
Al8 O14 1.767930 1_555
Al9 O47 1.738283 1_556
Al9 O90 1.745922 1_555
Al9 O51 1.747761 1_555
Al9 O15 1.767916 1_555
Al10 O45 1.738248 1_565
Al10 O91 1.745914 1_555
Al10 O52 1.747757 1_555
Al10 O16 1.767930 1_555
Al11 O46 1.738270 1_655
Al11 O92 1.745854 1_555
Al11 O53 1.747725 1_555
Al11 O17 1.767899 1_555
Al12 O37 1.738629 1_555
Al12 O87 1.746299 1_555
Al12 O54 1.747737 1_555
Al12 O18 1.767853 1_555
Al13 O38 1.738607 1_555
Al13 O88 1.746282 1_555
Al13 O55 1.747765 1_555
Al13 O19 1.767820 1_555
Al14 O36 1.738577 1_555
Al14 O89 1.746294 1_555
Al14 O56 1.747732 1_555
Al14 O20 1.767844 1_555
Al15 O41 1.738629 1_554
Al15 O84 1.746299 1_555
Al15 O57 1.747737 1_555
Al15 O21 1.767853 1_555
Al16 O39 1.738577 1_545
Al16 O85 1.746294 1_555
Al16 O58 1.747732 1_555
Al16 O22 1.767844 1_555
Al17 O40 1.738607 1_455
Al17 O86 1.746282 1_555
Al17 O59 1.747765 1_555
Al17 O23 1.767820 1_555
Al18 O24 1.891189 1_555
Al18 O26 1.891355 1_555
Al18 O25 1.891385 1_555
Al18 O62 1.898151 1_555
Al18 O60 1.898193 1_555
Al18 O61 1.898322 1_555
Al19 O27 1.891189 1_555
Al19 O28 1.891355 1_555
Al19 O29 1.891385 1_555
Al19 O64 1.898151 1_555
Al19 O63 1.898193 1_555
Al19 O65 1.898322 1_555
Al20 O31 1.891674 1_555
Al20 O30 1.891704 1_555
Al20 O32 1.891873 1_555
Al20 O66 1.899125 1_555
Al20 O68 1.899223 1_555
Al20 O67 1.899386 1_555
Al21 O35 1.891674 1_555
Al21 O33 1.891704 1_555
Al21 O34 1.891873 1_555
Al21 O69 1.899125 1_555
Al21 O70 1.899223 1_555
Al21 O71 1.899386 1_555
O0 P0 1.541341 1_555
O1 P1 1.541422 1_555
O2 P2 1.541359 1_555
O3 P3 1.541341 1_555
O4 P4 1.541359 1_555
O5 P5 1.541422 1_555
O6 P6 1.541365 1_555
O7 P7 1.541321 1_555
O8 P8 1.541431 1_555
O9 P9 1.541365 1_555
O10 P10 1.541431 1_555
O11 P11 1.541321 1_555
O12 P0 1.548299 1_555
O13 P1 1.548323 1_555
O14 P2 1.548315 1_555
O15 P3 1.548299 1_555
O16 P4 1.548315 1_555
O17 P5 1.548323 1_555
O18 P6 1.547991 1_555
O19 P7 1.547950 1_555
O20 P8 1.548018 1_555
O21 P9 1.547991 1_555
O22 P10 1.548018 1_555
O23 P11 1.547950 1_555
O24 P0 1.526500 1_455
O25 P1 1.526456 1_554
O26 P2 1.526461 1_545
O27 P3 1.526500 1_555
O28 P4 1.526461 1_555
O29 P5 1.526456 1_555
O30 P6 1.523752 1_655
O31 P7 1.524237 1_556
O32 P8 1.523702 1_565
O33 P9 1.523752 1_555
O34 P10 1.523702 1_555
O35 P11 1.524237 1_555
O36 P0 1.533868 1_555
O37 P1 1.533854 1_555
O38 P2 1.533914 1_555
O39 P3 1.533868 1_555
O40 P4 1.533914 1_555
O41 P5 1.533854 1_555
O42 P6 1.534975 1_555
O43 P7 1.534823 1_555
O44 P8 1.535036 1_555
O45 P9 1.534975 1_555
O46 P10 1.535036 1_555
O47 P11 1.534823 1_555
O48 P12 1.545760 1_554
O49 P13 1.545825 1_545
O50 P14 1.545770 1_455
O51 P15 1.545760 1_555
O52 P16 1.545770 1_555
O53 P17 1.545825 1_555
O54 P18 1.545580 1_556
O55 P19 1.545651 1_565
O56 P20 1.545683 1_655
O57 P21 1.545580 1_555
O58 P22 1.545683 1_555
O59 P23 1.545651 1_555
O60 P12 1.530038 1_454
O61 P13 1.530028 1_544
O62 P14 1.530065 1_445
O63 P15 1.530038 1_555
O64 P16 1.530065 1_555
O65 P17 1.530028 1_555
O66 P18 1.527759 1_656
O67 P19 1.527474 1_566
O68 P20 1.527422 1_665
O69 P21 1.527759 1_555
O70 P22 1.527422 1_555
O71 P23 1.527474 1_555
O72 P12 1.538797 1_555
O73 P13 1.538773 1_555
O74 P14 1.538738 1_555
O75 P15 1.538797 1_555
O76 P16 1.538738 1_555
O77 P17 1.538773 1_555
O78 P18 1.539304 1_555
O79 P19 1.539380 1_555
O80 P20 1.539337 1_555
O81 P21 1.539304 1_555
O82 P22 1.539337 1_555
O83 P23 1.539380 1_555
O84 P12 1.536811 1_554
O85 P13 1.536840 1_545
O86 P14 1.536854 1_455
O87 P15 1.536811 1_555
O88 P16 1.536854 1_555
O89 P17 1.536840 1_555
O90 P18 1.537296 1_556
O91 P19 1.537340 1_565
O92 P20 1.537442 1_655
O93 P21 1.537296 1_555
O94 P22 1.537442 1_555
O95 P23 1.537340 1_555
