# generated using pymatgen
data_Fe65(BN)6
_symmetry_space_group_name_H-M   'P 1'
_cell_length_a   8.69801996
_cell_length_b   4.83399011
_cell_length_c   29.99358285
_cell_angle_alpha   89.99694229
_cell_angle_beta   90.00427415
_cell_angle_gamma   134.24633908
_symmetry_Int_Tables_number   1
_chemical_formula_structural   Fe65(BN)6
_chemical_formula_sum   'Fe65 B6 N6'
_cell_volume   903.39495950
_cell_formula_units_Z   1
loop_
 _symmetry_equiv_pos_site_id
 _symmetry_equiv_pos_as_xyz
  1  'x, y, z'
loop_
 _atom_site_type_symbol
 _atom_site_label
 _atom_site_symmetry_multiplicity
 _atom_site_fract_x
 _atom_site_fract_y
 _atom_site_fract_z
 _atom_site_occupancy
  Fe  Fe0  1  0.22194763  0.82003963  0.00001065  1
  Fe  Fe1  1  0.22220161  0.82110256  0.13114878  1
  Fe  Fe2  1  0.02191858  0.02006738  0.00002203  1
  Fe  Fe3  1  0.02216525  0.02077231  0.13109874  1
  Fe  Fe4  1  0.42194297  0.62004594  0.00002891  1
  Fe  Fe5  1  0.42207688  0.62055719  0.13115766  1
  Fe  Fe6  1  0.62195644  0.41999136  0.00000423  1
  Fe  Fe7  1  0.62217733  0.42091745  0.13109663  1
  Fe  Fe8  1  0.82196211  0.22006442  0.00002560  1
  Fe  Fe9  1  0.82218236  0.22089457  0.13111131  1
  Fe  Fe10  1  0.52190313  0.02004444  0.06560426  1
  Fe  Fe11  1  0.52342595  0.02487919  0.19611200  1
  Fe  Fe12  1  0.32193632  0.22010959  0.06557640  1
  Fe  Fe13  1  0.32301792  0.22278388  0.19623293  1
  Fe  Fe14  1  0.72191311  0.82008623  0.06559692  1
  Fe  Fe15  1  0.72296837  0.82272918  0.19613302  1
  Fe  Fe16  1  0.92197200  0.62006595  0.06557480  1
  Fe  Fe17  1  0.92327550  0.62412752  0.19611723  1
  Fe  Fe18  1  0.12198932  0.42015778  0.06561228  1
  Fe  Fe19  1  0.12312384  0.42281819  0.19615154  1
  Fe  Fe20  1  0.22460161  0.82540240  0.26168572  1
  Fe  Fe21  1  0.02663303  0.03026210  0.26181929  1
  Fe  Fe22  1  0.42654929  0.63154842  0.26148204  1
  Fe  Fe23  1  0.62566173  0.42909523  0.26189837  1
  Fe  Fe24  1  0.82575999  0.22861578  0.26137869  1
  Fe  Fe25  1  0.52665939  0.02960779  0.32613134  1
  Fe  Fe26  1  0.32920813  0.23431430  0.32492957  1
  Fe  Fe27  1  0.73263721  0.84072937  0.32586234  1
  Fe  Fe28  1  0.92607695  0.63018833  0.32564583  1
  Fe  Fe29  1  0.12841427  0.43493978  0.32668627  1
  Fe  Fe30  1  0.22458588  0.82598816  0.60695425  1
  Fe  Fe31  1  0.02668132  0.03103670  0.60691962  1
  Fe  Fe32  1  0.42646214  0.63148513  0.60711093  1
  Fe  Fe33  1  0.62544785  0.42902268  0.60686754  1
  Fe  Fe34  1  0.82571968  0.22888678  0.60712905  1
  Fe  Fe35  1  0.52703959  0.03033213  0.54248452  1
  Fe  Fe36  1  0.32867015  0.23440573  0.54347165  1
  Fe  Fe37  1  0.73129424  0.83939901  0.54280733  1
  Fe  Fe38  1  0.92676327  0.63254827  0.54299983  1
  Fe  Fe39  1  0.12895190  0.43643819  0.54199778  1
  Fe  Fe40  1  0.22218242  0.82099922  0.73780293  1
  Fe  Fe41  1  0.22196878  0.82002995  0.86893935  1
  Fe  Fe42  1  0.02220176  0.02076924  0.73783316  1
  Fe  Fe43  1  0.02194366  0.02007967  0.86893648  1
  Fe  Fe44  1  0.42208521  0.62063228  0.73780112  1
  Fe  Fe45  1  0.42195467  0.62004078  0.86892468  1
  Fe  Fe46  1  0.62217748  0.42094043  0.73783788  1
  Fe  Fe47  1  0.62193769  0.41999012  0.86894377  1
  Fe  Fe48  1  0.82217007  0.22079959  0.73783834  1
  Fe  Fe49  1  0.82193818  0.22001365  0.86892918  1
  Fe  Fe50  1  0.52330972  0.02426869  0.67270351  1
  Fe  Fe51  1  0.52190337  0.01997509  0.80338202  1
  Fe  Fe52  1  0.32307001  0.22295340  0.67256348  1
  Fe  Fe53  1  0.32199157  0.22016575  0.80340192  1
  Fe  Fe54  1  0.72306405  0.82326932  0.67266461  1
  Fe  Fe55  1  0.72192979  0.82011810  0.80339046  1
  Fe  Fe56  1  0.92309106  0.62374885  0.67265785  1
  Fe  Fe57  1  0.92196385  0.62005797  0.80340260  1
  Fe  Fe58  1  0.12310244  0.42311452  0.67267493  1
  Fe  Fe59  1  0.12199493  0.42013367  0.80337247  1
  Fe  Fe60  1  0.52191734  0.01999734  0.93446297  1
  Fe  Fe61  1  0.32192300  0.22001533  0.93446222  1
  Fe  Fe62  1  0.72192933  0.82006049  0.93446608  1
  Fe  Fe63  1  0.92199376  0.62002907  0.93446701  1
  Fe  Fe64  1  0.12201245  0.42013667  0.93446939  1
  B  B0  1  0.47297171  0.08775397  0.43454383  1
  B  B1  1  0.47308033  0.58765880  0.43458775  1
  B  B2  1  0.80642558  0.25390794  0.43455693  1
  B  B3  1  0.80638354  0.75382175  0.43457356  1
  B  B4  1  0.13975007  0.42020331  0.43456851  1
  B  B5  1  0.13978249  0.92020111  0.43464315  1
  N  N0  1  0.25035073  0.80871025  0.43458973  1
  N  N1  1  0.25041145  0.30880950  0.43464806  1
  N  N2  1  0.58358704  0.97647965  0.43450954  1
  N  N3  1  0.58365319  0.47646864  0.43456834  1
  N  N4  1  0.91698715  0.14234861  0.43456516  1
  N  N5  1  0.91702497  0.64241629  0.43462615  1
loop_
_geom_bond_atom_site_label_1
_geom_bond_atom_site_label_2
_geom_bond_distance
_geom_bond_site_symmetry_2
Fe0 Fe64 2.451986 1_554
Fe0 Fe61 2.452219 1_564
Fe0 Fe12 2.452921 1_565
Fe0 Fe18 2.453282 1_555
Fe0 Fe4 2.511492 1_555
Fe0 Fe2 2.511916 1_565
Fe0 Fe8 2.536673 1_455
Fe0 Fe6 2.536768 1_565
Fe1 Fe19 2.436211 1_555
Fe1 Fe13 2.444180 1_565
Fe1 Fe12 2.450673 1_565
Fe1 Fe18 2.454127 1_555
Fe1 Fe3 2.510475 1_565
Fe1 Fe5 2.512804 1_555
Fe1 Fe7 2.536480 1_565
Fe1 Fe9 2.537051 1_455
Fe2 Fe64 2.452363 1_554
Fe2 Fe63 2.452689 1_444
Fe2 Fe8 2.511181 1_455
Fe2 Fe6 2.536647 1_445
Fe2 Fe4 2.536869 1_555
Fe3 Fe9 2.511927 1_455
Fe3 Fe5 2.536133 1_555
Fe3 Fe7 2.536576 1_445
Fe4 Fe60 2.452578 1_564
Fe4 Fe61 2.452787 1_554
Fe4 Fe6 2.511899 1_555
Fe4 Fe8 2.536879 1_565
Fe5 Fe7 2.510886 1_555
Fe5 Fe9 2.537598 1_565
Fe6 Fe60 2.452047 1_554
Fe6 Fe62 2.452220 1_554
Fe6 Fe8 2.511298 1_555
Fe7 Fe9 2.511695 1_555
Fe10 Fe5 2.451315 1_545
Fe10 Fe7 2.452773 1_555
Fe10 Fe4 2.453013 1_545
Fe10 Fe6 2.453252 1_555
Fe10 Fe14 2.511465 1_545
Fe10 Fe12 2.511553 1_555
Fe10 Fe18 2.536235 1_545
Fe10 Fe16 2.537130 1_555
Fe11 Fe7 2.431186 1_555
Fe11 Fe22 2.435884 1_545
Fe11 Fe5 2.447132 1_545
Fe11 Fe23 2.465273 1_555
Fe11 Fe13 2.506184 1_555
Fe11 Fe15 2.516763 1_545
Fe11 Fe17 2.535340 1_555
Fe11 Fe19 2.540143 1_545
Fe12 Fe4 2.452040 1_555
Fe12 Fe5 2.454023 1_555
Fe12 Fe18 2.511316 1_555
Fe12 Fe16 2.536628 1_445
Fe12 Fe14 2.536630 1_555
Fe13 Fe5 2.436643 1_555
Fe13 Fe20 2.445800 1_545
Fe13 Fe22 2.462206 1_555
Fe13 Fe19 2.510816 1_555
Fe13 Fe17 2.534277 1_445
Fe13 Fe15 2.536472 1_555
Fe14 Fe7 2.449345 1_555
Fe14 Fe8 2.452651 1_565
Fe14 Fe9 2.453141 1_565
Fe14 Fe6 2.453688 1_555
Fe14 Fe16 2.512135 1_555
Fe14 Fe18 2.537212 1_665
Fe15 Fe9 2.436120 1_565
Fe15 Fe7 2.443422 1_555
Fe15 Fe23 2.445486 1_555
Fe15 Fe24 2.455773 1_565
Fe15 Fe17 2.508259 1_555
Fe15 Fe19 2.537623 1_665
Fe16 Fe9 2.450146 1_555
Fe16 Fe8 2.452308 1_555
Fe16 Fe2 2.452439 1_665
Fe16 Fe3 2.453233 1_665
Fe16 Fe18 2.511317 1_655
Fe17 Fe3 2.432612 1_665
Fe17 Fe24 2.437857 1_555
Fe17 Fe9 2.445924 1_555
Fe17 Fe21 2.466401 1_665
Fe17 Fe19 2.515787 1_655
Fe18 Fe3 2.449442 1_555
Fe18 Fe2 2.453424 1_555
Fe19 Fe21 2.441730 1_555
Fe19 Fe3 2.444146 1_555
Fe19 Fe20 2.456221 1_555
Fe20 Fe26 2.413236 1_565
Fe20 Fe29 2.420680 1_555
Fe20 Fe22 2.502129 1_555
Fe20 Fe21 2.515027 1_565
Fe20 Fe24 2.528117 1_455
Fe20 Fe23 2.545412 1_565
Fe21 Fe28 2.410272 1_445
Fe21 Fe29 2.445249 1_555
Fe21 Fe24 2.511988 1_455
Fe21 Fe22 2.537537 1_555
Fe21 Fe23 2.542667 1_445
Fe22 Fe26 2.399304 1_555
Fe22 Fe25 2.425440 1_565
Fe22 Fe23 2.514475 1_555
Fe22 Fe24 2.530202 1_565
Fe23 Fe25 2.421094 1_555
Fe23 Fe27 2.433579 1_555
Fe23 Fe24 2.514440 1_555
Fe24 Fe27 2.406869 1_545
Fe24 Fe28 2.425224 1_555
Fe25 Fe26 2.510317 1_555
Fe25 Fe27 2.515207 1_545
Fe25 Fe29 2.523294 1_545
Fe25 Fe28 2.534435 1_555
Fe26 Fe29 2.521374 1_555
Fe26 Fe28 2.556203 1_445
Fe26 Fe27 2.559818 1_555
Fe27 Fe28 2.501294 1_555
Fe27 Fe29 2.510598 1_665
Fe28 Fe29 2.511406 1_655
Fe30 Fe39 2.418258 1_555
Fe30 Fe36 2.418368 1_565
Fe30 Fe52 2.448427 1_565
Fe30 Fe58 2.461386 1_555
Fe30 Fe32 2.504240 1_555
Fe30 Fe31 2.515285 1_565
Fe30 Fe34 2.528509 1_455
Fe30 Fe33 2.543818 1_565
Fe31 Fe38 2.409446 1_445
Fe31 Fe58 2.442791 1_555
Fe31 Fe39 2.447579 1_555
Fe31 Fe56 2.469842 1_445
Fe31 Fe34 2.510593 1_455
Fe31 Fe32 2.536086 1_555
Fe31 Fe33 2.544738 1_445
Fe32 Fe36 2.402716 1_555
Fe32 Fe35 2.426109 1_565
Fe32 Fe50 2.439950 1_565
Fe32 Fe52 2.466618 1_555
Fe32 Fe33 2.513437 1_555
Fe32 Fe34 2.530731 1_565
Fe33 Fe35 2.423664 1_555
Fe33 Fe37 2.434307 1_555
Fe33 Fe54 2.447375 1_555
Fe33 Fe50 2.467974 1_555
Fe33 Fe34 2.514412 1_555
Fe34 Fe37 2.404914 1_545
Fe34 Fe38 2.426181 1_555
Fe34 Fe56 2.442916 1_555
Fe34 Fe54 2.462168 1_545
Fe35 Fe37 2.509297 1_545
Fe35 Fe36 2.515235 1_555
Fe35 Fe39 2.521811 1_545
Fe35 Fe38 2.537462 1_555
Fe36 Fe39 2.518122 1_555
Fe36 Fe38 2.548000 1_445
Fe36 Fe37 2.554445 1_555
Fe37 Fe38 2.502582 1_555
Fe37 Fe39 2.522529 1_665
Fe38 Fe39 2.513754 1_655
Fe40 Fe58 2.438228 1_555
Fe40 Fe52 2.448436 1_565
Fe40 Fe53 2.451665 1_565
Fe40 Fe59 2.454694 1_555
Fe40 Fe42 2.510430 1_565
Fe40 Fe44 2.512284 1_555
Fe40 Fe46 2.536690 1_565
Fe40 Fe48 2.537009 1_455
Fe41 Fe64 2.451593 1_555
Fe41 Fe61 2.451727 1_565
Fe41 Fe53 2.452292 1_565
Fe41 Fe59 2.452519 1_555
Fe41 Fe45 2.511394 1_555
Fe41 Fe43 2.511976 1_565
Fe41 Fe47 2.536576 1_565
Fe41 Fe49 2.536934 1_455
Fe42 Fe56 2.437050 1_445
Fe42 Fe58 2.447497 1_555
Fe42 Fe59 2.450773 1_555
Fe42 Fe57 2.454202 1_445
Fe42 Fe48 2.511949 1_455
Fe42 Fe44 2.536062 1_555
Fe42 Fe46 2.536734 1_445
Fe43 Fe64 2.451961 1_555
Fe43 Fe63 2.452028 1_445
Fe43 Fe57 2.452043 1_445
Fe43 Fe59 2.452669 1_555
Fe43 Fe49 2.511326 1_455
Fe43 Fe45 2.536787 1_555
Fe43 Fe47 2.536878 1_445
Fe44 Fe52 2.440435 1_555
Fe44 Fe50 2.448896 1_565
Fe44 Fe51 2.451674 1_565
Fe44 Fe53 2.454561 1_555
Fe44 Fe46 2.511035 1_555
Fe44 Fe48 2.537341 1_565
Fe45 Fe53 2.451421 1_555
Fe45 Fe61 2.451991 1_555
Fe45 Fe60 2.452008 1_565
Fe45 Fe51 2.452017 1_565
Fe45 Fe47 2.511628 1_555
Fe45 Fe49 2.536660 1_565
Fe46 Fe50 2.435568 1_555
Fe46 Fe54 2.447838 1_555
Fe46 Fe55 2.450673 1_555
Fe46 Fe51 2.454198 1_555
Fe46 Fe48 2.512086 1_555
Fe47 Fe60 2.451484 1_555
Fe47 Fe62 2.451872 1_555
Fe47 Fe51 2.452603 1_555
Fe47 Fe55 2.452706 1_555
Fe47 Fe49 2.511462 1_555
Fe48 Fe54 2.438354 1_545
Fe48 Fe56 2.449585 1_555
Fe48 Fe57 2.451095 1_555
Fe48 Fe55 2.453704 1_545
Fe49 Fe55 2.451781 1_545
Fe49 Fe57 2.451787 1_555
Fe49 Fe62 2.451826 1_545
Fe49 Fe63 2.451993 1_555
Fe50 Fe52 2.508047 1_555
Fe50 Fe54 2.513699 1_545
Fe50 Fe56 2.535208 1_555
Fe50 Fe58 2.538845 1_545
Fe51 Fe55 2.511178 1_545
Fe51 Fe53 2.511620 1_555
Fe51 Fe59 2.536167 1_545
Fe51 Fe57 2.537144 1_555
Fe52 Fe58 2.511965 1_555
Fe52 Fe56 2.535950 1_445
Fe52 Fe54 2.537024 1_555
Fe53 Fe59 2.511394 1_555
Fe53 Fe55 2.536416 1_555
Fe53 Fe57 2.537003 1_445
Fe54 Fe56 2.509770 1_555
Fe54 Fe58 2.536819 1_665
Fe55 Fe57 2.512094 1_555
Fe55 Fe59 2.537106 1_665
Fe56 Fe58 2.514315 1_655
Fe57 Fe59 2.511499 1_655
Fe60 Fe62 2.511392 1_545
Fe60 Fe61 2.511585 1_555
Fe60 Fe64 2.536167 1_545
Fe60 Fe63 2.537177 1_555
Fe61 Fe64 2.511318 1_555
Fe61 Fe63 2.536402 1_445
Fe61 Fe62 2.536839 1_555
Fe62 Fe8 2.452523 1_566
Fe62 Fe63 2.512227 1_555
Fe62 Fe64 2.537251 1_665
Fe63 Fe8 2.452339 1_556
Fe63 Fe64 2.511262 1_655
B0 N0 1.387108 1_545
B0 N3 1.390399 1_555
B0 N2 1.391851 1_545
B1 N1 1.387410 1_555
B1 N3 1.391142 1_555
B1 N2 1.391229 1_555
B2 N2 1.388508 1_545
B2 N5 1.389714 1_555
B2 N4 1.392598 1_555
B3 N3 1.387831 1_555
B3 N4 1.389781 1_565
B3 N5 1.392620 1_555
B4 N4 1.388018 1_455
B4 N0 1.389703 1_555
B4 N1 1.392739 1_555
B5 N5 1.387987 1_455
B5 N1 1.390068 1_565
B5 N0 1.392367 1_555
