# generated using pymatgen
data_Cr10Co4CuSe20
_symmetry_space_group_name_H-M   'P 1'
_cell_length_a   27.97968079
_cell_length_b   27.97968079
_cell_length_c   6.36525798
_cell_angle_alpha   84.89932988
_cell_angle_beta   84.89932988
_cell_angle_gamma   7.50758201
_symmetry_Int_Tables_number   1
_chemical_formula_structural   Cr10Co4CuSe20
_chemical_formula_sum   'Cr10 Co4 Cu1 Se20'
_cell_volume   648.49232801
_cell_formula_units_Z   1
loop_
 _symmetry_equiv_pos_site_id
 _symmetry_equiv_pos_as_xyz
  1  'x, y, z'
loop_
 _atom_site_type_symbol
 _atom_site_label
 _atom_site_symmetry_multiplicity
 _atom_site_fract_x
 _atom_site_fract_y
 _atom_site_fract_z
 _atom_site_occupancy
  Cr  Cr0  1  0.35200900  0.35200900  0.62621800  1
  Cr  Cr1  1  0.75196400  0.75196400  0.22646600  1
  Cr  Cr2  1  0.15201300  0.15201300  0.82650300  1
  Cr  Cr3  1  0.55222000  0.55222000  0.42797100  1
  Cr  Cr4  1  0.95146600  0.95146600  0.02743100  1
  Cr  Cr5  1  0.84798700  0.84798700  0.17349700  1
  Cr  Cr6  1  0.24803600  0.24803600  0.77353400  1
  Cr  Cr7  1  0.64799100  0.64799100  0.37378200  1
  Cr  Cr8  1  0.04853400  0.04853400  0.97256900  1
  Cr  Cr9  1  0.44778000  0.44778000  0.57202900  1
  Co  Co0  1  0.90009400  0.90009400  0.10099800  1
  Co  Co1  1  0.30000200  0.30000200  0.69990500  1
  Co  Co2  1  0.69999800  0.69999800  0.30009500  1
  Co  Co3  1  0.09990600  0.09990600  0.89900200  1
  Cu  Cu0  1  0.50000000  0.50000000  0.50000000  1
  Se  Se0  1  0.32294700  0.32294700  0.34843600  1
  Se  Se1  1  0.72292200  0.72292200  0.94848200  1
  Se  Se2  1  0.12294500  0.12294500  0.54867700  1
  Se  Se3  1  0.52380900  0.52380900  0.14076900  1
  Se  Se4  1  0.92274200  0.92274200  0.74876400  1
  Se  Se5  1  0.87705500  0.87705500  0.45132300  1
  Se  Se6  1  0.27707800  0.27707800  0.05151800  1
  Se  Se7  1  0.67705300  0.67705300  0.65156400  1
  Se  Se8  1  0.07725800  0.07725800  0.25123600  1
  Se  Se9  1  0.47619100  0.47619100  0.85923100  1
  Se  Se10  1  0.37442900  0.37442900  0.97089400  1
  Se  Se11  1  0.77443700  0.77443700  0.57049700  1
  Se  Se12  1  0.17443100  0.17443100  0.17081800  1
  Se  Se13  1  0.57539400  0.57539400  0.77099800  1
  Se  Se14  1  0.97181700  0.97181700  0.36614300  1
  Se  Se15  1  0.82556900  0.82556900  0.82918200  1
  Se  Se16  1  0.22556300  0.22556300  0.42950300  1
  Se  Se17  1  0.62557100  0.62557100  0.02910600  1
  Se  Se18  1  0.02818300  0.02818300  0.63385700  1
  Se  Se19  1  0.42460600  0.42460600  0.22900200  1
loop_
_geom_bond_atom_site_label_1
_geom_bond_atom_site_label_2
_geom_bond_distance
_geom_bond_site_symmetry_2
Cr0 Se0 2.504228 1_555
Cr0 Se5 2.504666 1_455
Cr0 Se5 2.504666 1_545
Cr0 Se15 2.620003 1_455
Cr0 Se15 2.620003 1_545
Cr0 Se10 2.621098 1_555
Cr1 Se1 2.504417 1_554
Cr1 Se6 2.506771 1_565
Cr1 Se6 2.506771 1_655
Cr1 Se16 2.619078 1_565
Cr1 Se16 2.619078 1_655
Cr1 Se11 2.619125 1_555
Cr2 Se7 2.504603 1_545
Cr2 Se7 2.504603 1_455
Cr2 Se2 2.504680 1_555
Cr2 Se12 2.619016 1_556
Cr2 Se17 2.619044 1_546
Cr2 Se17 2.619044 1_456
Cr3 Se8 2.509081 1_655
Cr3 Se8 2.509081 1_565
Cr3 Se3 2.525001 1_555
Cr3 Se18 2.561455 1_655
Cr3 Se18 2.561455 1_565
Cr3 Se13 2.635421 1_555
Cr4 Se9 2.478812 1_564
Cr4 Se9 2.478812 1_654
Cr4 Se4 2.495170 1_554
Cr4 Se14 2.525123 1_555
Cr4 Se19 2.628375 1_565
Cr4 Se19 2.628375 1_655
Cr5 Se0 2.504603 1_565
Cr5 Se0 2.504603 1_655
Cr5 Se5 2.504680 1_555
Cr5 Se15 2.619016 1_554
Cr5 Se10 2.619044 1_654
Cr5 Se10 2.619044 1_564
Cr6 Se6 2.504417 1_556
Cr6 Se1 2.506771 1_545
Cr6 Se1 2.506771 1_455
Cr6 Se11 2.619078 1_545
Cr6 Se11 2.619078 1_455
Cr6 Se16 2.619125 1_555
Cr7 Se7 2.504228 1_555
Cr7 Se2 2.504666 1_655
Cr7 Se2 2.504666 1_565
Cr7 Se12 2.620003 1_565
Cr7 Se12 2.620003 1_655
Cr7 Se17 2.621098 1_555
Cr8 Se3 2.478812 1_546
Cr8 Se3 2.478812 1_456
Cr8 Se8 2.495170 1_556
Cr8 Se18 2.525123 1_555
Cr8 Se13 2.628375 1_455
Cr8 Se13 2.628375 1_545
Cr9 Se4 2.509081 1_455
Cr9 Se4 2.509081 1_545
Cr9 Se9 2.525001 1_555
Cr9 Se14 2.561455 1_545
Cr9 Se14 2.561455 1_455
Cr9 Se19 2.635421 1_555
Co0 Se19 2.468103 1_655
Co0 Se19 2.468103 1_565
Co0 Se5 2.473123 1_555
Co0 Se4 2.474048 1_554
Co0 Se10 2.511303 1_654
Co0 Se10 2.511303 1_564
Co1 Se0 2.477057 1_555
Co1 Se6 2.477331 1_556
Co1 Se15 2.506023 1_455
Co1 Se15 2.506023 1_545
Co1 Se11 2.506273 1_455
Co1 Se11 2.506273 1_545
Co2 Se7 2.477057 1_555
Co2 Se1 2.477331 1_554
Co2 Se12 2.506023 1_565
Co2 Se12 2.506023 1_655
Co2 Se16 2.506273 1_565
Co2 Se16 2.506273 1_655
Co3 Se13 2.468103 1_455
Co3 Se13 2.468103 1_545
Co3 Se2 2.473123 1_555
Co3 Se8 2.474048 1_556
Co3 Se17 2.511303 1_456
Co3 Se17 2.511303 1_546
Cu0 Se3 2.540538 1_555
Cu0 Se9 2.540538 1_555
Cu0 Se14 2.607106 1_545
Cu0 Se14 2.607106 1_455
Cu0 Se18 2.607106 1_655
Cu0 Se18 2.607106 1_565
