# generated using pymatgen
data_Sr3ZrTi2O9
_symmetry_space_group_name_H-M   'P 1'
_cell_length_a   5.69311815
_cell_length_b   5.69311815
_cell_length_c   12.67097733
_cell_angle_alpha   77.15796951
_cell_angle_beta   77.15796951
_cell_angle_gamma   90.50731218
_symmetry_Int_Tables_number   1
_chemical_formula_structural   Sr3ZrTi2O9
_chemical_formula_sum   'Sr6 Zr2 Ti4 O18'
_cell_volume   389.66439644
_cell_formula_units_Z   2
loop_
 _symmetry_equiv_pos_site_id
 _symmetry_equiv_pos_as_xyz
  1  'x, y, z'
loop_
 _atom_site_type_symbol
 _atom_site_label
 _atom_site_symmetry_multiplicity
 _atom_site_fract_x
 _atom_site_fract_y
 _atom_site_fract_z
 _atom_site_occupancy
  Sr  Sr0  1  0.42054500  0.92076700  0.15961900  1
  Sr  Sr1  1  0.07923300  0.57945500  0.84038100  1
  Sr  Sr2  1  0.75051100  0.24948900  0.50000000  1
  Sr  Sr3  1  0.57945500  0.07923300  0.84038100  1
  Sr  Sr4  1  0.24948900  0.75051100  0.50000000  1
  Sr  Sr5  1  0.92076700  0.42054500  0.15961900  1
  Zr  Zr0  1  0.33381300  0.33381300  0.33352700  1
  Zr  Zr1  1  0.66618700  0.66618700  0.66647300  1
  Ti  Ti0  1  0.50000000  0.50000000  0.00000000  1
  Ti  Ti1  1  0.83506300  0.83506300  0.32832700  1
  Ti  Ti2  1  0.16493700  0.16493700  0.67167300  1
  Ti  Ti3  1  0.00000000  0.00000000  0.00000000  1
  O  O0  1  0.61217800  0.61217800  0.84073000  1
  O  O1  1  0.28364500  0.28364500  0.50606900  1
  O  O2  1  0.94956800  0.94956800  0.16275700  1
  O  O3  1  0.38782200  0.38782200  0.15927000  1
  O  O4  1  0.05043200  0.05043200  0.83724300  1
  O  O5  1  0.71635500  0.71635500  0.49393100  1
  O  O6  1  0.25907100  0.25907100  0.98091900  1
  O  O7  1  0.93551600  0.93551600  0.64538100  1
  O  O8  1  0.60521900  0.60521900  0.30599200  1
  O  O9  1  0.74092900  0.74092900  0.01908100  1
  O  O10  1  0.39478100  0.39478100  0.69400800  1
  O  O11  1  0.06448400  0.06448400  0.35461900  1
  O  O12  1  0.24959300  0.75040700  0.00000000  1
  O  O13  1  0.59352000  0.07730600  0.33064300  1
  O  O14  1  0.92269400  0.40648000  0.66935700  1
  O  O15  1  0.75040700  0.24959300  0.00000000  1
  O  O16  1  0.07730600  0.59352000  0.33064300  1
  O  O17  1  0.40648000  0.92269400  0.66935700  1
loop_
_geom_bond_atom_site_label_1
_geom_bond_atom_site_label_2
_geom_bond_distance
_geom_bond_site_symmetry_2
O0 Ti0 1.932719 1_556
O0 Zr1 2.111661 1_555
O0 Sr3 2.666255 1_565
O0 Sr1 2.666255 1_655
O0 Sr3 3.039231 1_555
O0 Sr1 3.039231 1_555
O1 Ti2 2.011896 1_555
O1 Zr0 2.094363 1_555
O1 Sr4 2.652022 1_555
O1 Sr2 2.652022 1_555
O1 Sr4 3.058772 1_545
O1 Sr2 3.058772 1_455
O2 Ti3 1.972316 1_665
O2 Ti1 2.006946 1_555
O2 Sr0 2.679790 1_655
O2 Sr5 2.679790 1_565
O2 Sr5 3.024357 1_555
O2 Sr0 3.024357 1_555
O3 Ti0 1.932719 1_555
O3 Zr0 2.111661 1_555
O3 Sr5 2.666255 1_455
O3 Sr0 2.666255 1_545
O3 Sr5 3.039231 1_555
O3 Sr0 3.039231 1_555
O4 Ti3 1.972316 1_556
O4 Ti2 2.006946 1_555
O4 Sr3 2.679790 1_455
O4 Sr1 2.679790 1_545
O4 Sr3 3.024357 1_555
O4 Sr1 3.024357 1_555
O5 Ti1 2.011896 1_555
O5 Zr1 2.094363 1_555
O5 Sr2 2.652022 1_555
O5 Sr4 2.652022 1_555
O5 Sr4 3.058772 1_655
O5 Sr2 3.058772 1_565
O6 Ti3 2.013377 1_556
O6 Ti0 2.020582 1_556
O6 Sr3 2.635513 1_555
O6 Sr1 2.635513 1_555
O6 Sr5 2.949527 1_456
O6 Sr0 2.949527 1_546
O7 Ti2 1.969653 1_665
O7 Zr1 2.089885 1_555
O7 Sr2 2.670197 1_565
O7 Sr4 2.670197 1_655
O7 Sr1 3.095996 1_655
O7 Sr3 3.095996 1_565
O8 Ti1 1.950258 1_555
O8 Zr0 2.091679 1_555
O8 Sr5 2.681725 1_555
O8 Sr0 2.681725 1_555
O8 Sr2 3.090188 1_555
O8 Sr4 3.090188 1_555
O9 Ti3 2.013377 1_665
O9 Ti0 2.020582 1_555
O9 Sr0 2.635513 1_555
O9 Sr5 2.635513 1_555
O9 Sr3 2.949527 1_564
O9 Sr1 2.949527 1_654
O10 Ti2 1.950258 1_555
O10 Zr1 2.091679 1_555
O10 Sr1 2.681725 1_555
O10 Sr3 2.681725 1_555
O10 Sr4 3.090188 1_555
O10 Sr2 3.090188 1_555
O11 Ti1 1.969653 1_445
O11 Zr0 2.089885 1_555
O11 Sr2 2.670197 1_455
O11 Sr4 2.670197 1_545
O11 Sr0 3.095996 1_545
O11 Sr5 3.095996 1_455
O12 Ti3 2.018421 1_565
O12 Ti0 2.025004 1_555
O12 Sr3 2.772741 1_564
O12 Sr5 2.772741 1_455
O12 Sr0 2.776472 1_555
O12 Sr1 2.776472 1_554
O13 Ti1 1.956388 1_545
O13 Zr0 2.087561 1_555
O13 Sr2 2.852517 1_555
O13 Sr4 2.862669 1_545
O13 Sr5 2.871233 1_555
O13 Sr0 2.872569 1_545
O14 Ti2 1.956388 1_655
O14 Zr1 2.087561 1_555
O14 Sr2 2.852517 1_555
O14 Sr4 2.862669 1_655
O14 Sr3 2.871233 1_555
O14 Sr1 2.872569 1_655
O15 Ti3 2.018421 1_655
O15 Ti0 2.025004 1_555
O15 Sr1 2.772741 1_654
O15 Sr0 2.772741 1_545
O15 Sr5 2.776472 1_555
O15 Sr3 2.776472 1_554
O16 Ti1 1.956388 1_455
O16 Zr0 2.087561 1_555
O16 Sr4 2.852517 1_555
O16 Sr2 2.862669 1_455
O16 Sr0 2.871233 1_555
O16 Sr5 2.872569 1_455
O17 Ti2 1.956388 1_565
O17 Zr1 2.087561 1_555
O17 Sr4 2.852517 1_555
O17 Sr2 2.862669 1_565
O17 Sr1 2.871233 1_555
O17 Sr3 2.872569 1_565
