# generated using pymatgen
data_AlNi2As
_symmetry_space_group_name_H-M   'P 1'
_cell_length_a   3.64002515
_cell_length_b   3.64002515
_cell_length_c   4.89685900
_cell_angle_alpha   90.00000000
_cell_angle_beta   90.00000000
_cell_angle_gamma   119.99998447
_symmetry_Int_Tables_number   1
_chemical_formula_structural   AlNi2As
_chemical_formula_sum   'Al1 Ni2 As1'
_cell_volume   56.18974568
_cell_formula_units_Z   1
loop_
 _symmetry_equiv_pos_site_id
 _symmetry_equiv_pos_as_xyz
  1  'x, y, z'
loop_
 _atom_site_type_symbol
 _atom_site_label
 _atom_site_symmetry_multiplicity
 _atom_site_fract_x
 _atom_site_fract_y
 _atom_site_fract_z
 _atom_site_occupancy
  Al  Al0  1  0.33333300  0.66666700  0.50000000  1
  Ni  Ni0  1  0.66666700  0.33333300  0.75359700  1
  Ni  Ni1  1  0.66666700  0.33333300  0.24640300  1
  As  As0  1  0.00000000  0.00000000  0.00000000  1
loop_
_geom_bond_atom_site_label_1
_geom_bond_atom_site_label_2
_geom_bond_distance
_geom_bond_site_symmetry_2
Al0 Ni1 2.441050 1_455
Al0 Ni0 2.441050 1_455
Al0 Ni1 2.441050 1_565
Al0 Ni0 2.441050 1_565
Al0 Ni1 2.441055 1_555
Al0 Ni0 2.441055 1_555
Ni0 Ni1 2.413201 1_556
Ni0 Ni1 2.483658 1_555
As0 Ni1 2.423318 1_455
As0 Ni0 2.423318 1_454
As0 Ni1 2.423321 1_555
As0 Ni0 2.423321 1_554
As0 Ni1 2.423321 1_445
As0 Ni0 2.423321 1_444
