# generated using pymatgen
data_RbMg6BO7
_symmetry_space_group_name_H-M   'P 1'
_cell_length_a   5.01332000
_cell_length_b   5.01332000
_cell_length_c   7.80193900
_cell_angle_alpha   90.00000000
_cell_angle_beta   90.00000000
_cell_angle_gamma   90.00000000
_symmetry_Int_Tables_number   1
_chemical_formula_structural   RbMg6BO7
_chemical_formula_sum   'Rb1 Mg6 B1 O7'
_cell_volume   196.08907751
_cell_formula_units_Z   1
loop_
 _symmetry_equiv_pos_site_id
 _symmetry_equiv_pos_as_xyz
  1  'x, y, z'
loop_
 _atom_site_type_symbol
 _atom_site_label
 _atom_site_symmetry_multiplicity
 _atom_site_fract_x
 _atom_site_fract_y
 _atom_site_fract_z
 _atom_site_occupancy
  Rb  Rb0  1  0.00000000  0.00000000  0.00132300  1
  Mg  Mg0  1  0.50000000  0.50000000  0.00441200  1
  Mg  Mg1  1  0.50000000  0.50000000  0.49631800  1
  Mg  Mg2  1  0.00000000  0.50000000  0.25536900  1
  Mg  Mg3  1  0.00000000  0.50000000  0.74342100  1
  Mg  Mg4  1  0.50000000  0.00000000  0.25536900  1
  Mg  Mg5  1  0.50000000  0.00000000  0.74342100  1
  B  B0  1  0.00000000  0.00000000  0.50056200  1
  O  O0  1  0.00000000  0.00000000  0.33307500  1
  O  O1  1  0.00000000  0.00000000  0.66909600  1
  O  O2  1  0.50000000  0.50000000  0.75080800  1
  O  O3  1  0.00000000  0.50000000  0.99910700  1
  O  O4  1  0.00000000  0.50000000  0.49930700  1
  O  O5  1  0.50000000  0.00000000  0.99910700  1
  O  O6  1  0.50000000  0.00000000  0.49930700  1
loop_
_geom_bond_atom_site_label_1
_geom_bond_atom_site_label_2
_geom_bond_distance
_geom_bond_site_symmetry_2
Mg0 O2 1.978603 1_554
Mg0 O5 2.507002 1_564
Mg0 O5 2.507002 1_554
Mg0 O3 2.507002 1_654
Mg0 O3 2.507002 1_554
Mg1 O2 1.985515 1_555
Mg1 O4 2.506768 1_655
Mg1 O6 2.506768 1_555
Mg1 O6 2.506768 1_565
Mg1 O4 2.506768 1_555
Mg2 O4 1.903189 1_555
Mg2 O3 1.999340 1_554
Mg2 O0 2.578932 1_565
Mg2 O0 2.578932 1_555
Mg3 O4 1.904563 1_555
Mg3 O3 1.994847 1_555
Mg3 O2 2.507322 1_455
Mg3 O2 2.507322 1_555
Mg3 O1 2.572859 1_555
Mg3 O1 2.572859 1_565
Mg4 O6 1.903189 1_555
Mg4 O5 1.999340 1_554
Mg4 O0 2.578932 1_655
Mg4 O0 2.578932 1_555
Mg5 O6 1.904563 1_555
Mg5 O5 1.994847 1_555
Mg5 O2 2.507322 1_555
Mg5 O2 2.507322 1_545
Mg5 O1 2.572859 1_655
Mg5 O1 2.572859 1_555
B0 O0 1.306723 1_555
B0 O1 1.314892 1_555
O0 Rb0 2.588309 1_555
O1 Rb0 2.592015 1_556
O3 Rb0 2.506720 1_556
O3 Rb0 2.506720 1_566
O5 Rb0 2.506720 1_556
O5 Rb0 2.506720 1_656
