# generated using pymatgen
data_K2CrH5C4S4N4O3
_symmetry_space_group_name_H-M   'P 1'
_cell_length_a   10.72099700
_cell_length_b   12.98425699
_cell_length_c   13.09953050
_cell_angle_alpha   66.82935271
_cell_angle_beta   85.29317999
_cell_angle_gamma   78.72277374
_symmetry_Int_Tables_number   1
_chemical_formula_structural   K2CrH5C4S4N4O3
_chemical_formula_sum   'K8 Cr4 H20 C16 S16 N16 O12'
_cell_volume   1644.02577766
_cell_formula_units_Z   4
loop_
 _symmetry_equiv_pos_site_id
 _symmetry_equiv_pos_as_xyz
  1  'x, y, z'
loop_
 _atom_site_type_symbol
 _atom_site_label
 _atom_site_symmetry_multiplicity
 _atom_site_fract_x
 _atom_site_fract_y
 _atom_site_fract_z
 _atom_site_occupancy
  K  K0  1  0.82000400  0.07537200  0.85892800  1
  K  K1  1  0.17999600  0.92462800  0.14107200  1
  K  K2  1  0.27678800  0.80758500  0.67330700  1
  K  K3  1  0.72321200  0.19241500  0.32669300  1
  K  K4  1  0.45883000  0.38956900  0.83555100  1
  K  K5  1  0.54117000  0.61043100  0.16444900  1
  K  K6  1  0.02998100  0.27685100  0.52020400  1
  K  K7  1  0.97001900  0.72314900  0.47979600  1
  Cr  Cr0  1  0.39696600  0.09643900  0.51364000  1
  Cr  Cr1  1  0.60303400  0.90356100  0.48636000  1
  Cr  Cr2  1  0.10693700  0.42589800  0.95891600  1
  Cr  Cr3  1  0.89306300  0.57410200  0.04108400  1
  H  H0  1  0.52273700  0.92733400  0.66711500  1
  H  H1  1  0.47726300  0.07266600  0.33288500  1
  H  H2  1  0.89659400  0.53796500  0.86275100  1
  H  H3  1  0.10340600  0.46203500  0.13724900  1
  H  H4  1  0.04372100  0.23389500  0.78852600  1
  H  H5  1  0.95627900  0.76610500  0.21147400  1
  H  H6  1  0.92167600  0.32382300  0.74307500  1
  H  H7  1  0.07832400  0.67617700  0.25692500  1
  H  H8  1  0.99249700  0.79949300  0.68998700  1
  H  H9  1  0.00750300  0.20050700  0.31001300  1
  H  H10  1  0.02379700  0.66812200  0.75655700  1
  H  H11  1  0.97620300  0.33187800  0.24344300  1
  H  H12  1  0.48547100  0.60703200  0.62169200  1
  H  H13  1  0.51452900  0.39296800  0.37830800  1
  H  H14  1  0.35994600  0.58788300  0.58806500  1
  H  H15  1  0.64005400  0.41211700  0.41193500  1
  H  H16  1  0.60272100  0.14245500  0.01346700  1
  H  H17  1  0.39727900  0.85754500  0.98653300  1
  H  H18  1  0.52030100  0.12758000  0.93048400  1
  H  H19  1  0.47969900  0.87242000  0.06951600  1
  C  C0  1  0.28985900  0.35404100  0.34540800  1
  C  C1  1  0.71014100  0.64595900  0.65459200  1
  C  C2  1  0.17777400  0.01828300  0.42243200  1
  C  C3  1  0.82222600  0.98171700  0.57756800  1
  C  C4  1  0.28393500  0.11810000  0.73397400  1
  C  C5  1  0.71606500  0.88190000  0.26602600  1
  C  C6  1  0.57698800  0.21522000  0.59680700  1
  C  C7  1  0.42301200  0.78478000  0.40319300  1
  C  C8  1  0.94995900  0.22542400  0.03077200  1
  C  C9  1  0.05004100  0.77457600  0.96922800  1
  C  C10  1  0.31638200  0.58393000  0.92242200  1
  C  C11  1  0.68361800  0.41607000  0.07757800  1
  C  C12  1  0.16203600  0.44487300  0.70754500  1
  C  C13  1  0.83796400  0.55512700  0.29245500  1
  C  C14  1  0.30799100  0.20325900  0.09047000  1
  C  C15  1  0.69200900  0.79674100  0.90953000  1
  S  S0  1  0.24927000  0.48372000  0.25713300  1
  S  S1  1  0.75073000  0.51628000  0.74286700  1
  S  S2  1  0.06868000  0.99352400  0.36129600  1
  S  S3  1  0.93132000  0.00647600  0.63870400  1
  S  S4  1  0.27054900  0.13554500  0.84992500  1
  S  S5  1  0.72945100  0.86445500  0.15007500  1
  S  S6  1  0.64796300  0.29063700  0.63850800  1
  S  S7  1  0.35203700  0.70936300  0.36149200  1
  S  S8  1  0.88669900  0.11206600  0.08873900  1
  S  S9  1  0.11330100  0.88793400  0.91126100  1
  S  S10  1  0.43108600  0.65413200  0.90277300  1
  S  S11  1  0.56891400  0.34586800  0.09722700  1
  S  S12  1  0.18186000  0.46680800  0.57727100  1
  S  S13  1  0.81814000  0.53319200  0.42272900  1
  S  S14  1  0.38942800  0.08025900  0.16394900  1
  S  S15  1  0.61057200  0.91974100  0.83605100  1
  N  N0  1  0.32020900  0.25899700  0.41010500  1
  N  N1  1  0.67979100  0.74100300  0.58989500  1
  N  N2  1  0.25614000  0.03844400  0.46731500  1
  N  N3  1  0.74386000  0.96155600  0.53268500  1
  N  N4  1  0.29083200  0.10662800  0.64770700  1
  N  N5  1  0.70916800  0.89337200  0.35229300  1
  N  N6  1  0.52726300  0.16160000  0.56213200  1
  N  N7  1  0.47273700  0.83840000  0.43786800  1
  N  N8  1  0.99535600  0.30853000  0.98693800  1
  N  N9  1  0.00464400  0.69147000  0.01306200  1
  N  N10  1  0.23293800  0.53203700  0.93380600  1
  N  N11  1  0.76706200  0.46796300  0.06619400  1
  N  N12  1  0.15050500  0.42836100  0.80337500  1
  N  N13  1  0.84949500  0.57163900  0.19662500  1
  N  N14  1  0.24986200  0.29309000  0.03406400  1
  N  N15  1  0.75013800  0.70691000  0.96593600  1
  O  O0  1  0.47882400  0.93254100  0.60169900  1
  O  O1  1  0.52117600  0.06745900  0.39830100  1
  O  O2  1  0.96128100  0.55873800  0.89677600  1
  O  O3  1  0.03871900  0.44126200  0.10322400  1
  O  O4  1  0.96566500  0.24902800  0.74673700  1
  O  O5  1  0.03433500  0.75097200  0.25326300  1
  O  O6  1  0.04044800  0.72887500  0.68478500  1
  O  O7  1  0.95955200  0.27112500  0.31521500  1
  O  O8  1  0.40069200  0.59317200  0.64980400  1
  O  O9  1  0.59930800  0.40682800  0.35019600  1
  O  O10  1  0.58941200  0.16568300  0.93376800  1
  O  O11  1  0.41058800  0.83431700  0.06623200  1
loop_
_geom_bond_atom_site_label_1
_geom_bond_atom_site_label_2
_geom_bond_distance
_geom_bond_site_symmetry_2
K0 O10 2.796592 1_555
K0 O4 2.841732 1_555
K0 S8 3.378772 1_556
K0 S15 3.402391 1_545
K0 S3 3.405145 1_555
K0 S6 3.472483 1_555
K0 S9 3.511165 1_645
K1 O11 2.796592 1_555
K1 O5 2.841732 1_555
K1 S9 3.378772 1_554
K1 S14 3.402391 1_565
K1 S2 3.405145 1_555
K1 S7 3.472483 1_555
K1 S8 3.511165 1_465
K2 O0 2.836782 1_555
K2 O6 2.883845 1_555
K2 O8 2.961583 1_555
K2 N2 3.128715 1_565
K2 S10 3.248946 1_555
K3 O1 2.836782 1_555
K3 O7 2.883845 1_555
K3 O9 2.961583 1_555
K3 N3 3.128715 1_545
K3 S11 3.248946 1_555
K4 O10 2.797585 1_555
K4 O8 2.800035 1_555
K4 S11 3.512305 1_556
K4 S6 3.627070 1_555
K5 O11 2.797585 1_555
K5 O9 2.800035 1_555
K5 S10 3.512305 1_554
K5 S7 3.627070 1_555
K6 O7 2.880641 1_455
K6 O4 2.886151 1_455
K6 N4 3.307511 1_555
K6 N0 3.325653 1_555
K6 S13 3.470113 1_455
K6 S12 3.537659 1_555
K6 S3 3.570336 1_455
K7 O6 2.880641 1_655
K7 O5 2.886151 1_655
K7 N5 3.307511 1_555
K7 N1 3.325653 1_555
K7 S12 3.470113 1_655
K7 S13 3.537659 1_555
K7 S2 3.570336 1_655
Cr0 N6 2.025220 1_555
Cr0 O1 2.029506 1_555
Cr0 O0 2.033098 1_545
Cr0 N2 2.041910 1_555
Cr0 N4 2.047567 1_555
Cr0 N0 2.054934 1_555
Cr1 N7 2.025220 1_555
Cr1 O0 2.029506 1_555
Cr1 O1 2.033098 1_565
Cr1 N3 2.041910 1_555
Cr1 N5 2.047567 1_555
Cr1 N1 2.054934 1_555
Cr2 N8 2.022101 1_455
Cr2 O2 2.031366 1_455
Cr2 N10 2.032421 1_555
Cr2 O3 2.039849 1_556
Cr2 N14 2.041776 1_556
Cr2 N12 2.041822 1_555
Cr3 N9 2.022101 1_655
Cr3 O3 2.031366 1_655
Cr3 N11 2.032421 1_555
Cr3 O2 2.039849 1_554
Cr3 N15 2.041776 1_554
Cr3 N13 2.041822 1_555
H0 O0 0.984222 1_555
H1 O1 0.984222 1_555
H2 O2 0.985320 1_555
H3 O3 0.985320 1_555
H4 O4 0.982240 1_455
H5 O5 0.982240 1_655
H6 O4 0.977640 1_555
H7 O5 0.977640 1_555
H8 O6 0.984242 1_655
H9 O7 0.984242 1_455
H10 O6 0.990940 1_555
H11 O7 0.990940 1_555
H12 O8 0.975200 1_555
H13 O9 0.975200 1_555
H14 O8 0.981348 1_555
H15 O9 0.981348 1_555
H16 O10 0.980370 1_554
H17 O11 0.980370 1_556
H18 O10 0.980285 1_555
H19 O11 0.980285 1_555
C0 N0 1.188374 1_555
C0 S0 1.620323 1_555
C1 N1 1.188374 1_555
C1 S1 1.620323 1_555
C2 N2 1.186711 1_555
C2 S2 1.617421 1_545
C3 N3 1.186711 1_555
C3 S3 1.617421 1_565
C4 N4 1.191272 1_555
C4 S4 1.612833 1_555
C5 N5 1.191272 1_555
C5 S5 1.612833 1_555
C6 N6 1.187013 1_555
C6 S6 1.617683 1_555
C7 N7 1.187013 1_555
C7 S7 1.617683 1_555
C8 N8 1.184452 1_554
C8 S8 1.621526 1_555
C9 N9 1.184452 1_556
C9 S9 1.621526 1_555
C10 N10 1.187997 1_555
C10 S10 1.615927 1_555
C11 N11 1.187997 1_555
C11 S11 1.615927 1_555
C12 N12 1.187518 1_555
C12 S12 1.618702 1_555
C13 N13 1.187518 1_555
C13 S13 1.618702 1_555
C14 N14 1.186534 1_555
C14 S14 1.619327 1_555
C15 N15 1.186534 1_555
C15 S15 1.619327 1_555
