# generated using pymatgen
data_Na7Cu4(AsO4)5
_symmetry_space_group_name_H-M   'P 1'
_cell_length_a   7.94526850
_cell_length_b   8.75469848
_cell_length_c   30.68877713
_cell_angle_alpha   88.79051599
_cell_angle_beta   87.33383372
_cell_angle_gamma   63.01406644
_symmetry_Int_Tables_number   1
_chemical_formula_structural   Na7Cu4(AsO4)5
_chemical_formula_sum   'Na28 Cu16 As20 O80'
_cell_volume   1900.17752964
_cell_formula_units_Z   4
loop_
 _symmetry_equiv_pos_site_id
 _symmetry_equiv_pos_as_xyz
  1  'x, y, z'
loop_
 _atom_site_type_symbol
 _atom_site_label
 _atom_site_symmetry_multiplicity
 _atom_site_fract_x
 _atom_site_fract_y
 _atom_site_fract_z
 _atom_site_occupancy
  Na  Na0  1  0.71989700  0.47277900  0.06652100  1
  Na  Na1  1  0.80732500  0.47277900  0.43347900  1
  Na  Na2  1  0.28010300  0.52722100  0.93347900  1
  Na  Na3  1  0.19267500  0.52722100  0.56652100  1
  Na  Na4  1  0.05592700  0.94792100  0.31597600  1
  Na  Na5  1  0.99615200  0.94792100  0.18402400  1
  Na  Na6  1  0.94407300  0.05207900  0.68402400  1
  Na  Na7  1  0.00384800  0.05207900  0.81597600  1
  Na  Na8  1  0.53650000  0.97870600  0.05428800  1
  Na  Na9  1  0.48479400  0.97870600  0.44571200  1
  Na  Na10  1  0.46350000  0.02129400  0.94571200  1
  Na  Na11  1  0.51520600  0.02129400  0.55428800  1
  Na  Na12  1  0.58242800  0.93605700  0.17281900  1
  Na  Na13  1  0.48151600  0.93605700  0.32718100  1
  Na  Na14  1  0.41757200  0.06394300  0.82718100  1
  Na  Na15  1  0.51848400  0.06394300  0.67281900  1
  Na  Na16  1  0.37048600  0.73216100  0.12477300  1
  Na  Na17  1  0.89735300  0.73216100  0.37522700  1
  Na  Na18  1  0.62951400  0.26783900  0.87522700  1
  Na  Na19  1  0.10264700  0.26783900  0.62477300  1
  Na  Na20  1  0.89868200  0.75345600  0.98270400  1
  Na  Na21  1  0.34786200  0.75345600  0.51729600  1
  Na  Na22  1  0.10131800  0.24654400  0.01729600  1
  Na  Na23  1  0.65213800  0.24654400  0.48270400  1
  Na  Na24  1  0.17516200  0.21930800  0.23749300  1
  Na  Na25  1  0.60553100  0.21930800  0.26250700  1
  Na  Na26  1  0.82483800  0.78069200  0.76250700  1
  Na  Na27  1  0.39446900  0.78069200  0.73749300  1
  Cu  Cu0  1  0.93043300  0.04396600  0.07634000  1
  Cu  Cu1  1  0.02560100  0.04396600  0.42366000  1
  Cu  Cu2  1  0.06956700  0.95603400  0.92366000  1
  Cu  Cu3  1  0.97439900  0.95603400  0.57634000  1
  Cu  Cu4  1  0.66464000  0.57929100  0.92962800  1
  Cu  Cu5  1  0.75606900  0.57929100  0.57037200  1
  Cu  Cu6  1  0.33536000  0.42070900  0.07037200  1
  Cu  Cu7  1  0.24393100  0.42070900  0.42962800  1
  Cu  Cu8  1  0.19954900  0.51113500  0.17755900  1
  Cu  Cu9  1  0.28931500  0.51113500  0.32244100  1
  Cu  Cu10  1  0.80045000  0.48886500  0.82244100  1
  Cu  Cu11  1  0.71068500  0.48886500  0.67755900  1
  Cu  Cu12  1  0.81533800  0.50162500  0.18674100  1
  Cu  Cu13  1  0.68303600  0.50162500  0.31325900  1
  Cu  Cu14  1  0.18466200  0.49837500  0.81325900  1
  Cu  Cu15  1  0.31696400  0.49837500  0.68674100  1
  As  As0  1  0.39635900  0.71717400  0.23536500  1
  As  As1  1  0.88646600  0.71717400  0.26463500  1
  As  As2  1  0.60364100  0.28282600  0.76463500  1
  As  As3  1  0.11353400  0.28282600  0.73536500  1
  As  As4  1  0.16007100  0.20057300  0.12571600  1
  As  As5  1  0.63935600  0.20057300  0.37428500  1
  As  As6  1  0.83992900  0.79942700  0.87428500  1
  As  As7  1  0.36064400  0.79942700  0.62571500  1
  As  As8  1  0.61471700  0.27100200  0.15712200  1
  As  As9  1  0.11428100  0.27100200  0.34287800  1
  As  As10  1  0.38528300  0.72899800  0.84287800  1
  As  As11  1  0.88571900  0.72899800  0.65712200  1
  As  As12  1  0.93264700  0.69192100  0.09008300  1
  As  As13  1  0.37543200  0.69192100  0.40991700  1
  As  As14  1  0.06735300  0.30807900  0.90991700  1
  As  As15  1  0.62456800  0.30807900  0.59008300  1
  As  As16  1  0.66822900  0.22752000  0.98406100  1
  As  As17  1  0.10425100  0.22752000  0.51593900  1
  As  As18  1  0.33177100  0.77248000  0.01593900  1
  As  As19  1  0.89574900  0.77248000  0.48406100  1
  O  O0  1  0.28799800  0.91531400  0.25868900  1
  O  O1  1  0.79668800  0.91531400  0.24131100  1
  O  O2  1  0.71200200  0.08468600  0.74131100  1
  O  O3  1  0.20331200  0.08468600  0.75868900  1
  O  O4  1  0.24622800  0.69127500  0.20059900  1
  O  O5  1  0.06249700  0.69127500  0.29940100  1
  O  O6  1  0.75377200  0.30872500  0.79940100  1
  O  O7  1  0.93750300  0.30872500  0.70059900  1
  O  O8  1  0.58495100  0.69728600  0.20115300  1
  O  O9  1  0.71776300  0.69728600  0.29884700  1
  O  O10  1  0.41504900  0.30271400  0.79884700  1
  O  O11  1  0.28223700  0.30271400  0.70115300  1
  O  O12  1  0.47269000  0.55212700  0.27296500  1
  O  O13  1  0.97518300  0.55212700  0.22703500  1
  O  O14  1  0.52731000  0.44787300  0.72703500  1
  O  O15  1  0.02481700  0.44787300  0.77296500  1
  O  O16  1  0.24702800  0.01882700  0.15590100  1
  O  O17  1  0.73414500  0.01882700  0.34409900  1
  O  O18  1  0.75297200  0.98117300  0.84409900  1
  O  O19  1  0.26585500  0.98117300  0.65590100  1
  O  O20  1  0.96885700  0.23239400  0.09603100  1
  O  O21  1  0.79874900  0.23239400  0.40396900  1
  O  O22  1  0.03114300  0.76760600  0.90396900  1
  O  O23  1  0.20125100  0.76760600  0.59603100  1
  O  O24  1  0.33727600  0.21262200  0.09367800  1
  O  O25  1  0.45010200  0.21262200  0.40632200  1
  O  O26  1  0.66272400  0.78737800  0.90632200  1
  O  O27  1  0.54989800  0.78737800  0.59367800  1
  O  O28  1  0.55122000  0.37913000  0.33911900  1
  O  O29  1  0.06965000  0.37913000  0.16088100  1
  O  O30  1  0.44878000  0.62087000  0.66088100  1
  O  O31  1  0.93035000  0.62087000  0.83911900  1
  O  O32  1  0.51567600  0.42751000  0.11856700  1
  O  O33  1  0.05681500  0.42751000  0.38143300  1
  O  O34  1  0.48432400  0.57249000  0.88143300  1
  O  O35  1  0.94318500  0.57249000  0.61856700  1
  O  O36  1  0.74513200  0.06989200  0.13466700  1
  O  O37  1  0.18497600  0.06989200  0.36533300  1
  O  O38  1  0.25486800  0.93010800  0.86533300  1
  O  O39  1  0.81502400  0.93010800  0.63466700  1
  O  O40  1  0.76411300  0.30348700  0.19115100  1
  O  O41  1  0.93240000  0.30348700  0.30884900  1
  O  O42  1  0.23588700  0.69651300  0.80884900  1
  O  O43  1  0.06760000  0.69651300  0.69115100  1
  O  O44  1  0.43451200  0.27391000  0.19269300  1
  O  O45  1  0.29157800  0.27391000  0.30730700  1
  O  O46  1  0.56548800  0.72609000  0.80730700  1
  O  O47  1  0.70842200  0.72609000  0.69269300  1
  O  O48  1  0.07483500  0.69863200  0.13008800  1
  O  O49  1  0.22653300  0.69863200  0.36991200  1
  O  O50  1  0.92516500  0.30136800  0.86991200  1
  O  O51  1  0.77346700  0.30136800  0.63008800  1
  O  O52  1  0.72621000  0.69429700  0.10981500  1
  O  O53  1  0.57949400  0.69429700  0.39018500  1
  O  O54  1  0.27379000  0.30570300  0.89018500  1
  O  O55  1  0.42050600  0.30570300  0.60981500  1
  O  O56  1  0.86904100  0.87072600  0.05592900  1
  O  O57  1  0.26023300  0.87072600  0.44407100  1
  O  O58  1  0.13095900  0.12927400  0.94407100  1
  O  O59  1  0.73976700  0.12927400  0.55592900  1
  O  O60  1  0.05727300  0.51847100  0.05504300  1
  O  O61  1  0.42425500  0.51847100  0.44495700  1
  O  O62  1  0.94272700  0.48152900  0.94495700  1
  O  O63  1  0.57574500  0.48152900  0.55504300  1
  O  O64  1  0.80685200  0.23023700  0.02456800  1
  O  O65  1  0.96291100  0.23023700  0.47543200  1
  O  O66  1  0.19314800  0.76976300  0.97543200  1
  O  O67  1  0.03708900  0.76976300  0.52456800  1
  O  O68  1  0.59461600  0.40904100  0.95164300  1
  O  O69  1  0.99634300  0.40904100  0.54835700  1
  O  O70  1  0.40538400  0.59095900  0.04835700  1
  O  O71  1  0.00365700  0.59095900  0.45164300  1
  O  O72  1  0.78015100  0.05394100  0.94864000  1
  O  O73  1  0.16590800  0.05394100  0.55136000  1
  O  O74  1  0.21984900  0.94605900  0.05136000  1
  O  O75  1  0.83409200  0.94605900  0.44864000  1
  O  O76  1  0.46501900  0.22004400  0.00379000  1
  O  O77  1  0.31493700  0.22004400  0.49621000  1
  O  O78  1  0.53498100  0.77995600  0.99621000  1
  O  O79  1  0.68506300  0.77995600  0.50379000  1
loop_
_geom_bond_atom_site_label_1
_geom_bond_atom_site_label_2
_geom_bond_distance
_geom_bond_site_symmetry_2
Na0 O64 2.311921 1_555
Na0 O70 2.320452 1_555
Na0 O20 2.338811 1_555
Na0 O32 2.378398 1_555
Na0 O52 2.394166 1_555
Na0 O60 2.889419 1_655
Na1 O65 2.311919 1_555
Na1 O71 2.320445 1_655
Na1 O21 2.338814 1_555
Na1 O33 2.378398 1_655
Na1 O53 2.394166 1_555
Na1 O61 2.889435 1_555
Na2 O66 2.311921 1_555
Na2 O68 2.320452 1_555
Na2 O22 2.338811 1_555
Na2 O34 2.378398 1_555
Na2 O54 2.394166 1_555
Na2 O62 2.889419 1_455
Na3 O67 2.311919 1_555
Na3 O69 2.320445 1_455
Na3 O23 2.338814 1_555
Na3 O35 2.378398 1_455
Na3 O55 2.394166 1_555
Na3 O63 2.889435 1_555
Na4 O5 2.291108 1_555
Na4 O37 2.385850 1_565
Na4 O0 2.411234 1_555
Na4 O17 2.458384 1_465
Na4 O49 2.590695 1_555
Na4 O41 2.814182 1_465
Na5 O4 2.291108 1_655
Na5 O36 2.385850 1_565
Na5 O1 2.411234 1_555
Na5 O16 2.458384 1_665
Na5 O48 2.590695 1_655
Na5 O40 2.814182 1_565
Na6 O7 2.291108 1_555
Na6 O39 2.385850 1_545
Na6 O2 2.411234 1_555
Na6 O19 2.458384 1_645
Na6 O51 2.590695 1_555
Na6 O43 2.814182 1_645
Na7 O6 2.291108 1_455
Na7 O38 2.385850 1_545
Na7 O3 2.411234 1_555
Na7 O18 2.458384 1_445
Na7 O50 2.590695 1_455
Na7 O42 2.814182 1_545
Na8 O24 2.268305 1_565
Na8 O56 2.370788 1_555
Na8 O76 2.458237 1_565
Na8 O78 2.521202 1_554
Na8 O74 2.663477 1_555
Na8 O52 2.833587 1_555
Na9 O25 2.268305 1_565
Na9 O57 2.370788 1_555
Na9 O77 2.458237 1_565
Na9 O79 2.521202 1_555
Na9 O75 2.663477 1_555
Na9 O53 2.833586 1_555
Na10 O26 2.268305 1_545
Na10 O58 2.370788 1_555
Na10 O78 2.458237 1_545
Na10 O76 2.521202 1_556
Na10 O72 2.663477 1_555
Na10 O54 2.833587 1_555
Na11 O27 2.268305 1_545
Na11 O59 2.370788 1_555
Na11 O79 2.458237 1_545
Na11 O77 2.521202 1_555
Na11 O73 2.663477 1_555
Na11 O55 2.833586 1_555
Na12 O8 2.238971 1_555
Na12 O36 2.364477 1_565
Na12 O16 2.501277 1_565
Na12 O52 2.701143 1_555
Na12 O44 2.712288 1_565
Na12 O1 2.717598 1_555
Na13 O9 2.238968 1_555
Na13 O37 2.364483 1_565
Na13 O17 2.501270 1_565
Na13 O53 2.701143 1_555
Na13 O45 2.712288 1_565
Na13 O0 2.717603 1_555
Na14 O10 2.238971 1_555
Na14 O38 2.364477 1_545
Na14 O18 2.501277 1_545
Na14 O54 2.701143 1_555
Na14 O46 2.712288 1_545
Na14 O3 2.717598 1_555
Na15 O11 2.238968 1_555
Na15 O39 2.364483 1_545
Na15 O19 2.501270 1_545
Na15 O55 2.701143 1_555
Na15 O47 2.712288 1_545
Na15 O2 2.717603 1_555
Na16 O32 2.385228 1_555
Na16 O16 2.439895 1_565
Na16 O48 2.493752 1_555
Na16 O4 2.567020 1_555
Na16 O70 2.618282 1_555
Na16 O52 2.710010 1_555
Na16 O74 2.837899 1_555
Na16 O8 2.891430 1_555
Na17 O33 2.385229 1_655
Na17 O17 2.439895 1_565
Na17 O49 2.493752 1_655
Na17 O5 2.567020 1_655
Na17 O71 2.618282 1_655
Na17 O53 2.710003 1_555
Na17 O75 2.837899 1_555
Na17 O9 2.891430 1_555
Na18 O34 2.385228 1_555
Na18 O18 2.439895 1_545
Na18 O50 2.493752 1_555
Na18 O6 2.567020 1_555
Na18 O68 2.618282 1_555
Na18 O54 2.710010 1_555
Na18 O72 2.837899 1_555
Na18 O10 2.891430 1_555
Na19 O35 2.385229 1_455
Na19 O19 2.439895 1_545
Na19 O51 2.493752 1_455
Na19 O7 2.567020 1_455
Na19 O69 2.618282 1_455
Na19 O55 2.710003 1_555
Na19 O73 2.837899 1_555
Na19 O11 2.891430 1_555
Na20 O66 2.407732 1_655
Na20 O56 2.447054 1_556
Na20 O62 2.540560 1_555
Na20 O72 2.574333 1_565
Na20 O22 2.613520 1_655
Na20 O78 2.803605 1_555
Na20 O60 2.909153 1_656
Na21 O67 2.407732 1_555
Na21 O57 2.447054 1_555
Na21 O63 2.540563 1_555
Na21 O73 2.574333 1_565
Na21 O23 2.613520 1_555
Na21 O79 2.803605 1_555
Na21 O61 2.909155 1_555
Na22 O64 2.407732 1_455
Na22 O58 2.447054 1_554
Na22 O60 2.540560 1_555
Na22 O74 2.574333 1_545
Na22 O20 2.613520 1_455
Na22 O76 2.803605 1_555
Na22 O62 2.909153 1_454
Na23 O65 2.407732 1_555
Na23 O59 2.447054 1_555
Na23 O61 2.540563 1_555
Na23 O75 2.574333 1_545
Na23 O21 2.613520 1_555
Na23 O77 2.803605 1_555
Na23 O63 2.909155 1_555
Na24 O0 2.474993 1_545
Na24 O45 2.510629 1_555
Na24 O13 2.631312 1_455
Na24 O44 2.639597 1_555
Na24 O29 2.677368 1_555
Na24 O41 2.728353 1_455
Na24 O16 2.969746 1_555
Na25 O1 2.474992 1_545
Na25 O44 2.510633 1_555
Na25 O12 2.631311 1_555
Na25 O45 2.639603 1_555
Na25 O28 2.677367 1_555
Na25 O40 2.728349 1_555
Na25 O17 2.969745 1_555
Na26 O2 2.474993 1_565
Na26 O47 2.510629 1_555
Na26 O15 2.631312 1_655
Na26 O46 2.639597 1_555
Na26 O31 2.677368 1_555
Na26 O43 2.728353 1_655
Na26 O18 2.969746 1_555
Na27 O3 2.474992 1_565
Na27 O46 2.510633 1_555
Na27 O14 2.631311 1_555
Na27 O47 2.639603 1_555
Na27 O30 2.677367 1_555
Na27 O42 2.728349 1_555
Na27 O19 2.969745 1_555
Cu0 O56 1.915850 1_545
Cu0 O20 1.922485 1_555
Cu0 O74 2.164487 1_645
Cu0 O64 2.174942 1_555
Cu0 O36 2.211750 1_555
Cu1 O57 1.915850 1_545
Cu1 O21 1.922485 1_455
Cu1 O75 2.164487 1_445
Cu1 O65 2.174942 1_455
Cu1 O37 2.211750 1_555
Cu2 O58 1.915850 1_565
Cu2 O22 1.922485 1_555
Cu2 O72 2.164487 1_465
Cu2 O66 2.174942 1_555
Cu2 O38 2.211750 1_555
Cu3 O59 1.915850 1_565
Cu3 O23 1.922485 1_655
Cu3 O73 2.164487 1_665
Cu3 O67 2.174942 1_655
Cu3 O39 2.211750 1_555
Cu4 O68 1.913802 1_555
Cu4 O26 1.936843 1_555
Cu4 O62 2.049174 1_555
Cu4 O34 2.126476 1_555
Cu4 O78 2.576022 1_555
Cu5 O69 1.913802 1_555
Cu5 O27 1.936843 1_555
Cu5 O63 2.049167 1_555
Cu5 O35 2.126470 1_555
Cu5 O79 2.576022 1_555
Cu6 O70 1.913802 1_555
Cu6 O24 1.936843 1_555
Cu6 O60 2.049174 1_555
Cu6 O32 2.126476 1_555
Cu6 O76 2.576022 1_555
Cu7 O71 1.913802 1_555
Cu7 O25 1.936843 1_555
Cu7 O61 2.049167 1_555
Cu7 O33 2.126470 1_555
Cu7 O77 2.576022 1_555
Cu8 O4 1.930530 1_555
Cu8 O29 1.954303 1_555
Cu8 O48 2.087071 1_555
Cu8 O44 2.129633 1_555
Cu8 O13 2.191490 1_455
Cu9 O5 1.930525 1_555
Cu9 O28 1.954309 1_555
Cu9 O49 2.087072 1_555
Cu9 O45 2.129630 1_555
Cu9 O12 2.191496 1_555
Cu10 O6 1.930525 1_555
Cu10 O31 1.954309 1_555
Cu10 O50 2.087072 1_555
Cu10 O46 2.129630 1_555
Cu10 O15 2.191496 1_655
Cu11 O7 1.930525 1_555
Cu11 O30 1.954309 1_555
Cu11 O51 2.087072 1_555
Cu11 O47 2.129630 1_555
Cu11 O14 2.191496 1_555
Cu12 O8 1.895134 1_555
Cu12 O29 1.944946 1_655
Cu12 O40 1.954128 1_555
Cu12 O13 2.004071 1_555
Cu13 O9 1.895139 1_555
Cu13 O28 1.944940 1_555
Cu13 O41 1.954133 1_555
Cu13 O12 2.004065 1_555
Cu14 O10 1.895134 1_555
Cu14 O31 1.944946 1_455
Cu14 O42 1.954128 1_555
Cu14 O15 2.004071 1_555
Cu15 O11 1.895139 1_555
Cu15 O30 1.944940 1_555
Cu15 O43 1.954133 1_555
Cu15 O14 2.004065 1_555
As0 O0 1.703622 1_555
As0 O12 1.728166 1_555
As0 O4 1.728194 1_555
As0 O8 1.732768 1_555
As1 O1 1.703622 1_555
As1 O13 1.728166 1_555
As1 O5 1.728200 1_655
As1 O9 1.732762 1_555
As2 O2 1.703622 1_555
As2 O14 1.728166 1_555
As2 O6 1.728194 1_555
As2 O10 1.732768 1_555
As3 O3 1.703622 1_555
As3 O15 1.728166 1_555
As3 O7 1.728200 1_455
As3 O11 1.732762 1_555
As4 O16 1.693161 1_555
As4 O20 1.717432 1_455
As4 O24 1.720972 1_555
As4 O29 1.761888 1_555
As5 O17 1.693178 1_555
As5 O21 1.717415 1_555
As5 O25 1.720955 1_555
As5 O28 1.761907 1_555
As6 O18 1.693178 1_555
As6 O22 1.717415 1_655
As6 O26 1.720955 1_555
As6 O31 1.761907 1_555
As7 O19 1.693178 1_555
As7 O23 1.717415 1_555
As7 O27 1.720955 1_555
As7 O30 1.761907 1_555
As8 O32 1.713551 1_555
As8 O36 1.725564 1_555
As8 O40 1.736270 1_555
As8 O44 1.750707 1_555
As9 O33 1.713552 1_555
As9 O37 1.725564 1_555
As9 O41 1.736270 1_455
As9 O45 1.750707 1_555
As10 O34 1.713551 1_555
As10 O38 1.725564 1_555
As10 O42 1.736270 1_555
As10 O46 1.750707 1_555
As11 O35 1.713552 1_555
As11 O39 1.725564 1_555
As11 O43 1.736270 1_655
As11 O47 1.750707 1_555
As12 O52 1.713049 1_555
As12 O48 1.726064 1_655
As12 O60 1.745839 1_655
As12 O56 1.751140 1_555
As13 O53 1.713057 1_555
As13 O49 1.726064 1_555
As13 O61 1.745841 1_555
As13 O57 1.751140 1_555
As14 O54 1.713049 1_555
As14 O50 1.726064 1_455
As14 O62 1.745839 1_455
As14 O58 1.751140 1_555
As15 O55 1.713057 1_555
As15 O51 1.726064 1_555
As15 O63 1.745841 1_555
As15 O59 1.751140 1_555
As16 O64 1.706272 1_556
As16 O76 1.726542 1_556
As16 O68 1.732380 1_555
As16 O72 1.742150 1_555
As17 O65 1.706272 1_455
As17 O77 1.726542 1_555
As17 O69 1.732380 1_455
As17 O73 1.742150 1_555
As18 O66 1.706272 1_554
As18 O78 1.726542 1_554
As18 O70 1.732380 1_555
As18 O74 1.742150 1_555
As19 O67 1.706272 1_655
As19 O79 1.726542 1_555
As19 O71 1.732380 1_655
As19 O75 1.742150 1_555
