# generated using pymatgen
data_Eu2ZnRh
_symmetry_space_group_name_H-M   'P 1'
_cell_length_a   5.10579038
_cell_length_b   5.10579038
_cell_length_c   5.10579038
_cell_angle_alpha   60.00000000
_cell_angle_beta   60.00000000
_cell_angle_gamma   60.00000000
_symmetry_Int_Tables_number   1
_chemical_formula_structural   Eu2ZnRh
_chemical_formula_sum   'Eu2 Zn1 Rh1'
_cell_volume   94.11827178
_cell_formula_units_Z   1
loop_
 _symmetry_equiv_pos_site_id
 _symmetry_equiv_pos_as_xyz
  1  'x, y, z'
loop_
 _atom_site_type_symbol
 _atom_site_label
 _atom_site_symmetry_multiplicity
 _atom_site_fract_x
 _atom_site_fract_y
 _atom_site_fract_z
 _atom_site_occupancy
  Eu  Eu0  1  0.25000000  0.25000000  0.25000000  1
  Eu  Eu1  1  0.75000000  0.75000000  0.75000000  1
  Zn  Zn0  1  0.00000000  0.00000000  0.00000000  1
  Rh  Rh0  1  0.50000000  0.50000000  0.50000000  1
loop_
_geom_bond_atom_site_label_1
_geom_bond_atom_site_label_2
_geom_bond_distance
_geom_bond_site_symmetry_2
Eu0 Zn0 3.126645 1_555
Eu0 Zn0 3.126645 1_556
Eu0 Rh0 3.126645 1_554
Eu0 Rh0 3.126645 1_555
Eu0 Rh0 3.126645 1_455
Eu0 Rh0 3.126645 1_545
Eu0 Zn0 3.126645 1_565
Eu0 Zn0 3.126645 1_655
Eu1 Zn0 3.126645 1_665
Eu1 Zn0 3.126645 1_666
Eu1 Rh0 3.126645 1_555
Eu1 Rh0 3.126645 1_556
Eu1 Zn0 3.126645 1_656
Eu1 Rh0 3.126645 1_655
Eu1 Zn0 3.126645 1_566
Eu1 Rh0 3.126645 1_565
