# generated using pymatgen
data_Li3(ZnSn2)2
_symmetry_space_group_name_H-M   'P 1'
_cell_length_a   4.49805703
_cell_length_b   4.49805703
_cell_length_c   22.14951598
_cell_angle_alpha   90.00000000
_cell_angle_beta   90.00000000
_cell_angle_gamma   120.00000165
_symmetry_Int_Tables_number   1
_chemical_formula_structural   Li3(ZnSn2)2
_chemical_formula_sum   'Li6 Zn4 Sn8'
_cell_volume   388.10101641
_cell_formula_units_Z   2
loop_
 _symmetry_equiv_pos_site_id
 _symmetry_equiv_pos_as_xyz
  1  'x, y, z'
loop_
 _atom_site_type_symbol
 _atom_site_label
 _atom_site_symmetry_multiplicity
 _atom_site_fract_x
 _atom_site_fract_y
 _atom_site_fract_z
 _atom_site_occupancy
  Li  Li0  1  0.33333300  0.66666700  0.25000000  1
  Li  Li1  1  0.66666700  0.33333300  0.75000000  1
  Li  Li2  1  0.33333300  0.66666700  0.39264266  1
  Li  Li3  1  0.66666700  0.33333300  0.60735734  1
  Li  Li4  1  0.66666700  0.33333300  0.89264266  1
  Li  Li5  1  0.33333300  0.66666700  0.10735734  1
  Zn  Zn0  1  0.33333300  0.66666700  0.84793010  1
  Zn  Zn1  1  0.66666700  0.33333300  0.15206990  1
  Zn  Zn2  1  0.66666700  0.33333300  0.34793010  1
  Zn  Zn3  1  0.33333300  0.66666700  0.65206990  1
  Sn  Sn0  1  0.33333300  0.66666700  0.97110150  1
  Sn  Sn1  1  0.66666700  0.33333300  0.02889850  1
  Sn  Sn2  1  0.66666700  0.33333300  0.47110150  1
  Sn  Sn3  1  0.33333300  0.66666700  0.52889850  1
  Sn  Sn4  1  -0.00000000  -0.00000000  0.31659148  1
  Sn  Sn5  1  -0.00000000  -0.00000000  0.68340852  1
  Sn  Sn6  1  -0.00000000  0.00000000  0.81659148  1
  Sn  Sn7  1  -0.00000000  -0.00000000  0.18340852  1
loop_
_geom_bond_atom_site_label_1
_geom_bond_atom_site_label_2
_geom_bond_distance
_geom_bond_site_symmetry_2
Li0 Sn4 2.986585 1_565
Li0 Sn7 2.986585 1_565
Li0 Sn4 2.986589 1_665
Li0 Sn4 2.986589 1_555
Li0 Sn7 2.986589 1_555
Li0 Sn7 2.986589 1_665
Li0 Li5 3.159466 1_555
Li0 Li2 3.159466 1_555
Li1 Sn6 2.986585 1_655
Li1 Sn5 2.986585 1_655
Li1 Sn6 2.986589 1_555
Li1 Sn5 2.986589 1_665
Li1 Sn5 2.986589 1_555
Li1 Sn6 2.986589 1_665
Li1 Li4 3.159466 1_555
Li1 Li3 3.159466 1_555
Li2 Zn2 2.779384 1_565
Li2 Zn2 2.779384 1_455
Li2 Zn2 2.779391 1_555
Li2 Sn3 3.018001 1_555
Li2 Sn4 3.095430 1_565
Li2 Sn4 3.095433 1_555
Li2 Sn4 3.095433 1_665
Li2 Sn2 3.124771 1_455
Li2 Sn2 3.124771 1_565
Li2 Sn2 3.124778 1_555
Li3 Zn3 2.779384 1_545
Li3 Zn3 2.779384 1_655
Li3 Zn3 2.779391 1_555
Li3 Sn2 3.018001 1_555
Li3 Sn5 3.095430 1_655
Li3 Sn5 3.095433 1_665
Li3 Sn5 3.095433 1_555
Li3 Sn3 3.124771 1_545
Li3 Sn3 3.124771 1_655
Li3 Sn3 3.124778 1_555
Li4 Zn0 2.779384 1_545
Li4 Zn0 2.779384 1_655
Li4 Zn0 2.779391 1_555
Li4 Sn1 3.018001 1_556
Li4 Sn6 3.095430 1_655
Li4 Sn6 3.095433 1_665
Li4 Sn6 3.095433 1_555
Li4 Sn0 3.124771 1_545
Li4 Sn0 3.124771 1_655
Li4 Sn0 3.124778 1_555
Li5 Zn1 2.779384 1_455
Li5 Zn1 2.779384 1_565
Li5 Zn1 2.779391 1_555
Li5 Sn0 3.018001 1_554
Li5 Sn7 3.095430 1_565
Li5 Sn7 3.095433 1_555
Li5 Sn7 3.095433 1_665
Li5 Sn1 3.124771 1_455
Li5 Sn1 3.124771 1_565
Li5 Sn1 3.124778 1_555
Sn0 Zn0 2.728187 1_555
Sn0 Sn1 2.895342 1_456
Sn0 Sn1 2.895342 1_566
Sn0 Sn1 2.895350 1_556
Sn1 Zn1 2.728187 1_555
Sn2 Zn2 2.728187 1_555
Sn2 Sn3 2.895342 1_545
Sn2 Sn3 2.895342 1_655
Sn2 Sn3 2.895350 1_555
Sn3 Zn3 2.728187 1_555
Sn4 Zn2 2.688119 1_455
Sn4 Zn2 2.688123 1_555
Sn4 Zn2 2.688123 1_445
Sn4 Sn7 2.949938 1_555
Sn5 Zn3 2.688119 1_545
Sn5 Zn3 2.688123 1_555
Sn5 Zn3 2.688123 1_445
Sn5 Sn6 2.949938 1_555
Sn6 Zn0 2.688119 1_545
Sn6 Zn0 2.688123 1_555
Sn6 Zn0 2.688123 1_445
Sn7 Zn1 2.688119 1_455
Sn7 Zn1 2.688123 1_555
Sn7 Zn1 2.688123 1_445
