# generated using pymatgen
data_La3BeGaS7
_symmetry_space_group_name_H-M   'P 1'
_cell_length_a   10.20292814
_cell_length_b   10.20292814
_cell_length_c   6.02996100
_cell_angle_alpha   90.00000000
_cell_angle_beta   90.00000000
_cell_angle_gamma   120.00000089
_symmetry_Int_Tables_number   1
_chemical_formula_structural   La3BeGaS7
_chemical_formula_sum   'La6 Be2 Ga2 S14'
_cell_volume   543.61919942
_cell_formula_units_Z   2
loop_
 _symmetry_equiv_pos_site_id
 _symmetry_equiv_pos_as_xyz
  1  'x, y, z'
loop_
 _atom_site_type_symbol
 _atom_site_label
 _atom_site_symmetry_multiplicity
 _atom_site_fract_x
 _atom_site_fract_y
 _atom_site_fract_z
 _atom_site_occupancy
  La  La0  1  0.60895400  0.86191100  0.25422100  1
  La  La1  1  0.13808900  0.74704300  0.25422100  1
  La  La2  1  0.25295700  0.39104600  0.25422100  1
  La  La3  1  0.39104600  0.13808900  0.75422100  1
  La  La4  1  0.86191100  0.25295700  0.75422100  1
  La  La5  1  0.74704300  0.60895400  0.75422100  1
  Be  Be0  1  0.33333300  0.66666700  0.84019800  1
  Be  Be1  1  0.66666700  0.33333300  0.34019800  1
  Ga  Ga0  1  0.00000000  0.00000000  0.49052000  1
  Ga  Ga1  1  0.00000000  0.00000000  0.99052000  1
  S  S0  1  0.77729700  0.92188200  0.72423500  1
  S  S1  1  0.07811800  0.85541400  0.72423500  1
  S  S2  1  0.14458600  0.22270300  0.72423500  1
  S  S3  1  0.22270300  0.07811800  0.22423500  1
  S  S4  1  0.92188200  0.14458600  0.22423500  1
  S  S5  1  0.85541400  0.77729700  0.22423500  1
  S  S6  1  0.48038600  0.59376500  0.97082200  1
  S  S7  1  0.40623500  0.88662200  0.97082200  1
  S  S8  1  0.11337800  0.51961400  0.97082200  1
  S  S9  1  0.51961400  0.40623500  0.47082200  1
  S  S10  1  0.59376500  0.11337800  0.47082200  1
  S  S11  1  0.88662200  0.48038600  0.47082200  1
  S  S12  1  0.33333300  0.66666700  0.48946500  1
  S  S13  1  0.66666700  0.33333300  0.98946500  1
loop_
_geom_bond_atom_site_label_1
_geom_bond_atom_site_label_2
_geom_bond_distance
_geom_bond_site_symmetry_2
La0 S7 2.789858 1_554
La0 S12 2.878657 1_555
La0 S6 2.921849 1_554
La0 S10 2.951327 1_565
La0 S5 3.045024 1_555
La0 S4 3.055538 1_565
La0 S0 3.210305 1_555
La0 S0 3.533647 1_554
La1 S8 2.789850 1_554
La1 S12 2.878650 1_555
La1 S7 2.921849 1_554
La1 S11 2.951332 1_455
La1 S3 3.045034 1_565
La1 S5 3.055544 1_455
La1 S1 3.210300 1_555
La1 S1 3.533643 1_554
La2 S6 2.789853 1_554
La2 S12 2.878659 1_555
La2 S8 2.921856 1_554
La2 S9 2.951336 1_555
La2 S4 3.045031 1_455
La2 S3 3.055534 1_555
La2 S2 3.210304 1_555
La2 S2 3.533647 1_554
La3 S10 2.789858 1_555
La3 S13 2.878657 1_555
La3 S9 2.921849 1_555
La3 S7 2.951327 1_545
La3 S2 3.045024 1_555
La3 S1 3.055538 1_545
La3 S3 3.210305 1_556
La3 S3 3.533647 1_555
La4 S11 2.789850 1_555
La4 S13 2.878650 1_555
La4 S10 2.921849 1_555
La4 S8 2.951332 1_655
La4 S0 3.045034 1_545
La4 S2 3.055544 1_655
La4 S4 3.210300 1_556
La4 S4 3.533643 1_555
La5 S9 2.789853 1_555
La5 S13 2.878659 1_555
La5 S11 2.921856 1_555
La5 S6 2.951336 1_555
La5 S1 3.045031 1_655
La5 S0 3.055534 1_555
La5 S5 3.210304 1_556
La5 S5 3.533647 1_555
Be0 S12 2.114906 1_555
Be0 S8 2.130909 1_555
Be0 S7 2.130909 1_555
Be0 S6 2.130909 1_555
Be1 S13 2.114906 1_554
Be1 S11 2.130909 1_555
Be1 S10 2.130909 1_555
Be1 S9 2.130909 1_555
Ga0 S0 2.444039 1_445
Ga0 S2 2.444040 1_555
Ga0 S1 2.444047 1_545
Ga0 S3 2.562315 1_555
Ga0 S5 2.562316 1_445
Ga0 S4 2.562322 1_455
Ga1 S3 2.444039 1_556
Ga1 S5 2.444040 1_446
Ga1 S4 2.444047 1_456
Ga1 S0 2.562315 1_445
Ga1 S2 2.562316 1_555
Ga1 S1 2.562322 1_545
