# generated using pymatgen
data_Li6Co6O5F11
_symmetry_space_group_name_H-M   'P 1'
_cell_length_a   6.01437000
_cell_length_b   6.04427717
_cell_length_c   10.41929096
_cell_angle_alpha   106.37696085
_cell_angle_beta   90.12135223
_cell_angle_gamma   119.78586151
_symmetry_Int_Tables_number   1
_chemical_formula_structural   Li6Co6O5F11
_chemical_formula_sum   'Li6 Co6 O5 F11'
_cell_volume   310.75854763
_cell_formula_units_Z   1
loop_
 _symmetry_equiv_pos_site_id
 _symmetry_equiv_pos_as_xyz
  1  'x, y, z'
loop_
 _atom_site_type_symbol
 _atom_site_label
 _atom_site_symmetry_multiplicity
 _atom_site_fract_x
 _atom_site_fract_y
 _atom_site_fract_z
 _atom_site_occupancy
  Li  Li0  1  0.75737000  0.37579700  0.87281300  1
  Li  Li1  1  0.36357900  0.18928900  0.44163100  1
  Li  Li2  1  0.00034100  0.50499600  0.50583500  1
  Li  Li3  1  0.75086000  0.86525400  0.37682000  1
  Li  Li4  1  0.37264600  0.43498000  0.19348200  1
  Li  Li5  1  0.00200000  0.01034400  0.99450800  1
  Co  Co0  1  0.39526800  0.92294900  0.68745200  1
  Co  Co1  1  0.40139900  0.68638300  0.91541500  1
  Co  Co2  1  0.86473200  0.43392700  0.18871400  1
  Co  Co3  1  0.83920800  0.92114500  0.68973900  1
  Co  Co4  1  0.38357700  0.45253200  0.68713100  1
  Co  Co5  1  0.39446400  0.96901500  0.17971700  1
  O  O0  1  0.61863400  0.57392100  0.81300200  1
  O  O1  1  0.59933400  0.03591600  0.81228600  1
  O  O2  1  0.15772100  0.57994900  0.80982600  1
  O  O3  1  0.60849700  0.28045300  0.08142100  1
  O  O4  1  0.61473500  0.81478700  0.57091500  1
  F  F0  1  0.13071700  0.06090100  0.79580800  1
  F  F1  1  0.13322700  0.83659200  0.57074500  1
  F  F2  1  0.60196100  0.29939500  0.56663000  1
  F  F3  1  0.61803000  0.53965200  0.30801700  1
  F  F4  1  0.14764000  0.06501400  0.30795200  1
  F  F5  1  0.61003500  0.06161400  0.31118400  1
  F  F6  1  0.13547300  0.80701200  0.06911500  1
  F  F7  1  0.14162800  0.59167600  0.29444300  1
  F  F8  1  0.12743500  0.29546000  0.56664800  1
  F  F9  1  0.13275800  0.33929500  0.06888800  1
  F  F10  1  0.59673500  0.80175600  0.06985900  1
loop_
_geom_bond_atom_site_label_1
_geom_bond_atom_site_label_2
_geom_bond_distance
_geom_bond_site_symmetry_2
Li0 O1 1.687705 1_555
Li0 O0 1.982429 1_555
Li0 O2 2.294026 1_655
Li0 O3 2.461718 1_556
Li3 O4 2.227088 1_555
Li4 O3 2.226233 1_555
Co0 O1 1.524519 1_565
Co0 F1 1.746881 1_555
Co0 O4 2.015078 1_555
Co0 F0 2.301382 1_565
Co0 O2 2.553554 1_555
Co1 O2 1.558670 1_555
Co1 F10 1.732413 1_556
Co1 O0 1.946013 1_555
Co1 O1 2.412886 1_565
Co1 F6 2.482986 1_556
Co2 O3 1.572519 1_555
Co2 F7 1.648763 1_655
Co2 F3 2.158001 1_555
Co2 F9 2.237494 1_655
Co3 O4 1.565428 1_555
Co3 F0 1.732843 1_665
Co3 O1 2.166927 1_565
Co4 O0 1.635823 1_555
Co4 F8 1.648370 1_555
Co4 O2 2.136386 1_555
Co4 F2 2.172035 1_555
Co5 F6 1.598079 1_555
Co5 F5 1.646134 1_565
Co5 F10 2.094622 1_555
Co5 F4 2.180048 1_565
Co5 O3 2.221437 1_565
F0 Li5 2.259956 1_555
F1 Li2 1.659838 1_555
F2 Li1 1.658325 1_555
F2 Li2 2.275632 1_655
F3 Li4 1.625302 1_555
F3 Li3 1.632548 1_555
F4 Li1 1.619901 1_555
F4 Li3 2.302322 1_445
F5 Li3 2.011878 1_545
F5 Li1 2.278932 1_555
F6 Li5 2.067706 1_564
F7 Li4 2.164693 1_555
F7 Li2 2.462551 1_555
F8 Li2 2.000521 1_555
F8 Li1 2.137207 1_555
F9 Li5 1.657496 1_554
F9 Li4 1.685534 1_555
F10 Li5 2.379095 1_664
