# generated using pymatgen
data_VO2
_symmetry_space_group_name_H-M   'P 1'
_cell_length_a   10.76466600
_cell_length_b   5.24356700
_cell_length_c   5.87755263
_cell_angle_alpha   87.14983399
_cell_angle_beta   90.00000000
_cell_angle_gamma   90.00000000
_symmetry_Int_Tables_number   1
_chemical_formula_structural   VO2
_chemical_formula_sum   'V8 O16'
_cell_volume   331.34951982
_cell_formula_units_Z   8
loop_
 _symmetry_equiv_pos_site_id
 _symmetry_equiv_pos_as_xyz
  1  'x, y, z'
loop_
 _atom_site_type_symbol
 _atom_site_label
 _atom_site_symmetry_multiplicity
 _atom_site_fract_x
 _atom_site_fract_y
 _atom_site_fract_z
 _atom_site_occupancy
  V  V0  1  0.50471000  0.00159700  0.25024900  1
  V  V1  1  0.99529000  0.00159700  0.25024900  1
  V  V2  1  0.49529000  0.99840300  0.74975100  1
  V  V3  1  0.00471000  0.99840300  0.74975100  1
  V  V4  1  0.50000000  0.50000000  0.50000000  1
  V  V5  1  0.00000000  0.50000000  0.00000000  1
  V  V6  1  0.50000000  0.50000000  0.00000000  1
  V  V7  1  0.00000000  0.50000000  0.50000000  1
  O  O0  1  0.59097700  0.66089600  0.25654100  1
  O  O1  1  0.90902300  0.66089600  0.25654100  1
  O  O2  1  0.40902300  0.33910400  0.74345900  1
  O  O3  1  0.09097700  0.33910400  0.74345900  1
  O  O4  1  0.41186100  0.33609200  0.24422300  1
  O  O5  1  0.08813900  0.33609200  0.24422300  1
  O  O6  1  0.58813900  0.66390800  0.75577700  1
  O  O7  1  0.91186100  0.66390800  0.75577700  1
  O  O8  1  0.41043800  0.83808600  0.49117500  1
  O  O9  1  0.08959500  0.83705500  0.99570600  1
  O  O10  1  0.58959500  0.16294500  0.00429400  1
  O  O11  1  0.91043800  0.16191400  0.50882500  1
  O  O12  1  0.58956200  0.16191400  0.50882500  1
  O  O13  1  0.91040500  0.16294500  0.00429400  1
  O  O14  1  0.41040500  0.83705500  0.99570600  1
  O  O15  1  0.08956200  0.83808600  0.49117500  1
loop_
_geom_bond_atom_site_label_1
_geom_bond_atom_site_label_2
_geom_bond_distance
_geom_bond_site_symmetry_2
O0 V4 1.896950 1_555
O0 V0 2.012139 1_565
O0 V6 2.017659 1_555
O1 V7 1.896950 1_655
O1 V1 2.012139 1_565
O1 V5 2.017659 1_655
O2 V4 1.896950 1_555
O2 V2 2.012139 1_545
O2 V6 2.017659 1_556
O3 V7 1.896950 1_555
O3 V3 2.012139 1_545
O3 V5 2.017659 1_556
O4 V6 1.891204 1_555
O4 V4 2.006840 1_555
O4 V0 2.017519 1_555
O5 V5 1.891204 1_555
O5 V7 2.006840 1_555
O5 V1 2.017519 1_455
O6 V6 1.891204 1_556
O6 V4 2.006840 1_555
O6 V2 2.017519 1_555
O7 V5 1.891204 1_656
O7 V7 2.006840 1_655
O7 V3 2.017519 1_655
O8 V0 1.910342 1_565
O8 V2 1.994442 1_555
O8 V4 2.016378 1_555
O9 V3 1.875875 1_555
O9 V5 2.012457 1_556
O9 V1 2.035094 1_466
O10 V0 1.875875 1_555
O10 V6 2.012457 1_555
O10 V2 2.035094 1_544
O11 V3 1.910342 1_645
O11 V1 1.994442 1_555
O11 V7 2.016378 1_655
O12 V2 1.910342 1_545
O12 V0 1.994442 1_555
O12 V4 2.016378 1_555
O13 V1 1.875875 1_555
O13 V5 2.012457 1_655
O13 V3 2.035094 1_644
O14 V2 1.875875 1_555
O14 V6 2.012457 1_556
O14 V0 2.035094 1_566
O15 V1 1.910342 1_465
O15 V3 1.994442 1_555
O15 V7 2.016378 1_555
