# generated using pymatgen
data_Gd11In9Ni4
_symmetry_space_group_name_H-M   'P 1'
_cell_length_a   3.66891500
_cell_length_b   13.10826185
_cell_length_c   13.10826185
_cell_angle_alpha   111.15375159
_cell_angle_beta   90.00000000
_cell_angle_gamma   90.00000000
_symmetry_Int_Tables_number   1
_chemical_formula_structural   Gd11In9Ni4
_chemical_formula_sum   'Gd11 In9 Ni4'
_cell_volume   587.93653323
_cell_formula_units_Z   1
loop_
 _symmetry_equiv_pos_site_id
 _symmetry_equiv_pos_as_xyz
  1  'x, y, z'
loop_
 _atom_site_type_symbol
 _atom_site_label
 _atom_site_symmetry_multiplicity
 _atom_site_fract_x
 _atom_site_fract_y
 _atom_site_fract_z
 _atom_site_occupancy
  Gd  Gd0  1  0.00000000  0.92422400  0.58219500  1
  Gd  Gd1  1  0.00000000  0.07577600  0.41780500  1
  Gd  Gd2  1  0.00000000  0.58219500  0.92422400  1
  Gd  Gd3  1  0.00000000  0.41780500  0.07577600  1
  Gd  Gd4  1  0.00000000  0.15729700  0.84270300  1
  Gd  Gd5  1  0.00000000  0.84270300  0.15729700  1
  Gd  Gd6  1  0.00000000  0.37419400  0.62580600  1
  Gd  Gd7  1  0.00000000  0.62580600  0.37419400  1
  Gd  Gd8  1  0.00000000  0.68798200  0.68798200  1
  Gd  Gd9  1  0.00000000  0.31201800  0.31201800  1
  Gd  Gd10  1  0.00000000  0.00000000  0.00000000  1
  In  In0  1  0.50000000  0.16189300  0.63309700  1
  In  In1  1  0.50000000  0.83810700  0.36690300  1
  In  In2  1  0.50000000  0.63309700  0.16189300  1
  In  In3  1  0.50000000  0.36690300  0.83810700  1
  In  In4  1  0.50000000  0.92201800  0.78032000  1
  In  In5  1  0.50000000  0.07798200  0.21968000  1
  In  In6  1  0.50000000  0.78032000  0.92201800  1
  In  In7  1  0.50000000  0.21968000  0.07798200  1
  In  In8  1  0.50000000  0.50000000  0.50000000  1
  Ni  Ni0  1  0.50000000  0.75650400  0.55073300  1
  Ni  Ni1  1  0.50000000  0.24349600  0.44926700  1
  Ni  Ni2  1  0.50000000  0.55073300  0.75650400  1
  Ni  Ni3  1  0.50000000  0.44926700  0.24349600  1
loop_
_geom_bond_atom_site_label_1
_geom_bond_atom_site_label_2
_geom_bond_distance
_geom_bond_site_symmetry_2
Gd0 Ni0 2.777480 1_555
Gd0 Ni0 2.777480 1_455
Gd0 In4 3.188270 1_455
Gd0 In4 3.188270 1_555
Gd0 In1 3.210066 1_455
Gd0 In1 3.210066 1_555
Gd0 In0 3.466413 1_465
Gd0 In0 3.466413 1_565
Gd1 Ni1 2.777480 1_455
Gd1 Ni1 2.777480 1_555
Gd1 In5 3.188270 1_455
Gd1 In5 3.188270 1_555
Gd1 In0 3.210066 1_455
Gd1 In0 3.210066 1_555
Gd1 In1 3.466413 1_445
Gd1 In1 3.466413 1_545
Gd2 Ni2 2.777480 1_455
Gd2 Ni2 2.777480 1_555
Gd2 In6 3.188270 1_455
Gd2 In6 3.188270 1_555
Gd2 In3 3.210066 1_455
Gd2 In3 3.210066 1_555
Gd2 In2 3.466413 1_556
Gd2 In2 3.466413 1_456
Gd3 Ni3 2.777480 1_455
Gd3 Ni3 2.777480 1_555
Gd3 In7 3.188270 1_455
Gd3 In7 3.188270 1_555
Gd3 In2 3.210066 1_455
Gd3 In2 3.210066 1_555
Gd3 In3 3.466413 1_554
Gd3 In3 3.466413 1_454
Gd4 In3 3.322270 1_455
Gd4 In3 3.322270 1_555
Gd4 In0 3.322270 1_455
Gd4 In0 3.322270 1_555
Gd4 In4 3.424233 1_445
Gd4 In4 3.424233 1_545
Gd4 In7 3.424233 1_556
Gd4 In7 3.424233 1_456
Gd5 In1 3.322270 1_455
Gd5 In1 3.322270 1_555
Gd5 In2 3.322270 1_555
Gd5 In2 3.322270 1_455
Gd5 In6 3.424233 1_554
Gd5 In6 3.424233 1_454
Gd5 In5 3.424233 1_565
Gd5 In5 3.424233 1_465
Gd6 Ni1 2.965483 1_455
Gd6 Ni1 2.965483 1_555
Gd6 Ni2 2.965483 1_455
Gd6 Ni2 2.965483 1_555
Gd6 In8 3.281323 1_555
Gd6 In8 3.281323 1_455
Gd6 In0 3.363160 1_455
Gd6 In0 3.363160 1_555
Gd6 In3 3.363160 1_555
Gd6 In3 3.363160 1_455
Gd7 Ni3 2.965483 1_455
Gd7 Ni3 2.965483 1_555
Gd7 Ni0 2.965483 1_555
Gd7 Ni0 2.965483 1_455
Gd7 In8 3.281323 1_555
Gd7 In8 3.281323 1_455
Gd7 In2 3.363160 1_455
Gd7 In2 3.363160 1_555
Gd7 In1 3.363160 1_555
Gd7 In1 3.363160 1_455
Gd8 Ni2 2.928320 1_455
Gd8 Ni0 2.928320 1_555
Gd8 Ni0 2.928320 1_455
Gd8 Ni2 2.928320 1_555
Gd8 In8 3.335663 1_455
Gd8 In8 3.335663 1_555
Gd8 In6 3.400250 1_555
Gd8 In4 3.400250 1_455
Gd8 In4 3.400250 1_555
Gd8 In6 3.400250 1_455
Gd9 Ni3 2.928320 1_455
Gd9 Ni3 2.928320 1_555
Gd9 Ni1 2.928320 1_455
Gd9 Ni1 2.928320 1_555
Gd9 In8 3.335663 1_455
Gd9 In8 3.335663 1_555
Gd9 In7 3.400250 1_455
Gd9 In5 3.400250 1_455
Gd9 In7 3.400250 1_555
Gd9 In5 3.400250 1_555
Gd10 In5 3.252363 1_555
Gd10 In4 3.252363 1_544
Gd10 In7 3.252363 1_455
Gd10 In4 3.252363 1_444
Gd10 In5 3.252363 1_455
Gd10 In6 3.252363 1_544
Gd10 In7 3.252363 1_555
Gd10 In6 3.252363 1_444
In0 Ni1 2.968362 1_555
In0 In3 3.038289 1_555
In1 Ni0 2.968362 1_555
In1 In2 3.038289 1_555
In2 Ni3 2.968362 1_555
In3 Ni2 2.968362 1_555
In4 Ni0 3.008593 1_555
In4 In6 3.064308 1_555
In5 Ni1 3.008593 1_555
In5 In7 3.064308 1_555
In6 Ni2 3.008593 1_555
In7 Ni3 3.008593 1_555
In8 Ni0 3.183336 1_555
In8 Ni2 3.183336 1_555
In8 Ni1 3.183336 1_555
In8 Ni3 3.183336 1_555
