# generated using pymatgen
data_RbTiNbO5
_symmetry_space_group_name_H-M   'P 1'
_cell_length_a   3.82873980
_cell_length_b   6.48290086
_cell_length_c   19.04841234
_cell_angle_alpha   90.00000000
_cell_angle_beta   90.00000000
_cell_angle_gamma   90.00000000
_symmetry_Int_Tables_number   1
_chemical_formula_structural   RbTiNbO5
_chemical_formula_sum   'Rb4 Ti4 Nb4 O20'
_cell_volume   472.80712948
_cell_formula_units_Z   4
loop_
 _symmetry_equiv_pos_site_id
 _symmetry_equiv_pos_as_xyz
  1  'x, y, z'
loop_
 _atom_site_type_symbol
 _atom_site_label
 _atom_site_symmetry_multiplicity
 _atom_site_fract_x
 _atom_site_fract_y
 _atom_site_fract_z
 _atom_site_occupancy
  Rb  Rb0  1  0.25000000  0.78475817  0.19349345  1
  Rb  Rb1  1  0.25000000  0.28475817  0.30650655  1
  Rb  Rb2  1  0.75000000  0.21524183  0.80650655  1
  Rb  Rb3  1  0.75000000  0.71524183  0.69349345  1
  Ti  Ti0  1  0.25000000  0.32182785  0.96728889  1
  Ti  Ti1  1  0.25000000  0.82182785  0.53271111  1
  Ti  Ti2  1  0.75000000  0.67817215  0.03271111  1
  Ti  Ti3  1  0.75000000  0.17817215  0.46728889  1
  Nb  Nb0  1  0.25000000  0.77456352  0.89352885  1
  Nb  Nb1  1  0.25000000  0.27456352  0.60647115  1
  Nb  Nb2  1  0.75000000  0.22543648  0.10647115  1
  Nb  Nb3  1  0.75000000  0.72543648  0.39352885  1
  O  O0  1  0.25000000  0.23597057  0.07605169  1
  O  O1  1  0.25000000  0.73597057  0.42394831  1
  O  O2  1  0.75000000  0.76402943  0.92394831  1
  O  O3  1  0.75000000  0.26402943  0.57605169  1
  O  O4  1  0.25000000  0.84327699  0.80180055  1
  O  O5  1  0.25000000  0.34327699  0.69819945  1
  O  O6  1  0.75000000  0.15672301  0.19819945  1
  O  O7  1  0.75000000  0.65672301  0.30180055  1
  O  O8  1  0.25000000  0.46791518  0.88304726  1
  O  O9  1  0.25000000  0.96791518  0.61695274  1
  O  O10  1  0.75000000  0.53208482  0.11695274  1
  O  O11  1  0.75000000  0.03208482  0.38304726  1
  O  O12  1  0.25000000  0.06911575  0.92954671  1
  O  O13  1  0.25000000  0.56911575  0.57045329  1
  O  O14  1  0.75000000  0.93088425  0.07045329  1
  O  O15  1  0.75000000  0.43088425  0.42954671  1
  O  O16  1  0.25000000  0.64210056  0.01024451  1
  O  O17  1  0.25000000  0.14210056  0.48975549  1
  O  O18  1  0.75000000  0.35789944  0.98975549  1
  O  O19  1  0.75000000  0.85789944  0.51024451  1
loop_
_geom_bond_atom_site_label_1
_geom_bond_atom_site_label_2
_geom_bond_distance
_geom_bond_site_symmetry_2
Nb0 O4 1.803169 1_555
Nb0 O8 1.997972 1_555
Nb0 O2 2.001307 1_455
Nb0 O2 2.001307 1_555
Nb0 O12 2.029064 1_565
Nb0 O16 2.383332 1_556
Nb1 O5 1.803169 1_555
Nb1 O9 1.997972 1_545
Nb1 O3 2.001307 1_455
Nb1 O3 2.001307 1_555
Nb1 O13 2.029064 1_555
Nb1 O17 2.383332 1_555
Nb2 O6 1.803169 1_555
Nb2 O10 1.997972 1_555
Nb2 O0 2.001307 1_555
Nb2 O0 2.001307 1_655
Nb2 O14 2.029064 1_545
Nb2 O18 2.383332 1_554
Nb3 O7 1.803169 1_555
Nb3 O11 1.997972 1_565
Nb3 O1 2.001307 1_555
Nb3 O1 2.001307 1_655
Nb3 O15 2.029064 1_555
Nb3 O19 2.383332 1_555
O0 Ti0 2.145225 1_554
O1 Ti1 2.145225 1_555
O2 Ti2 2.145225 1_556
O3 Ti3 2.145225 1_555
O4 Rb3 2.934292 1_555
O4 Rb3 2.934292 1_455
O4 Rb2 3.080219 1_565
O4 Rb2 3.080219 1_465
O5 Rb2 2.934292 1_555
O5 Rb2 2.934292 1_455
O5 Rb3 3.080219 1_555
O5 Rb3 3.080219 1_455
O6 Rb1 2.934292 1_655
O6 Rb1 2.934292 1_555
O6 Rb0 3.080219 1_545
O6 Rb0 3.080219 1_645
O7 Rb0 2.934292 1_655
O7 Rb0 2.934292 1_555
O7 Rb1 3.080219 1_555
O7 Rb1 3.080219 1_655
O8 Ti0 1.863305 1_555
O8 Rb2 2.910969 1_555
O8 Rb2 2.910969 1_455
O9 Ti1 1.863305 1_555
O9 Rb3 2.910969 1_555
O9 Rb3 2.910969 1_455
O10 Ti2 1.863305 1_555
O10 Rb0 2.910969 1_655
O10 Rb0 2.910969 1_555
O11 Ti3 1.863305 1_555
O11 Rb1 2.910969 1_655
O11 Rb1 2.910969 1_555
O12 Ti0 1.789109 1_555
O12 Rb2 3.171002 1_555
O12 Rb2 3.171002 1_455
O13 Ti1 1.789109 1_555
O13 Rb3 3.171002 1_555
O13 Rb3 3.171002 1_455
O14 Ti2 1.789109 1_555
O14 Rb0 3.171002 1_555
O14 Rb0 3.171002 1_655
O15 Ti3 1.789109 1_555
O15 Rb1 3.171002 1_555
O15 Rb1 3.171002 1_655
O16 Ti2 1.975510 1_555
O16 Ti2 1.975510 1_455
O16 Ti0 2.231707 1_554
O17 Ti3 1.975510 1_455
O17 Ti3 1.975510 1_555
O17 Ti1 2.231707 1_545
O18 Ti0 1.975510 1_555
O18 Ti0 1.975510 1_655
O18 Ti2 2.231707 1_556
O19 Ti1 1.975510 1_555
O19 Ti1 1.975510 1_655
O19 Ti3 2.231707 1_565
