# generated using pymatgen
data_Ti3CoS6
_symmetry_space_group_name_H-M   'P 1'
_cell_length_a   5.76006868
_cell_length_b   5.76006868
_cell_length_c   11.43788600
_cell_angle_alpha   90.00000000
_cell_angle_beta   90.00000000
_cell_angle_gamma   120.00000780
_symmetry_Int_Tables_number   1
_chemical_formula_structural   Ti3CoS6
_chemical_formula_sum   'Ti6 Co2 S12'
_cell_volume   328.64852285
_cell_formula_units_Z   2
loop_
 _symmetry_equiv_pos_site_id
 _symmetry_equiv_pos_as_xyz
  1  'x, y, z'
loop_
 _atom_site_type_symbol
 _atom_site_label
 _atom_site_symmetry_multiplicity
 _atom_site_fract_x
 _atom_site_fract_y
 _atom_site_fract_z
 _atom_site_occupancy
  Ti  Ti0  1  0.00000000  0.00000000  0.00000000  1
  Ti  Ti1  1  0.00000000  0.00000000  0.50000000  1
  Ti  Ti2  1  0.33333300  0.66666700  0.50501400  1
  Ti  Ti3  1  0.66666700  0.33333300  0.00501400  1
  Ti  Ti4  1  0.66666700  0.33333300  0.49498600  1
  Ti  Ti5  1  0.33333300  0.66666700  0.99498600  1
  Co  Co0  1  0.33333300  0.66666700  0.25000000  1
  Co  Co1  1  0.66666700  0.33333300  0.75000000  1
  S  S0  1  0.33043100  0.98837700  0.13138900  1
  S  S1  1  0.01162300  0.34205400  0.13138900  1
  S  S2  1  0.66956900  0.01162300  0.63138900  1
  S  S3  1  0.98837700  0.33043100  0.86861100  1
  S  S4  1  0.65794600  0.66956900  0.13138900  1
  S  S5  1  0.98837700  0.65794600  0.63138900  1
  S  S6  1  0.34205400  0.01162300  0.86861100  1
  S  S7  1  0.01162300  0.66956900  0.36861100  1
  S  S8  1  0.34205400  0.33043100  0.63138900  1
  S  S9  1  0.65794600  0.98837700  0.36861100  1
  S  S10  1  0.66956900  0.65794600  0.86861100  1
  S  S11  1  0.33043100  0.34205400  0.36861100  1
loop_
_geom_bond_atom_site_label_1
_geom_bond_atom_site_label_2
_geom_bond_distance
_geom_bond_site_symmetry_2
Co0 S7 2.303400 1_555
Co0 S0 2.303400 1_555
Co0 S9 2.303403 1_555
Co0 S1 2.303403 1_555
Co0 S4 2.303405 1_555
Co0 S11 2.303405 1_555
Co1 S3 2.303400 1_555
Co1 S2 2.303400 1_555
Co1 S6 2.303403 1_555
Co1 S5 2.303403 1_555
Co1 S10 2.303405 1_555
Co1 S8 2.303405 1_555
S0 Ti5 2.428834 1_554
S0 Ti3 2.437239 1_565
S0 Ti0 2.452126 1_565
S1 Ti5 2.428836 1_554
S1 Ti3 2.437237 1_455
S1 Ti0 2.452126 1_555
S2 Ti4 2.428834 1_555
S2 Ti2 2.437239 1_545
S2 Ti1 2.452126 1_655
S3 Ti3 2.428834 1_556
S3 Ti5 2.437239 1_655
S3 Ti0 2.452126 1_656
S4 Ti5 2.428838 1_554
S4 Ti3 2.437242 1_555
S4 Ti0 2.452126 1_665
S5 Ti4 2.428836 1_555
S5 Ti2 2.437237 1_655
S5 Ti1 2.452126 1_665
S6 Ti3 2.428836 1_556
S6 Ti5 2.437237 1_545
S6 Ti0 2.452126 1_556
S7 Ti2 2.428834 1_555
S7 Ti4 2.437239 1_455
S7 Ti1 2.452126 1_565
S8 Ti4 2.428838 1_555
S8 Ti2 2.437242 1_555
S8 Ti1 2.452126 1_555
S9 Ti2 2.428836 1_555
S9 Ti4 2.437237 1_565
S9 Ti1 2.452126 1_665
S10 Ti3 2.428838 1_556
S10 Ti5 2.437242 1_555
S10 Ti0 2.452126 1_666
S11 Ti2 2.428838 1_555
S11 Ti4 2.437242 1_555
S11 Ti1 2.452126 1_555
