# generated using pymatgen
data_PH6NO4
_symmetry_space_group_name_H-M   'P 1'
_cell_length_a   7.52329063
_cell_length_b   6.60115995
_cell_length_c   6.56302128
_cell_angle_alpha   69.70867979
_cell_angle_beta   55.38401115
_cell_angle_gamma   54.90730907
_symmetry_Int_Tables_number   1
_chemical_formula_structural   PH6NO4
_chemical_formula_sum   'P2 H12 N2 O8'
_cell_volume   219.37955043
_cell_formula_units_Z   2
loop_
 _symmetry_equiv_pos_site_id
 _symmetry_equiv_pos_as_xyz
  1  'x, y, z'
loop_
 _atom_site_type_symbol
 _atom_site_label
 _atom_site_symmetry_multiplicity
 _atom_site_fract_x
 _atom_site_fract_y
 _atom_site_fract_z
 _atom_site_occupancy
  P  P0  1  0.24085600  0.25914400  0.25914400  1
  P  P1  1  0.99085600  0.00914400  0.00914400  1
  H  H0  1  0.84409000  0.56009800  0.78652900  1
  H  H1  1  0.40867800  0.46339700  0.68707100  1
  H  H2  1  0.80928200  0.78652900  0.56009800  1
  H  H3  1  0.44085400  0.68707100  0.46339700  1
  H  H4  1  0.56292900  0.80914600  0.84132200  1
  H  H5  1  0.68990200  0.40591000  0.44071800  1
  H  H6  1  0.78660300  0.84132200  0.80914600  1
  H  H7  1  0.46347100  0.44071800  0.40591000  1
  H  H8  1  0.59703800  0.98598600  0.26997200  1
  H  H9  1  0.14700400  0.26997200  0.98598600  1
  H  H10  1  0.26401400  0.65296200  0.10299600  1
  H  H11  1  0.98002800  0.10299600  0.65296200  1
  N  N0  1  0.75138100  0.74861900  0.74861900  1
  N  N1  1  0.50138100  0.49861900  0.49861900  1
  O  O0  1  0.44708400  0.98901700  0.28529900  1
  O  O1  1  0.80113500  0.96370000  0.26236600  1
  O  O2  1  0.27860000  0.28529900  0.98901700  1
  O  O3  1  0.97279800  0.26236600  0.96370000  1
  O  O4  1  0.98763400  0.27720200  0.44886500  1
  O  O5  1  0.26098300  0.80291600  0.97140000  1
  O  O6  1  0.28630000  0.44886500  0.27720200  1
  O  O7  1  0.96470100  0.97140000  0.80291600  1
loop_
_geom_bond_atom_site_label_1
_geom_bond_atom_site_label_2
_geom_bond_distance
_geom_bond_site_symmetry_2
H0 N0 1.039930 1_555
H1 N1 1.037855 1_555
H2 N0 1.039931 1_555
H3 N1 1.037855 1_555
H4 N0 1.037855 1_555
H5 N1 1.039932 1_555
H6 N0 1.037855 1_555
H7 N1 1.039925 1_555
H8 O0 1.062895 1_555
H8 O1 1.428327 1_555
H9 O2 1.062895 1_555
H9 O3 1.428334 1_455
H10 O5 1.062895 1_554
H10 O6 1.428330 1_555
H11 O7 1.062895 1_545
H11 O4 1.428330 1_555
O0 P0 1.589199 1_565
O1 P1 1.529926 1_565
O2 P0 1.589199 1_556
O3 P1 1.529922 1_556
O4 P0 1.529923 1_655
O5 P1 1.589199 1_466
O6 P0 1.529929 1_555
O7 P1 1.589199 1_566
