# generated using pymatgen
data_CrGa3(FeSe4)2
_symmetry_space_group_name_H-M   'P 1'
_cell_length_a   3.83821300
_cell_length_b   6.72011100
_cell_length_c   13.29181461
_cell_angle_alpha   80.27465938
_cell_angle_beta   90.00000000
_cell_angle_gamma   90.00000000
_symmetry_Int_Tables_number   1
_chemical_formula_structural   CrGa3(FeSe4)2
_chemical_formula_sum   'Cr1 Ga3 Fe2 Se8'
_cell_volume   337.91167936
_cell_formula_units_Z   1
loop_
 _symmetry_equiv_pos_site_id
 _symmetry_equiv_pos_as_xyz
  1  'x, y, z'
loop_
 _atom_site_type_symbol
 _atom_site_label
 _atom_site_symmetry_multiplicity
 _atom_site_fract_x
 _atom_site_fract_y
 _atom_site_fract_z
 _atom_site_occupancy
  Cr  Cr0  1  0.00000000  0.76169700  0.70656100  1
  Ga  Ga0  1  0.00000000  0.99556600  0.00174200  1
  Ga  Ga1  1  0.50000000  0.50273900  0.00183200  1
  Ga  Ga2  1  0.50000000  0.26596000  0.70343900  1
  Fe  Fe0  1  0.50000000  0.73522200  0.29126500  1
  Fe  Fe1  1  0.00000000  0.23682000  0.29030500  1
  Se  Se0  1  0.50000000  0.62526100  0.62724900  1
  Se  Se1  1  0.00000000  0.12469600  0.62512100  1
  Se  Se2  1  0.50000000  0.38058300  0.36319500  1
  Se  Se3  1  0.00000000  0.87986800  0.36254200  1
  Se  Se4  1  0.50000000  0.20519600  0.89152100  1
  Se  Se5  1  0.00000000  0.70303100  0.89231100  1
  Se  Se6  1  0.50000000  0.79673300  0.11023600  1
  Se  Se7  1  0.00000000  0.29462800  0.10868200  1
loop_
_geom_bond_atom_site_label_1
_geom_bond_atom_site_label_2
_geom_bond_distance
_geom_bond_site_symmetry_2
Cr0 Se5 2.433580 1_555
Cr0 Se0 2.441619 1_455
Cr0 Se0 2.441619 1_555
Cr0 Se1 2.496054 1_565
Ga0 Se6 2.626204 1_455
Ga0 Se6 2.626204 1_555
Ga0 Se5 2.635597 1_554
Ga0 Se7 2.650396 1_565
Ga0 Se4 2.667690 1_564
Ga0 Se4 2.667690 1_464
Ga1 Se6 2.634615 1_555
Ga1 Se5 2.636630 1_654
Ga1 Se5 2.636630 1_554
Ga1 Se7 2.642888 1_655
Ga1 Se7 2.642888 1_555
Ga1 Se4 2.671784 1_554
Ga2 Se1 2.449834 1_555
Ga2 Se1 2.449834 1_655
Ga2 Se0 2.455497 1_555
Ga2 Se4 2.464063 1_555
Fe0 Se6 2.371634 1_555
Fe0 Se2 2.413294 1_555
Fe0 Se3 2.415890 1_555
Fe0 Se3 2.415890 1_655
Fe1 Se7 2.379484 1_555
Fe1 Se2 2.423057 1_455
Fe1 Se2 2.423057 1_555
Fe1 Se3 2.428541 1_545
