# generated using pymatgen
data_Mg14ZrSn
_symmetry_space_group_name_H-M   'P 1'
_cell_length_a   6.35302091
_cell_length_b   6.35302040
_cell_length_c   10.43339395
_cell_angle_alpha   90.00000000
_cell_angle_beta   90.00000000
_cell_angle_gamma   120.00000269
_symmetry_Int_Tables_number   1
_chemical_formula_structural   Mg14ZrSn
_chemical_formula_sum   'Mg14 Zr1 Sn1'
_cell_volume   364.68404289
_cell_formula_units_Z   1
loop_
 _symmetry_equiv_pos_site_id
 _symmetry_equiv_pos_as_xyz
  1  'x, y, z'
loop_
 _atom_site_type_symbol
 _atom_site_label
 _atom_site_symmetry_multiplicity
 _atom_site_fract_x
 _atom_site_fract_y
 _atom_site_fract_z
 _atom_site_occupancy
  Mg  Mg0  1  0.17245087  0.83622493  0.12500000  1
  Mg  Mg1  1  0.16436997  0.83218449  0.62500000  1
  Mg  Mg2  1  0.66377507  0.32754913  0.12500000  1
  Mg  Mg3  1  0.66781551  0.33563003  0.62500000  1
  Mg  Mg4  1  0.66377507  0.83622493  0.12500000  1
  Mg  Mg5  1  0.66781551  0.83218449  0.62500000  1
  Mg  Mg6  1  0.32887985  0.17112015  0.37138328  1
  Mg  Mg7  1  0.32887985  0.17112015  0.87861672  1
  Mg  Mg8  1  0.32887985  0.65776070  0.37138328  1
  Mg  Mg9  1  0.32887985  0.65776070  0.87861672  1
  Mg  Mg10  1  0.84223930  0.17112015  0.37138328  1
  Mg  Mg11  1  0.84223930  0.17112015  0.87861672  1
  Mg  Mg12  1  0.83333300  0.66666700  0.36764976  1
  Mg  Mg13  1  0.83333300  0.66666700  0.88235024  1
  Zr  Zr0  1  0.16666700  0.33333300  0.12500000  1
  Sn  Sn0  1  0.16666700  0.33333300  0.62500000  1
loop_
_geom_bond_atom_site_label_1
_geom_bond_atom_site_label_2
_geom_bond_distance
_geom_bond_site_symmetry_2
Mg0 Mg2 3.121393 1_565
Mg0 Mg4 3.121393 1_555
Mg0 Mg12 3.144910 1_455
Mg0 Mg13 3.144910 1_454
Mg0 Mg8 3.163529 1_555
Mg0 Mg9 3.163529 1_554
Mg0 Mg7 3.163535 1_564
Mg0 Mg6 3.163535 1_565
Mg0 Zr0 3.176670 1_555
Mg0 Zr0 3.176670 1_565
Mg0 Mg2 3.231628 1_455
Mg0 Mg4 3.231628 1_455
Mg1 Mg3 3.154621 1_455
Mg1 Mg5 3.154621 1_455
Mg1 Sn0 3.176535 1_565
Mg1 Sn0 3.176535 1_555
Mg1 Mg3 3.198400 1_565
Mg1 Mg5 3.198400 1_555
Mg1 Mg9 3.237301 1_555
Mg1 Mg8 3.237301 1_555
Mg1 Mg6 3.237308 1_565
Mg1 Mg7 3.237308 1_565
Mg1 Mg13 3.244479 1_455
Mg1 Mg12 3.244479 1_455
Mg2 Mg4 3.121393 1_545
Mg2 Mg7 3.163535 1_554
Mg2 Mg6 3.163535 1_555
Mg2 Zr0 3.176670 1_655
Mg2 Zr0 3.176670 1_555
Mg2 Mg4 3.231628 1_555
Mg3 Mg5 3.154621 1_555
Mg3 Sn0 3.176536 1_555
Mg3 Sn0 3.176536 1_655
Mg3 Mg5 3.198400 1_545
Mg3 Mg7 3.237308 1_555
Mg3 Mg6 3.237308 1_555
Mg4 Mg9 3.163535 1_554
Mg4 Mg8 3.163535 1_555
Mg4 Zr0 3.176670 1_555
Mg4 Zr0 3.176670 1_665
Mg5 Sn0 3.176535 1_665
Mg5 Sn0 3.176535 1_555
Mg5 Mg8 3.237308 1_555
Mg5 Mg9 3.237308 1_555
Mg6 Mg8 3.091637 1_555
Mg6 Zr0 3.129553 1_555
Mg6 Sn0 3.191834 1_555
Mg6 Mg8 3.261383 1_545
Mg7 Mg9 3.091637 1_555
Mg7 Zr0 3.129553 1_556
Mg7 Sn0 3.191834 1_555
Mg7 Mg9 3.261383 1_545
Mg8 Zr0 3.129559 1_555
Mg8 Sn0 3.191840 1_555
Mg9 Zr0 3.129559 1_556
Mg9 Sn0 3.191840 1_555
Mg10 Mg8 3.091637 1_655
Mg10 Mg6 3.091638 1_655
Mg10 Zr0 3.129560 1_655
Mg10 Mg2 3.163529 1_555
Mg10 Mg4 3.163535 1_545
Mg10 Mg12 3.177127 1_545
Mg10 Mg12 3.177127 1_555
Mg10 Sn0 3.191840 1_655
Mg10 Mg3 3.237301 1_555
Mg10 Mg5 3.237308 1_545
Mg10 Mg8 3.261383 1_545
Mg10 Mg6 3.261383 1_555
Mg11 Mg9 3.091637 1_655
Mg11 Mg7 3.091638 1_655
Mg11 Zr0 3.129560 1_656
Mg11 Mg2 3.163529 1_556
Mg11 Mg4 3.163535 1_546
Mg11 Mg13 3.177127 1_545
Mg11 Mg13 3.177127 1_555
Mg11 Sn0 3.191840 1_655
Mg11 Mg3 3.237301 1_555
Mg11 Mg5 3.237308 1_545
Mg11 Mg9 3.261383 1_545
Mg11 Mg7 3.261383 1_555
Mg12 Mg4 3.144903 1_555
Mg12 Mg2 3.144910 1_555
Mg12 Mg6 3.177127 1_665
Mg12 Mg6 3.177127 1_555
Mg12 Mg8 3.177127 1_555
Mg12 Mg8 3.177127 1_655
Mg12 Mg5 3.244473 1_555
Mg12 Mg3 3.244479 1_555
Mg13 Mg4 3.144903 1_556
Mg13 Mg2 3.144910 1_556
Mg13 Mg7 3.177127 1_665
Mg13 Mg7 3.177127 1_555
Mg13 Mg9 3.177127 1_555
Mg13 Mg9 3.177127 1_655
Mg13 Mg5 3.244473 1_555
Mg13 Mg3 3.244479 1_555
