# generated using pymatgen
data_SrEuNbBiO6
_symmetry_space_group_name_H-M   'P 1'
_cell_length_a   6.08108586
_cell_length_b   6.08108586
_cell_length_c   6.08108586
_cell_angle_alpha   60.00000000
_cell_angle_beta   60.00000000
_cell_angle_gamma   60.00000000
_symmetry_Int_Tables_number   1
_chemical_formula_structural   SrEuNbBiO6
_chemical_formula_sum   'Sr1 Eu1 Nb1 Bi1 O6'
_cell_volume   159.01145394
_cell_formula_units_Z   1
loop_
 _symmetry_equiv_pos_site_id
 _symmetry_equiv_pos_as_xyz
  1  'x, y, z'
loop_
 _atom_site_type_symbol
 _atom_site_label
 _atom_site_symmetry_multiplicity
 _atom_site_fract_x
 _atom_site_fract_y
 _atom_site_fract_z
 _atom_site_occupancy
  Sr  Sr0  1  0.25000000  0.25000000  0.25000000  1
  Eu  Eu0  1  0.75000000  0.75000000  0.75000000  1
  Nb  Nb0  1  0.50000000  0.50000000  0.50000000  1
  Bi  Bi0  1  0.00000000  -0.00000000  -0.00000000  1
  O  O0  1  0.73321771  0.26678229  0.26678229  1
  O  O1  1  0.26678229  0.73321771  0.73321771  1
  O  O2  1  0.73321771  0.26678229  0.73321771  1
  O  O3  1  0.26678229  0.73321771  0.26678229  1
  O  O4  1  0.73321771  0.73321771  0.26678229  1
  O  O5  1  0.26678229  0.26678229  0.73321771  1
loop_
_geom_bond_atom_site_label_1
_geom_bond_atom_site_label_2
_geom_bond_distance
_geom_bond_site_symmetry_2
Eu0 O4 3.043966 1_555
Eu0 O0 3.043966 1_556
Eu0 O1 3.043966 1_555
Eu0 O4 3.043966 1_556
Eu0 O0 3.043966 1_565
Eu0 O3 3.043966 1_655
Eu0 O5 3.043966 1_655
Eu0 O5 3.043966 1_565
Eu0 O2 3.043966 1_555
Eu0 O3 3.043966 1_556
Eu0 O1 3.043966 1_655
Eu0 O2 3.043966 1_565
Nb0 O4 2.005662 1_555
Nb0 O1 2.005662 1_555
Nb0 O3 2.005662 1_555
Nb0 O5 2.005662 1_555
Nb0 O2 2.005662 1_555
Nb0 O0 2.005662 1_555
Bi0 O3 2.294315 1_545
Bi0 O2 2.294315 1_454
Bi0 O4 2.294315 1_445
Bi0 O5 2.294315 1_554
Bi0 O1 2.294315 1_544
Bi0 O0 2.294315 1_455
O0 Sr0 3.043966 1_655
O0 Sr0 3.043966 1_555
O1 Sr0 3.043966 1_556
O1 Sr0 3.043966 1_565
O2 Sr0 3.043966 1_556
O2 Sr0 3.043966 1_655
O3 Sr0 3.043966 1_565
O3 Sr0 3.043966 1_555
O4 Sr0 3.043966 1_565
O4 Sr0 3.043966 1_655
O5 Sr0 3.043966 1_555
O5 Sr0 3.043966 1_556
