# generated using pymatgen
data_KCrP2O7
_symmetry_space_group_name_H-M   'P 1'
_cell_length_a   10.08805400
_cell_length_b   7.47541100
_cell_length_c   8.31650703
_cell_angle_alpha   73.00876254
_cell_angle_beta   90.00000000
_cell_angle_gamma   90.00000000
_symmetry_Int_Tables_number   1
_chemical_formula_structural   KCrP2O7
_chemical_formula_sum   'K4 Cr4 P8 O28'
_cell_volume   599.79114409
_cell_formula_units_Z   4
loop_
 _symmetry_equiv_pos_site_id
 _symmetry_equiv_pos_as_xyz
  1  'x, y, z'
loop_
 _atom_site_type_symbol
 _atom_site_label
 _atom_site_symmetry_multiplicity
 _atom_site_fract_x
 _atom_site_fract_y
 _atom_site_fract_z
 _atom_site_occupancy
  K  K0  1  0.67775400  0.32265800  0.55720000  1
  K  K1  1  0.17775400  0.67734200  0.94280000  1
  K  K2  1  0.32224600  0.67734200  0.44280000  1
  K  K3  1  0.82224600  0.32265800  0.05720000  1
  Cr  Cr0  1  0.89890600  0.73670600  0.23925000  1
  Cr  Cr1  1  0.39890600  0.26329400  0.26075000  1
  Cr  Cr2  1  0.10109400  0.26329400  0.76075000  1
  Cr  Cr3  1  0.60109400  0.73670600  0.73925000  1
  P  P0  1  0.63510900  0.93855100  0.30777900  1
  P  P1  1  0.13510900  0.06144900  0.19222100  1
  P  P2  1  0.36489100  0.06144900  0.69222100  1
  P  P3  1  0.86489100  0.93855100  0.80777900  1
  P  P4  1  0.59765400  0.63036600  0.16958400  1
  P  P5  1  0.09765400  0.36963400  0.33041600  1
  P  P6  1  0.40234600  0.36963400  0.83041600  1
  P  P7  1  0.90234600  0.63036600  0.66958400  1
  O  O0  1  0.59321900  0.64106500  0.98648200  1
  O  O1  1  0.09321900  0.35893500  0.51351800  1
  O  O2  1  0.40678100  0.35893500  0.01351800  1
  O  O3  1  0.90678100  0.64106500  0.48648200  1
  O  O4  1  0.76393300  0.58014300  0.74852400  1
  O  O5  1  0.26393300  0.41985700  0.75147600  1
  O  O6  1  0.23606700  0.41985700  0.25147600  1
  O  O7  1  0.73606700  0.58014300  0.24852400  1
  O  O8  1  0.50298000  0.50594100  0.72107900  1
  O  O9  1  0.00298000  0.49405900  0.77892100  1
  O  O10  1  0.49702000  0.49405900  0.27892100  1
  O  O11  1  0.99702000  0.50594100  0.22107900  1
  O  O12  1  0.55780100  0.83482600  0.18656800  1
  O  O13  1  0.05780100  0.16517400  0.31343200  1
  O  O14  1  0.44219900  0.16517400  0.81343200  1
  O  O15  1  0.94219900  0.83482600  0.68656800  1
  O  O16  1  0.71766100  0.95150800  0.75546100  1
  O  O17  1  0.21766100  0.04849200  0.74453900  1
  O  O18  1  0.28233900  0.04849200  0.24453900  1
  O  O19  1  0.78233900  0.95150800  0.25546100  1
  O  O20  1  0.92214000  0.13634100  0.76250800  1
  O  O21  1  0.42214000  0.86365900  0.73749200  1
  O  O22  1  0.07786000  0.86365900  0.23749200  1
  O  O23  1  0.57786000  0.13634100  0.26250800  1
  O  O24  1  0.89493700  0.81896600  0.98602600  1
  O  O25  1  0.39493700  0.18103400  0.51397400  1
  O  O26  1  0.10506300  0.18103400  0.01397400  1
  O  O27  1  0.60506300  0.81896600  0.48602600  1
loop_
_geom_bond_atom_site_label_1
_geom_bond_atom_site_label_2
_geom_bond_distance
_geom_bond_site_symmetry_2
K0 O7 2.784437 1_555
K0 O16 2.811565 1_545
K0 O8 2.816861 1_555
K0 O10 2.930686 1_555
K0 O4 2.963514 1_555
K0 O20 3.089247 1_555
K0 O25 3.100409 1_555
K0 O14 3.179224 1_555
K0 O3 3.245199 1_555
K0 O23 3.310118 1_555
K1 O6 2.784437 1_556
K1 O17 2.811565 1_565
K1 O9 2.816861 1_555
K1 O11 2.930686 1_456
K1 O5 2.963514 1_555
K1 O21 3.089247 1_555
K1 O24 3.100409 1_455
K1 O15 3.179224 1_455
K1 O2 3.245199 1_556
K1 O22 3.310118 1_556
K2 O5 2.784437 1_555
K2 O18 2.811565 1_565
K2 O10 2.816861 1_555
K2 O8 2.930686 1_555
K2 O6 2.963514 1_555
K2 O22 3.089247 1_555
K2 O27 3.100409 1_555
K2 O12 3.179224 1_555
K2 O1 3.245199 1_555
K2 O21 3.310118 1_555
K3 O4 2.784437 1_554
K3 O19 2.811565 1_545
K3 O11 2.816861 1_555
K3 O9 2.930686 1_654
K3 O7 2.963514 1_555
K3 O23 3.089247 1_555
K3 O26 3.100409 1_655
K3 O13 3.179224 1_655
K3 O0 3.245199 1_554
K3 O20 3.310118 1_554
Cr0 O3 1.971266 1_555
Cr0 O7 2.005373 1_555
Cr0 O24 2.014412 1_554
Cr0 O19 2.026302 1_555
Cr0 O11 2.032413 1_555
Cr0 O22 2.037610 1_655
Cr1 O2 1.971266 1_555
Cr1 O6 2.005373 1_555
Cr1 O25 2.014412 1_555
Cr1 O18 2.026302 1_555
Cr1 O10 2.032413 1_555
Cr1 O23 2.037610 1_555
Cr2 O1 1.971266 1_555
Cr2 O5 2.005373 1_555
Cr2 O26 2.014412 1_556
Cr2 O17 2.026302 1_555
Cr2 O9 2.032413 1_555
Cr2 O20 2.037610 1_455
Cr3 O0 1.971266 1_555
Cr3 O4 2.005373 1_555
Cr3 O27 2.014412 1_555
Cr3 O16 2.026302 1_555
Cr3 O8 2.032413 1_555
Cr3 O21 2.037610 1_555
O0 P4 1.502013 1_556
O1 P5 1.502013 1_555
O2 P6 1.502013 1_554
O3 P7 1.502013 1_555
O4 P7 1.541948 1_555
O5 P6 1.541948 1_555
O6 P5 1.541948 1_555
O7 P4 1.541948 1_555
O8 P6 1.534344 1_555
O9 P7 1.534344 1_455
O10 P4 1.534344 1_555
O11 P5 1.534344 1_655
O12 P4 1.625988 1_555
O12 P0 1.637817 1_555
O13 P5 1.625988 1_555
O13 P1 1.637817 1_555
O14 P6 1.625988 1_555
O14 P2 1.637817 1_555
O15 P7 1.625988 1_555
O15 P3 1.637817 1_555
O16 P3 1.542749 1_555
O17 P2 1.542749 1_555
O18 P1 1.542749 1_555
O19 P0 1.542749 1_555
O20 P3 1.528427 1_545
O21 P2 1.528427 1_565
O22 P1 1.528427 1_565
O23 P0 1.528427 1_545
O24 P3 1.521183 1_555
O25 P2 1.521183 1_555
O26 P1 1.521183 1_555
O27 P0 1.521183 1_555
