# generated using pymatgen
data_MgMn2O4
_symmetry_space_group_name_H-M   'P 1'
_cell_length_a   5.15062800
_cell_length_b   6.02677300
_cell_length_c   11.76891518
_cell_angle_alpha   60.93303958
_cell_angle_beta   90.00000000
_cell_angle_gamma   90.00000000
_symmetry_Int_Tables_number   1
_chemical_formula_structural   MgMn2O4
_chemical_formula_sum   'Mg4 Mn8 O16'
_cell_volume   319.31475113
_cell_formula_units_Z   4
loop_
 _symmetry_equiv_pos_site_id
 _symmetry_equiv_pos_as_xyz
  1  'x, y, z'
loop_
 _atom_site_type_symbol
 _atom_site_label
 _atom_site_symmetry_multiplicity
 _atom_site_fract_x
 _atom_site_fract_y
 _atom_site_fract_z
 _atom_site_occupancy
  Mg  Mg0  1  0.14868300  0.00000000  0.25000000  1
  Mg  Mg1  1  0.85131700  0.00000000  0.75000000  1
  Mg  Mg2  1  0.51130800  0.50000000  0.75000000  1
  Mg  Mg3  1  0.48869200  0.50000000  0.25000000  1
  Mn  Mn0  1  0.48839300  0.76533400  0.98444300  1
  Mn  Mn1  1  0.48839300  0.23466600  0.51555700  1
  Mn  Mn2  1  0.51160700  0.23466600  0.01555700  1
  Mn  Mn3  1  0.51160700  0.76533400  0.48444300  1
  Mn  Mn4  1  0.00000000  0.50000000  0.00000000  1
  Mn  Mn5  1  0.00000000  0.50000000  0.50000000  1
  Mn  Mn6  1  0.00000000  0.00000000  0.00000000  1
  Mn  Mn7  1  0.00000000  0.00000000  0.50000000  1
  O  O0  1  0.14191200  0.84305300  0.89841700  1
  O  O1  1  0.14191200  0.15694700  0.60158300  1
  O  O2  1  0.85808800  0.15694700  0.10158300  1
  O  O3  1  0.85808800  0.84305300  0.39841700  1
  O  O4  1  0.76553000  0.64946700  0.10328200  1
  O  O5  1  0.76553000  0.35053300  0.39671800  1
  O  O6  1  0.23447000  0.35053300  0.89671800  1
  O  O7  1  0.23447000  0.64946700  0.60328200  1
  O  O8  1  0.31811700  0.36534500  0.11866900  1
  O  O9  1  0.31811700  0.63465500  0.38133100  1
  O  O10  1  0.69082000  0.12766800  0.88782700  1
  O  O11  1  0.69082000  0.87233200  0.61217300  1
  O  O12  1  0.68188300  0.63465500  0.88133100  1
  O  O13  1  0.68188300  0.36534500  0.61866900  1
  O  O14  1  0.30918000  0.87233200  0.11217300  1
  O  O15  1  0.30918000  0.12766800  0.38782700  1
loop_
_geom_bond_atom_site_label_1
_geom_bond_atom_site_label_2
_geom_bond_distance
_geom_bond_site_symmetry_2
Mg0 O2 2.140226 1_455
Mg0 O3 2.140226 1_445
Mg0 O8 2.166079 1_555
Mg0 O9 2.166079 1_545
Mg0 O15 2.262567 1_555
Mg0 O14 2.262567 1_545
Mg1 O0 2.140226 1_645
Mg1 O1 2.140226 1_655
Mg1 O13 2.166079 1_555
Mg1 O12 2.166079 1_545
Mg1 O11 2.262567 1_545
Mg1 O10 2.262567 1_555
Mg2 O6 2.077207 1_555
Mg2 O7 2.077207 1_555
Mg2 O10 2.232631 1_555
Mg2 O11 2.232631 1_555
Mg2 O13 2.244595 1_555
Mg2 O12 2.244595 1_555
Mg3 O5 2.077207 1_555
Mg3 O4 2.077207 1_555
Mg3 O14 2.232631 1_555
Mg3 O15 2.232631 1_555
Mg3 O9 2.244595 1_555
Mg3 O8 2.244595 1_555
Mn0 O4 1.879443 1_556
Mn0 O0 1.992087 1_555
Mn0 O12 2.003683 1_555
Mn0 O14 2.114123 1_556
Mn0 O10 2.176212 1_565
Mn0 O8 2.318543 1_556
Mn1 O5 1.879443 1_555
Mn1 O1 1.992087 1_555
Mn1 O13 2.003683 1_555
Mn1 O15 2.114123 1_555
Mn1 O11 2.176212 1_545
Mn1 O9 2.318543 1_555
Mn2 O6 1.879443 1_554
Mn2 O2 1.992087 1_555
Mn2 O8 2.003683 1_555
Mn2 O10 2.114123 1_554
Mn2 O14 2.176212 1_545
Mn2 O12 2.318543 1_554
Mn3 O7 1.879443 1_555
Mn3 O3 1.992087 1_555
Mn3 O9 2.003683 1_555
Mn3 O11 2.114123 1_555
Mn3 O15 2.176212 1_565
Mn3 O13 2.318543 1_555
Mn4 O2 1.958674 1_455
Mn4 O0 1.958674 1_554
Mn4 O12 2.047562 1_454
Mn4 O8 2.047562 1_555
Mn4 O4 2.193469 1_455
Mn4 O6 2.193469 1_554
Mn5 O1 1.958674 1_555
Mn5 O3 1.958674 1_455
Mn5 O9 2.047562 1_555
Mn5 O13 2.047562 1_455
Mn5 O5 2.193469 1_455
Mn5 O7 2.193469 1_555
Mn6 O10 1.970739 1_454
Mn6 O14 1.970739 1_545
Mn6 O0 1.989225 1_544
Mn6 O2 1.989225 1_455
Mn6 O4 2.214460 1_445
Mn6 O6 2.214460 1_554
Mn7 O11 1.970739 1_445
Mn7 O15 1.970739 1_555
Mn7 O3 1.989225 1_445
Mn7 O1 1.989225 1_555
Mn7 O5 2.214460 1_455
Mn7 O7 2.214460 1_545
