# generated using pymatgen
data_MgScSe3
_symmetry_space_group_name_H-M   'P 1'
_cell_length_a   7.26437613
_cell_length_b   7.26437613
_cell_length_c   6.79214662
_cell_angle_alpha   76.31356707
_cell_angle_beta   76.31356707
_cell_angle_gamma   121.85431743
_symmetry_Int_Tables_number   1
_chemical_formula_structural   MgScSe3
_chemical_formula_sum   'Mg2 Sc2 Se6'
_cell_volume   265.91734971
_cell_formula_units_Z   2
loop_
 _symmetry_equiv_pos_site_id
 _symmetry_equiv_pos_as_xyz
  1  'x, y, z'
loop_
 _atom_site_type_symbol
 _atom_site_label
 _atom_site_symmetry_multiplicity
 _atom_site_fract_x
 _atom_site_fract_y
 _atom_site_fract_z
 _atom_site_occupancy
  Mg  Mg0  1  0.33525300  0.66474700  0.00000000  1
  Mg  Mg1  1  0.66474700  0.33525300  0.00000000  1
  Sc  Sc0  1  0.80302100  0.80302100  0.32104700  1
  Sc  Sc1  1  0.19697900  0.19697900  0.67895300  1
  Se  Se0  1  0.20348100  0.86730800  0.22579200  1
  Se  Se1  1  0.79651900  0.13269200  0.77420800  1
  Se  Se2  1  0.13269200  0.79651900  0.77420800  1
  Se  Se3  1  0.86730800  0.20348100  0.22579200  1
  Se  Se4  1  0.52769100  0.52769100  0.74280600  1
  Se  Se5  1  0.47230900  0.47230900  0.25719400  1
loop_
_geom_bond_atom_site_label_1
_geom_bond_atom_site_label_2
_geom_bond_distance
_geom_bond_site_symmetry_2
Mg0 Se4 2.670898 1_554
Mg0 Se5 2.670898 1_555
Mg0 Se2 2.700647 1_554
Mg0 Se0 2.700647 1_555
Mg0 Se3 2.865941 1_455
Mg0 Se1 2.865941 1_564
Mg1 Se4 2.670898 1_554
Mg1 Se5 2.670898 1_555
Mg1 Se1 2.700647 1_554
Mg1 Se3 2.700647 1_555
Mg1 Se0 2.865941 1_545
Mg1 Se2 2.865941 1_654
Sc0 Se4 2.561608 1_555
Sc0 Se5 2.573977 1_555
Sc0 Se0 2.575242 1_655
Sc0 Se3 2.575242 1_565
Sc1 Se5 2.561608 1_555
Sc1 Se4 2.573977 1_555
Sc1 Se1 2.575242 1_455
Sc1 Se2 2.575242 1_545
