# generated using pymatgen
data_Li9Mn2Co5O16
_symmetry_space_group_name_H-M   'P 1'
_cell_length_a   10.66362338
_cell_length_b   10.66362338
_cell_length_c   9.86837733
_cell_angle_alpha   72.57003225
_cell_angle_beta   72.57003225
_cell_angle_gamma   15.66328286
_symmetry_Int_Tables_number   1
_chemical_formula_structural   Li9Mn2Co5O16
_chemical_formula_sum   'Li9 Mn2 Co5 O16'
_cell_volume   288.78438932
_cell_formula_units_Z   1
loop_
 _symmetry_equiv_pos_site_id
 _symmetry_equiv_pos_as_xyz
  1  'x, y, z'
loop_
 _atom_site_type_symbol
 _atom_site_label
 _atom_site_symmetry_multiplicity
 _atom_site_fract_x
 _atom_site_fract_y
 _atom_site_fract_z
 _atom_site_occupancy
  Li  Li0  1  0.43901000  0.43901000  0.79990400  1
  Li  Li1  1  0.31154100  0.31154100  0.44028400  1
  Li  Li2  1  0.19015600  0.19015600  0.06554800  1
  Li  Li3  1  0.80908300  0.80908300  0.94467100  1
  Li  Li4  1  0.68533000  0.68533000  0.55072300  1
  Li  Li5  1  0.56369200  0.56369200  0.19695900  1
  Li  Li6  1  0.05813900  0.05813900  0.66782300  1
  Li  Li7  1  0.94359200  0.94359200  0.32603800  1
  Li  Li8  1  0.49989400  0.49989400  0.50350800  1
  Mn  Mn0  1  0.99946100  0.99946100  0.99793500  1
  Mn  Mn1  1  0.87958000  0.87958000  0.62496300  1
  Co  Co0  1  0.74463400  0.74463400  0.25498300  1
  Co  Co1  1  0.62676100  0.62676100  0.86778900  1
  Co  Co2  1  0.37173200  0.37173200  0.13298700  1
  Co  Co3  1  0.25069700  0.25069700  0.75187000  1
  Co  Co4  1  0.11441000  0.11441000  0.37994300  1
  O  O0  1  0.52472400  0.52472400  0.86119100  1
  O  O1  1  0.40261500  0.40261500  0.48750800  1
  O  O2  1  0.28431100  0.28431100  0.10090600  1
  O  O3  1  0.90959900  0.90959900  0.98707500  1
  O  O4  1  0.78559400  0.78559400  0.60539800  1
  O  O5  1  0.65908900  0.65908900  0.22502500  1
  O  O6  1  0.15562400  0.15562400  0.73353700  1
  O  O7  1  0.03669600  0.03669600  0.33768000  1
  O  O8  1  0.34646600  0.34646600  0.76565600  1
  O  O9  1  0.21938700  0.21938700  0.39800500  1
  O  O10  1  0.09201500  0.09201500  0.00364800  1
  O  O11  1  0.71964800  0.71964800  0.89998400  1
  O  O12  1  0.59529900  0.59529900  0.52355100  1
  O  O13  1  0.47474600  0.47474600  0.13711600  1
  O  O14  1  0.96136100  0.96136100  0.65554500  1
  O  O15  1  0.84511100  0.84511100  0.27224800  1
loop_
_geom_bond_atom_site_label_1
_geom_bond_atom_site_label_2
_geom_bond_distance
_geom_bond_site_symmetry_2
Li0 O14 1.989223 1_545
Li0 O14 1.989223 1_455
Li0 O0 2.075531 1_555
Li0 O8 2.082557 1_555
Li0 O3 2.283661 1_545
Li0 O3 2.283661 1_455
Li1 O9 2.111011 1_555
Li1 O1 2.112382 1_555
Li1 O4 2.127604 1_545
Li1 O4 2.127604 1_455
Li1 O15 2.157073 1_455
Li1 O15 2.157073 1_545
Li2 O5 2.096262 1_455
Li2 O5 2.096262 1_545
Li2 O2 2.121077 1_555
Li2 O11 2.133881 1_454
Li2 O11 2.133881 1_544
Li2 O10 2.332109 1_555
Li3 O11 2.066159 1_555
Li3 O2 2.067468 1_566
Li3 O2 2.067468 1_656
Li3 O8 2.238809 1_565
Li3 O8 2.238809 1_655
Li3 O3 2.285337 1_555
Li4 O12 1.999682 1_555
Li4 O9 2.060253 1_655
Li4 O9 2.060253 1_565
Li4 O6 2.252834 1_655
Li4 O6 2.252834 1_565
Li4 O4 2.338797 1_555
Li5 O7 1.971336 1_655
Li5 O7 1.971336 1_565
Li5 O5 2.115857 1_555
Li5 O13 2.133442 1_555
Li5 O10 2.327729 1_655
Li5 O10 2.327729 1_565
Li6 O12 2.019613 1_455
Li6 O12 2.019613 1_545
Li6 O14 2.084594 1_445
Li6 O0 2.331620 1_545
Li6 O0 2.331620 1_455
Li6 O6 2.338932 1_555
Li7 O7 2.004862 1_665
Li7 O1 2.136762 1_565
Li7 O1 2.136762 1_655
Li7 O13 2.297466 1_565
Li7 O13 2.297466 1_655
Li7 O15 2.297641 1_555
Li8 O14 2.070410 1_545
Li8 O14 2.070410 1_455
Li8 O12 2.084097 1_555
Li8 O1 2.108461 1_555
Li8 O7 2.150460 1_655
Li8 O7 2.150460 1_565
Mn0 O3 1.933738 1_555
Mn0 O0 1.944657 1_655
Mn0 O0 1.944657 1_565
Mn0 O13 1.958776 1_656
Mn0 O13 1.958776 1_566
Mn0 O10 1.973289 1_666
Mn1 O14 1.841751 1_555
Mn1 O1 1.946533 1_565
Mn1 O1 1.946533 1_655
Mn1 O8 1.985229 1_655
Mn1 O8 1.985229 1_565
Mn1 O4 2.052412 1_555
Co0 O5 1.917630 1_555
Co0 O9 1.983095 1_655
Co0 O9 1.983095 1_565
Co0 O2 2.086916 1_565
Co0 O2 2.086916 1_655
Co0 O15 2.180482 1_555
Co1 O6 1.936468 1_655
Co1 O6 1.936468 1_565
Co1 O10 1.962806 1_566
Co1 O10 1.962806 1_656
Co1 O11 2.080766 1_555
Co1 O0 2.176443 1_555
Co2 O15 1.961871 1_545
Co2 O15 1.961871 1_455
Co2 O2 1.966079 1_555
Co2 O3 2.031790 1_454
Co2 O3 2.031790 1_544
Co2 O13 2.189178 1_555
Co3 O11 2.024422 1_455
Co3 O11 2.024422 1_545
Co3 O4 2.024802 1_455
Co3 O4 2.024802 1_545
Co3 O8 2.068642 1_555
Co3 O6 2.070629 1_555
Co4 O7 1.812213 1_555
Co4 O12 1.984127 1_455
Co4 O12 1.984127 1_545
Co4 O5 2.113521 1_545
Co4 O5 2.113521 1_455
Co4 O9 2.278225 1_555
