# generated using pymatgen
data_Zn(MoO2)2
_symmetry_space_group_name_H-M   'P 1'
_cell_length_a   6.20684100
_cell_length_b   6.49658221
_cell_length_c   15.27811679
_cell_angle_alpha   91.16853538
_cell_angle_beta   91.85569893
_cell_angle_gamma   118.06707807
_symmetry_Int_Tables_number   1
_chemical_formula_structural   Zn(MoO2)2
_chemical_formula_sum   'Zn6 Mo12 O24'
_cell_volume   542.88403002
_cell_formula_units_Z   6
loop_
 _symmetry_equiv_pos_site_id
 _symmetry_equiv_pos_as_xyz
  1  'x, y, z'
loop_
 _atom_site_type_symbol
 _atom_site_label
 _atom_site_symmetry_multiplicity
 _atom_site_fract_x
 _atom_site_fract_y
 _atom_site_fract_z
 _atom_site_occupancy
  Zn  Zn0  1  0.83716500  0.66175500  0.95970500  1
  Zn  Zn1  1  0.16057000  0.33141200  0.66363600  1
  Zn  Zn2  1  0.32831500  0.16185000  0.83467000  1
  Zn  Zn3  1  0.83742400  0.67208600  0.33488000  1
  Zn  Zn4  1  0.00034700  0.48998300  0.49424300  1
  Zn  Zn5  1  0.67823700  0.83582900  0.16994600  1
  Mo  Mo0  1  0.82729700  0.16961300  0.83150600  1
  Mo  Mo1  1  0.49321500  0.97815400  0.60481700  1
  Mo  Mo2  1  0.50192600  0.00459000  0.99856000  1
  Mo  Mo3  1  0.33078000  0.67152200  0.83090000  1
  Mo  Mo4  1  0.49385600  0.49588100  0.50008200  1
  Mo  Mo5  1  0.18403200  0.31881900  0.28584200  1
  Mo  Mo6  1  0.99534700  0.99621900  0.50178700  1
  Mo  Mo7  1  0.17353200  0.83135500  0.16939300  1
  Mo  Mo8  1  0.82442400  0.67607600  0.71402200  1
  Mo  Mo9  1  0.67684600  0.33594000  0.16966000  1
  Mo  Mo10  1  0.49990900  0.01709100  0.39304400  1
  Mo  Mo11  1  0.17161200  0.35023000  0.04639800  1
  O  O0  1  0.65342800  0.31063300  0.91581300  1
  O  O1  1  0.48403000  0.98573600  0.75621600  1
  O  O2  1  0.17925200  0.84587500  0.91058300  1
  O  O3  1  0.66870700  0.85701900  0.91025600  1
  O  O4  1  0.30694100  0.61849000  0.58690900  1
  O  O5  1  0.98771800  0.48778300  0.75314000  1
  O  O6  1  0.15442400  0.29387400  0.42207200  1
  O  O7  1  0.48822400  0.49768000  0.75277300  1
  O  O8  1  0.86262100  0.20507400  0.57436000  1
  O  O9  1  0.17783700  0.35702700  0.90619300  1
  O  O10  1  0.33417600  0.19779100  0.58017400  1
  O  O11  1  0.00233900  0.01908100  0.74869200  1
  O  O12  1  0.99197700  0.95916300  0.25713300  1
  O  O13  1  0.65737700  0.79820300  0.42296500  1
  O  O14  1  0.13344000  0.79357100  0.42897300  1
  O  O15  1  0.52331800  0.52780300  0.23702000  1
  O  O16  1  0.83206400  0.64856000  0.09124800  1
  O  O17  1  0.82459400  0.69036800  0.58448100  1
  O  O18  1  0.02092900  0.52144900  0.24331300  1
  O  O19  1  0.68273400  0.37965000  0.41094400  1
  O  O20  1  0.33004600  0.13981700  0.08997400  1
  O  O21  1  0.81839100  0.13852000  0.09186700  1
  O  O22  1  0.51782900  0.02220700  0.24552100  1
  O  O23  1  0.35276900  0.70622100  0.07628700  1
loop_
_geom_bond_atom_site_label_1
_geom_bond_atom_site_label_2
_geom_bond_distance
_geom_bond_site_symmetry_2
Mo0 O0 2.152972 1_555
Mo0 O1 2.163296 1_545
Mo0 O11 2.185402 1_655
Mo0 O9 2.192735 1_655
Mo0 O3 2.199069 1_545
Mo0 O5 2.222364 1_555
Mo1 O4 2.069428 1_555
Mo1 O10 2.115530 1_565
Mo1 O8 2.136186 1_565
Mo1 O1 2.315730 1_555
Mo2 O23 2.121562 1_546
Mo2 O2 2.169530 1_545
Mo2 O3 2.186878 1_545
Mo2 O20 2.188354 1_556
Mo2 O21 2.192565 1_556
Mo2 O0 2.203576 1_555
Mo3 O2 2.161024 1_555
Mo3 O1 2.170678 1_555
Mo3 O7 2.171257 1_555
Mo3 O3 2.172259 1_555
Mo3 O9 2.177227 1_555
Mo3 O5 2.181020 1_455
Mo4 O13 2.138180 1_555
Mo4 O10 2.144525 1_555
Mo4 O4 2.160171 1_555
Mo4 O19 2.166493 1_555
Mo4 O6 2.180182 1_555
Mo4 O17 2.189666 1_555
Mo5 O15 2.070515 1_555
Mo5 O12 2.091922 1_445
Mo5 O6 2.098215 1_555
Mo5 O18 2.103879 1_555
Mo6 O6 2.138871 1_665
Mo6 O13 2.177015 1_555
Mo6 O10 2.180215 1_665
Mo6 O14 2.183877 1_655
Mo6 O8 2.190597 1_565
Mo6 O17 2.207946 1_555
Mo7 O18 2.143274 1_555
Mo7 O12 2.165443 1_455
Mo7 O16 2.176587 1_455
Mo7 O22 2.178011 1_565
Mo7 O20 2.185273 1_565
Mo7 O23 2.197352 1_555
Mo8 O7 1.969874 1_555
Mo8 O17 1.983221 1_555
Mo8 O5 2.009500 1_555
Mo8 O11 2.015936 1_665
Mo9 O18 2.155644 1_655
Mo9 O15 2.156323 1_555
Mo9 O22 2.179247 1_555
Mo9 O16 2.195654 1_555
Mo9 O21 2.212502 1_555
Mo9 O20 2.219275 1_555
Mo10 O19 2.085388 1_555
Mo10 O13 2.119396 1_545
Mo10 O14 2.142207 1_545
Mo10 O22 2.260362 1_555
Mo11 O23 2.073196 1_555
Mo11 O21 2.116823 1_455
Mo11 O20 2.130379 1_555
Mo11 O9 2.144647 1_554
O0 Zn0 2.096131 1_555
O0 Zn2 2.120581 1_555
O1 Zn2 2.177052 1_565
O2 Zn0 2.062088 1_455
O2 Zn2 2.189609 1_565
O3 Zn0 2.123514 1_555
O4 Zn1 2.059507 1_555
O4 Zn4 2.145928 1_555
O5 Zn1 2.262064 1_655
O6 Zn4 2.216095 1_555
O7 Zn1 2.202451 1_555
O7 Zn2 2.337687 1_555
O8 Zn1 2.077670 1_655
O8 Zn4 2.079960 1_655
O9 Zn2 2.190482 1_555
O10 Zn1 2.112986 1_555
O11 Zn2 2.166035 1_555
O11 Zn1 2.255080 1_555
O12 Zn3 2.071247 1_555
O12 Zn5 2.128072 1_555
O13 Zn3 2.155296 1_555
O14 Zn4 2.041358 1_555
O14 Zn3 2.117396 1_455
O15 Zn5 2.077493 1_555
O15 Zn3 2.224715 1_555
O16 Zn0 2.013941 1_554
O16 Zn5 2.223772 1_555
O17 Zn4 2.479111 1_655
O18 Zn3 2.303989 1_455
O19 Zn3 2.080279 1_555
O19 Zn4 2.119044 1_655
O21 Zn5 2.144729 1_545
O22 Zn5 2.223151 1_545
O23 Zn5 2.236176 1_555
