# generated using pymatgen
data_MgBiMoO5
_symmetry_space_group_name_H-M   'P 1'
_cell_length_a   5.25538100
_cell_length_b   10.48941300
_cell_length_c   16.09384200
_cell_angle_alpha   90.00000000
_cell_angle_beta   90.00000000
_cell_angle_gamma   90.00000000
_symmetry_Int_Tables_number   1
_chemical_formula_structural   MgBiMoO5
_chemical_formula_sum   'Mg8 Bi8 Mo8 O40'
_cell_volume   887.18690962
_cell_formula_units_Z   8
loop_
 _symmetry_equiv_pos_site_id
 _symmetry_equiv_pos_as_xyz
  1  'x, y, z'
loop_
 _atom_site_type_symbol
 _atom_site_label
 _atom_site_symmetry_multiplicity
 _atom_site_fract_x
 _atom_site_fract_y
 _atom_site_fract_z
 _atom_site_occupancy
  Mg  Mg0  1  0.52753800  0.36844200  0.55689200  1
  Mg  Mg1  1  0.02753800  0.13155800  0.55689200  1
  Mg  Mg2  1  0.02753800  0.63155800  0.94310800  1
  Mg  Mg3  1  0.97246200  0.36844200  0.05689200  1
  Mg  Mg4  1  0.47246200  0.13155800  0.05689200  1
  Mg  Mg5  1  0.97246200  0.86844200  0.44310800  1
  Mg  Mg6  1  0.47246200  0.63155800  0.44310800  1
  Mg  Mg7  1  0.52753800  0.86844200  0.94310800  1
  Bi  Bi0  1  0.97809500  0.85862500  0.77758100  1
  Bi  Bi1  1  0.02190500  0.14137500  0.22241900  1
  Bi  Bi2  1  0.52190500  0.35862500  0.22241900  1
  Bi  Bi3  1  0.02190500  0.64137500  0.27758100  1
  Bi  Bi4  1  0.47809500  0.14137500  0.72241900  1
  Bi  Bi5  1  0.47809500  0.64137500  0.77758100  1
  Bi  Bi6  1  0.52190500  0.85862500  0.27758100  1
  Bi  Bi7  1  0.97809500  0.35862500  0.72241900  1
  Mo  Mo0  1  0.99186700  0.37765500  0.41627600  1
  Mo  Mo1  1  0.50813300  0.87765500  0.58372400  1
  Mo  Mo2  1  0.00813300  0.62234500  0.58372400  1
  Mo  Mo3  1  0.49186700  0.12234500  0.41627600  1
  Mo  Mo4  1  0.00813300  0.12234500  0.91627600  1
  Mo  Mo5  1  0.99186700  0.87765500  0.08372400  1
  Mo  Mo6  1  0.50813300  0.37765500  0.91627600  1
  Mo  Mo7  1  0.49186700  0.62234500  0.08372400  1
  O  O0  1  0.91482400  0.32773700  0.30468900  1
  O  O1  1  0.28083200  0.02925100  0.95286900  1
  O  O2  1  0.21916800  0.52925100  0.04713100  1
  O  O3  1  0.29359400  0.78339100  0.85384300  1
  O  O4  1  0.20640600  0.28339100  0.14615700  1
  O  O5  1  0.91482400  0.82773700  0.19531100  1
  O  O6  1  0.20640600  0.78339100  0.35384300  1
  O  O7  1  0.58517600  0.82773700  0.69531100  1
  O  O8  1  0.28083200  0.52925100  0.54713100  1
  O  O9  1  0.08517600  0.67226300  0.69531100  1
  O  O10  1  0.58517600  0.32773700  0.80468900  1
  O  O11  1  0.75075800  0.21939600  0.47046900  1
  O  O12  1  0.78083200  0.97074900  0.54713100  1
  O  O13  1  0.70640600  0.71660900  0.35384300  1
  O  O14  1  0.20214500  0.02066500  0.12158700  1
  O  O15  1  0.78083200  0.47074900  0.95286900  1
  O  O16  1  0.08517600  0.17226300  0.80468900  1
  O  O17  1  0.79359400  0.21660900  0.64615700  1
  O  O18  1  0.25075800  0.78060400  0.02953100  1
  O  O19  1  0.21916800  0.02925100  0.45286900  1
  O  O20  1  0.24924200  0.78060400  0.52953100  1
  O  O21  1  0.79785500  0.97933500  0.87841300  1
  O  O22  1  0.70640600  0.21660900  0.14615700  1
  O  O23  1  0.70214500  0.97933500  0.37841300  1
  O  O24  1  0.24924200  0.28060400  0.97046900  1
  O  O25  1  0.25075800  0.28060400  0.47046900  1
  O  O26  1  0.71916800  0.47074900  0.45286900  1
  O  O27  1  0.71916800  0.97074900  0.04713100  1
  O  O28  1  0.70214500  0.47933500  0.12158700  1
  O  O29  1  0.74924200  0.71939600  0.52953100  1
  O  O30  1  0.74924200  0.21939600  0.97046900  1
  O  O31  1  0.75075800  0.71939600  0.02953100  1
  O  O32  1  0.79785500  0.47933500  0.62158700  1
  O  O33  1  0.79359400  0.71660900  0.85384300  1
  O  O34  1  0.29359400  0.28339100  0.64615700  1
  O  O35  1  0.20214500  0.52066500  0.37841300  1
  O  O36  1  0.29785500  0.52066500  0.87841300  1
  O  O37  1  0.41482400  0.17226300  0.30468900  1
  O  O38  1  0.29785500  0.02066500  0.62158700  1
  O  O39  1  0.41482400  0.67226300  0.19531100  1
loop_
_geom_bond_atom_site_label_1
_geom_bond_atom_site_label_2
_geom_bond_distance
_geom_bond_site_symmetry_2
Mg0 O34 2.090779 1_555
Mg0 O32 2.110753 1_555
Mg0 O8 2.133295 1_555
Mg0 O25 2.213431 1_555
Mg0 O26 2.229029 1_555
Mg0 O11 2.398949 1_555
Mg0 O17 2.560352 1_555
Mg1 O17 2.090779 1_455
Mg1 O38 2.110753 1_555
Mg1 O12 2.133295 1_445
Mg1 O11 2.213431 1_455
Mg1 O19 2.229029 1_555
Mg1 O25 2.398949 1_555
Mg1 O34 2.560352 1_555
Mg2 O33 2.090779 1_455
Mg2 O36 2.110753 1_555
Mg2 O15 2.133295 1_455
Mg2 O31 2.213431 1_456
Mg2 O2 2.229029 1_556
Mg2 O18 2.398949 1_556
Mg2 O3 2.560352 1_555
Mg3 O4 2.090779 1_655
Mg3 O28 2.110753 1_555
Mg3 O2 2.133295 1_655
Mg3 O24 2.213431 1_654
Mg3 O15 2.229029 1_554
Mg3 O30 2.398949 1_554
Mg3 O22 2.560352 1_555
Mg4 O22 2.090779 1_555
Mg4 O14 2.110753 1_555
Mg4 O27 2.133295 1_545
Mg4 O30 2.213431 1_554
Mg4 O1 2.229029 1_554
Mg4 O24 2.398949 1_554
Mg4 O4 2.560352 1_555
Mg5 O6 2.090779 1_655
Mg5 O23 2.110753 1_555
Mg5 O19 2.133295 1_665
Mg5 O20 2.213431 1_655
Mg5 O12 2.229029 1_555
Mg5 O29 2.398949 1_555
Mg5 O13 2.560352 1_555
Mg6 O13 2.090779 1_555
Mg6 O35 2.110753 1_555
Mg6 O26 2.133295 1_555
Mg6 O29 2.213431 1_555
Mg6 O8 2.229029 1_555
Mg6 O20 2.398949 1_555
Mg6 O6 2.560352 1_555
Mg7 O3 2.090779 1_555
Mg7 O21 2.110753 1_555
Mg7 O1 2.133295 1_565
Mg7 O18 2.213431 1_556
Mg7 O27 2.229029 1_556
Mg7 O31 2.398949 1_556
Mg7 O33 2.560352 1_555
Bi0 O33 2.160012 1_555
Bi0 O3 2.208698 1_655
Bi0 O21 2.265799 1_555
Bi0 O9 2.427164 1_655
Bi0 O7 2.474274 1_555
Bi1 O4 2.160012 1_555
Bi1 O22 2.208698 1_455
Bi1 O14 2.265799 1_555
Bi1 O0 2.427164 1_455
Bi1 O37 2.474274 1_555
Bi2 O22 2.160012 1_555
Bi2 O4 2.208698 1_555
Bi2 O28 2.265799 1_555
Bi2 O37 2.427164 1_555
Bi2 O0 2.474274 1_555
Bi3 O6 2.160012 1_555
Bi3 O13 2.208698 1_455
Bi3 O35 2.265799 1_555
Bi3 O5 2.427164 1_455
Bi3 O39 2.474274 1_555
Bi4 O34 2.160012 1_555
Bi4 O17 2.208698 1_555
Bi4 O38 2.265799 1_555
Bi4 O10 2.427164 1_555
Bi4 O16 2.474274 1_555
Bi5 O3 2.160012 1_555
Bi5 O33 2.208698 1_555
Bi5 O36 2.265799 1_555
Bi5 O7 2.427164 1_555
Bi5 O9 2.474274 1_555
Bi6 O13 2.160012 1_555
Bi6 O6 2.208698 1_555
Bi6 O23 2.265799 1_555
Bi6 O39 2.427164 1_555
Bi6 O5 2.474274 1_555
Bi7 O17 2.160012 1_555
Bi7 O34 2.208698 1_655
Bi7 O32 2.265799 1_555
Bi7 O16 2.427164 1_655
Bi7 O10 2.474274 1_555
Mo0 O26 1.831466 1_555
Mo0 O25 1.910021 1_655
Mo0 O0 1.913957 1_555
Mo0 O35 1.960311 1_655
Mo0 O11 2.263189 1_555
Mo1 O12 1.831466 1_555
Mo1 O20 1.910021 1_555
Mo1 O7 1.913957 1_555
Mo1 O38 1.960311 1_565
Mo1 O29 2.263189 1_555
Mo2 O8 1.831466 1_555
Mo2 O29 1.910021 1_455
Mo2 O9 1.913957 1_555
Mo2 O32 1.960311 1_455
Mo2 O20 2.263189 1_555
Mo3 O19 1.831466 1_555
Mo3 O11 1.910021 1_555
Mo3 O37 1.913957 1_555
Mo3 O23 1.960311 1_545
Mo3 O25 2.263189 1_555
Mo4 O1 1.831466 1_555
Mo4 O30 1.910021 1_455
Mo4 O16 1.913957 1_555
Mo4 O21 1.960311 1_445
Mo4 O24 2.263189 1_555
Mo5 O27 1.831466 1_555
Mo5 O18 1.910021 1_655
Mo5 O5 1.913957 1_555
Mo5 O14 1.960311 1_665
Mo5 O31 2.263189 1_555
Mo6 O15 1.831466 1_555
Mo6 O24 1.910021 1_555
Mo6 O10 1.913957 1_555
Mo6 O36 1.960311 1_555
Mo6 O30 2.263189 1_555
Mo7 O2 1.831466 1_555
Mo7 O31 1.910021 1_555
Mo7 O39 1.913957 1_555
Mo7 O28 1.960311 1_555
Mo7 O18 2.263189 1_555
