# generated using pymatgen
data_MnSiO3
_symmetry_space_group_name_H-M   'P 1'
_cell_length_a   9.19633119
_cell_length_b   5.38038658
_cell_length_c   9.55593941
_cell_angle_alpha   77.65203509
_cell_angle_beta   90.00000000
_cell_angle_gamma   90.00000000
_symmetry_Int_Tables_number   1
_chemical_formula_structural   MnSiO3
_chemical_formula_sum   'Mn8 Si8 O24'
_cell_volume   461.88819585
_cell_formula_units_Z   8
loop_
 _symmetry_equiv_pos_site_id
 _symmetry_equiv_pos_as_xyz
  1  'x, y, z'
loop_
 _atom_site_type_symbol
 _atom_site_label
 _atom_site_symmetry_multiplicity
 _atom_site_fract_x
 _atom_site_fract_y
 _atom_site_fract_z
 _atom_site_occupancy
  Mn  Mn0  1  0.48981728  0.49632420  0.75018636  1
  Mn  Mn1  1  0.98981728  0.00367580  0.24981364  1
  Mn  Mn2  1  0.51018272  0.50367580  0.24981364  1
  Mn  Mn3  1  0.01018272  0.99632420  0.75018636  1
  Mn  Mn4  1  0.84993957  0.49642319  0.75038531  1
  Mn  Mn5  1  0.34993957  0.00357681  0.24961469  1
  Mn  Mn6  1  0.15006043  0.50357681  0.24961469  1
  Mn  Mn7  1  0.65006043  0.99642319  0.75038531  1
  Si  Si0  1  0.66387287  0.22063535  0.04804549  1
  Si  Si1  1  0.16387287  0.27936465  0.95195451  1
  Si  Si2  1  0.33612713  0.77936465  0.95195451  1
  Si  Si3  1  0.83612713  0.72063535  0.04804549  1
  Si  Si4  1  0.16340872  0.72742254  0.54727501  1
  Si  Si5  1  0.66340872  0.77257746  0.45272499  1
  Si  Si6  1  0.83659128  0.27257746  0.45272499  1
  Si  Si7  1  0.33659128  0.22742254  0.54727501  1
  O  O0  1  0.76796825  0.43320672  0.10171172  1
  O  O1  1  0.26796825  0.06679328  0.89828828  1
  O  O2  1  0.23203175  0.56679328  0.89828828  1
  O  O3  1  0.73203175  0.93320672  0.10171172  1
  O  O4  1  0.51060601  0.23862405  0.12611693  1
  O  O5  1  0.01060601  0.26137595  0.87388307  1
  O  O6  1  0.48939399  0.76137595  0.87388307  1
  O  O7  1  0.98939399  0.73862405  0.12611693  1
  O  O8  1  0.65926106  0.28378696  0.87412172  1
  O  O9  1  0.15926106  0.21621304  0.12587828  1
  O  O10  1  0.34073894  0.71621304  0.12587828  1
  O  O11  1  0.84073894  0.78378696  0.87412172  1
  O  O12  1  0.25926122  0.94819898  0.60256380  1
  O  O13  1  0.75926122  0.55180102  0.39743620  1
  O  O14  1  0.74073878  0.05180102  0.39743620  1
  O  O15  1  0.24073878  0.44819898  0.60256380  1
  O  O16  1  0.34023281  0.28986918  0.37343158  1
  O  O17  1  0.84023281  0.21013082  0.62656842  1
  O  O18  1  0.65976719  0.71013082  0.62656842  1
  O  O19  1  0.15976719  0.78986918  0.37343158  1
  O  O20  1  0.00853695  0.73312467  0.62447852  1
  O  O21  1  0.99146305  0.26687533  0.37552148  1
  O  O22  1  0.50853695  0.76687533  0.37552148  1
  O  O23  1  0.49146305  0.23312467  0.62447852  1
loop_
_geom_bond_atom_site_label_1
_geom_bond_atom_site_label_2
_geom_bond_distance
_geom_bond_site_symmetry_2
Mn0 O6 2.037620 1_555
Mn0 O23 2.043573 1_555
Mn0 O8 2.135234 1_555
Mn0 O18 2.140158 1_555
Mn1 O7 2.037620 1_545
Mn1 O21 2.043573 1_555
Mn1 O9 2.135234 1_655
Mn1 O19 2.140158 1_645
Mn2 O4 2.037620 1_555
Mn2 O22 2.043573 1_555
Mn2 O10 2.135234 1_555
Mn2 O16 2.140158 1_555
Mn3 O5 2.037620 1_565
Mn3 O20 2.043573 1_555
Mn3 O11 2.135234 1_455
Mn3 O17 2.140158 1_465
Mn4 O5 2.129991 1_655
Mn4 O20 2.131061 1_655
Mn4 O17 2.135442 1_555
Mn4 O11 2.139552 1_555
Mn4 O18 2.280084 1_555
Mn4 O8 2.281082 1_555
Mn5 O4 2.129991 1_555
Mn5 O22 2.131061 1_545
Mn5 O16 2.135442 1_555
Mn5 O10 2.139552 1_545
Mn5 O19 2.280084 1_545
Mn5 O9 2.281082 1_555
Mn6 O7 2.129991 1_455
Mn6 O21 2.131061 1_455
Mn6 O19 2.135442 1_555
Mn6 O9 2.139552 1_555
Mn6 O16 2.280084 1_555
Mn6 O10 2.281082 1_555
Mn7 O6 2.129991 1_555
Mn7 O23 2.131061 1_565
Mn7 O18 2.135442 1_555
Mn7 O8 2.139552 1_565
Mn7 O17 2.280084 1_565
Mn7 O11 2.281082 1_555
O0 Si3 1.645686 1_555
O0 Si0 1.654798 1_555
O1 Si2 1.645686 1_545
O1 Si1 1.654798 1_555
O2 Si1 1.645686 1_555
O2 Si2 1.654798 1_555
O3 Si0 1.645686 1_565
O3 Si3 1.654798 1_555
O4 Si0 1.607328 1_555
O5 Si1 1.607328 1_555
O6 Si2 1.607328 1_555
O7 Si3 1.607328 1_555
O8 Si0 1.624187 1_556
O9 Si1 1.624187 1_554
O10 Si2 1.624187 1_554
O11 Si3 1.624187 1_556
O12 Si7 1.643897 1_565
O12 Si4 1.653966 1_555
O13 Si6 1.643897 1_555
O13 Si5 1.653966 1_555
O14 Si5 1.643897 1_545
O14 Si6 1.653966 1_555
O15 Si4 1.643897 1_555
O15 Si7 1.653966 1_555
O16 Si7 1.623268 1_555
O17 Si6 1.623268 1_555
O18 Si5 1.623268 1_555
O19 Si4 1.623268 1_555
O20 Si4 1.607294 1_555
O21 Si6 1.607294 1_555
O22 Si5 1.607294 1_555
O23 Si7 1.607294 1_555
