# generated using pymatgen
data_Tm3Ge13Pt4
_symmetry_space_group_name_H-M   'P 1'
_cell_length_a   9.06221811
_cell_length_b   9.06221811
_cell_length_c   9.17067114
_cell_angle_alpha   89.63565846
_cell_angle_beta   89.63565846
_cell_angle_gamma   89.73701677
_symmetry_Int_Tables_number   1
_chemical_formula_structural   Tm3Ge13Pt4
_chemical_formula_sum   'Tm6 Ge26 Pt8'
_cell_volume   753.09208686
_cell_formula_units_Z   2
loop_
 _symmetry_equiv_pos_site_id
 _symmetry_equiv_pos_as_xyz
  1  'x, y, z'
loop_
 _atom_site_type_symbol
 _atom_site_label
 _atom_site_symmetry_multiplicity
 _atom_site_fract_x
 _atom_site_fract_y
 _atom_site_fract_z
 _atom_site_occupancy
  Tm  Tm0  1  0.00031100  0.00037000  0.49567500  1
  Tm  Tm1  1  0.00037000  0.00031100  0.99567500  1
  Tm  Tm2  1  0.50021100  0.25592400  0.74855300  1
  Tm  Tm3  1  0.25592400  0.50021100  0.24855300  1
  Tm  Tm4  1  0.74224100  0.49950700  0.24554000  1
  Tm  Tm5  1  0.49950700  0.74224100  0.74554000  1
  Ge  Ge0  1  0.50492800  0.99163300  0.24591400  1
  Ge  Ge1  1  0.99163300  0.50492800  0.74591400  1
  Ge  Ge2  1  0.82747800  0.85529900  0.74027000  1
  Ge  Ge3  1  0.85529900  0.82747800  0.24027000  1
  Ge  Ge4  1  0.15328000  0.83497700  0.24425000  1
  Ge  Ge5  1  0.83497700  0.15327900  0.74425000  1
  Ge  Ge6  1  0.49559100  0.33330000  0.39474100  1
  Ge  Ge7  1  0.33330000  0.49559100  0.89474100  1
  Ge  Ge8  1  0.99551100  0.61009300  0.48053200  1
  Ge  Ge9  1  0.61009300  0.99551100  0.98053200  1
  Ge  Ge10  1  0.33188100  0.99889200  0.89202800  1
  Ge  Ge11  1  0.99889200  0.33188100  0.39202800  1
  Ge  Ge12  1  0.73383400  0.49595200  0.86007400  1
  Ge  Ge13  1  0.49595200  0.73383400  0.36007400  1
  Ge  Ge14  1  0.32948000  0.99761800  0.60009100  1
  Ge  Ge15  1  0.99761800  0.32948000  0.10009100  1
  Ge  Ge16  1  0.11604200  0.77193000  0.74652800  1
  Ge  Ge17  1  0.77193000  0.11604200  0.24652800  1
  Ge  Ge18  1  0.00204300  0.61387000  0.02100800  1
  Ge  Ge19  1  0.61387000  0.00204300  0.52100800  1
  Ge  Ge20  1  0.49823000  0.33049700  0.09250600  1
  Ge  Ge21  1  0.33049700  0.49823000  0.59250600  1
  Ge  Ge22  1  0.25135500  0.11086200  0.24764300  1
  Ge  Ge23  1  0.11086200  0.25135500  0.74764300  1
  Ge  Ge24  1  0.65463400  0.50378100  0.58340700  1
  Ge  Ge25  1  0.50378100  0.65463400  0.08340700  1
  Pt  Pt0  1  0.74832500  0.24956300  0.49362800  1
  Pt  Pt1  1  0.24956300  0.74832500  0.99362800  1
  Pt  Pt2  1  0.24780700  0.74734000  0.49523000  1
  Pt  Pt3  1  0.74734000  0.24780700  0.99523000  1
  Pt  Pt4  1  0.24414600  0.24321400  0.49714500  1
  Pt  Pt5  1  0.24321400  0.24414600  0.99714500  1
  Pt  Pt6  1  0.75144600  0.74960300  0.98863400  1
  Pt  Pt7  1  0.74960300  0.75144600  0.48863400  1
loop_
_geom_bond_atom_site_label_1
_geom_bond_atom_site_label_2
_geom_bond_distance
_geom_bond_site_symmetry_2
Ge0 Ge22 2.534788 1_565
Ge0 Ge13 2.555425 1_555
Ge0 Ge9 2.608115 1_554
Ge0 Ge17 2.674139 1_565
Ge0 Ge19 2.717284 1_565
Ge1 Ge23 2.534788 1_655
Ge1 Ge12 2.555425 1_555
Ge1 Ge8 2.608115 1_555
Ge1 Ge16 2.674139 1_655
Ge1 Ge18 2.717284 1_656
Ge2 Pt6 2.557013 1_555
Ge2 Pt7 2.600684 1_555
Ge2 Ge5 2.702011 1_565
Ge2 Tm0 3.024847 1_665
Ge2 Tm1 3.126106 1_665
Ge2 Tm5 3.148205 1_555
Ge3 Pt7 2.557013 1_555
Ge3 Pt6 2.600684 1_554
Ge3 Ge4 2.702020 1_655
Ge3 Tm1 3.024847 1_664
Ge3 Tm0 3.126106 1_665
Ge3 Tm4 3.148205 1_555
Ge4 Pt1 2.579075 1_554
Ge4 Pt2 2.580259 1_555
Ge4 Tm1 3.056028 1_564
Ge4 Tm0 3.077140 1_565
Ge4 Tm3 3.169118 1_555
Ge5 Pt0 2.579078 1_555
Ge5 Pt3 2.580262 1_555
Ge5 Tm0 3.056024 1_655
Ge5 Tm1 3.077135 1_655
Ge5 Tm2 3.169121 1_555
Ge6 Pt0 2.577899 1_555
Ge6 Pt4 2.592443 1_555
Ge6 Tm3 2.963702 1_555
Ge6 Tm4 3.017072 1_555
Ge6 Tm2 3.315719 1_555
Ge7 Pt1 2.577899 1_555
Ge7 Pt5 2.592443 1_555
Ge7 Tm2 2.963702 1_555
Ge7 Tm5 3.017072 1_555
Ge7 Tm3 3.315719 1_556
Ge8 Pt7 2.566203 1_555
Ge8 Pt2 2.612416 1_655
Ge8 Tm4 3.320822 1_555
Ge8 Tm3 3.320866 1_655
Ge8 Tm0 3.540860 1_665
Ge9 Pt6 2.566203 1_555
Ge9 Pt3 2.612416 1_565
Ge9 Tm5 3.320822 1_555
Ge9 Tm2 3.320866 1_565
Ge9 Tm1 3.540860 1_665
Ge10 Pt5 2.552575 1_565
Ge10 Pt1 2.561343 1_555
Ge10 Ge9 2.653533 1_555
Ge10 Ge14 2.677584 1_555
Ge10 Tm2 3.074389 1_565
Ge10 Tm5 3.082707 1_555
Ge10 Tm1 3.145233 1_565
Ge11 Pt4 2.552575 1_655
Ge11 Pt0 2.561343 1_555
Ge11 Ge8 2.653533 1_555
Ge11 Ge15 2.677584 1_555
Ge11 Tm3 3.074389 1_655
Ge11 Tm4 3.082707 1_555
Ge11 Tm0 3.145233 1_655
Ge12 Pt3 2.563606 1_555
Ge12 Pt6 2.596044 1_555
Ge12 Ge24 2.641603 1_555
Ge12 Tm2 3.218352 1_555
Ge12 Tm5 3.247941 1_555
Ge12 Tm4 3.536642 1_556
Ge13 Pt2 2.563606 1_555
Ge13 Pt7 2.596044 1_555
Ge13 Ge25 2.641603 1_555
Ge13 Tm3 3.218352 1_555
Ge13 Tm4 3.247941 1_555
Ge13 Tm5 3.536642 1_555
Ge14 Pt4 2.531712 1_565
Ge14 Pt2 2.582427 1_555
Ge14 Ge19 2.673271 1_565
Ge14 Tm5 3.076260 1_555
Ge14 Tm2 3.134890 1_565
Ge14 Tm0 3.138660 1_565
Ge15 Pt5 2.531712 1_654
Ge15 Pt3 2.582427 1_554
Ge15 Ge18 2.673271 1_655
Ge15 Tm4 3.076260 1_555
Ge15 Tm3 3.134890 1_655
Ge15 Tm1 3.138660 1_654
Ge16 Pt1 2.582880 1_555
Ge16 Pt2 2.599160 1_555
Ge16 Ge2 2.719501 1_455
Ge16 Tm1 3.257684 1_565
Ge16 Tm0 3.260061 1_565
Ge16 Tm5 3.484170 1_555
Ge17 Pt0 2.582880 1_555
Ge17 Pt3 2.599160 1_554
Ge17 Ge3 2.719501 1_545
Ge17 Tm0 3.257684 1_655
Ge17 Tm1 3.260061 1_654
Ge17 Tm4 3.484170 1_555
Ge18 Pt1 2.567711 1_554
Ge18 Pt6 2.595518 1_454
Ge18 Tm3 3.274247 1_555
Ge18 Tm4 3.284926 1_455
Ge18 Tm1 3.508205 1_564
Ge19 Pt0 2.567711 1_555
Ge19 Pt7 2.595518 1_545
Ge19 Tm2 3.274247 1_555
Ge19 Tm5 3.284926 1_545
Ge19 Tm0 3.508205 1_655
Ge20 Pt3 2.533963 1_554
Ge20 Pt5 2.601716 1_554
Ge20 Ge6 2.771926 1_555
Ge20 Ge7 2.782268 1_554
Ge20 Ge25 2.938707 1_555
Ge20 Tm3 3.031833 1_555
Ge20 Tm4 3.050094 1_555
Ge20 Tm2 3.229982 1_554
Ge21 Pt2 2.533963 1_555
Ge21 Pt4 2.601716 1_555
Ge21 Ge7 2.771926 1_555
Ge21 Ge6 2.782268 1_555
Ge21 Ge24 2.938707 1_555
Ge21 Tm2 3.031833 1_555
Ge21 Tm5 3.050094 1_555
Ge21 Tm3 3.229982 1_555
Ge22 Pt5 2.589919 1_554
Ge22 Pt4 2.590467 1_555
Ge22 Ge4 2.657684 1_545
Ge22 Tm0 3.358323 1_555
Ge22 Tm1 3.410799 1_554
Ge22 Tm3 3.528862 1_555
Ge23 Pt4 2.589919 1_555
Ge23 Pt5 2.590467 1_555
Ge23 Ge5 2.657687 1_455
Ge23 Tm1 3.358323 1_555
Ge23 Tm0 3.410799 1_555
Ge23 Tm2 3.528862 1_555
Ge24 Pt7 2.552800 1_555
Ge24 Pt0 2.589099 1_555
Ge24 Ge6 2.746606 1_555
Ge24 Tm5 2.973760 1_555
Ge24 Tm2 3.042339 1_555
Ge24 Tm4 3.194097 1_555
Ge25 Pt6 2.552800 1_554
Ge25 Pt1 2.589099 1_554
Ge25 Ge7 2.746606 1_554
Ge25 Tm4 2.973760 1_555
Ge25 Tm3 3.042339 1_555
Ge25 Tm5 3.194097 1_554
Pt0 Tm4 3.200722 1_555
Pt0 Tm0 3.204260 1_655
Pt0 Tm2 3.233890 1_555
Pt1 Tm5 3.200722 1_555
Pt1 Tm1 3.204260 1_565
Pt1 Tm3 3.233890 1_556
Pt2 Tm3 3.193628 1_555
Pt2 Tm0 3.200180 1_565
Pt2 Tm5 3.246315 1_555
Pt3 Tm2 3.193628 1_555
Pt3 Tm1 3.200180 1_655
Pt3 Tm4 3.246315 1_556
Pt4 Tm0 3.125923 1_555
Pt4 Tm3 3.250293 1_555
Pt4 Tm2 3.284454 1_555
Pt5 Tm1 3.125923 1_555
Pt5 Tm2 3.250293 1_555
Pt5 Tm3 3.284454 1_556
Pt6 Tm5 3.202354 1_555
Pt6 Tm1 3.210208 1_665
Pt6 Tm4 3.259709 1_556
Pt7 Tm4 3.202354 1_555
Pt7 Tm0 3.210208 1_665
Pt7 Tm5 3.259709 1_555
