# generated using pymatgen
data_Pr5Pb3
_symmetry_space_group_name_H-M   'P 1'
_cell_length_a   6.99609997
_cell_length_b   9.44422276
_cell_length_c   9.44394015
_cell_angle_alpha   120.00073875
_cell_angle_beta   90.00000000
_cell_angle_gamma   90.00000000
_symmetry_Int_Tables_number   1
_chemical_formula_structural   Pr5Pb3
_chemical_formula_sum   'Pr10 Pb6'
_cell_volume   540.38446262
_cell_formula_units_Z   2
loop_
 _symmetry_equiv_pos_site_id
 _symmetry_equiv_pos_as_xyz
  1  'x, y, z'
loop_
 _atom_site_type_symbol
 _atom_site_label
 _atom_site_symmetry_multiplicity
 _atom_site_fract_x
 _atom_site_fract_y
 _atom_site_fract_z
 _atom_site_occupancy
  Pr  Pr0  1  0.49998216  0.33331208  0.66667924  1
  Pr  Pr1  1  0.49998216  0.66663384  0.33332076  1
  Pr  Pr2  1  0.99998216  0.66668792  0.33332076  1
  Pr  Pr3  1  0.99998216  0.33336616  0.66667924  1
  Pr  Pr4  1  0.75002062  0.24075803  -0.00000000  1
  Pr  Pr5  1  0.75001848  0.75934874  0.75931346  1
  Pr  Pr6  1  0.75001848  0.00003527  0.24068554  1
  Pr  Pr7  1  0.25002062  0.75924197  0.00000000  1
  Pr  Pr8  1  0.25001848  0.24065126  0.24068654  1
  Pr  Pr9  1  0.25001848  0.99996473  0.75931446  1
  Pb  Pb0  1  0.74987924  0.60692225  0.00000000  1
  Pb  Pb1  1  0.75005044  0.39314416  0.39313816  1
  Pb  Pb2  1  0.75005044  0.00000600  0.60686184  1
  Pb  Pb3  1  0.24987924  0.39307775  -0.00000000  1
  Pb  Pb4  1  0.25005044  0.60685584  0.60686184  1
  Pb  Pb5  1  0.25005044  0.99999400  0.39313816  1
loop_
_geom_bond_atom_site_label_1
_geom_bond_atom_site_label_2
_geom_bond_distance
_geom_bond_site_symmetry_2
Pr0 Pr3 3.498050 1_455
Pr0 Pr3 3.498050 1_555
Pr0 Pr4 4.060138 1_556
Pr0 Pr7 4.060235 1_556
Pr0 Pr8 4.060573 1_555
Pr0 Pr6 4.060661 1_555
Pr0 Pr9 4.060664 1_545
Pr0 Pr5 4.061343 1_555
Pr1 Pr2 3.498050 1_455
Pr1 Pr2 3.498050 1_555
Pr1 Pr4 4.060158 1_555
Pr1 Pr7 4.060215 1_555
Pr1 Pr9 4.060585 1_555
Pr1 Pr5 4.060649 1_555
Pr1 Pr8 4.060673 1_555
Pr1 Pr6 4.061334 1_565
Pr2 Pr7 4.060138 1_655
Pr2 Pr4 4.060235 1_555
Pr2 Pr5 4.060573 1_555
Pr2 Pr9 4.060661 1_655
Pr2 Pr6 4.060664 1_565
Pr2 Pr8 4.061343 1_655
Pr3 Pr7 4.060158 1_656
Pr3 Pr4 4.060215 1_556
Pr3 Pr6 4.060585 1_555
Pr3 Pr8 4.060649 1_655
Pr3 Pr5 4.060673 1_555
Pr3 Pr9 4.061334 1_645
Pr4 Pr6 3.937364 1_555
Pr4 Pr5 3.937387 1_544
Pr4 Pr8 4.171954 1_655
Pr4 Pr9 4.171957 1_644
Pr4 Pr8 4.171980 1_555
Pr4 Pr9 4.171982 1_544
Pr5 Pr6 3.936965 1_566
Pr5 Pr9 4.171364 1_555
Pr5 Pr9 4.171364 1_655
Pr5 Pr7 4.171954 1_556
Pr5 Pr7 4.171980 1_656
Pr6 Pr8 4.171364 1_655
Pr6 Pr8 4.171364 1_555
Pr6 Pr7 4.171957 1_545
Pr6 Pr7 4.171982 1_645
Pr7 Pr9 3.937364 1_554
Pr7 Pr8 3.937387 1_565
Pr8 Pr9 3.936965 1_544
Pb0 Pr5 3.242095 1_554
Pb0 Pr6 3.242107 1_565
Pb0 Pr1 3.392404 1_555
Pb0 Pr0 3.392414 1_554
Pb0 Pr2 3.392995 1_555
Pb0 Pr3 3.393004 1_554
Pb0 Pr4 3.458137 1_555
Pb0 Pr7 3.781380 1_555
Pb0 Pr7 3.783210 1_655
Pb1 Pr6 3.242065 1_555
Pb1 Pr4 3.242293 1_555
Pb1 Pr3 3.392354 1_555
Pb1 Pr2 3.392635 1_555
Pb1 Pr1 3.392696 1_555
Pb1 Pr0 3.393126 1_555
Pb1 Pr5 3.458289 1_555
Pb1 Pr8 3.782622 1_655
Pb1 Pr8 3.783036 1_555
Pb2 Pr5 3.242056 1_545
Pb2 Pr4 3.242297 1_556
Pb2 Pr2 3.392359 1_545
Pb2 Pr3 3.392631 1_555
Pb2 Pr0 3.392692 1_555
Pb2 Pr1 3.393131 1_545
Pb2 Pr6 3.458285 1_555
Pb2 Pr9 3.782624 1_645
Pb2 Pr9 3.783037 1_545
Pb3 Pr8 3.242095 1_555
Pb3 Pr9 3.242107 1_544
Pb3 Pr3 3.392404 1_454
Pb3 Pr2 3.392414 1_455
Pb3 Pr0 3.392995 1_554
Pb3 Pr1 3.393004 1_555
Pb3 Pr7 3.458137 1_555
Pb3 Pr4 3.781380 1_455
Pb3 Pr4 3.783210 1_555
Pb4 Pr9 3.242065 1_555
Pb4 Pr7 3.242293 1_556
Pb4 Pr1 3.392354 1_555
Pb4 Pr0 3.392635 1_555
Pb4 Pr3 3.392696 1_455
Pb4 Pr2 3.393126 1_455
Pb4 Pr8 3.458289 1_555
Pb4 Pr5 3.782622 1_555
Pb4 Pr5 3.783036 1_455
Pb5 Pr8 3.242056 1_565
Pb5 Pr7 3.242297 1_555
Pb5 Pr0 3.392359 1_565
Pb5 Pr1 3.392631 1_555
Pb5 Pr2 3.392692 1_455
Pb5 Pr3 3.393131 1_465
Pb5 Pr9 3.458285 1_555
Pb5 Pr6 3.782624 1_565
Pb5 Pr6 3.783037 1_465
