# generated using pymatgen
data_PbAu2
_symmetry_space_group_name_H-M   'P 1'
_cell_length_a   5.69948016
_cell_length_b   5.69947896
_cell_length_c   5.69948080
_cell_angle_alpha   60.00000142
_cell_angle_beta   60.00000846
_cell_angle_gamma   60.00000563
_symmetry_Int_Tables_number   1
_chemical_formula_structural   PbAu2
_chemical_formula_sum   'Pb2 Au4'
_cell_volume   130.91540361
_cell_formula_units_Z   2
loop_
 _symmetry_equiv_pos_site_id
 _symmetry_equiv_pos_as_xyz
  1  'x, y, z'
loop_
 _atom_site_type_symbol
 _atom_site_label
 _atom_site_symmetry_multiplicity
 _atom_site_fract_x
 _atom_site_fract_y
 _atom_site_fract_z
 _atom_site_occupancy
  Pb  Pb0  1  0.12500000  0.12500000  0.12500000  1
  Pb  Pb1  1  0.87500000  0.87500000  0.87500000  1
  Au  Au0  1  0.50000000  -0.00000000  0.50000000  1
  Au  Au1  1  0.00000000  0.50000000  0.50000000  1
  Au  Au2  1  0.50000000  0.50000000  0.50000000  1
  Au  Au3  1  0.50000000  0.50000000  0.00000000  1
loop_
_geom_bond_atom_site_label_1
_geom_bond_atom_site_label_2
_geom_bond_distance
_geom_bond_site_symmetry_2
Pb0 Pb1 3.490204 1_454
Pb0 Pb1 3.490204 1_444
Pb0 Pb1 3.490205 1_544
Pb0 Pb1 3.490205 1_445
Au0 Au2 2.849739 1_545
Au0 Au2 2.849739 1_555
Au0 Au3 2.849740 1_555
Au0 Au3 2.849740 1_546
Au0 Au1 2.849740 1_645
Au0 Au1 2.849740 1_555
Au0 Pb1 3.341617 1_545
Au0 Pb0 3.341617 1_555
Au0 Pb1 3.341617 1_445
Au0 Pb0 3.341617 1_655
Au0 Pb0 3.341617 1_556
Au0 Pb1 3.341617 1_544
Au1 Au2 2.849740 1_455
Au1 Au2 2.849740 1_555
Au1 Au3 2.849741 1_555
Au1 Au3 2.849741 1_456
Au1 Pb0 3.341616 1_565
Au1 Pb1 3.341616 1_445
Au1 Pb0 3.341616 1_555
Au1 Pb1 3.341616 1_455
Au1 Pb0 3.341617 1_556
Au1 Pb1 3.341617 1_454
Au2 Au3 2.849740 1_556
Au2 Au3 2.849740 1_555
Au2 Pb1 3.341616 1_545
Au2 Pb0 3.341616 1_565
Au2 Pb0 3.341617 1_556
Au2 Pb1 3.341617 1_554
Au2 Pb0 3.341617 1_655
Au2 Pb1 3.341617 1_455
Au3 Pb1 3.341616 1_554
Au3 Pb0 3.341616 1_555
Au3 Pb0 3.341616 1_565
Au3 Pb1 3.341616 1_544
Au3 Pb0 3.341617 1_655
Au3 Pb1 3.341617 1_454
