# generated using pymatgen
data_ZnS
_symmetry_space_group_name_H-M   'P 1'
_cell_length_a   13.24306216
_cell_length_b   13.76673509
_cell_length_c   13.10336565
_cell_angle_alpha   84.20367252
_cell_angle_beta   81.11532048
_cell_angle_gamma   83.93460619
_symmetry_Int_Tables_number   1
_chemical_formula_structural   ZnS
_chemical_formula_sum   'Zn50 S50'
_cell_volume   2338.31357166
_cell_formula_units_Z   50
loop_
 _symmetry_equiv_pos_site_id
 _symmetry_equiv_pos_as_xyz
  1  'x, y, z'
loop_
 _atom_site_type_symbol
 _atom_site_label
 _atom_site_symmetry_multiplicity
 _atom_site_fract_x
 _atom_site_fract_y
 _atom_site_fract_z
 _atom_site_occupancy
  Zn  Zn0  1  0.47930842  0.56521513  0.76218337  1
  Zn  Zn1  1  0.44150850  0.12746979  0.79812549  1
  Zn  Zn2  1  0.62988761  0.33523703  0.84996923  1
  Zn  Zn3  1  0.48852140  0.09109133  0.61087984  1
  Zn  Zn4  1  0.02214872  0.90385809  0.32430188  1
  Zn  Zn5  1  0.87564526  0.62628236  0.51167301  1
  Zn  Zn6  1  0.98808565  0.12903530  0.94650297  1
  Zn  Zn7  1  0.69648570  0.71518088  0.99108430  1
  Zn  Zn8  1  0.01455703  0.34077317  0.96364929  1
  Zn  Zn9  1  0.13135802  0.16869638  0.77561292  1
  Zn  Zn10  1  0.55945504  0.32564350  0.33719933  1
  Zn  Zn11  1  0.70756628  0.51388183  0.88192491  1
  Zn  Zn12  1  0.47299866  0.00941062  0.01278595  1
  Zn  Zn13  1  0.00722972  0.14782546  0.20834005  1
  Zn  Zn14  1  0.13482688  0.67068959  0.39213503  1
  Zn  Zn15  1  0.61748636  0.31866052  0.12740595  1
  Zn  Zn16  1  0.36169253  0.25120116  0.57934042  1
  Zn  Zn17  1  0.83762129  0.99649572  0.26059624  1
  Zn  Zn18  1  0.63935481  0.01499695  0.06781952  1
  Zn  Zn19  1  0.05688617  0.95363345  0.64219421  1
  Zn  Zn20  1  0.36938516  0.78898004  0.38742879  1
  Zn  Zn21  1  0.60391612  0.88841477  0.29004443  1
  Zn  Zn22  1  0.92525658  0.08746851  0.47447739  1
  Zn  Zn23  1  0.52285331  0.92046935  0.54964770  1
  Zn  Zn24  1  0.25402367  0.30226185  0.34555292  1
  Zn  Zn25  1  0.17924705  0.08901254  0.94804569  1
  Zn  Zn26  1  0.03527653  0.79806638  0.90719177  1
  Zn  Zn27  1  0.68257704  0.46336816  0.64132339  1
  Zn  Zn28  1  0.54272544  0.27138346  0.59076162  1
  Zn  Zn29  1  0.62475330  0.94894943  0.87052126  1
  Zn  Zn30  1  0.27340643  0.69488368  0.18407387  1
  Zn  Zn31  1  0.21217211  0.66656456  0.67389913  1
  Zn  Zn32  1  0.49973621  0.95076968  0.75346025  1
  Zn  Zn33  1  0.80688827  0.44349928  0.15015026  1
  Zn  Zn34  1  0.46422072  0.23851136  0.21513033  1
  Zn  Zn35  1  0.73361265  0.70924212  0.67453703  1
  Zn  Zn36  1  0.76505925  0.41329140  0.38338512  1
  Zn  Zn37  1  0.95101713  0.46932821  0.70437911  1
  Zn  Zn38  1  0.13092963  0.42824239  0.58387829  1
  Zn  Zn39  1  0.61097762  0.55129996  0.10123742  1
  Zn  Zn40  1  0.33530958  0.53150523  0.41069096  1
  Zn  Zn41  1  0.99071038  0.32031729  0.58813771  1
  Zn  Zn42  1  0.24172514  0.42881621  0.81435162  1
  Zn  Zn43  1  0.83779684  0.84930650  0.39869475  1
  Zn  Zn44  1  0.27028533  0.21440394  0.11172652  1
  Zn  Zn45  1  0.61379751  0.66062884  0.40757794  1
  Zn  Zn46  1  0.03246419  0.52664828  0.28845596  1
  Zn  Zn47  1  0.13907352  0.52704729  0.00043157  1
  Zn  Zn48  1  0.30544147  0.81903937  0.97398689  1
  Zn  Zn49  1  0.25656303  0.90282965  0.74454703  1
  S  S0  1  0.61008215  0.64590786  0.80133975  1
  S  S1  1  0.86931068  0.14638226  0.32671330  1
  S  S2  1  0.45462445  0.92079896  0.39282991  1
  S  S3  1  0.86899766  0.86926473  0.94444205  1
  S  S4  1  0.32019557  0.36428958  0.12009995  1
  S  S5  1  0.31865054  0.15960532  0.27245940  1
  S  S6  1  0.63701115  0.46791672  0.25832872  1
  S  S7  1  0.10618717  0.70318905  0.04265390  1
  S  S8  1  0.58883720  0.18008098  0.91396996  1
  S  S9  1  0.18798355  0.58252680  0.54145592  1
  S  S10  1  0.41618709  0.83042638  0.69963185  1
  S  S11  1  0.72201573  0.07998745  0.90486115  1
  S  S12  1  0.38669491  0.36266299  0.41941692  1
  S  S13  1  0.18329038  0.92002846  0.91980880  1
  S  S14  1  0.30628401  0.58401644  0.78920946  1
  S  S15  1  0.69473971  0.79840411  0.51805017  1
  S  S16  1  0.08494000  0.98625037  0.16553982  1
  S  S17  1  0.91799730  0.41187094  0.27073948  1
  S  S18  1  0.33834324  0.12292441  0.97059533  1
  S  S19  1  0.96482607  0.68288722  0.36282109  1
  S  S20  1  0.86526008  0.26714620  0.95376531  1
  S  S21  1  0.76227600  0.82056915  0.85971524  1
  S  S22  1  0.96057853  0.08228722  0.73657718  1
  S  S23  1  0.00972243  0.59226450  0.11468414  1
  S  S24  1  0.56594522  0.43531583  0.99715070  1
  S  S25  1  0.20071342  0.05739881  0.64792405  1
  S  S26  1  0.67504884  0.28036972  0.45468492  1
  S  S27  1  0.09988050  0.36588102  0.43004765  1
  S  S28  1  0.78535833  0.40165406  0.76261410  1
  S  S29  1  0.73291350  0.54588378  0.48775861  1
  S  S30  1  0.79937923  0.27431020  0.10983378  1
  S  S31  1  0.79478013  0.56338668  0.00590139  1
  S  S32  1  0.68290994  0.73492293  0.24531637  1
  S  S33  1  0.44095191  0.64251490  0.45187078  1
  S  S34  1  0.21752624  0.80788722  0.31516854  1
  S  S35  1  0.09739251  0.23391555  0.07823938  1
  S  S36  1  0.57114734  0.72261148  0.13956505  1
  S  S37  1  0.22504574  0.31290821  0.69780769  1
  S  S38  1  0.90226932  0.17691397  0.61863817  1
  S  S39  1  0.95532998  0.99825784  0.08663436  1
  S  S40  1  0.22374053  0.55254904  0.27751638  1
  S  S41  1  0.11525525  0.80510623  0.72930206  1
  S  S42  1  0.32390523  0.09814280  0.53667110  1
  S  S43  1  0.67040379  0.03212877  0.22752861  1
  S  S44  1  0.90257221  0.63983732  0.67411133  1
  S  S45  1  0.53181667  0.40123976  0.71537826  1
  S  S46  1  0.05985412  0.47246315  0.86022941  1
  S  S47  1  0.98260329  0.92834551  0.50201447  1
  S  S48  1  0.30297077  0.45446973  0.98330109  1
  S  S49  1  0.39701116  0.70138339  0.04334928  1
loop_
_geom_bond_atom_site_label_1
_geom_bond_atom_site_label_2
_geom_bond_distance
_geom_bond_site_symmetry_2
Zn4 Zn43 2.641790 1_455
Zn17 Zn43 2.576845 1_555
Zn25 Zn6 2.536057 1_455
Zn25 Zn9 2.550620 1_555
S0 Zn0 2.300597 1_555
S0 Zn35 2.316545 1_555
S0 Zn11 2.371236 1_555
S1 Zn13 2.206493 1_655
S1 Zn22 2.225885 1_555
S1 Zn17 2.416796 1_545
S2 Zn21 2.243671 1_555
S2 Zn20 2.248551 1_555
S2 Zn23 2.368453 1_555
S3 Zn26 2.314405 1_655
S4 S48 2.103195 1_554
S4 Zn44 2.250118 1_555
S4 Zn34 2.790512 1_555
S5 Zn24 2.297455 1_555
S5 Zn34 2.300238 1_555
S5 Zn44 2.325693 1_555
S6 Zn39 2.309110 1_555
S6 Zn10 2.376469 1_555
S6 Zn33 2.476857 1_555
S6 Zn36 2.542879 1_555
S6 Zn15 2.862390 1_555
S7 Zn26 2.350731 1_554
S7 Zn47 2.519775 1_555
S8 Zn2 2.303051 1_555
S8 Zn1 2.840955 1_555
S9 Zn31 2.260191 1_555
S9 Zn38 2.315633 1_555
S9 Zn14 2.358431 1_555
S9 Zn40 2.481280 1_555
S10 Zn49 2.257751 1_555
S10 Zn32 2.308887 1_555
S10 Zn23 2.532753 1_555
S11 S8 2.116185 1_555
S11 Zn18 2.378532 1_556
S11 Zn29 2.439235 1_545
S12 Zn40 2.348425 1_555
S12 Zn24 2.389924 1_555
S12 Zn10 2.399556 1_555
S12 Zn16 2.469624 1_555
S13 Zn48 2.175728 1_555
S13 Zn49 2.375832 1_555
S13 Zn25 2.386027 1_565
S13 Zn26 2.745966 1_555
S14 Zn31 2.250182 1_555
S14 Zn0 2.255066 1_555
S14 Zn42 2.358262 1_555
S15 Zn35 2.379162 1_555
S15 Zn43 2.381213 1_555
S15 Zn23 2.686615 1_555
S15 Zn45 2.881926 1_555
S16 S39 2.120418 1_455
S16 Zn4 2.343956 1_555
S16 Zn13 2.431324 1_565
S17 Zn33 2.301150 1_555
S17 Zn36 2.314131 1_555
S17 Zn46 2.353199 1_655
S18 Zn25 2.274292 1_555
S18 Zn12 2.338547 1_556
S18 Zn44 2.352432 1_556
S18 Zn1 2.452257 1_555
S19 Zn5 2.232110 1_555
S19 Zn14 2.327752 1_655
S19 Zn46 2.474836 1_655
S19 Zn43 2.731051 1_555
S20 S30 2.103441 1_556
S20 Zn8 2.341453 1_655
S20 Zn6 2.367506 1_555
S21 S3 2.124776 1_555
S21 Zn7 2.264206 1_555
S21 Zn29 2.398165 1_555
S22 S38 2.104986 1_555
S22 Zn19 2.402282 1_645
S22 Zn9 2.800095 1_655
S22 Zn6 2.971541 1_555
S23 S7 2.145563 1_555
S23 Zn47 2.266293 1_555
S23 Zn46 2.414598 1_555
S24 Zn15 2.352163 1_556
S24 Zn39 2.378595 1_556
S24 Zn2 2.473936 1_555
S24 Zn11 2.488195 1_555
S25 S42 2.096411 1_555
S25 Zn9 2.395082 1_555
S25 Zn49 2.467896 1_545
S25 Zn19 2.512976 1_545
S26 Zn28 2.302500 1_555
S26 Zn36 2.326783 1_555
S26 Zn10 2.331159 1_555
S27 Zn24 2.297787 1_555
S27 Zn38 2.376829 1_555
S27 Zn41 2.403934 1_455
S27 Zn46 2.898696 1_555
S28 Zn27 2.291626 1_555
S28 Zn11 2.355107 1_555
S28 Zn2 2.417397 1_555
S28 Zn37 2.456497 1_555
S29 Zn27 2.251177 1_555
S29 Zn36 2.354531 1_555
S29 Zn5 2.364588 1_555
S29 Zn45 2.395345 1_555
S30 Zn15 2.403013 1_555
S30 Zn33 2.455151 1_555
S31 Zn11 2.325298 1_554
S31 Zn7 2.349536 1_554
S31 Zn33 2.393732 1_555
S31 Zn39 2.572445 1_555
S32 S36 2.207599 1_555
S32 Zn21 2.344482 1_555
S32 Zn45 2.358365 1_555
S33 Zn20 2.275167 1_555
S33 Zn45 2.306427 1_555
S33 Zn40 2.331424 1_555
S34 Zn20 2.331630 1_555
S34 Zn14 2.344184 1_555
S34 Zn30 2.412965 1_555
S34 Zn4 2.769187 1_555
S35 Zn13 2.235789 1_555
S35 Zn8 2.311630 1_554
S35 Zn44 2.379844 1_555
S35 Zn25 2.779207 1_554
S36 Zn7 2.357485 1_554
S36 Zn39 2.446840 1_555
S37 Zn16 2.340911 1_555
S37 Zn42 2.365995 1_555
S37 Zn38 2.445588 1_555
S37 Zn9 2.498255 1_555
S38 Zn22 2.321685 1_555
S38 Zn41 2.369311 1_555
S39 Zn6 2.460165 1_564
S39 Zn17 2.554566 1_555
S39 Zn13 2.925109 1_665
S40 Zn30 2.304422 1_555
S40 Zn14 2.414493 1_555
S40 Zn40 2.432279 1_555
S40 Zn46 2.575383 1_555
S41 Zn31 2.299249 1_555
S41 Zn19 2.355497 1_555
S41 Zn26 2.403750 1_555
S41 Zn49 2.460397 1_555
S42 Zn16 2.355880 1_555
S42 Zn3 2.509673 1_555
S43 Zn18 2.233873 1_555
S43 Zn21 2.275666 1_545
S43 Zn17 2.314338 1_545
S44 Zn5 2.240801 1_555
S44 Zn35 2.337730 1_555
S44 Zn37 2.377240 1_555
S45 Zn27 2.292178 1_555
S45 Zn2 2.399400 1_555
S45 Zn0 2.402445 1_555
S45 Zn28 2.518980 1_555
S46 Zn8 2.228343 1_555
S46 Zn42 2.417298 1_555
S46 Zn47 2.465986 1_556
S46 Zn37 2.681398 1_455
S47 Zn22 2.253690 1_565
S47 Zn19 2.285289 1_655
S47 Zn4 2.356904 1_655
S47 Zn43 2.869638 1_555
S48 Zn47 2.279536 1_556
S48 Zn42 2.540986 1_555
S49 Zn48 2.132646 1_554
S49 Zn30 2.270009 1_555
