# generated using pymatgen
data_Sm4In20Ni11
_symmetry_space_group_name_H-M   'P 1'
_cell_length_a   11.65084991
_cell_length_b   11.65084991
_cell_length_c   16.86294567
_cell_angle_alpha   55.97345483
_cell_angle_beta   55.97345483
_cell_angle_gamma   21.03636431
_symmetry_Int_Tables_number   1
_chemical_formula_structural   Sm4In20Ni11
_chemical_formula_sum   'Sm4 In20 Ni11'
_cell_volume   675.60688004
_cell_formula_units_Z   1
loop_
 _symmetry_equiv_pos_site_id
 _symmetry_equiv_pos_as_xyz
  1  'x, y, z'
loop_
 _atom_site_type_symbol
 _atom_site_label
 _atom_site_symmetry_multiplicity
 _atom_site_fract_x
 _atom_site_fract_y
 _atom_site_fract_z
 _atom_site_occupancy
  Sm  Sm0  1  0.11884200  0.11884200  0.66810200  1
  Sm  Sm1  1  0.88115800  0.88115800  0.33189800  1
  Sm  Sm2  1  0.77171700  0.77171700  0.82579200  1
  Sm  Sm3  1  0.22828300  0.22828300  0.17420800  1
  In  In0  1  0.01003800  0.01003800  0.90564300  1
  In  In1  1  0.98996200  0.98996200  0.09435700  1
  In  In2  1  0.06420000  0.06420000  0.20861100  1
  In  In3  1  0.93580000  0.93580000  0.79138900  1
  In  In4  1  0.11220300  0.11220300  0.44994800  1
  In  In5  1  0.88779700  0.88779700  0.55005200  1
  In  In6  1  0.20235800  0.20235800  0.99720400  1
  In  In7  1  0.79764200  0.79764200  0.00279600  1
  In  In8  1  0.24599900  0.24599900  0.70936600  1
  In  In9  1  0.75400100  0.75400100  0.29063400  1
  In  In10  1  0.29677000  0.29677000  0.50220900  1
  In  In11  1  0.70323000  0.70323000  0.49779100  1
  In  In12  1  0.39043000  0.39043000  0.68934900  1
  In  In13  1  0.60957000  0.60957000  0.31065100  1
  In  In14  1  0.39724300  0.39724300  0.99114700  1
  In  In15  1  0.60275700  0.60275700  0.00885300  1
  In  In16  1  0.53901300  0.53901300  0.62346100  1
  In  In17  1  0.46098700  0.46098700  0.37653900  1
  In  In18  1  0.62862500  0.62862500  0.80332100  1
  In  In19  1  0.37137500  0.37137500  0.19667900  1
  Ni  Ni0  1  0.02260400  0.02260400  0.39991600  1
  Ni  Ni1  1  0.97739600  0.97739600  0.60008400  1
  Ni  Ni2  1  0.13416500  0.13416500  0.89820500  1
  Ni  Ni3  1  0.86583500  0.86583500  0.10179500  1
  Ni  Ni4  1  0.25110300  0.25110300  0.38458900  1
  Ni  Ni5  1  0.74889700  0.74889700  0.61541100  1
  Ni  Ni6  1  0.34639800  0.34639800  0.88090700  1
  Ni  Ni7  1  0.65360200  0.65360200  0.11909300  1
  Ni  Ni8  1  0.50505100  0.50505100  0.80863600  1
  Ni  Ni9  1  0.49494900  0.49494900  0.19136400  1
  Ni  Ni10  1  0.50000000  0.50000000  0.50000000  1
loop_
_geom_bond_atom_site_label_1
_geom_bond_atom_site_label_2
_geom_bond_distance
_geom_bond_site_symmetry_2
In0 Ni8 2.724911 1_455
In0 Ni8 2.724911 1_545
In0 Ni2 2.774302 1_555
In0 In1 2.944885 1_446
In0 In14 3.006494 1_455
In0 In14 3.006494 1_545
In0 Ni3 3.068652 1_446
In0 In18 3.089636 1_545
In0 In18 3.089636 1_455
In0 In3 3.214770 1_445
In0 Sm0 3.300477 1_555
In1 Ni9 2.724911 1_565
In1 Ni9 2.724911 1_655
In1 Ni3 2.774302 1_555
In1 In15 3.006494 1_565
In1 In15 3.006494 1_655
In1 Ni2 3.068652 1_664
In1 In19 3.089636 1_565
In1 In19 3.089636 1_655
In1 In2 3.214770 1_665
In1 Sm1 3.300477 1_555
In2 Ni7 2.734576 1_455
In2 Ni7 2.734576 1_545
In2 Ni9 2.765933 1_455
In2 Ni9 2.765933 1_545
In2 Ni0 2.795648 1_555
In2 In6 3.143769 1_554
In2 Sm1 3.461787 1_445
In2 Sm3 3.462009 1_555
In3 Ni6 2.734576 1_655
In3 Ni6 2.734576 1_565
In3 Ni8 2.765933 1_565
In3 Ni8 2.765933 1_655
In3 Ni1 2.795648 1_555
In3 In7 3.143769 1_556
In3 Sm0 3.461787 1_665
In3 Sm2 3.462009 1_555
In4 Ni0 2.626183 1_555
In4 Ni1 2.654776 1_445
In4 Ni4 2.710904 1_555
In4 Ni10 3.061710 1_545
In4 Ni10 3.061710 1_455
In4 Sm0 3.767362 1_555
In4 Sm3 3.823267 1_555
In5 Ni1 2.626183 1_555
In5 Ni0 2.654776 1_665
In5 Ni5 2.710904 1_555
In5 Ni10 3.061710 1_655
In5 Ni10 3.061710 1_565
In5 Sm1 3.767362 1_555
In5 Sm2 3.823267 1_555
In6 Ni6 2.714645 1_555
In6 Ni7 2.717065 1_456
In6 Ni7 2.717065 1_546
In6 Ni2 2.862965 1_555
In6 In7 3.087393 1_456
In6 In7 3.087393 1_546
In6 Sm2 3.189867 1_545
In6 Sm2 3.189867 1_455
In6 Sm3 3.358544 1_556
In7 Ni7 2.714645 1_555
In7 Ni6 2.717065 1_564
In7 Ni6 2.717065 1_654
In7 Ni3 2.862965 1_555
In7 Sm3 3.189867 1_565
In7 Sm3 3.189867 1_655
In7 Sm2 3.358544 1_554
In8 Ni5 2.630263 1_455
In8 Ni5 2.630263 1_545
In8 Ni2 2.723564 1_555
In8 Sm2 3.168881 1_455
In8 Sm2 3.168881 1_545
In8 Sm0 3.358309 1_555
In9 Ni4 2.630263 1_655
In9 Ni4 2.630263 1_565
In9 Ni3 2.723564 1_555
In9 Sm3 3.168881 1_565
In9 Sm3 3.168881 1_655
In9 Sm1 3.358309 1_555
In10 Ni5 2.643321 1_545
In10 Ni5 2.643321 1_455
In10 Ni4 2.718575 1_555
In10 Sm1 3.192030 1_545
In10 Sm1 3.192030 1_455
In10 Sm0 3.385579 1_555
In11 Ni4 2.643321 1_565
In11 Ni4 2.643321 1_655
In11 Ni5 2.718575 1_555
In11 Sm0 3.192030 1_565
In11 Sm0 3.192030 1_655
In11 Sm1 3.385579 1_555
In12 Ni1 2.710187 1_545
In12 Ni1 2.710187 1_455
In12 Ni10 2.715324 1_555
In12 Ni6 2.782597 1_555
In12 Sm2 3.176671 1_455
In12 Sm2 3.176671 1_545
In13 Ni0 2.710187 1_565
In13 Ni0 2.710187 1_655
In13 Ni10 2.715324 1_555
In13 Ni7 2.782597 1_555
In13 Sm3 3.176671 1_565
In13 Sm3 3.176671 1_655
In14 Ni8 2.630549 1_555
In14 Ni3 2.644682 1_456
In14 Ni3 2.644682 1_546
In14 Ni6 2.697700 1_555
In14 In7 3.042817 1_546
In14 In7 3.042817 1_456
In14 In19 3.166301 1_556
In14 Sm3 3.303256 1_556
In15 Ni9 2.630549 1_555
In15 Ni2 2.644682 1_564
In15 Ni2 2.644682 1_654
In15 Ni7 2.697700 1_555
In15 In6 3.042817 1_564
In15 In6 3.042817 1_654
In15 In18 3.166301 1_554
In15 Sm2 3.303256 1_554
In16 Ni10 2.692835 1_555
In16 Ni1 2.702781 1_455
In16 Ni1 2.702781 1_545
In16 Ni8 2.755073 1_555
In16 Sm0 3.162608 1_655
In16 Sm0 3.162608 1_565
In17 Ni10 2.692835 1_555
In17 Ni0 2.702781 1_655
In17 Ni0 2.702781 1_565
In17 Ni9 2.755073 1_555
In17 Sm1 3.162608 1_545
In17 Sm1 3.162608 1_455
In18 Ni2 2.707539 1_655
In18 Ni2 2.707539 1_565
In18 Ni5 2.773927 1_555
In18 Ni8 2.781067 1_555
In18 Sm0 3.217865 1_655
In18 Sm0 3.217865 1_565
In18 Sm2 3.507788 1_555
In19 Ni3 2.707539 1_455
In19 Ni3 2.707539 1_545
In19 Ni4 2.773927 1_555
In19 Ni9 2.781067 1_555
In19 Sm1 3.217865 1_545
In19 Sm1 3.217865 1_455
In19 Sm3 3.507788 1_555
Ni0 Ni10 2.577812 1_455
Ni0 Ni10 2.577812 1_545
Ni1 Ni10 2.577812 1_655
Ni1 Ni10 2.577812 1_565
Ni2 Sm2 3.400769 1_455
Ni2 Sm2 3.400769 1_545
Ni3 Sm3 3.400769 1_655
Ni3 Sm3 3.400769 1_565
Ni4 Sm1 3.343244 1_455
Ni4 Sm1 3.343244 1_545
Ni5 Sm0 3.343244 1_655
Ni5 Sm0 3.343244 1_565
Ni6 Sm2 3.181921 1_545
Ni6 Sm2 3.181921 1_455
Ni7 Sm3 3.181921 1_565
Ni7 Sm3 3.181921 1_655
Ni8 Sm0 3.146968 1_565
Ni8 Sm0 3.146968 1_655
Ni9 Sm1 3.146968 1_545
Ni9 Sm1 3.146968 1_455
