# generated using pymatgen
data_SrIrO3
_symmetry_space_group_name_H-M   'P 1'
_cell_length_a   5.64167700
_cell_length_b   5.68886700
_cell_length_c   7.94354600
_cell_angle_alpha   90.00000000
_cell_angle_beta   90.00000000
_cell_angle_gamma   90.00000000
_symmetry_Int_Tables_number   1
_chemical_formula_structural   SrIrO3
_chemical_formula_sum   'Sr4 Ir4 O12'
_cell_volume   254.94612386
_cell_formula_units_Z   4
loop_
 _symmetry_equiv_pos_site_id
 _symmetry_equiv_pos_as_xyz
  1  'x, y, z'
loop_
 _atom_site_type_symbol
 _atom_site_label
 _atom_site_symmetry_multiplicity
 _atom_site_fract_x
 _atom_site_fract_y
 _atom_site_fract_z
 _atom_site_occupancy
  Sr  Sr0  1  0.98990100  0.04165400  0.25000000  1
  Sr  Sr1  1  0.51009900  0.54165400  0.25000000  1
  Sr  Sr2  1  0.01009900  0.95834600  0.75000000  1
  Sr  Sr3  1  0.48990100  0.45834600  0.75000000  1
  Ir  Ir0  1  0.50000000  0.00000000  0.00000000  1
  Ir  Ir1  1  0.00000000  0.50000000  0.50000000  1
  Ir  Ir2  1  0.50000000  0.00000000  0.50000000  1
  Ir  Ir3  1  0.00000000  0.50000000  0.00000000  1
  O  O0  1  0.41727200  0.98439200  0.25000000  1
  O  O1  1  0.08272800  0.48439200  0.25000000  1
  O  O2  1  0.58272800  0.01560800  0.75000000  1
  O  O3  1  0.91727200  0.51560800  0.75000000  1
  O  O4  1  0.78829100  0.78772600  0.04453000  1
  O  O5  1  0.71170900  0.28772600  0.45547000  1
  O  O6  1  0.21170900  0.21227400  0.54453000  1
  O  O7  1  0.28829100  0.71227400  0.95547000  1
  O  O8  1  0.21170900  0.21227400  0.95547000  1
  O  O9  1  0.28829100  0.71227400  0.54453000  1
  O  O10  1  0.78829100  0.78772600  0.45547000  1
  O  O11  1  0.71170900  0.28772600  0.04453000  1
loop_
_geom_bond_atom_site_label_1
_geom_bond_atom_site_label_2
_geom_bond_distance
_geom_bond_site_symmetry_2
Ir0 O2 2.041926 1_554
Ir0 O0 2.041926 1_545
Ir0 O4 2.056390 1_545
Ir0 O8 2.056390 1_554
Ir0 O11 2.056922 1_555
Ir0 O7 2.056922 1_544
Ir1 O3 2.041926 1_455
Ir1 O1 2.041926 1_555
Ir1 O9 2.056390 1_555
Ir1 O5 2.056390 1_455
Ir1 O10 2.056922 1_455
Ir1 O6 2.056922 1_555
Ir2 O2 2.041926 1_555
Ir2 O0 2.041926 1_545
Ir2 O10 2.056390 1_545
Ir2 O6 2.056390 1_555
Ir2 O5 2.056922 1_555
Ir2 O9 2.056922 1_545
Ir3 O3 2.041926 1_454
Ir3 O1 2.041926 1_555
Ir3 O7 2.056390 1_554
Ir3 O11 2.056390 1_455
Ir3 O4 2.056922 1_455
Ir3 O8 2.056922 1_554
O0 Sr0 2.432996 1_465
O0 Sr1 2.572547 1_555
O1 Sr1 2.432996 1_555
O1 Sr0 2.572547 1_455
O2 Sr2 2.432996 1_645
O2 Sr3 2.572547 1_555
O3 Sr3 2.432996 1_555
O3 Sr2 2.572547 1_655
O4 Sr0 2.458542 1_565
O4 Sr1 2.662108 1_555
O4 Sr2 2.825216 1_654
O5 Sr1 2.458542 1_555
O5 Sr0 2.662108 1_555
O5 Sr3 2.825216 1_555
O6 Sr2 2.458542 1_545
O6 Sr3 2.662108 1_555
O6 Sr0 2.825216 1_455
O7 Sr3 2.458542 1_555
O7 Sr2 2.662108 1_555
O7 Sr1 2.825216 1_556
O8 Sr2 2.458542 1_545
O8 Sr3 2.662108 1_555
O8 Sr0 2.825216 1_456
O9 Sr3 2.458542 1_555
O9 Sr2 2.662108 1_555
O9 Sr1 2.825216 1_555
O10 Sr0 2.458542 1_565
O10 Sr1 2.662108 1_555
O10 Sr2 2.825216 1_655
O11 Sr1 2.458542 1_555
O11 Sr0 2.662108 1_555
O11 Sr3 2.825216 1_554
