# generated using pymatgen
data_Ho12Ni6Pb
_symmetry_space_group_name_H-M   'P 1'
_cell_length_a   8.33178221
_cell_length_b   8.33179199
_cell_length_c   8.33168362
_cell_angle_alpha   109.47303151
_cell_angle_beta   109.46694194
_cell_angle_gamma   109.47432861
_symmetry_Int_Tables_number   1
_chemical_formula_structural   Ho12Ni6Pb
_chemical_formula_sum   'Ho12 Ni6 Pb1'
_cell_volume   445.22933857
_cell_formula_units_Z   1
loop_
 _symmetry_equiv_pos_site_id
 _symmetry_equiv_pos_as_xyz
  1  'x, y, z'
loop_
 _atom_site_type_symbol
 _atom_site_label
 _atom_site_symmetry_multiplicity
 _atom_site_fract_x
 _atom_site_fract_y
 _atom_site_fract_z
 _atom_site_occupancy
  Ho  Ho0  1  0.81082158  0.69495288  0.50576971  1
  Ho  Ho1  1  0.18917887  0.30504669  0.49423039  1
  Ho  Ho2  1  0.18917036  0.69495372  0.88412648  1
  Ho  Ho3  1  0.81082938  0.30504633  0.11587303  1
  Ho  Ho4  1  0.69491091  0.50572402  0.81081821  1
  Ho  Ho5  1  0.30508867  0.49427613  0.18918157  1
  Ho  Ho6  1  0.69491078  0.88409286  0.18917942  1
  Ho  Ho7  1  0.30508871  0.11590658  0.81082002  1
  Ho  Ho8  1  0.50571745  0.81079021  0.69493170  1
  Ho  Ho9  1  0.49428332  0.18921022  0.30506815  1
  Ho  Ho10  1  0.11585698  0.81079310  0.30506653  1
  Ho  Ho11  1  0.88414231  0.18920652  0.69493245  1
  Ni  Ni0  1  0.87788135  0.37788713  0.49999763  1
  Ni  Ni1  1  0.12211973  0.62211625  0.50000421  1
  Ni  Ni2  1  0.37782172  0.49999156  0.87781549  1
  Ni  Ni3  1  0.62217676  0.50000584  0.12218408  1
  Ni  Ni4  1  0.49999632  0.87786942  0.37787367  1
  Ni  Ni5  1  0.50000265  0.12213033  0.62212525  1
  Pb  Pb0  1  0.00000015  0.00000020  0.00000003  1
loop_
_geom_bond_atom_site_label_1
_geom_bond_atom_site_label_2
_geom_bond_distance
_geom_bond_site_symmetry_2
Ho0 Ni3 2.609831 1_555
Ho0 Ni0 2.865408 1_555
Ho0 Ni1 2.865449 1_655
Ho0 Pb0 3.453293 1_666
Ho0 Ni4 3.469847 1_555
Ho1 Ni2 2.609828 1_555
Ho1 Ni1 2.865434 1_555
Ho1 Ni0 2.865464 1_455
Ho1 Pb0 3.453291 1_555
Ho1 Ni5 3.469834 1_555
Ho2 Ni2 2.610075 1_555
Ho2 Ni1 2.865343 1_555
Ho2 Ni0 2.865363 1_455
Ho2 Pb0 3.453273 1_566
Ho2 Ni4 3.469845 1_556
Ho3 Ni3 2.610066 1_555
Ho3 Ni0 2.865353 1_555
Ho3 Ni1 2.865382 1_655
Ho3 Pb0 3.453273 1_655
Ho3 Ni5 3.469850 1_554
Ho4 Ni5 2.609794 1_555
Ho4 Ni2 2.865341 1_555
Ho4 Ni3 2.865378 1_556
Ho4 Pb0 3.453590 1_666
Ho4 Ni0 3.469840 1_555
Ho5 Ni4 2.609792 1_555
Ho5 Ni3 2.865338 1_555
Ho5 Ni2 2.865370 1_554
Ho5 Pb0 3.453588 1_555
Ho5 Ni1 3.469849 1_555
Ho6 Ni4 2.609899 1_555
Ho6 Ni3 2.865343 1_555
Ho6 Ni2 2.865385 1_554
Ho6 Pb0 3.453543 1_665
Ho6 Ni0 3.469877 1_565
Ho7 Ni5 2.609899 1_555
Ho7 Ni2 2.865328 1_555
Ho7 Ni3 2.865374 1_556
Ho7 Pb0 3.453540 1_556
Ho7 Ni1 3.469850 1_545
Ho8 Ni1 2.609925 1_555
Ho8 Ni4 2.865484 1_555
Ho8 Ni5 2.865553 1_565
Ho8 Pb0 3.453756 1_666
Ho8 Ni2 3.469277 1_555
Ho9 Ni0 2.609927 1_555
Ho9 Ni5 2.865483 1_555
Ho9 Ni4 2.865551 1_545
Ho9 Pb0 3.453758 1_555
Ho9 Ni3 3.469255 1_555
Ho10 Ni1 2.610047 1_555
Ho10 Ni5 2.865515 1_565
Ho10 Ni4 2.865520 1_555
Ho10 Pb0 3.453701 1_565
Ho10 Ni3 3.469270 1_455
Ho11 Ni0 2.610053 1_555
Ho11 Ni4 2.865516 1_545
Ho11 Ni5 2.865523 1_555
Ho11 Pb0 3.453705 1_656
Ho11 Ni2 3.469260 1_655
Ni0 Ni1 2.349583 1_655
Ni2 Ni3 2.350977 1_556
Ni4 Ni5 2.349824 1_565
