# generated using pymatgen
data_Pd3W
_symmetry_space_group_name_H-M   'P 1'
_cell_length_a   4.83721656
_cell_length_b   4.83721656
_cell_length_c   4.83721656
_cell_angle_alpha   133.05177119
_cell_angle_beta   133.05177119
_cell_angle_gamma   68.57285601
_symmetry_Int_Tables_number   1
_chemical_formula_structural   Pd3W
_chemical_formula_sum   'Pd3 W1'
_cell_volume   59.35328670
_cell_formula_units_Z   1
loop_
 _symmetry_equiv_pos_site_id
 _symmetry_equiv_pos_as_xyz
  1  'x, y, z'
loop_
 _atom_site_type_symbol
 _atom_site_label
 _atom_site_symmetry_multiplicity
 _atom_site_fract_x
 _atom_site_fract_y
 _atom_site_fract_z
 _atom_site_occupancy
  Pd  Pd0  1  0.74999900  0.25000000  0.49999900  1
  Pd  Pd1  1  0.25000000  0.74999900  0.49999900  1
  Pd  Pd2  1  0.49999900  0.49999900  0.00000000  1
  W  W0  1  0.00000000  0.00000000  -0.00000000  1
loop_
_geom_bond_atom_site_label_1
_geom_bond_atom_site_label_2
_geom_bond_distance
_geom_bond_site_symmetry_2
Pd0 Pd1 2.724945 1_555
Pd0 Pd1 2.724951 1_656
Pd0 Pd1 2.724951 1_544
Pd0 Pd1 2.724956 1_645
Pd0 Pd2 2.775961 1_555
Pd0 Pd2 2.775966 1_656
Pd0 W0 2.775967 1_555
Pd0 W0 2.775969 1_655
Pd0 W0 2.775969 1_666
Pd0 W0 2.775972 1_656
Pd0 Pd2 2.775975 1_545
Pd0 Pd2 2.775975 1_556
Pd1 Pd2 2.775961 1_555
Pd1 Pd2 2.775966 1_566
Pd1 W0 2.775967 1_555
Pd1 W0 2.775969 1_565
Pd1 W0 2.775969 1_666
Pd1 W0 2.775972 1_566
Pd1 Pd2 2.775975 1_455
Pd1 Pd2 2.775975 1_556
Pd2 W0 2.724951 1_655
Pd2 W0 2.724951 1_565
Pd2 W0 2.724951 1_554
Pd2 W0 2.724951 1_666
