# generated using pymatgen
data_Cs3Tl2Br9
_symmetry_space_group_name_H-M   'P 1'
_cell_length_a   7.87645545
_cell_length_b   9.75361437
_cell_length_c   14.06494383
_cell_angle_alpha   92.98867290
_cell_angle_beta   90.00000000
_cell_angle_gamma   90.00000000
_symmetry_Int_Tables_number   1
_chemical_formula_structural   Cs3Tl2Br9
_chemical_formula_sum   'Cs6 Tl4 Br18'
_cell_volume   1079.05430350
_cell_formula_units_Z   2
loop_
 _symmetry_equiv_pos_site_id
 _symmetry_equiv_pos_as_xyz
  1  'x, y, z'
loop_
 _atom_site_type_symbol
 _atom_site_label
 _atom_site_symmetry_multiplicity
 _atom_site_fract_x
 _atom_site_fract_y
 _atom_site_fract_z
 _atom_site_occupancy
  Cs  Cs0  1  0.74931153  0.32759629  0.42262002  1
  Cs  Cs1  1  0.24931153  0.67240371  0.57737998  1
  Cs  Cs2  1  0.25103485  0.36652609  0.88580989  1
  Cs  Cs3  1  0.75103485  0.63347391  0.11419011  1
  Cs  Cs4  1  0.25113876  0.97291477  0.27194462  1
  Cs  Cs5  1  0.75113876  0.02708523  0.72805538  1
  Tl  Tl0  1  0.74691385  0.19868011  0.07205592  1
  Tl  Tl1  1  0.24691385  0.80131989  0.92794408  1
  Tl  Tl2  1  0.75027876  0.80542552  0.41449042  1
  Tl  Tl3  1  0.25027876  0.19457448  0.58550958  1
  Br  Br0  1  0.49142330  0.30089522  0.16940576  1
  Br  Br1  1  0.99142330  0.69910478  0.83059424  1
  Br  Br2  1  0.50468500  0.70278285  0.83163261  1
  Br  Br3  1  0.00468500  0.29721715  0.16836739  1
  Br  Br4  1  0.75081917  0.97279633  0.26471940  1
  Br  Br5  1  0.25081917  0.02720367  0.73528060  1
  Br  Br6  1  0.49487167  0.64957907  0.33937467  1
  Br  Br7  1  0.99487167  0.35042093  0.66062533  1
  Br  Br8  1  0.50510343  0.35109418  0.66069788  1
  Br  Br9  1  0.00510343  0.64890582  0.33930212  1
  Br  Br10  1  0.75189974  0.34734289  0.91841450  1
  Br  Br11  1  0.25189974  0.65265711  0.08158550  1
  Br  Br12  1  0.74985535  0.68567953  0.58117031  1
  Br  Br13  1  0.24985535  0.31432047  0.41882969  1
  Br  Br14  1  0.00020531  0.99959277  0.49999805  1
  Br  Br15  1  0.50020531  0.00040723  0.50000195  1
  Br  Br16  1  0.71576030  0.95753339  0.99106052  1
  Br  Br17  1  0.21576030  0.04246661  0.00893948  1
loop_
_geom_bond_atom_site_label_1
_geom_bond_atom_site_label_2
_geom_bond_distance
_geom_bond_site_symmetry_2
Br0 Tl0 2.603066 1_555
Br0 Cs3 3.945836 1_555
Br0 Cs4 4.046790 1_545
Br0 Cs0 4.096456 1_555
Br1 Tl1 2.603066 1_655
Br1 Cs2 3.945836 1_655
Br1 Cs5 4.046790 1_565
Br1 Cs1 4.096456 1_655
Br2 Tl1 2.597139 1_555
Br2 Cs2 3.948324 1_555
Br2 Cs5 4.046767 1_565
Br2 Cs1 4.100160 1_555
Br3 Tl0 2.597139 1_455
Br3 Cs3 3.948324 1_455
Br3 Cs4 4.046767 1_545
Br3 Cs0 4.100160 1_455
Br4 Tl2 2.731483 1_555
Br4 Cs3 3.834760 1_555
Br4 Cs4 3.937021 1_555
Br4 Cs4 3.942054 1_655
Br4 Cs0 4.013301 1_565
Br5 Tl3 2.731483 1_555
Br5 Cs2 3.834760 1_555
Br5 Cs5 3.937021 1_455
Br5 Cs5 3.942054 1_555
Br5 Cs1 4.013301 1_545
Br6 Tl2 2.703012 1_555
Br6 Cs3 3.751659 1_555
Br6 Cs4 3.852605 1_555
Br6 Cs1 3.862477 1_555
Br6 Cs0 3.953905 1_555
Br7 Tl3 2.703012 1_655
Br7 Cs2 3.751659 1_655
Br7 Cs5 3.852605 1_555
Br7 Cs0 3.862477 1_555
Br7 Cs1 3.953905 1_655
Br8 Tl3 2.703538 1_555
Br8 Cs2 3.741971 1_555
Br8 Cs0 3.858125 1_555
Br8 Cs5 3.866829 1_555
Br8 Cs1 3.954350 1_555
Br9 Tl2 2.703538 1_455
Br9 Cs3 3.741971 1_455
Br9 Cs1 3.858125 1_555
Br9 Cs4 3.866829 1_555
Br9 Cs0 3.954350 1_455
Br10 Tl0 2.664680 1_556
Br10 Cs3 3.817002 1_556
Br10 Cs2 3.963620 1_655
Br10 Cs2 3.977134 1_555
Br10 Cs5 4.006703 1_555
Br11 Tl1 2.664680 1_554
Br11 Cs2 3.817002 1_554
Br11 Cs3 3.963620 1_555
Br11 Cs3 3.977134 1_455
Br11 Cs4 4.006703 1_555
Br12 Tl2 2.673125 1_555
Br12 Cs5 3.826134 1_565
Br12 Cs1 3.936344 1_655
Br12 Cs1 3.944906 1_555
Br12 Cs0 4.044633 1_555
Br13 Tl3 2.673125 1_555
Br13 Cs4 3.826134 1_545
Br13 Cs0 3.936344 1_555
Br13 Cs0 3.944906 1_455
Br13 Cs1 4.044633 1_555
Br14 Tl2 2.944591 1_455
Br14 Tl3 2.950331 1_565
Br14 Cs5 3.757593 1_465
Br14 Cs4 3.765040 1_555
Br14 Cs1 3.947242 1_555
Br14 Cs0 3.960769 1_465
Br15 Tl3 2.944591 1_555
Br15 Tl2 2.950331 1_545
Br15 Cs4 3.757593 1_545
Br15 Cs5 3.765040 1_555
Br15 Cs0 3.947242 1_555
Br15 Cs1 3.960769 1_545
Br16 Tl0 2.571132 1_566
Br16 Cs3 3.692899 1_556
Br16 Cs5 3.805688 1_565
Br17 Tl1 2.571132 1_544
Br17 Cs2 3.692899 1_554
Br17 Cs4 3.805688 1_545
