# generated using pymatgen
data_SrMg14Mo
_symmetry_space_group_name_H-M   'P 1'
_cell_length_a   6.50918327
_cell_length_b   6.50918271
_cell_length_c   10.22046379
_cell_angle_alpha   90.00000000
_cell_angle_beta   90.00000000
_cell_angle_gamma   120.00000278
_symmetry_Int_Tables_number   1
_chemical_formula_structural   SrMg14Mo
_chemical_formula_sum   'Sr1 Mg14 Mo1'
_cell_volume   375.01978923
_cell_formula_units_Z   1
loop_
 _symmetry_equiv_pos_site_id
 _symmetry_equiv_pos_as_xyz
  1  'x, y, z'
loop_
 _atom_site_type_symbol
 _atom_site_label
 _atom_site_symmetry_multiplicity
 _atom_site_fract_x
 _atom_site_fract_y
 _atom_site_fract_z
 _atom_site_occupancy
  Sr  Sr0  1  0.16666700  0.33333300  0.12500000  1
  Mg  Mg0  1  0.17848806  0.83924353  0.12500000  1
  Mg  Mg1  1  0.16147749  0.83073825  0.62500000  1
  Mg  Mg2  1  0.66075647  0.32151194  0.12500000  1
  Mg  Mg3  1  0.66926175  0.33852251  0.62500000  1
  Mg  Mg4  1  0.66075647  0.83924353  0.12500000  1
  Mg  Mg5  1  0.66926175  0.83073825  0.62500000  1
  Mg  Mg6  1  0.33183006  0.16816994  0.39549989  1
  Mg  Mg7  1  0.33183006  0.16816994  0.85450011  1
  Mg  Mg8  1  0.33183006  0.66366112  0.39549989  1
  Mg  Mg9  1  0.33183006  0.66366112  0.85450011  1
  Mg  Mg10  1  0.83633888  0.16816994  0.39549989  1
  Mg  Mg11  1  0.83633888  0.16816994  0.85450011  1
  Mg  Mg12  1  0.83333300  0.66666700  0.36682580  1
  Mg  Mg13  1  0.83333300  0.66666700  0.88317420  1
  Mo  Mo0  1  0.16666700  0.33333300  0.62500000  1
loop_
_geom_bond_atom_site_label_1
_geom_bond_atom_site_label_2
_geom_bond_distance
_geom_bond_site_symmetry_2
Mg0 Mg2 3.139173 1_565
Mg0 Mg4 3.139173 1_555
Mg0 Mg12 3.145527 1_455
Mg0 Mg13 3.145527 1_454
Mg0 Sr0 3.255273 1_555
Mg0 Sr0 3.255273 1_565
Mg0 Mg9 3.329632 1_554
Mg0 Mg8 3.329632 1_555
Mg0 Mg7 3.329638 1_564
Mg0 Mg6 3.329638 1_565
Mg0 Mg2 3.370010 1_455
Mg0 Mg4 3.370010 1_455
Mg1 Mg9 3.019941 1_555
Mg1 Mg8 3.019941 1_555
Mg1 Mg6 3.019948 1_565
Mg1 Mg7 3.019948 1_565
Mg1 Mg3 3.203922 1_455
Mg1 Mg5 3.203922 1_455
Mg1 Mg13 3.222460 1_455
Mg1 Mg12 3.222460 1_455
Mg1 Mo0 3.254723 1_565
Mg1 Mo0 3.254723 1_555
Mg1 Mg3 3.305261 1_565
Mg1 Mg5 3.305261 1_555
Mg2 Mg4 3.139173 1_545
Mg2 Sr0 3.255274 1_555
Mg2 Sr0 3.255274 1_655
Mg2 Mg7 3.329638 1_554
Mg2 Mg6 3.329638 1_555
Mg2 Mg4 3.370010 1_555
Mg3 Mg6 3.019948 1_555
Mg3 Mg7 3.019948 1_555
Mg3 Mg5 3.203922 1_555
Mg3 Mo0 3.254723 1_555
Mg3 Mo0 3.254723 1_655
Mg3 Mg5 3.305261 1_545
Mg4 Sr0 3.255273 1_555
Mg4 Sr0 3.255273 1_665
Mg4 Mg9 3.329638 1_554
Mg4 Mg8 3.329638 1_555
Mg5 Mg8 3.019948 1_555
Mg5 Mg9 3.019948 1_555
Mg5 Mo0 3.254723 1_665
Mg5 Mo0 3.254723 1_555
Mg6 Mo0 2.994862 1_555
Mg6 Mg8 3.225243 1_555
Mg6 Mg8 3.283940 1_545
Mg6 Sr0 3.333252 1_555
Mg7 Mo0 2.994862 1_555
Mg7 Mg9 3.225243 1_555
Mg7 Mg9 3.283940 1_545
Mg7 Sr0 3.333252 1_556
Mg8 Mo0 2.994869 1_555
Mg8 Sr0 3.333259 1_555
Mg9 Mo0 2.994869 1_555
Mg9 Sr0 3.333259 1_556
Mg10 Mo0 2.994869 1_655
Mg10 Mg3 3.019941 1_555
Mg10 Mg5 3.019948 1_545
Mg10 Mg8 3.225243 1_655
Mg10 Mg6 3.225243 1_655
Mg10 Mg12 3.267803 1_545
Mg10 Mg12 3.267803 1_555
Mg10 Mg8 3.283940 1_545
Mg10 Mg6 3.283940 1_555
Mg10 Mg2 3.329632 1_555
Mg10 Mg4 3.329638 1_545
Mg10 Sr0 3.333259 1_655
Mg11 Mo0 2.994869 1_655
Mg11 Mg3 3.019941 1_555
Mg11 Mg5 3.019948 1_545
Mg11 Mg9 3.225243 1_655
Mg11 Mg7 3.225243 1_655
Mg11 Mg13 3.267803 1_545
Mg11 Mg13 3.267803 1_555
Mg11 Mg9 3.283940 1_545
Mg11 Mg7 3.283940 1_555
Mg11 Mg2 3.329632 1_556
Mg11 Mg4 3.329638 1_546
Mg11 Sr0 3.333259 1_656
Mg12 Mg4 3.145520 1_555
Mg12 Mg2 3.145526 1_555
Mg12 Mg5 3.222453 1_555
Mg12 Mg3 3.222460 1_555
Mg12 Mg6 3.267803 1_665
Mg12 Mg6 3.267803 1_555
Mg12 Mg8 3.267803 1_655
Mg12 Mg8 3.267803 1_555
Mg13 Mg4 3.145520 1_556
Mg13 Mg2 3.145526 1_556
Mg13 Mg5 3.222453 1_555
Mg13 Mg3 3.222460 1_555
Mg13 Mg7 3.267803 1_665
Mg13 Mg7 3.267803 1_555
Mg13 Mg9 3.267803 1_655
Mg13 Mg9 3.267803 1_555
