# generated using pymatgen
data_SrLaCoO4
_symmetry_space_group_name_H-M   'P 1'
_cell_length_a   3.86277610
_cell_length_b   15.02600667
_cell_length_c   6.82917968
_cell_angle_alpha   80.67448945
_cell_angle_beta   106.36904067
_cell_angle_gamma   97.50810325
_symmetry_Int_Tables_number   1
_chemical_formula_structural   SrLaCoO4
_chemical_formula_sum   'Sr4 La4 Co4 O16'
_cell_volume   373.77144762
_cell_formula_units_Z   4
loop_
 _symmetry_equiv_pos_site_id
 _symmetry_equiv_pos_as_xyz
  1  'x, y, z'
loop_
 _atom_site_type_symbol
 _atom_site_label
 _atom_site_symmetry_multiplicity
 _atom_site_fract_x
 _atom_site_fract_y
 _atom_site_fract_z
 _atom_site_occupancy
  Sr  Sr0  1  0.64014400  0.40959100  0.87340300  1
  Sr  Sr1  1  0.63913000  0.66026300  0.62013000  1
  Sr  Sr2  1  0.64088900  0.90988900  0.37286800  1
  Sr  Sr3  1  0.63979600  0.16022700  0.12035300  1
  La  La0  1  0.36041100  0.58991300  0.12906500  1
  La  La1  1  0.36024800  0.84062900  0.87841700  1
  La  La2  1  0.36000900  0.08964000  0.62948000  1
  La  La3  1  0.36075600  0.34059100  0.37887100  1
  Co  Co0  1  0.00139600  0.75070900  0.25224600  1
  Co  Co1  1  0.00477700  0.00090900  0.00800900  1
  Co  Co2  1  0.00493400  0.50099400  0.50815600  1
  Co  Co3  1  0.00128100  0.25045100  0.75236400  1
  O  O0  1  0.83559500  0.45615600  0.21575800  1
  O  O1  1  0.83591600  0.71174500  0.96375300  1
  O  O2  1  0.83564900  0.95630500  0.71536400  1
  O  O3  1  0.83598200  0.21159400  0.46404500  1
  O  O4  1  0.17440500  0.54437600  0.80322400  1
  O  O5  1  0.16959900  0.79150900  0.54541100  1
  O  O6  1  0.17422500  0.04419900  0.30339800  1
  O  O7  1  0.16967500  0.29138900  0.04562200  1
  O  O8  1  0.49637200  0.49836200  0.49329700  1
  O  O9  1  0.49317300  0.74914300  0.23774600  1
  O  O10  1  0.49620100  0.99820900  0.99287800  1
  O  O11  1  0.49307200  0.24888100  0.73788500  1
  O  O12  1  0.99172400  0.62690200  0.35598800  1
  O  O13  1  0.99641100  0.87047800  0.12262100  1
  O  O14  1  0.99213000  0.12665900  0.85679700  1
  O  O15  1  0.99610100  0.37028900  0.62284700  1
loop_
_geom_bond_atom_site_label_1
_geom_bond_atom_site_label_2
_geom_bond_distance
_geom_bond_site_symmetry_2
La0 O4 2.323760 1_554
La0 O12 2.540117 1_555
La0 O12 2.543356 1_455
La0 O9 2.564891 1_555
La0 O8 2.588231 1_555
La0 O1 2.760395 1_554
La0 O0 2.779397 1_555
La0 O0 2.779525 1_455
La0 O1 2.782223 1_454
La1 O5 2.390993 1_555
La1 O10 2.556711 1_555
La1 O9 2.560490 1_556
La1 O13 2.581762 1_556
La1 O13 2.585706 1_456
La1 O2 2.706379 1_555
La1 O2 2.718233 1_455
La1 O1 2.725201 1_555
La1 O1 2.732531 1_455
La2 O6 2.324681 1_555
La2 O14 2.543322 1_455
La2 O14 2.543583 1_555
La2 O11 2.564322 1_555
La2 O10 2.582851 1_545
La2 O3 2.762995 1_555
La2 O2 2.772877 1_445
La2 O2 2.776216 1_545
La2 O3 2.782298 1_455
La3 O7 2.393030 1_555
La3 O8 2.559342 1_555
La3 O11 2.560112 1_555
La3 O15 2.578420 1_555
La3 O15 2.585994 1_455
La3 O0 2.704229 1_555
La3 O0 2.718704 1_455
La3 O3 2.725394 1_555
La3 O3 2.734382 1_455
Co0 O13 1.872402 1_455
Co0 O12 1.879827 1_455
Co0 O9 1.933234 1_555
Co0 O9 1.934796 1_455
Co0 O1 2.049180 1_454
Co0 O5 2.089688 1_555
Co1 O10 1.933327 1_444
Co1 O10 1.935914 1_544
Co1 O13 1.988787 1_445
Co1 O14 2.000593 1_454
Co1 O2 2.110416 1_444
Co1 O6 2.119119 1_555
Co2 O8 1.933806 1_455
Co2 O8 1.935189 1_555
Co2 O15 1.992699 1_455
Co2 O12 2.004981 1_455
Co2 O0 2.110397 1_455
Co2 O4 2.117697 1_555
Co3 O15 1.873092 1_455
Co3 O14 1.880679 1_455
Co3 O11 1.933250 1_555
Co3 O11 1.934769 1_455
Co3 O3 2.047440 1_455
Co3 O7 2.091119 1_556
O0 Sr0 2.433724 1_554
O1 Sr1 2.472300 1_555
O2 Sr2 2.433706 1_555
O3 Sr3 2.471997 1_555
O4 Sr1 2.749683 1_555
O4 Sr1 2.765658 1_455
O4 Sr0 2.778425 1_555
O4 Sr0 2.782279 1_455
O5 Sr1 2.743358 1_555
O5 Sr2 2.747770 1_555
O5 Sr1 2.748722 1_455
O5 Sr2 2.763536 1_455
O6 Sr3 2.752791 1_555
O6 Sr3 2.764704 1_455
O6 Sr2 2.774218 1_445
O6 Sr2 2.775931 1_545
O7 Sr0 2.743110 1_554
O7 Sr3 2.743972 1_555
O7 Sr3 2.746395 1_455
O7 Sr0 2.763722 1_454
O8 Sr1 2.652467 1_555
O8 Sr0 2.661724 1_555
O9 Sr2 2.660168 1_555
O9 Sr1 2.675327 1_555
O10 Sr3 2.655941 1_566
O10 Sr2 2.658557 1_556
O11 Sr0 2.660842 1_555
O11 Sr3 2.674561 1_556
O12 Sr1 2.679916 1_655
O12 Sr1 2.686362 1_555
O13 Sr2 2.648301 1_655
O13 Sr2 2.649648 1_555
O14 Sr3 2.679422 1_656
O14 Sr3 2.683386 1_556
O15 Sr0 2.647621 1_655
O15 Sr0 2.651972 1_555
