# generated using pymatgen
data_Nd8Sb2S15
_symmetry_space_group_name_H-M   'P 1'
_cell_length_a   14.90220364
_cell_length_b   14.90220364
_cell_length_c   14.90220364
_cell_angle_alpha   116.43801800
_cell_angle_beta   116.43801800
_cell_angle_gamma   96.28886601
_symmetry_Int_Tables_number   1
_chemical_formula_structural   Nd8Sb2S15
_chemical_formula_sum   'Nd32 Sb8 S60'
_cell_volume   2450.11701262
_cell_formula_units_Z   4
loop_
 _symmetry_equiv_pos_site_id
 _symmetry_equiv_pos_as_xyz
  1  'x, y, z'
loop_
 _atom_site_type_symbol
 _atom_site_label
 _atom_site_symmetry_multiplicity
 _atom_site_fract_x
 _atom_site_fract_y
 _atom_site_fract_z
 _atom_site_occupancy
  Nd  Nd0  1  0.41759530  0.04765628  0.32897171  1
  Nd  Nd1  1  0.21868457  0.54765628  0.63006099  1
  Nd  Nd2  1  0.83862359  0.66759530  0.86993901  1
  Nd  Nd3  1  0.33862359  0.46868457  0.17102829  1
  Nd  Nd4  1  0.71868457  0.08862359  0.67102829  1
  Nd  Nd5  1  0.91759530  0.58862359  0.36993901  1
  Nd  Nd6  1  0.79765628  0.96868457  0.13006099  1
  Nd  Nd7  1  0.29765628  0.16759530  0.82897171  1
  Nd  Nd8  1  0.33774640  0.16477003  0.13318967  1
  Nd  Nd9  1  0.53158036  0.66477003  0.82702363  1
  Nd  Nd10  1  0.95455673  0.58774640  0.67297637  1
  Nd  Nd11  1  0.45455673  0.78158036  0.36681033  1
  Nd  Nd12  1  0.03158036  0.20455673  0.86681033  1
  Nd  Nd13  1  0.83774640  0.70455673  0.17297637  1
  Nd  Nd14  1  0.91477003  0.28158036  0.32702363  1
  Nd  Nd15  1  0.41477003  0.08774640  0.63318967  1
  Nd  Nd16  1  0.43165286  0.77603708  0.06991245  1
  Nd  Nd17  1  0.20612562  0.27603708  0.34438422  1
  Nd  Nd18  1  0.11174041  0.68165286  0.15561578  1
  Nd  Nd19  1  0.61174041  0.45612562  0.43008755  1
  Nd  Nd20  1  0.70612562  0.36174041  0.93008755  1
  Nd  Nd21  1  0.93165286  0.86174041  0.65561578  1
  Nd  Nd22  1  0.52603708  0.95612562  0.84438422  1
  Nd  Nd23  1  0.02603708  0.18165286  0.56991245  1
  Nd  Nd24  1  0.14979159  0.85614479  0.00688781  1
  Nd  Nd25  1  0.34925698  0.35614479  0.70635220  1
  Nd  Nd26  1  0.89290378  0.39979159  0.79364780  1
  Nd  Nd27  1  0.39290378  0.59925698  0.49311219  1
  Nd  Nd28  1  0.84925698  0.14290378  0.99311219  1
  Nd  Nd29  1  0.64979159  0.64290378  0.29364780  1
  Nd  Nd30  1  0.60614479  0.09925698  0.20635220  1
  Nd  Nd31  1  0.10614479  0.89979159  0.50688781  1
  Sb  Sb0  1  0.25386600  0.86723456  0.81912713  1
  Sb  Sb1  1  0.54810743  0.36723456  0.61336856  1
  Sb  Sb2  1  0.18473887  0.50386600  0.88663144  1
  Sb  Sb3  1  0.68473887  0.79810743  0.68087287  1
  Sb  Sb4  1  0.04810743  0.43473887  0.18087287  1
  Sb  Sb5  1  0.75386600  0.93473887  0.38663144  1
  Sb  Sb6  1  0.61723456  0.29810743  0.11336856  1
  Sb  Sb7  1  0.11723456  0.00386600  0.31912713  1
  S  S0  1  0.25005622  0.25005622  -0.00000000  1
  S  S1  1  0.75005622  0.75005622  -0.00000000  1
  S  S2  1  0.00005622  0.50005622  0.50000000  1
  S  S3  1  0.50005622  0.00005622  0.50000000  1
  S  S4  1  0.15668976  0.97289521  0.89069426  1
  S  S5  1  0.58220095  0.47289521  0.81620445  1
  S  S6  1  0.01599550  0.40668976  0.68379555  1
  S  S7  1  0.51599550  0.83220095  0.60930574  1
  S  S8  1  0.08220095  0.26599550  0.10930574  1
  S  S9  1  0.65668976  0.76599550  0.18379555  1
  S  S10  1  0.72289521  0.33220095  0.31620445  1
  S  S11  1  0.22289521  0.90668976  0.39069426  1
  S  S12  1  0.37721860  0.57684837  0.85335250  1
  S  S13  1  0.22349587  0.07684837  0.19963077  1
  S  S14  1  0.27386510  0.62721860  0.30036923  1
  S  S15  1  0.77386510  0.47349587  0.64664750  1
  S  S16  1  0.72349587  0.52386510  0.14664750  1
  S  S17  1  0.87721860  0.02386510  0.80036923  1
  S  S18  1  0.32684837  0.97349587  0.69963077  1
  S  S19  1  0.82684837  0.12721860  0.35335250  1
  S  S20  1  0.37826404  0.96515568  0.09227544  1
  S  S21  1  0.37288024  0.46515568  0.58689164  1
  S  S22  1  0.03598960  0.62826404  0.91310836  1
  S  S23  1  0.53598960  0.62288024  0.40772456  1
  S  S24  1  0.87288024  0.28598960  0.90772456  1
  S  S25  1  0.87826404  0.78598960  0.41310836  1
  S  S26  1  0.71515568  0.12288024  0.08689164  1
  S  S27  1  0.21515568  0.12826404  0.59227544  1
  S  S28  1  0.03005222  0.83802791  0.11284535  1
  S  S29  1  0.22518256  0.33802791  0.80797569  1
  S  S30  1  0.66720686  0.28005222  0.69202431  1
  S  S31  1  0.16720686  0.47518256  0.38715465  1
  S  S32  1  0.72518256  0.91720686  0.88715465  1
  S  S33  1  0.53005222  0.41720686  0.19202431  1
  S  S34  1  0.58802791  0.97518256  0.30797569  1
  S  S35  1  0.08802791  0.78005222  0.61284535  1
  S  S36  1  0.37863195  0.72779490  0.69538582  1
  S  S37  1  0.53240908  0.22779490  0.34916395  1
  S  S38  1  0.43324513  0.62863195  0.15083605  1
  S  S39  1  0.93324513  0.78240908  0.80461418  1
  S  S40  1  0.03240908  0.68324513  0.30461418  1
  S  S41  1  0.87863195  0.18324513  0.65083605  1
  S  S42  1  0.47779490  0.28240908  0.84916395  1
  S  S43  1  0.97779490  0.12863195  0.19538582  1
  S  S44  1  0.29998302  0.80971090  0.17738795  1
  S  S45  1  0.13232295  0.30971090  0.50972888  1
  S  S46  1  0.87259506  0.54998302  0.99027112  1
  S  S47  1  0.37259506  0.38232295  0.32261205  1
  S  S48  1  0.63232295  0.12259506  0.82261205  1
  S  S49  1  0.79998302  0.62259506  0.49027112  1
  S  S50  1  0.55971090  0.88232295  0.00972888  1
  S  S51  1  0.05971090  0.04998302  0.67738795  1
  S  S52  1  0.19718609  0.70995296  0.83073261  1
  S  S53  1  0.37922035  0.20995296  0.51276687  1
  S  S54  1  0.11645348  0.44718609  0.98723313  1
  S  S55  1  0.61645348  0.62922035  0.66926739  1
  S  S56  1  0.87922035  0.36645348  0.16926739  1
  S  S57  1  0.69718609  0.86645348  0.48723313  1
  S  S58  1  0.45995296  0.12922035  0.01276687  1
  S  S59  1  0.95995296  0.94718609  0.33073261  1
loop_
_geom_bond_atom_site_label_1
_geom_bond_atom_site_label_2
_geom_bond_distance
_geom_bond_site_symmetry_2
Nd0 S3 2.742454 1_555
Nd0 S37 2.835547 1_555
Nd0 S13 2.885967 1_555
Nd0 S20 2.904563 1_545
Nd0 S34 2.953423 1_545
Nd0 S44 2.954410 1_545
Nd0 S53 3.078548 1_555
Nd1 S2 2.742454 1_555
Nd1 S36 2.835556 1_555
Nd1 S12 2.885971 1_555
Nd1 S21 2.904563 1_555
Nd1 S31 2.953423 1_555
Nd1 S45 2.954412 1_555
Nd1 S52 3.078548 1_555
Nd2 S1 2.742455 1_556
Nd2 S39 2.835547 1_555
Nd2 S15 2.885967 1_555
Nd2 S22 2.904577 1_655
Nd2 S28 2.953423 1_656
Nd2 S46 2.954399 1_555
Nd2 S55 3.078548 1_555
Nd3 S0 2.742454 1_555
Nd3 S38 2.835560 1_555
Nd3 S14 2.885976 1_555
Nd3 S23 2.904569 1_555
Nd3 S33 2.953423 1_555
Nd3 S47 2.954410 1_555
Nd3 S54 3.078548 1_554
Nd4 S3 2.742454 1_555
Nd4 S41 2.835560 1_555
Nd4 S17 2.885976 1_555
Nd4 S24 2.904569 1_555
Nd4 S30 2.953423 1_555
Nd4 S48 2.954410 1_555
Nd4 S57 3.078548 1_545
Nd5 S2 2.742455 1_655
Nd5 S40 2.835547 1_655
Nd5 S16 2.885967 1_555
Nd5 S25 2.904577 1_555
Nd5 S35 2.953423 1_655
Nd5 S49 2.954399 1_555
Nd5 S56 3.078548 1_555
Nd6 S1 2.742454 1_555
Nd6 S43 2.835556 1_565
Nd6 S19 2.885971 1_565
Nd6 S26 2.904563 1_565
Nd6 S32 2.953423 1_554
Nd6 S50 2.954412 1_555
Nd6 S59 3.078548 1_555
Nd7 S0 2.742454 1_556
Nd7 S42 2.835547 1_555
Nd7 S18 2.885967 1_545
Nd7 S27 2.904563 1_555
Nd7 S29 2.953423 1_555
Nd7 S51 2.954410 1_555
Nd7 S58 3.078548 1_556
Nd8 S0 2.750098 1_555
Nd8 S13 2.786284 1_555
Nd8 S37 2.837892 1_555
Nd8 S20 2.948121 1_545
Nd8 S47 2.987522 1_555
Nd8 S4 2.990208 1_544
Nd8 S58 3.015405 1_555
Nd9 S1 2.750098 1_556
Nd9 S12 2.786271 1_555
Nd9 S36 2.837884 1_555
Nd9 S21 2.948121 1_555
Nd9 S50 2.987527 1_556
Nd9 S5 2.990204 1_555
Nd9 S55 3.015405 1_555
Nd10 S2 2.750098 1_655
Nd10 S15 2.786284 1_555
Nd10 S39 2.837892 1_555
Nd10 S22 2.948118 1_655
Nd10 S49 2.987531 1_555
Nd10 S6 2.990213 1_655
Nd10 S52 3.015405 1_655
Nd11 S3 2.750098 1_565
Nd11 S14 2.786275 1_555
Nd11 S38 2.837888 1_555
Nd11 S23 2.948127 1_555
Nd11 S44 2.987522 1_555
Nd11 S7 2.990208 1_555
Nd11 S57 3.015405 1_555
Nd12 S0 2.750098 1_556
Nd12 S17 2.786275 1_455
Nd12 S41 2.837888 1_455
Nd12 S24 2.948127 1_455
Nd12 S51 2.987522 1_555
Nd12 S8 2.990208 1_556
Nd12 S54 3.015405 1_555
Nd13 S1 2.750098 1_555
Nd13 S16 2.786284 1_555
Nd13 S40 2.837892 1_655
Nd13 S25 2.948118 1_555
Nd13 S46 2.987531 1_554
Nd13 S9 2.990213 1_555
Nd13 S59 3.015405 1_555
Nd14 S2 2.750098 1_655
Nd14 S19 2.786271 1_555
Nd14 S43 2.837884 1_555
Nd14 S26 2.948121 1_555
Nd14 S45 2.987527 1_655
Nd14 S10 2.990204 1_555
Nd14 S56 3.015405 1_555
Nd15 S3 2.750098 1_555
Nd15 S18 2.786284 1_545
Nd15 S42 2.837892 1_555
Nd15 S27 2.948121 1_555
Nd15 S48 2.987522 1_555
Nd15 S11 2.990208 1_545
Nd15 S53 3.015405 1_555
Nd16 S12 2.914664 1_554
Nd16 S34 2.927760 1_555
Nd16 S20 2.928786 1_555
Nd16 S38 2.936831 1_555
Nd16 S44 2.994256 1_555
Nd16 S50 3.013580 1_555
Nd16 S9 3.068717 1_555
Nd16 S52 3.303551 1_554
Nd17 S13 2.914651 1_555
Nd17 S31 2.927766 1_555
Nd17 S21 2.928783 1_555
Nd17 S43 2.936852 1_455
Nd17 S45 2.994281 1_555
Nd17 S47 3.013580 1_555
Nd17 S8 3.068717 1_555
Nd17 S53 3.303544 1_555
Nd18 S14 2.914649 1_555
Nd18 S28 2.927760 1_555
Nd18 S22 2.928789 1_554
Nd18 S40 2.936845 1_555
Nd18 S46 2.994256 1_454
Nd18 S44 3.013592 1_555
Nd18 S11 3.068716 1_555
Nd18 S54 3.303551 1_554
Nd19 S15 2.914666 1_555
Nd19 S33 2.927754 1_555
Nd19 S23 2.928766 1_555
Nd19 S37 2.936859 1_555
Nd19 S47 2.994256 1_555
Nd19 S49 3.013590 1_555
Nd19 S10 3.068730 1_555
Nd19 S55 3.303546 1_555
Nd20 S16 2.914666 1_556
Nd20 S30 2.927754 1_555
Nd20 S24 2.928766 1_555
Nd20 S42 2.936859 1_555
Nd20 S48 2.994256 1_555
Nd20 S46 3.013590 1_555
Nd20 S5 3.068730 1_555
Nd20 S56 3.303546 1_556
Nd21 S17 2.914649 1_565
Nd21 S35 2.927760 1_655
Nd21 S25 2.928789 1_555
Nd21 S39 2.936845 1_555
Nd21 S49 2.994256 1_555
Nd21 S51 3.013592 1_665
Nd21 S4 3.068716 1_655
Nd21 S57 3.303551 1_555
Nd22 S18 2.914651 1_555
Nd22 S32 2.927766 1_555
Nd22 S26 2.928783 1_566
Nd22 S36 2.936852 1_555
Nd22 S50 2.994281 1_556
Nd22 S48 3.013580 1_565
Nd22 S7 3.068717 1_555
Nd22 S58 3.303544 1_566
Nd23 S19 2.914664 1_455
Nd23 S29 2.927760 1_555
Nd23 S27 2.928786 1_555
Nd23 S41 2.936831 1_455
Nd23 S51 2.994256 1_555
Nd23 S45 3.013580 1_555
Nd23 S6 3.068717 1_555
Nd23 S59 3.303551 1_445
Nd24 S13 2.874208 1_565
Nd24 S39 2.884308 1_454
Nd24 S28 2.921149 1_555
Nd24 S22 2.960284 1_554
Nd24 S44 2.963963 1_555
Nd24 S4 2.972835 1_554
Nd24 S20 2.990013 1_555
Nd24 S52 3.005285 1_554
Nd25 S12 2.874206 1_555
Nd25 S42 2.884317 1_555
Nd25 S29 2.921161 1_555
Nd25 S27 2.960291 1_555
Nd25 S45 2.963951 1_555
Nd25 S5 2.972835 1_555
Nd25 S21 2.990000 1_555
Nd25 S53 3.005275 1_555
Nd26 S15 2.874218 1_555
Nd26 S41 2.884317 1_555
Nd26 S30 2.921145 1_555
Nd26 S24 2.960262 1_555
Nd26 S46 2.963942 1_555
Nd26 S6 2.972835 1_655
Nd26 S22 2.990021 1_655
Nd26 S54 3.005280 1_655
Nd27 S14 2.874218 1_555
Nd27 S36 2.884299 1_555
Nd27 S31 2.921149 1_555
Nd27 S21 2.960287 1_555
Nd27 S47 2.963963 1_555
Nd27 S7 2.972835 1_555
Nd27 S23 2.990027 1_555
Nd27 S55 3.005285 1_555
Nd28 S17 2.874218 1_555
Nd28 S43 2.884299 1_556
Nd28 S32 2.921149 1_545
Nd28 S26 2.960287 1_556
Nd28 S48 2.963963 1_555
Nd28 S8 2.972835 1_656
Nd28 S24 2.990027 1_555
Nd28 S56 3.005285 1_556
Nd29 S16 2.874218 1_555
Nd29 S38 2.884317 1_555
Nd29 S33 2.921145 1_555
Nd29 S23 2.960262 1_555
Nd29 S49 2.963942 1_555
Nd29 S9 2.972835 1_555
Nd29 S25 2.990021 1_555
Nd29 S57 3.005280 1_555
Nd30 S19 2.874206 1_555
Nd30 S37 2.884317 1_555
Nd30 S34 2.921161 1_545
Nd30 S20 2.960291 1_545
Nd30 S50 2.963951 1_545
Nd30 S10 2.972835 1_555
Nd30 S26 2.990000 1_555
Nd30 S58 3.005275 1_555
Nd31 S18 2.874208 1_555
Nd31 S40 2.884308 1_555
Nd31 S35 2.921149 1_555
Nd31 S25 2.960284 1_455
Nd31 S51 2.963963 1_565
Nd31 S11 2.972835 1_555
Nd31 S27 2.990013 1_565
Nd31 S59 3.005285 1_455
S4 Sb0 2.468465 1_555
S5 Sb1 2.468452 1_555
S6 Sb2 2.468457 1_555
S7 Sb3 2.468465 1_555
S8 Sb4 2.468465 1_555
S9 Sb5 2.468457 1_555
S10 Sb6 2.468452 1_555
S11 Sb7 2.468465 1_565
S20 Sb0 3.087693 1_554
S21 Sb1 3.087693 1_555
S22 Sb2 3.087681 1_555
S23 Sb3 3.087693 1_555
S24 Sb4 3.087693 1_656
S25 Sb5 3.087681 1_555
S26 Sb6 3.087693 1_555
S27 Sb7 3.087693 1_555
S28 Sb7 2.494128 1_565
S29 Sb2 2.494128 1_555
S30 Sb1 2.494128 1_555
S31 Sb4 2.494128 1_555
S32 Sb3 2.494128 1_555
S33 Sb6 2.494128 1_555
S34 Sb5 2.494128 1_555
S35 Sb0 2.494128 1_555
S52 Sb0 2.508837 1_555
S53 Sb1 2.508837 1_555
S54 Sb2 2.508837 1_555
S55 Sb3 2.508837 1_555
S56 Sb4 2.508837 1_655
S57 Sb5 2.508837 1_555
S58 Sb6 2.508837 1_555
S59 Sb7 2.508837 1_665
