# generated using pymatgen
data_ZnFeSiO5
_symmetry_space_group_name_H-M   'P 1'
_cell_length_a   5.46669000
_cell_length_b   5.48808863
_cell_length_c   7.14093883
_cell_angle_alpha   108.69569289
_cell_angle_beta   108.54107240
_cell_angle_gamma   95.64233322
_symmetry_Int_Tables_number   1
_chemical_formula_structural   ZnFeSiO5
_chemical_formula_sum   'Zn2 Fe2 Si2 O10'
_cell_volume   187.55863871
_cell_formula_units_Z   2
loop_
 _symmetry_equiv_pos_site_id
 _symmetry_equiv_pos_as_xyz
  1  'x, y, z'
loop_
 _atom_site_type_symbol
 _atom_site_label
 _atom_site_symmetry_multiplicity
 _atom_site_fract_x
 _atom_site_fract_y
 _atom_site_fract_z
 _atom_site_occupancy
  Zn  Zn0  1  0.83876600  0.70003500  0.23056600  1
  Zn  Zn1  1  0.16432700  0.28300700  0.72104200  1
  Fe  Fe0  1  0.50586600  0.99483600  0.48660100  1
  Fe  Fe1  1  0.50385400  0.99623700  0.98664000  1
  Si  Si0  1  0.14198900  0.33468800  0.23241400  1
  Si  Si1  1  0.87038600  0.65891500  0.74165900  1
  O  O0  1  0.25733500  0.23051300  0.04265200  1
  O  O1  1  0.22559900  0.19509900  0.40832800  1
  O  O2  1  0.75491700  0.76007100  0.93216300  1
  O  O3  1  0.78851600  0.80511600  0.57079700  1
  O  O4  1  0.79429300  0.33126300  0.62694400  1
  O  O5  1  0.19610100  0.68259300  0.83429600  1
  O  O6  1  0.21402300  0.66275100  0.34257300  1
  O  O7  1  0.81535800  0.30621200  0.13765100  1
  O  O8  1  0.42961500  0.07570800  0.73748500  1
  O  O9  1  0.58031300  0.91496800  0.23531500  1
loop_
_geom_bond_atom_site_label_1
_geom_bond_atom_site_label_2
_geom_bond_distance
_geom_bond_site_symmetry_2
Fe0 O9 1.890233 1_555
Fe0 O8 1.892602 1_565
Fe0 O3 1.989965 1_555
Fe0 O1 2.011989 1_565
Fe0 O6 2.026753 1_555
Fe0 O4 2.033672 1_565
Fe1 O8 1.895665 1_565
Fe1 O9 1.897200 1_556
Fe1 O0 1.995758 1_566
Fe1 O5 2.010702 1_555
Fe1 O7 2.010759 1_566
Fe1 O2 2.020156 1_555
O0 Si0 1.636565 1_555
O0 Zn1 2.307860 1_554
O1 Si0 1.641476 1_555
O1 Zn1 2.269000 1_555
O2 Si1 1.639556 1_555
O2 Zn0 2.172078 1_556
O3 Si1 1.638204 1_555
O3 Zn0 2.422438 1_555
O4 Si1 1.664157 1_555
O4 Zn1 1.992134 1_655
O5 Si1 1.665911 1_455
O5 Zn1 2.047460 1_555
O6 Si0 1.664653 1_555
O6 Zn0 2.008449 1_455
O7 Si0 1.667202 1_655
O7 Zn0 2.024908 1_555
O8 Zn1 1.926936 1_555
O9 Zn0 1.929071 1_555
