# generated using pymatgen
data_LiIn(WO4)2
_symmetry_space_group_name_H-M   'P 1'
_cell_length_a   7.64866681
_cell_length_b   7.64866681
_cell_length_c   5.09700303
_cell_angle_alpha   88.97690068
_cell_angle_beta   88.97690068
_cell_angle_gamma   101.10403827
_symmetry_Int_Tables_number   1
_chemical_formula_structural   LiIn(WO4)2
_chemical_formula_sum   'Li2 In2 W4 O16'
_cell_volume   292.48753776
_cell_formula_units_Z   2
loop_
 _symmetry_equiv_pos_site_id
 _symmetry_equiv_pos_as_xyz
  1  'x, y, z'
loop_
 _atom_site_type_symbol
 _atom_site_label
 _atom_site_symmetry_multiplicity
 _atom_site_fract_x
 _atom_site_fract_y
 _atom_site_fract_z
 _atom_site_occupancy
  Li  Li0  1  0.84206100  0.15793900  0.25000000  1
  Li  Li1  1  0.15793900  0.84206100  0.75000000  1
  In  In0  1  0.33292100  0.66707900  0.25000000  1
  In  In1  1  0.66707900  0.33292100  0.75000000  1
  W  W0  1  0.84155500  0.67052100  0.24703000  1
  W  W1  1  0.32947900  0.15844500  0.25297000  1
  W  W2  1  0.15844500  0.32947900  0.75297000  1
  W  W3  1  0.67052100  0.84155500  0.74703000  1
  O  O0  1  0.69898600  0.59100200  0.93165400  1
  O  O1  1  0.40899800  0.30101400  0.56834600  1
  O  O2  1  0.30101400  0.40899800  0.06834600  1
  O  O3  1  0.59100200  0.69898600  0.43165400  1
  O  O4  1  0.80528900  0.44471100  0.39389000  1
  O  O5  1  0.55528900  0.19471100  0.10611000  1
  O  O6  1  0.19471100  0.55528900  0.60611000  1
  O  O7  1  0.44471100  0.80528900  0.89389000  1
  O  O8  1  0.19502800  0.09428300  0.94311300  1
  O  O9  1  0.90571700  0.80497200  0.55688700  1
  O  O10  1  0.80497200  0.90571700  0.05688700  1
  O  O11  1  0.09428300  0.19502800  0.44311300  1
  O  O12  1  0.30969600  0.93416300  0.39414600  1
  O  O13  1  0.06583700  0.69030400  0.10585400  1
  O  O14  1  0.69030400  0.06583700  0.60585400  1
  O  O15  1  0.93416300  0.30969600  0.89414600  1
loop_
_geom_bond_atom_site_label_1
_geom_bond_atom_site_label_2
_geom_bond_distance
_geom_bond_site_symmetry_2
Li0 O11 2.153594 1_655
Li0 O10 2.153594 1_545
Li0 O14 2.167402 1_555
Li0 O15 2.167402 1_554
Li0 O5 2.390775 1_555
Li0 O4 2.390775 1_555
Li1 O8 2.153594 1_565
Li1 O9 2.153594 1_455
Li1 O13 2.167402 1_556
Li1 O12 2.167402 1_555
Li1 O6 2.390775 1_555
Li1 O7 2.390775 1_555
In0 O6 2.161265 1_555
In0 O7 2.161265 1_554
In0 O2 2.168223 1_555
In0 O3 2.168223 1_555
In0 O13 2.221093 1_555
In0 O12 2.221093 1_555
In1 O4 2.161265 1_555
In1 O5 2.161265 1_556
In1 O0 2.168223 1_555
In1 O1 2.168223 1_555
In1 O14 2.221093 1_555
In1 O15 2.221093 1_555
O0 W0 1.996258 1_556
O0 W3 2.170055 1_555
O1 W1 1.996258 1_555
O1 W2 2.170055 1_555
O2 W2 1.996258 1_554
O2 W1 2.170055 1_555
O3 W3 1.996258 1_555
O3 W0 2.170055 1_555
O4 W0 1.839069 1_555
O5 W1 1.839069 1_555
O6 W2 1.839069 1_555
O7 W3 1.839069 1_555
O8 W1 1.919373 1_556
O8 W2 2.096436 1_555
O9 W0 1.919373 1_555
O9 W3 2.096436 1_555
O10 W3 1.919373 1_554
O10 W0 2.096436 1_555
O11 W2 1.919373 1_555
O11 W1 2.096436 1_555
O12 W1 1.826343 1_565
O13 W0 1.826343 1_455
O14 W3 1.826343 1_545
O15 W2 1.826343 1_655
