# generated using pymatgen
data_Eu2V2O5
_symmetry_space_group_name_H-M   'P 1'
_cell_length_a   8.77675081
_cell_length_b   8.77675081
_cell_length_c   8.77675081
_cell_angle_alpha   143.11180188
_cell_angle_beta   141.54095537
_cell_angle_gamma   54.34795953
_symmetry_Int_Tables_number   1
_chemical_formula_structural   Eu2V2O5
_chemical_formula_sum   'Eu4 V4 O10'
_cell_volume   250.69035854
_cell_formula_units_Z   2
loop_
 _symmetry_equiv_pos_site_id
 _symmetry_equiv_pos_as_xyz
  1  'x, y, z'
loop_
 _atom_site_type_symbol
 _atom_site_label
 _atom_site_symmetry_multiplicity
 _atom_site_fract_x
 _atom_site_fract_y
 _atom_site_fract_z
 _atom_site_occupancy
  Eu  Eu0  1  0.91281500  0.39587600  0.52533800  1
  Eu  Eu1  1  0.08718500  0.61252300  0.48306100  1
  Eu  Eu2  1  0.37053900  0.89587600  0.48306100  1
  Eu  Eu3  1  0.62946100  0.11252300  0.52533800  1
  V  V0  1  0.00000000  0.01099100  0.01099100  1
  V  V1  1  0.50000000  0.51099100  0.01099100  1
  V  V2  1  0.68389300  0.71297500  0.89686800  1
  V  V3  1  0.31610700  0.21297500  0.02908200  1
  O  O0  1  0.26476700  0.26899500  0.51088300  1
  O  O1  1  0.73523300  0.24611700  0.00422800  1
  O  O2  1  0.25811200  0.76899500  0.00422800  1
  O  O3  1  0.74188800  0.74611700  0.51088300  1
  O  O4  1  0.92336600  0.89048600  0.09093000  1
  O  O5  1  0.07663400  0.16756400  0.96712000  1
  O  O6  1  0.29955600  0.39048600  0.96712000  1
  O  O7  1  0.70044400  0.66756400  0.09093000  1
  O  O8  1  0.62557700  0.35847300  0.48405000  1
  O  O9  1  0.37442300  0.85847300  0.73289700  1
loop_
_geom_bond_atom_site_label_1
_geom_bond_atom_site_label_2
_geom_bond_distance
_geom_bond_site_symmetry_2
Eu0 O8 2.436871 1_555
Eu0 O6 2.460164 1_655
Eu0 O3 2.581857 1_555
Eu0 O1 2.585166 1_555
Eu0 O0 2.678781 1_655
Eu0 O2 2.679097 1_656
Eu0 O4 2.691104 1_545
Eu0 O4 2.961989 1_556
Eu1 O9 2.436865 1_555
Eu1 O7 2.460164 1_455
Eu1 O2 2.581849 1_556
Eu1 O0 2.585161 1_555
Eu1 O1 2.678775 1_455
Eu1 O3 2.679094 1_455
Eu1 O5 2.691104 1_554
Eu1 O5 2.961989 1_565
Eu2 O9 2.436886 1_555
Eu2 O4 2.460168 1_455
Eu2 O1 2.581849 1_566
Eu2 O3 2.585155 1_555
Eu2 O2 2.678775 1_555
Eu2 O0 2.679094 1_565
Eu2 O6 2.691103 1_554
Eu2 O6 2.961994 1_565
Eu3 O8 2.436876 1_555
Eu3 O5 2.460168 1_655
Eu3 O0 2.581841 1_555
Eu3 O2 2.585156 1_545
Eu3 O3 2.678770 1_545
Eu3 O1 2.679086 1_556
Eu3 O7 2.691108 1_545
Eu3 O7 2.961988 1_556
O0 V1 2.011619 1_556
O0 V0 2.012926 1_555
O1 V1 2.011615 1_555
O1 V0 2.012929 1_655
O2 V0 2.011619 1_565
O2 V1 2.012926 1_555
O3 V0 2.011619 1_666
O3 V1 2.012925 1_555
O4 V2 1.926622 1_554
O4 V0 2.195116 1_665
O5 V3 1.926622 1_556
O5 V0 2.195116 1_556
O6 V3 1.926622 1_556
O6 V1 2.195116 1_556
O7 V2 1.926622 1_554
O7 V1 2.195116 1_555
O8 V3 1.963145 1_555
O8 V2 1.997408 1_555
O9 V2 1.963143 1_555
O9 V3 1.997406 1_566
