# generated using pymatgen
data_K2CoH4(I2O7)2
_symmetry_space_group_name_H-M   'P 1'
_cell_length_a   8.00105434
_cell_length_b   11.21958386
_cell_length_c   16.67784712
_cell_angle_alpha   89.22438647
_cell_angle_beta   89.97931584
_cell_angle_gamma   90.02336499
_symmetry_Int_Tables_number   1
_chemical_formula_structural   K2CoH4(I2O7)2
_chemical_formula_sum   'K8 Co4 H16 I16 O56'
_cell_volume   1497.00792112
_cell_formula_units_Z   4
loop_
 _symmetry_equiv_pos_site_id
 _symmetry_equiv_pos_as_xyz
  1  'x, y, z'
loop_
 _atom_site_type_symbol
 _atom_site_label
 _atom_site_symmetry_multiplicity
 _atom_site_fract_x
 _atom_site_fract_y
 _atom_site_fract_z
 _atom_site_occupancy
  K  K0  1  0.34533600  0.00040400  0.49997100  1
  K  K1  1  0.84565800  0.49971700  0.74979000  1
  K  K2  1  0.34533600  0.00008900  0.99965500  1
  K  K3  1  0.84519400  0.50001100  0.25026900  1
  K  K4  1  0.87002000  0.00047100  0.49993200  1
  K  K5  1  0.37005500  0.49969400  0.75018700  1
  K  K6  1  0.87003700  0.00032500  0.00004000  1
  K  K7  1  0.36987400  0.49977300  0.24983800  1
  Co  Co0  1  0.91967200  0.50165000  0.50032300  1
  Co  Co1  1  0.41918800  0.99787300  0.74959100  1
  Co  Co2  1  0.91918900  0.50224400  0.00043100  1
  Co  Co3  1  0.41910800  0.99754000  0.24957300  1
  H  H0  1  0.59662400  0.54757800  0.46140900  1
  H  H1  1  0.09606200  0.04898500  0.71178100  1
  H  H2  1  0.59604500  0.54884700  0.96194900  1
  H  H3  1  0.09599400  0.04904100  0.21185000  1
  H  H4  1  0.59659800  0.45117500  0.53861000  1
  H  H5  1  0.09599900  0.95099800  0.78801900  1
  H  H6  1  0.59580700  0.45083200  0.03816200  1
  H  H7  1  0.09582700  0.95123200  0.28814500  1
  H  H8  1  0.24567900  0.54639100  0.53987300  1
  H  H9  1  0.74584400  0.04619500  0.79032400  1
  H  H10  1  0.24707100  0.54698000  0.03859400  1
  H  H11  1  0.74516600  0.04620300  0.29079000  1
  H  H12  1  0.24504400  0.45437700  0.45979900  1
  H  H13  1  0.74684800  0.95306300  0.71099600  1
  H  H14  1  0.24544100  0.45382700  0.95931800  1
  H  H15  1  0.74690500  0.95312600  0.21148700  1
  I  I0  1  0.09938700  0.26408200  0.37719400  1
  I  I1  1  0.59847000  0.76407200  0.62712900  1
  I  I2  1  0.09906100  0.26334400  0.87747800  1
  I  I3  1  0.59859200  0.76410800  0.12716200  1
  I  I4  1  0.09841900  0.73609700  0.62278200  1
  I  I5  1  0.59934700  0.23650100  0.87256500  1
  I  I6  1  0.09860900  0.73601700  0.12279300  1
  I  I7  1  0.59882000  0.23678700  0.37248900  1
  I  I8  1  0.09168000  0.72211800  0.37966100  1
  I  I9  1  0.59093100  0.22151500  0.62994300  1
  I  I10  1  0.09252100  0.72207400  0.87986500  1
  I  I11  1  0.59030400  0.22142600  0.12972900  1
  I  I12  1  0.09115100  0.27822300  0.62050800  1
  I  I13  1  0.59263900  0.77818700  0.87003800  1
  I  I14  1  0.09022600  0.27842700  0.12018800  1
  I  I15  1  0.59211600  0.77782700  0.37018300  1
  O  O0  1  0.17892900  0.50108600  0.49970400  1
  O  O1  1  0.67988600  0.99775700  0.75128800  1
  O  O2  1  0.17981400  0.50278600  0.99813800  1
  O  O3  1  0.67958200  0.99701800  0.25207600  1
  O  O4  1  0.66555100  0.49927000  0.49988700  1
  O  O5  1  0.16499000  0.99938400  0.74954900  1
  O  O6  1  0.66487700  0.50036500  0.00040200  1
  O  O7  1  0.16490700  0.99958100  0.24968500  1
  O  O8  1  0.60457800  0.15547700  0.53007500  1
  O  O9  1  0.10496400  0.65554200  0.78010900  1
  O  O10  1  0.60424900  0.15528000  0.02989800  1
  O  O11  1  0.10511200  0.65592500  0.27984500  1
  O  O12  1  0.60483800  0.84443600  0.46990800  1
  O  O13  1  0.10516100  0.34431500  0.72035100  1
  O  O14  1  0.60508700  0.84465100  0.96980900  1
  O  O15  1  0.10423000  0.34484800  0.21992100  1
  O  O16  1  0.11044400  0.18085800  0.47260300  1
  O  O17  1  0.60932000  0.68125800  0.72267400  1
  O  O18  1  0.11094600  0.17984600  0.97275200  1
  O  O19  1  0.60915200  0.68125800  0.22269100  1
  O  O20  1  0.10953100  0.81889200  0.52722400  1
  O  O21  1  0.61124100  0.31996100  0.77727100  1
  O  O22  1  0.10941600  0.81882900  0.02723500  1
  O  O23  1  0.61063900  0.32015000  0.27717200  1
  O  O24  1  0.28644500  0.35927900  0.38711500  1
  O  O25  1  0.78664500  0.85796100  0.63656200  1
  O  O26  1  0.28619300  0.35846400  0.88720200  1
  O  O27  1  0.78702500  0.85771800  0.13668500  1
  O  O28  1  0.28653800  0.64212200  0.61329000  1
  O  O29  1  0.78641500  0.14142300  0.86282600  1
  O  O30  1  0.28704300  0.64246800  0.11331800  1
  O  O31  1  0.78607400  0.14187500  0.36275800  1
  O  O32  1  0.94014400  0.37793300  0.39849700  1
  O  O33  1  0.44034700  0.87958200  0.64789400  1
  O  O34  1  0.93961500  0.37681300  0.89945700  1
  O  O35  1  0.44079800  0.87986600  0.14787600  1
  O  O36  1  0.94015300  0.62074400  0.60206100  1
  O  O37  1  0.43985400  0.12302300  0.85057200  1
  O  O38  1  0.94080300  0.62017700  0.10212100  1
  O  O39  1  0.43938700  0.12320300  0.35060200  1
  O  O40  1  0.49688500  0.36641700  0.60691100  1
  O  O41  1  0.99736000  0.86653300  0.85672300  1
  O  O42  1  0.49575000  0.36606800  0.10653900  1
  O  O43  1  0.99686500  0.86670900  0.35666700  1
  O  O44  1  0.49733000  0.63316900  0.39341700  1
  O  O45  1  0.99634400  0.13353100  0.64354900  1
  O  O46  1  0.49761300  0.63363000  0.89319500  1
  O  O47  1  0.99566300  0.13377200  0.14354600  1
  O  O48  1  0.90079900  0.64216600  0.41382200  1
  O  O49  1  0.39978900  0.14247400  0.66447600  1
  O  O50  1  0.90170200  0.64255000  0.91463600  1
  O  O51  1  0.39953100  0.14213200  0.16439400  1
  O  O52  1  0.90047900  0.35761800  0.58609100  1
  O  O53  1  0.40177100  0.85757600  0.83536800  1
  O  O54  1  0.89943700  0.35756000  0.08553900  1
  O  O55  1  0.40114300  0.85722900  0.33561200  1
loop_
_geom_bond_atom_site_label_1
_geom_bond_atom_site_label_2
_geom_bond_distance
_geom_bond_site_symmetry_2
K0 O8 2.757348 1_555
K0 O12 2.765948 1_545
K0 O16 2.796105 1_555
K0 O20 2.807963 1_545
K0 O33 2.900585 1_545
K0 O39 2.928344 1_555
K0 O49 3.221261 1_555
K0 O55 3.226859 1_545
K1 O13 2.759967 1_655
K1 O9 2.763768 1_655
K1 O21 2.786857 1_555
K1 O17 2.812055 1_555
K1 O36 2.897069 1_555
K1 O34 2.933639 1_555
K1 O52 3.210203 1_555
K1 O50 3.232223 1_555
K2 O10 2.756652 1_556
K2 O14 2.762987 1_545
K2 O18 2.786573 1_555
K2 O22 2.807373 1_546
K2 O35 2.902678 1_546
K2 O37 2.925976 1_555
K2 O53 3.222753 1_545
K2 O51 3.224180 1_556
K3 O15 2.758321 1_655
K3 O11 2.765732 1_655
K3 O23 2.786978 1_555
K3 O19 2.809257 1_555
K3 O38 2.900909 1_555
K3 O32 2.911195 1_555
K3 O48 3.209392 1_555
K3 O54 3.226329 1_555
K4 O8 2.795302 1_555
K4 O12 2.799774 1_545
K4 O16 2.824077 1_655
K4 O20 2.829947 1_645
K4 O25 2.844879 1_545
K4 O31 2.847047 1_555
K4 O45 3.014078 1_555
K4 O43 3.014605 1_545
K5 O13 2.792827 1_555
K5 O9 2.798396 1_555
K5 O21 2.823734 1_555
K5 O17 2.827705 1_555
K5 O26 2.843016 1_555
K5 O28 2.848865 1_555
K5 O40 3.011947 1_555
K5 O46 3.014270 1_555
K6 O10 2.796160 1_555
K6 O14 2.796478 1_544
K6 O18 2.819692 1_654
K6 O22 2.828319 1_645
K6 O27 2.845000 1_545
K6 O29 2.845092 1_554
K6 O47 3.012926 1_555
K6 O41 3.016759 1_544
K7 O15 2.794452 1_555
K7 O11 2.798809 1_555
K7 O23 2.821184 1_555
K7 O19 2.826216 1_555
K7 O24 2.841185 1_555
K7 O30 2.844241 1_555
K7 O42 3.012133 1_555
K7 O44 3.018528 1_555
Co0 O4 2.033417 1_555
Co0 O0 2.074364 1_655
Co0 O48 2.127973 1_555
Co0 O52 2.148987 1_555
Co0 O36 2.180064 1_555
Co0 O32 2.213897 1_555
Co1 O5 2.033930 1_555
Co1 O1 2.086062 1_555
Co1 O53 2.117165 1_555
Co1 O49 2.146916 1_565
Co1 O33 2.174324 1_555
Co1 O37 2.213437 1_565
Co2 O6 2.034865 1_555
Co2 O2 2.085616 1_654
Co2 O50 2.117629 1_554
Co2 O54 2.147570 1_555
Co2 O38 2.172038 1_555
Co2 O34 2.215234 1_554
Co3 O7 2.034015 1_555
Co3 O3 2.084509 1_555
Co3 O55 2.120482 1_555
Co3 O51 2.147640 1_565
Co3 O35 2.170368 1_555
Co3 O39 2.217538 1_565
H0 O4 1.000400 1_555
H0 O44 1.676600 1_555
H1 O5 1.000807 1_545
H1 O45 1.674323 1_455
H2 O6 1.000759 1_556
H2 O46 1.676804 1_555
H3 O7 1.000571 1_545
H3 O47 1.678630 1_455
H4 O4 1.001343 1_555
H4 O40 1.675644 1_555
H5 O5 1.000565 1_555
H5 O41 1.674277 1_455
H6 O6 1.000432 1_555
H6 O42 1.677844 1_555
H7 O7 1.000631 1_555
H7 O43 1.673807 1_455
H8 O0 1.000834 1_555
H8 O28 1.671926 1_555
H9 O1 1.003637 1_545
H9 O29 1.656495 1_555
H10 O2 0.999892 1_554
H10 O30 1.685023 1_555
H11 O3 1.003202 1_545
H11 O31 1.653737 1_555
H12 O0 1.003398 1_555
H12 O24 1.659098 1_555
H13 O1 0.999570 1_555
H13 O25 1.678336 1_555
H14 O2 1.003112 1_555
H14 O26 1.653026 1_555
H15 O3 0.999939 1_555
H15 O27 1.685637 1_555
I0 O16 1.836194 1_555
I0 O32 1.842425 1_455
I0 O24 1.847108 1_555
I1 O17 1.835786 1_555
I1 O25 1.845151 1_555
I1 O33 1.847501 1_555
I2 O18 1.836124 1_555
I2 O34 1.842881 1_455
I2 O26 1.846769 1_555
I3 O19 1.835647 1_555
I3 O27 1.845190 1_555
I3 O35 1.847495 1_555
I4 O20 1.835877 1_555
I4 O28 1.846038 1_555
I4 O36 1.846349 1_455
I5 O21 1.836103 1_555
I5 O37 1.842725 1_555
I5 O29 1.846716 1_555
I6 O22 1.835856 1_555
I6 O30 1.845338 1_555
I6 O38 1.847518 1_455
I7 O23 1.835860 1_555
I7 O39 1.842849 1_555
I7 O31 1.846832 1_555
I8 O43 1.827194 1_455
I8 O11 1.835150 1_555
I8 O48 1.856384 1_455
I8 O20 2.707109 1_555
I9 O40 1.827865 1_555
I9 O8 1.835319 1_555
I9 O49 1.855110 1_555
I9 O21 2.712453 1_555
I10 O41 1.827527 1_455
I10 O9 1.835382 1_555
I10 O50 1.856765 1_455
I10 O22 2.703682 1_556
I11 O42 1.827484 1_555
I11 O10 1.835403 1_555
I11 O51 1.854695 1_555
I11 O23 2.715522 1_555
I12 O45 1.827661 1_455
I12 O13 1.835402 1_555
I12 O52 1.854251 1_455
I12 O16 2.715651 1_555
I13 O46 1.827433 1_555
I13 O14 1.835325 1_555
I13 O53 1.856794 1_555
I13 O17 2.704270 1_555
I14 O47 1.827540 1_455
I14 O15 1.835265 1_555
I14 O54 1.854801 1_455
I14 O18 2.714876 1_554
I15 O44 1.827894 1_555
I15 O12 1.835428 1_555
I15 O55 1.857051 1_555
I15 O19 2.704693 1_555
