# generated using pymatgen
data_ZnH10C2(Se2N)2
_symmetry_space_group_name_H-M   'P 1'
_cell_length_a   12.43810900
_cell_length_b   15.58763200
_cell_length_c   12.08044700
_cell_angle_alpha   90.00000000
_cell_angle_beta   90.00000000
_cell_angle_gamma   90.00000000
_symmetry_Int_Tables_number   1
_chemical_formula_structural   ZnH10C2(Se2N)2
_chemical_formula_sum   'Zn8 H80 C16 Se32 N16'
_cell_volume   2342.16510834
_cell_formula_units_Z   8
loop_
 _symmetry_equiv_pos_site_id
 _symmetry_equiv_pos_as_xyz
  1  'x, y, z'
loop_
 _atom_site_type_symbol
 _atom_site_label
 _atom_site_symmetry_multiplicity
 _atom_site_fract_x
 _atom_site_fract_y
 _atom_site_fract_z
 _atom_site_occupancy
  Zn  Zn0  1  0.55045000  0.23926500  0.44742000  1
  Zn  Zn1  1  0.44955000  0.76073500  0.94742000  1
  Zn  Zn2  1  0.94955000  0.73926500  0.94742000  1
  Zn  Zn3  1  0.05045000  0.26073500  0.44742000  1
  Zn  Zn4  1  0.68608400  0.24459300  0.94547000  1
  Zn  Zn5  1  0.31391600  0.75540700  0.44547000  1
  Zn  Zn6  1  0.81391600  0.74459300  0.44547000  1
  Zn  Zn7  1  0.18608400  0.25540700  0.94547000  1
  H  H0  1  0.62200100  0.29665700  0.25815300  1
  H  H1  1  0.37799900  0.70334300  0.75815300  1
  H  H2  1  0.87799900  0.79665700  0.75815300  1
  H  H3  1  0.12200100  0.20334300  0.25815300  1
  H  H4  1  0.66758400  0.35742200  0.35822400  1
  H  H5  1  0.33241600  0.64257800  0.85822400  1
  H  H6  1  0.83241600  0.85742200  0.85822400  1
  H  H7  1  0.16758400  0.14257800  0.35822400  1
  H  H8  1  0.73054700  0.19851000  0.53928800  1
  H  H9  1  0.26945300  0.80149000  0.03928800  1
  H  H10  1  0.76945300  0.69851000  0.03928800  1
  H  H11  1  0.23054700  0.30149000  0.53928800  1
  H  H12  1  0.75287600  0.19818200  0.40686000  1
  H  H13  1  0.24712400  0.80181800  0.90686000  1
  H  H14  1  0.74712400  0.69818200  0.90686000  1
  H  H15  1  0.25287600  0.30181800  0.40686000  1
  H  H16  1  0.50412700  0.28250400  0.03424600  1
  H  H17  1  0.49587300  0.71749600  0.53424600  1
  H  H18  1  0.99587300  0.78250400  0.53424600  1
  H  H19  1  0.00412700  0.21749600  0.03424600  1
  H  H20  1  0.48421500  0.28925800  0.90179200  1
  H  H21  1  0.51578500  0.71074200  0.40179200  1
  H  H22  1  0.01578500  0.78925800  0.40179200  1
  H  H23  1  0.98421500  0.21074200  0.90179200  1
  H  H24  1  0.61609300  0.18027000  0.75986500  1
  H  H25  1  0.38390700  0.81973000  0.25986500  1
  H  H26  1  0.88390700  0.68027000  0.25986500  1
  H  H27  1  0.11609300  0.31973000  0.75986500  1
  H  H28  1  0.57578800  0.11937900  0.86224400  1
  H  H29  1  0.42421200  0.88062100  0.36224400  1
  H  H30  1  0.92421200  0.61937900  0.36224400  1
  H  H31  1  0.07578800  0.38062100  0.86224400  1
  H  H32  1  0.48372000  0.42105700  0.37835100  1
  H  H33  1  0.51628000  0.57894300  0.87835100  1
  H  H34  1  0.01628000  0.92105700  0.87835100  1
  H  H35  1  0.98372000  0.07894300  0.37835100  1
  H  H36  1  0.55141100  0.44967200  0.25333300  1
  H  H37  1  0.44858900  0.55032800  0.75333300  1
  H  H38  1  0.94858900  0.94967200  0.75333300  1
  H  H39  1  0.05141100  0.05032800  0.25333300  1
  H  H40  1  0.45198400  0.36710800  0.25342100  1
  H  H41  1  0.54801600  0.63289200  0.75342100  1
  H  H42  1  0.04801600  0.86710800  0.75342100  1
  H  H43  1  0.95198400  0.13289200  0.25342100  1
  H  H44  1  0.67505800  0.05837900  0.38275800  1
  H  H45  1  0.32494200  0.94162100  0.88275800  1
  H  H46  1  0.82494200  0.55837900  0.88275800  1
  H  H47  1  0.17505800  0.44162100  0.38275800  1
  H  H48  1  0.77690600  0.05416800  0.48711200  1
  H  H49  1  0.22309400  0.94583200  0.98711200  1
  H  H50  1  0.72309400  0.55416800  0.98711200  1
  H  H51  1  0.27690600  0.44583200  0.48711200  1
  H  H52  1  0.63783200  0.05780700  0.52385900  1
  H  H53  1  0.36216800  0.94219300  0.02385900  1
  H  H54  1  0.86216800  0.55780700  0.02385900  1
  H  H55  1  0.13783200  0.44219300  0.52385900  1
  H  H56  1  0.57343800  0.42809300  0.89367100  1
  H  H57  1  0.42656200  0.57190700  0.39367100  1
  H  H58  1  0.92656200  0.92809300  0.39367100  1
  H  H59  1  0.07343800  0.07190700  0.89367100  1
  H  H60  1  0.46082600  0.43000700  0.98686000  1
  H  H61  1  0.53917400  0.56999300  0.48686000  1
  H  H62  1  0.03917400  0.93000700  0.48686000  1
  H  H63  1  0.96082600  0.06999300  0.98686000  1
  H  H64  1  0.59495600  0.42108400  0.03825100  1
  H  H65  1  0.40504400  0.57891600  0.53825100  1
  H  H66  1  0.90504400  0.92108400  0.53825100  1
  H  H67  1  0.09495600  0.07891600  0.03825100  1
  H  H68  1  0.75818500  0.05984000  0.88213200  1
  H  H69  1  0.24181500  0.94016000  0.38213200  1
  H  H70  1  0.74181500  0.55984000  0.38213200  1
  H  H71  1  0.25818500  0.44016000  0.88213200  1
  H  H72  1  0.69619400  0.03273900  0.75366500  1
  H  H73  1  0.30380600  0.96726100  0.25366500  1
  H  H74  1  0.80380600  0.53273900  0.25366500  1
  H  H75  1  0.19619400  0.46726100  0.75366500  1
  H  H76  1  0.79285900  0.11797400  0.76053500  1
  H  H77  1  0.20714100  0.88202600  0.26053500  1
  H  H78  1  0.70714100  0.61797400  0.26053500  1
  H  H79  1  0.29285900  0.38202600  0.76053500  1
  C  C0  1  0.51765600  0.39596700  0.30121200  1
  C  C1  1  0.48234400  0.60403300  0.80121200  1
  C  C2  1  0.98234400  0.89596700  0.80121200  1
  C  C3  1  0.01765600  0.10403300  0.30121200  1
  C  C4  1  0.69827200  0.08117900  0.46513100  1
  C  C5  1  0.30172800  0.91882100  0.96513100  1
  C  C6  1  0.80172800  0.58117900  0.96513100  1
  C  C7  1  0.19827200  0.41882100  0.46513100  1
  C  C8  1  0.54059400  0.40232800  0.97103700  1
  C  C9  1  0.45940600  0.59767200  0.47103700  1
  C  C10  1  0.95940600  0.90232800  0.47103700  1
  C  C11  1  0.04059400  0.09767200  0.97103700  1
  C  C12  1  0.72684300  0.08609300  0.80442400  1
  C  C13  1  0.27315700  0.91390700  0.30442400  1
  C  C14  1  0.77315700  0.58609300  0.30442400  1
  C  C15  1  0.22684300  0.41390700  0.80442400  1
  Se  Se0  1  0.72367600  0.17850500  0.12575000  1
  Se  Se1  1  0.27632400  0.82149500  0.62575000  1
  Se  Se2  1  0.77632400  0.67850500  0.62575000  1
  Se  Se3  1  0.22367600  0.32149500  0.12575000  1
  Se  Se4  1  0.57458300  0.08175100  0.12686400  1
  Se  Se5  1  0.42541700  0.91824900  0.62686400  1
  Se  Se6  1  0.92541700  0.58175100  0.62686400  1
  Se  Se7  1  0.07458300  0.41824900  0.12686400  1
  Se  Se8  1  0.42316200  0.15953600  0.18786500  1
  Se  Se9  1  0.57683800  0.84046400  0.68786500  1
  Se  Se10  1  0.07683800  0.65953600  0.68786500  1
  Se  Se11  1  0.92316200  0.34046400  0.18786500  1
  Se  Se12  1  0.40736600  0.14568400  0.38407000  1
  Se  Se13  1  0.59263400  0.85431600  0.88407000  1
  Se  Se14  1  0.09263400  0.64568400  0.88407000  1
  Se  Se15  1  0.90736600  0.35431600  0.38407000  1
  Se  Se16  1  0.50978600  0.31277600  0.62244600  1
  Se  Se17  1  0.49021400  0.68722400  0.12244600  1
  Se  Se18  1  0.99021400  0.81277600  0.12244600  1
  Se  Se19  1  0.00978600  0.18722400  0.62244600  1
  Se  Se20  1  0.66016900  0.40856300  0.62540800  1
  Se  Se21  1  0.33983100  0.59143700  0.12540800  1
  Se  Se22  1  0.83983100  0.90856300  0.12540800  1
  Se  Se23  1  0.16016900  0.09143700  0.62540800  1
  Se  Se24  1  0.81012300  0.32791300  0.68474100  1
  Se  Se25  1  0.18987700  0.67208700  0.18474100  1
  Se  Se26  1  0.68987700  0.82791300  0.18474100  1
  Se  Se27  1  0.31012300  0.17208700  0.68474100  1
  Se  Se28  1  0.82610200  0.33989000  0.88062700  1
  Se  Se29  1  0.17389800  0.66011000  0.38062700  1
  Se  Se30  1  0.67389800  0.83989000  0.38062700  1
  Se  Se31  1  0.32610200  0.16011000  0.88062700  1
  N  N0  1  0.59881900  0.32963400  0.32809300  1
  N  N1  1  0.40118100  0.67036600  0.82809300  1
  N  N2  1  0.90118100  0.82963400  0.82809300  1
  N  N3  1  0.09881900  0.17036600  0.32809300  1
  N  N4  1  0.70007800  0.17637600  0.46576600  1
  N  N5  1  0.29992200  0.82362400  0.96576600  1
  N  N6  1  0.79992200  0.67637600  0.96576600  1
  N  N7  1  0.20007800  0.32362400  0.46576600  1
  N  N8  1  0.53656700  0.30761100  0.96321900  1
  N  N9  1  0.46343300  0.69238900  0.46321900  1
  N  N10  1  0.96343300  0.80761100  0.46321900  1
  N  N11  1  0.03656700  0.19238900  0.96321900  1
  N  N12  1  0.64185500  0.14979200  0.83050600  1
  N  N13  1  0.35814500  0.85020800  0.33050600  1
  N  N14  1  0.85814500  0.64979200  0.33050600  1
  N  N15  1  0.14185500  0.35020800  0.83050600  1
loop_
_geom_bond_atom_site_label_1
_geom_bond_atom_site_label_2
_geom_bond_distance
_geom_bond_site_symmetry_2
H0 N0 1.030164 1_555
H1 N1 1.030164 1_555
H2 N2 1.030164 1_555
H3 N3 1.030164 1_555
H4 N0 1.025505 1_555
H5 N1 1.025505 1_555
H6 N2 1.025505 1_555
H7 N3 1.025505 1_555
H8 N4 1.025437 1_555
H9 N5 1.025437 1_554
H10 N6 1.025437 1_554
H11 N7 1.025437 1_555
H12 N4 1.026250 1_555
H13 N5 1.026250 1_555
H14 N6 1.026250 1_555
H15 N7 1.026250 1_555
H16 N8 1.025766 1_554
H17 N9 1.025766 1_555
H18 N10 1.025766 1_555
H19 N11 1.025766 1_554
H20 N8 1.027868 1_555
H21 N9 1.027868 1_555
H22 N10 1.027868 1_455
H23 N11 1.027868 1_655
H24 N12 1.027923 1_555
H25 N13 1.027923 1_555
H26 N14 1.027923 1_555
H27 N15 1.027923 1_555
H28 N12 1.023236 1_555
H29 N13 1.023236 1_555
H30 N14 1.023236 1_555
H31 N15 1.023236 1_555
C0 H32 1.095222 1_555
C0 H40 1.096767 1_555
C0 H36 1.100732 1_555
C0 N0 1.481106 1_555
C1 H33 1.095222 1_555
C1 H41 1.096767 1_555
C1 H37 1.100732 1_555
C1 N1 1.481106 1_555
C2 H34 1.095222 1_655
C2 H42 1.096767 1_655
C2 H38 1.100732 1_555
C2 N2 1.481106 1_555
C3 H35 1.095222 1_455
C3 H43 1.096767 1_455
C3 H39 1.100732 1_555
C3 N3 1.481106 1_555
C4 H44 1.095403 1_555
C4 H52 1.095993 1_555
C4 H48 1.097443 1_555
C4 N4 1.484086 1_555
C5 H45 1.095403 1_555
C5 H53 1.095993 1_556
C5 H49 1.097443 1_555
C5 N5 1.484086 1_555
C6 H46 1.095403 1_555
C6 H54 1.095993 1_556
C6 H50 1.097443 1_555
C6 N6 1.484086 1_555
C7 H47 1.095403 1_555
C7 H55 1.095993 1_555
C7 H51 1.097443 1_555
C7 N7 1.484086 1_555
C8 H56 1.096215 1_555
C8 H64 1.096345 1_556
C8 H60 1.098669 1_555
C8 N8 1.480279 1_555
C9 H57 1.096215 1_555
C9 H65 1.096345 1_555
C9 H61 1.098669 1_555
C9 N9 1.480279 1_555
C10 H58 1.096215 1_555
C10 H66 1.096345 1_555
C10 H62 1.098669 1_655
C10 N10 1.480279 1_555
C11 H59 1.096215 1_555
C11 H67 1.096345 1_556
C11 H63 1.098669 1_455
C11 N11 1.480279 1_555
C12 H68 1.095756 1_555
C12 H76 1.096493 1_555
C12 H72 1.101359 1_555
C12 N12 1.484116 1_555
C13 H69 1.095756 1_555
C13 H77 1.096493 1_555
C13 H73 1.101359 1_555
C13 N13 1.484116 1_555
C14 H70 1.095756 1_555
C14 H78 1.096493 1_555
C14 H74 1.101359 1_555
C14 N14 1.484116 1_555
C15 H71 1.095756 1_555
C15 H79 1.096493 1_555
C15 H75 1.101359 1_555
C15 N15 1.484116 1_555
Se0 Se4 2.390329 1_555
Se0 Zn4 2.454166 1_554
Se1 Se5 2.390329 1_555
Se1 Zn5 2.454166 1_555
Se2 Se6 2.390329 1_555
Se2 Zn6 2.454166 1_555
Se3 Se7 2.390329 1_555
Se3 Zn7 2.454166 1_554
Se4 Se8 2.358035 1_555
Se5 Se9 2.358035 1_555
Se10 Se6 2.358035 1_455
Se10 Se14 2.388154 1_555
Se11 Se7 2.358035 1_655
Se11 Se15 2.388154 1_555
Se12 Se8 2.388154 1_555
Se12 Zn0 2.425039 1_555
Se13 Se9 2.388154 1_555
Se13 Zn1 2.425039 1_555
Se14 Zn2 2.425039 1_455
Se15 Zn3 2.425039 1_655
Se16 Se20 2.393596 1_555
Se16 Zn0 2.457534 1_555
Se17 Se21 2.393596 1_555
Se17 Zn1 2.457534 1_554
Se18 Se22 2.393596 1_555
Se18 Zn2 2.457534 1_554
Se19 Se23 2.393596 1_555
Se19 Zn3 2.457534 1_555
Se20 Se24 2.360705 1_555
Se21 Se25 2.360705 1_555
Se22 Se26 2.360705 1_555
Se23 Se27 2.360705 1_555
Se24 Se28 2.382049 1_555
Se25 Se29 2.382049 1_555
Se26 Se30 2.382049 1_555
Se27 Se31 2.382049 1_555
Se28 Zn4 2.419341 1_555
Se29 Zn5 2.419341 1_555
Se30 Zn6 2.419341 1_555
Se31 Zn7 2.419341 1_555
N0 Zn0 2.103378 1_555
N1 Zn1 2.103378 1_555
N2 Zn2 2.103378 1_555
N3 Zn3 2.103378 1_555
N4 Zn0 2.115122 1_555
N5 Zn1 2.115122 1_555
N6 Zn2 2.115122 1_555
N7 Zn3 2.115122 1_555
N8 Zn4 2.114097 1_555
N9 Zn5 2.114097 1_555
N10 Zn6 2.114097 1_555
N11 Zn7 2.114097 1_555
N12 Zn4 2.101217 1_555
N13 Zn5 2.101217 1_555
N14 Zn6 2.101217 1_555
N15 Zn7 2.101217 1_555
