# generated using pymatgen
data_K2CoPb(NO2)6
_symmetry_space_group_name_H-M   'P 1'
_cell_length_a   7.63359056
_cell_length_b   7.44837855
_cell_length_c   7.59103685
_cell_angle_alpha   60.98925168
_cell_angle_beta   58.58525699
_cell_angle_gamma   60.43582185
_symmetry_Int_Tables_number   1
_chemical_formula_structural   K2CoPb(NO2)6
_chemical_formula_sum   'K2 Co1 Pb1 N6 O12'
_cell_volume   304.92693175
_cell_formula_units_Z   1
loop_
 _symmetry_equiv_pos_site_id
 _symmetry_equiv_pos_as_xyz
  1  'x, y, z'
loop_
 _atom_site_type_symbol
 _atom_site_label
 _atom_site_symmetry_multiplicity
 _atom_site_fract_x
 _atom_site_fract_y
 _atom_site_fract_z
 _atom_site_occupancy
  K  K0  1  0.24998600  0.25003000  0.24996400  1
  K  K1  1  0.74996300  0.74997700  0.75008800  1
  Co  Co0  1  0.00001000  0.00002000  0.00004200  1
  Pb  Pb0  1  0.49997600  0.49987300  0.50010700  1
  N  N0  1  0.18658500  0.81339800  0.81335400  1
  N  N1  1  0.80956700  0.80962700  0.19039400  1
  N  N2  1  0.79986600  0.20012300  0.79994400  1
  N  N3  1  0.20007200  0.79995700  0.20008700  1
  N  N4  1  0.19039600  0.19041500  0.80960200  1
  N  N5  1  0.81342100  0.18661900  0.18660900  1
  O  O0  1  0.35537100  0.14914700  0.64472800  1
  O  O1  1  0.85076600  0.64470100  0.14919500  1
  O  O2  1  0.15868100  0.63785800  0.36207700  1
  O  O3  1  0.64474800  0.85080600  0.35536200  1
  O  O4  1  0.14912100  0.35539500  0.85078300  1
  O  O5  1  0.15017300  0.84986400  0.65316400  1
  O  O6  1  0.36214800  0.84137400  0.15856800  1
  O  O7  1  0.63787300  0.15860500  0.84139600  1
  O  O8  1  0.34666300  0.65322400  0.84990800  1
  O  O9  1  0.65333100  0.34669800  0.15010100  1
  O  O10  1  0.84133200  0.36211400  0.63783900  1
  O  O11  1  0.84995200  0.15017100  0.34668400  1
loop_
_geom_bond_atom_site_label_1
_geom_bond_atom_site_label_2
_geom_bond_distance
_geom_bond_site_symmetry_2
K0 O2 3.055161 1_555
K0 O7 3.055434 1_554
K0 O6 3.055593 1_545
K0 O10 3.055639 1_455
K0 O8 3.128997 1_554
K0 O11 3.129174 1_455
K0 O5 3.129501 1_545
K0 O9 3.130211 1_555
K0 O4 3.149624 1_554
K0 O1 3.150022 1_455
K0 O0 3.150287 1_555
K0 O3 3.150638 1_545
K1 O6 3.054790 1_556
K1 O7 3.055196 1_565
K1 O10 3.055865 1_555
K1 O2 3.056471 1_655
K1 O9 3.129186 1_556
K1 O5 3.130002 1_655
K1 O8 3.130381 1_555
K1 O11 3.130502 1_565
K1 O1 3.149010 1_556
K1 O3 3.149326 1_555
K1 O4 3.149333 1_655
K1 O0 3.149604 1_565
Co0 N5 1.954240 1_455
Co0 N0 1.954994 1_544
Co0 N4 2.016990 1_554
Co0 N1 2.017282 1_445
Co0 N3 2.199062 1_545
Co0 N2 2.199805 1_454
N0 O5 1.259840 1_555
N0 O8 1.259886 1_555
N1 O3 1.262747 1_555
N1 O1 1.262786 1_555
N2 O10 1.265290 1_555
N2 O7 1.265360 1_555
N3 O2 1.265324 1_555
N3 O6 1.265325 1_555
N4 O4 1.262887 1_555
N4 O0 1.262908 1_555
N5 O9 1.259593 1_555
N5 O11 1.259598 1_555
O0 Pb0 2.837008 1_555
O1 Pb0 2.838552 1_555
O2 Pb0 2.846173 1_555
O3 Pb0 2.839005 1_555
O4 Pb0 2.837383 1_555
O5 Pb0 2.847884 1_555
O6 Pb0 2.846922 1_555
O7 Pb0 2.845396 1_555
O8 Pb0 2.847519 1_555
O9 Pb0 2.847999 1_555
O10 Pb0 2.845543 1_555
O11 Pb0 2.847855 1_555
