# generated using pymatgen
data_LuPPt
_symmetry_space_group_name_H-M   'P 1'
_cell_length_a   4.07203027
_cell_length_b   4.07203101
_cell_length_c   3.76820227
_cell_angle_alpha   90.00000000
_cell_angle_beta   90.00000000
_cell_angle_gamma   119.99999407
_symmetry_Int_Tables_number   1
_chemical_formula_structural   LuPPt
_chemical_formula_sum   'Lu1 P1 Pt1'
_cell_volume   54.11117180
_cell_formula_units_Z   1
loop_
 _symmetry_equiv_pos_site_id
 _symmetry_equiv_pos_as_xyz
  1  'x, y, z'
loop_
 _atom_site_type_symbol
 _atom_site_label
 _atom_site_symmetry_multiplicity
 _atom_site_fract_x
 _atom_site_fract_y
 _atom_site_fract_z
 _atom_site_occupancy
  Lu  Lu0  1  -0.00000000  0.00000000  0.00000000  1
  P  P0  1  0.66666700  0.33333300  0.50000000  1
  Pt  Pt0  1  0.33333300  0.66666700  0.50000000  1
loop_
_geom_bond_atom_site_label_1
_geom_bond_atom_site_label_2
_geom_bond_distance
_geom_bond_site_symmetry_2
Lu0 P0 3.012801 1_454
Lu0 P0 3.012801 1_455
Lu0 Pt0 3.012801 1_544
Lu0 Pt0 3.012801 1_545
Lu0 Pt0 3.012804 1_445
Lu0 Pt0 3.012804 1_444
Lu0 P0 3.012804 1_554
Lu0 P0 3.012804 1_555
Lu0 Pt0 3.012804 1_555
Lu0 Pt0 3.012804 1_554
Lu0 P0 3.012804 1_444
Lu0 P0 3.012804 1_445
P0 Pt0 2.350986 1_655
P0 Pt0 2.350986 1_545
P0 Pt0 2.350993 1_555
