# generated using pymatgen
data_NbMoN3
_symmetry_space_group_name_H-M   'P 1'
_cell_length_a   8.49247969
_cell_length_b   5.39935322
_cell_length_c   5.84518091
_cell_angle_alpha   97.99243824
_cell_angle_beta   111.73873506
_cell_angle_gamma   102.02428485
_symmetry_Int_Tables_number   1
_chemical_formula_structural   NbMoN3
_chemical_formula_sum   'Nb4 Mo4 N12'
_cell_volume   236.50518596
_cell_formula_units_Z   4
loop_
 _symmetry_equiv_pos_site_id
 _symmetry_equiv_pos_as_xyz
  1  'x, y, z'
loop_
 _atom_site_type_symbol
 _atom_site_label
 _atom_site_symmetry_multiplicity
 _atom_site_fract_x
 _atom_site_fract_y
 _atom_site_fract_z
 _atom_site_occupancy
  Nb  Nb0  1  0.14827100  0.04329800  0.76067900  1
  Nb  Nb1  1  0.85172900  0.95670200  0.23932100  1
  Nb  Nb2  1  0.91925700  0.47645300  0.71933700  1
  Nb  Nb3  1  0.08074300  0.52354700  0.28066300  1
  Mo  Mo0  1  0.42341700  0.75333000  0.90648700  1
  Mo  Mo1  1  0.57658300  0.24667000  0.09351300  1
  Mo  Mo2  1  0.63135400  0.88814900  0.52038800  1
  Mo  Mo3  1  0.36864600  0.11185100  0.47961200  1
  N  N0  1  0.87886600  0.86780800  0.59161600  1
  N  N1  1  0.12113400  0.13219200  0.40838400  1
  N  N2  1  0.84780900  0.34188200  0.30770300  1
  N  N3  1  0.15219100  0.65811800  0.69229700  1
  N  N4  1  0.63482900  0.24772700  0.51102200  1
  N  N5  1  0.36517100  0.75227300  0.48897800  1
  N  N6  1  0.65001700  0.94522900  0.89091200  1
  N  N7  1  0.34998300  0.05477100  0.10908800  1
  N  N8  1  0.91879000  0.68342000  0.02567100  1
  N  N9  1  0.08121000  0.31658000  0.97432900  1
  N  N10  1  0.45773600  0.37616700  0.79357500  1
  N  N11  1  0.54226400  0.62383300  0.20642500  1
loop_
_geom_bond_atom_site_label_1
_geom_bond_atom_site_label_2
_geom_bond_distance
_geom_bond_site_symmetry_2
Mo0 N11 1.976213 1_556
Mo0 N6 2.027409 1_555
Mo0 N3 2.080573 1_555
Mo0 N10 2.164171 1_555
Mo0 N7 2.207798 1_566
Mo0 N5 2.302410 1_555
Mo1 N10 1.976213 1_554
Mo1 N7 2.027409 1_555
Mo1 N2 2.080573 1_555
Mo1 N11 2.164171 1_555
Mo1 N6 2.207798 1_544
Mo1 N4 2.302410 1_555
Mo2 N11 1.941722 1_555
Mo2 N4 1.944255 1_565
Mo2 N0 2.016037 1_555
Mo2 N6 2.085777 1_555
Mo2 N5 2.155495 1_555
Mo3 N10 1.941722 1_555
Mo3 N5 1.944255 1_545
Mo3 N1 2.016037 1_555
Mo3 N7 2.085777 1_555
Mo3 N4 2.155495 1_555
N0 Nb0 2.066521 1_665
N0 Nb1 2.119741 1_555
N0 Nb2 2.385588 1_555
N1 Nb1 2.066521 1_445
N1 Nb0 2.119741 1_555
N1 Nb3 2.385588 1_555
N2 Nb1 2.072114 1_545
N2 Nb3 2.089636 1_655
N2 Nb2 2.221263 1_555
N3 Nb0 2.072114 1_565
N3 Nb2 2.089636 1_455
N3 Nb3 2.221263 1_555
N4 Nb2 2.236664 1_555
N5 Nb3 2.236664 1_555
N6 Nb1 2.102909 1_556
N7 Nb0 2.102909 1_554
N8 Nb2 1.976268 1_554
N8 Nb3 2.047501 1_655
N8 Nb1 2.103731 1_555
N9 Nb3 1.976268 1_556
N9 Nb2 2.047501 1_455
N9 Nb0 2.103731 1_555
N10 Nb0 2.781320 1_555
N11 Nb1 2.781320 1_555
