# generated using pymatgen
data_Li9Mn2Co5O16
_symmetry_space_group_name_H-M   'P 1'
_cell_length_a   4.99468600
_cell_length_b   5.93482752
_cell_length_c   10.17120411
_cell_angle_alpha   105.14094178
_cell_angle_beta   100.06983739
_cell_angle_gamma   91.36068879
_symmetry_Int_Tables_number   1
_chemical_formula_structural   Li9Mn2Co5O16
_chemical_formula_sum   'Li9 Mn2 Co5 O16'
_cell_volume   285.78610279
_cell_formula_units_Z   1
loop_
 _symmetry_equiv_pos_site_id
 _symmetry_equiv_pos_as_xyz
  1  'x, y, z'
loop_
 _atom_site_type_symbol
 _atom_site_label
 _atom_site_symmetry_multiplicity
 _atom_site_fract_x
 _atom_site_fract_y
 _atom_site_fract_z
 _atom_site_occupancy
  Li  Li0  1  0.25023600  0.88058000  0.75395700  1
  Li  Li1  1  0.24588500  0.37758200  0.24517900  1
  Li  Li2  1  0.75411500  0.62241800  0.75482100  1
  Li  Li3  1  0.74976400  0.11942000  0.24604300  1
  Li  Li4  1  0.24486500  0.37590800  0.75464900  1
  Li  Li5  1  0.25154700  0.86826000  0.24628400  1
  Li  Li6  1  0.74845300  0.13174000  0.75371600  1
  Li  Li7  1  0.75513500  0.62409200  0.24535100  1
  Li  Li8  1  0.00000000  0.50000000  0.00000000  1
  Mn  Mn0  1  0.00000000  0.00000000  0.00000000  1
  Mn  Mn1  1  0.00000000  0.00000000  0.50000000  1
  Co  Co0  1  0.00000000  0.50000000  0.50000000  1
  Co  Co1  1  0.49873400  0.74159300  0.00034900  1
  Co  Co2  1  0.49968200  0.25212100  0.49971600  1
  Co  Co3  1  0.50126600  0.25840700  0.99965100  1
  Co  Co4  1  0.50031800  0.74787900  0.50028400  1
  O  O0  1  0.13595500  0.18106000  0.88891900  1
  O  O1  1  0.13680500  0.66783100  0.38130100  1
  O  O2  1  0.63576900  0.92946200  0.88896700  1
  O  O3  1  0.64262400  0.44919900  0.38717200  1
  O  O4  1  0.14119600  0.71789100  0.89255100  1
  O  O5  1  0.13856700  0.17568500  0.38258600  1
  O  O6  1  0.60456400  0.43254500  0.88683600  1
  O  O7  1  0.63575700  0.94807600  0.38449100  1
  O  O8  1  0.35737600  0.55080100  0.61282800  1
  O  O9  1  0.36423100  0.07053800  0.11103300  1
  O  O10  1  0.86319500  0.33216900  0.61869900  1
  O  O11  1  0.86404500  0.81894000  0.11108100  1
  O  O12  1  0.36424300  0.05192400  0.61550900  1
  O  O13  1  0.39543600  0.56745500  0.11316400  1
  O  O14  1  0.86143300  0.82431500  0.61741400  1
  O  O15  1  0.85880400  0.28210900  0.10744900  1
loop_
_geom_bond_atom_site_label_1
_geom_bond_atom_site_label_2
_geom_bond_distance
_geom_bond_site_symmetry_2
Li0 O4 2.042189 1_555
Li0 O12 2.083810 1_565
Li0 O0 2.105679 1_565
Li0 O2 2.125686 1_555
Li0 O14 2.143658 1_455
Li0 O8 2.242362 1_555
Li1 O1 2.059974 1_555
Li1 O9 2.136826 1_555
Li1 O15 2.146523 1_455
Li1 O13 2.175303 1_555
Li1 O5 2.186917 1_555
Li1 O3 2.198114 1_555
Li2 O10 2.059974 1_555
Li2 O2 2.136826 1_555
Li2 O4 2.146523 1_655
Li2 O6 2.175303 1_555
Li2 O14 2.186917 1_555
Li2 O8 2.198114 1_555
Li3 O15 2.042189 1_555
Li3 O7 2.083810 1_545
Li3 O11 2.105679 1_545
Li3 O9 2.125686 1_555
Li3 O5 2.143658 1_655
Li3 O3 2.242362 1_555
Li4 O6 2.009707 1_555
Li4 O10 2.116766 1_455
Li4 O8 2.124111 1_555
Li4 O0 2.133811 1_555
Li4 O12 2.232379 1_555
Li4 O4 2.274105 1_555
Li5 O7 2.132766 1_555
Li5 O11 2.134205 1_455
Li5 O5 2.137849 1_565
Li5 O13 2.162252 1_555
Li5 O1 2.173818 1_555
Li5 O9 2.179853 1_565
Li6 O12 2.132766 1_555
Li6 O0 2.134205 1_655
Li6 O14 2.137849 1_545
Li6 O6 2.162252 1_555
Li6 O10 2.173818 1_555
Li6 O2 2.179853 1_545
Li7 O13 2.009707 1_555
Li7 O1 2.116766 1_655
Li7 O3 2.124111 1_555
Li7 O11 2.133811 1_555
Li7 O7 2.232379 1_555
Li7 O15 2.274105 1_555
Li8 O13 2.076726 1_555
Li8 O6 2.076726 1_454
Li8 O15 2.080494 1_455
Li8 O4 2.080494 1_554
Li8 O0 2.129008 1_554
Li8 O11 2.129008 1_455
Mn0 O9 1.938716 1_555
Mn0 O2 1.938716 1_444
Mn0 O11 1.939112 1_445
Mn0 O0 1.939112 1_554
Mn0 O15 1.965875 1_455
Mn0 O4 1.965875 1_544
Mn1 O12 1.954955 1_555
Mn1 O7 1.954955 1_445
Mn1 O5 1.974232 1_555
Mn1 O14 1.974232 1_445
Mn1 O1 2.218091 1_545
Mn1 O10 2.218091 1_455
Co0 O8 1.916090 1_555
Co0 O3 1.916090 1_455
Co0 O1 1.949606 1_555
Co0 O10 1.949606 1_455
Co0 O14 2.182067 1_455
Co0 O5 2.182067 1_555
Co1 O13 1.857995 1_555
Co1 O4 1.906252 1_554
Co1 O11 1.944208 1_555
Co1 O2 1.972264 1_554
Co1 O6 2.032178 1_554
Co1 O9 2.169927 1_565
Co2 O5 1.950815 1_555
Co2 O10 1.969040 1_555
Co2 O3 2.033139 1_555
Co2 O12 2.056167 1_555
Co2 O8 2.061900 1_555
Co2 O7 2.079319 1_545
Co3 O6 1.857995 1_555
Co3 O15 1.906252 1_556
Co3 O0 1.944208 1_555
Co3 O9 1.972264 1_556
Co3 O13 2.032178 1_556
Co3 O2 2.169927 1_545
Co4 O14 1.950815 1_555
Co4 O1 1.969040 1_555
Co4 O8 2.033139 1_555
Co4 O7 2.056167 1_555
Co4 O3 2.061900 1_555
Co4 O12 2.079319 1_565
