# generated using pymatgen
data_V4Zn3(PO4)6
_symmetry_space_group_name_H-M   'P 1'
_cell_length_a   6.44293300
_cell_length_b   7.98935190
_cell_length_c   9.50807773
_cell_angle_alpha   105.70555424
_cell_angle_beta   108.47619599
_cell_angle_gamma   101.10008961
_symmetry_Int_Tables_number   1
_chemical_formula_structural   V4Zn3(PO4)6
_chemical_formula_sum   'V4 Zn3 P6 O24'
_cell_volume   425.60330160
_cell_formula_units_Z   1
loop_
 _symmetry_equiv_pos_site_id
 _symmetry_equiv_pos_as_xyz
  1  'x, y, z'
loop_
 _atom_site_type_symbol
 _atom_site_label
 _atom_site_symmetry_multiplicity
 _atom_site_fract_x
 _atom_site_fract_y
 _atom_site_fract_z
 _atom_site_occupancy
  V  V0  1  0.38838700  0.45958300  0.11412000  1
  V  V1  1  0.95569800  0.28498300  0.47717300  1
  V  V2  1  0.61161300  0.54041700  0.88588000  1
  V  V3  1  0.04430200  0.71501700  0.52282700  1
  Zn  Zn0  1  0.71616900  0.18857100  0.70670200  1
  Zn  Zn1  1  0.28383100  0.81142900  0.29329800  1
  Zn  Zn2  1  0.00000000  0.00000000  0.00000000  1
  P  P0  1  0.77351800  0.85452600  0.23237100  1
  P  P1  1  0.22648200  0.14547400  0.76762900  1
  P  P2  1  0.60336200  0.77066300  0.63295100  1
  P  P3  1  0.39663800  0.22933700  0.36704900  1
  P  P4  1  0.91264300  0.40701800  0.16617400  1
  P  P5  1  0.08735700  0.59298200  0.83382600  1
  O  O0  1  0.72124500  0.96625300  0.76154500  1
  O  O1  1  0.27875500  0.03374700  0.23845500  1
  O  O2  1  0.10589000  0.78872300  0.91191800  1
  O  O3  1  0.89411000  0.21127700  0.08808200  1
  O  O4  1  0.21143200  0.94604800  0.70567500  1
  O  O5  1  0.78856800  0.05395200  0.29432500  1
  O  O6  1  0.36744900  0.76048900  0.50755600  1
  O  O7  1  0.63255100  0.23951100  0.49244400  1
  O  O8  1  0.06277000  0.54312900  0.65581300  1
  O  O9  1  0.93723000  0.45687100  0.34418700  1
  O  O10  1  0.75190400  0.72163800  0.54017500  1
  O  O11  1  0.24809600  0.27836200  0.45982500  1
  O  O12  1  0.98319200  0.81650700  0.34120200  1
  O  O13  1  0.69458800  0.45818500  0.08052200  1
  O  O14  1  0.30541200  0.54181500  0.91947800  1
  O  O15  1  0.54548800  0.73455800  0.22947700  1
  O  O16  1  0.45451200  0.26544200  0.77052300  1
  O  O17  1  0.12402500  0.53772300  0.16295600  1
  O  O18  1  0.01680800  0.18349300  0.65879800  1
  O  O19  1  0.44750800  0.36005600  0.28146600  1
  O  O20  1  0.55249200  0.63994400  0.71853400  1
  O  O21  1  0.22756500  0.20038400  0.93925400  1
  O  O22  1  0.77243500  0.79961600  0.06074600  1
  O  O23  1  0.87597500  0.46227700  0.83704400  1
loop_
_geom_bond_atom_site_label_1
_geom_bond_atom_site_label_2
_geom_bond_distance
_geom_bond_site_symmetry_2
O0 P2 1.560026 1_555
O0 Zn0 1.985137 1_565
O0 Zn2 2.310936 1_666
O1 P3 1.560026 1_555
O1 Zn1 1.985137 1_545
O1 Zn2 2.310936 1_555
O2 P5 1.501481 1_555
O2 Zn2 2.014028 1_566
O3 P4 1.501481 1_555
O3 Zn2 2.014028 1_655
O4 P1 1.513653 1_565
O4 V3 1.974789 1_555
O5 P0 1.513653 1_545
O5 V1 1.974789 1_555
O6 P2 1.577898 1_555
O6 V3 2.101611 1_555
O6 Zn1 2.107993 1_555
O7 P3 1.577898 1_555
O7 V1 2.101611 1_555
O7 Zn0 2.107993 1_555
O8 P5 1.577749 1_555
O8 V3 2.099163 1_555
O8 V1 2.104146 1_455
O9 P4 1.577749 1_555
O9 V1 2.099163 1_555
O9 V3 2.104146 1_655
O10 P2 1.529661 1_555
O10 V3 1.951843 1_655
O11 P3 1.529661 1_555
O11 V1 1.951843 1_455
O12 P0 1.558891 1_555
O12 V3 2.060274 1_655
O12 Zn1 2.130846 1_655
O13 P4 1.574900 1_555
O13 V2 2.075767 1_554
O13 V0 2.097676 1_555
O14 P5 1.574900 1_555
O14 V0 2.075767 1_556
O14 V2 2.097676 1_555
O15 P0 1.579810 1_555
O15 V0 2.046804 1_555
O15 Zn1 2.105409 1_555
O16 P1 1.579810 1_555
O16 V2 2.046804 1_555
O16 Zn0 2.105409 1_555
O17 P4 1.562792 1_455
O17 Zn1 2.057892 1_555
O17 V0 2.064034 1_555
O18 P1 1.558891 1_555
O18 V1 2.060274 1_455
O18 Zn0 2.130846 1_455
O19 P3 1.535446 1_555
O19 V0 1.930423 1_555
O20 P2 1.535446 1_555
O20 V2 1.930423 1_555
O21 P1 1.568244 1_555
O21 V0 2.084274 1_556
O21 Zn2 2.275925 1_556
O22 P0 1.568244 1_555
O22 V2 2.084274 1_554
O22 Zn2 2.275925 1_665
O23 P5 1.562792 1_655
O23 Zn0 2.057892 1_555
O23 V2 2.064034 1_555
