# generated using pymatgen
data_LiZn2(FeO2)4
_symmetry_space_group_name_H-M   'P 1'
_cell_length_a   6.20689014
_cell_length_b   6.20689095
_cell_length_c   6.14025600
_cell_angle_alpha   60.35450121
_cell_angle_beta   60.35449697
_cell_angle_gamma   59.12823160
_symmetry_Int_Tables_number   1
_chemical_formula_structural   LiZn2(FeO2)4
_chemical_formula_sum   'Li1 Zn2 Fe4 O8'
_cell_volume   167.01409450
_cell_formula_units_Z   1
loop_
 _symmetry_equiv_pos_site_id
 _symmetry_equiv_pos_as_xyz
  1  'x, y, z'
loop_
 _atom_site_type_symbol
 _atom_site_label
 _atom_site_symmetry_multiplicity
 _atom_site_fract_x
 _atom_site_fract_y
 _atom_site_fract_z
 _atom_site_occupancy
  Li  Li0  1  0.46691700  0.46691700  0.03308300  1
  Zn  Zn0  1  0.13929000  0.61206300  0.62432300  1
  Zn  Zn1  1  0.61206300  0.13929000  0.62432300  1
  Fe  Fe0  1  0.99986500  0.99986400  0.00013600  1
  Fe  Fe1  1  0.22017800  0.22017900  0.27982100  1
  Fe  Fe2  1  0.64561600  0.64561600  0.12027000  1
  Fe  Fe3  1  0.64561600  0.64561600  0.58849800  1
  O  O0  1  0.38371400  0.38371400  0.37802900  1
  O  O1  1  0.38371400  0.38371400  0.85454400  1
  O  O2  1  0.40418500  0.83629000  0.37976200  1
  O  O3  1  0.83628900  0.40418800  0.37976100  1
  O  O4  1  0.39580800  0.84613000  0.87903200  1
  O  O5  1  0.84613300  0.39580700  0.87903100  1
  O  O6  1  0.87141700  0.87141700  0.38524700  1
  O  O7  1  0.87141700  0.87141700  0.87192000  1
loop_
_geom_bond_atom_site_label_1
_geom_bond_atom_site_label_2
_geom_bond_distance
_geom_bond_site_symmetry_2
Li0 O1 1.768918 1_554
Li0 O0 1.768923 1_555
Li0 O4 1.942676 1_554
Li0 O5 1.942691 1_554
Fe0 O7 1.945561 1_554
Fe0 O6 1.945561 1_555
Fe0 O5 1.997664 1_564
Fe0 O4 1.997664 1_654
Fe1 O2 1.952586 1_545
Fe1 O3 1.952587 1_455
Fe1 O1 2.166250 1_554
Fe1 O0 2.166259 1_555
Fe1 Li0 2.191456 1_555
Fe2 O3 1.966815 1_555
Fe2 O2 1.966824 1_555
Fe2 O7 2.010269 1_554
Fe2 O4 2.148304 1_554
Fe2 O5 2.148311 1_554
Fe2 Li0 2.276940 1_555
Fe2 O0 2.326273 1_555
Fe3 O3 1.966820 1_555
Fe3 O2 1.966829 1_555
Fe3 O6 2.010270 1_555
Fe3 O4 2.148313 1_555
Fe3 O5 2.148320 1_555
Fe3 Li0 2.276940 1_556
Fe3 O1 2.326273 1_555
O0 Zn0 2.059516 1_555
O0 Zn1 2.059516 1_555
O1 Zn0 2.059524 1_555
O1 Zn1 2.059524 1_555
O2 Zn0 2.175684 1_555
O3 Zn1 2.175693 1_555
O4 Zn1 2.274461 1_565
O5 Zn0 2.274451 1_655
O6 Zn0 2.200197 1_655
O6 Zn1 2.200197 1_565
O7 Zn0 2.200205 1_655
O7 Zn1 2.200205 1_565
