# generated using pymatgen
data_BaMg6Sb
_symmetry_space_group_name_H-M   'P 1'
_cell_length_a   5.39482000
_cell_length_b   6.68035400
_cell_length_c   12.30726700
_cell_angle_alpha   90.00000000
_cell_angle_beta   90.00000000
_cell_angle_gamma   90.00000000
_symmetry_Int_Tables_number   1
_chemical_formula_structural   BaMg6Sb
_chemical_formula_sum   'Ba2 Mg12 Sb2'
_cell_volume   443.54537825
_cell_formula_units_Z   2
loop_
 _symmetry_equiv_pos_site_id
 _symmetry_equiv_pos_as_xyz
  1  'x, y, z'
loop_
 _atom_site_type_symbol
 _atom_site_label
 _atom_site_symmetry_multiplicity
 _atom_site_fract_x
 _atom_site_fract_y
 _atom_site_fract_z
 _atom_site_occupancy
  Ba  Ba0  1  0.50000000  0.00000000  0.17279300  1
  Ba  Ba1  1  0.50000000  0.50000000  0.67279300  1
  Mg  Mg0  1  0.50000000  0.24768700  0.42120000  1
  Mg  Mg1  1  0.50000000  0.75231300  0.42120000  1
  Mg  Mg2  1  0.00000000  0.73481700  0.07344700  1
  Mg  Mg3  1  0.00000000  0.26518300  0.07344700  1
  Mg  Mg4  1  0.00000000  0.00000000  0.35011000  1
  Mg  Mg5  1  0.00000000  0.50000000  0.33430100  1
  Mg  Mg6  1  0.50000000  0.74768700  0.92120000  1
  Mg  Mg7  1  0.50000000  0.25231300  0.92120000  1
  Mg  Mg8  1  0.00000000  0.23481700  0.57344700  1
  Mg  Mg9  1  0.00000000  0.76518300  0.57344700  1
  Mg  Mg10  1  0.00000000  0.50000000  0.85011000  1
  Mg  Mg11  1  0.00000000  0.00000000  0.83430100  1
  Sb  Sb0  1  0.50000000  0.50000000  0.15350000  1
  Sb  Sb1  1  0.50000000  0.00000000  0.65350000  1
loop_
_geom_bond_atom_site_label_1
_geom_bond_atom_site_label_2
_geom_bond_distance
_geom_bond_site_symmetry_2
Ba0 Sb0 3.348606 1_545
Ba0 Sb0 3.348606 1_555
Ba0 Mg3 3.450975 1_555
Ba0 Mg2 3.450975 1_645
Ba0 Mg2 3.450975 1_545
Ba0 Mg3 3.450975 1_655
Ba0 Mg4 3.469640 1_655
Ba0 Mg4 3.469640 1_555
Ba0 Mg1 3.476257 1_545
Ba0 Mg0 3.476257 1_555
Ba0 Mg6 3.525461 1_544
Ba0 Mg7 3.525461 1_554
Ba1 Sb1 3.348606 1_565
Ba1 Sb1 3.348606 1_555
Ba1 Mg9 3.450975 1_555
Ba1 Mg9 3.450975 1_655
Ba1 Mg8 3.450975 1_555
Ba1 Mg8 3.450975 1_655
Ba1 Mg10 3.469640 1_555
Ba1 Mg10 3.469640 1_655
Ba1 Mg6 3.476257 1_555
Ba1 Mg7 3.476257 1_555
Ba1 Mg1 3.525461 1_555
Ba1 Mg0 3.525461 1_555
Mg0 Mg4 3.283190 1_555
Mg0 Mg4 3.283190 1_655
Mg0 Mg8 3.285473 1_555
Mg0 Mg8 3.285473 1_655
Mg0 Sb1 3.303268 1_555
Mg0 Mg1 3.309274 1_545
Mg0 Mg5 3.355722 1_655
Mg0 Mg5 3.355722 1_555
Mg0 Mg1 3.371080 1_555
Mg1 Mg4 3.283190 1_565
Mg1 Mg4 3.283190 1_665
Mg1 Mg9 3.285473 1_555
Mg1 Mg9 3.285473 1_655
Mg1 Sb1 3.303268 1_565
Mg1 Mg5 3.355722 1_655
Mg1 Mg5 3.355722 1_555
Mg2 Sb0 3.272217 1_455
Mg2 Sb0 3.272217 1_555
Mg2 Mg6 3.285473 1_454
Mg2 Mg6 3.285473 1_554
Mg3 Sb0 3.272217 1_555
Mg3 Sb0 3.272217 1_455
Mg3 Mg7 3.285473 1_554
Mg3 Mg7 3.285473 1_454
Mg4 Mg8 3.164786 1_555
Mg4 Mg9 3.164786 1_545
Mg4 Mg5 3.345839 1_555
Mg4 Mg5 3.345839 1_545
Mg5 Sb0 3.496768 1_455
Mg5 Sb0 3.496768 1_555
Mg6 Sb0 3.303268 1_556
Mg6 Mg7 3.309274 1_555
Mg6 Mg7 3.371080 1_565
Mg7 Sb0 3.303268 1_556
Mg8 Sb1 3.272217 1_555
Mg8 Sb1 3.272217 1_455
Mg9 Sb1 3.272217 1_465
Mg9 Sb1 3.272217 1_565
Mg10 Mg3 3.164786 1_556
Mg10 Mg2 3.164786 1_556
Mg10 Mg7 3.283190 1_455
Mg10 Mg7 3.283190 1_555
Mg10 Mg6 3.283190 1_455
Mg10 Mg6 3.283190 1_555
Mg10 Mg11 3.345839 1_565
Mg10 Mg11 3.345839 1_555
Mg11 Mg7 3.355722 1_455
Mg11 Mg7 3.355722 1_555
Mg11 Mg6 3.355722 1_445
Mg11 Mg6 3.355722 1_545
Mg11 Sb1 3.496768 1_455
Mg11 Sb1 3.496768 1_555
