# generated using pymatgen
data_Rb2LiPu(Cl2O)2
_symmetry_space_group_name_H-M   'P 1'
_cell_length_a   6.00535332
_cell_length_b   7.11092883
_cell_length_c   7.11092883
_cell_angle_alpha   63.70512792
_cell_angle_beta   87.53951037
_cell_angle_gamma   87.53951037
_symmetry_Int_Tables_number   1
_chemical_formula_structural   Rb2LiPu(Cl2O)2
_chemical_formula_sum   'Rb2 Li1 Pu1 Cl4 O2'
_cell_volume   271.89345641
_cell_formula_units_Z   1
loop_
 _symmetry_equiv_pos_site_id
 _symmetry_equiv_pos_as_xyz
  1  'x, y, z'
loop_
 _atom_site_type_symbol
 _atom_site_label
 _atom_site_symmetry_multiplicity
 _atom_site_fract_x
 _atom_site_fract_y
 _atom_site_fract_z
 _atom_site_occupancy
  Rb  Rb0  1  0.77601300  0.84496500  0.84496500  1
  Rb  Rb1  1  0.22398700  0.15503500  0.15503500  1
  Li  Li0  1  0.00000000  0.50000000  0.50000000  1
  Pu  Pu0  1  0.50000000  0.50000000  0.50000000  1
  Cl  Cl0  1  0.73862400  0.86190900  0.35707100  1
  Cl  Cl1  1  0.73862400  0.35707100  0.86190900  1
  Cl  Cl2  1  0.26137600  0.13809100  0.64292900  1
  Cl  Cl3  1  0.26137600  0.64292900  0.13809100  1
  O  O0  1  0.73946500  0.39983200  0.39983200  1
  O  O1  1  0.26053500  0.60016800  0.60016800  1
loop_
_geom_bond_atom_site_label_1
_geom_bond_atom_site_label_2
_geom_bond_distance
_geom_bond_site_symmetry_2
Li0 O1 2.025729 1_555
Li0 O0 2.025729 1_455
Cl0 Pu0 2.753851 1_555
Cl0 Li0 2.755451 1_655
Cl0 Rb0 3.434492 1_555
Cl0 Rb1 3.523294 1_665
Cl0 Rb1 3.624274 1_565
Cl0 Rb0 3.693511 1_554
Cl1 Pu0 2.753851 1_555
Cl1 Li0 2.755451 1_655
Cl1 Rb0 3.434492 1_555
Cl1 Rb1 3.523294 1_656
Cl1 Rb1 3.624274 1_556
Cl1 Rb0 3.693511 1_545
Cl2 Pu0 2.753851 1_555
Cl2 Li0 2.755451 1_555
Cl2 Rb1 3.434492 1_555
Cl2 Rb0 3.523294 1_445
Cl2 Rb0 3.624274 1_545
Cl2 Rb1 3.693511 1_556
Cl3 Pu0 2.753851 1_555
Cl3 Li0 2.755451 1_555
Cl3 Rb1 3.434492 1_555
Cl3 Rb0 3.523294 1_454
Cl3 Rb0 3.624274 1_554
Cl3 Rb1 3.693511 1_565
O0 Pu0 1.832039 1_555
O1 Pu0 1.832039 1_555
