# generated using pymatgen
data_Lu2Ni17
_symmetry_space_group_name_H-M   'P 1'
_cell_length_a   8.21444521
_cell_length_b   8.21444521
_cell_length_c   7.99995300
_cell_angle_alpha   90.00000000
_cell_angle_beta   90.00000000
_cell_angle_gamma   119.99999362
_symmetry_Int_Tables_number   1
_chemical_formula_structural   Lu2Ni17
_chemical_formula_sum   'Lu4 Ni34'
_cell_volume   467.49241554
_cell_formula_units_Z   2
loop_
 _symmetry_equiv_pos_site_id
 _symmetry_equiv_pos_as_xyz
  1  'x, y, z'
loop_
 _atom_site_type_symbol
 _atom_site_label
 _atom_site_symmetry_multiplicity
 _atom_site_fract_x
 _atom_site_fract_y
 _atom_site_fract_z
 _atom_site_occupancy
  Lu  Lu0  1  0.00000000  0.00000000  0.25000000  1
  Lu  Lu1  1  0.00000000  0.00000000  0.75000000  1
  Lu  Lu2  1  0.33333300  0.66666700  0.75000000  1
  Lu  Lu3  1  0.66666700  0.33333300  0.25000000  1
  Ni  Ni0  1  0.33333300  0.66666700  0.39809500  1
  Ni  Ni1  1  0.66666700  0.33333300  0.60190500  1
  Ni  Ni2  1  0.66666700  0.33333300  0.89809500  1
  Ni  Ni3  1  0.33333300  0.66666700  0.10190500  1
  Ni  Ni4  1  0.50000000  0.50000000  0.50000000  1
  Ni  Ni5  1  0.50000000  0.00000000  0.50000000  1
  Ni  Ni6  1  0.00000000  0.50000000  0.50000000  1
  Ni  Ni7  1  0.50000000  0.50000000  0.00000000  1
  Ni  Ni8  1  0.50000000  0.00000000  0.00000000  1
  Ni  Ni9  1  0.00000000  0.50000000  0.00000000  1
  Ni  Ni10  1  0.32793800  0.36580900  0.25000000  1
  Ni  Ni11  1  0.63419100  0.96212800  0.25000000  1
  Ni  Ni12  1  0.03787200  0.67206200  0.25000000  1
  Ni  Ni13  1  0.63419100  0.67206200  0.25000000  1
  Ni  Ni14  1  0.03787200  0.36580900  0.25000000  1
  Ni  Ni15  1  0.32793800  0.96212800  0.25000000  1
  Ni  Ni16  1  0.67206200  0.63419100  0.75000000  1
  Ni  Ni17  1  0.36580900  0.03787200  0.75000000  1
  Ni  Ni18  1  0.96212800  0.32793800  0.75000000  1
  Ni  Ni19  1  0.36580900  0.32793800  0.75000000  1
  Ni  Ni20  1  0.96212800  0.63419100  0.75000000  1
  Ni  Ni21  1  0.67206200  0.03787200  0.75000000  1
  Ni  Ni22  1  0.16535700  0.83464300  0.51930600  1
  Ni  Ni23  1  0.16535700  0.33071400  0.51930600  1
  Ni  Ni24  1  0.66928600  0.83464300  0.51930600  1
  Ni  Ni25  1  0.83464300  0.16535700  0.48069400  1
  Ni  Ni26  1  0.83464300  0.66928600  0.48069400  1
  Ni  Ni27  1  0.33071400  0.16535700  0.48069400  1
  Ni  Ni28  1  0.83464300  0.16535700  0.01930600  1
  Ni  Ni29  1  0.83464300  0.66928600  0.01930600  1
  Ni  Ni30  1  0.33071400  0.16535700  0.01930600  1
  Ni  Ni31  1  0.16535700  0.83464300  0.98069400  1
  Ni  Ni32  1  0.16535700  0.33071400  0.98069400  1
  Ni  Ni33  1  0.66928600  0.83464300  0.98069400  1
loop_
_geom_bond_atom_site_label_1
_geom_bond_atom_site_label_2
_geom_bond_distance
_geom_bond_site_symmetry_2
Lu0 Ni11 2.862078 1_445
Lu0 Ni14 2.862078 1_555
Lu0 Ni10 2.862082 1_555
Lu0 Ni13 2.862082 1_445
Lu0 Ni15 2.862086 1_545
Lu0 Ni12 2.862086 1_545
Lu0 Ni25 2.990165 1_455
Lu0 Ni28 2.990165 1_455
Lu0 Ni27 2.990166 1_555
Lu0 Ni30 2.990166 1_555
Lu0 Ni26 2.990166 1_445
Lu0 Ni29 2.990166 1_445
Lu0 Ni22 3.190088 1_545
Lu0 Ni31 3.190088 1_544
Lu0 Ni23 3.190088 1_555
Lu0 Ni24 3.190088 1_445
Lu0 Ni32 3.190088 1_554
Lu0 Ni33 3.190088 1_444
Lu1 Ni20 2.862078 1_445
Lu1 Ni17 2.862078 1_555
Lu1 Ni19 2.862082 1_555
Lu1 Ni16 2.862082 1_445
Lu1 Ni18 2.862086 1_455
Lu1 Ni21 2.862086 1_455
Lu1 Ni31 2.990165 1_545
Lu1 Ni22 2.990165 1_545
Lu1 Ni32 2.990166 1_555
Lu1 Ni23 2.990166 1_555
Lu1 Ni33 2.990166 1_445
Lu1 Ni24 2.990166 1_445
Lu1 Ni28 3.190088 1_456
Lu1 Ni25 3.190088 1_455
Lu1 Ni30 3.190088 1_556
Lu1 Ni29 3.190088 1_446
Lu1 Ni27 3.190088 1_555
Lu1 Ni26 3.190088 1_445
Lu2 Ni3 2.815223 1_556
Lu2 Ni0 2.815223 1_555
Lu2 Ni16 2.924995 1_555
Lu2 Ni19 2.924995 1_555
Lu2 Ni17 2.924995 1_565
Lu2 Ni20 2.924995 1_455
Lu2 Ni21 2.924996 1_565
Lu2 Ni18 2.924996 1_455
Lu2 Ni31 3.019571 1_555
Lu2 Ni22 3.019571 1_555
Lu2 Ni33 3.019577 1_555
Lu2 Ni24 3.019577 1_555
Lu2 Ni32 3.019577 1_555
Lu2 Ni23 3.019577 1_555
Lu2 Ni5 3.102102 1_565
Lu2 Ni6 3.102102 1_555
Lu2 Ni9 3.102102 1_556
Lu2 Ni8 3.102102 1_566
Lu2 Ni7 3.102107 1_556
Lu2 Ni4 3.102107 1_555
Lu3 Ni2 2.815223 1_554
Lu3 Ni1 2.815223 1_555
Lu3 Ni13 2.924995 1_555
Lu3 Ni10 2.924995 1_555
Lu3 Ni14 2.924995 1_655
Lu3 Ni11 2.924995 1_545
Lu3 Ni12 2.924996 1_655
Lu3 Ni15 2.924996 1_545
Lu3 Ni25 3.019571 1_555
Lu3 Ni28 3.019571 1_555
Lu3 Ni26 3.019577 1_555
Lu3 Ni29 3.019577 1_555
Lu3 Ni27 3.019577 1_555
Lu3 Ni30 3.019577 1_555
Lu3 Ni6 3.102102 1_655
Lu3 Ni8 3.102102 1_555
Lu3 Ni9 3.102102 1_655
Lu3 Ni5 3.102102 1_555
Lu3 Ni7 3.102107 1_555
Lu3 Ni4 3.102107 1_555
Ni0 Ni3 2.369506 1_555
Ni0 Ni5 2.507527 1_565
Ni0 Ni6 2.507527 1_555
Ni0 Ni4 2.507533 1_555
Ni0 Ni22 2.579161 1_555
Ni0 Ni24 2.579168 1_555
Ni0 Ni23 2.579168 1_555
Ni0 Ni15 2.720979 1_555
Ni0 Ni12 2.720979 1_555
Ni0 Ni11 2.720987 1_555
Ni0 Ni14 2.720987 1_555
Ni0 Ni10 2.720994 1_555
Ni0 Ni13 2.720994 1_555
Ni1 Ni2 2.369506 1_555
Ni1 Ni6 2.507527 1_655
Ni1 Ni5 2.507527 1_555
Ni1 Ni4 2.507533 1_555
Ni1 Ni25 2.579161 1_555
Ni1 Ni26 2.579168 1_555
Ni1 Ni27 2.579168 1_555
Ni1 Ni18 2.720979 1_555
Ni1 Ni21 2.720979 1_555
Ni1 Ni20 2.720987 1_555
Ni1 Ni17 2.720987 1_555
Ni1 Ni19 2.720994 1_555
Ni1 Ni16 2.720994 1_555
Ni2 Ni8 2.507527 1_556
Ni2 Ni9 2.507527 1_656
Ni2 Ni7 2.507533 1_556
Ni2 Ni28 2.579161 1_556
Ni2 Ni29 2.579168 1_556
Ni2 Ni30 2.579168 1_556
Ni2 Ni21 2.720979 1_555
Ni2 Ni20 2.720987 1_555
Ni3 Ni8 2.507527 1_565
Ni3 Ni9 2.507527 1_555
Ni3 Ni7 2.507533 1_555
Ni3 Ni31 2.579161 1_554
Ni3 Ni33 2.579168 1_554
Ni3 Ni32 2.579168 1_554
Ni10 Ni7 2.377966 1_555
Ni10 Ni4 2.377966 1_555
Ni10 Ni14 2.382731 1_555
Ni10 Ni23 2.474527 1_555
Ni10 Ni32 2.474527 1_554
Ni10 Ni27 2.481005 1_555
Ni10 Ni30 2.481005 1_555
Ni10 Ni13 2.515699 1_555
Ni10 Ni3 2.720994 1_555
Ni11 Ni5 2.377969 1_565
Ni11 Ni8 2.377969 1_565
Ni11 Ni13 2.382731 1_555
Ni11 Ni24 2.474523 1_555
Ni11 Ni33 2.474523 1_554
Ni11 Ni25 2.481008 1_565
Ni11 Ni28 2.481008 1_565
Ni11 Ni15 2.515698 1_555
Ni11 Ni3 2.720987 1_555
Ni12 Ni6 2.377964 1_555
Ni12 Ni9 2.377964 1_555
Ni12 Ni15 2.382731 1_555
Ni12 Ni22 2.474526 1_555
Ni12 Ni31 2.474526 1_554
Ni12 Ni26 2.481011 1_455
Ni12 Ni29 2.481011 1_455
Ni12 Ni14 2.515698 1_555
Ni12 Ni3 2.720979 1_555
Ni13 Ni7 2.377966 1_555
Ni13 Ni4 2.377966 1_555
Ni13 Ni24 2.474527 1_555
Ni13 Ni33 2.474527 1_554
Ni13 Ni26 2.481005 1_555
Ni13 Ni29 2.481005 1_555
Ni13 Ni3 2.720994 1_555
Ni14 Ni9 2.377969 1_555
Ni14 Ni6 2.377969 1_555
Ni14 Ni23 2.474523 1_555
Ni14 Ni32 2.474523 1_554
Ni14 Ni25 2.481008 1_455
Ni14 Ni28 2.481008 1_455
Ni14 Ni3 2.720987 1_555
Ni15 Ni8 2.377964 1_565
Ni15 Ni5 2.377964 1_565
Ni15 Ni22 2.474526 1_555
Ni15 Ni31 2.474526 1_554
Ni15 Ni27 2.481011 1_565
Ni15 Ni30 2.481011 1_565
Ni15 Ni3 2.720979 1_555
Ni16 Ni4 2.377966 1_555
Ni16 Ni7 2.377966 1_556
Ni16 Ni20 2.382731 1_555
Ni16 Ni29 2.474527 1_556
Ni16 Ni26 2.474527 1_555
Ni16 Ni33 2.481005 1_555
Ni16 Ni24 2.481005 1_555
Ni16 Ni19 2.515699 1_555
Ni16 Ni2 2.720994 1_555
Ni17 Ni5 2.377969 1_555
Ni17 Ni8 2.377969 1_556
Ni17 Ni19 2.382731 1_555
Ni17 Ni30 2.474523 1_556
Ni17 Ni27 2.474523 1_555
Ni17 Ni31 2.481008 1_545
Ni17 Ni22 2.481008 1_545
Ni17 Ni21 2.515698 1_555
Ni17 Ni2 2.720987 1_555
Ni18 Ni6 2.377964 1_655
Ni18 Ni9 2.377964 1_656
Ni18 Ni21 2.382731 1_555
Ni18 Ni28 2.474526 1_556
Ni18 Ni25 2.474526 1_555
Ni18 Ni32 2.481011 1_655
Ni18 Ni23 2.481011 1_655
Ni18 Ni20 2.515698 1_555
Ni18 Ni2 2.720979 1_555
Ni19 Ni4 2.377966 1_555
Ni19 Ni7 2.377966 1_556
Ni19 Ni30 2.474527 1_556
Ni19 Ni27 2.474527 1_555
Ni19 Ni32 2.481005 1_555
Ni19 Ni23 2.481005 1_555
Ni19 Ni2 2.720994 1_555
Ni20 Ni6 2.377969 1_655
Ni20 Ni9 2.377969 1_656
Ni20 Ni29 2.474523 1_556
Ni20 Ni26 2.474523 1_555
Ni20 Ni31 2.481008 1_655
Ni20 Ni22 2.481008 1_655
Ni21 Ni8 2.377964 1_556
Ni21 Ni5 2.377964 1_555
Ni21 Ni28 2.474526 1_556
Ni21 Ni25 2.474526 1_555
Ni21 Ni33 2.481011 1_545
Ni21 Ni24 2.481011 1_545
Ni22 Ni26 2.372864 1_455
Ni22 Ni27 2.372864 1_565
Ni22 Ni6 2.385682 1_555
Ni22 Ni5 2.385682 1_565
Ni23 Ni27 2.372864 1_555
Ni23 Ni25 2.372864 1_455
Ni23 Ni6 2.385682 1_555
Ni23 Ni4 2.385682 1_555
Ni24 Ni26 2.372864 1_555
Ni24 Ni25 2.372864 1_565
Ni24 Ni5 2.385682 1_565
Ni24 Ni4 2.385682 1_555
Ni25 Ni5 2.385682 1_555
Ni25 Ni6 2.385682 1_655
Ni26 Ni6 2.385682 1_655
Ni26 Ni4 2.385682 1_555
Ni27 Ni5 2.385682 1_555
Ni27 Ni4 2.385682 1_555
Ni28 Ni33 2.372864 1_544
Ni28 Ni32 2.372864 1_654
Ni28 Ni8 2.385682 1_555
Ni28 Ni9 2.385682 1_655
Ni29 Ni33 2.372864 1_554
Ni29 Ni31 2.372864 1_654
Ni29 Ni9 2.385682 1_655
Ni29 Ni7 2.385682 1_555
Ni30 Ni32 2.372864 1_554
Ni30 Ni31 2.372864 1_544
Ni30 Ni8 2.385682 1_555
Ni30 Ni7 2.385682 1_555
Ni31 Ni9 2.385682 1_556
Ni31 Ni8 2.385682 1_566
Ni32 Ni9 2.385682 1_556
Ni32 Ni7 2.385682 1_556
Ni33 Ni8 2.385682 1_566
Ni33 Ni7 2.385682 1_556
