# generated using pymatgen
data_Tm4CoSn8
_symmetry_space_group_name_H-M   'P 1'
_cell_length_a   4.41091600
_cell_length_b   4.40366800
_cell_length_c   16.60510200
_cell_angle_alpha   90.00000000
_cell_angle_beta   90.00000000
_cell_angle_gamma   90.00000000
_symmetry_Int_Tables_number   1
_chemical_formula_structural   Tm4CoSn8
_chemical_formula_sum   'Tm4 Co1 Sn8'
_cell_volume   322.54098234
_cell_formula_units_Z   1
loop_
 _symmetry_equiv_pos_site_id
 _symmetry_equiv_pos_as_xyz
  1  'x, y, z'
loop_
 _atom_site_type_symbol
 _atom_site_label
 _atom_site_symmetry_multiplicity
 _atom_site_fract_x
 _atom_site_fract_y
 _atom_site_fract_z
 _atom_site_occupancy
  Tm  Tm0  1  0.25000000  0.00000000  0.09849100  1
  Tm  Tm1  1  0.25000000  0.50000000  0.60332300  1
  Tm  Tm2  1  0.75000000  0.50000000  0.39673000  1
  Tm  Tm3  1  0.75000000  0.00000000  0.89930600  1
  Co  Co0  1  0.25000000  0.00000000  0.30838300  1
  Sn  Sn0  1  0.25000000  0.00000000  0.45533600  1
  Sn  Sn1  1  0.25000000  0.50000000  0.93607100  1
  Sn  Sn2  1  0.75000000  0.50000000  0.06238300  1
  Sn  Sn3  1  0.75000000  0.00000000  0.57412700  1
  Sn  Sn4  1  0.25000000  0.50000000  0.23672700  1
  Sn  Sn5  1  0.25000000  0.00000000  0.74837800  1
  Sn  Sn6  1  0.75000000  0.00000000  0.23890100  1
  Sn  Sn7  1  0.75000000  0.50000000  0.75284400  1
loop_
_geom_bond_atom_site_label_1
_geom_bond_atom_site_label_2
_geom_bond_distance
_geom_bond_site_symmetry_2
Co0 Sn0 2.440170 1_555
Co0 Sn6 2.489015 1_555
Co0 Sn6 2.489015 1_455
Co0 Sn4 2.502764 1_545
Co0 Sn4 2.502764 1_555
Co0 Tm2 3.444450 1_445
Co0 Tm2 3.444450 1_545
Co0 Tm2 3.444450 1_555
Co0 Tm2 3.444450 1_455
Sn0 Sn3 2.958876 1_455
Sn0 Sn3 2.958876 1_555
Sn0 Tm2 3.264836 1_455
Sn0 Tm2 3.264836 1_445
Sn0 Tm2 3.264836 1_545
Sn0 Tm2 3.264836 1_555
Sn0 Tm1 3.299483 1_555
Sn0 Tm1 3.299483 1_545
Sn1 Sn2 3.043556 1_456
Sn1 Sn2 3.043556 1_556
Sn1 Tm3 3.175659 1_555
Sn1 Tm3 3.175659 1_465
Sn1 Tm3 3.175659 1_455
Sn1 Tm3 3.175659 1_565
Sn1 Tm0 3.481650 1_556
Sn1 Tm0 3.481650 1_566
Sn2 Tm0 3.173580 1_665
Sn2 Tm0 3.173580 1_555
Sn2 Tm0 3.173580 1_565
Sn2 Tm0 3.173580 1_655
Sn2 Tm3 3.490108 1_554
Sn2 Tm3 3.490108 1_564
Sn3 Tm1 3.153911 1_655
Sn3 Tm1 3.153911 1_645
Sn3 Tm1 3.153911 1_555
Sn3 Tm1 3.153911 1_545
Sn3 Tm2 3.677661 1_545
Sn3 Tm2 3.677661 1_555
Sn4 Sn6 3.116636 1_455
Sn4 Sn6 3.116636 1_465
Sn4 Sn6 3.116636 1_555
Sn4 Sn6 3.116636 1_565
Sn4 Tm0 3.180729 1_565
Sn4 Tm0 3.180729 1_555
Sn4 Tm2 3.452967 1_555
Sn4 Tm2 3.452967 1_455
Sn5 Sn7 3.117309 1_545
Sn5 Sn7 3.117309 1_555
Sn5 Sn7 3.117309 1_455
Sn5 Sn7 3.117309 1_445
Sn5 Tm1 3.263385 1_555
Sn5 Tm1 3.263385 1_545
Sn5 Tm3 3.338406 1_455
Sn5 Tm3 3.338406 1_555
Sn6 Tm0 3.209368 1_555
Sn6 Tm0 3.209368 1_655
Sn6 Tm2 3.422936 1_555
Sn6 Tm2 3.422936 1_545
Sn7 Tm3 3.280667 1_565
Sn7 Tm3 3.280667 1_555
Sn7 Tm1 3.320903 1_655
Sn7 Tm1 3.320903 1_555
