# generated using pymatgen
data_Er5(MoO6)2
_symmetry_space_group_name_H-M   'P 1'
_cell_length_a   6.81876121
_cell_length_b   6.81876121
_cell_length_c   7.29364487
_cell_angle_alpha   74.42662886
_cell_angle_beta   74.42662886
_cell_angle_gamma   51.77405075
_symmetry_Int_Tables_number   1
_chemical_formula_structural   Er5(MoO6)2
_chemical_formula_sum   'Er5 Mo2 O12'
_cell_volume   254.26754255
_cell_formula_units_Z   1
loop_
 _symmetry_equiv_pos_site_id
 _symmetry_equiv_pos_as_xyz
  1  'x, y, z'
loop_
 _atom_site_type_symbol
 _atom_site_label
 _atom_site_symmetry_multiplicity
 _atom_site_fract_x
 _atom_site_fract_y
 _atom_site_fract_z
 _atom_site_occupancy
  Er  Er0  1  0.30031900  0.30031900  0.36375000  1
  Er  Er1  1  0.69968100  0.69968100  0.63625000  1
  Er  Er2  1  0.30935700  0.30935700  0.82297200  1
  Er  Er3  1  0.69064300  0.69064300  0.17702800  1
  Er  Er4  1  0.00000000  0.00000000  0.50000000  1
  Mo  Mo0  1  0.75302100  0.24697900  0.00000000  1
  Mo  Mo1  1  0.24697900  0.75302100  0.00000000  1
  O  O0  1  0.90003000  0.43463800  0.91366400  1
  O  O1  1  0.43463800  0.90003000  0.91366400  1
  O  O2  1  0.09997000  0.56536200  0.08633600  1
  O  O3  1  0.56536200  0.09997000  0.08633600  1
  O  O4  1  0.09657200  0.59620600  0.57345900  1
  O  O5  1  0.59620600  0.09657200  0.57345900  1
  O  O6  1  0.90342800  0.40379400  0.42654100  1
  O  O7  1  0.40379400  0.90342800  0.42654100  1
  O  O8  1  0.00173600  0.00173600  0.80852700  1
  O  O9  1  0.99826400  0.99826400  0.19147300  1
  O  O10  1  0.49958700  0.49958700  0.80089300  1
  O  O11  1  0.50041300  0.50041300  0.19910700  1
loop_
_geom_bond_atom_site_label_1
_geom_bond_atom_site_label_2
_geom_bond_distance
_geom_bond_site_symmetry_2
Er0 O6 2.275217 1_455
Er0 O7 2.275217 1_545
Er0 O5 2.321091 1_555
Er0 O4 2.321091 1_555
Er0 O3 2.385756 1_555
Er0 O2 2.385756 1_555
Er0 O11 2.389441 1_555
Er1 O4 2.275217 1_655
Er1 O5 2.275217 1_565
Er1 O6 2.321091 1_555
Er1 O7 2.321091 1_555
Er1 O0 2.385756 1_555
Er1 O1 2.385756 1_555
Er1 O10 2.389441 1_555
Er2 O4 2.288516 1_555
Er2 O5 2.288516 1_555
Er2 O10 2.291054 1_555
Er2 O1 2.306290 1_545
Er2 O0 2.306290 1_455
Er2 O3 2.453374 1_556
Er2 O2 2.453374 1_556
Er3 O6 2.288516 1_555
Er3 O7 2.288516 1_555
Er3 O11 2.291054 1_555
Er3 O3 2.306290 1_565
Er3 O2 2.306290 1_655
Er3 O1 2.453374 1_554
Er3 O0 2.453374 1_554
Er4 O9 2.256734 1_445
Er4 O8 2.256734 1_555
Er4 O6 2.335665 1_455
Er4 O5 2.335665 1_455
Er4 O7 2.335665 1_545
Er4 O4 2.335665 1_545
Mo0 O0 1.963298 1_554
Mo0 O3 1.963298 1_555
Mo0 O8 2.023736 1_654
Mo0 O9 2.023736 1_545
Mo0 O10 2.093547 1_554
Mo0 O11 2.093547 1_555
Mo1 O1 1.963298 1_554
Mo1 O2 1.963298 1_555
Mo1 O8 2.023736 1_564
Mo1 O9 2.023736 1_455
Mo1 O10 2.093547 1_554
Mo1 O11 2.093547 1_555
