# generated using pymatgen
data_Na2CoH4(CO2)4
_symmetry_space_group_name_H-M   'P 1'
_cell_length_a   9.23774087
_cell_length_b   9.23774087
_cell_length_c   6.88911344
_cell_angle_alpha   74.36323531
_cell_angle_beta   74.36323531
_cell_angle_gamma   58.10004770
_symmetry_Int_Tables_number   1
_chemical_formula_structural   Na2CoH4(CO2)4
_chemical_formula_sum   'Na4 Co2 H8 C8 O16'
_cell_volume   474.78496917
_cell_formula_units_Z   2
loop_
 _symmetry_equiv_pos_site_id
 _symmetry_equiv_pos_as_xyz
  1  'x, y, z'
loop_
 _atom_site_type_symbol
 _atom_site_label
 _atom_site_symmetry_multiplicity
 _atom_site_fract_x
 _atom_site_fract_y
 _atom_site_fract_z
 _atom_site_occupancy
  Na  Na0  1  0.70164000  0.50675200  0.81621600  1
  Na  Na1  1  0.49324800  0.29836000  0.68378400  1
  Na  Na2  1  0.29836000  0.49324800  0.18378400  1
  Na  Na3  1  0.50675200  0.70164000  0.31621600  1
  Co  Co0  1  0.00000000  0.50000000  0.00000000  1
  Co  Co1  1  0.50000000  0.00000000  0.50000000  1
  H  H0  1  0.08579800  0.77044400  0.62605800  1
  H  H1  1  0.22955600  0.91420200  0.87394200  1
  H  H2  1  0.91420200  0.22955600  0.37394200  1
  H  H3  1  0.77044400  0.08579800  0.12605800  1
  H  H4  1  0.79997500  0.90154400  0.90762800  1
  H  H5  1  0.09845600  0.20002500  0.59237200  1
  H  H6  1  0.20002500  0.09845600  0.09237200  1
  H  H7  1  0.90154400  0.79997500  0.40762800  1
  C  C0  1  0.74694200  0.86345200  0.81612700  1
  C  C1  1  0.13654800  0.25305800  0.68387300  1
  C  C2  1  0.25305800  0.13654800  0.18387300  1
  C  C3  1  0.86345200  0.74694200  0.31612700  1
  C  C4  1  0.19615000  0.63621300  0.64170700  1
  C  C5  1  0.36378700  0.80385000  0.85829300  1
  C  C6  1  0.80385000  0.36378700  0.35829300  1
  C  C7  1  0.63621300  0.19615000  0.14170700  1
  O  O0  1  0.20053300  0.54411500  0.81812900  1
  O  O1  1  0.45588500  0.79946700  0.68187100  1
  O  O2  1  0.79946700  0.45588500  0.18187100  1
  O  O3  1  0.54411500  0.20053300  0.31812900  1
  O  O4  1  0.80040000  0.70417100  0.82896700  1
  O  O5  1  0.29582900  0.19960000  0.67103300  1
  O  O6  1  0.19960000  0.29582900  0.17103300  1
  O  O7  1  0.70417100  0.80040000  0.32896700  1
  O  O8  1  0.63825400  0.98716000  0.70682400  1
  O  O9  1  0.01284000  0.36174600  0.79317600  1
  O  O10  1  0.36174600  0.01284000  0.29317600  1
  O  O11  1  0.98716000  0.63825400  0.20682400  1
  O  O12  1  0.30808300  0.58673700  0.48666400  1
  O  O13  1  0.41326300  0.69191700  0.01333600  1
  O  O14  1  0.69191700  0.41326300  0.51333600  1
  O  O15  1  0.58673700  0.30808300  0.98666400  1
loop_
_geom_bond_atom_site_label_1
_geom_bond_atom_site_label_2
_geom_bond_distance
_geom_bond_site_symmetry_2
Na0 O9 2.425424 1_655
Na0 O4 2.460475 1_555
Na0 O15 2.469584 1_555
Na0 O14 2.502429 1_555
Na0 O13 2.520465 1_556
Na0 O1 2.572533 1_555
Na0 O2 2.742867 1_556
Na1 O8 2.425424 1_545
Na1 O5 2.460475 1_555
Na1 O14 2.469584 1_555
Na1 O15 2.502429 1_555
Na1 O12 2.520465 1_555
Na1 O0 2.572533 1_555
Na1 O3 2.742867 1_555
Na2 O11 2.425424 1_455
Na2 O6 2.460475 1_555
Na2 O13 2.469584 1_555
Na2 O12 2.502429 1_555
Na2 O15 2.520465 1_554
Na2 O3 2.572533 1_555
Na2 O0 2.742867 1_554
Na3 O10 2.425424 1_565
Na3 O7 2.460475 1_555
Na3 O12 2.469584 1_555
Na3 O13 2.502429 1_555
Na3 O14 2.520465 1_555
Na3 O2 2.572533 1_555
Na3 O1 2.742867 1_555
Co0 O11 2.098836 1_455
Co0 O9 2.098836 1_554
Co0 O0 2.106886 1_554
Co0 O2 2.106886 1_455
Co0 O4 2.154793 1_454
Co0 O6 2.154793 1_555
Co1 O8 2.098836 1_545
Co1 O10 2.098836 1_555
Co1 O3 2.106886 1_555
Co1 O1 2.106886 1_545
Co1 O5 2.154793 1_555
Co1 O7 2.154793 1_545
C0 H4 1.108796 1_555
C0 O4 1.265756 1_555
C0 O8 1.269674 1_555
C1 H5 1.108796 1_555
C1 O5 1.265756 1_555
C1 O9 1.269674 1_555
C2 H6 1.108796 1_555
C2 O6 1.265756 1_555
C2 O10 1.269674 1_555
C3 H7 1.108796 1_555
C3 O7 1.265756 1_555
C3 O11 1.269674 1_555
C4 H0 1.113382 1_555
C4 O12 1.259858 1_555
C4 O0 1.278804 1_555
C5 H1 1.113382 1_555
C5 O13 1.259858 1_556
C5 O1 1.278804 1_555
C6 H2 1.113382 1_555
C6 O14 1.259858 1_555
C6 O2 1.278804 1_555
C7 H3 1.113382 1_555
C7 O15 1.259858 1_554
C7 O3 1.278804 1_555
