# generated using pymatgen
data_Tm2Be2SiO7
_symmetry_space_group_name_H-M   'P 1'
_cell_length_a   7.26224800
_cell_length_b   7.26224800
_cell_length_c   4.74145900
_cell_angle_alpha   90.00000000
_cell_angle_beta   90.00000000
_cell_angle_gamma   90.00000000
_symmetry_Int_Tables_number   1
_chemical_formula_structural   Tm2Be2SiO7
_chemical_formula_sum   'Tm4 Be4 Si2 O14'
_cell_volume   250.06571412
_cell_formula_units_Z   2
loop_
 _symmetry_equiv_pos_site_id
 _symmetry_equiv_pos_as_xyz
  1  'x, y, z'
loop_
 _atom_site_type_symbol
 _atom_site_label
 _atom_site_symmetry_multiplicity
 _atom_site_fract_x
 _atom_site_fract_y
 _atom_site_fract_z
 _atom_site_occupancy
  Tm  Tm0  1  0.15784500  0.34215500  0.51077100  1
  Tm  Tm1  1  0.84215500  0.65784500  0.51077100  1
  Tm  Tm2  1  0.65784500  0.15784500  0.48922900  1
  Tm  Tm3  1  0.34215500  0.84215500  0.48922900  1
  Be  Be0  1  0.63709300  0.86290700  0.95786900  1
  Be  Be1  1  0.36290700  0.13709300  0.95786900  1
  Be  Be2  1  0.13709300  0.63709300  0.04213100  1
  Be  Be3  1  0.86290700  0.36290700  0.04213100  1
  Si  Si0  1  0.00000000  0.00000000  0.00000000  1
  Si  Si1  1  0.50000000  0.50000000  0.00000000  1
  O  O0  1  0.00000000  0.50000000  0.18748100  1
  O  O1  1  0.50000000  0.00000000  0.81251900  1
  O  O2  1  0.64094700  0.85905300  0.29322000  1
  O  O3  1  0.35905300  0.14094700  0.29322000  1
  O  O4  1  0.14094700  0.64094700  0.70678000  1
  O  O5  1  0.85905300  0.35905300  0.70678000  1
  O  O6  1  0.08356600  0.83757900  0.20376900  1
  O  O7  1  0.91643400  0.16242100  0.20376900  1
  O  O8  1  0.16242100  0.08356600  0.79623100  1
  O  O9  1  0.41643400  0.33757900  0.79623100  1
  O  O10  1  0.83757900  0.91643400  0.79623100  1
  O  O11  1  0.58356600  0.66242100  0.79623100  1
  O  O12  1  0.33757900  0.58356600  0.20376900  1
  O  O13  1  0.66242100  0.41643400  0.20376900  1
loop_
_geom_bond_atom_site_label_1
_geom_bond_atom_site_label_2
_geom_bond_distance
_geom_bond_site_symmetry_2
Be0 O1 1.567612 1_565
Be0 O2 1.590546 1_556
Be0 O11 1.690666 1_555
Be0 O10 1.690666 1_555
Be1 O1 1.567612 1_555
Be1 O3 1.590546 1_556
Be1 O8 1.690666 1_555
Be1 O9 1.690666 1_555
Be2 O0 1.567612 1_555
Be2 O4 1.590546 1_554
Be2 O6 1.690666 1_555
Be2 O12 1.690666 1_555
Be3 O0 1.567612 1_655
Be3 O5 1.590546 1_554
Be3 O13 1.690666 1_555
Be3 O7 1.690666 1_555
O0 Tm0 2.231083 1_555
O0 Tm1 2.231083 1_455
O1 Tm2 2.231083 1_555
O1 Tm3 2.231083 1_545
O2 Tm1 2.309622 1_555
O2 Tm3 2.363738 1_555
O2 Tm2 2.363738 1_565
O3 Tm0 2.309622 1_555
O3 Tm3 2.363738 1_545
O3 Tm2 2.363738 1_555
O4 Tm3 2.309622 1_555
O4 Tm1 2.363738 1_455
O4 Tm0 2.363738 1_555
O5 Tm2 2.309622 1_555
O5 Tm1 2.363738 1_555
O5 Tm0 2.363738 1_655
O6 Si0 1.641063 1_565
O6 Tm3 2.315104 1_555
O6 Tm1 2.626077 1_455
O7 Si0 1.641063 1_655
O7 Tm2 2.315104 1_555
O7 Tm0 2.626077 1_655
O8 Si0 1.641063 1_556
O8 Tm0 2.315104 1_555
O8 Tm3 2.626077 1_545
O9 Si1 1.641063 1_556
O9 Tm0 2.315104 1_555
O9 Tm2 2.626077 1_555
O10 Si0 1.641063 1_666
O10 Tm1 2.315104 1_555
O10 Tm2 2.626077 1_565
O11 Si1 1.641063 1_556
O11 Tm1 2.315104 1_555
O11 Tm3 2.626077 1_555
O12 Si1 1.641063 1_555
O12 Tm3 2.315104 1_555
O12 Tm0 2.626077 1_555
O13 Si1 1.641063 1_555
O13 Tm2 2.315104 1_555
O13 Tm1 2.626077 1_555
