# generated using pymatgen
data_CeMg6Mn
_symmetry_space_group_name_H-M   'P 1'
_cell_length_a   6.65449151
_cell_length_b   5.67549641
_cell_length_c   5.08152013
_cell_angle_alpha   90.00000000
_cell_angle_beta   90.00000000
_cell_angle_gamma   115.24191543
_symmetry_Int_Tables_number   1
_chemical_formula_structural   CeMg6Mn
_chemical_formula_sum   'Ce1 Mg6 Mn1'
_cell_volume   173.59144130
_cell_formula_units_Z   1
loop_
 _symmetry_equiv_pos_site_id
 _symmetry_equiv_pos_as_xyz
  1  'x, y, z'
loop_
 _atom_site_type_symbol
 _atom_site_label
 _atom_site_symmetry_multiplicity
 _atom_site_fract_x
 _atom_site_fract_y
 _atom_site_fract_z
 _atom_site_occupancy
  Ce  Ce0  1  0.13589047  0.81794474  0.25000000  1
  Mg  Mg0  1  0.63973034  0.32026076  0.25000000  1
  Mg  Mg1  1  0.63973034  0.81946859  0.25000000  1
  Mg  Mg2  1  0.34348385  0.17902413  0.75000000  1
  Mg  Mg3  1  0.34348385  0.66446072  0.75000000  1
  Mg  Mg4  1  0.90636514  0.20318307  0.75000000  1
  Mg  Mg5  1  0.81846273  0.65923186  0.75000000  1
  Mn  Mn0  1  0.17285328  0.33642614  0.25000000  1
loop_
_geom_bond_atom_site_label_1
_geom_bond_atom_site_label_2
_geom_bond_distance
_geom_bond_site_symmetry_2
Ce0 Mn0 2.846456 1_565
Ce0 Mn0 2.846456 1_555
Ce0 Mg5 3.178986 1_454
Ce0 Mg5 3.178986 1_455
Ce0 Mg3 3.185740 1_554
Ce0 Mg3 3.185740 1_555
Ce0 Mg2 3.185745 1_565
Ce0 Mg2 3.185745 1_564
Ce0 Mg0 3.305391 1_455
Ce0 Mg1 3.305391 1_455
Ce0 Mg0 3.349119 1_565
Ce0 Mg1 3.349119 1_555
Mg0 Mg1 2.833252 1_555
Mg0 Mg1 2.842244 1_545
Mg0 Mg5 3.101559 1_555
Mg0 Mg5 3.101559 1_554
Mg0 Mg2 3.104280 1_555
Mg0 Mg2 3.104280 1_554
Mg0 Mn0 3.147048 1_555
Mg0 Mg4 3.324264 1_555
Mg0 Mg4 3.324264 1_554
Mg0 Mn0 3.509519 1_655
Mg1 Mg5 3.101554 1_555
Mg1 Mg5 3.101554 1_554
Mg1 Mg3 3.104280 1_554
Mg1 Mg3 3.104280 1_555
Mg1 Mn0 3.147048 1_555
Mg1 Mg4 3.324269 1_565
Mg1 Mg4 3.324269 1_564
Mg1 Mn0 3.509519 1_665
Mg2 Mg3 2.755094 1_555
Mg2 Mg3 2.920403 1_545
Mg2 Mg4 2.969864 1_455
Mg2 Mn0 3.067229 1_555
Mg2 Mn0 3.067229 1_556
Mg2 Mg5 3.173511 1_555
Mg3 Mg4 2.969864 1_455
Mg3 Mn0 3.067234 1_556
Mg3 Mn0 3.067234 1_555
Mg3 Mg5 3.173512 1_555
Mg4 Mg5 2.886651 1_545
Mg4 Mg5 2.886651 1_555
Mg4 Mn0 3.004718 1_655
Mg4 Mn0 3.004718 1_656
