# generated using pymatgen
data_Li10Cr3Fe3(NiO8)2
_symmetry_space_group_name_H-M   'P 1'
_cell_length_a   5.97827300
_cell_length_b   5.97919802
_cell_length_c   9.86172562
_cell_angle_alpha   90.00563223
_cell_angle_beta   90.22411220
_cell_angle_gamma   119.73624043
_symmetry_Int_Tables_number   1
_chemical_formula_structural   Li10Cr3Fe3(NiO8)2
_chemical_formula_sum   'Li10 Cr3 Fe3 Ni2 O16'
_cell_volume   306.08768559
_cell_formula_units_Z   1
loop_
 _symmetry_equiv_pos_site_id
 _symmetry_equiv_pos_as_xyz
  1  'x, y, z'
loop_
 _atom_site_type_symbol
 _atom_site_label
 _atom_site_symmetry_multiplicity
 _atom_site_fract_x
 _atom_site_fract_y
 _atom_site_fract_z
 _atom_site_occupancy
  Li  Li0  1  0.79211900  0.18442600  0.94043000  1
  Li  Li1  1  0.98730300  0.98320900  0.01544300  1
  Li  Li2  1  0.98253700  0.98757800  0.51478200  1
  Li  Li3  1  0.78666100  0.59141500  0.94242200  1
  Li  Li4  1  0.64912100  0.32416700  0.71546100  1
  Li  Li5  1  0.38121500  0.18949500  0.94084300  1
  Li  Li6  1  0.19019300  0.38096200  0.44033800  1
  Li  Li7  1  0.32396500  0.64882700  0.21573200  1
  Li  Li8  1  0.59200200  0.78366200  0.44169600  1
  Li  Li9  1  0.18607100  0.79145900  0.43950600  1
  Cr  Cr0  1  0.82084200  0.15144800  0.21470600  1
  Cr  Cr1  1  0.82059100  0.64704400  0.21483100  1
  Cr  Cr2  1  0.64691500  0.82098800  0.71490600  1
  Fe  Fe0  1  0.32664600  0.15178800  0.21486900  1
  Fe  Fe1  1  0.15204800  0.32668400  0.71479600  1
  Fe  Fe2  1  0.15188900  0.82052800  0.71516200  1
  Ni  Ni0  1  0.65553800  0.31877700  0.46992600  1
  Ni  Ni1  1  0.31936500  0.65511700  0.97074000  1
  O  O0  1  0.82013700  0.14881000  0.59839000  1
  O  O1  1  0.97098500  0.47431700  0.33303000  1
  O  O2  1  0.65706100  0.31837100  0.09853400  1
  O  O3  1  0.49926100  0.00081400  0.33301100  1
  O  O4  1  0.98705200  0.98192200  0.32550700  1
  O  O5  1  0.98090800  0.98862200  0.82665000  1
  O  O6  1  0.81985100  0.66553800  0.59761100  1
  O  O7  1  0.49822500  0.47654000  0.33247900  1
  O  O8  1  0.66571300  0.82217300  0.09834500  1
  O  O9  1  0.30645400  0.15030700  0.59591900  1
  O  O10  1  0.47702200  0.49859900  0.83321700  1
  O  O11  1  0.47568900  0.97188400  0.83385900  1
  O  O12  1  0.31927900  0.65615600  0.59690400  1
  O  O13  1  0.14890400  0.30634700  0.09710800  1
  O  O14  1  0.00063800  0.49766400  0.83377600  1
  O  O15  1  0.14822600  0.81987100  0.09804300  1
loop_
_geom_bond_atom_site_label_1
_geom_bond_atom_site_label_2
_geom_bond_distance
_geom_bond_site_symmetry_2
Li0 O14 1.965345 1_655
Li0 O11 1.974195 1_545
Li0 O2 2.091758 1_556
Li0 O5 2.285596 1_545
Li0 O13 2.428955 1_656
Li0 O8 2.464529 1_546
Li1 O13 1.859271 1_665
Li1 O8 1.862200 1_555
Li1 O15 1.862512 1_655
Li1 O5 1.862682 1_554
Li2 O9 1.858885 1_665
Li2 O6 1.862680 1_555
Li2 O0 1.867186 1_565
Li2 O4 1.867424 1_555
Li3 O14 1.954619 1_655
Li3 O10 1.964584 1_555
Li3 O2 2.095426 1_556
Li3 O5 2.359558 1_555
Li3 O8 2.406014 1_556
Li3 O15 2.436803 1_656
Li4 O6 2.121731 1_555
Li4 O9 2.129630 1_555
Li4 O0 2.133054 1_555
Li4 O10 2.137400 1_555
Li4 O14 2.161407 1_655
Li4 O11 2.172225 1_545
Li5 O10 1.955868 1_555
Li5 O11 1.964300 1_545
Li5 O2 2.109673 1_556
Li5 O5 2.359061 1_445
Li5 O13 2.402272 1_556
Li5 O15 2.488287 1_546
Li6 O7 1.954631 1_555
Li6 O1 1.965641 1_455
Li6 O12 2.101783 1_555
Li6 O4 2.358863 1_445
Li6 O9 2.383721 1_555
Li6 O0 2.496304 1_455
Li7 O8 2.122869 1_555
Li7 O13 2.126282 1_555
Li7 O7 2.127788 1_555
Li7 O15 2.133855 1_555
Li7 O3 2.160402 1_565
Li7 O1 2.171379 1_455
Li8 O7 1.954518 1_555
Li8 O3 1.962593 1_565
Li8 O12 2.090202 1_555
Li8 O4 2.353721 1_555
Li8 O6 2.378376 1_555
Li8 O0 2.458386 1_565
Li9 O3 1.966256 1_565
Li9 O1 1.980399 1_455
Li9 O12 2.080319 1_555
Li9 O4 2.304411 1_455
Li9 O9 2.441266 1_565
Li9 O6 2.486555 1_455
Cr0 O1 2.041200 1_555
Cr0 O3 2.041671 1_555
Cr0 O4 2.049299 1_545
Cr0 O2 2.056267 1_555
Cr0 O8 2.057423 1_545
Cr0 O13 2.065255 1_655
Cr1 O1 2.036394 1_555
Cr1 O7 2.041612 1_555
Cr1 O4 2.050660 1_555
Cr1 O2 2.053781 1_555
Cr1 O8 2.055998 1_555
Cr1 O15 2.059320 1_655
Cr2 O11 2.040431 1_555
Cr2 O10 2.043563 1_555
Cr2 O5 2.050135 1_555
Cr2 O12 2.056446 1_555
Cr2 O0 2.056911 1_565
Cr2 O6 2.057476 1_555
Fe0 O3 2.037668 1_555
Fe0 O7 2.045043 1_555
Fe0 O2 2.067930 1_555
Fe0 O15 2.072121 1_545
Fe0 O13 2.072802 1_555
Fe0 O4 2.077428 1_445
Fe1 O14 2.041393 1_555
Fe1 O10 2.048365 1_555
Fe1 O0 2.067525 1_455
Fe1 O12 2.070695 1_555
Fe1 O5 2.075347 1_445
Fe1 O9 2.076664 1_555
Fe2 O11 2.044652 1_555
Fe2 O14 2.046875 1_555
Fe2 O5 2.071603 1_455
Fe2 O6 2.073617 1_455
Fe2 O12 2.076529 1_555
Fe2 O9 2.079954 1_565
Ni0 O7 2.117046 1_555
Ni0 O1 2.127011 1_555
Ni0 O3 2.130254 1_555
Ni0 O0 2.142103 1_555
Ni0 O6 2.195152 1_555
Ni0 O9 2.202016 1_555
Ni1 O10 2.118546 1_555
Ni1 O11 2.130095 1_555
Ni1 O14 2.131074 1_555
Ni1 O15 2.145438 1_556
Ni1 O8 2.190026 1_556
Ni1 O13 2.200582 1_556
