# generated using pymatgen
data_Mg6CuNi
_symmetry_space_group_name_H-M   'P 1'
_cell_length_a   4.72474800
_cell_length_b   6.13660900
_cell_length_c   10.23842800
_cell_angle_alpha   90.00000000
_cell_angle_beta   90.00000000
_cell_angle_gamma   90.00000000
_symmetry_Int_Tables_number   1
_chemical_formula_structural   Mg6CuNi
_chemical_formula_sum   'Mg12 Cu2 Ni2'
_cell_volume   296.85227600
_cell_formula_units_Z   2
loop_
 _symmetry_equiv_pos_site_id
 _symmetry_equiv_pos_as_xyz
  1  'x, y, z'
loop_
 _atom_site_type_symbol
 _atom_site_label
 _atom_site_symmetry_multiplicity
 _atom_site_fract_x
 _atom_site_fract_y
 _atom_site_fract_z
 _atom_site_occupancy
  Mg  Mg0  1  0.50000000  0.25075900  0.58461700  1
  Mg  Mg1  1  0.50000000  0.74924100  0.58461700  1
  Mg  Mg2  1  0.00000000  0.24597500  0.40950600  1
  Mg  Mg3  1  0.00000000  0.75402500  0.40950600  1
  Mg  Mg4  1  0.00000000  0.00000000  0.67184100  1
  Mg  Mg5  1  0.00000000  0.00000000  0.17412700  1
  Mg  Mg6  1  0.50000000  0.75075900  0.08461700  1
  Mg  Mg7  1  0.50000000  0.24924100  0.08461700  1
  Mg  Mg8  1  0.00000000  0.74597500  0.90950600  1
  Mg  Mg9  1  0.00000000  0.25402500  0.90950600  1
  Mg  Mg10  1  0.00000000  0.50000000  0.17184100  1
  Mg  Mg11  1  0.00000000  0.50000000  0.67412700  1
  Cu  Cu0  1  0.50000000  0.00000000  0.83284000  1
  Cu  Cu1  1  0.50000000  0.50000000  0.33284000  1
  Ni  Ni0  1  0.50000000  0.00000000  0.33295000  1
  Ni  Ni1  1  0.50000000  0.50000000  0.83295000  1
loop_
_geom_bond_atom_site_label_1
_geom_bond_atom_site_label_2
_geom_bond_distance
_geom_bond_site_symmetry_2
Mg0 Mg4 2.957408 1_655
Mg0 Mg4 2.957408 1_555
Mg0 Mg11 2.959735 1_555
Mg0 Mg11 2.959735 1_655
Mg0 Mg2 2.965809 1_655
Mg0 Mg2 2.965809 1_555
Mg0 Ni1 2.967130 1_555
Mg0 Ni0 3.001198 1_555
Mg0 Mg1 3.058989 1_555
Mg0 Mg1 3.077620 1_545
Mg1 Mg4 2.957408 1_565
Mg1 Mg4 2.957408 1_665
Mg1 Mg11 2.959735 1_555
Mg1 Mg11 2.959735 1_655
Mg1 Mg3 2.965809 1_555
Mg1 Mg3 2.965809 1_655
Mg1 Ni1 2.967130 1_555
Mg1 Ni0 3.001198 1_565
Mg2 Ni0 2.910948 1_555
Mg2 Ni0 2.910948 1_455
Mg3 Ni0 2.910948 1_465
Mg3 Ni0 2.910948 1_565
Mg5 Ni0 2.867927 1_555
Mg5 Ni0 2.867927 1_455
Mg5 Mg7 2.959735 1_555
Mg5 Mg7 2.959735 1_455
Mg5 Mg6 2.959735 1_545
Mg5 Mg6 2.959735 1_445
Mg6 Mg8 2.965809 1_554
Mg6 Mg8 2.965809 1_654
Mg6 Ni0 2.967130 1_565
Mg6 Ni1 3.001198 1_554
Mg6 Mg7 3.058989 1_565
Mg6 Mg7 3.077620 1_555
Mg7 Mg9 2.965809 1_654
Mg7 Mg9 2.965809 1_554
Mg7 Ni0 2.967130 1_555
Mg7 Ni1 3.001198 1_554
Mg8 Ni1 2.910948 1_555
Mg8 Ni1 2.910948 1_455
Mg9 Ni1 2.910948 1_555
Mg9 Ni1 2.910948 1_455
Mg10 Mg6 2.957408 1_455
Mg10 Mg6 2.957408 1_555
Mg10 Mg7 2.957408 1_455
Mg10 Mg7 2.957408 1_555
Mg11 Ni1 2.867927 1_555
Mg11 Ni1 2.867927 1_455
Cu0 Mg4 2.880617 1_655
Cu0 Mg4 2.880617 1_555
Cu0 Mg9 2.937169 1_655
Cu0 Mg9 2.937169 1_555
Cu0 Mg8 2.937169 1_645
Cu0 Mg8 2.937169 1_545
Cu0 Mg0 2.970979 1_555
Cu0 Mg1 2.970979 1_545
Cu0 Mg7 2.997401 1_556
Cu0 Mg6 2.997401 1_546
Cu0 Ni1 3.068305 1_545
Cu0 Ni1 3.068305 1_555
Cu1 Mg10 2.880617 1_555
Cu1 Mg10 2.880617 1_655
Cu1 Mg3 2.937169 1_555
Cu1 Mg3 2.937169 1_655
Cu1 Mg2 2.937169 1_555
Cu1 Mg2 2.937169 1_655
Cu1 Mg6 2.970979 1_555
Cu1 Mg7 2.970979 1_555
Cu1 Mg1 2.997401 1_555
Cu1 Mg0 2.997401 1_555
Cu1 Ni0 3.068305 1_565
Cu1 Ni0 3.068305 1_555
