# generated using pymatgen
data_Ba3(GaN2)2
_symmetry_space_group_name_H-M   'P 1'
_cell_length_a   6.28477900
_cell_length_b   10.19874500
_cell_length_c   10.64545900
_cell_angle_alpha   90.00000000
_cell_angle_beta   90.00000000
_cell_angle_gamma   90.00000000
_symmetry_Int_Tables_number   1
_chemical_formula_structural   Ba3(GaN2)2
_chemical_formula_sum   'Ba12 Ga8 N16'
_cell_volume   682.34047815
_cell_formula_units_Z   4
loop_
 _symmetry_equiv_pos_site_id
 _symmetry_equiv_pos_as_xyz
  1  'x, y, z'
loop_
 _atom_site_type_symbol
 _atom_site_label
 _atom_site_symmetry_multiplicity
 _atom_site_fract_x
 _atom_site_fract_y
 _atom_site_fract_z
 _atom_site_occupancy
  Ba  Ba0  1  0.25000000  0.59296500  0.50000000  1
  Ba  Ba1  1  0.25000000  0.90703500  0.00000000  1
  Ba  Ba2  1  0.75000000  0.40703500  0.50000000  1
  Ba  Ba3  1  0.75000000  0.09296500  0.00000000  1
  Ba  Ba4  1  0.39197500  0.58827500  0.15452600  1
  Ba  Ba5  1  0.39197500  0.91172500  0.34547400  1
  Ba  Ba6  1  0.10802500  0.58827500  0.84547400  1
  Ba  Ba7  1  0.10802500  0.91172500  0.65452600  1
  Ba  Ba8  1  0.60802500  0.41172500  0.84547400  1
  Ba  Ba9  1  0.60802500  0.08827500  0.65452600  1
  Ba  Ba10  1  0.89197500  0.41172500  0.15452600  1
  Ba  Ba11  1  0.89197500  0.08827500  0.34547400  1
  Ga  Ga0  1  0.83585800  0.75000000  0.25000000  1
  Ga  Ga1  1  0.66414200  0.75000000  0.75000000  1
  Ga  Ga2  1  0.16414200  0.25000000  0.75000000  1
  Ga  Ga3  1  0.33585800  0.25000000  0.25000000  1
  Ga  Ga4  1  0.25000000  0.23050200  0.00000000  1
  Ga  Ga5  1  0.75000000  0.73050200  0.50000000  1
  Ga  Ga6  1  0.75000000  0.76949800  0.00000000  1
  Ga  Ga7  1  0.25000000  0.26949800  0.50000000  1
  N  N0  1  0.47869800  0.17130000  0.40300400  1
  N  N1  1  0.47869800  0.32870000  0.09699600  1
  N  N2  1  0.02130200  0.17130000  0.59699600  1
  N  N3  1  0.02130200  0.32870000  0.90300400  1
  N  N4  1  0.52130200  0.82870000  0.59699600  1
  N  N5  1  0.52130200  0.67130000  0.90300400  1
  N  N6  1  0.97869800  0.82870000  0.40300400  1
  N  N7  1  0.97869800  0.67130000  0.09699600  1
  N  N8  1  0.13770600  0.37020800  0.35387400  1
  N  N9  1  0.13770600  0.12979200  0.14612600  1
  N  N10  1  0.36229400  0.37020800  0.64612600  1
  N  N11  1  0.36229400  0.12979200  0.85387400  1
  N  N12  1  0.86229400  0.87020800  0.85387400  1
  N  N13  1  0.63770600  0.62979200  0.35387400  1
  N  N14  1  0.63770600  0.87020800  0.14612600  1
  N  N15  1  0.86229400  0.62979200  0.64612600  1
loop_
_geom_bond_atom_site_label_1
_geom_bond_atom_site_label_2
_geom_bond_distance
_geom_bond_site_symmetry_2
Ba0 N10 2.842387 1_555
Ba0 N8 2.842387 1_555
Ba0 N15 2.915157 1_455
Ba0 N13 2.915157 1_555
Ba0 N4 3.123084 1_555
Ba0 N6 3.123084 1_455
Ba1 N9 2.842387 1_565
Ba1 N11 2.842387 1_564
Ba1 N12 2.915157 1_454
Ba1 N14 2.915157 1_555
Ba1 N5 3.123084 1_554
Ba1 N7 3.123084 1_455
Ba2 N13 2.842387 1_555
Ba2 N15 2.842387 1_555
Ba2 N10 2.915157 1_555
Ba2 N8 2.915157 1_655
Ba2 N2 3.123084 1_655
Ba2 N0 3.123084 1_555
Ba3 N14 2.842387 1_545
Ba3 N12 2.842387 1_544
Ba3 N11 2.915157 1_554
Ba3 N9 2.915157 1_655
Ba3 N3 3.123084 1_654
Ba3 N1 3.123084 1_555
Ba4 N13 2.658547 1_555
Ba4 N1 2.771379 1_555
Ba4 N7 2.799699 1_455
Ba4 N5 2.923522 1_554
Ba5 N14 2.658547 1_555
Ba5 N0 2.771379 1_565
Ba5 N6 2.799699 1_455
Ba5 N4 2.923522 1_555
Ba6 N15 2.658547 1_455
Ba6 N3 2.771379 1_555
Ba6 N5 2.799699 1_555
Ba6 N7 2.923522 1_456
Ba7 N12 2.658547 1_455
Ba7 N2 2.771379 1_565
Ba7 N4 2.799699 1_555
Ba7 N6 2.923522 1_455
Ba8 N10 2.658547 1_555
Ba8 N5 2.771379 1_555
Ba8 N3 2.799699 1_655
Ba8 N1 2.923522 1_556
Ba9 N11 2.658547 1_555
Ba9 N4 2.771379 1_545
Ba9 N2 2.799699 1_655
Ba9 N0 2.923522 1_555
Ba10 N8 2.658547 1_655
Ba10 N7 2.771379 1_555
Ba10 N1 2.799699 1_555
Ba10 N3 2.923522 1_654
Ba11 N9 2.658547 1_655
Ba11 N6 2.771379 1_545
Ba11 N0 2.799699 1_555
Ba11 N2 2.923522 1_655
Ga0 N6 2.025614 1_555
Ga0 N7 2.025614 1_555
Ga0 N14 2.068005 1_555
Ga0 N13 2.068005 1_555
Ga1 N5 2.025614 1_555
Ga1 N4 2.025614 1_555
Ga1 N12 2.068005 1_555
Ga1 N15 2.068005 1_555
Ga2 N2 2.025614 1_555
Ga2 N3 2.025614 1_555
Ga2 N10 2.068005 1_555
Ga2 N11 2.068005 1_555
Ga3 N0 2.025614 1_555
Ga3 N1 2.025614 1_555
Ga3 N8 2.068005 1_555
Ga3 N9 2.068005 1_555
Ga4 N11 1.993204 1_554
Ga4 N9 1.993204 1_555
Ga4 N3 2.033487 1_554
Ga4 N1 2.033487 1_555
Ga5 N15 1.993204 1_555
Ga5 N13 1.993204 1_555
Ga5 N4 2.033487 1_555
Ga5 N6 2.033487 1_555
Ga6 N12 1.993204 1_554
Ga6 N14 1.993204 1_555
Ga6 N5 2.033487 1_554
Ga6 N7 2.033487 1_555
Ga7 N8 1.993204 1_555
Ga7 N10 1.993204 1_555
Ga7 N2 2.033487 1_555
Ga7 N0 2.033487 1_555
