# generated using pymatgen
data_Mg3Co2(Si2O7)2
_symmetry_space_group_name_H-M   'P 1'
_cell_length_a   9.29269100
_cell_length_b   9.29269100
_cell_length_c   9.74199921
_cell_angle_alpha   58.77905996
_cell_angle_beta   58.77905996
_cell_angle_gamma   47.84507270
_symmetry_Int_Tables_number   1
_chemical_formula_structural   Mg3Co2(Si2O7)2
_chemical_formula_sum   'Mg6 Co4 Si8 O28'
_cell_volume   513.69304133
_cell_formula_units_Z   2
loop_
 _symmetry_equiv_pos_site_id
 _symmetry_equiv_pos_as_xyz
  1  'x, y, z'
loop_
 _atom_site_type_symbol
 _atom_site_label
 _atom_site_symmetry_multiplicity
 _atom_site_fract_x
 _atom_site_fract_y
 _atom_site_fract_z
 _atom_site_occupancy
  Mg  Mg0  1  0.08481000  0.25602900  0.10727900  1
  Mg  Mg1  1  0.74397100  0.91519000  0.39272100  1
  Mg  Mg2  1  0.25602900  0.08481000  0.60727900  1
  Mg  Mg3  1  0.38610300  0.61389700  0.75000000  1
  Mg  Mg4  1  0.91519000  0.74397100  0.89272100  1
  Mg  Mg5  1  0.61389700  0.38610300  0.25000000  1
  Co  Co0  1  0.78757900  0.21242100  0.75000000  1
  Co  Co1  1  0.21242100  0.78757900  0.25000000  1
  Co  Co2  1  0.00000000  0.00000000  0.00000000  1
  Co  Co3  1  0.00000000  0.00000000  0.50000000  1
  Si  Si0  1  0.54211100  0.08907100  0.70739900  1
  Si  Si1  1  0.08907100  0.54211100  0.20739900  1
  Si  Si2  1  0.52462600  0.23793000  0.10437800  1
  Si  Si3  1  0.23793000  0.52462600  0.60437800  1
  Si  Si4  1  0.91092900  0.45788900  0.79260100  1
  Si  Si5  1  0.47537400  0.76207000  0.89562200  1
  Si  Si6  1  0.76207000  0.47537400  0.39562200  1
  Si  Si7  1  0.45788900  0.91092900  0.29260100  1
  O  O0  1  0.83922900  0.30336800  0.32171200  1
  O  O1  1  0.97278600  0.89105100  0.41457300  1
  O  O2  1  0.45290800  0.63559100  0.09116800  1
  O  O3  1  0.89105100  0.97278600  0.91457300  1
  O  O4  1  0.23538600  0.98834100  0.30059100  1
  O  O5  1  0.06104300  0.51439200  0.61809400  1
  O  O6  1  0.63559100  0.45290800  0.59116800  1
  O  O7  1  0.01165900  0.76461400  0.19940900  1
  O  O8  1  0.93895700  0.48560800  0.38190600  1
  O  O9  1  0.62978500  0.68343800  0.26542900  1
  O  O10  1  0.02721400  0.10894900  0.58542700  1
  O  O11  1  0.76461400  0.01165900  0.69940900  1
  O  O12  1  0.48560800  0.93895700  0.88190600  1
  O  O13  1  0.30336800  0.83922900  0.82171200  1
  O  O14  1  0.68343800  0.62978500  0.76542900  1
  O  O15  1  0.98834100  0.23538600  0.80059100  1
  O  O16  1  0.91279600  0.48132400  0.94494300  1
  O  O17  1  0.37021500  0.31656200  0.73457100  1
  O  O18  1  0.51867600  0.08720400  0.55505700  1
  O  O19  1  0.31656200  0.37021500  0.23457100  1
  O  O20  1  0.51439200  0.06104300  0.11809400  1
  O  O21  1  0.10894900  0.02721400  0.08542700  1
  O  O22  1  0.48132400  0.91279600  0.44494300  1
  O  O23  1  0.54709200  0.36440900  0.90883200  1
  O  O24  1  0.08720400  0.51867600  0.05505700  1
  O  O25  1  0.36440900  0.54709200  0.40883200  1
  O  O26  1  0.69663200  0.16077100  0.17828800  1
  O  O27  1  0.16077100  0.69663200  0.67828800  1
loop_
_geom_bond_atom_site_label_1
_geom_bond_atom_site_label_2
_geom_bond_distance
_geom_bond_site_symmetry_2
Mg0 O16 2.033613 1_454
Mg0 O21 2.096748 1_555
Mg0 O0 2.104383 1_455
Mg0 O4 2.212610 1_545
Mg0 O24 2.233882 1_555
Mg1 O18 2.033613 1_565
Mg1 O1 2.096748 1_555
Mg1 O26 2.104383 1_565
Mg1 O7 2.212610 1_655
Mg1 O22 2.233882 1_555
Mg2 O22 2.033613 1_545
Mg2 O10 2.096748 1_555
Mg2 O13 2.104383 1_545
Mg2 O15 2.212610 1_455
Mg2 O18 2.233882 1_555
Mg3 O6 2.008146 1_555
Mg3 O23 2.008146 1_555
Mg3 O13 2.064594 1_555
Mg3 O27 2.064594 1_555
Mg4 O24 2.033613 1_656
Mg4 O3 2.096748 1_555
Mg4 O27 2.104383 1_655
Mg4 O11 2.212610 1_565
Mg4 O16 2.233882 1_555
Mg5 O25 2.008146 1_555
Mg5 O2 2.008146 1_555
Mg5 O0 2.064594 1_555
Mg5 O26 2.064594 1_555
Co0 O3 1.864609 1_545
Co0 O10 1.864609 1_655
Co0 O6 1.956374 1_555
Co0 O23 1.956374 1_555
Co0 O15 2.316385 1_555
Co0 O11 2.316385 1_555
Co1 O1 1.864609 1_455
Co1 O21 1.864609 1_565
Co1 O2 1.956374 1_555
Co1 O25 1.956374 1_555
Co1 O4 2.316385 1_555
Co1 O7 2.316385 1_555
Co2 O21 1.793573 1_555
Co2 O3 1.793573 1_444
Co2 O15 2.016218 1_454
Co2 O7 2.016218 1_545
Co2 O13 2.270871 1_544
Co2 O26 2.270871 1_455
Co3 O10 1.793573 1_555
Co3 O1 1.793573 1_445
Co3 O4 2.016218 1_545
Co3 O11 2.016218 1_455
Co3 O0 2.270871 1_455
Co3 O27 2.270871 1_545
O0 Si6 1.645292 1_555
O2 Si5 1.627872 1_554
O4 Si7 1.641168 1_555
O5 Si3 1.642496 1_555
O5 Si4 1.646528 1_455
O6 Si6 1.627872 1_555
O7 Si1 1.641168 1_555
O8 Si6 1.642496 1_555
O8 Si1 1.646528 1_655
O9 Si7 1.643104 1_555
O9 Si6 1.655878 1_555
O11 Si0 1.641168 1_555
O12 Si5 1.642496 1_555
O12 Si0 1.646528 1_565
O13 Si5 1.645292 1_555
O14 Si4 1.643104 1_555
O14 Si5 1.655878 1_555
O15 Si4 1.641168 1_555
O16 Si4 1.617760 1_555
O17 Si0 1.643104 1_555
O17 Si3 1.655878 1_555
O18 Si0 1.617760 1_555
O19 Si1 1.643104 1_555
O19 Si2 1.655878 1_555
O20 Si2 1.642496 1_555
O20 Si7 1.646528 1_545
O22 Si7 1.617760 1_555
O23 Si2 1.627872 1_556
O24 Si1 1.617760 1_555
O25 Si3 1.627872 1_555
O26 Si2 1.645292 1_555
O27 Si3 1.645292 1_555
