# generated using pymatgen
data_SrSiH2F6
_symmetry_space_group_name_H-M   'P 1'
_cell_length_a   10.07418900
_cell_length_b   6.00864600
_cell_length_c   10.76244089
_cell_angle_alpha   69.28423555
_cell_angle_beta   90.00000000
_cell_angle_gamma   90.00000000
_symmetry_Int_Tables_number   1
_chemical_formula_structural   SrSiH2F6
_chemical_formula_sum   'Sr4 Si4 H8 F24'
_cell_volume   609.35464871
_cell_formula_units_Z   4
loop_
 _symmetry_equiv_pos_site_id
 _symmetry_equiv_pos_as_xyz
  1  'x, y, z'
loop_
 _atom_site_type_symbol
 _atom_site_label
 _atom_site_symmetry_multiplicity
 _atom_site_fract_x
 _atom_site_fract_y
 _atom_site_fract_z
 _atom_site_occupancy
  Sr  Sr0  1  0.77555200  0.77681400  0.55489500  1
  Sr  Sr1  1  0.22444800  0.22318600  0.44510500  1
  Sr  Sr2  1  0.27555200  0.22318600  0.94510500  1
  Sr  Sr3  1  0.72444800  0.77681400  0.05489500  1
  Si  Si0  1  0.46878500  0.85266400  0.74665200  1
  Si  Si1  1  0.53121500  0.14733600  0.25334800  1
  Si  Si2  1  0.96878500  0.14733600  0.75334800  1
  Si  Si3  1  0.03121500  0.85266400  0.24665200  1
  H  H0  1  0.09077600  0.75774800  0.61122000  1
  H  H1  1  0.90922400  0.24225200  0.38878000  1
  H  H2  1  0.59077600  0.24225200  0.88878000  1
  H  H3  1  0.40922400  0.75774800  0.11122000  1
  H  H4  1  0.34233100  0.56607800  0.52810000  1
  H  H5  1  0.65766900  0.43392200  0.47190000  1
  H  H6  1  0.84233100  0.43392200  0.97190000  1
  H  H7  1  0.15766900  0.56607800  0.02810000  1
  F  F0  1  0.06634100  0.29939900  0.82791700  1
  F  F1  1  0.93365900  0.70060100  0.17208300  1
  F  F2  1  0.56634100  0.70060100  0.67208300  1
  F  F3  1  0.43365900  0.29939900  0.32791700  1
  F  F4  1  0.36717800  0.98921300  0.82842000  1
  F  F5  1  0.63282200  0.01078700  0.17158000  1
  F  F6  1  0.86717800  0.01078700  0.67158000  1
  F  F7  1  0.13282200  0.98921300  0.32842000  1
  F  F8  1  0.37099500  0.60009000  0.80877500  1
  F  F9  1  0.62900500  0.39991000  0.19122500  1
  F  F10  1  0.87099500  0.39991000  0.69122500  1
  F  F11  1  0.12900500  0.60009000  0.30877500  1
  F  F12  1  0.06634200  0.25316600  0.61110800  1
  F  F13  1  0.93365800  0.74683400  0.38889200  1
  F  F14  1  0.56634200  0.74683400  0.88889200  1
  F  F15  1  0.43365800  0.25316600  0.11110800  1
  F  F16  1  0.36550700  0.94964100  0.61049800  1
  F  F17  1  0.63449300  0.05035900  0.38950200  1
  F  F18  1  0.86550700  0.05035900  0.88950200  1
  F  F19  1  0.13449300  0.94964100  0.11049800  1
  F  F20  1  0.06259600  0.90551800  0.81371100  1
  F  F21  1  0.93740400  0.09448200  0.18628900  1
  F  F22  1  0.56259600  0.09448200  0.68628900  1
  F  F23  1  0.43740400  0.90551800  0.31371100  1
loop_
_geom_bond_atom_site_label_1
_geom_bond_atom_site_label_2
_geom_bond_distance
_geom_bond_site_symmetry_2
H4 Sr1 2.784792 1_555
H5 Sr0 2.784792 1_555
H6 Sr3 2.784792 1_556
H7 Sr2 2.784792 1_554
F0 Si2 1.721503 1_455
F0 Sr2 2.415348 1_555
F1 Si3 1.721503 1_655
F1 Sr3 2.415348 1_555
F2 Si0 1.721503 1_555
F2 Sr0 2.415348 1_555
F3 Si1 1.721503 1_555
F3 Sr1 2.415348 1_555
F4 Si0 1.733842 1_555
F4 Sr2 2.377937 1_565
F5 Si1 1.733842 1_555
F5 Sr3 2.377937 1_545
F6 Si2 1.733842 1_555
F6 Sr0 2.377937 1_545
F7 Si3 1.733842 1_555
F7 Sr1 2.377937 1_565
F8 Si0 1.732886 1_555
F8 Sr2 2.419773 1_555
F9 Si1 1.732886 1_555
F9 Sr3 2.419773 1_555
F10 Si2 1.732886 1_555
F10 Sr0 2.419773 1_555
F11 Si3 1.732886 1_555
F11 Sr1 2.419773 1_555
F12 Si2 1.739277 1_455
F12 Sr1 2.447253 1_555
F13 Si3 1.739277 1_655
F13 Sr0 2.447253 1_555
F14 Si0 1.739277 1_555
F14 Sr3 2.447253 1_556
F15 Si1 1.739277 1_555
F15 Sr2 2.447253 1_554
F16 Si0 1.721985 1_555
F16 Sr1 2.412385 1_565
F17 Si1 1.721985 1_555
F17 Sr0 2.412385 1_545
F18 Si2 1.721985 1_555
F18 Sr3 2.412385 1_546
F19 Si3 1.721985 1_555
F19 Sr2 2.412385 1_564
F20 Si2 1.660905 1_465
F21 Si3 1.660905 1_645
F22 Si0 1.660905 1_545
F23 Si1 1.660905 1_565
