# generated using pymatgen
data_Th(MnAl2)4
_symmetry_space_group_name_H-M   'P 1'
_cell_length_a   4.95660900
_cell_length_b   6.75705496
_cell_length_c   6.75705496
_cell_angle_alpha   82.26900284
_cell_angle_beta   68.48327508
_cell_angle_gamma   68.48327508
_symmetry_Int_Tables_number   1
_chemical_formula_structural   Th(MnAl2)4
_chemical_formula_sum   'Th1 Mn4 Al8'
_cell_volume   195.86437528
_cell_formula_units_Z   1
loop_
 _symmetry_equiv_pos_site_id
 _symmetry_equiv_pos_as_xyz
  1  'x, y, z'
loop_
 _atom_site_type_symbol
 _atom_site_label
 _atom_site_symmetry_multiplicity
 _atom_site_fract_x
 _atom_site_fract_y
 _atom_site_fract_z
 _atom_site_occupancy
  Th  Th0  1  0.00000000  0.00000000  0.00000000  1
  Mn  Mn0  1  0.00000000  0.00000000  0.50000000  1
  Mn  Mn1  1  0.50000000  0.00000000  0.50000000  1
  Mn  Mn2  1  0.50000000  0.50000000  0.00000000  1
  Mn  Mn3  1  0.00000000  0.50000000  0.00000000  1
  Al  Al0  1  0.00000000  0.34547900  0.65452100  1
  Al  Al1  1  0.00000000  0.65452100  0.34547900  1
  Al  Al2  1  0.65452100  0.34547900  0.34547900  1
  Al  Al3  1  0.34547900  0.65452100  0.65452100  1
  Al  Al4  1  0.50000000  0.77701300  0.22298700  1
  Al  Al5  1  0.50000000  0.22298700  0.77701300  1
  Al  Al6  1  0.72298700  0.77701300  0.77701300  1
  Al  Al7  1  0.27701300  0.22298700  0.22298700  1
loop_
_geom_bond_atom_site_label_1
_geom_bond_atom_site_label_2
_geom_bond_distance
_geom_bond_site_symmetry_2
Mn0 Mn1 2.478305 1_455
Mn0 Mn1 2.478305 1_555
Mn0 Th0 3.378527 1_555
Mn0 Th0 3.378527 1_556
Mn1 Th0 3.378528 1_655
Mn1 Th0 3.378528 1_556
Mn2 Mn3 2.478305 1_555
Mn2 Mn3 2.478305 1_655
Mn2 Th0 3.378528 1_655
Mn2 Th0 3.378528 1_565
Mn3 Th0 3.378527 1_565
Mn3 Th0 3.378527 1_555
Al0 Mn3 2.682432 1_556
Al0 Mn0 2.682432 1_555
Al0 Mn2 2.682433 1_456
Al0 Mn1 2.682433 1_555
Al0 Al5 2.706992 1_555
Al0 Al5 2.706992 1_455
Al0 Al1 2.747375 1_555
Al0 Al6 2.819859 1_455
Al0 Al7 2.819859 1_555
Al0 Th0 3.071299 1_556
Al1 Mn3 2.682432 1_555
Al1 Mn0 2.682432 1_565
Al1 Mn2 2.682433 1_555
Al1 Mn1 2.682433 1_465
Al1 Al4 2.706992 1_455
Al1 Al4 2.706992 1_555
Al1 Al6 2.819859 1_455
Al1 Al7 2.819859 1_555
Al1 Th0 3.071299 1_565
Al2 Mn1 2.682433 1_555
Al2 Mn2 2.682433 1_555
Al2 Mn3 2.682433 1_655
Al2 Mn0 2.682433 1_655
Al2 Al7 2.706992 1_555
Al2 Al7 2.706992 1_655
Al2 Al3 2.747375 1_555
Al2 Al4 2.819859 1_555
Al2 Al5 2.819859 1_555
Al2 Th0 3.071299 1_655
Al3 Mn1 2.682433 1_565
Al3 Mn2 2.682433 1_556
Al3 Mn3 2.682433 1_556
Al3 Mn0 2.682433 1_565
Al3 Al6 2.706992 1_555
Al3 Al6 2.706992 1_455
Al3 Al4 2.819859 1_555
Al3 Al5 2.819859 1_555
Al3 Th0 3.071299 1_566
Al4 Mn2 2.555903 1_555
Al4 Mn1 2.555903 1_565
Al4 Mn3 2.555904 1_655
Al4 Mn0 2.555904 1_565
Al4 Al7 2.803464 1_565
Al4 Al6 2.803464 1_554
Al4 Th0 3.173594 1_565
Al4 Th0 3.173594 1_665
Al5 Mn1 2.555903 1_555
Al5 Mn2 2.555903 1_556
Al5 Mn0 2.555904 1_655
Al5 Mn3 2.555904 1_556
Al5 Al6 2.803464 1_545
Al5 Al7 2.803464 1_556
Al5 Th0 3.173594 1_556
Al5 Th0 3.173594 1_656
Al6 Mn1 2.555904 1_565
Al6 Mn2 2.555904 1_556
Al6 Mn3 2.555904 1_656
Al6 Mn0 2.555904 1_665
Al6 Th0 3.173594 1_666
Al6 Th0 3.173594 1_566
Al7 Mn1 2.555904 1_555
Al7 Mn2 2.555904 1_555
Al7 Mn0 2.555904 1_555
Al7 Mn3 2.555904 1_555
Al7 Th0 3.173594 1_555
Al7 Th0 3.173594 1_655
