# generated using pymatgen
data_LaNi5H6
_symmetry_space_group_name_H-M   'P 1'
_cell_length_a   5.41090732
_cell_length_b   5.41090732
_cell_length_c   4.06915500
_cell_angle_alpha   90.00000000
_cell_angle_beta   90.00000000
_cell_angle_gamma   119.99999168
_symmetry_Int_Tables_number   1
_chemical_formula_structural   LaNi5H6
_chemical_formula_sum   'La1 Ni5 H6'
_cell_volume   103.17514588
_cell_formula_units_Z   1
loop_
 _symmetry_equiv_pos_site_id
 _symmetry_equiv_pos_as_xyz
  1  'x, y, z'
loop_
 _atom_site_type_symbol
 _atom_site_label
 _atom_site_symmetry_multiplicity
 _atom_site_fract_x
 _atom_site_fract_y
 _atom_site_fract_z
 _atom_site_occupancy
  La  La0  1  0.00000000  0.00000000  0.87882900  1
  Ni  Ni0  1  0.66666700  0.33333300  0.99368400  1
  Ni  Ni1  1  0.33333300  0.66666700  0.99368400  1
  Ni  Ni2  1  0.50000000  0.50000000  0.50420900  1
  Ni  Ni3  1  0.00000000  0.50000000  0.50420900  1
  Ni  Ni4  1  0.50000000  0.00000000  0.50420900  1
  H  H0  1  0.79546000  0.20454000  0.29039200  1
  H  H1  1  0.40908100  0.20454000  0.29039200  1
  H  H2  1  0.79546000  0.59091900  0.29039200  1
  H  H3  1  0.20454000  0.79546000  0.29039200  1
  H  H4  1  0.20454000  0.40908100  0.29039200  1
  H  H5  1  0.59091900  0.79546000  0.29039200  1
loop_
_geom_bond_atom_site_label_1
_geom_bond_atom_site_label_2
_geom_bond_distance
_geom_bond_site_symmetry_2
H0 Ni4 1.663846 1_555
H0 Ni3 1.663846 1_655
H0 Ni0 1.707235 1_554
H0 La0 2.545453 1_654
H1 Ni4 1.663842 1_555
H1 Ni2 1.663847 1_555
H1 Ni0 1.707235 1_554
H1 La0 2.545457 1_554
H2 Ni3 1.663842 1_655
H2 Ni2 1.663847 1_555
H2 Ni0 1.707235 1_554
H2 La0 2.545457 1_664
H3 Ni3 1.663846 1_555
H3 Ni4 1.663846 1_565
H3 Ni1 1.707235 1_554
H3 La0 2.545453 1_564
H4 Ni3 1.663842 1_555
H4 Ni2 1.663847 1_555
H4 Ni1 1.707235 1_554
H4 La0 2.545457 1_554
H5 Ni4 1.663842 1_565
H5 Ni2 1.663847 1_555
H5 Ni1 1.707235 1_554
H5 La0 2.545457 1_664
