# generated using pymatgen
data_DyCrO2
_symmetry_space_group_name_H-M   'P 1'
_cell_length_a   7.32682587
_cell_length_b   7.32682587
_cell_length_c   7.32682587
_cell_angle_alpha   130.82074177
_cell_angle_beta   130.82074177
_cell_angle_gamma   72.09803789
_symmetry_Int_Tables_number   1
_chemical_formula_structural   DyCrO2
_chemical_formula_sum   'Dy4 Cr4 O8'
_cell_volume   220.25425982
_cell_formula_units_Z   4
loop_
 _symmetry_equiv_pos_site_id
 _symmetry_equiv_pos_as_xyz
  1  'x, y, z'
loop_
 _atom_site_type_symbol
 _atom_site_label
 _atom_site_symmetry_multiplicity
 _atom_site_fract_x
 _atom_site_fract_y
 _atom_site_fract_z
 _atom_site_occupancy
  Dy  Dy0  1  0.87500000  0.62500000  0.25000000  1
  Dy  Dy1  1  0.37500000  0.62500000  0.75000000  1
  Dy  Dy2  1  0.37500000  0.62500000  0.25000000  1
  Dy  Dy3  1  0.37500000  0.12500000  0.75000000  1
  Cr  Cr0  1  0.37500000  0.12500000  0.25000000  1
  Cr  Cr1  1  0.87500000  0.12500000  0.75000000  1
  Cr  Cr2  1  0.87500000  0.12500000  0.25000000  1
  Cr  Cr3  1  0.87500000  0.62500000  0.75000000  1
  O  O0  1  0.17464400  0.39688300  0.22223800  1
  O  O1  1  0.17464400  0.95240600  0.77776200  1
  O  O2  1  0.14688300  0.42464400  0.72223800  1
  O  O3  1  0.57535600  0.85311700  0.27776200  1
  O  O4  1  0.70240600  0.42464400  0.27776200  1
  O  O5  1  0.57535600  0.29759400  0.72223800  1
  O  O6  1  0.60311700  0.82535600  0.77776200  1
  O  O7  1  0.04759400  0.82535600  0.22223800  1
loop_
_geom_bond_atom_site_label_1
_geom_bond_atom_site_label_2
_geom_bond_distance
_geom_bond_site_symmetry_2
Dy0 O0 2.353363 1_655
Dy0 O3 2.353363 1_555
Dy0 O1 2.353366 1_655
Dy0 O5 2.353366 1_554
Dy0 O7 2.379782 1_655
Dy0 O4 2.379782 1_555
Dy1 O1 2.353366 1_555
Dy1 O5 2.353366 1_555
Dy1 O3 2.353367 1_556
Dy1 O0 2.353367 1_555
Dy1 O2 2.379776 1_555
Dy1 O6 2.379776 1_555
Dy2 O7 2.353366 1_555
Dy2 O4 2.353366 1_555
Dy2 O6 2.353367 1_555
Dy2 O2 2.353367 1_554
Dy2 O3 2.379776 1_555
Dy2 O0 2.379776 1_555
Dy3 O6 2.353363 1_545
Dy3 O2 2.353363 1_555
Dy3 O4 2.353366 1_556
Dy3 O7 2.353366 1_545
Dy3 O5 2.379782 1_555
Dy3 O1 2.379782 1_545
Cr0 O1 2.122760 1_544
Cr0 O5 2.122760 1_555
Cr0 O0 2.122766 1_555
Cr0 O3 2.122766 1_545
Cr1 O1 2.122760 1_645
Cr1 O5 2.122760 1_555
Cr1 O0 2.122762 1_656
Cr1 O3 2.122762 1_545
Cr2 O7 2.122760 1_645
Cr2 O4 2.122760 1_555
Cr2 O6 2.122762 1_544
Cr2 O2 2.122762 1_655
Cr3 O4 2.122760 1_555
Cr3 O7 2.122760 1_656
Cr3 O6 2.122766 1_555
Cr3 O2 2.122766 1_655
