# generated using pymatgen
data_Ca3Nd
_symmetry_space_group_name_H-M   'P 1'
_cell_length_a   6.04304345
_cell_length_b   6.04304345
_cell_length_c   6.04304345
_cell_angle_alpha   60.00000000
_cell_angle_beta   60.00000000
_cell_angle_gamma   60.00000000
_symmetry_Int_Tables_number   1
_chemical_formula_structural   Ca3Nd
_chemical_formula_sum   'Ca3 Nd1'
_cell_volume   156.04582443
_cell_formula_units_Z   1
loop_
 _symmetry_equiv_pos_site_id
 _symmetry_equiv_pos_as_xyz
  1  'x, y, z'
loop_
 _atom_site_type_symbol
 _atom_site_label
 _atom_site_symmetry_multiplicity
 _atom_site_fract_x
 _atom_site_fract_y
 _atom_site_fract_z
 _atom_site_occupancy
  Ca  Ca0  1  0.25000000  0.25000000  0.25000000  1
  Ca  Ca1  1  0.75000000  0.75000000  0.75000000  1
  Ca  Ca2  1  0.50000000  0.50000000  0.50000000  1
  Nd  Nd0  1  0.00000000  0.00000000  0.00000000  1
loop_
_geom_bond_atom_site_label_1
_geom_bond_atom_site_label_2
_geom_bond_distance
_geom_bond_site_symmetry_2
Ca0 Ca2 3.700593 1_455
Ca0 Nd0 3.700593 1_565
Ca0 Nd0 3.700593 1_655
Ca0 Ca2 3.700593 1_545
Ca0 Ca2 3.700593 1_555
Ca0 Ca2 3.700593 1_554
Ca0 Nd0 3.700593 1_556
Ca0 Nd0 3.700593 1_555
Ca1 Nd0 3.700593 1_656
Ca1 Ca2 3.700593 1_565
Ca1 Nd0 3.700593 1_566
Ca1 Ca2 3.700593 1_655
Ca1 Ca2 3.700593 1_555
Ca1 Nd0 3.700593 1_666
Ca1 Nd0 3.700593 1_665
Ca1 Ca2 3.700593 1_556
Ca2 Nd0 4.273077 1_655
Ca2 Nd0 4.273077 1_665
Ca2 Nd0 4.273077 1_566
Ca2 Nd0 4.273077 1_565
Ca2 Nd0 4.273077 1_556
Ca2 Nd0 4.273077 1_656
