# generated using pymatgen
data_Er(MnGa)6
_symmetry_space_group_name_H-M   'P 1'
_cell_length_a   4.88631400
_cell_length_b   6.70053628
_cell_length_c   6.84703476
_cell_angle_alpha   97.47560225
_cell_angle_beta   110.90501187
_cell_angle_gamma   68.61573273
_symmetry_Int_Tables_number   1
_chemical_formula_structural   Er(MnGa)6
_chemical_formula_sum   'Er1 Mn6 Ga6'
_cell_volume   195.00391670
_cell_formula_units_Z   1
loop_
 _symmetry_equiv_pos_site_id
 _symmetry_equiv_pos_as_xyz
  1  'x, y, z'
loop_
 _atom_site_type_symbol
 _atom_site_label
 _atom_site_symmetry_multiplicity
 _atom_site_fract_x
 _atom_site_fract_y
 _atom_site_fract_z
 _atom_site_occupancy
  Er  Er0  1  0.00000000  0.00000000  0.00000000  1
  Mn  Mn0  1  0.50000000  0.50000000  0.00000000  1
  Mn  Mn1  1  0.00000000  0.50000000  0.00000000  1
  Mn  Mn2  1  0.65073200  0.34926800  0.65073300  1
  Mn  Mn3  1  0.34926800  0.65073200  0.34926700  1
  Mn  Mn4  1  0.99999900  0.34926800  0.34926700  1
  Mn  Mn5  1  0.00000100  0.65073200  0.65073300  1
  Ga  Ga0  1  0.75072700  0.73840100  0.23985500  1
  Ga  Ga1  1  0.24927300  0.26159900  0.76014500  1
  Ga  Ga2  1  0.51087200  0.73840100  0.76014500  1
  Ga  Ga3  1  0.48912800  0.26159900  0.23985500  1
  Ga  Ga4  1  0.50000000  0.00000000  0.50000000  1
  Ga  Ga5  1  0.00000000  0.00000000  0.50000000  1
loop_
_geom_bond_atom_site_label_1
_geom_bond_atom_site_label_2
_geom_bond_distance
_geom_bond_site_symmetry_2
Er0 Mn2 3.120838 1_454
Er0 Mn4 3.120838 1_455
Er0 Mn5 3.120838 1_544
Er0 Mn3 3.120838 1_545
Er0 Ga3 3.314629 1_555
Er0 Ga1 3.314629 1_554
Er0 Ga0 3.314629 1_545
Er0 Ga3 3.314629 1_455
Er0 Ga1 3.314629 1_454
Er0 Ga0 3.314629 1_445
Er0 Ga2 3.314629 1_544
Er0 Ga2 3.314629 1_444
Er0 Mn1 3.350268 1_555
Er0 Mn1 3.350268 1_545
Er0 Mn0 3.350268 1_545
Er0 Mn0 3.350268 1_455
Er0 Ga4 3.423517 1_555
Er0 Ga5 3.423517 1_555
Er0 Ga5 3.423517 1_554
Er0 Ga4 3.423517 1_454
Mn0 Mn5 2.714324 1_554
Mn0 Mn2 2.714324 1_554
Mn0 Mn4 2.714324 1_555
Mn0 Mn3 2.714324 1_555
Mn1 Mn3 2.714327 1_555
Mn1 Mn5 2.714327 1_554
Mn1 Mn2 2.714327 1_454
Mn1 Mn4 2.714327 1_455
Mn2 Mn3 2.693705 1_555
Mn4 Mn5 2.693705 1_655
Ga0 Mn0 2.461396 1_555
Ga0 Mn1 2.461396 1_655
Ga0 Mn4 2.526746 1_555
Ga0 Mn3 2.599609 1_555
Ga0 Mn3 2.599614 1_655
Ga0 Ga4 2.631551 1_565
Ga0 Ga5 2.631551 1_665
Ga0 Mn5 2.684425 1_655
Ga1 Mn1 2.461396 1_556
Ga1 Mn0 2.461396 1_556
Ga1 Mn5 2.526746 1_555
Ga1 Mn2 2.599609 1_555
Ga1 Mn2 2.599614 1_455
Ga1 Ga5 2.631551 1_555
Ga1 Ga4 2.631551 1_555
Ga1 Mn4 2.684425 1_455
Ga2 Mn0 2.461396 1_556
Ga2 Mn1 2.461396 1_656
Ga2 Mn2 2.526746 1_555
Ga2 Mn5 2.599609 1_555
Ga2 Mn5 2.599614 1_655
Ga2 Ga4 2.631551 1_565
Ga2 Ga5 2.631551 1_565
Ga2 Mn3 2.684425 1_555
Ga3 Mn1 2.461396 1_555
Ga3 Mn0 2.461396 1_555
Ga3 Mn3 2.526746 1_555
Ga3 Mn4 2.599609 1_555
Ga3 Mn4 2.599614 1_455
Ga3 Ga4 2.631551 1_555
Ga3 Ga5 2.631551 1_655
Ga3 Mn2 2.684425 1_555
Ga4 Ga5 2.443157 1_555
Ga4 Ga5 2.443157 1_655
Ga4 Mn2 2.677794 1_555
Ga4 Mn3 2.677794 1_545
Ga4 Mn4 2.677796 1_455
Ga4 Mn5 2.677796 1_645
Ga5 Mn4 2.677794 1_455
Ga5 Mn5 2.677794 1_545
Ga5 Mn2 2.677796 1_455
Ga5 Mn3 2.677796 1_545
