# generated using pymatgen
data_Cd5TeS4
_symmetry_space_group_name_H-M   'P 1'
_cell_length_a   15.38741455
_cell_length_b   15.38741455
_cell_length_c   15.38741455
_cell_angle_alpha   163.92690858
_cell_angle_beta   163.92690858
_cell_angle_gamma   22.80659003
_symmetry_Int_Tables_number   1
_chemical_formula_structural   Cd5TeS4
_chemical_formula_sum   'Cd5 Te1 S4'
_cell_volume   279.21692740
_cell_formula_units_Z   1
loop_
 _symmetry_equiv_pos_site_id
 _symmetry_equiv_pos_as_xyz
  1  'x, y, z'
loop_
 _atom_site_type_symbol
 _atom_site_label
 _atom_site_symmetry_multiplicity
 _atom_site_fract_x
 _atom_site_fract_y
 _atom_site_fract_z
 _atom_site_occupancy
  Cd  Cd0  1  0.80942900  0.80942900  0.00000000  1
  Cd  Cd1  1  0.19057100  0.19057100  0.00000000  1
  Cd  Cd2  1  0.59592200  0.59592200  0.00000000  1
  Cd  Cd3  1  0.00000000  0.00000000  0.00000000  1
  Cd  Cd4  1  0.40407800  0.40407800  0.00000000  1
  Te  Te0  1  0.75000000  0.25000000  0.50000000  1
  S  S0  1  0.14320800  0.64320800  0.50000000  1
  S  S1  1  0.54823900  0.04823900  0.50000000  1
  S  S2  1  0.95176100  0.45176100  0.50000000  1
  S  S3  1  0.35679200  0.85679200  0.50000000  1
loop_
_geom_bond_atom_site_label_1
_geom_bond_atom_site_label_2
_geom_bond_distance
_geom_bond_site_symmetry_2
Cd0 S3 2.582502 1_554
Cd0 S3 2.582502 1_655
Cd0 Te0 2.800355 1_565
Cd0 Te0 2.800355 1_554
Cd1 S0 2.582502 1_555
Cd1 S0 2.582502 1_544
Cd1 Te0 2.800355 1_555
Cd1 Te0 2.800355 1_454
Cd2 S0 2.581217 1_554
Cd2 S0 2.581217 1_655
Cd2 S1 2.587855 1_554
Cd2 S1 2.587855 1_565
Cd3 S1 2.597216 1_555
Cd3 S1 2.597216 1_454
Cd3 S2 2.597216 1_455
Cd3 S2 2.597216 1_444
Cd4 S3 2.581217 1_544
Cd4 S3 2.581217 1_555
Cd4 S2 2.587855 1_454
Cd4 S2 2.587855 1_555
