# generated using pymatgen
data_Nd(TiCo5)2
_symmetry_space_group_name_H-M   'P 1'
_cell_length_a   4.70947600
_cell_length_b   6.43602996
_cell_length_c   6.43602996
_cell_angle_alpha   96.83559019
_cell_angle_beta   111.46101632
_cell_angle_gamma   68.53898368
_symmetry_Int_Tables_number   1
_chemical_formula_structural   Nd(TiCo5)2
_chemical_formula_sum   'Nd1 Ti2 Co10'
_cell_volume   168.94032489
_cell_formula_units_Z   1
loop_
 _symmetry_equiv_pos_site_id
 _symmetry_equiv_pos_as_xyz
  1  'x, y, z'
loop_
 _atom_site_type_symbol
 _atom_site_label
 _atom_site_symmetry_multiplicity
 _atom_site_fract_x
 _atom_site_fract_y
 _atom_site_fract_z
 _atom_site_occupancy
  Nd  Nd0  1  0.00000000  0.00000000  0.00000000  1
  Ti  Ti0  1  0.00000000  0.34894300  0.34894300  1
  Ti  Ti1  1  0.00000000  0.65105700  0.65105700  1
  Co  Co0  1  0.72249000  0.77751000  0.22249000  1
  Co  Co1  1  0.27751000  0.22249000  0.77751000  1
  Co  Co2  1  0.50000000  0.77659700  0.77659700  1
  Co  Co3  1  0.50000000  0.22340300  0.22340300  1
  Co  Co4  1  0.50000000  0.00000000  0.50000000  1
  Co  Co5  1  0.00000000  0.00000000  0.50000000  1
  Co  Co6  1  0.50000000  0.50000000  0.00000000  1
  Co  Co7  1  0.00000000  0.50000000  0.00000000  1
  Co  Co8  1  0.64071300  0.35928700  0.64071300  1
  Co  Co9  1  0.35928700  0.64071300  0.35928700  1
loop_
_geom_bond_atom_site_label_1
_geom_bond_atom_site_label_2
_geom_bond_distance
_geom_bond_site_symmetry_2
Nd0 Ti0 2.981058 1_555
Nd0 Ti1 2.981058 1_544
Ti0 Ti1 2.580993 1_555
Co0 Co4 2.449717 1_565
Co0 Co5 2.449717 1_665
Co0 Co7 2.449717 1_655
Co0 Co6 2.449717 1_555
Co0 Co9 2.620033 1_655
Co0 Co9 2.620033 1_555
Co0 Ti0 2.663967 1_655
Co0 Ti1 2.663967 1_655
Co0 Co3 2.670909 1_565
Co0 Co2 2.670909 1_554
Co0 Nd0 3.005987 1_665
Co0 Nd0 3.005987 1_565
Co1 Co6 2.449717 1_556
Co1 Co4 2.449717 1_555
Co1 Co7 2.449717 1_556
Co1 Co5 2.449717 1_555
Co1 Co8 2.620033 1_555
Co1 Co8 2.620033 1_455
Co1 Ti0 2.663967 1_555
Co1 Ti1 2.663967 1_555
Co1 Co3 2.670909 1_556
Co1 Co2 2.670909 1_545
Co1 Nd0 3.005987 1_556
Co1 Nd0 3.005987 1_656
Co2 Co4 2.417790 1_565
Co2 Co6 2.417790 1_556
Co2 Co5 2.417790 1_565
Co2 Co7 2.417790 1_656
Co2 Ti1 2.587480 1_555
Co2 Ti1 2.587480 1_655
Co2 Co9 2.642004 1_555
Co2 Co8 2.642004 1_555
Co2 Nd0 3.031069 1_566
Co2 Nd0 3.031069 1_666
Co3 Co6 2.417790 1_555
Co3 Co5 2.417790 1_655
Co3 Co7 2.417790 1_555
Co3 Co4 2.417790 1_555
Co3 Ti0 2.587480 1_555
Co3 Ti0 2.587480 1_655
Co3 Co9 2.642004 1_555
Co3 Co8 2.642004 1_555
Co3 Nd0 3.031069 1_655
Co3 Nd0 3.031069 1_555
Co4 Co5 2.354738 1_555
Co4 Co5 2.354738 1_655
Co4 Ti0 2.551191 1_555
Co4 Ti1 2.551191 1_645
Co4 Co8 2.605778 1_555
Co4 Co9 2.605778 1_545
Co4 Nd0 3.218015 1_555
Co4 Nd0 3.218015 1_656
Co5 Ti1 2.551191 1_545
Co5 Ti0 2.551191 1_555
Co5 Co8 2.605778 1_455
Co5 Co9 2.605778 1_545
Co5 Nd0 3.218015 1_555
Co5 Nd0 3.218015 1_556
Co6 Co7 2.354738 1_555
Co6 Co7 2.354738 1_655
Co6 Ti0 2.551191 1_655
Co6 Ti1 2.551191 1_554
Co6 Co9 2.605778 1_555
Co6 Co8 2.605778 1_554
Co6 Nd0 3.218015 1_565
Co6 Nd0 3.218015 1_655
Co7 Ti1 2.551191 1_554
Co7 Ti0 2.551191 1_555
Co7 Co9 2.605778 1_555
Co7 Co8 2.605778 1_454
Co7 Nd0 3.218015 1_555
Co7 Nd0 3.218015 1_565
Co8 Co9 2.363410 1_555
Co8 Ti0 2.933700 1_555
Co8 Ti1 2.933700 1_555
Co8 Ti0 2.933700 1_655
Co8 Ti1 2.933700 1_655
Co8 Nd0 3.017285 1_656
Co9 Ti0 2.933700 1_555
Co9 Ti1 2.933700 1_555
Co9 Ti0 2.933700 1_655
Co9 Ti1 2.933700 1_655
Co9 Nd0 3.017285 1_565
