# generated using pymatgen
data_Li9Mn7O16
_symmetry_space_group_name_H-M   'P 1'
_cell_length_a   5.07764700
_cell_length_b   5.10797852
_cell_length_c   12.04711115
_cell_angle_alpha   78.30375662
_cell_angle_beta   81.51293258
_cell_angle_gamma   79.08766816
_symmetry_Int_Tables_number   1
_chemical_formula_structural   Li9Mn7O16
_chemical_formula_sum   'Li9 Mn7 O16'
_cell_volume   298.49541632
_cell_formula_units_Z   1
loop_
 _symmetry_equiv_pos_site_id
 _symmetry_equiv_pos_as_xyz
  1  'x, y, z'
loop_
 _atom_site_type_symbol
 _atom_site_label
 _atom_site_symmetry_multiplicity
 _atom_site_fract_x
 _atom_site_fract_y
 _atom_site_fract_z
 _atom_site_occupancy
  Li  Li0  1  0.74811000  0.18759600  0.81811500  1
  Li  Li1  1  0.74374500  0.43235600  0.55436800  1
  Li  Li2  1  0.25874700  0.31653800  0.69714100  1
  Li  Li3  1  0.25625500  0.56764400  0.44563200  1
  Li  Li4  1  0.74125300  0.68346200  0.30285900  1
  Li  Li5  1  0.73160000  0.93436200  0.05483300  1
  Li  Li6  1  0.26840000  0.06563800  0.94516700  1
  Li  Li7  1  0.25189000  0.81240400  0.18188500  1
  Li  Li8  1  0.50000000  0.50000000  0.00000000  1
  Mn  Mn0  1  0.00318500  0.63133000  0.88359000  1
  Mn  Mn1  1  0.99681500  0.36867000  0.11641000  1
  Mn  Mn2  1  0.00657000  0.87732400  0.63001600  1
  Mn  Mn3  1  0.99343000  0.12267600  0.36998400  1
  Mn  Mn4  1  0.50000000  0.00000000  0.50000000  1
  Mn  Mn5  1  0.49161100  0.24603000  0.23735700  1
  Mn  Mn6  1  0.50838900  0.75397000  0.76264300  1
  O  O0  1  0.89645000  0.30830200  0.97724800  1
  O  O1  1  0.88650900  0.56060400  0.73850100  1
  O  O2  1  0.36680900  0.43664000  0.84095400  1
  O  O3  1  0.36585300  0.68000600  0.58963300  1
  O  O4  1  0.86448700  0.80057700  0.46567000  1
  O  O5  1  0.85694100  0.05187200  0.20935800  1
  O  O6  1  0.34370900  0.16271100  0.09159400  1
  O  O7  1  0.35556800  0.92812600  0.33712900  1
  O  O8  1  0.64443200  0.07187400  0.66287100  1
  O  O9  1  0.63414700  0.31999400  0.41036700  1
  O  O10  1  0.13551300  0.19942300  0.53433000  1
  O  O11  1  0.11349100  0.43939600  0.26149900  1
  O  O12  1  0.63319100  0.56336000  0.15904600  1
  O  O13  1  0.65629100  0.83728900  0.90840600  1
  O  O14  1  0.14305900  0.94812800  0.79064200  1
  O  O15  1  0.10355000  0.69169800  0.02275200  1
loop_
_geom_bond_atom_site_label_1
_geom_bond_atom_site_label_2
_geom_bond_distance
_geom_bond_site_symmetry_2
Li0 O13 1.994839 1_545
Li0 O2 2.120063 1_555
Li0 O1 2.147337 1_555
Li0 O14 2.160303 1_645
Li0 O8 2.231818 1_555
Li0 O0 2.388311 1_555
Li1 O9 2.111446 1_555
Li1 O4 2.117472 1_555
Li1 O10 2.123600 1_655
Li1 O3 2.126211 1_555
Li1 O8 2.129452 1_555
Li2 O1 2.111083 1_455
Li2 O2 2.125578 1_555
Li2 O14 2.125783 1_545
Li2 O8 2.147421 1_555
Li2 O3 2.149319 1_555
Li2 O10 2.361408 1_555
Li3 O3 2.111446 1_555
Li3 O10 2.117472 1_555
Li3 O4 2.123600 1_455
Li3 O9 2.126211 1_555
Li3 O7 2.129452 1_555
Li4 O11 2.111083 1_655
Li4 O12 2.125578 1_555
Li4 O5 2.125783 1_565
Li4 O7 2.147421 1_555
Li4 O9 2.149319 1_555
Li4 O4 2.361408 1_555
Li5 O13 2.032092 1_554
Li5 O15 2.084503 1_655
Li5 O6 2.125563 1_565
Li5 O12 2.150788 1_555
Li5 O0 2.207539 1_564
Li5 O5 2.275568 1_565
Li6 O6 2.032092 1_556
Li6 O0 2.084503 1_455
Li6 O13 2.125563 1_545
Li6 O2 2.150788 1_555
Li6 O15 2.207539 1_546
Li6 O14 2.275568 1_545
Li7 O6 1.994839 1_565
Li7 O12 2.120063 1_555
Li7 O11 2.147337 1_555
Li7 O5 2.160303 1_465
Li7 O7 2.231818 1_555
Li7 O15 2.388311 1_555
Li8 O15 2.070240 1_555
Li8 O0 2.070240 1_554
Li8 O13 2.074616 1_554
Li8 O6 2.074616 1_555
Li8 O12 2.224889 1_555
Li8 O2 2.224889 1_554
Mn0 O13 1.889231 1_455
Mn0 O15 1.920087 1_556
Mn0 O0 1.921618 1_455
Mn0 O14 1.960248 1_555
Mn0 O2 1.973273 1_555
Mn0 O1 2.044353 1_455
Mn1 O6 1.889231 1_655
Mn1 O0 1.920087 1_554
Mn1 O15 1.921618 1_655
Mn1 O5 1.960248 1_555
Mn1 O12 1.973273 1_555
Mn1 O11 2.044353 1_655
Mn2 O8 1.943767 1_465
Mn2 O3 1.954820 1_555
Mn2 O10 1.969903 1_565
Mn2 O1 1.994484 1_455
Mn2 O14 2.264983 1_555
Mn2 O4 2.331854 1_455
Mn3 O7 1.943767 1_645
Mn3 O9 1.954820 1_555
Mn3 O4 1.969903 1_545
Mn3 O11 1.994484 1_655
Mn3 O5 2.264983 1_555
Mn3 O10 2.331854 1_655
Mn4 O3 1.946910 1_545
Mn4 O9 1.946910 1_555
Mn4 O10 1.965964 1_555
Mn4 O4 1.965964 1_545
Mn4 O8 2.311127 1_555
Mn4 O7 2.311127 1_545
Mn5 O12 1.911857 1_555
Mn5 O5 1.947521 1_555
Mn5 O7 1.986715 1_545
Mn5 O11 1.995009 1_555
Mn5 O6 2.154535 1_555
Mn5 O9 2.424622 1_555
Mn6 O2 1.911857 1_555
Mn6 O14 1.947521 1_555
Mn6 O8 1.986715 1_565
Mn6 O1 1.995009 1_555
Mn6 O13 2.154535 1_555
Mn6 O3 2.424622 1_555
