# generated using pymatgen
data_HoAlNi4
_symmetry_space_group_name_H-M   'P 1'
_cell_length_a   5.01928497
_cell_length_b   5.01928497
_cell_length_c   3.85204500
_cell_angle_alpha   90.00000000
_cell_angle_beta   90.00000000
_cell_angle_gamma   119.99998647
_symmetry_Int_Tables_number   1
_chemical_formula_structural   HoAlNi4
_chemical_formula_sum   'Ho1 Al1 Ni4'
_cell_volume   84.04381352
_cell_formula_units_Z   1
loop_
 _symmetry_equiv_pos_site_id
 _symmetry_equiv_pos_as_xyz
  1  'x, y, z'
loop_
 _atom_site_type_symbol
 _atom_site_label
 _atom_site_symmetry_multiplicity
 _atom_site_fract_x
 _atom_site_fract_y
 _atom_site_fract_z
 _atom_site_occupancy
  Ho  Ho0  1  0.66666700  0.33333300  0.00000000  1
  Al  Al0  1  0.00000000  0.00000000  0.00000000  1
  Ni  Ni0  1  0.33333300  0.66666700  0.00000000  1
  Ni  Ni1  1  0.16841700  0.33683400  0.50000000  1
  Ni  Ni2  1  0.66316600  0.83158300  0.50000000  1
  Ni  Ni3  1  0.16841700  0.83158300  0.50000000  1
loop_
_geom_bond_atom_site_label_1
_geom_bond_atom_site_label_2
_geom_bond_distance
_geom_bond_site_symmetry_2
Ho0 Ni0 2.897883 1_545
Ho0 Ni0 2.897883 1_655
Ho0 Ni0 2.897891 1_555
Ho0 Ni1 3.163556 1_654
Ho0 Ni1 3.163556 1_655
Ho0 Ni2 3.163556 1_544
Ho0 Ni2 3.163556 1_545
Ho0 Ni3 3.163558 1_544
Ho0 Ni3 3.163558 1_654
Ho0 Ni3 3.163558 1_655
Ho0 Ni3 3.163558 1_545
Ho0 Ni2 3.163560 1_554
Ho0 Ni2 3.163560 1_555
Ho0 Ni1 3.163560 1_554
Ho0 Ni1 3.163560 1_555
Al0 Ni3 2.419365 1_545
Al0 Ni3 2.419365 1_544
Al0 Ni2 2.419365 1_445
Al0 Ni2 2.419365 1_444
Al0 Ni1 2.419365 1_554
Al0 Ni1 2.419365 1_555
Al0 Ho0 2.897882 1_455
Al0 Ni0 2.897882 1_545
Al0 Ho0 2.897887 1_555
Al0 Ni0 2.897887 1_555
Al0 Ni0 2.897887 1_445
Al0 Ho0 2.897887 1_445
Ni0 Ni3 2.401067 1_555
Ni0 Ni3 2.401067 1_554
Ni0 Ni2 2.401070 1_554
Ni0 Ni1 2.401070 1_555
Ni0 Ni1 2.401070 1_554
Ni0 Ni2 2.401070 1_555
Ni1 Ni3 2.483286 1_555
Ni1 Ni2 2.483287 1_555
Ni1 Ni3 2.535999 1_545
Ni1 Ni2 2.535999 1_445
Ni2 Ni3 2.483286 1_555
Ni2 Ni3 2.535999 1_655
