# generated using pymatgen
data_CePu
_symmetry_space_group_name_H-M   'P 1'
_cell_length_a   11.21856044
_cell_length_b   11.21856044
_cell_length_c   11.21856019
_cell_angle_alpha   34.17073291
_cell_angle_beta   34.17073291
_cell_angle_gamma   34.17072802
_symmetry_Int_Tables_number   1
_chemical_formula_structural   CePu
_chemical_formula_sum   'Ce8 Pu8'
_cell_volume   397.14061360
_cell_formula_units_Z   8
loop_
 _symmetry_equiv_pos_site_id
 _symmetry_equiv_pos_as_xyz
  1  'x, y, z'
loop_
 _atom_site_type_symbol
 _atom_site_label
 _atom_site_symmetry_multiplicity
 _atom_site_fract_x
 _atom_site_fract_y
 _atom_site_fract_z
 _atom_site_occupancy
  Ce  Ce0_0  1  0.00000000  0.00000000  0.00000000  1
  Ce  Ce0_1  1  0.00000000  0.00000000  0.50000000  1
  Ce  Ce0_2  1  1.00000000  0.50000000  0.00000000  1
  Ce  Ce0_3  1  1.00000000  0.50000000  0.50000000  1
  Ce  Ce0_4  1  0.50000000  0.00000000  0.00000000  1
  Ce  Ce0_5  1  0.50000000  1.00000000  0.50000000  1
  Ce  Ce0_6  1  0.50000000  0.50000000  0.00000000  1
  Ce  Ce0_7  1  0.50000000  0.50000000  0.50000000  1
  Pu  Pu0_0  1  0.25000000  0.25000000  0.25000000  1
  Pu  Pu0_1  1  0.25000000  0.25000000  0.75000000  1
  Pu  Pu0_2  1  0.25000000  0.75000000  0.25000000  1
  Pu  Pu0_3  1  0.25000000  0.75000000  0.75000000  1
  Pu  Pu0_4  1  0.75000000  0.25000000  0.25000000  1
  Pu  Pu0_5  1  0.75000000  0.25000000  0.75000000  1
  Pu  Pu0_6  1  0.75000000  0.75000000  0.25000000  1
  Pu  Pu0_7  1  0.75000000  0.75000000  0.75000000  1
loop_
_geom_bond_atom_site_label_1
_geom_bond_atom_site_label_2
_geom_bond_distance
_geom_bond_site_symmetry_2
Ce0_0 Pu0_2 3.252977 1_545
Ce0_0 Pu0_4 3.252977 1_455
Ce0_0 Pu0_5 3.252977 1_454
Ce0_0 Pu0_3 3.252977 1_544
Ce0_0 Pu0_1 3.252977 1_554
Ce0_0 Pu0_6 3.252977 1_445
Ce0_0 Ce0_6 3.295970 1_545
Ce0_0 Ce0_6 3.295970 1_455
Ce0_0 Ce0_3 3.295970 1_445
Ce0_0 Ce0_5 3.295970 1_445
Ce0_0 Ce0_5 3.295970 1_544
Ce0_0 Ce0_3 3.295970 1_454
Ce0_1 Pu0_3 3.252977 1_545
Ce0_1 Pu0_5 3.252977 1_455
Ce0_1 Pu0_2 3.252977 1_545
Ce0_1 Pu0_4 3.252977 1_455
Ce0_1 Pu0_0 3.252977 1_555
Ce0_1 Pu0_7 3.252977 1_445
Ce0_1 Ce0_7 3.295970 1_455
Ce0_1 Ce0_7 3.295970 1_545
Ce0_1 Ce0_4 3.295970 1_555
Ce0_1 Ce0_2 3.295970 1_455
Ce0_1 Ce0_4 3.295970 1_456
Ce0_1 Ce0_2 3.295970 1_446
Ce0_2 Pu0_6 3.252977 1_555
Ce0_2 Pu0_1 3.252977 1_654
Ce0_2 Pu0_0 3.252977 1_655
Ce0_2 Pu0_7 3.252977 1_554
Ce0_2 Pu0_4 3.252977 1_555
Ce0_2 Pu0_3 3.252977 1_654
Ce0_2 Ce0_4 3.295970 1_565
Ce0_2 Ce0_4 3.295970 1_655
Ce0_2 Ce0_7 3.295970 1_555
Ce0_2 Ce0_7 3.295970 1_654
Ce0_3 Pu0_7 3.252977 1_555
Ce0_3 Pu0_0 3.252977 1_655
Ce0_3 Pu0_6 3.252977 1_555
Ce0_3 Pu0_1 3.252977 1_655
Ce0_3 Pu0_5 3.252977 1_555
Ce0_3 Pu0_2 3.252977 1_655
Ce0_3 Ce0_5 3.295970 1_555
Ce0_3 Ce0_5 3.295970 1_645
Ce0_3 Ce0_6 3.295970 1_556
Ce0_3 Ce0_6 3.295970 1_655
Ce0_4 Pu0_6 3.252977 1_545
Ce0_4 Pu0_1 3.252977 1_554
Ce0_4 Pu0_0 3.252977 1_555
Ce0_4 Pu0_7 3.252977 1_544
Ce0_4 Pu0_2 3.252977 1_545
Ce0_4 Pu0_5 3.252977 1_554
Ce0_4 Ce0_7 3.295970 1_554
Ce0_4 Ce0_7 3.295970 1_545
Ce0_5 Pu0_7 3.252977 1_555
Ce0_5 Pu0_6 3.252977 1_555
Ce0_5 Pu0_0 3.252977 1_565
Ce0_5 Pu0_1 3.252977 1_565
Ce0_5 Pu0_3 3.252977 1_555
Ce0_5 Pu0_4 3.252977 1_565
Ce0_5 Ce0_6 3.295970 1_556
Ce0_5 Ce0_6 3.295970 1_565
Ce0_6 Pu0_4 3.252977 1_555
Ce0_6 Pu0_2 3.252977 1_555
Ce0_6 Pu0_5 3.252977 1_554
Ce0_6 Pu0_3 3.252977 1_554
Ce0_6 Pu0_7 3.252977 1_554
Ce0_6 Pu0_0 3.252977 1_555
Ce0_7 Pu0_2 3.252977 1_555
Ce0_7 Pu0_4 3.252977 1_555
Ce0_7 Pu0_3 3.252977 1_555
Ce0_7 Pu0_5 3.252977 1_555
Ce0_7 Pu0_1 3.252977 1_555
Ce0_7 Pu0_6 3.252977 1_555
Pu0_0 Pu0_6 3.295970 1_545
Pu0_0 Pu0_6 3.295970 1_455
Pu0_0 Pu0_3 3.295970 1_545
Pu0_0 Pu0_5 3.295970 1_455
Pu0_0 Pu0_3 3.295970 1_554
Pu0_0 Pu0_5 3.295970 1_554
Pu0_1 Pu0_7 3.295970 1_545
Pu0_1 Pu0_7 3.295970 1_455
Pu0_1 Pu0_4 3.295970 1_555
Pu0_1 Pu0_2 3.295970 1_555
Pu0_1 Pu0_2 3.295970 1_546
Pu0_1 Pu0_4 3.295970 1_456
Pu0_2 Pu0_4 3.295970 1_555
Pu0_2 Pu0_4 3.295970 1_465
Pu0_2 Pu0_7 3.295970 1_455
Pu0_2 Pu0_7 3.295970 1_554
Pu0_3 Pu0_5 3.295970 1_465
Pu0_3 Pu0_5 3.295970 1_555
Pu0_3 Pu0_6 3.295970 1_555
Pu0_3 Pu0_6 3.295970 1_456
Pu0_4 Pu0_7 3.295970 1_554
Pu0_4 Pu0_7 3.295970 1_545
Pu0_5 Pu0_6 3.295970 1_555
Pu0_5 Pu0_6 3.295970 1_546
