# generated using pymatgen
data_BaSiC
_symmetry_space_group_name_H-M   'P 1'
_cell_length_a   6.17744400
_cell_length_b   8.30996800
_cell_length_c   11.08784800
_cell_angle_alpha   90.00000000
_cell_angle_beta   90.00000000
_cell_angle_gamma   90.00000000
_symmetry_Int_Tables_number   1
_chemical_formula_structural   BaSiC
_chemical_formula_sum   'Ba8 Si8 C8'
_cell_volume   569.18760261
_cell_formula_units_Z   8
loop_
 _symmetry_equiv_pos_site_id
 _symmetry_equiv_pos_as_xyz
  1  'x, y, z'
loop_
 _atom_site_type_symbol
 _atom_site_label
 _atom_site_symmetry_multiplicity
 _atom_site_fract_x
 _atom_site_fract_y
 _atom_site_fract_z
 _atom_site_occupancy
  Ba  Ba0  1  0.25000000  0.02021900  0.29960400  1
  Ba  Ba1  1  0.25000000  0.52021900  0.20039600  1
  Ba  Ba2  1  0.75000000  0.97978100  0.70039600  1
  Ba  Ba3  1  0.75000000  0.47978100  0.79960400  1
  Ba  Ba4  1  0.25000000  0.84030000  0.88959300  1
  Ba  Ba5  1  0.25000000  0.34030000  0.61040700  1
  Ba  Ba6  1  0.75000000  0.15970000  0.11040700  1
  Ba  Ba7  1  0.75000000  0.65970000  0.38959300  1
  Si  Si0  1  0.25000000  0.42126600  0.90179200  1
  Si  Si1  1  0.25000000  0.92126600  0.59820800  1
  Si  Si2  1  0.75000000  0.57873400  0.09820800  1
  Si  Si3  1  0.75000000  0.07873400  0.40179200  1
  Si  Si4  1  0.25000000  0.18797100  0.01432000  1
  Si  Si5  1  0.25000000  0.68797100  0.48568000  1
  Si  Si6  1  0.75000000  0.81202900  0.98568000  1
  Si  Si7  1  0.75000000  0.31202900  0.51432000  1
  C  C0  1  0.12836100  0.20843900  0.84794800  1
  C  C1  1  0.37163900  0.70843900  0.65205200  1
  C  C2  1  0.62836100  0.79156100  0.15205200  1
  C  C3  1  0.87163900  0.29156100  0.34794800  1
  C  C4  1  0.87163900  0.79156100  0.15205200  1
  C  C5  1  0.62836100  0.29156100  0.34794800  1
  C  C6  1  0.37163900  0.20843900  0.84794800  1
  C  C7  1  0.12836100  0.70843900  0.65205200  1
loop_
_geom_bond_atom_site_label_1
_geom_bond_atom_site_label_2
_geom_bond_distance
_geom_bond_site_symmetry_2
Ba0 C5 3.291601 1_555
Ba0 C3 3.291601 1_455
Ba0 Si3 3.325724 1_455
Ba0 Si3 3.325724 1_555
Ba0 Si1 3.411461 1_545
Ba0 C4 3.427847 1_445
Ba0 C2 3.427847 1_545
Ba0 Si5 3.446691 1_545
Ba0 Si4 3.456735 1_555
Ba1 C4 3.291601 1_455
Ba1 C2 3.291601 1_555
Ba1 Si2 3.325724 1_455
Ba1 Si2 3.325724 1_555
Ba1 Si0 3.411461 1_554
Ba1 C5 3.427847 1_555
Ba1 C3 3.427847 1_455
Ba1 Si4 3.446691 1_555
Ba1 Si5 3.456735 1_555
Ba2 C7 3.291601 1_655
Ba2 C1 3.291601 1_555
Ba2 Si1 3.325724 1_555
Ba2 Si1 3.325724 1_655
Ba2 Si3 3.411461 1_565
Ba2 C0 3.427847 1_665
Ba2 C6 3.427847 1_565
Ba2 Si7 3.446691 1_565
Ba2 Si6 3.456735 1_555
Ba3 C0 3.291601 1_655
Ba3 C6 3.291601 1_555
Ba3 Si0 3.325724 1_555
Ba3 Si0 3.325724 1_655
Ba3 Si2 3.411461 1_556
Ba3 C7 3.427847 1_655
Ba3 C1 3.427847 1_555
Ba3 Si6 3.446691 1_555
Ba3 Si7 3.456735 1_555
Ba4 C7 2.949970 1_555
Ba4 C1 2.949970 1_555
Ba4 C0 3.183817 1_565
Ba4 C6 3.183817 1_565
Ba4 Si4 3.203071 1_566
Ba4 Si6 3.275739 1_555
Ba4 Si6 3.275739 1_455
Ba4 Si1 3.300147 1_555
Ba4 Si0 3.484785 1_555
Ba5 C6 2.949970 1_555
Ba5 C0 2.949970 1_555
Ba5 C7 3.183817 1_555
Ba5 C1 3.183817 1_555
Ba5 Si5 3.203071 1_555
Ba5 Si7 3.275739 1_555
Ba5 Si7 3.275739 1_455
Ba5 Si0 3.300147 1_555
Ba5 Si1 3.484785 1_545
Ba6 C3 2.949970 1_555
Ba6 C5 2.949970 1_555
Ba6 C4 3.183817 1_545
Ba6 C2 3.183817 1_545
Ba6 Si6 3.203071 1_544
Ba6 Si4 3.275739 1_655
Ba6 Si4 3.275739 1_555
Ba6 Si3 3.300147 1_555
Ba6 Si2 3.484785 1_555
Ba7 C2 2.949970 1_555
Ba7 C4 2.949970 1_555
Ba7 C3 3.183817 1_555
Ba7 C5 3.183817 1_555
Ba7 Si7 3.203071 1_555
Ba7 Si5 3.275739 1_655
Ba7 Si5 3.275739 1_555
Ba7 Si2 3.300147 1_555
Ba7 Si3 3.484785 1_565
C0 C6 1.502836 1_555
C0 Si4 1.999126 1_556
C0 Si0 2.012200 1_555
C1 C7 1.502836 1_555
C1 Si5 1.999126 1_555
C1 Si1 2.012200 1_555
C2 C4 1.502836 1_555
C2 Si6 1.999126 1_554
C2 Si2 2.012200 1_555
C3 C5 1.502836 1_555
C3 Si7 1.999126 1_555
C3 Si3 2.012200 1_555
C4 Si6 1.999126 1_554
C4 Si2 2.012200 1_555
C5 Si7 1.999126 1_555
C5 Si3 2.012200 1_555
C6 Si4 1.999126 1_556
C6 Si0 2.012200 1_555
C7 Si5 1.999126 1_555
C7 Si1 2.012200 1_555
