# generated using pymatgen
data_LiB3O5
_symmetry_space_group_name_H-M   'P 1'
_cell_length_a   7.66886900
_cell_length_b   8.38602600
_cell_length_c   17.44029700
_cell_angle_alpha   90.00000000
_cell_angle_beta   90.00000000
_cell_angle_gamma   90.00000000
_symmetry_Int_Tables_number   1
_chemical_formula_structural   LiB3O5
_chemical_formula_sum   'Li16 B48 O80'
_cell_volume   1121.60877981
_cell_formula_units_Z   16
loop_
 _symmetry_equiv_pos_site_id
 _symmetry_equiv_pos_as_xyz
  1  'x, y, z'
loop_
 _atom_site_type_symbol
 _atom_site_label
 _atom_site_symmetry_multiplicity
 _atom_site_fract_x
 _atom_site_fract_y
 _atom_site_fract_z
 _atom_site_occupancy
  Li  Li0  1  0.25000000  0.70007100  0.84161100  1
  Li  Li1  1  0.25000000  0.20007100  0.65838900  1
  Li  Li2  1  0.75000000  0.29992900  0.15838900  1
  Li  Li3  1  0.75000000  0.79992900  0.34161100  1
  Li  Li4  1  0.25000000  0.77308300  0.12467100  1
  Li  Li5  1  0.25000000  0.27308300  0.37532900  1
  Li  Li6  1  0.75000000  0.22691700  0.87532900  1
  Li  Li7  1  0.75000000  0.72691700  0.62467100  1
  Li  Li8  1  0.25000000  0.96464200  0.46568100  1
  Li  Li9  1  0.25000000  0.46464200  0.03431900  1
  Li  Li10  1  0.75000000  0.03535800  0.53431900  1
  Li  Li11  1  0.75000000  0.53535800  0.96568100  1
  Li  Li12  1  0.25000000  0.10437700  0.95662900  1
  Li  Li13  1  0.25000000  0.60437700  0.54337100  1
  Li  Li14  1  0.75000000  0.89562300  0.04337100  1
  Li  Li15  1  0.75000000  0.39562300  0.45662900  1
  B  B0  1  0.07543300  0.57085500  0.39036400  1
  B  B1  1  0.42456700  0.07085500  0.10963600  1
  B  B2  1  0.57543300  0.42914500  0.60963600  1
  B  B3  1  0.92456700  0.92914500  0.89036400  1
  B  B4  1  0.92456700  0.42914500  0.60963600  1
  B  B5  1  0.57543300  0.92914500  0.89036400  1
  B  B6  1  0.42456700  0.57085500  0.39036400  1
  B  B7  1  0.07543300  0.07085500  0.10963600  1
  B  B8  1  0.57793600  0.60461400  0.10744500  1
  B  B9  1  0.92206400  0.10461400  0.39255500  1
  B  B10  1  0.07793600  0.39538600  0.89255500  1
  B  B11  1  0.42206400  0.89538600  0.60744500  1
  B  B12  1  0.42206400  0.39538600  0.89255500  1
  B  B13  1  0.07793600  0.89538600  0.60744500  1
  B  B14  1  0.92206400  0.60461400  0.10744500  1
  B  B15  1  0.57793600  0.10461400  0.39255500  1
  B  B16  1  0.07931100  0.62115000  0.24392400  1
  B  B17  1  0.42068900  0.12115000  0.25607600  1
  B  B18  1  0.57931100  0.37885000  0.75607600  1
  B  B19  1  0.92068900  0.87885000  0.74392400  1
  B  B20  1  0.92068900  0.37885000  0.75607600  1
  B  B21  1  0.57931100  0.87885000  0.74392400  1
  B  B22  1  0.42068900  0.62115000  0.24392400  1
  B  B23  1  0.07931100  0.12115000  0.25607600  1
  B  B24  1  0.08179800  0.76158700  0.99217500  1
  B  B25  1  0.41820200  0.26158700  0.50782500  1
  B  B26  1  0.58179800  0.23841300  0.00782500  1
  B  B27  1  0.91820200  0.73841300  0.49217500  1
  B  B28  1  0.91820200  0.23841300  0.00782500  1
  B  B29  1  0.58179800  0.73841300  0.49217500  1
  B  B30  1  0.41820200  0.76158700  0.99217500  1
  B  B31  1  0.08179800  0.26158700  0.50782500  1
  B  B32  1  0.07864200  0.86841900  0.33091700  1
  B  B33  1  0.42135800  0.36841900  0.16908300  1
  B  B34  1  0.57864200  0.13158100  0.66908300  1
  B  B35  1  0.92135800  0.63158100  0.83091700  1
  B  B36  1  0.92135800  0.13158100  0.66908300  1
  B  B37  1  0.57864200  0.63158100  0.83091700  1
  B  B38  1  0.42135800  0.86841900  0.33091700  1
  B  B39  1  0.07864200  0.36841900  0.16908300  1
  B  B40  1  0.58334100  0.87602800  0.19361800  1
  B  B41  1  0.91665900  0.37602800  0.30638200  1
  B  B42  1  0.08334100  0.12397200  0.80638200  1
  B  B43  1  0.41665900  0.62397200  0.69361800  1
  B  B44  1  0.41665900  0.12397200  0.80638200  1
  B  B45  1  0.08334100  0.62397200  0.69361800  1
  B  B46  1  0.91665900  0.87602800  0.19361800  1
  B  B47  1  0.58334100  0.37602800  0.30638200  1
  O  O0  1  0.05502800  0.56455100  0.88029600  1
  O  O1  1  0.44497200  0.06455100  0.61970400  1
  O  O2  1  0.55502800  0.43544900  0.11970400  1
  O  O3  1  0.94497200  0.93544900  0.38029600  1
  O  O4  1  0.94497200  0.43544900  0.11970400  1
  O  O5  1  0.55502800  0.93544900  0.38029600  1
  O  O6  1  0.44497200  0.56455100  0.88029600  1
  O  O7  1  0.05502800  0.06455100  0.61970400  1
  O  O8  1  0.06648000  0.65765700  0.05303700  1
  O  O9  1  0.43352000  0.15765700  0.44696300  1
  O  O10  1  0.56648000  0.34234300  0.94696300  1
  O  O11  1  0.93352000  0.84234300  0.55303700  1
  O  O12  1  0.93352000  0.34234300  0.94696300  1
  O  O13  1  0.56648000  0.84234300  0.55303700  1
  O  O14  1  0.43352000  0.65765700  0.05303700  1
  O  O15  1  0.06648000  0.15765700  0.44696300  1
  O  O16  1  0.05809000  0.66078800  0.46151700  1
  O  O17  1  0.44191000  0.16078800  0.03848300  1
  O  O18  1  0.55809000  0.33921200  0.53848300  1
  O  O19  1  0.94191000  0.83921200  0.96151700  1
  O  O20  1  0.94191000  0.33921200  0.53848300  1
  O  O21  1  0.55809000  0.83921200  0.96151700  1
  O  O22  1  0.44191000  0.66078800  0.46151700  1
  O  O23  1  0.05809000  0.16078800  0.03848300  1
  O  O24  1  0.03453400  0.69262200  0.32040200  1
  O  O25  1  0.46546600  0.19262200  0.17959800  1
  O  O26  1  0.53453400  0.30737800  0.67959800  1
  O  O27  1  0.96546600  0.80737800  0.82040200  1
  O  O28  1  0.96546600  0.30737800  0.67959800  1
  O  O29  1  0.53453400  0.80737800  0.82040200  1
  O  O30  1  0.46546600  0.69262200  0.32040200  1
  O  O31  1  0.03453400  0.19262200  0.17959800  1
  O  O32  1  0.54250900  0.69299000  0.18505500  1
  O  O33  1  0.95749100  0.19299000  0.31494500  1
  O  O34  1  0.04250900  0.30701000  0.81494500  1
  O  O35  1  0.45749100  0.80701000  0.68505500  1
  O  O36  1  0.45749100  0.30701000  0.81494500  1
  O  O37  1  0.04250900  0.80701000  0.68505500  1
  O  O38  1  0.95749100  0.69299000  0.18505500  1
  O  O39  1  0.54250900  0.19299000  0.31494500  1
  O  O40  1  0.05273100  0.94359500  0.25115800  1
  O  O41  1  0.44726900  0.44359500  0.24884200  1
  O  O42  1  0.55273100  0.05640500  0.74884200  1
  O  O43  1  0.94726900  0.55640500  0.75115800  1
  O  O44  1  0.94726900  0.05640500  0.74884200  1
  O  O45  1  0.55273100  0.55640500  0.75115800  1
  O  O46  1  0.44726900  0.94359500  0.25115800  1
  O  O47  1  0.05273100  0.44359500  0.24884200  1
  O  O48  1  0.55581600  0.94939000  0.12061100  1
  O  O49  1  0.94418400  0.44939000  0.37938900  1
  O  O50  1  0.05581600  0.05061000  0.87938900  1
  O  O51  1  0.44418400  0.55061000  0.62061100  1
  O  O52  1  0.44418400  0.05061000  0.87938900  1
  O  O53  1  0.05581600  0.55061000  0.62061100  1
  O  O54  1  0.94418400  0.94939000  0.12061100  1
  O  O55  1  0.55581600  0.44939000  0.37938900  1
  O  O56  1  0.25000000  0.50618300  0.38389500  1
  O  O57  1  0.25000000  0.00618300  0.11610500  1
  O  O58  1  0.75000000  0.49381700  0.61610500  1
  O  O59  1  0.75000000  0.99381700  0.88389500  1
  O  O60  1  0.25000000  0.60806500  0.72869800  1
  O  O61  1  0.25000000  0.10806500  0.77130200  1
  O  O62  1  0.75000000  0.39193500  0.27130200  1
  O  O63  1  0.75000000  0.89193500  0.22869800  1
  O  O64  1  0.25000000  0.66097200  0.21949900  1
  O  O65  1  0.25000000  0.16097200  0.28050100  1
  O  O66  1  0.75000000  0.33902800  0.78050100  1
  O  O67  1  0.75000000  0.83902800  0.71949900  1
  O  O68  1  0.25000000  0.79974600  0.96528400  1
  O  O69  1  0.25000000  0.29974600  0.53471600  1
  O  O70  1  0.75000000  0.20025400  0.03471600  1
  O  O71  1  0.75000000  0.70025400  0.46528400  1
  O  O72  1  0.25000000  0.85528500  0.57649700  1
  O  O73  1  0.25000000  0.35528500  0.92350300  1
  O  O74  1  0.75000000  0.14471500  0.42350300  1
  O  O75  1  0.75000000  0.64471500  0.07649700  1
  O  O76  1  0.25000000  0.89129400  0.36067000  1
  O  O77  1  0.25000000  0.39129400  0.13933000  1
  O  O78  1  0.75000000  0.10870600  0.63933000  1
  O  O79  1  0.75000000  0.60870600  0.86067000  1
loop_
_geom_bond_atom_site_label_1
_geom_bond_atom_site_label_2
_geom_bond_distance
_geom_bond_site_symmetry_2
Li0 O6 1.995603 1_555
Li0 O0 1.995603 1_555
Li0 O60 2.114995 1_555
Li0 O68 2.313197 1_555
Li0 O29 2.389134 1_555
Li0 O27 2.389134 1_455
Li1 O7 1.995603 1_555
Li1 O1 1.995603 1_555
Li1 O61 2.114995 1_555
Li1 O69 2.313197 1_555
Li1 O26 2.389134 1_555
Li1 O28 2.389134 1_455
Li2 O4 1.995603 1_555
Li2 O2 1.995603 1_555
Li2 O62 2.114995 1_555
Li2 O70 2.313197 1_555
Li2 O31 2.389134 1_655
Li2 O25 2.389134 1_555
Li3 O3 1.995603 1_555
Li3 O5 1.995603 1_555
Li3 O63 2.114995 1_555
Li3 O71 2.313197 1_555
Li3 O24 2.389134 1_655
Li3 O30 2.389134 1_555
Li4 O64 1.902383 1_555
Li4 O57 1.960483 1_565
Li4 O8 2.116247 1_555
Li4 O14 2.116247 1_555
Li5 O65 1.902383 1_555
Li5 O56 1.960483 1_555
Li5 O15 2.116247 1_555
Li5 O9 2.116247 1_555
Li6 O66 1.902383 1_555
Li6 O59 1.960483 1_545
Li6 O10 2.116247 1_555
Li6 O12 2.116247 1_555
Li7 O67 1.902383 1_555
Li7 O58 1.960483 1_555
Li7 O13 2.116247 1_555
Li7 O11 2.116247 1_555
Li8 O76 1.931957 1_555
Li8 O72 2.139207 1_555
Li8 O9 2.169626 1_565
Li8 O15 2.169626 1_565
Li9 O77 1.931957 1_555
Li9 O73 2.139207 1_554
Li9 O8 2.169626 1_555
Li9 O14 2.169626 1_555
Li10 O78 1.931957 1_555
Li10 O74 2.139207 1_555
Li10 O13 2.169626 1_545
Li10 O11 2.169626 1_545
Li11 O79 1.931957 1_555
Li11 O75 2.139207 1_556
Li11 O10 2.169626 1_555
Li11 O12 2.169626 1_555
Li12 O52 2.058053 1_555
Li12 O50 2.058053 1_555
Li12 O17 2.104212 1_556
Li12 O23 2.104212 1_556
Li12 O73 2.181993 1_555
Li12 O68 2.559099 1_545
Li13 O51 2.058053 1_555
Li13 O53 2.058053 1_555
Li13 O16 2.104212 1_555
Li13 O22 2.104212 1_555
Li13 O72 2.181993 1_555
Li13 O69 2.559099 1_555
Li14 O54 2.058053 1_555
Li14 O48 2.058053 1_555
Li14 O21 2.104212 1_554
Li14 O19 2.104212 1_554
Li14 O75 2.181993 1_555
Li14 O70 2.559099 1_565
Li15 O49 2.058053 1_555
Li15 O55 2.058053 1_555
Li15 O18 2.104212 1_555
Li15 O20 2.104212 1_555
Li15 O74 2.181993 1_555
Li15 O71 2.559099 1_555
B0 O49 1.444751 1_455
B0 O56 1.448815 1_555
B0 O16 1.458212 1_555
B0 O24 1.621694 1_555
B1 O48 1.444751 1_545
B1 O57 1.448815 1_555
B1 O17 1.458212 1_555
B1 O25 1.621694 1_555
B2 O51 1.444751 1_555
B2 O58 1.448815 1_555
B2 O18 1.458212 1_555
B2 O26 1.621694 1_555
B3 O50 1.444751 1_665
B3 O59 1.448815 1_555
B3 O19 1.458212 1_555
B3 O27 1.621694 1_555
B4 O53 1.444751 1_655
B4 O58 1.448815 1_555
B4 O20 1.458212 1_555
B4 O28 1.621694 1_555
B5 O52 1.444751 1_565
B5 O59 1.448815 1_555
B5 O21 1.458212 1_555
B5 O29 1.621694 1_555
B6 O55 1.444751 1_555
B6 O56 1.448815 1_555
B6 O22 1.458212 1_555
B6 O30 1.621694 1_555
B7 O54 1.444751 1_445
B7 O57 1.448815 1_555
B7 O23 1.458212 1_555
B7 O31 1.621694 1_555
B8 O2 1.445359 1_555
B8 O75 1.464782 1_555
B8 O14 1.524740 1_555
B8 O32 1.566892 1_555
B9 O3 1.445359 1_545
B9 O74 1.464782 1_555
B9 O15 1.524740 1_655
B9 O33 1.566892 1_555
B10 O0 1.445359 1_555
B10 O73 1.464782 1_555
B10 O12 1.524740 1_455
B10 O34 1.566892 1_555
B11 O1 1.445359 1_565
B11 O72 1.464782 1_555
B11 O13 1.524740 1_555
B11 O35 1.566892 1_555
B12 O6 1.445359 1_555
B12 O73 1.464782 1_555
B12 O10 1.524740 1_555
B12 O36 1.566892 1_555
B13 O7 1.445359 1_565
B13 O72 1.464782 1_555
B13 O11 1.524740 1_455
B13 O37 1.566892 1_555
B14 O4 1.445359 1_555
B14 O75 1.464782 1_555
B14 O8 1.524740 1_655
B14 O38 1.566892 1_555
B15 O5 1.445359 1_545
B15 O74 1.464782 1_555
B15 O9 1.524740 1_555
B15 O39 1.566892 1_555
B16 O64 1.416488 1_555
B16 O24 1.502057 1_555
B16 O47 1.505314 1_555
B16 O38 1.513214 1_455
B17 O65 1.416488 1_555
B17 O25 1.502057 1_555
B17 O46 1.505314 1_545
B17 O39 1.513214 1_555
B18 O66 1.416488 1_555
B18 O26 1.502057 1_555
B18 O45 1.505314 1_555
B18 O36 1.513214 1_555
B19 O67 1.416488 1_555
B19 O27 1.502057 1_555
B19 O44 1.505314 1_565
B19 O37 1.513214 1_655
B20 O66 1.416488 1_555
B20 O28 1.502057 1_555
B20 O43 1.505314 1_555
B20 O34 1.513214 1_655
B21 O67 1.416488 1_555
B21 O29 1.502057 1_555
B21 O42 1.505314 1_565
B21 O35 1.513214 1_555
B22 O64 1.416488 1_555
B22 O30 1.502057 1_555
B22 O41 1.505314 1_555
B22 O32 1.513214 1_555
B23 O65 1.416488 1_555
B23 O31 1.502057 1_555
B23 O40 1.505314 1_545
B23 O33 1.513214 1_455
B24 O19 1.364004 1_455
B24 O8 1.378439 1_556
B24 O68 1.409341 1_555
B25 O18 1.364004 1_555
B25 O9 1.378439 1_555
B25 O69 1.409341 1_555
B26 O17 1.364004 1_555
B26 O10 1.378439 1_554
B26 O70 1.409341 1_555
B27 O16 1.364004 1_655
B27 O11 1.378439 1_555
B27 O71 1.409341 1_555
B28 O23 1.364004 1_655
B28 O12 1.378439 1_554
B28 O70 1.409341 1_555
B29 O22 1.364004 1_555
B29 O13 1.378439 1_555
B29 O71 1.409341 1_555
B30 O21 1.364004 1_555
B30 O14 1.378439 1_556
B30 O68 1.409341 1_555
B31 O20 1.364004 1_455
B31 O15 1.378439 1_555
B31 O69 1.409341 1_555
B32 O76 1.425824 1_555
B32 O3 1.452046 1_455
B32 O24 1.523623 1_555
B32 O40 1.540085 1_555
B33 O77 1.425824 1_555
B33 O2 1.452046 1_555
B33 O25 1.523623 1_555
B33 O41 1.540085 1_555
B34 O78 1.425824 1_555
B34 O1 1.452046 1_555
B34 O26 1.523623 1_555
B34 O42 1.540085 1_555
B35 O79 1.425824 1_555
B35 O0 1.452046 1_655
B35 O27 1.523623 1_555
B35 O43 1.540085 1_555
B36 O78 1.425824 1_555
B36 O7 1.452046 1_655
B36 O28 1.523623 1_555
B36 O44 1.540085 1_555
B37 O79 1.425824 1_555
B37 O6 1.452046 1_555
B37 O29 1.523623 1_555
B37 O45 1.540085 1_555
B38 O76 1.425824 1_555
B38 O5 1.452046 1_555
B38 O30 1.523623 1_555
B38 O46 1.540085 1_555
B39 O77 1.425824 1_555
B39 O4 1.452046 1_455
B39 O31 1.523623 1_555
B39 O47 1.540085 1_555
B40 O63 1.423237 1_555
B40 O48 1.429772 1_555
B40 O46 1.554680 1_555
B40 O32 1.573678 1_555
B41 O62 1.423237 1_555
B41 O49 1.429772 1_555
B41 O47 1.554680 1_655
B41 O33 1.573678 1_555
B42 O61 1.423237 1_555
B42 O50 1.429772 1_555
B42 O44 1.554680 1_455
B42 O34 1.573678 1_555
B43 O60 1.423237 1_555
B43 O51 1.429772 1_555
B43 O45 1.554680 1_555
B43 O35 1.573678 1_555
B44 O61 1.423237 1_555
B44 O52 1.429772 1_555
B44 O42 1.554680 1_555
B44 O36 1.573678 1_555
B45 O60 1.423237 1_555
B45 O53 1.429772 1_555
B45 O43 1.554680 1_455
B45 O37 1.573678 1_555
B46 O63 1.423237 1_555
B46 O54 1.429772 1_555
B46 O40 1.554680 1_655
B46 O38 1.573678 1_555
B47 O62 1.423237 1_555
B47 O55 1.429772 1_555
B47 O41 1.554680 1_555
B47 O39 1.573678 1_555
