# generated using pymatgen
data_Ti3N4
_symmetry_space_group_name_H-M   'P 1'
_cell_length_a   8.53460497
_cell_length_b   8.53460497
_cell_length_c   6.33302400
_cell_angle_alpha   90.00000000
_cell_angle_beta   90.00000000
_cell_angle_gamma   120.00000755
_symmetry_Int_Tables_number   1
_chemical_formula_structural   Ti3N4
_chemical_formula_sum   'Ti12 N16'
_cell_volume   399.49245508
_cell_formula_units_Z   4
loop_
 _symmetry_equiv_pos_site_id
 _symmetry_equiv_pos_as_xyz
  1  'x, y, z'
loop_
 _atom_site_type_symbol
 _atom_site_label
 _atom_site_symmetry_multiplicity
 _atom_site_fract_x
 _atom_site_fract_y
 _atom_site_fract_z
 _atom_site_occupancy
  Ti  Ti0  1  0.91499300  0.42007400  0.19115200  1
  Ti  Ti1  1  0.57992600  0.49491900  0.19115200  1
  Ti  Ti2  1  0.50508100  0.08500700  0.19115200  1
  Ti  Ti3  1  0.42007400  0.91499300  0.69115200  1
  Ti  Ti4  1  0.49491900  0.57992600  0.69115200  1
  Ti  Ti5  1  0.08500700  0.50508100  0.69115200  1
  Ti  Ti6  1  0.74576200  0.91910600  0.97782300  1
  Ti  Ti7  1  0.08089400  0.82665600  0.97782300  1
  Ti  Ti8  1  0.17334400  0.25423800  0.97782300  1
  Ti  Ti9  1  0.91910600  0.74576200  0.47782300  1
  Ti  Ti10  1  0.82665600  0.08089400  0.47782300  1
  Ti  Ti11  1  0.25423800  0.17334400  0.47782300  1
  N  N0  1  0.00000000  0.00000000  0.96779200  1
  N  N1  1  0.00000000  0.00000000  0.46779200  1
  N  N2  1  0.66666700  0.33333300  0.12600100  1
  N  N3  1  0.33333300  0.66666700  0.62600100  1
  N  N4  1  0.33916600  0.95507000  0.96236300  1
  N  N5  1  0.04493000  0.38409700  0.96236300  1
  N  N6  1  0.61590300  0.66083400  0.96236300  1
  N  N7  1  0.95507000  0.33916600  0.46236300  1
  N  N8  1  0.38409700  0.04493000  0.46236300  1
  N  N9  1  0.66083400  0.61590300  0.46236300  1
  N  N10  1  0.68437500  0.01316000  0.22583100  1
  N  N11  1  0.98684000  0.67121500  0.22583100  1
  N  N12  1  0.32878500  0.31562500  0.22583100  1
  N  N13  1  0.01316000  0.68437500  0.72583100  1
  N  N14  1  0.67121500  0.98684000  0.72583100  1
  N  N15  1  0.31562500  0.32878500  0.72583100  1
loop_
_geom_bond_atom_site_label_1
_geom_bond_atom_site_label_2
_geom_bond_distance
_geom_bond_site_symmetry_2
N0 Ti8 1.921137 1_555
N0 Ti6 1.921137 1_445
N0 Ti7 1.921137 1_545
N1 Ti11 1.921137 1_555
N1 Ti9 1.921137 1_445
N1 Ti10 1.921137 1_455
N2 Ti0 1.908147 1_555
N2 Ti2 1.908148 1_555
N2 Ti1 1.908155 1_555
N3 Ti3 1.908147 1_555
N3 Ti5 1.908148 1_555
N3 Ti4 1.908155 1_555
N4 Ti7 1.911455 1_555
N4 Ti2 1.940098 1_566
N4 Ti3 1.944246 1_555
N5 Ti8 1.911463 1_555
N5 Ti0 1.940095 1_456
N5 Ti5 1.944243 1_555
N6 Ti6 1.911455 1_555
N6 Ti1 1.940100 1_556
N6 Ti4 1.944243 1_555
N7 Ti10 1.911455 1_555
N7 Ti5 1.940098 1_655
N7 Ti0 1.944246 1_555
N8 Ti11 1.911463 1_555
N8 Ti3 1.940095 1_545
N8 Ti2 1.944243 1_555
N9 Ti9 1.911455 1_555
N9 Ti4 1.940100 1_555
N9 Ti1 1.944243 1_555
N10 Ti10 1.911430 1_555
N10 Ti2 1.924592 1_555
N10 Ti6 1.950974 1_544
N11 Ti9 1.911430 1_555
N11 Ti0 1.924591 1_555
N11 Ti7 1.950974 1_654
N12 Ti11 1.911430 1_555
N12 Ti1 1.924591 1_555
N12 Ti8 1.950974 1_554
N13 Ti7 1.911430 1_555
N13 Ti5 1.924592 1_555
N13 Ti9 1.950974 1_455
N14 Ti6 1.911430 1_555
N14 Ti3 1.924591 1_555
N14 Ti10 1.950974 1_565
N15 Ti8 1.911430 1_555
N15 Ti4 1.924591 1_555
N15 Ti11 1.950974 1_555
