# generated using pymatgen
data_Zn(NiS2)4
_symmetry_space_group_name_H-M   'P 1'
_cell_length_a   6.80396767
_cell_length_b   6.80396767
_cell_length_c   6.80396797
_cell_angle_alpha   60.03417237
_cell_angle_beta   60.03417237
_cell_angle_gamma   60.03417509
_symmetry_Int_Tables_number   1
_chemical_formula_structural   Zn(NiS2)4
_chemical_formula_sum   'Zn1 Ni4 S8'
_cell_volume   222.89895438
_cell_formula_units_Z   1
loop_
 _symmetry_equiv_pos_site_id
 _symmetry_equiv_pos_as_xyz
  1  'x, y, z'
loop_
 _atom_site_type_symbol
 _atom_site_label
 _atom_site_symmetry_multiplicity
 _atom_site_fract_x
 _atom_site_fract_y
 _atom_site_fract_z
 _atom_site_occupancy
  Zn  Zn0  1  0.00000000  0.00000000  0.00000000  1
  Ni  Ni0  1  0.50000000  0.50000000  0.50000000  1
  Ni  Ni1  1  0.50000000  0.50000000  0.00000000  1
  Ni  Ni2  1  0.50000000  0.00000000  0.50000000  1
  Ni  Ni3  1  0.00000000  0.50000000  0.50000000  1
  S  S0  1  0.74200800  0.28784100  0.74200800  1
  S  S1  1  0.74200800  0.74200800  0.28784100  1
  S  S2  1  0.28784100  0.74200800  0.74200800  1
  S  S3  1  0.73736400  0.73736400  0.73736400  1
  S  S4  1  0.26263600  0.26263600  0.26263600  1
  S  S5  1  0.25799200  0.25799200  0.71215900  1
  S  S6  1  0.71215900  0.25799200  0.25799200  1
  S  S7  1  0.25799200  0.71215900  0.25799200  1
loop_
_geom_bond_atom_site_label_1
_geom_bond_atom_site_label_2
_geom_bond_distance
_geom_bond_site_symmetry_2
Ni0 S1 2.337955 1_555
Ni0 S5 2.337955 1_555
Ni0 S2 2.337956 1_555
Ni0 S6 2.337956 1_555
Ni0 S7 2.337956 1_555
Ni0 S0 2.337956 1_555
Ni1 S7 2.268439 1_555
Ni1 S2 2.268439 1_554
Ni1 S0 2.268439 1_554
Ni1 S6 2.268439 1_555
Ni1 S4 2.291156 1_555
Ni1 S3 2.291156 1_554
Ni2 S6 2.268439 1_555
Ni2 S2 2.268439 1_545
Ni2 S5 2.268439 1_555
Ni2 S1 2.268439 1_545
Ni2 S3 2.291156 1_545
Ni2 S4 2.291156 1_555
Ni3 S7 2.268439 1_555
Ni3 S0 2.268439 1_455
Ni3 S5 2.268439 1_555
Ni3 S1 2.268439 1_455
Ni3 S4 2.291156 1_555
Ni3 S3 2.291156 1_455
S0 Zn0 2.491548 1_656
S1 Zn0 2.491547 1_665
S2 Zn0 2.491548 1_566
S5 Zn0 2.491547 1_556
S6 Zn0 2.491548 1_655
S7 Zn0 2.491548 1_565
