# generated using pymatgen
data_Er(GaFe)6
_symmetry_space_group_name_H-M   'P 1'
_cell_length_a   5.02610300
_cell_length_b   6.56160086
_cell_length_c   6.56160086
_cell_angle_alpha   80.61384575
_cell_angle_beta   67.48076443
_cell_angle_gamma   67.48076443
_symmetry_Int_Tables_number   1
_chemical_formula_structural   Er(GaFe)6
_chemical_formula_sum   'Er1 Ga6 Fe6'
_cell_volume   184.62078435
_cell_formula_units_Z   1
loop_
 _symmetry_equiv_pos_site_id
 _symmetry_equiv_pos_as_xyz
  1  'x, y, z'
loop_
 _atom_site_type_symbol
 _atom_site_label
 _atom_site_symmetry_multiplicity
 _atom_site_fract_x
 _atom_site_fract_y
 _atom_site_fract_z
 _atom_site_occupancy
  Er  Er0  1  0.00000000  0.00000000  0.00000000  1
  Ga  Ga0  1  0.00000000  0.66648100  0.33351900  1
  Ga  Ga1  1  0.00000000  0.33351900  0.66648100  1
  Ga  Ga2  1  0.34315800  0.65684200  0.65684200  1
  Ga  Ga3  1  0.65684200  0.34315800  0.34315800  1
  Ga  Ga4  1  0.32039600  0.17960400  0.17960400  1
  Ga  Ga5  1  0.67960400  0.82039600  0.82039600  1
  Fe  Fe0  1  0.50000000  0.24378500  0.75621500  1
  Fe  Fe1  1  0.50000000  0.75621500  0.24378500  1
  Fe  Fe2  1  0.00000000  0.50000000  0.00000000  1
  Fe  Fe3  1  0.50000000  0.50000000  0.00000000  1
  Fe  Fe4  1  0.00000000  0.00000000  0.50000000  1
  Fe  Fe5  1  0.50000000  0.00000000  0.50000000  1
loop_
_geom_bond_atom_site_label_1
_geom_bond_atom_site_label_2
_geom_bond_distance
_geom_bond_site_symmetry_2
Er0 Ga0 2.831297 1_545
Er0 Ga1 2.831297 1_554
Er0 Ga4 2.954865 1_555
Er0 Ga5 2.954865 1_444
Er0 Ga5 2.954865 1_544
Er0 Ga4 2.954865 1_455
Er0 Ga3 2.969672 1_455
Er0 Ga2 2.969672 1_544
Ga0 Ga1 2.826568 1_555
Ga2 Ga3 2.714606 1_555
Ga2 Ga5 2.884224 1_555
Ga2 Ga5 2.884225 1_455
Ga3 Ga4 2.884224 1_555
Ga3 Ga4 2.884225 1_655
Fe0 Fe5 2.502462 1_555
Fe0 Fe3 2.502462 1_556
Fe0 Fe4 2.502463 1_655
Fe0 Fe2 2.502463 1_556
Fe0 Ga2 2.563809 1_555
Fe0 Ga3 2.563809 1_555
Fe0 Ga4 2.588195 1_556
Fe0 Ga5 2.588195 1_545
Fe0 Ga1 2.625970 1_555
Fe0 Ga1 2.625970 1_655
Fe1 Fe5 2.502462 1_565
Fe1 Fe3 2.502462 1_555
Fe1 Fe4 2.502463 1_565
Fe1 Fe2 2.502463 1_655
Fe1 Ga2 2.563809 1_555
Fe1 Ga3 2.563809 1_555
Fe1 Ga4 2.588195 1_565
Fe1 Ga5 2.588195 1_554
Fe1 Ga0 2.625970 1_655
Fe1 Ga0 2.625970 1_555
Fe2 Fe3 2.513051 1_555
Fe2 Fe3 2.513051 1_455
Fe2 Ga4 2.540493 1_555
Fe2 Ga5 2.540493 1_454
Fe2 Ga2 2.594785 1_554
Fe2 Ga3 2.594785 1_455
Fe2 Ga1 2.600428 1_554
Fe2 Ga0 2.600428 1_555
Fe3 Ga5 2.540493 1_554
Fe3 Ga4 2.540493 1_555
Fe3 Ga3 2.594785 1_555
Fe3 Ga2 2.594785 1_554
Fe3 Ga1 2.600428 1_654
Fe3 Ga0 2.600428 1_555
Fe4 Fe5 2.513051 1_455
Fe4 Fe5 2.513051 1_555
Fe4 Ga4 2.540493 1_555
Fe4 Ga5 2.540493 1_445
Fe4 Ga2 2.594785 1_545
Fe4 Ga3 2.594785 1_455
Fe4 Ga0 2.600428 1_545
Fe4 Ga1 2.600428 1_555
Fe5 Ga5 2.540493 1_545
Fe5 Ga4 2.540493 1_555
Fe5 Ga3 2.594785 1_555
Fe5 Ga2 2.594785 1_545
Fe5 Ga1 2.600428 1_555
Fe5 Ga0 2.600428 1_645
