# generated using pymatgen
data_HoEr3
_symmetry_space_group_name_H-M   'P 1'
_cell_length_a   7.18416510
_cell_length_b   7.18461288
_cell_length_c   5.52512670
_cell_angle_alpha   89.99978594
_cell_angle_beta   89.99993403
_cell_angle_gamma   119.99993687
_symmetry_Int_Tables_number   1
_chemical_formula_structural   HoEr3
_chemical_formula_sum   'Ho2 Er6'
_cell_volume   246.97490479
_cell_formula_units_Z   2
loop_
 _symmetry_equiv_pos_site_id
 _symmetry_equiv_pos_as_xyz
  1  'x, y, z'
loop_
 _atom_site_type_symbol
 _atom_site_label
 _atom_site_symmetry_multiplicity
 _atom_site_fract_x
 _atom_site_fract_y
 _atom_site_fract_z
 _atom_site_occupancy
  Ho  Ho0  1  0.33330248  0.66664833  0.74997325  1
  Ho  Ho1  1  0.66668762  0.33335584  0.25002755  1
  Er  Er0  1  0.16652369  0.33298557  0.24997531  1
  Er  Er1  1  0.66706150  0.83355384  0.25000153  1
  Er  Er2  1  0.16651804  0.83356513  0.24999554  1
  Er  Er3  1  0.83349554  0.66703099  0.75002773  1
  Er  Er4  1  0.33292446  0.16643115  0.75000357  1
  Er  Er5  1  0.83348768  0.16643415  0.75000352  1
loop_
_geom_bond_atom_site_label_1
_geom_bond_atom_site_label_2
_geom_bond_distance
_geom_bond_site_symmetry_2
Er0 Er4 3.452889 1_554
Er0 Er4 3.453134 1_555
Er0 Er5 3.453157 1_454
Er0 Er5 3.453394 1_455
Er0 Ho0 3.455694 1_555
Er0 Ho0 3.455695 1_554
Er0 Er2 3.588122 1_545
Er0 Er1 3.588225 1_445
Er0 Ho1 3.591931 1_555
Er0 Ho1 3.592236 1_455
Er0 Er1 3.596171 1_555
Er0 Er2 3.596491 1_555
Er1 Er5 3.452755 1_564
Er1 Er5 3.452789 1_565
Er1 Er3 3.452904 1_554
Er1 Er3 3.453131 1_555
Er1 Ho0 3.455846 1_555
Er1 Ho0 3.456107 1_554
Er1 Er2 3.588138 1_655
Er1 Ho1 3.592228 1_565
Er1 Ho1 3.592387 1_555
Er1 Er2 3.596027 1_555
Er2 Er4 3.452675 1_564
Er2 Er4 3.452762 1_565
Er2 Er3 3.453089 1_454
Er2 Er3 3.453362 1_455
Er2 Ho0 3.455697 1_555
Er2 Ho0 3.455899 1_554
Er2 Ho1 3.592056 1_565
Er2 Ho1 3.592342 1_455
Er3 Ho1 3.455732 1_556
Er3 Ho1 3.455750 1_555
Er3 Er4 3.587992 1_665
Er3 Er5 3.588047 1_565
Er3 Ho0 3.592071 1_655
Er3 Ho0 3.592096 1_555
Er3 Er4 3.596404 1_555
Er3 Er5 3.596566 1_555
Er4 Ho1 3.455880 1_555
Er4 Ho1 3.456104 1_556
Er4 Er5 3.588047 1_455
Er4 Ho0 3.592105 1_545
Er4 Ho0 3.592510 1_555
Er4 Er5 3.596118 1_555
Er5 Ho1 3.455766 1_555
Er5 Ho1 3.455983 1_556
Er5 Ho0 3.592095 1_545
Er5 Ho0 3.592303 1_655
