# generated using pymatgen
data_Pr6OsBr10
_symmetry_space_group_name_H-M   'P 1'
_cell_length_a   7.72091606
_cell_length_b   9.49573740
_cell_length_c   9.56134801
_cell_angle_alpha   109.11823736
_cell_angle_beta   96.97720169
_cell_angle_gamma   106.66694780
_symmetry_Int_Tables_number   1
_chemical_formula_structural   Pr6OsBr10
_chemical_formula_sum   'Pr6 Os1 Br10'
_cell_volume   616.27846654
_cell_formula_units_Z   1
loop_
 _symmetry_equiv_pos_site_id
 _symmetry_equiv_pos_as_xyz
  1  'x, y, z'
loop_
 _atom_site_type_symbol
 _atom_site_label
 _atom_site_symmetry_multiplicity
 _atom_site_fract_x
 _atom_site_fract_y
 _atom_site_fract_z
 _atom_site_occupancy
  Pr  Pr0  1  0.52817048  0.20273446  0.40584043  1
  Pr  Pr1  1  0.47182952  0.79726554  0.59415957  1
  Pr  Pr2  1  0.12403890  0.34999065  0.30652183  1
  Pr  Pr3  1  0.87596110  0.65000935  0.69347817  1
  Pr  Pr4  1  0.62892926  0.54829278  0.25381861  1
  Pr  Pr5  1  0.37107074  0.45170722  0.74618139  1
  Os  Os0  1  0.50000000  0.50000000  0.50000000  1
  Br  Br0  1  0.14054444  0.03231606  0.22065918  1
  Br  Br1  1  0.85945556  0.96768394  0.77934082  1
  Br  Br2  1  0.24534333  0.41622492  0.04318520  1
  Br  Br3  1  0.75465667  0.58377508  0.95681480  1
  Br  Br4  1  0.69674419  0.23682506  0.14350025  1
  Br  Br5  1  0.30325581  0.76317494  0.85649975  1
  Br  Br6  1  0.05035889  0.67555571  0.41883000  1
  Br  Br7  1  0.94964111  0.32444429  0.58117000  1
  Br  Br8  1  0.40950390  0.13066097  0.67200838  1
  Br  Br9  1  0.59049610  0.86933903  0.32799162  1
loop_
_geom_bond_atom_site_label_1
_geom_bond_atom_site_label_2
_geom_bond_distance
_geom_bond_site_symmetry_2
Os0 Pr1 2.749705 1_555
Os0 Pr0 2.749705 1_555
Os0 Pr4 2.784991 1_555
Os0 Pr5 2.784991 1_555
Os0 Pr3 2.911145 1_555
Os0 Pr2 2.911145 1_555
Br0 Pr2 2.900614 1_555
Br0 Pr0 2.961143 1_555
Br1 Pr3 2.900614 1_555
Br1 Pr1 2.961143 1_555
Br2 Pr2 2.980716 1_555
Br2 Pr4 3.027540 1_555
Br2 Pr5 3.198267 1_554
Br3 Pr3 2.980716 1_555
Br3 Pr5 3.027540 1_555
Br3 Pr4 3.198267 1_556
Br4 Pr4 3.018807 1_555
Br4 Pr0 3.028838 1_555
Br4 Pr2 3.176215 1_655
Br5 Pr5 3.018807 1_555
Br5 Pr1 3.028838 1_555
Br5 Pr3 3.176215 1_455
Br6 Pr4 3.128151 1_455
Br6 Pr3 3.139556 1_455
Br6 Pr1 3.159693 1_555
Br6 Pr2 3.164909 1_555
Br7 Pr5 3.128151 1_655
Br7 Pr2 3.139556 1_655
Br7 Pr0 3.159693 1_555
Br7 Pr3 3.164909 1_555
Br8 Pr5 3.006430 1_555
Br8 Pr0 3.021948 1_555
Br8 Pr1 3.197724 1_545
Br9 Pr4 3.006430 1_555
Br9 Pr1 3.021948 1_555
Br9 Pr0 3.197724 1_565
