# generated using pymatgen
data_MgCd3(CO3)4
_symmetry_space_group_name_H-M   'P 1'
_cell_length_a   11.15903382
_cell_length_b   11.15903382
_cell_length_c   11.15903343
_cell_angle_alpha   25.57122986
_cell_angle_beta   25.57122986
_cell_angle_gamma   25.57122923
_symmetry_Int_Tables_number   1
_chemical_formula_structural   MgCd3(CO3)4
_chemical_formula_sum   'Mg1 Cd3 C4 O12'
_cell_volume   227.92061727
_cell_formula_units_Z   1
loop_
 _symmetry_equiv_pos_site_id
 _symmetry_equiv_pos_as_xyz
  1  'x, y, z'
loop_
 _atom_site_type_symbol
 _atom_site_label
 _atom_site_symmetry_multiplicity
 _atom_site_fract_x
 _atom_site_fract_y
 _atom_site_fract_z
 _atom_site_occupancy
  Mg  Mg0  1  0.50000000  0.50000000  0.50000000  1
  Cd  Cd0  1  0.00000000  0.00000000  0.00000000  1
  Cd  Cd1  1  0.75376900  0.75376900  0.75376900  1
  Cd  Cd2  1  0.24623100  0.24623100  0.24623100  1
  C  C0  1  0.87143200  0.87143200  0.87143200  1
  C  C1  1  0.37598600  0.37598600  0.37598600  1
  C  C2  1  0.12856800  0.12856800  0.12856800  1
  C  C3  1  0.62401400  0.62401400  0.62401400  1
  O  O0  1  0.83822300  0.14992400  0.62636200  1
  O  O1  1  0.38124600  0.63586100  0.11085600  1
  O  O2  1  0.62636200  0.83822300  0.14992400  1
  O  O3  1  0.11085600  0.38124600  0.63586100  1
  O  O4  1  0.14992400  0.62636200  0.83822300  1
  O  O5  1  0.63586100  0.11085600  0.38124600  1
  O  O6  1  0.37363800  0.16177700  0.85007600  1
  O  O7  1  0.88914400  0.61875400  0.36413900  1
  O  O8  1  0.85007600  0.37363800  0.16177700  1
  O  O9  1  0.36413900  0.88914400  0.61875400  1
  O  O10  1  0.16177700  0.85007600  0.37363800  1
  O  O11  1  0.61875400  0.36413900  0.88914400  1
loop_
_geom_bond_atom_site_label_1
_geom_bond_atom_site_label_2
_geom_bond_distance
_geom_bond_site_symmetry_2
Mg0 O8 2.134883 1_555
Mg0 O4 2.134883 1_555
Mg0 O10 2.134883 1_555
Mg0 O0 2.134883 1_555
Mg0 O2 2.134883 1_555
Mg0 O6 2.134883 1_555
Cd0 O9 2.319343 1_544
Cd0 O5 2.319343 1_455
Cd0 O11 2.319343 1_454
Cd0 O1 2.319343 1_545
Cd0 O7 2.319343 1_445
Cd0 O3 2.319343 1_554
Cd1 O5 2.326959 1_565
Cd1 O3 2.326959 1_655
Cd1 O1 2.326959 1_556
Cd1 O8 2.374524 1_556
Cd1 O6 2.374524 1_565
Cd1 O10 2.374524 1_655
Cd2 O9 2.326959 1_545
Cd2 O7 2.326959 1_455
Cd2 O11 2.326959 1_554
Cd2 O4 2.374524 1_554
Cd2 O2 2.374524 1_545
Cd2 O0 2.374524 1_455
C0 O4 1.300769 1_655
C0 O0 1.300769 1_565
C0 O2 1.300769 1_556
C1 O5 1.296713 1_555
C1 O3 1.296713 1_555
C1 O1 1.296713 1_555
C2 O8 1.300769 1_455
C2 O10 1.300769 1_545
C2 O6 1.300769 1_554
C3 O9 1.296713 1_555
C3 O7 1.296713 1_555
C3 O11 1.296713 1_555
