# generated using pymatgen
data_BaCaLaBiO6
_symmetry_space_group_name_H-M   'P 1'
_cell_length_a   6.08492736
_cell_length_b   6.22193188
_cell_length_c   8.74403788
_cell_angle_alpha   90.48987801
_cell_angle_beta   89.46253627
_cell_angle_gamma   89.85308896
_symmetry_Int_Tables_number   1
_chemical_formula_structural   BaCaLaBiO6
_chemical_formula_sum   'Ba2 Ca2 La2 Bi2 O12'
_cell_volume   331.02148231
_cell_formula_units_Z   2
loop_
 _symmetry_equiv_pos_site_id
 _symmetry_equiv_pos_as_xyz
  1  'x, y, z'
loop_
 _atom_site_type_symbol
 _atom_site_label
 _atom_site_symmetry_multiplicity
 _atom_site_fract_x
 _atom_site_fract_y
 _atom_site_fract_z
 _atom_site_occupancy
  Ba  Ba0  1  0.99251534  0.04227600  0.25060492  1
  Ba  Ba1  1  0.00748466  0.95772400  0.74939508  1
  Ca  Ca0  1  0.51101466  0.54700062  0.25276694  1
  Ca  Ca1  1  0.48898534  0.45299938  0.74723306  1
  La  La0  1  0.50000000  0.00000000  0.00000000  1
  La  La1  1  -0.00000000  0.50000000  0.50000000  1
  Bi  Bi0  1  -0.00000000  0.50000000  0.00000000  1
  Bi  Bi1  1  0.50000000  0.00000000  0.50000000  1
  O  O0  1  0.19022309  0.21788026  0.95095230  1
  O  O1  1  0.32200105  0.70959993  0.56170518  1
  O  O2  1  0.80977691  0.78211974  0.04904770  1
  O  O3  1  0.67799895  0.29040007  0.43829482  1
  O  O4  1  0.28592142  0.68404456  0.93086196  1
  O  O5  1  0.21653107  0.19639462  0.54114262  1
  O  O6  1  0.71407858  0.31595544  0.06913804  1
  O  O7  1  0.78346893  0.80360538  0.45885738  1
  O  O8  1  0.42138361  0.93177898  0.26366616  1
  O  O9  1  0.12632077  0.48370860  0.23353452  1
  O  O10  1  0.57861639  0.06822102  0.73633384  1
  O  O11  1  0.87367923  0.51629140  0.76646548  1
loop_
_geom_bond_atom_site_label_1
_geom_bond_atom_site_label_2
_geom_bond_distance
_geom_bond_site_symmetry_2
Ba0 O2 2.638161 1_545
Ba0 O7 2.674259 1_545
Ba0 O8 2.700670 1_645
Ba0 O9 2.871412 1_655
Ba0 O6 2.893052 1_555
Ba0 O3 2.936332 1_555
Ba0 O5 3.043292 1_655
Ba0 O0 3.082683 1_654
Ba1 O0 2.638161 1_565
Ba1 O5 2.674259 1_565
Ba1 O10 2.700670 1_465
Ba1 O11 2.871412 1_455
Ba1 O4 2.893052 1_555
Ba1 O1 2.936332 1_555
Ba1 O7 3.043292 1_455
Ba1 O2 3.082683 1_456
Ca0 O9 2.381983 1_555
Ca0 O8 2.454896 1_555
Ca0 O6 2.466913 1_555
Ca0 O3 2.506001 1_555
Ca0 O7 2.926675 1_555
Ca0 O2 2.935229 1_555
Ca0 O1 3.087508 1_555
Ca1 O11 2.381983 1_555
Ca1 O10 2.454896 1_555
Ca1 O4 2.466913 1_555
Ca1 O1 2.506001 1_555
Ca1 O5 2.926675 1_555
Ca1 O0 2.935229 1_555
Ca1 O3 3.087508 1_555
La0 O0 2.363641 1_554
La0 O2 2.363641 1_545
La0 O8 2.391957 1_545
La0 O10 2.391957 1_554
La0 O6 2.436092 1_555
La0 O4 2.436092 1_544
La1 O5 2.332712 1_555
La1 O7 2.332712 1_455
La1 O1 2.419051 1_555
La1 O3 2.419051 1_455
La1 O11 2.447834 1_455
La1 O9 2.447834 1_555
Bi0 O2 2.138294 1_455
Bi0 O0 2.138294 1_554
Bi0 O6 2.169337 1_455
Bi0 O4 2.169337 1_554
Bi0 O11 2.191710 1_454
Bi0 O9 2.191710 1_555
Bi1 O7 2.137256 1_545
Bi1 O5 2.137256 1_555
Bi1 O10 2.164272 1_555
Bi1 O8 2.164272 1_545
Bi1 O3 2.178232 1_555
Bi1 O1 2.178232 1_545
