# generated using pymatgen
data_MgCrO2
_symmetry_space_group_name_H-M   'P 1'
_cell_length_a   2.91672651
_cell_length_b   7.51213782
_cell_length_c   7.75449150
_cell_angle_alpha   82.26330613
_cell_angle_beta   90.00000000
_cell_angle_gamma   90.00000000
_symmetry_Int_Tables_number   1
_chemical_formula_structural   MgCrO2
_chemical_formula_sum   'Mg4 Cr4 O8'
_cell_volume   168.36087579
_cell_formula_units_Z   4
loop_
 _symmetry_equiv_pos_site_id
 _symmetry_equiv_pos_as_xyz
  1  'x, y, z'
loop_
 _atom_site_type_symbol
 _atom_site_label
 _atom_site_symmetry_multiplicity
 _atom_site_fract_x
 _atom_site_fract_y
 _atom_site_fract_z
 _atom_site_occupancy
  Mg  Mg0  1  0.25000000  0.46000341  0.16942373  1
  Mg  Mg1  1  0.75000000  0.53999659  0.83057627  1
  Mg  Mg2  1  0.75000000  0.81566694  0.06465878  1
  Mg  Mg3  1  0.25000000  0.18433306  0.93534122  1
  Cr  Cr0  1  0.75000000  0.31014768  0.56257270  1
  Cr  Cr1  1  0.75000000  0.09913221  0.28226067  1
  Cr  Cr2  1  0.25000000  0.90086779  0.71773933  1
  Cr  Cr3  1  0.25000000  0.68985232  0.43742730  1
  O  O0  1  0.75000000  0.75045663  0.61132646  1
  O  O1  1  0.75000000  0.02234737  0.83798305  1
  O  O2  1  0.25000000  0.97765263  0.16201695  1
  O  O3  1  0.25000000  0.24954337  0.38867354  1
  O  O4  1  0.25000000  0.38568003  0.71750347  1
  O  O5  1  0.75000000  0.33055563  0.04399802  1
  O  O6  1  0.75000000  0.61431997  0.28249653  1
  O  O7  1  0.25000000  0.66944437  0.95600198  1
loop_
_geom_bond_atom_site_label_1
_geom_bond_atom_site_label_2
_geom_bond_distance
_geom_bond_site_symmetry_2
Mg0 O5 2.067140 1_555
Mg0 O5 2.067140 1_455
Mg0 O6 2.124421 1_455
Mg0 O6 2.124421 1_555
Mg0 O7 2.124455 1_554
Mg0 O3 2.160195 1_555
Mg1 O7 2.067140 1_555
Mg1 O7 2.067140 1_655
Mg1 O4 2.124421 1_555
Mg1 O4 2.124421 1_655
Mg1 O5 2.124455 1_556
Mg1 O0 2.160195 1_555
Mg2 O7 2.071842 1_654
Mg2 O7 2.071842 1_554
Mg2 O2 2.103541 1_555
Mg2 O2 2.103541 1_655
Mg2 O6 2.110295 1_555
Mg2 O1 2.183006 1_564
Mg3 O5 2.071842 1_456
Mg3 O5 2.071842 1_556
Mg3 O1 2.103541 1_555
Mg3 O1 2.103541 1_455
Mg3 O4 2.110295 1_555
Mg3 O2 2.183006 1_546
Cr0 O4 2.018837 1_555
Cr0 O4 2.018837 1_655
Cr0 O3 2.077941 1_555
Cr0 O3 2.077941 1_655
Cr1 O2 2.014481 1_545
Cr1 O2 2.014481 1_645
Cr1 O3 2.082179 1_555
Cr1 O3 2.082179 1_655
Cr1 O5 2.360331 1_555
Cr2 O1 2.014481 1_565
Cr2 O1 2.014481 1_465
Cr2 O0 2.082179 1_455
Cr2 O0 2.082179 1_555
Cr2 O7 2.360331 1_555
Cr3 O6 2.018837 1_455
Cr3 O6 2.018837 1_555
Cr3 O0 2.077941 1_455
Cr3 O0 2.077941 1_555
