# generated using pymatgen
data_AlCu3
_symmetry_space_group_name_H-M   'P 1'
_cell_length_a   4.17251440
_cell_length_b   4.51171531
_cell_length_c   5.10701746
_cell_angle_alpha   90.00000000
_cell_angle_beta   90.00000000
_cell_angle_gamma   90.00000000
_symmetry_Int_Tables_number   1
_chemical_formula_structural   AlCu3
_chemical_formula_sum   'Al2 Cu6'
_cell_volume   96.14061028
_cell_formula_units_Z   2
loop_
 _symmetry_equiv_pos_site_id
 _symmetry_equiv_pos_as_xyz
  1  'x, y, z'
loop_
 _atom_site_type_symbol
 _atom_site_label
 _atom_site_symmetry_multiplicity
 _atom_site_fract_x
 _atom_site_fract_y
 _atom_site_fract_z
 _atom_site_occupancy
  Al  Al0  1  0.00000000  0.00539000  0.00000000  1
  Al  Al1  1  0.50000000  0.32761000  0.50000000  1
  Cu  Cu0  1  -0.00000000  0.00382505  0.50000000  1
  Cu  Cu1  1  0.50000000  0.32917495  0.00000000  1
  Cu  Cu2  1  0.00000000  0.50643532  0.25094031  1
  Cu  Cu3  1  0.00000000  0.50643532  0.74905969  1
  Cu  Cu4  1  0.50000000  0.82656468  0.24905969  1
  Cu  Cu5  1  0.50000000  0.82656468  0.75094031  1
loop_
_geom_bond_atom_site_label_1
_geom_bond_atom_site_label_2
_geom_bond_distance
_geom_bond_site_symmetry_2
Al0 Cu1 2.546857 1_555
Al0 Cu1 2.546857 1_455
Al0 Cu0 2.553518 1_554
Al0 Cu0 2.553518 1_555
Al0 Cu5 2.573183 1_544
Al0 Cu4 2.573183 1_445
Al0 Cu5 2.573183 1_444
Al0 Cu4 2.573183 1_545
Al0 Cu3 2.590372 1_544
Al0 Cu2 2.590372 1_545
Al0 Cu3 2.598573 1_554
Al0 Cu2 2.598573 1_555
Al1 Cu0 2.546857 1_555
Al1 Cu0 2.546857 1_655
Al1 Cu1 2.553518 1_556
Al1 Cu1 2.553518 1_555
Al1 Cu2 2.573183 1_655
Al1 Cu3 2.573183 1_655
Al1 Cu2 2.573183 1_555
Al1 Cu3 2.573183 1_555
Al1 Cu4 2.590372 1_555
Al1 Cu5 2.590372 1_555
Al1 Cu4 2.598573 1_545
Al1 Cu5 2.598573 1_545
Cu0 Cu4 2.575743 1_445
Cu0 Cu4 2.575743 1_545
Cu0 Cu5 2.575743 1_445
Cu0 Cu5 2.575743 1_545
Cu0 Cu2 2.579489 1_545
Cu0 Cu3 2.579489 1_545
Cu0 Cu3 2.600005 1_555
Cu0 Cu2 2.600005 1_555
Cu1 Cu2 2.575743 1_555
Cu1 Cu2 2.575743 1_655
Cu1 Cu3 2.575743 1_654
Cu1 Cu3 2.575743 1_554
Cu1 Cu5 2.579489 1_554
Cu1 Cu4 2.579489 1_555
Cu1 Cu5 2.600005 1_544
Cu1 Cu4 2.600005 1_545
Cu2 Cu4 2.537451 1_555
Cu2 Cu4 2.537451 1_455
Cu2 Cu3 2.543904 1_555
Cu2 Cu3 2.563113 1_554
Cu3 Cu5 2.537451 1_455
Cu3 Cu5 2.537451 1_555
Cu4 Cu5 2.543904 1_554
Cu4 Cu5 2.563113 1_555
