# generated using pymatgen
data_Ba3Tm(BO3)3
_symmetry_space_group_name_H-M   'P 1'
_cell_length_a   9.42801758
_cell_length_b   9.42801758
_cell_length_c   17.53002582
_cell_angle_alpha   90.00000000
_cell_angle_beta   90.00000000
_cell_angle_gamma   120.00000326
_symmetry_Int_Tables_number   1
_chemical_formula_structural   Ba3Tm(BO3)3
_chemical_formula_sum   'Ba18 Tm6 B18 O54'
_cell_volume   1349.44112364
_cell_formula_units_Z   6
loop_
 _symmetry_equiv_pos_site_id
 _symmetry_equiv_pos_as_xyz
  1  'x, y, z'
loop_
 _atom_site_type_symbol
 _atom_site_label
 _atom_site_symmetry_multiplicity
 _atom_site_fract_x
 _atom_site_fract_y
 _atom_site_fract_z
 _atom_site_occupancy
  Ba  Ba0  1  0.67976562  0.67976562  0.86998130  1
  Ba  Ba1  1  1.00000000  0.67976562  0.36998130  1
  Ba  Ba2  1  0.67976562  1.00000000  0.36998130  1
  Ba  Ba3  1  0.32023438  0.00000000  0.86998130  1
  Ba  Ba4  1  0.00000000  0.32023438  0.86998130  1
  Ba  Ba5  1  0.32023438  0.32023438  0.36998130  1
  Ba  Ba6  1  0.65422470  0.65422470  0.62677020  1
  Ba  Ba7  1  0.00000000  0.65422470  0.12677020  1
  Ba  Ba8  1  0.65422470  0.00000000  0.12677020  1
  Ba  Ba9  1  0.34577530  1.00000000  0.62677020  1
  Ba  Ba10  1  1.00000000  0.34577530  0.62677020  1
  Ba  Ba11  1  0.34577530  0.34577530  0.12677020  1
  Ba  Ba12  1  0.33333300  0.66666700  0.27377719  1
  Ba  Ba13  1  0.66666700  0.33333300  0.77377719  1
  Ba  Ba14  1  0.33333300  0.66666700  0.77377719  1
  Ba  Ba15  1  0.66666700  0.33333300  0.27377719  1
  Ba  Ba16  1  -0.00000000  0.00000000  0.71747339  1
  Ba  Ba17  1  -0.00000000  0.00000000  0.21747339  1
  Tm  Tm0  1  0.33333300  0.66666700  0.99567151  1
  Tm  Tm1  1  0.66666700  0.33333300  0.49567151  1
  Tm  Tm2  1  0.33333300  0.66666700  0.49567151  1
  Tm  Tm3  1  0.66666700  0.33333300  0.99567151  1
  Tm  Tm4  1  -0.00000000  0.00000000  0.50093851  1
  Tm  Tm5  1  -0.00000000  0.00000000  0.00093851  1
  B  B0  1  0.65995759  0.65995759  0.42051048  1
  B  B1  1  -0.00000000  0.65995759  0.92051048  1
  B  B2  1  0.65995759  -0.00000000  0.92051048  1
  B  B3  1  0.34004241  0.00000000  0.42051048  1
  B  B4  1  0.00000000  0.34004241  0.42051048  1
  B  B5  1  0.34004241  0.34004241  0.92051048  1
  B  B6  1  0.66720781  0.66720781  0.24750053  1
  B  B7  1  1.00000000  0.66720781  0.74750053  1
  B  B8  1  0.66720781  1.00000000  0.74750053  1
  B  B9  1  0.33279219  0.00000000  0.24750053  1
  B  B10  1  0.00000000  0.33279219  0.24750053  1
  B  B11  1  0.33279219  0.33279219  0.74750053  1
  B  B12  1  0.67346199  0.67346199  0.07165062  1
  B  B13  1  0.00000000  0.67346199  0.57165062  1
  B  B14  1  0.67346199  0.00000000  0.57165062  1
  B  B15  1  0.32653801  -0.00000000  0.07165062  1
  B  B16  1  -0.00000000  0.32653801  0.07165062  1
  B  B17  1  0.32653801  0.32653801  0.57165062  1
  O  O0  1  0.80607911  0.80607911  0.43041535  1
  O  O1  1  0.00000000  0.80607911  0.93041535  1
  O  O2  1  0.80607911  0.00000000  0.93041535  1
  O  O3  1  0.19392089  1.00000000  0.43041535  1
  O  O4  1  1.00000000  0.19392089  0.43041535  1
  O  O5  1  0.19392089  0.19392089  0.93041535  1
  O  O6  1  0.66092160  0.14705258  0.91554075  1
  O  O7  1  0.85294742  0.51386902  0.91554075  1
  O  O8  1  0.48613098  0.33907840  0.91554075  1
  O  O9  1  0.51386902  0.66092160  0.41554075  1
  O  O10  1  0.33907840  0.85294742  0.41554075  1
  O  O11  1  0.14705258  0.48613098  0.41554075  1
  O  O12  1  0.66092160  0.51386902  0.41554075  1
  O  O13  1  0.14705258  0.66092160  0.91554075  1
  O  O14  1  0.51386902  0.85294742  0.91554075  1
  O  O15  1  0.48613098  0.14705258  0.41554075  1
  O  O16  1  0.85294742  0.33907840  0.41554075  1
  O  O17  1  0.33907840  0.48613098  0.91554075  1
  O  O18  1  0.52013203  0.52013203  0.24738751  1
  O  O19  1  1.00000000  0.52013203  0.74738751  1
  O  O20  1  0.52013203  1.00000000  0.74738751  1
  O  O21  1  0.47986797  0.00000000  0.24738751  1
  O  O22  1  0.00000000  0.47986797  0.24738751  1
  O  O23  1  0.47986797  0.47986797  0.74738751  1
  O  O24  1  0.81418921  0.14706143  0.74795271  1
  O  O25  1  0.85293857  0.66712778  0.74795271  1
  O  O26  1  0.33287222  0.18581079  0.74795271  1
  O  O27  1  0.66712778  0.81418921  0.24795271  1
  O  O28  1  0.18581079  0.85293857  0.24795271  1
  O  O29  1  0.14706143  0.33287222  0.24795271  1
  O  O30  1  0.81418921  0.66712778  0.24795271  1
  O  O31  1  0.14706143  0.81418921  0.74795271  1
  O  O32  1  0.66712778  0.85293857  0.74795271  1
  O  O33  1  0.33287222  0.14706143  0.24795271  1
  O  O34  1  0.85293857  0.18581079  0.24795271  1
  O  O35  1  0.18581079  0.33287222  0.74795271  1
  O  O36  1  0.67359692  0.14643932  0.56673223  1
  O  O37  1  0.85356068  0.52715760  0.56673223  1
  O  O38  1  0.47284240  0.32640308  0.56673223  1
  O  O39  1  0.52715760  0.67359692  0.06673223  1
  O  O40  1  0.32640308  0.85356068  0.06673223  1
  O  O41  1  0.14643932  0.47284240  0.06673223  1
  O  O42  1  0.67359692  0.52715760  0.06673223  1
  O  O43  1  0.14643932  0.67359692  0.56673223  1
  O  O44  1  0.52715760  0.85356068  0.56673223  1
  O  O45  1  0.47284240  0.14643932  0.06673223  1
  O  O46  1  0.85356068  0.32640308  0.06673223  1
  O  O47  1  0.32640308  0.47284240  0.56673223  1
  O  O48  1  0.81900320  0.81900320  0.08089553  1
  O  O49  1  0.00000000  0.81900320  0.58089553  1
  O  O50  1  0.81900320  0.00000000  0.58089553  1
  O  O51  1  0.18099680  1.00000000  0.08089553  1
  O  O52  1  1.00000000  0.18099680  0.08089553  1
  O  O53  1  0.18099680  0.18099680  0.58089553  1
loop_
_geom_bond_atom_site_label_1
_geom_bond_atom_site_label_2
_geom_bond_distance
_geom_bond_site_symmetry_2
Ba0 O25 2.729540 1_555
Ba0 O32 2.729540 1_555
Ba0 O2 2.839099 1_565
Ba0 O1 2.839099 1_655
Ba0 O23 2.858387 1_555
Ba0 O7 2.881642 1_555
Ba0 O14 2.881642 1_555
Ba0 O17 2.902379 1_555
Ba0 O8 2.902379 1_555
Ba1 O28 2.729540 1_655
Ba1 O30 2.729540 1_555
Ba1 O3 2.839099 1_655
Ba1 O0 2.839100 1_555
Ba1 O22 2.858387 1_655
Ba1 O10 2.881642 1_655
Ba1 O12 2.881642 1_555
Ba1 O16 2.902379 1_555
Ba1 O11 2.902380 1_655
Ba2 O34 2.729540 1_565
Ba2 O27 2.729540 1_555
Ba2 O4 2.839099 1_565
Ba2 O0 2.839100 1_555
Ba2 O21 2.858387 1_565
Ba2 O16 2.881642 1_565
Ba2 O9 2.881642 1_555
Ba2 O10 2.902379 1_555
Ba2 O15 2.902380 1_565
Ba3 O31 2.729540 1_545
Ba3 O26 2.729540 1_555
Ba3 O1 2.839099 1_545
Ba3 O5 2.839100 1_555
Ba3 O20 2.858387 1_545
Ba3 O13 2.881642 1_545
Ba3 O8 2.881642 1_555
Ba3 O6 2.902379 1_555
Ba3 O14 2.902380 1_545
Ba4 O24 2.729540 1_455
Ba4 O35 2.729540 1_555
Ba4 O2 2.839099 1_455
Ba4 O5 2.839100 1_555
Ba4 O19 2.858387 1_455
Ba4 O6 2.881642 1_455
Ba4 O17 2.881642 1_555
Ba4 O13 2.902379 1_555
Ba4 O7 2.902380 1_455
Ba5 O29 2.729540 1_555
Ba5 O33 2.729540 1_555
Ba5 O3 2.839099 1_545
Ba5 O4 2.839099 1_455
Ba5 O18 2.858387 1_555
Ba5 O11 2.881642 1_555
Ba5 O15 2.881642 1_555
Ba5 O12 2.902379 1_555
Ba5 O9 2.902379 1_555
Ba6 O23 2.678245 1_555
Ba6 O32 2.794566 1_555
Ba6 O25 2.794566 1_555
Ba6 O47 2.880829 1_555
Ba6 O38 2.880829 1_555
Ba6 O37 2.885522 1_555
Ba6 O44 2.885522 1_555
Ba6 O49 2.936518 1_655
Ba6 O50 2.936518 1_565
Ba7 O22 2.678245 1_555
Ba7 O28 2.794566 1_555
Ba7 O30 2.794566 1_455
Ba7 O46 2.880829 1_455
Ba7 O41 2.880829 1_555
Ba7 O40 2.885522 1_555
Ba7 O42 2.885522 1_455
Ba7 O51 2.936518 1_555
Ba7 O48 2.936518 1_455
Ba8 O21 2.678245 1_555
Ba8 O34 2.794566 1_555
Ba8 O27 2.794566 1_545
Ba8 O40 2.880829 1_545
Ba8 O45 2.880829 1_555
Ba8 O46 2.885522 1_555
Ba8 O39 2.885522 1_545
Ba8 O52 2.936518 1_555
Ba8 O48 2.936518 1_545
Ba9 O20 2.678245 1_555
Ba9 O31 2.794566 1_555
Ba9 O26 2.794566 1_565
Ba9 O36 2.880829 1_565
Ba9 O44 2.880829 1_555
Ba9 O43 2.885522 1_555
Ba9 O38 2.885522 1_565
Ba9 O49 2.936518 1_555
Ba9 O53 2.936518 1_565
Ba10 O19 2.678245 1_555
Ba10 O24 2.794566 1_555
Ba10 O35 2.794566 1_655
Ba10 O43 2.880829 1_655
Ba10 O37 2.880829 1_555
Ba10 O36 2.885522 1_555
Ba10 O47 2.885522 1_655
Ba10 O50 2.936518 1_555
Ba10 O53 2.936518 1_655
Ba11 O18 2.678245 1_555
Ba11 O29 2.794566 1_555
Ba11 O33 2.794566 1_555
Ba11 O42 2.880829 1_555
Ba11 O39 2.880829 1_555
Ba11 O45 2.885522 1_555
Ba11 O41 2.885522 1_555
Ba11 O51 2.936518 1_545
Ba11 O52 2.936518 1_455
Ba12 O21 2.767185 1_565
Ba12 O22 2.767185 1_555
Ba12 O18 2.767193 1_555
Ba12 O28 2.768768 1_555
Ba12 O29 2.768776 1_555
Ba12 O27 2.768777 1_555
Ba12 O10 3.027879 1_555
Ba12 O11 3.027881 1_555
Ba12 O9 3.027884 1_555
Ba13 O20 2.767185 1_545
Ba13 O19 2.767185 1_555
Ba13 O23 2.767193 1_555
Ba13 O24 2.768768 1_555
Ba13 O25 2.768776 1_555
Ba13 O26 2.768777 1_555
Ba13 O6 3.027879 1_555
Ba13 O7 3.027881 1_555
Ba13 O8 3.027884 1_555
Ba14 O19 2.767185 1_455
Ba14 O20 2.767185 1_555
Ba14 O23 2.767193 1_555
Ba14 O31 2.768768 1_555
Ba14 O32 2.768776 1_555
Ba14 O35 2.768777 1_555
Ba14 O13 3.027879 1_555
Ba14 O14 3.027881 1_555
Ba14 O17 3.027884 1_555
Ba15 O22 2.767185 1_655
Ba15 O21 2.767185 1_555
Ba15 O18 2.767193 1_555
Ba15 O34 2.768768 1_555
Ba15 O33 2.768776 1_555
Ba15 O30 2.768777 1_555
Ba15 O16 3.027879 1_555
Ba15 O15 3.027881 1_555
Ba15 O12 3.027884 1_555
Ba16 O26 2.775907 1_555
Ba16 O35 2.775907 1_555
Ba16 O32 2.775907 1_445
Ba16 O25 2.775907 1_445
Ba16 O24 2.775907 1_455
Ba16 O31 2.775907 1_545
Ba16 O53 2.940102 1_555
Ba16 O49 2.940102 1_545
Ba16 O50 2.940102 1_455
Ba17 O27 2.775907 1_445
Ba17 O30 2.775907 1_445
Ba17 O29 2.775907 1_555
Ba17 O33 2.775907 1_555
Ba17 O28 2.775907 1_545
Ba17 O34 2.775907 1_455
Ba17 O48 2.940102 1_445
Ba17 O51 2.940102 1_545
Ba17 O52 2.940102 1_455
B0 O12 1.384636 1_555
B0 O9 1.384636 1_555
B0 O0 1.388535 1_555
B1 O7 1.384636 1_455
B1 O13 1.384636 1_555
B1 O1 1.388535 1_555
B2 O14 1.384636 1_545
B2 O6 1.384636 1_555
B2 O2 1.388535 1_555
B3 O15 1.384636 1_555
B3 O10 1.384636 1_545
B3 O3 1.388535 1_545
B4 O11 1.384636 1_555
B4 O16 1.384636 1_455
B4 O4 1.388535 1_455
B5 O17 1.384636 1_555
B5 O8 1.384636 1_555
B5 O5 1.388535 1_555
B6 O30 1.386143 1_555
B6 O27 1.386143 1_555
B6 O18 1.386634 1_555
B7 O31 1.386143 1_655
B7 O25 1.386143 1_555
B7 O19 1.386634 1_555
B8 O24 1.386143 1_565
B8 O32 1.386143 1_555
B8 O20 1.386634 1_555
B9 O28 1.386143 1_545
B9 O33 1.386143 1_555
B9 O21 1.386634 1_555
B10 O34 1.386143 1_455
B10 O29 1.386143 1_555
B10 O22 1.386634 1_555
B11 O26 1.386143 1_555
B11 O35 1.386143 1_555
B11 O23 1.386634 1_555
B12 O48 1.381702 1_555
B12 O42 1.382688 1_555
B12 O39 1.382688 1_555
B13 O49 1.381702 1_555
B13 O37 1.382688 1_455
B13 O43 1.382688 1_555
B14 O50 1.381702 1_555
B14 O44 1.382688 1_545
B14 O36 1.382688 1_555
B15 O51 1.381702 1_545
B15 O45 1.382688 1_555
B15 O40 1.382688 1_545
B16 O52 1.381702 1_455
B16 O41 1.382688 1_555
B16 O46 1.382688 1_455
B17 O53 1.381702 1_555
B17 O47 1.382688 1_555
B17 O38 1.382688 1_555
O0 Tm4 2.207037 1_665
O1 Tm5 2.207037 1_566
O2 Tm5 2.207037 1_656
O3 Tm4 2.207037 1_565
O4 Tm4 2.207037 1_655
O5 Tm5 2.207037 1_556
O6 Tm3 2.228318 1_555
O7 Tm3 2.228321 1_555
O8 Tm3 2.228325 1_555
O9 Tm2 2.228325 1_555
O10 Tm2 2.228318 1_555
O11 Tm2 2.228321 1_555
O12 Tm1 2.228325 1_555
O13 Tm0 2.228318 1_555
O14 Tm0 2.228321 1_555
O15 Tm1 2.228321 1_555
O16 Tm1 2.228318 1_555
O17 Tm0 2.228325 1_555
O36 Tm1 2.185389 1_555
O37 Tm1 2.185393 1_555
O38 Tm1 2.185397 1_555
O39 Tm0 2.185397 1_554
O40 Tm0 2.185389 1_554
O41 Tm0 2.185393 1_554
O42 Tm3 2.185397 1_554
O43 Tm2 2.185389 1_555
O44 Tm2 2.185393 1_555
O45 Tm3 2.185393 1_554
O46 Tm3 2.185389 1_554
O47 Tm2 2.185397 1_555
O48 Tm5 2.208293 1_665
O49 Tm4 2.208293 1_565
O50 Tm4 2.208293 1_655
O51 Tm5 2.208293 1_565
O52 Tm5 2.208293 1_655
O53 Tm4 2.208293 1_555
