# generated using pymatgen
data_IrRu2(NCl)10
_symmetry_space_group_name_H-M   'P 1'
_cell_length_a   7.33008437
_cell_length_b   7.33008437
_cell_length_c   15.80660929
_cell_angle_alpha   74.52723066
_cell_angle_beta   74.52723066
_cell_angle_gamma   74.72401718
_symmetry_Int_Tables_number   1
_chemical_formula_structural   IrRu2(NCl)10
_chemical_formula_sum   'Ir1 Ru2 N10 Cl10'
_cell_volume   771.75476656
_cell_formula_units_Z   1
loop_
 _symmetry_equiv_pos_site_id
 _symmetry_equiv_pos_as_xyz
  1  'x, y, z'
loop_
 _atom_site_type_symbol
 _atom_site_label
 _atom_site_symmetry_multiplicity
 _atom_site_fract_x
 _atom_site_fract_y
 _atom_site_fract_z
 _atom_site_occupancy
  Ir  Ir0  1  0.00000000  0.00000000  0.00000000  1
  Ru  Ru0  1  0.36830000  0.36830000  0.41225100  1
  Ru  Ru1  1  0.63170000  0.63170000  0.58774900  1
  N  N0  1  0.53215100  0.22441900  0.47289500  1
  N  N1  1  0.46784900  0.77558100  0.52710500  1
  N  N2  1  0.77558100  0.46784900  0.52710500  1
  N  N3  1  0.22441900  0.53215100  0.47289500  1
  N  N4  1  0.34696700  0.22180800  0.16237000  1
  N  N5  1  0.65303300  0.77819200  0.83763000  1
  N  N6  1  0.77819200  0.65303300  0.83763000  1
  N  N7  1  0.22180800  0.34696700  0.16237000  1
  N  N8  1  0.50376900  0.50376900  0.30391100  1
  N  N9  1  0.49623100  0.49623100  0.69608900  1
  Cl  Cl0  1  0.74240600  0.25759400  0.00000000  1
  Cl  Cl1  1  0.25759400  0.74240600  0.00000000  1
  Cl  Cl2  1  0.81530000  0.81530000  0.60639300  1
  Cl  Cl3  1  0.18470000  0.18470000  0.39360700  1
  Cl  Cl4  1  0.64909600  0.64909600  0.27507300  1
  Cl  Cl5  1  0.35090400  0.35090400  0.72492700  1
  Cl  Cl6  1  0.97665500  0.97665500  0.15218400  1
  Cl  Cl7  1  0.02334500  0.02334500  0.84781600  1
  Cl  Cl8  1  0.79250500  0.79250500  0.03551200  1
  Cl  Cl9  1  0.20749500  0.20749500  0.96448800  1
loop_
_geom_bond_atom_site_label_1
_geom_bond_atom_site_label_2
_geom_bond_distance
_geom_bond_site_symmetry_2
N0 Ru0 1.697374 1_555
N1 Ru1 1.697374 1_555
N2 Ru1 1.697374 1_555
N3 Ru0 1.697374 1_555
N4 N7 1.113478 1_555
N5 N6 1.113478 1_555
N8 Ru0 1.899910 1_555
N9 Ru1 1.899910 1_555
Cl0 Ir0 2.291687 1_655
Cl1 Ir0 2.291687 1_565
Cl2 Ru1 2.255400 1_555
Cl3 Ru0 2.255400 1_555
Cl4 N8 1.599100 1_555
Cl5 N9 1.599100 1_555
Cl6 Ir0 2.328352 1_665
Cl7 Ir0 2.328352 1_556
Cl8 Ir0 2.291203 1_665
Cl9 Ir0 2.291203 1_556
