# generated using pymatgen
data_MnZnGeO4
_symmetry_space_group_name_H-M   'P 1'
_cell_length_a   5.02643100
_cell_length_b   6.27943300
_cell_length_c   10.87351800
_cell_angle_alpha   90.00000000
_cell_angle_beta   90.00000000
_cell_angle_gamma   90.00000000
_symmetry_Int_Tables_number   1
_chemical_formula_structural   MnZnGeO4
_chemical_formula_sum   'Mn4 Zn4 Ge4 O16'
_cell_volume   343.20233497
_cell_formula_units_Z   4
loop_
 _symmetry_equiv_pos_site_id
 _symmetry_equiv_pos_as_xyz
  1  'x, y, z'
loop_
 _atom_site_type_symbol
 _atom_site_label
 _atom_site_symmetry_multiplicity
 _atom_site_fract_x
 _atom_site_fract_y
 _atom_site_fract_z
 _atom_site_occupancy
  Mn  Mn0  1  0.49083300  0.75000000  0.22175600  1
  Mn  Mn1  1  0.00916700  0.75000000  0.72175600  1
  Mn  Mn2  1  0.50916700  0.25000000  0.77824400  1
  Mn  Mn3  1  0.99083300  0.25000000  0.27824400  1
  Zn  Zn0  1  0.50000000  0.00000000  0.50000000  1
  Zn  Zn1  1  0.00000000  0.50000000  0.00000000  1
  Zn  Zn2  1  0.50000000  0.50000000  0.50000000  1
  Zn  Zn3  1  0.00000000  0.00000000  0.00000000  1
  Ge  Ge0  1  0.93279700  0.75000000  0.40638200  1
  Ge  Ge1  1  0.56720300  0.75000000  0.90638200  1
  Ge  Ge2  1  0.06720300  0.25000000  0.59361800  1
  Ge  Ge3  1  0.43279700  0.25000000  0.09361800  1
  O  O0  1  0.77045800  0.97321900  0.33744900  1
  O  O1  1  0.72954200  0.52678100  0.83744900  1
  O  O2  1  0.22954200  0.47321900  0.66255100  1
  O  O3  1  0.27045800  0.02678100  0.16255100  1
  O  O4  1  0.22954200  0.02678100  0.66255100  1
  O  O5  1  0.27045800  0.47321900  0.16255100  1
  O  O6  1  0.77045800  0.52678100  0.33744900  1
  O  O7  1  0.72954200  0.97321900  0.83744900  1
  O  O8  1  0.28439700  0.75000000  0.40984000  1
  O  O9  1  0.21560300  0.75000000  0.90984000  1
  O  O10  1  0.71560300  0.25000000  0.59016000  1
  O  O11  1  0.78439700  0.25000000  0.09016000  1
  O  O12  1  0.73219900  0.75000000  0.05489100  1
  O  O13  1  0.76780100  0.75000000  0.55489100  1
  O  O14  1  0.26780100  0.25000000  0.94510900  1
  O  O15  1  0.23219900  0.25000000  0.44510900  1
loop_
_geom_bond_atom_site_label_1
_geom_bond_atom_site_label_2
_geom_bond_distance
_geom_bond_site_symmetry_2
Mn0 O5 2.159207 1_555
Mn0 O3 2.159207 1_565
Mn0 O12 2.182650 1_555
Mn0 O8 2.293309 1_555
Mn0 O0 2.350052 1_555
Mn0 O6 2.350052 1_555
Mn1 O4 2.159207 1_565
Mn1 O2 2.159207 1_555
Mn1 O13 2.182650 1_455
Mn1 O9 2.293309 1_555
Mn1 O7 2.350052 1_455
Mn1 O1 2.350052 1_455
Mn2 O1 2.159207 1_555
Mn2 O7 2.159207 1_545
Mn2 O14 2.182650 1_555
Mn2 O10 2.293309 1_555
Mn2 O2 2.350052 1_555
Mn2 O4 2.350052 1_555
Mn3 O6 2.159207 1_555
Mn3 O0 2.159207 1_545
Mn3 O15 2.182650 1_655
Mn3 O11 2.293309 1_555
Mn3 O3 2.350052 1_655
Mn3 O5 2.350052 1_655
Ge0 O8 1.767693 1_655
Ge0 O0 1.786723 1_555
Ge0 O6 1.786723 1_555
Ge0 O13 1.815333 1_555
Ge1 O9 1.767693 1_555
Ge1 O7 1.786723 1_555
Ge1 O1 1.786723 1_555
Ge1 O12 1.815333 1_556
Ge2 O10 1.767693 1_455
Ge2 O4 1.786723 1_555
Ge2 O2 1.786723 1_555
Ge2 O15 1.815333 1_555
Ge3 O11 1.767693 1_555
Ge3 O3 1.786723 1_555
Ge3 O5 1.786723 1_555
Ge3 O14 1.815333 1_554
O0 Zn0 2.236161 1_565
O1 Zn1 2.236161 1_656
O2 Zn2 2.236161 1_555
O3 Zn3 2.236161 1_555
O4 Zn0 2.236161 1_555
O5 Zn1 2.236161 1_555
O6 Zn2 2.236161 1_555
O7 Zn3 2.236161 1_666
O8 Zn0 2.144758 1_565
O8 Zn2 2.144758 1_555
O9 Zn1 2.144758 1_556
O9 Zn3 2.144758 1_566
O10 Zn2 2.144758 1_555
O10 Zn0 2.144758 1_555
O11 Zn1 2.144758 1_655
O11 Zn3 2.144758 1_655
O12 Zn3 2.152356 1_665
O12 Zn1 2.152356 1_655
O13 Zn0 2.152356 1_565
O13 Zn2 2.152356 1_555
O14 Zn1 2.152356 1_556
O14 Zn3 2.152356 1_556
O15 Zn0 2.152356 1_555
O15 Zn2 2.152356 1_555
