# generated using pymatgen
data_Mo3NO9
_symmetry_space_group_name_H-M   'P 1'
_cell_length_a   11.27375401
_cell_length_b   11.27381957
_cell_length_c   3.75970800
_cell_angle_alpha   89.99874873
_cell_angle_beta   89.99951228
_cell_angle_gamma   120.00480918
_symmetry_Int_Tables_number   1
_chemical_formula_structural   Mo3NO9
_chemical_formula_sum   'Mo6 N2 O18'
_cell_volume   413.81224190
_cell_formula_units_Z   2
loop_
 _symmetry_equiv_pos_site_id
 _symmetry_equiv_pos_as_xyz
  1  'x, y, z'
loop_
 _atom_site_type_symbol
 _atom_site_label
 _atom_site_symmetry_multiplicity
 _atom_site_fract_x
 _atom_site_fract_y
 _atom_site_fract_z
 _atom_site_occupancy
  Mo  Mo0  1  0.89265200  0.35751700  0.25001000  1
  Mo  Mo1  1  0.46489300  0.10736900  0.24999400  1
  Mo  Mo2  1  0.64249200  0.53514500  0.24998700  1
  Mo  Mo3  1  0.10719800  0.64284400  0.74998700  1
  Mo  Mo4  1  0.53562100  0.89278500  0.75000400  1
  Mo  Mo5  1  0.35714600  0.46434000  0.75001000  1
  N  N0  1  0.00000300  0.00000500  0.39744600  1
  N  N1  1  0.00000300  0.00000500  0.10259800  1
  O  O0  1  0.72252900  0.22443300  0.25001200  1
  O  O1  1  0.50190600  0.27747500  0.24998700  1
  O  O2  1  0.77555000  0.49808700  0.24999300  1
  O  O3  1  0.27742700  0.77556400  0.74998600  1
  O  O4  1  0.49813500  0.72257100  0.75000800  1
  O  O5  1  0.22445400  0.50187100  0.75000300  1
  O  O6  1  0.98198400  0.27280500  0.25001600  1
  O  O7  1  0.29083600  0.01800100  0.24999700  1
  O  O8  1  0.72724100  0.70920100  0.24994700  1
  O  O9  1  0.01827300  0.72800000  0.74998300  1
  O  O10  1  0.70971500  0.98174300  0.74999900  1
  O  O11  1  0.27194700  0.29024500  0.75004600  1
  O  O12  1  0.07652600  0.57461200  0.24999400  1
  O  O13  1  0.49805800  0.92344500  0.25000200  1
  O  O14  1  0.42538300  0.50189600  0.25000600  1
  O  O15  1  0.92331600  0.42564900  0.75000400  1
  O  O16  1  0.50236100  0.07671200  0.74999500  1
  O  O17  1  0.57435200  0.49768100  0.74998800  1
loop_
_geom_bond_atom_site_label_1
_geom_bond_atom_site_label_2
_geom_bond_distance
_geom_bond_site_symmetry_2
Mo0 O6 1.699499 1_555
Mo0 O0 1.746862 1_555
Mo0 O15 1.994434 1_555
Mo0 O15 1.994439 1_554
Mo0 O12 2.283214 1_655
Mo0 O2 2.519288 1_555
Mo1 O7 1.699501 1_555
Mo1 O1 1.746860 1_555
Mo1 O16 1.994428 1_555
Mo1 O16 1.994429 1_554
Mo1 O13 2.283571 1_545
Mo1 O0 2.518769 1_555
Mo2 O8 1.699495 1_555
Mo2 O2 1.746863 1_555
Mo2 O17 1.994446 1_555
Mo2 O17 1.994468 1_554
Mo2 O14 2.283376 1_555
Mo2 O1 2.519091 1_555
Mo3 O9 1.699794 1_555
Mo3 O3 1.746395 1_555
Mo3 O12 1.994765 1_555
Mo3 O12 1.994777 1_556
Mo3 O15 2.283945 1_455
Mo3 O5 2.524793 1_555
Mo4 O10 1.699794 1_555
Mo4 O4 1.746404 1_555
Mo4 O13 1.994754 1_556
Mo4 O13 1.994761 1_555
Mo4 O16 2.284267 1_565
Mo4 O3 2.524282 1_555
Mo5 O11 1.699809 1_555
Mo5 O5 1.746398 1_555
Mo5 O14 1.994782 1_555
Mo5 O14 1.994783 1_556
Mo5 O17 2.284073 1_555
Mo5 O4 2.524634 1_555
N0 N1 1.108542 1_555
