# generated using pymatgen
data_BiTe2Pb2AuS3
_symmetry_space_group_name_H-M   'P 1'
_cell_length_a   4.18142500
_cell_length_b   9.66654700
_cell_length_c   12.29890200
_cell_angle_alpha   90.00000000
_cell_angle_beta   90.00000000
_cell_angle_gamma   90.00000000
_symmetry_Int_Tables_number   1
_chemical_formula_structural   BiTe2Pb2AuS3
_chemical_formula_sum   'Bi2 Te4 Pb4 Au2 S6'
_cell_volume   497.12089677
_cell_formula_units_Z   2
loop_
 _symmetry_equiv_pos_site_id
 _symmetry_equiv_pos_as_xyz
  1  'x, y, z'
loop_
 _atom_site_type_symbol
 _atom_site_label
 _atom_site_symmetry_multiplicity
 _atom_site_fract_x
 _atom_site_fract_y
 _atom_site_fract_z
 _atom_site_occupancy
  Bi  Bi0  1  0.25000000  0.33525900  0.42151400  1
  Bi  Bi1  1  0.75000000  0.66474100  0.92151400  1
  Te  Te0  1  0.75000000  0.99162900  0.39453300  1
  Te  Te1  1  0.75000000  0.99153100  0.10447500  1
  Te  Te2  1  0.25000000  0.00846900  0.60447500  1
  Te  Te3  1  0.25000000  0.00837100  0.89453300  1
  Pb  Pb0  1  0.25000000  0.31923400  0.07860500  1
  Pb  Pb1  1  0.75000000  0.68076600  0.57860500  1
  Pb  Pb2  1  0.75000000  0.65425400  0.25056600  1
  Pb  Pb3  1  0.25000000  0.34574600  0.75056600  1
  Au  Au0  1  0.25000000  0.99678400  0.24967000  1
  Au  Au1  1  0.75000000  0.00321600  0.74967000  1
  S  S0  1  0.75000000  0.36400900  0.25960600  1
  S  S1  1  0.25000000  0.63599100  0.75960600  1
  S  S2  1  0.75000000  0.38297900  0.57498600  1
  S  S3  1  0.75000000  0.38988400  0.91604500  1
  S  S4  1  0.25000000  0.61011600  0.41604500  1
  S  S5  1  0.25000000  0.61702100  0.07498600  1
loop_
_geom_bond_atom_site_label_1
_geom_bond_atom_site_label_2
_geom_bond_distance
_geom_bond_site_symmetry_2
Bi0 S4 2.657769 1_555
Bi0 S2 2.854236 1_455
Bi0 S2 2.854236 1_555
Bi0 S0 2.900612 1_555
Bi0 S0 2.900612 1_455
Bi1 S3 2.657769 1_555
Bi1 S5 2.854236 1_656
Bi1 S5 2.854236 1_556
Bi1 S1 2.900612 1_555
Bi1 S1 2.900612 1_655
Pb0 S5 2.878916 1_555
Pb0 S3 2.972327 1_454
Pb0 S3 2.972327 1_554
Pb0 S0 3.084476 1_455
Pb0 S0 3.084476 1_555
Pb1 S2 2.878916 1_555
Pb1 S4 2.972327 1_555
Pb1 S4 2.972327 1_655
Pb1 S1 3.084476 1_655
Pb1 S1 3.084476 1_555
Pb2 S0 2.807869 1_555
Pb2 S4 2.948762 1_555
Pb2 S4 2.948762 1_655
Pb2 S5 3.027177 1_555
Pb2 S5 3.027177 1_655
Pb3 S1 2.807869 1_555
Pb3 S3 2.948762 1_455
Pb3 S3 2.948762 1_555
Pb3 S2 3.027177 1_455
Pb3 S2 3.027177 1_555
Au0 Te0 2.747337 1_555
Au0 Te0 2.747337 1_455
Au0 Te1 2.750004 1_455
Au0 Te1 2.750004 1_555
Au1 Te3 2.747337 1_655
Au1 Te3 2.747337 1_555
Au1 Te2 2.750004 1_655
Au1 Te2 2.750004 1_555
