# generated using pymatgen
data_Rb4Ge23
_symmetry_space_group_name_H-M   'P 1'
_cell_length_a   10.95457636
_cell_length_b   10.95457730
_cell_length_c   10.95458108
_cell_angle_alpha   90.00000000
_cell_angle_beta   90.00000000
_cell_angle_gamma   90.00000000
_symmetry_Int_Tables_number   1
_chemical_formula_structural   Rb4Ge23
_chemical_formula_sum   'Rb8 Ge46'
_cell_volume   1314.57989331
_cell_formula_units_Z   2
loop_
 _symmetry_equiv_pos_site_id
 _symmetry_equiv_pos_as_xyz
  1  'x, y, z'
loop_
 _atom_site_type_symbol
 _atom_site_label
 _atom_site_symmetry_multiplicity
 _atom_site_fract_x
 _atom_site_fract_y
 _atom_site_fract_z
 _atom_site_occupancy
  Rb  Rb0  1  0.00000000  0.00000000  0.00000000  1
  Rb  Rb1  1  0.50000000  0.50000000  0.50000000  1
  Rb  Rb2  1  0.25000279  0.00000000  0.50000000  1
  Rb  Rb3  1  0.74999721  0.00000000  0.50000000  1
  Rb  Rb4  1  0.50000000  0.24999979  0.00000000  1
  Rb  Rb5  1  0.50000000  0.75000021  0.00000000  1
  Rb  Rb6  1  0.00000000  0.50000000  0.24999879  1
  Rb  Rb7  1  0.00000000  0.50000000  0.75000121  1
  Ge  Ge0  1  0.00000000  0.11999248  0.30577256  1
  Ge  Ge1  1  0.00000000  0.88000752  0.69422744  1
  Ge  Ge2  1  0.00000000  0.88000752  0.30577256  1
  Ge  Ge3  1  0.00000000  0.11999248  0.69422744  1
  Ge  Ge4  1  0.30577356  0.00000000  0.11999248  1
  Ge  Ge5  1  0.61999102  0.50000000  0.19422693  1
  Ge  Ge6  1  0.69422644  -0.00000000  0.88000752  1
  Ge  Ge7  1  0.38000898  0.50000000  0.80577307  1
  Ge  Ge8  1  0.30577356  0.00000000  0.88000752  1
  Ge  Ge9  1  0.38000898  0.50000000  0.19422693  1
  Ge  Ge10  1  0.69422644  0.00000000  0.11999248  1
  Ge  Ge11  1  0.61999102  0.50000000  0.80577307  1
  Ge  Ge12  1  0.11999248  0.30577256  -0.00000000  1
  Ge  Ge13  1  0.50000000  0.80577307  0.38000798  1
  Ge  Ge14  1  0.88000752  0.69422744  0.00000000  1
  Ge  Ge15  1  0.50000000  0.19422693  0.61999202  1
  Ge  Ge16  1  0.11999248  0.69422744  0.00000000  1
  Ge  Ge17  1  0.50000000  0.19422793  0.38000798  1
  Ge  Ge18  1  0.88000752  0.30577256  0.00000000  1
  Ge  Ge19  1  0.50000000  0.80577207  0.61999202  1
  Ge  Ge20  1  0.19422793  0.61999102  0.50000000  1
  Ge  Ge21  1  0.80577307  0.38000898  0.50000000  1
  Ge  Ge22  1  0.19422793  0.38000898  0.50000000  1
  Ge  Ge23  1  0.80577207  0.61999202  0.50000000  1
  Ge  Ge24  1  0.25000136  0.50000000  0.00000000  1
  Ge  Ge25  1  0.74999864  0.50000000  -0.00000000  1
  Ge  Ge26  1  0.00000000  0.25000136  0.50000000  1
  Ge  Ge27  1  0.00000000  0.74999864  0.50000000  1
  Ge  Ge28  1  0.50000000  0.00000000  0.25000136  1
  Ge  Ge29  1  0.50000000  -0.00000000  0.74999864  1
  Ge  Ge30  1  0.18484930  0.18484830  0.18484830  1
  Ge  Ge31  1  0.81515070  0.81515170  0.81515170  1
  Ge  Ge32  1  0.81515170  0.81515170  0.18484830  1
  Ge  Ge33  1  0.81515170  0.18484830  0.81515170  1
  Ge  Ge34  1  0.68484764  0.68484864  0.31515136  1
  Ge  Ge35  1  0.18484930  0.18484830  0.81515170  1
  Ge  Ge36  1  0.18484930  0.81515170  0.18484830  1
  Ge  Ge37  1  0.31515236  0.31515236  0.68484864  1
  Ge  Ge38  1  0.18484930  0.81515170  0.81515170  1
  Ge  Ge39  1  0.31515236  0.31515136  0.31515136  1
  Ge  Ge40  1  0.81515170  0.18484830  0.18484830  1
  Ge  Ge41  1  0.68484764  0.68484864  0.68484864  1
  Ge  Ge42  1  0.68484764  0.31515236  0.68484864  1
  Ge  Ge43  1  0.31515236  0.68484864  0.31515236  1
  Ge  Ge44  1  0.31515236  0.68484864  0.68484864  1
  Ge  Ge45  1  0.68484764  0.31515136  0.31515136  1
loop_
_geom_bond_atom_site_label_1
_geom_bond_atom_site_label_2
_geom_bond_distance
_geom_bond_site_symmetry_2
Ge0 Ge40 2.521882 1_455
Ge0 Ge30 2.521891 1_555
Ge0 Ge26 2.560341 1_555
Ge0 Ge2 2.628934 1_545
Ge0 Rb0 3.598293 1_555
Ge0 Rb2 3.708798 1_555
Ge0 Rb3 3.708798 1_455
Ge1 Ge31 2.521891 1_455
Ge1 Ge38 2.521891 1_555
Ge1 Ge27 2.560341 1_555
Ge1 Ge3 2.628934 1_565
Ge1 Rb0 3.598293 1_566
Ge1 Rb2 3.708798 1_565
Ge1 Rb3 3.708798 1_465
Ge2 Ge32 2.521882 1_455
Ge2 Ge36 2.521891 1_555
Ge2 Ge27 2.560341 1_555
Ge2 Rb0 3.598293 1_565
Ge2 Rb2 3.708798 1_565
Ge2 Rb3 3.708798 1_465
Ge3 Ge33 2.521882 1_455
Ge3 Ge35 2.521891 1_555
Ge3 Rb0 3.598293 1_556
Ge3 Rb2 3.708798 1_555
Ge3 Rb3 3.708798 1_455
Ge4 Ge8 2.628935 1_554
Ge4 Rb0 3.598302 1_555
Ge4 Rb4 3.708768 1_555
Ge4 Rb5 3.708768 1_545
Ge5 Ge9 2.628902 1_555
Ge5 Rb1 3.598292 1_555
Ge5 Rb5 3.708769 1_555
Ge5 Rb4 3.708769 1_555
Ge6 Rb0 3.598302 1_656
Ge6 Rb4 3.708768 1_556
Ge6 Rb5 3.708768 1_546
Ge7 Rb1 3.598292 1_555
Ge7 Rb5 3.708769 1_556
Ge7 Rb4 3.708769 1_556
Ge8 Rb0 3.598302 1_556
Ge8 Rb4 3.708768 1_556
Ge8 Rb5 3.708768 1_546
Ge9 Rb1 3.598292 1_555
Ge9 Rb5 3.708769 1_555
Ge9 Rb4 3.708769 1_555
Ge10 Ge40 2.521888 1_555
Ge10 Ge32 2.521888 1_545
Ge10 Ge28 2.560332 1_555
Ge10 Ge6 2.628935 1_554
Ge10 Rb0 3.598302 1_655
Ge10 Rb4 3.708768 1_555
Ge10 Rb5 3.708768 1_545
Ge11 Ge42 2.521880 1_555
Ge11 Ge41 2.521889 1_555
Ge11 Ge25 2.560329 1_556
Ge11 Ge7 2.628902 1_555
Ge11 Rb1 3.598292 1_555
Ge11 Rb4 3.708769 1_556
Ge11 Rb5 3.708769 1_556
Ge12 Ge30 2.521886 1_555
Ge12 Ge35 2.521886 1_554
Ge12 Ge24 2.560341 1_555
Ge12 Ge18 2.628934 1_455
Ge12 Rb0 3.598292 1_555
Ge12 Rb7 3.708766 1_554
Ge12 Rb6 3.708766 1_555
Ge13 Ge43 2.521876 1_555
Ge13 Ge34 2.521879 1_555
Ge13 Ge28 2.560322 1_565
Ge13 Ge19 2.628925 1_555
Ge13 Rb1 3.598295 1_555
Ge13 Rb3 3.708748 1_565
Ge13 Rb2 3.708748 1_565
Ge14 Ge32 2.521882 1_555
Ge14 Ge31 2.521886 1_554
Ge14 Ge25 2.560341 1_555
Ge14 Ge16 2.628934 1_655
Ge14 Rb0 3.598292 1_665
Ge14 Rb7 3.708766 1_654
Ge14 Rb6 3.708766 1_655
Ge15 Ge42 2.521885 1_555
Ge15 Ge37 2.521885 1_555
Ge15 Ge29 2.560322 1_555
Ge15 Ge17 2.628925 1_555
Ge15 Rb1 3.598295 1_555
Ge15 Rb3 3.708748 1_555
Ge15 Rb2 3.708748 1_555
Ge16 Ge38 2.521886 1_554
Ge16 Ge36 2.521886 1_555
Ge16 Ge24 2.560341 1_555
Ge16 Rb0 3.598292 1_565
Ge16 Rb7 3.708766 1_554
Ge16 Rb6 3.708766 1_555
Ge17 Ge45 2.521874 1_555
Ge17 Ge39 2.521874 1_555
Ge17 Ge28 2.560332 1_555
Ge17 Rb1 3.598285 1_555
Ge17 Rb3 3.708754 1_555
Ge17 Rb2 3.708754 1_555
Ge18 Ge40 2.521882 1_555
Ge18 Ge33 2.521882 1_554
Ge18 Ge25 2.560341 1_555
Ge18 Rb0 3.598292 1_655
Ge18 Rb6 3.708766 1_655
Ge18 Rb7 3.708766 1_654
Ge19 Ge44 2.521874 1_555
Ge19 Ge41 2.521874 1_555
Ge19 Ge29 2.560332 1_565
Ge19 Rb1 3.598285 1_555
Ge19 Rb3 3.708754 1_565
Ge19 Rb2 3.708754 1_565
Ge20 Ge43 2.521883 1_555
Ge20 Ge44 2.521892 1_555
Ge20 Ge27 2.560337 1_555
Ge20 Ge22 2.628902 1_555
Ge20 Rb1 3.598281 1_555
Ge20 Rb6 3.708783 1_555
Ge20 Rb7 3.708783 1_555
Ge21 Ge42 2.521895 1_555
Ge21 Ge45 2.521898 1_555
Ge21 Ge26 2.560328 1_655
Ge21 Ge23 2.628913 1_555
Ge21 Rb1 3.598291 1_555
Ge21 Rb7 3.708777 1_655
Ge21 Rb6 3.708777 1_655
Ge22 Ge37 2.521889 1_555
Ge22 Ge39 2.521892 1_555
Ge22 Ge26 2.560337 1_555
Ge22 Rb1 3.598281 1_555
Ge22 Rb6 3.708783 1_555
Ge22 Rb7 3.708783 1_555
Ge23 Ge34 2.521889 1_555
Ge23 Ge41 2.521889 1_555
Ge23 Ge27 2.560331 1_655
Ge23 Rb1 3.598285 1_555
Ge23 Rb6 3.708787 1_655
Ge23 Rb7 3.708787 1_655
Ge24 Ge9 2.560329 1_555
Ge24 Ge7 2.560329 1_554
Ge24 Rb5 3.873019 1_555
Ge24 Rb4 3.873019 1_555
Ge24 Rb7 3.873030 1_554
Ge24 Rb6 3.873030 1_555
Ge25 Ge5 2.560329 1_555
Ge25 Rb5 3.873019 1_555
Ge25 Rb4 3.873019 1_555
Ge25 Rb6 3.873030 1_655
Ge25 Rb7 3.873030 1_654
Ge26 Ge3 2.560341 1_555
Ge26 Rb7 3.873027 1_555
Ge26 Rb6 3.873027 1_555
Ge26 Rb2 3.873060 1_555
Ge26 Rb3 3.873060 1_455
Ge27 Rb6 3.873027 1_555
Ge27 Rb7 3.873027 1_555
Ge27 Rb2 3.873060 1_565
Ge27 Rb3 3.873060 1_465
Ge28 Ge4 2.560332 1_555
Ge28 Rb3 3.872996 1_555
Ge28 Rb2 3.872996 1_555
Ge28 Rb4 3.873038 1_555
Ge28 Rb5 3.873038 1_545
Ge29 Ge8 2.560332 1_555
Ge29 Ge6 2.560332 1_555
Ge29 Rb3 3.872996 1_555
Ge29 Rb2 3.872996 1_555
Ge29 Rb4 3.873038 1_556
Ge29 Rb5 3.873038 1_546
Ge30 Ge39 2.472355 1_555
Ge30 Ge4 2.521882 1_555
Ge30 Rb0 3.507297 1_555
Ge31 Ge41 2.472355 1_555
Ge31 Ge6 2.521882 1_565
Ge31 Rb0 3.507297 1_666
Ge32 Ge34 2.472362 1_555
Ge32 Rb0 3.507291 1_665
Ge33 Ge42 2.472368 1_555
Ge33 Ge6 2.521888 1_555
Ge33 Rb0 3.507291 1_656
Ge34 Ge5 2.521889 1_555
Ge34 Rb1 3.507291 1_555
Ge35 Ge37 2.472362 1_555
Ge35 Ge8 2.521882 1_555
Ge35 Rb0 3.507297 1_556
Ge36 Ge43 2.472362 1_555
Ge36 Ge4 2.521882 1_565
Ge36 Rb0 3.507297 1_565
Ge37 Ge7 2.521880 1_555
Ge37 Rb1 3.507284 1_555
Ge38 Ge44 2.472355 1_555
Ge38 Ge8 2.521882 1_565
Ge38 Rb0 3.507297 1_566
Ge39 Ge9 2.521889 1_555
Ge39 Rb1 3.507291 1_555
Ge40 Ge45 2.472362 1_555
Ge40 Rb0 3.507291 1_655
Ge41 Rb1 3.507291 1_555
Ge42 Rb1 3.507284 1_555
Ge43 Ge9 2.521894 1_555
Ge43 Rb1 3.507284 1_555
Ge44 Ge7 2.521889 1_555
Ge44 Rb1 3.507291 1_555
Ge45 Ge5 2.521889 1_555
Ge45 Rb1 3.507291 1_555
