# generated using pymatgen
data_Nd2NiO4
_symmetry_space_group_name_H-M   'P 1'
_cell_length_a   6.74060683
_cell_length_b   6.74060683
_cell_length_c   6.74060683
_cell_angle_alpha   146.67243092
_cell_angle_beta   146.67243092
_cell_angle_gamma   47.84904776
_symmetry_Int_Tables_number   1
_chemical_formula_structural   Nd2NiO4
_chemical_formula_sum   'Nd2 Ni1 O4'
_cell_volume   92.07962321
_cell_formula_units_Z   1
loop_
 _symmetry_equiv_pos_site_id
 _symmetry_equiv_pos_as_xyz
  1  'x, y, z'
loop_
 _atom_site_type_symbol
 _atom_site_label
 _atom_site_symmetry_multiplicity
 _atom_site_fract_x
 _atom_site_fract_y
 _atom_site_fract_z
 _atom_site_occupancy
  Nd  Nd0  1  0.63554800  0.63554800  0.00000000  1
  Nd  Nd1  1  0.36445200  0.36445200  0.00000000  1
  Ni  Ni0  1  0.00000000  0.00000000  0.00000000  1
  O  O0  1  0.50000000  0.00000000  0.50000000  1
  O  O1  1  0.00000000  0.50000000  0.50000000  1
  O  O2  1  0.82128600  0.82128600  0.00000000  1
  O  O3  1  0.17871400  0.17871400  0.00000000  1
loop_
_geom_bond_atom_site_label_1
_geom_bond_atom_site_label_2
_geom_bond_distance
_geom_bond_site_symmetry_2
Nd0 O2 2.288833 1_555
Nd0 O1 2.554637 1_554
Nd0 O0 2.554637 1_565
Nd0 O1 2.554637 1_655
Nd0 O0 2.554637 1_554
Nd0 O3 2.784812 1_565
Nd0 O3 2.784812 1_655
Nd0 O3 2.784812 1_666
Nd0 O3 2.784812 1_554
Nd1 O3 2.288833 1_555
Nd1 O1 2.554637 1_554
Nd1 O0 2.554637 1_565
Nd1 O1 2.554637 1_655
Nd1 O0 2.554637 1_554
Nd1 O2 2.784812 1_545
Nd1 O2 2.784812 1_455
Nd1 O2 2.784812 1_556
Nd1 O2 2.784812 1_444
Ni0 O1 1.932903 1_555
Ni0 O1 1.932903 1_544
Ni0 O0 1.932903 1_454
Ni0 O0 1.932903 1_555
Ni0 O3 2.202277 1_555
Ni0 O2 2.202277 1_445
