# generated using pymatgen
data_BaZnCO3F2
_symmetry_space_group_name_H-M   'P 1'
_cell_length_a   4.92015369
_cell_length_b   4.92015369
_cell_length_c   10.13364400
_cell_angle_alpha   90.00000000
_cell_angle_beta   90.00000000
_cell_angle_gamma   119.99999587
_symmetry_Int_Tables_number   1
_chemical_formula_structural   BaZnCO3F2
_chemical_formula_sum   'Ba2 Zn2 C2 O6 F4'
_cell_volume   212.44848159
_cell_formula_units_Z   2
loop_
 _symmetry_equiv_pos_site_id
 _symmetry_equiv_pos_as_xyz
  1  'x, y, z'
loop_
 _atom_site_type_symbol
 _atom_site_label
 _atom_site_symmetry_multiplicity
 _atom_site_fract_x
 _atom_site_fract_y
 _atom_site_fract_z
 _atom_site_occupancy
  Ba  Ba0  1  0.00000000  0.00000000  0.50000000  1
  Ba  Ba1  1  0.00000000  0.00000000  0.00000000  1
  Zn  Zn0  1  0.66666700  0.33333300  0.75000000  1
  Zn  Zn1  1  0.33333300  0.66666700  0.25000000  1
  C  C0  1  0.33333300  0.66666700  0.75000000  1
  C  C1  1  0.66666700  0.33333300  0.25000000  1
  O  O0  1  0.89686900  0.62070900  0.25000000  1
  O  O1  1  0.27616000  0.89686900  0.75000000  1
  O  O2  1  0.72384000  0.10313100  0.25000000  1
  O  O3  1  0.10313100  0.37929100  0.75000000  1
  O  O4  1  0.37929100  0.27616000  0.25000000  1
  O  O5  1  0.62070900  0.72384000  0.75000000  1
  F  F0  1  0.33333300  0.66666700  0.45208500  1
  F  F1  1  0.66666700  0.33333300  0.95208500  1
  F  F2  1  0.33333300  0.66666700  0.04791500  1
  F  F3  1  0.66666700  0.33333300  0.54791500  1
loop_
_geom_bond_atom_site_label_1
_geom_bond_atom_site_label_2
_geom_bond_distance
_geom_bond_site_symmetry_2
Ba0 F0 2.881848 1_545
Ba0 F3 2.881848 1_455
Ba0 F0 2.881853 1_555
Ba0 F0 2.881853 1_445
Ba0 F3 2.881853 1_555
Ba0 F3 2.881853 1_445
Ba0 O1 3.035013 1_545
Ba0 O2 3.035013 1_455
Ba0 O3 3.035013 1_555
Ba0 O0 3.035013 1_445
Ba0 O4 3.035013 1_555
Ba0 O5 3.035013 1_445
Ba1 F2 2.881848 1_545
Ba1 F1 2.881848 1_454
Ba1 F2 2.881853 1_555
Ba1 F2 2.881853 1_445
Ba1 F1 2.881853 1_554
Ba1 F1 2.881853 1_444
Ba1 O2 3.035013 1_455
Ba1 O1 3.035013 1_544
Ba1 O3 3.035013 1_554
Ba1 O0 3.035013 1_445
Ba1 O5 3.035013 1_444
Ba1 O4 3.035013 1_555
C0 O1 1.296375 1_555
C0 O3 1.296378 1_555
C0 O5 1.296379 1_555
C1 O2 1.296375 1_555
C1 O0 1.296378 1_555
C1 O4 1.296379 1_555
O0 Zn1 2.043813 1_655
O1 Zn0 2.043815 1_565
O2 Zn1 2.043815 1_545
O3 Zn0 2.043813 1_455
O4 Zn1 2.043818 1_555
O5 Zn0 2.043818 1_555
F0 Zn1 2.047857 1_555
F1 Zn0 2.047857 1_555
F2 Zn1 2.047857 1_555
F3 Zn0 2.047857 1_555
