# generated using pymatgen
data_Li(YGe)4
_symmetry_space_group_name_H-M   'P 1'
_cell_length_a   7.15701317
_cell_length_b   7.71247164
_cell_length_c   14.72155288
_cell_angle_alpha   90.00000000
_cell_angle_beta   90.00000000
_cell_angle_gamma   90.00000000
_symmetry_Int_Tables_number   1
_chemical_formula_structural   Li(YGe)4
_chemical_formula_sum   'Li4 Y16 Ge16'
_cell_volume   812.60411968
_cell_formula_units_Z   4
loop_
 _symmetry_equiv_pos_site_id
 _symmetry_equiv_pos_as_xyz
  1  'x, y, z'
loop_
 _atom_site_type_symbol
 _atom_site_label
 _atom_site_symmetry_multiplicity
 _atom_site_fract_x
 _atom_site_fract_y
 _atom_site_fract_z
 _atom_site_occupancy
  Li  Li0  1  0.16313100  0.52756163  0.75000000  1
  Li  Li1  1  0.83686900  0.47243837  0.25000000  1
  Li  Li2  1  0.33686900  0.02756163  0.25000000  1
  Li  Li3  1  0.66313100  0.97243837  0.75000000  1
  Y  Y0  1  0.32893046  0.17790952  0.62770675  1
  Y  Y1  1  0.67106954  0.82209048  0.37229325  1
  Y  Y2  1  0.17106954  0.67790952  0.37229325  1
  Y  Y3  1  0.67106954  0.82209048  0.12770675  1
  Y  Y4  1  0.82893046  0.32209048  0.62770675  1
  Y  Y5  1  0.32893046  0.17790952  0.87229325  1
  Y  Y6  1  0.82893046  0.32209048  0.87229325  1
  Y  Y7  1  0.17106954  0.67790952  0.12770675  1
  Y  Y8  1  0.01823041  0.18687708  0.09873251  1
  Y  Y9  1  0.98176959  0.81312292  0.90126749  1
  Y  Y10  1  0.48176959  0.68687708  0.90126749  1
  Y  Y11  1  0.98176959  0.81312292  0.59873251  1
  Y  Y12  1  0.51823041  0.31312292  0.09873251  1
  Y  Y13  1  0.01823041  0.18687708  0.40126749  1
  Y  Y14  1  0.51823041  0.31312292  0.40126749  1
  Y  Y15  1  0.48176959  0.68687708  0.59873251  1
  Ge  Ge0  1  0.01867596  0.08551154  0.75000000  1
  Ge  Ge1  1  0.98132404  0.91448846  0.25000000  1
  Ge  Ge2  1  0.48132404  0.58551154  0.25000000  1
  Ge  Ge3  1  0.51867596  0.41448846  0.75000000  1
  Ge  Ge4  1  0.28023817  0.86605659  0.75000000  1
  Ge  Ge5  1  0.71976183  0.13394341  0.25000000  1
  Ge  Ge6  1  0.21976183  0.36605659  0.25000000  1
  Ge  Ge7  1  0.78023817  0.63394341  0.75000000  1
  Ge  Ge8  1  0.16487237  0.46654220  0.53582757  1
  Ge  Ge9  1  0.83512763  0.53345780  0.46417243  1
  Ge  Ge10  1  0.33512763  0.96654220  0.46417243  1
  Ge  Ge11  1  0.83512763  0.53345780  0.03582757  1
  Ge  Ge12  1  0.66487237  0.03345780  0.53582757  1
  Ge  Ge13  1  0.16487237  0.46654220  0.96417243  1
  Ge  Ge14  1  0.66487237  0.03345780  0.96417243  1
  Ge  Ge15  1  0.33512763  0.96654220  0.03582757  1
loop_
_geom_bond_atom_site_label_1
_geom_bond_atom_site_label_2
_geom_bond_distance
_geom_bond_site_symmetry_2
Ge0 Ge4 2.523706 1_545
Ge0 Li3 2.689927 1_445
Ge0 Y4 2.900799 1_455
Ge0 Y6 2.900799 1_455
Ge0 Y5 2.946128 1_555
Ge0 Y0 2.946128 1_555
Ge0 Y11 3.072806 1_445
Ge0 Y9 3.072806 1_445
Ge1 Ge5 2.523706 1_565
Ge1 Li2 2.689927 1_665
Ge1 Y7 2.900799 1_655
Ge1 Y2 2.900799 1_655
Ge1 Y3 2.946128 1_555
Ge1 Y1 2.946128 1_555
Ge1 Y13 3.072806 1_665
Ge1 Y8 3.072806 1_665
Ge2 Ge6 2.523706 1_555
Ge2 Li1 2.689927 1_555
Ge2 Y1 2.900799 1_555
Ge2 Y3 2.900799 1_555
Ge2 Y7 2.946128 1_555
Ge2 Y2 2.946128 1_555
Ge2 Y14 3.072806 1_555
Ge2 Y12 3.072806 1_555
Ge3 Ge7 2.523706 1_555
Ge3 Li0 2.689927 1_555
Ge3 Y5 2.900799 1_555
Ge3 Y0 2.900799 1_555
Ge3 Y6 2.946128 1_555
Ge3 Y4 2.946128 1_555
Ge3 Y15 3.072806 1_555
Ge3 Y10 3.072806 1_555
Ge4 Li0 2.741875 1_555
Ge4 Li3 2.860557 1_555
Ge4 Y15 2.991514 1_555
Ge4 Y10 2.991514 1_555
Ge4 Y5 3.024479 1_565
Ge4 Y0 3.024479 1_565
Ge4 Y11 3.112688 1_455
Ge4 Y9 3.112688 1_455
Ge5 Li1 2.741875 1_555
Ge5 Li2 2.860557 1_555
Ge5 Y14 2.991514 1_555
Ge5 Y12 2.991514 1_555
Ge5 Y3 3.024479 1_545
Ge5 Y1 3.024479 1_545
Ge5 Y13 3.112688 1_655
Ge5 Y8 3.112688 1_655
Ge6 Li2 2.741875 1_555
Ge6 Li1 2.860557 1_455
Ge6 Y8 2.991514 1_555
Ge6 Y13 2.991514 1_555
Ge6 Y2 3.024479 1_555
Ge6 Y7 3.024479 1_555
Ge6 Y14 3.112688 1_555
Ge6 Y12 3.112688 1_555
Ge7 Li3 2.741875 1_555
Ge7 Li0 2.860557 1_655
Ge7 Y11 2.991514 1_555
Ge7 Y9 2.991514 1_555
Ge7 Y6 3.024479 1_555
Ge7 Y4 3.024479 1_555
Ge7 Y15 3.112688 1_555
Ge7 Y10 3.112688 1_555
Ge8 Ge9 2.636028 1_455
Ge8 Y0 2.857201 1_555
Ge8 Y2 2.907810 1_555
Ge8 Y4 2.975158 1_455
Ge8 Y15 2.981491 1_555
Ge8 Y13 3.110923 1_555
Ge8 Y11 3.117661 1_455
Ge8 Li0 3.187903 1_555
Ge8 Y14 3.423440 1_555
Ge9 Y1 2.857201 1_555
Ge9 Y4 2.907810 1_555
Ge9 Y2 2.975158 1_655
Ge9 Y14 2.981491 1_555
Ge9 Y11 3.110923 1_555
Ge9 Y13 3.117661 1_655
Ge9 Li1 3.187903 1_555
Ge9 Y15 3.423440 1_555
Ge10 Ge12 2.636028 1_565
Ge10 Y2 2.857201 1_555
Ge10 Y0 2.907810 1_565
Ge10 Y1 2.975158 1_555
Ge10 Y13 2.981491 1_565
Ge10 Y15 3.110923 1_555
Ge10 Y14 3.117661 1_565
Ge10 Li2 3.187903 1_565
Ge10 Y11 3.423440 1_455
Ge11 Ge13 2.636028 1_654
Ge11 Y3 2.857201 1_555
Ge11 Y6 2.907810 1_554
Ge11 Y7 2.975158 1_655
Ge11 Y12 2.981491 1_555
Ge11 Y9 3.110923 1_554
Ge11 Y8 3.117661 1_655
Ge11 Li1 3.187903 1_555
Ge11 Y10 3.423440 1_554
Ge12 Y4 2.857201 1_555
Ge12 Y1 2.907810 1_545
Ge12 Y0 2.975158 1_555
Ge12 Y11 2.981491 1_545
Ge12 Y14 3.110923 1_555
Ge12 Y15 3.117661 1_545
Ge12 Li3 3.187903 1_545
Ge12 Y13 3.423440 1_655
Ge13 Y5 2.857201 1_555
Ge13 Y7 2.907810 1_556
Ge13 Y6 2.975158 1_455
Ge13 Y10 2.981491 1_555
Ge13 Y8 3.110923 1_556
Ge13 Y9 3.117661 1_455
Ge13 Li0 3.187903 1_555
Ge13 Y12 3.423440 1_556
Ge14 Ge15 2.636028 1_546
Ge14 Y6 2.857201 1_555
Ge14 Y3 2.907810 1_546
Ge14 Y5 2.975158 1_555
Ge14 Y9 2.981491 1_545
Ge14 Y12 3.110923 1_556
Ge14 Y10 3.117661 1_545
Ge14 Li3 3.187903 1_545
Ge14 Y8 3.423440 1_656
Ge15 Y7 2.857201 1_555
Ge15 Y5 2.907810 1_564
Ge15 Y3 2.975158 1_555
Ge15 Y8 2.981491 1_565
Ge15 Y10 3.110923 1_554
Ge15 Y12 3.117661 1_565
Ge15 Li2 3.187903 1_565
Ge15 Y9 3.423440 1_454
