# generated using pymatgen
data_Tb10Mn13C18
_symmetry_space_group_name_H-M   'P 1'
_cell_length_a   8.73657166
_cell_length_b   8.73657166
_cell_length_c   8.73657166
_cell_angle_alpha   109.47122063
_cell_angle_beta   109.47122063
_cell_angle_gamma   109.47122063
_symmetry_Int_Tables_number   1
_chemical_formula_structural   Tb10Mn13C18
_chemical_formula_sum   'Tb10 Mn13 C18'
_cell_volume   513.33542977
_cell_formula_units_Z   1
loop_
 _symmetry_equiv_pos_site_id
 _symmetry_equiv_pos_as_xyz
  1  'x, y, z'
loop_
 _atom_site_type_symbol
 _atom_site_label
 _atom_site_symmetry_multiplicity
 _atom_site_fract_x
 _atom_site_fract_y
 _atom_site_fract_z
 _atom_site_occupancy
  Tb  Tb0  1  0.50000000  0.75000000  0.25000000  1
  Tb  Tb1  1  0.75000000  0.50000000  0.25000000  1
  Tb  Tb2  1  0.25000000  0.75000000  0.50000000  1
  Tb  Tb3  1  0.25000000  0.50000000  0.75000000  1
  Tb  Tb4  1  0.50000000  0.25000000  0.75000000  1
  Tb  Tb5  1  0.75000000  0.25000000  0.50000000  1
  Tb  Tb6  1  0.40743600  0.00000000  0.00000000  1
  Tb  Tb7  1  0.00000000  0.40743600  0.00000000  1
  Tb  Tb8  1  0.00000000  0.00000000  0.40743600  1
  Tb  Tb9  1  0.59256400  0.59256400  0.59256400  1
  Mn  Mn0  1  0.00000000  0.00000000  0.00000000  1
  Mn  Mn1  1  0.66925900  0.82340500  0.00000000  1
  Mn  Mn2  1  0.84585400  0.17659500  0.17659500  1
  Mn  Mn3  1  0.66925900  0.00000000  0.82340500  1
  Mn  Mn4  1  0.82340500  0.66925900  0.00000000  1
  Mn  Mn5  1  0.00000000  0.66925900  0.82340500  1
  Mn  Mn6  1  0.17659500  0.84585400  0.17659500  1
  Mn  Mn7  1  0.17659500  0.17659500  0.84585400  1
  Mn  Mn8  1  0.00000000  0.82340500  0.66925900  1
  Mn  Mn9  1  0.82340500  0.00000000  0.66925900  1
  Mn  Mn10  1  0.33074100  0.33074100  0.15414600  1
  Mn  Mn11  1  0.15414600  0.33074100  0.33074100  1
  Mn  Mn12  1  0.33074100  0.15414600  0.33074100  1
  C  C0  1  0.70181600  0.21705400  0.00000000  1
  C  C1  1  0.48476200  0.78294600  0.78294600  1
  C  C2  1  0.70181600  0.00000000  0.21705400  1
  C  C3  1  0.21705400  0.70181600  0.00000000  1
  C  C4  1  0.00000000  0.70181600  0.21705400  1
  C  C5  1  0.78294600  0.48476200  0.78294600  1
  C  C6  1  0.78294600  0.78294600  0.48476200  1
  C  C7  1  0.00000000  0.21705400  0.70181600  1
  C  C8  1  0.21705400  0.00000000  0.70181600  1
  C  C9  1  0.29818400  0.29818400  0.51523800  1
  C  C10  1  0.51523800  0.29818400  0.29818400  1
  C  C11  1  0.29818400  0.51523800  0.29818400  1
  C  C12  1  0.56967600  0.56967600  0.00000000  1
  C  C13  1  0.00000000  0.43032400  0.43032400  1
  C  C14  1  0.56967600  0.00000000  0.56967600  1
  C  C15  1  0.00000000  0.56967600  0.56967600  1
  C  C16  1  0.43032400  0.00000000  0.43032400  1
  C  C17  1  0.43032400  0.43032400  0.00000000  1
loop_
_geom_bond_atom_site_label_1
_geom_bond_atom_site_label_2
_geom_bond_distance
_geom_bond_site_symmetry_2
Mn0 Mn10 2.785271 1_555
Mn0 Mn2 2.785271 1_455
Mn0 Mn6 2.785271 1_545
Mn0 Mn11 2.785271 1_555
Mn0 Mn12 2.785271 1_555
Mn0 Mn7 2.785271 1_554
Mn0 Mn4 2.785271 1_445
Mn0 Mn9 2.785271 1_454
Mn0 Mn1 2.785271 1_445
Mn0 Mn8 2.785271 1_544
Mn0 Mn3 2.785271 1_454
Mn0 Mn5 2.785271 1_544
Mn0 Tb8 3.559594 1_555
Mn0 Tb6 3.559594 1_555
Mn0 Tb7 3.559594 1_555
Mn0 Tb9 3.559594 1_444
C0 Mn3 1.858661 1_554
C0 Mn2 1.858661 1_555
C0 Tb1 2.480368 1_555
C0 Tb4 2.480368 1_554
C0 Tb7 2.581551 1_655
C0 Tb6 2.638017 1_555
C1 Mn3 1.858661 1_565
C1 Mn1 1.858661 1_556
C1 Tb2 2.480368 1_555
C1 Tb3 2.480368 1_555
C1 Tb9 2.581551 1_555
C1 Tb6 2.638017 1_566
C2 Mn1 1.858661 1_545
C2 Mn2 1.858661 1_555
C2 Tb5 2.480368 1_555
C2 Tb0 2.480368 1_545
C2 Tb8 2.581551 1_655
C2 Tb6 2.638017 1_555
C3 Mn5 1.858661 1_554
C3 Mn6 1.858661 1_555
C3 Tb3 2.480368 1_554
C3 Tb0 2.480368 1_555
C3 Tb6 2.581551 1_565
C3 Tb7 2.638017 1_555
C4 Mn4 1.858661 1_455
C4 Mn6 1.858661 1_555
C4 Tb1 2.480368 1_455
C4 Tb2 2.480368 1_555
C4 Tb8 2.581551 1_565
C4 Tb7 2.638017 1_555
C5 Mn5 1.858661 1_655
C5 Mn4 1.858661 1_556
C5 Tb4 2.480368 1_555
C5 Tb5 2.480368 1_555
C5 Tb9 2.581551 1_555
C5 Tb7 2.638017 1_656
C6 Mn8 1.858661 1_655
C6 Mn9 1.858661 1_565
C6 Tb1 2.480368 1_555
C6 Tb0 2.480368 1_555
C6 Tb9 2.581551 1_555
C6 Tb8 2.638017 1_665
C7 Mn9 1.858661 1_455
C7 Mn7 1.858661 1_555
C7 Tb3 2.480368 1_555
C7 Tb5 2.480368 1_455
C7 Tb7 2.581551 1_556
C7 Tb8 2.638017 1_555
C8 Mn8 1.858661 1_545
C8 Mn7 1.858661 1_555
C8 Tb2 2.480368 1_545
C8 Tb4 2.480368 1_555
C8 Tb6 2.581551 1_556
C8 Tb8 2.638017 1_555
C9 Mn11 1.858661 1_555
C9 Mn12 1.858661 1_555
C9 Tb3 2.480368 1_555
C9 Tb4 2.480368 1_555
C9 Tb8 2.581551 1_555
C9 Tb9 2.638017 1_555
C10 Mn12 1.858661 1_555
C10 Mn10 1.858661 1_555
C10 Tb5 2.480368 1_555
C10 Tb1 2.480368 1_555
C10 Tb6 2.581551 1_555
C10 Tb9 2.638017 1_555
C11 Mn11 1.858661 1_555
C11 Mn10 1.858661 1_555
C11 Tb2 2.480368 1_555
C11 Tb0 2.480368 1_555
C11 Tb7 2.581551 1_555
C11 Tb9 2.638017 1_555
C12 C17 1.405800 1_555
C12 Mn4 2.094053 1_555
C12 Mn1 2.094053 1_555
C12 Tb3 2.618150 1_554
C12 Tb0 2.618150 1_555
C12 Tb4 2.618150 1_554
C12 Tb1 2.618150 1_555
C13 C15 1.405800 1_555
C13 Mn11 2.094053 1_555
C13 Mn2 2.094053 1_455
C13 Tb3 2.618150 1_555
C13 Tb1 2.618150 1_455
C13 Tb5 2.618150 1_455
C13 Tb2 2.618150 1_555
C14 C16 1.405800 1_555
C14 Mn3 2.094053 1_555
C14 Mn9 2.094053 1_555
C14 Tb2 2.618150 1_545
C14 Tb5 2.618150 1_555
C14 Tb0 2.618150 1_545
C14 Tb4 2.618150 1_555
C15 Mn8 2.094053 1_555
C15 Mn5 2.094053 1_555
C15 Tb3 2.618150 1_555
C15 Tb1 2.618150 1_455
C15 Tb5 2.618150 1_455
C15 Tb2 2.618150 1_555
C16 Mn12 2.094053 1_555
C16 Mn6 2.094053 1_545
C16 Tb0 2.618150 1_545
C16 Tb4 2.618150 1_555
C16 Tb2 2.618150 1_545
C16 Tb5 2.618150 1_555
C17 Mn10 2.094053 1_555
C17 Mn7 2.094053 1_554
C17 Tb0 2.618150 1_555
C17 Tb1 2.618150 1_555
C17 Tb4 2.618150 1_554
C17 Tb3 2.618150 1_554
