# generated using pymatgen
data_SrMnTeO6
_symmetry_space_group_name_H-M   'P 1'
_cell_length_a   5.16889579
_cell_length_b   5.16889579
_cell_length_c   5.55282300
_cell_angle_alpha   90.00000000
_cell_angle_beta   90.00000000
_cell_angle_gamma   119.99999728
_symmetry_Int_Tables_number   1
_chemical_formula_structural   SrMnTeO6
_chemical_formula_sum   'Sr1 Mn1 Te1 O6'
_cell_volume   128.48133080
_cell_formula_units_Z   1
loop_
 _symmetry_equiv_pos_site_id
 _symmetry_equiv_pos_as_xyz
  1  'x, y, z'
loop_
 _atom_site_type_symbol
 _atom_site_label
 _atom_site_symmetry_multiplicity
 _atom_site_fract_x
 _atom_site_fract_y
 _atom_site_fract_z
 _atom_site_occupancy
  Sr  Sr0  1  0.66666700  0.33333300  0.00000000  1
  Mn  Mn0  1  0.33333300  0.66666700  0.50000000  1
  Te  Te0  1  0.00000000  0.00000000  0.50000000  1
  O  O0  1  0.66604600  0.90409400  0.28028200  1
  O  O1  1  0.23804800  0.33395400  0.28028200  1
  O  O2  1  0.09590600  0.76195200  0.28028200  1
  O  O3  1  0.66604600  0.90409400  0.71971800  1
  O  O4  1  0.23804800  0.33395400  0.71971800  1
  O  O5  1  0.09590600  0.76195200  0.71971800  1
loop_
_geom_bond_atom_site_label_1
_geom_bond_atom_site_label_2
_geom_bond_distance
_geom_bond_site_symmetry_2
Mn0 O5 1.960013 1_555
Mn0 O2 1.960013 1_555
Mn0 O3 1.960016 1_555
Mn0 O0 1.960016 1_555
Mn0 O4 1.960017 1_555
Mn0 O1 1.960017 1_555
O0 Te0 1.964241 1_665
O0 Sr0 2.708824 1_565
O1 Te0 1.964241 1_555
O1 Sr0 2.708828 1_555
O2 Te0 1.964241 1_565
O2 Sr0 2.708826 1_455
O3 Te0 1.964241 1_665
O3 Sr0 2.708824 1_566
O4 Te0 1.964241 1_555
O4 Sr0 2.708828 1_556
O5 Te0 1.964241 1_565
O5 Sr0 2.708826 1_456
