# generated using pymatgen
data_Li7Mn5O12
_symmetry_space_group_name_H-M   'P 1'
_cell_length_a   2.99566612
_cell_length_b   2.99566612
_cell_length_c   29.53008100
_cell_angle_alpha   90.00000000
_cell_angle_beta   90.00000000
_cell_angle_gamma   120.00000273
_symmetry_Int_Tables_number   1
_chemical_formula_structural   Li7Mn5O12
_chemical_formula_sum   'Li7 Mn5 O12'
_cell_volume   229.49967479
_cell_formula_units_Z   1
loop_
 _symmetry_equiv_pos_site_id
 _symmetry_equiv_pos_as_xyz
  1  'x, y, z'
loop_
 _atom_site_type_symbol
 _atom_site_label
 _atom_site_symmetry_multiplicity
 _atom_site_fract_x
 _atom_site_fract_y
 _atom_site_fract_z
 _atom_site_occupancy
  Li  Li0  1  0.66666700  0.33333300  0.07514700  1
  Li  Li1  1  0.00000000  0.00000000  0.25033600  1
  Li  Li2  1  0.33333300  0.66666700  0.41657300  1
  Li  Li3  1  0.66666700  0.33333300  0.58342700  1
  Li  Li4  1  0.00000000  0.00000000  0.74966400  1
  Li  Li5  1  0.33333300  0.66666700  0.92485300  1
  Li  Li6  1  0.00000000  0.00000000  0.00000000  1
  Mn  Mn0  1  0.66666700  0.33333300  0.83317300  1
  Mn  Mn1  1  0.33333300  0.66666700  0.16682700  1
  Mn  Mn2  1  0.66666700  0.33333300  0.33331700  1
  Mn  Mn3  1  0.00000000  0.00000000  0.50000000  1
  Mn  Mn4  1  0.33333300  0.66666700  0.66668300  1
  O  O0  1  0.66666700  0.33333300  0.20482000  1
  O  O1  1  0.00000000  0.00000000  0.37122200  1
  O  O2  1  0.33333300  0.66666700  0.53775400  1
  O  O3  1  0.66666700  0.33333300  0.70468100  1
  O  O4  1  0.00000000  0.00000000  0.86678800  1
  O  O5  1  0.33333300  0.66666700  0.04292800  1
  O  O6  1  0.66666700  0.33333300  0.95707200  1
  O  O7  1  0.00000000  0.00000000  0.13321200  1
  O  O8  1  0.33333300  0.66666700  0.29531900  1
  O  O9  1  0.66666700  0.33333300  0.46224600  1
  O  O10  1  0.00000000  0.00000000  0.62877800  1
  O  O11  1  0.33333300  0.66666700  0.79518000  1
loop_
_geom_bond_atom_site_label_1
_geom_bond_atom_site_label_2
_geom_bond_distance
_geom_bond_site_symmetry_2
Li0 O5 1.973968 1_545
Li0 O5 1.973968 1_655
Li0 O5 1.973973 1_555
Li0 O7 2.435448 1_655
Li0 O7 2.435450 1_555
Li0 O7 2.435450 1_665
Li1 O8 2.180791 1_545
Li1 O8 2.180793 1_555
Li1 O8 2.180793 1_445
Li1 O0 2.190414 1_455
Li1 O0 2.190416 1_445
Li1 O0 2.190416 1_555
Li2 O1 2.187428 1_565
Li2 O1 2.187430 1_555
Li2 O1 2.187430 1_665
Li2 O9 2.193262 1_455
Li2 O9 2.193262 1_565
Li2 O9 2.193266 1_555
Li3 O10 2.187428 1_655
Li3 O10 2.187430 1_555
Li3 O10 2.187430 1_665
Li3 O2 2.193262 1_545
Li3 O2 2.193262 1_655
Li3 O2 2.193266 1_555
Li4 O3 2.180791 1_455
Li4 O3 2.180793 1_555
Li4 O3 2.180793 1_445
Li4 O11 2.190414 1_545
Li4 O11 2.190416 1_445
Li4 O11 2.190416 1_555
Li5 O6 1.973968 1_455
Li5 O6 1.973968 1_565
Li5 O6 1.973973 1_555
Li5 O4 2.435448 1_565
Li5 O4 2.435450 1_665
Li5 O4 2.435450 1_555
Li6 O6 2.144368 1_454
Li6 O5 2.144368 1_545
Li6 O6 2.144370 1_554
Li6 O6 2.144370 1_444
Li6 O5 2.144370 1_555
Li6 O5 2.144370 1_445
Mn0 O4 1.994165 1_655
Mn0 O4 1.994167 1_665
Mn0 O4 1.994167 1_555
Mn0 O11 2.061571 1_655
Mn0 O11 2.061571 1_545
Mn0 O11 2.061575 1_555
Mn1 O7 1.994165 1_565
Mn1 O7 1.994167 1_555
Mn1 O7 1.994167 1_665
Mn1 O0 2.061571 1_455
Mn1 O0 2.061571 1_565
Mn1 O0 2.061575 1_555
Mn2 O1 2.060158 1_655
Mn2 O1 2.060160 1_555
Mn2 O1 2.060160 1_665
Mn2 O8 2.061651 1_545
Mn2 O8 2.061651 1_655
Mn2 O8 2.061655 1_555
Mn3 O2 2.057738 1_545
Mn3 O9 2.057738 1_455
Mn3 O2 2.057740 1_445
Mn3 O2 2.057740 1_555
Mn3 O9 2.057740 1_555
Mn3 O9 2.057740 1_445
Mn4 O10 2.060158 1_565
Mn4 O10 2.060160 1_665
Mn4 O10 2.060160 1_555
Mn4 O3 2.061651 1_455
Mn4 O3 2.061651 1_565
Mn4 O3 2.061655 1_555
