# generated using pymatgen
data_MnC8(NCl2)2
_symmetry_space_group_name_H-M   'P 1'
_cell_length_a   8.96994100
_cell_length_b   12.00587100
_cell_length_c   16.91138300
_cell_angle_alpha   90.00000000
_cell_angle_beta   90.00000000
_cell_angle_gamma   90.00000000
_symmetry_Int_Tables_number   1
_chemical_formula_structural   MnC8(NCl2)2
_chemical_formula_sum   'Mn4 C32 N8 Cl16'
_cell_volume   1821.21988897
_cell_formula_units_Z   4
loop_
 _symmetry_equiv_pos_site_id
 _symmetry_equiv_pos_as_xyz
  1  'x, y, z'
loop_
 _atom_site_type_symbol
 _atom_site_label
 _atom_site_symmetry_multiplicity
 _atom_site_fract_x
 _atom_site_fract_y
 _atom_site_fract_z
 _atom_site_occupancy
  Mn  Mn0  1  0.75000000  0.24812100  0.09992200  1
  Mn  Mn1  1  0.75000000  0.74812100  0.40007800  1
  Mn  Mn2  1  0.25000000  0.75187900  0.90007800  1
  Mn  Mn3  1  0.25000000  0.25187900  0.59992200  1
  C  C0  1  0.75000000  0.27657000  0.36055300  1
  C  C1  1  0.75000000  0.77657000  0.13944700  1
  C  C2  1  0.25000000  0.72343000  0.63944700  1
  C  C3  1  0.25000000  0.22343000  0.86055300  1
  C  C4  1  0.75000000  0.42984300  0.43552400  1
  C  C5  1  0.75000000  0.92984300  0.06447600  1
  C  C6  1  0.25000000  0.57015700  0.56447600  1
  C  C7  1  0.25000000  0.07015700  0.93552400  1
  C  C8  1  0.85273500  0.36933200  0.38169800  1
  C  C9  1  0.64726500  0.86933200  0.11830200  1
  C  C10  1  0.35273500  0.63066800  0.61830200  1
  C  C11  1  0.14726500  0.13066800  0.88169800  1
  C  C12  1  0.14726500  0.63066800  0.61830200  1
  C  C13  1  0.35273500  0.13066800  0.88169800  1
  C  C14  1  0.64726500  0.36933200  0.38169800  1
  C  C15  1  0.85273500  0.86933200  0.11830200  1
  C  C16  1  0.25000000  0.49068200  0.29378200  1
  C  C17  1  0.25000000  0.99068200  0.20621800  1
  C  C18  1  0.75000000  0.50931800  0.70621800  1
  C  C19  1  0.75000000  0.00931800  0.79378200  1
  C  C20  1  0.25000000  0.47936200  0.07598700  1
  C  C21  1  0.25000000  0.97936200  0.42401300  1
  C  C22  1  0.75000000  0.52063800  0.92401300  1
  C  C23  1  0.75000000  0.02063800  0.57598700  1
  C  C24  1  0.33821600  0.48678300  0.14488800  1
  C  C25  1  0.16178400  0.98678300  0.35511200  1
  C  C26  1  0.83821600  0.51321700  0.85511200  1
  C  C27  1  0.66178400  0.01321700  0.64488800  1
  C  C28  1  0.66178400  0.51321700  0.85511200  1
  C  C29  1  0.83821600  0.01321700  0.64488800  1
  C  C30  1  0.16178400  0.48678300  0.14488800  1
  C  C31  1  0.33821600  0.98678300  0.35511200  1
  N  N0  1  0.75000000  0.30266100  0.45047400  1
  N  N1  1  0.75000000  0.80266100  0.04952600  1
  N  N2  1  0.25000000  0.69733900  0.54952600  1
  N  N3  1  0.25000000  0.19733900  0.95047400  1
  N  N4  1  0.25000000  0.49157600  0.21988300  1
  N  N5  1  0.25000000  0.99157600  0.28011700  1
  N  N6  1  0.75000000  0.50842400  0.78011700  1
  N  N7  1  0.75000000  0.00842400  0.71988300  1
  Cl  Cl0  1  0.75000000  0.42226500  0.10126000  1
  Cl  Cl1  1  0.75000000  0.92226500  0.39874000  1
  Cl  Cl2  1  0.25000000  0.57773500  0.89874000  1
  Cl  Cl3  1  0.25000000  0.07773500  0.60126000  1
  Cl  Cl4  1  0.75000000  0.20029700  0.98033400  1
  Cl  Cl5  1  0.75000000  0.70029700  0.51966600  1
  Cl  Cl6  1  0.25000000  0.79970300  0.01966600  1
  Cl  Cl7  1  0.25000000  0.29970300  0.48033400  1
  Cl  Cl8  1  0.96103000  0.19973200  0.14757900  1
  Cl  Cl9  1  0.53897000  0.69973200  0.35242100  1
  Cl  Cl10  1  0.46103000  0.80026800  0.85242100  1
  Cl  Cl11  1  0.03897000  0.30026800  0.64757900  1
  Cl  Cl12  1  0.03897000  0.80026800  0.85242100  1
  Cl  Cl13  1  0.46103000  0.30026800  0.64757900  1
  Cl  Cl14  1  0.53897000  0.19973200  0.14757900  1
  Cl  Cl15  1  0.96103000  0.69973200  0.35242100  1
loop_
_geom_bond_atom_site_label_1
_geom_bond_atom_site_label_2
_geom_bond_distance
_geom_bond_site_symmetry_2
C0 C8 1.489089 1_555
C0 C14 1.489089 1_555
C0 N0 1.552616 1_555
C1 C15 1.489089 1_555
C1 C9 1.489089 1_555
C1 N1 1.552616 1_555
C2 N2 1.552616 1_555
C3 N3 1.552616 1_555
C4 C8 1.485123 1_555
C4 N0 1.547720 1_555
C5 C9 1.485123 1_555
C5 N1 1.547720 1_555
C6 N2 1.547720 1_555
C7 N3 1.547720 1_555
C8 N0 1.686036 1_555
C9 N1 1.686036 1_555
C10 C6 1.485123 1_555
C10 C2 1.489089 1_555
C10 N2 1.686036 1_555
C11 C7 1.485123 1_555
C11 C3 1.489089 1_555
C11 N3 1.686036 1_555
C12 C6 1.485123 1_555
C12 C2 1.489089 1_555
C12 N2 1.686036 1_555
C13 C7 1.485123 1_555
C13 C3 1.489089 1_555
C13 N3 1.686036 1_555
C14 C4 1.485123 1_555
C14 N0 1.686036 1_555
C15 C5 1.485123 1_555
C15 N1 1.686036 1_555
C16 N4 1.249780 1_555
C17 N5 1.249780 1_555
C18 N6 1.249780 1_555
C19 N7 1.249780 1_555
C20 C24 1.411311 1_555
C20 C30 1.411311 1_555
C21 C31 1.411311 1_555
C21 C25 1.411311 1_555
C22 C26 1.411311 1_555
C22 C28 1.411311 1_555
C23 C29 1.411311 1_555
C23 C27 1.411311 1_555
C24 N4 1.495982 1_555
C24 C30 1.582585 1_555
C25 N5 1.495982 1_555
C25 C31 1.582585 1_555
C26 N6 1.495982 1_555
C26 C28 1.582585 1_555
C27 N7 1.495982 1_555
C27 C29 1.582585 1_555
C28 N6 1.495982 1_555
C29 N7 1.495982 1_555
C30 N4 1.495982 1_555
C31 N5 1.495982 1_555
Cl0 Mn0 2.090873 1_555
Cl1 Mn1 2.090873 1_555
Cl2 Mn2 2.090873 1_555
Cl3 Mn3 2.090873 1_555
Cl4 Mn0 2.102324 1_556
Cl5 Mn1 2.102324 1_555
Cl6 Mn2 2.102324 1_554
Cl7 Mn3 2.102324 1_555
Cl8 Mn0 2.137809 1_555
Cl9 Mn1 2.137809 1_555
Cl10 Mn2 2.137809 1_555
Cl11 Mn3 2.137809 1_555
Cl12 Mn2 2.137809 1_555
Cl13 Mn3 2.137809 1_555
Cl14 Mn0 2.137809 1_555
Cl15 Mn1 2.137809 1_555
