# generated using pymatgen
data_CaDyMnSnO6
_symmetry_space_group_name_H-M   'P 1'
_cell_length_a   5.73549473
_cell_length_b   5.73549473
_cell_length_c   5.73549473
_cell_angle_alpha   60.00000000
_cell_angle_beta   60.00000000
_cell_angle_gamma   60.00000000
_symmetry_Int_Tables_number   1
_chemical_formula_structural   CaDyMnSnO6
_chemical_formula_sum   'Ca1 Dy1 Mn1 Sn1 O6'
_cell_volume   133.41284892
_cell_formula_units_Z   1
loop_
 _symmetry_equiv_pos_site_id
 _symmetry_equiv_pos_as_xyz
  1  'x, y, z'
loop_
 _atom_site_type_symbol
 _atom_site_label
 _atom_site_symmetry_multiplicity
 _atom_site_fract_x
 _atom_site_fract_y
 _atom_site_fract_z
 _atom_site_occupancy
  Ca  Ca0  1  0.75000000  0.75000000  0.75000000  1
  Dy  Dy0  1  0.00000000  -0.00000000  -0.00000000  1
  Mn  Mn0  1  0.50000000  0.50000000  0.50000000  1
  Sn  Sn0  1  0.25000000  0.25000000  0.25000000  1
  O  O0  1  0.73194302  0.26805698  0.26805698  1
  O  O1  1  0.26805698  0.73194302  0.73194302  1
  O  O2  1  0.73194302  0.26805698  0.73194302  1
  O  O3  1  0.26805698  0.73194302  0.26805698  1
  O  O4  1  0.73194302  0.73194302  0.26805698  1
  O  O5  1  0.26805698  0.26805698  0.73194302  1
loop_
_geom_bond_atom_site_label_1
_geom_bond_atom_site_label_2
_geom_bond_distance
_geom_bond_site_symmetry_2
Ca0 O2 2.871485 1_565
Ca0 O4 2.871485 1_556
Ca0 O0 2.871485 1_565
Ca0 O1 2.871485 1_655
Ca0 O0 2.871485 1_556
Ca0 O5 2.871485 1_655
Ca0 O5 2.871485 1_565
Ca0 O3 2.871485 1_556
Ca0 O3 2.871485 1_655
Ca0 O4 2.871485 1_555
Ca0 O1 2.871485 1_555
Ca0 O2 2.871485 1_555
Dy0 O2 2.174268 1_454
Dy0 O1 2.174268 1_544
Dy0 O0 2.174268 1_455
Dy0 O4 2.174268 1_445
Dy0 O3 2.174268 1_545
Dy0 O5 2.174268 1_554
Mn0 O3 1.881340 1_555
Mn0 O2 1.881340 1_555
Mn0 O0 1.881340 1_555
Mn0 O4 1.881340 1_555
Mn0 O1 1.881340 1_555
Mn0 O5 1.881340 1_555
