# generated using pymatgen
data_Sm2Ge5Pd3
_symmetry_space_group_name_H-M   'P 1'
_cell_length_a   6.18038162
_cell_length_b   8.42888780
_cell_length_c   8.42888836
_cell_angle_alpha   74.24715009
_cell_angle_beta   68.59350999
_cell_angle_gamma   68.59350849
_symmetry_Int_Tables_number   1
_chemical_formula_structural   Sm2Ge5Pd3
_chemical_formula_sum   'Sm4 Ge10 Pd6'
_cell_volume   375.72581280
_cell_formula_units_Z   2
loop_
 _symmetry_equiv_pos_site_id
 _symmetry_equiv_pos_as_xyz
  1  'x, y, z'
loop_
 _atom_site_type_symbol
 _atom_site_label
 _atom_site_symmetry_multiplicity
 _atom_site_fract_x
 _atom_site_fract_y
 _atom_site_fract_z
 _atom_site_occupancy
  Sm  Sm0  1  0.62961823  0.10097074  0.63941035  1
  Sm  Sm1  1  0.37038171  0.89902971  0.36058966  1
  Sm  Sm2  1  0.12961847  0.63940991  0.10097059  1
  Sm  Sm3  1  0.87038141  0.36058983  0.89902957  1
  Ge  Ge0  1  0.47448397  0.27510852  0.27609067  1
  Ge  Ge1  1  0.52551602  0.72489137  0.72390920  1
  Ge  Ge2  1  0.02551618  0.72390906  0.72489146  1
  Ge  Ge3  1  0.97448407  0.27609084  0.27510833  1
  Ge  Ge4  1  0.89382122  0.76269912  0.44983829  1
  Ge  Ge5  1  0.10617877  0.23730090  0.55016174  1
  Ge  Ge6  1  0.39382117  0.44983807  0.76269938  1
  Ge  Ge7  1  0.60617885  0.55016166  0.23730079  1
  Ge  Ge8  1  0.74999997  0.00058890  -0.00058879  1
  Ge  Ge9  1  0.24999993  -0.00058838  0.00058859  1
  Pd  Pd0  1  0.85935285  0.03180889  0.24964237  1
  Pd  Pd1  1  0.14064718  0.96819130  0.75035746  1
  Pd  Pd2  1  0.35935278  0.24964272  0.03180877  1
  Pd  Pd3  1  0.64064721  0.75035737  0.96819118  1
  Pd  Pd4  1  0.74999998  0.49985702  0.50014293  1
  Pd  Pd5  1  0.25000003  0.50014244  0.49985744  1
loop_
_geom_bond_atom_site_label_1
_geom_bond_atom_site_label_2
_geom_bond_distance
_geom_bond_site_symmetry_2
Ge0 Pd2 2.492571 1_555
Ge0 Pd0 2.492704 1_555
Ge0 Ge5 2.628856 1_555
Ge0 Ge7 2.629813 1_555
Ge0 Pd5 2.681688 1_555
Ge0 Sm1 3.301217 1_545
Ge0 Sm3 3.312694 1_554
Ge0 Sm0 3.335752 1_555
Ge0 Sm2 3.347924 1_555
Ge1 Pd3 2.492573 1_555
Ge1 Pd1 2.492705 1_555
Ge1 Ge4 2.628856 1_555
Ge1 Ge6 2.629814 1_555
Ge1 Pd4 2.681688 1_555
Ge1 Sm0 3.301221 1_565
Ge1 Sm2 3.312696 1_556
Ge1 Sm1 3.335752 1_555
Ge1 Sm3 3.347925 1_555
Ge2 Pd1 2.492574 1_555
Ge2 Pd3 2.492704 1_455
Ge2 Ge6 2.628855 1_555
Ge2 Ge4 2.629813 1_455
Ge2 Pd5 2.681688 1_555
Ge2 Sm2 3.301219 1_556
Ge2 Sm0 3.312698 1_465
Ge2 Sm3 3.335750 1_455
Ge2 Sm1 3.347928 1_555
Ge3 Pd0 2.492572 1_555
Ge3 Pd2 2.492703 1_655
Ge3 Ge7 2.628855 1_555
Ge3 Ge5 2.629815 1_655
Ge3 Pd4 2.681689 1_555
Ge3 Sm3 3.301218 1_554
Ge3 Sm1 3.312694 1_645
Ge3 Sm2 3.335748 1_655
Ge3 Sm0 3.347928 1_555
Ge4 Pd0 2.422674 1_565
Ge4 Pd4 2.555480 1_555
Ge4 Pd5 2.556545 1_655
Ge4 Sm2 3.045691 1_655
Ge4 Sm0 3.243429 1_565
Ge4 Sm1 3.308347 1_655
Ge4 Sm1 3.308389 1_555
Ge5 Pd1 2.422672 1_545
Ge5 Pd5 2.555476 1_555
Ge5 Pd4 2.556541 1_455
Ge5 Sm3 3.045691 1_455
Ge5 Sm1 3.243426 1_545
Ge5 Sm0 3.308345 1_455
Ge5 Sm0 3.308389 1_555
Ge6 Pd2 2.422669 1_556
Ge6 Pd5 2.555479 1_555
Ge6 Pd4 2.556543 1_555
Ge6 Sm0 3.045687 1_555
Ge6 Sm2 3.243425 1_556
Ge6 Sm3 3.308344 1_555
Ge6 Sm3 3.308389 1_455
Ge7 Pd3 2.422672 1_554
Ge7 Pd4 2.555480 1_555
Ge7 Pd5 2.556545 1_555
Ge7 Sm1 3.045692 1_555
Ge7 Sm3 3.243425 1_554
Ge7 Sm2 3.308345 1_555
Ge7 Sm2 3.308388 1_655
Ge8 Pd1 2.537872 1_644
Ge8 Pd2 2.537872 1_555
Ge8 Pd0 2.538965 1_555
Ge8 Pd3 2.538967 1_544
Ge8 Sm3 3.204913 1_554
Ge8 Sm0 3.204913 1_554
Ge8 Sm1 3.215985 1_545
Ge8 Sm2 3.215989 1_645
Ge9 Pd0 2.537872 1_455
Ge9 Pd3 2.537874 1_544
Ge9 Pd2 2.538965 1_555
Ge9 Pd1 2.538965 1_544
Ge9 Sm1 3.204915 1_545
Ge9 Sm2 3.204919 1_545
Ge9 Sm0 3.215984 1_554
Ge9 Sm3 3.215984 1_454
Pd0 Sm0 3.190573 1_555
Pd0 Sm1 3.331276 1_545
Pd0 Sm1 3.333129 1_645
Pd0 Sm3 3.458631 1_554
Pd0 Sm2 3.462605 1_645
Pd1 Sm1 3.190571 1_555
Pd1 Sm0 3.331277 1_565
Pd1 Sm0 3.333129 1_465
Pd1 Sm2 3.458635 1_556
Pd1 Sm3 3.462603 1_465
Pd2 Sm2 3.190567 1_555
Pd2 Sm3 3.331278 1_454
Pd2 Sm3 3.333127 1_554
Pd2 Sm1 3.458632 1_545
Pd2 Sm0 3.462602 1_554
Pd3 Sm3 3.190569 1_555
Pd3 Sm2 3.331278 1_656
Pd3 Sm2 3.333129 1_556
Pd3 Sm0 3.458634 1_565
Pd3 Sm1 3.462604 1_556
Pd4 Sm0 3.504448 1_555
Pd4 Sm3 3.504450 1_555
Pd4 Sm2 3.508835 1_655
Pd4 Sm1 3.508837 1_555
Pd5 Sm2 3.504452 1_555
Pd5 Sm1 3.504455 1_555
Pd5 Sm0 3.508831 1_555
Pd5 Sm3 3.508834 1_455
