# generated using pymatgen
data_Tb12(ReC3)5
_symmetry_space_group_name_H-M   'P 1'
_cell_length_a   10.77252001
_cell_length_b   10.77252001
_cell_length_c   5.13666100
_cell_angle_alpha   90.00000000
_cell_angle_beta   90.00000000
_cell_angle_gamma   120.00000009
_symmetry_Int_Tables_number   1
_chemical_formula_structural   Tb12(ReC3)5
_chemical_formula_sum   'Tb12 Re5 C15'
_cell_volume   516.23346633
_cell_formula_units_Z   1
loop_
 _symmetry_equiv_pos_site_id
 _symmetry_equiv_pos_as_xyz
  1  'x, y, z'
loop_
 _atom_site_type_symbol
 _atom_site_label
 _atom_site_symmetry_multiplicity
 _atom_site_fract_x
 _atom_site_fract_y
 _atom_site_fract_z
 _atom_site_occupancy
  Tb  Tb0  1  0.54402600  0.73004800  0.00000000  1
  Tb  Tb1  1  0.26995200  0.81397800  0.00000000  1
  Tb  Tb2  1  0.18602200  0.45597400  0.00000000  1
  Tb  Tb3  1  0.45597400  0.18602200  0.00000000  1
  Tb  Tb4  1  0.73004800  0.54402600  0.00000000  1
  Tb  Tb5  1  0.81397800  0.26995200  0.00000000  1
  Tb  Tb6  1  0.00000000  0.57435300  0.50000000  1
  Tb  Tb7  1  0.42564700  0.42564700  0.50000000  1
  Tb  Tb8  1  0.57435300  0.00000000  0.50000000  1
  Tb  Tb9  1  0.00000000  0.20494400  0.50000000  1
  Tb  Tb10  1  0.79505600  0.79505600  0.50000000  1
  Tb  Tb11  1  0.20494400  0.00000000  0.50000000  1
  Re  Re0  1  0.00000000  0.84830600  0.00000000  1
  Re  Re1  1  0.15169400  0.15169400  0.00000000  1
  Re  Re2  1  0.84830600  0.00000000  0.00000000  1
  Re  Re3  1  0.33333300  0.66666700  0.50000000  1
  Re  Re4  1  0.66666700  0.33333300  0.50000000  1
  C  C0  1  0.53168600  0.72242600  0.50000000  1
  C  C1  1  0.27757400  0.80926000  0.50000000  1
  C  C2  1  0.19074000  0.46831400  0.50000000  1
  C  C3  1  0.46831400  0.19074000  0.50000000  1
  C  C4  1  0.72242600  0.53168600  0.50000000  1
  C  C5  1  0.80926000  0.27757400  0.50000000  1
  C  C6  1  0.00000000  0.66706600  0.00000000  1
  C  C7  1  0.33293400  0.33293400  0.00000000  1
  C  C8  1  0.66706600  0.00000000  0.00000000  1
  C  C9  1  0.00000000  0.54156800  0.00000000  1
  C  C10  1  0.45843200  0.45843200  0.00000000  1
  C  C11  1  0.54156800  0.00000000  0.00000000  1
  C  C12  1  0.00000000  0.21461700  0.00000000  1
  C  C13  1  0.78538300  0.78538300  0.00000000  1
  C  C14  1  0.21461700  0.00000000  0.00000000  1
loop_
_geom_bond_atom_site_label_1
_geom_bond_atom_site_label_2
_geom_bond_distance
_geom_bond_site_symmetry_2
C0 Re3 1.908683 1_555
C0 Tb10 2.538073 1_555
C0 Tb0 2.570957 1_555
C0 Tb0 2.570957 1_556
C0 Tb8 2.788908 1_565
C0 Tb7 2.806069 1_555
C1 Re3 1.908673 1_555
C1 Tb11 2.538073 1_565
C1 Tb1 2.570957 1_555
C1 Tb1 2.570957 1_556
C1 Tb6 2.788908 1_555
C1 Tb8 2.806069 1_565
C2 Re3 1.908680 1_555
C2 Tb9 2.538073 1_555
C2 Tb2 2.570957 1_555
C2 Tb2 2.570957 1_556
C2 Tb7 2.788908 1_555
C2 Tb6 2.806069 1_555
C3 Re4 1.908680 1_555
C3 Tb11 2.538073 1_555
C3 Tb3 2.570957 1_556
C3 Tb3 2.570957 1_555
C3 Tb7 2.788908 1_555
C3 Tb8 2.806069 1_555
C4 Re4 1.908683 1_555
C4 Tb10 2.538073 1_555
C4 Tb4 2.570957 1_556
C4 Tb4 2.570957 1_555
C4 Tb6 2.788908 1_655
C4 Tb7 2.806069 1_555
C5 Re4 1.908673 1_555
C5 Tb9 2.538073 1_655
C5 Tb5 2.570957 1_555
C5 Tb5 2.570957 1_556
C5 Tb8 2.788908 1_555
C5 Tb6 2.806069 1_655
C6 C9 1.351930 1_555
C6 Re0 1.952412 1_555
C6 Tb1 2.521737 1_555
C6 Tb4 2.521737 1_455
C6 Tb6 2.755690 1_554
C6 Tb6 2.755690 1_555
C7 Re1 1.952412 1_555
C7 Tb2 2.521737 1_555
C7 Tb3 2.521737 1_555
C7 Tb7 2.755690 1_555
C7 Tb7 2.755690 1_554
C8 Re2 1.952412 1_555
C8 Tb5 2.521737 1_555
C8 Tb0 2.521737 1_545
C8 Tb8 2.755690 1_555
C8 Tb8 2.755690 1_554
C9 Tb5 2.591074 1_455
C9 Tb2 2.591074 1_555
C9 Tb6 2.592500 1_554
C9 Tb6 2.592500 1_555
C10 C7 1.351930 1_555
C10 Tb4 2.591074 1_555
C10 Tb0 2.591074 1_555
C10 Tb7 2.592500 1_554
C10 Tb7 2.592500 1_555
C11 C8 1.351930 1_555
C11 Tb1 2.591074 1_545
C11 Tb3 2.591074 1_555
C11 Tb8 2.592500 1_555
C11 Tb8 2.592500 1_554
C12 Re2 2.058522 1_455
C12 Re1 2.058522 1_555
C12 Tb2 2.359149 1_555
C12 Tb5 2.359149 1_455
C12 Tb9 2.570443 1_555
C12 Tb9 2.570443 1_554
C13 Re0 2.058522 1_655
C13 Re2 2.058522 1_565
C13 Tb0 2.359149 1_555
C13 Tb4 2.359149 1_555
C13 Tb10 2.570443 1_555
C13 Tb10 2.570443 1_554
C14 Re0 2.058522 1_545
C14 Re1 2.058522 1_555
C14 Tb3 2.359149 1_555
C14 Tb1 2.359149 1_545
C14 Tb11 2.570443 1_555
C14 Tb11 2.570443 1_554
