# generated using pymatgen
data_Er(Mg4Al3)4
_symmetry_space_group_name_H-M   'P 1'
_cell_length_a   9.24140621
_cell_length_b   9.24140621
_cell_length_c   9.24140589
_cell_angle_alpha   110.33008623
_cell_angle_beta   110.33008623
_cell_angle_gamma   110.33008336
_symmetry_Int_Tables_number   1
_chemical_formula_structural   Er(Mg4Al3)4
_chemical_formula_sum   'Er1 Mg16 Al12'
_cell_volume   587.45156602
_cell_formula_units_Z   1
loop_
 _symmetry_equiv_pos_site_id
 _symmetry_equiv_pos_as_xyz
  1  'x, y, z'
loop_
 _atom_site_type_symbol
 _atom_site_label
 _atom_site_symmetry_multiplicity
 _atom_site_fract_x
 _atom_site_fract_y
 _atom_site_fract_z
 _atom_site_occupancy
  Er  Er0  1  0.37188500  0.37188500  0.37188500  1
  Mg  Mg0  1  0.60995800  0.60995800  0.27969000  1
  Mg  Mg1  1  0.99831800  0.99831800  0.99831800  1
  Mg  Mg2  1  0.31486700  0.31486700  0.71704900  1
  Mg  Mg3  1  0.99589000  0.99589000  0.65502300  1
  Mg  Mg4  1  0.68875300  0.39391100  0.00146900  1
  Mg  Mg5  1  0.00146900  0.68875300  0.39391100  1
  Mg  Mg6  1  0.60995800  0.27969000  0.60995800  1
  Mg  Mg7  1  0.99589000  0.65502300  0.99589000  1
  Mg  Mg8  1  0.39391100  0.00146900  0.68875300  1
  Mg  Mg9  1  0.71704900  0.31486700  0.31486700  1
  Mg  Mg10  1  0.31486700  0.71704900  0.31486700  1
  Mg  Mg11  1  0.00146900  0.39391100  0.68875300  1
  Mg  Mg12  1  0.65502300  0.99589000  0.99589000  1
  Mg  Mg13  1  0.27969000  0.60995800  0.60995800  1
  Mg  Mg14  1  0.68875300  0.00146900  0.39391100  1
  Mg  Mg15  1  0.39391100  0.68875300  0.00146900  1
  Al  Al0  1  0.81064200  0.81064200  0.17436700  1
  Al  Al1  1  0.62832800  0.62832800  0.80950100  1
  Al  Al2  1  0.36472500  0.18579900  0.00273900  1
  Al  Al3  1  0.80950100  0.62832800  0.62832800  1
  Al  Al4  1  0.18579900  0.00273900  0.36472500  1
  Al  Al5  1  0.36472500  0.00273900  0.18579900  1
  Al  Al6  1  0.17436700  0.81064200  0.81064200  1
  Al  Al7  1  0.81064200  0.17436700  0.81064200  1
  Al  Al8  1  0.00273900  0.36472500  0.18579900  1
  Al  Al9  1  0.00273900  0.18579900  0.36472500  1
  Al  Al10  1  0.62832800  0.80950100  0.62832800  1
  Al  Al11  1  0.18579900  0.36472500  0.00273900  1
loop_
_geom_bond_atom_site_label_1
_geom_bond_atom_site_label_2
_geom_bond_distance
_geom_bond_site_symmetry_2
Er0 Mg6 3.106224 1_555
Er0 Mg13 3.106224 1_555
Er0 Mg0 3.106224 1_555
Er0 Mg1 3.303083 1_444
Er0 Mg2 3.587899 1_555
Er0 Mg10 3.587899 1_555
Er0 Mg9 3.587899 1_555
Mg0 Mg14 3.117155 1_565
Mg0 Mg5 3.117155 1_655
Mg0 Mg15 3.141897 1_555
Mg0 Mg4 3.141897 1_555
Mg0 Mg9 3.284776 1_555
Mg0 Mg10 3.284776 1_555
Mg0 Mg3 3.382450 1_555
Mg1 Mg3 3.157003 1_555
Mg1 Mg12 3.157003 1_555
Mg1 Mg7 3.157003 1_555
Mg2 Mg3 3.053100 1_445
Mg2 Mg4 3.159494 1_556
Mg2 Mg8 3.172809 1_555
Mg2 Mg6 3.284776 1_555
Mg3 Mg5 3.051360 1_655
Mg4 Mg5 3.050943 1_655
Mg4 Mg8 3.050943 1_554
Mg4 Mg7 3.051360 1_554
Mg4 Mg6 3.117155 1_554
Mg4 Mg9 3.172809 1_555
Mg5 Mg8 3.050943 1_565
Mg5 Mg9 3.159494 1_455
Mg6 Mg8 3.141897 1_555
Mg6 Mg9 3.284776 1_555
Mg6 Mg7 3.382450 1_555
Mg10 Mg7 3.053100 1_454
Mg10 Mg8 3.159494 1_565
Mg10 Mg14 3.159494 1_565
Mg10 Mg15 3.172809 1_555
Mg10 Mg5 3.172809 1_555
Mg10 Mg13 3.284776 1_555
Mg11 Mg15 3.050943 1_556
Mg11 Mg14 3.050943 1_455
Mg11 Mg7 3.051360 1_455
Mg11 Mg6 3.117155 1_455
Mg11 Mg13 3.141897 1_555
Mg11 Mg9 3.159494 1_455
Mg11 Mg2 3.172809 1_555
Mg12 Mg8 3.051360 1_565
Mg12 Mg15 3.051360 1_556
Mg12 Mg9 3.053100 1_566
Mg12 Mg13 3.382450 1_555
Mg13 Mg15 3.117155 1_556
Mg13 Mg8 3.117155 1_565
Mg13 Mg5 3.141897 1_555
Mg13 Mg2 3.284776 1_555
Mg14 Mg15 3.050943 1_545
Mg14 Mg3 3.051360 1_545
Mg14 Mg6 3.141897 1_555
Mg14 Mg9 3.172809 1_555
Mg15 Mg2 3.159494 1_554
Al0 Al1 2.679437 1_554
Al0 Al9 2.753456 1_665
Al0 Al4 2.753456 1_665
Al0 Mg0 2.818708 1_555
Al0 Mg14 2.996226 1_565
Al0 Mg5 2.996226 1_655
Al0 Mg7 3.121544 1_554
Al0 Mg12 3.121544 1_554
Al0 Mg15 3.180048 1_555
Al0 Mg4 3.180048 1_555
Al0 Mg1 3.239501 1_554
Al1 Al10 2.748523 1_555
Al1 Al3 2.748523 1_555
Al1 Mg2 2.870999 1_555
Al1 Mg13 3.013975 1_555
Al1 Mg6 3.013975 1_555
Al1 Mg12 3.102082 1_555
Al1 Mg7 3.102082 1_555
Al1 Mg1 3.164160 1_555
Al1 Er0 3.219665 1_555
Al1 Mg4 3.312827 1_556
Al1 Mg15 3.312827 1_556
Al2 Al6 2.753456 1_544
Al2 Al5 2.777150 1_555
Al2 Mg4 2.950296 1_555
Al2 Mg9 2.954515 1_555
Al2 Mg8 2.970307 1_554
Al2 Mg3 3.055822 1_444
Al2 Mg0 3.142839 1_555
Al2 Mg1 3.201164 1_444
Al2 Er0 3.207367 1_555
Al2 Mg2 3.214081 1_554
Al3 Al6 2.679437 1_655
Al3 Mg9 2.870999 1_555
Al3 Mg0 3.013975 1_555
Al3 Mg6 3.013976 1_555
Al3 Mg7 3.102081 1_555
Al3 Mg3 3.102082 1_555
Al3 Mg1 3.164160 1_555
Al3 Er0 3.219665 1_555
Al3 Mg11 3.312827 1_655
Al3 Mg5 3.312827 1_655
Al4 Al5 2.714434 1_555
Al4 Al9 2.777150 1_555
Al4 Mg8 2.950295 1_555
Al4 Mg2 2.954515 1_555
Al4 Mg5 2.970307 1_545
Al4 Mg7 3.055822 1_444
Al4 Mg6 3.142839 1_555
Al4 Mg1 3.201164 1_444
Al4 Er0 3.207367 1_555
Al4 Mg10 3.214081 1_545
Al5 Al6 2.753456 1_544
Al5 Mg14 2.950296 1_555
Al5 Mg9 2.954515 1_555
Al5 Mg15 2.970307 1_545
Al5 Mg7 3.055822 1_444
Al5 Mg6 3.142839 1_555
Al5 Mg1 3.201164 1_444
Al5 Er0 3.207367 1_555
Al5 Mg10 3.214081 1_545
Al6 Mg13 2.818708 1_555
Al6 Mg15 2.996226 1_556
Al6 Mg8 2.996226 1_565
Al6 Mg3 3.121544 1_455
Al6 Mg7 3.121544 1_455
Al6 Mg5 3.180048 1_555
Al6 Mg11 3.180048 1_555
Al6 Mg1 3.239501 1_455
Al7 Al8 2.753456 1_656
Al7 Mg6 2.818708 1_555
Al7 Mg4 2.996226 1_556
Al7 Mg11 2.996226 1_655
Al7 Mg3 3.121544 1_545
Al7 Mg12 3.121544 1_545
Al7 Mg14 3.180048 1_555
Al7 Mg8 3.180048 1_555
Al7 Mg1 3.239501 1_545
Al8 Al9 2.714434 1_555
Al8 Mg5 2.950296 1_555
Al8 Mg10 2.954515 1_555
Al8 Mg4 2.970307 1_455
Al8 Mg12 3.055822 1_444
Al8 Mg13 3.142839 1_555
Al8 Mg1 3.201164 1_444
Al8 Er0 3.207367 1_555
Al8 Mg9 3.214081 1_455
Al9 Mg11 2.950295 1_555
Al9 Mg2 2.954515 1_555
Al9 Mg14 2.970307 1_455
Al9 Mg12 3.055822 1_444
Al9 Mg13 3.142839 1_555
Al9 Mg1 3.201164 1_444
Al9 Er0 3.207367 1_555
Al9 Mg9 3.214081 1_455
Al10 Al7 2.679437 1_565
Al10 Al3 2.748523 1_555
Al10 Mg10 2.870999 1_555
Al10 Mg0 3.013975 1_555
Al10 Mg13 3.013976 1_555
Al10 Mg12 3.102081 1_555
Al10 Mg3 3.102082 1_555
Al10 Mg1 3.164160 1_555
Al10 Er0 3.219665 1_555
Al10 Mg8 3.312827 1_565
Al10 Mg14 3.312827 1_565
Al11 Al2 2.714434 1_555
Al11 Al7 2.753456 1_454
Al11 Al8 2.777150 1_555
Al11 Mg15 2.950296 1_555
Al11 Mg10 2.954515 1_555
Al11 Mg11 2.970307 1_554
Al11 Mg3 3.055822 1_444
Al11 Mg0 3.142839 1_555
Al11 Mg1 3.201164 1_444
Al11 Er0 3.207367 1_555
Al11 Mg2 3.214081 1_554
