# generated using pymatgen
data_Rb2Zn(SO7)2
_symmetry_space_group_name_H-M   'P 1'
_cell_length_a   5.99473941
_cell_length_b   8.81374105
_cell_length_c   13.57220100
_cell_angle_alpha   90.00000000
_cell_angle_beta   90.00000000
_cell_angle_gamma   101.10841566
_symmetry_Int_Tables_number   1
_chemical_formula_structural   Rb2Zn(SO7)2
_chemical_formula_sum   'Rb4 Zn2 S4 O28'
_cell_volume   703.66655752
_cell_formula_units_Z   2
loop_
 _symmetry_equiv_pos_site_id
 _symmetry_equiv_pos_as_xyz
  1  'x, y, z'
loop_
 _atom_site_type_symbol
 _atom_site_label
 _atom_site_symmetry_multiplicity
 _atom_site_fract_x
 _atom_site_fract_y
 _atom_site_fract_z
 _atom_site_occupancy
  Rb  Rb0  1  0.83493200  0.62621800  0.15247000  1
  Rb  Rb1  1  0.16506800  0.37378200  0.84753000  1
  Rb  Rb2  1  0.16506800  0.87378200  0.65247000  1
  Rb  Rb3  1  0.83493200  0.12621800  0.34753000  1
  Zn  Zn0  1  0.50000000  0.00000000  0.00000000  1
  Zn  Zn1  1  0.50000000  0.50000000  0.50000000  1
  S  S0  1  0.75205000  0.60634000  0.86078100  1
  S  S1  1  0.24795000  0.39366000  0.13921900  1
  S  S2  1  0.24795000  0.89366000  0.36078100  1
  S  S3  1  0.75205000  0.10634000  0.63921900  1
  O  O0  1  0.53458400  0.64609500  0.82967900  1
  O  O1  1  0.46541600  0.35390500  0.17032100  1
  O  O2  1  0.46541600  0.85390500  0.32967900  1
  O  O3  1  0.53458400  0.14609500  0.67032100  1
  O  O4  1  0.71334600  0.94803500  0.59404800  1
  O  O5  1  0.28665400  0.05196500  0.40595200  1
  O  O6  1  0.28665400  0.55196500  0.09404800  1
  O  O7  1  0.71334600  0.44803500  0.90595200  1
  O  O8  1  0.34461700  0.91721700  0.86653000  1
  O  O9  1  0.65538300  0.08278300  0.13347000  1
  O  O10  1  0.65538300  0.58278300  0.36653000  1
  O  O11  1  0.34461700  0.41721700  0.63347000  1
  O  O12  1  0.85325400  0.71163700  0.94279200  1
  O  O13  1  0.14674600  0.28836300  0.05720800  1
  O  O14  1  0.14674600  0.78836300  0.44279200  1
  O  O15  1  0.85325400  0.21163700  0.55720800  1
  O  O16  1  0.41316700  0.57212300  0.62387200  1
  O  O17  1  0.58683300  0.42787700  0.37612800  1
  O  O18  1  0.58683300  0.92787700  0.12387200  1
  O  O19  1  0.41316700  0.07212300  0.87612800  1
  O  O20  1  0.93488900  0.00697700  0.96579400  1
  O  O21  1  0.06511100  0.99302300  0.03420600  1
  O  O22  1  0.06511100  0.49302300  0.46579400  1
  O  O23  1  0.93488900  0.50697700  0.53420600  1
  O  O24  1  0.91379100  0.61380500  0.77780100  1
  O  O25  1  0.08620900  0.38619500  0.22219900  1
  O  O26  1  0.08620900  0.88619500  0.27780100  1
  O  O27  1  0.91379100  0.11380500  0.72219900  1
loop_
_geom_bond_atom_site_label_1
_geom_bond_atom_site_label_2
_geom_bond_distance
_geom_bond_site_symmetry_2
O0 S0 1.475291 1_555
O0 Rb1 2.945744 1_555
O1 S1 1.475291 1_555
O1 Rb0 2.945744 1_555
O2 S2 1.475291 1_555
O2 Rb3 2.945744 1_565
O3 S3 1.475291 1_555
O3 Rb2 2.945744 1_545
O4 S3 1.500564 1_565
O4 Rb2 3.012130 1_655
O4 Rb2 3.321310 1_555
O5 S2 1.500564 1_545
O5 Rb3 3.012130 1_455
O5 Rb3 3.321310 1_555
O6 S1 1.500564 1_555
O6 Rb0 3.012130 1_455
O6 Rb0 3.321310 1_555
O7 S0 1.500564 1_555
O7 Rb1 3.012130 1_655
O7 Rb1 3.321310 1_555
O8 Zn0 2.102283 1_566
O8 Rb2 3.096267 1_555
O9 Zn0 2.102283 1_555
O9 Rb3 3.096267 1_555
O10 O17 1.354140 1_555
O10 Zn1 2.102283 1_555
O10 Rb0 3.096267 1_555
O11 O16 1.354140 1_555
O11 Zn1 2.102283 1_555
O11 Rb1 3.096267 1_555
O12 S0 1.500445 1_555
O12 Rb0 2.940329 1_556
O13 S1 1.500445 1_555
O13 Rb1 2.940329 1_554
O14 S2 1.500445 1_555
O14 Rb2 2.940329 1_555
O15 S3 1.500445 1_555
O15 Rb3 2.940329 1_555
O16 Zn1 1.905002 1_555
O16 Rb2 3.309883 1_555
O17 Zn1 1.905002 1_555
O17 Rb3 3.309883 1_555
O18 O9 1.354140 1_565
O18 Zn0 1.905002 1_565
O18 Rb0 3.309883 1_555
O19 O8 1.354140 1_545
O19 Zn0 1.905002 1_556
O19 Rb1 3.309883 1_555
O20 O21 1.234360 1_646
O22 O23 1.234360 1_455
O24 S0 1.479269 1_555
O24 Rb1 2.977911 1_655
O24 Rb2 3.013784 1_655
O25 S1 1.479269 1_555
O25 Rb0 2.977911 1_455
O25 Rb3 3.013784 1_455
O26 S2 1.479269 1_555
O26 Rb3 2.977911 1_465
O26 Rb0 3.013784 1_455
O27 S3 1.479269 1_555
O27 Rb2 2.977911 1_645
O27 Rb1 3.013784 1_655
