# generated using pymatgen
data_CrWO6
_symmetry_space_group_name_H-M   'P 1'
_cell_length_a   5.34233343
_cell_length_b   5.40890742
_cell_length_c   7.57604942
_cell_angle_alpha   89.24816639
_cell_angle_beta   134.62329928
_cell_angle_gamma   60.26661629
_symmetry_Int_Tables_number   1
_chemical_formula_structural   CrWO6
_chemical_formula_sum   'Cr1 W1 O6'
_cell_volume   109.73901041
_cell_formula_units_Z   1
loop_
 _symmetry_equiv_pos_site_id
 _symmetry_equiv_pos_as_xyz
  1  'x, y, z'
loop_
 _atom_site_type_symbol
 _atom_site_label
 _atom_site_symmetry_multiplicity
 _atom_site_fract_x
 _atom_site_fract_y
 _atom_site_fract_z
 _atom_site_occupancy
  Cr  Cr0  1  0.00012800  0.99899400  0.51734900  1
  W  W0  1  0.00267400  0.99339600  0.01890000  1
  O  O0  1  0.01272300  0.93477400  0.25989500  1
  O  O1  1  0.99377500  0.95607000  0.73366600  1
  O  O2  1  0.48330000  0.46235300  0.74017100  1
  O  O3  1  0.51813100  0.94781300  0.25315800  1
  O  O4  1  0.48812700  0.94704900  0.73785800  1
  O  O5  1  0.51803000  0.43351500  0.24878400  1
loop_
_geom_bond_atom_site_label_1
_geom_bond_atom_site_label_2
_geom_bond_distance
_geom_bond_site_symmetry_2
Cr0 O5 1.674844 1_465
Cr0 O4 1.675984 1_555
Cr0 O1 1.678329 1_455
Cr0 O0 2.026956 1_555
Cr0 O3 2.047997 1_455
Cr0 O2 2.062919 1_555
O0 W0 1.807526 1_555
O1 W0 2.142277 1_656
O2 W0 1.799632 1_646
O3 W0 1.800754 1_555
O4 W0 2.151176 1_656
O5 W0 2.153834 1_555
