# generated using pymatgen
data_LiBeB
_symmetry_space_group_name_H-M   'P 1'
_cell_length_a   3.28147413
_cell_length_b   3.28147413
_cell_length_c   12.40853000
_cell_angle_alpha   90.00000000
_cell_angle_beta   90.00000000
_cell_angle_gamma   120.00000269
_symmetry_Int_Tables_number   1
_chemical_formula_structural   LiBeB
_chemical_formula_sum   'Li4 Be4 B4'
_cell_volume   115.71480436
_cell_formula_units_Z   4
loop_
 _symmetry_equiv_pos_site_id
 _symmetry_equiv_pos_as_xyz
  1  'x, y, z'
loop_
 _atom_site_type_symbol
 _atom_site_label
 _atom_site_symmetry_multiplicity
 _atom_site_fract_x
 _atom_site_fract_y
 _atom_site_fract_z
 _atom_site_occupancy
  Li  Li0  1  0.00000000  0.00000000  0.42960900  1
  Li  Li1  1  0.33333400  0.66666700  0.09226800  1
  Li  Li2  1  0.33333400  0.66666700  0.29110900  1
  Li  Li3  1  0.66666600  0.33333300  0.75396200  1
  Be  Be0  1  0.66666600  0.33333300  0.56166200  1
  Be  Be1  1  0.33333400  0.66666700  0.89233400  1
  Be  Be2  1  0.66666600  0.33333300  0.93877100  1
  Be  Be3  1  0.00000000  0.00000000  0.61113500  1
  B  B0  1  0.00000000  0.00000000  0.20753300  1
  B  B1  1  0.33333400  0.66666700  0.57808500  1
  B  B2  1  0.66666600  0.33333300  0.20678200  1
  B  B3  1  0.00000000  0.00000000  0.90625300  1
loop_
_geom_bond_atom_site_label_1
_geom_bond_atom_site_label_2
_geom_bond_distance
_geom_bond_site_symmetry_2
Li0 Li2 2.557904 1_445
Li0 Li2 2.557906 1_555
Li0 Li2 2.557906 1_545
Be0 Be3 1.991534 1_555
Be0 Be3 1.991537 1_665
Be0 Be3 1.991537 1_655
Be0 Li3 2.386160 1_555
Be0 Li0 2.504857 1_555
Be0 Li0 2.504859 1_665
Be0 Li0 2.504859 1_655
Be1 Be2 1.980246 1_565
Be1 Be2 1.980246 1_555
Be1 Be2 1.980251 1_455
Be1 Li1 2.480887 1_556
Be1 Li3 2.556837 1_565
Be1 Li3 2.556837 1_555
Be1 Li3 2.556841 1_455
Be2 Li3 2.293208 1_555
Be2 Li1 2.686471 1_546
Be2 Li1 2.686471 1_556
Be2 Li1 2.686475 1_656
Be3 Li0 2.252471 1_555
Be3 Li3 2.594283 1_555
Be3 Li3 2.594285 1_445
Be3 Li3 2.594285 1_455
B0 B2 1.894581 1_555
B0 B2 1.894584 1_445
B0 B2 1.894584 1_455
B0 Li2 2.159823 1_445
B0 Li2 2.159825 1_555
B0 Li2 2.159825 1_545
B0 Li1 2.373820 1_445
B0 Li1 2.373822 1_555
B0 Li1 2.373822 1_545
B0 Li0 2.755637 1_555
B1 Be0 1.905486 1_565
B1 Be0 1.905487 1_555
B1 Be0 1.905492 1_455
B1 Be3 1.938436 1_665
B1 Be3 1.938439 1_555
B1 Be3 1.938439 1_565
B1 Li0 2.642664 1_665
B1 Li0 2.642666 1_555
B1 Li0 2.642666 1_565
B2 Li2 2.164313 1_545
B2 Li2 2.164313 1_555
B2 Li2 2.164318 1_655
B2 Li1 2.368217 1_545
B2 Li1 2.368217 1_555
B2 Li1 2.368221 1_655
B3 Be1 1.902414 1_445
B3 Be1 1.902417 1_555
B3 Be1 1.902417 1_545
B3 Be2 1.937050 1_555
B3 Be2 1.937053 1_445
B3 Be2 1.937053 1_455
B3 Li3 2.675882 1_555
B3 Li3 2.675884 1_445
B3 Li3 2.675884 1_455
