# generated using pymatgen
data_Cs2VHO4
_symmetry_space_group_name_H-M   'P 1'
_cell_length_a   6.96833402
_cell_length_b   6.96833402
_cell_length_c   9.04751200
_cell_angle_alpha   90.00000000
_cell_angle_beta   90.00000000
_cell_angle_gamma   133.54905497
_symmetry_Int_Tables_number   1
_chemical_formula_structural   Cs2VHO4
_chemical_formula_sum   'Cs4 V2 H2 O8'
_cell_volume   318.41692107
_cell_formula_units_Z   2
loop_
 _symmetry_equiv_pos_site_id
 _symmetry_equiv_pos_as_xyz
  1  'x, y, z'
loop_
 _atom_site_type_symbol
 _atom_site_label
 _atom_site_symmetry_multiplicity
 _atom_site_fract_x
 _atom_site_fract_y
 _atom_site_fract_z
 _atom_site_occupancy
  Cs  Cs0  1  0.61582200  0.38417800  0.05102700  1
  Cs  Cs1  1  0.38417800  0.61582200  0.55102700  1
  Cs  Cs2  1  0.05963700  0.94036300  0.39575600  1
  Cs  Cs3  1  0.94036300  0.05963700  0.89575600  1
  V  V0  1  0.69600500  0.30399500  0.62278300  1
  V  V1  1  0.30399500  0.69600500  0.12278300  1
  H  H0  1  0.16945400  0.83054600  0.72175300  1
  H  H1  1  0.83054600  0.16945400  0.22175300  1
  O  O0  1  0.37109700  0.62890300  0.95879700  1
  O  O1  1  0.94080500  0.61120200  0.71937700  1
  O  O2  1  0.05919500  0.38879800  0.21937700  1
  O  O3  1  0.62890300  0.37109700  0.45879700  1
  O  O4  1  0.61120200  0.94080500  0.21937700  1
  O  O5  1  0.38879800  0.05919500  0.71937700  1
  O  O6  1  0.17219500  0.82780500  0.09012900  1
  O  O7  1  0.82780500  0.17219500  0.59012900  1
loop_
_geom_bond_atom_site_label_1
_geom_bond_atom_site_label_2
_geom_bond_distance
_geom_bond_site_symmetry_2
Cs0 O6 2.863168 1_545
Cs0 O6 2.863168 1_655
Cs0 H1 3.154133 1_555
Cs0 O0 3.243431 1_554
Cs0 O5 3.420251 1_554
Cs0 O1 3.420251 1_554
Cs0 O3 3.693106 1_555
Cs1 O7 2.863168 1_455
Cs1 O7 2.863168 1_565
Cs1 H0 3.154133 1_555
Cs1 O3 3.243431 1_555
Cs1 O2 3.420251 1_555
Cs1 O4 3.420251 1_555
Cs1 O0 3.693106 1_555
Cs2 O3 2.943398 1_455
Cs2 O3 2.943398 1_565
Cs2 O6 3.118368 1_555
Cs3 O0 2.943398 1_545
Cs3 O0 2.943398 1_655
Cs3 O7 3.118368 1_555
H0 O5 1.232698 1_565
H0 O1 1.232698 1_455
H1 O2 1.232698 1_655
H1 O4 1.232698 1_545
O0 V1 1.714589 1_556
O1 V0 1.795673 1_555
O2 V1 1.795673 1_555
O3 V0 1.714589 1_555
O4 V1 1.795673 1_555
O5 V0 1.795673 1_555
O6 V1 1.713654 1_555
O7 V0 1.713654 1_555
