# generated using pymatgen
data_ZrCu
_symmetry_space_group_name_H-M   'P 1'
_cell_length_a   5.26407519
_cell_length_b   5.26407519
_cell_length_c   5.26934106
_cell_angle_alpha   82.03722480
_cell_angle_beta   82.03722480
_cell_angle_gamma   102.87720824
_symmetry_Int_Tables_number   1
_chemical_formula_structural   ZrCu
_chemical_formula_sum   'Zr4 Cu4'
_cell_volume   138.78418478
_cell_formula_units_Z   4
loop_
 _symmetry_equiv_pos_site_id
 _symmetry_equiv_pos_as_xyz
  1  'x, y, z'
loop_
 _atom_site_type_symbol
 _atom_site_label
 _atom_site_symmetry_multiplicity
 _atom_site_fract_x
 _atom_site_fract_y
 _atom_site_fract_z
 _atom_site_occupancy
  Zr  Zr0  1  0.90843644  0.90843644  0.98985520  1
  Zr  Zr1  1  0.41061557  0.41061557  0.02184602  1
  Zr  Zr2  1  0.82325079  0.26687567  0.40986087  1
  Zr  Zr3  1  0.26687567  0.82325079  0.40986087  1
  Cu  Cu0  1  0.71686171  0.71686171  0.54793125  1
  Cu  Cu1  1  0.30203892  0.30203892  0.56480113  1
  Cu  Cu2  1  0.44754888  0.94785102  0.85015532  1
  Cu  Cu3  1  0.94785102  0.44754888  0.85015532  1
loop_
_geom_bond_atom_site_label_1
_geom_bond_atom_site_label_2
_geom_bond_distance
_geom_bond_site_symmetry_2
Zr0 Zr2 3.149361 1_566
Zr0 Zr3 3.149361 1_656
Zr0 Zr1 3.233793 1_556
Zr0 Zr1 3.337189 1_666
Zr1 Zr3 3.317448 1_555
Zr1 Zr2 3.317448 1_555
Zr1 Zr2 3.330164 1_455
Zr1 Zr3 3.330164 1_545
Zr2 Zr3 3.314034 1_545
Zr2 Zr3 3.314034 1_655
Cu0 Cu3 2.589172 1_555
Cu0 Cu2 2.589172 1_555
Cu0 Cu1 2.704014 1_555
Cu0 Zr3 2.722108 1_555
Cu0 Zr2 2.722108 1_555
Cu0 Zr2 2.794023 1_565
Cu0 Zr3 2.794023 1_655
Cu0 Zr1 2.836320 1_556
Cu0 Zr0 2.881765 1_555
Cu0 Zr0 2.930032 1_554
Cu1 Cu3 2.550059 1_455
Cu1 Cu2 2.550059 1_545
Cu1 Zr1 2.659044 1_556
Cu1 Zr3 2.730781 1_545
Cu1 Zr2 2.730781 1_455
Cu1 Zr1 2.790527 1_555
Cu1 Zr2 2.806478 1_555
Cu1 Zr3 2.806478 1_555
Cu1 Zr0 3.019521 1_445
Cu2 Zr0 2.673572 1_555
Cu2 Zr3 2.733561 1_555
Cu2 Zr1 2.750177 1_566
Cu2 Zr0 2.784817 1_455
Cu2 Zr1 2.802046 1_556
Cu2 Zr2 2.878055 1_565
Cu2 Zr3 2.905487 1_556
Cu3 Zr0 2.673572 1_555
Cu3 Zr2 2.733561 1_555
Cu3 Zr1 2.750177 1_656
Cu3 Zr0 2.784817 1_545
Cu3 Zr1 2.802046 1_556
Cu3 Zr3 2.878055 1_655
Cu3 Zr2 2.905487 1_556
