# generated using pymatgen
data_Sr3La3Zn2RuO12
_symmetry_space_group_name_H-M   'P 1'
_cell_length_a   6.96323224
_cell_length_b   6.96323224
_cell_length_c   10.52955437
_cell_angle_alpha   56.54921456
_cell_angle_beta   56.54921456
_cell_angle_gamma   47.51958497
_symmetry_Int_Tables_number   1
_chemical_formula_structural   Sr3La3Zn2RuO12
_chemical_formula_sum   'Sr3 La3 Zn2 Ru1 O12'
_cell_volume   300.58121992
_cell_formula_units_Z   1
loop_
 _symmetry_equiv_pos_site_id
 _symmetry_equiv_pos_as_xyz
  1  'x, y, z'
loop_
 _atom_site_type_symbol
 _atom_site_label
 _atom_site_symmetry_multiplicity
 _atom_site_fract_x
 _atom_site_fract_y
 _atom_site_fract_z
 _atom_site_occupancy
  Sr  Sr0  1  0.68988300  0.68988300  0.34004100  1
  Sr  Sr1  1  0.35619700  0.35619700  0.99912400  1
  Sr  Sr2  1  0.64248300  0.64248300  0.00174500  1
  La  La0  1  0.03684400  0.03684400  0.64879000  1
  La  La1  1  0.31551000  0.31551000  0.64933400  1
  La  La2  1  0.96403800  0.96403800  0.34915400  1
  Zn  Zn0  1  0.65651400  0.65651400  0.66743200  1
  Zn  Zn1  1  0.33406700  0.33406700  0.33197600  1
  Ru  Ru0  1  0.00044300  0.00044300  0.00001600  1
  O  O0  1  0.85943400  0.85943400  0.64829200  1
  O  O1  1  0.15732800  0.15732800  0.00594100  1
  O  O2  1  0.49717800  0.49717800  0.34879200  1
  O  O3  1  0.14430600  0.14430600  0.34793900  1
  O  O4  1  0.48311500  0.48311500  0.67452000  1
  O  O5  1  0.84718500  0.84718500  0.98879200  1
  O  O6  1  0.84673400  0.33137400  0.83294100  1
  O  O7  1  0.16404800  0.67423900  0.16227200  1
  O  O8  1  0.49749100  0.00158800  0.50384300  1
  O  O9  1  0.00158800  0.49749100  0.50384300  1
  O  O10  1  0.33137400  0.84673400  0.83294100  1
  O  O11  1  0.67423900  0.16404800  0.16227200  1
loop_
_geom_bond_atom_site_label_1
_geom_bond_atom_site_label_2
_geom_bond_distance
_geom_bond_site_symmetry_2
La0 O0 2.264447 1_445
La0 O8 2.575023 1_555
La0 O9 2.575023 1_555
La0 O3 2.585487 1_555
La0 O6 2.757836 1_455
La0 O10 2.757836 1_545
La0 O4 2.861780 1_545
La0 O4 2.861780 1_455
La0 O5 2.869867 1_445
La1 O4 2.305768 1_555
La1 O9 2.557575 1_555
La1 O8 2.557575 1_555
La1 O2 2.559258 1_555
La1 O6 2.682555 1_455
La1 O10 2.682555 1_545
La1 O0 2.859552 1_455
La1 O0 2.859552 1_545
La1 O1 3.007544 1_556
La2 O3 2.290031 1_665
La2 O0 2.576877 1_555
La2 O8 2.600759 1_565
La2 O9 2.600759 1_655
La2 O7 2.728421 1_655
La2 O11 2.728421 1_565
La2 O2 2.836790 1_565
La2 O2 2.836790 1_655
La2 O1 2.899199 1_665
O0 Zn0 2.470304 1_555
O0 Sr2 3.016839 1_556
O1 Ru0 2.037854 1_555
O1 Sr1 2.492231 1_554
O1 Sr2 2.814018 1_455
O1 Sr2 2.814018 1_545
O2 Zn1 2.190234 1_555
O2 Sr0 2.401867 1_555
O2 Sr2 2.937943 1_555
O3 Zn1 2.321362 1_555
O3 Sr0 2.856060 1_545
O3 Sr0 2.856060 1_455
O3 Sr1 2.972484 1_554
O4 Zn0 2.166030 1_555
O4 Sr1 2.763897 1_555
O4 Sr0 2.858187 1_555
O5 Ru0 2.026816 1_666
O5 Sr2 2.529353 1_556
O5 Sr1 2.812643 1_655
O5 Sr1 2.812643 1_565
O5 Sr0 2.960861 1_556
O6 Ru0 1.955978 1_656
O6 Zn0 2.015430 1_555
O6 Sr2 2.677973 1_556
O6 Sr1 2.775919 1_555
O7 Ru0 1.936111 1_565
O7 Zn1 2.020806 1_555
O7 Sr2 2.685822 1_555
O7 Sr1 2.702547 1_554
O7 Sr0 2.709724 1_455
O8 Zn0 1.978112 1_545
O8 Zn1 2.005693 1_555
O8 Sr0 2.670734 1_545
O9 Zn0 1.978112 1_455
O9 Zn1 2.005693 1_555
O9 Sr0 2.670734 1_455
O10 Ru0 1.955978 1_566
O10 Zn0 2.015430 1_555
O10 Sr2 2.677973 1_556
O10 Sr1 2.775919 1_555
O11 Ru0 1.936111 1_655
O11 Zn1 2.020806 1_555
O11 Sr2 2.685822 1_555
O11 Sr1 2.702547 1_554
O11 Sr0 2.709724 1_545
