# generated using pymatgen
data_AgSb3PbS6
_symmetry_space_group_name_H-M   'P 1'
_cell_length_a   4.21170300
_cell_length_b   6.85347586
_cell_length_c   19.35077600
_cell_angle_alpha   90.00000000
_cell_angle_beta   90.00000000
_cell_angle_gamma   72.10535162
_symmetry_Int_Tables_number   1
_chemical_formula_structural   AgSb3PbS6
_chemical_formula_sum   'Ag2 Sb6 Pb2 S12'
_cell_volume   531.53515154
_cell_formula_units_Z   2
loop_
 _symmetry_equiv_pos_site_id
 _symmetry_equiv_pos_as_xyz
  1  'x, y, z'
loop_
 _atom_site_type_symbol
 _atom_site_label
 _atom_site_symmetry_multiplicity
 _atom_site_fract_x
 _atom_site_fract_y
 _atom_site_fract_z
 _atom_site_occupancy
  Ag  Ag0  1  0.58915400  0.82169200  0.12983900  1
  Ag  Ag1  1  0.41084600  0.17830800  0.62983900  1
  Sb  Sb0  1  0.85817800  0.28364400  0.05792100  1
  Sb  Sb1  1  0.11941900  0.76116200  0.95110400  1
  Sb  Sb2  1  0.88058100  0.23883800  0.45110400  1
  Sb  Sb3  1  0.14182200  0.71635600  0.55792100  1
  Sb  Sb4  1  0.38226100  0.23547700  0.86569700  1
  Sb  Sb5  1  0.61773900  0.76452300  0.36569700  1
  Pb  Pb0  1  0.66538300  0.66923400  0.73997700  1
  Pb  Pb1  1  0.33461700  0.33076600  0.23997700  1
  S  S0  1  0.96118100  0.07763800  0.16261300  1
  S  S1  1  0.01062400  0.97875100  0.84131100  1
  S  S2  1  0.98937600  0.02124900  0.34131100  1
  S  S3  1  0.03881900  0.92236200  0.66261300  1
  S  S4  1  0.68220300  0.63559400  0.24550600  1
  S  S5  1  0.31779700  0.36440600  0.74550600  1
  S  S6  1  0.74088900  0.51822200  0.89928700  1
  S  S7  1  0.25286100  0.49427800  0.09322300  1
  S  S8  1  0.74713900  0.50572200  0.59322300  1
  S  S9  1  0.25911100  0.48177800  0.39928700  1
  S  S10  1  0.51570200  0.96859500  0.00502000  1
  S  S11  1  0.48429800  0.03140500  0.50502000  1
loop_
_geom_bond_atom_site_label_1
_geom_bond_atom_site_label_2
_geom_bond_distance
_geom_bond_site_symmetry_2
Ag0 S4 2.546145 1_555
Ag0 S10 2.598428 1_555
Ag0 S0 2.761024 1_465
Ag0 S0 2.761024 1_565
Ag0 S7 3.081632 1_655
Ag0 S7 3.081632 1_555
Ag1 S5 2.546145 1_555
Ag1 S11 2.598428 1_555
Ag1 S3 2.761024 1_645
Ag1 S3 2.761024 1_545
Ag1 S8 3.081632 1_455
Ag1 S8 3.081632 1_555
Pb0 S5 2.898010 1_655
Pb0 S5 2.898010 1_555
Pb0 S8 3.033434 1_555
Pb0 S3 3.066136 1_555
Pb0 S3 3.066136 1_655
Pb0 S6 3.236277 1_555
Pb1 S4 2.898010 1_455
Pb1 S4 2.898010 1_555
Pb1 S7 3.033434 1_555
Pb1 S0 3.066136 1_555
Pb1 S0 3.066136 1_455
Pb1 S9 3.236277 1_555
S0 Sb0 2.430905 1_555
S1 Sb1 2.554933 1_555
S1 Sb4 2.731434 1_465
S1 Sb4 2.731434 1_565
S2 Sb2 2.554933 1_555
S2 Sb5 2.731434 1_645
S2 Sb5 2.731434 1_545
S3 Sb3 2.430905 1_555
S4 Sb5 2.473125 1_555
S5 Sb4 2.473125 1_555
S6 Sb1 2.819655 1_555
S6 Sb1 2.819655 1_655
S6 Sb4 2.873601 1_655
S6 Sb4 2.873604 1_555
S7 Sb0 2.605460 1_555
S7 Sb0 2.605461 1_455
S8 Sb3 2.605460 1_555
S8 Sb3 2.605461 1_655
S9 Sb2 2.819655 1_555
S9 Sb2 2.819655 1_455
S9 Sb5 2.873601 1_455
S9 Sb5 2.873604 1_555
S10 Sb1 2.711706 1_554
S10 Sb1 2.711709 1_654
S10 Sb0 3.115191 1_465
S10 Sb0 3.115194 1_565
S11 Sb2 2.711706 1_555
S11 Sb2 2.711709 1_455
S11 Sb3 3.115191 1_645
S11 Sb3 3.115194 1_545
