# generated using pymatgen
data_CoBH18N6(ClF2)2
_symmetry_space_group_name_H-M   'P 1'
_cell_length_a   7.57648400
_cell_length_b   12.38908400
_cell_length_c   13.72978244
_cell_angle_alpha   70.30126575
_cell_angle_beta   90.00000000
_cell_angle_gamma   90.00000000
_symmetry_Int_Tables_number   1
_chemical_formula_structural   CoBH18N6(ClF2)2
_chemical_formula_sum   'Co4 B4 H72 N24 Cl8 F16'
_cell_volume   1213.33502887
_cell_formula_units_Z   4
loop_
 _symmetry_equiv_pos_site_id
 _symmetry_equiv_pos_as_xyz
  1  'x, y, z'
loop_
 _atom_site_type_symbol
 _atom_site_label
 _atom_site_symmetry_multiplicity
 _atom_site_fract_x
 _atom_site_fract_y
 _atom_site_fract_z
 _atom_site_occupancy
  Co  Co0  1  0.00000000  0.00000000  0.50000000  1
  Co  Co1  1  0.50000000  0.50000000  0.50000000  1
  Co  Co2  1  0.00000000  0.50000000  0.00000000  1
  Co  Co3  1  0.50000000  0.00000000  0.00000000  1
  B  B0  1  0.95599400  0.27062700  0.70241100  1
  B  B1  1  0.45599400  0.22937300  0.29758900  1
  B  B2  1  0.04400600  0.72937300  0.29758900  1
  B  B3  1  0.54400600  0.77062700  0.70241100  1
  H  H0  1  0.70311800  0.09931400  0.49673100  1
  H  H1  1  0.20311800  0.40068600  0.50326900  1
  H  H2  1  0.29688200  0.90068600  0.50326900  1
  H  H3  1  0.79688200  0.59931400  0.49673100  1
  H  H4  1  0.70685600  0.97892900  0.59464800  1
  H  H5  1  0.20685600  0.52107100  0.40535200  1
  H  H6  1  0.29314400  0.02107100  0.40535200  1
  H  H7  1  0.79314400  0.47892900  0.59464800  1
  H  H8  1  0.80919600  0.09077600  0.60417700  1
  H  H9  1  0.30919600  0.40922400  0.39582300  1
  H  H10  1  0.19080400  0.90922400  0.39582300  1
  H  H11  1  0.69080400  0.59077600  0.60417700  1
  H  H12  1  0.24798500  0.14101600  0.49251100  1
  H  H13  1  0.74798500  0.35898400  0.50748900  1
  H  H14  1  0.75201500  0.85898400  0.50748900  1
  H  H15  1  0.25201500  0.64101600  0.49251100  1
  H  H16  1  0.07098600  0.21451600  0.43135100  1
  H  H17  1  0.57098600  0.28548400  0.56864900  1
  H  H18  1  0.92901400  0.78548400  0.56864900  1
  H  H19  1  0.42901400  0.71451600  0.43135100  1
  H  H20  1  0.08520500  0.16593600  0.55889300  1
  H  H21  1  0.58520500  0.33406400  0.44110700  1
  H  H22  1  0.91479500  0.83406400  0.44110700  1
  H  H23  1  0.41479500  0.66593600  0.55889300  1
  H  H24  1  0.00074800  0.06755400  0.30148000  1
  H  H25  1  0.50074800  0.43244600  0.69852000  1
  H  H26  1  0.99925200  0.93244600  0.69852000  1
  H  H27  1  0.49925200  0.56755400  0.30148000  1
  H  H28  1  0.79863900  0.03300200  0.34355700  1
  H  H29  1  0.29863900  0.46699800  0.65644300  1
  H  H30  1  0.20136100  0.96699800  0.65644300  1
  H  H31  1  0.70136100  0.53300200  0.34355700  1
  H  H32  1  0.88563700  0.15771700  0.33975800  1
  H  H33  1  0.38563700  0.34228300  0.66024200  1
  H  H34  1  0.11436300  0.84228300  0.66024200  1
  H  H35  1  0.61436300  0.65771700  0.33975800  1
  H  H36  1  0.21502000  0.41883300  0.14970200  1
  H  H37  1  0.71502000  0.08116700  0.85029800  1
  H  H38  1  0.78498000  0.58116700  0.85029800  1
  H  H39  1  0.28498000  0.91883300  0.14970200  1
  H  H40  1  0.12515600  0.31246100  0.12154500  1
  H  H41  1  0.62515600  0.18753900  0.87845500  1
  H  H42  1  0.87484400  0.68753900  0.87845500  1
  H  H43  1  0.37484400  0.81246100  0.12154500  1
  H  H44  1  0.28531900  0.38703700  0.04800600  1
  H  H45  1  0.78531900  0.11296300  0.95199400  1
  H  H46  1  0.71468100  0.61296300  0.95199400  1
  H  H47  1  0.21468100  0.88703700  0.04800600  1
  H  H48  1  0.69575500  0.40722200  0.03836200  1
  H  H49  1  0.19575500  0.09277800  0.96163800  1
  H  H50  1  0.30424500  0.59277800  0.96163800  1
  H  H51  1  0.80424500  0.90722200  0.03836200  1
  H  H52  1  0.84234900  0.32217200  0.11415200  1
  H  H53  1  0.34234900  0.17782800  0.88584800  1
  H  H54  1  0.15765100  0.67782800  0.88584800  1
  H  H55  1  0.65765100  0.82217200  0.11415200  1
  H  H56  1  0.77073900  0.43122500  0.14360600  1
  H  H57  1  0.27073900  0.06877500  0.85639400  1
  H  H58  1  0.22926100  0.56877500  0.85639400  1
  H  H59  1  0.72926100  0.93122500  0.14360600  1
  H  H60  1  0.08494500  0.42855700  0.85309200  1
  H  H61  1  0.58494500  0.07144300  0.14690800  1
  H  H62  1  0.91505500  0.57144300  0.14690800  1
  H  H63  1  0.41505500  0.92855700  0.85309200  1
  H  H64  1  0.00584500  0.31946200  0.95113400  1
  H  H65  1  0.50584500  0.18053800  0.04886600  1
  H  H66  1  0.99415500  0.68053800  0.04886600  1
  H  H67  1  0.49415500  0.81946200  0.95113400  1
  H  H68  1  0.87217600  0.41341200  0.87232000  1
  H  H69  1  0.37217600  0.08658800  0.12768000  1
  H  H70  1  0.12782400  0.58658800  0.12768000  1
  H  H71  1  0.62782400  0.91341200  0.87232000  1
  N  N0  1  0.78336400  0.04764100  0.55375500  1
  N  N1  1  0.28336400  0.45235900  0.44624500  1
  N  N2  1  0.21663600  0.95235900  0.44624500  1
  N  N3  1  0.71663600  0.54764100  0.55375500  1
  N  N4  1  0.11259800  0.14565800  0.49381800  1
  N  N5  1  0.61259800  0.35434200  0.50618200  1
  N  N6  1  0.88740200  0.85434200  0.50618200  1
  N  N7  1  0.38740200  0.64565800  0.49381800  1
  N  N8  1  0.91242600  0.07170500  0.35668200  1
  N  N9  1  0.41242600  0.42829500  0.64331800  1
  N  N10  1  0.08757400  0.92829500  0.64331800  1
  N  N11  1  0.58757400  0.57170500  0.35668200  1
  N  N12  1  0.17458700  0.39410500  0.08920200  1
  N  N13  1  0.67458700  0.10589500  0.91079800  1
  N  N14  1  0.82541300  0.60589500  0.91079800  1
  N  N15  1  0.32541300  0.89410500  0.08920200  1
  N  N16  1  0.80688900  0.40674400  0.08216900  1
  N  N17  1  0.30688900  0.09325600  0.91783100  1
  N  N18  1  0.19311100  0.59325600  0.91783100  1
  N  N19  1  0.69311100  0.90674400  0.08216900  1
  N  N20  1  0.99085800  0.40587300  0.90992400  1
  N  N21  1  0.49085800  0.09412700  0.09007600  1
  N  N22  1  0.00914200  0.59412700  0.09007600  1
  N  N23  1  0.50914200  0.90587300  0.90992400  1
  Cl  Cl0  1  0.99844900  0.13365800  0.08320400  1
  Cl  Cl1  1  0.49844900  0.36634200  0.91679600  1
  Cl  Cl2  1  0.00155100  0.86634200  0.91679600  1
  Cl  Cl3  1  0.50155100  0.63365800  0.08320400  1
  Cl  Cl4  1  0.92408700  0.37744900  0.32736400  1
  Cl  Cl5  1  0.42408700  0.12255100  0.67263600  1
  Cl  Cl6  1  0.07591300  0.62255100  0.67263600  1
  Cl  Cl7  1  0.57591300  0.87744900  0.32736400  1
  F  F0  1  0.00592400  0.33731600  0.59837600  1
  F  F1  1  0.50592400  0.16268400  0.40162400  1
  F  F2  1  0.99407600  0.66268400  0.40162400  1
  F  F3  1  0.49407600  0.83731600  0.59837600  1
  F  F4  1  0.79690300  0.31738900  0.72557300  1
  F  F5  1  0.29690300  0.18261100  0.27442700  1
  F  F6  1  0.20309700  0.68261100  0.27442700  1
  F  F7  1  0.70309700  0.81738900  0.72557300  1
  F  F8  1  0.08941800  0.27458700  0.77146000  1
  F  F9  1  0.58941800  0.22541300  0.22854000  1
  F  F10  1  0.91058200  0.72541300  0.22854000  1
  F  F11  1  0.41058200  0.77458700  0.77146000  1
  F  F12  1  0.92612500  0.15589100  0.70551200  1
  F  F13  1  0.42612500  0.34410900  0.29448800  1
  F  F14  1  0.07387500  0.84410900  0.29448800  1
  F  F15  1  0.57387500  0.65589100  0.70551200  1
loop_
_geom_bond_atom_site_label_1
_geom_bond_atom_site_label_2
_geom_bond_distance
_geom_bond_site_symmetry_2
Co0 N0 1.969960 1_455
Co0 N2 1.969960 1_545
Co0 N4 1.971850 1_555
Co0 N6 1.971850 1_445
Co0 N8 1.980635 1_455
Co0 N10 1.980635 1_545
Co1 N3 1.969960 1_555
Co1 N1 1.969960 1_555
Co1 N5 1.971850 1_555
Co1 N7 1.971850 1_555
Co1 N11 1.980635 1_555
Co1 N9 1.980635 1_555
Co2 N22 1.966327 1_555
Co2 N20 1.966327 1_454
Co2 N16 1.967120 1_455
Co2 N18 1.967120 1_554
Co2 N12 1.971706 1_555
Co2 N14 1.971706 1_454
Co3 N21 1.966327 1_555
Co3 N23 1.966327 1_544
Co3 N19 1.967120 1_545
Co3 N17 1.967120 1_554
Co3 N13 1.971706 1_554
Co3 N15 1.971706 1_545
B0 F8 1.398001 1_655
B0 F4 1.419096 1_555
B0 F12 1.425768 1_555
B0 F0 1.438891 1_655
B1 F9 1.398001 1_555
B1 F5 1.419096 1_555
B1 F13 1.425768 1_555
B1 F1 1.438891 1_555
B2 F10 1.398001 1_455
B2 F6 1.419096 1_555
B2 F14 1.425768 1_555
B2 F2 1.438891 1_455
B3 F11 1.398001 1_555
B3 F7 1.419096 1_555
B3 F15 1.425768 1_555
B3 F3 1.438891 1_555
H0 N0 1.026916 1_555
H1 N1 1.026916 1_555
H2 N2 1.026916 1_555
H3 N3 1.026916 1_555
H4 N0 1.026499 1_565
H5 N1 1.026499 1_555
H6 N2 1.026499 1_545
H7 N3 1.026499 1_555
H8 N0 1.025941 1_555
H9 N1 1.025941 1_555
H10 N2 1.025941 1_555
H11 N3 1.025941 1_555
H12 N4 1.027864 1_555
H13 N5 1.027864 1_555
H14 N6 1.027864 1_555
H15 N7 1.027864 1_555
H16 N4 1.034160 1_555
H17 N5 1.034160 1_555
H18 N6 1.034160 1_555
H19 N7 1.034160 1_555
H20 N4 1.027516 1_555
H21 N5 1.027516 1_555
H22 N6 1.027516 1_555
H23 N7 1.027516 1_555
H24 N8 1.025251 1_455
H25 N9 1.025251 1_555
H26 N10 1.025251 1_655
H27 N11 1.025251 1_555
H28 N8 1.031438 1_555
H29 N9 1.031438 1_555
H30 N10 1.031438 1_555
H31 N11 1.031438 1_555
H32 N8 1.031401 1_555
H33 N9 1.031401 1_555
H34 N10 1.031401 1_555
H35 N11 1.031401 1_555
H36 N12 1.024322 1_555
H37 N13 1.024322 1_555
H38 N14 1.024322 1_555
H39 N15 1.024322 1_555
H40 N12 1.028478 1_555
H41 N13 1.028478 1_555
H42 N14 1.028478 1_555
H43 N15 1.028478 1_555
H44 N12 1.031905 1_555
H45 N13 1.031905 1_555
H46 N14 1.031905 1_555
H47 N15 1.031905 1_555
H48 N16 1.033616 1_555
H49 N17 1.033616 1_555
H50 N18 1.033616 1_555
H51 N19 1.033616 1_555
H52 N16 1.025989 1_555
H53 N17 1.025989 1_555
H54 N18 1.025989 1_555
H55 N19 1.025989 1_555
H56 N16 1.025181 1_555
H57 N17 1.025181 1_555
H58 N18 1.025181 1_555
H59 N19 1.025181 1_555
H60 N20 1.023794 1_455
H61 N21 1.023794 1_555
H62 N22 1.023794 1_655
H63 N23 1.023794 1_555
H64 N20 1.034777 1_455
H65 N21 1.034777 1_555
H66 N22 1.034777 1_655
H67 N23 1.034777 1_555
H68 N20 1.025340 1_555
H69 N21 1.025340 1_555
H70 N22 1.025340 1_555
H71 N23 1.025340 1_555
