# generated using pymatgen
data_MnCu8Sb3S13N6
_symmetry_space_group_name_H-M   'P 1'
_cell_length_a   12.46313603
_cell_length_b   12.46313603
_cell_length_c   12.46313603
_cell_angle_alpha   60.00000000
_cell_angle_beta   60.00000000
_cell_angle_gamma   60.00000000
_symmetry_Int_Tables_number   1
_chemical_formula_structural   MnCu8Sb3S13N6
_chemical_formula_sum   'Mn2 Cu16 Sb6 S26 N12'
_cell_volume   1368.88513524
_cell_formula_units_Z   2
loop_
 _symmetry_equiv_pos_site_id
 _symmetry_equiv_pos_as_xyz
  1  'x, y, z'
loop_
 _atom_site_type_symbol
 _atom_site_label
 _atom_site_symmetry_multiplicity
 _atom_site_fract_x
 _atom_site_fract_y
 _atom_site_fract_z
 _atom_site_occupancy
  Mn  Mn0  1  0.75000000  0.75000000  0.75000000  1
  Mn  Mn1  1  0.25000000  0.25000000  0.25000000  1
  Cu  Cu0  1  0.08458400  0.08458400  0.08458400  1
  Cu  Cu1  1  0.08458400  0.08458400  0.74624700  1
  Cu  Cu2  1  0.08458400  0.74624700  0.08458400  1
  Cu  Cu3  1  0.58458400  0.58458400  0.58458400  1
  Cu  Cu4  1  0.74624700  0.08458400  0.08458400  1
  Cu  Cu5  1  0.58458400  0.58458400  0.24624700  1
  Cu  Cu6  1  0.24624700  0.58458400  0.58458400  1
  Cu  Cu7  1  0.58458400  0.24624700  0.58458400  1
  Cu  Cu8  1  0.91541600  0.91541600  0.91541600  1
  Cu  Cu9  1  0.91541600  0.91541600  0.25375300  1
  Cu  Cu10  1  0.91541600  0.25375300  0.91541600  1
  Cu  Cu11  1  0.41541600  0.41541600  0.41541600  1
  Cu  Cu12  1  0.25375300  0.91541600  0.91541600  1
  Cu  Cu13  1  0.41541600  0.41541600  0.75375300  1
  Cu  Cu14  1  0.75375300  0.41541600  0.41541600  1
  Cu  Cu15  1  0.41541600  0.75375300  0.41541600  1
  Sb  Sb0  1  0.25000000  0.75000000  0.75000000  1
  Sb  Sb1  1  0.75000000  0.25000000  0.25000000  1
  Sb  Sb2  1  0.75000000  0.25000000  0.75000000  1
  Sb  Sb3  1  0.25000000  0.75000000  0.25000000  1
  Sb  Sb4  1  0.75000000  0.75000000  0.25000000  1
  Sb  Sb5  1  0.25000000  0.25000000  0.75000000  1
  S  S0  1  0.05980200  0.94019800  0.70834600  1
  S  S1  1  0.94019800  0.05980200  0.29165400  1
  S  S2  1  0.70834600  0.29165400  0.05980200  1
  S  S3  1  0.70834600  0.05980200  0.94019800  1
  S  S4  1  0.44019800  0.55980200  0.20834600  1
  S  S5  1  0.29165400  0.70834600  0.94019800  1
  S  S6  1  0.29165400  0.94019800  0.05980200  1
  S  S7  1  0.55980200  0.44019800  0.79165400  1
  S  S8  1  0.05980200  0.70834600  0.29165400  1
  S  S9  1  0.79165400  0.20834600  0.55980200  1
  S  S10  1  0.94019800  0.29165400  0.70834600  1
  S  S11  1  0.20834600  0.79165400  0.44019800  1
  S  S12  1  0.94019800  0.70834600  0.05980200  1
  S  S13  1  0.55980200  0.20834600  0.44019800  1
  S  S14  1  0.29165400  0.05980200  0.70834600  1
  S  S15  1  0.20834600  0.55980200  0.79165400  1
  S  S16  1  0.70834600  0.94019800  0.29165400  1
  S  S17  1  0.79165400  0.44019800  0.20834600  1
  S  S18  1  0.05980200  0.29165400  0.94019800  1
  S  S19  1  0.44019800  0.79165400  0.55980200  1
  S  S20  1  0.20834600  0.44019800  0.55980200  1
  S  S21  1  0.79165400  0.55980200  0.44019800  1
  S  S22  1  0.44019800  0.20834600  0.79165400  1
  S  S23  1  0.55980200  0.79165400  0.20834600  1
  S  S24  1  0.00000000  0.00000000  0.00000000  1
  S  S25  1  0.50000000  0.50000000  0.50000000  1
  N  N0  1  0.64564600  0.85435400  0.85435400  1
  N  N1  1  0.85435400  0.64564600  0.64564600  1
  N  N2  1  0.85435400  0.64564600  0.85435400  1
  N  N3  1  0.35435400  0.14564600  0.35435400  1
  N  N4  1  0.64564600  0.85435400  0.64564600  1
  N  N5  1  0.14564600  0.35435400  0.14564600  1
  N  N6  1  0.85435400  0.85435400  0.64564600  1
  N  N7  1  0.14564600  0.35435400  0.35435400  1
  N  N8  1  0.64564600  0.64564600  0.85435400  1
  N  N9  1  0.35435400  0.14564600  0.14564600  1
  N  N10  1  0.35435400  0.35435400  0.14564600  1
  N  N11  1  0.14564600  0.14564600  0.35435400  1
loop_
_geom_bond_atom_site_label_1
_geom_bond_atom_site_label_2
_geom_bond_distance
_geom_bond_site_symmetry_2
Mn0 N2 1.839295 1_555
Mn0 N6 1.839295 1_555
Mn0 N0 1.839295 1_555
Mn0 N1 1.839295 1_555
Mn0 N4 1.839295 1_555
Mn0 N8 1.839295 1_555
Mn1 N3 1.839295 1_555
Mn1 N11 1.839295 1_555
Mn1 N10 1.839295 1_555
Mn1 N7 1.839295 1_555
Mn1 N9 1.839295 1_555
Mn1 N5 1.839295 1_555
Cu0 S18 2.260196 1_554
Cu0 S6 2.260196 1_545
Cu0 S1 2.260196 1_455
Cu0 S24 2.582208 1_555
Cu1 S0 2.260188 1_545
Cu1 S10 2.260196 1_455
Cu1 S14 2.260200 1_555
Cu1 S24 2.582218 1_556
Cu2 S12 2.260188 1_455
Cu2 S5 2.260196 1_554
Cu2 S8 2.260200 1_555
Cu2 S24 2.582218 1_565
Cu3 S7 2.260196 1_555
Cu3 S21 2.260196 1_555
Cu3 S19 2.260196 1_555
Cu3 S25 2.582208 1_555
Cu4 S3 2.260188 1_554
Cu4 S16 2.260196 1_545
Cu4 S2 2.260200 1_555
Cu4 S24 2.582218 1_655
Cu5 S4 2.260188 1_555
Cu5 S17 2.260196 1_555
Cu5 S23 2.260200 1_555
Cu5 S25 2.582218 1_555
Cu6 S20 2.260188 1_555
Cu6 S11 2.260196 1_555
Cu6 S15 2.260200 1_555
Cu6 S25 2.582218 1_555
Cu7 S13 2.260188 1_555
Cu7 S22 2.260196 1_555
Cu7 S9 2.260200 1_555
Cu7 S25 2.582218 1_555
Cu8 S3 2.260196 1_565
Cu8 S12 2.260196 1_556
Cu8 S0 2.260196 1_655
Cu8 S24 2.582208 1_666
Cu9 S1 2.260188 1_565
Cu9 S8 2.260196 1_655
Cu9 S16 2.260200 1_555
Cu9 S24 2.582218 1_665
Cu10 S18 2.260188 1_655
Cu10 S2 2.260196 1_556
Cu10 S10 2.260200 1_555
Cu10 S24 2.582218 1_656
Cu11 S13 2.260196 1_555
Cu11 S4 2.260196 1_555
Cu11 S20 2.260196 1_555
Cu11 S25 2.582208 1_555
Cu12 S6 2.260188 1_556
Cu12 S14 2.260196 1_565
Cu12 S5 2.260200 1_555
Cu12 S24 2.582218 1_566
Cu13 S7 2.260188 1_555
Cu13 S15 2.260196 1_555
Cu13 S22 2.260200 1_555
Cu13 S25 2.582218 1_555
Cu14 S21 2.260188 1_555
Cu14 S9 2.260196 1_555
Cu14 S17 2.260200 1_555
Cu14 S25 2.582218 1_555
Cu15 S19 2.260188 1_555
Cu15 S23 2.260196 1_555
Cu15 S11 2.260200 1_555
Cu15 S25 2.582218 1_555
S0 Sb0 2.426644 1_555
S1 Sb1 2.426644 1_555
S2 Sb1 2.426644 1_555
S3 Sb2 2.426644 1_555
S4 Sb3 2.426644 1_555
S5 Sb0 2.426644 1_555
S6 Sb3 2.426644 1_555
S7 Sb2 2.426644 1_555
S8 Sb3 2.426644 1_555
S9 Sb2 2.426644 1_555
S10 Sb2 2.426644 1_555
S11 Sb3 2.426644 1_555
S12 Sb4 2.426644 1_555
S13 Sb1 2.426644 1_555
S14 Sb5 2.426644 1_555
S15 Sb0 2.426644 1_555
S16 Sb4 2.426644 1_555
S17 Sb1 2.426644 1_555
S18 Sb5 2.426644 1_555
S19 Sb0 2.426644 1_555
S20 Sb5 2.426644 1_555
S21 Sb4 2.426644 1_555
S22 Sb5 2.426644 1_555
S23 Sb4 2.426644 1_555
