# generated using pymatgen
data_Ga4B2O9
_symmetry_space_group_name_H-M   'P 1'
_cell_length_a   8.48358457
_cell_length_b   8.48358457
_cell_length_c   11.42324323
_cell_angle_alpha   48.90178661
_cell_angle_beta   48.90178661
_cell_angle_gamma   39.21361069
_symmetry_Int_Tables_number   1
_chemical_formula_structural   Ga4B2O9
_chemical_formula_sum   'Ga8 B4 O18'
_cell_volume   372.30163666
_cell_formula_units_Z   2
loop_
 _symmetry_equiv_pos_site_id
 _symmetry_equiv_pos_as_xyz
  1  'x, y, z'
loop_
 _atom_site_type_symbol
 _atom_site_label
 _atom_site_symmetry_multiplicity
 _atom_site_fract_x
 _atom_site_fract_y
 _atom_site_fract_z
 _atom_site_occupancy
  Ga  Ga0  1  0.00524600  0.00524600  0.86170000  1
  Ga  Ga1  1  0.99475400  0.99475400  0.13830000  1
  Ga  Ga2  1  0.00000000  0.50000000  0.00000000  1
  Ga  Ga3  1  0.50000000  0.00000000  0.00000000  1
  Ga  Ga4  1  0.00000000  0.50000000  0.50000000  1
  Ga  Ga5  1  0.50000000  0.00000000  0.50000000  1
  Ga  Ga6  1  0.74431300  0.74431300  0.26048500  1
  Ga  Ga7  1  0.25568700  0.25568700  0.73951500  1
  B  B0  1  0.20506500  0.20506500  0.29196300  1
  B  B1  1  0.79493500  0.79493500  0.70803700  1
  B  B2  1  0.50326400  0.50326400  0.78266300  1
  B  B3  1  0.49673600  0.49673600  0.21733700  1
  O  O0  1  0.22902400  0.65852200  0.85126800  1
  O  O1  1  0.34147800  0.77097600  0.14873200  1
  O  O2  1  0.77097600  0.34147800  0.14873200  1
  O  O3  1  0.65852200  0.22902400  0.85126800  1
  O  O4  1  0.98981900  0.40505700  0.36489000  1
  O  O5  1  0.59494300  0.01018100  0.63511000  1
  O  O6  1  0.01018100  0.59494300  0.63511000  1
  O  O7  1  0.40505700  0.98981900  0.36489000  1
  O  O8  1  0.71618200  0.71618200  0.12834400  1
  O  O9  1  0.28381800  0.28381800  0.87165600  1
  O  O10  1  0.15887300  0.15887300  0.63377500  1
  O  O11  1  0.84112700  0.84112700  0.36622500  1
  O  O12  1  0.62424900  0.62424900  0.64497100  1
  O  O13  1  0.37575100  0.37575100  0.35502900  1
  O  O14  1  0.21920300  0.21920300  0.15729700  1
  O  O15  1  0.78079700  0.78079700  0.84270300  1
  O  O16  1  0.89959200  0.89959200  0.09465200  1
  O  O17  1  0.10040800  0.10040800  0.90534800  1
loop_
_geom_bond_atom_site_label_1
_geom_bond_atom_site_label_2
_geom_bond_distance
_geom_bond_site_symmetry_2
Ga0 O17 1.902757 1_555
Ga0 O16 1.913479 1_446
Ga0 O0 1.944399 1_545
Ga0 O3 1.944399 1_455
Ga0 O10 1.971252 1_555
Ga1 O16 1.902757 1_555
Ga1 O17 1.913479 1_664
Ga1 O2 1.944399 1_565
Ga1 O1 1.944399 1_655
Ga1 O11 1.971252 1_555
Ga2 O8 1.833490 1_455
Ga2 O9 1.833490 1_554
Ga2 O14 2.064602 1_555
Ga2 O15 2.064602 1_454
Ga2 O0 2.274938 1_554
Ga2 O2 2.274938 1_455
Ga3 O8 1.833490 1_545
Ga3 O9 1.833490 1_554
Ga3 O14 2.064602 1_555
Ga3 O15 2.064602 1_544
Ga3 O3 2.274938 1_554
Ga3 O1 2.274938 1_545
Ga4 O10 1.837490 1_555
Ga4 O11 1.837490 1_455
Ga4 O13 2.040330 1_555
Ga4 O12 2.040330 1_455
Ga4 O6 2.226141 1_555
Ga4 O4 2.226141 1_455
Ga5 O10 1.837490 1_555
Ga5 O11 1.837490 1_545
Ga5 O13 2.040330 1_555
Ga5 O12 2.040330 1_545
Ga5 O5 2.226141 1_555
Ga5 O7 2.226141 1_545
Ga6 O16 1.785131 1_555
Ga6 O8 1.851461 1_555
Ga6 O4 1.872927 1_555
Ga6 O7 1.872927 1_555
Ga7 O17 1.785131 1_555
Ga7 O9 1.851461 1_555
Ga7 O6 1.872927 1_555
Ga7 O5 1.872927 1_555
B0 O14 1.390091 1_555
B0 O7 1.401593 1_545
B0 O4 1.401593 1_455
B1 O15 1.390091 1_555
B1 O6 1.401593 1_655
B1 O5 1.401593 1_565
B2 O12 1.403021 1_555
B2 O0 1.404736 1_555
B2 O3 1.404736 1_555
B3 O13 1.403021 1_555
B3 O2 1.404736 1_555
B3 O1 1.404736 1_555
