# generated using pymatgen
data_La3FeNiS7
_symmetry_space_group_name_H-M   'P 1'
_cell_length_a   10.20763009
_cell_length_b   10.20763009
_cell_length_c   5.89927900
_cell_angle_alpha   90.00000000
_cell_angle_beta   90.00000000
_cell_angle_gamma   120.00000060
_symmetry_Int_Tables_number   1
_chemical_formula_structural   La3FeNiS7
_chemical_formula_sum   'La6 Fe2 Ni2 S14'
_cell_volume   532.32812510
_cell_formula_units_Z   2
loop_
 _symmetry_equiv_pos_site_id
 _symmetry_equiv_pos_as_xyz
  1  'x, y, z'
loop_
 _atom_site_type_symbol
 _atom_site_label
 _atom_site_symmetry_multiplicity
 _atom_site_fract_x
 _atom_site_fract_y
 _atom_site_fract_z
 _atom_site_occupancy
  La  La0  1  0.62790100  0.85922300  0.24937300  1
  La  La1  1  0.14077700  0.76867800  0.24937300  1
  La  La2  1  0.23132200  0.37209900  0.24937300  1
  La  La3  1  0.37209900  0.14077700  0.74937300  1
  La  La4  1  0.85922300  0.23132200  0.74937300  1
  La  La5  1  0.76867800  0.62790100  0.74937300  1
  Fe  Fe0  1  0.33333300  0.66666700  0.83357100  1
  Fe  Fe1  1  0.66666700  0.33333300  0.33357100  1
  Ni  Ni0  1  0.00000000  0.00000000  0.47161600  1
  Ni  Ni1  1  0.00000000  0.00000000  0.97161600  1
  S  S0  1  0.77844700  0.91623300  0.72103200  1
  S  S1  1  0.08376700  0.86221500  0.72103200  1
  S  S2  1  0.13778500  0.22155300  0.72103200  1
  S  S3  1  0.22155300  0.08376700  0.22103200  1
  S  S4  1  0.91623300  0.13778500  0.22103200  1
  S  S5  1  0.86221500  0.77844700  0.22103200  1
  S  S6  1  0.48375500  0.58175400  0.97066900  1
  S  S7  1  0.41824600  0.90200100  0.97066900  1
  S  S8  1  0.09799900  0.51624500  0.97066900  1
  S  S9  1  0.51624500  0.41824600  0.47066900  1
  S  S10  1  0.58175400  0.09799900  0.47066900  1
  S  S11  1  0.90200100  0.48375500  0.47066900  1
  S  S12  1  0.33333300  0.66666700  0.46055200  1
  S  S13  1  0.66666700  0.33333300  0.96055200  1
loop_
_geom_bond_atom_site_label_1
_geom_bond_atom_site_label_2
_geom_bond_distance
_geom_bond_site_symmetry_2
La0 S5 2.898374 1_555
La0 S4 2.899435 1_565
La0 S7 2.899715 1_554
La0 S12 2.923423 1_555
La0 S6 2.953428 1_554
La0 S10 3.002484 1_565
La0 S0 3.089967 1_555
La0 S0 3.394188 1_554
La1 S3 2.898365 1_565
La1 S5 2.899430 1_455
La1 S8 2.899715 1_554
La1 S12 2.923416 1_555
La1 S7 2.953428 1_554
La1 S11 3.002484 1_455
La1 S1 3.089971 1_555
La1 S1 3.394192 1_554
La2 S4 2.898367 1_455
La2 S3 2.899440 1_555
La2 S6 2.899715 1_554
La2 S12 2.923425 1_555
La2 S8 2.953428 1_554
La2 S9 3.002484 1_555
La2 S2 3.089968 1_555
La2 S2 3.394189 1_554
La3 S2 2.898374 1_555
La3 S1 2.899435 1_545
La3 S10 2.899715 1_555
La3 S13 2.923423 1_555
La3 S9 2.953428 1_555
La3 S7 3.002484 1_545
La3 S3 3.089967 1_556
La3 S3 3.394188 1_555
La4 S0 2.898365 1_545
La4 S2 2.899430 1_655
La4 S11 2.899715 1_555
La4 S13 2.923416 1_555
La4 S10 2.953428 1_555
La4 S8 3.002484 1_655
La4 S4 3.089971 1_556
La4 S4 3.394192 1_555
La5 S1 2.898367 1_655
La5 S0 2.899440 1_555
La5 S9 2.899715 1_555
La5 S13 2.923425 1_555
La5 S11 2.953428 1_555
La5 S6 3.002484 1_555
La5 S5 3.089968 1_556
La5 S5 3.394189 1_555
Fe0 S12 2.200543 1_555
Fe0 S7 2.256954 1_555
Fe0 S8 2.256955 1_555
Fe0 S6 2.256963 1_555
Fe1 S13 2.200543 1_554
Fe1 S10 2.256954 1_555
Fe1 S11 2.256955 1_555
Fe1 S9 2.256963 1_555
Ni0 S1 2.465119 1_545
Ni0 S2 2.465125 1_555
Ni0 S0 2.465126 1_445
Ni0 S4 2.469238 1_455
Ni0 S5 2.469244 1_445
Ni0 S3 2.469245 1_555
Ni1 S4 2.465119 1_456
Ni1 S5 2.465125 1_446
Ni1 S3 2.465126 1_556
Ni1 S1 2.469238 1_545
Ni1 S2 2.469244 1_555
Ni1 S0 2.469245 1_445
