# generated using pymatgen
data_Ca2YWO5
_symmetry_space_group_name_H-M   'P 1'
_cell_length_a   8.73908683
_cell_length_b   8.73908683
_cell_length_c   5.83579783
_cell_angle_alpha   70.99511615
_cell_angle_beta   70.99511615
_cell_angle_gamma   40.01649790
_symmetry_Int_Tables_number   1
_chemical_formula_structural   Ca2YWO5
_chemical_formula_sum   'Ca4 Y2 W2 O10'
_cell_volume   268.82116697
_cell_formula_units_Z   2
loop_
 _symmetry_equiv_pos_site_id
 _symmetry_equiv_pos_as_xyz
  1  'x, y, z'
loop_
 _atom_site_type_symbol
 _atom_site_label
 _atom_site_symmetry_multiplicity
 _atom_site_fract_x
 _atom_site_fract_y
 _atom_site_fract_z
 _atom_site_occupancy
  Ca  Ca0  1  0.58521000  0.12699200  0.91246100  1
  Ca  Ca1  1  0.87077400  0.41389100  0.63323700  1
  Ca  Ca2  1  0.41389100  0.87077400  0.13323700  1
  Ca  Ca3  1  0.12699200  0.58521000  0.41246100  1
  Y  Y0  1  0.20131400  0.79790400  0.80323300  1
  Y  Y1  1  0.79790400  0.20131400  0.30323300  1
  W  W0  1  0.49805200  0.99972100  0.48338200  1
  W  W1  1  0.99972100  0.49805200  0.98338200  1
  O  O0  1  0.14354000  0.85432900  0.17998900  1
  O  O1  1  0.85432900  0.14354000  0.67998900  1
  O  O2  1  0.52294200  0.24556200  0.29919400  1
  O  O3  1  0.47595600  0.75136800  0.56669200  1
  O  O4  1  0.24556200  0.52294200  0.79919400  1
  O  O5  1  0.75136800  0.47595600  0.06669200  1
  O  O6  1  0.19030800  0.22934300  0.28979300  1
  O  O7  1  0.79202200  0.78223900  0.19859500  1
  O  O8  1  0.78223900  0.79202200  0.69859500  1
  O  O9  1  0.22934300  0.19030800  0.78979300  1
loop_
_geom_bond_atom_site_label_1
_geom_bond_atom_site_label_2
_geom_bond_distance
_geom_bond_site_symmetry_2
Ca0 O4 2.297126 1_555
Ca0 O7 2.341016 1_546
Ca0 O1 2.389092 1_555
Ca0 O2 2.514548 1_556
Ca0 O8 2.520143 1_545
Ca1 O3 2.300837 1_555
Ca1 O1 2.398288 1_555
Ca1 O9 2.407364 1_655
Ca1 O6 2.444941 1_655
Ca1 O5 2.467636 1_556
Ca2 O5 2.300837 1_555
Ca2 O0 2.398288 1_555
Ca2 O6 2.407364 1_565
Ca2 O9 2.444941 1_564
Ca2 O3 2.467636 1_555
Ca3 O2 2.297126 1_555
Ca3 O8 2.341016 1_455
Ca3 O0 2.389092 1_555
Ca3 O4 2.514548 1_555
Ca3 O7 2.520143 1_455
O0 Y1 2.193644 1_465
O0 Y0 2.221261 1_554
O1 Y0 2.193644 1_645
O1 Y1 2.221261 1_555
O2 Y1 2.128804 1_555
O2 W0 2.208596 1_545
O3 Y0 2.131710 1_555
O3 W0 2.208563 1_555
O4 Y0 2.128804 1_555
O4 W1 2.208596 1_455
O5 Y1 2.131710 1_555
O5 W1 2.208563 1_554
O6 W1 2.167953 1_454
O6 W0 2.184487 1_545
O7 W1 2.163773 1_554
O7 W0 2.184456 1_555
O8 W0 2.163773 1_555
O8 W1 2.184456 1_555
O9 W0 2.167953 1_545
O9 W1 2.184487 1_455
