# generated using pymatgen
data_K2Zn(SeO5)2
_symmetry_space_group_name_H-M   'P 1'
_cell_length_a   5.46725300
_cell_length_b   6.84305198
_cell_length_c   7.65192573
_cell_angle_alpha   110.82786509
_cell_angle_beta   93.44187154
_cell_angle_gamma   106.48145521
_symmetry_Int_Tables_number   1
_chemical_formula_structural   K2Zn(SeO5)2
_chemical_formula_sum   'K2 Zn1 Se2 O10'
_cell_volume   252.40846359
_cell_formula_units_Z   1
loop_
 _symmetry_equiv_pos_site_id
 _symmetry_equiv_pos_as_xyz
  1  'x, y, z'
loop_
 _atom_site_type_symbol
 _atom_site_label
 _atom_site_symmetry_multiplicity
 _atom_site_fract_x
 _atom_site_fract_y
 _atom_site_fract_z
 _atom_site_occupancy
  K  K0  1  0.29150500  0.68953200  0.27166900  1
  K  K1  1  0.70849500  0.31046800  0.72833100  1
  Zn  Zn0  1  0.00000000  0.00000000  0.00000000  1
  Se  Se0  1  0.36359400  0.69886900  0.77482400  1
  Se  Se1  1  0.63640600  0.30113100  0.22517600  1
  O  O0  1  0.40056900  0.87638500  0.66757600  1
  O  O1  1  0.59943100  0.12361500  0.33242400  1
  O  O2  1  0.26310400  0.43573200  0.62471700  1
  O  O3  1  0.73689600  0.56426800  0.37528300  1
  O  O4  1  0.64058200  0.74380000  0.91792100  1
  O  O5  1  0.35941800  0.25620000  0.08207900  1
  O  O6  1  0.14147400  0.72945800  0.92064300  1
  O  O7  1  0.85852600  0.27054200  0.07935700  1
  O  O8  1  0.02525700  0.00592400  0.25574500  1
  O  O9  1  0.97474300  0.99407600  0.74425500  1
loop_
_geom_bond_atom_site_label_1
_geom_bond_atom_site_label_2
_geom_bond_distance
_geom_bond_site_symmetry_2
K0 O0 2.786386 1_555
K0 O1 2.821423 1_565
K0 O6 2.889062 1_554
K0 O5 2.943774 1_555
K0 O7 2.952974 1_455
K0 O3 2.954447 1_555
K0 O8 2.962416 1_565
K0 O3 3.139220 1_455
K1 O1 2.786386 1_555
K1 O0 2.821423 1_545
K1 O7 2.889062 1_556
K1 O4 2.943774 1_555
K1 O6 2.952974 1_655
K1 O2 2.954447 1_555
K1 O9 2.962416 1_545
K1 O2 3.139220 1_655
O0 Se0 1.667169 1_555
O1 Se1 1.667169 1_555
O2 Se0 1.660011 1_555
O3 Se1 1.660011 1_555
O4 Se0 1.698258 1_555
O4 Zn0 2.107960 1_666
O5 Se1 1.698258 1_555
O5 Zn0 2.107960 1_555
O6 Se0 1.704228 1_555
O6 Zn0 2.112793 1_566
O7 Se1 1.704228 1_555
O7 Zn0 2.112793 1_655
O8 Zn0 1.938632 1_555
O9 Zn0 1.938632 1_666
