# generated using pymatgen
data_Sr2TiFeO6
_symmetry_space_group_name_H-M   'P 1'
_cell_length_a   3.93677400
_cell_length_b   15.74756400
_cell_length_c   7.83987501
_cell_angle_alpha   89.99994166
_cell_angle_beta   90.00565177
_cell_angle_gamma   89.99997453
_symmetry_Int_Tables_number   1
_chemical_formula_structural   Sr2TiFeO6
_chemical_formula_sum   'Sr8 Ti4 Fe4 O24'
_cell_volume   486.02991756
_cell_formula_units_Z   4
loop_
 _symmetry_equiv_pos_site_id
 _symmetry_equiv_pos_as_xyz
  1  'x, y, z'
loop_
 _atom_site_type_symbol
 _atom_site_label
 _atom_site_symmetry_multiplicity
 _atom_site_fract_x
 _atom_site_fract_y
 _atom_site_fract_z
 _atom_site_occupancy
  Sr  Sr0  1  0.50000500  0.12502100  0.25540500  1
  Sr  Sr1  1  0.50000500  0.37499900  0.25509600  1
  Sr  Sr2  1  0.50000200  0.62498200  0.25540400  1
  Sr  Sr3  1  0.50000400  0.87499900  0.25511900  1
  Sr  Sr4  1  0.49999600  0.12502100  0.74459400  1
  Sr  Sr5  1  0.49999600  0.37499900  0.74490300  1
  Sr  Sr6  1  0.49999600  0.62498100  0.74459500  1
  Sr  Sr7  1  0.49999800  0.87499800  0.74488100  1
  Ti  Ti0  1  0.00000100  0.99986100  0.00000100  1
  Ti  Ti1  1  0.00000000  0.25014000  0.00000000  1
  Ti  Ti2  1  0.00000200  0.49986000  0.00000000  1
  Ti  Ti3  1  0.00000000  0.75013900  0.99999900  1
  Fe  Fe0  1  0.00000100  0.24945600  0.49999900  1
  Fe  Fe1  1  0.99999900  0.50054500  0.50000100  1
  Fe  Fe2  1  0.00000100  0.00055300  0.50000100  1
  Fe  Fe3  1  0.00000000  0.74944600  0.50000100  1
  O  O0  1  0.00001600  0.99988700  0.24986900  1
  O  O1  1  0.00001700  0.25011300  0.24986700  1
  O  O2  1  0.00001600  0.49988700  0.24986600  1
  O  O3  1  0.00002000  0.75011300  0.24987200  1
  O  O4  1  0.99998500  0.99988800  0.75013200  1
  O  O5  1  0.99998100  0.25011300  0.75013100  1
  O  O6  1  0.99998500  0.49988600  0.75013200  1
  O  O7  1  0.99998400  0.75011300  0.75013000  1
  O  O8  1  0.00000000  0.12500000  0.00000000  1
  O  O9  1  0.99999800  0.37500200  0.00000100  1
  O  O10  1  0.99999700  0.62499900  0.00000100  1
  O  O11  1  0.99999900  0.87500000  0.00000000  1
  O  O12  1  0.50000100  0.99998300  0.00000000  1
  O  O13  1  0.49999900  0.25001500  0.00000000  1
  O  O14  1  0.49999800  0.49998600  0.00000000  1
  O  O15  1  0.50000000  0.75001600  0.99999900  1
  O  O16  1  0.99999900  0.12500600  0.50000000  1
  O  O17  1  0.00000000  0.37500100  0.50000000  1
  O  O18  1  0.00000100  0.62499500  0.50000000  1
  O  O19  1  0.99999900  0.87499900  0.50000000  1
  O  O20  1  0.50000100  0.99964100  0.50000200  1
  O  O21  1  0.49999900  0.25036200  0.50000100  1
  O  O22  1  0.50000100  0.49963600  0.50000100  1
  O  O23  1  0.49999800  0.75036000  0.49999900  1
loop_
_geom_bond_atom_site_label_1
_geom_bond_atom_site_label_2
_geom_bond_distance
_geom_bond_site_symmetry_2
Fe0 O16 1.959784 1_455
Fe0 O1 1.961031 1_555
Fe0 O5 1.961031 1_455
Fe0 O21 1.968431 1_555
Fe0 O21 1.968447 1_455
Fe0 O17 1.977028 1_555
Fe1 O18 1.959784 1_655
Fe1 O6 1.961023 1_555
Fe1 O2 1.961055 1_655
Fe1 O22 1.968431 1_555
Fe1 O22 1.968447 1_655
Fe1 O17 1.977012 1_655
Fe2 O16 1.959832 1_455
Fe2 O4 1.961024 1_445
Fe2 O0 1.961032 1_545
Fe2 O20 1.968439 1_545
Fe2 O20 1.968439 1_445
Fe2 O19 1.977170 1_445
Fe3 O18 1.959800 1_555
Fe3 O3 1.961008 1_555
Fe3 O7 1.961008 1_455
Fe3 O23 1.968432 1_555
Fe3 O23 1.968447 1_455
Fe3 O19 1.977154 1_455
O0 Ti0 1.958934 1_555
O0 Sr3 2.782782 1_555
O0 Sr3 2.782855 1_455
O0 Sr0 2.785559 1_565
O0 Sr0 2.785625 1_465
O1 Ti1 1.958926 1_555
O1 Sr1 2.782758 1_555
O1 Sr1 2.782829 1_455
O1 Sr0 2.785087 1_555
O1 Sr0 2.785161 1_455
O2 Ti2 1.958918 1_555
O2 Sr1 2.782782 1_555
O2 Sr1 2.782850 1_455
O2 Sr2 2.785116 1_555
O2 Sr2 2.785199 1_455
O3 Ti3 1.958973 1_554
O3 Sr3 2.782749 1_555
O3 Sr3 2.782843 1_455
O3 Sr2 2.785504 1_555
O3 Sr2 2.785611 1_455
O4 Ti0 1.958942 1_656
O4 Sr7 2.782802 1_555
O4 Sr7 2.782879 1_655
O4 Sr4 2.785546 1_565
O4 Sr4 2.785615 1_665
O5 Ti1 1.958942 1_656
O5 Sr5 2.782748 1_555
O5 Sr5 2.782839 1_655
O5 Sr4 2.785080 1_555
O5 Sr4 2.785168 1_655
O6 Ti2 1.958934 1_656
O6 Sr5 2.782772 1_555
O6 Sr5 2.782838 1_655
O6 Sr6 2.785123 1_555
O6 Sr6 2.785192 1_655
O7 Ti3 1.958942 1_655
O7 Sr7 2.782742 1_555
O7 Sr7 2.782827 1_655
O7 Sr6 2.785533 1_555
O7 Sr6 2.785605 1_655
O8 Ti0 1.970634 1_545
O8 Ti1 1.970650 1_555
O8 Sr0 2.807708 1_555
O8 Sr4 2.807711 1_454
O8 Sr0 2.807958 1_455
O8 Sr4 2.807966 1_554
O9 Ti2 1.966209 1_655
O9 Ti1 1.966272 1_655
O9 Sr1 2.805981 1_655
O9 Sr5 2.805984 1_554
O9 Sr1 2.806219 1_555
O9 Sr5 2.806250 1_654
O10 Ti2 1.970634 1_655
O10 Ti3 1.970650 1_654
O10 Sr2 2.807697 1_655
O10 Sr6 2.807703 1_554
O10 Sr2 2.807946 1_555
O10 Sr6 2.807974 1_654
O11 Ti3 1.966257 1_654
O11 Ti0 1.966257 1_655
O11 Sr7 2.806099 1_554
O11 Sr3 2.806110 1_655
O11 Sr3 2.806359 1_555
O11 Sr7 2.806370 1_654
O12 Ti0 1.968388 1_655
O12 Ti0 1.968388 1_555
O12 Sr3 2.806097 1_555
O12 Sr7 2.806111 1_554
O12 Sr0 2.808295 1_565
O12 Sr4 2.808298 1_564
O13 Ti1 1.968384 1_555
O13 Ti1 1.968392 1_655
O13 Sr1 2.805972 1_555
O13 Sr5 2.805974 1_554
O13 Sr0 2.807806 1_555
O13 Sr4 2.807815 1_554
O14 Ti2 1.968372 1_555
O14 Ti2 1.968404 1_655
O14 Sr1 2.806002 1_555
O14 Sr5 2.806010 1_554
O14 Sr6 2.807817 1_554
O14 Sr2 2.807826 1_555
O15 Ti3 1.968388 1_555
O15 Ti3 1.968388 1_655
O15 Sr7 2.806070 1_555
O15 Sr3 2.806095 1_556
O15 Sr2 2.808248 1_556
O15 Sr6 2.808256 1_555
O16 Sr0 2.747886 1_555
O16 Sr4 2.747889 1_655
O16 Sr4 2.748177 1_555
O16 Sr0 2.748191 1_655
O17 Sr5 2.749577 1_555
O17 Sr1 2.749580 1_455
O17 Sr5 2.749871 1_455
O17 Sr1 2.749879 1_555
O18 Sr6 2.747889 1_555
O18 Sr2 2.747906 1_455
O18 Sr2 2.748182 1_555
O18 Sr6 2.748188 1_455
O19 Sr3 2.749454 1_555
O19 Sr7 2.749465 1_655
O19 Sr7 2.749742 1_555
O19 Sr3 2.749753 1_655
O20 Sr7 2.745611 1_555
O20 Sr3 2.745625 1_555
O20 Sr4 2.752355 1_565
O20 Sr0 2.752379 1_565
O21 Sr5 2.745672 1_555
O21 Sr1 2.745686 1_555
O21 Sr4 2.751917 1_555
O21 Sr0 2.751936 1_555
O22 Sr5 2.745670 1_555
O22 Sr1 2.745689 1_555
O22 Sr6 2.751970 1_555
O22 Sr2 2.751995 1_555
O23 Sr3 2.745572 1_555
O23 Sr7 2.745574 1_555
O23 Sr2 2.752349 1_555
O23 Sr6 2.752363 1_555
