# generated using pymatgen
data_HoVO4
_symmetry_space_group_name_H-M   'P 1'
_cell_length_a   5.00214930
_cell_length_b   5.00214930
_cell_length_c   6.58421043
_cell_angle_alpha   112.32497781
_cell_angle_beta   112.32497781
_cell_angle_gamma   90.00000000
_symmetry_Int_Tables_number   1
_chemical_formula_structural   HoVO4
_chemical_formula_sum   'Ho2 V2 O8'
_cell_volume   138.95624733
_cell_formula_units_Z   2
loop_
 _symmetry_equiv_pos_site_id
 _symmetry_equiv_pos_as_xyz
  1  'x, y, z'
loop_
 _atom_site_type_symbol
 _atom_site_label
 _atom_site_symmetry_multiplicity
 _atom_site_fract_x
 _atom_site_fract_y
 _atom_site_fract_z
 _atom_site_occupancy
  Ho  Ho0  1  0.62500000  0.87500000  0.25000000  1
  Ho  Ho1  1  0.37500000  0.12500000  0.75000000  1
  V  V0  1  0.12500000  0.37500000  0.25000000  1
  V  V1  1  0.87500000  0.62500000  0.75000000  1
  O  O0  1  0.35374602  0.71163203  0.41211883  1
  O  O1  1  0.05837281  0.20048780  0.41211883  1
  O  O2  1  0.21163203  0.55837281  0.91211883  1
  O  O3  1  0.70048780  0.85374602  0.91211883  1
  O  O4  1  0.64625398  0.28836797  0.58788117  1
  O  O5  1  0.94162719  0.79951220  0.58788117  1
  O  O6  1  0.78836797  0.44162719  0.08788117  1
  O  O7  1  0.29951220  0.14625398  0.08788117  1
loop_
_geom_bond_atom_site_label_1
_geom_bond_atom_site_label_2
_geom_bond_distance
_geom_bond_site_symmetry_2
Ho0 O0 2.326214 1_555
Ho0 O6 2.326214 1_555
Ho0 O7 2.326216 1_565
Ho0 O1 2.326216 1_665
Ho0 O4 2.358302 1_565
Ho0 O2 2.358302 1_554
Ho0 O3 2.358304 1_554
Ho0 O5 2.358304 1_555
Ho1 O4 2.326214 1_555
Ho1 O2 2.326214 1_555
Ho1 O3 2.326216 1_545
Ho1 O5 2.326216 1_445
Ho1 O0 2.358302 1_545
Ho1 O6 2.358302 1_556
Ho1 O7 2.358304 1_556
Ho1 O1 2.358304 1_555
O0 V0 1.729356 1_555
O1 V0 1.729352 1_555
O2 V1 1.729356 1_455
O3 V1 1.729352 1_555
O4 V1 1.729356 1_555
O5 V1 1.729352 1_555
O6 V0 1.729356 1_655
O7 V0 1.729352 1_555
