# generated using pymatgen
data_Sr2Pr(FeO3)3
_symmetry_space_group_name_H-M   'P 1'
_cell_length_a   5.53706576
_cell_length_b   5.53706576
_cell_length_c   13.57005070
_cell_angle_alpha   89.45708390
_cell_angle_beta   89.45708390
_cell_angle_gamma   59.92858775
_symmetry_Int_Tables_number   1
_chemical_formula_structural   Sr2Pr(FeO3)3
_chemical_formula_sum   'Sr4 Pr2 Fe6 O18'
_cell_volume   360.02488415
_cell_formula_units_Z   2
loop_
 _symmetry_equiv_pos_site_id
 _symmetry_equiv_pos_as_xyz
  1  'x, y, z'
loop_
 _atom_site_type_symbol
 _atom_site_label
 _atom_site_symmetry_multiplicity
 _atom_site_fract_x
 _atom_site_fract_y
 _atom_site_fract_z
 _atom_site_occupancy
  Sr  Sr0  1  0.83242300  0.83242300  0.08397400  1
  Sr  Sr1  1  0.16521400  0.16521400  0.41724100  1
  Sr  Sr2  1  0.16757700  0.16757700  0.91602600  1
  Sr  Sr3  1  0.83478600  0.83478600  0.58275900  1
  Pr  Pr0  1  0.50756600  0.50756600  0.75047600  1
  Pr  Pr1  1  0.49243400  0.49243400  0.24952400  1
  Fe  Fe0  1  0.16651200  0.16651200  0.16601900  1
  Fe  Fe1  1  0.50000000  0.50000000  0.50000000  1
  Fe  Fe2  1  0.83348800  0.83348800  0.83398100  1
  Fe  Fe3  1  0.50000000  0.50000000  0.00000000  1
  Fe  Fe4  1  0.83329800  0.83329800  0.33448500  1
  Fe  Fe5  1  0.16670200  0.16670200  0.66551500  1
  O  O0  1  0.32429000  0.81011500  0.09578800  1
  O  O1  1  0.65071000  0.15734200  0.42116000  1
  O  O2  1  0.97470300  0.48461700  0.75653500  1
  O  O3  1  0.18988500  0.67571000  0.90421200  1
  O  O4  1  0.51538300  0.02529700  0.24346500  1
  O  O5  1  0.84265800  0.34929000  0.57884000  1
  O  O6  1  0.81011500  0.32429000  0.09578800  1
  O  O7  1  0.15734200  0.65071000  0.42116000  1
  O  O8  1  0.48461700  0.97470300  0.75653500  1
  O  O9  1  0.67571000  0.18988500  0.90421200  1
  O  O10  1  0.02529700  0.51538300  0.24346500  1
  O  O11  1  0.34929000  0.84265800  0.57884000  1
  O  O12  1  0.67904800  0.67904800  0.92865100  1
  O  O13  1  0.01437800  0.01437800  0.26321500  1
  O  O14  1  0.35189000  0.35189000  0.60326400  1
  O  O15  1  0.32095200  0.32095200  0.07134900  1
  O  O16  1  0.64811000  0.64811000  0.39673600  1
  O  O17  1  0.98562200  0.98562200  0.73678500  1
loop_
_geom_bond_atom_site_label_1
_geom_bond_atom_site_label_2
_geom_bond_distance
_geom_bond_site_symmetry_2
Fe0 O15 1.950423 1_555
Fe0 O13 1.956490 1_555
Fe0 O6 1.964159 1_455
Fe0 O0 1.964159 1_545
Fe0 O10 1.989127 1_555
Fe0 O4 1.989127 1_555
Fe1 O5 1.968665 1_555
Fe1 O11 1.968665 1_555
Fe1 O7 1.968665 1_555
Fe1 O1 1.968665 1_555
Fe1 O14 1.984741 1_555
Fe1 O16 1.984741 1_555
Fe2 O12 1.950423 1_555
Fe2 O17 1.956490 1_555
Fe2 O3 1.964159 1_655
Fe2 O9 1.964159 1_565
Fe2 O2 1.989127 1_555
Fe2 O8 1.989127 1_555
Fe3 O12 1.962599 1_554
Fe3 O15 1.962599 1_555
Fe3 O6 1.982121 1_555
Fe3 O0 1.982121 1_555
Fe3 O3 1.982121 1_554
Fe3 O9 1.982121 1_554
Fe4 O1 1.955615 1_565
Fe4 O7 1.955615 1_655
Fe4 O16 1.958919 1_555
Fe4 O4 1.973670 1_565
Fe4 O10 1.973670 1_655
Fe4 O13 1.979066 1_665
Fe5 O5 1.955615 1_455
Fe5 O11 1.955615 1_545
Fe5 O14 1.958919 1_555
Fe5 O8 1.973670 1_545
Fe5 O2 1.973670 1_455
Fe5 O17 1.979066 1_445
O0 Pr1 2.576675 1_555
O0 Sr0 2.670051 1_455
O0 Sr0 2.880360 1_555
O0 Sr2 2.974649 1_564
O1 Sr1 2.667679 1_555
O1 Sr3 2.679807 1_545
O1 Pr1 2.821811 1_555
O1 Sr1 2.870916 1_655
O2 Pr0 2.527388 1_555
O2 Sr2 2.645637 1_655
O2 Sr3 2.891893 1_555
O2 Pr0 3.016501 1_655
O3 Pr0 2.576675 1_555
O3 Sr2 2.670051 1_565
O3 Sr2 2.880360 1_555
O3 Sr0 2.974649 1_456
O4 Pr1 2.527388 1_555
O4 Sr0 2.645637 1_545
O4 Sr1 2.891893 1_555
O4 Pr1 3.016501 1_545
O5 Sr3 2.667679 1_555
O5 Sr1 2.679807 1_655
O5 Pr0 2.821811 1_555
O5 Sr3 2.870916 1_545
O6 Pr1 2.576675 1_555
O6 Sr0 2.670051 1_545
O6 Sr0 2.880360 1_555
O6 Sr2 2.974649 1_654
O7 Sr1 2.667679 1_555
O7 Sr3 2.679807 1_455
O7 Pr1 2.821811 1_555
O7 Sr1 2.870916 1_565
O8 Pr0 2.527388 1_555
O8 Sr2 2.645637 1_565
O8 Sr3 2.891893 1_555
O8 Pr0 3.016501 1_565
O9 Pr0 2.576675 1_555
O9 Sr2 2.670051 1_655
O9 Sr2 2.880360 1_555
O9 Sr0 2.974649 1_546
O10 Pr1 2.527388 1_555
O10 Sr0 2.645637 1_455
O10 Sr1 2.891893 1_555
O10 Pr1 3.016501 1_455
O11 Sr3 2.667679 1_555
O11 Sr1 2.679807 1_565
O11 Pr0 2.821811 1_555
O11 Sr3 2.870916 1_455
O12 Sr0 2.583725 1_556
O12 Sr2 2.773105 1_565
O12 Sr2 2.773105 1_655
O12 Pr0 2.939323 1_555
O13 Sr1 2.555187 1_555
O13 Pr1 2.779915 1_545
O13 Pr1 2.779915 1_455
O13 Sr0 3.009377 1_445
O14 Pr0 2.507318 1_555
O14 Sr3 2.784526 1_545
O14 Sr3 2.784526 1_455
O14 Sr1 3.111064 1_555
O15 Sr2 2.583725 1_554
O15 Sr0 2.773105 1_545
O15 Sr0 2.773105 1_455
O15 Pr1 2.939323 1_555
O16 Pr1 2.507318 1_555
O16 Sr1 2.784526 1_565
O16 Sr1 2.784526 1_655
O16 Sr3 3.111064 1_555
O17 Sr3 2.555187 1_555
O17 Pr0 2.779915 1_565
O17 Pr0 2.779915 1_655
O17 Sr2 3.009377 1_665
