# generated using pymatgen
data_Mg5Mn3
_symmetry_space_group_name_H-M   'P 1'
_cell_length_a   4.82453313
_cell_length_b   5.93081476
_cell_length_c   11.68836053
_cell_angle_alpha   88.84207656
_cell_angle_beta   115.38569313
_cell_angle_gamma   88.12942869
_symmetry_Int_Tables_number   1
_chemical_formula_structural   Mg5Mn3
_chemical_formula_sum   'Mg10 Mn6'
_cell_volume   301.77304592
_cell_formula_units_Z   2
loop_
 _symmetry_equiv_pos_site_id
 _symmetry_equiv_pos_as_xyz
  1  'x, y, z'
loop_
 _atom_site_type_symbol
 _atom_site_label
 _atom_site_symmetry_multiplicity
 _atom_site_fract_x
 _atom_site_fract_y
 _atom_site_fract_z
 _atom_site_occupancy
  Mg  Mg0  1  0.53770500  0.26841300  0.87538900  1
  Mg  Mg1  1  0.03171800  0.26666300  0.36828500  1
  Mg  Mg2  1  0.29660200  0.50374300  0.61444100  1
  Mg  Mg3  1  0.30453800  0.00547300  0.63066100  1
  Mg  Mg4  1  0.90670800  0.71247400  0.72311700  1
  Mg  Mg5  1  0.75997400  0.53724600  0.11101900  1
  Mg  Mg6  1  0.36973500  0.74612100  0.21939300  1
  Mg  Mg7  1  0.12858000  0.98220200  0.95847400  1
  Mg  Mg8  1  0.36213200  0.24437300  0.20342900  1
  Mg  Mg9  1  0.63490300  0.98309600  0.46576200  1
  Mn  Mn0  1  0.88613900  0.23869600  0.71273700  1
  Mn  Mn1  1  0.55146800  0.76340800  0.87544000  1
  Mn  Mn2  1  0.02874300  0.76462100  0.36667900  1
  Mn  Mn3  1  0.78004300  0.01106800  0.12114600  1
  Mn  Mn4  1  0.11541900  0.48725600  0.95881700  1
  Mn  Mn5  1  0.63759500  0.48514700  0.46720900  1
loop_
_geom_bond_atom_site_label_1
_geom_bond_atom_site_label_2
_geom_bond_distance
_geom_bond_site_symmetry_2
Mg0 Mn4 2.891523 1_655
Mg0 Mn4 2.892775 1_555
Mg0 Mn0 2.907330 1_455
Mg0 Mn1 2.938647 1_555
Mg0 Mn3 2.962162 1_556
Mg0 Mn1 2.993642 1_545
Mg0 Mg5 3.005673 1_556
Mg0 Mg7 3.032283 1_645
Mg0 Mn0 3.034080 1_555
Mg0 Mg2 3.046937 1_555
Mg0 Mg3 3.068455 1_555
Mg0 Mg7 3.084827 1_545
Mg1 Mn5 2.901096 1_455
Mg1 Mn2 2.952504 1_555
Mg1 Mg8 2.977772 1_455
Mg1 Mn2 2.978421 1_545
Mg1 Mg8 2.983584 1_555
Mg1 Mn5 2.995039 1_555
Mg1 Mg2 3.002741 1_555
Mg1 Mg9 3.058644 1_545
Mg1 Mn3 3.066972 1_455
Mg1 Mg5 3.102207 1_455
Mg1 Mg3 3.122641 1_555
Mg1 Mg9 3.129630 1_445
Mg2 Mn5 2.846646 1_555
Mg2 Mn5 2.901983 1_455
Mg2 Mg4 2.940179 1_455
Mg2 Mn0 2.951945 1_555
Mg2 Mg3 2.955342 1_555
Mg2 Mg4 2.984240 1_555
Mg2 Mg3 2.985971 1_565
Mg2 Mn2 2.988295 1_555
Mg2 Mn0 3.129474 1_455
Mg2 Mn1 3.207384 1_555
Mg3 Mn0 2.905163 1_455
Mg3 Mn1 2.909618 1_545
Mg3 Mn0 2.950579 1_555
Mg3 Mg9 2.978103 1_445
Mg3 Mg9 2.983853 1_545
Mg3 Mg4 3.087113 1_545
Mg3 Mg4 3.129161 1_445
Mg3 Mn2 3.180155 1_545
Mg4 Mn4 2.787966 1_655
Mg4 Mn0 2.818103 1_555
Mg4 Mn1 2.876078 1_655
Mg4 Mn1 2.966932 1_555
Mg4 Mg7 3.006220 1_655
Mg4 Mn5 3.065588 1_555
Mg4 Mg9 3.103125 1_555
Mg4 Mn0 3.117514 1_565
Mg5 Mn1 2.789389 1_554
Mg5 Mn3 2.818104 1_565
Mg5 Mn4 2.874194 1_554
Mg5 Mg6 2.939357 1_555
Mg5 Mn4 2.966026 1_654
Mg5 Mg6 2.983231 1_655
Mg5 Mn2 3.063363 1_655
Mg5 Mg8 3.086711 1_655
Mg5 Mn3 3.117282 1_555
Mg5 Mg8 3.128461 1_555
Mg6 Mn2 2.847162 1_555
Mg6 Mn2 2.902017 1_655
Mg6 Mn3 2.952255 1_465
Mg6 Mg8 2.955198 1_565
Mg6 Mg8 2.985816 1_555
Mg6 Mn5 2.989058 1_555
Mg6 Mg9 3.004426 1_555
Mg6 Mg7 3.048539 1_554
Mg6 Mn3 3.128205 1_565
Mg6 Mn4 3.201042 1_554
Mg7 Mn1 2.889270 1_455
Mg7 Mn1 2.892090 1_555
Mg7 Mn3 2.906429 1_566
Mg7 Mn4 2.938150 1_555
Mg7 Mn0 2.959525 1_465
Mg7 Mn4 2.994102 1_565
Mg7 Mn3 3.034429 1_466
Mg7 Mg8 3.068054 1_566
Mg8 Mn3 2.904998 1_555
Mg8 Mn4 2.910327 1_554
Mg8 Mn3 2.952595 1_455
Mg8 Mg9 3.122485 1_545
Mg8 Mn5 3.178015 1_555
Mg9 Mn2 2.901245 1_655
Mg9 Mn5 2.952523 1_555
Mg9 Mn5 2.978382 1_565
Mg9 Mn2 2.996096 1_555
Mg9 Mn0 3.065472 1_565
Mn0 Mn5 2.928418 1_555
Mn0 Mn4 3.036368 1_655
Mn1 Mn4 2.899310 1_655
Mn1 Mn3 3.030200 1_566
Mn1 Mn4 3.158499 1_555
Mn2 Mn3 2.928434 1_465
Mn2 Mn5 3.066023 1_555
Mn2 Mn5 3.117040 1_455
