# generated using pymatgen
data_Sr6Ca2Fe7CoO24
_symmetry_space_group_name_H-M   'P 1'
_cell_length_a   7.78395958
_cell_length_b   7.78395958
_cell_length_c   7.74663200
_cell_angle_alpha   90.00000000
_cell_angle_beta   90.00000000
_cell_angle_gamma   90.02191236
_symmetry_Int_Tables_number   1
_chemical_formula_structural   Sr6Ca2Fe7CoO24
_chemical_formula_sum   'Sr6 Ca2 Fe7 Co1 O24'
_cell_volume   469.36860523
_cell_formula_units_Z   1
loop_
 _symmetry_equiv_pos_site_id
 _symmetry_equiv_pos_as_xyz
  1  'x, y, z'
loop_
 _atom_site_type_symbol
 _atom_site_label
 _atom_site_symmetry_multiplicity
 _atom_site_fract_x
 _atom_site_fract_y
 _atom_site_fract_z
 _atom_site_occupancy
  Sr  Sr0  1  0.74994600  0.25005400  0.25195000  1
  Sr  Sr1  1  0.25005500  0.25005500  0.25193700  1
  Sr  Sr2  1  0.25009200  0.25009200  0.74818700  1
  Sr  Sr3  1  0.74994500  0.74994500  0.25193700  1
  Sr  Sr4  1  0.25005400  0.74994600  0.25195000  1
  Sr  Sr5  1  0.74990800  0.74990800  0.74818700  1
  Ca  Ca0  1  0.75026100  0.24973900  0.74758100  1
  Ca  Ca1  1  0.24973900  0.75026100  0.74758100  1
  Fe  Fe0  1  0.00000000  0.50000000  0.99875100  1
  Fe  Fe1  1  0.50000000  0.50000000  0.99770700  1
  Fe  Fe2  1  0.00000000  0.50000000  0.50117200  1
  Fe  Fe3  1  0.00000000  0.00000000  0.99879200  1
  Fe  Fe4  1  0.50000000  0.00000000  0.99875100  1
  Fe  Fe5  1  0.00000000  0.00000000  0.50141600  1
  Fe  Fe6  1  0.50000000  0.00000000  0.50117200  1
  Co  Co0  1  0.50000000  0.50000000  0.50113300  1
  O  O0  1  0.99806800  0.24958100  0.99671100  1
  O  O1  1  0.50177100  0.25317900  0.99670900  1
  O  O2  1  0.99809300  0.24938100  0.50334700  1
  O  O3  1  0.50250600  0.25144400  0.50353100  1
  O  O4  1  0.00193200  0.75041900  0.99671100  1
  O  O5  1  0.49822900  0.74682100  0.99670900  1
  O  O6  1  0.00190700  0.75061900  0.50334700  1
  O  O7  1  0.49749400  0.74855600  0.50353100  1
  O  O8  1  0.00000000  0.50000000  0.25011700  1
  O  O9  1  0.50000000  0.50000000  0.26343800  1
  O  O10  1  0.00000000  0.50000000  0.74989700  1
  O  O11  1  0.50000000  0.50000000  0.73722000  1
  O  O12  1  0.00000000  0.00000000  0.24900800  1
  O  O13  1  0.50000000  0.00000000  0.25011700  1
  O  O14  1  0.00000000  0.00000000  0.75091400  1
  O  O15  1  0.50000000  0.00000000  0.74989700  1
  O  O16  1  0.74682100  0.49822900  0.99670900  1
  O  O17  1  0.25317900  0.50177100  0.99670900  1
  O  O18  1  0.74855600  0.49749400  0.50353100  1
  O  O19  1  0.25144400  0.50250600  0.50353100  1
  O  O20  1  0.75041900  0.00193200  0.99671100  1
  O  O21  1  0.24958100  0.99806800  0.99671100  1
  O  O22  1  0.75061900  0.00190700  0.50334700  1
  O  O23  1  0.24938100  0.99809300  0.50334700  1
loop_
_geom_bond_atom_site_label_1
_geom_bond_atom_site_label_2
_geom_bond_distance
_geom_bond_site_symmetry_2
Ca0 O18 2.700667 1_555
Ca0 O3 2.700667 1_555
Ca0 O22 2.702059 1_555
Ca0 O2 2.702059 1_555
Ca0 O0 2.728611 1_555
Ca0 O20 2.728611 1_555
Ca0 O1 2.732499 1_555
Ca0 O16 2.732499 1_555
Ca0 O14 2.749819 1_655
Ca0 O10 2.751579 1_655
Ca0 O15 2.751579 1_555
Ca0 O11 2.756614 1_555
Ca1 O7 2.700667 1_555
Ca1 O19 2.700667 1_555
Ca1 O6 2.702059 1_555
Ca1 O23 2.702059 1_555
Ca1 O4 2.728611 1_555
Ca1 O21 2.728611 1_555
Ca1 O5 2.732499 1_555
Ca1 O17 2.732499 1_555
Ca1 O14 2.749819 1_565
Ca1 O10 2.751579 1_555
Ca1 O15 2.751579 1_565
Ca1 O11 2.756614 1_555
Fe0 O10 1.927780 1_555
Fe0 O8 1.947240 1_556
Fe0 O4 1.949368 1_555
Fe0 O0 1.949368 1_455
Fe0 O17 1.970842 1_555
Fe0 O16 1.970842 1_455
Fe1 O5 1.921315 1_555
Fe1 O16 1.921315 1_555
Fe1 O17 1.921315 1_555
Fe1 O1 1.921315 1_555
Fe1 O11 2.017897 1_555
Fe1 O9 2.058520 1_556
Fe2 O10 1.926781 1_555
Fe2 O8 1.944831 1_555
Fe2 O2 1.950932 1_455
Fe2 O6 1.950932 1_555
Fe2 O18 1.957405 1_455
Fe2 O19 1.957405 1_555
Fe3 O14 1.920220 1_555
Fe3 O12 1.938331 1_556
Fe3 O0 1.942859 1_455
Fe3 O21 1.942859 1_545
Fe3 O4 1.942859 1_545
Fe3 O20 1.942859 1_455
Fe4 O15 1.927780 1_555
Fe4 O13 1.947240 1_556
Fe4 O20 1.949368 1_555
Fe4 O21 1.949368 1_545
Fe4 O1 1.970842 1_555
Fe4 O5 1.970842 1_545
Fe5 O14 1.932769 1_555
Fe5 O22 1.941292 1_455
Fe5 O23 1.941292 1_545
Fe5 O2 1.941292 1_455
Fe5 O6 1.941292 1_545
Fe5 O12 1.955312 1_555
Fe6 O15 1.926781 1_555
Fe6 O13 1.944831 1_555
Fe6 O23 1.950932 1_545
Fe6 O22 1.950932 1_555
Fe6 O7 1.957405 1_545
Fe6 O3 1.957405 1_555
Co0 O11 1.828879 1_555
Co0 O9 1.841336 1_555
Co0 O7 1.934945 1_555
Co0 O19 1.934945 1_555
Co0 O3 1.934945 1_555
Co0 O18 1.934945 1_555
O0 Sr2 2.748625 1_655
O0 Sr0 2.764001 1_556
O0 Sr1 2.785033 1_656
O1 Sr2 2.746795 1_555
O1 Sr0 2.764411 1_556
O1 Sr1 2.783657 1_556
O2 Sr2 2.728574 1_655
O2 Sr0 2.742929 1_555
O2 Sr1 2.763990 1_655
O3 Sr2 2.729921 1_555
O3 Sr0 2.740088 1_555
O3 Sr1 2.767710 1_555
O4 Sr5 2.748625 1_455
O4 Sr4 2.764001 1_556
O4 Sr3 2.785033 1_456
O5 Sr5 2.746795 1_555
O5 Sr4 2.764411 1_556
O5 Sr3 2.783657 1_556
O6 Sr5 2.728574 1_455
O6 Sr4 2.742929 1_555
O6 Sr3 2.763990 1_455
O7 Sr5 2.729921 1_555
O7 Sr4 2.740088 1_555
O7 Sr3 2.767710 1_555
O8 Sr0 2.751556 1_455
O8 Sr4 2.751556 1_555
O8 Sr3 2.752608 1_455
O8 Sr1 2.752608 1_555
O9 Sr3 2.752356 1_555
O9 Sr1 2.752356 1_555
O9 Sr0 2.753415 1_555
O9 Sr4 2.753415 1_555
O10 Sr5 2.752604 1_455
O10 Sr2 2.752604 1_555
O11 Sr5 2.751818 1_555
O11 Sr2 2.751818 1_555
O12 Sr1 2.752218 1_555
O12 Sr3 2.752218 1_445
O12 Sr0 2.753260 1_455
O12 Sr4 2.753260 1_545
O13 Sr4 2.751556 1_545
O13 Sr0 2.751556 1_555
O13 Sr3 2.752608 1_545
O13 Sr1 2.752608 1_555
O14 Sr2 2.752613 1_555
O14 Sr5 2.752613 1_445
O15 Sr5 2.752604 1_545
O15 Sr2 2.752604 1_555
O16 Sr5 2.746795 1_555
O16 Sr0 2.764411 1_556
O16 Sr3 2.783657 1_556
O17 Sr2 2.746795 1_555
O17 Sr4 2.764411 1_556
O17 Sr1 2.783657 1_556
O18 Sr5 2.729921 1_555
O18 Sr0 2.740088 1_555
O18 Sr3 2.767710 1_555
O19 Sr2 2.729921 1_555
O19 Sr4 2.740088 1_555
O19 Sr1 2.767710 1_555
O20 Sr5 2.748625 1_545
O20 Sr0 2.764001 1_556
O20 Sr3 2.785033 1_546
O21 Sr2 2.748625 1_565
O21 Sr4 2.764001 1_556
O21 Sr1 2.785033 1_566
O22 Sr5 2.728574 1_545
O22 Sr0 2.742929 1_555
O22 Sr3 2.763990 1_545
O23 Sr2 2.728574 1_565
O23 Sr4 2.742929 1_555
O23 Sr1 2.763990 1_565
