# generated using pymatgen
data_HfMg6B
_symmetry_space_group_name_H-M   'P 1'
_cell_length_a   4.69741800
_cell_length_b   6.29785100
_cell_length_c   10.99341800
_cell_angle_alpha   90.00000000
_cell_angle_beta   90.00000000
_cell_angle_gamma   90.00000000
_symmetry_Int_Tables_number   1
_chemical_formula_structural   HfMg6B
_chemical_formula_sum   'Hf2 Mg12 B2'
_cell_volume   325.22530563
_cell_formula_units_Z   2
loop_
 _symmetry_equiv_pos_site_id
 _symmetry_equiv_pos_as_xyz
  1  'x, y, z'
loop_
 _atom_site_type_symbol
 _atom_site_label
 _atom_site_symmetry_multiplicity
 _atom_site_fract_x
 _atom_site_fract_y
 _atom_site_fract_z
 _atom_site_occupancy
  Hf  Hf0  1  0.50000000  0.50000000  0.18988000  1
  Hf  Hf1  1  0.50000000  0.00000000  0.68988000  1
  Mg  Mg0  1  0.00000000  0.74469000  0.09124800  1
  Mg  Mg1  1  0.00000000  0.25531000  0.09124800  1
  Mg  Mg2  1  0.00000000  0.00000000  0.33162400  1
  Mg  Mg3  1  0.50000000  0.25525200  0.42318900  1
  Mg  Mg4  1  0.50000000  0.74474800  0.42318900  1
  Mg  Mg5  1  0.50000000  0.00000000  0.17009700  1
  Mg  Mg6  1  0.00000000  0.24469000  0.59124800  1
  Mg  Mg7  1  0.00000000  0.75531000  0.59124800  1
  Mg  Mg8  1  0.00000000  0.50000000  0.83162400  1
  Mg  Mg9  1  0.50000000  0.75525200  0.92318900  1
  Mg  Mg10  1  0.50000000  0.24474800  0.92318900  1
  Mg  Mg11  1  0.50000000  0.50000000  0.67009700  1
  B  B0  1  0.00000000  0.50000000  0.27952400  1
  B  B1  1  0.00000000  0.00000000  0.77952400  1
loop_
_geom_bond_atom_site_label_1
_geom_bond_atom_site_label_2
_geom_bond_distance
_geom_bond_site_symmetry_2
Hf0 Mg4 2.992390 1_555
Hf0 Mg3 2.992390 1_555
Hf0 Mg5 3.156427 1_565
Hf0 Mg5 3.156427 1_555
Hf0 Mg9 3.343636 1_554
Hf0 Mg10 3.343636 1_554
Hf1 Mg10 2.992390 1_555
Hf1 Mg9 2.992390 1_545
Hf1 Mg11 3.156427 1_555
Hf1 Mg11 3.156427 1_545
Hf1 Mg3 3.343636 1_555
Hf1 Mg4 3.343636 1_545
Mg0 Mg5 2.975427 1_465
Mg0 Mg5 2.975427 1_565
Mg0 Mg9 2.989025 1_554
Mg0 Mg9 2.989025 1_454
Mg0 Mg2 3.093291 1_565
Mg0 Mg8 3.243601 1_554
Mg1 Mg5 2.975427 1_455
Mg1 Mg5 2.975427 1_555
Mg1 Mg10 2.989025 1_454
Mg1 Mg10 2.989025 1_554
Mg1 Mg2 3.093291 1_555
Mg1 Mg8 3.243601 1_554
Mg2 Mg5 2.944429 1_455
Mg2 Mg5 2.944429 1_555
Mg2 Mg3 3.018921 1_455
Mg2 Mg4 3.018921 1_445
Mg2 Mg3 3.018921 1_555
Mg2 Mg4 3.018921 1_545
Mg2 Mg7 3.243601 1_545
Mg2 Mg6 3.243601 1_555
Mg3 Mg6 2.989025 1_655
Mg3 Mg6 2.989025 1_555
Mg3 Mg4 3.082773 1_555
Mg3 Mg5 3.213352 1_555
Mg3 Mg4 3.215078 1_545
Mg4 Mg7 2.989025 1_555
Mg4 Mg7 2.989025 1_655
Mg4 Mg5 3.213352 1_565
Mg5 Mg9 3.121480 1_544
Mg6 Mg8 3.093291 1_555
Mg7 Mg8 3.093291 1_555
Mg8 Mg9 3.018921 1_455
Mg8 Mg9 3.018921 1_555
Mg10 Mg8 3.018921 1_655
Mg10 Mg8 3.018921 1_555
Mg10 Mg9 3.082773 1_545
Mg10 Mg5 3.121480 1_556
Mg10 Mg11 3.213352 1_555
Mg10 Mg9 3.215078 1_555
Mg11 Mg8 2.944429 1_555
Mg11 Mg8 2.944429 1_655
Mg11 Mg7 2.975427 1_555
Mg11 Mg7 2.975427 1_655
Mg11 Mg6 2.975427 1_555
Mg11 Mg6 2.975427 1_655
Mg11 Mg4 3.121480 1_555
Mg11 Mg3 3.121480 1_555
Mg11 Mg9 3.213352 1_555
B0 Hf0 2.547083 1_455
B0 Hf0 2.547083 1_555
B0 Mg1 2.580466 1_555
B0 Mg0 2.580466 1_555
B1 Hf1 2.547083 1_455
B1 Hf1 2.547083 1_555
B1 Mg6 2.580466 1_555
B1 Mg7 2.580466 1_545
