# generated using pymatgen
data_Mg2Cu2CO11
_symmetry_space_group_name_H-M   'P 1'
_cell_length_a   7.68740461
_cell_length_b   7.68740461
_cell_length_c   7.15082042
_cell_angle_alpha   87.03133299
_cell_angle_beta   87.03133299
_cell_angle_gamma   91.66012142
_symmetry_Int_Tables_number   1
_chemical_formula_structural   Mg2Cu2CO11
_chemical_formula_sum   'Mg4 Cu4 C2 O22'
_cell_volume   421.24046803
_cell_formula_units_Z   2
loop_
 _symmetry_equiv_pos_site_id
 _symmetry_equiv_pos_as_xyz
  1  'x, y, z'
loop_
 _atom_site_type_symbol
 _atom_site_label
 _atom_site_symmetry_multiplicity
 _atom_site_fract_x
 _atom_site_fract_y
 _atom_site_fract_z
 _atom_site_occupancy
  Mg  Mg0  1  0.17971600  0.48296000  0.29237200  1
  Mg  Mg1  1  0.51704000  0.82028400  0.20762800  1
  Mg  Mg2  1  0.82028400  0.51704000  0.70762800  1
  Mg  Mg3  1  0.48296000  0.17971600  0.79237200  1
  Cu  Cu0  1  0.10130000  0.78830500  0.53869500  1
  Cu  Cu1  1  0.21169500  0.89870000  0.96130500  1
  Cu  Cu2  1  0.89870000  0.21169500  0.46130500  1
  Cu  Cu3  1  0.78830500  0.10130000  0.03869500  1
  C  C0  1  0.56796900  0.43203100  0.25000000  1
  C  C1  1  0.43203100  0.56796900  0.75000000  1
  O  O0  1  0.40448100  0.38409900  0.26762000  1
  O  O1  1  0.61590100  0.59551900  0.23238000  1
  O  O2  1  0.59551900  0.61590100  0.73238000  1
  O  O3  1  0.38409900  0.40448100  0.76762000  1
  O  O4  1  0.68481900  0.31518100  0.25000000  1
  O  O5  1  0.31518100  0.68481900  0.75000000  1
  O  O6  1  0.22261900  0.72181300  0.15814500  1
  O  O7  1  0.27818700  0.77738100  0.34185500  1
  O  O8  1  0.77738100  0.27818700  0.84185500  1
  O  O9  1  0.72181300  0.22261900  0.65814500  1
  O  O10  1  0.84608300  0.97742000  0.40750200  1
  O  O11  1  0.02258000  0.15391700  0.09249800  1
  O  O12  1  0.15391700  0.02258000  0.59249800  1
  O  O13  1  0.97742000  0.84608300  0.90750200  1
  O  O14  1  0.97238500  0.58411200  0.45129600  1
  O  O15  1  0.41588800  0.02761500  0.04870400  1
  O  O16  1  0.02761500  0.41588800  0.54870400  1
  O  O17  1  0.58411200  0.97238500  0.95129600  1
  O  O18  1  0.03740400  0.26235200  0.23442200  1
  O  O19  1  0.73764800  0.96259600  0.26557800  1
  O  O20  1  0.96259600  0.73764800  0.76557800  1
  O  O21  1  0.26235200  0.03740400  0.73442200  1
loop_
_geom_bond_atom_site_label_1
_geom_bond_atom_site_label_2
_geom_bond_distance
_geom_bond_site_symmetry_2
Mg0 O0 1.911215 1_555
Mg0 O6 2.037427 1_555
Mg0 O18 2.063229 1_555
Mg0 O14 2.100522 1_455
Mg0 O16 2.153610 1_555
Mg0 O7 2.415024 1_555
Mg1 O1 1.911215 1_555
Mg1 O7 2.037427 1_555
Mg1 O19 2.063229 1_555
Mg1 O15 2.100522 1_565
Mg1 O17 2.153610 1_554
Mg1 O6 2.415024 1_555
Mg2 O2 1.911215 1_555
Mg2 O8 2.037427 1_555
Mg2 O20 2.063229 1_555
Mg2 O16 2.100522 1_655
Mg2 O14 2.153610 1_555
Mg2 O9 2.415024 1_555
Mg3 O3 1.911215 1_555
Mg3 O9 2.037427 1_555
Mg3 O21 2.063229 1_555
Mg3 O17 2.100522 1_545
Mg3 O15 2.153610 1_556
Mg3 O8 2.415024 1_555
Cu0 O12 1.897576 1_565
Cu0 O20 1.911043 1_455
Cu0 O7 1.912581 1_555
Cu0 O14 1.977967 1_455
Cu0 O5 2.414122 1_555
Cu0 O10 2.656607 1_455
Cu1 O13 1.897576 1_455
Cu1 O21 1.911043 1_565
Cu1 O6 1.912581 1_556
Cu1 O15 1.977967 1_566
Cu1 O5 2.414122 1_555
Cu1 O11 2.656607 1_566
Cu2 O10 1.897576 1_545
Cu2 O18 1.911043 1_655
Cu2 O9 1.912581 1_555
Cu2 O16 1.977967 1_655
Cu2 O4 2.414122 1_555
Cu2 O12 2.656607 1_655
Cu3 O11 1.897576 1_655
Cu3 O19 1.911043 1_545
Cu3 O8 1.912581 1_554
Cu3 O17 1.977967 1_544
Cu3 O4 2.414122 1_555
Cu3 O13 2.656607 1_544
C0 O4 1.288620 1_555
C0 O1 1.297361 1_555
C0 O0 1.297361 1_555
C1 O5 1.288620 1_555
C1 O2 1.297361 1_555
C1 O3 1.297361 1_555
O6 O7 1.482019 1_555
O8 O9 1.482019 1_555
O10 O19 1.353483 1_555
O11 O18 1.353483 1_555
O12 O21 1.353483 1_555
O13 O20 1.353483 1_555
O14 O16 1.518870 1_655
O15 O17 1.518870 1_544
