# generated using pymatgen
data_Li2CuMoF6
_symmetry_space_group_name_H-M   'P 1'
_cell_length_a   5.93536200
_cell_length_b   5.93536176
_cell_length_c   5.93536206
_cell_angle_alpha   60.00000398
_cell_angle_beta   60.00000032
_cell_angle_gamma   59.99999868
_symmetry_Int_Tables_number   1
_chemical_formula_structural   Li2CuMoF6
_chemical_formula_sum   'Li2 Cu1 Mo1 F6'
_cell_volume   147.85180626
_cell_formula_units_Z   1
loop_
 _symmetry_equiv_pos_site_id
 _symmetry_equiv_pos_as_xyz
  1  'x, y, z'
loop_
 _atom_site_type_symbol
 _atom_site_label
 _atom_site_symmetry_multiplicity
 _atom_site_fract_x
 _atom_site_fract_y
 _atom_site_fract_z
 _atom_site_occupancy
  Li  Li0  1  0.25000000  0.25000000  0.25000000  1
  Li  Li1  1  0.75000000  0.75000000  0.75000000  1
  Cu  Cu0  1  0.50000000  0.50000000  0.50000000  1
  Mo  Mo0  1  0.00000000  0.00000000  0.00000000  1
  F  F0  1  0.24626100  0.75373900  0.24626100  1
  F  F1  1  0.75373900  0.75373900  0.24626100  1
  F  F2  1  0.75373900  0.24626100  0.75373900  1
  F  F3  1  0.75373900  0.24626100  0.24626100  1
  F  F4  1  0.24626100  0.75373900  0.75373900  1
  F  F5  1  0.24626100  0.24626100  0.75373900  1
loop_
_geom_bond_atom_site_label_1
_geom_bond_atom_site_label_2
_geom_bond_distance
_geom_bond_site_symmetry_2
Cu0 F3 2.129852 1_555
Cu0 F4 2.129852 1_555
Cu0 F5 2.129852 1_555
Cu0 F0 2.129852 1_555
Cu0 F1 2.129852 1_555
Cu0 F2 2.129852 1_555
F0 Mo0 2.067083 1_565
F1 Mo0 2.067083 1_665
F2 Mo0 2.067083 1_656
F3 Mo0 2.067083 1_655
F4 Mo0 2.067083 1_566
F5 Mo0 2.067083 1_556
