# generated using pymatgen
data_Lu3InC
_symmetry_space_group_name_H-M   'P 1'
_cell_length_a   4.75349159
_cell_length_b   4.75349159
_cell_length_c   4.75349159
_cell_angle_alpha   90.00000000
_cell_angle_beta   90.00000000
_cell_angle_gamma   90.00000000
_symmetry_Int_Tables_number   1
_chemical_formula_structural   Lu3InC
_chemical_formula_sum   'Lu3 In1 C1'
_cell_volume   107.40838577
_cell_formula_units_Z   1
loop_
 _symmetry_equiv_pos_site_id
 _symmetry_equiv_pos_as_xyz
  1  'x, y, z'
loop_
 _atom_site_type_symbol
 _atom_site_label
 _atom_site_symmetry_multiplicity
 _atom_site_fract_x
 _atom_site_fract_y
 _atom_site_fract_z
 _atom_site_occupancy
  Lu  Lu0  1  0.50000000  -0.00000000  -0.00000000  1
  Lu  Lu1  1  -0.00000000  0.50000000  -0.00000000  1
  Lu  Lu2  1  -0.00000000  0.00000000  0.50000000  1
  In  In0  1  0.50000000  0.50000000  0.50000000  1
  C  C0  1  0.00000000  0.00000000  0.00000000  1
loop_
_geom_bond_atom_site_label_1
_geom_bond_atom_site_label_2
_geom_bond_distance
_geom_bond_site_symmetry_2
In0 Lu2 3.361226 1_555
In0 Lu2 3.361226 1_565
In0 Lu0 3.361226 1_556
In0 Lu0 3.361226 1_555
In0 Lu2 3.361226 1_655
In0 Lu2 3.361226 1_665
In0 Lu0 3.361226 1_566
In0 Lu0 3.361226 1_565
In0 Lu1 3.361226 1_655
In0 Lu1 3.361226 1_556
In0 Lu1 3.361226 1_555
In0 Lu1 3.361226 1_656
C0 Lu0 2.376746 1_555
C0 Lu1 2.376746 1_555
C0 Lu1 2.376746 1_545
C0 Lu0 2.376746 1_455
C0 Lu2 2.376746 1_555
C0 Lu2 2.376746 1_554
