# generated using pymatgen
data_B10H14S
_symmetry_space_group_name_H-M   'P 1'
_cell_length_a   7.70666900
_cell_length_b   11.63604800
_cell_length_c   13.98580200
_cell_angle_alpha   90.00000000
_cell_angle_beta   90.00000000
_cell_angle_gamma   90.00000000
_symmetry_Int_Tables_number   1
_chemical_formula_structural   B10H14S
_chemical_formula_sum   'B40 H56 S4'
_cell_volume   1254.17917759
_cell_formula_units_Z   4
loop_
 _symmetry_equiv_pos_site_id
 _symmetry_equiv_pos_as_xyz
  1  'x, y, z'
loop_
 _atom_site_type_symbol
 _atom_site_label
 _atom_site_symmetry_multiplicity
 _atom_site_fract_x
 _atom_site_fract_y
 _atom_site_fract_z
 _atom_site_occupancy
  B  B0  1  0.24360800  0.60109900  0.64019300  1
  B  B1  1  0.25639200  0.39890100  0.14019300  1
  B  B2  1  0.74360800  0.89890100  0.35980700  1
  B  B3  1  0.75639200  0.10109900  0.85980700  1
  B  B4  1  0.01515300  0.58491800  0.65199300  1
  B  B5  1  0.48484700  0.41508200  0.15199300  1
  B  B6  1  0.51515300  0.91508200  0.34800700  1
  B  B7  1  0.98484700  0.08491800  0.84800700  1
  B  B8  1  0.12811300  0.51039800  0.55963900  1
  B  B9  1  0.37188700  0.48960200  0.05963900  1
  B  B10  1  0.62811300  0.98960200  0.44036100  1
  B  B11  1  0.87188700  0.01039800  0.94036100  1
  B  B12  1  0.34980100  0.48335200  0.58515800  1
  B  B13  1  0.15019900  0.51664800  0.08515800  1
  B  B14  1  0.84980100  0.01664800  0.41484200  1
  B  B15  1  0.65019900  0.98335200  0.91484200  1
  B  B16  1  0.15835300  0.57849000  0.75425700  1
  B  B17  1  0.34164700  0.42151000  0.25425700  1
  B  B18  1  0.65835300  0.92151000  0.24574300  1
  B  B19  1  0.84164700  0.07849000  0.74574300  1
  B  B20  1  0.96864500  0.49157500  0.74465500  1
  B  B21  1  0.53135500  0.50842500  0.24465500  1
  B  B22  1  0.46864500  0.00842500  0.25534500  1
  B  B23  1  0.03135500  0.99157500  0.75534500  1
  B  B24  1  0.97332200  0.43534800  0.62601900  1
  B  B25  1  0.52667800  0.56465200  0.12601900  1
  B  B26  1  0.47332200  0.06465200  0.37398100  1
  B  B27  1  0.02667800  0.93534800  0.87398100  1
  B  B28  1  0.19389400  0.36909800  0.58248500  1
  B  B29  1  0.30610600  0.63090200  0.08248500  1
  B  B30  1  0.69389400  0.13090200  0.41751500  1
  B  B31  1  0.80610600  0.86909800  0.91751500  1
  B  B32  1  0.37030700  0.36984100  0.66412000  1
  B  B33  1  0.12969300  0.63015900  0.16412000  1
  B  B34  1  0.87030700  0.13015900  0.33588000  1
  B  B35  1  0.62969300  0.86984100  0.83588000  1
  B  B36  1  0.37685400  0.51235600  0.71028500  1
  B  B37  1  0.12314600  0.48764400  0.21028500  1
  B  B38  1  0.87685400  0.98764400  0.28971500  1
  B  B39  1  0.62314600  0.01235600  0.78971500  1
  H  H0  1  0.29852400  0.69572000  0.62696600  1
  H  H1  1  0.20147600  0.30428000  0.12696600  1
  H  H2  1  0.79852400  0.80428000  0.37303400  1
  H  H3  1  0.70147600  0.19572000  0.87303400  1
  H  H4  1  0.94924500  0.75985000  0.55977100  1
  H  H5  1  0.55075500  0.24015000  0.05977100  1
  H  H6  1  0.44924500  0.74015000  0.44022900  1
  H  H7  1  0.05075500  0.25985000  0.94022900  1
  H  H8  1  0.08619800  0.52897900  0.47884000  1
  H  H9  1  0.41380200  0.47102100  0.97884000  1
  H  H10  1  0.58619800  0.97102100  0.52116000  1
  H  H11  1  0.91380200  0.02897900  0.02116000  1
  H  H12  1  0.45770800  0.50021000  0.52573100  1
  H  H13  1  0.04229200  0.49979000  0.02573100  1
  H  H14  1  0.95770800  0.99979000  0.47426900  1
  H  H15  1  0.54229200  0.00021000  0.97426900  1
  H  H16  1  0.16667200  0.64817500  0.81636300  1
  H  H17  1  0.33332800  0.35182500  0.31636300  1
  H  H18  1  0.66667200  0.85182500  0.18363700  1
  H  H19  1  0.83332800  0.14817500  0.68363700  1
  H  H20  1  0.84892400  0.49087300  0.79806700  1
  H  H21  1  0.65107600  0.50912700  0.29806700  1
  H  H22  1  0.34892400  0.00912700  0.20193300  1
  H  H23  1  0.15107600  0.99087300  0.70193300  1
  H  H24  1  0.84326200  0.39861400  0.59195700  1
  H  H25  1  0.65673800  0.60138600  0.09195700  1
  H  H26  1  0.34326200  0.10138600  0.40804300  1
  H  H27  1  0.15673800  0.89861400  0.90804300  1
  H  H28  1  0.18710800  0.29551400  0.52358100  1
  H  H29  1  0.31289200  0.70448600  0.02358100  1
  H  H30  1  0.68710800  0.20448600  0.47641900  1
  H  H31  1  0.81289200  0.79551400  0.97641900  1
  H  H32  1  0.48001600  0.29895300  0.67017700  1
  H  H33  1  0.01998400  0.70104700  0.17017700  1
  H  H34  1  0.98001600  0.20104700  0.32982300  1
  H  H35  1  0.51998400  0.79895300  0.82982300  1
  H  H36  1  0.50489100  0.54751300  0.74739200  1
  H  H37  1  0.99510900  0.45248700  0.24739200  1
  H  H38  1  0.00489100  0.95248700  0.25260800  1
  H  H39  1  0.49510900  0.04751300  0.75260800  1
  H  H40  1  0.11251800  0.48248600  0.79813400  1
  H  H41  1  0.38748200  0.51751400  0.29813400  1
  H  H42  1  0.61251800  0.01751400  0.20186600  1
  H  H43  1  0.88748200  0.98248600  0.70186600  1
  H  H44  1  0.98650900  0.38456300  0.71077400  1
  H  H45  1  0.51349100  0.61543700  0.21077400  1
  H  H46  1  0.48650900  0.11543700  0.28922600  1
  H  H47  1  0.01349100  0.88456300  0.78922600  1
  H  H48  1  0.21556600  0.31518000  0.66502400  1
  H  H49  1  0.28443400  0.68482000  0.16502400  1
  H  H50  1  0.71556600  0.18482000  0.33497600  1
  H  H51  1  0.78443400  0.81518000  0.83497600  1
  H  H52  1  0.34510000  0.41251300  0.75256200  1
  H  H53  1  0.15490000  0.58748700  0.25256200  1
  H  H54  1  0.84510000  0.08748700  0.24743800  1
  H  H55  1  0.65490000  0.91251300  0.74743800  1
  S  S0  1  0.85598500  0.70386300  0.62699500  1
  S  S1  1  0.64401500  0.29613700  0.12699500  1
  S  S2  1  0.35598500  0.79613700  0.37300500  1
  S  S3  1  0.14401500  0.20386300  0.87300500  1
loop_
_geom_bond_atom_site_label_1
_geom_bond_atom_site_label_2
_geom_bond_distance
_geom_bond_site_symmetry_2
B0 H0 1.193972 1_555
B0 B4 1.778340 1_555
B1 H1 1.193972 1_555
B1 B5 1.778340 1_555
B2 H2 1.193972 1_555
B2 B6 1.778340 1_555
B3 H3 1.193972 1_555
B3 B7 1.778340 1_555
B4 B8 1.782720 1_555
B4 S0 1.882155 1_455
B5 B9 1.782720 1_555
B5 S1 1.882155 1_555
B6 S2 1.882155 1_555
B7 S3 1.882155 1_655
B8 H8 1.195023 1_555
B9 H9 1.195023 1_554
B10 H10 1.195023 1_555
B10 B6 1.782720 1_555
B11 H11 1.195023 1_556
B11 B7 1.782720 1_555
B12 H12 1.191985 1_555
B13 H13 1.191985 1_555
B14 H14 1.191985 1_545
B15 H15 1.191985 1_565
B16 H16 1.189988 1_555
B16 H40 1.322602 1_555
B16 B4 1.808069 1_555
B17 H17 1.189988 1_555
B17 H41 1.322602 1_555
B17 B5 1.808069 1_555
B18 H18 1.189988 1_555
B18 H42 1.322602 1_565
B18 B6 1.808069 1_555
B19 H19 1.189988 1_555
B19 H43 1.322602 1_545
B19 B7 1.808069 1_555
B20 H20 1.187170 1_555
B20 H44 1.339405 1_555
B20 H40 1.341643 1_655
B20 B4 1.728487 1_655
B21 H21 1.187170 1_555
B21 H45 1.339405 1_555
B21 H41 1.341643 1_555
B21 B5 1.728487 1_555
B22 H22 1.187170 1_555
B22 H46 1.339405 1_555
B22 H42 1.341643 1_555
B22 B6 1.728487 1_545
B23 H23 1.187170 1_555
B23 H47 1.339405 1_555
B23 H43 1.341643 1_455
B23 B7 1.728487 1_465
B24 H24 1.189248 1_555
B24 H44 1.328393 1_555
B24 B4 1.806902 1_655
B25 H25 1.189248 1_555
B25 H45 1.328393 1_555
B25 B5 1.806902 1_555
B26 H26 1.189248 1_555
B26 H46 1.328393 1_555
B26 B6 1.806902 1_545
B27 H27 1.189248 1_555
B27 H47 1.328393 1_555
B27 B7 1.806902 1_465
B28 H28 1.189344 1_555
B28 H48 1.324423 1_555
B29 H29 1.189344 1_555
B29 H49 1.324423 1_555
B30 H30 1.189344 1_555
B30 H50 1.324423 1_555
B31 H31 1.189344 1_555
B31 H51 1.324423 1_555
B32 H32 1.184238 1_555
B32 H52 1.346954 1_555
B32 H48 1.351610 1_555
B33 H33 1.184238 1_555
B33 H53 1.346954 1_555
B33 H49 1.351610 1_555
B34 H34 1.184238 1_555
B34 H54 1.346954 1_555
B34 H50 1.351610 1_555
B35 H35 1.184238 1_555
B35 H55 1.346954 1_555
B35 H51 1.351610 1_555
B36 H36 1.187576 1_555
B36 H52 1.326357 1_555
B37 H37 1.187576 1_455
B37 H53 1.326357 1_555
B38 H38 1.187576 1_655
B38 H54 1.326357 1_565
B39 H39 1.187576 1_555
B39 H55 1.326357 1_545
H4 S0 1.350894 1_555
H5 S1 1.350894 1_555
H6 S2 1.350894 1_555
H7 S3 1.350894 1_555
