# generated using pymatgen
data_LaMgCrAgO6
_symmetry_space_group_name_H-M   'P 1'
_cell_length_a   5.51599710
_cell_length_b   5.64061043
_cell_length_c   7.82057962
_cell_angle_alpha   90.07098621
_cell_angle_beta   89.36809956
_cell_angle_gamma   90.10534879
_symmetry_Int_Tables_number   1
_chemical_formula_structural   LaMgCrAgO6
_chemical_formula_sum   'La2 Mg2 Cr2 Ag2 O12'
_cell_volume   243.31092376
_cell_formula_units_Z   2
loop_
 _symmetry_equiv_pos_site_id
 _symmetry_equiv_pos_as_xyz
  1  'x, y, z'
loop_
 _atom_site_type_symbol
 _atom_site_label
 _atom_site_symmetry_multiplicity
 _atom_site_fract_x
 _atom_site_fract_y
 _atom_site_fract_z
 _atom_site_occupancy
  La  La0  1  0.00250100  0.93957400  0.74942200  1
  La  La1  1  0.50309100  0.56036500  0.25034100  1
  Mg  Mg0  1  0.47491200  0.44752500  0.75892500  1
  Mg  Mg1  1  0.97492800  0.05279000  0.25883900  1
  Cr  Cr0  1  0.48878400  0.01342100  0.50450900  1
  Cr  Cr1  1  0.98874000  0.48639200  0.00422400  1
  Ag  Ag0  1  0.48719000  0.00216800  0.00096300  1
  Ag  Ag1  1  0.98629200  0.49682200  0.50097900  1
  O  O0  1  0.10747100  0.40785300  0.22812900  1
  O  O1  1  0.18060900  0.27059700  0.90789100  1
  O  O2  1  0.23452500  0.20877400  0.56455800  1
  O  O3  1  0.30995500  0.67536400  0.93909100  1
  O  O4  1  0.37649900  0.72574800  0.57122100  1
  O  O5  1  0.33896900  0.94830800  0.27328300  1
  O  O6  1  0.60794500  0.09190100  0.72992100  1
  O  O7  1  0.68075900  0.23126200  0.40840200  1
  O  O8  1  0.73228600  0.28995600  0.06383300  1
  O  O9  1  0.80892200  0.82634000  0.43861300  1
  O  O10  1  0.87745800  0.77324000  0.07176700  1
  O  O11  1  0.83815800  0.55159800  0.77509200  1
loop_
_geom_bond_atom_site_label_1
_geom_bond_atom_site_label_2
_geom_bond_distance
_geom_bond_site_symmetry_2
La0 O6 2.347897 1_465
La0 O11 2.375087 1_455
La0 O2 2.447724 1_565
La0 O1 2.449860 1_565
La0 O3 2.714340 1_555
La0 O9 2.739951 1_455
La0 O4 2.755783 1_555
La0 O10 2.770594 1_456
La1 O0 2.352335 1_555
La1 O5 2.375470 1_555
La1 O7 2.444084 1_555
La1 O8 2.452178 1_555
La1 O9 2.702700 1_555
La1 O3 2.746721 1_554
La1 O10 2.754601 1_555
La1 O4 2.759202 1_555
Mg0 O11 2.091971 1_555
Mg0 O3 2.106266 1_555
Mg0 O6 2.148097 1_555
Mg0 O4 2.222350 1_555
Mg0 O1 2.223454 1_555
Mg0 O2 2.432123 1_555
Mg1 O5 2.098062 1_645
Mg1 O9 2.102007 1_545
Mg1 O0 2.143649 1_655
Mg1 O10 2.219095 1_545
Mg1 O7 2.230633 1_555
Mg1 O8 2.442012 1_555
Cr0 O7 1.782148 1_555
Cr0 O4 1.811100 1_545
Cr0 O2 1.841631 1_555
Cr0 O6 1.938607 1_555
Cr0 O5 2.029291 1_545
Cr0 O9 2.117286 1_545
Cr1 O1 1.776000 1_654
Cr1 O10 1.807792 1_555
Cr1 O8 1.851240 1_555
Cr1 O0 1.928651 1_655
Cr1 O11 2.017881 1_554
Cr1 O3 2.123556 1_654
Ag0 O3 2.142315 1_544
Ag0 O8 2.170076 1_555
Ag0 O6 2.272286 1_554
Ag0 O5 2.293175 1_545
Ag0 O1 2.391951 1_554
Ag0 O10 2.578087 1_545
Ag1 O9 2.160847 1_555
Ag1 O2 2.187956 1_655
Ag1 O0 2.284523 1_655
Ag1 O11 2.306366 1_555
Ag1 O7 2.371327 1_555
Ag1 O4 2.572163 1_655
