# generated using pymatgen
data_Mg7Si4
_symmetry_space_group_name_H-M   'P 1'
_cell_length_a   6.04525524
_cell_length_b   5.14427357
_cell_length_c   14.60137564
_cell_angle_alpha   94.56387196
_cell_angle_beta   102.04604202
_cell_angle_gamma   80.49993434
_symmetry_Int_Tables_number   1
_chemical_formula_structural   Mg7Si4
_chemical_formula_sum   'Mg14 Si8'
_cell_volume   437.51140062
_cell_formula_units_Z   2
loop_
 _symmetry_equiv_pos_site_id
 _symmetry_equiv_pos_as_xyz
  1  'x, y, z'
loop_
 _atom_site_type_symbol
 _atom_site_label
 _atom_site_symmetry_multiplicity
 _atom_site_fract_x
 _atom_site_fract_y
 _atom_site_fract_z
 _atom_site_occupancy
  Mg  Mg0  1  0.21966900  0.50795400  0.89113200  1
  Mg  Mg1  1  0.69465800  0.17277500  0.64808800  1
  Mg  Mg2  1  0.96536000  0.74246800  0.51102400  1
  Mg  Mg3  1  0.93158300  0.62409300  0.70510400  1
  Mg  Mg4  1  0.72060200  0.43632200  0.88029300  1
  Mg  Mg5  1  0.05691900  0.73359400  0.30202600  1
  Mg  Mg6  1  0.56039200  0.77444300  0.32330100  1
  Mg  Mg7  1  0.46927400  0.72163400  0.54211700  1
  Mg  Mg8  1  0.45518200  0.97288000  0.95509800  1
  Mg  Mg9  1  0.96337000  0.96625900  0.99167600  1
  Mg  Mg10  1  0.60042600  0.44827500  0.08391900  1
  Mg  Mg11  1  0.10693500  0.48318300  0.10477100  1
  Mg  Mg12  1  0.23086200  0.23063800  0.42266700  1
  Mg  Mg13  1  0.73138600  0.26567800  0.44322500  1
  Si  Si0  1  0.75824900  0.92715700  0.13823100  1
  Si  Si1  1  0.03334900  0.04896700  0.81706400  1
  Si  Si2  1  0.43074700  0.60694300  0.72372800  1
  Si  Si3  1  0.40119100  0.29388700  0.26783200  1
  Si  Si4  1  0.34783600  0.93677400  0.13793800  1
  Si  Si5  1  0.37007100  0.09897700  0.75314100  1
  Si  Si6  1  0.13070900  0.22406800  0.59476900  1
  Si  Si7  1  0.82122800  0.28304200  0.26649700  1
loop_
_geom_bond_atom_site_label_1
_geom_bond_atom_site_label_2
_geom_bond_distance
_geom_bond_site_symmetry_2
Mg0 Si1 2.824255 1_555
Mg0 Mg3 2.950991 1_455
Mg0 Si5 2.961635 1_555
Mg0 Mg8 2.972058 1_555
Mg0 Mg8 3.006070 1_545
Mg0 Si1 3.019905 1_565
Mg0 Mg4 3.025500 1_555
Mg0 Mg9 3.050763 1_455
Mg0 Mg4 3.069439 1_455
Mg0 Si2 3.094628 1_555
Mg0 Mg10 3.242867 1_556
Mg0 Mg11 3.345259 1_556
Mg1 Si2 2.814291 1_555
Mg1 Si5 2.818188 1_555
Mg1 Si1 2.897643 1_655
Mg1 Si6 2.956912 1_655
Mg2 Si6 2.908174 1_665
Mg2 Si6 2.955503 1_655
Mg3 Si1 2.698805 1_665
Mg3 Si6 2.782693 1_655
Mg3 Si2 2.959884 1_655
Mg3 Si2 3.111951 1_555
Mg4 Si2 2.684494 1_555
Mg4 Si1 2.754947 1_655
Mg4 Si5 3.163533 1_555
Mg5 Si0 2.820372 1_455
Mg5 Si7 2.874278 1_455
Mg5 Si3 2.897802 1_555
Mg5 Si7 2.980575 1_465
Mg6 Si3 2.799093 1_555
Mg6 Si3 2.809415 1_565
Mg6 Si4 2.868407 1_555
Mg6 Si7 2.908782 1_555
Mg7 Si2 2.826016 1_555
Mg7 Si6 3.170937 1_565
Mg8 Si1 2.892944 1_565
Mg8 Si4 2.902554 1_556
Mg8 Si0 2.911222 1_556
Mg8 Si5 2.990348 1_565
Mg9 Si0 2.723173 1_556
Mg9 Si1 2.746373 1_665
Mg9 Si4 2.801639 1_656
Mg10 Si0 2.785165 1_555
Mg10 Si0 2.811396 1_545
Mg10 Si7 2.848156 1_555
Mg10 Si4 2.861715 1_555
Mg11 Si3 2.794765 1_555
Mg11 Si4 2.906478 1_555
Mg11 Si0 2.925973 1_455
Mg11 Si4 2.971094 1_545
Mg12 Si6 2.708842 1_555
Mg12 Si3 2.734348 1_555
Mg12 Si7 2.987510 1_455
Mg13 Si7 2.756713 1_555
Mg13 Si3 2.897229 1_555
Mg13 Si6 2.905989 1_655
Si0 Si4 2.472482 1_555
Si0 Si7 2.528058 1_565
Si1 Si5 2.466779 1_555
Si2 Si5 2.512375 1_565
Si2 Si5 2.776348 1_555
Si3 Si7 2.534741 1_555
Si3 Si4 2.542026 1_545
Si5 Si6 2.527474 1_555
