# generated using pymatgen
data_Cr2O3
_symmetry_space_group_name_H-M   'P 1'
_cell_length_a   10.19248526
_cell_length_b   8.70885076
_cell_length_c   10.35139201
_cell_angle_alpha   90.51102048
_cell_angle_beta   89.27450208
_cell_angle_gamma   87.96596468
_symmetry_Int_Tables_number   1
_chemical_formula_structural   Cr2O3
_chemical_formula_sum   'Cr32 O48'
_cell_volume   918.14667722
_cell_formula_units_Z   16
loop_
 _symmetry_equiv_pos_site_id
 _symmetry_equiv_pos_as_xyz
  1  'x, y, z'
loop_
 _atom_site_type_symbol
 _atom_site_label
 _atom_site_symmetry_multiplicity
 _atom_site_fract_x
 _atom_site_fract_y
 _atom_site_fract_z
 _atom_site_occupancy
  Cr  Cr0  1  0.65448400  0.70209700  0.66749200  1
  Cr  Cr1  1  0.81289200  0.43090400  0.37906500  1
  Cr  Cr2  1  0.98443700  0.15543900  0.86294400  1
  Cr  Cr3  1  0.31591500  0.16217900  0.37517700  1
  Cr  Cr4  1  0.59404800  0.49342600  0.19042200  1
  Cr  Cr5  1  0.82737600  0.98489200  0.13230000  1
  Cr  Cr6  1  0.23743900  0.77259000  0.73275300  1
  Cr  Cr7  1  0.02366800  0.46652700  0.58896600  1
  Cr  Cr8  1  0.40638400  0.61353400  0.45254100  1
  Cr  Cr9  1  0.54578500  0.83799700  0.91583600  1
  Cr  Cr10  1  0.75766100  0.49505800  0.85705000  1
  Cr  Cr11  1  0.10518600  0.31349300  0.14993400  1
  Cr  Cr12  1  0.67876200  0.81978300  0.33332000  1
  Cr  Cr13  1  0.83875700  0.64603000  0.11123800  1
  Cr  Cr14  1  0.96961300  0.79521300  0.82452500  1
  Cr  Cr15  1  0.74050500  0.31034200  0.64253000  1
  Cr  Cr16  1  0.47718700  0.06133600  0.66709600  1
  Cr  Cr17  1  0.07837000  0.48233500  0.87488700  1
  Cr  Cr18  1  0.82616300  0.95587100  0.60612900  1
  Cr  Cr19  1  0.30709800  0.63583100  0.98123100  1
  Cr  Cr20  1  0.37376600  0.85783100  0.23578000  1
  Cr  Cr21  1  0.13135500  0.81270800  0.45673900  1
  Cr  Cr22  1  0.09619300  0.92692200  0.04890500  1
  Cr  Cr23  1  0.84119900  0.30674700  0.11003700  1
  Cr  Cr24  1  0.66068300  0.17091700  0.87112400  1
  Cr  Cr25  1  0.41874600  0.45790200  0.75120500  1
  Cr  Cr26  1  0.07882100  0.61225000  0.26262200  1
  Cr  Cr27  1  0.20672200  0.14334500  0.73533900  1
  Cr  Cr28  1  0.35041500  0.07606300  0.04902900  1
  Cr  Cr29  1  0.32233200  0.44738100  0.21023800  1
  Cr  Cr30  1  0.98242100  0.10016000  0.38544800  1
  Cr  Cr31  1  0.59921100  0.18813900  0.35697000  1
  O  O0  1  0.26846600  0.45575500  0.87161600  1
  O  O1  1  0.30674700  0.96778100  0.68610100  1
  O  O2  1  0.91244300  0.61269500  0.92546300  1
  O  O3  1  0.92792900  0.96268900  0.96166800  1
  O  O4  1  0.72838200  0.47846100  0.04695700  1
  O  O5  1  0.75079900  0.02828200  0.31824300  1
  O  O6  1  0.15120500  0.77274200  0.91930700  1
  O  O7  1  0.70806500  0.82123700  0.10637300  1
  O  O8  1  0.00971000  0.99852200  0.72402100  1
  O  O9  1  0.17897500  0.08443900  0.92147500  1
  O  O10  1  0.73319300  0.61107200  0.28362300  1
  O  O11  1  0.16862900  0.04747500  0.42661600  1
  O  O12  1  0.71129600  0.32213800  0.24985400  1
  O  O13  1  0.97148300  0.14661500  0.19322800  1
  O  O14  1  0.25534800  0.69583100  0.31201800  1
  O  O15  1  0.07974700  0.63063800  0.72324700  1
  O  O16  1  0.40188400  0.83702400  0.04695400  1
  O  O17  1  0.96437800  0.91779200  0.48158100  1
  O  O18  1  0.50282900  0.74819600  0.33838600  1
  O  O19  1  0.60024200  0.36402000  0.78491300  1
  O  O20  1  0.92308500  0.28824800  0.48549500  1
  O  O21  1  0.73251900  0.14656400  0.04301200  1
  O  O22  1  0.19416400  0.34157200  0.32253200  1
  O  O23  1  0.82383500  0.27233600  0.81928100  1
  O  O24  1  0.70316800  0.82233800  0.51373700  1
  O  O25  1  0.46517100  0.42324400  0.33193700  1
  O  O26  1  0.80765500  0.81343500  0.73477500  1
  O  O27  1  0.27109600  0.71265200  0.55632300  1
  O  O28  1  0.00044700  0.32148200  0.99358400  1
  O  O29  1  0.51140400  0.57103100  0.60465000  1
  O  O30  1  0.46920900  0.10193700  0.47705700  1
  O  O31  1  0.67885600  0.10286400  0.68023200  1
  O  O32  1  0.63635700  0.66023200  0.85593600  1
  O  O33  1  0.22512900  0.98046600  0.16934100  1
  O  O34  1  0.44660500  0.07452300  0.23538500  1
  O  O35  1  0.17022500  0.53547600  0.10687000  1
  O  O36  1  0.38764600  0.68258700  0.81779200  1
  O  O37  1  0.49768700  0.06683500  0.90776300  1
  O  O38  1  0.98197500  0.79064100  0.17337800  1
  O  O39  1  0.28828900  0.27615300  0.09697900  1
  O  O40  1  0.94248100  0.46243200  0.21752600  1
  O  O41  1  0.02877300  0.62182400  0.44230900  1
  O  O42  1  0.44527300  0.53504400  0.08887900  1
  O  O43  1  0.66921200  0.33880600  0.47758800  1
  O  O44  1  0.54915200  0.86634700  0.72333400  1
  O  O45  1  0.79016900  0.52266700  0.66453800  1
  O  O46  1  0.06930400  0.31604300  0.74526200  1
  O  O47  1  0.36021000  0.25466500  0.68627700  1
loop_
_geom_bond_atom_site_label_1
_geom_bond_atom_site_label_2
_geom_bond_distance
_geom_bond_site_symmetry_2
Cr0 O44 1.842115 1_555
Cr0 O24 1.980532 1_555
Cr0 O32 1.995112 1_555
Cr0 O29 1.995426 1_555
Cr0 O26 1.996377 1_555
Cr0 O45 2.049394 1_555
Cr1 O12 1.959739 1_555
Cr1 O43 1.971849 1_555
Cr1 O20 1.993832 1_555
Cr1 O10 2.013796 1_555
Cr1 O40 2.143383 1_555
Cr2 O23 1.956753 1_555
Cr2 O8 1.983031 1_645
Cr2 O28 1.983396 1_655
Cr2 O46 2.068349 1_655
Cr2 O3 2.068380 1_545
Cr2 O9 2.151996 1_655
Cr3 O11 1.905448 1_555
Cr3 O30 1.955013 1_555
Cr3 O22 2.042647 1_555
Cr3 O34 2.076140 1_555
Cr4 O42 1.882492 1_555
Cr4 O12 1.985017 1_555
Cr4 O4 2.007358 1_555
Cr4 O10 2.027817 1_555
Cr4 O25 2.066193 1_555
Cr5 O7 1.925272 1_555
Cr5 O21 1.928890 1_565
Cr5 O3 2.035072 1_554
Cr5 O5 2.093984 1_565
Cr5 O13 2.166399 1_565
Cr5 O38 2.316510 1_555
Cr6 O27 1.918315 1_555
Cr6 O36 1.922086 1_555
Cr6 O1 1.926942 1_555
Cr6 O15 2.064989 1_555
Cr6 O6 2.111527 1_555
Cr7 O41 2.043553 1_555
Cr7 O15 2.084259 1_555
Cr7 O46 2.136592 1_555
Cr7 O20 2.172538 1_455
Cr7 O45 2.525572 1_455
Cr8 O27 1.913659 1_555
Cr8 O29 1.946003 1_555
Cr8 O18 1.953236 1_555
Cr8 O25 2.130158 1_555
Cr8 O14 2.235262 1_555
Cr9 O32 1.870911 1_555
Cr9 O16 1.985981 1_556
Cr9 O44 2.010097 1_555
Cr9 O37 2.038059 1_565
Cr9 O36 2.373097 1_555
Cr9 O7 2.591874 1_556
Cr10 O32 1.863440 1_555
Cr10 O4 1.991884 1_556
Cr10 O45 2.033765 1_555
Cr10 O2 2.042062 1_555
Cr10 O23 2.063238 1_555
Cr10 O19 2.139956 1_555
Cr11 O28 1.950473 1_554
Cr11 O39 1.953724 1_555
Cr11 O22 2.030592 1_555
Cr11 O13 2.075293 1_455
Cr11 O35 2.115266 1_555
Cr11 O40 2.173452 1_455
Cr12 O24 1.887220 1_555
Cr12 O18 1.919514 1_555
Cr12 O10 1.944410 1_555
Cr12 O5 1.989305 1_565
Cr12 O7 2.364576 1_555
Cr13 O4 1.989020 1_555
Cr13 O7 1.990973 1_555
Cr13 O38 2.066524 1_555
Cr13 O2 2.069874 1_554
Cr13 O10 2.102111 1_555
Cr13 O40 2.196724 1_555
Cr14 O26 1.906871 1_555
Cr14 O2 2.009425 1_555
Cr14 O3 2.055949 1_555
Cr14 O15 2.059754 1_655
Cr14 O6 2.109582 1_655
Cr14 O8 2.111352 1_655
Cr15 O43 1.879042 1_555
Cr15 O45 1.946582 1_555
Cr15 O31 1.974582 1_555
Cr15 O23 2.051496 1_555
Cr15 O19 2.078833 1_555
Cr15 O20 2.456600 1_555
Cr16 O44 1.923691 1_545
Cr16 O1 1.953227 1_545
Cr16 O30 2.003947 1_555
Cr16 O47 2.035010 1_555
Cr16 O31 2.105558 1_555
Cr16 O37 2.502795 1_555
Cr17 O0 1.942986 1_555
Cr17 O46 1.970852 1_555
Cr17 O15 2.041837 1_555
Cr17 O28 2.046408 1_555
Cr17 O2 2.062481 1_455
Cr18 O26 1.840478 1_555
Cr18 O17 1.915707 1_555
Cr18 O24 1.988125 1_555
Cr18 O31 2.073237 1_565
Cr18 O8 2.286081 1_655
Cr19 O36 1.924298 1_555
Cr19 O0 1.981249 1_555
Cr19 O42 1.991227 1_556
Cr19 O6 2.064512 1_555
Cr19 O35 2.112428 1_556
Cr19 O16 2.140516 1_556
Cr20 O18 1.932486 1_555
Cr20 O33 1.957913 1_555
Cr20 O16 1.977698 1_555
Cr20 O14 2.046129 1_555
Cr20 O34 2.052315 1_565
Cr21 O17 1.916847 1_455
Cr21 O27 1.953372 1_555
Cr21 O41 2.000484 1_555
Cr21 O11 2.117844 1_565
Cr21 O14 2.170476 1_555
Cr22 O33 1.890328 1_555
Cr22 O6 1.952529 1_554
Cr22 O3 1.964718 1_454
Cr22 O9 2.102369 1_564
Cr22 O38 2.124011 1_455
Cr23 O21 1.940708 1_555
Cr23 O12 1.949648 1_555
Cr23 O4 1.974660 1_555
Cr23 O28 2.017953 1_654
Cr23 O40 2.059980 1_555
Cr23 O13 2.090136 1_555
Cr24 O21 1.943094 1_556
Cr24 O37 1.955140 1_555
Cr24 O23 1.980794 1_555
Cr24 O19 1.992781 1_555
Cr24 O31 2.062080 1_555
Cr25 O0 1.963213 1_555
Cr25 O47 2.001083 1_555
Cr25 O19 2.031356 1_555
Cr25 O29 2.054373 1_555
Cr25 O36 2.081061 1_555
Cr26 O41 1.922757 1_555
Cr26 O35 1.952653 1_555
Cr26 O40 1.996407 1_455
Cr26 O14 2.034256 1_555
Cr26 O38 2.044803 1_455
Cr27 O1 1.870607 1_545
Cr27 O47 1.934306 1_555
Cr27 O9 2.017354 1_555
Cr27 O46 2.019505 1_555
Cr27 O8 2.412425 1_545
Cr28 O39 1.892646 1_555
Cr28 O33 1.982042 1_545
Cr28 O37 2.081283 1_554
Cr28 O16 2.128559 1_545
Cr28 O34 2.174863 1_555
Cr28 O9 2.202993 1_554
Cr29 O39 1.932463 1_555
Cr29 O42 1.943276 1_555
Cr29 O25 1.944276 1_555
Cr29 O22 1.993224 1_555
Cr29 O35 2.027143 1_555
Cr29 O14 2.468611 1_555
Cr30 O17 1.894937 1_545
Cr30 O11 1.989066 1_655
Cr30 O20 2.001245 1_555
Cr30 O13 2.037637 1_555
Cr30 O5 2.566694 1_555
Cr31 O43 1.962006 1_555
Cr31 O30 1.977394 1_555
Cr31 O12 1.995507 1_555
Cr31 O5 2.075504 1_555
Cr31 O34 2.262529 1_555
Cr31 O25 2.438390 1_555
