# generated using pymatgen
data_Li9Mn2Co5O16
_symmetry_space_group_name_H-M   'P 1'
_cell_length_a   3.01764500
_cell_length_b   9.90817080
_cell_length_c   9.98292398
_cell_angle_alpha   77.92486693
_cell_angle_beta   87.10108311
_cell_angle_gamma   87.01962187
_symmetry_Int_Tables_number   1
_chemical_formula_structural   Li9Mn2Co5O16
_chemical_formula_sum   'Li9 Mn2 Co5 O16'
_cell_volume   291.24293621
_cell_formula_units_Z   1
loop_
 _symmetry_equiv_pos_site_id
 _symmetry_equiv_pos_as_xyz
  1  'x, y, z'
loop_
 _atom_site_type_symbol
 _atom_site_label
 _atom_site_symmetry_multiplicity
 _atom_site_fract_x
 _atom_site_fract_y
 _atom_site_fract_z
 _atom_site_occupancy
  Li  Li0  1  0.00461400  0.25675800  0.12421400  1
  Li  Li1  1  0.49377800  0.74352000  0.13012900  1
  Li  Li2  1  0.49692400  0.25455900  0.37272000  1
  Li  Li3  1  0.99291000  0.74984300  0.37340400  1
  Li  Li4  1  0.00709000  0.25015700  0.62659600  1
  Li  Li5  1  0.50307600  0.74544100  0.62728000  1
  Li  Li6  1  0.50622200  0.25648000  0.86987100  1
  Li  Li7  1  0.99538600  0.74324200  0.87578600  1
  Li  Li8  1  0.50000000  0.50000000  0.00000000  1
  Mn  Mn0  1  0.00000000  0.00000000  0.00000000  1
  Mn  Mn1  1  0.00000000  0.00000000  0.50000000  1
  Co  Co0  1  0.50031800  0.00127400  0.24979600  1
  Co  Co1  1  0.00110000  0.49858400  0.24155700  1
  Co  Co2  1  0.50000000  0.50000000  0.50000000  1
  Co  Co3  1  0.49968200  0.99872600  0.75020400  1
  Co  Co4  1  0.99890000  0.50141600  0.75844300  1
  O  O0  1  0.52932200  0.11704100  0.06797500  1
  O  O1  1  0.00544700  0.61604600  0.08414700  1
  O  O2  1  0.03067200  0.11386300  0.31508200  1
  O  O3  1  0.53034900  0.61435500  0.32099000  1
  O  O4  1  0.53034800  0.11596500  0.56884500  1
  O  O5  1  0.99116900  0.61044000  0.57372100  1
  O  O6  1  0.03203200  0.11253000  0.81483400  1
  O  O7  1  0.51528600  0.61444600  0.80801300  1
  O  O8  1  0.48471400  0.38555400  0.19198700  1
  O  O9  1  0.96796800  0.88747000  0.18516600  1
  O  O10  1  0.00883100  0.38956000  0.42627900  1
  O  O11  1  0.46965200  0.88403500  0.43115500  1
  O  O12  1  0.46965100  0.38564500  0.67901000  1
  O  O13  1  0.96932800  0.88613700  0.68491800  1
  O  O14  1  0.99455300  0.38395400  0.91585300  1
  O  O15  1  0.47067800  0.88295900  0.93202500  1
loop_
_geom_bond_atom_site_label_1
_geom_bond_atom_site_label_2
_geom_bond_distance
_geom_bond_site_symmetry_2
Li0 O2 2.125148 1_555
Li0 O8 2.143200 1_455
Li0 O0 2.178537 1_555
Li0 O14 2.195784 1_454
Li0 O8 2.199509 1_555
Li0 O0 2.214001 1_455
Li1 O1 2.039142 1_655
Li1 O3 2.065615 1_555
Li1 O1 2.117081 1_555
Li1 O15 2.164609 1_554
Li1 O9 2.204120 1_455
Li1 O9 2.236818 1_555
Li2 O8 1.990788 1_555
Li2 O10 2.063781 1_555
Li2 O4 2.147079 1_555
Li2 O2 2.208048 1_555
Li2 O2 2.208400 1_655
Li2 O10 2.249219 1_655
Li3 O9 2.080370 1_555
Li3 O3 2.141711 1_555
Li3 O11 2.145644 1_555
Li3 O3 2.165136 1_655
Li3 O5 2.179650 1_555
Li3 O11 2.184812 1_655
Li4 O6 2.080370 1_555
Li4 O12 2.141711 1_555
Li4 O4 2.145644 1_555
Li4 O12 2.165136 1_455
Li4 O10 2.179650 1_555
Li4 O4 2.184812 1_455
Li5 O7 1.990788 1_555
Li5 O5 2.063781 1_555
Li5 O11 2.147079 1_555
Li5 O13 2.208048 1_555
Li5 O13 2.208400 1_455
Li5 O5 2.249219 1_455
Li6 O14 2.039142 1_455
Li6 O12 2.065615 1_555
Li6 O14 2.117081 1_555
Li6 O0 2.164609 1_556
Li6 O6 2.204120 1_655
Li6 O6 2.236818 1_555
Li7 O13 2.125148 1_555
Li7 O7 2.143200 1_655
Li7 O15 2.178537 1_555
Li7 O1 2.195784 1_656
Li7 O7 2.199509 1_555
Li7 O15 2.214001 1_655
Li8 O7 2.012089 1_554
Li8 O8 2.012089 1_555
Li8 O1 2.086573 1_555
Li8 O14 2.086573 1_554
Li8 O1 2.251710 1_655
Li8 O14 2.251710 1_454
Mn0 O9 1.949428 1_445
Mn0 O6 1.949428 1_554
Mn0 O0 1.970568 1_455
Mn0 O15 1.970568 1_544
Mn0 O0 2.233425 1_555
Mn0 O15 2.233425 1_444
Mn1 O13 1.952273 1_445
Mn1 O2 1.952273 1_555
Mn1 O4 1.965620 1_455
Mn1 O11 1.965620 1_545
Mn1 O4 2.233093 1_555
Mn1 O11 2.233093 1_445
Co0 O2 1.929796 1_555
Co0 O9 1.930296 1_545
Co0 O0 1.934232 1_555
Co0 O11 1.936526 1_545
Co0 O2 2.196798 1_655
Co0 O9 2.205897 1_445
Co1 O1 1.748812 1_555
Co1 O8 1.902037 1_555
Co1 O10 1.932954 1_555
Co1 O3 2.014886 1_455
Co1 O8 2.102058 1_455
Co1 O3 2.279134 1_555
Co2 O3 1.905988 1_555
Co2 O12 1.905988 1_555
Co2 O5 2.035832 1_455
Co2 O10 2.035832 1_655
Co2 O5 2.133492 1_555
Co2 O10 2.133492 1_555
Co3 O13 1.929796 1_555
Co3 O6 1.930296 1_565
Co3 O15 1.934232 1_555
Co3 O4 1.936526 1_565
Co3 O13 2.196798 1_455
Co3 O6 2.205897 1_665
Co4 O14 1.748812 1_555
Co4 O7 1.902037 1_555
Co4 O5 1.932954 1_555
Co4 O12 2.014886 1_655
Co4 O7 2.102058 1_655
Co4 O12 2.279134 1_555
