# generated using pymatgen
data_Mn3Pb8N9
_symmetry_space_group_name_H-M   'P 1'
_cell_length_a   7.65201321
_cell_length_b   11.57834250
_cell_length_c   18.64363826
_cell_angle_alpha   90.00000000
_cell_angle_beta   104.51260425
_cell_angle_gamma   90.00000000
_symmetry_Int_Tables_number   1
_chemical_formula_structural   Mn3Pb8N9
_chemical_formula_sum   'Mn12 Pb32 N36'
_cell_volume   1599.07798071
_cell_formula_units_Z   4
loop_
 _symmetry_equiv_pos_site_id
 _symmetry_equiv_pos_as_xyz
  1  'x, y, z'
loop_
 _atom_site_type_symbol
 _atom_site_label
 _atom_site_symmetry_multiplicity
 _atom_site_fract_x
 _atom_site_fract_y
 _atom_site_fract_z
 _atom_site_occupancy
  Mn  Mn0  1  0.63856116  0.10908531  0.75965145  1
  Mn  Mn1  1  0.36143884  0.60908531  0.74034855  1
  Mn  Mn2  1  0.36143884  0.89091469  0.24034855  1
  Mn  Mn3  1  0.63856116  0.39091469  0.25965145  1
  Mn  Mn4  1  0.82317213  0.86648852  0.57130642  1
  Mn  Mn5  1  0.17682787  0.36648852  0.92869358  1
  Mn  Mn6  1  0.17682787  0.13351148  0.42869358  1
  Mn  Mn7  1  0.82317213  0.63351148  0.07130642  1
  Mn  Mn8  1  0.77059656  0.31429752  0.56206765  1
  Mn  Mn9  1  0.22940344  0.81429752  0.93793235  1
  Mn  Mn10  1  0.22940344  0.68570248  0.43793235  1
  Mn  Mn11  1  0.77059656  0.18570248  0.06206765  1
  Pb  Pb0  1  0.48961218  0.94082712  0.10595616  1
  Pb  Pb1  1  0.51038782  0.44082712  0.39404384  1
  Pb  Pb2  1  0.51038782  0.05917288  0.89404384  1
  Pb  Pb3  1  0.48961218  0.55917288  0.60595616  1
  Pb  Pb4  1  0.51066555  0.11646890  0.58733629  1
  Pb  Pb5  1  0.48933445  0.61646890  0.91266371  1
  Pb  Pb6  1  0.48933445  0.88353110  0.41266371  1
  Pb  Pb7  1  0.51066555  0.38353110  0.08733629  1
  Pb  Pb8  1  0.70825053  0.82499043  0.72642522  1
  Pb  Pb9  1  0.29174947  0.32499043  0.77357478  1
  Pb  Pb10  1  0.29174947  0.17500957  0.27357478  1
  Pb  Pb11  1  0.70825053  0.67500957  0.22642522  1
  Pb  Pb12  1  0.76052036  0.34630046  0.72457922  1
  Pb  Pb13  1  0.23947964  0.84630046  0.77542078  1
  Pb  Pb14  1  0.23947964  0.65369954  0.27542078  1
  Pb  Pb15  1  0.76052036  0.15369954  0.22457922  1
  Pb  Pb16  1  0.74132481  0.33732357  0.91621115  1
  Pb  Pb17  1  0.25867519  0.83732357  0.58378885  1
  Pb  Pb18  1  0.25867519  0.66267643  0.08378885  1
  Pb  Pb19  1  0.74132481  0.16267643  0.41621115  1
  Pb  Pb20  1  0.00855956  0.08814733  0.83131130  1
  Pb  Pb21  1  0.99144044  0.58814733  0.66868870  1
  Pb  Pb22  1  0.99144044  0.91185267  0.16868870  1
  Pb  Pb23  1  0.00855956  0.41185267  0.33131130  1
  Pb  Pb24  1  0.99352200  0.09139536  0.62617468  1
  Pb  Pb25  1  0.00647800  0.59139536  0.87382532  1
  Pb  Pb26  1  0.00647800  0.90860464  0.37382532  1
  Pb  Pb27  1  0.99352200  0.40860464  0.12617468  1
  Pb  Pb28  1  0.12425343  0.35599452  0.52865359  1
  Pb  Pb29  1  0.87574657  0.85599452  0.97134641  1
  Pb  Pb30  1  0.87574657  0.64400548  0.47134641  1
  Pb  Pb31  1  0.12425343  0.14400548  0.02865359  1
  N  N0  1  0.58209848  0.33635071  0.59423210  1
  N  N1  1  0.41790152  0.83635071  0.90576790  1
  N  N2  1  0.41790152  0.66364929  0.40576790  1
  N  N3  1  0.58209848  0.16364929  0.09423210  1
  N  N4  1  0.57314663  0.22931087  0.80460552  1
  N  N5  1  0.42685337  0.72931087  0.69539448  1
  N  N6  1  0.42685337  0.77068913  0.19539448  1
  N  N7  1  0.57314663  0.27068913  0.30460552  1
  N  N8  1  0.77874858  0.15099319  0.97118267  1
  N  N9  1  0.22125142  0.65099319  0.52881733  1
  N  N10  1  0.22125142  0.84900681  0.02881733  1
  N  N11  1  0.77874858  0.34900681  0.47118267  1
  N  N12  1  0.62971112  0.89011453  0.59514043  1
  N  N13  1  0.37028888  0.39011453  0.90485957  1
  N  N14  1  0.37028888  0.10988547  0.40485957  1
  N  N15  1  0.62971112  0.60988547  0.09514043  1
  N  N16  1  0.80962293  0.13220916  0.71267962  1
  N  N17  1  0.19037707  0.63220916  0.78732038  1
  N  N18  1  0.19037707  0.86779084  0.28732038  1
  N  N19  1  0.80962293  0.36779084  0.21267962  1
  N  N20  1  0.97265636  0.33287637  0.62438048  1
  N  N21  1  0.02734364  0.83287637  0.87561952  1
  N  N22  1  0.02734364  0.66712363  0.37561952  1
  N  N23  1  0.97265636  0.16712363  0.12438048  1
  N  N24  1  0.02179740  0.28658588  0.86857305  1
  N  N25  1  0.97820260  0.78658588  0.63142695  1
  N  N26  1  0.97820260  0.71341412  0.13142695  1
  N  N27  1  0.02179740  0.21341412  0.36857305  1
  N  N28  1  0.18657027  0.15803729  0.52056455  1
  N  N29  1  0.81342973  0.65803729  0.97943545  1
  N  N30  1  0.81342973  0.84196271  0.47943545  1
  N  N31  1  0.18657027  0.34196271  0.02056455  1
  N  N32  1  0.55486658  0.97922572  0.77589257  1
  N  N33  1  0.44513342  0.47922572  0.72410743  1
  N  N34  1  0.44513342  0.02077428  0.22410743  1
  N  N35  1  0.55486658  0.52077428  0.27589257  1
loop_
_geom_bond_atom_site_label_1
_geom_bond_atom_site_label_2
_geom_bond_distance
_geom_bond_site_symmetry_2
Mn0 N32 1.691069 1_545
Mn0 N4 1.760947 1_555
Mn0 N16 1.768186 1_555
Mn0 Pb4 3.116091 1_555
Mn1 N33 1.691069 1_555
Mn1 N5 1.760947 1_555
Mn1 N17 1.768186 1_555
Mn1 Pb5 3.116091 1_555
Mn2 N34 1.691069 1_565
Mn2 N6 1.760947 1_555
Mn2 N18 1.768186 1_555
Mn2 Pb6 3.116091 1_555
Mn3 N35 1.691069 1_555
Mn3 N7 1.760947 1_555
Mn3 N19 1.768186 1_555
Mn3 Pb7 3.116091 1_555
Mn4 N12 1.671360 1_555
Mn4 N25 1.689113 1_555
Mn4 N30 1.719277 1_555
Mn4 Pb24 2.976298 1_565
Mn5 N13 1.671360 1_555
Mn5 N24 1.689113 1_555
Mn5 N31 1.719277 1_556
Mn5 Pb25 2.976298 1_555
Mn6 N14 1.671360 1_555
Mn6 N27 1.689113 1_555
Mn6 N28 1.719277 1_555
Mn6 Pb26 2.976298 1_545
Mn7 N15 1.671360 1_555
Mn7 N26 1.689113 1_555
Mn7 N29 1.719277 1_554
Mn7 Pb27 2.976298 1_555
Mn8 N20 1.698906 1_555
Mn8 N0 1.714287 1_555
Mn8 N11 1.757684 1_555
Mn8 Pb4 3.145500 1_555
Mn8 Pb24 3.158676 1_555
Mn9 N21 1.698906 1_555
Mn9 N1 1.714287 1_555
Mn9 N10 1.757684 1_556
Mn9 Pb5 3.145500 1_555
Mn9 Pb25 3.158676 1_555
Mn10 N22 1.698906 1_555
Mn10 N2 1.714287 1_555
Mn10 N9 1.757684 1_555
Mn10 Pb6 3.145500 1_555
Mn10 Pb26 3.158676 1_555
Mn11 N23 1.698906 1_555
Mn11 N3 1.714287 1_555
Mn11 N8 1.757684 1_554
Mn11 Pb7 3.145500 1_555
Mn11 Pb27 3.158676 1_555
N0 Pb12 2.473868 1_555
N0 Pb4 2.600293 1_555
N0 Pb3 2.698536 1_555
N1 Pb13 2.473868 1_555
N1 Pb5 2.600293 1_555
N1 Pb2 2.698536 1_565
N2 Pb14 2.473868 1_555
N2 Pb6 2.600293 1_555
N2 Pb1 2.698536 1_555
N3 Pb15 2.473868 1_555
N3 Pb7 2.600293 1_555
N3 Pb0 2.698536 1_545
N4 Pb9 2.360955 1_555
N4 Pb16 2.491499 1_555
N4 Pb12 2.681170 1_555
N4 Pb2 2.700543 1_555
N5 Pb8 2.360955 1_555
N5 Pb17 2.491499 1_555
N5 Pb13 2.681170 1_555
N5 Pb3 2.700543 1_555
N6 Pb11 2.360955 1_555
N6 Pb18 2.491499 1_555
N6 Pb14 2.681170 1_555
N6 Pb0 2.700543 1_555
N7 Pb10 2.360955 1_555
N7 Pb19 2.491499 1_555
N7 Pb15 2.681170 1_555
N7 Pb1 2.700543 1_555
N8 Pb16 2.374791 1_555
N8 Pb2 2.436237 1_555
N8 Pb31 2.593178 1_656
N9 Pb17 2.374791 1_555
N9 Pb3 2.436237 1_555
N9 Pb30 2.593178 1_455
N10 Pb18 2.374791 1_555
N10 Pb0 2.436237 1_555
N10 Pb29 2.593178 1_454
N11 Pb19 2.374791 1_555
N11 Pb1 2.436237 1_555
N11 Pb28 2.593178 1_655
N12 Pb8 2.486640 1_555
N12 Pb4 2.766440 1_565
N13 Pb9 2.486640 1_555
N13 Pb5 2.766440 1_555
N14 Pb10 2.486640 1_555
N14 Pb6 2.766440 1_545
N15 Pb11 2.486640 1_555
N15 Pb7 2.766440 1_555
N16 Pb20 2.404554 1_655
N16 Pb24 2.437615 1_555
N16 Pb12 2.525219 1_555
N16 Pb4 2.836913 1_555
N17 Pb21 2.404554 1_455
N17 Pb25 2.437615 1_555
N17 Pb13 2.525219 1_555
N17 Pb5 2.836913 1_555
N18 Pb22 2.404554 1_455
N18 Pb26 2.437615 1_555
N18 Pb14 2.525219 1_555
N18 Pb6 2.836913 1_555
N19 Pb23 2.404554 1_655
N19 Pb27 2.437615 1_555
N19 Pb15 2.525219 1_555
N19 Pb7 2.836913 1_555
N20 Pb28 2.374878 1_655
N20 Pb12 2.769228 1_555
N20 Pb24 2.800227 1_555
N21 Pb29 2.374878 1_455
N21 Pb13 2.769228 1_555
N21 Pb25 2.800227 1_555
N22 Pb30 2.374878 1_455
N22 Pb14 2.769228 1_555
N22 Pb26 2.800227 1_555
N23 Pb31 2.374878 1_655
N23 Pb15 2.769228 1_555
N23 Pb27 2.800227 1_555
N24 Pb20 2.395101 1_555
N24 Pb16 2.587533 1_455
N25 Pb21 2.395101 1_555
N25 Pb17 2.587533 1_655
N26 Pb22 2.395101 1_555
N26 Pb18 2.587533 1_655
N27 Pb23 2.395101 1_555
N27 Pb19 2.587533 1_455
N28 Pb28 2.353617 1_555
N28 Pb4 2.526729 1_555
N28 Pb24 2.848164 1_455
N29 Pb29 2.353617 1_555
N29 Pb5 2.526729 1_555
N29 Pb25 2.848164 1_655
N30 Pb30 2.353617 1_555
N30 Pb6 2.526729 1_555
N30 Pb26 2.848164 1_655
N31 Pb31 2.353617 1_555
N31 Pb7 2.526729 1_555
N31 Pb27 2.848164 1_455
N32 Pb8 2.441241 1_555
N32 Pb2 2.490104 1_565
N32 Pb13 2.860483 1_555
N33 Pb9 2.441241 1_555
N33 Pb3 2.490104 1_555
N33 Pb12 2.860483 1_555
N34 Pb10 2.441241 1_555
N34 Pb0 2.490104 1_545
N34 Pb15 2.860483 1_555
N35 Pb11 2.441241 1_555
N35 Pb1 2.490104 1_555
N35 Pb14 2.860483 1_555
