# generated using pymatgen
data_MgSi2
_symmetry_space_group_name_H-M   'P 1'
_cell_length_a   4.56532600
_cell_length_b   5.25912091
_cell_length_c   9.65084419
_cell_angle_alpha   74.88115423
_cell_angle_beta   77.37723156
_cell_angle_gamma   64.79046087
_symmetry_Int_Tables_number   1
_chemical_formula_structural   MgSi2
_chemical_formula_sum   'Mg4 Si8'
_cell_volume   200.85030634
_cell_formula_units_Z   4
loop_
 _symmetry_equiv_pos_site_id
 _symmetry_equiv_pos_as_xyz
  1  'x, y, z'
loop_
 _atom_site_type_symbol
 _atom_site_label
 _atom_site_symmetry_multiplicity
 _atom_site_fract_x
 _atom_site_fract_y
 _atom_site_fract_z
 _atom_site_occupancy
  Mg  Mg0  1  0.11264700  0.74971600  0.11897900  1
  Mg  Mg1  1  0.38112900  0.45284700  0.87435900  1
  Mg  Mg2  1  0.62071800  0.22192300  0.61203600  1
  Mg  Mg3  1  0.19084800  0.29022000  0.39131100  1
  Si  Si0  1  0.67371300  0.82607300  0.92106600  1
  Si  Si1  1  0.43346100  0.09835700  0.13499200  1
  Si  Si2  1  0.89968600  0.86260900  0.41440900  1
  Si  Si3  1  0.31365400  0.82917700  0.60690900  1
  Si  Si4  1  0.81998300  0.34147000  0.12300500  1
  Si  Si5  1  0.09491100  0.08547100  0.81227400  1
  Si  Si6  1  0.90933400  0.59167100  0.67109300  1
  Si  Si7  1  0.54958500  0.65055700  0.31934800  1
loop_
_geom_bond_atom_site_label_1
_geom_bond_atom_site_label_2
_geom_bond_distance
_geom_bond_site_symmetry_2
Mg0 Si4 2.823147 1_465
Mg0 Si1 2.839937 1_565
Mg0 Si1 2.845252 1_465
Mg0 Si7 2.874728 1_555
Mg0 Si0 2.900384 1_454
Mg0 Mg1 2.922511 1_554
Mg0 Si2 2.933695 1_455
Mg0 Si0 2.950984 1_554
Mg0 Si4 2.962067 1_455
Mg0 Si7 3.010384 1_455
Mg0 Si5 3.023642 1_564
Mg0 Si4 3.023948 1_555
Mg0 Mg3 3.039217 1_555
Mg0 Si1 3.074478 1_555
Mg1 Si1 2.701231 1_556
Mg1 Si3 2.799556 1_555
Mg1 Mg2 2.888333 1_555
Mg1 Si0 2.930906 1_545
Mg1 Si5 2.955435 1_565
Mg1 Si6 2.963199 1_455
Mg1 Si0 2.966188 1_555
Mg1 Si6 2.980165 1_555
Mg1 Si5 2.982617 1_555
Mg1 Si0 2.985187 1_455
Mg1 Si5 3.016282 1_655
Mg2 Si2 2.756599 1_545
Mg2 Si3 2.881142 1_555
Mg2 Si6 2.944444 1_545
Mg2 Si3 2.948735 1_645
Mg2 Si5 2.952560 1_655
Mg2 Si5 2.954366 1_555
Mg2 Si3 2.963800 1_545
Mg2 Si6 2.988518 1_555
Mg2 Si6 3.007163 1_455
Mg2 Mg3 3.057060 1_555
Mg2 Mg3 3.068451 1_655
Mg2 Si7 3.101876 1_555
Mg2 Si0 3.151942 1_545
Mg3 Si3 2.691255 1_545
Mg3 Si1 2.741642 1_555
Mg3 Si2 2.773119 1_455
Mg3 Si7 2.849616 1_455
Mg3 Si7 2.866354 1_555
Mg3 Si2 3.004897 1_445
Mg3 Si2 3.071422 1_545
Mg3 Si6 3.230553 1_455
Si0 Si1 2.594328 1_566
Si0 Si5 2.695563 1_665
Si0 Si4 2.695818 1_556
Si0 Si5 2.709321 1_565
Si0 Si6 2.790022 1_555
Si1 Si7 2.481076 1_545
Si1 Si4 2.550725 1_455
Si1 Si4 2.552930 1_555
Si2 Si6 2.514321 1_555
Si2 Si7 2.707947 1_555
Si2 Si7 2.722832 1_655
Si3 Si5 2.474673 1_565
Si3 Si6 2.532147 1_455
Si3 Si6 2.603543 1_555
Si4 Si7 2.575227 1_555
Si5 Si6 2.520404 1_455
