# generated using pymatgen
data_K3Si6H6N11
_symmetry_space_group_name_H-M   'P 1'
_cell_length_a   10.90863800
_cell_length_b   10.90863800
_cell_length_c   10.90863800
_cell_angle_alpha   90.00000000
_cell_angle_beta   90.00000000
_cell_angle_gamma   90.00000000
_symmetry_Int_Tables_number   1
_chemical_formula_structural   K3Si6H6N11
_chemical_formula_sum   'K12 Si24 H24 N44'
_cell_volume   1298.11028290
_cell_formula_units_Z   4
loop_
 _symmetry_equiv_pos_site_id
 _symmetry_equiv_pos_as_xyz
  1  'x, y, z'
loop_
 _atom_site_type_symbol
 _atom_site_label
 _atom_site_symmetry_multiplicity
 _atom_site_fract_x
 _atom_site_fract_y
 _atom_site_fract_z
 _atom_site_occupancy
  K  K0  1  0.79217600  0.79217600  0.79217600  1
  K  K1  1  0.70782400  0.20782400  0.29217600  1
  K  K2  1  0.20782400  0.29217600  0.70782400  1
  K  K3  1  0.54217600  0.04217600  0.45782400  1
  K  K4  1  0.29217600  0.70782400  0.20782400  1
  K  K5  1  0.95782400  0.95782400  0.95782400  1
  K  K6  1  0.04217600  0.45782400  0.54217600  1
  K  K7  1  0.45782400  0.54217600  0.04217600  1
  K  K8  1  0.37500000  0.37500000  0.37500000  1
  K  K9  1  0.12500000  0.62500000  0.87500000  1
  K  K10  1  0.62500000  0.87500000  0.12500000  1
  K  K11  1  0.87500000  0.12500000  0.62500000  1
  Si  Si0  1  0.08902300  0.23604000  0.31506300  1
  Si  Si1  1  0.41097700  0.76396000  0.81506300  1
  Si  Si2  1  0.91097700  0.73604000  0.18493700  1
  Si  Si3  1  0.31506300  0.08902300  0.23604000  1
  Si  Si4  1  0.98604000  0.33902300  0.93493700  1
  Si  Si5  1  0.58902300  0.26396000  0.68493700  1
  Si  Si6  1  0.81506300  0.41097700  0.76396000  1
  Si  Si7  1  0.51396000  0.66097700  0.43493700  1
  Si  Si8  1  0.18493700  0.91097700  0.73604000  1
  Si  Si9  1  0.48604000  0.16097700  0.06506300  1
  Si  Si10  1  0.68493700  0.58902300  0.26396000  1
  Si  Si11  1  0.01396000  0.83902300  0.56506300  1
  Si  Si12  1  0.23604000  0.31506300  0.08902300  1
  Si  Si13  1  0.83902300  0.56506300  0.01396000  1
  Si  Si14  1  0.73604000  0.18493700  0.91097700  1
  Si  Si15  1  0.66097700  0.43493700  0.51396000  1
  Si  Si16  1  0.26396000  0.68493700  0.58902300  1
  Si  Si17  1  0.33902300  0.93493700  0.98604000  1
  Si  Si18  1  0.76396000  0.81506300  0.41097700  1
  Si  Si19  1  0.16097700  0.06506300  0.48604000  1
  Si  Si20  1  0.93493700  0.98604000  0.33902300  1
  Si  Si21  1  0.43493700  0.51396000  0.66097700  1
  Si  Si22  1  0.56506300  0.01396000  0.83902300  1
  Si  Si23  1  0.06506300  0.48604000  0.16097700  1
  H  H0  1  0.04637200  0.62890300  0.31398000  1
  H  H1  1  0.45362800  0.37109700  0.81398000  1
  H  H2  1  0.95362800  0.12890300  0.18602000  1
  H  H3  1  0.31398000  0.04637200  0.62890300  1
  H  H4  1  0.37890300  0.29637200  0.93602000  1
  H  H5  1  0.54637200  0.87109700  0.68602000  1
  H  H6  1  0.81398000  0.45362800  0.37109700  1
  H  H7  1  0.12109700  0.70362800  0.43602000  1
  H  H8  1  0.18602000  0.95362800  0.12890300  1
  H  H9  1  0.87890300  0.20362800  0.06398000  1
  H  H10  1  0.68602000  0.54637200  0.87109700  1
  H  H11  1  0.62109700  0.79637200  0.56398000  1
  H  H12  1  0.62890300  0.31398000  0.04637200  1
  H  H13  1  0.79637200  0.56398000  0.62109700  1
  H  H14  1  0.12890300  0.18602000  0.95362800  1
  H  H15  1  0.70362800  0.43602000  0.12109700  1
  H  H16  1  0.87109700  0.68602000  0.54637200  1
  H  H17  1  0.29637200  0.93602000  0.37890300  1
  H  H18  1  0.37109700  0.81398000  0.45362800  1
  H  H19  1  0.20362800  0.06398000  0.87890300  1
  H  H20  1  0.93602000  0.37890300  0.29637200  1
  H  H21  1  0.43602000  0.12109700  0.70362800  1
  H  H22  1  0.56398000  0.62109700  0.79637200  1
  H  H23  1  0.06398000  0.87890300  0.20362800  1
  N  N0  1  0.12500000  0.21530700  0.46530700  1
  N  N1  1  0.37500000  0.78469300  0.96530700  1
  N  N2  1  0.87500000  0.71530700  0.03469300  1
  N  N3  1  0.46530700  0.12500000  0.21530700  1
  N  N4  1  0.96530700  0.37500000  0.78469300  1
  N  N5  1  0.62500000  0.28469300  0.53469300  1
  N  N6  1  0.53469300  0.62500000  0.28469300  1
  N  N7  1  0.03469300  0.87500000  0.71530700  1
  N  N8  1  0.21530700  0.46530700  0.12500000  1
  N  N9  1  0.71530700  0.03469300  0.87500000  1
  N  N10  1  0.28469300  0.53469300  0.62500000  1
  N  N11  1  0.78469300  0.96530700  0.37500000  1
  N  N12  1  0.21782600  0.21782600  0.21782600  1
  N  N13  1  0.28217400  0.78217400  0.71782600  1
  N  N14  1  0.78217400  0.71782600  0.28217400  1
  N  N15  1  0.96782600  0.46782600  0.03217400  1
  N  N16  1  0.71782600  0.28217400  0.78217400  1
  N  N17  1  0.53217400  0.53217400  0.53217400  1
  N  N18  1  0.46782600  0.03217400  0.96782600  1
  N  N19  1  0.03217400  0.96782600  0.46782600  1
  N  N20  1  0.02861700  0.38153500  0.28048500  1
  N  N21  1  0.47138300  0.61846500  0.78048500  1
  N  N22  1  0.97138300  0.88153500  0.21951500  1
  N  N23  1  0.28048500  0.02861700  0.38153500  1
  N  N24  1  0.13153500  0.27861700  0.96951500  1
  N  N25  1  0.52861700  0.11846500  0.71951500  1
  N  N26  1  0.78048500  0.47138300  0.61846500  1
  N  N27  1  0.36846500  0.72138300  0.46951500  1
  N  N28  1  0.21951500  0.97138300  0.88153500  1
  N  N29  1  0.63153500  0.22138300  0.03048500  1
  N  N30  1  0.71951500  0.52861700  0.11846500  1
  N  N31  1  0.86846500  0.77861700  0.53048500  1
  N  N32  1  0.38153500  0.28048500  0.02861700  1
  N  N33  1  0.77861700  0.53048500  0.86846500  1
  N  N34  1  0.88153500  0.21951500  0.97138300  1
  N  N35  1  0.72138300  0.46951500  0.36846500  1
  N  N36  1  0.11846500  0.71951500  0.52861700  1
  N  N37  1  0.27861700  0.96951500  0.13153500  1
  N  N38  1  0.61846500  0.78048500  0.47138300  1
  N  N39  1  0.22138300  0.03048500  0.63153500  1
  N  N40  1  0.96951500  0.13153500  0.27861700  1
  N  N41  1  0.46951500  0.36846500  0.72138300  1
  N  N42  1  0.53048500  0.86846500  0.77861700  1
  N  N43  1  0.03048500  0.63153500  0.22138300  1
loop_
_geom_bond_atom_site_label_1
_geom_bond_atom_site_label_2
_geom_bond_distance
_geom_bond_site_symmetry_2
K0 N9 2.918609 1_565
K0 N7 2.918609 1_655
K0 N2 2.918609 1_556
K0 N33 2.977200 1_555
K0 N31 2.977200 1_555
K0 N42 2.977200 1_555
K1 N5 2.918609 1_555
K1 N11 2.918609 1_545
K1 N3 2.918609 1_555
K1 N40 2.977200 1_555
K1 N35 2.977200 1_555
K1 N29 2.977200 1_555
K2 N0 2.918609 1_555
K2 N4 2.918609 1_455
K2 N10 2.918609 1_555
K2 N24 2.977200 1_555
K2 N41 2.977200 1_555
K2 N39 2.977200 1_555
K3 N5 2.918609 1_555
K3 N11 2.918609 1_545
K3 N3 2.918609 1_555
K3 N25 2.977200 1_555
K3 N23 2.977200 1_555
K3 N38 2.977200 1_545
K4 N8 2.918609 1_555
K4 N6 2.918609 1_555
K4 N1 2.918609 1_554
K4 N37 2.977200 1_555
K4 N27 2.977200 1_555
K4 N43 2.977200 1_555
K5 N2 2.918609 1_556
K5 N9 2.918609 1_565
K5 N7 2.918609 1_655
K5 N22 2.977200 1_556
K5 N28 2.977200 1_655
K5 N34 2.977200 1_565
K6 N4 2.918609 1_455
K6 N10 2.918609 1_555
K6 N0 2.918609 1_555
K6 N36 2.977200 1_555
K6 N20 2.977200 1_555
K6 N26 2.977200 1_455
K7 N6 2.918609 1_555
K7 N1 2.918609 1_554
K7 N8 2.918609 1_555
K7 N32 2.977200 1_555
K7 N30 2.977200 1_555
K7 N21 2.977200 1_554
K8 N12 2.969695 1_555
K8 N17 2.969695 1_555
K8 N10 3.382684 1_555
K8 N5 3.382684 1_555
K8 N8 3.382684 1_555
K8 N6 3.382684 1_555
K8 N0 3.382684 1_555
K8 N3 3.382684 1_555
K9 N15 2.969695 1_456
K9 N13 2.969695 1_555
K9 N10 3.382684 1_555
K9 N4 3.382684 1_455
K9 N7 3.382684 1_555
K9 N8 3.382684 1_556
K9 N1 3.382684 1_555
K9 N2 3.382684 1_456
K10 N18 2.969695 1_564
K10 N14 2.969695 1_555
K10 N1 3.382684 1_554
K10 N3 3.382684 1_565
K10 N11 3.382684 1_555
K10 N2 3.382684 1_555
K10 N6 3.382684 1_555
K10 N9 3.382684 1_564
K11 N19 2.969695 1_645
K11 N16 2.969695 1_555
K11 N11 3.382684 1_545
K11 N4 3.382684 1_555
K11 N5 3.382684 1_555
K11 N0 3.382684 1_655
K11 N9 3.382684 1_555
K11 N7 3.382684 1_645
H0 N43 1.025269 1_555
H1 N41 1.025269 1_555
H2 N40 1.025269 1_555
H3 N39 1.025269 1_555
H4 N32 1.025269 1_556
H5 N42 1.025269 1_555
H6 N35 1.025269 1_555
H7 N36 1.025269 1_555
H8 N37 1.025269 1_555
H9 N34 1.025269 1_554
H10 N33 1.025269 1_555
H11 N38 1.025269 1_555
H12 N29 1.025269 1_555
H13 N26 1.025269 1_555
H14 N24 1.025269 1_555
H15 N30 1.025269 1_555
H16 N31 1.025269 1_555
H17 N23 1.025269 1_565
H18 N27 1.025269 1_555
H19 N28 1.025269 1_545
H20 N20 1.025269 1_655
H21 N25 1.025269 1_555
H22 N21 1.025269 1_555
H23 N22 1.025269 1_455
N0 Si19 1.700400 1_555
N0 Si0 1.700400 1_555
N1 Si17 1.700400 1_555
N1 Si1 1.700400 1_555
N2 Si2 1.700400 1_555
N2 Si13 1.700400 1_555
N3 Si9 1.700400 1_555
N3 Si3 1.700400 1_555
N4 Si6 1.700400 1_555
N4 Si4 1.700400 1_555
N5 Si5 1.700400 1_555
N5 Si15 1.700400 1_555
N6 Si10 1.700400 1_555
N6 Si7 1.700400 1_555
N7 Si8 1.700400 1_555
N7 Si11 1.700400 1_555
N8 Si23 1.700400 1_555
N8 Si12 1.700400 1_555
N9 Si14 1.700400 1_555
N9 Si22 1.700400 1_555
N10 Si21 1.700400 1_555
N10 Si16 1.700400 1_555
N11 Si20 1.700400 1_555
N11 Si18 1.700400 1_555
N12 Si12 1.771672 1_555
N12 Si0 1.771672 1_555
N12 Si3 1.771672 1_555
N13 Si1 1.771672 1_555
N13 Si16 1.771672 1_555
N13 Si8 1.771672 1_555
N14 Si2 1.771672 1_555
N14 Si18 1.771672 1_555
N14 Si10 1.771672 1_555
N15 Si13 1.771672 1_555
N15 Si4 1.771672 1_554
N15 Si23 1.771672 1_655
N16 Si14 1.771672 1_555
N16 Si5 1.771672 1_555
N16 Si6 1.771672 1_555
N17 Si15 1.771672 1_555
N17 Si7 1.771672 1_555
N17 Si21 1.771672 1_555
N18 Si22 1.771672 1_555
N18 Si17 1.771672 1_545
N18 Si9 1.771672 1_556
N19 Si11 1.771672 1_555
N19 Si20 1.771672 1_455
N19 Si19 1.771672 1_565
N20 Si0 1.759415 1_555
N20 Si23 1.776862 1_555
N21 Si1 1.759415 1_555
N21 Si21 1.776862 1_555
N22 Si2 1.759415 1_555
N22 Si20 1.776862 1_555
N23 Si3 1.759415 1_555
N23 Si19 1.776862 1_555
N24 Si4 1.759415 1_455
N24 Si12 1.776862 1_556
N25 Si5 1.759415 1_555
N25 Si22 1.776862 1_555
N26 Si6 1.759415 1_555
N26 Si15 1.776862 1_555
N27 Si7 1.759415 1_555
N27 Si16 1.776862 1_555
N28 Si8 1.759415 1_555
N28 Si17 1.776862 1_555
N29 Si9 1.759415 1_555
N29 Si14 1.776862 1_554
N30 Si10 1.759415 1_555
N30 Si13 1.776862 1_555
N31 Si11 1.759415 1_655
N31 Si18 1.776862 1_555
N32 Si12 1.759415 1_555
N32 Si9 1.776862 1_555
N33 Si13 1.759415 1_556
N33 Si6 1.776862 1_555
N34 Si14 1.759415 1_555
N34 Si4 1.776862 1_555
N35 Si15 1.759415 1_555
N35 Si10 1.776862 1_555
N36 Si16 1.759415 1_555
N36 Si11 1.776862 1_555
N37 Si17 1.759415 1_554
N37 Si3 1.776862 1_565
N38 Si18 1.759415 1_555
N38 Si7 1.776862 1_555
N39 Si19 1.759415 1_555
N39 Si8 1.776862 1_545
N40 Si20 1.759415 1_545
N40 Si0 1.776862 1_655
N41 Si21 1.759415 1_555
N41 Si5 1.776862 1_555
N42 Si22 1.759415 1_565
N42 Si1 1.776862 1_555
N43 Si23 1.759415 1_555
N43 Si2 1.776862 1_455
