# generated using pymatgen
data_V2O5
_symmetry_space_group_name_H-M   'P 1'
_cell_length_a   12.07473982
_cell_length_b   13.13397275
_cell_length_c   12.91615082
_cell_angle_alpha   89.32854780
_cell_angle_beta   92.38993052
_cell_angle_gamma   98.77835363
_symmetry_Int_Tables_number   1
_chemical_formula_structural   V2O5
_chemical_formula_sum   'V30 O75'
_cell_volume   2022.57847126
_cell_formula_units_Z   15
loop_
 _symmetry_equiv_pos_site_id
 _symmetry_equiv_pos_as_xyz
  1  'x, y, z'
loop_
 _atom_site_type_symbol
 _atom_site_label
 _atom_site_symmetry_multiplicity
 _atom_site_fract_x
 _atom_site_fract_y
 _atom_site_fract_z
 _atom_site_occupancy
  V  V0  1  0.69516158  0.13121634  0.64131742  1
  V  V1  1  0.97243422  0.81372947  0.88729998  1
  V  V2  1  0.69052416  0.54817918  0.91415539  1
  V  V3  1  0.98936285  0.99581391  0.41629482  1
  V  V4  1  0.59954804  0.09016593  0.17559267  1
  V  V5  1  0.24657538  0.54766889  0.41073888  1
  V  V6  1  0.65084676  0.71368015  0.39075407  1
  V  V7  1  0.50746845  0.89852534  0.66890113  1
  V  V8  1  0.71553537  0.47249050  0.44982187  1
  V  V9  1  0.19800335  0.55796021  0.13850766  1
  V  V10  1  0.31872579  0.15771202  0.41229088  1
  V  V11  1  0.06955595  0.73114011  0.06671594  1
  V  V12  1  0.08326812  0.04032640  0.96467685  1
  V  V13  1  0.46322045  0.12165271  0.76971339  1
  V  V14  1  0.09431743  0.17124162  0.57327302  1
  V  V15  1  0.36753119  0.75503415  0.04332195  1
  V  V16  1  0.98183175  0.77166101  0.30782918  1
  V  V17  1  0.24968960  0.27860202  0.75147893  1
  V  V18  1  0.70313855  0.78543185  0.80718898  1
  V  V19  1  0.71735332  0.28113185  0.03919386  1
  V  V20  1  0.13894440  0.29791980  0.98112732  1
  V  V21  1  0.98485963  0.56074032  0.47803058  1
  V  V22  1  0.99829415  0.55844099  0.73045390  1
  V  V23  1  0.59956304  0.22925636  0.41279209  1
  V  V24  1  0.37400387  0.02415663  0.01150896  1
  V  V25  1  0.29324287  0.36828239  0.25774409  1
  V  V26  1  0.94074377  0.47987718  -0.00058086  1
  V  V27  1  0.54682648  0.69457378  0.15658329  1
  V  V28  1  0.44474839  0.71265131  0.56665849  1
  V  V29  1  0.53255496  0.44126316  0.09169122  1
  O  O0  1  0.41030733  0.40654913  0.18715105  1
  O  O1  1  0.03868420  0.95081944  0.86177168  1
  O  O2  1  0.80977037  0.53463024  0.00421175  1
  O  O3  1  0.40469333  0.67150418  0.17319055  1
  O  O4  1  0.66682352  0.68066165  0.89526254  1
  O  O5  1  0.21961893  0.33959565  0.86807787  1
  O  O6  1  0.83828019  0.00255720  0.37237375  1
  O  O7  1  0.93329105  0.72941605  0.00337893  1
  O  O8  1  0.58718112  0.86054808  0.77865517  1
  O  O9  1  0.44867889  0.06342686  0.89715631  1
  O  O10  1  0.61728693  0.97221900  0.19329730  1
  O  O11  1  0.06285908  0.07153519  0.33762067  1
  O  O12  1  0.22634082  0.28011638  0.07869294  1
  O  O13  1  0.49952707  0.63698060  0.64526028  1
  O  O14  1  0.08165436  0.21309173  0.71334768  1
  O  O15  1  0.38842637  0.79839241  0.66305878  1
  O  O16  1  0.04063759  0.25540586  0.50368357  1
  O  O17  1  0.46314964  0.20918787  0.45866938  1
  O  O18  1  0.85342335  0.35608330  0.03822215  1
  O  O19  1  0.82300798  0.14440161  0.68933793  1
  O  O20  1  0.86552016  0.46596666  0.45761676  1
  O  O21  1  0.66898040  0.47411259  0.56424588  1
  O  O22  1  0.21806536  0.70355246  0.09567653  1
  O  O23  1  0.17743796  0.41788116  0.21675417  1
  O  O24  1  0.26466545  0.35354198  0.65071108  1
  O  O25  1  0.37705529  0.22335064  0.76945928  1
  O  O26  1  0.73683139  0.73835421  0.70065528  1
  O  O27  1  0.85526319  0.78414846  0.27165457  1
  O  O28  1  0.05503440  0.38989205  0.01207304  1
  O  O29  1  0.04062553  0.57731574  0.08203873  1
  O  O30  1  0.43314276  0.00933056  0.68511614  1
  O  O31  1  0.01166771  0.04733302  0.54555331  1
  O  O32  1  0.51978978  0.68612857  0.44268627  1
  O  O33  1  0.94594078  0.44625153  0.67983485  1
  O  O34  1  0.98259121  0.64733963  0.37190734  1
  O  O35  1  0.97862897  0.62749220  0.58771453  1
  O  O36  1  0.31943542  0.44380311  0.38109404  1
  O  O37  1  0.69074215  0.19663929  0.50834748  1
  O  O38  1  0.28375699  0.23717965  0.30613662  1
  O  O39  1  0.01823135  0.99385793  0.06603483  1
  O  O40  1  0.59974292  0.15630818  0.30281910  1
  O  O41  1  0.23299699  0.04976789  0.98983389  1
  O  O42  1  0.70863427  0.15091732  0.09788151  1
  O  O43  1  0.96707029  0.51643070  0.87647787  1
  O  O44  1  0.53020628  0.76846720  0.04549100  1
  O  O45  1  0.31434562  0.63729211  0.49897170  1
  O  O46  1  0.34414251  0.71342537  0.92686578  1
  O  O47  1  0.70260782  0.58805862  0.38425042  1
  O  O48  1  0.83273210  0.84998728  0.86550153  1
  O  O49  1  0.06013914  0.17375002  0.94641699  1
  O  O50  1  0.10987184  0.50663404  0.46483026  1
  O  O51  1  0.66594717  0.27065657  0.92156827  1
  O  O52  1  0.02938991  0.86937683  0.40128827  1
  O  O53  1  0.27351887  0.51754922  0.05091427  1
  O  O54  1  0.59320712  0.57746975  0.13997153  1
  O  O55  1  0.16872756  0.14396831  0.72128558  1
  O  O56  1  0.62852461  0.34384297  0.11525821  1
  O  O57  1  0.82022464  0.09619193  0.35093069  1
  O  O58  1  0.05999239  0.78695403  0.19248328  1
  O  O59  1  0.54284510  0.84130232  0.55437239  1
  O  O60  1  0.13371294  0.56478408  0.73291270  1
  O  O61  1  0.59855697  0.17884524  0.72464138  1
  O  O62  1  0.63876226  0.36033102  0.37997797  1
  O  O63  1  0.36118788  0.89002105  0.04756193  1
  O  O64  1  0.72485955  0.50991060  0.80328188  1
  O  O65  1  0.22811165  0.16025600  0.51596067  1
  O  O66  1  0.11938584  0.81479609  0.97011653  1
  O  O67  1  0.31662307  0.04096308  0.37371178  1
  O  O68  1  0.73603935  0.79461985  0.46076470  1
  O  O69  1  0.56257136  0.47252802  0.95230919  1
  O  O70  1  0.64203919  0.00381661  0.62971742  1
  O  O71  1  0.46482835  0.09245271  0.11350962  1
  O  O72  1  0.98486053  0.72924585  0.79564451  1
  O  O73  1  0.62407900  0.76239277  0.26100869  1
  O  O74  1  0.22320767  0.60500695  0.29589252  1
loop_
_geom_bond_atom_site_label_1
_geom_bond_atom_site_label_2
_geom_bond_distance
_geom_bond_site_symmetry_2
O0 V25 1.721022 1_555
O0 V29 1.959640 1_555
O1 V12 1.795047 1_565
O1 V1 1.886538 1_455
O2 V26 1.838029 1_555
O2 V2 1.841616 1_554
O3 V27 1.718631 1_555
O3 V15 2.064696 1_555
O4 V18 1.789022 1_555
O4 V2 1.818057 1_555
O5 V17 1.790058 1_555
O5 V20 1.821471 1_555
O6 V3 1.902499 1_545
O7 V11 1.803823 1_655
O7 V1 1.886260 1_554
O8 V7 1.789127 1_555
O8 V18 1.854632 1_555
O9 V24 1.792160 1_556
O9 V13 1.810752 1_555
O10 V4 1.608355 1_565
O11 V3 1.609773 1_445
O12 V20 1.647376 1_554
O13 V28 1.605286 1_555
O14 O55 1.490072 1_555
O14 V14 1.915942 1_555
O14 V17 2.119760 1_555
O15 V7 1.793797 1_555
O15 V28 1.902160 1_555
O16 V14 1.611448 1_555
O17 V23 1.754693 1_555
O17 V10 1.849203 1_555
O18 V19 1.782264 1_555
O18 V26 1.873013 1_555
O19 V0 1.624439 1_555
O20 V21 1.767463 1_555
O20 V8 1.824624 1_555
O21 V8 1.604487 1_555
O22 V11 1.904211 1_555
O22 V9 1.966278 1_555
O22 V15 1.972365 1_555
O23 V25 1.693560 1_555
O23 V9 2.075045 1_555
O24 V17 1.621953 1_555
O25 V17 1.803494 1_555
O25 V13 1.813934 1_555
O26 V18 1.607677 1_555
O27 V16 1.611215 1_555
O28 V20 1.750469 1_554
O28 V26 1.949994 1_455
O29 V26 1.919546 1_455
O29 V11 2.005964 1_555
O29 V9 2.057967 1_555
O30 V13 1.828470 1_555
O30 V7 1.840845 1_545
O31 V3 1.803067 1_445
O31 V14 1.805753 1_555
O32 V6 1.730076 1_555
O32 V28 1.933074 1_555
O33 V22 1.643794 1_555
O34 V21 1.772873 1_555
O34 V16 1.823043 1_555
O35 V21 1.685066 1_555
O35 V22 2.065898 1_555
O36 V5 1.785556 1_555
O36 V25 1.876549 1_555
O37 V23 1.713812 1_555
O37 V0 1.913795 1_555
O38 V10 1.788929 1_555
O38 V25 1.813639 1_555
O39 V12 1.619814 1_564
O40 V23 1.722894 1_555
O40 V4 1.867493 1_555
O41 V24 1.795354 1_556
O41 V12 1.809176 1_555
O42 V4 1.774772 1_555
O42 V19 1.852536 1_555
O43 V26 1.682470 1_556
O43 V22 1.993804 1_555
O44 V27 1.744666 1_555
O44 V15 1.944216 1_555
O45 V5 1.735980 1_555
O45 V28 1.911294 1_555
O46 V15 1.605507 1_556
O47 V8 1.754065 1_555
O47 V6 1.855333 1_555
O48 V18 1.801803 1_555
O48 V1 1.831393 1_555
O49 V20 1.809418 1_555
O49 V12 1.827200 1_555
O50 V21 1.778859 1_455
O50 V5 1.821834 1_555
O51 V19 1.616348 1_556
O52 V16 1.785382 1_455
O52 V3 1.813604 1_455
O53 V9 1.625104 1_555
O54 V27 1.733755 1_555
O54 V29 1.927090 1_555
O55 V17 1.921279 1_555
O55 V14 2.128218 1_555
O56 V19 1.780603 1_555
O56 V29 1.867261 1_555
O57 O6 1.305930 1_555
O58 V16 1.789697 1_455
O58 V11 1.805235 1_555
O59 V7 1.764173 1_555
O59 V28 1.918799 1_555
O60 V22 1.623517 1_455
O61 V0 1.803731 1_555
O61 V13 1.807771 1_555
O62 V23 1.765859 1_555
O62 V8 1.840592 1_555
O63 V15 1.787782 1_555
O63 V24 1.802239 1_565
O64 V2 1.614092 1_555
O65 V10 1.767942 1_555
O65 V14 1.830880 1_555
O66 V11 1.718917 1_556
O66 V1 2.031592 1_455
O67 V10 1.614050 1_555
O68 V6 1.617761 1_555
O69 V2 1.789016 1_555
O69 V29 1.879535 1_556
O70 V0 1.704104 1_555
O70 V7 2.043324 1_545
O71 V4 1.787634 1_555
O71 V24 1.830287 1_555
O72 V1 1.658802 1_555
O72 V22 2.436109 1_555
O73 V27 1.775484 1_555
O73 V6 1.820702 1_555
O74 V5 1.688461 1_555
O74 V9 2.127718 1_555
