# generated using pymatgen
data_LaMg6C
_symmetry_space_group_name_H-M   'P 1'
_cell_length_a   4.58389200
_cell_length_b   6.80557900
_cell_length_c   11.66484100
_cell_angle_alpha   90.00000000
_cell_angle_beta   90.00000000
_cell_angle_gamma   90.00000000
_symmetry_Int_Tables_number   1
_chemical_formula_structural   LaMg6C
_chemical_formula_sum   'La2 Mg12 C2'
_cell_volume   363.89683632
_cell_formula_units_Z   2
loop_
 _symmetry_equiv_pos_site_id
 _symmetry_equiv_pos_as_xyz
  1  'x, y, z'
loop_
 _atom_site_type_symbol
 _atom_site_label
 _atom_site_symmetry_multiplicity
 _atom_site_fract_x
 _atom_site_fract_y
 _atom_site_fract_z
 _atom_site_occupancy
  La  La0  1  0.00000000  0.50000000  0.30280200  1
  La  La1  1  0.00000000  0.00000000  0.80280200  1
  Mg  Mg0  1  0.00000000  0.25945700  0.07796600  1
  Mg  Mg1  1  0.00000000  0.74054300  0.07796600  1
  Mg  Mg2  1  0.00000000  0.50000000  0.83462300  1
  Mg  Mg3  1  0.50000000  0.27186500  0.92549100  1
  Mg  Mg4  1  0.50000000  0.72813500  0.92549100  1
  Mg  Mg5  1  0.50000000  0.50000000  0.66756500  1
  Mg  Mg6  1  0.00000000  0.75945700  0.57796600  1
  Mg  Mg7  1  0.00000000  0.24054300  0.57796600  1
  Mg  Mg8  1  0.00000000  0.00000000  0.33462300  1
  Mg  Mg9  1  0.50000000  0.77186500  0.42549100  1
  Mg  Mg10  1  0.50000000  0.22813500  0.42549100  1
  Mg  Mg11  1  0.50000000  0.00000000  0.16756500  1
  C  C0  1  0.50000000  0.50000000  0.18809700  1
  C  C1  1  0.50000000  0.00000000  0.68809700  1
loop_
_geom_bond_atom_site_label_1
_geom_bond_atom_site_label_2
_geom_bond_distance
_geom_bond_site_symmetry_2
La0 Mg9 3.274818 1_455
La0 Mg9 3.274818 1_555
La0 Mg10 3.274818 1_555
La0 Mg10 3.274818 1_455
La0 Mg8 3.422975 1_565
La0 Mg8 3.422975 1_555
La1 Mg4 3.274818 1_445
La1 Mg3 3.274818 1_555
La1 Mg4 3.274818 1_545
La1 Mg3 3.274818 1_455
La1 Mg2 3.422975 1_555
La1 Mg2 3.422975 1_545
Mg0 Mg3 2.902336 1_554
Mg0 Mg3 2.902336 1_454
Mg0 Mg11 3.076242 1_455
Mg0 Mg11 3.076242 1_555
Mg0 Mg2 3.276780 1_554
Mg0 Mg8 3.475789 1_555
Mg1 Mg4 2.902336 1_554
Mg1 Mg4 2.902336 1_454
Mg1 Mg11 3.076242 1_565
Mg1 Mg11 3.076242 1_465
Mg1 Mg2 3.276780 1_554
Mg1 Mg8 3.475789 1_565
Mg2 Mg3 2.964299 1_455
Mg2 Mg4 2.964299 1_455
Mg2 Mg3 2.964299 1_555
Mg2 Mg4 2.964299 1_555
Mg2 Mg5 3.008400 1_455
Mg2 Mg5 3.008400 1_555
Mg2 Mg7 3.475789 1_555
Mg2 Mg6 3.475789 1_555
Mg3 Mg4 3.105182 1_555
Mg3 Mg5 3.385647 1_555
Mg4 Mg5 3.385647 1_555
Mg5 Mg7 3.076242 1_555
Mg5 Mg6 3.076242 1_655
Mg5 Mg7 3.076242 1_655
Mg5 Mg6 3.076242 1_555
Mg5 Mg9 3.375919 1_555
Mg6 Mg9 2.902336 1_555
Mg6 Mg9 2.902336 1_455
Mg6 Mg8 3.276780 1_565
Mg7 Mg8 3.276780 1_555
Mg8 Mg9 2.964299 1_445
Mg8 Mg9 2.964299 1_545
Mg10 Mg7 2.902336 1_555
Mg10 Mg7 2.902336 1_655
Mg10 Mg8 2.964299 1_555
Mg10 Mg8 2.964299 1_655
Mg10 Mg9 3.105182 1_545
Mg10 Mg5 3.375919 1_555
Mg10 Mg11 3.385647 1_555
Mg11 Mg8 3.008400 1_555
Mg11 Mg8 3.008400 1_655
Mg11 Mg4 3.375919 1_544
Mg11 Mg3 3.375919 1_554
Mg11 Mg9 3.385647 1_545
C0 La0 2.653922 1_555
C0 La0 2.653922 1_655
C1 La1 2.653922 1_655
C1 La1 2.653922 1_555
