# generated using pymatgen
data_MgTe4Pb6(BrO3)4
_symmetry_space_group_name_H-M   'P 1'
_cell_length_a   5.88513141
_cell_length_b   9.14216190
_cell_length_c   12.18668116
_cell_angle_alpha   103.10271912
_cell_angle_beta   87.88014574
_cell_angle_gamma   106.08653183
_symmetry_Int_Tables_number   1
_chemical_formula_structural   MgTe4Pb6(BrO3)4
_chemical_formula_sum   'Mg1 Te4 Pb6 Br4 O12'
_cell_volume   613.36862634
_cell_formula_units_Z   1
loop_
 _symmetry_equiv_pos_site_id
 _symmetry_equiv_pos_as_xyz
  1  'x, y, z'
loop_
 _atom_site_type_symbol
 _atom_site_label
 _atom_site_symmetry_multiplicity
 _atom_site_fract_x
 _atom_site_fract_y
 _atom_site_fract_z
 _atom_site_occupancy
  Mg  Mg0  1  0.09406404  0.61687374  0.93871822  1
  Te  Te0  1  0.65435120  0.22422436  0.09000064  1
  Te  Te1  1  0.46085606  0.87620021  0.93229659  1
  Te  Te2  1  0.85804280  0.73613874  0.40724110  1
  Te  Te3  1  0.08294769  0.24126750  0.57714499  1
  Pb  Pb0  1  0.27707558  0.53264078  0.24260442  1
  Pb  Pb1  1  0.64679981  0.43393561  0.75009492  1
  Pb  Pb2  1  0.06885405  0.06108660  0.19895710  1
  Pb  Pb3  1  0.92340926  0.89958885  0.76254464  1
  Pb  Pb4  1  0.70236926  0.32358330  0.39134569  1
  Pb  Pb5  1  0.35395925  0.65868259  0.60949378  1
  Br  Br0  1  0.82916707  0.64678412  0.10131140  1
  Br  Br1  1  0.15204416  0.35157776  0.89609550  1
  Br  Br2  1  0.42916866  0.89863766  0.31516911  1
  Br  Br3  1  0.50643688  0.05291404  0.66186229  1
  O  O0  1  0.91262861  0.29251613  0.21028359  1
  O  O1  1  0.44237423  0.26655900  0.21151228  1
  O  O2  1  0.14236520  0.75664682  0.83376559  1
  O  O3  1  0.61979714  0.67691661  0.75000858  1
  O  O4  1  0.73884485  0.02882427  0.06702536  1
  O  O5  1  0.32754146  0.04837136  0.01807278  1
  O  O6  1  0.88534351  0.80009092  0.56371488  1
  O  O7  1  0.04436504  0.20677726  0.42013356  1
  O  O8  1  0.01505358  0.57334353  0.38897397  1
  O  O9  1  0.55291441  0.58504975  0.40114450  1
  O  O10  1  0.94489739  0.41239940  0.61293413  1
  O  O11  1  0.39682886  0.38408307  0.59397940  1
loop_
_geom_bond_atom_site_label_1
_geom_bond_atom_site_label_2
_geom_bond_distance
_geom_bond_site_symmetry_2
Mg0 O2 1.965292 1_555
Br0 Mg0 2.488652 1_654
Br1 Mg0 2.478513 1_555
Br2 Pb0 3.136270 1_555
Br2 Pb2 3.410118 1_565
Br3 Pb1 3.277995 1_555
Br3 Pb5 3.377789 1_545
O0 Te0 2.018140 1_555
O0 Pb4 2.487832 1_555
O0 Pb2 2.505403 1_655
O0 Pb0 2.575986 1_655
O1 Te0 1.941641 1_555
O1 Pb2 2.447530 1_555
O1 Pb4 2.589208 1_555
O1 Pb0 2.805979 1_555
O2 Te1 2.141453 1_555
O2 Pb3 2.377329 1_455
O3 Pb1 2.270781 1_555
O3 Pb3 2.285500 1_555
O3 Pb5 2.309114 1_555
O4 Te0 1.942165 1_555
O4 Te1 2.283461 1_544
O4 Pb2 2.478414 1_655
O5 Te1 2.015811 1_544
O5 Te0 2.196444 1_555
O5 Pb2 2.631378 1_555
O6 Te2 1.862530 1_555
O6 Pb3 2.382604 1_555
O7 Te3 1.879143 1_555
O7 Pb4 2.593743 1_455
O7 Pb2 2.740426 1_555
O8 Te2 1.927462 1_455
O8 Pb0 2.347699 1_555
O8 Pb4 2.509633 1_455
O9 Te2 1.930500 1_555
O9 Pb0 2.445205 1_555
O9 Pb4 2.744031 1_555
O9 Pb5 2.777223 1_555
O10 Te3 1.914892 1_655
O10 Pb1 2.394948 1_555
O11 Te3 1.931080 1_555
O11 Pb1 2.331066 1_555
O11 Pb5 2.556157 1_555
