# generated using pymatgen
data_K2Cr2O5
_symmetry_space_group_name_H-M   'P 1'
_cell_length_a   8.29367586
_cell_length_b   8.29367586
_cell_length_c   8.29367586
_cell_angle_alpha   138.22310576
_cell_angle_beta   135.62044389
_cell_angle_gamma   62.58275271
_symmetry_Int_Tables_number   1
_chemical_formula_structural   K2Cr2O5
_chemical_formula_sum   'K4 Cr4 O10'
_cell_volume   262.58562775
_cell_formula_units_Z   2
loop_
 _symmetry_equiv_pos_site_id
 _symmetry_equiv_pos_as_xyz
  1  'x, y, z'
loop_
 _atom_site_type_symbol
 _atom_site_label
 _atom_site_symmetry_multiplicity
 _atom_site_fract_x
 _atom_site_fract_y
 _atom_site_fract_z
 _atom_site_occupancy
  K  K0  1  0.91363600  0.36337000  0.51290000  1
  K  K1  1  0.08636400  0.59926400  0.44973400  1
  K  K2  1  0.35047000  0.86337000  0.44973400  1
  K  K3  1  0.64953000  0.09926400  0.51290000  1
  Cr  Cr0  1  0.00000000  0.95185300  0.95185300  1
  Cr  Cr1  1  0.50000000  0.45185300  0.95185300  1
  Cr  Cr2  1  0.65955100  0.74078000  0.90033100  1
  Cr  Cr3  1  0.34044900  0.24078000  0.08123000  1
  O  O0  1  0.28977300  0.28453300  0.54836700  1
  O  O1  1  0.71022700  0.25859400  0.99476100  1
  O  O2  1  0.23616600  0.78453300  0.99476100  1
  O  O3  1  0.76383400  0.75859400  0.54836700  1
  O  O4  1  0.90655900  0.86838100  0.05761100  1
  O  O5  1  0.09344100  0.15105200  0.96182200  1
  O  O6  1  0.31077000  0.36838100  0.96182200  1
  O  O7  1  0.68923000  0.65105200  0.05761100  1
  O  O8  1  0.55375300  0.44617200  0.49992500  1
  O  O9  1  0.44624700  0.94617200  0.89242000  1
loop_
_geom_bond_atom_site_label_1
_geom_bond_atom_site_label_2
_geom_bond_distance
_geom_bond_site_symmetry_2
K0 O6 2.660506 1_655
K0 O8 2.674951 1_555
K0 O0 2.709688 1_655
K0 O1 2.735942 1_554
K0 O3 2.776390 1_555
K0 O2 2.798412 1_655
K0 O4 2.810638 1_545
K1 O7 2.660506 1_455
K1 O9 2.674949 1_555
K1 O1 2.709690 1_454
K1 O0 2.735949 1_555
K1 O2 2.776398 1_555
K1 O3 2.798413 1_455
K1 O5 2.810638 1_554
K2 O4 2.660506 1_455
K2 O9 2.674959 1_555
K2 O2 2.709680 1_554
K2 O3 2.735949 1_555
K2 O1 2.776390 1_565
K2 O0 2.798413 1_565
K2 O6 2.810638 1_554
K3 O5 2.660506 1_655
K3 O8 2.674951 1_555
K3 O3 2.709688 1_545
K3 O2 2.735949 1_544
K3 O0 2.776390 1_555
K3 O1 2.798421 1_555
K3 O7 2.810638 1_545
Cr0 O2 1.767998 1_555
Cr0 O3 1.767999 1_455
Cr0 O4 2.054408 1_456
Cr0 O5 2.054408 1_565
Cr0 O0 2.572172 1_566
Cr0 O1 2.572173 1_465
Cr1 O0 1.767999 1_555
Cr1 O1 1.768000 1_555
Cr1 O7 2.054408 1_556
Cr1 O6 2.054408 1_555
Cr1 O2 2.572172 1_555
Cr1 O3 2.572172 1_556
Cr2 O7 1.770898 1_556
Cr2 O4 1.770898 1_556
Cr2 O9 1.805878 1_555
Cr2 O8 1.864177 1_555
Cr3 O5 1.770894 1_554
Cr3 O6 1.770906 1_554
Cr3 O8 1.805874 1_555
Cr3 O9 1.864177 1_544
