# generated using pymatgen
data_NaTm(Pd3O4)2
_symmetry_space_group_name_H-M   'P 1'
_cell_length_a   5.74463192
_cell_length_b   5.74463192
_cell_length_c   5.74463192
_cell_angle_alpha   90.00000000
_cell_angle_beta   90.00000000
_cell_angle_gamma   90.00000000
_symmetry_Int_Tables_number   1
_chemical_formula_structural   NaTm(Pd3O4)2
_chemical_formula_sum   'Na1 Tm1 Pd6 O8'
_cell_volume   189.57742549
_cell_formula_units_Z   1
loop_
 _symmetry_equiv_pos_site_id
 _symmetry_equiv_pos_as_xyz
  1  'x, y, z'
loop_
 _atom_site_type_symbol
 _atom_site_label
 _atom_site_symmetry_multiplicity
 _atom_site_fract_x
 _atom_site_fract_y
 _atom_site_fract_z
 _atom_site_occupancy
  Na  Na0  1  0.50000000  0.50000000  0.50000000  1
  Tm  Tm0  1  -0.00000000  -0.00000000  -0.00000000  1
  Pd  Pd0  1  0.25015655  0.00000000  0.50000000  1
  Pd  Pd1  1  0.74984345  -0.00000000  0.50000000  1
  Pd  Pd2  1  0.50000000  0.25015655  -0.00000000  1
  Pd  Pd3  1  0.50000000  0.74984345  -0.00000000  1
  Pd  Pd4  1  -0.00000000  0.50000000  0.25015655  1
  Pd  Pd5  1  -0.00000000  0.50000000  0.74984345  1
  O  O0  1  0.23859905  0.23859905  0.23859905  1
  O  O1  1  0.76140095  0.76140095  0.76140095  1
  O  O2  1  0.76140095  0.76140095  0.23859905  1
  O  O3  1  0.76140095  0.23859905  0.76140095  1
  O  O4  1  0.23859905  0.23859905  0.76140095  1
  O  O5  1  0.23859905  0.76140095  0.23859905  1
  O  O6  1  0.23859905  0.76140095  0.76140095  1
  O  O7  1  0.76140095  0.23859905  0.23859905  1
loop_
_geom_bond_atom_site_label_1
_geom_bond_atom_site_label_2
_geom_bond_distance
_geom_bond_site_symmetry_2
Na0 O5 2.600938 1_555
Na0 O2 2.600938 1_555
Na0 O3 2.600938 1_555
Na0 O6 2.600938 1_555
Na0 O0 2.600938 1_555
Na0 O4 2.600938 1_555
Na0 O1 2.600938 1_555
Na0 O7 2.600938 1_555
O0 Pd0 2.034229 1_555
O0 Pd2 2.034229 1_555
O0 Pd4 2.034229 1_555
O0 Tm0 2.374059 1_555
O1 Pd5 2.034229 1_655
O1 Pd3 2.034229 1_556
O1 Pd1 2.034229 1_565
O1 Tm0 2.374059 1_666
O2 Pd3 2.034229 1_555
O2 Pd4 2.034229 1_655
O2 Pd1 2.034229 1_565
O2 Tm0 2.374059 1_665
O3 Pd1 2.034229 1_555
O3 Pd5 2.034229 1_655
O3 Pd2 2.034229 1_556
O3 Tm0 2.374059 1_656
O4 Pd0 2.034229 1_555
O4 Pd5 2.034229 1_555
O4 Pd2 2.034229 1_556
O4 Tm0 2.374059 1_556
O5 Pd3 2.034229 1_555
O5 Pd4 2.034229 1_555
O5 Pd0 2.034229 1_565
O5 Tm0 2.374059 1_565
O6 Pd5 2.034229 1_555
O6 Pd3 2.034229 1_556
O6 Pd0 2.034229 1_565
O6 Tm0 2.374059 1_566
O7 Pd1 2.034229 1_555
O7 Pd2 2.034229 1_555
O7 Pd4 2.034229 1_655
O7 Tm0 2.374059 1_655
