# generated using pymatgen
data_K2Te2Pd
_symmetry_space_group_name_H-M   'P 1'
_cell_length_a   6.80996949
_cell_length_b   6.80996949
_cell_length_c   6.80996949
_cell_angle_alpha   145.72623073
_cell_angle_beta   108.53068282
_cell_angle_gamma   81.71085943
_symmetry_Int_Tables_number   1
_chemical_formula_structural   K2Te2Pd
_chemical_formula_sum   'K2 Te2 Pd1'
_cell_volume   164.42848516
_cell_formula_units_Z   1
loop_
 _symmetry_equiv_pos_site_id
 _symmetry_equiv_pos_as_xyz
  1  'x, y, z'
loop_
 _atom_site_type_symbol
 _atom_site_label
 _atom_site_symmetry_multiplicity
 _atom_site_fract_x
 _atom_site_fract_y
 _atom_site_fract_z
 _atom_site_occupancy
  K  K0  1  0.29905158  0.79905158  0.50000000  1
  K  K1  1  0.70094842  0.20094842  0.50000000  1
  Te  Te0  1  0.77921615  0.50000000  0.27921615  1
  Te  Te1  1  0.22078385  0.50000000  0.72078385  1
  Pd  Pd0  1  -0.00000000  0.00000000  -0.00000000  1
loop_
_geom_bond_atom_site_label_1
_geom_bond_atom_site_label_2
_geom_bond_distance
_geom_bond_site_symmetry_2
K0 Te0 3.546140 1_455
K0 Te1 3.546140 1_555
K0 Te0 3.639319 1_566
K0 Te0 3.639319 1_555
K0 Te1 3.639319 1_554
K0 Te1 3.639319 1_565
K0 Pd0 3.676577 1_555
K0 Pd0 3.676577 1_566
K1 Te0 3.546140 1_555
K1 Te1 3.546140 1_655
K1 Te0 3.639319 1_556
K1 Te1 3.639319 1_555
K1 Te0 3.639319 1_545
K1 Te1 3.639319 1_544
K1 Pd0 3.676577 1_655
K1 Pd0 3.676577 1_666
Pd0 Te0 2.666597 1_444
Pd0 Te0 2.666597 1_455
Pd0 Te1 2.666597 1_544
Pd0 Te1 2.666597 1_555
