# generated using pymatgen
data_LaTiNO2
_symmetry_space_group_name_H-M   'P 1'
_cell_length_a   3.88060500
_cell_length_b   5.64129800
_cell_length_c   5.69048600
_cell_angle_alpha   90.00000000
_cell_angle_beta   90.00000000
_cell_angle_gamma   90.00000000
_symmetry_Int_Tables_number   1
_chemical_formula_structural   LaTiNO2
_chemical_formula_sum   'La2 Ti2 N2 O4'
_cell_volume   124.57412343
_cell_formula_units_Z   2
loop_
 _symmetry_equiv_pos_site_id
 _symmetry_equiv_pos_as_xyz
  1  'x, y, z'
loop_
 _atom_site_type_symbol
 _atom_site_label
 _atom_site_symmetry_multiplicity
 _atom_site_fract_x
 _atom_site_fract_y
 _atom_site_fract_z
 _atom_site_occupancy
  La  La0  1  0.00000000  0.25000000  0.23427900  1
  La  La1  1  0.00000000  0.75000000  0.76572100  1
  Ti  Ti0  1  0.50000000  0.25000000  0.73082000  1
  Ti  Ti1  1  0.50000000  0.75000000  0.26918000  1
  N  N0  1  0.50000000  0.00000000  0.50000000  1
  N  N1  1  0.50000000  0.50000000  0.50000000  1
  O  O0  1  0.50000000  0.00000000  0.00000000  1
  O  O1  1  0.50000000  0.50000000  0.00000000  1
  O  O2  1  0.00000000  0.75000000  0.21944800  1
  O  O3  1  0.00000000  0.25000000  0.78055200  1
loop_
_geom_bond_atom_site_label_1
_geom_bond_atom_site_label_2
_geom_bond_distance
_geom_bond_site_symmetry_2
La0 O3 2.581927 1_554
La0 O0 2.744286 1_455
La0 O1 2.744286 1_455
La0 O1 2.744286 1_555
La0 O0 2.744286 1_555
La0 O2 2.821911 1_555
La0 O2 2.821911 1_545
La0 N0 2.835521 1_455
La0 N1 2.835521 1_555
La0 N1 2.835521 1_455
La0 N0 2.835521 1_555
La0 O3 3.108559 1_555
La1 O2 2.581927 1_556
La1 O0 2.744286 1_566
La1 O0 2.744286 1_466
La1 O1 2.744286 1_456
La1 O1 2.744286 1_556
La1 O3 2.821911 1_565
La1 O3 2.821911 1_555
La1 N0 2.835521 1_465
La1 N1 2.835521 1_555
La1 N1 2.835521 1_455
La1 N0 2.835521 1_565
La1 O2 3.108559 1_555
N0 Ti1 1.927236 1_545
N0 Ti0 1.927236 1_555
N1 Ti1 1.927236 1_555
N1 Ti0 1.927236 1_555
O0 Ti1 2.082143 1_545
O0 Ti0 2.082143 1_554
O1 Ti1 2.082143 1_555
O1 Ti0 2.082143 1_554
O2 Ti1 1.960832 1_455
O2 Ti1 1.960832 1_555
O3 Ti0 1.960832 1_455
O3 Ti0 1.960832 1_555
