# generated using pymatgen
data_Er4MgS7
_symmetry_space_group_name_H-M   'P 1'
_cell_length_a   6.55122427
_cell_length_b   6.55122427
_cell_length_c   11.43632292
_cell_angle_alpha   76.17712023
_cell_angle_beta   76.17712023
_cell_angle_gamma   33.48486843
_symmetry_Int_Tables_number   1
_chemical_formula_structural   Er4MgS7
_chemical_formula_sum   'Er4 Mg1 S7'
_cell_volume   262.23536669
_cell_formula_units_Z   1
loop_
 _symmetry_equiv_pos_site_id
 _symmetry_equiv_pos_as_xyz
  1  'x, y, z'
loop_
 _atom_site_type_symbol
 _atom_site_label
 _atom_site_symmetry_multiplicity
 _atom_site_fract_x
 _atom_site_fract_y
 _atom_site_fract_z
 _atom_site_occupancy
  Er  Er0  1  0.69456300  0.69456300  0.19992400  1
  Er  Er1  1  0.30486300  0.30486300  0.80441500  1
  Er  Er2  1  0.11382700  0.11382700  0.57022900  1
  Er  Er3  1  0.00007800  0.00007800  0.00331000  1
  Mg  Mg0  1  0.88667200  0.88667200  0.42137100  1
  S  S0  1  0.03784000  0.03784000  0.22014600  1
  S  S1  1  0.96019300  0.96019300  0.78488400  1
  S  S2  1  0.34037400  0.34037400  0.05013200  1
  S  S3  1  0.65948700  0.65948700  0.94864700  1
  S  S4  1  0.74191700  0.74191700  0.64424200  1
  S  S5  1  0.26404400  0.26404400  0.35404500  1
  S  S6  1  0.49614100  0.49614100  0.49865400  1
loop_
_geom_bond_atom_site_label_1
_geom_bond_atom_site_label_2
_geom_bond_distance
_geom_bond_site_symmetry_2
Er0 S0 2.693489 1_565
Er0 S0 2.693489 1_655
Er0 S5 2.862689 1_565
Er0 S5 2.862689 1_655
Er0 S2 2.877385 1_565
Er0 S2 2.877385 1_655
Er0 S3 3.013774 1_554
Er1 S1 2.681895 1_545
Er1 S1 2.681895 1_455
Er1 S3 2.847478 1_455
Er1 S3 2.847478 1_545
Er1 S4 2.874489 1_545
Er1 S4 2.874489 1_455
Er1 S2 2.952956 1_556
Er2 S6 2.648603 1_545
Er2 S6 2.648603 1_455
Er2 S5 2.709182 1_555
Er2 S1 2.716779 1_445
Er2 S4 2.745861 1_545
Er2 S4 2.745861 1_455
Er3 S0 2.638222 1_555
Er3 S1 2.667243 1_444
Er3 S2 2.707053 1_455
Er3 S2 2.707053 1_545
Er3 S3 2.707191 1_454
Er3 S3 2.707191 1_544
Mg0 S0 2.591395 1_665
Mg0 S6 2.614386 1_565
Mg0 S6 2.614386 1_655
Mg0 S5 2.667001 1_655
Mg0 S5 2.667001 1_565
Mg0 S4 2.735920 1_555
