# generated using pymatgen
data_Sr3CaTi3MnO10
_symmetry_space_group_name_H-M   'P 1'
_cell_length_a   11.17027764
_cell_length_b   11.40846935
_cell_length_c   17.72564013
_cell_angle_alpha   108.70208013
_cell_angle_beta   108.55062204
_cell_angle_gamma   90.07277797
_symmetry_Int_Tables_number   1
_chemical_formula_structural   Sr3CaTi3MnO10
_chemical_formula_sum   'Sr24 Ca8 Ti24 Mn8 O80'
_cell_volume   2014.97962206
_cell_formula_units_Z   8
loop_
 _symmetry_equiv_pos_site_id
 _symmetry_equiv_pos_as_xyz
  1  'x, y, z'
loop_
 _atom_site_type_symbol
 _atom_site_label
 _atom_site_symmetry_multiplicity
 _atom_site_fract_x
 _atom_site_fract_y
 _atom_site_fract_z
 _atom_site_occupancy
  Sr  Sr0  1  0.30357600  0.06038200  0.60916800  1
  Sr  Sr1  1  0.30891100  0.56198200  0.61166500  1
  Sr  Sr2  1  0.81089400  0.06283800  0.61132200  1
  Sr  Sr3  1  0.80901100  0.56142600  0.61380700  1
  Sr  Sr4  1  0.19829700  0.43589600  0.38769400  1
  Sr  Sr5  1  0.19683000  0.43985600  0.88953700  1
  Sr  Sr6  1  0.19761100  0.93456300  0.38739500  1
  Sr  Sr7  1  0.69773200  0.43492800  0.38870500  1
  Sr  Sr8  1  0.69704800  0.43937700  0.88998600  1
  Sr  Sr9  1  0.69680900  0.93500800  0.38781500  1
  Sr  Sr10  1  0.70069300  0.93630400  0.89398600  1
  Sr  Sr11  1  0.06141000  0.29716600  0.11161600  1
  Sr  Sr12  1  0.05941300  0.29865500  0.61194400  1
  Sr  Sr13  1  0.05911500  0.80258400  0.61319000  1
  Sr  Sr14  1  0.55779700  0.30013900  0.61166200  1
  Sr  Sr15  1  0.55668700  0.79405000  0.11091300  1
  Sr  Sr16  1  0.55641500  0.79391200  0.60845400  1
  Sr  Sr17  1  0.44707400  0.20069100  0.38765700  1
  Sr  Sr18  1  0.44688300  0.20175400  0.89234600  1
  Sr  Sr19  1  0.44679100  0.70215400  0.38825000  1
  Sr  Sr20  1  0.44624100  0.70112200  0.89130600  1
  Sr  Sr21  1  0.94592700  0.20329400  0.38816700  1
  Sr  Sr22  1  0.94856100  0.20205400  0.89145800  1
  Sr  Sr23  1  0.94521100  0.70236400  0.38721200  1
  Ca  Ca0  1  0.30557900  0.06398600  0.10400100  1
  Ca  Ca1  1  0.30382000  0.56643700  0.10239500  1
  Ca  Ca2  1  0.80296900  0.06492800  0.10537500  1
  Ca  Ca3  1  0.80488500  0.56804200  0.10487600  1
  Ca  Ca4  1  0.19600900  0.93432300  0.89287800  1
  Ca  Ca5  1  0.06021300  0.78779500  0.10444100  1
  Ca  Ca6  1  0.55887700  0.28749300  0.10578200  1
  Ca  Ca7  1  0.94760800  0.70646800  0.89187000  1
  Ti  Ti0  1  0.00723100  0.99795400  0.00164100  1
  Ti  Ti1  1  0.00393300  0.00030600  0.49854500  1
  Ti  Ti2  1  0.00466700  0.49975800  0.99873500  1
  Ti  Ti3  1  0.00578300  0.50418200  0.50326700  1
  Ti  Ti4  1  0.50517800  0.99933500  0.00029100  1
  Ti  Ti5  1  0.50222500  0.99745100  0.49481700  1
  Ti  Ti6  1  0.50604100  0.49775400  0.00169500  1
  Ti  Ti7  1  0.50535700  0.50087400  0.50089100  1
  Ti  Ti8  1  0.25667400  0.25124900  0.00038900  1
  Ti  Ti9  1  0.25511200  0.24870600  0.50153600  1
  Ti  Ti10  1  0.25436900  0.75344000  0.00191700  1
  Ti  Ti11  1  0.25379500  0.74866300  0.50004100  1
  Ti  Ti12  1  0.75914100  0.25420200  0.00732700  1
  Ti  Ti13  1  0.75572700  0.25050400  0.50277500  1
  Ti  Ti14  1  0.75919100  0.75224800  0.00231100  1
  Ti  Ti15  1  0.75487600  0.74944500  0.50179300  1
  Ti  Ti16  1  0.10176000  0.08757000  0.24430200  1
  Ti  Ti17  1  0.10718600  0.59764700  0.24611900  1
  Ti  Ti18  1  0.60428100  0.09821800  0.24647700  1
  Ti  Ti19  1  0.60765200  0.08859700  0.75147000  1
  Ti  Ti20  1  0.60345300  0.58763900  0.24539400  1
  Ti  Ti21  1  0.36828700  0.40681400  0.24613800  1
  Ti  Ti22  1  0.85596400  0.40334300  0.24598500  1
  Ti  Ti23  1  0.86004600  0.89907600  0.24677300  1
  Mn  Mn0  1  0.10983000  0.09507200  0.75322900  1
  Mn  Mn1  1  0.10921200  0.60125300  0.75385400  1
  Mn  Mn2  1  0.61416100  0.59639400  0.75227000  1
  Mn  Mn3  1  0.36116900  0.40712000  0.75175000  1
  Mn  Mn4  1  0.35777900  0.90025000  0.24496700  1
  Mn  Mn5  1  0.35717400  0.89757400  0.75283800  1
  Mn  Mn6  1  0.86219600  0.40974100  0.75298700  1
  Mn  Mn7  1  0.86759400  0.90190000  0.75253600  1
  O  O0  1  0.12428000  0.12068100  0.48922100  1
  O  O1  1  0.12964700  0.11966900  0.99423600  1
  O  O2  1  0.12244600  0.61957200  0.48863800  1
  O  O3  1  0.12360500  0.62568200  0.99236600  1
  O  O4  1  0.62532600  0.12166900  0.49327300  1
  O  O5  1  0.62720000  0.12375400  0.99594400  1
  O  O6  1  0.62242200  0.61930600  0.48875700  1
  O  O7  1  0.62996200  0.62297300  0.99710800  1
  O  O8  1  0.14092300  0.38457400  0.01685500  1
  O  O9  1  0.12959100  0.37574500  0.50200800  1
  O  O10  1  0.13963100  0.88308400  0.01842900  1
  O  O11  1  0.12965400  0.87554500  0.50299300  1
  O  O12  1  0.63780100  0.38045300  0.01564000  1
  O  O13  1  0.63095400  0.37469200  0.50353900  1
  O  O14  1  0.64058400  0.88336500  0.01512200  1
  O  O15  1  0.63187500  0.87670100  0.50678500  1
  O  O16  1  0.37388100  0.11873500  0.49042000  1
  O  O17  1  0.37829900  0.12152100  0.99709500  1
  O  O18  1  0.37394200  0.61934000  0.48960300  1
  O  O19  1  0.37559800  0.61793000  0.99406800  1
  O  O20  1  0.87321600  0.11904500  0.48902700  1
  O  O21  1  0.87673800  0.11938400  0.99529800  1
  O  O22  1  0.87385300  0.61874200  0.48914300  1
  O  O23  1  0.88124800  0.62396800  0.99783500  1
  O  O24  1  0.39058000  0.38170200  0.01845300  1
  O  O25  1  0.37982400  0.37645600  0.50150200  1
  O  O26  1  0.38655700  0.88810300  0.01641100  1
  O  O27  1  0.38166900  0.87849300  0.50564400  1
  O  O28  1  0.88539600  0.38605700  0.01417200  1
  O  O29  1  0.88058900  0.37754900  0.50256900  1
  O  O30  1  0.89102100  0.88472000  0.01882400  1
  O  O31  1  0.87900300  0.87589800  0.50259200  1
  O  O32  1  0.08164200  0.09457200  0.13697500  1
  O  O33  1  0.07584100  0.08178900  0.62819500  1
  O  O34  1  0.08273500  0.59865900  0.13580000  1
  O  O35  1  0.07113500  0.58413300  0.62626400  1
  O  O36  1  0.58559900  0.09695900  0.13581500  1
  O  O37  1  0.58286200  0.09429400  0.64379800  1
  O  O38  1  0.57743000  0.58711500  0.13448000  1
  O  O39  1  0.57441500  0.58317200  0.62631500  1
  O  O40  1  0.43804700  0.41190800  0.35985300  1
  O  O41  1  0.44865000  0.41249500  0.87642500  1
  O  O42  1  0.44286000  0.91428400  0.36777300  1
  O  O43  1  0.45197000  0.91580900  0.87650400  1
  O  O44  1  0.93422100  0.41579300  0.36046900  1
  O  O45  1  0.94938300  0.41399000  0.87687500  1
  O  O46  1  0.93900900  0.91837500  0.36393100  1
  O  O47  1  0.95039600  0.90578300  0.87584700  1
  O  O48  1  0.32857500  0.28546100  0.13798500  1
  O  O49  1  0.32344700  0.29232000  0.62647400  1
  O  O50  1  0.32542200  0.78004200  0.12844800  1
  O  O51  1  0.32209000  0.79386100  0.62856900  1
  O  O52  1  0.82499300  0.28697700  0.13483800  1
  O  O53  1  0.82703100  0.29648400  0.62723700  1
  O  O54  1  0.82726600  0.78764800  0.13484900  1
  O  O55  1  0.82267700  0.79065700  0.62805700  1
  O  O56  1  0.18419100  0.19488200  0.35726700  1
  O  O57  1  0.20038800  0.21290600  0.87751700  1
  O  O58  1  0.18455200  0.69889100  0.36244100  1
  O  O59  1  0.20069600  0.72062600  0.87775000  1
  O  O60  1  0.68443800  0.19747700  0.36263800  1
  O  O61  1  0.69079900  0.20298200  0.85980100  1
  O  O62  1  0.68060500  0.69233500  0.36092900  1
  O  O63  1  0.70813800  0.71054400  0.87773400  1
  O  O64  1  0.43454600  0.06764800  0.23966700  1
  O  O65  1  0.44352200  0.06660500  0.75133700  1
  O  O66  1  0.42681600  0.56555100  0.23929100  1
  O  O67  1  0.42999700  0.57544300  0.75241800  1
  O  O68  1  0.93291400  0.05523700  0.24049400  1
  O  O69  1  0.92560900  0.07218900  0.75232600  1
  O  O70  1  0.93641300  0.54801300  0.23890600  1
  O  O71  1  0.92691800  0.58498800  0.75989800  1
  O  O72  1  0.19969200  0.45553400  0.24827800  1
  O  O73  1  0.17723000  0.43239200  0.75138700  1
  O  O74  1  0.16990600  0.93720300  0.24076700  1
  O  O75  1  0.17840900  0.92820000  0.76062100  1
  O  O76  1  0.68405600  0.43454000  0.24042000  1
  O  O77  1  0.67784700  0.42752900  0.75110600  1
  O  O78  1  0.69290000  0.95358800  0.24783400  1
  O  O79  1  0.67446700  0.94076100  0.75189300  1
loop_
_geom_bond_atom_site_label_1
_geom_bond_atom_site_label_2
_geom_bond_distance
_geom_bond_site_symmetry_2
Ca0 O64 2.364552 1_555
Ca0 O48 2.395169 1_555
Ca0 O26 2.480997 1_545
Ca0 O10 2.487956 1_545
Ca0 O1 2.532601 1_554
Ca0 O17 2.541133 1_554
Ca0 O32 2.742678 1_555
Ca0 O36 2.996984 1_555
Ca1 O50 2.327210 1_555
Ca1 O66 2.381264 1_555
Ca1 O8 2.476320 1_555
Ca1 O19 2.525228 1_554
Ca1 O24 2.550799 1_555
Ca1 O3 2.581416 1_554
Ca1 O34 2.716198 1_555
Ca1 O38 2.919967 1_555
Ca2 O68 2.411158 1_555
Ca2 O52 2.412221 1_555
Ca2 O14 2.481735 1_545
Ca2 O5 2.546129 1_554
Ca2 O30 2.547617 1_545
Ca2 O21 2.582866 1_554
Ca2 O36 2.651353 1_555
Ca2 O32 2.980671 1_655
Ca3 O54 2.383678 1_555
Ca3 O70 2.446035 1_555
Ca3 O7 2.501110 1_554
Ca3 O28 2.547225 1_555
Ca3 O12 2.550674 1_555
Ca3 O23 2.557234 1_554
Ca3 O38 2.748555 1_555
Ca3 O34 2.974417 1_655
Ca4 O75 2.267410 1_555
Ca4 O59 2.368182 1_555
Ca4 O1 2.581410 1_565
Ca4 O47 2.670580 1_455
Ca4 O17 2.680534 1_565
Ca4 O26 2.716800 1_556
Ca4 O10 2.723256 1_556
Ca4 O43 2.965444 1_555
Ca5 O34 2.389505 1_555
Ca5 O74 2.390676 1_555
Ca5 O10 2.492842 1_555
Ca5 O30 2.520751 1_455
Ca5 O23 2.526330 1_454
Ca5 O3 2.531936 1_554
Ca5 O54 2.820343 1_455
Ca5 O50 2.861423 1_555
Ca6 O36 2.395852 1_555
Ca6 O76 2.401726 1_555
Ca6 O24 2.511155 1_555
Ca6 O12 2.536853 1_555
Ca6 O5 2.545439 1_554
Ca6 O17 2.558101 1_554
Ca6 O48 2.808382 1_555
Ca6 O52 2.851215 1_555
Ca7 O71 2.241093 1_555
Ca7 O47 2.381548 1_555
Ca7 O3 2.591667 1_655
Ca7 O63 2.607987 1_555
Ca7 O23 2.642190 1_555
Ca7 O30 2.751843 1_556
Ca7 O10 2.778821 1_656
Ca7 O59 2.925065 1_655
Mn0 O69 2.068320 1_455
Mn0 O75 2.080404 1_545
Mn0 O33 2.080431 1_555
Mn0 O57 2.088845 1_555
Mn1 O73 2.064269 1_555
Mn1 O71 2.083968 1_455
Mn1 O59 2.091041 1_555
Mn1 O35 2.106752 1_555
Mn2 O77 2.050659 1_555
Mn2 O67 2.071628 1_555
Mn2 O39 2.087503 1_555
Mn2 O63 2.097031 1_555
Mn3 O67 2.062691 1_555
Mn3 O73 2.073411 1_555
Mn3 O49 2.088553 1_555
Mn3 O41 2.093174 1_555
Mn4 O50 1.996107 1_555
Mn4 O42 2.031536 1_555
Mn4 O74 2.123754 1_555
Mn4 O64 2.133885 1_565
Mn5 O51 2.045433 1_555
Mn5 O43 2.049326 1_555
Mn5 O75 2.067531 1_555
Mn5 O65 2.166611 1_565
Mn6 O77 2.060202 1_555
Mn6 O71 2.077930 1_555
Mn6 O45 2.084233 1_555
Mn6 O53 2.094484 1_555
Mn7 O69 2.048701 1_565
Mn7 O55 2.056472 1_555
Mn7 O47 2.070378 1_555
Mn7 O79 2.200131 1_555
O0 Ti9 1.975808 1_555
O0 Ti1 2.000664 1_555
O0 Sr21 2.623487 1_455
O0 Sr6 2.631474 1_545
O0 Sr0 2.690146 1_555
O0 Sr12 2.748431 1_555
O1 Ti0 2.010346 1_546
O1 Ti8 2.017363 1_556
O1 Sr22 2.655586 1_455
O1 Sr11 2.705851 1_556
O2 Ti3 1.981918 1_555
O2 Ti11 1.994341 1_555
O2 Sr23 2.621612 1_455
O2 Sr4 2.622039 1_555
O2 Sr1 2.749142 1_555
O2 Sr13 2.788436 1_555
O3 Ti10 1.991380 1_556
O3 Ti2 2.009044 1_555
O3 Sr5 2.638303 1_555
O4 Ti5 1.985880 1_545
O4 Ti13 1.997533 1_555
O4 Sr17 2.645222 1_555
O4 Sr9 2.658565 1_545
O4 Sr2 2.696302 1_555
O4 Sr14 2.718343 1_555
O5 Ti4 2.002646 1_546
O5 Ti12 2.010043 1_556
O5 Sr18 2.630589 1_555
O5 Sr10 2.642609 1_545
O6 Ti7 1.985594 1_555
O6 Ti15 2.000907 1_555
O6 Sr19 2.603225 1_555
O6 Sr7 2.615140 1_555
O6 Sr16 2.702226 1_555
O6 Sr3 2.774157 1_555
O7 Ti14 2.022386 1_556
O7 Ti6 2.025972 1_556
O7 Sr8 2.629258 1_555
O7 Sr15 2.660512 1_556
O7 Sr20 2.674256 1_555
O8 Ti8 2.007716 1_555
O8 Ti2 2.027606 1_554
O8 Sr11 2.574066 1_555
O8 Sr5 2.772976 1_554
O8 Sr22 2.806253 1_454
O9 Ti3 2.015920 1_555
O9 Ti9 2.017758 1_555
O9 Sr21 2.638412 1_455
O9 Sr4 2.654362 1_555
O9 Sr1 2.677321 1_555
O9 Sr12 2.693450 1_555
O10 Ti10 1.970216 1_555
O10 Ti0 1.992034 1_555
O11 Ti1 2.002711 1_565
O11 Ti11 2.005912 1_555
O11 Sr0 2.623172 1_565
O11 Sr23 2.656900 1_455
O11 Sr6 2.664830 1_555
O11 Sr13 2.673842 1_555
O12 Ti12 1.982249 1_555
O12 Ti6 2.000945 1_555
O12 Sr18 2.765253 1_554
O12 Sr8 2.783469 1_554
O13 Ti13 1.988655 1_555
O13 Ti7 2.012294 1_555
O13 Sr7 2.652127 1_555
O13 Sr17 2.658743 1_555
O13 Sr14 2.665427 1_555
O13 Sr3 2.675817 1_555
O14 Ti14 2.005750 1_555
O14 Ti4 2.020495 1_555
O14 Sr15 2.630427 1_555
O14 Sr10 2.678443 1_554
O14 Sr20 2.807647 1_554
O15 Ti15 2.000834 1_555
O15 Ti5 2.009245 1_555
O15 Sr16 2.628001 1_555
O15 Sr2 2.655153 1_565
O15 Sr19 2.682669 1_555
O15 Sr9 2.699505 1_555
O16 Ti5 1.994749 1_545
O16 Ti9 1.995365 1_555
O16 Sr6 2.620586 1_545
O16 Sr17 2.626505 1_555
O16 Sr0 2.727552 1_555
O16 Sr14 2.729439 1_555
O17 Ti4 1.989864 1_546
O17 Ti8 2.009906 1_556
O17 Sr18 2.620202 1_555
O18 Ti11 2.000027 1_555
O18 Ti7 2.003261 1_555
O18 Sr19 2.607512 1_555
O18 Sr4 2.608160 1_555
O18 Sr16 2.669458 1_555
O18 Sr1 2.746623 1_555
O19 Ti6 2.004914 1_556
O19 Ti10 2.056786 1_556
O19 Sr5 2.601806 1_555
O19 Sr20 2.619684 1_555
O19 Sr15 2.659654 1_556
O20 Ti1 1.997587 1_655
O20 Ti13 2.001273 1_555
O20 Sr21 2.608382 1_555
O20 Sr9 2.614245 1_545
O20 Sr2 2.728643 1_555
O20 Sr12 2.741242 1_655
O21 Ti0 2.014260 1_646
O21 Ti12 2.027232 1_556
O21 Sr10 2.606080 1_545
O21 Sr22 2.640462 1_555
O21 Sr11 2.687268 1_656
O22 Ti3 1.980544 1_655
O22 Ti15 2.005046 1_555
O22 Sr7 2.608488 1_555
O22 Sr23 2.613384 1_555
O22 Sr13 2.766307 1_655
O22 Sr3 2.789084 1_555
O23 Ti2 1.978470 1_655
O23 Ti14 2.001596 1_556
O23 Sr8 2.688387 1_555
O24 Ti8 1.984639 1_555
O24 Ti6 1.999048 1_555
O24 Sr18 2.749849 1_554
O24 Sr5 2.859192 1_554
O25 Ti7 1.998901 1_555
O25 Ti9 2.015114 1_555
O25 Sr4 2.630409 1_555
O25 Sr17 2.651564 1_555
O25 Sr14 2.673530 1_555
O25 Sr1 2.694130 1_555
O26 Ti4 1.979101 1_555
O26 Ti10 2.026386 1_555
O26 Sr15 2.588656 1_555
O26 Sr20 2.796994 1_554
O27 Ti5 2.004721 1_555
O27 Ti11 2.013459 1_555
O27 Sr16 2.632755 1_555
O27 Sr0 2.648659 1_565
O27 Sr6 2.674093 1_555
O27 Sr19 2.681167 1_555
O28 Ti2 1.996916 1_654
O28 Ti12 2.008774 1_555
O28 Sr11 2.616302 1_655
O28 Sr8 2.749037 1_554
O28 Sr22 2.772711 1_554
O29 Ti3 2.003832 1_655
O29 Ti13 2.011852 1_555
O29 Sr7 2.627115 1_555
O29 Sr21 2.637621 1_555
O29 Sr12 2.686706 1_655
O29 Sr3 2.698612 1_555
O30 Ti0 1.986525 1_655
O30 Ti14 1.993640 1_555
O30 Sr10 2.758222 1_554
O31 Ti15 1.993287 1_555
O31 Ti1 2.022612 1_665
O31 Sr9 2.642833 1_555
O31 Sr23 2.649285 1_555
O31 Sr13 2.671469 1_655
O31 Sr2 2.672616 1_565
O32 Ti16 1.871266 1_555
O32 Ti0 2.166507 1_545
O32 Sr11 2.489604 1_555
O33 Ti1 2.060164 1_555
O33 Sr12 2.581169 1_555
O33 Sr0 2.671946 1_555
O33 Sr2 2.879014 1_455
O33 Sr13 3.110524 1_545
O34 Ti17 1.890309 1_555
O34 Ti2 2.197216 1_554
O35 Ti3 1.956652 1_555
O35 Sr13 2.575691 1_555
O35 Sr1 2.753613 1_555
O35 Sr3 2.870375 1_455
O35 Sr12 3.183767 1_555
O36 Ti18 1.900768 1_555
O36 Ti4 2.174118 1_545
O37 Ti19 1.861936 1_555
O37 Ti5 2.370366 1_545
O37 Sr14 2.583757 1_555
O37 Sr2 2.784084 1_555
O37 Sr0 2.980801 1_555
O38 Ti20 1.891719 1_555
O38 Ti6 2.116600 1_555
O38 Sr15 2.524654 1_555
O39 Ti7 1.996900 1_555
O39 Sr16 2.523846 1_555
O39 Sr3 2.704403 1_555
O39 Sr1 2.896456 1_555
O39 Sr14 3.155654 1_555
O40 Ti21 1.897071 1_555
O40 Ti7 2.240590 1_555
O40 Sr17 2.605787 1_555
O40 Sr7 2.777210 1_555
O40 Sr4 2.871707 1_555
O40 Sr19 3.182199 1_555
O41 Ti6 1.998809 1_556
O41 Sr18 2.509762 1_555
O41 Sr8 2.716033 1_555
O41 Sr5 2.904401 1_555
O41 Sr20 3.218777 1_555
O42 Ti5 2.022175 1_555
O42 Sr19 2.558105 1_555
O42 Sr9 2.744463 1_555
O42 Sr6 2.869779 1_555
O42 Sr17 3.170691 1_565
O43 Ti4 1.975782 1_556
O43 Sr20 2.548364 1_555
O43 Sr10 2.696990 1_555
O43 Sr18 3.185461 1_565
O44 Ti22 1.894336 1_555
O44 Ti3 2.266365 1_655
O44 Sr21 2.618887 1_555
O44 Sr4 2.829904 1_655
O44 Sr7 2.837097 1_555
O44 Sr23 3.145858 1_555
O45 Ti2 1.949071 1_655
O45 Sr22 2.513014 1_555
O45 Sr5 2.708903 1_655
O45 Sr8 2.908334 1_555
O46 Ti23 1.918316 1_555
O46 Ti1 2.135440 1_665
O46 Sr23 2.623463 1_555
O46 Sr6 2.781431 1_655
O46 Sr9 2.865872 1_555
O46 Sr21 3.136709 1_565
O47 Ti0 2.018571 1_656
O47 Sr10 2.916479 1_555
O48 Ti21 1.882540 1_555
O48 Ti8 2.210956 1_555
O48 Sr11 2.880258 1_555
O49 Ti9 1.987834 1_555
O49 Sr0 2.565079 1_555
O49 Sr14 2.716850 1_555
O49 Sr12 2.880846 1_555
O49 Sr1 3.170446 1_555
O50 Ti10 2.045141 1_555
O50 Sr15 2.708738 1_555
O51 Ti11 2.044019 1_555
O51 Sr1 2.563617 1_555
O51 Sr16 2.751773 1_555
O51 Sr13 2.867362 1_555
O51 Sr0 3.167519 1_565
O52 Ti22 1.910875 1_555
O52 Ti12 2.046685 1_555
O52 Sr11 2.806879 1_655
O53 Ti13 1.978750 1_555
O53 Sr2 2.588705 1_555
O53 Sr12 2.695180 1_655
O53 Sr14 2.932905 1_555
O53 Sr3 3.108969 1_555
O54 Ti23 1.898758 1_555
O54 Ti14 2.124784 1_555
O54 Sr15 2.919759 1_555
O55 Ti15 2.012342 1_555
O55 Sr3 2.545010 1_555
O55 Sr13 2.743754 1_655
O55 Sr16 2.884282 1_555
O55 Sr2 3.211587 1_565
O56 Ti16 1.899491 1_555
O56 Ti9 2.290620 1_555
O56 Sr4 2.621035 1_555
O56 Sr17 2.808484 1_555
O56 Sr21 2.878740 1_455
O56 Sr6 3.177250 1_545
O57 Ti8 1.961450 1_556
O57 Sr5 2.530329 1_555
O57 Sr18 2.688571 1_555
O57 Sr22 2.906934 1_455
O58 Ti17 1.915390 1_555
O58 Ti11 2.186319 1_555
O58 Sr6 2.577031 1_555
O58 Sr19 2.815580 1_555
O58 Sr23 2.842188 1_455
O58 Sr4 3.169368 1_555
O59 Ti10 1.993780 1_556
O59 Sr20 2.691973 1_555
O60 Ti18 1.911208 1_555
O60 Ti13 2.224166 1_555
O60 Sr7 2.593567 1_555
O60 Sr21 2.807150 1_555
O60 Sr17 2.822419 1_555
O60 Sr9 3.162799 1_545
O61 Ti19 1.872965 1_555
O61 Ti12 2.347584 1_556
O61 Sr8 2.571932 1_555
O61 Sr22 2.753373 1_555
O61 Sr18 2.960011 1_555
O62 Ti20 1.915491 1_555
O62 Ti15 2.232622 1_555
O62 Sr9 2.649970 1_555
O62 Sr19 2.799849 1_555
O62 Sr23 2.838171 1_555
O62 Sr7 3.125931 1_555
O63 Ti14 1.987976 1_556
O63 Sr10 2.502692 1_555
O63 Sr20 3.015187 1_555
O63 Sr8 3.174882 1_555
O64 Ti18 1.885913 1_555
O64 Sr17 2.533209 1_555
O65 Ti19 1.849305 1_555
O65 Sr18 2.468763 1_555
O65 Sr0 2.485503 1_555
O66 Ti20 1.952871 1_555
O66 Ti21 1.977403 1_555
O66 Sr19 2.536845 1_555
O67 Sr20 2.366642 1_555
O67 Sr1 2.384178 1_555
O68 Ti16 1.897127 1_655
O68 Ti23 2.007481 1_545
O68 Sr21 2.578348 1_555
O69 Sr22 2.365682 1_555
O69 Sr2 2.385607 1_555
O70 Ti22 1.936005 1_555
O70 Ti17 1.942033 1_655
O70 Sr23 2.624442 1_555
O71 Sr3 2.428022 1_555
O72 Ti17 1.927870 1_555
O72 Ti21 1.972716 1_555
O72 Sr11 2.514694 1_555
O72 Sr4 2.556756 1_555
O73 Sr5 2.361543 1_555
O73 Sr12 2.382419 1_555
O74 Ti16 1.868393 1_565
O74 Sr6 2.527905 1_555
O75 Sr13 2.456922 1_555
O76 Ti22 1.930680 1_555
O76 Ti20 1.955726 1_555
O76 Sr7 2.582467 1_555
O77 Sr8 2.361144 1_555
O77 Sr14 2.366905 1_555
O78 Ti18 1.928070 1_565
O78 Ti23 1.972522 1_555
O78 Sr15 2.515678 1_555
O78 Sr9 2.543979 1_555
O79 Ti19 1.846453 1_565
O79 Sr10 2.458635 1_555
O79 Sr16 2.477814 1_555
