# generated using pymatgen
data_ZrTeSe
_symmetry_space_group_name_H-M   'P 1'
_cell_length_a   4.60351100
_cell_length_b   4.60351100
_cell_length_c   7.28580300
_cell_angle_alpha   90.00000000
_cell_angle_beta   90.00000000
_cell_angle_gamma   90.00000000
_symmetry_Int_Tables_number   1
_chemical_formula_structural   ZrTeSe
_chemical_formula_sum   'Zr2 Te2 Se2'
_cell_volume   154.40302147
_cell_formula_units_Z   2
loop_
 _symmetry_equiv_pos_site_id
 _symmetry_equiv_pos_as_xyz
  1  'x, y, z'
loop_
 _atom_site_type_symbol
 _atom_site_label
 _atom_site_symmetry_multiplicity
 _atom_site_fract_x
 _atom_site_fract_y
 _atom_site_fract_z
 _atom_site_occupancy
  Zr  Zr0  1  0.25000000  0.25000000  0.25780700  1
  Zr  Zr1  1  0.75000000  0.75000000  0.74219300  1
  Te  Te0  1  0.25000000  0.75000000  0.00000000  1
  Te  Te1  1  0.75000000  0.25000000  0.00000000  1
  Se  Se0  1  0.25000000  0.25000000  0.62872300  1
  Se  Se1  1  0.75000000  0.75000000  0.37127700  1
loop_
_geom_bond_atom_site_label_1
_geom_bond_atom_site_label_2
_geom_bond_distance
_geom_bond_site_symmetry_2
Te0 Zr0 2.970893 1_565
Te0 Zr1 2.970893 1_554
Te0 Zr1 2.970893 1_454
Te0 Zr0 2.970893 1_555
Te1 Zr0 2.970893 1_655
Te1 Zr1 2.970893 1_554
Te1 Zr0 2.970893 1_555
Te1 Zr1 2.970893 1_544
Se0 Zr0 2.702421 1_555
Se0 Zr1 3.358515 1_445
Se0 Zr1 3.358515 1_555
Se0 Zr1 3.358515 1_455
Se0 Zr1 3.358515 1_545
Se1 Zr1 2.702421 1_555
Se1 Zr0 3.358515 1_555
Se1 Zr0 3.358515 1_655
Se1 Zr0 3.358515 1_565
Se1 Zr0 3.358515 1_665
