# generated using pymatgen
data_Ce3Sc
_symmetry_space_group_name_H-M   'P 1'
_cell_length_a   6.81867098
_cell_length_b   6.81867098
_cell_length_c   5.59821000
_cell_angle_alpha   90.00000000
_cell_angle_beta   90.00000000
_cell_angle_gamma   119.99999015
_symmetry_Int_Tables_number   1
_chemical_formula_structural   Ce3Sc
_chemical_formula_sum   'Ce6 Sc2'
_cell_volume   225.41319315
_cell_formula_units_Z   2
loop_
 _symmetry_equiv_pos_site_id
 _symmetry_equiv_pos_as_xyz
  1  'x, y, z'
loop_
 _atom_site_type_symbol
 _atom_site_label
 _atom_site_symmetry_multiplicity
 _atom_site_fract_x
 _atom_site_fract_y
 _atom_site_fract_z
 _atom_site_occupancy
  Ce  Ce0  1  0.17268600  0.34537100  0.25000000  1
  Ce  Ce1  1  0.65462900  0.82731400  0.25000000  1
  Ce  Ce2  1  0.17268600  0.82731400  0.25000000  1
  Ce  Ce3  1  0.82731400  0.65462900  0.75000000  1
  Ce  Ce4  1  0.34537100  0.17268600  0.75000000  1
  Ce  Ce5  1  0.82731400  0.17268600  0.75000000  1
  Sc  Sc0  1  0.33333300  0.66666700  0.75000000  1
  Sc  Sc1  1  0.66666700  0.33333300  0.25000000  1
loop_
_geom_bond_atom_site_label_1
_geom_bond_atom_site_label_2
_geom_bond_distance
_geom_bond_site_symmetry_2
Ce0 Ce2 3.286211 1_555
Ce0 Ce1 3.286211 1_555
Ce0 Sc0 3.381528 1_554
Ce0 Sc0 3.381528 1_555
Ce0 Sc1 3.410076 1_555
Ce0 Sc1 3.410077 1_455
Ce0 Ce4 3.463291 1_554
Ce0 Ce4 3.463291 1_555
Ce0 Ce5 3.463298 1_455
Ce0 Ce5 3.463298 1_454
Ce0 Ce2 3.532460 1_545
Ce0 Ce1 3.532461 1_445
Ce1 Ce2 3.286211 1_555
Ce1 Sc0 3.381528 1_554
Ce1 Sc0 3.381528 1_555
Ce1 Sc1 3.410076 1_555
Ce1 Sc1 3.410077 1_565
Ce1 Ce3 3.463291 1_555
Ce1 Ce3 3.463291 1_554
Ce1 Ce5 3.463298 1_565
Ce1 Ce5 3.463298 1_564
Ce1 Ce2 3.532460 1_655
Ce2 Sc0 3.381521 1_554
Ce2 Sc0 3.381521 1_555
Ce2 Sc1 3.410077 1_455
Ce2 Sc1 3.410077 1_565
Ce2 Ce3 3.463298 1_455
Ce2 Ce4 3.463298 1_564
Ce2 Ce3 3.463298 1_454
Ce2 Ce4 3.463298 1_565
Ce3 Ce5 3.286211 1_555
Ce3 Ce4 3.286211 1_555
Ce3 Sc1 3.381528 1_555
Ce3 Sc1 3.381528 1_556
Ce3 Sc0 3.410076 1_555
Ce3 Sc0 3.410077 1_655
Ce3 Ce5 3.532460 1_565
Ce3 Ce4 3.532461 1_665
Ce4 Ce5 3.286211 1_555
Ce4 Sc1 3.381528 1_555
Ce4 Sc1 3.381528 1_556
Ce4 Sc0 3.410076 1_555
Ce4 Sc0 3.410077 1_545
Ce4 Ce5 3.532460 1_455
Ce5 Sc1 3.381521 1_556
Ce5 Sc1 3.381521 1_555
Ce5 Sc0 3.410077 1_545
Ce5 Sc0 3.410077 1_655
