# generated using pymatgen
data_Rb2CeBr5
_symmetry_space_group_name_H-M   'P 1'
_cell_length_a   8.64391124
_cell_length_b   9.45392242
_cell_length_c   13.76269293
_cell_angle_alpha   90.00000000
_cell_angle_beta   90.00000000
_cell_angle_gamma   90.00000000
_symmetry_Int_Tables_number   1
_chemical_formula_structural   Rb2CeBr5
_chemical_formula_sum   'Rb8 Ce4 Br20'
_cell_volume   1124.67166304
_cell_formula_units_Z   4
loop_
 _symmetry_equiv_pos_site_id
 _symmetry_equiv_pos_as_xyz
  1  'x, y, z'
loop_
 _atom_site_type_symbol
 _atom_site_label
 _atom_site_symmetry_multiplicity
 _atom_site_fract_x
 _atom_site_fract_y
 _atom_site_fract_z
 _atom_site_occupancy
  Rb  Rb0  1  0.93957405  0.00620102  0.82905228  1
  Rb  Rb1  1  0.06042595  0.99379898  0.17094772  1
  Rb  Rb2  1  0.43957405  0.99379898  0.67094772  1
  Rb  Rb3  1  0.06042595  0.50620102  0.17094772  1
  Rb  Rb4  1  0.56042595  0.00620102  0.32905228  1
  Rb  Rb5  1  0.93957405  0.49379898  0.82905228  1
  Rb  Rb6  1  0.56042595  0.49379898  0.32905228  1
  Rb  Rb7  1  0.43957405  0.50620102  0.67094772  1
  Ce  Ce0  1  0.92468214  0.75000000  0.50565765  1
  Ce  Ce1  1  0.07531786  0.25000000  0.49434235  1
  Ce  Ce2  1  0.42468214  0.25000000  0.99434235  1
  Ce  Ce3  1  0.57531786  0.75000000  0.00565765  1
  Br  Br0  1  0.11732666  0.75000000  0.68159653  1
  Br  Br1  1  0.88267334  0.25000000  0.31840347  1
  Br  Br2  1  0.61732666  0.25000000  0.81840347  1
  Br  Br3  1  0.38267334  0.75000000  0.18159653  1
  Br  Br4  1  0.83061371  0.04496575  0.57120886  1
  Br  Br5  1  0.16938629  0.95503425  0.42879114  1
  Br  Br6  1  0.33061371  0.95503425  0.92879114  1
  Br  Br7  1  0.16938629  0.54496575  0.42879114  1
  Br  Br8  1  0.66938629  0.04496575  0.07120886  1
  Br  Br9  1  0.83061371  0.45503425  0.57120886  1
  Br  Br10  1  0.66938629  0.45503425  0.07120886  1
  Br  Br11  1  0.33061371  0.54496575  0.92879114  1
  Br  Br12  1  0.58024286  0.75000000  0.50923023  1
  Br  Br13  1  0.41975714  0.25000000  0.49076977  1
  Br  Br14  1  0.08024286  0.25000000  0.99076977  1
  Br  Br15  1  0.91975714  0.75000000  0.00923023  1
  Br  Br16  1  0.65686721  0.75000000  0.79727750  1
  Br  Br17  1  0.34313279  0.25000000  0.20272250  1
  Br  Br18  1  0.15686721  0.25000000  0.70272250  1
  Br  Br19  1  0.84313279  0.75000000  0.29727750  1
loop_
_geom_bond_atom_site_label_1
_geom_bond_atom_site_label_2
_geom_bond_distance
_geom_bond_site_symmetry_2
Br0 Ce0 2.938714 1_455
Br0 Rb0 3.513655 1_465
Br0 Rb5 3.513655 1_455
Br0 Rb7 3.618388 1_555
Br0 Rb2 3.618388 1_555
Br1 Ce1 2.938714 1_655
Br1 Rb1 3.513655 1_645
Br1 Rb3 3.513655 1_655
Br1 Rb4 3.618388 1_555
Br1 Rb6 3.618388 1_555
Br2 Ce2 2.938714 1_555
Br2 Rb2 3.513655 1_545
Br2 Rb7 3.513655 1_555
Br2 Rb5 3.618388 1_555
Br2 Rb0 3.618388 1_555
Br3 Ce3 2.938714 1_555
Br3 Rb6 3.513655 1_555
Br3 Rb4 3.513655 1_565
Br3 Rb1 3.618388 1_555
Br3 Rb3 3.618388 1_555
Br4 Ce0 3.041587 1_545
Br4 Ce1 3.057861 1_655
Br4 Rb2 3.680134 1_545
Br4 Rb0 3.689726 1_555
Br5 Ce1 3.041587 1_565
Br5 Ce0 3.057861 1_455
Br5 Rb4 3.680134 1_565
Br5 Rb1 3.689726 1_555
Br6 Ce2 3.041587 1_565
Br6 Ce3 3.057861 1_556
Br6 Rb0 3.680134 1_465
Br6 Rb2 3.689726 1_555
Br7 Ce1 3.041587 1_555
Br7 Ce0 3.057861 1_455
Br7 Rb6 3.680134 1_555
Br7 Rb3 3.689726 1_555
Br8 Ce3 3.041587 1_545
Br8 Ce2 3.057861 1_554
Br8 Rb1 3.680134 1_645
Br8 Rb4 3.689726 1_555
Br9 Ce0 3.041587 1_555
Br9 Ce1 3.057861 1_655
Br9 Rb7 3.680134 1_555
Br9 Rb5 3.689726 1_555
Br10 Ce3 3.041587 1_555
Br10 Ce2 3.057861 1_554
Br10 Rb3 3.680134 1_655
Br10 Rb6 3.689726 1_555
Br11 Ce2 3.041587 1_555
Br11 Ce3 3.057861 1_556
Br11 Rb5 3.680134 1_455
Br11 Rb7 3.689726 1_555
Br12 Ce0 2.977709 1_555
Br12 Rb2 3.427017 1_555
Br12 Rb7 3.427017 1_555
Br12 Rb4 3.470593 1_565
Br12 Rb6 3.470593 1_555
Br13 Ce1 2.977709 1_555
Br13 Rb4 3.427017 1_555
Br13 Rb6 3.427017 1_555
Br13 Rb7 3.470593 1_555
Br13 Rb2 3.470593 1_545
Br14 Ce2 2.977709 1_555
Br14 Rb5 3.427017 1_455
Br14 Rb0 3.427017 1_455
Br14 Rb1 3.470593 1_546
Br14 Rb3 3.470593 1_556
Br15 Ce3 2.977709 1_555
Br15 Rb1 3.427017 1_655
Br15 Rb3 3.427017 1_655
Br15 Rb0 3.470593 1_564
Br15 Rb5 3.470593 1_554
Br16 Ce3 2.953232 1_556
Br16 Rb2 3.444285 1_555
Br16 Rb7 3.444285 1_555
Br16 Rb5 3.468352 1_555
Br16 Rb0 3.468352 1_565
Br17 Ce2 2.953232 1_554
Br17 Rb4 3.444285 1_555
Br17 Rb6 3.444285 1_555
Br17 Rb1 3.468352 1_545
Br17 Rb3 3.468352 1_555
Br18 Ce1 2.953232 1_555
Br18 Rb5 3.444285 1_455
Br18 Rb0 3.444285 1_455
Br18 Rb7 3.468352 1_555
Br18 Rb2 3.468352 1_545
Br19 Ce0 2.953232 1_555
Br19 Rb1 3.444285 1_655
Br19 Rb3 3.444285 1_655
Br19 Rb4 3.468352 1_565
Br19 Rb6 3.468352 1_555
