# generated using pymatgen
data_K3Ag2(PO4)5
_symmetry_space_group_name_H-M   'P 1'
_cell_length_a   7.35470200
_cell_length_b   10.52334704
_cell_length_c   13.97825266
_cell_angle_alpha   102.04795559
_cell_angle_beta   87.56873625
_cell_angle_gamma   104.64467558
_symmetry_Int_Tables_number   1
_chemical_formula_structural   K3Ag2(PO4)5
_chemical_formula_sum   'K6 Ag4 P10 O40'
_cell_volume   1023.59781362
_cell_formula_units_Z   2
loop_
 _symmetry_equiv_pos_site_id
 _symmetry_equiv_pos_as_xyz
  1  'x, y, z'
loop_
 _atom_site_type_symbol
 _atom_site_label
 _atom_site_symmetry_multiplicity
 _atom_site_fract_x
 _atom_site_fract_y
 _atom_site_fract_z
 _atom_site_occupancy
  K  K0  1  0.60447500  0.95303500  0.10409500  1
  K  K1  1  0.39552500  0.04696500  0.89590500  1
  K  K2  1  0.34236200  0.37180800  0.75042200  1
  K  K3  1  0.65763800  0.62819200  0.24957800  1
  K  K4  1  0.27672400  0.80699100  0.48121900  1
  K  K5  1  0.72327600  0.19300900  0.51878100  1
  Ag  Ag0  1  0.70117000  0.53867000  0.94550300  1
  Ag  Ag1  1  0.29883000  0.46133000  0.05449700  1
  Ag  Ag2  1  0.20483400  0.16128600  0.15313200  1
  Ag  Ag3  1  0.79516600  0.83871400  0.84686800  1
  P  P0  1  0.68086200  0.32622200  0.09656600  1
  P  P1  1  0.31913800  0.67377800  0.90343400  1
  P  P2  1  0.06106300  0.80355300  0.04395900  1
  P  P3  1  0.93893700  0.19644700  0.95604100  1
  P  P4  1  0.80039600  0.26296200  0.78121900  1
  P  P5  1  0.19960400  0.73703800  0.21878100  1
  P  P6  1  0.81252000  0.50391700  0.71022200  1
  P  P7  1  0.18748000  0.49608300  0.28977800  1
  P  P8  1  0.16466900  0.71986200  0.72584600  1
  P  P9  1  0.83533100  0.28013800  0.27415400  1
  O  O0  1  0.35750100  0.54481700  0.91902300  1
  O  O1  1  0.64249900  0.45518300  0.08097700  1
  O  O2  1  0.13339800  0.69007500  0.96527700  1
  O  O3  1  0.86660200  0.30992500  0.03472300  1
  O  O4  1  0.75480000  0.36727400  0.20872200  1
  O  O5  1  0.24520000  0.63272600  0.79127800  1
  O  O6  1  0.47057000  0.80208300  0.92050300  1
  O  O7  1  0.52943000  0.19791700  0.07949700  1
  O  O8  1  0.86340200  0.79446800  0.01210600  1
  O  O9  1  0.13659800  0.20553200  0.98789400  1
  O  O10  1  0.79310500  0.06505600  0.93943700  1
  O  O11  1  0.20689500  0.93494400  0.06056300  1
  O  O12  1  0.96200600  0.26097100  0.85879500  1
  O  O13  1  0.03799400  0.73902900  0.14120500  1
  O  O14  1  0.62195500  0.27945100  0.83409600  1
  O  O15  1  0.37804500  0.72054900  0.16590400  1
  O  O16  1  0.20496000  0.84581600  0.30699600  1
  O  O17  1  0.79504000  0.15418400  0.69300400  1
  O  O18  1  0.08429500  0.59308200  0.24587800  1
  O  O19  1  0.91570500  0.40691800  0.75412200  1
  O  O20  1  0.72854200  0.58691700  0.79414900  1
  O  O21  1  0.27145800  0.41308300  0.20585100  1
  O  O22  1  0.68548600  0.42187900  0.62719400  1
  O  O23  1  0.31451400  0.57812100  0.37280600  1
  O  O24  1  0.09618500  0.82757700  0.79597600  1
  O  O25  1  0.90381500  0.17242300  0.20402400  1
  O  O26  1  0.69872000  0.24319000  0.35092100  1
  O  O27  1  0.30128000  0.75681000  0.64907900  1
  O  O28  1  0.99273200  0.59957200  0.66955600  1
  O  O29  1  0.00726800  0.40042800  0.33044400  1
  O  O30  1  0.27701000  0.13056300  0.28437600  1
  O  O31  1  0.72299000  0.86943700  0.71562400  1
  O  O32  1  0.74749400  0.91424400  0.40519100  1
  O  O33  1  0.25250600  0.08575600  0.59480900  1
  O  O34  1  0.82593000  0.93926000  0.32814000  1
  O  O35  1  0.17407000  0.06074000  0.67186000  1
  O  O36  1  0.70785300  0.60928800  0.46101700  1
  O  O37  1  0.29214700  0.39071200  0.53898300  1
  O  O38  1  0.77344200  0.71869800  0.51523300  1
  O  O39  1  0.22655800  0.28130200  0.48476700  1
loop_
_geom_bond_atom_site_label_1
_geom_bond_atom_site_label_2
_geom_bond_distance
_geom_bond_site_symmetry_2
K0 O6 2.792976 1_554
K0 O7 2.858122 1_565
K0 O15 2.864521 1_555
K0 O25 2.910783 1_565
K0 O8 2.927047 1_555
K0 O10 2.940515 1_564
K0 O11 2.962750 1_555
K1 O7 2.792976 1_556
K1 O6 2.858122 1_545
K1 O14 2.864521 1_555
K1 O24 2.910783 1_545
K1 O9 2.927047 1_555
K1 O11 2.940515 1_546
K1 O10 2.962750 1_555
K2 O0 2.647621 1_555
K2 O14 2.868838 1_555
K2 O5 2.945969 1_555
K2 O22 2.991797 1_555
K2 O37 3.047366 1_555
K2 O20 3.143793 1_555
K2 O35 3.165358 1_555
K2 O12 3.195147 1_455
K2 O19 3.248125 1_455
K2 O33 3.257647 1_555
K3 O1 2.647621 1_555
K3 O15 2.868838 1_555
K3 O4 2.945969 1_555
K3 O23 2.991797 1_555
K3 O36 3.047366 1_555
K3 O21 3.143793 1_555
K3 O34 3.165358 1_555
K3 O13 3.195147 1_655
K3 O18 3.248125 1_655
K3 O32 3.257647 1_555
K4 O27 2.533468 1_555
K4 O23 2.636967 1_555
K4 O16 2.647606 1_555
K4 O33 3.074770 1_565
K5 O26 2.533468 1_555
K5 O22 2.636967 1_555
K5 O17 2.647606 1_555
K5 O32 3.074770 1_545
Ag0 O1 2.231065 1_556
Ag0 O20 2.266042 1_555
Ag0 O0 2.588805 1_555
Ag0 O8 2.638267 1_556
Ag0 O14 2.775914 1_555
Ag1 O0 2.231065 1_554
Ag1 O21 2.266042 1_555
Ag1 O1 2.588805 1_555
Ag1 O9 2.638267 1_554
Ag1 O15 2.775914 1_555
Ag2 O30 2.041798 1_555
Ag2 O25 2.320334 1_455
Ag2 O11 2.465327 1_545
Ag2 O21 2.522552 1_555
Ag2 O7 2.529644 1_555
Ag2 O9 2.543424 1_554
Ag3 O31 2.041798 1_555
Ag3 O24 2.320334 1_655
Ag3 O10 2.465327 1_565
Ag3 O20 2.522552 1_555
Ag3 O6 2.529644 1_555
Ag3 O8 2.543424 1_556
O0 P1 1.513637 1_555
O1 P0 1.513637 1_555
O2 P1 1.612206 1_555
O2 P2 1.625427 1_556
O3 P0 1.612206 1_555
O3 P3 1.625427 1_554
O4 P0 1.615850 1_555
O4 P9 1.642817 1_555
O5 P1 1.615850 1_555
O5 P8 1.642817 1_555
O6 P1 1.499352 1_555
O7 P0 1.499352 1_555
O8 P2 1.512484 1_655
O9 P3 1.512484 1_455
O10 P3 1.501100 1_555
O11 P2 1.501100 1_555
O12 P3 1.626379 1_555
O12 P4 1.649392 1_555
O13 P2 1.626379 1_555
O13 P5 1.649392 1_555
O14 P4 1.509328 1_555
O15 P5 1.509328 1_555
O16 P5 1.491471 1_555
O17 P4 1.491471 1_555
O18 P7 1.639243 1_555
O18 P5 1.649321 1_555
O19 P6 1.639243 1_555
O19 P4 1.649321 1_555
O20 P6 1.517957 1_555
O21 P7 1.517957 1_555
O22 P6 1.493671 1_555
O23 P7 1.493671 1_555
O24 P8 1.510784 1_555
O25 P9 1.510784 1_555
O26 P9 1.482333 1_555
O27 P8 1.482333 1_555
O28 P6 1.610410 1_555
O28 P8 1.637004 1_655
O29 P7 1.610410 1_555
O29 P9 1.637004 1_455
O32 O34 1.245374 1_555
O33 O35 1.245374 1_555
O36 O38 1.232306 1_555
O37 O39 1.232306 1_555
