# generated using pymatgen
data_Ti2CrSi6
_symmetry_space_group_name_H-M   'P 1'
_cell_length_a   4.66678994
_cell_length_b   4.66678994
_cell_length_c   6.44267300
_cell_angle_alpha   90.00000000
_cell_angle_beta   90.00000000
_cell_angle_gamma   120.58192250
_symmetry_Int_Tables_number   1
_chemical_formula_structural   Ti2CrSi6
_chemical_formula_sum   'Ti2 Cr1 Si6'
_cell_volume   120.79712863
_cell_formula_units_Z   1
loop_
 _symmetry_equiv_pos_site_id
 _symmetry_equiv_pos_as_xyz
  1  'x, y, z'
loop_
 _atom_site_type_symbol
 _atom_site_label
 _atom_site_symmetry_multiplicity
 _atom_site_fract_x
 _atom_site_fract_y
 _atom_site_fract_z
 _atom_site_occupancy
  Ti  Ti0  1  0.50000000  0.00000000  0.66531100  1
  Ti  Ti1  1  0.00000000  0.50000000  0.33468900  1
  Cr  Cr0  1  0.50000000  0.50000000  0.00000000  1
  Si  Si0  1  0.16511500  0.83488500  0.00000000  1
  Si  Si1  1  0.16261700  0.31992900  0.67304100  1
  Si  Si2  1  0.68007100  0.83738300  0.32695900  1
  Si  Si3  1  0.83488500  0.16511500  0.00000000  1
  Si  Si4  1  0.83738300  0.68007100  0.67304100  1
  Si  Si5  1  0.31992900  0.16261700  0.32695900  1
loop_
_geom_bond_atom_site_label_1
_geom_bond_atom_site_label_2
_geom_bond_distance
_geom_bond_site_symmetry_2
Cr0 Si4 2.505233 1_554
Cr0 Si2 2.505233 1_555
Cr0 Si5 2.505233 1_555
Cr0 Si1 2.505233 1_554
Cr0 Si3 2.672250 1_565
Cr0 Si0 2.672250 1_655
Cr0 Si3 2.672250 1_455
Cr0 Si0 2.672250 1_545
Cr0 Si3 2.714816 1_555
Cr0 Si0 2.714816 1_555
Si0 Si4 2.484780 1_454
Si0 Si5 2.484780 1_565
Si0 Ti1 2.541739 1_555
Si0 Ti0 2.541739 1_564
Si0 Si3 2.677080 1_465
Si0 Si3 2.691351 1_565
Si0 Si3 2.691351 1_455
Si1 Si3 2.484780 1_456
Si1 Si5 2.568634 1_555
Si1 Si4 2.570727 1_445
Si1 Ti1 2.585146 1_555
Si1 Ti0 2.663838 1_455
Si1 Ti0 2.665091 1_555
Si1 Si4 2.712114 1_555
Si1 Ti0 2.733038 1_565
Si1 Si4 2.779246 1_455
Si2 Si3 2.484780 1_565
Si2 Si4 2.568634 1_555
Si2 Si5 2.570727 1_665
Si2 Ti0 2.585146 1_565
Si2 Ti1 2.663838 1_665
Si2 Ti1 2.665091 1_655
Si2 Si5 2.712114 1_555
Si2 Ti1 2.733038 1_555
Si2 Si5 2.779246 1_565
Si3 Ti1 2.541739 1_655
Si3 Ti0 2.541739 1_554
Si4 Ti1 2.585146 1_655
Si4 Ti0 2.663838 1_665
Si4 Ti0 2.665091 1_565
Si4 Ti0 2.733038 1_555
Si5 Ti0 2.585146 1_555
Si5 Ti1 2.663838 1_545
Si5 Ti1 2.665091 1_555
Si5 Ti1 2.733038 1_655
