# generated using pymatgen
data_Mg6GaFe
_symmetry_space_group_name_H-M   'P 1'
_cell_length_a   4.84139000
_cell_length_b   6.11461200
_cell_length_c   10.48223200
_cell_angle_alpha   90.00000000
_cell_angle_beta   90.00000000
_cell_angle_gamma   90.00000000
_symmetry_Int_Tables_number   1
_chemical_formula_structural   Mg6GaFe
_chemical_formula_sum   'Mg12 Ga2 Fe2'
_cell_volume   310.30783456
_cell_formula_units_Z   2
loop_
 _symmetry_equiv_pos_site_id
 _symmetry_equiv_pos_as_xyz
  1  'x, y, z'
loop_
 _atom_site_type_symbol
 _atom_site_label
 _atom_site_symmetry_multiplicity
 _atom_site_fract_x
 _atom_site_fract_y
 _atom_site_fract_z
 _atom_site_occupancy
  Mg  Mg0  1  0.00000000  0.25386500  0.08511900  1
  Mg  Mg1  1  0.00000000  0.74613500  0.08511900  1
  Mg  Mg2  1  0.00000000  0.50000000  0.83388100  1
  Mg  Mg3  1  0.50000000  0.23866500  0.91102000  1
  Mg  Mg4  1  0.50000000  0.76133500  0.91102000  1
  Mg  Mg5  1  0.50000000  0.50000000  0.66686000  1
  Mg  Mg6  1  0.00000000  0.75386500  0.58511900  1
  Mg  Mg7  1  0.00000000  0.24613500  0.58511900  1
  Mg  Mg8  1  0.00000000  0.00000000  0.33388100  1
  Mg  Mg9  1  0.50000000  0.73866500  0.41102000  1
  Mg  Mg10  1  0.50000000  0.26133500  0.41102000  1
  Mg  Mg11  1  0.50000000  0.00000000  0.16686000  1
  Ga  Ga0  1  0.50000000  0.50000000  0.17576100  1
  Ga  Ga1  1  0.50000000  0.00000000  0.67576100  1
  Fe  Fe0  1  0.00000000  0.50000000  0.33122000  1
  Fe  Fe1  1  0.00000000  0.00000000  0.83122000  1
loop_
_geom_bond_atom_site_label_1
_geom_bond_atom_site_label_2
_geom_bond_distance
_geom_bond_site_symmetry_2
Mg0 Mg11 3.000585 1_455
Mg0 Mg11 3.000585 1_555
Mg0 Mg1 3.010040 1_555
Mg0 Mg3 3.032957 1_554
Mg0 Mg3 3.032957 1_454
Mg0 Mg2 3.033248 1_554
Mg0 Mg8 3.034645 1_555
Mg0 Mg1 3.104572 1_545
Mg1 Mg11 3.000585 1_465
Mg1 Mg11 3.000585 1_565
Mg1 Mg4 3.032957 1_454
Mg1 Mg4 3.032957 1_554
Mg1 Mg2 3.033248 1_554
Mg1 Mg8 3.034645 1_565
Mg2 Mg5 2.987457 1_555
Mg2 Mg5 2.987457 1_455
Mg2 Mg4 3.011156 1_455
Mg2 Mg3 3.011156 1_555
Mg2 Mg4 3.011156 1_555
Mg2 Mg3 3.011156 1_455
Mg2 Mg6 3.034645 1_555
Mg2 Mg7 3.034645 1_555
Mg3 Mg4 2.918688 1_545
Mg3 Mg5 3.017236 1_555
Mg3 Mg4 3.195924 1_555
Mg4 Mg5 3.017236 1_555
Mg5 Mg7 3.000585 1_655
Mg5 Mg6 3.000585 1_555
Mg5 Mg6 3.000585 1_655
Mg5 Mg7 3.000585 1_555
Mg5 Mg9 3.053129 1_555
Mg6 Mg7 3.010040 1_565
Mg6 Mg9 3.032957 1_555
Mg6 Mg9 3.032957 1_455
Mg6 Mg8 3.033248 1_565
Mg6 Mg7 3.104572 1_555
Mg7 Mg8 3.033248 1_555
Mg8 Mg9 3.011156 1_445
Mg8 Mg9 3.011156 1_545
Mg10 Mg9 2.918688 1_555
Mg10 Mg8 3.011156 1_655
Mg10 Mg8 3.011156 1_555
Mg10 Mg11 3.017236 1_555
Mg10 Mg7 3.032957 1_555
Mg10 Mg7 3.032957 1_655
Mg10 Mg5 3.053129 1_555
Mg10 Mg9 3.195924 1_545
Mg11 Mg8 2.987457 1_655
Mg11 Mg8 2.987457 1_555
Mg11 Mg9 3.017236 1_545
Mg11 Mg3 3.053129 1_554
Mg11 Mg4 3.053129 1_544
Ga0 Mg9 2.865490 1_555
Ga0 Mg10 2.865490 1_555
Ga0 Mg1 3.004596 1_655
Ga0 Mg1 3.004596 1_555
Ga0 Mg0 3.004596 1_555
Ga0 Mg0 3.004596 1_655
Ga0 Mg11 3.058729 1_565
Ga0 Mg11 3.058729 1_555
Ga0 Mg4 3.202270 1_554
Ga0 Mg3 3.202270 1_554
Ga1 Mg4 2.865490 1_545
Ga1 Mg3 2.865490 1_555
Ga1 Mg7 3.004596 1_655
Ga1 Mg6 3.004596 1_645
Ga1 Mg6 3.004596 1_545
Ga1 Mg7 3.004596 1_555
Ga1 Mg5 3.058729 1_545
Ga1 Mg5 3.058729 1_555
Ga1 Mg9 3.202270 1_545
Ga1 Mg10 3.202270 1_555
Fe0 Ga0 2.918085 1_555
Fe0 Ga0 2.918085 1_455
Fe0 Mg10 2.947737 1_455
Fe0 Mg10 2.947737 1_555
Fe0 Mg9 2.947737 1_455
Fe0 Mg9 2.947737 1_555
Fe0 Mg0 2.986616 1_555
Fe0 Mg1 2.986616 1_555
Fe0 Mg8 3.057433 1_565
Fe0 Mg8 3.057433 1_555
Fe0 Mg6 3.081037 1_555
Fe0 Mg7 3.081037 1_555
Fe1 Ga1 2.918085 1_455
Fe1 Ga1 2.918085 1_555
Fe1 Mg4 2.947737 1_545
Fe1 Mg3 2.947737 1_455
Fe1 Mg3 2.947737 1_555
Fe1 Mg4 2.947737 1_445
Fe1 Mg6 2.986616 1_545
Fe1 Mg7 2.986616 1_555
Fe1 Mg2 3.057433 1_555
Fe1 Mg2 3.057433 1_545
Fe1 Mg0 3.081037 1_556
Fe1 Mg1 3.081037 1_546
