# generated using pymatgen
data_Rb3MnF7
_symmetry_space_group_name_H-M   'P 1'
_cell_length_a   7.96304390
_cell_length_b   7.96304390
_cell_length_c   5.86832421
_cell_angle_alpha   90.00000000
_cell_angle_beta   90.00000000
_cell_angle_gamma   90.00000000
_symmetry_Int_Tables_number   1
_chemical_formula_structural   Rb3MnF7
_chemical_formula_sum   'Rb6 Mn2 F14'
_cell_volume   372.11083810
_cell_formula_units_Z   2
loop_
 _symmetry_equiv_pos_site_id
 _symmetry_equiv_pos_as_xyz
  1  'x, y, z'
loop_
 _atom_site_type_symbol
 _atom_site_label
 _atom_site_symmetry_multiplicity
 _atom_site_fract_x
 _atom_site_fract_y
 _atom_site_fract_z
 _atom_site_occupancy
  Rb  Rb0  1  0.18927691  0.68927691  0.50000000  1
  Rb  Rb1  1  0.68927691  0.81072309  0.50000000  1
  Rb  Rb2  1  0.31072309  0.18927691  0.50000000  1
  Rb  Rb3  1  0.81072309  0.31072309  0.50000000  1
  Rb  Rb4  1  0.50000000  0.50000000  -0.00000000  1
  Rb  Rb5  1  0.00000000  0.00000000  -0.00000000  1
  Mn  Mn0  1  0.00000000  0.50000000  -0.00000000  1
  Mn  Mn1  1  0.50000000  -0.00000000  -0.00000000  1
  F  F0  1  0.38765807  0.88765807  0.77866050  1
  F  F1  1  0.61234193  0.11234193  0.77866050  1
  F  F2  1  0.11234193  0.38765807  0.77866050  1
  F  F3  1  0.88765807  0.61234193  0.77866050  1
  F  F4  1  0.38765807  0.88765807  0.22133950  1
  F  F5  1  0.88765807  0.61234193  0.22133950  1
  F  F6  1  0.11234193  0.38765807  0.22133950  1
  F  F7  1  0.61234193  0.11234193  0.22133950  1
  F  F8  1  0.00000000  -0.00000000  0.50000000  1
  F  F9  1  0.50000000  0.50000000  0.50000000  1
  F  F10  1  0.83909490  0.33909490  -0.00000000  1
  F  F11  1  0.33909490  0.16090510  -0.00000000  1
  F  F12  1  0.66090510  0.83909490  -0.00000000  1
  F  F13  1  0.16090510  0.66090510  -0.00000000  1
loop_
_geom_bond_atom_site_label_1
_geom_bond_atom_site_label_2
_geom_bond_distance
_geom_bond_site_symmetry_2
F0 Mn1 1.813196 1_566
F0 Rb0 2.768596 1_555
F0 Rb1 2.969528 1_555
F0 Rb2 2.969528 1_565
F1 Mn1 1.813196 1_556
F1 Rb3 2.768596 1_555
F1 Rb1 2.969528 1_545
F1 Rb2 2.969528 1_555
F2 Mn0 1.813196 1_556
F2 Rb2 2.768596 1_555
F2 Rb3 2.969528 1_455
F2 Rb0 2.969528 1_555
F3 Mn0 1.813196 1_656
F3 Rb1 2.768596 1_555
F3 Rb3 2.969528 1_555
F3 Rb0 2.969528 1_655
F4 Mn1 1.813196 1_565
F4 Rb0 2.768596 1_555
F4 Rb1 2.969528 1_555
F4 Rb2 2.969528 1_565
F5 Mn0 1.813196 1_655
F5 Rb1 2.768596 1_555
F5 Rb3 2.969528 1_555
F5 Rb0 2.969528 1_655
F6 Mn0 1.813196 1_555
F6 Rb2 2.768596 1_555
F6 Rb3 2.969528 1_455
F6 Rb0 2.969528 1_555
F7 Mn1 1.813196 1_555
F7 Rb3 2.768596 1_555
F7 Rb1 2.969528 1_545
F7 Rb2 2.969528 1_555
F8 Rb3 2.897220 1_455
F8 Rb2 2.897220 1_555
F8 Rb0 2.897220 1_545
F8 Rb1 2.897220 1_445
F8 Rb5 2.934162 1_555
F8 Rb5 2.934162 1_556
F9 Rb0 2.897220 1_555
F9 Rb1 2.897220 1_555
F9 Rb2 2.897220 1_555
F9 Rb3 2.897220 1_555
F9 Rb4 2.934162 1_555
F9 Rb4 2.934162 1_556
F10 Mn0 1.812024 1_655
F10 Rb3 2.951507 1_554
F10 Rb3 2.951507 1_555
F10 Rb4 2.988803 1_555
F10 Rb5 2.988803 1_655
F11 Mn1 1.812024 1_555
F11 Rb2 2.951507 1_554
F11 Rb2 2.951507 1_555
F11 Rb4 2.988803 1_555
F11 Rb5 2.988803 1_555
F12 Mn1 1.812024 1_565
F12 Rb1 2.951507 1_555
F12 Rb1 2.951507 1_554
F12 Rb4 2.988803 1_555
F12 Rb5 2.988803 1_665
F13 Mn0 1.812024 1_555
F13 Rb0 2.951507 1_555
F13 Rb0 2.951507 1_554
F13 Rb4 2.988803 1_555
F13 Rb5 2.988803 1_565
