# generated using pymatgen
data_Ba2Tl2Ni3O10
_symmetry_space_group_name_H-M   'P 1'
_cell_length_a   3.68127000
_cell_length_b   3.68817424
_cell_length_c   19.78587564
_cell_angle_alpha   93.64294293
_cell_angle_beta   94.58368503
_cell_angle_gamma   89.81491571
_symmetry_Int_Tables_number   1
_chemical_formula_structural   Ba2Tl2Ni3O10
_chemical_formula_sum   'Ba2 Tl2 Ni3 O10'
_cell_volume   267.23538216
_cell_formula_units_Z   1
loop_
 _symmetry_equiv_pos_site_id
 _symmetry_equiv_pos_as_xyz
  1  'x, y, z'
loop_
 _atom_site_type_symbol
 _atom_site_label
 _atom_site_symmetry_multiplicity
 _atom_site_fract_x
 _atom_site_fract_y
 _atom_site_fract_z
 _atom_site_occupancy
  Ba  Ba0  1  0.10362400  0.16675900  0.28053100  1
  Ba  Ba1  1  0.80400000  0.82585700  0.71872500  1
  Tl  Tl0  1  0.68094300  0.72440400  0.43792100  1
  Tl  Tl1  1  0.23664500  0.26802700  0.56122400  1
  Ni  Ni0  1  0.34821200  0.36523700  0.83574700  1
  Ni  Ni1  1  0.54807300  0.62560200  0.16347900  1
  Ni  Ni2  1  0.41091700  0.52431700  0.99982300  1
  O  O0  1  0.34214800  0.85948000  0.81735400  1
  O  O1  1  0.28477200  0.30611400  0.66409300  1
  O  O2  1  0.84187500  0.36074400  0.81922900  1
  O  O3  1  0.76534700  0.76269600  0.54450700  1
  O  O4  1  0.90985800  0.52468500  0.00416600  1
  O  O5  1  0.05529000  0.63221700  0.18150200  1
  O  O6  1  0.63376100  0.68715600  0.33504800  1
  O  O7  1  0.55589700  0.13129100  0.18043900  1
  O  O8  1  0.22656200  0.23193900  0.45455900  1
  O  O9  1  0.40253900  0.02217800  0.99470600  1
loop_
_geom_bond_atom_site_label_1
_geom_bond_atom_site_label_2
_geom_bond_distance
_geom_bond_site_symmetry_2
Ba0 O5 2.680967 1_555
Ba0 O7 2.683994 1_555
Ba0 O5 2.685744 1_545
Ba0 O7 2.708371 1_455
Ba0 O6 2.800832 1_445
Ba0 O6 2.802284 1_455
Ba0 O6 2.825729 1_545
Ba0 O6 2.842639 1_555
Ba1 O0 2.664797 1_655
Ba1 O0 2.685600 1_555
Ba1 O2 2.702609 1_555
Ba1 O2 2.706386 1_565
Ba1 O1 2.801885 1_565
Ba1 O1 2.815422 1_555
Ba1 O1 2.827697 1_655
Ba1 O1 2.829761 1_665
Ni0 O2 1.866438 1_455
Ni0 O2 1.871828 1_555
Ni0 O0 1.877515 1_545
Ni0 O0 1.881083 1_555
Ni1 O5 1.872691 1_655
Ni1 O7 1.873817 1_565
Ni1 O7 1.874302 1_555
Ni1 O5 1.876327 1_555
Ni2 O4 1.831874 1_556
Ni2 O9 1.845423 1_565
Ni2 O9 1.848529 1_555
Ni2 O4 1.853373 1_456
O1 Tl1 2.024840 1_555
O3 Tl0 2.102770 1_555
O3 Tl1 2.532308 1_655
O3 Tl1 2.538491 1_665
O3 Tl1 2.715169 1_565
O3 Tl1 2.725530 1_555
O6 Tl0 2.024880 1_555
O8 Tl1 2.103557 1_555
O8 Tl0 2.527617 1_555
O8 Tl0 2.529761 1_545
O8 Tl0 2.718160 1_455
O8 Tl0 2.736230 1_445
