# generated using pymatgen
data_Y3(Al3Os)4
_symmetry_space_group_name_H-M   'P 1'
_cell_length_a   8.78343655
_cell_length_b   8.78344481
_cell_length_c   9.52669487
_cell_angle_alpha   89.99994525
_cell_angle_beta   89.99999930
_cell_angle_gamma   119.99995148
_symmetry_Int_Tables_number   1
_chemical_formula_structural   Y3(Al3Os)4
_chemical_formula_sum   'Y6 Al24 Os8'
_cell_volume   636.50591585
_cell_formula_units_Z   2
loop_
 _symmetry_equiv_pos_site_id
 _symmetry_equiv_pos_as_xyz
  1  'x, y, z'
loop_
 _atom_site_type_symbol
 _atom_site_label
 _atom_site_symmetry_multiplicity
 _atom_site_fract_x
 _atom_site_fract_y
 _atom_site_fract_z
 _atom_site_occupancy
  Y  Y0  1  0.19308286  0.38616592  0.25000123  1
  Y  Y1  1  0.80692313  0.61384589  0.74999921  1
  Y  Y2  1  0.61383476  0.80691799  0.25000120  1
  Y  Y3  1  0.38615604  0.19307491  0.74999936  1
  Y  Y4  1  0.19308296  0.80691797  0.25000153  1
  Y  Y5  1  0.80691907  0.19307482  0.74999962  1
  Al  Al0  1  0.33333340  0.66666690  0.01049859  1
  Al  Al1  1  0.66666693  0.33333413  0.98949282  1
  Al  Al2  1  0.66666758  0.33333441  0.51050398  1
  Al  Al3  1  0.33333322  0.66666531  0.48950737  1
  Al  Al4  1  0.16316216  0.32632381  0.57467156  1
  Al  Al5  1  0.83683573  0.67367135  0.42533167  1
  Al  Al6  1  0.67367782  0.83683826  0.57467071  1
  Al  Al7  1  0.83683584  0.67367200  0.07467389  1
  Al  Al8  1  0.32633003  0.16316570  0.42533136  1
  Al  Al9  1  0.16316221  0.32632429  0.92532433  1
  Al  Al10  1  0.16316099  0.83683828  0.57467073  1
  Al  Al11  1  0.32633012  0.16316563  0.07467383  1
  Al  Al12  1  0.83683605  0.16316563  0.42533130  1
  Al  Al13  1  0.67367565  0.83683878  0.92532380  1
  Al  Al14  1  0.83683545  0.16316564  0.07467393  1
  Al  Al15  1  0.16316328  0.83683882  0.92532390  1
  Al  Al16  1  0.56119120  0.12238225  0.25000182  1
  Al  Al17  1  0.43880656  0.87761289  0.74999478  1
  Al  Al18  1  0.87762172  0.43881210  0.25000318  1
  Al  Al19  1  0.12237177  0.56118455  0.74999783  1
  Al  Al20  1  0.56118991  0.43881248  0.25000321  1
  Al  Al21  1  0.43881353  0.56118425  0.74999781  1
  Al  Al22  1  -0.00000020  0.00000069  0.24999816  1
  Al  Al23  1  0.00000086  0.00000073  0.75000268  1
  Os  Os0  1  0.49999588  -0.00000864  -0.00000431  1
  Os  Os1  1  0.00000801  0.50000434  -0.00000036  1
  Os  Os2  1  0.49999630  -0.00000799  0.49999864  1
  Os  Os3  1  0.49999626  0.50000467  -0.00000003  1
  Os  Os4  1  0.00000751  0.50000398  0.50000048  1
  Os  Os5  1  0.49999677  0.50000395  0.50000102  1
  Os  Os6  1  0.00000013  0.00000093  -0.00001423  1
  Os  Os7  1  0.00000051  0.00000035  0.50001441  1
loop_
_geom_bond_atom_site_label_1
_geom_bond_atom_site_label_2
_geom_bond_distance
_geom_bond_site_symmetry_2
Al0 Os0 2.537469 1_565
Al0 Os3 2.537470 1_555
Al0 Os1 2.537473 1_555
Al0 Y0 3.123877 1_555
Al0 Y2 3.123880 1_555
Al0 Y4 3.123883 1_555
Al1 Os1 2.537595 1_656
Al1 Os3 2.537595 1_556
Al1 Os0 2.537608 1_556
Al1 Y3 3.123866 1_555
Al1 Y5 3.123867 1_555
Al1 Y1 3.123870 1_555
Al2 Os4 2.537585 1_655
Al2 Os5 2.537587 1_555
Al2 Os2 2.537607 1_555
Al2 Y5 3.123880 1_555
Al2 Y3 3.123881 1_555
Al2 Y1 3.123884 1_555
Al3 Os5 2.537466 1_555
Al3 Os4 2.537473 1_555
Al3 Os2 2.537482 1_565
Al3 Y0 3.123897 1_555
Al3 Y2 3.123904 1_555
Al3 Y4 3.123909 1_555
Al4 Os7 2.582128 1_555
Al4 Os5 2.659513 1_555
Al4 Os4 2.659516 1_555
Al4 Y0 3.126351 1_555
Al4 Y3 3.207549 1_555
Al4 Y5 3.207553 1_455
Al5 Os7 2.582235 1_665
Al5 Os4 2.659539 1_655
Al5 Os5 2.659540 1_555
Al5 Y1 3.126306 1_555
Al5 Y4 3.207595 1_655
Al5 Y2 3.207599 1_555
Al6 Os7 2.582116 1_665
Al6 Os5 2.659513 1_555
Al6 Os2 2.659522 1_565
Al6 Y2 3.126345 1_555
Al6 Y1 3.207521 1_555
Al6 Y5 3.207525 1_565
Al7 Os6 2.582247 1_665
Al7 Os3 2.659557 1_555
Al7 Os1 2.659559 1_655
Al7 Y1 3.126375 1_554
Al7 Y2 3.207581 1_555
Al7 Y4 3.207584 1_655
Al8 Os7 2.582236 1_555
Al8 Os5 2.659539 1_555
Al8 Os2 2.659541 1_555
Al8 Y3 3.126312 1_555
Al8 Y0 3.207595 1_555
Al8 Y4 3.207601 1_545
Al9 Os6 2.582137 1_556
Al9 Os1 2.659523 1_556
Al9 Os3 2.659523 1_556
Al9 Y0 3.126413 1_556
Al9 Y5 3.207538 1_455
Al9 Y3 3.207539 1_555
Al10 Os7 2.582115 1_565
Al10 Os4 2.659514 1_555
Al10 Os2 2.659523 1_565
Al10 Y4 3.126341 1_555
Al10 Y1 3.207523 1_455
Al10 Y3 3.207524 1_565
Al11 Os6 2.582254 1_555
Al11 Os3 2.659554 1_555
Al11 Os0 2.659570 1_555
Al11 Y3 3.126372 1_554
Al11 Y0 3.207585 1_555
Al11 Y4 3.207587 1_545
Al12 Os7 2.582238 1_655
Al12 Os4 2.659538 1_655
Al12 Os2 2.659540 1_555
Al12 Y5 3.126315 1_555
Al12 Y0 3.207592 1_655
Al12 Y2 3.207603 1_545
Al13 Os6 2.582145 1_666
Al13 Os0 2.659500 1_566
Al13 Os3 2.659526 1_556
Al13 Y2 3.126417 1_556
Al13 Y5 3.207492 1_565
Al13 Y1 3.207520 1_555
Al14 Os6 2.582249 1_655
Al14 Os1 2.659552 1_655
Al14 Os0 2.659567 1_555
Al14 Y5 3.126370 1_554
Al14 Y0 3.207584 1_655
Al14 Y2 3.207585 1_545
Al15 Os6 2.582150 1_566
Al15 Os0 2.659503 1_566
Al15 Os1 2.659527 1_556
Al15 Y4 3.126418 1_556
Al15 Y3 3.207495 1_565
Al15 Y1 3.207520 1_455
Al16 Os2 2.557138 1_555
Al16 Os0 2.557224 1_555
Al16 Y2 3.028648 1_545
Al16 Y4 3.028651 1_545
Al17 Os2 2.557101 1_565
Al17 Os0 2.557143 1_566
Al17 Y3 3.028666 1_565
Al17 Y5 3.028666 1_565
Al18 Os4 2.557131 1_655
Al18 Os1 2.557186 1_655
Al18 Y4 3.028629 1_655
Al18 Y0 3.028632 1_655
Al19 Os4 2.557072 1_555
Al19 Os1 2.557109 1_556
Al19 Y1 3.028605 1_455
Al19 Y5 3.028621 1_455
Al20 Os5 2.557132 1_555
Al20 Os3 2.557182 1_555
Al20 Y2 3.028625 1_555
Al20 Y0 3.028629 1_555
Al21 Os5 2.557064 1_555
Al21 Os3 2.557108 1_556
Al21 Y1 3.028601 1_555
Al21 Y3 3.028616 1_555
Al22 Os6 2.381792 1_555
Al22 Os7 2.381829 1_555
Al22 Y2 2.937435 1_445
Al22 Y0 2.937439 1_555
Al22 Y4 2.937441 1_545
Al23 Os6 2.381513 1_556
Al23 Os7 2.381562 1_555
Al23 Y3 2.937360 1_555
Al23 Y1 2.937360 1_445
Al23 Y5 2.937365 1_455
Os0 Y5 3.353203 1_554
Os0 Y2 3.353205 1_545
Os0 Y3 3.353206 1_554
Os0 Y4 3.353211 1_545
Os1 Y0 3.353184 1_555
Os1 Y4 3.353193 1_555
Os1 Y1 3.353249 1_454
Os1 Y5 3.353270 1_454
Os2 Y2 3.353154 1_545
Os2 Y4 3.353157 1_545
Os2 Y3 3.353236 1_555
Os2 Y5 3.353236 1_555
Os3 Y0 3.353183 1_555
Os3 Y2 3.353187 1_555
Os3 Y1 3.353255 1_554
Os3 Y3 3.353276 1_554
Os4 Y0 3.353171 1_555
Os4 Y4 3.353172 1_555
Os4 Y1 3.353238 1_455
Os4 Y5 3.353258 1_455
Os5 Y0 3.353178 1_555
Os5 Y2 3.353178 1_555
Os5 Y1 3.353235 1_555
Os5 Y3 3.353252 1_555
