# generated using pymatgen
data_KGdNb2O6
_symmetry_space_group_name_H-M   'P 1'
_cell_length_a   5.74613030
_cell_length_b   5.74613030
_cell_length_c   5.74613030
_cell_angle_alpha   60.00000000
_cell_angle_beta   60.00000000
_cell_angle_gamma   60.00000000
_symmetry_Int_Tables_number   1
_chemical_formula_structural   KGdNb2O6
_chemical_formula_sum   'K1 Gd1 Nb2 O6'
_cell_volume   134.15640490
_cell_formula_units_Z   1
loop_
 _symmetry_equiv_pos_site_id
 _symmetry_equiv_pos_as_xyz
  1  'x, y, z'
loop_
 _atom_site_type_symbol
 _atom_site_label
 _atom_site_symmetry_multiplicity
 _atom_site_fract_x
 _atom_site_fract_y
 _atom_site_fract_z
 _atom_site_occupancy
  K  K0  1  0.00000000  -0.00000000  0.00000000  1
  Gd  Gd0  1  0.50000000  0.50000000  0.50000000  1
  Nb  Nb0  1  0.25000000  0.25000000  0.25000000  1
  Nb  Nb1  1  0.75000000  0.75000000  0.75000000  1
  O  O0  1  0.00000000  -0.00000000  0.50000000  1
  O  O1  1  0.50000000  0.50000000  0.00000000  1
  O  O2  1  0.00000000  0.50000000  0.50000000  1
  O  O3  1  0.50000000  -0.00000000  0.00000000  1
  O  O4  1  0.00000000  0.50000000  0.00000000  1
  O  O5  1  0.50000000  -0.00000000  0.50000000  1
loop_
_geom_bond_atom_site_label_1
_geom_bond_atom_site_label_2
_geom_bond_distance
_geom_bond_site_symmetry_2
K0 O2 2.873065 1_545
K0 O3 2.873065 1_555
K0 O1 2.873065 1_455
K0 O4 2.873065 1_555
K0 O5 2.873065 1_455
K0 O5 2.873065 1_554
K0 O2 2.873065 1_554
K0 O4 2.873065 1_545
K0 O3 2.873065 1_455
K0 O1 2.873065 1_545
K0 O0 2.873065 1_555
K0 O0 2.873065 1_554
Gd0 O2 2.873065 1_555
Gd0 O3 2.873065 1_556
Gd0 O3 2.873065 1_565
Gd0 O0 2.873065 1_655
Gd0 O1 2.873065 1_555
Gd0 O4 2.873065 1_556
Gd0 O0 2.873065 1_565
Gd0 O1 2.873065 1_556
Gd0 O5 2.873065 1_555
Gd0 O4 2.873065 1_655
Gd0 O2 2.873065 1_655
Gd0 O5 2.873065 1_565
Nb0 O3 2.031564 1_555
Nb0 O0 2.031564 1_555
Nb0 O2 2.031564 1_555
Nb0 O4 2.031564 1_555
Nb0 O1 2.031564 1_555
Nb0 O5 2.031564 1_555
Nb1 O5 2.031564 1_565
Nb1 O1 2.031564 1_556
Nb1 O0 2.031564 1_665
Nb1 O4 2.031564 1_656
Nb1 O3 2.031564 1_566
Nb1 O2 2.031564 1_655
