# generated using pymatgen
data_Eu3S4
_symmetry_space_group_name_H-M   'P 1'
_cell_length_a   7.44796740
_cell_length_b   7.44787093
_cell_length_c   7.44773609
_cell_angle_alpha   109.47003719
_cell_angle_beta   109.47211324
_cell_angle_gamma   109.46965648
_symmetry_Int_Tables_number   1
_chemical_formula_structural   Eu3S4
_chemical_formula_sum   'Eu6 S8'
_cell_volume   318.04036187
_cell_formula_units_Z   2
loop_
 _symmetry_equiv_pos_site_id
 _symmetry_equiv_pos_as_xyz
  1  'x, y, z'
loop_
 _atom_site_type_symbol
 _atom_site_label
 _atom_site_symmetry_multiplicity
 _atom_site_fract_x
 _atom_site_fract_y
 _atom_site_fract_z
 _atom_site_occupancy
  Eu  Eu0  1  0.12502981  0.87501528  0.49995843  1
  Eu  Eu1  1  0.87509181  0.37501737  0.74996051  1
  Eu  Eu2  1  0.37500962  0.50003506  0.62509690  1
  Eu  Eu3  1  0.62500021  0.25008800  0.12504129  1
  Eu  Eu4  1  0.49994152  0.74997200  0.25006240  1
  Eu  Eu5  1  0.99993006  0.99989921  0.99997056  1
  S  S0  1  0.89572557  0.12502352  0.37507845  1
  S  S1  1  0.74990552  0.62497707  0.02060085  1
  S  S2  1  0.10443363  0.47940836  0.22941979  1
  S  S3  1  0.25002763  0.27075396  0.87494810  1
  S  S4  1  0.74994612  0.62499144  0.52064059  1
  S  S5  1  0.39573546  0.12504962  0.37509386  1
  S  S6  1  0.25002298  0.77056871  0.87493518  1
  S  S7  1  0.60420306  0.97920038  0.72919110  1
loop_
_geom_bond_atom_site_label_1
_geom_bond_atom_site_label_2
_geom_bond_distance
_geom_bond_site_symmetry_2
Eu0 S5 2.880869 1_565
Eu0 S2 2.880942 1_555
Eu0 S3 2.881627 1_565
Eu0 S4 2.881991 1_455
Eu0 S7 3.076088 1_555
Eu0 S0 3.076411 1_465
Eu0 S6 3.077139 1_555
Eu0 S1 3.077217 1_455
Eu1 S0 2.880466 1_555
Eu1 S6 2.880700 1_655
Eu1 S1 2.882114 1_556
Eu1 S7 2.882403 1_545
Eu1 S3 3.076041 1_655
Eu1 S5 3.076691 1_555
Eu1 S4 3.076870 1_555
Eu1 S2 3.077468 1_656
Eu2 S6 2.880027 1_555
Eu2 S1 2.880321 1_556
Eu2 S2 2.881236 1_555
Eu2 S5 2.881515 1_555
Eu2 S3 3.075510 1_555
Eu2 S7 3.076255 1_555
Eu2 S0 3.076713 1_455
Eu2 S4 3.077023 1_555
Eu3 S4 2.880803 1_555
Eu3 S3 2.881368 1_554
Eu3 S0 2.882032 1_555
Eu3 S7 2.882416 1_544
Eu3 S1 3.076551 1_555
Eu3 S5 3.076927 1_555
Eu3 S2 3.077461 1_655
Eu3 S6 3.077723 1_544
Eu4 S2 2.880311 1_555
Eu4 S4 2.880768 1_555
Eu4 S6 2.881462 1_554
Eu4 S0 2.882090 1_565
Eu4 S7 3.075543 1_555
Eu4 S3 3.076659 1_554
Eu4 S5 3.076740 1_565
Eu4 S1 3.077208 1_555
Eu5 S1 2.880814 1_556
Eu5 S7 2.881809 1_555
Eu5 S5 2.882012 1_666
Eu5 S3 2.882674 1_665
Eu5 S4 3.076625 1_555
Eu5 S0 3.076967 1_566
Eu5 S6 3.077515 1_655
Eu5 S2 3.077705 1_666
