# generated using pymatgen
data_ZnCo2(P2O7)2
_symmetry_space_group_name_H-M   'P 1'
_cell_length_a   8.31037500
_cell_length_b   7.03287200
_cell_length_c   9.06504791
_cell_angle_alpha   65.25893317
_cell_angle_beta   90.00000000
_cell_angle_gamma   90.00000000
_symmetry_Int_Tables_number   1
_chemical_formula_structural   ZnCo2(P2O7)2
_chemical_formula_sum   'Zn2 Co4 P8 O28'
_cell_volume   481.18155447
_cell_formula_units_Z   2
loop_
 _symmetry_equiv_pos_site_id
 _symmetry_equiv_pos_as_xyz
  1  'x, y, z'
loop_
 _atom_site_type_symbol
 _atom_site_label
 _atom_site_symmetry_multiplicity
 _atom_site_fract_x
 _atom_site_fract_y
 _atom_site_fract_z
 _atom_site_occupancy
  Zn  Zn0  1  0.69563500  0.30081300  0.33109700  1
  Zn  Zn1  1  0.30436500  0.30081300  0.83109700  1
  Co  Co0  1  0.32446100  0.24707300  0.37205600  1
  Co  Co1  1  0.15787000  0.77848800  0.61109200  1
  Co  Co2  1  0.84213000  0.77848800  0.11109200  1
  Co  Co3  1  0.67553900  0.24707300  0.87205600  1
  P  P0  1  0.98220700  0.06325600  0.75923400  1
  P  P1  1  0.48050900  0.53223700  0.03290700  1
  P  P2  1  0.01779300  0.06325600  0.25923400  1
  P  P3  1  0.51949100  0.53223700  0.53290700  1
  P  P4  1  0.48223400  0.94464800  0.73705500  1
  P  P5  1  0.99171700  0.46225400  0.46568300  1
  P  P6  1  0.00828300  0.46225400  0.96568300  1
  P  P7  1  0.51776600  0.94464800  0.23705500  1
  O  O0  1  0.41791400  0.74393300  0.89632300  1
  O  O1  1  0.86587300  0.11788900  0.32119700  1
  O  O2  1  0.13412700  0.11788900  0.82119700  1
  O  O3  1  0.64129400  0.56044500  0.10452500  1
  O  O4  1  0.08816000  0.25761300  0.10599400  1
  O  O5  1  0.33496300  0.98548400  0.61770900  1
  O  O6  1  0.85291700  0.39678200  0.91398300  1
  O  O7  1  0.34395500  0.46502000  0.15950300  1
  O  O8  1  0.50692700  0.37327000  0.45394800  1
  O  O9  1  0.16056900  0.01490000  0.38135600  1
  O  O10  1  0.66503700  0.98548400  0.11770900  1
  O  O11  1  0.99738500  0.88982500  0.20083300  1
  O  O12  1  0.51420600  0.11714300  0.30448500  1
  O  O13  1  0.58208600  0.74393300  0.39632300  1
  O  O14  1  0.83943100  0.01490000  0.88135600  1
  O  O15  1  0.36406500  0.90531400  0.17368200  1
  O  O16  1  0.48579400  0.11714300  0.80448500  1
  O  O17  1  0.14785500  0.52347200  0.84098300  1
  O  O18  1  0.49307300  0.37327000  0.95394800  1
  O  O19  1  0.98267800  0.62267800  0.03515700  1
  O  O20  1  0.14708300  0.39678200  0.41398300  1
  O  O21  1  0.65604500  0.46502000  0.65950300  1
  O  O22  1  0.85214500  0.52347200  0.34098300  1
  O  O23  1  0.63593500  0.90531400  0.67368200  1
  O  O24  1  0.00261500  0.88982500  0.70083300  1
  O  O25  1  0.35870600  0.56044500  0.60452500  1
  O  O26  1  0.01732200  0.62267800  0.53515700  1
  O  O27  1  0.91184000  0.25761300  0.60599400  1
loop_
_geom_bond_atom_site_label_1
_geom_bond_atom_site_label_2
_geom_bond_distance
_geom_bond_site_symmetry_2
Co0 O7 1.901624 1_555
Co0 O20 1.939299 1_555
Co0 O12 2.040873 1_555
Co0 O8 2.046860 1_555
Co0 O9 2.100741 1_555
Co0 O5 2.218539 1_545
Co1 O24 1.863540 1_555
Co1 O26 1.915777 1_555
Co1 O9 2.050292 1_565
Co1 O5 2.088517 1_555
Co1 O17 2.106654 1_555
Co1 O25 2.284101 1_555
Co2 O11 1.863540 1_555
Co2 O19 1.915777 1_555
Co2 O14 2.050292 1_564
Co2 O10 2.088517 1_555
Co2 O22 2.106654 1_555
Co2 O3 2.284101 1_555
Co3 O21 1.901624 1_555
Co3 O6 1.939299 1_555
Co3 O16 2.040873 1_555
Co3 O18 2.046860 1_555
Co3 O14 2.100741 1_555
Co3 O10 2.218539 1_546
O0 P1 1.573921 1_556
O0 P4 1.630003 1_555
O1 P2 1.495901 1_655
O1 Zn0 1.939387 1_555
O2 P0 1.495901 1_455
O2 Zn1 1.939387 1_555
O3 P1 1.534287 1_555
O3 Zn0 2.148805 1_555
O4 P2 1.597083 1_555
O4 P6 1.611681 1_554
O5 P4 1.578208 1_555
O6 P6 1.509756 1_655
O7 P1 1.540833 1_555
O8 P3 1.562995 1_555
O8 Zn0 2.105769 1_555
O9 P2 1.560096 1_555
O10 P7 1.578208 1_555
O11 P2 1.528806 1_665
O12 P7 1.570637 1_545
O12 Zn0 2.064190 1_555
O13 P3 1.573921 1_555
O13 P7 1.630003 1_555
O14 P0 1.560096 1_555
O15 P7 1.473465 1_555
O16 P4 1.570637 1_545
O16 Zn1 2.064190 1_555
O17 P6 1.549573 1_555
O17 Zn1 2.066240 1_555
O18 P1 1.562995 1_556
O18 Zn1 2.105769 1_555
O19 P6 1.519734 1_654
O20 P5 1.509756 1_455
O21 P3 1.540833 1_555
O22 P5 1.549573 1_555
O22 Zn0 2.066240 1_555
O23 P4 1.473465 1_555
O24 P0 1.528806 1_465
O25 P3 1.534287 1_555
O25 Zn1 2.148805 1_555
O26 P5 1.519734 1_455
O27 P0 1.597083 1_555
O27 P5 1.611681 1_555
