# generated using pymatgen
data_Sr2LiYbUO6
_symmetry_space_group_name_H-M   'P 1'
_cell_length_a   6.30814683
_cell_length_b   6.30814683
_cell_length_c   6.05974955
_cell_angle_alpha   61.29425863
_cell_angle_beta   61.29425863
_cell_angle_gamma   58.14804817
_symmetry_Int_Tables_number   1
_chemical_formula_structural   Sr2LiYbUO6
_chemical_formula_sum   'Sr2 Li1 Yb1 U1 O6'
_cell_volume   171.11994158
_cell_formula_units_Z   1
loop_
 _symmetry_equiv_pos_site_id
 _symmetry_equiv_pos_as_xyz
  1  'x, y, z'
loop_
 _atom_site_type_symbol
 _atom_site_label
 _atom_site_symmetry_multiplicity
 _atom_site_fract_x
 _atom_site_fract_y
 _atom_site_fract_z
 _atom_site_occupancy
  Sr  Sr0  1  0.68954600  0.68954600  0.81045400  1
  Sr  Sr1  1  0.31045400  0.31045400  0.18954600  1
  Li  Li0  1  0.00000000  0.00000000  0.50000000  1
  Yb  Yb0  1  0.50000000  0.50000000  0.50000000  1
  U  U0  1  0.00000000  0.00000000  0.00000000  1
  O  O0  1  0.76245800  0.76245800  0.23754200  1
  O  O1  1  0.23754200  0.23754200  0.76245800  1
  O  O2  1  0.75282800  0.24717200  0.75611800  1
  O  O3  1  0.24717200  0.75282800  0.24388200  1
  O  O4  1  0.24717200  0.75282800  0.75611800  1
  O  O5  1  0.75282800  0.24717200  0.24388200  1
loop_
_geom_bond_atom_site_label_1
_geom_bond_atom_site_label_2
_geom_bond_distance
_geom_bond_site_symmetry_2
Li0 O5 2.169107 1_455
Li0 O3 2.169107 1_545
Li0 O2 2.169107 1_455
Li0 O4 2.169107 1_545
Li0 Sr0 2.859957 1_445
Li0 Sr1 2.859957 1_555
O0 U0 2.188279 1_665
O0 Yb0 2.417809 1_555
O0 Sr1 3.097099 1_655
O0 Sr1 3.097099 1_565
O0 Sr0 3.103432 1_555
O0 Sr0 3.103432 1_554
O1 U0 2.188279 1_556
O1 Yb0 2.417809 1_555
O1 Sr0 3.097099 1_545
O1 Sr0 3.097099 1_455
O1 Sr1 3.103432 1_555
O1 Sr1 3.103432 1_556
O2 U0 2.116688 1_656
O2 Yb0 2.193472 1_555
O2 Sr0 2.763265 1_555
O2 Sr1 2.763265 1_556
O3 U0 2.116688 1_565
O3 Yb0 2.193472 1_555
O3 Sr0 2.763265 1_554
O3 Sr1 2.763265 1_555
O4 U0 2.116688 1_566
O4 Yb0 2.193472 1_555
O4 Sr0 2.763265 1_555
O4 Sr1 2.763265 1_556
O5 U0 2.116688 1_655
O5 Yb0 2.193472 1_555
O5 Sr0 2.763265 1_554
O5 Sr1 2.763265 1_555
