# generated using pymatgen
data_Rb2LuSi4O10F
_symmetry_space_group_name_H-M   'P 1'
_cell_length_a   8.63635900
_cell_length_b   11.80032400
_cell_length_c   11.94651518
_cell_angle_alpha   68.26336827
_cell_angle_beta   90.00000000
_cell_angle_gamma   90.00000000
_symmetry_Int_Tables_number   1
_chemical_formula_structural   Rb2LuSi4O10F
_chemical_formula_sum   'Rb8 Lu4 Si16 O40 F4'
_cell_volume   1130.92275995
_cell_formula_units_Z   4
loop_
 _symmetry_equiv_pos_site_id
 _symmetry_equiv_pos_as_xyz
  1  'x, y, z'
loop_
 _atom_site_type_symbol
 _atom_site_label
 _atom_site_symmetry_multiplicity
 _atom_site_fract_x
 _atom_site_fract_y
 _atom_site_fract_z
 _atom_site_occupancy
  Rb  Rb0  1  0.75000000  0.55331600  0.54995300  1
  Rb  Rb1  1  0.25000000  0.44668400  0.45004700  1
  Rb  Rb2  1  0.25000000  0.91799400  0.07912500  1
  Rb  Rb3  1  0.75000000  0.08200600  0.92087500  1
  Rb  Rb4  1  0.75000000  0.00049300  0.52867600  1
  Rb  Rb5  1  0.25000000  0.99950700  0.47132400  1
  Rb  Rb6  1  0.25000000  0.53560100  0.03141200  1
  Rb  Rb7  1  0.75000000  0.46439900  0.96858800  1
  Lu  Lu0  1  0.00357500  0.70654600  0.70947500  1
  Lu  Lu1  1  0.50357500  0.29345400  0.29052500  1
  Lu  Lu2  1  0.99642500  0.29345400  0.29052500  1
  Lu  Lu3  1  0.49642500  0.70654600  0.70947500  1
  Si  Si0  1  0.93733500  0.61283300  0.22961400  1
  Si  Si1  1  0.43733500  0.38716700  0.77038600  1
  Si  Si2  1  0.06266500  0.38716700  0.77038600  1
  Si  Si3  1  0.56266500  0.61283300  0.22961400  1
  Si  Si4  1  0.06869000  0.98113700  0.75555900  1
  Si  Si5  1  0.56869000  0.01886300  0.24444100  1
  Si  Si6  1  0.93131000  0.01886300  0.24444100  1
  Si  Si7  1  0.43131000  0.98113700  0.75555900  1
  Si  Si8  1  0.43345700  0.75695000  0.38409200  1
  Si  Si9  1  0.93345700  0.24305000  0.61590800  1
  Si  Si10  1  0.56654300  0.24305000  0.61590800  1
  Si  Si11  1  0.06654300  0.75695000  0.38409200  1
  Si  Si12  1  0.93209900  0.77489500  0.96360700  1
  Si  Si13  1  0.43209900  0.22510500  0.03639300  1
  Si  Si14  1  0.06790100  0.22510500  0.03639300  1
  Si  Si15  1  0.56790100  0.77489500  0.96360700  1
  O  O0  1  0.75000000  0.59820000  0.22100200  1
  O  O1  1  0.25000000  0.40180000  0.77899800  1
  O  O2  1  0.75000000  0.27367000  0.63276000  1
  O  O3  1  0.25000000  0.72633000  0.36724000  1
  O  O4  1  0.99435100  0.72553400  0.10478100  1
  O  O5  1  0.49435100  0.27446600  0.89521900  1
  O  O6  1  0.00564900  0.27446600  0.89521900  1
  O  O7  1  0.50564900  0.72553400  0.10478100  1
  O  O8  1  0.96904700  0.65823200  0.34314400  1
  O  O9  1  0.46904700  0.34176800  0.65685600  1
  O  O10  1  0.03095300  0.34176800  0.65685600  1
  O  O11  1  0.53095300  0.65823200  0.34314400  1
  O  O12  1  0.25000000  0.02666500  0.74904600  1
  O  O13  1  0.75000000  0.97333500  0.25095400  1
  O  O14  1  0.96075800  0.10486700  0.71838700  1
  O  O15  1  0.46075800  0.89513300  0.28161300  1
  O  O16  1  0.03924200  0.89513300  0.28161300  1
  O  O17  1  0.53924200  0.10486700  0.71838700  1
  O  O18  1  0.02820200  0.90550700  0.90039000  1
  O  O19  1  0.52820200  0.09449300  0.09961000  1
  O  O20  1  0.97179800  0.09449300  0.09961000  1
  O  O21  1  0.47179800  0.90550700  0.90039000  1
  O  O22  1  0.75000000  0.81714500  0.96324700  1
  O  O23  1  0.25000000  0.18285500  0.03675300  1
  O  O24  1  0.02701000  0.48842600  0.24844300  1
  O  O25  1  0.52701000  0.51157400  0.75155700  1
  O  O26  1  0.97299000  0.51157400  0.75155700  1
  O  O27  1  0.47299000  0.48842600  0.24844300  1
  O  O28  1  0.03186400  0.90241800  0.67499100  1
  O  O29  1  0.53186400  0.09758200  0.32500900  1
  O  O30  1  0.96813600  0.09758200  0.32500900  1
  O  O31  1  0.46813600  0.90241800  0.67499100  1
  O  O32  1  0.96227900  0.67986100  0.89964000  1
  O  O33  1  0.46227900  0.32013900  0.10036000  1
  O  O34  1  0.03772100  0.32013900  0.10036000  1
  O  O35  1  0.53772100  0.67986100  0.89964000  1
  O  O36  1  0.02224900  0.74565700  0.51714600  1
  O  O37  1  0.52224900  0.25434300  0.48285400  1
  O  O38  1  0.97775100  0.25434300  0.48285400  1
  O  O39  1  0.47775100  0.74565700  0.51714600  1
  F  F0  1  0.75000000  0.72973900  0.67897100  1
  F  F1  1  0.25000000  0.27026100  0.32102900  1
  F  F2  1  0.25000000  0.68182100  0.74628300  1
  F  F3  1  0.75000000  0.31817900  0.25371700  1
loop_
_geom_bond_atom_site_label_1
_geom_bond_atom_site_label_2
_geom_bond_distance
_geom_bond_site_symmetry_2
Lu0 O36 2.175506 1_555
Lu0 O26 2.181552 1_455
Lu0 O32 2.203998 1_455
Lu0 O28 2.206011 1_555
Lu1 O37 2.175506 1_555
Lu1 O27 2.181552 1_555
Lu1 O33 2.203998 1_555
Lu1 O29 2.206011 1_555
Lu2 O38 2.175506 1_555
Lu2 O24 2.181552 1_655
Lu2 O34 2.203998 1_655
Lu2 O30 2.206011 1_555
Lu3 O39 2.175506 1_555
Lu3 O25 2.181552 1_555
Lu3 O35 2.203998 1_555
Lu3 O31 2.206011 1_555
O0 Si3 1.634361 1_555
O0 Si0 1.634361 1_555
O1 Si1 1.634361 1_555
O1 Si2 1.634361 1_555
O2 Si9 1.653872 1_555
O2 Si10 1.653872 1_555
O2 Rb0 3.074107 1_555
O2 Rb3 3.346110 1_555
O3 Si11 1.653872 1_555
O3 Si8 1.653872 1_555
O3 Rb1 3.074107 1_555
O3 Rb2 3.346110 1_555
O4 Si12 1.656838 1_554
O4 Si0 1.663175 1_555
O4 Rb2 3.100150 1_655
O4 Rb6 3.481570 1_655
O5 Si13 1.656838 1_556
O5 Si1 1.663175 1_555
O5 Rb3 3.100150 1_555
O5 Rb7 3.481570 1_555
O6 Si14 1.656838 1_556
O6 Si2 1.663175 1_555
O6 Rb3 3.100150 1_455
O6 Rb7 3.481570 1_455
O7 Si15 1.656838 1_554
O7 Si3 1.663175 1_555
O7 Rb2 3.100150 1_555
O7 Rb6 3.481570 1_555
O8 Si11 1.651474 1_655
O8 Si0 1.655204 1_555
O8 Rb0 2.991665 1_555
O8 Rb1 3.374731 1_655
O9 Si10 1.651474 1_555
O9 Si1 1.655204 1_555
O9 Rb1 2.991665 1_555
O9 Rb0 3.374731 1_555
O10 Si9 1.651474 1_455
O10 Si2 1.655204 1_555
O10 Rb1 2.991665 1_555
O10 Rb0 3.374731 1_455
O11 Si8 1.651474 1_555
O11 Si3 1.655204 1_555
O11 Rb0 2.991665 1_555
O11 Rb1 3.374731 1_555
O12 Si4 1.647919 1_545
O12 Si7 1.647919 1_545
O13 Si6 1.647919 1_565
O13 Si5 1.647919 1_565
O14 Si4 1.648516 1_645
O14 Si9 1.653685 1_555
O14 Rb3 2.958745 1_555
O15 Si5 1.648516 1_565
O15 Si8 1.653685 1_555
O15 Rb2 2.958745 1_555
O16 Si6 1.648516 1_465
O16 Si11 1.653685 1_555
O16 Rb2 2.958745 1_555
O17 Si7 1.648516 1_545
O17 Si10 1.653685 1_555
O17 Rb3 2.958745 1_555
O18 Si4 1.663943 1_555
O18 Si12 1.665104 1_455
O18 Rb2 2.912617 1_556
O18 Rb3 3.247766 1_465
O19 Si5 1.663943 1_555
O19 Si13 1.665104 1_555
O19 Rb3 2.912617 1_554
O19 Rb2 3.247766 1_545
O20 Si6 1.663943 1_555
O20 Si14 1.665104 1_655
O20 Rb3 2.912617 1_554
O20 Rb2 3.247766 1_645
O21 Si7 1.663943 1_555
O21 Si15 1.665104 1_555
O21 Rb2 2.912617 1_556
O21 Rb3 3.247766 1_565
O22 Si12 1.649331 1_555
O22 Si15 1.649331 1_555
O22 Rb3 2.975369 1_565
O23 Si14 1.649331 1_555
O23 Si13 1.649331 1_555
O23 Rb2 2.975369 1_545
O24 Si0 1.600298 1_455
O24 Rb1 2.978829 1_555
O24 Rb6 3.109992 1_555
O25 Si1 1.600298 1_555
O25 Rb0 2.978829 1_555
O25 Rb7 3.109992 1_555
O26 Si2 1.600298 1_655
O26 Rb0 2.978829 1_555
O26 Rb7 3.109992 1_555
O27 Si3 1.600298 1_555
O27 Rb1 2.978829 1_555
O27 Rb6 3.109992 1_555
O28 Si4 1.597709 1_555
O28 Rb5 2.952456 1_555
O28 Rb4 2.970200 1_465
O29 Si5 1.597709 1_555
O29 Rb4 2.952456 1_555
O29 Rb5 2.970200 1_545
O30 Si6 1.597709 1_555
O30 Rb4 2.952456 1_555
O30 Rb5 2.970200 1_645
O31 Si7 1.597709 1_555
O31 Rb5 2.952456 1_555
O31 Rb4 2.970200 1_565
O32 Si12 1.595077 1_555
O32 Rb7 2.992117 1_555
O32 Rb6 3.092844 1_656
O33 Si13 1.595077 1_555
O33 Rb6 2.992117 1_555
O33 Rb7 3.092844 1_554
O34 Si14 1.595077 1_555
O34 Rb6 2.992117 1_555
O34 Rb7 3.092844 1_454
O35 Si15 1.595077 1_555
O35 Rb7 2.992117 1_555
O35 Rb6 3.092844 1_556
O36 Si11 1.591795 1_555
O36 Rb0 3.189755 1_455
O37 Si10 1.591795 1_555
O37 Rb1 3.189755 1_555
O38 Si9 1.591795 1_555
O38 Rb1 3.189755 1_655
O39 Si8 1.591795 1_555
O39 Rb0 3.189755 1_555
F0 Lu3 2.220310 1_555
F0 Lu0 2.220310 1_655
F0 Rb0 3.014371 1_555
F0 Rb4 3.030307 1_565
F1 Lu2 2.220310 1_455
F1 Lu1 2.220310 1_555
F1 Rb1 3.014371 1_555
F1 Rb5 3.030307 1_545
F2 Lu3 2.170889 1_555
F2 Lu0 2.170889 1_555
F2 Rb6 3.197930 1_556
F3 Lu2 2.170889 1_555
F3 Lu1 2.170889 1_555
F3 Rb7 3.197930 1_554
