# generated using pymatgen
data_LaTa2AgO7
_symmetry_space_group_name_H-M   'P 1'
_cell_length_a   11.28787863
_cell_length_b   11.28787863
_cell_length_c   11.28787863
_cell_angle_alpha   160.05255551
_cell_angle_beta   160.05255551
_cell_angle_gamma   28.35620127
_symmetry_Int_Tables_number   1
_chemical_formula_structural   LaTa2AgO7
_chemical_formula_sum   'La1 Ta2 Ag1 O7'
_cell_volume   167.31715712
_cell_formula_units_Z   1
loop_
 _symmetry_equiv_pos_site_id
 _symmetry_equiv_pos_as_xyz
  1  'x, y, z'
loop_
 _atom_site_type_symbol
 _atom_site_label
 _atom_site_symmetry_multiplicity
 _atom_site_fract_x
 _atom_site_fract_y
 _atom_site_fract_z
 _atom_site_occupancy
  La  La0  1  0.00000000  0.00000000  0.00000000  1
  Ta  Ta0  1  0.60421200  0.60421200  0.00000000  1
  Ta  Ta1  1  0.39578800  0.39578800  0.00000000  1
  Ag  Ag0  1  0.25000000  0.75000000  0.50000000  1
  O  O0  1  0.41510400  0.91510400  0.50000000  1
  O  O1  1  0.91584100  0.41584100  0.50000000  1
  O  O2  1  0.58415900  0.08415900  0.50000000  1
  O  O3  1  0.08489600  0.58489600  0.50000000  1
  O  O4  1  0.68709600  0.68709600  0.00000000  1
  O  O5  1  0.31290400  0.31290400  0.00000000  1
  O  O6  1  0.50000000  0.50000000  0.00000000  1
loop_
_geom_bond_atom_site_label_1
_geom_bond_atom_site_label_2
_geom_bond_distance
_geom_bond_site_symmetry_2
La0 O2 2.686142 1_454
La0 O2 2.686142 1_555
La0 O1 2.686142 1_455
La0 O1 2.686142 1_444
La0 O3 2.697231 1_555
La0 O3 2.697231 1_544
La0 O0 2.697231 1_444
La0 O0 2.697231 1_545
La0 O6 2.764817 1_556
La0 O6 2.764817 1_444
La0 O6 2.764817 1_545
La0 O6 2.764817 1_455
Ag0 O5 2.391196 1_566
Ag0 O5 2.391196 1_555
Ag0 O4 2.391196 1_455
Ag0 O4 2.391196 1_556
O0 Ta1 2.000215 1_555
O0 Ta1 2.000215 1_566
O1 Ta1 2.003686 1_555
O1 Ta1 2.003686 1_656
O2 Ta0 2.003686 1_545
O2 Ta0 2.003686 1_556
O3 Ta0 2.000215 1_556
O3 Ta0 2.000215 1_455
O4 Ta0 1.814171 1_555
O5 Ta1 1.814171 1_555
O6 Ta0 2.281000 1_555
O6 Ta1 2.281000 1_555
