# generated using pymatgen
data_AgSO4
_symmetry_space_group_name_H-M   'P 1'
_cell_length_a   9.42440470
_cell_length_b   9.75740167
_cell_length_c   9.75739142
_cell_angle_alpha   88.83939096
_cell_angle_beta   121.27749625
_cell_angle_gamma   121.27781691
_symmetry_Int_Tables_number   1
_chemical_formula_structural   AgSO4
_chemical_formula_sum   'Ag8 S8 O32'
_cell_volume   616.05190915
_cell_formula_units_Z   8
loop_
 _symmetry_equiv_pos_site_id
 _symmetry_equiv_pos_as_xyz
  1  'x, y, z'
loop_
 _atom_site_type_symbol
 _atom_site_label
 _atom_site_symmetry_multiplicity
 _atom_site_fract_x
 _atom_site_fract_y
 _atom_site_fract_z
 _atom_site_occupancy
  Ag  Ag0  1  0.50000000  -0.00000000  0.00000000  1
  Ag  Ag1  1  0.00000000  -0.00000000  0.00000000  1
  Ag  Ag2  1  0.00000000  0.50000000  0.50000000  1
  Ag  Ag3  1  0.50000000  0.50000000  0.50000000  1
  Ag  Ag4  1  0.00000000  -0.00000000  0.50000000  1
  Ag  Ag5  1  0.50000000  0.50000000  0.00000000  1
  Ag  Ag6  1  0.50000000  -0.00000000  0.50000000  1
  Ag  Ag7  1  0.00000000  0.50000000  0.00000000  1
  S  S0  1  0.50064656  0.29224480  0.76358991  1
  S  S1  1  0.99935891  0.23641167  0.70776313  1
  S  S2  1  0.49935344  0.70775520  0.23641009  1
  S  S3  1  0.00064109  0.76358833  0.29223687  1
  S  S4  1  0.99765140  0.25222969  0.20543628  1
  S  S5  1  0.50234874  0.79456553  0.74777147  1
  S  S6  1  0.00234860  0.74777031  0.79456372  1
  S  S7  1  0.49765126  0.20543447  0.25222853  1
  O  O0  1  0.52575035  0.71142569  0.09941441  1
  O  O1  1  0.97424692  0.90058943  0.28857149  1
  O  O2  1  0.47424965  0.28857431  0.90058559  1
  O  O3  1  0.02575308  0.09941057  0.71142851  1
  O  O4  1  0.17546517  0.38259469  0.86696200  1
  O  O5  1  0.32454496  0.13303956  0.61740726  1
  O  O6  1  0.82453483  0.61740531  0.13303800  1
  O  O7  1  0.67545504  0.86696044  0.38259274  1
  O  O8  1  0.81780371  0.18047821  0.70177686  1
  O  O9  1  0.68220688  0.29823734  0.81952288  1
  O  O10  1  0.18219629  0.81952179  0.29822314  1
  O  O11  1  0.31779312  0.70176266  0.18047712  1
  O  O12  1  0.97776793  0.27969092  0.55496618  1
  O  O13  1  0.52223055  0.44503562  0.72030667  1
  O  O14  1  0.02223207  0.72030908  0.44503382  1
  O  O15  1  0.47776945  0.55496438  0.27969333  1
  O  O16  1  0.50127268  0.79875703  0.59539242  1
  O  O17  1  0.99872108  0.40460705  0.20123627  1
  O  O18  1  0.49872732  0.20124297  0.40460758  1
  O  O19  1  0.00127892  0.59539295  0.79876373  1
  O  O20  1  0.68129144  0.80394428  0.88765010  1
  O  O21  1  0.81871486  0.11235489  0.19606339  1
  O  O22  1  0.31870856  0.19605572  0.11234990  1
  O  O23  1  0.18128514  0.88764511  0.80393661  1
  O  O24  1  0.31977961  0.63002840  0.71000994  1
  O  O25  1  0.18022457  0.29000080  0.36997258  1
  O  O26  1  0.68022039  0.36997160  0.28999006  1
  O  O27  1  0.81977543  0.70999920  0.63002742  1
  O  O28  1  0.50656438  0.93979138  0.79529332  1
  O  O29  1  0.99343667  0.20470535  0.06021049  1
  O  O30  1  0.49343562  0.06020862  0.20470668  1
  O  O31  1  0.00656333  0.79529465  0.93978951  1
loop_
_geom_bond_atom_site_label_1
_geom_bond_atom_site_label_2
_geom_bond_distance
_geom_bond_site_symmetry_2
Ag0 O30 2.133581 1_555
Ag0 O28 2.133581 1_544
Ag0 O23 2.140748 1_544
Ag0 O21 2.140748 1_555
Ag1 O29 2.133569 1_455
Ag1 O31 2.133569 1_544
Ag1 O20 2.140699 1_444
Ag1 O22 2.140699 1_555
Ag2 O12 2.134200 1_455
Ag2 O14 2.134200 1_555
Ag2 O24 2.147955 1_555
Ag2 O26 2.147955 1_455
Ag3 O15 2.134176 1_555
Ag3 O13 2.134176 1_555
Ag3 O25 2.147903 1_555
Ag3 O27 2.147903 1_555
Ag4 O3 2.138319 1_555
Ag4 O1 2.138319 1_445
Ag4 O5 2.156800 1_555
Ag4 O7 2.156800 1_445
Ag5 O2 2.138326 1_554
Ag5 O0 2.138326 1_555
Ag5 O4 2.156728 1_554
Ag5 O6 2.156728 1_555
Ag6 O10 2.118639 1_545
Ag6 O8 2.118639 1_555
Ag6 O18 2.158953 1_555
Ag6 O16 2.158953 1_545
Ag7 O11 2.118557 1_555
Ag7 O9 2.118557 1_454
Ag7 O17 2.158910 1_455
Ag7 O19 2.158910 1_554
O0 S2 1.477871 1_555
O1 S3 1.477914 1_655
O2 S0 1.477871 1_555
O3 S1 1.477914 1_455
O4 S1 1.468537 1_455
O5 S0 1.468562 1_555
O6 S3 1.468537 1_655
O7 S2 1.468562 1_555
O8 S1 1.468607 1_555
O9 S0 1.468623 1_555
O10 S3 1.468607 1_555
O11 S2 1.468623 1_555
O12 S1 1.480280 1_555
O13 S0 1.480253 1_555
O14 S3 1.480280 1_555
O15 S2 1.480253 1_555
O16 S5 1.481461 1_555
O17 S4 1.481477 1_555
O18 S7 1.481461 1_555
O19 S6 1.481477 1_555
O20 S5 1.473095 1_555
O21 S4 1.473068 1_555
O22 S7 1.473095 1_555
O23 S6 1.473068 1_555
O24 S5 1.473445 1_555
O25 S4 1.473433 1_455
O26 S7 1.473445 1_555
O27 S6 1.473433 1_655
O28 S5 1.474307 1_555
O29 S4 1.474319 1_555
O30 S7 1.474307 1_555
O31 S6 1.474319 1_555
