# generated using pymatgen
data_Zn2Hg2H3(SO5)2
_symmetry_space_group_name_H-M   'P 1'
_cell_length_a   6.52623200
_cell_length_b   11.13048700
_cell_length_c   13.52118400
_cell_angle_alpha   90.00000000
_cell_angle_beta   90.00000000
_cell_angle_gamma   90.00000000
_symmetry_Int_Tables_number   1
_chemical_formula_structural   Zn2Hg2H3(SO5)2
_chemical_formula_sum   'Zn8 Hg8 H12 S8 O40'
_cell_volume   982.18070461
_cell_formula_units_Z   4
loop_
 _symmetry_equiv_pos_site_id
 _symmetry_equiv_pos_as_xyz
  1  'x, y, z'
loop_
 _atom_site_type_symbol
 _atom_site_label
 _atom_site_symmetry_multiplicity
 _atom_site_fract_x
 _atom_site_fract_y
 _atom_site_fract_z
 _atom_site_occupancy
  Zn  Zn0  1  0.49557400  0.15913200  0.13276700  1
  Zn  Zn1  1  0.50442600  0.84086800  0.86723300  1
  Zn  Zn2  1  0.50442600  0.84086800  0.63276700  1
  Zn  Zn3  1  0.50442600  0.65913200  0.36723300  1
  Zn  Zn4  1  0.49557400  0.15913200  0.36723300  1
  Zn  Zn5  1  0.49557400  0.34086800  0.63276700  1
  Zn  Zn6  1  0.49557400  0.34086800  0.86723300  1
  Zn  Zn7  1  0.50442600  0.65913200  0.13276700  1
  Hg  Hg0  1  0.71029600  0.41161600  0.25000000  1
  Hg  Hg1  1  0.28970400  0.58838400  0.75000000  1
  Hg  Hg2  1  0.28970400  0.91161600  0.25000000  1
  Hg  Hg3  1  0.71029600  0.08838400  0.75000000  1
  Hg  Hg4  1  0.00522300  0.16261100  0.25000000  1
  Hg  Hg5  1  0.99477700  0.83738900  0.75000000  1
  Hg  Hg6  1  0.99477700  0.66261100  0.25000000  1
  Hg  Hg7  1  0.00522300  0.33738900  0.75000000  1
  H  H0  1  0.24824300  0.80751600  0.05025300  1
  H  H1  1  0.75175700  0.19248400  0.94974700  1
  H  H2  1  0.75175700  0.19248400  0.55025300  1
  H  H3  1  0.75175700  0.30751600  0.44974700  1
  H  H4  1  0.24824300  0.80751600  0.44974700  1
  H  H5  1  0.24824300  0.69248400  0.55025300  1
  H  H6  1  0.24824300  0.69248400  0.94974700  1
  H  H7  1  0.75175700  0.30751600  0.05025300  1
  H  H8  1  0.74752900  0.25000000  0.00000000  1
  H  H9  1  0.25247100  0.75000000  0.00000000  1
  H  H10  1  0.25247100  0.75000000  0.50000000  1
  H  H11  1  0.74752900  0.25000000  0.50000000  1
  S  S0  1  0.25186200  0.40957900  0.07775900  1
  S  S1  1  0.74813800  0.59042100  0.92224100  1
  S  S2  1  0.74813800  0.59042100  0.57775900  1
  S  S3  1  0.74813800  0.90957900  0.42224100  1
  S  S4  1  0.25186200  0.40957900  0.42224100  1
  S  S5  1  0.25186200  0.09042100  0.57775900  1
  S  S6  1  0.25186200  0.09042100  0.92224100  1
  S  S7  1  0.74813800  0.90957900  0.07775900  1
  O  O0  1  0.70465300  0.22286500  0.25000000  1
  O  O1  1  0.29534700  0.77713500  0.75000000  1
  O  O2  1  0.29534700  0.72286500  0.25000000  1
  O  O3  1  0.70465300  0.27713500  0.75000000  1
  O  O4  1  0.28244300  0.09893900  0.03149400  1
  O  O5  1  0.71755700  0.90106100  0.96850600  1
  O  O6  1  0.71755700  0.90106100  0.53149400  1
  O  O7  1  0.71755700  0.59893900  0.46850600  1
  O  O8  1  0.28244300  0.09893900  0.46850600  1
  O  O9  1  0.28244300  0.40106100  0.53149400  1
  O  O10  1  0.28244300  0.40106100  0.96850600  1
  O  O11  1  0.71755700  0.59893900  0.03149400  1
  O  O12  1  0.28054000  0.53748000  0.11074400  1
  O  O13  1  0.71946000  0.46252000  0.88925600  1
  O  O14  1  0.71946000  0.46252000  0.61074400  1
  O  O15  1  0.71946000  0.03748000  0.38925600  1
  O  O16  1  0.28054000  0.53748000  0.38925600  1
  O  O17  1  0.28054000  0.96252000  0.61074400  1
  O  O18  1  0.28054000  0.96252000  0.88925600  1
  O  O19  1  0.71946000  0.03748000  0.11074400  1
  O  O20  1  0.04818700  0.36890600  0.10767100  1
  O  O21  1  0.95181300  0.63109400  0.89232900  1
  O  O22  1  0.95181300  0.63109400  0.60767100  1
  O  O23  1  0.95181300  0.86890600  0.39232900  1
  O  O24  1  0.04818700  0.36890600  0.39232900  1
  O  O25  1  0.04818700  0.13109400  0.60767100  1
  O  O26  1  0.04818700  0.13109400  0.89232900  1
  O  O27  1  0.95181300  0.86890600  0.10767100  1
  O  O28  1  0.41554400  0.33561000  0.12914700  1
  O  O29  1  0.58445600  0.66439000  0.87085300  1
  O  O30  1  0.58445600  0.66439000  0.62914700  1
  O  O31  1  0.58445600  0.83561000  0.37085300  1
  O  O32  1  0.41554400  0.33561000  0.37085300  1
  O  O33  1  0.41554400  0.16439000  0.62914700  1
  O  O34  1  0.41554400  0.16439000  0.87085300  1
  O  O35  1  0.58445600  0.83561000  0.12914700  1
  O  O36  1  0.30928500  0.10056100  0.25000000  1
  O  O37  1  0.69071500  0.89943900  0.75000000  1
  O  O38  1  0.69071500  0.60056100  0.25000000  1
  O  O39  1  0.30928500  0.39943900  0.75000000  1
loop_
_geom_bond_atom_site_label_1
_geom_bond_atom_site_label_2
_geom_bond_distance
_geom_bond_site_symmetry_2
Hg0 O0 2.101213 1_555
Hg0 O38 2.106929 1_555
Hg1 O1 2.101213 1_555
Hg1 O39 2.106929 1_555
Hg2 O2 2.101213 1_555
Hg2 O36 2.106929 1_565
Hg3 O3 2.101213 1_555
Hg3 O37 2.106929 1_545
Hg4 O0 2.073069 1_455
Hg4 O36 2.101131 1_555
Hg5 O1 2.073069 1_655
Hg5 O37 2.101131 1_555
Hg6 O2 2.073069 1_655
Hg6 O38 2.101131 1_555
Hg7 O3 2.073069 1_455
Hg7 O39 2.101131 1_555
H0 H9 0.933963 1_555
H1 H8 0.933963 1_556
H6 H9 0.933963 1_556
H7 H8 0.933963 1_555
H10 H5 0.933963 1_555
H10 H4 0.933963 1_555
H11 H3 0.933963 1_555
H11 H2 0.933963 1_555
O0 Zn4 2.208553 1_555
O0 Zn0 2.208553 1_555
O1 Zn1 2.208553 1_555
O1 Zn2 2.208553 1_555
O2 Zn3 2.208553 1_555
O2 Zn7 2.208553 1_555
O3 Zn6 2.208553 1_555
O3 Zn5 2.208553 1_555
O4 S6 1.493663 1_554
O4 Zn0 2.063651 1_555
O5 S7 1.493663 1_556
O5 Zn1 2.063651 1_555
O6 S3 1.493663 1_555
O6 Zn2 2.063651 1_555
O7 S2 1.493663 1_555
O7 Zn3 2.063651 1_555
O8 S5 1.493663 1_555
O8 Zn4 2.063651 1_555
O9 S4 1.493663 1_555
O9 Zn5 2.063651 1_555
O10 S0 1.493663 1_556
O10 Zn6 2.063651 1_555
O11 S1 1.493663 1_554
O11 Zn7 2.063651 1_555
O12 S0 1.503522 1_555
O12 Zn7 2.014204 1_555
O13 S1 1.503522 1_555
O13 Zn6 2.014204 1_555
O14 S2 1.503522 1_555
O14 Zn5 2.014204 1_555
O15 S3 1.503522 1_545
O15 Zn4 2.014204 1_555
O16 S4 1.503522 1_555
O16 Zn3 2.014204 1_555
O17 S5 1.503522 1_565
O17 Zn2 2.014204 1_555
O18 S6 1.503522 1_565
O18 Zn1 2.014204 1_555
O19 S7 1.503522 1_545
O19 Zn0 2.014204 1_555
O20 S0 1.461293 1_555
O21 S1 1.461293 1_555
O22 S2 1.461293 1_555
O23 S3 1.461293 1_555
O24 S4 1.461293 1_555
O25 S5 1.461293 1_555
O26 S6 1.461293 1_555
O27 S7 1.461293 1_555
O28 S0 1.517146 1_555
O28 Zn0 2.033127 1_555
O29 S1 1.517146 1_555
O29 Zn1 2.033127 1_555
O30 S2 1.517146 1_555
O30 Zn2 2.033127 1_555
O31 S3 1.517146 1_555
O31 Zn3 2.033127 1_555
O32 S4 1.517146 1_555
O32 Zn4 2.033127 1_555
O33 S5 1.517146 1_555
O33 Zn5 2.033127 1_555
O34 S6 1.517146 1_555
O34 Zn6 2.033127 1_555
O35 S7 1.517146 1_555
O35 Zn7 2.033127 1_555
O36 Zn4 2.101362 1_555
O36 Zn0 2.101362 1_555
O37 Zn1 2.101362 1_555
O37 Zn2 2.101362 1_555
O38 Zn3 2.101362 1_555
O38 Zn7 2.101362 1_555
O39 Zn6 2.101362 1_555
O39 Zn5 2.101362 1_555
