# generated using pymatgen
data_Sm6Co2Sn
_symmetry_space_group_name_H-M   'P 1'
_cell_length_a   8.58128990
_cell_length_b   8.58128990
_cell_length_c   8.58128990
_cell_angle_alpha   112.26447806
_cell_angle_beta   109.44771758
_cell_angle_gamma   106.74848574
_symmetry_Int_Tables_number   1
_chemical_formula_structural   Sm6Co2Sn
_chemical_formula_sum   'Sm12 Co4 Sn2'
_cell_volume   485.31953604
_cell_formula_units_Z   2
loop_
 _symmetry_equiv_pos_site_id
 _symmetry_equiv_pos_as_xyz
  1  'x, y, z'
loop_
 _atom_site_type_symbol
 _atom_site_label
 _atom_site_symmetry_multiplicity
 _atom_site_fract_x
 _atom_site_fract_y
 _atom_site_fract_z
 _atom_site_occupancy
  Sm  Sm0  1  0.18591500  0.28871400  0.47462800  1
  Sm  Sm1  1  0.81408500  0.71128600  0.52537200  1
  Sm  Sm2  1  0.18591500  0.71128600  0.89720100  1
  Sm  Sm3  1  0.81408500  0.28871400  0.10279900  1
  Sm  Sm4  1  0.43827300  0.22998800  0.20828500  1
  Sm  Sm5  1  0.56172700  0.77001200  0.79171500  1
  Sm  Sm6  1  0.02170400  0.22998800  0.79171500  1
  Sm  Sm7  1  0.97829600  0.77001200  0.20828500  1
  Sm  Sm8  1  0.31754300  0.62607400  0.30853100  1
  Sm  Sm9  1  0.68245700  0.37392600  0.69146900  1
  Sm  Sm10  1  0.31754300  0.00901200  0.69146900  1
  Sm  Sm11  1  0.68245700  0.99098800  0.30853100  1
  Co  Co0  1  0.10798700  0.60798700  0.50000000  1
  Co  Co1  1  0.89201300  0.39201300  0.50000000  1
  Co  Co2  1  0.37227500  0.00000000  0.37227500  1
  Co  Co3  1  0.62772500  0.00000000  0.62772500  1
  Sn  Sn0  1  0.50000000  0.50000000  0.00000000  1
  Sn  Sn1  1  0.00000000  0.00000000  0.00000000  1
loop_
_geom_bond_atom_site_label_1
_geom_bond_atom_site_label_2
_geom_bond_distance
_geom_bond_site_symmetry_2
Sm0 Sn1 3.319744 1_555
Sm0 Sm5 3.581422 1_555
Sm0 Sm6 3.581424 1_555
Sm0 Sm4 3.635856 1_555
Sm0 Sm7 3.635862 1_445
Sm0 Sm3 3.685460 1_455
Sm0 Sn0 3.711496 1_556
Sm0 Sm8 3.741996 1_555
Sm0 Sm11 3.742005 1_445
Sm0 Sm9 3.747878 1_555
Sm0 Sm10 3.747883 1_555
Sm1 Sn1 3.319744 1_666
Sm1 Sm4 3.581422 1_555
Sm1 Sm7 3.581424 1_555
Sm1 Sm5 3.635856 1_555
Sm1 Sm6 3.635862 1_665
Sm1 Sm2 3.685460 1_655
Sm1 Sn0 3.711496 1_555
Sm1 Sm9 3.741996 1_555
Sm1 Sm10 3.742005 1_665
Sm1 Sm8 3.747878 1_555
Sm1 Sm11 3.747883 1_555
Sm2 Sn1 3.319751 1_566
Sm2 Sm5 3.581422 1_555
Sm2 Sm6 3.581422 1_555
Sm2 Sm4 3.635863 1_566
Sm2 Sm7 3.635869 1_456
Sm2 Sn0 3.711489 1_556
Sm2 Sm9 3.742003 1_455
Sm2 Sm8 3.747878 1_556
Sm3 Sn1 3.319751 1_655
Sm3 Sm4 3.581422 1_555
Sm3 Sm7 3.581422 1_555
Sm3 Sm5 3.635863 1_544
Sm3 Sm6 3.635869 1_654
Sm3 Sn0 3.711489 1_555
Sm3 Sm8 3.742003 1_655
Sm3 Sm9 3.747878 1_554
Sm4 Sn1 3.131650 1_555
Sm4 Sn0 3.450393 1_555
Sm4 Sm9 3.456955 1_555
Sm4 Sm8 3.711254 1_555
Sm5 Sn1 3.131650 1_666
Sm5 Sn0 3.450393 1_556
Sm5 Sm8 3.456955 1_555
Sm5 Sm9 3.711254 1_555
Sm6 Sn1 3.131651 1_556
Sm6 Sn0 3.450386 1_556
Sm6 Sm9 3.456963 1_455
Sm6 Sm8 3.711254 1_556
Sm7 Sn1 3.131651 1_665
Sm7 Sn0 3.450386 1_555
Sm7 Sm8 3.456963 1_655
Sm7 Sm9 3.711254 1_554
Sm8 Sn0 3.492537 1_555
Sm9 Sn0 3.492537 1_556
Sm10 Sm5 3.456955 1_545
Sm10 Sm7 3.456957 1_445
Sm10 Sn0 3.492537 1_556
Sm10 Sm6 3.711246 1_555
Sm10 Sm4 3.711254 1_556
Sm10 Sm2 3.742003 1_545
Sm10 Sm3 3.747878 1_556
Sm11 Sm4 3.456955 1_565
Sm11 Sm6 3.456957 1_665
Sm11 Sn0 3.492537 1_555
Sm11 Sm7 3.711246 1_555
Sm11 Sm5 3.711254 1_554
Sm11 Sm3 3.742003 1_565
Sm11 Sm2 3.747878 1_554
Co0 Co1 2.211347 1_455
Co0 Sm8 2.820869 1_555
Co0 Sm10 2.820869 1_565
Co0 Sm0 2.949887 1_555
Co0 Sm2 2.949889 1_555
Co0 Sm3 2.949889 1_455
Co0 Sm1 2.949891 1_455
Co0 Sm5 3.333512 1_555
Co0 Sm7 3.333514 1_455
Co1 Sm11 2.820869 1_545
Co1 Sm9 2.820869 1_555
Co1 Sm1 2.949887 1_555
Co1 Sm2 2.949889 1_655
Co1 Sm3 2.949889 1_555
Co1 Sm0 2.949891 1_655
Co1 Sm4 3.333512 1_555
Co1 Sm6 3.333514 1_655
Co2 Co3 2.531942 1_555
Co2 Sm4 2.861335 1_555
Co2 Sm7 2.861342 1_445
Co2 Sm8 2.906251 1_545
Co2 Sm9 2.906251 1_555
Co2 Sm11 2.906251 1_545
Co2 Sm10 2.906251 1_555
Co2 Sm0 3.322200 1_555
Co2 Sm2 3.322201 1_544
Co3 Sm5 2.861335 1_545
Co3 Sm6 2.861342 1_655
Co3 Sm9 2.906251 1_555
Co3 Sm11 2.906251 1_545
Co3 Sm8 2.906251 1_545
Co3 Sm10 2.906251 1_555
Co3 Sm1 3.322200 1_545
Co3 Sm3 3.322201 1_556
