# generated using pymatgen
data_BaPdF4
_symmetry_space_group_name_H-M   'P 1'
_cell_length_a   6.20329719
_cell_length_b   6.20329739
_cell_length_c   6.99184901
_cell_angle_alpha   116.33438261
_cell_angle_beta   116.33440224
_cell_angle_gamma   90.00000506
_symmetry_Int_Tables_number   1
_chemical_formula_structural   BaPdF4
_chemical_formula_sum   'Ba2 Pd2 F8'
_cell_volume   209.51956412
_cell_formula_units_Z   2
loop_
 _symmetry_equiv_pos_site_id
 _symmetry_equiv_pos_as_xyz
  1  'x, y, z'
loop_
 _atom_site_type_symbol
 _atom_site_label
 _atom_site_symmetry_multiplicity
 _atom_site_fract_x
 _atom_site_fract_y
 _atom_site_fract_z
 _atom_site_occupancy
  Ba  Ba0  1  0.75000000  0.75000000  0.50000000  1
  Ba  Ba1  1  0.25000000  0.25000000  0.50000000  1
  Pd  Pd0  1  0.50000000  0.00000000  -0.00000000  1
  Pd  Pd1  1  -0.00000000  0.50000000  -0.00000000  1
  F  F0  1  0.96715217  0.46715217  0.25577882  1
  F  F1  1  0.71137435  0.21137435  0.74422118  1
  F  F2  1  0.03284783  0.53284783  0.74422118  1
  F  F3  1  0.21137435  0.03284783  0.74422118  1
  F  F4  1  0.28862565  0.78862565  0.25577882  1
  F  F5  1  0.46715217  0.28862565  0.25577882  1
  F  F6  1  0.78862565  0.96715217  0.25577882  1
  F  F7  1  0.53284783  0.71137435  0.74422118  1
loop_
_geom_bond_atom_site_label_1
_geom_bond_atom_site_label_2
_geom_bond_distance
_geom_bond_site_symmetry_2
Ba0 F6 2.681696 1_555
Ba0 F7 2.681696 1_555
Ba0 F2 2.681698 1_655
Ba0 F0 2.681699 1_555
Ba0 F4 2.681701 1_555
Ba0 F1 2.681701 1_565
Ba0 F3 2.681703 1_665
Ba0 F5 2.681703 1_555
Ba1 F3 2.681696 1_555
Ba1 F5 2.681696 1_555
Ba1 F0 2.681698 1_455
Ba1 F2 2.681699 1_555
Ba1 F1 2.681701 1_555
Ba1 F4 2.681701 1_545
Ba1 F6 2.681703 1_445
Ba1 F7 2.681703 1_555
F0 Pd1 1.981896 1_655
F1 Pd1 1.981890 1_656
F2 Pd1 1.981896 1_556
F3 Pd0 1.981893 1_556
F4 Pd1 1.981890 1_555
F5 Pd0 1.981893 1_555
F6 Pd0 1.981893 1_565
F7 Pd0 1.981893 1_566
