# generated using pymatgen
data_Ca(BH4)2
_symmetry_space_group_name_H-M   'P 1'
_cell_length_a   13.46758800
_cell_length_b   8.56120500
_cell_length_c   7.50148000
_cell_angle_alpha   90.00000000
_cell_angle_beta   90.00000000
_cell_angle_gamma   90.00000000
_symmetry_Int_Tables_number   1
_chemical_formula_structural   Ca(BH4)2
_chemical_formula_sum   'Ca8 B16 H64'
_cell_volume   864.91150512
_cell_formula_units_Z   8
loop_
 _symmetry_equiv_pos_site_id
 _symmetry_equiv_pos_as_xyz
  1  'x, y, z'
loop_
 _atom_site_type_symbol
 _atom_site_label
 _atom_site_symmetry_multiplicity
 _atom_site_fract_x
 _atom_site_fract_y
 _atom_site_fract_z
 _atom_site_occupancy
  Ca  Ca0  1  0.12189300  0.37636200  0.15318200  1
  Ca  Ca1  1  0.62189300  0.12363800  0.84681800  1
  Ca  Ca2  1  0.87810700  0.87636200  0.34681800  1
  Ca  Ca3  1  0.37810700  0.62363800  0.65318200  1
  Ca  Ca4  1  0.87810700  0.62363800  0.84681800  1
  Ca  Ca5  1  0.37810700  0.87636200  0.15318200  1
  Ca  Ca6  1  0.12189300  0.12363800  0.65318200  1
  Ca  Ca7  1  0.62189300  0.37636200  0.34681800  1
  B  B0  1  0.71351100  0.41566200  0.03925900  1
  B  B1  1  0.21351100  0.08433800  0.96074100  1
  B  B2  1  0.28648900  0.91566200  0.46074100  1
  B  B3  1  0.78648900  0.58433800  0.53925900  1
  B  B4  1  0.28648900  0.58433800  0.96074100  1
  B  B5  1  0.78648900  0.91566200  0.03925900  1
  B  B6  1  0.71351100  0.08433800  0.53925900  1
  B  B7  1  0.21351100  0.41566200  0.46074100  1
  B  B8  1  0.99895700  0.84322800  0.66540500  1
  B  B9  1  0.49895700  0.65677200  0.33459500  1
  B  B10  1  0.00104300  0.34322800  0.83459500  1
  B  B11  1  0.50104300  0.15677200  0.16540500  1
  B  B12  1  0.00104300  0.15677200  0.33459500  1
  B  B13  1  0.50104300  0.34322800  0.66540500  1
  B  B14  1  0.99895700  0.65677200  0.16540500  1
  B  B15  1  0.49895700  0.84322800  0.83459500  1
  H  H0  1  0.75727600  0.32250100  0.13606900  1
  H  H1  1  0.25727600  0.17749900  0.86393100  1
  H  H2  1  0.24272400  0.82250100  0.36393100  1
  H  H3  1  0.74272400  0.67749900  0.63606900  1
  H  H4  1  0.24272400  0.67749900  0.86393100  1
  H  H5  1  0.74272400  0.82250100  0.13606900  1
  H  H6  1  0.75727600  0.17749900  0.63606900  1
  H  H7  1  0.25727600  0.32250100  0.36393100  1
  H  H8  1  0.75774100  0.43433900  0.89963400  1
  H  H9  1  0.25774100  0.06566100  0.10036600  1
  H  H10  1  0.24225900  0.93433900  0.60036600  1
  H  H11  1  0.74225900  0.56566100  0.39963400  1
  H  H12  1  0.24225900  0.56566100  0.10036600  1
  H  H13  1  0.74225900  0.93433900  0.89963400  1
  H  H14  1  0.75774100  0.06566100  0.39963400  1
  H  H15  1  0.25774100  0.43433900  0.60036600  1
  H  H16  1  0.69989300  0.53935800  0.11689900  1
  H  H17  1  0.19989300  0.96064200  0.88310100  1
  H  H18  1  0.30010700  0.03935800  0.38310100  1
  H  H19  1  0.80010700  0.46064200  0.61689900  1
  H  H20  1  0.30010700  0.46064200  0.88310100  1
  H  H21  1  0.80010700  0.03935800  0.11689900  1
  H  H22  1  0.69989300  0.96064200  0.61689900  1
  H  H23  1  0.19989300  0.53935800  0.38310100  1
  H  H24  1  0.62990500  0.36709800  0.00190500  1
  H  H25  1  0.12990500  0.13290200  0.99809500  1
  H  H26  1  0.37009500  0.86709800  0.49809500  1
  H  H27  1  0.87009500  0.63290200  0.50190500  1
  H  H28  1  0.37009500  0.63290200  0.99809500  1
  H  H29  1  0.87009500  0.86709800  0.00190500  1
  H  H30  1  0.62990500  0.13290200  0.50190500  1
  H  H31  1  0.12990500  0.36709800  0.49809500  1
  H  H32  1  0.01956100  0.70793100  0.70133300  1
  H  H33  1  0.51956100  0.79206900  0.29866700  1
  H  H34  1  0.98043900  0.20793100  0.79866700  1
  H  H35  1  0.48043900  0.29206900  0.20133300  1
  H  H36  1  0.98043900  0.29206900  0.29866700  1
  H  H37  1  0.48043900  0.20793100  0.70133300  1
  H  H38  1  0.01956100  0.79206900  0.20133300  1
  H  H39  1  0.51956100  0.70793100  0.79866700  1
  H  H40  1  0.90842500  0.86639200  0.66235900  1
  H  H41  1  0.40842500  0.63360800  0.33764100  1
  H  H42  1  0.09157500  0.36639200  0.83764100  1
  H  H43  1  0.59157500  0.13360800  0.16235900  1
  H  H44  1  0.09157500  0.13360800  0.33764100  1
  H  H45  1  0.59157500  0.36639200  0.66235900  1
  H  H46  1  0.90842500  0.63360800  0.16235900  1
  H  H47  1  0.40842500  0.86639200  0.83764100  1
  H  H48  1  0.03585500  0.86843300  0.51893800  1
  H  H49  1  0.53585500  0.63156700  0.48106200  1
  H  H50  1  0.96414500  0.36843300  0.98106200  1
  H  H51  1  0.46414500  0.13156700  0.01893800  1
  H  H52  1  0.96414500  0.13156700  0.48106200  1
  H  H53  1  0.46414500  0.36843300  0.51893800  1
  H  H54  1  0.03585500  0.63156700  0.01893800  1
  H  H55  1  0.53585500  0.86843300  0.98106200  1
  H  H56  1  0.03117000  0.92741700  0.78286000  1
  H  H57  1  0.53117000  0.57258300  0.21714000  1
  H  H58  1  0.96883000  0.42741700  0.71714000  1
  H  H59  1  0.46883000  0.07258300  0.28286000  1
  H  H60  1  0.96883000  0.07258300  0.21714000  1
  H  H61  1  0.46883000  0.42741700  0.78286000  1
  H  H62  1  0.03117000  0.57258300  0.28286000  1
  H  H63  1  0.53117000  0.92741700  0.71714000  1
loop_
_geom_bond_atom_site_label_1
_geom_bond_atom_site_label_2
_geom_bond_distance
_geom_bond_site_symmetry_2
Ca0 H62 2.293723 1_555
Ca0 H36 2.311065 1_455
Ca0 H12 2.326194 1_555
Ca0 H25 2.389446 1_554
Ca0 H42 2.403499 1_554
Ca0 H23 2.454680 1_555
Ca0 H7 2.456893 1_555
Ca0 H50 2.486991 1_454
Ca0 H44 2.529936 1_555
Ca0 H31 2.590821 1_555
Ca0 H54 2.670276 1_555
Ca1 H63 2.293723 1_545
Ca1 H37 2.311065 1_555
Ca1 H13 2.326194 1_545
Ca1 H24 2.389446 1_556
Ca1 H43 2.403499 1_556
Ca1 H22 2.454680 1_545
Ca1 H6 2.456893 1_555
Ca1 H51 2.486991 1_556
Ca1 H45 2.529936 1_555
Ca1 H30 2.590821 1_555
Ca1 H55 2.670276 1_545
Ca2 H60 2.293723 1_565
Ca2 H38 2.311065 1_655
Ca2 H14 2.326194 1_565
Ca2 H27 2.389446 1_555
Ca2 H40 2.403499 1_555
Ca2 H21 2.454680 1_565
Ca2 H5 2.456893 1_555
Ca2 H48 2.486991 1_655
Ca2 H46 2.529936 1_555
Ca2 H29 2.590821 1_555
Ca2 H52 2.670276 1_565
Ca3 H61 2.293723 1_555
Ca3 H39 2.311065 1_555
Ca3 H15 2.326194 1_555
Ca3 H26 2.389446 1_555
Ca3 H41 2.403499 1_555
Ca3 H20 2.454680 1_555
Ca3 H4 2.456893 1_555
Ca3 H49 2.486991 1_555
Ca3 H47 2.529936 1_555
Ca3 H28 2.590821 1_555
Ca3 H53 2.670276 1_555
Ca4 H58 2.293723 1_555
Ca4 H32 2.311065 1_655
Ca4 H8 2.326194 1_555
Ca4 H29 2.389446 1_556
Ca4 H46 2.403499 1_556
Ca4 H19 2.454680 1_555
Ca4 H3 2.456893 1_555
Ca4 H54 2.486991 1_656
Ca4 H40 2.529936 1_555
Ca4 H27 2.590821 1_555
Ca4 H50 2.670276 1_555
Ca5 H59 2.293723 1_565
Ca5 H33 2.311065 1_555
Ca5 H9 2.326194 1_565
Ca5 H28 2.389446 1_554
Ca5 H47 2.403499 1_554
Ca5 H18 2.454680 1_565
Ca5 H2 2.456893 1_555
Ca5 H55 2.486991 1_554
Ca5 H41 2.529936 1_555
Ca5 H26 2.590821 1_555
Ca5 H51 2.670276 1_565
Ca6 H56 2.293723 1_545
Ca6 H34 2.311065 1_455
Ca6 H10 2.326194 1_545
Ca6 H31 2.389446 1_555
Ca6 H44 2.403499 1_555
Ca6 H17 2.454680 1_545
Ca6 H1 2.456893 1_555
Ca6 H52 2.486991 1_455
Ca6 H42 2.529936 1_555
Ca6 H25 2.590821 1_555
Ca6 H48 2.670276 1_545
Ca7 H57 2.293723 1_555
Ca7 H35 2.311065 1_555
Ca7 H11 2.326194 1_555
Ca7 H30 2.389446 1_555
Ca7 H45 2.403499 1_555
Ca7 H16 2.454680 1_555
Ca7 H0 2.456893 1_555
Ca7 H53 2.486991 1_555
Ca7 H43 2.529936 1_555
Ca7 H24 2.590821 1_555
Ca7 H49 2.670276 1_555
B0 H8 1.215494 1_554
B0 H16 1.222414 1_555
B0 H0 1.229193 1_555
B0 H24 1.232554 1_555
B1 H9 1.215494 1_556
B1 H17 1.222414 1_545
B1 H1 1.229193 1_555
B1 H25 1.232554 1_555
B2 H10 1.215494 1_555
B2 H18 1.222414 1_565
B2 H2 1.229193 1_555
B2 H26 1.232554 1_555
B3 H11 1.215494 1_555
B3 H19 1.222414 1_555
B3 H3 1.229193 1_555
B3 H27 1.232554 1_555
B4 H12 1.215494 1_556
B4 H20 1.222414 1_555
B4 H4 1.229193 1_555
B4 H28 1.232554 1_555
B5 H13 1.215494 1_554
B5 H21 1.222414 1_565
B5 H5 1.229193 1_555
B5 H29 1.232554 1_555
B6 H14 1.215494 1_555
B6 H22 1.222414 1_545
B6 H6 1.229193 1_555
B6 H30 1.232554 1_555
B7 H15 1.215494 1_555
B7 H23 1.222414 1_555
B7 H7 1.229193 1_555
B7 H31 1.232554 1_555
B8 H56 1.218202 1_655
B8 H32 1.221191 1_655
B8 H48 1.225024 1_655
B8 H40 1.235482 1_555
B9 H57 1.218202 1_555
B9 H33 1.221191 1_555
B9 H49 1.225024 1_555
B9 H41 1.235482 1_555
B10 H58 1.218202 1_455
B10 H34 1.221191 1_455
B10 H50 1.225024 1_455
B10 H42 1.235482 1_555
B11 H59 1.218202 1_555
B11 H35 1.221191 1_555
B11 H51 1.225024 1_555
B11 H43 1.235482 1_555
B12 H60 1.218202 1_455
B12 H36 1.221191 1_455
B12 H52 1.225024 1_455
B12 H44 1.235482 1_555
B13 H61 1.218202 1_555
B13 H37 1.221191 1_555
B13 H53 1.225024 1_555
B13 H45 1.235482 1_555
B14 H62 1.218202 1_655
B14 H38 1.221191 1_655
B14 H54 1.225024 1_655
B14 H46 1.235482 1_555
B15 H63 1.218202 1_555
B15 H39 1.221191 1_555
B15 H55 1.225024 1_555
B15 H47 1.235482 1_555
