# generated using pymatgen
data_Li2V3WO8
_symmetry_space_group_name_H-M   'P 1'
_cell_length_a   6.21174717
_cell_length_b   6.10754790
_cell_length_c   6.10153905
_cell_angle_alpha   59.58675951
_cell_angle_beta   58.72177116
_cell_angle_gamma   58.71992537
_symmetry_Int_Tables_number   1
_chemical_formula_structural   Li2V3WO8
_chemical_formula_sum   'Li2 V3 W1 O8'
_cell_volume   159.96021735
_cell_formula_units_Z   1
loop_
 _symmetry_equiv_pos_site_id
 _symmetry_equiv_pos_as_xyz
  1  'x, y, z'
loop_
 _atom_site_type_symbol
 _atom_site_label
 _atom_site_symmetry_multiplicity
 _atom_site_fract_x
 _atom_site_fract_y
 _atom_site_fract_z
 _atom_site_occupancy
  Li  Li0  1  0.13378400  0.12787200  0.12779300  1
  Li  Li1  1  0.86621500  0.87212900  0.87221100  1
  V  V0  1  0.00000700  0.49999600  0.49999500  1
  V  V1  1  0.49999900  0.00000200  0.49999900  1
  V  V2  1  0.49999900  0.50000400  0.00000100  1
  W  W0  1  0.50000200  0.49999700  0.49999400  1
  O  O0  1  0.27248900  0.26214600  0.26168700  1
  O  O1  1  0.26212200  0.26667700  0.71657100  1
  O  O2  1  0.26195000  0.71689200  0.26660800  1
  O  O3  1  0.71899500  0.26818400  0.26912300  1
  O  O4  1  0.28100000  0.73182200  0.73088000  1
  O  O5  1  0.73804900  0.28310700  0.73339500  1
  O  O6  1  0.73787500  0.73331900  0.28343400  1
  O  O7  1  0.72751500  0.73785400  0.73830800  1
loop_
_geom_bond_atom_site_label_1
_geom_bond_atom_site_label_2
_geom_bond_distance
_geom_bond_site_symmetry_2
Li0 O1 2.030002 1_554
Li0 O2 2.030819 1_545
Li0 O0 2.055556 1_555
Li0 O3 2.065147 1_455
Li1 O6 2.030006 1_556
Li1 O5 2.030809 1_565
Li1 O7 2.055580 1_555
Li1 O4 2.065127 1_655
O0 V2 2.024216 1_555
O0 V1 2.025349 1_555
O0 V0 2.029553 1_555
O1 W0 2.052512 1_555
O1 V1 2.057831 1_555
O1 V0 2.084734 1_555
O2 W0 2.052251 1_555
O2 V2 2.058475 1_555
O2 V0 2.086288 1_555
O3 W0 1.966927 1_555
O3 V1 2.122645 1_555
O3 V2 2.125340 1_555
O4 W0 1.967043 1_555
O4 V1 2.122647 1_565
O4 V2 2.125349 1_556
O5 W0 2.052299 1_555
O5 V2 2.058508 1_556
O5 V0 2.086325 1_655
O6 W0 2.052497 1_555
O6 V1 2.057839 1_565
O6 V0 2.084749 1_655
O7 V2 2.024210 1_556
O7 V1 2.025363 1_565
O7 V0 2.029610 1_655
