# generated using pymatgen
data_CsFeBr3
_symmetry_space_group_name_H-M   'P 1'
_cell_length_a   6.14409300
_cell_length_b   7.62174097
_cell_length_c   7.62174097
_cell_angle_alpha   119.99999103
_cell_angle_beta   90.00000000
_cell_angle_gamma   90.00000000
_symmetry_Int_Tables_number   1
_chemical_formula_structural   CsFeBr3
_chemical_formula_sum   'Cs2 Fe2 Br6'
_cell_volume   309.09844564
_cell_formula_units_Z   2
loop_
 _symmetry_equiv_pos_site_id
 _symmetry_equiv_pos_as_xyz
  1  'x, y, z'
loop_
 _atom_site_type_symbol
 _atom_site_label
 _atom_site_symmetry_multiplicity
 _atom_site_fract_x
 _atom_site_fract_y
 _atom_site_fract_z
 _atom_site_occupancy
  Cs  Cs0  1  0.75000000  0.33333300  0.66666700  1
  Cs  Cs1  1  0.25000000  0.66666700  0.33333300  1
  Fe  Fe0  1  0.00000000  0.00000000  0.00000000  1
  Fe  Fe1  1  0.50000000  0.00000000  0.00000000  1
  Br  Br0  1  0.25000000  0.14645800  0.85354200  1
  Br  Br1  1  0.25000000  0.70708400  0.85354200  1
  Br  Br2  1  0.25000000  0.14645800  0.29291600  1
  Br  Br3  1  0.75000000  0.85354200  0.14645800  1
  Br  Br4  1  0.75000000  0.29291600  0.14645800  1
  Br  Br5  1  0.75000000  0.85354200  0.70708400  1
loop_
_geom_bond_atom_site_label_1
_geom_bond_atom_site_label_2
_geom_bond_distance
_geom_bond_site_symmetry_2
Br0 Fe0 2.469314 1_556
Br0 Fe1 2.469314 1_556
Br0 Cs1 3.820198 1_556
Br0 Cs1 3.820198 1_545
Br0 Cs0 3.939984 1_555
Br0 Cs0 3.939984 1_455
Br1 Fe0 2.469314 1_566
Br1 Fe1 2.469314 1_566
Br1 Cs1 3.820193 1_556
Br1 Cs1 3.820201 1_555
Br1 Cs0 3.939988 1_455
Br1 Cs0 3.939988 1_555
Br2 Fe0 2.469314 1_555
Br2 Fe1 2.469314 1_555
Br2 Cs1 3.820193 1_545
Br2 Cs1 3.820201 1_555
Br2 Cs0 3.939988 1_455
Br2 Cs0 3.939988 1_555
Br3 Fe0 2.469314 1_665
Br3 Fe1 2.469314 1_565
Br3 Cs0 3.820198 1_554
Br3 Cs0 3.820198 1_565
Br3 Cs1 3.939984 1_555
Br3 Cs1 3.939984 1_655
Br4 Fe0 2.469314 1_655
Br4 Fe1 2.469314 1_555
Br4 Cs0 3.820193 1_554
Br4 Cs0 3.820201 1_555
Br4 Cs1 3.939988 1_655
Br4 Cs1 3.939988 1_555
Br5 Fe1 2.469314 1_566
Br5 Fe0 2.469314 1_666
Br5 Cs0 3.820193 1_565
Br5 Cs0 3.820201 1_555
Br5 Cs1 3.939988 1_555
Br5 Cs1 3.939988 1_655
