# generated using pymatgen
data_Li5Mn4O8
_symmetry_space_group_name_H-M   'P 1'
_cell_length_a   5.82115666
_cell_length_b   10.50392637
_cell_length_c   6.36569589
_cell_angle_alpha   96.07378005
_cell_angle_beta   62.70424105
_cell_angle_gamma   105.92032233
_symmetry_Int_Tables_number   1
_chemical_formula_structural   Li5Mn4O8
_chemical_formula_sum   'Li10 Mn8 O16'
_cell_volume   332.53226052
_cell_formula_units_Z   2
loop_
 _symmetry_equiv_pos_site_id
 _symmetry_equiv_pos_as_xyz
  1  'x, y, z'
loop_
 _atom_site_type_symbol
 _atom_site_label
 _atom_site_symmetry_multiplicity
 _atom_site_fract_x
 _atom_site_fract_y
 _atom_site_fract_z
 _atom_site_occupancy
  Li  Li0  1  0.00097000  0.25058600  0.24948800  1
  Li  Li1  1  0.99941800  0.74963400  0.75039700  1
  Li  Li2  1  0.90331000  0.39564300  0.57696000  1
  Li  Li3  1  0.91805200  0.91356300  0.06656200  1
  Li  Li4  1  0.08229500  0.58640900  0.43266900  1
  Li  Li5  1  0.09643300  0.10478600  0.92368100  1
  Li  Li6  1  0.50000100  0.25004500  0.75041700  1
  Li  Li7  1  0.50000100  0.74988900  0.24987500  1
  Li  Li8  1  0.99961400  0.74966600  0.24973700  1
  Li  Li9  1  0.00010800  0.25034500  0.75036800  1
  Mn  Mn0  1  0.49853100  0.99643600  0.99939900  1
  Mn  Mn1  1  0.50168200  0.50367100  0.50027500  1
  Mn  Mn2  1  0.50850100  0.00340900  0.48840700  1
  Mn  Mn3  1  0.49144600  0.49654200  0.01151600  1
  Mn  Mn4  1  0.00571700  0.00257200  0.48991200  1
  Mn  Mn5  1  0.99425900  0.49724600  0.01005300  1
  Mn  Mn6  1  0.50002200  0.25004700  0.25019300  1
  Mn  Mn7  1  0.49992000  0.74998200  0.75007700  1
  O  O0  1  0.74676500  0.12157100  0.60861200  1
  O  O1  1  0.73622900  0.61644400  0.11976600  1
  O  O2  1  0.26297400  0.88393200  0.38026400  1
  O  O3  1  0.25360300  0.37758900  0.89170900  1
  O  O4  1  0.73082400  0.87632100  0.39436700  1
  O  O5  1  0.72611900  0.37414800  0.90051200  1
  O  O6  1  0.27269500  0.12525900  0.59964700  1
  O  O7  1  0.27033000  0.62413700  0.10531800  1
  O  O8  1  0.26091400  0.86938700  0.88431500  1
  O  O9  1  0.25378600  0.38952900  0.39026000  1
  O  O10  1  0.73357800  0.87358100  0.86834200  1
  O  O11  1  0.75046700  0.39197400  0.37858100  1
  O  O12  1  0.24955400  0.10798100  0.12169600  1
  O  O13  1  0.26670800  0.62658200  0.63121600  1
  O  O14  1  0.74574900  0.11030000  0.11042700  1
  O  O15  1  0.73942400  0.63079400  0.61498100  1
loop_
_geom_bond_atom_site_label_1
_geom_bond_atom_site_label_2
_geom_bond_distance
_geom_bond_site_symmetry_2
Li0 O11 2.199559 1_455
Li0 O12 2.202511 1_555
Li0 O9 2.203028 1_555
Li0 O14 2.211649 1_455
Li0 O3 2.371536 1_554
Li0 O0 2.388543 1_455
Li1 O13 2.116663 1_655
Li1 O10 2.118083 1_555
Li1 O15 2.127038 1_555
Li1 O8 2.130472 1_655
Li1 O1 2.459544 1_556
Li1 O2 2.468979 1_655
Li2 O5 1.838251 1_555
Li2 O11 1.840976 1_555
Li2 O9 1.846832 1_655
Li3 O4 1.883662 1_555
Li3 O10 1.950615 1_554
Li3 O8 1.953239 1_654
Li3 O14 2.472360 1_565
Li3 O12 2.514951 1_665
Li4 O7 1.882089 1_555
Li4 O13 1.952153 1_555
Li4 O15 1.954323 1_455
Li4 O9 2.472519 1_555
Li4 O11 2.513517 1_455
Li5 O6 1.839961 1_555
Li5 O12 1.841085 1_556
Li5 O14 1.846173 1_456
Li6 O3 2.068104 1_555
Li6 O5 2.072037 1_555
Li6 O0 2.077435 1_555
Li6 O6 2.082560 1_555
Li6 O12 2.516088 1_556
Li6 O11 2.517943 1_555
Li7 O7 2.069130 1_555
Li7 O1 2.075778 1_555
Li7 O4 2.076340 1_555
Li7 O2 2.084030 1_555
Li7 O13 2.468080 1_555
Li7 O10 2.470902 1_554
Li8 O7 2.149834 1_655
Li8 O4 2.151108 1_555
Li8 O1 2.175968 1_555
Li8 O2 2.182624 1_655
Li8 O15 2.367678 1_555
Li8 O8 2.372888 1_654
Li9 O5 2.150603 1_455
Li9 O6 2.155311 1_555
Li9 O3 2.157462 1_555
Li9 O0 2.164875 1_455
Li9 O9 2.448054 1_555
Li9 O14 2.452680 1_456
Mn0 O12 1.945030 1_566
Mn0 O14 1.952105 1_566
Mn0 O10 1.981735 1_555
Mn0 O8 1.985121 1_555
Mn0 O2 2.413096 1_556
Mn0 O0 2.521329 1_565
Mn1 O11 1.945462 1_555
Mn1 O9 1.952007 1_555
Mn1 O13 1.981890 1_555
Mn1 O15 1.984476 1_555
Mn1 O1 2.412702 1_555
Mn1 O3 2.529232 1_555
Mn2 O2 1.956323 1_545
Mn2 O0 1.969189 1_555
Mn2 O4 1.970629 1_545
Mn2 O6 1.975936 1_555
Mn2 O14 2.372886 1_555
Mn2 O8 2.591689 1_545
Mn3 O1 1.955458 1_555
Mn3 O3 1.969133 1_554
Mn3 O7 1.970201 1_555
Mn3 O5 1.975896 1_554
Mn3 O9 2.377272 1_555
Mn3 O15 2.595886 1_554
Mn4 O2 2.040545 1_545
Mn4 O0 2.048104 1_455
Mn4 O4 2.060814 1_445
Mn4 O6 2.066505 1_555
Mn4 O12 2.317397 1_555
Mn4 O10 2.482256 1_445
Mn5 O1 2.048420 1_555
Mn5 O3 2.055204 1_654
Mn5 O7 2.067505 1_655
Mn5 O5 2.072371 1_554
Mn5 O11 2.318345 1_555
Mn5 O13 2.485956 1_654
Mn6 O11 2.158346 1_555
Mn6 O12 2.159541 1_555
Mn6 O9 2.167853 1_555
Mn6 O14 2.168101 1_555
Mn6 O5 2.317800 1_554
Mn6 O6 2.320196 1_555
Mn7 O13 1.965902 1_555
Mn7 O10 1.966188 1_555
Mn7 O8 1.969532 1_555
Mn7 O15 1.969960 1_555
Mn7 O7 2.353447 1_556
Mn7 O4 2.358151 1_555
