# generated using pymatgen
data_RbAlCuF6
_symmetry_space_group_name_H-M   'P 1'
_cell_length_a   6.86211300
_cell_length_b   7.19376900
_cell_length_c   10.21936700
_cell_angle_alpha   90.00000000
_cell_angle_beta   90.00000000
_cell_angle_gamma   90.00000000
_symmetry_Int_Tables_number   1
_chemical_formula_structural   RbAlCuF6
_chemical_formula_sum   'Rb4 Al4 Cu4 F24'
_cell_volume   504.47349031
_cell_formula_units_Z   4
loop_
 _symmetry_equiv_pos_site_id
 _symmetry_equiv_pos_as_xyz
  1  'x, y, z'
loop_
 _atom_site_type_symbol
 _atom_site_label
 _atom_site_symmetry_multiplicity
 _atom_site_fract_x
 _atom_site_fract_y
 _atom_site_fract_z
 _atom_site_occupancy
  Rb  Rb0  1  0.01315000  0.25000000  0.62887700  1
  Rb  Rb1  1  0.98685000  0.75000000  0.37112300  1
  Rb  Rb2  1  0.48685000  0.75000000  0.12887700  1
  Rb  Rb3  1  0.51315000  0.25000000  0.87112300  1
  Al  Al0  1  0.00000000  0.00000000  0.00000000  1
  Al  Al1  1  0.50000000  0.00000000  0.50000000  1
  Al  Al2  1  0.00000000  0.50000000  0.00000000  1
  Al  Al3  1  0.50000000  0.50000000  0.50000000  1
  Cu  Cu0  1  0.21053700  0.25000000  0.25570900  1
  Cu  Cu1  1  0.78946300  0.75000000  0.74429100  1
  Cu  Cu2  1  0.28946300  0.75000000  0.75570900  1
  Cu  Cu3  1  0.71053700  0.25000000  0.24429100  1
  F  F0  1  0.28169200  0.04991900  0.40713500  1
  F  F1  1  0.71830800  0.95008100  0.59286500  1
  F  F2  1  0.21830800  0.95008100  0.90713500  1
  F  F3  1  0.71830800  0.54991900  0.59286500  1
  F  F4  1  0.78169200  0.04991900  0.09286500  1
  F  F5  1  0.28169200  0.45008100  0.40713500  1
  F  F6  1  0.78169200  0.45008100  0.09286500  1
  F  F7  1  0.21830800  0.54991900  0.90713500  1
  F  F8  1  0.54799300  0.25000000  0.52540900  1
  F  F9  1  0.45200700  0.75000000  0.47459100  1
  F  F10  1  0.95200700  0.75000000  0.02540900  1
  F  F11  1  0.04799300  0.25000000  0.97459100  1
  F  F12  1  0.14504600  0.49641700  0.14930700  1
  F  F13  1  0.85495400  0.50358300  0.85069300  1
  F  F14  1  0.35495400  0.50358300  0.64930700  1
  F  F15  1  0.85495400  0.99641700  0.85069300  1
  F  F16  1  0.64504600  0.49641700  0.35069300  1
  F  F17  1  0.14504600  0.00358300  0.14930700  1
  F  F18  1  0.64504600  0.00358300  0.35069300  1
  F  F19  1  0.35495400  0.99641700  0.64930700  1
  F  F20  1  0.45579900  0.25000000  0.16943600  1
  F  F21  1  0.54420100  0.75000000  0.83056400  1
  F  F22  1  0.04420100  0.75000000  0.66943600  1
  F  F23  1  0.95579900  0.25000000  0.33056400  1
loop_
_geom_bond_atom_site_label_1
_geom_bond_atom_site_label_2
_geom_bond_distance
_geom_bond_site_symmetry_2
Al0 F4 1.809355 1_455
Al0 F2 1.809355 1_544
Al0 F17 1.821940 1_555
Al0 F15 1.821940 1_444
Al0 F10 1.846694 1_445
Al0 F11 1.846694 1_554
Al1 F1 1.809355 1_545
Al1 F0 1.809355 1_555
Al1 F19 1.821940 1_545
Al1 F18 1.821940 1_555
Al1 F8 1.846694 1_555
Al1 F9 1.846694 1_545
Al2 F6 1.809355 1_455
Al2 F7 1.809355 1_554
Al2 F12 1.821940 1_555
Al2 F13 1.821940 1_454
Al2 F10 1.846694 1_455
Al2 F11 1.846694 1_554
Al3 F3 1.809355 1_555
Al3 F5 1.809355 1_555
Al3 F14 1.821940 1_555
Al3 F16 1.821940 1_555
Al3 F8 1.846694 1_555
Al3 F9 1.846694 1_555
Cu0 F20 1.899963 1_555
Cu0 F23 1.908095 1_455
Cu0 F12 2.127597 1_555
Cu0 F17 2.127597 1_555
Cu0 F5 2.169052 1_555
Cu0 F0 2.169052 1_555
Cu1 F21 1.899963 1_555
Cu1 F22 1.908095 1_655
Cu1 F13 2.127597 1_555
Cu1 F15 2.127597 1_555
Cu1 F1 2.169052 1_555
Cu1 F3 2.169052 1_555
Cu2 F22 1.899963 1_555
Cu2 F21 1.908095 1_555
Cu2 F19 2.127597 1_555
Cu2 F14 2.127597 1_555
Cu2 F2 2.169052 1_555
Cu2 F7 2.169052 1_555
Cu3 F23 1.899963 1_555
Cu3 F20 1.908095 1_555
Cu3 F18 2.127597 1_555
Cu3 F16 2.127597 1_555
Cu3 F6 2.169052 1_555
Cu3 F4 2.169052 1_555
F0 Rb1 2.980595 1_445
F0 Rb0 3.256150 1_555
F1 Rb0 2.980595 1_665
F1 Rb1 3.256150 1_555
F2 Rb3 2.980595 1_565
F2 Rb2 3.256150 1_556
F3 Rb0 2.980595 1_655
F3 Rb1 3.256150 1_555
F4 Rb2 2.980595 1_545
F4 Rb3 3.256150 1_554
F5 Rb1 2.980595 1_455
F5 Rb0 3.256150 1_555
F6 Rb2 2.980595 1_555
F6 Rb3 3.256150 1_554
F7 Rb3 2.980595 1_555
F7 Rb2 3.256150 1_556
F8 Rb0 3.362537 1_655
F9 Rb1 3.362537 1_455
F10 Rb2 3.362537 1_555
F11 Rb3 3.362537 1_555
F12 Rb2 2.978711 1_555
F12 Rb1 3.105588 1_455
F13 Rb3 2.978711 1_555
F13 Rb0 3.105588 1_655
F14 Rb0 2.978711 1_555
F14 Rb3 3.105588 1_555
F15 Rb3 2.978711 1_565
F15 Rb0 3.105588 1_665
F16 Rb1 2.978711 1_555
F16 Rb2 3.105588 1_555
F17 Rb2 2.978711 1_545
F17 Rb1 3.105588 1_445
F18 Rb1 2.978711 1_545
F18 Rb2 3.105588 1_545
F19 Rb0 2.978711 1_565
F19 Rb3 3.105588 1_565
F20 Rb3 3.073867 1_554
F21 Rb2 3.073867 1_556
F22 Rb1 3.073867 1_455
F23 Rb0 3.073867 1_655
