# generated using pymatgen
data_PrZn(WO3)2
_symmetry_space_group_name_H-M   'P 1'
_cell_length_a   5.91415600
_cell_length_b   5.54287100
_cell_length_c   9.83831935
_cell_angle_alpha   55.72147225
_cell_angle_beta   90.00000000
_cell_angle_gamma   90.00000000
_symmetry_Int_Tables_number   1
_chemical_formula_structural   PrZn(WO3)2
_chemical_formula_sum   'Pr2 Zn2 W4 O12'
_cell_volume   266.49629092
_cell_formula_units_Z   2
loop_
 _symmetry_equiv_pos_site_id
 _symmetry_equiv_pos_as_xyz
  1  'x, y, z'
loop_
 _atom_site_type_symbol
 _atom_site_label
 _atom_site_symmetry_multiplicity
 _atom_site_fract_x
 _atom_site_fract_y
 _atom_site_fract_z
 _atom_site_occupancy
  Pr  Pr0  1  0.19615000  0.72811600  0.24968300  1
  Pr  Pr1  1  0.80385000  0.72811600  0.74968300  1
  Zn  Zn0  1  0.83955700  0.22498900  0.25596900  1
  Zn  Zn1  1  0.16044300  0.22498900  0.75596900  1
  W  W0  1  0.72954300  0.99901900  0.00184700  1
  W  W1  1  0.74211300  0.50325300  0.49860500  1
  W  W2  1  0.27045700  0.99901900  0.50184700  1
  W  W3  1  0.25788700  0.50325300  0.99860500  1
  O  O0  1  0.73878400  0.13607300  0.75475100  1
  O  O1  1  0.43686300  0.77738400  0.04881700  1
  O  O2  1  0.44057600  0.37114700  0.44069700  1
  O  O3  1  0.95619000  0.23928200  0.44250900  1
  O  O4  1  0.93737400  0.62810500  0.06889600  1
  O  O5  1  0.21059200  0.88652600  0.74417100  1
  O  O6  1  0.26121600  0.13607300  0.25475100  1
  O  O7  1  0.55942400  0.37114700  0.94069700  1
  O  O8  1  0.56313700  0.77738400  0.54881700  1
  O  O9  1  0.04381000  0.23928200  0.94250900  1
  O  O10  1  0.06262600  0.62810500  0.56889600  1
  O  O11  1  0.78940800  0.88652600  0.24417100  1
loop_
_geom_bond_atom_site_label_1
_geom_bond_atom_site_label_2
_geom_bond_distance
_geom_bond_site_symmetry_2
O0 W0 2.099912 1_546
O0 W1 2.171601 1_555
O0 Pr1 2.321817 1_545
O0 Zn1 2.543329 1_655
O1 W0 2.019771 1_555
O1 W3 2.125739 1_554
O1 Pr0 2.323501 1_555
O2 W2 2.056924 1_545
O2 W1 2.123905 1_555
O2 Pr0 2.312530 1_555
O3 Zn0 2.003488 1_555
O3 W2 2.166354 1_645
O3 W1 2.226652 1_555
O3 Pr0 2.676648 1_655
O3 Pr1 2.885707 1_545
O4 Zn0 2.020476 1_555
O4 W0 2.155253 1_555
O4 W3 2.255970 1_654
O4 Pr0 2.631304 1_655
O4 Pr1 2.971987 1_554
O5 Zn1 1.966295 1_565
O5 W2 2.126829 1_555
O5 W3 2.206181 1_555
O5 Pr1 2.550857 1_455
O6 W2 2.099912 1_545
O6 W3 2.171601 1_554
O6 Pr0 2.321817 1_545
O6 Zn0 2.543329 1_455
O7 W0 2.056924 1_546
O7 W3 2.123905 1_555
O7 Pr1 2.312530 1_555
O8 W2 2.019771 1_555
O8 W1 2.125739 1_555
O8 Pr1 2.323501 1_555
O9 Zn1 2.003488 1_555
O9 W0 2.166354 1_446
O9 W3 2.226652 1_555
O9 Pr1 2.676648 1_455
O9 Pr0 2.885707 1_546
O10 Zn1 2.020476 1_555
O10 W2 2.155253 1_555
O10 W1 2.255970 1_455
O10 Pr1 2.631304 1_455
O10 Pr0 2.971987 1_555
O11 Zn0 1.966295 1_565
O11 W0 2.126829 1_555
O11 W1 2.206181 1_555
O11 Pr0 2.550857 1_655
