# generated using pymatgen
data_Zr2Ir
_symmetry_space_group_name_H-M   'P 1'
_cell_length_a   8.84081353
_cell_length_b   8.84081353
_cell_length_c   8.84081646
_cell_angle_alpha   59.99998905
_cell_angle_beta   59.99998905
_cell_angle_gamma   59.99997809
_symmetry_Int_Tables_number   1
_chemical_formula_structural   Zr2Ir
_chemical_formula_sum   'Zr16 Ir8'
_cell_volume   488.60926092
_cell_formula_units_Z   8
loop_
 _symmetry_equiv_pos_site_id
 _symmetry_equiv_pos_as_xyz
  1  'x, y, z'
loop_
 _atom_site_type_symbol
 _atom_site_label
 _atom_site_symmetry_multiplicity
 _atom_site_fract_x
 _atom_site_fract_y
 _atom_site_fract_z
 _atom_site_occupancy
  Zr  Zr0  1  0.12500000  0.62500000  0.62500000  1
  Zr  Zr1  1  0.62500000  0.12500000  0.62500000  1
  Zr  Zr2  1  0.62500000  0.62500000  0.12500000  1
  Zr  Zr3  1  0.62500000  0.62500000  0.62500000  1
  Zr  Zr4  1  0.81292919  0.81292919  0.18707081  1
  Zr  Zr5  1  0.18707081  0.18707081  0.81292919  1
  Zr  Zr6  1  0.81292919  0.18707081  0.81292919  1
  Zr  Zr7  1  0.18707081  0.81292919  0.18707081  1
  Zr  Zr8  1  0.18707081  0.81292919  0.81292919  1
  Zr  Zr9  1  0.81292919  0.18707081  0.18707081  1
  Zr  Zr10  1  0.43707081  0.43707081  0.06292919  1
  Zr  Zr11  1  0.06292919  0.06292919  0.43707081  1
  Zr  Zr12  1  0.43707081  0.06292919  0.43707081  1
  Zr  Zr13  1  0.06292919  0.43707081  0.06292919  1
  Zr  Zr14  1  0.06292919  0.43707081  0.43707081  1
  Zr  Zr15  1  0.43707081  0.06292919  0.06292919  1
  Ir  Ir0  1  0.79675090  0.40108303  0.40108303  1
  Ir  Ir1  1  0.40108303  0.79675090  0.40108303  1
  Ir  Ir2  1  0.40108303  0.40108303  0.79675190  1
  Ir  Ir3  1  0.40108303  0.40108303  0.40108303  1
  Ir  Ir4  1  0.45324910  0.84891697  0.84891697  1
  Ir  Ir5  1  0.84891697  0.45324910  0.84891697  1
  Ir  Ir6  1  0.84891697  0.84891697  0.45324810  1
  Ir  Ir7  1  0.84891697  0.84891697  0.84891697  1
loop_
_geom_bond_atom_site_label_1
_geom_bond_atom_site_label_2
_geom_bond_distance
_geom_bond_site_symmetry_2
Ir0 Zr11 2.709021 1_655
Ir0 Zr13 2.709022 1_655
Ir0 Zr14 2.709022 1_655
Ir0 Zr1 2.837321 1_555
Ir0 Zr2 2.837322 1_555
Ir0 Zr3 2.837322 1_555
Ir0 Zr4 3.196669 1_555
Ir0 Zr9 3.196670 1_555
Ir0 Zr6 3.196670 1_555
Ir1 Zr11 2.709021 1_565
Ir1 Zr15 2.709022 1_565
Ir1 Zr12 2.709022 1_565
Ir1 Zr0 2.837321 1_555
Ir1 Zr2 2.837322 1_555
Ir1 Zr3 2.837322 1_555
Ir1 Zr4 3.196669 1_555
Ir1 Zr7 3.196670 1_555
Ir1 Zr8 3.196670 1_555
Ir2 Zr10 2.709014 1_556
Ir2 Zr15 2.709018 1_556
Ir2 Zr13 2.709018 1_556
Ir2 Zr3 2.837320 1_555
Ir2 Zr1 2.837327 1_555
Ir2 Zr0 2.837327 1_555
Ir2 Zr6 3.196666 1_555
Ir2 Zr8 3.196666 1_555
Ir2 Zr5 3.196674 1_555
Ir3 Zr12 2.709021 1_555
Ir3 Zr14 2.709021 1_555
Ir3 Zr10 2.709022 1_555
Ir3 Zr1 2.837321 1_555
Ir3 Zr0 2.837321 1_555
Ir3 Zr2 2.837322 1_555
Ir3 Zr9 3.196668 1_555
Ir3 Zr7 3.196668 1_555
Ir3 Zr5 3.196669 1_555
Ir4 Zr5 2.709021 1_565
Ir4 Zr7 2.709022 1_556
Ir4 Zr8 2.709022 1_555
Ir4 Zr1 2.837321 1_565
Ir4 Zr2 2.837322 1_556
Ir4 Zr3 2.837322 1_555
Ir4 Zr10 3.196669 1_556
Ir4 Zr15 3.196670 1_566
Ir4 Zr12 3.196670 1_565
Ir5 Zr5 2.709021 1_655
Ir5 Zr9 2.709022 1_556
Ir5 Zr6 2.709022 1_555
Ir5 Zr0 2.837321 1_655
Ir5 Zr2 2.837322 1_556
Ir5 Zr3 2.837322 1_555
Ir5 Zr10 3.196669 1_556
Ir5 Zr13 3.196670 1_656
Ir5 Zr14 3.196670 1_655
Ir6 Zr4 2.709014 1_555
Ir6 Zr9 2.709018 1_565
Ir6 Zr7 2.709018 1_655
Ir6 Zr3 2.837320 1_555
Ir6 Zr0 2.837327 1_655
Ir6 Zr1 2.837327 1_565
Ir6 Zr12 3.196666 1_565
Ir6 Zr14 3.196666 1_655
Ir6 Zr11 3.196674 1_665
Ir7 Zr6 2.709021 1_565
Ir7 Zr8 2.709021 1_655
Ir7 Zr4 2.709022 1_556
Ir7 Zr0 2.837321 1_655
Ir7 Zr1 2.837321 1_565
Ir7 Zr2 2.837322 1_556
Ir7 Zr15 3.196668 1_566
Ir7 Zr13 3.196668 1_656
Ir7 Zr11 3.196669 1_665
