# generated using pymatgen
data_BaThO3
_symmetry_space_group_name_H-M   'P 1'
_cell_length_a   6.36609550
_cell_length_b   6.41422980
_cell_length_c   9.00638526
_cell_angle_alpha   90.00000000
_cell_angle_beta   90.00000000
_cell_angle_gamma   90.00000000
_symmetry_Int_Tables_number   1
_chemical_formula_structural   BaThO3
_chemical_formula_sum   'Ba4 Th4 O12'
_cell_volume   367.76312834
_cell_formula_units_Z   4
loop_
 _symmetry_equiv_pos_site_id
 _symmetry_equiv_pos_as_xyz
  1  'x, y, z'
loop_
 _atom_site_type_symbol
 _atom_site_label
 _atom_site_symmetry_multiplicity
 _atom_site_fract_x
 _atom_site_fract_y
 _atom_site_fract_z
 _atom_site_occupancy
  Ba  Ba0  1  0.51043024  0.53097320  0.25000000  1
  Ba  Ba1  1  0.98956976  0.03097320  0.25000000  1
  Ba  Ba2  1  0.48956976  0.46902680  0.75000000  1
  Ba  Ba3  1  0.01043024  0.96902680  0.75000000  1
  Th  Th0  1  0.00000000  0.50000000  -0.00000000  1
  Th  Th1  1  0.50000000  -0.00000000  0.50000000  1
  Th  Th2  1  0.00000000  0.50000000  0.50000000  1
  Th  Th3  1  0.50000000  -0.00000000  -0.00000000  1
  O  O0  1  0.40908044  0.97179959  0.25000000  1
  O  O1  1  0.09091956  0.47179959  0.25000000  1
  O  O2  1  0.59091956  0.02820041  0.75000000  1
  O  O3  1  0.90908044  0.52820041  0.75000000  1
  O  O4  1  0.78515072  0.78520012  0.04955375  1
  O  O5  1  0.71484928  0.28520012  0.45044625  1
  O  O6  1  0.21484928  0.21479988  0.54955375  1
  O  O7  1  0.28515072  0.71479988  0.95044625  1
  O  O8  1  0.21484928  0.21479988  0.95044625  1
  O  O9  1  0.28515072  0.71479988  0.54955375  1
  O  O10  1  0.78515072  0.78520012  0.45044625  1
  O  O11  1  0.71484928  0.28520012  0.04955375  1
loop_
_geom_bond_atom_site_label_1
_geom_bond_atom_site_label_2
_geom_bond_distance
_geom_bond_site_symmetry_2
Ba0 O1 2.697481 1_555
Ba0 O11 2.727231 1_555
Ba0 O5 2.727231 1_555
Ba0 O0 2.900240 1_555
Ba0 O4 2.996134 1_555
Ba0 O10 2.996134 1_555
Ba0 O7 3.275016 1_554
Ba0 O9 3.275016 1_555
Ba1 O0 2.697481 1_645
Ba1 O10 2.727231 1_545
Ba1 O4 2.727231 1_545
Ba1 O1 2.900240 1_655
Ba1 O5 2.996134 1_555
Ba1 O11 2.996134 1_555
Ba1 O8 3.275016 1_654
Ba1 O6 3.275016 1_655
Ba2 O3 2.697481 1_555
Ba2 O9 2.727231 1_555
Ba2 O7 2.727231 1_555
Ba2 O2 2.900240 1_555
Ba2 O6 2.996134 1_555
Ba2 O8 2.996134 1_555
Ba2 O5 3.275016 1_555
Ba2 O11 3.275016 1_556
Ba3 O2 2.697481 1_465
Ba3 O6 2.727231 1_565
Ba3 O8 2.727231 1_565
Ba3 O3 2.900240 1_455
Ba3 O9 2.996134 1_555
Ba3 O7 2.996134 1_555
Ba3 O10 3.275016 1_455
Ba3 O4 3.275016 1_456
O0 Th3 2.331827 1_565
O0 Th1 2.331827 1_565
O1 Th2 2.331827 1_555
O1 Th0 2.331827 1_555
O2 Th3 2.331827 1_556
O2 Th1 2.331827 1_555
O3 Th2 2.331827 1_655
O3 Th0 2.331827 1_656
O4 Th3 2.322230 1_565
O4 Th0 2.327318 1_655
O5 Th2 2.322230 1_655
O5 Th1 2.327318 1_555
O6 Th1 2.322230 1_555
O6 Th2 2.327318 1_555
O7 Th0 2.322230 1_556
O7 Th3 2.327318 1_566
O8 Th3 2.322230 1_556
O8 Th0 2.327318 1_556
O9 Th2 2.322230 1_555
O9 Th1 2.327318 1_565
O10 Th1 2.322230 1_565
O10 Th2 2.327318 1_655
O11 Th0 2.322230 1_655
O11 Th3 2.327318 1_555
