# generated using pymatgen
data_YZnSn2
_symmetry_space_group_name_H-M   'P 1'
_cell_length_a   4.33599419
_cell_length_b   4.33599419
_cell_length_c   9.90182135
_cell_angle_alpha   90.00000000
_cell_angle_beta   90.00000000
_cell_angle_gamma   90.00000000
_symmetry_Int_Tables_number   1
_chemical_formula_structural   YZnSn2
_chemical_formula_sum   'Y2 Zn2 Sn4'
_cell_volume   186.16261452
_cell_formula_units_Z   2
loop_
 _symmetry_equiv_pos_site_id
 _symmetry_equiv_pos_as_xyz
  1  'x, y, z'
loop_
 _atom_site_type_symbol
 _atom_site_label
 _atom_site_symmetry_multiplicity
 _atom_site_fract_x
 _atom_site_fract_y
 _atom_site_fract_z
 _atom_site_occupancy
  Y  Y0  1  0.00000000  0.50000000  0.75082735  1
  Y  Y1  1  0.50000000  0.00000000  0.24917265  1
  Zn  Zn0  1  -0.00000000  0.00000000  0.50000000  1
  Zn  Zn1  1  0.50000000  0.50000000  0.50000000  1
  Sn  Sn0  1  0.00000000  0.00000000  -0.00000000  1
  Sn  Sn1  1  0.50000000  0.50000000  -0.00000000  1
  Sn  Sn2  1  0.00000000  0.50000000  0.32240806  1
  Sn  Sn3  1  0.50000000  -0.00000000  0.67759194  1
loop_
_geom_bond_atom_site_label_1
_geom_bond_atom_site_label_2
_geom_bond_distance
_geom_bond_site_symmetry_2
Y0 Zn0 3.296774 1_565
Y0 Zn1 3.296774 1_555
Y0 Zn0 3.296774 1_555
Y0 Zn1 3.296774 1_455
Y1 Zn1 3.296774 1_545
Y1 Zn0 3.296774 1_555
Y1 Zn1 3.296774 1_555
Y1 Zn0 3.296774 1_655
Zn0 Zn1 3.066011 1_455
Zn0 Zn1 3.066011 1_555
Zn0 Zn1 3.066011 1_545
Zn0 Zn1 3.066011 1_445
Sn0 Sn1 3.066011 1_455
Sn0 Sn1 3.066011 1_545
Sn0 Sn1 3.066011 1_445
Sn0 Sn1 3.066011 1_555
Sn0 Y0 3.284448 1_554
Sn0 Y1 3.284448 1_555
Sn0 Y0 3.284448 1_544
Sn0 Y1 3.284448 1_455
Sn1 Y0 3.284448 1_654
Sn1 Y0 3.284448 1_554
Sn1 Y1 3.284448 1_555
Sn1 Y1 3.284448 1_565
Sn2 Zn0 2.791501 1_555
Sn2 Zn1 2.791501 1_455
Sn2 Zn1 2.791501 1_555
Sn2 Zn0 2.791501 1_565
Sn2 Y1 3.150601 1_555
Sn2 Y1 3.150601 1_465
Sn2 Y1 3.150601 1_455
Sn2 Y1 3.150601 1_565
Sn3 Zn0 2.791501 1_555
Sn3 Zn1 2.791501 1_555
Sn3 Zn1 2.791501 1_545
Sn3 Zn0 2.791501 1_655
Sn3 Y0 3.150601 1_545
Sn3 Y0 3.150601 1_655
Sn3 Y0 3.150601 1_645
Sn3 Y0 3.150601 1_555
