# generated using pymatgen
data_Ho5(Co2Si7)2
_symmetry_space_group_name_H-M   'P 1'
_cell_length_a   7.81020400
_cell_length_b   7.72546600
_cell_length_c   12.35463917
_cell_angle_alpha   81.21714162
_cell_angle_beta   90.00000000
_cell_angle_gamma   90.00000000
_symmetry_Int_Tables_number   1
_chemical_formula_structural   Ho5(Co2Si7)2
_chemical_formula_sum   'Ho10 Co8 Si28'
_cell_volume   736.70657559
_cell_formula_units_Z   2
loop_
 _symmetry_equiv_pos_site_id
 _symmetry_equiv_pos_as_xyz
  1  'x, y, z'
loop_
 _atom_site_type_symbol
 _atom_site_label
 _atom_site_symmetry_multiplicity
 _atom_site_fract_x
 _atom_site_fract_y
 _atom_site_fract_z
 _atom_site_occupancy
  Ho  Ho0  1  0.00000000  0.00000000  0.50000000  1
  Ho  Ho1  1  0.50000000  0.50000000  0.50000000  1
  Ho  Ho2  1  0.25178600  0.15775000  0.86409900  1
  Ho  Ho3  1  0.75178600  0.34225000  0.13590100  1
  Ho  Ho4  1  0.74821400  0.84225000  0.13590100  1
  Ho  Ho5  1  0.24821400  0.65775000  0.86409900  1
  Ho  Ho6  1  0.24889600  0.83937000  0.13563000  1
  Ho  Ho7  1  0.74889600  0.66063000  0.86437000  1
  Ho  Ho8  1  0.75110400  0.16063000  0.86437000  1
  Ho  Ho9  1  0.25110400  0.33937000  0.13563000  1
  Co  Co0  1  0.37272800  0.87174900  0.49956200  1
  Co  Co1  1  0.87272800  0.62825100  0.50043800  1
  Co  Co2  1  0.62727200  0.12825100  0.50043800  1
  Co  Co3  1  0.12727200  0.37174900  0.49956200  1
  Co  Co4  1  0.99987200  0.93945100  0.74842600  1
  Co  Co5  1  0.49987200  0.56054900  0.25157400  1
  Co  Co6  1  0.00012800  0.06054900  0.25157400  1
  Co  Co7  1  0.50012800  0.43945100  0.74842600  1
  Si  Si0  1  0.66555800  0.83466300  0.49991500  1
  Si  Si1  1  0.16555800  0.66533700  0.50008500  1
  Si  Si2  1  0.33444200  0.16533700  0.50008500  1
  Si  Si3  1  0.83444200  0.33466300  0.49991500  1
  Si  Si4  1  0.49961500  0.88781500  0.94184600  1
  Si  Si5  1  0.99961500  0.61218500  0.05815400  1
  Si  Si6  1  0.50038500  0.11218500  0.05815400  1
  Si  Si7  1  0.00038500  0.38781500  0.94184600  1
  Si  Si8  1  0.00572300  0.23185800  0.67670100  1
  Si  Si9  1  0.50572300  0.26814200  0.32329900  1
  Si  Si10  1  0.99427700  0.76814200  0.32329900  1
  Si  Si11  1  0.49427700  0.73185800  0.67670100  1
  Si  Si12  1  0.99407100  0.68166000  0.67708300  1
  Si  Si13  1  0.49407100  0.81834000  0.32291700  1
  Si  Si14  1  0.00592900  0.31834000  0.32291700  1
  Si  Si15  1  0.50592900  0.18166000  0.67708300  1
  Si  Si16  1  0.27396100  0.95001600  0.67644300  1
  Si  Si17  1  0.77396100  0.54998400  0.32355700  1
  Si  Si18  1  0.72603900  0.04998400  0.32355700  1
  Si  Si19  1  0.22603900  0.45001600  0.67644300  1
  Si  Si20  1  0.72608600  0.96251100  0.67649200  1
  Si  Si21  1  0.22608600  0.53748900  0.32350800  1
  Si  Si22  1  0.27391400  0.03748900  0.32350800  1
  Si  Si23  1  0.77391400  0.46251100  0.67649200  1
  Si  Si24  1  0.00021900  0.89084600  0.93944800  1
  Si  Si25  1  0.50021900  0.60915400  0.06055200  1
  Si  Si26  1  0.99978100  0.10915400  0.06055200  1
  Si  Si27  1  0.49978100  0.39084600  0.93944800  1
loop_
_geom_bond_atom_site_label_1
_geom_bond_atom_site_label_2
_geom_bond_distance
_geom_bond_site_symmetry_2
Ho0 Si1 2.890599 1_545
Ho0 Si3 2.890599 1_455
Ho0 Si2 2.907710 1_555
Ho0 Si0 2.907710 1_445
Ho0 Si8 3.028268 1_555
Ho0 Si10 3.028268 1_445
Ho0 Si14 3.032124 1_555
Ho0 Si12 3.032124 1_445
Ho0 Si18 3.036816 1_455
Ho0 Si16 3.036816 1_545
Ho0 Si20 3.036823 1_445
Ho0 Si22 3.036823 1_555
Ho1 Si0 2.890599 1_555
Ho1 Si2 2.890599 1_555
Ho1 Si3 2.907710 1_555
Ho1 Si1 2.907710 1_555
Ho1 Si11 3.028268 1_555
Ho1 Si9 3.028268 1_555
Ho1 Si15 3.032124 1_555
Ho1 Si13 3.032124 1_555
Ho1 Si19 3.036816 1_555
Ho1 Si17 3.036816 1_555
Ho1 Si23 3.036823 1_555
Ho1 Si21 3.036823 1_555
Ho2 Si27 2.893590 1_555
Ho2 Si24 2.896978 1_545
Ho2 Si4 2.899352 1_545
Ho2 Si7 2.908314 1_555
Ho2 Si19 2.985800 1_555
Ho2 Si8 2.996102 1_555
Ho2 Si16 3.019408 1_545
Ho2 Si15 3.030203 1_555
Ho2 Si6 3.063322 1_556
Ho2 Si26 3.102802 1_456
Ho3 Si26 2.893590 1_555
Ho3 Si25 2.896978 1_555
Ho3 Si5 2.899352 1_555
Ho3 Si6 2.908314 1_555
Ho3 Si18 2.985800 1_555
Ho3 Si9 2.996102 1_555
Ho3 Si17 3.019408 1_555
Ho3 Si14 3.030203 1_655
Ho3 Si7 3.063322 1_654
Ho3 Si27 3.102802 1_554
Ho4 Si25 2.893590 1_555
Ho4 Si26 2.896978 1_565
Ho4 Si6 2.899352 1_565
Ho4 Si5 2.908314 1_555
Ho4 Si17 2.985800 1_555
Ho4 Si10 2.996102 1_555
Ho4 Si18 3.019408 1_565
Ho4 Si13 3.030203 1_555
Ho4 Si4 3.063322 1_554
Ho4 Si24 3.102802 1_654
Ho5 Si24 2.893590 1_555
Ho5 Si27 2.896978 1_555
Ho5 Si7 2.899352 1_555
Ho5 Si4 2.908314 1_555
Ho5 Si16 2.985800 1_555
Ho5 Si11 2.996102 1_555
Ho5 Si19 3.019408 1_555
Ho5 Si12 3.030203 1_455
Ho5 Si5 3.063322 1_456
Ho5 Si25 3.102802 1_556
Ho6 Si5 2.881008 1_455
Ho6 Si25 2.894861 1_555
Ho6 Si26 2.898177 1_465
Ho6 Si6 2.932613 1_565
Ho6 Si22 2.975487 1_565
Ho6 Si13 2.988691 1_555
Ho6 Si21 3.034046 1_555
Ho6 Si10 3.040335 1_455
Ho6 Si4 3.071274 1_554
Ho6 Si24 3.083928 1_554
Ho7 Si4 2.881008 1_555
Ho7 Si24 2.894861 1_655
Ho7 Si27 2.898177 1_555
Ho7 Si7 2.932613 1_655
Ho7 Si23 2.975487 1_555
Ho7 Si12 2.988691 1_555
Ho7 Si20 3.034046 1_555
Ho7 Si11 3.040335 1_555
Ho7 Si5 3.071274 1_556
Ho7 Si25 3.083928 1_556
Ho8 Si7 2.881008 1_655
Ho8 Si27 2.894861 1_555
Ho8 Si24 2.898177 1_645
Ho8 Si4 2.932613 1_545
Ho8 Si20 2.975487 1_545
Ho8 Si15 2.988691 1_555
Ho8 Si23 3.034046 1_555
Ho8 Si8 3.040335 1_655
Ho8 Si6 3.071274 1_556
Ho8 Si26 3.083928 1_556
Ho9 Si6 2.881008 1_555
Ho9 Si26 2.894861 1_455
Ho9 Si25 2.898177 1_555
Ho9 Si5 2.932613 1_455
Ho9 Si21 2.975487 1_555
Ho9 Si14 2.988691 1_555
Ho9 Si22 3.034046 1_555
Ho9 Si9 3.040335 1_555
Ho9 Si7 3.071274 1_554
Ho9 Si27 3.083928 1_554
Co0 Si1 2.271077 1_555
Co0 Si2 2.288717 1_565
Co0 Si0 2.304859 1_555
Co0 Si13 2.471073 1_555
Co0 Si22 2.472970 1_565
Co0 Si11 2.477173 1_555
Co0 Si16 2.477841 1_555
Co0 Co2 2.808149 1_565
Co0 Ho1 3.038316 1_555
Co0 Ho0 3.075345 1_565
Co1 Si0 2.271077 1_555
Co1 Si3 2.288717 1_555
Co1 Si1 2.304859 1_655
Co1 Si12 2.471073 1_555
Co1 Si23 2.472970 1_555
Co1 Si10 2.477173 1_555
Co1 Si17 2.477841 1_555
Co1 Co3 2.808149 1_655
Co1 Ho0 3.038316 1_665
Co1 Ho1 3.075345 1_555
Co2 Si3 2.271077 1_555
Co2 Si0 2.288717 1_545
Co2 Si2 2.304859 1_555
Co2 Si15 2.471073 1_555
Co2 Si20 2.472970 1_545
Co2 Si9 2.477173 1_555
Co2 Si18 2.477841 1_555
Co2 Ho1 3.038316 1_555
Co2 Ho0 3.075345 1_655
Co3 Si2 2.271077 1_555
Co3 Si1 2.288717 1_555
Co3 Si3 2.304859 1_455
Co3 Si14 2.471073 1_555
Co3 Si21 2.472970 1_555
Co3 Si8 2.477173 1_555
Co3 Si19 2.477841 1_555
Co3 Ho0 3.038316 1_555
Co3 Ho1 3.075345 1_555
Co4 Si8 2.297612 1_665
Co4 Si12 2.298109 1_555
Co4 Si20 2.312064 1_555
Co4 Si16 2.314725 1_655
Co4 Si24 2.332385 1_655
Co4 Ho0 3.033225 1_665
Co4 Ho2 3.081158 1_665
Co4 Ho8 3.081238 1_565
Co4 Ho5 3.096897 1_655
Co4 Ho7 3.097053 1_555
Co5 Si9 2.297612 1_555
Co5 Si13 2.298109 1_555
Co5 Si21 2.312064 1_555
Co5 Si17 2.314725 1_555
Co5 Si25 2.332385 1_555
Co5 Ho1 3.033225 1_555
Co5 Ho3 3.081158 1_555
Co5 Ho9 3.081238 1_555
Co5 Ho4 3.096897 1_555
Co5 Ho6 3.097053 1_555
Co6 Si10 2.297612 1_445
Co6 Si14 2.298109 1_555
Co6 Si22 2.312064 1_555
Co6 Si18 2.314725 1_455
Co6 Si26 2.332385 1_455
Co6 Ho0 3.033225 1_555
Co6 Ho4 3.081158 1_445
Co6 Ho6 3.081238 1_545
Co6 Ho3 3.096897 1_455
Co6 Ho9 3.097053 1_555
Co7 Si11 2.297612 1_555
Co7 Si15 2.298109 1_555
Co7 Si23 2.312064 1_555
Co7 Si19 2.314725 1_555
Co7 Si27 2.332385 1_555
Co7 Ho1 3.033225 1_555
Co7 Ho5 3.081158 1_555
Co7 Ho7 3.081238 1_555
Co7 Ho2 3.096897 1_555
Co7 Ho8 3.097053 1_555
Si0 Si20 2.572185 1_555
Si0 Si18 2.575021 1_565
Si0 Si11 2.580892 1_555
Si0 Si13 2.583762 1_555
Si1 Si21 2.572185 1_555
Si1 Si19 2.575021 1_555
Si1 Si10 2.580892 1_455
Si1 Si12 2.583762 1_455
Si2 Si22 2.572185 1_555
Si2 Si9 2.580892 1_555
Si3 Si8 2.580892 1_655
Si4 Si6 2.414542 1_566
Si5 Si7 2.414542 1_654
Si10 Si17 2.408257 1_555
Si10 Si21 2.540000 1_655
Si11 Si16 2.408257 1_555
Si11 Si20 2.540000 1_555
Si12 Si23 2.413867 1_555
Si12 Si19 2.547395 1_655
Si13 Si22 2.413867 1_565
Si13 Si18 2.547395 1_565
Si14 Si21 2.413867 1_555
Si14 Si17 2.547395 1_455
Si14 Si3 2.583762 1_455
Si15 Si20 2.413867 1_545
Si15 Si16 2.547395 1_545
Si15 Si2 2.583762 1_555
Si16 Si2 2.575021 1_565
Si17 Si3 2.575021 1_555
Si18 Si9 2.408257 1_555
Si19 Si8 2.408257 1_555
Si22 Si9 2.540000 1_555
Si23 Si8 2.540000 1_655
Si23 Si3 2.572185 1_555
Si24 Si5 2.412714 1_456
Si24 Si26 2.419420 1_466
Si25 Si4 2.412714 1_554
Si25 Si27 2.419420 1_554
Si26 Si7 2.412714 1_654
Si27 Si6 2.412714 1_556
