# generated using pymatgen
data_Dy6Co2Sn
_symmetry_space_group_name_H-M   'P 1'
_cell_length_a   8.37829294
_cell_length_b   8.37829294
_cell_length_c   8.37829294
_cell_angle_alpha   112.15746271
_cell_angle_beta   109.41902737
_cell_angle_gamma   106.88024936
_symmetry_Int_Tables_number   1
_chemical_formula_structural   Dy6Co2Sn
_chemical_formula_sum   'Dy12 Co4 Sn2'
_cell_volume   451.77422439
_cell_formula_units_Z   2
loop_
 _symmetry_equiv_pos_site_id
 _symmetry_equiv_pos_as_xyz
  1  'x, y, z'
loop_
 _atom_site_type_symbol
 _atom_site_label
 _atom_site_symmetry_multiplicity
 _atom_site_fract_x
 _atom_site_fract_y
 _atom_site_fract_z
 _atom_site_occupancy
  Dy  Dy0  1  0.44359300  0.23385100  0.20974200  1
  Dy  Dy1  1  0.55640700  0.76614900  0.79025800  1
  Dy  Dy2  1  0.02410800  0.23385100  0.79025800  1
  Dy  Dy3  1  0.97589200  0.76614900  0.20974200  1
  Dy  Dy4  1  0.18539600  0.28569400  0.47109000  1
  Dy  Dy5  1  0.81460400  0.71430600  0.52891000  1
  Dy  Dy6  1  0.18539600  0.71430600  0.89970200  1
  Dy  Dy7  1  0.81460400  0.28569400  0.10029800  1
  Dy  Dy8  1  0.32211100  0.63276100  0.31065000  1
  Dy  Dy9  1  0.67788900  0.36723900  0.68935000  1
  Dy  Dy10  1  0.32211100  0.01146100  0.68935000  1
  Dy  Dy11  1  0.67788900  0.98853900  0.31065000  1
  Co  Co0  1  0.35284000  0.00000000  0.35284000  1
  Co  Co1  1  0.64716000  0.00000000  0.64716000  1
  Co  Co2  1  0.11215200  0.61215200  0.50000000  1
  Co  Co3  1  0.88784800  0.38784800  0.50000000  1
  Sn  Sn0  1  0.50000000  0.50000000  0.00000000  1
  Sn  Sn1  1  0.00000000  0.00000000  0.00000000  1
loop_
_geom_bond_atom_site_label_1
_geom_bond_atom_site_label_2
_geom_bond_distance
_geom_bond_site_symmetry_2
Dy0 Sn1 3.093678 1_555
Dy0 Sn0 3.343606 1_555
Dy1 Sn1 3.093678 1_666
Dy1 Sn0 3.343606 1_556
Dy2 Sn1 3.093678 1_556
Dy2 Sn0 3.343613 1_556
Dy3 Sn1 3.093678 1_665
Dy3 Sn0 3.343613 1_555
Dy4 Sn1 3.218429 1_555
Dy4 Sn0 3.645748 1_556
Dy5 Sn1 3.218429 1_666
Dy5 Sn0 3.645748 1_555
Dy6 Sn1 3.218429 1_566
Dy6 Sn0 3.645748 1_556
Dy7 Sn1 3.218429 1_655
Dy7 Sn0 3.645748 1_555
Dy8 Sn0 3.404571 1_555
Dy9 Sn0 3.404571 1_556
Dy10 Sn0 3.404571 1_556
Dy11 Sn0 3.404571 1_555
Co0 Dy3 2.714246 1_445
Co0 Dy0 2.714253 1_555
Co0 Dy8 2.883958 1_545
Co0 Dy9 2.883958 1_555
Co0 Dy11 2.883958 1_545
Co0 Dy10 2.883958 1_555
Co0 Dy6 3.124848 1_544
Co0 Dy4 3.124848 1_555
Co1 Dy2 2.714246 1_655
Co1 Dy1 2.714253 1_545
Co1 Dy10 2.883958 1_555
Co1 Dy11 2.883958 1_545
Co1 Dy8 2.883958 1_545
Co1 Dy9 2.883958 1_555
Co1 Dy5 3.124848 1_545
Co1 Dy7 3.124848 1_556
Co2 Co3 2.238839 1_455
Co2 Dy10 2.743518 1_565
Co2 Dy8 2.743518 1_555
Co2 Dy4 2.913797 1_555
Co2 Dy7 2.913797 1_455
Co2 Dy6 2.913797 1_555
Co2 Dy5 2.913797 1_455
Co2 Dy3 3.202824 1_455
Co2 Dy1 3.202826 1_555
Co3 Dy11 2.743518 1_545
Co3 Dy9 2.743518 1_555
Co3 Dy4 2.913797 1_655
Co3 Dy7 2.913797 1_555
Co3 Dy6 2.913797 1_655
Co3 Dy5 2.913797 1_555
Co3 Dy2 3.202824 1_655
Co3 Dy0 3.202826 1_555
