# generated using pymatgen
data_Ca3UO6
_symmetry_space_group_name_H-M   'P 1'
_cell_length_a   5.98232900
_cell_length_b   5.76153900
_cell_length_c   8.37781533
_cell_angle_alpha   89.54831435
_cell_angle_beta   90.00000000
_cell_angle_gamma   90.00000000
_symmetry_Int_Tables_number   1
_chemical_formula_structural   Ca3UO6
_chemical_formula_sum   'Ca6 U2 O12'
_cell_volume   288.75272221
_cell_formula_units_Z   2
loop_
 _symmetry_equiv_pos_site_id
 _symmetry_equiv_pos_as_xyz
  1  'x, y, z'
loop_
 _atom_site_type_symbol
 _atom_site_label
 _atom_site_symmetry_multiplicity
 _atom_site_fract_x
 _atom_site_fract_y
 _atom_site_fract_z
 _atom_site_occupancy
  Ca  Ca0  1  0.52193000  0.24997200  0.25025300  1
  Ca  Ca1  1  0.02193000  0.75002800  0.74974700  1
  Ca  Ca2  1  0.07223600  0.25857700  0.00637600  1
  Ca  Ca3  1  0.57223600  0.74142300  0.99362400  1
  Ca  Ca4  1  0.46821200  0.76774800  0.50823800  1
  Ca  Ca5  1  0.96821200  0.23225200  0.49176200  1
  U  U0  1  0.52329200  0.25571100  0.74853900  1
  U  U1  1  0.02329200  0.74428900  0.25146100  1
  O  O0  1  0.08878000  0.61891000  0.48320300  1
  O  O1  1  0.58878000  0.38109000  0.51679700  1
  O  O2  1  0.35110200  0.55620000  0.80309300  1
  O  O3  1  0.85110200  0.44380000  0.19690700  1
  O  O4  1  0.23420200  0.07975800  0.67221500  1
  O  O5  1  0.73420200  0.92024200  0.32778500  1
  O  O6  1  0.45383100  0.12703900  0.98161800  1
  O  O7  1  0.95383100  0.87296100  0.01838200  1
  O  O8  1  0.20345300  0.03787700  0.31002500  1
  O  O9  1  0.70345300  0.96212300  0.68997500  1
  O  O10  1  0.31206200  0.57502000  0.17072300  1
  O  O11  1  0.81206200  0.42498000  0.82927700  1
loop_
_geom_bond_atom_site_label_1
_geom_bond_atom_site_label_2
_geom_bond_distance
_geom_bond_site_symmetry_2
Ca0 O3 2.305820 1_555
Ca0 O8 2.316095 1_555
Ca0 O10 2.346878 1_555
Ca0 O5 2.371521 1_545
Ca0 O1 2.396615 1_555
Ca0 O6 2.399552 1_554
Ca1 O2 2.305820 1_555
Ca1 O9 2.316095 1_455
Ca1 O11 2.346878 1_455
Ca1 O4 2.371521 1_565
Ca1 O0 2.396615 1_555
Ca1 O7 2.399552 1_456
Ca2 O7 2.333339 1_445
Ca2 O3 2.337461 1_455
Ca2 O11 2.349606 1_454
Ca2 O6 2.414778 1_554
Ca2 O10 2.705146 1_555
Ca2 O2 2.928812 1_554
Ca2 O8 2.941700 1_555
Ca3 O6 2.333339 1_565
Ca3 O2 2.337461 1_555
Ca3 O10 2.349606 1_556
Ca3 O7 2.414778 1_556
Ca3 O11 2.705146 1_555
Ca3 O3 2.928812 1_556
Ca3 O9 2.941700 1_555
Ca4 O1 2.342160 1_555
Ca4 O5 2.359785 1_555
Ca4 O9 2.362140 1_555
Ca4 O0 2.436100 1_555
Ca4 O4 2.667872 1_565
Ca4 O8 2.765453 1_565
Ca4 O2 2.833906 1_555
Ca5 O0 2.342160 1_655
Ca5 O4 2.359785 1_655
Ca5 O8 2.362140 1_655
Ca5 O1 2.436100 1_555
Ca5 O5 2.667872 1_545
Ca5 O9 2.765453 1_545
Ca5 O3 2.833906 1_555
O0 U1 2.102995 1_555
O1 U0 2.102995 1_555
O2 U0 2.068766 1_555
O3 U1 2.068766 1_655
O4 U0 2.106592 1_555
O5 U1 2.106592 1_655
O6 U0 2.124254 1_555
O7 U1 2.124254 1_655
O8 U1 2.068009 1_545
O9 U0 2.068009 1_565
O10 U1 2.098418 1_555
O11 U0 2.098418 1_555
