# generated using pymatgen
data_Mg149Pt
_symmetry_space_group_name_H-M   'P 1'
_cell_length_a   15.93370551
_cell_length_b   15.93371047
_cell_length_c   15.64406526
_cell_angle_alpha   90.00000000
_cell_angle_beta   90.00000000
_cell_angle_gamma   120.00001028
_symmetry_Int_Tables_number   1
_chemical_formula_structural   Mg149Pt
_chemical_formula_sum   'Mg149 Pt1'
_cell_volume   3439.64730630
_cell_formula_units_Z   1
loop_
 _symmetry_equiv_pos_site_id
 _symmetry_equiv_pos_as_xyz
  1  'x, y, z'
loop_
 _atom_site_type_symbol
 _atom_site_label
 _atom_site_symmetry_multiplicity
 _atom_site_fract_x
 _atom_site_fract_y
 _atom_site_fract_z
 _atom_site_occupancy
  Mg  Mg0  1  0.60179581  0.00015243  -0.00000000  1
  Mg  Mg1  1  0.39835762  0.00015243  -0.00000000  1
  Mg  Mg2  1  0.19169051  0.00201566  -0.00000000  1
  Mg  Mg3  1  0.81032615  0.00201566  -0.00000000  1
  Mg  Mg4  1  0.19169051  0.18967385  -0.00000000  1
  Mg  Mg5  1  0.99798434  0.18967485  -0.00000000  1
  Mg  Mg6  1  0.80114371  0.19885529  -0.00000000  1
  Mg  Mg7  1  0.39771158  0.19885629  -0.00000000  1
  Mg  Mg8  1  0.59979637  0.19959274  0.00000000  1
  Mg  Mg9  1  0.19826230  0.39652359  -0.00000000  1
  Mg  Mg10  1  0.99984757  0.39820419  0.00000000  1
  Mg  Mg11  1  0.39835762  0.39820519  0.00000000  1
  Mg  Mg12  1  0.80040726  0.40020363  -0.00000000  1
  Mg  Mg13  1  0.59979637  0.40020363  0.00000000  1
  Mg  Mg14  1  0.40018886  0.59981114  0.00000000  1
  Mg  Mg15  1  0.19962227  0.59981114  0.00000000  1
  Mg  Mg16  1  0.99984757  0.60164238  0.00000000  1
  Mg  Mg17  1  0.60179581  0.60164238  -0.00000000  1
  Mg  Mg18  1  0.80114371  0.60228842  -0.00000000  1
  Mg  Mg19  1  0.40018886  0.80037873  0.00000000  1
  Mg  Mg20  1  0.60347641  0.80173870  -0.00000000  1
  Mg  Mg21  1  0.19826230  0.80173870  -0.00000000  1
  Mg  Mg22  1  0.99798434  0.80830949  -0.00000000  1
  Mg  Mg23  1  0.81032615  0.80830949  -0.00000000  1
  Mg  Mg24  1  0.06356628  0.12713155  0.15842937  1
  Mg  Mg25  1  0.87286745  0.93643372  0.15842937  1
  Mg  Mg26  1  0.06356628  0.93643472  0.15842937  1
  Mg  Mg27  1  0.26483037  0.33064744  0.16536549  1
  Mg  Mg28  1  0.06581708  0.33064744  0.16536549  1
  Mg  Mg29  1  0.66935256  0.73516963  0.16536549  1
  Mg  Mg30  1  0.06581708  0.73516963  0.16536549  1
  Mg  Mg31  1  0.66935256  0.93418292  0.16536549  1
  Mg  Mg32  1  0.26483037  0.93418292  0.16536549  1
  Mg  Mg33  1  0.06658109  0.53329055  0.16607333  1
  Mg  Mg34  1  0.46670945  0.53329055  0.16607333  1
  Mg  Mg35  1  0.46670945  0.93341891  0.16607333  1
  Mg  Mg36  1  0.26621181  0.53242261  0.16605596  1
  Mg  Mg37  1  0.26621181  0.73378819  0.16605596  1
  Mg  Mg38  1  0.46757739  0.73378819  0.16605596  1
  Mg  Mg39  1  0.46717563  0.13359947  0.16660808  1
  Mg  Mg40  1  0.66642384  0.13359947  0.16660808  1
  Mg  Mg41  1  0.86639953  0.33357616  0.16660808  1
  Mg  Mg42  1  0.46717563  0.33357616  0.16660808  1
  Mg  Mg43  1  0.86639953  0.53282337  0.16660808  1
  Mg  Mg44  1  0.66642384  0.53282437  0.16660808  1
  Mg  Mg45  1  0.66666700  0.33333300  0.16671205  1
  Mg  Mg46  1  0.86572601  0.13427499  0.16748603  1
  Mg  Mg47  1  0.26854899  0.13427499  0.16748603  1
  Mg  Mg48  1  0.86572601  0.73145101  0.16748603  1
  Mg  Mg49  1  0.00000000  0.00000000  0.33102636  1
  Mg  Mg50  1  0.00036427  0.19910562  0.33174979  1
  Mg  Mg51  1  0.19874136  0.19910662  0.33174979  1
  Mg  Mg52  1  0.00036427  0.80125764  0.33174979  1
  Mg  Mg53  1  0.80089438  0.80125764  0.33174979  1
  Mg  Mg54  1  0.80089438  0.99963573  0.33174979  1
  Mg  Mg55  1  0.19874136  0.99963573  0.33174979  1
  Mg  Mg56  1  0.60038147  0.99980940  0.33272310  1
  Mg  Mg57  1  0.39942893  0.99980940  0.33272310  1
  Mg  Mg58  1  0.00018960  0.39961853  0.33272310  1
  Mg  Mg59  1  0.39942893  0.39961853  0.33272310  1
  Mg  Mg60  1  0.00018960  0.60057207  0.33272310  1
  Mg  Mg61  1  0.60038147  0.60057207  0.33272310  1
  Mg  Mg62  1  0.19985289  0.39970379  0.33279156  1
  Mg  Mg63  1  0.19985289  0.80014811  0.33279156  1
  Mg  Mg64  1  0.60029621  0.80014811  0.33279156  1
  Mg  Mg65  1  0.20002365  0.60001233  0.33310824  1
  Mg  Mg66  1  0.39998867  0.60001233  0.33310824  1
  Mg  Mg67  1  0.39998867  0.79997635  0.33310824  1
  Mg  Mg68  1  0.59988064  0.19976128  0.33340657  1
  Mg  Mg69  1  0.59988064  0.40011936  0.33340657  1
  Mg  Mg70  1  0.80023872  0.40011936  0.33340657  1
  Mg  Mg71  1  0.39983096  0.19991598  0.33359895  1
  Mg  Mg72  1  0.80008402  0.19991598  0.33359895  1
  Mg  Mg73  1  0.80008402  0.60016804  0.33359895  1
  Mg  Mg74  1  0.06651777  0.13303655  0.50000000  1
  Mg  Mg75  1  0.86691839  0.13308061  0.50000000  1
  Mg  Mg76  1  0.26616223  0.13308161  0.50000000  1
  Mg  Mg77  1  0.46666913  0.13321217  0.50000000  1
  Mg  Mg78  1  0.66654304  0.13321217  0.50000000  1
  Mg  Mg79  1  0.26642703  0.33279251  0.50000000  1
  Mg  Mg80  1  0.06636548  0.33279251  0.50000000  1
  Mg  Mg81  1  0.66666700  0.33333300  0.50000000  1
  Mg  Mg82  1  0.46666913  0.33345696  0.50000000  1
  Mg  Mg83  1  0.86678783  0.33345796  0.50000000  1
  Mg  Mg84  1  0.26649105  0.53298211  0.50000000  1
  Mg  Mg85  1  0.46674836  0.53325164  0.50000000  1
  Mg  Mg86  1  0.06650327  0.53325164  0.50000000  1
  Mg  Mg87  1  0.66654304  0.53332987  0.50000000  1
  Mg  Mg88  1  0.86678783  0.53332987  0.50000000  1
  Mg  Mg89  1  0.26649105  0.73350895  0.50000000  1
  Mg  Mg90  1  0.46701789  0.73350895  0.50000000  1
  Mg  Mg91  1  0.06636548  0.73357297  0.50000000  1
  Mg  Mg92  1  0.66720749  0.73357297  0.50000000  1
  Mg  Mg93  1  0.86691839  0.73383777  0.50000000  1
  Mg  Mg94  1  0.46674836  0.93349673  0.50000000  1
  Mg  Mg95  1  0.06651777  0.93348223  0.50000000  1
  Mg  Mg96  1  0.86696345  0.93348223  0.50000000  1
  Mg  Mg97  1  0.26642703  0.93363452  0.50000000  1
  Mg  Mg98  1  0.66720749  0.93363452  0.50000000  1
  Mg  Mg99  1  0.39983096  0.19991598  0.66640105  1
  Mg  Mg100  1  0.80008402  0.19991598  0.66640105  1
  Mg  Mg101  1  0.80008402  0.60016804  0.66640105  1
  Mg  Mg102  1  0.59988064  0.19976128  0.66659243  1
  Mg  Mg103  1  0.59988064  0.40011936  0.66659243  1
  Mg  Mg104  1  0.80023872  0.40011936  0.66659243  1
  Mg  Mg105  1  0.20002365  0.60001233  0.66689076  1
  Mg  Mg106  1  0.39998867  0.60001233  0.66689076  1
  Mg  Mg107  1  0.39998867  0.79997635  0.66689076  1
  Mg  Mg108  1  0.19985289  0.39970379  0.66720744  1
  Mg  Mg109  1  0.19985289  0.80014811  0.66720744  1
  Mg  Mg110  1  0.60029621  0.80014811  0.66720744  1
  Mg  Mg111  1  0.60038147  0.99980940  0.66727690  1
  Mg  Mg112  1  0.39942893  0.99980940  0.66727690  1
  Mg  Mg113  1  0.00018960  0.39961853  0.66727690  1
  Mg  Mg114  1  0.39942893  0.39961853  0.66727690  1
  Mg  Mg115  1  0.00018960  0.60057207  0.66727690  1
  Mg  Mg116  1  0.60038147  0.60057207  0.66727690  1
  Mg  Mg117  1  0.00036427  0.19910562  0.66825021  1
  Mg  Mg118  1  0.19874136  0.19910662  0.66825021  1
  Mg  Mg119  1  0.00036427  0.80125764  0.66825021  1
  Mg  Mg120  1  0.80089438  0.80125764  0.66825021  1
  Mg  Mg121  1  0.80089438  0.99963573  0.66825021  1
  Mg  Mg122  1  0.19874136  0.99963573  0.66825021  1
  Mg  Mg123  1  0.00000000  0.00000000  0.66897364  1
  Mg  Mg124  1  0.86572601  0.13427499  0.83251397  1
  Mg  Mg125  1  0.26854899  0.13427499  0.83251397  1
  Mg  Mg126  1  0.86572601  0.73145101  0.83251397  1
  Mg  Mg127  1  0.66666700  0.33333300  0.83328895  1
  Mg  Mg128  1  0.46717563  0.13359947  0.83339192  1
  Mg  Mg129  1  0.66642384  0.13359947  0.83339192  1
  Mg  Mg130  1  0.86639953  0.33357616  0.83339192  1
  Mg  Mg131  1  0.46717563  0.33357616  0.83339192  1
  Mg  Mg132  1  0.86639953  0.53282337  0.83339192  1
  Mg  Mg133  1  0.66642384  0.53282437  0.83339192  1
  Mg  Mg134  1  0.26621181  0.53242261  0.83394304  1
  Mg  Mg135  1  0.26621181  0.73378819  0.83394304  1
  Mg  Mg136  1  0.46757739  0.73378819  0.83394304  1
  Mg  Mg137  1  0.06658109  0.53329055  0.83392567  1
  Mg  Mg138  1  0.46670945  0.53329055  0.83392567  1
  Mg  Mg139  1  0.46670945  0.93341891  0.83392567  1
  Mg  Mg140  1  0.26483037  0.33064744  0.83463351  1
  Mg  Mg141  1  0.06581708  0.33064744  0.83463351  1
  Mg  Mg142  1  0.66935256  0.73516963  0.83463351  1
  Mg  Mg143  1  0.06581708  0.73516963  0.83463351  1
  Mg  Mg144  1  0.66935256  0.93418292  0.83463351  1
  Mg  Mg145  1  0.26483037  0.93418292  0.83463351  1
  Mg  Mg146  1  0.06356628  0.12713155  0.84157063  1
  Mg  Mg147  1  0.87286745  0.93643372  0.84157063  1
  Mg  Mg148  1  0.06356628  0.93643472  0.84157063  1
  Pt  Pt0  1  0.00000000  0.00000000  0.00000000  1
loop_
_geom_bond_atom_site_label_1
_geom_bond_atom_site_label_2
_geom_bond_distance
_geom_bond_site_symmetry_2
Mg0 Mg6 3.171224 1_555
Mg0 Mg20 3.174941 1_545
Mg0 Mg31 3.176095 1_545
Mg0 Mg144 3.176108 1_544
Mg0 Mg129 3.191467 1_554
Mg0 Mg40 3.191467 1_555
Mg0 Mg8 3.193873 1_555
Mg0 Mg35 3.197624 1_545
Mg0 Mg139 3.197636 1_544
Mg0 Mg19 3.197841 1_545
Mg0 Mg1 3.241524 1_555
Mg0 Mg3 3.307917 1_555
Mg1 Mg7 3.171249 1_555
Mg1 Mg21 3.174948 1_545
Mg1 Mg32 3.176103 1_545
Mg1 Mg145 3.176116 1_544
Mg1 Mg128 3.191467 1_554
Mg1 Mg39 3.191467 1_555
Mg1 Mg8 3.193863 1_555
Mg1 Mg35 3.197616 1_545
Mg1 Mg139 3.197628 1_544
Mg1 Mg19 3.197825 1_545
Mg1 Mg2 3.307917 1_555
Mg2 Mg4 2.990091 1_555
Mg2 Pt0 3.038409 1_555
Mg2 Mg26 3.044539 1_545
Mg2 Mg22 3.086457 1_445
Mg2 Mg47 3.197697 1_555
Mg2 Mg7 3.212039 1_555
Mg2 Mg32 3.237038 1_545
Mg2 Mg21 3.244779 1_545
Mg3 Mg5 2.990098 1_555
Mg3 Pt0 3.038393 1_655
Mg3 Mg46 3.197698 1_555
Mg3 Mg6 3.212041 1_555
Mg3 Mg31 3.237046 1_545
Mg4 Pt0 3.038401 1_555
Mg4 Mg5 3.086465 1_455
Mg4 Mg47 3.197682 1_555
Mg4 Mg7 3.212024 1_555
Mg4 Mg9 3.244795 1_555
Mg5 Pt0 3.038410 1_655
Mg5 Mg6 3.212039 1_555
Mg5 Mg9 3.244786 1_655
Mg6 Mg8 3.214100 1_555
Mg7 Mg8 3.214108 1_555
Mg10 Mg6 3.171240 1_555
Mg10 Mg9 3.174956 1_655
Mg10 Mg28 3.176095 1_655
Mg10 Mg141 3.176108 1_654
Mg10 Mg130 3.191475 1_554
Mg10 Mg41 3.191475 1_555
Mg10 Mg12 3.193872 1_555
Mg10 Mg33 3.197624 1_655
Mg10 Mg137 3.197637 1_654
Mg10 Mg15 3.197848 1_655
Mg10 Mg16 3.241525 1_555
Mg10 Mg5 3.307902 1_555
Mg11 Mg7 3.171233 1_555
Mg11 Mg9 3.174948 1_555
Mg11 Mg27 3.176103 1_555
Mg11 Mg140 3.176116 1_554
Mg11 Mg131 3.191467 1_554
Mg11 Mg42 3.191467 1_555
Mg11 Mg13 3.193863 1_555
Mg11 Mg34 3.197616 1_555
Mg11 Mg138 3.197628 1_554
Mg11 Mg14 3.197841 1_555
Mg11 Mg17 3.241516 1_555
Mg11 Mg4 3.307925 1_555
Mg12 Mg130 3.184723 1_554
Mg12 Mg41 3.184723 1_555
Mg12 Mg132 3.184723 1_554
Mg12 Mg43 3.184723 1_555
Mg12 Mg16 3.193864 1_555
Mg12 Mg127 3.194944 1_554
Mg12 Mg45 3.194956 1_555
Mg12 Mg13 3.196475 1_555
Mg12 Mg8 3.196475 1_555
Mg12 Mg6 3.214109 1_555
Mg12 Mg18 3.214109 1_555
Mg13 Mg131 3.184731 1_554
Mg13 Mg42 3.184731 1_555
Mg13 Mg133 3.184731 1_554
Mg13 Mg44 3.184731 1_555
Mg13 Mg17 3.193857 1_555
Mg13 Mg45 3.194965 1_555
Mg13 Mg8 3.196476 1_555
Mg13 Mg7 3.214100 1_555
Mg13 Mg18 3.214100 1_555
Mg14 Mg34 3.181229 1_555
Mg14 Mg36 3.188483 1_555
Mg14 Mg38 3.188484 1_555
Mg14 Mg15 3.195769 1_555
Mg14 Mg19 3.195786 1_555
Mg14 Mg17 3.197856 1_555
Mg14 Mg9 3.228336 1_555
Mg14 Mg20 3.228344 1_555
Mg15 Mg33 3.181228 1_555
Mg15 Mg37 3.188484 1_555
Mg15 Mg36 3.188492 1_555
Mg15 Mg19 3.195777 1_555
Mg15 Mg16 3.197840 1_455
Mg15 Mg21 3.228345 1_555
Mg15 Mg9 3.228345 1_555
Mg16 Mg18 3.171248 1_555
Mg16 Mg21 3.174964 1_655
Mg16 Mg30 3.176103 1_655
Mg16 Mg43 3.191475 1_555
Mg16 Mg33 3.197616 1_655
Mg16 Mg22 3.307918 1_555
Mg17 Mg18 3.171216 1_555
Mg17 Mg20 3.174972 1_555
Mg17 Mg29 3.176103 1_555
Mg17 Mg44 3.191459 1_555
Mg17 Mg34 3.197623 1_555
Mg17 Mg23 3.307917 1_555
Mg18 Mg48 3.168895 1_555
Mg18 Mg44 3.201635 1_555
Mg18 Mg43 3.201643 1_555
Mg18 Mg23 3.212025 1_555
Mg18 Mg22 3.212039 1_555
Mg19 Mg35 3.181221 1_555
Mg19 Mg37 3.188483 1_555
Mg19 Mg38 3.188500 1_555
Mg19 Mg21 3.228328 1_555
Mg19 Mg20 3.228344 1_555
Mg20 Mg31 3.167436 1_555
Mg20 Mg29 3.167444 1_555
Mg20 Mg38 3.203927 1_555
Mg20 Mg3 3.244786 1_565
Mg20 Mg23 3.244801 1_555
Mg21 Mg32 3.167436 1_555
Mg21 Mg30 3.167444 1_555
Mg21 Mg37 3.203936 1_555
Mg21 Mg22 3.244786 1_455
Mg22 Mg23 2.990090 1_555
Mg22 Pt0 3.038410 1_665
Mg22 Mg26 3.044547 1_655
Mg22 Mg48 3.197689 1_555
Mg22 Mg30 3.237038 1_655
Mg23 Pt0 3.038401 1_665
Mg23 Mg25 3.044540 1_555
Mg23 Mg3 3.086458 1_565
Mg23 Mg48 3.197690 1_555
Mg23 Mg29 3.237045 1_555
Mg24 Pt0 3.036509 1_555
Mg24 Mg26 3.038508 1_545
Mg24 Mg25 3.038531 1_445
Mg24 Mg4 3.044539 1_555
Mg24 Mg5 3.044547 1_455
Mg24 Mg47 3.213861 1_555
Mg24 Mg46 3.213877 1_455
Mg24 Mg49 3.219964 1_555
Mg24 Mg27 3.226797 1_555
Mg24 Mg28 3.226806 1_555
Mg24 Mg51 3.291814 1_555
Mg24 Mg50 3.291822 1_555
Mg25 Pt0 3.036516 1_665
Mg25 Mg26 3.038531 1_655
Mg25 Mg3 3.044532 1_565
Mg25 Mg46 3.213878 1_565
Mg25 Mg48 3.213878 1_555
Mg25 Mg49 3.219971 1_665
Mg25 Mg31 3.226789 1_555
Mg25 Mg29 3.226789 1_555
Mg25 Mg54 3.291814 1_555
Mg25 Mg53 3.291822 1_555
Mg26 Pt0 3.036509 1_565
Mg26 Mg47 3.213869 1_565
Mg26 Mg48 3.213877 1_455
Mg26 Mg49 3.219964 1_565
Mg26 Mg32 3.226797 1_555
Mg26 Mg30 3.226806 1_555
Mg26 Mg55 3.291814 1_555
Mg26 Mg52 3.291830 1_555
Mg27 Mg47 3.159158 1_555
Mg27 Mg9 3.167436 1_555
Mg27 Mg28 3.171019 1_555
Mg27 Mg51 3.173319 1_555
Mg27 Mg42 3.201091 1_555
Mg27 Mg36 3.204096 1_555
Mg27 Mg62 3.206581 1_555
Mg27 Mg59 3.210154 1_555
Mg27 Mg34 3.222805 1_555
Mg27 Mg4 3.237046 1_555
Mg28 Mg46 3.159157 1_455
Mg28 Mg9 3.167444 1_555
Mg28 Mg50 3.173327 1_555
Mg28 Mg41 3.201107 1_455
Mg28 Mg36 3.204103 1_555
Mg28 Mg62 3.206596 1_555
Mg28 Mg58 3.210155 1_555
Mg28 Mg33 3.222806 1_555
Mg28 Mg5 3.237038 1_455
Mg29 Mg48 3.159173 1_555
Mg29 Mg31 3.171020 1_555
Mg29 Mg53 3.173327 1_555
Mg29 Mg44 3.201092 1_555
Mg29 Mg38 3.204095 1_555
Mg29 Mg64 3.206589 1_555
Mg29 Mg61 3.210147 1_555
Mg29 Mg34 3.222805 1_555
Mg30 Mg48 3.159157 1_455
Mg30 Mg32 3.171019 1_555
Mg30 Mg52 3.173319 1_555
Mg30 Mg43 3.201107 1_455
Mg30 Mg37 3.204111 1_555
Mg30 Mg63 3.206597 1_555
Mg30 Mg60 3.210147 1_555
Mg30 Mg33 3.222806 1_555
Mg31 Mg46 3.159173 1_565
Mg31 Mg54 3.173327 1_555
Mg31 Mg40 3.201092 1_565
Mg31 Mg38 3.204103 1_555
Mg31 Mg64 3.206589 1_555
Mg31 Mg56 3.210147 1_555
Mg31 Mg35 3.222805 1_555
Mg32 Mg47 3.159174 1_565
Mg32 Mg55 3.173327 1_555
Mg32 Mg39 3.201091 1_565
Mg32 Mg37 3.204112 1_555
Mg32 Mg63 3.206589 1_555
Mg32 Mg57 3.210154 1_555
Mg32 Mg35 3.222805 1_555
Mg33 Mg43 3.185930 1_455
Mg33 Mg41 3.185930 1_455
Mg33 Mg37 3.187786 1_555
Mg33 Mg36 3.187794 1_555
Mg33 Mg58 3.193625 1_555
Mg33 Mg60 3.193633 1_555
Mg33 Mg65 3.196713 1_555
Mg34 Mg44 3.185922 1_555
Mg34 Mg42 3.185923 1_555
Mg34 Mg36 3.187778 1_555
Mg34 Mg38 3.187779 1_555
Mg34 Mg61 3.193625 1_555
Mg34 Mg59 3.193625 1_555
Mg34 Mg66 3.196713 1_555
Mg35 Mg40 3.185922 1_565
Mg35 Mg39 3.185923 1_565
Mg35 Mg37 3.187786 1_555
Mg35 Mg38 3.187795 1_555
Mg35 Mg57 3.193617 1_555
Mg35 Mg56 3.193625 1_555
Mg35 Mg67 3.196713 1_555
Mg36 Mg62 3.187137 1_555
Mg36 Mg66 3.199614 1_555
Mg36 Mg65 3.199622 1_555
Mg36 Mg9 3.203928 1_555
Mg36 Mg38 3.208500 1_555
Mg36 Mg37 3.208501 1_555
Mg37 Mg63 3.187138 1_555
Mg37 Mg65 3.199606 1_555
Mg37 Mg67 3.199613 1_555
Mg37 Mg38 3.208500 1_555
Mg38 Mg64 3.187137 1_555
Mg38 Mg66 3.199606 1_555
Mg38 Mg67 3.199614 1_555
Mg39 Mg47 3.170284 1_555
Mg39 Mg40 3.174762 1_555
Mg39 Mg45 3.180568 1_555
Mg39 Mg8 3.184731 1_555
Mg39 Mg42 3.186371 1_555
Mg39 Mg57 3.187764 1_545
Mg39 Mg68 3.187834 1_555
Mg39 Mg71 3.197899 1_555
Mg39 Mg7 3.201643 1_555
Mg40 Mg46 3.170284 1_555
Mg40 Mg45 3.180561 1_555
Mg40 Mg8 3.184731 1_555
Mg40 Mg41 3.186362 1_555
Mg40 Mg56 3.187764 1_545
Mg40 Mg68 3.187835 1_555
Mg40 Mg72 3.197891 1_555
Mg40 Mg6 3.201635 1_555
Mg41 Mg46 3.170285 1_555
Mg41 Mg43 3.174747 1_555
Mg41 Mg45 3.180544 1_555
Mg41 Mg58 3.187764 1_655
Mg41 Mg70 3.187827 1_555
Mg41 Mg72 3.197891 1_555
Mg41 Mg6 3.201643 1_555
Mg42 Mg47 3.170276 1_555
Mg42 Mg44 3.174762 1_555
Mg42 Mg45 3.180576 1_555
Mg42 Mg59 3.187756 1_555
Mg42 Mg69 3.187834 1_555
Mg42 Mg71 3.197891 1_555
Mg42 Mg7 3.201635 1_555
Mg43 Mg48 3.170285 1_555
Mg43 Mg45 3.180552 1_555
Mg43 Mg44 3.186362 1_555
Mg43 Mg60 3.187764 1_655
Mg43 Mg70 3.187827 1_555
Mg43 Mg73 3.197891 1_555
Mg44 Mg48 3.170284 1_555
Mg44 Mg45 3.180577 1_555
Mg44 Mg61 3.187764 1_555
Mg44 Mg69 3.187835 1_555
Mg44 Mg73 3.197891 1_555
Mg45 Mg70 3.193390 1_555
Mg45 Mg68 3.193390 1_555
Mg45 Mg69 3.193398 1_555
Mg45 Mg8 3.194957 1_555
Mg46 Mg72 3.167798 1_555
Mg46 Mg6 3.168895 1_555
Mg46 Mg50 3.171260 1_655
Mg46 Mg54 3.171269 1_545
Mg46 Mg5 3.197689 1_555
Mg47 Mg71 3.167790 1_555
Mg47 Mg7 3.168895 1_555
Mg47 Mg51 3.171269 1_555
Mg47 Mg55 3.171269 1_545
Mg48 Mg73 3.167798 1_555
Mg48 Mg52 3.171260 1_655
Mg48 Mg53 3.171260 1_555
Mg49 Mg54 3.169612 1_445
Mg49 Mg55 3.169613 1_545
Mg49 Mg50 3.169613 1_555
Mg49 Mg53 3.169620 1_445
Mg49 Mg51 3.169620 1_555
Mg49 Mg52 3.169629 1_545
Mg49 Mg95 3.218346 1_545
Mg49 Mg96 3.218354 1_445
Mg49 Mg74 3.218354 1_555
Mg50 Mg51 3.160874 1_555
Mg50 Mg54 3.178294 1_445
Mg50 Mg62 3.187511 1_555
Mg50 Mg58 3.196343 1_555
Mg50 Mg72 3.197813 1_455
Mg50 Mg74 3.202653 1_555
Mg50 Mg75 3.212318 1_455
Mg50 Mg80 3.214235 1_555
Mg51 Mg55 3.178311 1_545
Mg51 Mg62 3.187480 1_555
Mg51 Mg59 3.196334 1_555
Mg51 Mg71 3.197805 1_555
Mg51 Mg74 3.202660 1_555
Mg51 Mg76 3.212318 1_555
Mg51 Mg79 3.214227 1_555
Mg52 Mg55 3.160890 1_555
Mg52 Mg53 3.178294 1_455
Mg52 Mg63 3.187511 1_555
Mg52 Mg60 3.196311 1_555
Mg52 Mg73 3.197805 1_455
Mg52 Mg95 3.202668 1_555
Mg52 Mg93 3.212318 1_455
Mg52 Mg91 3.214227 1_555
Mg53 Mg54 3.160899 1_555
Mg53 Mg64 3.187511 1_555
Mg53 Mg61 3.196326 1_555
Mg53 Mg73 3.197798 1_555
Mg53 Mg96 3.202668 1_555
Mg53 Mg93 3.212303 1_555
Mg53 Mg92 3.214234 1_555
Mg54 Mg64 3.187503 1_555
Mg54 Mg56 3.196334 1_555
Mg54 Mg72 3.197814 1_565
Mg54 Mg96 3.202653 1_555
Mg54 Mg75 3.212311 1_565
Mg54 Mg98 3.214234 1_555
Mg55 Mg63 3.187512 1_555
Mg55 Mg57 3.196350 1_555
Mg55 Mg71 3.197805 1_565
Mg55 Mg95 3.202660 1_555
Mg55 Mg76 3.212318 1_565
Mg55 Mg97 3.214235 1_555
Mg56 Mg64 3.180666 1_555
Mg56 Mg72 3.185255 1_565
Mg56 Mg67 3.188555 1_555
Mg56 Mg68 3.189991 1_565
Mg56 Mg98 3.196309 1_555
Mg56 Mg78 3.199504 1_565
Mg56 Mg94 3.201332 1_555
Mg56 Mg57 3.201919 1_555
Mg57 Mg63 3.180665 1_555
Mg57 Mg71 3.185272 1_565
Mg57 Mg67 3.188556 1_555
Mg57 Mg68 3.189982 1_565
Mg57 Mg97 3.196317 1_555
Mg57 Mg77 3.199504 1_565
Mg57 Mg94 3.201324 1_555
Mg58 Mg62 3.180697 1_555
Mg58 Mg72 3.185247 1_455
Mg58 Mg65 3.188571 1_555
Mg58 Mg70 3.189974 1_455
Mg58 Mg80 3.196317 1_555
Mg58 Mg83 3.199496 1_455
Mg58 Mg86 3.201332 1_555
Mg58 Mg60 3.201936 1_555
Mg59 Mg62 3.180666 1_555
Mg59 Mg71 3.185240 1_555
Mg59 Mg66 3.188572 1_555
Mg59 Mg69 3.189974 1_555
Mg59 Mg79 3.196317 1_555
Mg59 Mg82 3.199496 1_555
Mg59 Mg85 3.201332 1_555
Mg59 Mg61 3.201927 1_555
Mg60 Mg63 3.180681 1_555
Mg60 Mg73 3.185239 1_455
Mg60 Mg65 3.188571 1_555
Mg60 Mg70 3.189982 1_455
Mg60 Mg91 3.196309 1_555
Mg60 Mg88 3.199496 1_455
Mg60 Mg86 3.201340 1_555
Mg61 Mg64 3.180666 1_555
Mg61 Mg73 3.185255 1_555
Mg61 Mg66 3.188556 1_555
Mg61 Mg69 3.189991 1_555
Mg61 Mg92 3.196309 1_555
Mg61 Mg87 3.199512 1_555
Mg61 Mg85 3.201332 1_555
Mg62 Mg66 3.190286 1_555
Mg62 Mg65 3.190303 1_555
Mg62 Mg84 3.197628 1_555
Mg62 Mg79 3.199274 1_555
Mg62 Mg80 3.199290 1_555
Mg63 Mg65 3.190271 1_555
Mg63 Mg67 3.190278 1_555
Mg63 Mg89 3.197621 1_555
Mg63 Mg97 3.199282 1_555
Mg63 Mg91 3.199290 1_555
Mg64 Mg67 3.190278 1_555
Mg64 Mg66 3.190278 1_555
Mg64 Mg90 3.197628 1_555
Mg64 Mg98 3.199282 1_555
Mg64 Mg92 3.199282 1_555
Mg65 Mg67 3.186176 1_555
Mg65 Mg66 3.186184 1_555
Mg65 Mg89 3.195316 1_555
Mg65 Mg84 3.195324 1_555
Mg65 Mg86 3.195501 1_555
Mg66 Mg67 3.186169 1_555
Mg66 Mg90 3.195316 1_555
Mg66 Mg84 3.195323 1_555
Mg66 Mg85 3.195502 1_555
Mg67 Mg90 3.195316 1_555
Mg67 Mg89 3.195323 1_555
Mg67 Mg94 3.195502 1_555
Mg68 Mg72 3.188751 1_555
Mg68 Mg71 3.188767 1_555
Mg68 Mg77 3.189231 1_555
Mg68 Mg78 3.189231 1_555
Mg68 Mg81 3.192099 1_555
Mg68 Mg70 3.192447 1_555
Mg68 Mg69 3.192448 1_555
Mg69 Mg73 3.188751 1_555
Mg69 Mg71 3.188759 1_555
Mg69 Mg87 3.189223 1_555
Mg69 Mg82 3.189231 1_555
Mg69 Mg81 3.192107 1_555
Mg69 Mg70 3.192447 1_555
Mg70 Mg73 3.188752 1_555
Mg70 Mg72 3.188752 1_555
Mg70 Mg83 3.189223 1_555
Mg70 Mg88 3.189223 1_555
Mg70 Mg81 3.192098 1_555
Mg71 Mg82 3.189397 1_555
Mg71 Mg77 3.189405 1_555
Mg71 Mg76 3.190415 1_555
Mg72 Mg78 3.189397 1_555
Mg72 Mg83 3.189405 1_555
Mg72 Mg75 3.190424 1_555
Mg73 Mg87 3.189397 1_555
Mg73 Mg88 3.189405 1_555
Mg73 Mg93 3.190424 1_555
Mg74 Mg96 3.179640 1_445
Mg74 Mg95 3.179641 1_545
Mg74 Mg75 3.180709 1_455
Mg74 Mg76 3.180717 1_555
Mg74 Mg80 3.184068 1_555
Mg74 Mg79 3.184075 1_555
Mg75 Mg98 3.180027 1_545
Mg75 Mg80 3.180043 1_655
Mg75 Mg96 3.180702 1_545
Mg75 Mg78 3.193770 1_555
Mg75 Mg83 3.193795 1_555
Mg76 Mg79 3.180028 1_555
Mg76 Mg97 3.180044 1_545
Mg76 Mg95 3.180717 1_545
Mg76 Mg99 3.190415 1_555
Mg76 Mg82 3.193770 1_555
Mg76 Mg77 3.193778 1_555
Mg77 Mg94 3.182839 1_545
Mg77 Mg78 3.184732 1_555
Mg77 Mg97 3.185318 1_545
Mg77 Mg81 3.187687 1_555
Mg77 Mg99 3.189405 1_555
Mg77 Mg82 3.190643 1_555
Mg78 Mg94 3.182838 1_545
Mg78 Mg98 3.185319 1_545
Mg78 Mg81 3.187680 1_555
Mg78 Mg83 3.190649 1_555
Mg79 Mg82 3.185318 1_555
Mg79 Mg80 3.187722 1_555
Mg79 Mg84 3.189253 1_555
Mg79 Mg85 3.192959 1_555
Mg80 Mg83 3.185326 1_455
Mg80 Mg84 3.189252 1_555
Mg80 Mg86 3.192961 1_555
Mg81 Mg83 3.187671 1_555
Mg81 Mg88 3.187679 1_555
Mg81 Mg87 3.187680 1_555
Mg81 Mg82 3.187695 1_555
Mg82 Mg85 3.182840 1_555
Mg82 Mg87 3.184724 1_555
Mg82 Mg99 3.189397 1_555
Mg83 Mg86 3.182831 1_655
Mg83 Mg88 3.184701 1_555
Mg84 Mg85 3.188696 1_555
Mg84 Mg86 3.188696 1_555
Mg84 Mg90 3.195136 1_555
Mg84 Mg89 3.195137 1_555
Mg85 Mg87 3.182847 1_555
Mg85 Mg90 3.188697 1_555
Mg85 Mg92 3.192959 1_555
Mg86 Mg88 3.182830 1_455
Mg86 Mg89 3.188696 1_555
Mg86 Mg91 3.192960 1_555
Mg87 Mg92 3.185335 1_555
Mg87 Mg88 3.190642 1_555
Mg87 Mg93 3.193778 1_555
Mg88 Mg91 3.185326 1_655
Mg88 Mg93 3.193795 1_555
Mg89 Mg94 3.188696 1_555
Mg89 Mg91 3.189252 1_555
Mg89 Mg97 3.189253 1_555
Mg89 Mg90 3.195136 1_555
Mg90 Mg94 3.188697 1_555
Mg90 Mg98 3.189252 1_555
Mg90 Mg92 3.189252 1_555
Mg91 Mg93 3.180043 1_455
Mg91 Mg95 3.184084 1_555
Mg91 Mg97 3.187722 1_555
Mg92 Mg93 3.180027 1_555
Mg92 Mg96 3.184075 1_555
Mg92 Mg98 3.187723 1_555
Mg93 Mg95 3.180717 1_655
Mg93 Mg96 3.180718 1_555
Mg94 Mg97 3.192959 1_555
Mg94 Mg98 3.192960 1_555
Mg95 Mg96 3.179640 1_455
Mg95 Mg97 3.184083 1_555
Mg96 Mg98 3.184067 1_555
Mg100 Mg124 3.167798 1_555
Mg100 Mg113 3.185247 1_655
Mg100 Mg111 3.185255 1_545
Mg100 Mg102 3.188751 1_555
Mg100 Mg104 3.188752 1_555
Mg100 Mg78 3.189397 1_555
Mg100 Mg83 3.189405 1_555
Mg100 Mg75 3.190424 1_555
Mg100 Mg117 3.197813 1_655
Mg100 Mg121 3.197814 1_545
Mg100 Mg129 3.197891 1_555
Mg100 Mg130 3.197891 1_555
Mg101 Mg126 3.167798 1_555
Mg101 Mg115 3.185239 1_655
Mg101 Mg116 3.185255 1_555
Mg101 Mg103 3.188751 1_555
Mg101 Mg104 3.188752 1_555
Mg101 Mg87 3.189397 1_555
Mg101 Mg88 3.189405 1_555
Mg101 Mg93 3.190424 1_555
Mg101 Mg120 3.197798 1_555
Mg101 Mg119 3.197805 1_655
Mg101 Mg133 3.197891 1_555
Mg101 Mg132 3.197891 1_555
Mg102 Mg128 3.187847 1_555
Mg102 Mg129 3.187848 1_555
Mg102 Mg99 3.188767 1_555
Mg102 Mg77 3.189218 1_555
Mg102 Mg78 3.189218 1_555
Mg102 Mg112 3.189982 1_545
Mg102 Mg111 3.189991 1_545
Mg102 Mg81 3.192086 1_555
Mg102 Mg104 3.192447 1_555
Mg102 Mg103 3.192448 1_555
Mg102 Mg127 3.193415 1_555
Mg103 Mg131 3.187847 1_555
Mg103 Mg133 3.187848 1_555
Mg103 Mg99 3.188759 1_555
Mg103 Mg87 3.189211 1_555
Mg103 Mg82 3.189218 1_555
Mg103 Mg114 3.189974 1_555
Mg103 Mg116 3.189991 1_555
Mg103 Mg81 3.192094 1_555
Mg103 Mg104 3.192447 1_555
Mg103 Mg127 3.193423 1_555
Mg104 Mg130 3.187840 1_555
Mg104 Mg132 3.187840 1_555
Mg104 Mg83 3.189211 1_555
Mg104 Mg88 3.189211 1_555
Mg104 Mg113 3.189974 1_655
Mg104 Mg115 3.189982 1_655
Mg104 Mg81 3.192086 1_555
Mg104 Mg127 3.193415 1_555
Mg105 Mg107 3.186176 1_555
Mg105 Mg106 3.186184 1_555
Mg105 Mg115 3.188571 1_555
Mg105 Mg113 3.188571 1_555
Mg105 Mg109 3.190271 1_555
Mg105 Mg108 3.190303 1_555
Mg105 Mg89 3.195303 1_555
Mg105 Mg84 3.195311 1_555
Mg105 Mg86 3.195489 1_555
Mg105 Mg137 3.196713 1_555
Mg105 Mg135 3.199606 1_555
Mg105 Mg134 3.199622 1_555
Mg106 Mg107 3.186169 1_555
Mg106 Mg116 3.188556 1_555
Mg106 Mg114 3.188572 1_555
Mg106 Mg110 3.190278 1_555
Mg106 Mg108 3.190286 1_555
Mg106 Mg90 3.195303 1_555
Mg106 Mg84 3.195311 1_555
Mg106 Mg85 3.195489 1_555
Mg106 Mg138 3.196713 1_555
Mg106 Mg136 3.199606 1_555
Mg106 Mg134 3.199614 1_555
Mg107 Mg111 3.188555 1_555
Mg107 Mg112 3.188556 1_555
Mg107 Mg110 3.190278 1_555
Mg107 Mg109 3.190278 1_555
Mg107 Mg90 3.195303 1_555
Mg107 Mg89 3.195311 1_555
Mg107 Mg94 3.195489 1_555
Mg107 Mg139 3.196713 1_555
Mg107 Mg135 3.199613 1_555
Mg107 Mg136 3.199614 1_555
Mg108 Mg114 3.180666 1_555
Mg108 Mg113 3.180697 1_555
Mg108 Mg134 3.187137 1_555
Mg108 Mg118 3.187480 1_555
Mg108 Mg117 3.187511 1_555
Mg108 Mg84 3.197616 1_555
Mg108 Mg79 3.199261 1_555
Mg108 Mg80 3.199277 1_555
Mg108 Mg140 3.206581 1_555
Mg108 Mg141 3.206596 1_555
Mg109 Mg112 3.180665 1_555
Mg109 Mg115 3.180681 1_555
Mg109 Mg135 3.187138 1_555
Mg109 Mg119 3.187511 1_555
Mg109 Mg122 3.187512 1_555
Mg109 Mg89 3.197608 1_555
Mg109 Mg97 3.199269 1_555
Mg109 Mg91 3.199277 1_555
Mg109 Mg145 3.206589 1_555
Mg109 Mg143 3.206597 1_555
Mg110 Mg111 3.180666 1_555
Mg110 Mg116 3.180666 1_555
Mg110 Mg136 3.187137 1_555
Mg110 Mg121 3.187503 1_555
Mg110 Mg120 3.187511 1_555
Mg110 Mg90 3.197615 1_555
Mg110 Mg98 3.199269 1_555
Mg110 Mg92 3.199269 1_555
Mg110 Mg144 3.206589 1_555
Mg110 Mg142 3.206589 1_555
Mg111 Mg129 3.187764 1_565
Mg111 Mg139 3.193612 1_555
Mg111 Mg98 3.196309 1_555
Mg111 Mg121 3.196334 1_555
Mg111 Mg78 3.199504 1_565
Mg111 Mg94 3.201332 1_555
Mg111 Mg112 3.201919 1_555
Mg111 Mg144 3.210134 1_555
Mg112 Mg99 3.185272 1_565
Mg112 Mg128 3.187764 1_565
Mg112 Mg139 3.193604 1_555
Mg112 Mg97 3.196317 1_555
Mg112 Mg122 3.196350 1_555
Mg112 Mg77 3.199504 1_565
Mg112 Mg94 3.201324 1_555
Mg112 Mg145 3.210142 1_555
Mg113 Mg130 3.187764 1_455
Mg113 Mg137 3.193613 1_555
Mg113 Mg80 3.196317 1_555
Mg113 Mg117 3.196343 1_555
Mg113 Mg83 3.199496 1_455
Mg113 Mg86 3.201332 1_555
Mg113 Mg115 3.201936 1_555
Mg113 Mg141 3.210142 1_555
Mg114 Mg99 3.185240 1_555
Mg114 Mg131 3.187756 1_555
Mg114 Mg138 3.193613 1_555
Mg114 Mg79 3.196317 1_555
Mg114 Mg118 3.196334 1_555
Mg114 Mg82 3.199496 1_555
Mg114 Mg85 3.201332 1_555
Mg114 Mg116 3.201927 1_555
Mg114 Mg140 3.210142 1_555
Mg115 Mg132 3.187764 1_455
Mg115 Mg137 3.193620 1_555
Mg115 Mg91 3.196309 1_555
Mg115 Mg119 3.196311 1_555
Mg115 Mg88 3.199496 1_455
Mg115 Mg86 3.201340 1_555
Mg115 Mg143 3.210134 1_555
Mg116 Mg133 3.187764 1_555
Mg116 Mg138 3.193612 1_555
Mg116 Mg92 3.196309 1_555
Mg116 Mg120 3.196326 1_555
Mg116 Mg87 3.199512 1_555
Mg116 Mg85 3.201332 1_555
Mg116 Mg142 3.210134 1_555
Mg117 Mg118 3.160874 1_555
Mg117 Mg123 3.169613 1_555
Mg117 Mg124 3.171260 1_455
Mg117 Mg141 3.173314 1_555
Mg117 Mg121 3.178294 1_445
Mg117 Mg74 3.202653 1_555
Mg117 Mg75 3.212318 1_455
Mg117 Mg80 3.214235 1_555
Mg117 Mg146 3.291822 1_555
Mg118 Mg123 3.169620 1_555
Mg118 Mg125 3.171269 1_555
Mg118 Mg140 3.173307 1_555
Mg118 Mg122 3.178311 1_545
Mg118 Mg99 3.197805 1_555
Mg118 Mg74 3.202660 1_555
Mg118 Mg76 3.212318 1_555
Mg118 Mg79 3.214227 1_555
Mg118 Mg146 3.291814 1_555
Mg119 Mg122 3.160890 1_555
Mg119 Mg123 3.169629 1_565
Mg119 Mg126 3.171260 1_455
Mg119 Mg143 3.173306 1_555
Mg119 Mg120 3.178294 1_455
Mg119 Mg95 3.202668 1_555
Mg119 Mg93 3.212318 1_455
Mg119 Mg91 3.214227 1_555
Mg119 Mg148 3.291830 1_555
Mg120 Mg121 3.160899 1_555
Mg120 Mg123 3.169620 1_665
Mg120 Mg126 3.171260 1_555
Mg120 Mg142 3.173314 1_555
Mg120 Mg96 3.202668 1_555
Mg120 Mg93 3.212303 1_555
Mg120 Mg92 3.214234 1_555
Mg120 Mg147 3.291822 1_555
Mg121 Mg123 3.169612 1_665
Mg121 Mg124 3.171269 1_565
Mg121 Mg144 3.173314 1_555
Mg121 Mg96 3.202653 1_555
Mg121 Mg75 3.212311 1_565
Mg121 Mg98 3.214234 1_555
Mg121 Mg147 3.291814 1_555
Mg122 Mg123 3.169613 1_565
Mg122 Mg125 3.171269 1_565
Mg122 Mg145 3.173314 1_555
Mg122 Mg99 3.197805 1_565
Mg122 Mg95 3.202660 1_555
Mg122 Mg76 3.212318 1_565
Mg122 Mg97 3.214235 1_555
Mg122 Mg148 3.291814 1_555
Mg123 Mg95 3.218346 1_545
Mg123 Mg96 3.218354 1_445
Mg123 Mg74 3.218354 1_555
Mg123 Mg146 3.219964 1_555
Mg123 Mg148 3.219964 1_545
Mg123 Mg147 3.219971 1_445
Mg124 Mg141 3.159157 1_655
Mg124 Mg144 3.159173 1_545
Mg124 Mg6 3.168895 1_556
Mg124 Mg129 3.170284 1_555
Mg124 Mg130 3.170285 1_555
Mg124 Mg5 3.197689 1_556
Mg124 Mg3 3.197698 1_556
Mg124 Mg146 3.213877 1_655
Mg124 Mg147 3.213878 1_545
Mg125 Mg140 3.159158 1_555
Mg125 Mg145 3.159174 1_545
Mg125 Mg99 3.167790 1_555
Mg125 Mg7 3.168895 1_556
Mg125 Mg131 3.170276 1_555
Mg125 Mg128 3.170284 1_555
Mg125 Mg4 3.197682 1_556
Mg125 Mg2 3.197697 1_556
Mg125 Mg146 3.213861 1_555
Mg125 Mg148 3.213869 1_545
Mg126 Mg143 3.159157 1_655
Mg126 Mg142 3.159173 1_555
Mg126 Mg18 3.168895 1_556
Mg126 Mg133 3.170284 1_555
Mg126 Mg132 3.170285 1_555
Mg126 Mg22 3.197689 1_556
Mg126 Mg23 3.197690 1_556
Mg126 Mg148 3.213877 1_655
Mg126 Mg147 3.213878 1_555
Mg127 Mg130 3.180544 1_555
Mg127 Mg132 3.180552 1_555
Mg127 Mg129 3.180561 1_555
Mg127 Mg128 3.180568 1_555
Mg127 Mg131 3.180576 1_555
Mg127 Mg133 3.180577 1_555
Mg127 Mg8 3.194944 1_556
Mg127 Mg13 3.194952 1_556
Mg128 Mg129 3.174762 1_555
Mg128 Mg8 3.184731 1_556
Mg128 Mg139 3.185923 1_545
Mg128 Mg131 3.186371 1_555
Mg128 Mg99 3.197899 1_555
Mg128 Mg145 3.201091 1_545
Mg128 Mg7 3.201643 1_556
Mg129 Mg8 3.184731 1_556
Mg129 Mg139 3.185922 1_545
Mg129 Mg130 3.186362 1_555
Mg129 Mg144 3.201092 1_545
Mg129 Mg6 3.201635 1_556
Mg130 Mg132 3.174747 1_555
Mg130 Mg137 3.185930 1_655
Mg130 Mg141 3.201107 1_655
Mg130 Mg6 3.201643 1_556
Mg131 Mg133 3.174762 1_555
Mg131 Mg138 3.185923 1_555
Mg131 Mg99 3.197891 1_555
Mg131 Mg140 3.201091 1_555
Mg131 Mg7 3.201635 1_556
Mg132 Mg137 3.185930 1_655
Mg132 Mg133 3.186362 1_555
Mg132 Mg16 3.191475 1_556
Mg132 Mg143 3.201107 1_655
Mg132 Mg18 3.201643 1_556
Mg133 Mg138 3.185922 1_555
Mg133 Mg17 3.191459 1_556
Mg133 Mg142 3.201092 1_555
Mg133 Mg18 3.201635 1_556
Mg134 Mg138 3.187778 1_555
Mg134 Mg137 3.187794 1_555
Mg134 Mg14 3.188496 1_556
Mg134 Mg15 3.188504 1_556
Mg134 Mg9 3.203940 1_556
Mg134 Mg140 3.204096 1_555
Mg134 Mg141 3.204103 1_555
Mg134 Mg136 3.208500 1_555
Mg134 Mg135 3.208501 1_555
Mg135 Mg139 3.187786 1_555
Mg135 Mg137 3.187786 1_555
Mg135 Mg19 3.188496 1_556
Mg135 Mg15 3.188496 1_556
Mg135 Mg21 3.203948 1_556
Mg135 Mg143 3.204111 1_555
Mg135 Mg145 3.204112 1_555
Mg135 Mg136 3.208500 1_555
Mg136 Mg138 3.187779 1_555
Mg136 Mg139 3.187795 1_555
Mg136 Mg14 3.188496 1_556
Mg136 Mg19 3.188512 1_556
Mg136 Mg20 3.203940 1_556
Mg136 Mg142 3.204095 1_555
Mg136 Mg144 3.204103 1_555
Mg137 Mg15 3.181241 1_556
Mg137 Mg16 3.197628 1_456
Mg137 Mg143 3.222806 1_555
Mg137 Mg141 3.222806 1_555
Mg138 Mg14 3.181241 1_556
Mg138 Mg17 3.197636 1_556
Mg138 Mg142 3.222805 1_555
Mg138 Mg140 3.222805 1_555
Mg139 Mg19 3.181233 1_556
Mg139 Mg145 3.222805 1_555
Mg139 Mg144 3.222805 1_555
Mg140 Mg9 3.167449 1_556
Mg140 Mg141 3.171019 1_555
Mg140 Mg146 3.226798 1_555
Mg140 Mg4 3.237058 1_556
Mg141 Mg9 3.167457 1_556
Mg141 Mg146 3.226807 1_555
Mg141 Mg5 3.237050 1_456
Mg142 Mg20 3.167457 1_556
Mg142 Mg144 3.171020 1_555
Mg142 Mg17 3.176116 1_556
Mg142 Mg147 3.226790 1_555
Mg142 Mg23 3.237058 1_556
Mg143 Mg21 3.167457 1_556
Mg143 Mg145 3.171019 1_555
Mg143 Mg16 3.176116 1_456
Mg143 Mg148 3.226807 1_555
Mg143 Mg22 3.237050 1_456
Mg144 Mg20 3.167449 1_556
Mg144 Mg147 3.226790 1_555
Mg144 Mg3 3.237058 1_566
Mg145 Mg21 3.167449 1_556
Mg145 Mg148 3.226798 1_555
Mg145 Mg2 3.237050 1_566
Mg146 Pt0 3.036509 1_556
Mg146 Mg148 3.038508 1_545
Mg146 Mg147 3.038531 1_445
Mg146 Mg4 3.044539 1_556
Mg146 Mg5 3.044547 1_456
Mg147 Pt0 3.036516 1_666
Mg147 Mg148 3.038531 1_655
Mg147 Mg3 3.044532 1_566
Mg147 Mg23 3.044540 1_556
Mg148 Pt0 3.036509 1_566
Mg148 Mg2 3.044539 1_566
Mg148 Mg22 3.044547 1_456
