# generated using pymatgen
data_Ca4Mg4Fe3
_symmetry_space_group_name_H-M   'P 1'
_cell_length_a   6.67269600
_cell_length_b   6.67269600
_cell_length_c   6.67269600
_cell_angle_alpha   90.00000000
_cell_angle_beta   90.00000000
_cell_angle_gamma   90.00000000
_symmetry_Int_Tables_number   1
_chemical_formula_structural   Ca4Mg4Fe3
_chemical_formula_sum   'Ca4 Mg4 Fe3'
_cell_volume   297.10093468
_cell_formula_units_Z   1
loop_
 _symmetry_equiv_pos_site_id
 _symmetry_equiv_pos_as_xyz
  1  'x, y, z'
loop_
 _atom_site_type_symbol
 _atom_site_label
 _atom_site_symmetry_multiplicity
 _atom_site_fract_x
 _atom_site_fract_y
 _atom_site_fract_z
 _atom_site_occupancy
  Ca  Ca0  1  0.29457600  0.29457600  0.70542400  1
  Ca  Ca1  1  0.29457600  0.70542400  0.29457600  1
  Ca  Ca2  1  0.70542400  0.29457600  0.29457600  1
  Ca  Ca3  1  0.70542400  0.70542400  0.70542400  1
  Mg  Mg0  1  0.81468800  0.81468800  0.18531200  1
  Mg  Mg1  1  0.81468800  0.18531200  0.81468800  1
  Mg  Mg2  1  0.18531200  0.81468800  0.81468800  1
  Mg  Mg3  1  0.18531200  0.18531200  0.18531200  1
  Fe  Fe0  1  0.00000000  0.00000000  0.50000000  1
  Fe  Fe1  1  0.00000000  0.50000000  0.00000000  1
  Fe  Fe2  1  0.50000000  0.00000000  0.00000000  1
loop_
_geom_bond_atom_site_label_1
_geom_bond_atom_site_label_2
_geom_bond_distance
_geom_bond_site_symmetry_2
Ca0 Fe0 3.099387 1_555
Ca0 Fe1 3.099387 1_556
Ca0 Fe2 3.099387 1_556
Ca0 Mg1 3.364056 1_455
Ca0 Mg2 3.364056 1_545
Ca0 Mg3 3.364056 1_556
Ca0 Mg3 3.620476 1_555
Ca0 Mg1 3.620476 1_555
Ca0 Mg2 3.620476 1_555
Ca0 Ca3 3.877015 1_555
Ca0 Ca1 3.877015 1_555
Ca0 Ca2 3.877015 1_555
Ca1 Fe1 3.099387 1_555
Ca1 Fe0 3.099387 1_565
Ca1 Fe2 3.099387 1_565
Ca1 Mg0 3.364056 1_455
Ca1 Mg2 3.364056 1_554
Ca1 Mg3 3.364056 1_565
Ca1 Mg3 3.620476 1_555
Ca1 Mg0 3.620476 1_555
Ca1 Mg2 3.620476 1_555
Ca1 Ca3 3.877015 1_555
Ca1 Ca2 3.877015 1_555
Ca2 Fe2 3.099387 1_555
Ca2 Fe0 3.099387 1_655
Ca2 Fe1 3.099387 1_655
Ca2 Mg1 3.364056 1_554
Ca2 Mg0 3.364056 1_545
Ca2 Mg3 3.364056 1_655
Ca2 Mg3 3.620476 1_555
Ca2 Mg0 3.620476 1_555
Ca2 Mg1 3.620476 1_555
Ca2 Ca3 3.877015 1_555
Ca3 Fe1 3.099387 1_656
Ca3 Fe0 3.099387 1_665
Ca3 Fe2 3.099387 1_566
Ca3 Mg2 3.364056 1_655
Ca3 Mg1 3.364056 1_565
Ca3 Mg0 3.364056 1_556
Ca3 Mg2 3.620476 1_555
Ca3 Mg0 3.620476 1_555
Ca3 Mg1 3.620476 1_555
Fe0 Mg2 2.732627 1_545
Fe0 Mg3 2.732627 1_555
Fe0 Mg1 2.732627 1_455
Fe0 Mg0 2.732627 1_445
Fe1 Mg0 2.732627 1_455
Fe1 Mg3 2.732627 1_555
Fe1 Mg2 2.732627 1_554
Fe1 Mg1 2.732627 1_454
Fe2 Mg1 2.732627 1_554
Fe2 Mg3 2.732627 1_555
Fe2 Mg0 2.732627 1_545
Fe2 Mg2 2.732627 1_544
