# generated using pymatgen
data_Mg14ZnNi
_symmetry_space_group_name_H-M   'P 1'
_cell_length_a   6.28859254
_cell_length_b   6.33843779
_cell_length_c   9.77026132
_cell_angle_alpha   90.00000000
_cell_angle_beta   90.00000000
_cell_angle_gamma   120.26255316
_symmetry_Int_Tables_number   1
_chemical_formula_structural   Mg14ZnNi
_chemical_formula_sum   'Mg14 Zn1 Ni1'
_cell_volume   336.37012290
_cell_formula_units_Z   1
loop_
 _symmetry_equiv_pos_site_id
 _symmetry_equiv_pos_as_xyz
  1  'x, y, z'
loop_
 _atom_site_type_symbol
 _atom_site_label
 _atom_site_symmetry_multiplicity
 _atom_site_fract_x
 _atom_site_fract_y
 _atom_site_fract_z
 _atom_site_occupancy
  Mg  Mg0  1  0.17236670  0.33618285  0.62500000  1
  Mg  Mg1  1  0.17150963  0.83575432  0.62500000  1
  Mg  Mg2  1  0.70924445  0.35620653  0.12500000  1
  Mg  Mg3  1  0.66119164  0.33244179  0.62500000  1
  Mg  Mg4  1  0.70924445  0.85303692  0.12500000  1
  Mg  Mg5  1  0.66119164  0.82874885  0.62500000  1
  Mg  Mg6  1  0.31944268  0.15327317  0.34561326  1
  Mg  Mg7  1  0.31944268  0.15327317  0.90438674  1
  Mg  Mg8  1  0.31944268  0.66617052  0.34561326  1
  Mg  Mg9  1  0.31944268  0.66617052  0.90438674  1
  Mg  Mg10  1  0.83194946  0.16597523  0.37689393  1
  Mg  Mg11  1  0.83194946  0.16597523  0.87310607  1
  Mg  Mg12  1  0.83881311  0.66940705  0.36974054  1
  Mg  Mg13  1  0.83881311  0.66940705  0.88025946  1
  Zn  Zn0  1  0.15433297  0.32716599  0.12500000  1
  Ni  Ni0  1  0.14162265  0.82081082  0.12500000  1
loop_
_geom_bond_atom_site_label_1
_geom_bond_atom_site_label_2
_geom_bond_distance
_geom_bond_site_symmetry_2
Mg0 Mg10 3.048759 1_455
Mg0 Mg11 3.048759 1_455
Mg0 Mg5 3.086039 1_555
Mg0 Mg3 3.086039 1_555
Mg0 Mg1 3.169222 1_545
Mg0 Mg1 3.169222 1_555
Mg0 Mg5 3.202687 1_445
Mg0 Mg3 3.202687 1_455
Mg0 Mg7 3.275899 1_555
Mg0 Mg6 3.275899 1_555
Mg0 Mg9 3.275906 1_555
Mg0 Mg8 3.275906 1_555
Mg1 Mg12 3.079826 1_455
Mg1 Mg13 3.079826 1_455
Mg1 Mg3 3.102025 1_565
Mg1 Mg5 3.102026 1_555
Mg1 Mg3 3.187035 1_455
Mg1 Mg5 3.187035 1_455
Mg1 Mg8 3.237267 1_555
Mg1 Mg9 3.237267 1_555
Mg1 Mg7 3.237273 1_565
Mg1 Mg6 3.237273 1_565
Mg2 Ni0 2.827501 1_655
Mg2 Zn0 2.896113 1_655
Mg3 Mg5 3.145811 1_555
Mg3 Mg5 3.192626 1_545
Mg3 Mg6 3.301452 1_555
Mg3 Mg7 3.301452 1_555
Mg4 Ni0 2.827501 1_655
Mg4 Zn0 2.896113 1_665
Mg5 Mg8 3.301452 1_555
Mg5 Mg9 3.301452 1_555
Mg6 Ni0 2.821695 1_545
Mg6 Zn0 2.844716 1_555
Mg7 Ni0 2.821695 1_546
Mg7 Zn0 2.844716 1_556
Mg8 Ni0 2.821688 1_555
Mg8 Zn0 2.844724 1_555
Mg9 Ni0 2.821688 1_556
Mg9 Zn0 2.844724 1_556
Mg10 Mg2 3.007320 1_555
Mg10 Mg4 3.007326 1_545
Mg10 Zn0 3.020445 1_655
Mg10 Mg3 3.047049 1_555
Mg10 Mg5 3.047056 1_545
Mg10 Mg8 3.121994 1_655
Mg10 Mg6 3.121994 1_655
Mg10 Mg12 3.170209 1_555
Mg10 Mg12 3.170209 1_545
Mg10 Mg8 3.197769 1_545
Mg10 Mg6 3.197769 1_555
Mg11 Mg2 3.007320 1_556
Mg11 Mg4 3.007326 1_546
Mg11 Zn0 3.020445 1_656
Mg11 Mg3 3.047049 1_555
Mg11 Mg5 3.047056 1_545
Mg11 Mg9 3.121994 1_655
Mg11 Mg7 3.121994 1_655
Mg11 Mg13 3.170209 1_555
Mg11 Mg13 3.170209 1_545
Mg11 Mg9 3.197769 1_545
Mg11 Mg7 3.197769 1_555
Mg12 Ni0 2.902227 1_655
Mg12 Mg5 3.102353 1_555
Mg12 Mg3 3.102359 1_555
Mg13 Ni0 2.902227 1_656
Mg13 Mg5 3.102353 1_555
Mg13 Mg3 3.102359 1_555
