# generated using pymatgen
data_TiCrAgS4
_symmetry_space_group_name_H-M   'P 1'
_cell_length_a   7.19016900
_cell_length_b   7.30795500
_cell_length_c   10.64541200
_cell_angle_alpha   90.00000000
_cell_angle_beta   90.00000000
_cell_angle_gamma   90.00000000
_symmetry_Int_Tables_number   1
_chemical_formula_structural   TiCrAgS4
_chemical_formula_sum   'Ti4 Cr4 Ag4 S16'
_cell_volume   559.36776698
_cell_formula_units_Z   4
loop_
 _symmetry_equiv_pos_site_id
 _symmetry_equiv_pos_as_xyz
  1  'x, y, z'
loop_
 _atom_site_type_symbol
 _atom_site_label
 _atom_site_symmetry_multiplicity
 _atom_site_fract_x
 _atom_site_fract_y
 _atom_site_fract_z
 _atom_site_occupancy
  Ti  Ti0  1  0.75000000  0.00404200  0.24620000  1
  Ti  Ti1  1  0.25000000  0.99595800  0.75380000  1
  Ti  Ti2  1  0.25000000  0.49595800  0.74620000  1
  Ti  Ti3  1  0.75000000  0.50404200  0.25380000  1
  Cr  Cr0  1  0.25000000  0.25057300  0.10996100  1
  Cr  Cr1  1  0.75000000  0.74942700  0.89003900  1
  Cr  Cr2  1  0.75000000  0.24942700  0.60996100  1
  Cr  Cr3  1  0.25000000  0.75057300  0.39003900  1
  Ag  Ag0  1  0.25000000  0.24095900  0.38724000  1
  Ag  Ag1  1  0.75000000  0.75904100  0.61276000  1
  Ag  Ag2  1  0.75000000  0.25904100  0.88724000  1
  Ag  Ag3  1  0.25000000  0.74095900  0.11276000  1
  S  S0  1  0.01635900  0.24742200  0.72847800  1
  S  S1  1  0.98364100  0.75257800  0.27152200  1
  S  S2  1  0.98364100  0.25257800  0.22847800  1
  S  S3  1  0.01635900  0.74742200  0.77152200  1
  S  S4  1  0.48364100  0.74742200  0.77152200  1
  S  S5  1  0.51635900  0.25257800  0.22847800  1
  S  S6  1  0.51635900  0.75257800  0.27152200  1
  S  S7  1  0.48364100  0.24742200  0.72847800  1
  S  S8  1  0.25000000  0.52213100  0.52164800  1
  S  S9  1  0.75000000  0.47786900  0.47835200  1
  S  S10  1  0.75000000  0.97786900  0.02164800  1
  S  S11  1  0.25000000  0.02213100  0.97835200  1
  S  S12  1  0.75000000  0.02984300  0.47303300  1
  S  S13  1  0.25000000  0.97015700  0.52696700  1
  S  S14  1  0.25000000  0.47015700  0.97303300  1
  S  S15  1  0.75000000  0.52984300  0.02696700  1
loop_
_geom_bond_atom_site_label_1
_geom_bond_atom_site_label_2
_geom_bond_distance
_geom_bond_site_symmetry_2
Cr0 S14 2.167914 1_554
Cr0 S11 2.179434 1_554
Cr0 S2 2.293440 1_455
Cr0 S5 2.293440 1_555
Cr1 S15 2.167914 1_556
Cr1 S10 2.179434 1_556
Cr1 S3 2.293440 1_655
Cr1 S4 2.293440 1_555
Cr2 S12 2.167914 1_555
Cr2 S9 2.179434 1_555
Cr2 S0 2.293440 1_655
Cr2 S7 2.293440 1_555
Cr3 S13 2.167914 1_555
Cr3 S8 2.179434 1_555
Cr3 S1 2.293440 1_455
Cr3 S6 2.293440 1_555
Ag0 S13 2.475679 1_545
Ag0 S8 2.503885 1_555
Ag0 S5 2.555673 1_555
Ag0 S2 2.555673 1_455
Ag1 S12 2.475679 1_565
Ag1 S9 2.503885 1_555
Ag1 S4 2.555673 1_555
Ag1 S3 2.555673 1_655
Ag2 S15 2.475679 1_556
Ag2 S10 2.503885 1_546
Ag2 S7 2.555673 1_555
Ag2 S0 2.555673 1_655
Ag3 S14 2.475679 1_554
Ag3 S11 2.503885 1_564
Ag3 S6 2.555673 1_555
Ag3 S1 2.555673 1_455
S0 Ti2 2.481255 1_555
S0 Ti1 2.504373 1_545
S1 Ti3 2.481255 1_555
S1 Ti0 2.504373 1_565
S2 Ti0 2.481255 1_555
S2 Ti3 2.504373 1_555
S3 Ti1 2.481255 1_555
S3 Ti2 2.504373 1_555
S4 Ti1 2.481255 1_555
S4 Ti2 2.504373 1_555
S5 Ti0 2.481255 1_555
S5 Ti3 2.504373 1_555
S6 Ti3 2.481255 1_555
S6 Ti0 2.504373 1_565
S7 Ti2 2.481255 1_555
S7 Ti1 2.504373 1_545
S8 Ti2 2.398089 1_555
S9 Ti3 2.398089 1_555
S10 Ti0 2.398089 1_565
S11 Ti1 2.398089 1_545
S12 Ti0 2.422081 1_555
S13 Ti1 2.422081 1_555
S14 Ti2 2.422081 1_555
S15 Ti3 2.422081 1_555
