# generated using pymatgen
data_Fe7C3
_symmetry_space_group_name_H-M   'P 1'
_cell_length_a   6.82578370
_cell_length_b   6.82578370
_cell_length_c   4.49481600
_cell_angle_alpha   90.00000000
_cell_angle_beta   90.00000000
_cell_angle_gamma   119.99999711
_symmetry_Int_Tables_number   1
_chemical_formula_structural   Fe7C3
_chemical_formula_sum   'Fe14 C6'
_cell_volume   181.36254713
_cell_formula_units_Z   2
loop_
 _symmetry_equiv_pos_site_id
 _symmetry_equiv_pos_as_xyz
  1  'x, y, z'
loop_
 _atom_site_type_symbol
 _atom_site_label
 _atom_site_symmetry_multiplicity
 _atom_site_fract_x
 _atom_site_fract_y
 _atom_site_fract_z
 _atom_site_occupancy
  Fe  Fe0  1  0.09130400  0.54565200  0.31582000  1
  Fe  Fe1  1  0.54565200  0.45434800  0.81582000  1
  Fe  Fe2  1  0.12240600  0.87759400  0.98968400  1
  Fe  Fe3  1  0.24481100  0.12240600  0.48968400  1
  Fe  Fe4  1  0.87759400  0.75518900  0.48968400  1
  Fe  Fe5  1  0.12240600  0.24481100  0.98968400  1
  Fe  Fe6  1  0.75518900  0.87759400  0.98968400  1
  Fe  Fe7  1  0.87759400  0.12240600  0.48968400  1
  Fe  Fe8  1  0.45434800  0.90869600  0.31582000  1
  Fe  Fe9  1  0.54565200  0.09130400  0.81582000  1
  Fe  Fe10  1  0.90869600  0.45434800  0.81582000  1
  Fe  Fe11  1  0.45434800  0.54565200  0.31582000  1
  Fe  Fe12  1  0.66666700  0.33333300  0.30788900  1
  Fe  Fe13  1  0.33333300  0.66666700  0.80788900  1
  C  C0  1  0.81344100  0.18655900  0.09586700  1
  C  C1  1  0.62688200  0.81344100  0.59586700  1
  C  C2  1  0.18655900  0.37311800  0.59586700  1
  C  C3  1  0.81344100  0.62688200  0.09586700  1
  C  C4  1  0.37311800  0.18655900  0.09586700  1
  C  C5  1  0.18655900  0.81344100  0.59586700  1
loop_
_geom_bond_atom_site_label_1
_geom_bond_atom_site_label_2
_geom_bond_distance
_geom_bond_site_symmetry_2
C0 Fe7 1.925781 1_555
C0 Fe12 1.979723 1_555
C0 Fe5 1.998730 1_654
C0 Fe6 1.998730 1_544
C0 Fe9 2.039576 1_554
C0 Fe10 2.039576 1_554
C1 Fe6 1.925783 1_555
C1 Fe13 1.979729 1_555
C1 Fe4 1.998724 1_555
C1 Fe7 1.998728 1_565
C1 Fe8 2.039576 1_555
C1 Fe11 2.039576 1_555
C2 Fe5 1.925783 1_555
C2 Fe13 1.979729 1_555
C2 Fe3 1.998724 1_555
C2 Fe7 1.998728 1_455
C2 Fe0 2.039576 1_555
C2 Fe11 2.039576 1_555
C3 Fe4 1.925783 1_555
C3 Fe12 1.979729 1_555
C3 Fe6 1.998724 1_554
C3 Fe2 1.998728 1_654
C3 Fe10 2.039576 1_554
C3 Fe1 2.039576 1_554
C4 Fe3 1.925783 1_555
C4 Fe12 1.979729 1_555
C4 Fe5 1.998724 1_554
C4 Fe2 1.998728 1_544
C4 Fe9 2.039576 1_554
C4 Fe1 2.039576 1_554
C5 Fe2 1.925781 1_555
C5 Fe13 1.979723 1_555
C5 Fe3 1.998730 1_565
C5 Fe4 1.998730 1_455
C5 Fe8 2.039576 1_555
C5 Fe0 2.039576 1_555
