# generated using pymatgen
data_Tm2GaCo2
_symmetry_space_group_name_H-M   'P 1'
_cell_length_a   4.06913133
_cell_length_b   5.28357406
_cell_length_c   5.25232239
_cell_angle_alpha   120.19702258
_cell_angle_beta   112.79063876
_cell_angle_gamma   90.00000000
_symmetry_Int_Tables_number   1
_chemical_formula_structural   Tm2GaCo2
_chemical_formula_sum   'Tm2 Ga1 Co2'
_cell_volume   87.24793063
_cell_formula_units_Z   1
loop_
 _symmetry_equiv_pos_site_id
 _symmetry_equiv_pos_as_xyz
  1  'x, y, z'
loop_
 _atom_site_type_symbol
 _atom_site_label
 _atom_site_symmetry_multiplicity
 _atom_site_fract_x
 _atom_site_fract_y
 _atom_site_fract_z
 _atom_site_occupancy
  Tm  Tm0  1  0.79412119  0.29412119  0.58824237  1
  Tm  Tm1  1  0.20587881  0.70587881  0.41175763  1
  Ga  Ga0  1  -0.00000000  -0.00000000  0.00000000  1
  Co  Co0  1  0.50000000  0.28478021  0.00000000  1
  Co  Co1  1  0.50000000  0.71521979  0.00000000  1
loop_
_geom_bond_atom_site_label_1
_geom_bond_atom_site_label_2
_geom_bond_distance
_geom_bond_site_symmetry_2
Ga0 Tm0 3.125886 1_444
Ga0 Tm1 3.125886 1_555
Ga0 Tm1 3.125886 1_545
Ga0 Tm0 3.125886 1_454
Ga0 Tm0 3.136559 1_455
Ga0 Tm1 3.136559 1_544
Ga0 Tm1 3.136559 1_444
Ga0 Tm0 3.136559 1_555
Co0 Co1 2.274259 1_555
Co0 Ga0 2.530504 1_555
Co0 Ga0 2.530504 1_655
Co0 Tm0 2.821797 1_555
Co0 Tm1 2.821797 1_544
Co0 Tm1 2.867864 1_655
Co0 Tm0 2.867864 1_454
Co0 Tm1 2.867864 1_555
Co0 Tm0 2.867864 1_554
Co1 Ga0 2.530504 1_565
Co1 Ga0 2.530504 1_665
Co1 Tm1 2.821797 1_554
Co1 Tm0 2.821797 1_565
Co1 Tm0 2.867864 1_454
Co1 Tm1 2.867864 1_655
Co1 Tm0 2.867864 1_554
Co1 Tm1 2.867864 1_555
