# generated using pymatgen
data_K3YbN6
_symmetry_space_group_name_H-M   'P 1'
_cell_length_a   7.87616856
_cell_length_b   7.87616856
_cell_length_c   7.87616903
_cell_angle_alpha   85.76939864
_cell_angle_beta   85.76939864
_cell_angle_gamma   85.76939161
_symmetry_Int_Tables_number   1
_chemical_formula_structural   K3YbN6
_chemical_formula_sum   'K6 Yb2 N12'
_cell_volume   484.78336836
_cell_formula_units_Z   2
loop_
 _symmetry_equiv_pos_site_id
 _symmetry_equiv_pos_as_xyz
  1  'x, y, z'
loop_
 _atom_site_type_symbol
 _atom_site_label
 _atom_site_symmetry_multiplicity
 _atom_site_fract_x
 _atom_site_fract_y
 _atom_site_fract_z
 _atom_site_occupancy
  K  K0  1  0.66267900  0.00000000  0.33732100  1
  K  K1  1  0.33732100  0.66267900  0.00000000  1
  K  K2  1  0.00000000  0.33732100  0.66267900  1
  K  K3  1  0.84360600  0.50000000  0.15639400  1
  K  K4  1  0.15639400  0.84360600  0.50000000  1
  K  K5  1  0.50000000  0.15639400  0.84360600  1
  Yb  Yb0  1  0.74699400  0.74699400  0.74699400  1
  Yb  Yb1  1  0.25300600  0.25300600  0.25300600  1
  N  N0  1  0.67980300  0.46138100  0.84678300  1
  N  N1  1  0.84678300  0.67980300  0.46138100  1
  N  N2  1  0.46138100  0.84678300  0.67980300  1
  N  N3  1  0.15321700  0.53861900  0.32019700  1
  N  N4  1  0.53861900  0.32019700  0.15321700  1
  N  N5  1  0.32019700  0.15321700  0.53861900  1
  N  N6  1  0.64033000  0.83553700  0.02111500  1
  N  N7  1  0.02111500  0.64033000  0.83553700  1
  N  N8  1  0.83553700  0.02111500  0.64033000  1
  N  N9  1  0.97888500  0.16446300  0.35967000  1
  N  N10  1  0.16446300  0.35967000  0.97888500  1
  N  N11  1  0.35967000  0.97888500  0.16446300  1
loop_
_geom_bond_atom_site_label_1
_geom_bond_atom_site_label_2
_geom_bond_distance
_geom_bond_site_symmetry_2
K0 N11 2.854506 1_545
K0 N8 2.854506 1_555
K0 N9 2.913028 1_555
K0 N6 2.913028 1_545
K0 N1 2.953539 1_545
K0 N4 2.953539 1_555
K0 N5 3.227567 1_555
K0 N2 3.227567 1_545
K1 N6 2.854506 1_555
K1 N10 2.854506 1_554
K1 N11 2.913028 1_555
K1 N7 2.913028 1_554
K1 N2 2.953539 1_554
K1 N3 2.953539 1_555
K1 N4 3.227567 1_555
K1 N0 3.227567 1_554
K2 N7 2.854506 1_555
K2 N9 2.854506 1_455
K2 N8 2.913028 1_455
K2 N10 2.913028 1_555
K2 N5 2.953539 1_555
K2 N0 2.953539 1_455
K2 N1 3.227567 1_455
K2 N3 3.227567 1_555
K3 N1 2.879646 1_555
K3 N4 2.879646 1_555
K3 N3 2.887042 1_655
K3 N0 2.887042 1_554
K3 N10 2.976108 1_654
K3 N7 2.976108 1_654
K3 N6 3.145575 1_555
K3 N9 3.145575 1_555
K4 N3 2.879646 1_555
K4 N2 2.879646 1_555
K4 N5 2.887042 1_565
K4 N1 2.887042 1_455
K4 N9 2.976108 1_465
K4 N8 2.976108 1_465
K4 N11 3.145575 1_555
K4 N7 3.145575 1_555
K5 N5 2.879646 1_555
K5 N0 2.879646 1_555
K5 N2 2.887042 1_545
K5 N4 2.887042 1_556
K5 N6 2.976108 1_546
K5 N11 2.976108 1_546
K5 N10 3.145575 1_555
K5 N8 3.145575 1_555
N0 Yb0 2.410730 1_555
N1 Yb0 2.410730 1_555
N2 Yb0 2.410729 1_555
N3 Yb1 2.410729 1_555
N4 Yb1 2.410730 1_555
N5 Yb1 2.410730 1_555
N6 Yb0 2.391984 1_554
N7 Yb0 2.391984 1_455
N8 Yb0 2.391984 1_545
N9 Yb1 2.391984 1_655
N10 Yb1 2.391984 1_556
N11 Yb1 2.391984 1_565
