# generated using pymatgen
data_Y2Fe17C
_symmetry_space_group_name_H-M   'P 1'
_cell_length_a   8.59385099
_cell_length_b   8.59385099
_cell_length_c   8.25380000
_cell_angle_alpha   90.00000000
_cell_angle_beta   90.00000000
_cell_angle_gamma   120.20817284
_symmetry_Int_Tables_number   1
_chemical_formula_structural   Y2Fe17C
_chemical_formula_sum   'Y4 Fe34 C2'
_cell_volume   526.79951852
_cell_formula_units_Z   2
loop_
 _symmetry_equiv_pos_site_id
 _symmetry_equiv_pos_as_xyz
  1  'x, y, z'
loop_
 _atom_site_type_symbol
 _atom_site_label
 _atom_site_symmetry_multiplicity
 _atom_site_fract_x
 _atom_site_fract_y
 _atom_site_fract_z
 _atom_site_occupancy
  Y  Y0  1  0.33080300  0.66919700  0.50000000  1
  Y  Y1  1  0.66672100  0.33327900  0.00000000  1
  Y  Y2  1  0.00438500  0.99561500  0.50000000  1
  Y  Y3  1  0.99927300  0.00072700  0.00000000  1
  Fe  Fe0  1  0.94916500  0.32763100  0.50000000  1
  Fe  Fe1  1  0.37641300  0.04762900  0.50000000  1
  Fe  Fe2  1  0.67183800  0.62057300  0.50000000  1
  Fe  Fe3  1  0.95237100  0.62358700  0.50000000  1
  Fe  Fe4  1  0.37942700  0.32816200  0.50000000  1
  Fe  Fe5  1  0.67236900  0.05083500  0.50000000  1
  Fe  Fe6  1  0.04304000  0.67157000  0.00000000  1
  Fe  Fe7  1  0.62548300  0.95440200  0.00000000  1
  Fe  Fe8  1  0.32786800  0.37154100  0.00000000  1
  Fe  Fe9  1  0.04559800  0.37451700  0.00000000  1
  Fe  Fe10  1  0.62845900  0.67213200  0.00000000  1
  Fe  Fe11  1  0.32843000  0.95696000  0.00000000  1
  Fe  Fe12  1  0.66547900  0.83309300  0.26772700  1
  Fe  Fe13  1  0.16690700  0.33452100  0.26772700  1
  Fe  Fe14  1  0.16600600  0.83399400  0.26980600  1
  Fe  Fe15  1  0.33456400  0.16627300  0.22957600  1
  Fe  Fe16  1  0.83372700  0.66543600  0.22957600  1
  Fe  Fe17  1  0.83208000  0.16792000  0.22767800  1
  Fe  Fe18  1  0.33456400  0.16627300  0.77042400  1
  Fe  Fe19  1  0.83372700  0.66543600  0.77042400  1
  Fe  Fe20  1  0.83208000  0.16792000  0.77232200  1
  Fe  Fe21  1  0.66547900  0.83309300  0.73227300  1
  Fe  Fe22  1  0.16690700  0.33452100  0.73227300  1
  Fe  Fe23  1  0.16600600  0.83399400  0.73019400  1
  Fe  Fe24  1  0.33266800  0.66733200  0.85611900  1
  Fe  Fe25  1  0.66689600  0.33310400  0.64466100  1
  Fe  Fe26  1  0.66689600  0.33310400  0.35533900  1
  Fe  Fe27  1  0.33266800  0.66733200  0.14388100  1
  Fe  Fe28  1  0.99807100  0.49957600  0.24794000  1
  Fe  Fe29  1  0.50042400  0.00192900  0.24794000  1
  Fe  Fe30  1  0.50181100  0.49818900  0.24668800  1
  Fe  Fe31  1  0.99807100  0.49957600  0.75206000  1
  Fe  Fe32  1  0.50042400  0.00192900  0.75206000  1
  Fe  Fe33  1  0.50181100  0.49818900  0.75331200  1
  C  C0  1  0.66996600  0.83521200  0.50000000  1
  C  C1  1  0.16478800  0.33003400  0.50000000  1
loop_
_geom_bond_atom_site_label_1
_geom_bond_atom_site_label_2
_geom_bond_distance
_geom_bond_site_symmetry_2
Fe0 Fe31 2.462414 1_555
Fe0 Fe28 2.462414 1_555
Fe0 Fe3 2.529651 1_555
Fe0 Fe20 2.560993 1_555
Fe0 Fe17 2.560993 1_555
Fe0 Fe26 2.725264 1_555
Fe0 Fe25 2.725264 1_555
Fe1 Fe4 2.397931 1_555
Fe1 Fe32 2.457539 1_555
Fe1 Fe29 2.457539 1_555
Fe1 Fe5 2.529651 1_555
Fe1 Fe18 2.553407 1_555
Fe1 Fe15 2.553407 1_555
Fe1 Fe14 2.628608 1_545
Fe1 Fe23 2.628608 1_545
Fe1 Fe26 2.741059 1_555
Fe1 Fe25 2.741059 1_555
Fe1 Y2 2.997246 1_545
Fe1 Y0 3.073696 1_545
Fe2 Fe3 2.397931 1_555
Fe2 Fe33 2.462959 1_555
Fe2 Fe30 2.462959 1_555
Fe2 Fe26 2.724897 1_555
Fe2 Fe25 2.724897 1_555
Fe3 Fe31 2.457539 1_555
Fe3 Y2 2.997246 1_655
Fe3 Y0 3.073696 1_655
Fe6 Fe9 2.563960 1_555
Fe6 Y3 3.035426 1_465
Fe6 Y1 3.074043 1_455
Fe7 Y3 3.031575 1_565
Fe7 Y1 3.092903 1_565
Fe8 Fe9 2.438755 1_555
Fe8 Y3 3.012314 1_455
Fe8 Y1 3.090586 1_555
Fe9 Y3 3.031575 1_455
Fe9 Y1 3.092903 1_455
Fe10 Fe30 2.434688 1_555
Fe10 Fe33 2.434688 1_554
Fe10 Fe7 2.438755 1_555
Fe10 Fe12 2.540645 1_555
Fe10 Fe21 2.540645 1_554
Fe10 Fe8 2.575102 1_555
Fe10 Fe19 2.609187 1_554
Fe10 Fe16 2.609187 1_555
Fe10 Fe27 2.787145 1_555
Fe10 Fe24 2.787145 1_554
Fe10 Y3 3.012314 1_565
Fe10 Y1 3.090586 1_555
Fe11 Fe29 2.438696 1_565
Fe11 Fe32 2.438696 1_564
Fe11 Fe6 2.444878 1_555
Fe11 Fe14 2.557337 1_555
Fe11 Fe23 2.557337 1_554
Fe11 Fe7 2.563960 1_555
Fe11 Fe15 2.594919 1_565
Fe11 Fe18 2.594919 1_564
Fe11 Fe27 2.774541 1_555
Fe11 Fe24 2.774541 1_554
Fe11 Y3 3.035426 1_465
Fe11 Y1 3.074043 1_565
Fe12 Fe29 2.492992 1_565
Fe12 Fe30 2.493677 1_555
Fe12 Fe17 2.508629 1_565
Fe12 Fe16 2.522323 1_555
Fe12 Fe7 2.539413 1_555
Fe12 Fe27 2.674801 1_555
Fe12 Y3 3.320944 1_565
Fe13 Fe28 2.492992 1_455
Fe13 Fe30 2.493677 1_555
Fe13 Fe17 2.508629 1_455
Fe13 Fe15 2.522323 1_555
Fe13 Fe9 2.539413 1_555
Fe13 Fe8 2.540645 1_555
Fe13 Fe27 2.674801 1_555
Fe13 Y3 3.320944 1_455
Fe14 Fe15 2.490048 1_565
Fe14 Fe16 2.490048 1_455
Fe14 Fe28 2.490217 1_455
Fe14 Fe29 2.490217 1_565
Fe14 Fe6 2.557337 1_555
Fe14 Fe3 2.628608 1_455
Fe14 Fe27 2.692089 1_555
Fe14 Y2 3.067499 1_555
Fe14 Y0 3.104791 1_555
Fe14 Y3 3.336394 1_465
Fe15 Fe29 2.464788 1_555
Fe15 Fe30 2.469128 1_555
Fe15 Fe4 2.554682 1_555
Fe15 Fe8 2.609187 1_555
Fe15 Fe26 2.677571 1_555
Fe15 Y1 3.110630 1_555
Fe15 Y3 3.129238 1_455
Fe15 Y2 3.316121 1_545
Fe16 Fe28 2.464788 1_555
Fe16 Fe30 2.469128 1_555
Fe16 Fe3 2.553407 1_555
Fe16 Fe2 2.554682 1_555
Fe16 Fe6 2.594919 1_655
Fe16 Fe26 2.677571 1_555
Fe16 Y1 3.110630 1_555
Fe16 Y3 3.129238 1_565
Fe16 Y2 3.316121 1_655
Fe17 Fe28 2.468836 1_555
Fe17 Fe29 2.468836 1_555
Fe17 Fe5 2.560993 1_555
Fe17 Fe9 2.602375 1_655
Fe17 Fe7 2.602375 1_545
Fe17 Fe26 2.677394 1_555
Fe17 Y1 3.098781 1_555
Fe17 Y3 3.120554 1_555
Fe17 Y2 3.412313 1_645
Fe18 Fe32 2.464788 1_555
Fe18 Fe33 2.469128 1_555
Fe18 Fe23 2.490048 1_545
Fe18 Fe22 2.522323 1_555
Fe18 Fe4 2.554682 1_555
Fe18 Fe8 2.609187 1_556
Fe18 Fe25 2.677571 1_555
Fe18 Y1 3.110630 1_556
Fe18 Y3 3.129238 1_456
Fe18 Y2 3.316121 1_545
Fe19 Fe31 2.464788 1_555
Fe19 Fe33 2.469128 1_555
Fe19 Fe23 2.490048 1_655
Fe19 Fe21 2.522323 1_555
Fe19 Fe3 2.553407 1_555
Fe19 Fe2 2.554682 1_555
Fe19 Fe6 2.594919 1_656
Fe19 Fe25 2.677571 1_555
Fe19 Y1 3.110630 1_556
Fe19 Y3 3.129238 1_566
Fe19 Y2 3.316121 1_655
Fe20 Fe31 2.468836 1_555
Fe20 Fe32 2.468836 1_555
Fe20 Fe22 2.508629 1_655
Fe20 Fe21 2.508629 1_545
Fe20 Fe5 2.560993 1_555
Fe20 Fe9 2.602375 1_656
Fe20 Fe7 2.602375 1_546
Fe20 Fe25 2.677394 1_555
Fe20 Y1 3.098781 1_556
Fe20 Y3 3.120554 1_556
Fe20 Y2 3.412313 1_645
Fe21 Fe32 2.492992 1_565
Fe21 Fe33 2.493677 1_555
Fe21 Fe7 2.539413 1_556
Fe21 Fe24 2.674801 1_555
Fe21 Y3 3.320944 1_566
Fe22 Fe31 2.492992 1_455
Fe22 Fe33 2.493677 1_555
Fe22 Fe9 2.539413 1_556
Fe22 Fe8 2.540645 1_556
Fe22 Fe24 2.674801 1_555
Fe22 Y3 3.320944 1_456
Fe23 Fe32 2.490217 1_565
Fe23 Fe31 2.490217 1_455
Fe23 Fe6 2.557337 1_556
Fe23 Fe3 2.628608 1_455
Fe23 Fe24 2.692089 1_555
Fe23 Y2 3.067499 1_555
Fe23 Y0 3.104791 1_555
Fe23 Y3 3.336394 1_466
Fe24 Fe27 2.375130 1_556
Fe24 Fe31 2.629241 1_455
Fe24 Fe32 2.629241 1_565
Fe24 Fe33 2.659339 1_555
Fe24 Fe7 2.753506 1_556
Fe24 Fe9 2.753506 1_556
Fe24 Fe6 2.774541 1_556
Fe24 Fe8 2.787145 1_556
Fe24 Y0 2.939466 1_555
Fe25 Fe26 2.388006 1_555
Fe25 Fe31 2.614447 1_555
Fe25 Fe32 2.614447 1_555
Fe25 Fe33 2.618232 1_555
Fe25 Fe4 2.724897 1_555
Fe25 Fe5 2.725264 1_555
Fe25 Fe3 2.741059 1_555
Fe25 Y1 2.932898 1_556
Fe26 Fe29 2.614447 1_555
Fe26 Fe28 2.614447 1_555
Fe26 Fe30 2.618232 1_555
Fe26 Fe4 2.724897 1_555
Fe26 Fe5 2.725264 1_555
Fe26 Fe3 2.741059 1_555
Fe26 Y1 2.932898 1_555
Fe27 Fe28 2.629241 1_455
Fe27 Fe29 2.629241 1_565
Fe27 Fe30 2.659339 1_555
Fe27 Fe7 2.753506 1_555
Fe27 Fe9 2.753506 1_555
Fe27 Fe6 2.774541 1_555
Fe27 Fe8 2.787145 1_555
Fe27 Y0 2.939466 1_555
Fe28 Fe6 2.438696 1_655
Fe28 Fe9 2.439581 1_655
Fe28 Fe3 2.457539 1_555
Fe28 Y1 3.200608 1_555
Fe28 Y0 3.230356 1_655
Fe29 Fe7 2.439581 1_545
Fe29 Fe5 2.462414 1_555
Fe29 Y1 3.200608 1_555
Fe29 Y0 3.230356 1_545
Fe30 Fe8 2.434688 1_555
Fe30 Fe4 2.462959 1_555
Fe30 Y1 3.191215 1_555
Fe30 Y0 3.296102 1_555
Fe31 Fe6 2.438696 1_656
Fe31 Fe9 2.439581 1_656
Fe31 Y1 3.200608 1_556
Fe31 Y0 3.230356 1_655
Fe32 Fe7 2.439581 1_546
Fe32 Fe5 2.462414 1_555
Fe32 Y1 3.200608 1_556
Fe32 Y0 3.230356 1_545
Fe33 Fe8 2.434688 1_556
Fe33 Fe4 2.462959 1_555
Fe33 Y1 3.191215 1_556
Fe33 Y0 3.296102 1_555
C0 Fe5 1.842728 1_565
C0 Fe2 1.852722 1_555
C0 Fe21 1.917425 1_555
C0 Fe12 1.917425 1_555
C0 Y2 2.484592 1_655
C0 Y0 2.519221 1_555
C1 Fe0 1.842728 1_455
C1 Fe4 1.852722 1_555
C1 Fe22 1.917425 1_555
C1 Fe13 1.917425 1_555
C1 Y2 2.484592 1_545
C1 Y0 2.519221 1_555
