# generated using pymatgen
data_NiH15IO12
_symmetry_space_group_name_H-M   'P 1'
_cell_length_a   11.03553400
_cell_length_b   5.83446200
_cell_length_c   11.01862144
_cell_angle_alpha   66.14031746
_cell_angle_beta   90.00000000
_cell_angle_gamma   90.00000000
_symmetry_Int_Tables_number   1
_chemical_formula_structural   NiH15IO12
_chemical_formula_sum   'Ni2 H30 I2 O24'
_cell_volume   648.81902220
_cell_formula_units_Z   2
loop_
 _symmetry_equiv_pos_site_id
 _symmetry_equiv_pos_as_xyz
  1  'x, y, z'
loop_
 _atom_site_type_symbol
 _atom_site_label
 _atom_site_symmetry_multiplicity
 _atom_site_fract_x
 _atom_site_fract_y
 _atom_site_fract_z
 _atom_site_occupancy
  Ni  Ni0  1  0.68524800  0.56259100  0.63917700  1
  Ni  Ni1  1  0.31475200  0.56259100  0.13917700  1
  H  H0  1  0.70041800  0.05404200  0.10420000  1
  H  H1  1  0.29958200  0.05404200  0.60420000  1
  H  H2  1  0.64104900  0.70355200  0.37876600  1
  H  H3  1  0.35895100  0.70355200  0.87876600  1
  H  H4  1  0.50852700  0.35213400  0.32206100  1
  H  H5  1  0.49147300  0.35213400  0.82206100  1
  H  H6  1  0.88059900  0.11479800  0.46209900  1
  H  H7  1  0.11940100  0.11479800  0.96209900  1
  H  H8  1  0.46324400  0.94513500  0.10725500  1
  H  H9  1  0.53675600  0.94513500  0.60725500  1
  H  H10  1  0.87919700  0.74494900  0.62357600  1
  H  H11  1  0.12080300  0.74494900  0.12357600  1
  H  H12  1  0.39574700  0.44380600  0.37526400  1
  H  H13  1  0.60425300  0.44380600  0.87526400  1
  H  H14  1  0.88509800  0.76024500  0.35768500  1
  H  H15  1  0.11490200  0.76024500  0.85768500  1
  H  H16  1  0.99743900  0.98467900  0.94810400  1
  H  H17  1  0.00256100  0.98467900  0.44810400  1
  H  H18  1  0.48804900  0.67021700  0.94902100  1
  H  H19  1  0.51195100  0.67021700  0.44902100  1
  H  H20  1  0.79175200  0.15712900  0.72482300  1
  H  H21  1  0.20824800  0.15712900  0.22482300  1
  H  H22  1  0.97967700  0.25754300  0.24024300  1
  H  H23  1  0.02032300  0.25754300  0.74024300  1
  H  H24  1  0.95594000  0.57262700  0.31718700  1
  H  H25  1  0.04406000  0.57262700  0.81718700  1
  H  H26  1  0.96998800  0.35181200  0.72943800  1
  H  H27  1  0.03001200  0.35181200  0.22943800  1
  H  H28  1  0.32527500  0.05834000  0.12343500  1
  H  H29  1  0.67472500  0.05834000  0.62343500  1
  I  I0  1  0.76081000  0.70236400  0.05252100  1
  I  I1  1  0.23919000  0.70236400  0.55252100  1
  O  O0  1  0.91371100  0.95983600  0.46119100  1
  O  O1  1  0.08628900  0.95983600  0.96119100  1
  O  O2  1  0.59557900  0.60185400  0.45823000  1
  O  O3  1  0.40442100  0.60185400  0.95823000  1
  O  O4  1  0.37632300  0.91963800  0.10135600  1
  O  O5  1  0.62367700  0.91963800  0.60135600  1
  O  O6  1  0.87477000  0.64143200  0.31540700  1
  O  O7  1  0.12523000  0.64143200  0.81540700  1
  O  O8  1  0.74753200  0.23989200  0.64140300  1
  O  O9  1  0.25246800  0.23989200  0.14140300  1
  O  O10  1  0.65028100  0.90775200  0.11213800  1
  O  O11  1  0.34971900  0.90775200  0.61213800  1
  O  O12  1  0.84066500  0.95523100  0.92631800  1
  O  O13  1  0.15933500  0.95523100  0.42631800  1
  O  O14  1  0.36018400  0.62269700  0.46559600  1
  O  O15  1  0.63981600  0.62269700  0.96559600  1
  O  O16  1  0.84858800  0.19713100  0.10102700  1
  O  O17  1  0.15141200  0.19713100  0.60102700  1
  O  O18  1  0.42130200  0.37491800  0.31048100  1
  O  O19  1  0.57869800  0.37491800  0.81048100  1
  O  O20  1  0.84119200  0.62098500  0.70674900  1
  O  O21  1  0.15880800  0.62098500  0.20674900  1
  O  O22  1  0.88212800  0.40147000  0.00474800  1
  O  O23  1  0.11787200  0.40147000  0.50474800  1
loop_
_geom_bond_atom_site_label_1
_geom_bond_atom_site_label_2
_geom_bond_distance
_geom_bond_site_symmetry_2
Ni0 O20 1.958885 1_555
Ni0 O8 1.995123 1_555
Ni0 O5 2.067041 1_555
Ni0 O19 2.114783 1_555
Ni0 O2 2.153454 1_555
Ni1 O21 1.958885 1_555
Ni1 O9 1.995123 1_555
Ni1 O4 2.067041 1_555
Ni1 O18 2.114783 1_555
Ni1 O3 2.153454 1_554
H0 O10 0.990902 1_545
H1 O11 0.990902 1_545
H2 O2 0.974785 1_555
H3 O3 0.974785 1_555
H4 O18 0.973026 1_555
H5 O19 0.973026 1_555
H6 O0 0.978966 1_545
H7 O1 0.978966 1_545
H8 O4 0.976872 1_555
H9 O5 0.976872 1_555
H10 O20 1.001331 1_555
H11 O21 1.001331 1_555
H12 O18 0.991320 1_555
H12 O14 1.753433 1_555
H13 O19 0.991320 1_555
H13 O15 1.753433 1_555
H14 O6 0.985794 1_555
H15 O7 0.985794 1_555
H16 O1 0.993121 1_655
H17 O0 0.993121 1_455
H18 O3 0.994159 1_555
H18 O15 1.695381 1_555
H19 O2 0.994159 1_555
H19 O14 1.695381 1_555
H20 O8 0.978322 1_555
H21 O9 0.978322 1_555
H22 H27 0.756479 1_655
H23 H26 0.756479 1_455
H24 O6 0.978542 1_555
H25 O7 0.978542 1_555
H28 O4 1.091191 1_545
H28 O9 1.405859 1_555
H29 O5 1.091191 1_545
H29 O8 1.405859 1_555
I0 O12 1.796447 1_554
I0 O15 1.810091 1_554
I0 O10 1.998027 1_555
I0 O22 2.428801 1_555
I1 O13 1.796447 1_555
I1 O14 1.810091 1_555
I1 O11 1.998027 1_555
I1 O23 2.428801 1_555
O16 O22 1.288640 1_555
O17 O23 1.288640 1_555
