# generated using pymatgen
data_Na7Al3O8
_symmetry_space_group_name_H-M   'P 1'
_cell_length_a   5.91862000
_cell_length_b   8.03631339
_cell_length_c   11.40940383
_cell_angle_alpha   110.54218072
_cell_angle_beta   89.77377723
_cell_angle_gamma   108.91184773
_symmetry_Int_Tables_number   1
_chemical_formula_structural   Na7Al3O8
_chemical_formula_sum   'Na14 Al6 O16'
_cell_volume   477.03146984
_cell_formula_units_Z   2
loop_
 _symmetry_equiv_pos_site_id
 _symmetry_equiv_pos_as_xyz
  1  'x, y, z'
loop_
 _atom_site_type_symbol
 _atom_site_label
 _atom_site_symmetry_multiplicity
 _atom_site_fract_x
 _atom_site_fract_y
 _atom_site_fract_z
 _atom_site_occupancy
  Na  Na0  1  0.84856900  0.76689600  0.33275600  1
  Na  Na1  1  0.72338300  0.93066200  0.55238300  1
  Na  Na2  1  0.44688400  0.93071500  0.76202300  1
  Na  Na3  1  0.62844100  0.35651600  0.55588400  1
  Na  Na4  1  0.37155900  0.64348400  0.44411600  1
  Na  Na5  1  0.47133400  0.43710700  0.27053000  1
  Na  Na6  1  0.27661700  0.06933800  0.44761700  1
  Na  Na7  1  0.15143100  0.23310400  0.66724400  1
  Na  Na8  1  0.25517900  0.54698100  0.94364800  1
  Na  Na9  1  0.65928500  0.85059900  0.05151700  1
  Na  Na10  1  0.74482100  0.45301900  0.05635200  1
  Na  Na11  1  0.52866600  0.56289300  0.72947000  1
  Na  Na12  1  0.55311600  0.06928500  0.23797700  1
  Na  Na13  1  0.34071500  0.14940100  0.94848300  1
  Al  Al0  1  0.83465400  0.25324600  0.84069700  1
  Al  Al1  1  0.16534600  0.74675400  0.15930300  1
  Al  Al2  1  0.95877100  0.32129300  0.35447900  1
  Al  Al3  1  0.04122900  0.67870700  0.64552100  1
  Al  Al4  1  0.06926600  0.16406400  0.13587500  1
  Al  Al5  1  0.93073400  0.83593600  0.86412500  1
  O  O0  1  0.15365800  0.77230900  0.99512200  1
  O  O1  1  0.63932900  0.69921200  0.89587400  1
  O  O2  1  0.02113700  0.82909100  0.72812600  1
  O  O3  1  0.95026800  0.54439300  0.23990700  1
  O  O4  1  0.68006300  0.21525800  0.41754400  1
  O  O5  1  0.06835200  0.93105100  0.16570000  1
  O  O6  1  0.22114700  0.33559300  0.46431400  1
  O  O7  1  0.04973200  0.45560700  0.76009300  1
  O  O8  1  0.36067100  0.30078800  0.10412600  1
  O  O9  1  0.97886300  0.17090900  0.27187400  1
  O  O10  1  0.93164800  0.06894900  0.83430000  1
  O  O11  1  0.77885300  0.66440700  0.53568600  1
  O  O12  1  0.46424600  0.75946700  0.23072400  1
  O  O13  1  0.84634200  0.22769100  0.00487800  1
  O  O14  1  0.53575400  0.24053300  0.76927600  1
  O  O15  1  0.31993700  0.78474200  0.58245600  1
loop_
_geom_bond_atom_site_label_1
_geom_bond_atom_site_label_2
_geom_bond_distance
_geom_bond_site_symmetry_2
Na0 O3 2.011251 1_555
Na0 O12 2.533168 1_555
Na0 O11 2.705503 1_555
Na0 O5 2.774512 1_655
Na1 O11 2.211614 1_555
Na1 O15 2.378117 1_555
Na2 O15 1.972863 1_555
Na2 O14 2.342951 1_565
Na2 O2 2.370265 1_555
Na2 O10 2.730518 1_565
Na3 O4 1.684298 1_555
Na3 O11 2.436906 1_555
Na3 O6 2.562174 1_555
Na3 O14 2.889279 1_555
Na4 O15 1.684298 1_555
Na4 O6 2.436906 1_555
Na4 O11 2.562174 1_555
Na4 O12 2.889279 1_555
Na5 O8 1.821739 1_555
Na5 O12 2.795613 1_555
Na5 O6 2.864164 1_555
Na6 O6 2.211614 1_555
Na6 O4 2.378117 1_555
Na7 O7 2.011251 1_555
Na7 O14 2.533168 1_555
Na7 O6 2.705503 1_555
Na7 O10 2.774512 1_455
Na8 O0 1.985232 1_555
Na8 O7 2.183059 1_555
Na8 O1 2.370300 1_555
Na9 O1 1.743512 1_554
Na9 O5 2.529048 1_655
Na9 O12 2.556112 1_555
Na10 O13 1.985232 1_555
Na10 O3 2.183059 1_555
Na10 O8 2.370300 1_555
Na11 O1 1.821739 1_555
Na11 O14 2.795613 1_555
Na11 O11 2.864164 1_555
Na12 O4 1.972863 1_555
Na12 O12 2.342951 1_545
Na12 O9 2.370265 1_555
Na12 O5 2.730518 1_545
Na13 O8 1.743512 1_556
Na13 O10 2.529048 1_455
Na13 O14 2.556112 1_555
Al0 O10 1.733032 1_555
Al0 O14 1.907847 1_555
Al0 O13 1.958591 1_556
Al0 O7 2.192997 1_655
Al1 O5 1.733032 1_555
Al1 O12 1.907847 1_555
Al1 O0 1.958591 1_554
Al1 O3 2.192997 1_455
Al2 O9 1.286808 1_555
Al2 O4 1.864047 1_555
Al2 O6 1.947749 1_655
Al3 O2 1.286808 1_555
Al3 O15 1.864047 1_555
Al3 O11 1.947749 1_455
Al4 O9 1.627762 1_455
Al4 O8 1.832784 1_555
Al4 O5 2.015672 1_545
Al4 O13 2.285897 1_455
Al5 O2 1.627762 1_655
Al5 O1 1.832784 1_555
Al5 O10 2.015672 1_565
Al5 O0 2.285897 1_655
