# generated using pymatgen
data_Cr3Ga4
_symmetry_space_group_name_H-M   'P 1'
_cell_length_a   6.38115427
_cell_length_b   6.38115427
_cell_length_c   7.86638840
_cell_angle_alpha   78.38648375
_cell_angle_beta   78.38648375
_cell_angle_gamma   75.99385058
_symmetry_Int_Tables_number   1
_chemical_formula_structural   Cr3Ga4
_chemical_formula_sum   'Cr9 Ga12'
_cell_volume   300.47789526
_cell_formula_units_Z   3
loop_
 _symmetry_equiv_pos_site_id
 _symmetry_equiv_pos_as_xyz
  1  'x, y, z'
loop_
 _atom_site_type_symbol
 _atom_site_label
 _atom_site_symmetry_multiplicity
 _atom_site_fract_x
 _atom_site_fract_y
 _atom_site_fract_z
 _atom_site_occupancy
  Cr  Cr0  1  0.00000000  0.00000000  0.00000000  1
  Cr  Cr1  1  0.50582000  0.50582000  0.66222500  1
  Cr  Cr2  1  0.49418000  0.49418000  0.33777500  1
  Cr  Cr3  1  0.23004600  0.23004600  0.33914000  1
  Cr  Cr4  1  0.76995400  0.76995400  0.66086000  1
  Cr  Cr5  1  0.96060100  0.33166700  0.14258800  1
  Cr  Cr6  1  0.66833300  0.03939900  0.85741200  1
  Cr  Cr7  1  0.03939900  0.66833300  0.85741200  1
  Cr  Cr8  1  0.33166700  0.96060100  0.14258800  1
  Ga  Ga0  1  0.28701600  0.28701600  0.90205700  1
  Ga  Ga1  1  0.71298400  0.71298400  0.09794300  1
  Ga  Ga2  1  0.04771500  0.04771500  0.64842300  1
  Ga  Ga3  1  0.95228500  0.95228500  0.35157700  1
  Ga  Ga4  1  0.38822700  0.81094800  0.84478500  1
  Ga  Ga5  1  0.18905200  0.61177300  0.15521500  1
  Ga  Ga6  1  0.61177300  0.18905200  0.15521500  1
  Ga  Ga7  1  0.81094800  0.38822700  0.84478500  1
  Ga  Ga8  1  0.15192400  0.54437700  0.55911600  1
  Ga  Ga9  1  0.45562300  0.84807600  0.44088400  1
  Ga  Ga10  1  0.84807600  0.45562300  0.44088400  1
  Ga  Ga11  1  0.54437700  0.15192400  0.55911600  1
loop_
_geom_bond_atom_site_label_1
_geom_bond_atom_site_label_2
_geom_bond_distance
_geom_bond_site_symmetry_2
Cr0 Cr8 2.526898 1_545
Cr0 Cr5 2.526898 1_455
Cr0 Cr7 2.526898 1_544
Cr0 Cr6 2.526898 1_454
Cr0 Ga7 2.647999 1_454
Cr0 Ga6 2.647999 1_455
Cr0 Ga5 2.647999 1_545
Cr0 Ga4 2.647999 1_544
Cr0 Ga2 2.683466 1_554
Cr0 Ga3 2.683466 1_445
Cr0 Ga0 2.791016 1_554
Cr0 Ga1 2.791016 1_445
Cr1 Ga11 2.491252 1_555
Cr1 Ga8 2.491252 1_555
Cr1 Ga10 2.501785 1_555
Cr1 Ga9 2.501785 1_555
Cr1 Ga0 2.506134 1_555
Cr1 Ga7 2.530058 1_555
Cr1 Ga4 2.530058 1_555
Cr1 Cr4 2.653741 1_555
Cr2 Ga10 2.491252 1_555
Cr2 Ga9 2.491252 1_555
Cr2 Ga11 2.501785 1_555
Cr2 Ga8 2.501785 1_555
Cr2 Ga1 2.506134 1_555
Cr2 Ga6 2.530058 1_555
Cr2 Ga5 2.530058 1_555
Cr2 Cr3 2.653741 1_555
Cr3 Cr8 2.427816 1_545
Cr3 Cr5 2.427816 1_455
Cr3 Ga6 2.553459 1_555
Cr3 Ga5 2.553459 1_555
Cr3 Ga10 2.575586 1_455
Cr3 Ga9 2.575586 1_545
Cr3 Ga2 2.646218 1_555
Cr3 Ga3 2.770137 1_445
Cr3 Ga11 2.798603 1_555
Cr3 Ga8 2.798603 1_555
Cr4 Cr6 2.427816 1_565
Cr4 Cr7 2.427816 1_655
Cr4 Ga7 2.553459 1_555
Cr4 Ga4 2.553459 1_555
Cr4 Ga8 2.575586 1_655
Cr4 Ga11 2.575586 1_565
Cr4 Ga3 2.646218 1_555
Cr4 Ga2 2.770137 1_665
Cr4 Ga10 2.798603 1_555
Cr4 Ga9 2.798603 1_555
Cr5 Ga0 2.518489 1_654
Cr5 Ga10 2.537981 1_555
Cr5 Ga1 2.561052 1_555
Cr5 Ga6 2.578358 1_555
Cr5 Ga5 2.592457 1_655
Cr5 Ga7 2.631273 1_554
Cr5 Ga3 2.644035 1_545
Cr6 Ga1 2.518489 1_546
Cr6 Ga11 2.537981 1_555
Cr6 Ga0 2.561052 1_555
Cr6 Ga7 2.578358 1_555
Cr6 Ga4 2.592457 1_545
Cr6 Ga6 2.631273 1_556
Cr6 Ga2 2.644035 1_655
Cr7 Ga1 2.518489 1_456
Cr7 Ga8 2.537981 1_555
Cr7 Ga0 2.561052 1_555
Cr7 Ga4 2.578358 1_555
Cr7 Ga7 2.592457 1_455
Cr7 Ga5 2.631273 1_556
Cr7 Ga2 2.644035 1_565
Cr8 Ga0 2.518489 1_564
Cr8 Ga9 2.537981 1_555
Cr8 Ga1 2.561052 1_555
Cr8 Ga5 2.578358 1_555
Cr8 Ga6 2.592457 1_565
Cr8 Ga4 2.631273 1_554
Cr8 Ga3 2.644035 1_455
Ga2 Ga3 2.742059 1_445
Ga2 Ga7 2.865761 1_455
Ga2 Ga4 2.865761 1_545
Ga2 Ga9 2.929980 1_545
Ga3 Ga6 2.865761 1_565
Ga3 Ga5 2.865761 1_655
Ga3 Ga8 2.929980 1_655
Ga10 Ga8 2.532737 1_655
Ga10 Ga2 2.929980 1_655
Ga11 Ga9 2.532737 1_545
Ga11 Ga3 2.929980 1_545
