# generated using pymatgen
data_SiO2
_symmetry_space_group_name_H-M   'P 1'
_cell_length_a   22.81595022
_cell_length_b   13.60412855
_cell_length_c   12.57358217
_cell_angle_alpha   89.99996484
_cell_angle_beta   69.38730945
_cell_angle_gamma   90.00001728
_symmetry_Int_Tables_number   1
_chemical_formula_structural   SiO2
_chemical_formula_sum   'Si56 O112'
_cell_volume   3652.88176460
_cell_formula_units_Z   56
loop_
 _symmetry_equiv_pos_site_id
 _symmetry_equiv_pos_as_xyz
  1  'x, y, z'
loop_
 _atom_site_type_symbol
 _atom_site_label
 _atom_site_symmetry_multiplicity
 _atom_site_fract_x
 _atom_site_fract_y
 _atom_site_fract_z
 _atom_site_occupancy
  Si  Si0  1  0.07106026  0.11478726  0.48194237  1
  Si  Si1  1  0.57105992  0.61478735  0.48194254  1
  Si  Si2  1  0.92893986  0.11478738  0.51805749  1
  Si  Si3  1  0.42893986  0.61478766  0.51805722  1
  Si  Si4  1  0.92894141  0.88341301  0.51804956  1
  Si  Si5  1  0.42894111  0.38341300  0.51804961  1
  Si  Si6  1  0.07105874  0.88341315  0.48195009  1
  Si  Si7  1  0.57105863  0.38341302  0.48195077  1
  Si  Si8  1  0.15923817  0.19736657  0.24940761  1
  Si  Si9  1  0.65923818  0.69736620  0.24940788  1
  Si  Si10  1  0.84076193  0.19736645  0.75059212  1
  Si  Si11  1  0.34076189  0.69736642  0.75059216  1
  Si  Si12  1  0.84076821  0.80082923  0.75059220  1
  Si  Si13  1  0.34076828  0.30082951  0.75059213  1
  Si  Si14  1  0.15923162  0.80082914  0.24940817  1
  Si  Si15  1  0.65923183  0.30082894  0.24940790  1
  Si  Si16  1  0.07178521  0.11450031  0.73208506  1
  Si  Si17  1  0.57178515  0.61450009  0.73208521  1
  Si  Si18  1  0.92821477  0.11450053  0.26791491  1
  Si  Si19  1  0.42821477  0.61450015  0.26791519  1
  Si  Si20  1  0.92821545  0.88370419  0.26790916  1
  Si  Si21  1  0.42821554  0.38370424  0.26790964  1
  Si  Si22  1  0.07178479  0.88370413  0.73209033  1
  Si  Si23  1  0.57178465  0.38370413  0.73209028  1
  Si  Si24  1  0.28858822  0.11196224  0.10676893  1
  Si  Si25  1  0.78858841  0.61196181  0.10676931  1
  Si  Si26  1  0.71141162  0.11196236  0.89323087  1
  Si  Si27  1  0.21141152  0.61196234  0.89323121  1
  Si  Si28  1  0.71141121  0.88623588  0.89321525  1
  Si  Si29  1  0.21141106  0.38623595  0.89321563  1
  Si  Si30  1  0.28858865  0.88623545  0.10678452  1
  Si  Si31  1  0.78858892  0.38623564  0.10678421  1
  Si  Si32  1  0.27542316  0.11180348  0.86158141  1
  Si  Si33  1  0.77542297  0.61180344  0.86158215  1
  Si  Si34  1  0.72457683  0.11180412  0.13841825  1
  Si  Si35  1  0.22457673  0.61180360  0.13841852  1
  Si  Si36  1  0.72457413  0.88638920  0.13840707  1
  Si  Si37  1  0.22457403  0.38638911  0.13840722  1
  Si  Si38  1  0.27542610  0.88638914  0.86159260  1
  Si  Si39  1  0.77542593  0.38638924  0.86159297  1
  Si  Si40  1  0.07003761  0.11783133  0.11863926  1
  Si  Si41  1  0.57003777  0.61783122  0.11863951  1
  Si  Si42  1  0.92996219  0.11783107  0.88136110  1
  Si  Si43  1  0.42996222  0.61783119  0.88136093  1
  Si  Si44  1  0.92996271  0.88035770  0.88136652  1
  Si  Si45  1  0.42996249  0.38035822  0.88136659  1
  Si  Si46  1  0.07003747  0.88035791  0.11863303  1
  Si  Si47  1  0.57003776  0.38035770  0.11863305  1
  Si  Si48  1  0.14255256  0.19659306  0.87743977  1
  Si  Si49  1  0.64255250  0.69659296  0.87743986  1
  Si  Si50  1  0.85744748  0.19659317  0.12256001  1
  Si  Si51  1  0.35744745  0.69659308  0.12256008  1
  Si  Si52  1  0.85744304  0.80160074  0.12256122  1
  Si  Si53  1  0.35744315  0.30160097  0.12256150  1
  Si  Si54  1  0.14255690  0.80160058  0.87743869  1
  Si  Si55  1  0.64255697  0.30160078  0.87743884  1
  O  O0  1  0.00000012  0.15082358  0.49999949  1
  O  O1  1  0.50000004  0.65082348  0.49999959  1
  O  O2  1  -0.00000012  0.84738795  0.50000009  1
  O  O3  1  0.49999993  0.34738884  0.50000080  1
  O  O4  1  0.07862948  0.99909944  0.44431068  1
  O  O5  1  0.57862965  0.49909915  0.44431135  1
  O  O6  1  0.92137056  0.99909928  0.55568908  1
  O  O7  1  0.42137023  0.49909921  0.55568856  1
  O  O8  1  0.12040902  0.18040922  0.38330570  1
  O  O9  1  0.62040886  0.68040896  0.38330602  1
  O  O10  1  0.87959150  0.18040911  0.61669420  1
  O  O11  1  0.37959109  0.68040900  0.61669430  1
  O  O12  1  0.87959284  0.81779253  0.61669830  1
  O  O13  1  0.37959298  0.31779305  0.61669841  1
  O  O14  1  0.12040679  0.81779291  0.38330188  1
  O  O15  1  0.62040694  0.31779208  0.38330203  1
  O  O16  1  0.08633246  0.13053343  0.59736518  1
  O  O17  1  0.58633218  0.63053314  0.59736616  1
  O  O18  1  0.91366735  0.13053264  0.40263491  1
  O  O19  1  0.41366710  0.63053312  0.40263448  1
  O  O20  1  0.91366145  0.86766504  0.40263453  1
  O  O21  1  0.41366103  0.36766497  0.40263475  1
  O  O22  1  0.08633876  0.86766580  0.59736488  1
  O  O23  1  0.58633876  0.36766463  0.59736536  1
  O  O24  1  0.22391696  0.13351901  0.21308867  1
  O  O25  1  0.72391706  0.63351935  0.21308931  1
  O  O26  1  0.77608297  0.13351955  0.78691132  1
  O  O27  1  0.27608292  0.63351934  0.78691128  1
  O  O28  1  0.77609007  0.86468634  0.78690290  1
  O  O29  1  0.27609019  0.36468738  0.78690226  1
  O  O30  1  0.22390987  0.86468645  0.21309709  1
  O  O31  1  0.72390972  0.36468709  0.21309694  1
  O  O32  1  0.17491890  0.31423597  0.22929246  1
  O  O33  1  0.67491868  0.81423632  0.22929279  1
  O  O34  1  0.82508142  0.31423659  0.77070703  1
  O  O35  1  0.32508169  0.81423634  0.77070725  1
  O  O36  1  0.82508230  0.68395973  0.77070526  1
  O  O37  1  0.32508198  0.18396062  0.77070536  1
  O  O38  1  0.17491768  0.68395950  0.22929517  1
  O  O39  1  0.67491777  0.18395963  0.22929528  1
  O  O40  1  0.11879621  0.16375885  0.17247686  1
  O  O41  1  0.61879609  0.66375834  0.17247664  1
  O  O42  1  0.88120354  0.16375888  0.82752384  1
  O  O43  1  0.38120393  0.66375871  0.82752405  1
  O  O44  1  0.88119828  0.83443174  0.82753829  1
  O  O45  1  0.38119853  0.33443272  0.82753895  1
  O  O46  1  0.11880145  0.83443164  0.17246136  1
  O  O47  1  0.61880164  0.33443225  0.17246167  1
  O  O48  1  0.12144721  0.17994363  0.76794261  1
  O  O49  1  0.62144725  0.67994386  0.76794270  1
  O  O50  1  0.87855243  0.17994376  0.23205794  1
  O  O51  1  0.37855244  0.67994354  0.23205727  1
  O  O52  1  0.87855087  0.81826318  0.23205388  1
  O  O53  1  0.37855145  0.31826281  0.23205335  1
  O  O54  1  0.12144914  0.81826279  0.76794582  1
  O  O55  1  0.62144874  0.31826237  0.76794621  1
  O  O56  1  0.00066626  0.14995728  0.80375910  1
  O  O57  1  0.50066634  0.64995777  0.80375960  1
  O  O58  1  0.99933361  0.14995805  0.19624050  1
  O  O59  1  0.49933386  0.64995768  0.19624050  1
  O  O60  1  0.99933523  0.84824523  0.19625175  1
  O  O61  1  0.49933564  0.34824541  0.19625178  1
  O  O62  1  0.00066464  0.84824510  0.80374812  1
  O  O63  1  0.50066452  0.34824501  0.80374802  1
  O  O64  1  0.08001035  0.99910224  0.75888421  1
  O  O65  1  0.58001044  0.49910208  0.75888454  1
  O  O66  1  0.91998969  0.99910217  0.24111559  1
  O  O67  1  0.41998994  0.49910205  0.24111580  1
  O  O68  1  0.31070717  0.99909890  0.11244081  1
  O  O69  1  0.81070759  0.49909897  0.11244117  1
  O  O70  1  0.68929260  0.99909902  0.88755901  1
  O  O71  1  0.18929269  0.49909940  0.88755886  1
  O  O72  1  0.27614032  0.13181793  0.98875974  1
  O  O73  1  0.77613981  0.63181760  0.98876017  1
  O  O74  1  0.72385972  0.13181912  0.01123987  1
  O  O75  1  0.22385991  0.63181808  0.01124068  1
  O  O76  1  0.72385672  0.86638260  0.01122647  1
  O  O77  1  0.22385649  0.36638332  0.01122721  1
  O  O78  1  0.27614324  0.86638307  0.98877350  1
  O  O79  1  0.77614308  0.36638269  0.98877280  1
  O  O80  1  0.34369155  0.18487165  0.11354576  1
  O  O81  1  0.84369168  0.68487141  0.11354545  1
  O  O82  1  0.65630826  0.18487131  0.88645445  1
  O  O83  1  0.15630809  0.68487109  0.88645515  1
  O  O84  1  0.65630668  0.81332672  0.88644432  1
  O  O85  1  0.15630672  0.31332650  0.88644482  1
  O  O86  1  0.34369337  0.81332647  0.11355477  1
  O  O87  1  0.84369342  0.31332658  0.11355464  1
  O  O88  1  0.29555443  0.99909550  0.82352445  1
  O  O89  1  0.79555445  0.49909577  0.82352541  1
  O  O90  1  0.70444584  0.99909570  0.17647420  1
  O  O91  1  0.20444550  0.49909523  0.17647510  1
  O  O92  1  0.20503088  0.13200600  0.86240103  1
  O  O93  1  0.70503064  0.63200626  0.86240100  1
  O  O94  1  0.79496881  0.13200644  0.13759865  1
  O  O95  1  0.29496925  0.63200610  0.13759939  1
  O  O96  1  0.79496891  0.86620074  0.13758160  1
  O  O97  1  0.29496906  0.36620057  0.13758186  1
  O  O98  1  0.20503134  0.86619979  0.86241861  1
  O  O99  1  0.70503119  0.36620073  0.86241759  1
  O  O100  1  0.07682346  0.99909657  0.11436194  1
  O  O101  1  0.57682388  0.49909661  0.11436143  1
  O  O102  1  0.92317663  0.99909602  0.88563782  1
  O  O103  1  0.42317681  0.49909667  0.88563834  1
  O  O104  1  0.08561595  0.16067770  0.99085950  1
  O  O105  1  0.58561581  0.66067776  0.99085952  1
  O  O106  1  0.91438404  0.16067722  0.00914086  1
  O  O107  1  0.41438450  0.66067778  0.00914098  1
  O  O108  1  0.91438388  0.83752511  0.00914955  1
  O  O109  1  0.41438414  0.33752511  0.00914928  1
  O  O110  1  0.08561624  0.83752560  0.99085021  1
  O  O111  1  0.58561637  0.33752488  0.99085026  1
loop_
_geom_bond_atom_site_label_1
_geom_bond_atom_site_label_2
_geom_bond_distance
_geom_bond_site_symmetry_2
O0 Si2 1.631359 1_455
O0 Si0 1.631359 1_555
O1 Si1 1.631353 1_555
O1 Si3 1.631356 1_555
O2 Si4 1.631298 1_455
O2 Si6 1.631305 1_555
O3 Si7 1.631297 1_555
O3 Si5 1.631303 1_555
O4 Si0 1.634969 1_565
O4 Si6 1.634973 1_555
O5 Si7 1.634971 1_555
O5 Si1 1.634972 1_555
O6 Si2 1.634971 1_565
O6 Si4 1.634973 1_555
O7 Si5 1.634971 1_555
O7 Si3 1.634975 1_555
O8 Si0 1.618527 1_555
O8 Si8 1.619363 1_555
O9 Si1 1.618526 1_555
O9 Si9 1.619364 1_555
O10 Si2 1.618523 1_555
O10 Si10 1.619364 1_555
O11 Si3 1.618527 1_555
O11 Si11 1.619362 1_555
O12 Si4 1.618594 1_555
O12 Si12 1.619312 1_555
O13 Si5 1.618586 1_555
O13 Si13 1.619310 1_555
O14 Si6 1.618585 1_555
O14 Si14 1.619312 1_555
O15 Si7 1.618596 1_555
O15 Si15 1.619315 1_555
O16 Si0 1.621596 1_555
O16 Si16 1.622101 1_555
O17 Si1 1.621606 1_555
O17 Si17 1.622092 1_555
O18 Si2 1.621595 1_555
O18 Si18 1.622101 1_555
O19 Si3 1.621600 1_555
O19 Si19 1.622093 1_555
O20 Si4 1.621598 1_555
O20 Si20 1.622154 1_555
O21 Si5 1.621598 1_555
O21 Si21 1.622150 1_555
O22 Si6 1.621595 1_555
O22 Si22 1.622154 1_555
O23 Si7 1.621595 1_555
O23 Si23 1.622149 1_555
O24 Si24 1.631394 1_555
O24 Si8 1.632855 1_555
O25 Si25 1.631399 1_555
O25 Si9 1.632851 1_555
O26 Si26 1.631395 1_555
O26 Si10 1.632852 1_555
O27 Si27 1.631397 1_555
O27 Si11 1.632854 1_555
O28 Si28 1.631436 1_555
O28 Si12 1.632916 1_555
O29 Si29 1.631444 1_555
O29 Si13 1.632921 1_555
O30 Si30 1.631435 1_555
O30 Si14 1.632918 1_555
O31 Si31 1.631441 1_555
O31 Si15 1.632918 1_555
O32 Si37 1.625221 1_555
O32 Si8 1.629742 1_555
O33 Si36 1.625225 1_555
O33 Si9 1.629750 1_555
O34 Si39 1.625226 1_555
O34 Si10 1.629751 1_555
O35 Si38 1.625225 1_555
O35 Si11 1.629747 1_555
O36 Si33 1.625242 1_555
O36 Si12 1.629760 1_555
O37 Si32 1.625239 1_555
O37 Si13 1.629754 1_555
O38 Si35 1.625236 1_555
O38 Si14 1.629763 1_555
O39 Si34 1.625235 1_555
O39 Si15 1.629758 1_555
O40 Si40 1.617544 1_555
O40 Si8 1.620046 1_555
O41 Si41 1.617533 1_555
O41 Si9 1.620054 1_555
O42 Si42 1.617543 1_555
O42 Si10 1.620049 1_555
O43 Si43 1.617532 1_555
O43 Si11 1.620059 1_555
O44 Si44 1.617569 1_555
O44 Si12 1.619968 1_555
O45 Si45 1.617553 1_555
O45 Si13 1.619982 1_555
O46 Si46 1.617563 1_555
O46 Si14 1.619977 1_555
O47 Si47 1.617559 1_555
O47 Si15 1.619975 1_555
O48 Si16 1.624649 1_555
O48 Si48 1.626492 1_555
O49 Si17 1.624654 1_555
O49 Si49 1.626490 1_555
O50 Si18 1.624651 1_555
O50 Si50 1.626496 1_555
O51 Si19 1.624658 1_555
O51 Si51 1.626488 1_555
O52 Si20 1.624664 1_555
O52 Si52 1.626497 1_555
O53 Si21 1.624665 1_555
O53 Si53 1.626492 1_555
O54 Si22 1.624664 1_555
O54 Si54 1.626498 1_555
O55 Si23 1.624665 1_555
O55 Si55 1.626500 1_555
O56 Si42 1.623929 1_455
O56 Si16 1.627327 1_555
O57 Si43 1.623929 1_555
O57 Si17 1.627328 1_555
O58 Si40 1.623928 1_655
O58 Si18 1.627327 1_555
O59 Si41 1.623924 1_555
O59 Si19 1.627333 1_555
O60 Si46 1.623900 1_655
O60 Si20 1.627308 1_555
O61 Si47 1.623896 1_555
O61 Si21 1.627314 1_555
O62 Si44 1.623893 1_455
O62 Si22 1.627315 1_555
O63 Si45 1.623898 1_555
O63 Si23 1.627315 1_555
O64 Si22 1.630274 1_555
O64 Si16 1.630288 1_565
O65 Si23 1.630275 1_555
O65 Si17 1.630289 1_555
O66 Si20 1.630272 1_555
O66 Si18 1.630293 1_565
O67 Si21 1.630270 1_555
O67 Si19 1.630288 1_555
O68 Si30 1.625572 1_555
O68 Si24 1.625604 1_565
O69 Si31 1.625573 1_555
O69 Si25 1.625600 1_555
O70 Si28 1.625569 1_555
O70 Si26 1.625605 1_565
O71 Si29 1.625572 1_555
O71 Si27 1.625599 1_555
O72 Si32 1.627853 1_555
O72 Si24 1.628496 1_556
O73 Si33 1.627846 1_555
O73 Si25 1.628504 1_556
O74 Si34 1.627855 1_555
O74 Si26 1.628499 1_554
O75 Si35 1.627844 1_555
O75 Si27 1.628506 1_554
O76 Si36 1.627866 1_555
O76 Si28 1.628489 1_554
O77 Si37 1.627858 1_555
O77 Si29 1.628491 1_554
O78 Si38 1.627866 1_555
O78 Si30 1.628483 1_556
O79 Si39 1.627854 1_555
O79 Si31 1.628494 1_556
O80 Si24 1.627001 1_555
O80 Si53 1.630363 1_555
O81 Si25 1.626999 1_555
O81 Si52 1.630362 1_555
O82 Si26 1.626996 1_555
O82 Si55 1.630363 1_555
O83 Si27 1.626994 1_555
O83 Si54 1.630364 1_555
O84 Si28 1.626996 1_555
O84 Si49 1.630415 1_555
O85 Si29 1.626995 1_555
O85 Si48 1.630411 1_555
O86 Si30 1.626996 1_555
O86 Si51 1.630411 1_555
O87 Si31 1.626993 1_555
O87 Si50 1.630411 1_555
O88 Si38 1.623626 1_555
O88 Si32 1.623633 1_565
O89 Si39 1.623628 1_555
O89 Si33 1.623629 1_555
O90 Si36 1.623626 1_555
O90 Si34 1.623634 1_565
O91 Si37 1.623624 1_555
O91 Si35 1.623636 1_555
O92 Si32 1.625866 1_555
O92 Si48 1.627898 1_555
O93 Si33 1.625871 1_555
O93 Si49 1.627891 1_555
O94 Si34 1.625858 1_555
O94 Si50 1.627902 1_555
O95 Si35 1.625873 1_555
O95 Si51 1.627893 1_555
O96 Si36 1.625864 1_555
O96 Si52 1.627957 1_555
O97 Si37 1.625871 1_555
O97 Si53 1.627954 1_555
O98 Si38 1.625863 1_555
O98 Si54 1.627957 1_555
O99 Si39 1.625867 1_555
O99 Si55 1.627956 1_555
O100 Si40 1.621771 1_565
O100 Si46 1.621824 1_555
O101 Si41 1.621769 1_555
O101 Si47 1.621827 1_555
O102 Si42 1.621774 1_565
O102 Si44 1.621819 1_555
O103 Si43 1.621766 1_555
O103 Si45 1.621820 1_555
O104 Si40 1.626447 1_556
O104 Si48 1.629610 1_555
O105 Si41 1.626452 1_556
O105 Si49 1.629610 1_555
O106 Si42 1.626448 1_554
O106 Si50 1.629608 1_555
O107 Si43 1.626454 1_554
O107 Si51 1.629611 1_555
O108 Si44 1.626416 1_554
O108 Si52 1.629634 1_555
O109 Si45 1.626416 1_554
O109 Si53 1.629639 1_555
O110 Si46 1.626413 1_556
O110 Si54 1.629634 1_555
O111 Si47 1.626416 1_556
O111 Si55 1.629629 1_555
