# generated using pymatgen
data_Ba4Sm(RuO4)3
_symmetry_space_group_name_H-M   'P 1'
_cell_length_a   5.97967712
_cell_length_b   5.97967712
_cell_length_c   29.76704628
_cell_angle_alpha   88.92588276
_cell_angle_beta   88.92588276
_cell_angle_gamma   59.95235146
_symmetry_Int_Tables_number   1
_chemical_formula_structural   Ba4Sm(RuO4)3
_chemical_formula_sum   'Ba12 Sm3 Ru9 O36'
_cell_volume   921.10980455
_cell_formula_units_Z   3
loop_
 _symmetry_equiv_pos_site_id
 _symmetry_equiv_pos_as_xyz
  1  'x, y, z'
loop_
 _atom_site_type_symbol
 _atom_site_label
 _atom_site_symmetry_multiplicity
 _atom_site_fract_x
 _atom_site_fract_y
 _atom_site_fract_z
 _atom_site_occupancy
  Ba  Ba0  1  0.66775800  0.66775800  0.53686800  1
  Ba  Ba1  1  0.33224200  0.33224200  0.46313200  1
  Ba  Ba2  1  0.65817000  0.65817000  0.38349700  1
  Ba  Ba3  1  0.34183000  0.34183000  0.61650300  1
  Ba  Ba4  1  0.99392000  0.99392000  0.28262300  1
  Ba  Ba5  1  0.00608000  0.00608000  0.71737700  1
  Ba  Ba6  1  0.66842700  0.66842700  0.79699700  1
  Ba  Ba7  1  0.33157300  0.33157300  0.20300300  1
  Ba  Ba8  1  0.00144400  0.00144400  0.13075200  1
  Ba  Ba9  1  0.99855600  0.99855600  0.86924800  1
  Ba  Ba10  1  0.67073900  0.67073900  0.94958300  1
  Ba  Ba11  1  0.32926100  0.32926100  0.05041700  1
  Sm  Sm0  1  0.67763000  0.67763000  0.66698400  1
  Sm  Sm1  1  0.32237000  0.32237000  0.33301600  1
  Sm  Sm2  1  0.00000000  0.00000000  0.00000000  1
  Ru  Ru0  1  0.00000000  0.00000000  0.50000000  1
  Ru  Ru1  1  0.98685900  0.98685900  0.41429200  1
  Ru  Ru2  1  0.01314100  0.01314100  0.58570800  1
  Ru  Ru3  1  0.66053900  0.66053900  0.25160500  1
  Ru  Ru4  1  0.33946100  0.33946100  0.74839500  1
  Ru  Ru5  1  0.67104900  0.67104900  0.16641900  1
  Ru  Ru6  1  0.32895200  0.32895200  0.83358100  1
  Ru  Ru7  1  0.65867800  0.65867800  0.08057300  1
  Ru  Ru8  1  0.34132200  0.34132200  0.91942700  1
  O  O0  1  0.83876000  0.83876000  0.46184100  1
  O  O1  1  0.16124000  0.16124000  0.53815900  1
  O  O2  1  0.86350500  0.86350500  0.62544800  1
  O  O3  1  0.13649500  0.13649500  0.37455200  1
  O  O4  1  0.49517600  0.49517600  0.28499100  1
  O  O5  1  0.50482400  0.50482400  0.71500900  1
  O  O6  1  0.17735400  0.17735400  0.79121900  1
  O  O7  1  0.82264600  0.82264600  0.20878100  1
  O  O8  1  0.51213200  0.51213200  0.12826700  1
  O  O9  1  0.48786800  0.48786800  0.87173300  1
  O  O10  1  0.19781700  0.19781700  0.96252900  1
  O  O11  1  0.80218300  0.80218300  0.03747100  1
  O  O12  1  0.30204000  0.83753300  0.45602300  1
  O  O13  1  0.83753300  0.30204000  0.45602300  1
  O  O14  1  0.69796000  0.16246700  0.54397700  1
  O  O15  1  0.16246700  0.69796000  0.54397700  1
  O  O16  1  0.33191300  0.86083100  0.62037000  1
  O  O17  1  0.86083100  0.33191300  0.62037000  1
  O  O18  1  0.66808700  0.13916900  0.37963000  1
  O  O19  1  0.13916900  0.66808700  0.37963000  1
  O  O20  1  0.50140400  0.03649000  0.71063800  1
  O  O21  1  0.03649000  0.50140400  0.71063800  1
  O  O22  1  0.49859600  0.96351000  0.28936200  1
  O  O23  1  0.96351000  0.49859600  0.28936200  1
  O  O24  1  0.64332900  0.16811100  0.79216000  1
  O  O25  1  0.16811100  0.64332900  0.79216000  1
  O  O26  1  0.35667100  0.83188900  0.20784000  1
  O  O27  1  0.83188900  0.35667100  0.20784000  1
  O  O28  1  0.48245100  0.02434800  0.87727100  1
  O  O29  1  0.02434800  0.48245100  0.87727100  1
  O  O30  1  0.51754900  0.97565200  0.12272900  1
  O  O31  1  0.97565200  0.51754900  0.12272900  1
  O  O32  1  0.66650700  0.19430100  0.95148000  1
  O  O33  1  0.19430100  0.66650700  0.95148000  1
  O  O34  1  0.33349300  0.80569900  0.04852000  1
  O  O35  1  0.80569900  0.33349300  0.04852000  1
loop_
_geom_bond_atom_site_label_1
_geom_bond_atom_site_label_2
_geom_bond_distance
_geom_bond_site_symmetry_2
Ba0 O0 2.820423 1_555
Ba0 O14 2.939000 1_555
Ba0 O15 2.939000 1_555
Ba0 O1 2.988676 1_565
Ba0 O1 2.988676 1_655
Ba0 O16 3.023698 1_555
Ba0 O17 3.023698 1_555
Ba0 O14 3.064027 1_565
Ba0 O15 3.064027 1_655
Ba0 O13 3.080062 1_555
Ba0 O12 3.080062 1_555
Ba0 O2 3.360977 1_555
Ba1 O1 2.820423 1_555
Ba1 O12 2.939000 1_555
Ba1 O13 2.939000 1_555
Ba1 O0 2.988676 1_455
Ba1 O0 2.988676 1_545
Ba1 O19 3.023698 1_555
Ba1 O18 3.023698 1_555
Ba1 O13 3.064027 1_455
Ba1 O12 3.064027 1_545
Ba1 O14 3.080062 1_555
Ba1 O15 3.080062 1_555
Ba1 O3 3.360977 1_555
Ba2 O12 2.823688 1_555
Ba2 O13 2.823688 1_555
Ba2 O18 2.906465 1_565
Ba2 O19 2.906465 1_655
Ba2 O3 3.008350 1_655
Ba2 O3 3.008350 1_565
Ba2 O0 3.021161 1_555
Ba2 O19 3.078483 1_555
Ba2 O18 3.078483 1_555
Ba2 O22 3.203086 1_555
Ba2 O23 3.203086 1_555
Ba2 O4 3.415185 1_555
Ba3 O15 2.823688 1_555
Ba3 O14 2.823688 1_555
Ba3 O17 2.906465 1_455
Ba3 O16 2.906465 1_545
Ba3 O2 3.008350 1_455
Ba3 O2 3.008350 1_545
Ba3 O1 3.021161 1_555
Ba3 O17 3.078483 1_555
Ba3 O16 3.078483 1_555
Ba3 O21 3.203086 1_555
Ba3 O20 3.203086 1_555
Ba3 O5 3.415185 1_555
Ba4 O7 2.854558 1_555
Ba4 O26 2.897313 1_655
Ba4 O27 2.897313 1_565
Ba4 O22 2.941462 1_655
Ba4 O23 2.941462 1_565
Ba4 O4 2.988551 1_655
Ba4 O4 2.988551 1_565
Ba4 O23 3.059698 1_555
Ba4 O22 3.059698 1_555
Ba4 O3 3.137627 1_665
Ba4 O18 3.328250 1_565
Ba4 O19 3.328250 1_655
Ba5 O6 2.854558 1_555
Ba5 O24 2.897313 1_455
Ba5 O25 2.897313 1_545
Ba5 O20 2.941462 1_455
Ba5 O21 2.941462 1_545
Ba5 O5 2.988551 1_545
Ba5 O5 2.988551 1_455
Ba5 O21 3.059698 1_555
Ba5 O20 3.059698 1_555
Ba5 O2 3.137627 1_445
Ba5 O17 3.328250 1_455
Ba5 O16 3.328250 1_545
Ba6 O9 2.875393 1_555
Ba6 O24 2.916625 1_565
Ba6 O25 2.916625 1_655
Ba6 O6 2.993945 1_655
Ba6 O6 2.993945 1_565
Ba6 O5 3.001302 1_555
Ba6 O28 3.032648 1_565
Ba6 O29 3.032648 1_655
Ba6 O25 3.075759 1_555
Ba6 O24 3.075759 1_555
Ba6 O20 3.183164 1_565
Ba6 O21 3.183164 1_655
Ba7 O8 2.875393 1_555
Ba7 O26 2.916625 1_545
Ba7 O27 2.916625 1_455
Ba7 O7 2.993945 1_455
Ba7 O7 2.993945 1_545
Ba7 O4 3.001302 1_555
Ba7 O30 3.032648 1_545
Ba7 O31 3.032648 1_455
Ba7 O26 3.075759 1_555
Ba7 O27 3.075759 1_555
Ba7 O23 3.183164 1_455
Ba7 O22 3.183164 1_545
Ba8 O7 2.939322 1_445
Ba8 O27 2.957075 1_455
Ba8 O26 2.957075 1_545
Ba8 O34 2.983618 1_545
Ba8 O35 2.983618 1_455
Ba8 O31 2.987903 1_445
Ba8 O30 2.987903 1_445
Ba8 O8 2.990592 1_545
Ba8 O8 2.990592 1_455
Ba8 O30 3.016983 1_545
Ba8 O31 3.016983 1_455
Ba9 O6 2.939322 1_665
Ba9 O25 2.957075 1_655
Ba9 O24 2.957075 1_565
Ba9 O32 2.983618 1_565
Ba9 O33 2.983618 1_655
Ba9 O29 2.987903 1_665
Ba9 O28 2.987903 1_665
Ba9 O9 2.990592 1_565
Ba9 O9 2.990592 1_655
Ba9 O28 3.016983 1_565
Ba9 O29 3.016983 1_655
Ba10 O28 2.812127 1_565
Ba10 O29 2.812127 1_655
Ba10 O32 2.861194 1_555
Ba10 O33 2.861194 1_555
Ba10 O11 2.975358 1_556
Ba10 O9 3.024765 1_555
Ba10 O10 3.026241 1_655
Ba10 O10 3.026241 1_565
Ba10 O32 3.119703 1_565
Ba10 O33 3.119703 1_655
Ba10 O35 3.409997 1_556
Ba10 O34 3.409997 1_556
Ba11 O31 2.812127 1_455
Ba11 O30 2.812127 1_545
Ba11 O35 2.861194 1_555
Ba11 O34 2.861194 1_555
Ba11 O10 2.975358 1_554
Ba11 O8 3.024765 1_555
Ba11 O11 3.026241 1_455
Ba11 O11 3.026241 1_545
Ba11 O34 3.119703 1_545
Ba11 O35 3.119703 1_455
Ba11 O33 3.409997 1_554
Ba11 O32 3.409997 1_554
O0 Ru0 2.040224 1_665
O0 Ru1 2.064766 1_555
O1 Ru0 2.040224 1_555
O1 Ru2 2.064766 1_555
O2 Ru2 1.929509 1_665
O2 Sm0 2.265732 1_555
O3 Ru1 1.929509 1_445
O3 Sm1 2.265732 1_555
O4 Ru3 1.961797 1_555
O4 Sm1 2.266649 1_555
O5 Ru4 1.961797 1_555
O5 Sm0 2.266649 1_555
O6 Ru6 2.035255 1_555
O6 Ru4 2.086283 1_555
O7 Ru5 2.035247 1_555
O7 Ru3 2.086283 1_555
O8 Ru5 2.020155 1_555
O8 Ru7 2.055988 1_555
O9 Ru6 2.020146 1_555
O9 Ru8 2.055988 1_555
O10 Ru8 1.942607 1_555
O10 Sm2 2.311889 1_556
O11 Ru7 1.942607 1_555
O11 Sm2 2.311889 1_665
O12 Ru0 2.030111 1_565
O12 Ru1 2.062354 1_455
O13 Ru0 2.030111 1_655
O13 Ru1 2.062354 1_545
O14 Ru0 2.030111 1_655
O14 Ru2 2.062354 1_655
O15 Ru0 2.030111 1_565
O15 Ru2 2.062354 1_565
O16 Ru2 1.956385 1_565
O16 Sm0 2.276327 1_555
O17 Ru2 1.956385 1_655
O17 Sm0 2.276327 1_555
O18 Ru1 1.956385 1_545
O18 Sm1 2.276327 1_555
O19 Ru1 1.956385 1_455
O19 Sm1 2.276327 1_555
O20 Ru4 1.939513 1_555
O20 Sm0 2.278694 1_545
O21 Ru4 1.939513 1_555
O21 Sm0 2.278694 1_455
O22 Ru3 1.939513 1_555
O22 Sm1 2.278694 1_565
O23 Ru3 1.939513 1_555
O23 Sm1 2.278694 1_655
O24 Ru6 2.031284 1_555
O24 Ru4 2.054964 1_555
O25 Ru6 2.031284 1_555
O25 Ru4 2.054964 1_555
O26 Ru5 2.031288 1_555
O26 Ru3 2.054964 1_555
O27 Ru5 2.031288 1_555
O27 Ru3 2.054964 1_555
O28 Ru6 2.033018 1_555
O28 Ru8 2.080150 1_555
O29 Ru6 2.033018 1_555
O29 Ru8 2.080150 1_555
O30 Ru5 2.033014 1_555
O30 Ru7 2.080150 1_555
O31 Ru5 2.033014 1_555
O31 Ru7 2.080150 1_555
O32 Ru8 1.946916 1_555
O32 Sm2 2.266593 1_656
O33 Ru8 1.946916 1_555
O33 Sm2 2.266593 1_566
O34 Ru7 1.946916 1_555
O34 Sm2 2.266593 1_565
O35 Ru7 1.946916 1_555
O35 Sm2 2.266593 1_655
