# generated using pymatgen
data_Ba6Tb2Ga4O15
_symmetry_space_group_name_H-M   'P 1'
_cell_length_a   6.05144400
_cell_length_b   8.05463300
_cell_length_c   18.69429878
_cell_angle_alpha   88.60800919
_cell_angle_beta   90.00000000
_cell_angle_gamma   90.00000000
_symmetry_Int_Tables_number   1
_chemical_formula_structural   Ba6Tb2Ga4O15
_chemical_formula_sum   'Ba12 Tb4 Ga8 O30'
_cell_volume   910.93161254
_cell_formula_units_Z   2
loop_
 _symmetry_equiv_pos_site_id
 _symmetry_equiv_pos_as_xyz
  1  'x, y, z'
loop_
 _atom_site_type_symbol
 _atom_site_label
 _atom_site_symmetry_multiplicity
 _atom_site_fract_x
 _atom_site_fract_y
 _atom_site_fract_z
 _atom_site_occupancy
  Ba  Ba0  1  0.75678100  0.49866800  0.07849800  1
  Ba  Ba1  1  0.24321900  0.50133200  0.92150200  1
  Ba  Ba2  1  0.75678100  0.50133200  0.42150200  1
  Ba  Ba3  1  0.24321900  0.49866800  0.57849800  1
  Ba  Ba4  1  0.74321900  0.97090900  0.09003500  1
  Ba  Ba5  1  0.25678100  0.02909100  0.90996500  1
  Ba  Ba6  1  0.74321900  0.02909100  0.40996500  1
  Ba  Ba7  1  0.25678100  0.97090900  0.59003500  1
  Ba  Ba8  1  0.72420000  0.00000000  0.75000000  1
  Ba  Ba9  1  0.27580000  0.00000000  0.25000000  1
  Ba  Ba10  1  0.66538200  0.50000000  0.75000000  1
  Ba  Ba11  1  0.33461800  0.50000000  0.25000000  1
  Tb  Tb0  1  0.74559300  0.75181900  0.90995600  1
  Tb  Tb1  1  0.25440700  0.24818100  0.09004400  1
  Tb  Tb2  1  0.74559300  0.24818100  0.59004400  1
  Tb  Tb3  1  0.25440700  0.75181900  0.40995600  1
  Ga  Ga0  1  0.75042700  0.75440700  0.55894100  1
  Ga  Ga1  1  0.24957300  0.24559300  0.44105900  1
  Ga  Ga2  1  0.75042700  0.24559300  0.94105900  1
  Ga  Ga3  1  0.24957300  0.75440700  0.05894100  1
  Ga  Ga4  1  0.77536600  0.76987500  0.26566300  1
  Ga  Ga5  1  0.22463400  0.23012500  0.73433700  1
  Ga  Ga6  1  0.77536600  0.23012500  0.23433700  1
  Ga  Ga7  1  0.22463400  0.76987500  0.76566300  1
  O  O0  1  0.20608400  0.00000000  0.75000000  1
  O  O1  1  0.79391600  0.00000000  0.25000000  1
  O  O2  1  0.50460900  0.76563100  0.00108800  1
  O  O3  1  0.49539100  0.23436900  0.99891200  1
  O  O4  1  0.50460900  0.23436900  0.49891200  1
  O  O5  1  0.49539100  0.76563100  0.50108800  1
  O  O6  1  0.76210400  0.95300300  0.60922700  1
  O  O7  1  0.23789600  0.04699700  0.39077300  1
  O  O8  1  0.76210400  0.04699700  0.89077300  1
  O  O9  1  0.23789600  0.95300300  0.10922700  1
  O  O10  1  0.00589700  0.76372800  0.99505300  1
  O  O11  1  0.99410300  0.23627200  0.00494700  1
  O  O12  1  0.00589700  0.23627200  0.50494700  1
  O  O13  1  0.99410300  0.76372800  0.49505300  1
  O  O14  1  0.32727200  0.68959900  0.68155600  1
  O  O15  1  0.67272800  0.31040100  0.31844400  1
  O  O16  1  0.32727200  0.31040100  0.81844400  1
  O  O17  1  0.67272800  0.68959900  0.18155600  1
  O  O18  1  0.44867400  0.74816400  0.83571900  1
  O  O19  1  0.55132600  0.25183600  0.16428100  1
  O  O20  1  0.44867400  0.25183600  0.66428100  1
  O  O21  1  0.55132600  0.74816400  0.33571900  1
  O  O22  1  0.95560300  0.72474500  0.80915000  1
  O  O23  1  0.04439700  0.27525500  0.19085000  1
  O  O24  1  0.95560300  0.27525500  0.69085000  1
  O  O25  1  0.04439700  0.72474500  0.30915000  1
  O  O26  1  0.75626600  0.53298800  0.59196000  1
  O  O27  1  0.24373400  0.46701200  0.40804000  1
  O  O28  1  0.75626600  0.46701200  0.90804000  1
  O  O29  1  0.24373400  0.53298800  0.09196000  1
loop_
_geom_bond_atom_site_label_1
_geom_bond_atom_site_label_2
_geom_bond_distance
_geom_bond_site_symmetry_2
Ba0 O17 2.545489 1_555
Ba0 O19 2.813414 1_555
Ba0 O11 2.925947 1_555
Ba0 O29 2.970956 1_655
Ba0 O2 2.982519 1_555
Ba0 O10 3.016997 1_654
Ba0 O3 3.066173 1_554
Ba0 O29 3.127641 1_555
Ba0 O28 3.202947 1_554
Ba0 O23 3.239653 1_655
Ba1 O16 2.545489 1_555
Ba1 O18 2.813414 1_555
Ba1 O10 2.925947 1_555
Ba1 O28 2.970956 1_455
Ba1 O3 2.982519 1_555
Ba1 O11 3.016997 1_456
Ba1 O2 3.066173 1_556
Ba1 O28 3.127641 1_555
Ba1 O29 3.202947 1_556
Ba1 O22 3.239653 1_455
Ba2 O15 2.545489 1_555
Ba2 O21 2.813414 1_555
Ba2 O13 2.925947 1_555
Ba2 O27 2.970956 1_655
Ba2 O4 2.982519 1_555
Ba2 O12 3.016997 1_655
Ba2 O5 3.066173 1_555
Ba2 O27 3.127641 1_555
Ba2 O26 3.202947 1_555
Ba2 O25 3.239653 1_655
Ba3 O14 2.545489 1_555
Ba3 O20 2.813414 1_555
Ba3 O12 2.925947 1_555
Ba3 O26 2.970956 1_455
Ba3 O5 2.982519 1_555
Ba3 O13 3.016997 1_455
Ba3 O4 3.066173 1_555
Ba3 O26 3.127641 1_555
Ba3 O27 3.202947 1_555
Ba3 O24 3.239653 1_455
Ba4 O2 2.778002 1_555
Ba4 O17 2.838122 1_555
Ba4 O19 2.923632 1_565
Ba4 O10 2.933998 1_654
Ba4 O9 3.017965 1_655
Ba4 O1 3.020887 1_565
Ba4 O11 3.039485 1_565
Ba4 O3 3.078728 1_564
Ba4 O9 3.081878 1_555
Ba5 O3 2.778002 1_555
Ba5 O16 2.838122 1_555
Ba5 O18 2.923632 1_545
Ba5 O11 2.933998 1_456
Ba5 O8 3.017965 1_455
Ba5 O0 3.020887 1_555
Ba5 O10 3.039485 1_545
Ba5 O2 3.078728 1_546
Ba5 O8 3.081878 1_555
Ba6 O4 2.778002 1_555
Ba6 O15 2.838122 1_555
Ba6 O21 2.923632 1_545
Ba6 O12 2.933998 1_655
Ba6 O7 3.017965 1_655
Ba6 O1 3.020887 1_555
Ba6 O13 3.039485 1_545
Ba6 O5 3.078728 1_545
Ba6 O7 3.081878 1_555
Ba7 O5 2.778002 1_555
Ba7 O14 2.838122 1_555
Ba7 O20 2.923632 1_565
Ba7 O13 2.933998 1_455
Ba7 O6 3.017965 1_455
Ba7 O0 3.020887 1_565
Ba7 O12 3.039485 1_565
Ba7 O4 3.078728 1_565
Ba7 O6 3.081878 1_555
Ba8 O8 2.677667 1_555
Ba8 O6 2.677667 1_545
Ba8 O24 2.824881 1_555
Ba8 O22 2.824881 1_545
Ba8 O0 2.916094 1_655
Ba8 O20 3.050332 1_555
Ba8 O18 3.050332 1_545
Ba8 O0 3.135350 1_555
Ba9 O7 2.677667 1_555
Ba9 O9 2.677667 1_545
Ba9 O23 2.824881 1_555
Ba9 O25 2.824881 1_545
Ba9 O1 2.916094 1_455
Ba9 O21 3.050332 1_545
Ba9 O19 3.050332 1_555
Ba9 O1 3.135350 1_555
Ba10 O22 2.771529 1_555
Ba10 O24 2.771529 1_555
Ba10 O16 2.839144 1_555
Ba10 O14 2.839144 1_555
Ba10 O18 2.904949 1_555
Ba10 O20 2.904949 1_555
Ba10 O26 3.010597 1_555
Ba10 O28 3.010597 1_555
Ba11 O25 2.771529 1_555
Ba11 O23 2.771529 1_555
Ba11 O15 2.839144 1_555
Ba11 O17 2.839144 1_555
Ba11 O21 2.904949 1_555
Ba11 O19 2.904949 1_555
Ba11 O29 3.010597 1_555
Ba11 O27 3.010597 1_555
Ga0 O26 1.873358 1_555
Ga0 O6 1.876312 1_555
Ga0 O5 1.885470 1_555
Ga0 O13 1.897934 1_555
Ga1 O27 1.873358 1_555
Ga1 O7 1.876312 1_555
Ga1 O4 1.885470 1_555
Ga1 O12 1.897934 1_555
Ga2 O28 1.873358 1_555
Ga2 O8 1.876312 1_555
Ga2 O3 1.885470 1_555
Ga2 O11 1.897934 1_556
Ga3 O29 1.873358 1_555
Ga3 O9 1.876312 1_555
Ga3 O2 1.885470 1_555
Ga3 O10 1.897934 1_554
Ga4 O17 1.823581 1_555
Ga4 O25 1.851796 1_655
Ga4 O1 1.872885 1_565
Ga4 O21 1.890167 1_555
Ga5 O16 1.823581 1_555
Ga5 O24 1.851796 1_455
Ga5 O0 1.872885 1_555
Ga5 O20 1.890167 1_555
Ga6 O15 1.823581 1_555
Ga6 O23 1.851796 1_655
Ga6 O1 1.872885 1_555
Ga6 O19 1.890167 1_555
Ga7 O14 1.823581 1_555
Ga7 O22 1.851796 1_455
Ga7 O0 1.872885 1_565
Ga7 O18 1.890167 1_555
O2 Tb0 2.247364 1_554
O3 Tb1 2.247364 1_556
O4 Tb2 2.247364 1_555
O5 Tb3 2.247364 1_555
O6 Tb2 2.397897 1_565
O7 Tb3 2.397897 1_545
O8 Tb0 2.397897 1_545
O9 Tb1 2.397897 1_565
O10 Tb0 2.242466 1_455
O11 Tb1 2.242466 1_655
O12 Tb2 2.242466 1_455
O13 Tb3 2.242466 1_655
O18 Tb0 2.270972 1_555
O19 Tb1 2.270972 1_555
O20 Tb2 2.270972 1_555
O21 Tb3 2.270972 1_555
O22 Tb0 2.287782 1_555
O23 Tb1 2.287782 1_555
O24 Tb2 2.287782 1_555
O25 Tb3 2.287782 1_555
O26 Tb2 2.296074 1_555
O27 Tb3 2.296074 1_555
O28 Tb0 2.296074 1_555
O29 Tb1 2.296074 1_555
