# generated using pymatgen
data_Rb2U(PtS2)3
_symmetry_space_group_name_H-M   'P 1'
_cell_length_a   11.20393995
_cell_length_b   9.81731974
_cell_length_c   8.78986725
_cell_angle_alpha   73.81267377
_cell_angle_beta   57.29885951
_cell_angle_gamma   48.88846672
_symmetry_Int_Tables_number   1
_chemical_formula_structural   Rb2U(PtS2)3
_chemical_formula_sum   'Rb4 U2 Pt6 S12'
_cell_volume   608.50310680
_cell_formula_units_Z   2
loop_
 _symmetry_equiv_pos_site_id
 _symmetry_equiv_pos_as_xyz
  1  'x, y, z'
loop_
 _atom_site_type_symbol
 _atom_site_label
 _atom_site_symmetry_multiplicity
 _atom_site_fract_x
 _atom_site_fract_y
 _atom_site_fract_z
 _atom_site_occupancy
  Rb  Rb0  1  0.75000000  0.75000000  0.75000000  1
  Rb  Rb1  1  0.25000000  0.25000000  0.25000000  1
  Rb  Rb2  1  0.30700200  0.69299800  0.30700200  1
  Rb  Rb3  1  0.69299800  0.30700200  0.69299800  1
  U  U0  1  0.83234800  0.83234800  0.16765200  1
  U  U1  1  0.16765200  0.16765200  0.83234800  1
  Pt  Pt0  1  0.50376400  0.17385700  0.49623600  1
  Pt  Pt1  1  0.82614300  0.49623600  0.17385700  1
  Pt  Pt2  1  0.49623600  0.82614300  0.50376400  1
  Pt  Pt3  1  0.17385700  0.50376400  0.82614300  1
  Pt  Pt4  1  0.83063500  0.16936500  0.16936500  1
  Pt  Pt5  1  0.16936500  0.83063500  0.83063500  1
  S  S0  1  0.81954400  0.97834000  0.40204900  1
  S  S1  1  0.80006700  0.40204900  0.97834000  1
  S  S2  1  0.40204900  0.80006700  0.81954400  1
  S  S3  1  0.97834000  0.81954400  0.80006700  1
  S  S4  1  0.18045600  0.02166000  0.59795100  1
  S  S5  1  0.19993300  0.59795100  0.02166000  1
  S  S6  1  0.59795100  0.19993300  0.18045600  1
  S  S7  1  0.02166000  0.18045600  0.19993300  1
  S  S8  1  0.81081600  0.59185500  0.40814500  1
  S  S9  1  0.18918400  0.40814500  0.59185500  1
  S  S10  1  0.40814500  0.18918400  0.81081600  1
  S  S11  1  0.59185500  0.81081600  0.18918400  1
loop_
_geom_bond_atom_site_label_1
_geom_bond_atom_site_label_2
_geom_bond_distance
_geom_bond_site_symmetry_2
Rb0 S1 3.299350 1_555
Rb0 S2 3.299350 1_555
Rb0 S0 3.299350 1_555
Rb0 S3 3.299350 1_555
Rb0 S9 3.301752 1_655
Rb0 S10 3.301752 1_565
Rb0 S11 3.301752 1_556
Rb0 S8 3.301752 1_555
Rb1 S4 3.299350 1_555
Rb1 S7 3.299350 1_555
Rb1 S5 3.299350 1_555
Rb1 S6 3.299350 1_555
Rb1 S8 3.301752 1_455
Rb1 S11 3.301752 1_545
Rb1 S9 3.301752 1_555
Rb1 S10 3.301752 1_554
Rb2 S11 3.634724 1_555
Rb2 S9 3.634724 1_555
Rb2 S6 3.691650 1_555
Rb2 S3 3.691650 1_455
Rb2 S1 3.691650 1_554
Rb2 S4 3.691650 1_565
Rb2 S7 3.824686 1_565
Rb2 S0 3.824686 1_455
Rb2 S5 3.824686 1_555
Rb2 S2 3.824686 1_554
Rb3 S10 3.634724 1_555
Rb3 S8 3.634724 1_555
Rb3 S0 3.691650 1_545
Rb3 S2 3.691650 1_555
Rb3 S5 3.691650 1_556
Rb3 S7 3.691650 1_655
Rb3 S4 3.824686 1_655
Rb3 S1 3.824686 1_555
Rb3 S3 3.824686 1_545
Rb3 S6 3.824686 1_556
Pt0 S9 2.373901 1_555
Pt0 S10 2.373901 1_555
Pt0 S6 2.382774 1_555
Pt0 S0 2.382774 1_545
Pt1 S11 2.373901 1_555
Pt1 S8 2.373901 1_555
Pt1 S7 2.382774 1_655
Pt1 S1 2.382774 1_554
Pt2 S11 2.373901 1_555
Pt2 S8 2.373901 1_555
Pt2 S4 2.382774 1_565
Pt2 S2 2.382774 1_555
Pt3 S10 2.373901 1_555
Pt3 S9 2.373901 1_555
Pt3 S5 2.382774 1_556
Pt3 S3 2.382774 1_455
Pt4 S1 2.368284 1_554
Pt4 S6 2.368284 1_555
Pt4 S0 2.368284 1_545
Pt4 S7 2.368284 1_655
Pt5 S3 2.368284 1_455
Pt5 S2 2.368284 1_555
Pt5 S5 2.368284 1_556
Pt5 S4 2.368284 1_565
S0 U0 2.715952 1_555
S1 U1 2.715952 1_655
S2 U1 2.715952 1_565
S3 U0 2.715952 1_556
S4 U1 2.715952 1_555
S5 U0 2.715952 1_455
S6 U0 2.715952 1_545
S7 U1 2.715952 1_554
S8 U0 2.741598 1_555
S9 U1 2.741598 1_555
S10 U1 2.741598 1_555
S11 U0 2.741598 1_555
