# generated using pymatgen
data_Ce(MgSi)2
_symmetry_space_group_name_H-M   'P 1'
_cell_length_a   4.24017832
_cell_length_b   4.24016987
_cell_length_c   5.82186806
_cell_angle_alpha   90.00000000
_cell_angle_beta   90.00000000
_cell_angle_gamma   90.00000000
_symmetry_Int_Tables_number   1
_chemical_formula_structural   Ce(MgSi)2
_chemical_formula_sum   'Ce1 Mg2 Si2'
_cell_volume   104.67181038
_cell_formula_units_Z   1
loop_
 _symmetry_equiv_pos_site_id
 _symmetry_equiv_pos_as_xyz
  1  'x, y, z'
loop_
 _atom_site_type_symbol
 _atom_site_label
 _atom_site_symmetry_multiplicity
 _atom_site_fract_x
 _atom_site_fract_y
 _atom_site_fract_z
 _atom_site_occupancy
  Ce  Ce0  1  0.00000000  -0.00000000  0.00000000  1
  Mg  Mg0  1  0.50000000  -0.00000000  0.50000000  1
  Mg  Mg1  1  0.00000000  0.50000000  0.50000000  1
  Si  Si0  1  0.50000000  0.50000000  0.80279009  1
  Si  Si1  1  0.50000000  0.50000000  0.19720991  1
loop_
_geom_bond_atom_site_label_1
_geom_bond_atom_site_label_2
_geom_bond_distance
_geom_bond_site_symmetry_2
Ce0 Si1 3.210567 1_455
Ce0 Si0 3.210567 1_544
Ce0 Si0 3.210567 1_444
Ce0 Si0 3.210567 1_454
Ce0 Si1 3.210567 1_545
Ce0 Si1 3.210567 1_555
Ce0 Si0 3.210567 1_554
Ce0 Si1 3.210567 1_445
Mg0 Si0 2.757216 1_545
Mg0 Si1 2.757216 1_545
Mg0 Si1 2.757216 1_555
Mg0 Si0 2.757216 1_555
Mg1 Si0 2.757219 1_555
Mg1 Si1 2.757219 1_555
Mg1 Si0 2.757219 1_455
Mg1 Si1 2.757219 1_455
Si0 Si1 2.296260 1_556
