# generated using pymatgen
data_Mg3ZnH24(CO3)8
_symmetry_space_group_name_H-M   'P 1'
_cell_length_a   7.30318400
_cell_length_b   8.84186771
_cell_length_c   9.49290623
_cell_angle_alpha   97.47244483
_cell_angle_beta   90.08921285
_cell_angle_gamma   90.06509864
_symmetry_Int_Tables_number   1
_chemical_formula_structural   Mg3ZnH24(CO3)8
_chemical_formula_sum   'Mg3 Zn1 H24 C8 O24'
_cell_volume   607.78578198
_cell_formula_units_Z   1
loop_
 _symmetry_equiv_pos_site_id
 _symmetry_equiv_pos_as_xyz
  1  'x, y, z'
loop_
 _atom_site_type_symbol
 _atom_site_label
 _atom_site_symmetry_multiplicity
 _atom_site_fract_x
 _atom_site_fract_y
 _atom_site_fract_z
 _atom_site_occupancy
  Mg  Mg0  1  0.50000000  0.00000000  0.50000000  1
  Mg  Mg1  1  0.50000000  0.50000000  0.00000000  1
  Mg  Mg2  1  0.00000000  0.50000000  0.50000000  1
  Zn  Zn0  1  0.00000000  0.00000000  0.00000000  1
  H  H0  1  0.79700700  0.43256600  0.22324900  1
  H  H1  1  0.29699500  0.56743000  0.27667100  1
  H  H2  1  0.20299300  0.56743400  0.77675100  1
  H  H3  1  0.70300500  0.43257000  0.72332900  1
  H  H4  1  0.90239300  0.26091400  0.95037700  1
  H  H5  1  0.40294000  0.73818000  0.55038800  1
  H  H6  1  0.09760700  0.73908600  0.04962300  1
  H  H7  1  0.59706000  0.26182000  0.44961200  1
  H  H8  1  0.11498000  0.28308700  0.98923000  1
  H  H9  1  0.61518800  0.71542500  0.51219400  1
  H  H10  1  0.88502000  0.71691300  0.01077000  1
  H  H11  1  0.38481200  0.28457500  0.48780600  1
  H  H12  1  0.14707000  0.02782300  0.27420500  1
  H  H13  1  0.64718200  0.97167400  0.22666300  1
  H  H14  1  0.85293000  0.97217700  0.72579500  1
  H  H15  1  0.35281800  0.02832600  0.77333700  1
  H  H16  1  0.48210200  0.17284400  0.10199800  1
  H  H17  1  0.98335500  0.82863000  0.39755700  1
  H  H18  1  0.51789800  0.82715600  0.89800200  1
  H  H19  1  0.01664500  0.17137000  0.60244300  1
  H  H20  1  0.10060700  0.19398900  0.23276700  1
  H  H21  1  0.60109500  0.80715700  0.26845200  1
  H  H22  1  0.89939300  0.80601100  0.76723300  1
  H  H23  1  0.39890500  0.19284300  0.73154800  1
  C  C0  1  0.72951900  0.53774300  0.27265600  1
  C  C1  1  0.22944600  0.46206300  0.22721600  1
  C  C2  1  0.27048100  0.46225700  0.72734400  1
  C  C3  1  0.77055400  0.53793700  0.77278400  1
  C  C4  1  0.62226200  0.17794600  0.05951500  1
  C  C5  1  0.12298000  0.82223000  0.44078400  1
  C  C6  1  0.37773800  0.82205400  0.94048500  1
  C  C7  1  0.87702000  0.17777000  0.55921600  1
  O  O0  1  0.77762700  0.58992900  0.39855800  1
  O  O1  1  0.27753600  0.40972100  0.10140800  1
  O  O2  1  0.22237300  0.41007100  0.60144200  1
  O  O3  1  0.72246400  0.59027900  0.89859200  1
  O  O4  1  0.60997900  0.59851100  0.20021700  1
  O  O5  1  0.11007800  0.40107900  0.29943400  1
  O  O6  1  0.39002100  0.40148900  0.79978300  1
  O  O7  1  0.88992200  0.59892100  0.70056600  1
  O  O8  1  0.02685200  0.21775900  0.92934300  1
  O  O9  1  0.52664300  0.78417100  0.56730400  1
  O  O10  1  0.97314800  0.78224100  0.07065700  1
  O  O11  1  0.47335700  0.21582900  0.43269600  1
  O  O12  1  0.72704300  0.06726200  0.07568500  1
  O  O13  1  0.23080100  0.93152500  0.42681200  1
  O  O14  1  0.27295700  0.93273800  0.92431500  1
  O  O15  1  0.76919900  0.06847500  0.57318800  1
  O  O16  1  0.10611000  0.08441000  0.19657000  1
  O  O17  1  0.60319500  0.91680000  0.30449300  1
  O  O18  1  0.89389000  0.91559000  0.80343000  1
  O  O19  1  0.39680500  0.08320000  0.69550700  1
  O  O20  1  0.66417300  0.29495300  0.00010300  1
  O  O21  1  0.16243800  0.70413600  0.49980300  1
  O  O22  1  0.33582700  0.70504700  0.99989700  1
  O  O23  1  0.83756200  0.29586400  0.50019700  1
loop_
_geom_bond_atom_site_label_1
_geom_bond_atom_site_label_2
_geom_bond_distance
_geom_bond_site_symmetry_2
Mg0 O17 2.050400 1_545
Mg0 O19 2.050400 1_555
Mg0 O9 2.098900 1_545
Mg0 O11 2.098900 1_555
Mg0 O15 2.144317 1_555
Mg0 O13 2.144317 1_545
Mg1 O3 2.098884 1_554
Mg1 O1 2.098884 1_555
Mg1 O4 2.139931 1_555
Mg1 O6 2.139931 1_554
Mg1 O22 2.174840 1_554
Mg1 O20 2.174840 1_555
Mg2 O2 2.096253 1_555
Mg2 O0 2.096253 1_455
Mg2 O7 2.146989 1_455
Mg2 O5 2.146989 1_555
Mg2 O21 2.158978 1_555
Mg2 O23 2.158978 1_455
H4 O8 0.996588 1_655
H5 O9 0.994512 1_555
H6 O10 0.996588 1_455
H7 O11 0.994512 1_555
H8 O8 0.991809 1_555
H9 O9 0.990237 1_555
H10 O10 0.991809 1_555
H11 O11 0.990237 1_555
H12 O16 0.989203 1_555
H13 O17 0.988991 1_555
H14 O18 0.989203 1_555
H15 O19 0.988991 1_555
H20 O16 0.985880 1_555
H21 O17 0.985293 1_555
H22 O18 0.985880 1_555
H23 O19 0.985293 1_555
C0 H0 1.102745 1_555
C0 O4 1.272412 1_555
C0 O0 1.272667 1_555
C1 H1 1.102814 1_555
C1 O5 1.271872 1_555
C1 O1 1.273484 1_555
C2 H2 1.102745 1_555
C2 O6 1.272412 1_555
C2 O2 1.272667 1_555
C3 H3 1.102814 1_555
C3 O7 1.271872 1_555
C3 O3 1.273484 1_555
C4 H16 1.103800 1_555
C4 O12 1.267800 1_555
C4 O20 1.278152 1_555
C5 H17 1.102842 1_455
C5 O13 1.266277 1_555
C5 O21 1.280457 1_555
C6 H18 1.103800 1_555
C6 O14 1.267800 1_555
C6 O22 1.278152 1_555
C7 H19 1.102842 1_655
C7 O15 1.266277 1_555
C7 O23 1.280457 1_555
O8 Zn0 2.128604 1_556
O10 Zn0 2.128604 1_665
O12 Zn0 2.177102 1_655
O14 Zn0 2.177102 1_566
O16 Zn0 2.066770 1_555
O18 Zn0 2.066770 1_666
