# generated using pymatgen
data_YbCo3P2
_symmetry_space_group_name_H-M   'P 1'
_cell_length_a   3.64530688
_cell_length_b   10.36030750
_cell_length_c   12.00385119
_cell_angle_alpha   90.00000000
_cell_angle_beta   90.00000000
_cell_angle_gamma   90.00000000
_symmetry_Int_Tables_number   1
_chemical_formula_structural   YbCo3P2
_chemical_formula_sum   'Yb6 Co18 P12'
_cell_volume   453.34344851
_cell_formula_units_Z   6
loop_
 _symmetry_equiv_pos_site_id
 _symmetry_equiv_pos_as_xyz
  1  'x, y, z'
loop_
 _atom_site_type_symbol
 _atom_site_label
 _atom_site_symmetry_multiplicity
 _atom_site_fract_x
 _atom_site_fract_y
 _atom_site_fract_z
 _atom_site_occupancy
  Yb  Yb0  1  0.00000000  0.50000000  0.52274625  1
  Yb  Yb1  1  0.50000000  0.00000000  0.47725375  1
  Yb  Yb2  1  0.50000000  0.81795455  0.20596742  1
  Yb  Yb3  1  0.50000000  0.18204545  0.20596742  1
  Yb  Yb4  1  0.00000000  0.68204545  0.79403258  1
  Yb  Yb5  1  0.00000000  0.31795455  0.79403258  1
  Co  Co0  1  0.50000000  0.50000000  0.15670515  1
  Co  Co1  1  0.00000000  0.00000000  0.84329485  1
  Co  Co2  1  0.50000000  0.50000000  0.70268233  1
  Co  Co3  1  0.00000000  0.00000000  0.29731767  1
  Co  Co4  1  0.00000000  0.50000000  0.98657177  1
  Co  Co5  1  0.50000000  0.00000000  0.01342823  1
  Co  Co6  1  0.50000000  0.33309871  0.99461672  1
  Co  Co7  1  0.50000000  0.66690129  0.99461672  1
  Co  Co8  1  0.00000000  0.16690129  0.00538328  1
  Co  Co9  1  0.00000000  0.83309871  0.00538328  1
  Co  Co10  1  0.50000000  0.29711759  0.43125114  1
  Co  Co11  1  0.50000000  0.70288241  0.43125114  1
  Co  Co12  1  0.00000000  0.20288241  0.56874886  1
  Co  Co13  1  0.00000000  0.79711759  0.56874886  1
  Co  Co14  1  0.50000000  0.87899224  0.70912479  1
  Co  Co15  1  0.50000000  0.12100776  0.70912479  1
  Co  Co16  1  0.00000000  0.62100776  0.29087521  1
  Co  Co17  1  0.00000000  0.37899224  0.29087521  1
  P  P0  1  0.50000000  0.50000000  0.88085307  1
  P  P1  1  0.00000000  0.00000000  0.11914693  1
  P  P2  1  0.50000000  0.50000000  0.34562049  1
  P  P3  1  0.00000000  0.00000000  0.65437951  1
  P  P4  1  0.50000000  0.31196692  0.61614311  1
  P  P5  1  0.50000000  0.68803308  0.61614311  1
  P  P6  1  0.00000000  0.18803308  0.38385689  1
  P  P7  1  0.00000000  0.81196692  0.38385689  1
  P  P8  1  0.50000000  0.84584287  0.89237530  1
  P  P9  1  0.50000000  0.15415713  0.89237530  1
  P  P10  1  0.00000000  0.65415713  0.10762470  1
  P  P11  1  0.00000000  0.34584287  0.10762470  1
loop_
_geom_bond_atom_site_label_1
_geom_bond_atom_site_label_2
_geom_bond_distance
_geom_bond_site_symmetry_2
Co0 P2 2.267712 1_555
Co0 P10 2.493982 1_655
Co0 P10 2.493982 1_555
Co0 P11 2.493982 1_555
Co0 P11 2.493982 1_655
Co1 P3 2.267712 1_555
Co1 P9 2.493982 1_555
Co1 P9 2.493982 1_455
Co1 P8 2.493982 1_545
Co1 P8 2.493982 1_445
Co2 P0 2.138735 1_555
Co2 P5 2.207744 1_555
Co2 P4 2.207744 1_555
Co2 Yb0 2.826189 1_555
Co2 Yb0 2.826189 1_655
Co2 Yb4 2.842828 1_555
Co2 Yb4 2.842828 1_655
Co2 Yb5 2.842828 1_655
Co2 Yb5 2.842828 1_555
Co3 P1 2.138735 1_555
Co3 P6 2.207744 1_555
Co3 P7 2.207744 1_545
Co3 Yb1 2.826189 1_555
Co3 Yb1 2.826189 1_455
Co3 Yb3 2.842828 1_555
Co3 Yb3 2.842828 1_455
Co3 Yb2 2.842828 1_445
Co3 Yb2 2.842828 1_545
Co4 P10 2.159232 1_556
Co4 P11 2.159232 1_556
Co4 P0 2.220925 1_455
Co4 P0 2.220925 1_555
Co4 Yb4 2.983098 1_555
Co4 Yb5 2.983098 1_555
Co5 P9 2.159232 1_554
Co5 P8 2.159232 1_544
Co5 P1 2.220925 1_655
Co5 P1 2.220925 1_555
Co5 Yb3 2.983098 1_555
Co5 Yb2 2.983098 1_545
Co6 P0 2.203366 1_555
Co6 P9 2.223320 1_555
Co6 P11 2.275890 1_656
Co6 P11 2.275890 1_556
Co6 Yb3 2.980868 1_556
Co6 Yb5 3.023921 1_555
Co6 Yb5 3.023921 1_655
Co7 P0 2.203366 1_555
Co7 P8 2.223320 1_555
Co7 P10 2.275890 1_656
Co7 P10 2.275890 1_556
Co7 Yb2 2.980868 1_556
Co7 Yb4 3.023921 1_655
Co7 Yb4 3.023921 1_555
Co8 P1 2.203366 1_555
Co8 P11 2.223320 1_555
Co8 P9 2.275890 1_554
Co8 P9 2.275890 1_454
Co8 Yb5 2.980868 1_554
Co8 Yb3 3.023921 1_555
Co8 Yb3 3.023921 1_455
Co9 P1 2.203366 1_565
Co9 P10 2.223320 1_555
Co9 P8 2.275890 1_454
Co9 P8 2.275890 1_554
Co9 Yb4 2.980868 1_554
Co9 Yb2 3.023921 1_555
Co9 Yb2 3.023921 1_455
Co10 P6 2.218776 1_655
Co10 P6 2.218776 1_555
Co10 P4 2.224741 1_555
Co10 P2 2.339799 1_555
Co10 Yb3 2.955400 1_555
Co10 Yb0 2.991053 1_555
Co10 Yb0 2.991053 1_655
Co10 Yb1 3.127368 1_555
Co11 P7 2.218776 1_555
Co11 P7 2.218776 1_655
Co11 P5 2.224741 1_555
Co11 P2 2.339799 1_555
Co11 Yb2 2.955400 1_555
Co11 Yb0 2.991053 1_555
Co11 Yb0 2.991053 1_655
Co11 Yb1 3.127368 1_565
Co12 P4 2.218776 1_555
Co12 P4 2.218776 1_455
Co12 P6 2.224741 1_555
Co12 P3 2.339799 1_555
Co12 Yb5 2.955400 1_555
Co12 Yb1 2.991053 1_555
Co12 Yb1 2.991053 1_455
Co12 Yb0 3.127368 1_555
Co13 P5 2.218776 1_455
Co13 P5 2.218776 1_555
Co13 P7 2.224741 1_555
Co13 P3 2.339799 1_565
Co13 Yb4 2.955400 1_555
Co13 Yb1 2.991053 1_565
Co13 Yb1 2.991053 1_465
Co13 Yb0 3.127368 1_555
Co14 P8 2.226361 1_555
Co14 P5 2.271522 1_555
Co14 P3 2.307732 1_565
Co14 P3 2.307732 1_665
Co14 Yb4 2.919628 1_655
Co14 Yb4 2.919628 1_555
Co14 Yb1 3.052658 1_565
Co15 P9 2.226361 1_555
Co15 P4 2.271522 1_555
Co15 P3 2.307732 1_655
Co15 P3 2.307732 1_555
Co15 Yb5 2.919628 1_655
Co15 Yb5 2.919628 1_555
Co15 Yb1 3.052658 1_555
Co16 P10 2.226361 1_555
Co16 P7 2.271522 1_555
Co16 P2 2.307732 1_555
Co16 P2 2.307732 1_455
Co16 Yb2 2.919628 1_555
Co16 Yb2 2.919628 1_455
Co16 Yb0 3.052658 1_555
Co17 P11 2.226361 1_555
Co17 P6 2.271522 1_555
Co17 P2 2.307732 1_555
Co17 P2 2.307732 1_455
Co17 Yb3 2.919628 1_455
Co17 Yb3 2.919628 1_555
Co17 Yb0 3.052658 1_555
P0 Yb4 2.822300 1_555
P0 Yb4 2.822300 1_655
P0 Yb5 2.822300 1_655
P0 Yb5 2.822300 1_555
P1 Yb3 2.822300 1_455
P1 Yb3 2.822300 1_555
P1 Yb2 2.822300 1_445
P1 Yb2 2.822300 1_545
P2 Yb0 2.800492 1_655
P2 Yb0 2.800492 1_555
P3 Yb1 2.800492 1_555
P3 Yb1 2.800492 1_455
P4 Yb5 2.808144 1_555
P4 Yb5 2.808144 1_655
P4 Yb0 2.893786 1_655
P4 Yb0 2.893786 1_555
P5 Yb4 2.808144 1_555
P5 Yb4 2.808144 1_655
P5 Yb0 2.893786 1_555
P5 Yb0 2.893786 1_655
P6 Yb3 2.808144 1_555
P6 Yb3 2.808144 1_455
P6 Yb1 2.893786 1_455
P6 Yb1 2.893786 1_555
P7 Yb2 2.808144 1_455
P7 Yb2 2.808144 1_555
P7 Yb1 2.893786 1_565
P7 Yb1 2.893786 1_465
P8 Yb4 2.755976 1_555
P8 Yb4 2.755976 1_655
P9 Yb5 2.755976 1_555
P9 Yb5 2.755976 1_655
P10 Yb2 2.755976 1_455
P10 Yb2 2.755976 1_555
P11 Yb3 2.755976 1_455
P11 Yb3 2.755976 1_555
