# generated using pymatgen
data_LaMg6Fe
_symmetry_space_group_name_H-M   'P 1'
_cell_length_a   4.82437300
_cell_length_b   6.34625400
_cell_length_c   11.76659400
_cell_angle_alpha   90.00000000
_cell_angle_beta   90.00000000
_cell_angle_gamma   90.00000000
_symmetry_Int_Tables_number   1
_chemical_formula_structural   LaMg6Fe
_chemical_formula_sum   'La2 Mg12 Fe2'
_cell_volume   360.25423673
_cell_formula_units_Z   2
loop_
 _symmetry_equiv_pos_site_id
 _symmetry_equiv_pos_as_xyz
  1  'x, y, z'
loop_
 _atom_site_type_symbol
 _atom_site_label
 _atom_site_symmetry_multiplicity
 _atom_site_fract_x
 _atom_site_fract_y
 _atom_site_fract_z
 _atom_site_occupancy
  La  La0  1  0.50000000  0.50000000  0.20452200  1
  La  La1  1  0.50000000  0.00000000  0.70452200  1
  Mg  Mg0  1  0.00000000  0.75637000  0.06698400  1
  Mg  Mg1  1  0.00000000  0.24363000  0.06698400  1
  Mg  Mg2  1  0.00000000  0.00000000  0.32113100  1
  Mg  Mg3  1  0.50000000  0.25126100  0.42964100  1
  Mg  Mg4  1  0.50000000  0.74873900  0.42964100  1
  Mg  Mg5  1  0.50000000  0.00000000  0.15853500  1
  Mg  Mg6  1  0.00000000  0.25637000  0.56698400  1
  Mg  Mg7  1  0.00000000  0.74363000  0.56698400  1
  Mg  Mg8  1  0.00000000  0.50000000  0.82113100  1
  Mg  Mg9  1  0.50000000  0.75126100  0.92964100  1
  Mg  Mg10  1  0.50000000  0.24873900  0.92964100  1
  Mg  Mg11  1  0.50000000  0.50000000  0.65853500  1
  Fe  Fe0  1  0.00000000  0.50000000  0.32256000  1
  Fe  Fe1  1  0.00000000  0.00000000  0.82256000  1
loop_
_geom_bond_atom_site_label_1
_geom_bond_atom_site_label_2
_geom_bond_distance
_geom_bond_site_symmetry_2
La0 Mg4 3.083576 1_555
La0 Mg3 3.083576 1_555
La0 Mg5 3.218934 1_565
La0 Mg5 3.218934 1_555
La0 Mg1 3.329385 1_555
La0 Mg1 3.329385 1_655
La0 Mg0 3.329385 1_555
La0 Mg0 3.329385 1_655
La0 Mg9 3.606116 1_554
La0 Mg10 3.606116 1_554
La1 Mg10 3.083576 1_555
La1 Mg9 3.083576 1_545
La1 Mg11 3.218934 1_555
La1 Mg11 3.218934 1_545
La1 Mg7 3.329385 1_545
La1 Mg7 3.329385 1_645
La1 Mg6 3.329385 1_555
La1 Mg6 3.329385 1_655
La1 Mg3 3.606116 1_555
La1 Mg4 3.606116 1_545
Mg0 Mg9 2.903677 1_554
Mg0 Mg9 2.903677 1_454
Mg0 Mg5 3.060987 1_565
Mg0 Mg5 3.060987 1_465
Mg0 Mg1 3.092276 1_565
Mg0 Mg1 3.253978 1_555
Mg0 Mg8 3.318989 1_554
Mg0 Mg2 3.366497 1_565
Mg1 Mg10 2.903677 1_454
Mg1 Mg10 2.903677 1_554
Mg1 Mg5 3.060987 1_455
Mg1 Mg5 3.060987 1_555
Mg1 Mg8 3.318989 1_554
Mg1 Mg2 3.366497 1_555
Mg2 Mg5 3.078796 1_455
Mg2 Mg5 3.078796 1_555
Mg2 Mg3 3.160931 1_555
Mg2 Mg3 3.160931 1_455
Mg2 Mg4 3.160931 1_545
Mg2 Mg4 3.160931 1_445
Mg2 Mg7 3.318989 1_545
Mg2 Mg6 3.318989 1_555
Mg3 Mg6 2.903677 1_655
Mg3 Mg6 2.903677 1_555
Mg3 Mg4 3.157122 1_555
Mg3 Mg4 3.189132 1_545
Mg4 Mg7 2.903677 1_555
Mg4 Mg7 2.903677 1_655
Mg5 Mg9 3.121816 1_544
Mg6 Mg7 3.092276 1_555
Mg6 Mg7 3.253978 1_545
Mg6 Mg8 3.366497 1_555
Mg7 Mg8 3.366497 1_555
Mg8 Mg9 3.160931 1_455
Mg8 Mg9 3.160931 1_555
Mg10 Mg5 3.121816 1_556
Mg10 Mg9 3.157122 1_545
Mg10 Mg8 3.160931 1_555
Mg10 Mg8 3.160931 1_655
Mg10 Mg9 3.189132 1_555
Mg11 Mg7 3.060987 1_655
Mg11 Mg6 3.060987 1_555
Mg11 Mg7 3.060987 1_555
Mg11 Mg6 3.060987 1_655
Mg11 Mg8 3.078796 1_555
Mg11 Mg8 3.078796 1_655
Mg11 Mg4 3.121816 1_555
Mg11 Mg3 3.121816 1_555
Fe0 La0 2.783469 1_455
Fe0 La0 2.783469 1_555
Fe0 Mg4 3.146116 1_555
Fe0 Mg4 3.146116 1_455
Fe0 Mg3 3.146116 1_455
Fe0 Mg3 3.146116 1_555
Fe0 Mg2 3.173172 1_555
Fe0 Mg2 3.173172 1_565
Fe0 Mg6 3.265293 1_555
Fe0 Mg7 3.265293 1_555
Fe0 Mg0 3.419167 1_555
Fe0 Mg1 3.419167 1_555
Fe1 La1 2.783469 1_555
Fe1 La1 2.783469 1_455
Fe1 Mg10 3.146116 1_555
Fe1 Mg10 3.146116 1_455
Fe1 Mg9 3.146116 1_545
Fe1 Mg9 3.146116 1_445
Fe1 Mg8 3.173172 1_555
Fe1 Mg8 3.173172 1_545
Fe1 Mg0 3.265293 1_546
Fe1 Mg1 3.265293 1_556
Fe1 Mg7 3.419167 1_545
Fe1 Mg6 3.419167 1_555
