# generated using pymatgen
data_YSbO3
_symmetry_space_group_name_H-M   'P 1'
_cell_length_a   3.77499872
_cell_length_b   3.77499872
_cell_length_c   12.85953300
_cell_angle_alpha   90.00000000
_cell_angle_beta   90.00000000
_cell_angle_gamma   120.00001264
_symmetry_Int_Tables_number   1
_chemical_formula_structural   YSbO3
_chemical_formula_sum   'Y2 Sb2 O6'
_cell_volume   158.70455488
_cell_formula_units_Z   2
loop_
 _symmetry_equiv_pos_site_id
 _symmetry_equiv_pos_as_xyz
  1  'x, y, z'
loop_
 _atom_site_type_symbol
 _atom_site_label
 _atom_site_symmetry_multiplicity
 _atom_site_fract_x
 _atom_site_fract_y
 _atom_site_fract_z
 _atom_site_occupancy
  Y  Y0  1  0.00000000  0.00000000  0.50000000  1
  Y  Y1  1  0.00000000  0.00000000  0.00000000  1
  Sb  Sb0  1  0.66666700  0.33333300  0.75000000  1
  Sb  Sb1  1  0.33333300  0.66666700  0.25000000  1
  O  O0  1  0.33333300  0.66666700  0.42551400  1
  O  O1  1  0.66666700  0.33333300  0.92551400  1
  O  O2  1  0.66666700  0.33333300  0.57448600  1
  O  O3  1  0.33333300  0.66666700  0.07448600  1
  O  O4  1  0.00000000  0.00000000  0.25000000  1
  O  O5  1  0.00000000  0.00000000  0.75000000  1
loop_
_geom_bond_atom_site_label_1
_geom_bond_atom_site_label_2
_geom_bond_distance
_geom_bond_site_symmetry_2
O0 Sb1 2.257028 1_555
O0 Y0 2.380690 1_565
O0 Y0 2.380692 1_665
O0 Y0 2.380692 1_555
O1 Sb0 2.257028 1_555
O1 Y1 2.380690 1_656
O1 Y1 2.380692 1_666
O1 Y1 2.380692 1_556
O2 Sb0 2.257028 1_555
O2 Y0 2.380690 1_655
O2 Y0 2.380692 1_665
O2 Y0 2.380692 1_555
O3 Sb1 2.257028 1_555
O3 Y1 2.380690 1_565
O3 Y1 2.380692 1_665
O3 Y1 2.380692 1_555
O4 Sb1 2.179494 1_545
O4 Sb1 2.179497 1_445
O4 Sb1 2.179497 1_555
O5 Sb0 2.179494 1_455
O5 Sb0 2.179497 1_445
O5 Sb0 2.179497 1_555
