# generated using pymatgen
data_VPO4
_symmetry_space_group_name_H-M   'P 1'
_cell_length_a   5.22171287
_cell_length_b   7.79092099
_cell_length_c   6.33946366
_cell_angle_alpha   90.00027813
_cell_angle_beta   90.00008460
_cell_angle_gamma   89.99993480
_symmetry_Int_Tables_number   1
_chemical_formula_structural   VPO4
_chemical_formula_sum   'V4 P4 O16'
_cell_volume   257.90175887
_cell_formula_units_Z   4
loop_
 _symmetry_equiv_pos_site_id
 _symmetry_equiv_pos_as_xyz
  1  'x, y, z'
loop_
 _atom_site_type_symbol
 _atom_site_label
 _atom_site_symmetry_multiplicity
 _atom_site_fract_x
 _atom_site_fract_y
 _atom_site_fract_z
 _atom_site_occupancy
  V  V0  1  0.49999886  0.50000010  0.49999993  1
  V  V1  1  0.00000012  0.00000012  -0.00000007  1
  V  V2  1  -0.00000003  0.00000006  0.49999992  1
  V  V3  1  0.49999915  0.50000022  -0.00000005  1
  P  P0  1  0.50000084  0.85083703  0.75001096  1
  P  P1  1  -0.00000079  0.35089581  0.75000894  1
  P  P2  1  0.50000056  0.14916306  0.24998925  1
  P  P3  1  0.00000004  0.64910434  0.24999103  1
  O  O0  1  0.74432706  0.96595160  0.74998548  1
  O  O1  1  0.24435188  0.46600462  0.74998450  1
  O  O2  1  0.74432776  0.03404867  0.25001449  1
  O  O3  1  0.24435217  0.53399596  0.25001564  1
  O  O4  1  0.25567282  0.03404885  0.25001450  1
  O  O5  1  0.75564712  0.53399607  0.25001545  1
  O  O6  1  0.25567215  0.96595117  0.74998529  1
  O  O7  1  0.75564667  0.46600389  0.74998428  1
  O  O8  1  0.50000076  0.74434921  0.54985662  1
  O  O9  1  0.00000023  0.24441175  0.54984895  1
  O  O10  1  0.50000035  0.25565112  0.45014315  1
  O  O11  1  0.00000022  0.75558852  0.45015110  1
  O  O12  1  0.50000097  0.74437078  0.95013133  1
  O  O13  1  0.00000010  0.24443591  0.95012492  1
  O  O14  1  0.50000048  0.25562979  0.04986837  1
  O  O15  1  0.00000050  0.75556433  0.04987504  1
loop_
_geom_bond_atom_site_label_1
_geom_bond_atom_site_label_2
_geom_bond_distance
_geom_bond_site_symmetry_2
O0 P0 1.559490 1_555
O0 V2 2.089078 1_665
O0 V1 2.089213 1_666
O1 P1 1.559577 1_555
O1 V0 2.088935 1_555
O1 V3 2.089079 1_556
O2 P2 1.559492 1_555
O2 V2 2.089072 1_655
O2 V1 2.089214 1_655
O3 P3 1.559571 1_555
O3 V0 2.088929 1_555
O3 V3 2.089082 1_555
O4 P2 1.559495 1_555
O4 V2 2.089078 1_555
O4 V1 2.089213 1_555
O5 P3 1.559576 1_655
O5 V0 2.088939 1_555
O5 V3 2.089082 1_555
O6 P0 1.559497 1_555
O6 V2 2.089072 1_565
O6 V1 2.089213 1_566
O7 P1 1.559572 1_655
O7 V0 2.088934 1_555
O7 V3 2.089085 1_556
O8 P0 1.516022 1_555
O8 V0 1.929762 1_555
O9 P1 1.516036 1_555
O9 V2 1.930235 1_555
O10 P2 1.516021 1_555
O10 V0 1.929761 1_555
O11 P3 1.516037 1_555
O11 V2 1.930234 1_565
O12 P0 1.515757 1_555
O12 V3 1.929943 1_556
O13 P1 1.515706 1_555
O13 V1 1.930450 1_556
O14 P2 1.515761 1_555
O14 V3 1.929941 1_555
O15 P3 1.515707 1_555
O15 V1 1.930451 1_565
