# generated using pymatgen
data_PtRh
_symmetry_space_group_name_H-M   'P 1'
_cell_length_a   9.49530650
_cell_length_b   9.49530650
_cell_length_c   9.49530604
_cell_angle_alpha   33.55053966
_cell_angle_beta   33.55053966
_cell_angle_gamma   33.55052890
_symmetry_Int_Tables_number   1
_chemical_formula_structural   PtRh
_chemical_formula_sum   'Pt8 Rh8'
_cell_volume   232.91657445
_cell_formula_units_Z   8
loop_
 _symmetry_equiv_pos_site_id
 _symmetry_equiv_pos_as_xyz
  1  'x, y, z'
loop_
 _atom_site_type_symbol
 _atom_site_label
 _atom_site_symmetry_multiplicity
 _atom_site_fract_x
 _atom_site_fract_y
 _atom_site_fract_z
 _atom_site_occupancy
  Pt  Pt0_0  1  0.00000000  0.00000000  0.00000000  1
  Pt  Pt0_1  1  0.00000000  0.00000000  0.50000000  1
  Pt  Pt0_2  1  0.00000000  0.50000000  0.00000000  1
  Pt  Pt0_3  1  0.00000000  0.50000000  0.50000000  1
  Pt  Pt0_4  1  0.50000000  0.00000000  0.00000000  1
  Pt  Pt0_5  1  0.50000000  0.00000000  0.50000000  1
  Pt  Pt0_6  1  0.50000000  0.50000000  0.00000000  1
  Pt  Pt0_7  1  0.50000000  0.50000000  0.50000000  1
  Rh  Rh0_0  1  0.25000000  0.25000000  0.25000000  1
  Rh  Rh0_1  1  0.25000000  0.25000000  0.75000000  1
  Rh  Rh0_2  1  0.25000000  0.75000000  0.25000000  1
  Rh  Rh0_3  1  0.25000000  0.75000000  0.75000000  1
  Rh  Rh0_4  1  0.75000000  0.25000000  0.25000000  1
  Rh  Rh0_5  1  0.75000000  0.25000000  0.75000000  1
  Rh  Rh0_6  1  0.75000000  0.75000000  0.25000000  1
  Rh  Rh0_7  1  0.75000000  0.75000000  0.75000000  1
loop_
_geom_bond_atom_site_label_1
_geom_bond_atom_site_label_2
_geom_bond_distance
_geom_bond_site_symmetry_2
Pt0_0 Pt0_6 2.740521 1_455
Pt0_0 Pt0_6 2.740521 1_545
Pt0_0 Pt0_5 2.740522 1_455
Pt0_0 Pt0_3 2.740522 1_545
Pt0_0 Pt0_3 2.740522 1_554
Pt0_0 Pt0_5 2.740522 1_554
Pt0_0 Rh0_3 2.740924 1_544
Pt0_0 Rh0_5 2.740924 1_454
Pt0_0 Rh0_2 2.740924 1_545
Pt0_0 Rh0_4 2.740924 1_455
Pt0_0 Rh0_6 2.740925 1_445
Pt0_0 Rh0_1 2.740925 1_554
Pt0_1 Pt0_7 2.740521 1_455
Pt0_1 Pt0_7 2.740521 1_545
Pt0_1 Pt0_4 2.740522 1_555
Pt0_1 Pt0_2 2.740522 1_555
Pt0_1 Pt0_4 2.740522 1_456
Pt0_1 Pt0_2 2.740522 1_546
Pt0_1 Rh0_2 2.740924 1_545
Pt0_1 Rh0_4 2.740924 1_455
Pt0_1 Rh0_5 2.740924 1_455
Pt0_1 Rh0_3 2.740924 1_545
Pt0_1 Rh0_7 2.740925 1_445
Pt0_1 Rh0_0 2.740925 1_555
Pt0_2 Pt0_4 2.740521 1_555
Pt0_2 Pt0_4 2.740521 1_465
Pt0_2 Pt0_7 2.740522 1_455
Pt0_2 Pt0_7 2.740522 1_554
Pt0_2 Rh0_7 2.740924 1_454
Pt0_2 Rh0_0 2.740924 1_555
Pt0_2 Rh0_1 2.740924 1_554
Pt0_2 Rh0_6 2.740924 1_455
Pt0_2 Rh0_4 2.740925 1_455
Pt0_2 Rh0_3 2.740925 1_554
Pt0_3 Pt0_5 2.740521 1_465
Pt0_3 Pt0_5 2.740521 1_555
Pt0_3 Pt0_6 2.740522 1_555
Pt0_3 Pt0_6 2.740522 1_456
Pt0_3 Rh0_6 2.740924 1_455
Pt0_3 Rh0_1 2.740924 1_555
Pt0_3 Rh0_0 2.740924 1_555
Pt0_3 Rh0_7 2.740924 1_455
Pt0_3 Rh0_5 2.740925 1_455
Pt0_3 Rh0_2 2.740925 1_555
Pt0_4 Pt0_7 2.740522 1_545
Pt0_4 Pt0_7 2.740522 1_554
Pt0_4 Rh0_7 2.740924 1_544
Pt0_4 Rh0_1 2.740924 1_554
Pt0_4 Rh0_0 2.740924 1_555
Pt0_4 Rh0_6 2.740924 1_545
Pt0_4 Rh0_2 2.740925 1_545
Pt0_4 Rh0_5 2.740925 1_554
Pt0_5 Pt0_6 2.740522 1_555
Pt0_5 Pt0_6 2.740522 1_546
Pt0_5 Rh0_1 2.740924 1_555
Pt0_5 Rh0_6 2.740924 1_545
Pt0_5 Rh0_0 2.740924 1_555
Pt0_5 Rh0_7 2.740924 1_545
Pt0_5 Rh0_3 2.740925 1_545
Pt0_5 Rh0_4 2.740925 1_555
Pt0_6 Rh0_3 2.740924 1_554
Pt0_6 Rh0_5 2.740924 1_554
Pt0_6 Rh0_2 2.740924 1_555
Pt0_6 Rh0_4 2.740924 1_555
Pt0_6 Rh0_0 2.740925 1_555
Pt0_6 Rh0_7 2.740925 1_554
Pt0_7 Rh0_2 2.740924 1_555
Pt0_7 Rh0_4 2.740924 1_555
Pt0_7 Rh0_5 2.740924 1_555
Pt0_7 Rh0_3 2.740924 1_555
Pt0_7 Rh0_6 2.740925 1_555
Pt0_7 Rh0_1 2.740925 1_555
Rh0_0 Rh0_6 2.740521 1_455
Rh0_0 Rh0_6 2.740521 1_545
Rh0_0 Rh0_5 2.740522 1_455
Rh0_0 Rh0_3 2.740522 1_545
Rh0_0 Rh0_3 2.740522 1_554
Rh0_0 Rh0_5 2.740522 1_554
Rh0_1 Rh0_7 2.740521 1_455
Rh0_1 Rh0_7 2.740521 1_545
Rh0_1 Rh0_4 2.740522 1_456
Rh0_1 Rh0_2 2.740522 1_546
Rh0_1 Rh0_2 2.740522 1_555
Rh0_1 Rh0_4 2.740522 1_555
Rh0_2 Rh0_4 2.740521 1_465
Rh0_2 Rh0_4 2.740521 1_555
Rh0_2 Rh0_7 2.740522 1_455
Rh0_2 Rh0_7 2.740522 1_554
Rh0_3 Rh0_5 2.740521 1_465
Rh0_3 Rh0_5 2.740521 1_555
Rh0_3 Rh0_6 2.740522 1_555
Rh0_3 Rh0_6 2.740522 1_456
Rh0_4 Rh0_7 2.740522 1_545
Rh0_4 Rh0_7 2.740522 1_554
Rh0_5 Rh0_6 2.740522 1_555
Rh0_5 Rh0_6 2.740522 1_546
