# generated using pymatgen
data_ZrTi(NiH3)2
_symmetry_space_group_name_H-M   'P 1'
_cell_length_a   5.43466180
_cell_length_b   5.43466180
_cell_length_c   4.27558400
_cell_angle_alpha   90.00000000
_cell_angle_beta   90.00000000
_cell_angle_gamma   143.08040085
_symmetry_Int_Tables_number   1
_chemical_formula_structural   ZrTi(NiH3)2
_chemical_formula_sum   'Zr1 Ti1 Ni2 H6'
_cell_volume   75.85663871
_cell_formula_units_Z   1
loop_
 _symmetry_equiv_pos_site_id
 _symmetry_equiv_pos_as_xyz
  1  'x, y, z'
loop_
 _atom_site_type_symbol
 _atom_site_label
 _atom_site_symmetry_multiplicity
 _atom_site_fract_x
 _atom_site_fract_y
 _atom_site_fract_z
 _atom_site_occupancy
  Zr  Zr0  1  0.14193300  0.85806700  0.00000000  1
  Ti  Ti0  1  0.85868100  0.14131900  0.50000000  1
  Ni  Ni0  1  0.56575300  0.43424700  0.50000000  1
  Ni  Ni1  1  0.42711800  0.57288200  0.00000000  1
  H  H0  1  0.69348200  0.30651800  0.74284500  1
  H  H1  1  0.31621600  0.68378400  0.72621700  1
  H  H2  1  0.69348200  0.30651800  0.25715500  1
  H  H3  1  0.31621600  0.68378400  0.27378300  1
  H  H4  1  0.06012800  0.93987200  0.50000000  1
  H  H5  1  0.92699000  0.07301000  0.00000000  1
loop_
_geom_bond_atom_site_label_1
_geom_bond_atom_site_label_2
_geom_bond_distance
_geom_bond_site_symmetry_2
H0 Ni0 1.676986 1_555
H0 Ti0 1.994744 1_555
H0 Zr0 2.110114 1_656
H0 Zr0 2.110114 1_546
H1 Ni1 1.636349 1_556
H1 Ti0 2.021985 1_565
H1 Ti0 2.021985 1_455
H1 Zr0 2.144527 1_556
H2 Ni0 1.676986 1_555
H2 Ti0 1.994744 1_555
H2 Zr0 2.110114 1_545
H2 Zr0 2.110114 1_655
H3 Ni1 1.636349 1_555
H3 Ti0 2.021985 1_565
H3 Ti0 2.021985 1_455
H3 Zr0 2.144527 1_555
H4 Ni0 1.721804 1_455
H4 Ni0 1.721804 1_565
H4 Ti0 2.076929 1_465
H4 Zr0 2.298152 1_555
H4 Zr0 2.298152 1_556
H5 Ni1 1.720828 1_655
H5 Ni1 1.720828 1_545
H5 Zr0 2.216074 1_645
H5 Ti0 2.250811 1_555
H5 Ti0 2.250811 1_554
