# generated using pymatgen
data_MnSi
_symmetry_space_group_name_H-M   'P 1'
_cell_length_a   4.48424634
_cell_length_b   4.48424377
_cell_length_c   4.48424543
_cell_angle_alpha   90.00022015
_cell_angle_beta   90.00010899
_cell_angle_gamma   89.99992909
_symmetry_Int_Tables_number   1
_chemical_formula_structural   MnSi
_chemical_formula_sum   'Mn4 Si4'
_cell_volume   90.17124167
_cell_formula_units_Z   4
loop_
 _symmetry_equiv_pos_site_id
 _symmetry_equiv_pos_as_xyz
  1  'x, y, z'
loop_
 _atom_site_type_symbol
 _atom_site_label
 _atom_site_symmetry_multiplicity
 _atom_site_fract_x
 _atom_site_fract_y
 _atom_site_fract_z
 _atom_site_occupancy
  Mn  Mn0  1  0.86355757  0.63642872  0.36353905  1
  Mn  Mn1  1  0.63645472  0.36355016  0.86357314  1
  Mn  Mn2  1  0.36355307  0.86356049  0.63645036  1
  Mn  Mn3  1  0.13643254  0.13645949  0.13643957  1
  Si  Si0  1  0.15422775  0.34576684  0.65423152  1
  Si  Si1  1  0.34577064  0.65422611  0.15423001  1
  Si  Si2  1  0.65423468  0.15423672  0.34576399  1
  Si  Si3  1  0.84576903  0.84577246  0.84577435  1
loop_
_geom_bond_atom_site_label_1
_geom_bond_atom_site_label_2
_geom_bond_distance
_geom_bond_site_symmetry_2
Mn0 Si0 2.257655 1_655
Mn0 Si2 2.358565 1_555
Mn0 Si1 2.358632 1_655
Mn0 Si3 2.358778 1_555
Mn0 Si3 2.505655 1_554
Mn0 Si1 2.505686 1_555
Mn0 Si2 2.505794 1_565
Mn1 Si1 2.257632 1_556
Mn1 Si2 2.358547 1_556
Mn1 Si3 2.358678 1_555
Mn1 Si0 2.358742 1_555
Mn1 Si3 2.505656 1_545
Mn1 Si0 2.505684 1_655
Mn1 Si2 2.505781 1_555
Mn2 Si2 2.257710 1_565
Mn2 Si0 2.358627 1_565
Mn2 Si3 2.358666 1_555
Mn2 Si1 2.358699 1_555
Mn2 Si1 2.505701 1_556
Mn2 Si3 2.505702 1_455
Mn2 Si0 2.505741 1_555
Mn3 Si3 2.257628 1_444
Mn3 Si2 2.358594 1_455
Mn3 Si0 2.358609 1_554
Mn3 Si1 2.358763 1_545
Mn3 Si1 2.505651 1_555
Mn3 Si0 2.505702 1_555
Mn3 Si2 2.505772 1_555
