# generated using pymatgen
data_CrAsPd
_symmetry_space_group_name_H-M   'P 1'
_cell_length_a   3.66878800
_cell_length_b   6.69566613
_cell_length_c   6.69566613
_cell_angle_alpha   120.00000127
_cell_angle_beta   90.00000000
_cell_angle_gamma   90.00000000
_symmetry_Int_Tables_number   1
_chemical_formula_structural   CrAsPd
_chemical_formula_sum   'Cr3 As3 Pd3'
_cell_volume   142.44290526
_cell_formula_units_Z   3
loop_
 _symmetry_equiv_pos_site_id
 _symmetry_equiv_pos_as_xyz
  1  'x, y, z'
loop_
 _atom_site_type_symbol
 _atom_site_label
 _atom_site_symmetry_multiplicity
 _atom_site_fract_x
 _atom_site_fract_y
 _atom_site_fract_z
 _atom_site_occupancy
  Cr  Cr0  1  0.00000000  0.39660300  0.39660300  1
  Cr  Cr1  1  0.00000000  0.00000000  0.60339700  1
  Cr  Cr2  1  0.00000000  0.60339700  0.00000000  1
  As  As0  1  0.50000000  0.66666700  0.33333300  1
  As  As1  1  0.50000000  0.33333300  0.66666700  1
  As  As2  1  0.00000000  0.00000000  0.00000000  1
  Pd  Pd0  1  0.50000000  0.73287200  0.73287200  1
  Pd  Pd1  1  0.50000000  0.00000000  0.26712800  1
  Pd  Pd2  1  0.50000000  0.26712800  0.00000000  1
loop_
_geom_bond_atom_site_label_1
_geom_bond_atom_site_label_2
_geom_bond_distance
_geom_bond_site_symmetry_2
Cr0 Pd0 2.904213 1_455
Cr0 Pd0 2.904213 1_555
Cr0 Pd1 2.977620 1_455
Cr0 Pd2 2.977620 1_455
Cr0 Pd1 2.977620 1_555
Cr0 Pd2 2.977620 1_555
Cr1 Pd1 2.904213 1_455
Cr1 Pd1 2.904213 1_555
Cr1 Pd2 2.977620 1_556
Cr1 Pd2 2.977620 1_456
Cr1 Pd0 2.977620 1_545
Cr1 Pd0 2.977620 1_445
Cr2 Pd2 2.904213 1_555
Cr2 Pd2 2.904213 1_455
Cr2 Pd1 2.977620 1_565
Cr2 Pd1 2.977620 1_465
Cr2 Pd0 2.977620 1_554
Cr2 Pd0 2.977620 1_454
As0 Pd1 2.483382 1_565
As0 Pd2 2.483386 1_555
As0 Pd0 2.483388 1_555
As0 Cr2 2.753231 1_555
As0 Cr2 2.753231 1_655
As0 Cr1 2.753233 1_565
As0 Cr1 2.753233 1_665
As0 Cr0 2.753236 1_655
As0 Cr0 2.753236 1_555
As1 Pd2 2.483382 1_556
As1 Pd1 2.483386 1_555
As1 Pd0 2.483388 1_555
As1 Cr1 2.753231 1_555
As1 Cr1 2.753231 1_655
As1 Cr2 2.753233 1_656
As1 Cr2 2.753233 1_556
As1 Cr0 2.753236 1_655
As1 Cr0 2.753236 1_555
As2 Pd0 2.562048 1_444
As2 Pd0 2.562048 1_544
As2 Pd2 2.562048 1_455
As2 Pd1 2.562048 1_555
As2 Pd2 2.562048 1_555
As2 Pd1 2.562048 1_455
As2 Cr0 2.655521 1_555
As2 Cr2 2.655521 1_545
As2 Cr1 2.655521 1_554
