# generated using pymatgen
data_LiFe(GeO3)2
_symmetry_space_group_name_H-M   'P 1'
_cell_length_a   5.52467653
_cell_length_b   6.67271249
_cell_length_c   6.67271310
_cell_angle_alpha   79.67184985
_cell_angle_beta   74.20630015
_cell_angle_gamma   74.20629866
_symmetry_Int_Tables_number   1
_chemical_formula_structural   LiFe(GeO3)2
_chemical_formula_sum   'Li2 Fe2 Ge4 O12'
_cell_volume   226.28928036
_cell_formula_units_Z   2
loop_
 _symmetry_equiv_pos_site_id
 _symmetry_equiv_pos_as_xyz
  1  'x, y, z'
loop_
 _atom_site_type_symbol
 _atom_site_label
 _atom_site_symmetry_multiplicity
 _atom_site_fract_x
 _atom_site_fract_y
 _atom_site_fract_z
 _atom_site_occupancy
  Li  Li0  1  0.75000000  0.72716050  0.27283950  1
  Li  Li1  1  0.25000000  0.27283950  0.72716050  1
  Fe  Fe0  1  0.75000000  0.09572299  0.90427701  1
  Fe  Fe1  1  0.25000000  0.90427701  0.09572299  1
  Ge  Ge0  1  0.75391715  0.62100996  0.80707174  1
  Ge  Ge1  1  0.74608285  0.19292826  0.37899004  1
  Ge  Ge2  1  0.24608285  0.37899004  0.19292826  1
  Ge  Ge3  1  0.25391715  0.80707174  0.62100996  1
  O  O0  1  0.64820093  0.80427511  0.98985507  1
  O  O1  1  0.85179907  0.01014493  0.19572489  1
  O  O2  1  0.35179907  0.19572489  0.01014493  1
  O  O3  1  0.14820093  0.98985507  0.80427511  1
  O  O4  1  0.78035896  0.36545520  0.92164527  1
  O  O5  1  0.71964104  0.07835473  0.63454480  1
  O  O6  1  0.21964104  0.63454480  0.07835473  1
  O  O7  1  0.28035896  0.92164527  0.36545520  1
  O  O8  1  0.58261188  0.67598812  0.60816764  1
  O  O9  1  0.91738812  0.39183236  0.32401188  1
  O  O10  1  0.41738812  0.32401188  0.39183236  1
  O  O11  1  0.08261188  0.60816764  0.67598812  1
loop_
_geom_bond_atom_site_label_1
_geom_bond_atom_site_label_2
_geom_bond_distance
_geom_bond_site_symmetry_2
Li0 O1 2.053974 1_565
Li0 O0 2.053974 1_554
Li0 O9 2.179442 1_555
Li0 O8 2.179442 1_555
Li0 O7 2.525848 1_555
Li0 O6 2.525849 1_655
Li1 O3 2.053974 1_545
Li1 O2 2.053974 1_556
Li1 O11 2.179442 1_555
Li1 O10 2.179442 1_555
Li1 O5 2.525848 1_555
Li1 O4 2.525849 1_455
Fe0 O4 1.879018 1_555
Fe0 O5 1.879018 1_555
Fe0 O3 2.075565 1_645
Fe0 O2 2.075565 1_556
Fe0 O0 2.108740 1_545
Fe0 O1 2.108740 1_556
Fe1 O6 1.879018 1_555
Fe1 O7 1.879018 1_555
Fe1 O1 2.075565 1_465
Fe1 O0 2.075565 1_554
Fe1 O2 2.108740 1_565
Fe1 O3 2.108740 1_554
Ge0 O4 1.723778 1_555
Ge0 O0 1.755668 1_555
Ge0 O8 1.764080 1_555
Ge0 O11 1.774138 1_655
Ge1 O5 1.723778 1_555
Ge1 O1 1.755668 1_555
Ge1 O9 1.764080 1_555
Ge1 O10 1.774138 1_555
Ge2 O6 1.723778 1_555
Ge2 O2 1.755668 1_555
Ge2 O10 1.764080 1_555
Ge2 O9 1.774138 1_455
Ge3 O7 1.723778 1_555
Ge3 O3 1.755668 1_555
Ge3 O11 1.764080 1_555
Ge3 O8 1.774138 1_555
