# generated using pymatgen
data_Mg14BMo
_symmetry_space_group_name_H-M   'P 1'
_cell_length_a   6.17832788
_cell_length_b   6.10007981
_cell_length_c   9.97858008
_cell_angle_alpha   90.00000000
_cell_angle_beta   90.00000000
_cell_angle_gamma   119.58192954
_symmetry_Int_Tables_number   1
_chemical_formula_structural   Mg14BMo
_chemical_formula_sum   'Mg14 B1 Mo1'
_cell_volume   327.05444224
_cell_formula_units_Z   1
loop_
 _symmetry_equiv_pos_site_id
 _symmetry_equiv_pos_as_xyz
  1  'x, y, z'
loop_
 _atom_site_type_symbol
 _atom_site_label
 _atom_site_symmetry_multiplicity
 _atom_site_fract_x
 _atom_site_fract_y
 _atom_site_fract_z
 _atom_site_occupancy
  Mg  Mg0  1  0.16959346  0.33479623  0.62500000  1
  Mg  Mg1  1  0.16802648  0.83401274  0.62500000  1
  Mg  Mg2  1  0.67161547  0.33294579  0.12500000  1
  Mg  Mg3  1  0.66300205  0.33242264  0.62500000  1
  Mg  Mg4  1  0.67161547  0.83866868  0.12500000  1
  Mg  Mg5  1  0.66300205  0.83057841  0.62500000  1
  Mg  Mg6  1  0.32419955  0.15967542  0.35319029  1
  Mg  Mg7  1  0.32419955  0.15967542  0.89680971  1
  Mg  Mg8  1  0.32419955  0.66452513  0.35319029  1
  Mg  Mg9  1  0.32419955  0.66452513  0.89680971  1
  Mg  Mg10  1  0.84261522  0.17130811  0.36997068  1
  Mg  Mg11  1  0.84261522  0.17130811  0.88002932  1
  Mg  Mg12  1  0.84442183  0.67221142  0.36461598  1
  Mg  Mg13  1  0.84442183  0.67221142  0.88538402  1
  B  B0  1  0.16412772  0.83206336  0.12500000  1
  Mo  Mo0  1  0.15814501  0.32907200  0.12500000  1
loop_
_geom_bond_atom_site_label_1
_geom_bond_atom_site_label_2
_geom_bond_distance
_geom_bond_site_symmetry_2
Mg0 Mg1 3.050052 1_545
Mg0 Mg1 3.050052 1_555
Mg0 Mg5 3.055614 1_555
Mg0 Mg3 3.055614 1_555
Mg0 Mg10 3.092359 1_455
Mg0 Mg11 3.092359 1_455
Mg0 Mg5 3.122765 1_445
Mg0 Mg3 3.122765 1_455
Mg0 Mg7 3.227614 1_555
Mg0 Mg6 3.227614 1_555
Mg0 Mg8 3.227620 1_555
Mg0 Mg9 3.227620 1_555
Mg1 Mg3 3.068517 1_565
Mg1 Mg5 3.068518 1_555
Mg1 Mg3 3.109917 1_455
Mg1 Mg5 3.109918 1_455
Mg1 Mg12 3.126360 1_455
Mg1 Mg13 3.126360 1_455
Mg1 Mg8 3.215793 1_555
Mg1 Mg9 3.215793 1_555
Mg1 Mg7 3.215798 1_565
Mg1 Mg6 3.215798 1_565
Mg2 Mo0 3.017675 1_655
Mg2 Mo0 3.160790 1_555
Mg3 Mg5 3.038790 1_555
Mg3 Mg5 3.061290 1_545
Mg3 Mg6 3.266595 1_555
Mg3 Mg7 3.266595 1_555
Mg4 Mo0 3.017674 1_665
Mg4 Mo0 3.160790 1_555
Mg5 Mg9 3.266595 1_555
Mg5 Mg8 3.266595 1_555
Mg6 Mo0 2.889954 1_555
Mg7 Mo0 2.889954 1_556
Mg8 Mo0 2.889961 1_555
Mg9 Mo0 2.889961 1_556
Mg10 Mo0 2.974820 1_655
Mg10 Mg12 3.050523 1_545
Mg10 Mg12 3.050523 1_555
Mg10 Mg3 3.122556 1_555
Mg10 Mg5 3.122562 1_545
Mg11 Mo0 2.974820 1_656
Mg11 Mg13 3.050523 1_545
Mg11 Mg13 3.050523 1_555
Mg11 Mg3 3.122556 1_555
Mg11 Mg5 3.122562 1_545
Mg12 Mg6 2.989823 1_665
Mg12 Mg8 2.989824 1_655
Mg12 Mg4 2.993043 1_555
Mg12 Mg2 2.993050 1_555
Mg12 Mg5 3.163808 1_555
Mg12 Mg3 3.163814 1_555
Mg12 Mg6 3.193254 1_555
Mg12 Mg8 3.193254 1_555
Mg13 Mg7 2.989823 1_665
Mg13 Mg9 2.989824 1_655
Mg13 Mg4 2.993043 1_556
Mg13 Mg2 2.993050 1_556
Mg13 Mg5 3.163808 1_555
Mg13 Mg3 3.163814 1_555
Mg13 Mg7 3.193254 1_555
Mg13 Mg9 3.193254 1_555
B0 Mg8 2.864486 1_555
B0 Mg9 2.864486 1_554
B0 Mg7 2.864492 1_564
B0 Mg6 2.864492 1_565
B0 Mg12 2.944107 1_455
B0 Mg13 2.944107 1_454
B0 Mo0 3.050209 1_565
B0 Mo0 3.050209 1_555
