# generated using pymatgen
data_BaLaCuBO5
_symmetry_space_group_name_H-M   'P 1'
_cell_length_a   5.59760600
_cell_length_b   5.59760600
_cell_length_c   7.68543300
_cell_angle_alpha   90.00000000
_cell_angle_beta   90.00000000
_cell_angle_gamma   90.00000000
_symmetry_Int_Tables_number   1
_chemical_formula_structural   BaLaCuBO5
_chemical_formula_sum   'Ba2 La2 Cu2 B2 O10'
_cell_volume   240.80915495
_cell_formula_units_Z   2
loop_
 _symmetry_equiv_pos_site_id
 _symmetry_equiv_pos_as_xyz
  1  'x, y, z'
loop_
 _atom_site_type_symbol
 _atom_site_label
 _atom_site_symmetry_multiplicity
 _atom_site_fract_x
 _atom_site_fract_y
 _atom_site_fract_z
 _atom_site_occupancy
  Ba  Ba0  1  0.50000000  0.50000000  0.49591400  1
  Ba  Ba1  1  0.00000000  0.00000000  0.49591400  1
  La  La0  1  0.50000000  0.50000000  0.99000700  1
  La  La1  1  0.00000000  0.00000000  0.99000700  1
  Cu  Cu0  1  0.00000000  0.50000000  0.76312400  1
  Cu  Cu1  1  0.50000000  0.00000000  0.76312400  1
  B  B0  1  0.00000000  0.50000000  0.25464100  1
  B  B1  1  0.50000000  0.00000000  0.25464100  1
  O  O0  1  0.84595400  0.34595400  0.16740400  1
  O  O1  1  0.65404600  0.84595400  0.16740400  1
  O  O2  1  0.34595400  0.15404600  0.16740400  1
  O  O3  1  0.15404600  0.65404600  0.16740400  1
  O  O4  1  0.25186400  0.75186400  0.78011700  1
  O  O5  1  0.24813600  0.25186400  0.78011700  1
  O  O6  1  0.75186400  0.74813600  0.78011700  1
  O  O7  1  0.74813600  0.24813600  0.78011700  1
  O  O8  1  0.50000000  0.00000000  0.43627200  1
  O  O9  1  0.00000000  0.50000000  0.43627200  1
loop_
_geom_bond_atom_site_label_1
_geom_bond_atom_site_label_2
_geom_bond_distance
_geom_bond_site_symmetry_2
Ba0 O8 2.836090 1_555
Ba0 O8 2.836090 1_565
Ba0 O9 2.836090 1_555
Ba0 O9 2.836090 1_655
Ba0 O6 2.947490 1_555
Ba0 O7 2.947490 1_555
Ba0 O4 2.947490 1_555
Ba0 O5 2.947490 1_555
Ba0 O0 3.296657 1_555
Ba0 O1 3.296657 1_555
Ba0 O3 3.296657 1_555
Ba0 O2 3.296657 1_555
Ba1 O8 2.836090 1_555
Ba1 O9 2.836090 1_555
Ba1 O9 2.836090 1_545
Ba1 O8 2.836090 1_455
Ba1 O4 2.947490 1_545
Ba1 O5 2.947490 1_555
Ba1 O6 2.947490 1_445
Ba1 O7 2.947490 1_455
Ba1 O0 3.296657 1_455
Ba1 O3 3.296657 1_545
Ba1 O2 3.296657 1_555
Ba1 O1 3.296657 1_445
La0 O3 2.520400 1_556
La0 O0 2.520400 1_556
La0 O1 2.520400 1_556
La0 O2 2.520400 1_556
La0 O6 2.553222 1_555
La0 O7 2.553222 1_555
La0 O5 2.553222 1_555
La0 O4 2.553222 1_555
La1 O1 2.520400 1_446
La1 O3 2.520400 1_546
La1 O0 2.520400 1_456
La1 O2 2.520400 1_556
La1 O5 2.553222 1_555
La1 O4 2.553222 1_545
La1 O7 2.553222 1_455
La1 O6 2.553222 1_445
Cu0 O6 1.968633 1_455
Cu0 O5 1.968633 1_555
Cu0 O4 1.998081 1_555
Cu0 O7 1.998081 1_455
Cu0 O9 2.511999 1_555
Cu1 O7 1.968633 1_555
Cu1 O4 1.968633 1_545
Cu1 O5 1.998081 1_555
Cu1 O6 1.998081 1_545
Cu1 O8 2.511999 1_555
B0 O3 1.391615 1_555
B0 O0 1.391615 1_455
B0 O9 1.395913 1_555
B1 O2 1.391615 1_555
B1 O1 1.391615 1_545
B1 O8 1.395913 1_555
