# generated using pymatgen
data_Ba2LiLaCu3O7
_symmetry_space_group_name_H-M   'P 1'
_cell_length_a   3.98780091
_cell_length_b   3.98768162
_cell_length_c   12.83221925
_cell_angle_alpha   96.49729339
_cell_angle_beta   96.48984953
_cell_angle_gamma   89.61109278
_symmetry_Int_Tables_number   1
_chemical_formula_structural   Ba2LiLaCu3O7
_chemical_formula_sum   'Ba2 Li1 La1 Cu3 O7'
_cell_volume   201.44539632
_cell_formula_units_Z   1
loop_
 _symmetry_equiv_pos_site_id
 _symmetry_equiv_pos_as_xyz
  1  'x, y, z'
loop_
 _atom_site_type_symbol
 _atom_site_label
 _atom_site_symmetry_multiplicity
 _atom_site_fract_x
 _atom_site_fract_y
 _atom_site_fract_z
 _atom_site_occupancy
  Ba  Ba0  1  0.35838600  0.35809800  0.87949500  1
  Ba  Ba1  1  0.46491500  0.46482100  0.17890400  1
  Li  Li0  1  0.76962800  0.76967100  0.70401500  1
  La  La0  1  0.57359500  0.57381800  0.47579000  1
  Cu  Cu0  1  0.13378400  0.13420700  0.60548200  1
  Cu  Cu1  1  0.02857100  0.02832800  0.34980500  1
  Cu  Cu2  1  0.90647900  0.90633100  0.01520100  1
  O  O0  1  0.63042200  0.11925000  0.60206300  1
  O  O1  1  0.11896900  0.63055600  0.60200700  1
  O  O2  1  0.52920300  0.02949700  0.35213400  1
  O  O3  1  0.02937400  0.52950700  0.35211500  1
  O  O4  1  0.91593300  0.41443400  0.03946500  1
  O  O5  1  0.41475600  0.91567500  0.03946300  1
  O  O6  1  0.84265000  0.84247400  0.84872700  1
loop_
_geom_bond_atom_site_label_1
_geom_bond_atom_site_label_2
_geom_bond_distance
_geom_bond_site_symmetry_2
Ba0 O6 2.830484 1_555
Ba0 O6 2.836843 1_545
Ba0 O6 2.837542 1_455
Ba0 O5 2.842099 1_556
Ba0 O4 2.842263 1_556
Ba0 O4 2.843677 1_456
Ba0 O5 2.843721 1_546
Ba0 O6 2.881590 1_445
Ba1 O4 2.659670 1_455
Ba1 O5 2.659947 1_545
Ba1 O5 2.667640 1_555
Ba1 O4 2.667973 1_555
Ba1 O2 2.959565 1_555
Ba1 O3 2.959787 1_555
Ba1 O3 2.969979 1_655
Ba1 O2 2.970472 1_565
Li0 O6 1.836938 1_555
Li0 O1 2.049225 1_655
Li0 O0 2.049648 1_565
La0 O2 2.534338 1_555
La0 O3 2.534362 1_555
La0 O2 2.536877 1_565
La0 O3 2.537245 1_655
La0 O1 2.555750 1_655
La0 O0 2.556107 1_565
La0 O1 2.556663 1_555
La0 O0 2.557118 1_555
Cu0 O1 1.985152 1_555
Cu0 O0 1.986274 1_555
Cu0 O0 2.003969 1_455
Cu0 O1 2.004968 1_545
Cu1 O3 1.992687 1_545
Cu1 O2 1.993293 1_555
Cu1 O2 1.994945 1_455
Cu1 O3 1.995424 1_555
Cu2 O4 2.014764 1_565
Cu2 O5 2.015545 1_655
Cu2 O5 2.019359 1_555
Cu2 O4 2.020030 1_555
Cu2 O6 2.109021 1_554
