# generated using pymatgen
data_Mg14AlBi
_symmetry_space_group_name_H-M   'P 1'
_cell_length_a   6.34066626
_cell_length_b   6.63073931
_cell_length_c   10.36912104
_cell_angle_alpha   90.00000000
_cell_angle_beta   90.00000000
_cell_angle_gamma   121.52523869
_symmetry_Int_Tables_number   1
_chemical_formula_structural   Mg14AlBi
_chemical_formula_sum   'Mg14 Al1 Bi1'
_cell_volume   371.60991135
_cell_formula_units_Z   1
loop_
 _symmetry_equiv_pos_site_id
 _symmetry_equiv_pos_as_xyz
  1  'x, y, z'
loop_
 _atom_site_type_symbol
 _atom_site_label
 _atom_site_symmetry_multiplicity
 _atom_site_fract_x
 _atom_site_fract_y
 _atom_site_fract_z
 _atom_site_occupancy
  Mg  Mg0  1  0.16875418  0.33437659  0.62500000  1
  Mg  Mg1  1  0.16975707  0.83487803  0.62500000  1
  Mg  Mg2  1  0.66896248  0.33406639  0.12500000  1
  Mg  Mg3  1  0.66751071  0.33330600  0.62500000  1
  Mg  Mg4  1  0.66896248  0.83489509  0.12500000  1
  Mg  Mg5  1  0.66751071  0.83420370  0.62500000  1
  Mg  Mg6  1  0.33242004  0.17397881  0.37565921  1
  Mg  Mg7  1  0.33242004  0.17397881  0.87434079  1
  Mg  Mg8  1  0.33242004  0.65844224  0.37565921  1
  Mg  Mg9  1  0.33242004  0.65844224  0.87434079  1
  Mg  Mg10  1  0.83708660  0.16854380  0.37124593  1
  Mg  Mg11  1  0.83708660  0.16854380  0.87875407  1
  Mg  Mg12  1  0.82891839  0.66445969  0.38057702  1
  Mg  Mg13  1  0.82891839  0.66445969  0.86942298  1
  Al  Al0  1  0.16359950  0.33179925  0.12500000  1
  Bi  Bi0  1  0.16325275  0.83162587  0.12500000  1
loop_
_geom_bond_atom_site_label_1
_geom_bond_atom_site_label_2
_geom_bond_distance
_geom_bond_site_symmetry_2
Mg0 Mg5 3.166166 1_555
Mg0 Mg3 3.166166 1_555
Mg0 Mg7 3.169669 1_555
Mg0 Mg6 3.169669 1_555
Mg0 Mg8 3.169676 1_555
Mg0 Mg9 3.169676 1_555
Mg0 Mg5 3.174511 1_445
Mg0 Mg3 3.174512 1_455
Mg0 Mg10 3.183820 1_455
Mg0 Mg11 3.183820 1_455
Mg0 Mg1 3.315374 1_555
Mg0 Mg1 3.315374 1_545
Mg1 Mg12 3.133221 1_455
Mg1 Mg13 3.133221 1_455
Mg1 Mg3 3.158430 1_565
Mg1 Mg5 3.158430 1_555
Mg1 Mg3 3.182241 1_455
Mg1 Mg5 3.182241 1_455
Mg1 Mg8 3.221612 1_555
Mg1 Mg9 3.221612 1_555
Mg1 Mg6 3.221619 1_565
Mg1 Mg7 3.221619 1_565
Mg2 Mg6 3.172848 1_555
Mg2 Mg7 3.172848 1_554
Mg2 Mg4 3.309875 1_545
Mg2 Mg4 3.320865 1_555
Mg3 Mg7 3.157155 1_555
Mg3 Mg6 3.157155 1_555
Mg3 Mg5 3.309417 1_545
Mg3 Mg5 3.321322 1_555
Mg4 Mg8 3.172848 1_555
Mg4 Mg9 3.172848 1_554
Mg5 Mg9 3.157155 1_555
Mg5 Mg8 3.157155 1_555
Mg6 Mg8 3.212351 1_555
Mg6 Mg8 3.418389 1_545
Mg7 Mg9 3.212351 1_555
Mg7 Mg9 3.418389 1_545
Mg10 Mg8 3.122387 1_655
Mg10 Mg6 3.122387 1_655
Mg10 Mg2 3.175550 1_555
Mg10 Mg4 3.175557 1_545
Mg10 Mg8 3.219237 1_545
Mg10 Mg6 3.219237 1_555
Mg10 Mg3 3.240574 1_555
Mg10 Mg5 3.240580 1_545
Mg10 Mg12 3.317075 1_555
Mg10 Mg12 3.317075 1_545
Mg11 Mg9 3.122387 1_655
Mg11 Mg7 3.122387 1_655
Mg11 Mg2 3.175550 1_556
Mg11 Mg4 3.175557 1_546
Mg11 Mg9 3.219237 1_545
Mg11 Mg7 3.219237 1_555
Mg11 Mg3 3.240574 1_555
Mg11 Mg5 3.240580 1_545
Mg11 Mg13 3.317075 1_555
Mg11 Mg13 3.317075 1_545
Mg12 Mg6 3.127868 1_555
Mg12 Mg8 3.127868 1_555
Mg12 Mg5 3.153137 1_555
Mg12 Mg3 3.153144 1_555
Mg12 Mg6 3.213983 1_665
Mg12 Mg8 3.213983 1_655
Mg12 Mg4 3.244613 1_555
Mg12 Mg2 3.244620 1_555
Mg13 Mg7 3.127868 1_555
Mg13 Mg9 3.127868 1_555
Mg13 Mg5 3.153137 1_555
Mg13 Mg3 3.153144 1_555
Mg13 Mg7 3.213983 1_665
Mg13 Mg9 3.213983 1_655
Mg13 Mg4 3.244613 1_556
Mg13 Mg2 3.244620 1_556
Al0 Mg11 3.103863 1_454
Al0 Mg10 3.103863 1_455
Al0 Mg4 3.144214 1_445
Al0 Mg2 3.144215 1_455
Al0 Mg6 3.188690 1_555
Al0 Mg7 3.188690 1_554
Al0 Mg9 3.188697 1_554
Al0 Mg8 3.188697 1_555
Al0 Mg4 3.196503 1_555
Al0 Mg2 3.196503 1_555
Al0 Bi0 3.315370 1_555
Al0 Bi0 3.315370 1_545
Bi0 Mg2 3.145518 1_455
Bi0 Mg4 3.145518 1_455
Bi0 Mg2 3.195255 1_565
Bi0 Mg4 3.195256 1_555
Bi0 Mg13 3.207557 1_454
Bi0 Mg12 3.207557 1_455
Bi0 Mg9 3.242331 1_554
Bi0 Mg8 3.242331 1_555
Bi0 Mg7 3.242338 1_564
Bi0 Mg6 3.242338 1_565
