# generated using pymatgen
data_LiVF4
_symmetry_space_group_name_H-M   'P 1'
_cell_length_a   5.51757691
_cell_length_b   5.51757691
_cell_length_c   10.33150670
_cell_angle_alpha   64.07090866
_cell_angle_beta   64.07090866
_cell_angle_gamma   32.93109324
_symmetry_Int_Tables_number   1
_chemical_formula_structural   LiVF4
_chemical_formula_sum   'Li2 V2 F8'
_cell_volume   152.17900445
_cell_formula_units_Z   2
loop_
 _symmetry_equiv_pos_site_id
 _symmetry_equiv_pos_as_xyz
  1  'x, y, z'
loop_
 _atom_site_type_symbol
 _atom_site_label
 _atom_site_symmetry_multiplicity
 _atom_site_fract_x
 _atom_site_fract_y
 _atom_site_fract_z
 _atom_site_occupancy
  Li  Li0  1  0.75952800  0.24047100  0.75000000  1
  Li  Li1  1  0.24047100  0.75952900  0.25000000  1
  V  V0  1  0.00000000  0.50000000  0.00000000  1
  V  V1  1  0.50000000  0.00000000  0.50000000  1
  F  F0  1  0.51746400  0.00909700  0.86993200  1
  F  F1  1  0.21071300  0.69664100  0.89318400  1
  F  F2  1  0.99090300  0.48253600  0.63006800  1
  F  F3  1  0.69664100  0.21071300  0.39318400  1
  F  F4  1  0.30335900  0.78928700  0.60681600  1
  F  F5  1  0.00909700  0.51746400  0.36993200  1
  F  F6  1  0.78928700  0.30335900  0.10681600  1
  F  F7  1  0.48253600  0.99090300  0.13006800  1
loop_
_geom_bond_atom_site_label_1
_geom_bond_atom_site_label_2
_geom_bond_distance
_geom_bond_site_symmetry_2
F0 V0 2.014530 1_646
F0 V0 2.034745 1_556
F0 Li0 2.231712 1_555
F1 V0 1.922264 1_556
F1 Li0 2.046657 1_465
F1 Li0 2.058536 1_555
F2 V1 2.014530 1_655
F2 V1 2.034745 1_565
F2 Li0 2.231722 1_555
F3 V1 1.922264 1_555
F3 Li1 2.046655 1_645
F3 Li1 2.058537 1_555
F4 V1 1.922264 1_565
F4 Li0 2.046656 1_465
F4 Li0 2.058535 1_555
F5 V1 2.014530 1_465
F5 V1 2.034745 1_555
F5 Li1 2.231717 1_555
F6 V0 1.922264 1_655
F6 Li1 2.046655 1_645
F6 Li1 2.058537 1_555
F7 V0 2.014530 1_565
F7 V0 2.034745 1_655
F7 Li1 2.231717 1_555
