# generated using pymatgen
data_Gd2(MoO4)3
_symmetry_space_group_name_H-M   'P 1'
_cell_length_a   6.94212800
_cell_length_b   6.94212800
_cell_length_c   11.60274535
_cell_angle_alpha   79.52571268
_cell_angle_beta   79.52571268
_cell_angle_gamma   112.73873160
_symmetry_Int_Tables_number   1
_chemical_formula_structural   Gd2(MoO4)3
_chemical_formula_sum   'Gd4 Mo6 O24'
_cell_volume   487.13787828
_cell_formula_units_Z   2
loop_
 _symmetry_equiv_pos_site_id
 _symmetry_equiv_pos_as_xyz
  1  'x, y, z'
loop_
 _atom_site_type_symbol
 _atom_site_label
 _atom_site_symmetry_multiplicity
 _atom_site_fract_x
 _atom_site_fract_y
 _atom_site_fract_z
 _atom_site_occupancy
  Gd  Gd0  1  0.19747800  0.45210400  0.09155100  1
  Gd  Gd1  1  0.54789600  0.80252200  0.40844900  1
  Gd  Gd2  1  0.80252200  0.54789600  0.90844900  1
  Gd  Gd3  1  0.45210400  0.19747800  0.59155100  1
  Mo  Mo0  1  0.62154300  0.37845700  0.25000000  1
  Mo  Mo1  1  0.37845700  0.62154300  0.75000000  1
  Mo  Mo2  1  0.02043800  0.30051000  0.44185800  1
  Mo  Mo3  1  0.69949000  0.97956200  0.05814200  1
  Mo  Mo4  1  0.97956200  0.69949000  0.55814200  1
  Mo  Mo5  1  0.30051000  0.02043800  0.94185800  1
  O  O0  1  0.51197100  0.09144900  0.28137100  1
  O  O1  1  0.90855100  0.48802900  0.21862900  1
  O  O2  1  0.48802900  0.90855100  0.71862900  1
  O  O3  1  0.09144900  0.51197100  0.78137100  1
  O  O4  1  0.55331900  0.46938600  0.11101200  1
  O  O5  1  0.53061400  0.44668100  0.38898800  1
  O  O6  1  0.44668100  0.53061400  0.88898800  1
  O  O7  1  0.46938600  0.55331900  0.61101200  1
  O  O8  1  0.14672500  0.27813400  0.29856700  1
  O  O9  1  0.72186600  0.85327500  0.20143300  1
  O  O10  1  0.85327500  0.72186600  0.70143300  1
  O  O11  1  0.27813400  0.14672500  0.79856700  1
  O  O12  1  0.72540300  0.13280100  0.45900100  1
  O  O13  1  0.86719900  0.27459700  0.04099900  1
  O  O14  1  0.27459700  0.86719900  0.54099900  1
  O  O15  1  0.13280100  0.72540300  0.95900100  1
  O  O16  1  0.40012200  0.82655600  0.08569100  1
  O  O17  1  0.17344400  0.59987800  0.41430900  1
  O  O18  1  0.59987800  0.17344400  0.91430900  1
  O  O19  1  0.82655600  0.40012200  0.58569100  1
  O  O20  1  0.88525700  0.82056300  0.44790100  1
  O  O21  1  0.17943700  0.11474300  0.05209900  1
  O  O22  1  0.11474300  0.17943700  0.55209900  1
  O  O23  1  0.82056300  0.88525700  0.94790100  1
loop_
_geom_bond_atom_site_label_1
_geom_bond_atom_site_label_2
_geom_bond_distance
_geom_bond_site_symmetry_2
Gd0 O8 2.379229 1_555
Gd0 O13 2.384786 1_455
Gd0 O1 2.388398 1_455
Gd0 O16 2.411425 1_555
Gd0 O21 2.427773 1_555
Gd0 O15 2.452596 1_554
Gd0 O6 2.478062 1_554
Gd0 O4 2.480177 1_555
Gd1 O9 2.379229 1_555
Gd1 O12 2.384786 1_565
Gd1 O0 2.388398 1_565
Gd1 O17 2.411425 1_555
Gd1 O20 2.427773 1_555
Gd1 O14 2.452596 1_555
Gd1 O7 2.478062 1_555
Gd1 O5 2.480177 1_555
Gd2 O10 2.379229 1_555
Gd2 O15 2.384786 1_655
Gd2 O3 2.388398 1_655
Gd2 O18 2.411425 1_555
Gd2 O23 2.427773 1_555
Gd2 O13 2.452596 1_556
Gd2 O4 2.478062 1_556
Gd2 O6 2.480177 1_555
Gd3 O11 2.379229 1_555
Gd3 O14 2.384786 1_545
Gd3 O2 2.388398 1_545
Gd3 O19 2.411425 1_555
Gd3 O22 2.427773 1_555
Gd3 O12 2.452596 1_555
Gd3 O5 2.478062 1_555
Gd3 O7 2.480177 1_555
Mo0 O0 1.773401 1_555
Mo0 O1 1.773401 1_555
Mo0 O5 1.833602 1_555
Mo0 O4 1.833602 1_555
Mo1 O3 1.773401 1_555
Mo1 O2 1.773401 1_555
Mo1 O6 1.833602 1_555
Mo1 O7 1.833602 1_555
Mo2 O22 1.763549 1_555
Mo2 O8 1.796132 1_555
Mo2 O17 1.864951 1_555
Mo2 O12 1.874648 1_455
Mo2 O19 2.323211 1_455
Mo3 O23 1.763549 1_554
Mo3 O9 1.796132 1_555
Mo3 O16 1.864951 1_555
Mo3 O13 1.874648 1_565
Mo3 O18 2.323211 1_564
Mo4 O20 1.763549 1_555
Mo4 O10 1.796132 1_555
Mo4 O19 1.864951 1_555
Mo4 O14 1.874648 1_655
Mo4 O17 2.323211 1_655
Mo5 O21 1.763549 1_556
Mo5 O11 1.796132 1_555
Mo5 O18 1.864951 1_555
Mo5 O15 1.874648 1_545
Mo5 O16 2.323211 1_546
