# generated using pymatgen
data_Pr3Se3N
_symmetry_space_group_name_H-M   'P 1'
_cell_length_a   4.16893905
_cell_length_b   12.92747934
_cell_length_c   13.62519608
_cell_angle_alpha   90.00000000
_cell_angle_beta   90.00000000
_cell_angle_gamma   90.00000000
_symmetry_Int_Tables_number   1
_chemical_formula_structural   Pr3Se3N
_chemical_formula_sum   'Pr12 Se12 N4'
_cell_volume   734.31459311
_cell_formula_units_Z   4
loop_
 _symmetry_equiv_pos_site_id
 _symmetry_equiv_pos_as_xyz
  1  'x, y, z'
loop_
 _atom_site_type_symbol
 _atom_site_label
 _atom_site_symmetry_multiplicity
 _atom_site_fract_x
 _atom_site_fract_y
 _atom_site_fract_z
 _atom_site_occupancy
  Pr  Pr0  1  0.25000000  0.71208935  0.86400829  1
  Pr  Pr1  1  0.75000000  0.28791065  0.13599171  1
  Pr  Pr2  1  0.75000000  0.78791065  0.36400829  1
  Pr  Pr3  1  0.25000000  0.21208935  0.63599171  1
  Pr  Pr4  1  0.25000000  0.57375532  0.63129265  1
  Pr  Pr5  1  0.75000000  0.42624468  0.36870735  1
  Pr  Pr6  1  0.75000000  0.92624468  0.13129265  1
  Pr  Pr7  1  0.25000000  0.07375532  0.86870735  1
  Pr  Pr8  1  0.25000000  0.53966304  0.15251927  1
  Pr  Pr9  1  0.75000000  0.46033696  0.84748073  1
  Pr  Pr10  1  0.75000000  0.96033696  0.65251927  1
  Pr  Pr11  1  0.25000000  0.03966304  0.34748073  1
  Se  Se0  1  0.25000000  0.77269424  0.19282137  1
  Se  Se1  1  0.75000000  0.22730576  0.80717863  1
  Se  Se2  1  0.75000000  0.72730576  0.69282137  1
  Se  Se3  1  0.25000000  0.27269424  0.30717863  1
  Se  Se4  1  0.25000000  0.08962616  0.10784751  1
  Se  Se5  1  0.75000000  0.91037384  0.89215249  1
  Se  Se6  1  0.75000000  0.41037384  0.60784751  1
  Se  Se7  1  0.25000000  0.58962616  0.39215249  1
  Se  Se8  1  0.25000000  0.86706372  0.49761159  1
  Se  Se9  1  0.75000000  0.13293628  0.50238841  1
  Se  Se10  1  0.75000000  0.63293628  -0.00238841  1
  Se  Se11  1  0.25000000  0.36706372  0.00238841  1
  N  N0  1  0.25000000  0.54389284  0.79708134  1
  N  N1  1  0.75000000  0.45610716  0.20291866  1
  N  N2  1  0.75000000  0.95610716  0.29708134  1
  N  N3  1  0.25000000  0.04389284  0.70291866  1
loop_
_geom_bond_atom_site_label_1
_geom_bond_atom_site_label_2
_geom_bond_distance
_geom_bond_site_symmetry_2
Pr0 Se10 2.950560 1_456
Pr0 Se10 2.950560 1_556
Pr0 Se2 3.134335 1_455
Pr0 Se2 3.134335 1_555
Pr0 Se5 3.326058 1_555
Pr0 Se5 3.326058 1_455
Pr1 Se11 2.950560 1_655
Pr1 Se11 2.950560 1_555
Pr1 Se3 3.134335 1_555
Pr1 Se3 3.134335 1_655
Pr1 Se4 3.326058 1_555
Pr1 Se4 3.326058 1_655
Pr2 Se8 2.950560 1_555
Pr2 Se8 2.950560 1_655
Pr2 Se0 3.134335 1_555
Pr2 Se0 3.134335 1_655
Pr2 Se7 3.326058 1_655
Pr2 Se7 3.326058 1_555
Pr3 Se9 2.950560 1_455
Pr3 Se9 2.950560 1_555
Pr3 Se1 3.134335 1_455
Pr3 Se1 3.134335 1_555
Pr3 Se6 3.326058 1_555
Pr3 Se6 3.326058 1_455
Pr4 Se6 2.984639 1_555
Pr4 Se6 2.984639 1_455
Pr4 Se2 2.998022 1_555
Pr4 Se2 2.998022 1_455
Pr4 Se7 3.264785 1_555
Pr5 Se7 2.984639 1_555
Pr5 Se7 2.984639 1_655
Pr5 Se3 2.998022 1_555
Pr5 Se3 2.998022 1_655
Pr5 Se6 3.264785 1_555
Pr6 Se4 2.984639 1_565
Pr6 Se4 2.984639 1_665
Pr6 Se0 2.998022 1_655
Pr6 Se0 2.998022 1_555
Pr6 Se5 3.264785 1_554
Pr7 Se5 2.984639 1_545
Pr7 Se5 2.984639 1_445
Pr7 Se1 2.998022 1_455
Pr7 Se1 2.998022 1_555
Pr7 Se4 3.264785 1_556
Pr8 Se11 3.027030 1_555
Pr8 Se0 3.062145 1_555
Pr8 Se10 3.202151 1_455
Pr8 Se10 3.202151 1_555
Pr8 Se7 3.328323 1_555
Pr9 Se10 3.027030 1_556
Pr9 Se1 3.062145 1_555
Pr9 Se11 3.202151 1_556
Pr9 Se11 3.202151 1_656
Pr9 Se6 3.328323 1_555
Pr10 Se9 3.027030 1_565
Pr10 Se2 3.062145 1_555
Pr10 Se8 3.202151 1_655
Pr10 Se8 3.202151 1_555
Pr10 Se5 3.328323 1_555
Pr11 Se8 3.027030 1_545
Pr11 Se3 3.062145 1_555
Pr11 Se9 3.202151 1_555
Pr11 Se9 3.202151 1_455
Pr11 Se4 3.328323 1_555
N0 Pr4 2.291654 1_555
N0 Pr0 2.357833 1_555
N0 Pr9 2.446085 1_455
N0 Pr9 2.446085 1_555
N1 Pr5 2.291654 1_555
N1 Pr1 2.357833 1_555
N1 Pr8 2.446085 1_555
N1 Pr8 2.446085 1_655
N2 Pr6 2.291654 1_555
N2 Pr2 2.357833 1_555
N2 Pr11 2.446085 1_665
N2 Pr11 2.446085 1_565
N3 Pr7 2.291654 1_555
N3 Pr3 2.357833 1_555
N3 Pr10 2.446085 1_445
N3 Pr10 2.446085 1_545
