# generated using pymatgen
data_Sm3Mg2CrS8
_symmetry_space_group_name_H-M   'P 1'
_cell_length_a   7.90161709
_cell_length_b   7.78996261
_cell_length_c   7.90173700
_cell_angle_alpha   59.52409565
_cell_angle_beta   59.99803303
_cell_angle_gamma   59.52432560
_symmetry_Int_Tables_number   1
_chemical_formula_structural   Sm3Mg2CrS8
_chemical_formula_sum   'Sm3 Mg2 Cr1 S8'
_cell_volume   341.42206647
_cell_formula_units_Z   1
loop_
 _symmetry_equiv_pos_site_id
 _symmetry_equiv_pos_as_xyz
  1  'x, y, z'
loop_
 _atom_site_type_symbol
 _atom_site_label
 _atom_site_symmetry_multiplicity
 _atom_site_fract_x
 _atom_site_fract_y
 _atom_site_fract_z
 _atom_site_occupancy
  Sm  Sm0  1  0.49999400  0.50003700  0.49995100  1
  Sm  Sm1  1  0.49997600  0.49998400  0.00000600  1
  Sm  Sm2  1  0.00000600  0.49999300  0.49997500  1
  Mg  Mg0  1  0.87463200  0.87606300  0.87465500  1
  Mg  Mg1  1  0.12533500  0.12400700  0.12533000  1
  Cr  Cr0  1  0.50013500  0.99984000  0.50012400  1
  S  S0  1  0.72840500  0.77527700  0.72842300  1
  S  S1  1  0.27158700  0.22473400  0.73208400  1
  S  S2  1  0.25304800  0.74084400  0.25303300  1
  S  S3  1  0.73207700  0.22472800  0.27158100  1
  S  S4  1  0.74690200  0.25921600  0.74690600  1
  S  S5  1  0.26789300  0.77528000  0.72841300  1
  S  S6  1  0.27160600  0.22469700  0.27161400  1
  S  S7  1  0.72840800  0.77529300  0.26790600  1
loop_
_geom_bond_atom_site_label_1
_geom_bond_atom_site_label_2
_geom_bond_distance
_geom_bond_site_symmetry_2
Mg0 S4 2.419375 1_565
Mg0 S0 2.542070 1_555
Mg0 S7 2.542075 1_556
Mg0 S5 2.542098 1_655
Mg1 S2 2.419438 1_545
Mg1 S1 2.542069 1_554
Mg1 S3 2.542117 1_455
Mg1 S6 2.542131 1_555
Cr0 S0 2.533815 1_555
Cr0 S7 2.534878 1_555
Cr0 S5 2.535056 1_555
Cr0 S3 2.535134 1_565
Cr0 S1 2.535297 1_565
Cr0 S6 2.536408 1_565
S0 Sm1 2.801177 1_556
S0 Sm2 2.801260 1_655
S1 Sm2 2.801084 1_555
S1 Sm0 2.801121 1_555
S2 Sm0 2.741358 1_555
S2 Sm1 2.741416 1_555
S2 Sm2 2.741421 1_555
S3 Sm0 2.801003 1_555
S3 Sm1 2.801012 1_555
S4 Sm1 2.741335 1_556
S4 Sm0 2.741348 1_555
S4 Sm2 2.741375 1_655
S5 Sm1 2.801034 1_556
S5 Sm0 2.801117 1_555
S6 Sm1 2.800853 1_555
S6 Sm2 2.800879 1_555
S7 Sm0 2.800921 1_555
S7 Sm2 2.800987 1_655
