# generated using pymatgen
data_Yb2Cu3Te4(ClO3)4
_symmetry_space_group_name_H-M   'P 1'
_cell_length_a   5.56939800
_cell_length_b   8.12196699
_cell_length_c   9.72528121
_cell_angle_alpha   99.99621359
_cell_angle_beta   88.06406829
_cell_angle_gamma   104.88019594
_symmetry_Int_Tables_number   1
_chemical_formula_structural   Yb2Cu3Te4(ClO3)4
_chemical_formula_sum   'Yb2 Cu3 Te4 Cl4 O12'
_cell_volume   418.68395396
_cell_formula_units_Z   1
loop_
 _symmetry_equiv_pos_site_id
 _symmetry_equiv_pos_as_xyz
  1  'x, y, z'
loop_
 _atom_site_type_symbol
 _atom_site_label
 _atom_site_symmetry_multiplicity
 _atom_site_fract_x
 _atom_site_fract_y
 _atom_site_fract_z
 _atom_site_occupancy
  Yb  Yb0  1  0.68950000  0.82951900  0.99014000  1
  Yb  Yb1  1  0.31050000  0.17048100  0.00986000  1
  Cu  Cu0  1  0.60364100  0.59637600  0.30104600  1
  Cu  Cu1  1  0.39635900  0.40362400  0.69895400  1
  Cu  Cu2  1  0.00000000  0.50000000  0.00000000  1
  Te  Te0  1  0.82801300  0.16328700  0.76469400  1
  Te  Te1  1  0.17198700  0.83671300  0.23530600  1
  Te  Te2  1  0.19814200  0.75726900  0.75592200  1
  Te  Te3  1  0.80185800  0.24273100  0.24407800  1
  Cl  Cl0  1  0.25326000  0.54533800  0.41870600  1
  Cl  Cl1  1  0.74674000  0.45466200  0.58129400  1
  Cl  Cl2  1  0.72144500  0.85622900  0.42524200  1
  Cl  Cl3  1  0.27855500  0.14377100  0.57475800  1
  O  O0  1  0.57390800  0.05097200  0.14151200  1
  O  O1  1  0.42609200  0.94902800  0.85848800  1
  O  O2  1  0.86815000  0.64530200  0.17896100  1
  O  O3  1  0.13185000  0.35469800  0.82103900  1
  O  O4  1  0.94742000  0.01969400  0.86273900  1
  O  O5  1  0.05258000  0.98030600  0.13726100  1
  O  O6  1  0.32485700  0.69475100  0.10150400  1
  O  O7  1  0.67514300  0.30524900  0.89849600  1
  O  O8  1  0.97030000  0.67466800  0.89463000  1
  O  O9  1  0.02970000  0.32533200  0.10537000  1
  O  O10  1  0.44679800  0.63598700  0.78059200  1
  O  O11  1  0.55320200  0.36401300  0.21940800  1
loop_
_geom_bond_atom_site_label_1
_geom_bond_atom_site_label_2
_geom_bond_distance
_geom_bond_site_symmetry_2
Cu0 O2 1.866217 1_555
Cu0 O11 1.869107 1_555
Cu1 O3 1.866217 1_555
Cu1 O10 1.869107 1_555
Cu2 O8 1.930469 1_454
Cu2 O9 1.930469 1_555
Cu2 O2 2.146341 1_455
Cu2 O3 2.146341 1_554
Cu2 O7 2.204229 1_454
Cu2 O6 2.204229 1_555
Cl0 Cu0 2.210782 1_555
Cl1 Cu1 2.210782 1_555
Cl2 Cu0 2.191119 1_555
Cl3 Cu1 2.191119 1_555
O0 Te3 1.887618 1_555
O0 Yb0 2.329839 1_544
O0 Yb1 2.454245 1_555
O1 Te2 1.887618 1_555
O1 Yb1 2.329839 1_566
O1 Yb0 2.454245 1_555
O2 Te1 1.999106 1_655
O2 Yb0 2.905618 1_554
O3 Te0 1.999106 1_455
O3 Yb1 2.905618 1_556
O4 Te0 1.881184 1_555
O4 Yb0 2.321409 1_545
O4 Yb1 2.439528 1_656
O5 Te1 1.881184 1_555
O5 Yb1 2.321409 1_565
O5 Yb0 2.439528 1_454
O6 Te1 1.912077 1_555
O6 Yb0 2.369954 1_554
O7 Te0 1.912077 1_555
O7 Yb1 2.369954 1_556
O8 Te2 1.908227 1_655
O8 Yb0 2.323101 1_555
O9 Te3 1.908227 1_455
O9 Yb1 2.323101 1_555
O10 Te2 1.936713 1_555
O10 Yb0 2.536481 1_555
O11 Te3 1.936713 1_555
O11 Yb1 2.536481 1_555
