# generated using pymatgen
data_Ba4Eu2Cu6O13
_symmetry_space_group_name_H-M   'P 1'
_cell_length_a   12.70034975
_cell_length_b   12.67794195
_cell_length_c   5.54239969
_cell_angle_alpha   77.61158689
_cell_angle_beta   77.15947768
_cell_angle_gamma   25.22893543
_symmetry_Int_Tables_number   1
_chemical_formula_structural   Ba4Eu2Cu6O13
_chemical_formula_sum   'Ba4 Eu2 Cu6 O13'
_cell_volume   370.66759706
_cell_formula_units_Z   1
loop_
 _symmetry_equiv_pos_site_id
 _symmetry_equiv_pos_as_xyz
  1  'x, y, z'
loop_
 _atom_site_type_symbol
 _atom_site_label
 _atom_site_symmetry_multiplicity
 _atom_site_fract_x
 _atom_site_fract_y
 _atom_site_fract_z
 _atom_site_occupancy
  Ba  Ba0  1  0.83815100  0.35220300  0.16184900  1
  Ba  Ba1  1  0.35220300  0.83815100  0.64779700  1
  Ba  Ba2  1  0.16184900  0.64779700  0.83815100  1
  Ba  Ba3  1  0.64779700  0.16184900  0.35220300  1
  Eu  Eu0  1  0.50000000  0.00000000  0.50000000  1
  Eu  Eu1  1  0.00000000  0.50000000  0.00000000  1
  Cu  Cu0  1  0.92945900  0.42725600  0.57274400  1
  Cu  Cu1  1  0.42725600  0.92945900  0.07054100  1
  Cu  Cu2  1  0.07054100  0.57274400  0.42725600  1
  Cu  Cu3  1  0.57274400  0.07054100  0.92945900  1
  Cu  Cu4  1  0.26123700  0.73876300  0.26123700  1
  Cu  Cu5  1  0.73876300  0.26123700  0.73876300  1
  O  O0  1  0.84619600  0.30369000  0.69631000  1
  O  O1  1  0.30369000  0.84619600  0.15380400  1
  O  O2  1  0.15380400  0.69631000  0.30369000  1
  O  O3  1  0.69631000  0.15380400  0.84619600  1
  O  O4  1  0.18666600  0.18666600  0.31333400  1
  O  O5  1  0.68666600  0.68666600  0.81333400  1
  O  O6  1  0.31333400  0.31333400  0.18666600  1
  O  O7  1  0.81333400  0.81333400  0.68666600  1
  O  O8  1  0.68484400  0.68484400  0.31515600  1
  O  O9  1  0.18677300  0.18677300  0.81322700  1
  O  O10  1  0.81322700  0.81322700  0.18677300  1
  O  O11  1  0.31515600  0.31515600  0.68484400  1
  O  O12  1  0.50000000  0.50000000  0.50000000  1
loop_
_geom_bond_atom_site_label_1
_geom_bond_atom_site_label_2
_geom_bond_distance
_geom_bond_site_symmetry_2
Ba0 O0 2.737921 1_554
Ba0 O1 2.737921 1_645
Ba0 O8 2.871274 1_555
Ba0 O1 2.898695 1_555
Ba0 O0 2.898695 1_555
Ba0 O5 2.964881 1_554
Ba0 O4 2.964881 1_655
Ba0 O12 2.972812 1_555
Ba0 O9 2.978522 1_654
Ba1 O0 2.737921 1_465
Ba1 O1 2.737921 1_556
Ba1 O8 2.871274 1_555
Ba1 O0 2.898695 1_555
Ba1 O1 2.898695 1_555
Ba1 O4 2.964881 1_565
Ba1 O5 2.964881 1_555
Ba1 O12 2.972812 1_555
Ba1 O9 2.978522 1_565
Ba2 O2 2.737921 1_556
Ba2 O3 2.737921 1_465
Ba2 O11 2.871274 1_555
Ba2 O2 2.898695 1_555
Ba2 O3 2.898695 1_555
Ba2 O6 2.964881 1_556
Ba2 O7 2.964881 1_455
Ba2 O12 2.972812 1_555
Ba2 O10 2.978522 1_456
Ba3 O2 2.737921 1_645
Ba3 O3 2.737921 1_554
Ba3 O11 2.871274 1_555
Ba3 O2 2.898695 1_555
Ba3 O3 2.898695 1_555
Ba3 O6 2.964881 1_555
Ba3 O7 2.964881 1_545
Ba3 O12 2.972812 1_555
Ba3 O10 2.978522 1_545
Eu0 O10 2.469375 1_545
Eu0 O9 2.469375 1_555
Eu0 O11 2.498419 1_555
Eu0 O8 2.498419 1_545
Eu0 O5 2.499574 1_545
Eu0 O4 2.499574 1_555
Eu0 O6 2.499574 1_555
Eu0 O7 2.499574 1_545
Eu1 O9 2.469375 1_554
Eu1 O10 2.469375 1_455
Eu1 O8 2.498419 1_455
Eu1 O11 2.498419 1_554
Eu1 O7 2.499574 1_454
Eu1 O4 2.499574 1_555
Eu1 O6 2.499574 1_555
Eu1 O5 2.499574 1_454
Cu0 O5 1.951662 1_555
Cu0 O4 1.951662 1_655
Cu0 O9 1.979326 1_655
Cu0 O8 1.992463 1_555
Cu0 O0 2.501258 1_555
Cu1 O4 1.951662 1_565
Cu1 O5 1.951662 1_554
Cu1 O9 1.979326 1_564
Cu1 O8 1.992463 1_555
Cu1 O1 2.501258 1_555
Cu2 O7 1.951662 1_455
Cu2 O6 1.951662 1_555
Cu2 O10 1.979326 1_455
Cu2 O11 1.992463 1_555
Cu2 O2 2.501258 1_555
Cu3 O6 1.951662 1_556
Cu3 O7 1.951662 1_545
Cu3 O10 1.979326 1_546
Cu3 O11 1.992463 1_555
Cu3 O3 2.501258 1_555
Cu4 O2 1.827107 1_555
Cu4 O1 1.827107 1_555
Cu4 O12 1.888700 1_555
Cu5 O3 1.827107 1_555
Cu5 O0 1.827107 1_555
Cu5 O12 1.888700 1_555
