# generated using pymatgen
data_V2O5
_symmetry_space_group_name_H-M   'P 1'
_cell_length_a   12.76265139
_cell_length_b   12.32630861
_cell_length_c   12.55459333
_cell_angle_alpha   90.27951083
_cell_angle_beta   87.03599351
_cell_angle_gamma   88.44678885
_symmetry_Int_Tables_number   1
_chemical_formula_structural   V2O5
_chemical_formula_sum   'V30 O75'
_cell_volume   1971.63728232
_cell_formula_units_Z   15
loop_
 _symmetry_equiv_pos_site_id
 _symmetry_equiv_pos_as_xyz
  1  'x, y, z'
loop_
 _atom_site_type_symbol
 _atom_site_label
 _atom_site_symmetry_multiplicity
 _atom_site_fract_x
 _atom_site_fract_y
 _atom_site_fract_z
 _atom_site_occupancy
  V  V0  1  0.97276829  0.95137003  0.22664462  1
  V  V1  1  0.05444889  0.81056672  0.69995934  1
  V  V2  1  0.20095479  0.08536372  0.21079835  1
  V  V3  1  0.82675094  0.19345449  0.27518429  1
  V  V4  1  0.90814638  0.02634166  0.77176801  1
  V  V5  1  0.89356567  0.83628639  0.00089781  1
  V  V6  1  0.04922972  0.58996214  0.02172775  1
  V  V7  1  0.48411905  0.69746809  0.17349671  1
  V  V8  1  0.73287038  0.28035377  0.52488595  1
  V  V9  1  0.31979349  0.52086715  0.04881931  1
  V  V10  1  0.47078498  0.98598900  0.56253041  1
  V  V11  1  0.37939784  0.93592579  0.32225395  1
  V  V12  1  0.34944379  0.91143025  0.91917949  1
  V  V13  1  0.41220017  0.16172002  0.86640451  1
  V  V14  1  0.05334857  0.52506453  0.72549071  1
  V  V15  1  0.96207168  0.27460445  0.68697825  1
  V  V16  1  0.96915623  0.67379609  0.30830473  1
  V  V17  1  0.21885926  0.26789335  0.98807202  1
  V  V18  1  0.47292947  0.66648608  0.43844637  1
  V  V19  1  0.68030644  0.17654606  0.76233273  1
  V  V20  1  0.20594697  0.39390411  0.63473310  1
  V  V21  1  0.28166620  0.78909334  0.59199556  1
  V  V22  1  0.57811003  0.42980920  0.47465614  1
  V  V23  1  0.86971961  0.46213839  0.18552278  1
  V  V24  1  0.66468333  0.44699569  0.80697898  1
  V  V25  1  0.19177973  0.30494287  0.37813452  1
  V  V26  1  0.67502924  0.83662059  0.50415095  1
  V  V27  1  0.54051513  0.85511715  0.97314962  1
  V  V28  1  0.70028451  0.53246931  0.07130407  1
  V  V29  1  0.43054849  0.36720432  0.24571409  1
  O  O0  1  0.09032321  0.38544978  0.37218214  1
  O  O1  1  0.20242355  0.15566853  0.09198540  1
  O  O2  1  0.95083787  0.45039317  0.69791314  1
  O  O3  1  0.93557711  0.94383653  0.09830048  1
  O  O4  1  0.71008896  0.41667426  0.44194911  1
  O  O5  1  0.69706827  0.50288832  0.69190966  1
  O  O6  1  0.26444428  0.38265304  0.05045947  1
  O  O7  1  0.02131298  0.67032869  0.71614145  1
  O  O8  1  0.74513825  0.73930923  0.55581122  1
  O  O9  1  0.16187616  0.16822445  0.31702953  1
  O  O10  1  0.78103372  0.79747855  0.04985430  1
  O  O11  1  0.23788221  0.88073381  0.97632392  1
  O  O12  1  0.70161200  0.52308155  0.93329551  1
  O  O13  1  0.41762364  0.46264134  0.14211499  1
  O  O14  1  0.35652587  0.03320035  0.83809570  1
  O  O15  1  0.54508131  0.17058564  0.80375270  1
  O  O16  1  0.34492146  0.70404300  0.48379620  1
  O  O17  1  0.63429394  0.92041420  0.91461491  1
  O  O18  1  0.58434056  0.58833554  0.13550857  1
  O  O19  1  0.43551889  0.94749041  0.02150569  1
  O  O20  1  0.98001345  0.47530122  0.10083976  1
  O  O21  1  0.10044168  0.29768150  0.96106750  1
  O  O22  1  0.27586790  0.89953264  0.39175201  1
  O  O23  1  0.55566649  0.77212594  0.44207130  1
  O  O24  1  0.37418007  0.52924050  0.93211749  1
  O  O25  1  0.11225655  0.97574521  0.21544755  1
  O  O26  1  0.32883195  0.42077545  0.64296696  1
  O  O27  1  0.88319590  0.32083551  0.24214786  1
  O  O28  1  0.74545777  0.90059625  0.41255001  1
  O  O29  1  0.15141840  0.43071962  0.77068442  1
  O  O30  1  0.76346186  0.07849162  0.80980970  1
  O  O31  1  0.99067800  0.72119050  0.01372493  1
  O  O32  1  0.44649285  0.80511750  0.88130871  1
  O  O33  1  0.13301491  0.51266847  0.59695591  1
  O  O34  1  0.05731153  0.64520033  0.21005619  1
  O  O35  1  0.46238553  0.99334554  0.41597706  1
  O  O36  1  0.32932593  0.03822812  0.22852487  1
  O  O37  1  0.73907462  0.41136763  0.13353108  1
  O  O38  1  0.52534875  0.56219934  0.51783236  1
  O  O39  1  0.84599973  0.31187832  0.57671262  1
  O  O40  1  0.81016584  0.59378327  0.11246686  1
  O  O41  1  0.69665639  0.17345813  0.62033661  1
  O  O42  1  0.88241380  0.54604111  0.29451233  1
  O  O43  1  0.95640656  0.27955050  0.81547528  1
  O  O44  1  0.87369533  0.89672290  0.88340523  1
  O  O45  1  0.37964512  0.66466631  0.10546583  1
  O  O46  1  0.91597430  0.07333790  0.28232641  1
  O  O47  1  0.29794188  0.34993185  0.29097443  1
  O  O48  1  0.94981211  0.90788410  0.68757873  1
  O  O49  1  0.18545873  0.58549653  0.04002990  1
  O  O50  1  0.47198082  0.62291194  0.30734766  1
  O  O51  1  0.23679044  0.30506003  0.50378741  1
  O  O52  1  0.43405585  0.82173001  0.25097862  1
  O  O53  1  0.58048304  0.32601720  0.56305805  1
  O  O54  1  0.94571361  0.83163258  0.28941494  1
  O  O55  1  0.29613801  0.24955720  0.86156120  1
  O  O56  1  0.92288202  0.12966477  0.67101123  1
  O  O57  1  0.02547969  0.66198500  0.42003256  1
  O  O58  1  0.75559999  0.20489414  0.40545355  1
  O  O59  1  0.47725399  0.25401054  0.19636722  1
  O  O60  1  0.14694594  0.82901850  0.58450570  1
  O  O61  1  0.45147958  0.10598148  0.61373499  1
  O  O62  1  0.53818212  0.43090688  0.81406542  1
  O  O63  1  0.28688337  0.71464289  0.69679003  1
  O  O64  1  0.42890449  0.16281742  0.99264160  1
  O  O65  1  0.09065115  0.27761667  0.64068665  1
  O  O66  1  0.99565443  0.06130121  0.85174917  1
  O  O67  1  0.74307664  0.16584962  0.18891260  1
  O  O68  1  0.36561104  0.90073773  0.61157558  1
  O  O69  1  0.50855914  0.39767981  0.36234717  1
  O  O70  1  0.59366758  0.93302557  0.59650034  1
  O  O71  1  0.56837027  0.78362909  0.09315771  1
  O  O72  1  0.03415782  0.54628094  0.89788961  1
  O  O73  1  0.72263216  0.30122820  0.80073058  1
  O  O74  1  0.11457340  0.84604868  0.80388029  1
loop_
_geom_bond_atom_site_label_1
_geom_bond_atom_site_label_2
_geom_bond_distance
_geom_bond_site_symmetry_2
O0 V25 1.614952 1_555
O1 V2 1.728283 1_555
O1 V17 1.914304 1_554
O2 V14 1.669651 1_655
O2 V15 2.170889 1_555
O3 V0 1.705949 1_555
O3 V5 1.905477 1_555
O4 V22 1.716121 1_555
O4 V8 2.003525 1_555
O5 V24 1.641917 1_555
O6 V17 1.741802 1_554
O6 V9 1.861719 1_555
O7 V1 1.800669 1_555
O7 V14 1.831506 1_555
O8 V26 1.633852 1_555
O9 V2 1.720747 1_555
O9 V25 1.904394 1_555
O10 V5 1.618056 1_555
O11 V12 1.615967 1_555
O12 V28 1.735115 1_556
O12 V24 1.924418 1_555
O13 V29 1.769002 1_555
O13 V9 1.885954 1_555
O14 V13 1.795117 1_555
O14 V12 1.819372 1_545
O15 V19 1.780095 1_555
O15 V13 1.838394 1_555
O16 V18 1.751499 1_555
O16 V21 1.850096 1_555
O17 V27 1.608536 1_555
O18 V28 1.769066 1_555
O18 V7 1.873627 1_555
O19 V12 1.794877 1_554
O19 V27 1.813039 1_554
O20 V23 1.731296 1_555
O20 V6 1.937792 1_655
O21 V17 1.599368 1_555
O22 V11 1.620225 1_555
O23 V18 1.700474 1_555
O23 V26 1.934563 1_555
O24 V9 1.593513 1_556
O25 V2 1.785346 1_565
O25 V0 1.811855 1_455
O26 V20 1.620084 1_555
O27 V3 1.786921 1_555
O27 V23 1.891328 1_555
O28 V26 1.640946 1_555
O29 V14 1.800522 1_555
O29 V20 1.859017 1_555
O30 V19 1.716202 1_555
O30 V4 1.972952 1_555
O31 V6 1.768853 1_655
O31 V5 1.871457 1_555
O32 V12 1.822768 1_555
O32 V27 1.823593 1_555
O33 V20 1.792478 1_555
O33 V14 1.865653 1_555
O34 V16 1.655980 1_455
O35 V11 1.780068 1_555
O35 V10 1.851084 1_555
O36 V2 1.748907 1_555
O36 V11 1.852508 1_545
O37 V28 1.759259 1_555
O37 V23 1.939842 1_555
O38 V18 1.768664 1_555
O38 V22 1.817787 1_555
O39 V8 1.668564 1_555
O39 V15 2.122118 1_555
O40 V28 1.712751 1_555
O40 V23 2.017876 1_555
O41 V19 1.784225 1_555
O41 V8 1.837643 1_555
O42 V23 1.728103 1_555
O42 V16 1.961396 1_555
O43 V15 1.611890 1_555
O44 V5 1.683531 1_556
O44 V4 2.169472 1_565
O45 V7 1.677634 1_555
O45 V9 2.085268 1_555
O46 V0 1.775557 1_545
O46 V3 1.848609 1_555
O47 V29 1.775874 1_555
O47 V25 1.798342 1_555
O48 V1 1.784086 1_655
O48 V4 1.848429 1_565
O49 V6 1.764924 1_555
O49 V9 1.879520 1_555
O50 V18 1.729560 1_555
O50 V7 1.920500 1_555
O51 V25 1.706551 1_555
O51 V20 1.987214 1_555
O52 V11 1.771622 1_555
O52 V7 1.889101 1_555
O53 V22 1.698443 1_555
O53 V8 2.042209 1_555
O54 V0 1.711559 1_555
O54 V16 1.977668 1_555
O55 V13 1.814691 1_555
O55 V17 1.835461 1_555
O56 V4 1.805999 1_555
O56 V15 1.880825 1_555
O57 V16 1.614335 1_455
O58 V8 1.767588 1_555
O58 V3 1.832073 1_555
O59 V29 1.610645 1_555
O60 V21 1.782871 1_555
O60 V1 1.840412 1_555
O61 V10 1.617463 1_545
O62 V24 1.629877 1_555
O63 V21 1.610923 1_555
O64 V13 1.610059 1_555
O65 V15 1.713754 1_455
O65 V20 2.080739 1_555
O66 V4 1.605969 1_555
O67 V3 1.601575 1_555
O68 V21 1.790509 1_555
O68 V10 1.811755 1_555
O69 V22 1.753825 1_555
O69 V29 1.855310 1_555
O70 V10 1.756150 1_555
O70 V26 1.905188 1_555
O71 V27 1.795616 1_554
O71 V7 1.806009 1_555
O72 V6 1.665080 1_556
O72 V14 2.179262 1_555
O73 V19 1.717811 1_555
O73 V24 1.924090 1_555
O74 V1 1.611978 1_555
