# generated using pymatgen
data_Zn6B6Ir11
_symmetry_space_group_name_H-M   'P 1'
_cell_length_a   2.88637900
_cell_length_b   8.64754200
_cell_length_c   11.54015000
_cell_angle_alpha   90.00000000
_cell_angle_beta   90.00000000
_cell_angle_gamma   90.00000000
_symmetry_Int_Tables_number   1
_chemical_formula_structural   Zn6B6Ir11
_chemical_formula_sum   'Zn6 B6 Ir11'
_cell_volume   288.04310911
_cell_formula_units_Z   1
loop_
 _symmetry_equiv_pos_site_id
 _symmetry_equiv_pos_as_xyz
  1  'x, y, z'
loop_
 _atom_site_type_symbol
 _atom_site_label
 _atom_site_symmetry_multiplicity
 _atom_site_fract_x
 _atom_site_fract_y
 _atom_site_fract_z
 _atom_site_occupancy
  Zn  Zn0  1  0.50000000  0.00000000  0.50000000  1
  Zn  Zn1  1  0.50000000  0.50000000  0.00000000  1
  Zn  Zn2  1  0.50000000  0.64805600  0.50000000  1
  Zn  Zn3  1  0.50000000  0.35194400  0.50000000  1
  Zn  Zn4  1  0.50000000  0.00000000  0.20578200  1
  Zn  Zn5  1  0.50000000  0.00000000  0.79421800  1
  B  B0  1  0.50000000  0.80540000  0.00000000  1
  B  B1  1  0.50000000  0.19460000  0.00000000  1
  B  B2  1  0.50000000  0.68371100  0.26878200  1
  B  B3  1  0.50000000  0.31628900  0.26878200  1
  B  B4  1  0.50000000  0.31628900  0.73121800  1
  B  B5  1  0.50000000  0.68371100  0.73121800  1
  Ir  Ir0  1  0.00000000  0.00000000  0.00000000  1
  Ir  Ir1  1  0.00000000  0.50000000  0.31788900  1
  Ir  Ir2  1  0.00000000  0.50000000  0.68211100  1
  Ir  Ir3  1  0.00000000  0.71080800  0.12307800  1
  Ir  Ir4  1  0.00000000  0.28919200  0.12307800  1
  Ir  Ir5  1  0.00000000  0.28919200  0.87692200  1
  Ir  Ir6  1  0.00000000  0.71080800  0.87692200  1
  Ir  Ir7  1  0.00000000  0.82600900  0.35480700  1
  Ir  Ir8  1  0.00000000  0.17399100  0.35480700  1
  Ir  Ir9  1  0.00000000  0.17399100  0.64519300  1
  Ir  Ir10  1  0.00000000  0.82600900  0.64519300  1
loop_
_geom_bond_atom_site_label_1
_geom_bond_atom_site_label_2
_geom_bond_distance
_geom_bond_site_symmetry_2
Zn2 Zn3 2.560641 1_555
B0 Ir3 2.183864 1_655
B0 Ir3 2.183864 1_555
B0 Ir6 2.183864 1_554
B0 Ir6 2.183864 1_654
B0 Ir0 2.216901 1_665
B0 Ir0 2.216901 1_565
B0 Zn1 2.640959 1_555
B1 Ir4 2.183864 1_655
B1 Ir4 2.183864 1_555
B1 Ir5 2.183864 1_554
B1 Ir5 2.183864 1_654
B1 Ir0 2.216901 1_555
B1 Ir0 2.216901 1_655
B1 Zn1 2.640959 1_555
B2 Ir7 2.140685 1_655
B2 Ir7 2.140685 1_555
B2 Ir1 2.219854 1_555
B2 Ir1 2.219854 1_655
B2 Ir3 2.228220 1_555
B2 Ir3 2.228220 1_655
B2 Zn2 2.686045 1_555
B3 Ir8 2.140685 1_555
B3 Ir8 2.140685 1_655
B3 Ir1 2.219854 1_655
B3 Ir1 2.219854 1_555
B3 Ir4 2.228220 1_655
B3 Ir4 2.228220 1_555
B3 Zn3 2.686045 1_555
B4 Ir9 2.140685 1_555
B4 Ir9 2.140685 1_655
B4 Ir2 2.219854 1_655
B4 Ir2 2.219854 1_555
B4 Ir5 2.228220 1_655
B4 Ir5 2.228220 1_555
B4 Zn3 2.686045 1_555
B5 Ir10 2.140685 1_655
B5 Ir10 2.140685 1_555
B5 Ir2 2.219854 1_655
B5 Ir2 2.219854 1_555
B5 Ir6 2.228220 1_655
B5 Ir6 2.228220 1_555
B5 Zn2 2.686045 1_555
Ir0 Zn4 2.778895 1_455
Ir0 Zn5 2.778895 1_454
Ir0 Zn5 2.778895 1_554
Ir0 Zn4 2.778895 1_555
Ir1 Zn2 2.852839 1_555
Ir1 Zn2 2.852839 1_455
Ir1 Zn3 2.852839 1_455
Ir1 Zn3 2.852839 1_555
Ir2 Zn2 2.852839 1_555
Ir2 Zn2 2.852839 1_455
Ir2 Zn3 2.852839 1_455
Ir2 Zn3 2.852839 1_555
Ir3 Zn1 2.724588 1_455
Ir3 Zn1 2.724588 1_555
Ir4 Zn1 2.724588 1_455
Ir4 Zn1 2.724588 1_555
Ir5 Zn1 2.724588 1_456
Ir5 Zn1 2.724588 1_556
Ir6 Zn1 2.724588 1_456
Ir6 Zn1 2.724588 1_556
Ir7 Zn0 2.674708 1_465
Ir7 Zn0 2.674708 1_565
Ir7 Zn2 2.694130 1_555
Ir7 Zn2 2.694130 1_455
Ir7 Zn4 2.702631 1_465
Ir7 Zn4 2.702631 1_565
Ir8 Zn0 2.674708 1_455
Ir8 Zn0 2.674708 1_555
Ir8 Zn3 2.694130 1_455
Ir8 Zn3 2.694130 1_555
Ir8 Zn4 2.702631 1_555
Ir8 Zn4 2.702631 1_455
Ir9 Zn0 2.674708 1_455
Ir9 Zn0 2.674708 1_555
Ir9 Zn3 2.694130 1_455
Ir9 Zn3 2.694130 1_555
Ir9 Zn5 2.702631 1_555
Ir9 Zn5 2.702631 1_455
Ir10 Zn0 2.674708 1_465
Ir10 Zn0 2.674708 1_565
Ir10 Zn2 2.694130 1_555
Ir10 Zn2 2.694130 1_455
Ir10 Zn5 2.702631 1_565
Ir10 Zn5 2.702631 1_465
