# generated using pymatgen
data_Li(NiO2)3
_symmetry_space_group_name_H-M   'P 1'
_cell_length_a   4.96334608
_cell_length_b   6.53059443
_cell_length_c   6.53058658
_cell_angle_alpha   79.77852737
_cell_angle_beta   96.87607172
_cell_angle_gamma   96.87599643
_symmetry_Int_Tables_number   1
_chemical_formula_structural   Li(NiO2)3
_chemical_formula_sum   'Li2 Ni6 O12'
_cell_volume   205.76876064
_cell_formula_units_Z   2
loop_
 _symmetry_equiv_pos_site_id
 _symmetry_equiv_pos_as_xyz
  1  'x, y, z'
loop_
 _atom_site_type_symbol
 _atom_site_label
 _atom_site_symmetry_multiplicity
 _atom_site_fract_x
 _atom_site_fract_y
 _atom_site_fract_z
 _atom_site_occupancy
  Li  Li0  1  0.25000200  0.08333400  0.41667300  1
  Li  Li1  1  0.74999900  0.58332900  0.91666700  1
  Ni  Ni0  1  0.49999700  0.83332900  0.16666900  1
  Ni  Ni1  1  0.00000000  0.66669900  0.33330100  1
  Ni  Ni2  1  0.00000100  0.99997000  0.00003100  1
  Ni  Ni3  1  0.99999700  0.33334200  0.66665600  1
  Ni  Ni4  1  0.50000000  0.16669800  0.83330300  1
  Ni  Ni5  1  0.50000000  0.49996600  0.50003400  1
  O  O0  1  0.39927400  0.43744800  0.77078700  1
  O  O1  1  0.89927100  0.93745400  0.27078500  1
  O  O2  1  0.10073000  0.72921500  0.06254600  1
  O  O3  1  0.60072500  0.22921300  0.56255200  1
  O  O4  1  0.85675900  0.59608600  0.59814100  1
  O  O5  1  0.35675700  0.09607400  0.09815000  1
  O  O6  1  0.35675700  0.76481400  0.42941500  1
  O  O7  1  0.85676100  0.26480900  0.92941100  1
  O  O8  1  0.14324000  0.07059000  0.73519100  1
  O  O9  1  0.64324400  0.57058400  0.23518600  1
  O  O10  1  0.64324500  0.90185100  0.90392500  1
  O  O11  1  0.14324100  0.40185900  0.40391300  1
loop_
_geom_bond_atom_site_label_1
_geom_bond_atom_site_label_2
_geom_bond_distance
_geom_bond_site_symmetry_2
Li0 O3 2.091259 1_555
Li0 O1 2.091316 1_445
Li0 O8 2.192373 1_555
Li0 O6 2.192377 1_545
Li0 O5 2.192396 1_555
Li0 O11 2.192400 1_555
Li1 O0 2.091274 1_555
Li1 O2 2.091307 1_656
Li1 O9 2.192366 1_556
Li1 O7 2.192387 1_555
Li1 O10 2.192388 1_555
Li1 O4 2.192406 1_555
Ni0 O5 1.895613 1_565
Ni0 O6 1.895617 1_555
Ni0 O10 1.895625 1_554
Ni0 O9 1.895629 1_555
Ni0 O2 2.090602 1_555
Ni0 O1 2.090640 1_555
Ni1 O1 1.857343 1_455
Ni1 O2 1.857344 1_555
Ni1 O9 1.882787 1_455
Ni1 O6 1.882789 1_555
Ni1 O4 1.908495 1_455
Ni1 O11 1.908496 1_555
Ni2 O1 1.857338 1_455
Ni2 O2 1.857343 1_555
Ni2 O5 1.882774 1_565
Ni2 O10 1.882778 1_454
Ni2 O7 1.908489 1_464
Ni2 O8 1.908492 1_564
Ni3 O4 1.895602 1_555
Ni3 O11 1.895609 1_655
Ni3 O8 1.895665 1_655
Ni3 O7 1.895665 1_555
Ni3 O3 2.090617 1_555
Ni3 O0 2.090646 1_655
Ni4 O0 1.857307 1_555
Ni4 O3 1.857310 1_555
Ni4 O8 1.882786 1_555
Ni4 O7 1.882788 1_555
Ni4 O5 1.908544 1_556
Ni4 O10 1.908548 1_545
Ni5 O3 1.857324 1_555
Ni5 O0 1.857325 1_555
Ni5 O4 1.882794 1_555
Ni5 O11 1.882796 1_555
Ni5 O6 1.908549 1_555
Ni5 O9 1.908550 1_555
