# generated using pymatgen
data_YbGa2Ag
_symmetry_space_group_name_H-M   'P 1'
_cell_length_a   4.26266006
_cell_length_b   6.85139224
_cell_length_c   10.07643487
_cell_angle_alpha   90.00000000
_cell_angle_beta   90.00000000
_cell_angle_gamma   90.00000000
_symmetry_Int_Tables_number   1
_chemical_formula_structural   YbGa2Ag
_chemical_formula_sum   'Yb4 Ga8 Ag4'
_cell_volume   294.28385329
_cell_formula_units_Z   4
loop_
 _symmetry_equiv_pos_site_id
 _symmetry_equiv_pos_as_xyz
  1  'x, y, z'
loop_
 _atom_site_type_symbol
 _atom_site_label
 _atom_site_symmetry_multiplicity
 _atom_site_fract_x
 _atom_site_fract_y
 _atom_site_fract_z
 _atom_site_occupancy
  Yb  Yb0  1  0.25000000  0.77651090  0.82366073  1
  Yb  Yb1  1  0.75000000  0.22348910  0.17633927  1
  Yb  Yb2  1  0.75000000  0.72348910  0.32366073  1
  Yb  Yb3  1  0.25000000  0.27651090  0.67633927  1
  Ga  Ga0  1  0.25000000  0.70018694  0.53484973  1
  Ga  Ga1  1  0.75000000  0.29981306  0.46515027  1
  Ga  Ga2  1  0.75000000  0.79981306  0.03484973  1
  Ga  Ga3  1  0.25000000  0.20018694  0.96515027  1
  Ga  Ga4  1  0.25000000  0.93150936  0.15568930  1
  Ga  Ga5  1  0.75000000  0.06849064  0.84431070  1
  Ga  Ga6  1  0.75000000  0.56849064  0.65568930  1
  Ga  Ga7  1  0.25000000  0.43150936  0.34431070  1
  Ag  Ag0  1  0.25000000  0.54803500  0.09510956  1
  Ag  Ag1  1  0.75000000  0.45196500  0.90489044  1
  Ag  Ag2  1  0.75000000  0.95196500  0.59510956  1
  Ag  Ag3  1  0.25000000  0.04803500  0.40489044  1
loop_
_geom_bond_atom_site_label_1
_geom_bond_atom_site_label_2
_geom_bond_distance
_geom_bond_site_symmetry_2
Yb0 Yb3 3.733505 1_565
Yb0 Yb3 3.733505 1_555
Yb1 Yb2 3.733505 1_545
Yb1 Yb2 3.733505 1_555
Ga0 Ga6 2.615214 1_455
Ga0 Ga6 2.615214 1_555
Ga0 Ga7 2.659854 1_555
Ga0 Yb0 2.956794 1_555
Ga0 Yb2 3.016053 1_555
Ga0 Yb2 3.016053 1_455
Ga0 Yb3 3.233996 1_555
Ga1 Ga7 2.615214 1_555
Ga1 Ga7 2.615214 1_655
Ga1 Ga6 2.659854 1_555
Ga1 Yb1 2.956794 1_555
Ga1 Yb3 3.016053 1_555
Ga1 Yb3 3.016053 1_655
Ga1 Yb2 3.233996 1_555
Ga2 Ga4 2.615214 1_655
Ga2 Ga4 2.615214 1_555
Ga2 Ga5 2.659854 1_564
Ga2 Yb2 2.956794 1_555
Ga2 Yb0 3.016053 1_654
Ga2 Yb0 3.016053 1_554
Ga2 Yb1 3.233996 1_565
Ga3 Ga5 2.615214 1_555
Ga3 Ga5 2.615214 1_455
Ga3 Ga4 2.659854 1_546
Ga3 Yb3 2.956794 1_555
Ga3 Yb1 3.016053 1_456
Ga3 Yb1 3.016053 1_556
Ga3 Yb0 3.233996 1_545
Ga4 Yb1 2.930484 1_465
Ga4 Yb1 2.930484 1_565
Ga4 Yb2 3.072227 1_555
Ga4 Yb2 3.072227 1_455
Ga4 Yb0 3.510159 1_554
Ga5 Yb0 2.930484 1_645
Ga5 Yb0 2.930484 1_545
Ga5 Yb3 3.072227 1_555
Ga5 Yb3 3.072227 1_655
Ga5 Yb1 3.510159 1_556
Ga6 Yb3 2.930484 1_655
Ga6 Yb3 2.930484 1_555
Ga6 Yb0 3.072227 1_655
Ga6 Yb0 3.072227 1_555
Ga6 Yb2 3.510159 1_555
Ga7 Yb2 2.930484 1_455
Ga7 Yb2 2.930484 1_555
Ga7 Yb1 3.072227 1_455
Ga7 Yb1 3.072227 1_555
Ga7 Yb3 3.510159 1_555
Ag0 Ga7 2.634920 1_555
Ag0 Ga4 2.697314 1_555
Ag0 Ga3 2.719321 1_554
Ag0 Ga2 2.808379 1_555
Ag0 Ga2 2.808379 1_455
Ag0 Ag1 2.941032 1_554
Ag0 Ag1 2.941032 1_454
Ag0 Yb0 3.151496 1_554
Ag0 Yb1 3.186986 1_555
Ag0 Yb1 3.186986 1_455
Ag0 Yb2 3.360260 1_455
Ag0 Yb2 3.360260 1_555
Ag1 Ga6 2.634920 1_555
Ag1 Ga5 2.697314 1_555
Ag1 Ga2 2.719321 1_556
Ag1 Ga3 2.808379 1_655
Ag1 Ga3 2.808379 1_555
Ag1 Yb1 3.151496 1_556
Ag1 Yb0 3.186986 1_655
Ag1 Yb0 3.186986 1_555
Ag1 Yb3 3.360260 1_555
Ag1 Yb3 3.360260 1_655
Ag2 Ga5 2.634920 1_565
Ag2 Ga6 2.697314 1_555
Ag2 Ga1 2.719321 1_565
Ag2 Ga0 2.808379 1_655
Ag2 Ga0 2.808379 1_555
Ag2 Ag3 2.941032 1_565
Ag2 Ag3 2.941032 1_665
Ag2 Yb2 3.151496 1_555
Ag2 Yb3 3.186986 1_565
Ag2 Yb3 3.186986 1_665
Ag2 Yb0 3.360260 1_555
Ag2 Yb0 3.360260 1_655
Ag3 Ga4 2.634920 1_545
Ag3 Ga7 2.697314 1_555
Ag3 Ga0 2.719321 1_545
Ag3 Ga1 2.808379 1_455
Ag3 Ga1 2.808379 1_555
Ag3 Yb3 3.151496 1_555
Ag3 Yb2 3.186986 1_445
Ag3 Yb2 3.186986 1_545
Ag3 Yb1 3.360260 1_455
Ag3 Yb1 3.360260 1_555
