# generated using pymatgen
data_Ba3Ti3N5
_symmetry_space_group_name_H-M   'P 1'
_cell_length_a   6.15636892
_cell_length_b   7.77753183
_cell_length_c   9.17171229
_cell_angle_alpha   108.17310697
_cell_angle_beta   101.31175389
_cell_angle_gamma   96.87202766
_symmetry_Int_Tables_number   1
_chemical_formula_structural   Ba3Ti3N5
_chemical_formula_sum   'Ba6 Ti6 N10'
_cell_volume   401.36253484
_cell_formula_units_Z   2
loop_
 _symmetry_equiv_pos_site_id
 _symmetry_equiv_pos_as_xyz
  1  'x, y, z'
loop_
 _atom_site_type_symbol
 _atom_site_label
 _atom_site_symmetry_multiplicity
 _atom_site_fract_x
 _atom_site_fract_y
 _atom_site_fract_z
 _atom_site_occupancy
  Ba  Ba0  1  0.83211800  0.44244300  0.62178200  1
  Ba  Ba1  1  0.16788200  0.55755700  0.37821800  1
  Ba  Ba2  1  0.64599000  0.85553700  0.87648900  1
  Ba  Ba3  1  0.35401000  0.14446300  0.12351100  1
  Ba  Ba4  1  0.64987800  0.66052400  0.22086900  1
  Ba  Ba5  1  0.35012200  0.33947600  0.77913100  1
  Ti  Ti0  1  0.91099700  0.31309500  0.96857300  1
  Ti  Ti1  1  0.08900300  0.68690500  0.03142700  1
  Ti  Ti2  1  0.70190800  0.98166100  0.58383600  1
  Ti  Ti3  1  0.29809200  0.01833900  0.41616400  1
  Ti  Ti4  1  0.11152300  0.89726000  0.70664000  1
  Ti  Ti5  1  0.88847700  0.10274000  0.29336000  1
  N  N0  1  0.95519300  0.11591900  0.78182500  1
  N  N1  1  0.04480700  0.88408100  0.21817500  1
  N  N2  1  0.83156300  0.76106700  0.54680900  1
  N  N3  1  0.16843700  0.23893300  0.45319100  1
  N  N4  1  0.79382500  0.52575000  0.93216700  1
  N  N5  1  0.20617500  0.47425000  0.06783300  1
  N  N6  1  0.38403200  0.94326800  0.61500600  1
  N  N7  1  0.61596800  0.05673200  0.38499400  1
  N  N8  1  0.16842600  0.78577000  0.86968500  1
  N  N9  1  0.83157400  0.21423000  0.13031500  1
loop_
_geom_bond_atom_site_label_1
_geom_bond_atom_site_label_2
_geom_bond_distance
_geom_bond_site_symmetry_2
Ba0 N2 2.770903 1_555
Ba0 N4 2.780056 1_555
Ba0 N7 3.055100 1_555
Ba0 N8 3.103170 1_655
Ba0 N3 3.113960 1_655
Ba1 N3 2.770903 1_555
Ba1 N5 2.780056 1_555
Ba1 N6 3.055100 1_555
Ba1 N9 3.103170 1_455
Ba1 N2 3.113960 1_455
Ba2 N8 2.909882 1_555
Ba2 N6 2.929984 1_555
Ba2 N9 2.941150 1_566
Ba2 N4 2.976795 1_555
Ba2 N0 3.049782 1_565
Ba3 N9 2.909882 1_555
Ba3 N7 2.929984 1_555
Ba3 N8 2.941150 1_544
Ba3 N5 2.976795 1_555
Ba3 N1 3.049782 1_545
Ba4 N5 2.794829 1_555
Ba4 N2 2.796432 1_555
Ba4 N1 2.823801 1_655
Ba4 N4 2.882171 1_554
Ba4 N7 3.031344 1_565
Ba5 N4 2.794829 1_555
Ba5 N3 2.796432 1_555
Ba5 N0 2.823801 1_455
Ba5 N5 2.882171 1_556
Ba5 N6 3.031344 1_545
N0 Ti0 2.000922 1_555
N0 Ti2 2.033733 1_545
N0 Ti4 2.052907 1_645
N1 Ti1 2.000922 1_555
N1 Ti3 2.033733 1_565
N1 Ti5 2.052907 1_465
N2 Ti2 1.940779 1_555
N2 Ti4 1.960837 1_655
N3 Ti3 1.940779 1_555
N3 Ti5 1.960837 1_455
N4 Ti1 1.948398 1_656
N4 Ti0 1.975559 1_555
N5 Ti0 1.948398 1_454
N5 Ti1 1.975559 1_555
N6 Ti2 2.033095 1_555
N6 Ti4 2.060584 1_555
N6 Ti3 2.075185 1_565
N7 Ti3 2.033095 1_555
N7 Ti5 2.060584 1_555
N7 Ti2 2.075185 1_545
N8 Ti4 1.945988 1_555
N8 Ti1 1.984200 1_556
N9 Ti5 1.945988 1_555
N9 Ti0 1.984200 1_554
