# generated using pymatgen
data_TbVO4
_symmetry_space_group_name_H-M   'P 1'
_cell_length_a   5.96464819
_cell_length_b   5.96464888
_cell_length_c   5.96464866
_cell_angle_alpha   106.23003550
_cell_angle_beta   106.23004383
_cell_angle_gamma   116.16841339
_symmetry_Int_Tables_number   1
_chemical_formula_structural   TbVO4
_chemical_formula_sum   'Tb2 V2 O8'
_cell_volume   161.66218137
_cell_formula_units_Z   2
loop_
 _symmetry_equiv_pos_site_id
 _symmetry_equiv_pos_as_xyz
  1  'x, y, z'
loop_
 _atom_site_type_symbol
 _atom_site_label
 _atom_site_symmetry_multiplicity
 _atom_site_fract_x
 _atom_site_fract_y
 _atom_site_fract_z
 _atom_site_occupancy
  Tb  Tb0  1  0.12500000  0.87500000  0.25000000  1
  Tb  Tb1  1  0.87500000  0.12500000  0.75000000  1
  V  V0  1  0.37500000  0.62500000  0.75000000  1
  V  V1  1  0.62500000  0.37500000  0.25000000  1
  O  O0  1  0.79932857  0.73334680  0.43401822  1
  O  O1  1  0.36531135  0.79932857  0.56598178  1
  O  O2  1  0.73334680  0.79932857  0.93401822  1
  O  O3  1  0.79932857  0.36531135  0.06598178  1
  O  O4  1  0.63468865  0.20067143  0.43401822  1
  O  O5  1  0.20067143  0.26665320  0.56598178  1
  O  O6  1  0.20067143  0.63468865  0.93401822  1
  O  O7  1  0.26665320  0.20067143  0.06598178  1
loop_
_geom_bond_atom_site_label_1
_geom_bond_atom_site_label_2
_geom_bond_distance
_geom_bond_site_symmetry_2
O0 V1 1.716041 1_555
O0 Tb1 2.312244 1_565
O0 Tb0 2.440200 1_655
O1 V0 1.716040 1_555
O1 Tb0 2.312247 1_555
O1 Tb1 2.440195 1_565
O2 V0 1.716040 1_555
O2 Tb0 2.312243 1_656
O2 Tb1 2.440200 1_565
O3 V1 1.716040 1_555
O3 Tb1 2.312247 1_554
O3 Tb0 2.440195 1_655
O4 V1 1.716040 1_555
O4 Tb1 2.312247 1_555
O4 Tb0 2.440195 1_545
O5 V0 1.716041 1_555
O5 Tb0 2.312244 1_545
O5 Tb1 2.440200 1_455
O6 V0 1.716040 1_555
O6 Tb0 2.312247 1_556
O6 Tb1 2.440195 1_455
O7 V1 1.716040 1_555
O7 Tb1 2.312243 1_454
O7 Tb0 2.440200 1_545
