# generated using pymatgen
data_K2MgH8(SO6)2
_symmetry_space_group_name_H-M   'P 1'
_cell_length_a   7.68609422
_cell_length_b   7.68609422
_cell_length_c   10.04065812
_cell_angle_alpha   85.90052413
_cell_angle_beta   85.90052413
_cell_angle_gamma   78.78308950
_symmetry_Int_Tables_number   1
_chemical_formula_structural   K2MgH8(SO6)2
_chemical_formula_sum   'K4 Mg2 H16 S4 O24'
_cell_volume   579.33702770
_cell_formula_units_Z   2
loop_
 _symmetry_equiv_pos_site_id
 _symmetry_equiv_pos_as_xyz
  1  'x, y, z'
loop_
 _atom_site_type_symbol
 _atom_site_label
 _atom_site_symmetry_multiplicity
 _atom_site_fract_x
 _atom_site_fract_y
 _atom_site_fract_z
 _atom_site_occupancy
  K  K0  1  0.09567800  0.56438300  0.24941500  1
  K  K1  1  0.57066900  0.09511900  0.24687400  1
  K  K2  1  0.90488100  0.42933100  0.75312600  1
  K  K3  1  0.43561700  0.90432200  0.75058500  1
  Mg  Mg0  1  0.00005000  0.99995000  0.00000000  1
  Mg  Mg1  1  0.50055600  0.49944400  0.50000000  1
  H  H0  1  0.21943000  0.66679000  0.96185600  1
  H  H1  1  0.66675700  0.21972300  0.96150000  1
  H  H2  1  0.78027700  0.33324300  0.03850000  1
  H  H3  1  0.33321000  0.78057000  0.03814400  1
  H  H4  1  0.05514200  0.05081200  0.72688300  1
  H  H5  1  0.94918800  0.94485800  0.27311700  1
  H  H6  1  0.92412300  0.91648800  0.74221700  1
  H  H7  1  0.08351200  0.07587700  0.25778300  1
  H  H8  1  0.28592000  0.54662900  0.72721000  1
  H  H9  1  0.54658500  0.28422000  0.72730000  1
  H  H10  1  0.71578000  0.45341500  0.27270000  1
  H  H11  1  0.45337100  0.71408000  0.27279000  1
  H  H12  1  0.18629100  0.65687800  0.60801100  1
  H  H13  1  0.65732800  0.18639400  0.60710300  1
  H  H14  1  0.81360600  0.34267200  0.39289700  1
  H  H15  1  0.34312200  0.81370900  0.39198900  1
  S  S0  1  0.79550600  0.78986500  0.52716100  1
  S  S1  1  0.21013500  0.20449400  0.47283900  1
  S  S2  1  0.29500900  0.29495800  0.95407700  1
  S  S3  1  0.70504200  0.70499100  0.04592300  1
  O  O0  1  0.82880800  0.82893100  0.05894100  1
  O  O1  1  0.17106900  0.17119200  0.94105900  1
  O  O2  1  0.98365900  0.98857300  0.79378200  1
  O  O3  1  0.01142700  0.01634100  0.20621800  1
  O  O4  1  0.30716600  0.61435100  0.64110500  1
  O  O5  1  0.61514300  0.30618100  0.64168600  1
  O  O6  1  0.69381900  0.38485700  0.35831400  1
  O  O7  1  0.38564900  0.69283400  0.35889500  1
  O  O8  1  0.33546900  0.32964800  0.43928800  1
  O  O9  1  0.67035200  0.66453100  0.56071200  1
  O  O10  1  0.21670000  0.78330000  0.00000000  1
  O  O11  1  0.78309900  0.21690100  0.00000000  1
  O  O12  1  0.21933000  0.47058400  0.88402500  1
  O  O13  1  0.47076400  0.21923000  0.88439500  1
  O  O14  1  0.78077000  0.52923600  0.11560500  1
  O  O15  1  0.52941600  0.78067000  0.11597500  1
  O  O16  1  0.31886200  0.31908800  0.09516900  1
  O  O17  1  0.68091200  0.68113800  0.90483100  1
  O  O18  1  0.96382400  0.71775600  0.59466100  1
  O  O19  1  0.71497300  0.96432600  0.58175800  1
  O  O20  1  0.03567400  0.28502700  0.41824200  1
  O  O21  1  0.28224400  0.03617600  0.40533900  1
  O  O22  1  0.82996600  0.80908100  0.37926100  1
  O  O23  1  0.19091900  0.17003400  0.62073900  1
loop_
_geom_bond_atom_site_label_1
_geom_bond_atom_site_label_2
_geom_bond_distance
_geom_bond_site_symmetry_2
K0 O20 2.729386 1_555
K0 O16 2.770412 1_555
K0 O22 2.807758 1_455
K0 O14 2.916796 1_455
K0 O7 2.917518 1_555
K0 O8 3.000574 1_555
K1 O21 2.726657 1_555
K1 O16 2.789229 1_555
K1 O6 2.904315 1_555
K1 O15 2.912246 1_545
K1 O22 2.971303 1_545
K1 O8 2.996782 1_555
K1 O11 3.061139 1_555
K1 O0 3.181281 1_545
K2 O18 2.726657 1_555
K2 O17 2.789229 1_555
K2 O5 2.904315 1_555
K2 O12 2.912246 1_655
K2 O23 2.971303 1_655
K2 O9 2.996782 1_555
K2 O11 3.061139 1_556
K2 O1 3.181281 1_655
K3 O19 2.729386 1_555
K3 O17 2.770412 1_555
K3 O23 2.807758 1_565
K3 O13 2.916796 1_565
K3 O4 2.917518 1_555
K3 O9 3.000574 1_555
Mg0 O1 2.064192 1_564
Mg0 O0 2.064192 1_455
Mg0 O2 2.092421 1_454
Mg0 O3 2.092421 1_565
Mg0 O10 2.113517 1_555
Mg0 O11 2.116453 1_465
Mg1 O7 2.088971 1_555
Mg1 O4 2.088971 1_555
Mg1 O6 2.091429 1_555
Mg1 O5 2.091429 1_555
Mg1 O9 2.133877 1_555
Mg1 O8 2.133877 1_555
H0 O10 0.994803 1_556
H1 O11 0.995090 1_556
H1 K1 3.041894 1_556
H2 O11 0.995090 1_555
H2 K2 3.041894 1_554
H3 O10 0.994803 1_555
H4 O2 0.992698 1_445
H4 K2 2.937067 1_455
H5 O3 0.992698 1_665
H5 K1 2.937067 1_565
H6 O2 0.978753 1_555
H7 O3 0.978753 1_555
H8 O4 0.996793 1_555
H9 O5 0.997097 1_555
H10 O6 0.997097 1_555
H11 O7 0.996793 1_555
H12 O4 0.995423 1_555
H12 O18 1.695054 1_455
H13 O5 0.993405 1_555
H13 O19 1.710592 1_545
H14 O6 0.993405 1_555
H14 O20 1.710592 1_655
H15 O7 0.995423 1_555
H15 O21 1.695054 1_565
O0 S3 1.489169 1_555
O1 S2 1.489169 1_555
O8 S1 1.494862 1_555
O9 S0 1.494862 1_555
O12 S2 1.507486 1_555
O13 S2 1.506765 1_555
O14 S3 1.506765 1_555
O15 S3 1.507486 1_555
O16 S2 1.470665 1_554
O17 S3 1.470665 1_556
O18 S0 1.494288 1_555
O19 S0 1.488422 1_555
O20 S1 1.488422 1_555
O21 S1 1.494288 1_555
O22 S0 1.491595 1_555
O23 S1 1.491595 1_555
