# generated using pymatgen
data_Y2Ga8Co
_symmetry_space_group_name_H-M   'P 1'
_cell_length_a   4.20032197
_cell_length_b   4.20032197
_cell_length_c   11.05162072
_cell_angle_alpha   90.00000000
_cell_angle_beta   90.00000000
_cell_angle_gamma   90.00000000
_symmetry_Int_Tables_number   1
_chemical_formula_structural   Y2Ga8Co
_chemical_formula_sum   'Y2 Ga8 Co1'
_cell_volume   194.98048029
_cell_formula_units_Z   1
loop_
 _symmetry_equiv_pos_site_id
 _symmetry_equiv_pos_as_xyz
  1  'x, y, z'
loop_
 _atom_site_type_symbol
 _atom_site_label
 _atom_site_symmetry_multiplicity
 _atom_site_fract_x
 _atom_site_fract_y
 _atom_site_fract_z
 _atom_site_occupancy
  Y  Y0  1  -0.00000000  0.00000000  0.69459053  1
  Y  Y1  1  -0.00000000  0.00000000  0.30540947  1
  Ga  Ga0  1  0.50000000  0.00000000  0.88508092  1
  Ga  Ga1  1  -0.00000000  0.50000000  0.88508092  1
  Ga  Ga2  1  0.50000000  0.00000000  0.11491908  1
  Ga  Ga3  1  0.00000000  0.50000000  0.11491908  1
  Ga  Ga4  1  0.50000000  0.00000000  0.50000000  1
  Ga  Ga5  1  -0.00000000  0.50000000  0.50000000  1
  Ga  Ga6  1  0.50000000  0.50000000  0.69466749  1
  Ga  Ga7  1  0.50000000  0.50000000  0.30533251  1
  Co  Co0  1  -0.00000000  0.00000000  0.00000000  1
loop_
_geom_bond_atom_site_label_1
_geom_bond_atom_site_label_2
_geom_bond_distance
_geom_bond_site_symmetry_2
Ga0 Ga2 2.540084 1_556
Ga0 Ga1 2.970076 1_645
Ga0 Ga1 2.970076 1_555
Ga0 Ga1 2.970076 1_545
Ga0 Ga1 2.970076 1_655
Ga0 Ga6 2.973059 1_555
Ga0 Ga6 2.973059 1_545
Ga0 Y0 2.973661 1_555
Ga0 Y0 2.973661 1_655
Ga1 Ga3 2.540084 1_556
Ga1 Ga6 2.973059 1_555
Ga1 Ga6 2.973059 1_455
Ga1 Y0 2.973661 1_555
Ga1 Y0 2.973661 1_565
Ga2 Ga3 2.970076 1_645
Ga2 Ga3 2.970076 1_655
Ga2 Ga3 2.970076 1_545
Ga2 Ga3 2.970076 1_555
Ga2 Ga7 2.973059 1_545
Ga2 Ga7 2.973059 1_555
Ga2 Y1 2.973661 1_555
Ga2 Y1 2.973661 1_655
Ga3 Ga7 2.973059 1_555
Ga3 Ga7 2.973059 1_455
Ga3 Y1 2.973661 1_555
Ga3 Y1 2.973661 1_565
Ga4 Ga5 2.970076 1_545
Ga4 Ga5 2.970076 1_555
Ga4 Ga5 2.970076 1_645
Ga4 Ga5 2.970076 1_655
Ga4 Y0 3.005911 1_555
Ga4 Y0 3.005911 1_655
Ga4 Y1 3.005911 1_555
Ga4 Y1 3.005911 1_655
Ga4 Ga6 3.006520 1_555
Ga4 Ga7 3.006520 1_545
Ga4 Ga6 3.006520 1_545
Ga4 Ga7 3.006520 1_555
Ga5 Y0 3.005911 1_555
Ga5 Y0 3.005911 1_565
Ga5 Y1 3.005911 1_565
Ga5 Y1 3.005911 1_555
Ga5 Ga6 3.006520 1_555
Ga5 Ga6 3.006520 1_455
Ga5 Ga7 3.006520 1_555
Ga5 Ga7 3.006520 1_455
Ga6 Y0 2.970076 1_555
Ga6 Y0 2.970076 1_565
Ga6 Y0 2.970076 1_665
Ga6 Y0 2.970076 1_655
Ga7 Y1 2.970076 1_655
Ga7 Y1 2.970076 1_565
Ga7 Y1 2.970076 1_555
Ga7 Y1 2.970076 1_665
Co0 Ga1 2.454319 1_544
Co0 Ga0 2.454319 1_554
Co0 Ga0 2.454319 1_454
Co0 Ga1 2.454319 1_554
Co0 Ga2 2.454319 1_555
Co0 Ga2 2.454319 1_455
Co0 Ga3 2.454319 1_545
Co0 Ga3 2.454319 1_555
