# generated using pymatgen
data_NaLiZr(Si2O5)3
_symmetry_space_group_name_H-M   'P 1'
_cell_length_a   11.40345308
_cell_length_b   11.40345308
_cell_length_c   10.30604400
_cell_angle_alpha   90.00000000
_cell_angle_beta   90.00000000
_cell_angle_gamma   100.61971803
_symmetry_Int_Tables_number   1
_chemical_formula_structural   NaLiZr(Si2O5)3
_chemical_formula_sum   'Na4 Li4 Zr4 Si24 O60'
_cell_volume   1317.23029028
_cell_formula_units_Z   4
loop_
 _symmetry_equiv_pos_site_id
 _symmetry_equiv_pos_as_xyz
  1  'x, y, z'
loop_
 _atom_site_type_symbol
 _atom_site_label
 _atom_site_symmetry_multiplicity
 _atom_site_fract_x
 _atom_site_fract_y
 _atom_site_fract_z
 _atom_site_occupancy
  Na  Na0  1  0.46562100  0.03437900  0.75000000  1
  Na  Na1  1  0.03437900  0.46562100  0.25000000  1
  Na  Na2  1  0.53437900  0.96562100  0.25000000  1
  Na  Na3  1  0.96562100  0.53437900  0.75000000  1
  Li  Li0  1  0.24678000  0.24678000  0.00000000  1
  Li  Li1  1  0.74678000  0.74678000  0.50000000  1
  Li  Li2  1  0.75322000  0.75322000  0.00000000  1
  Li  Li3  1  0.25322000  0.25322000  0.50000000  1
  Zr  Zr0  1  0.16156500  0.33843500  0.75000000  1
  Zr  Zr1  1  0.33843500  0.16156500  0.25000000  1
  Zr  Zr2  1  0.83843500  0.66156500  0.25000000  1
  Zr  Zr3  1  0.66156500  0.83843500  0.75000000  1
  Si  Si0  1  0.76382200  0.02037200  0.48182500  1
  Si  Si1  1  0.19934300  0.58459500  0.54100700  1
  Si  Si2  1  0.91540500  0.30065700  0.95899300  1
  Si  Si3  1  0.58459500  0.19934300  0.45899300  1
  Si  Si4  1  0.81682300  0.96382200  0.18901800  1
  Si  Si5  1  0.68317700  0.53617800  0.68901800  1
  Si  Si6  1  0.96382200  0.81682300  0.81098200  1
  Si  Si7  1  0.53617800  0.68317700  0.31098200  1
  Si  Si8  1  0.18317700  0.03617800  0.81098200  1
  Si  Si9  1  0.31682300  0.46382200  0.31098200  1
  Si  Si10  1  0.03617800  0.18317700  0.18901800  1
  Si  Si11  1  0.46382200  0.31682300  0.68901800  1
  Si  Si12  1  0.30065700  0.91540500  0.04100700  1
  Si  Si13  1  0.73617800  0.47962800  0.98182500  1
  Si  Si14  1  0.41540500  0.80065700  0.54100700  1
  Si  Si15  1  0.47962800  0.73617800  0.01817500  1
  Si  Si16  1  0.23617800  0.97962800  0.51817500  1
  Si  Si17  1  0.26382200  0.52037200  0.01817500  1
  Si  Si18  1  0.97962800  0.23617800  0.48182500  1
  Si  Si19  1  0.52037200  0.26382200  0.98182500  1
  Si  Si20  1  0.69934300  0.08459500  0.95899300  1
  Si  Si21  1  0.80065700  0.41540500  0.45899300  1
  Si  Si22  1  0.08459500  0.69934300  0.04100700  1
  Si  Si23  1  0.02037200  0.76382200  0.51817500  1
  O  O0  1  0.24821800  0.40663000  0.92283900  1
  O  O1  1  0.67882600  0.32117400  0.42587200  1
  O  O2  1  0.82117400  0.17882600  0.92587200  1
  O  O3  1  0.32117400  0.67882600  0.57412800  1
  O  O4  1  0.05648600  0.94351400  0.81705900  1
  O  O5  1  0.44351400  0.55648600  0.31705900  1
  O  O6  1  0.94351400  0.05648600  0.18294100  1
  O  O7  1  0.55648600  0.44351400  0.68294100  1
  O  O8  1  0.10710100  0.89289900  0.49842200  1
  O  O9  1  0.39289900  0.60710100  0.99842200  1
  O  O10  1  0.89289900  0.10710100  0.50157800  1
  O  O11  1  0.60710100  0.39289900  0.00157800  1
  O  O12  1  0.65394300  0.00391400  0.83389000  1
  O  O13  1  0.84605700  0.49608600  0.33389000  1
  O  O14  1  0.00391400  0.65394300  0.16611000  1
  O  O15  1  0.49608600  0.84605700  0.66611000  1
  O  O16  1  0.34605700  0.99608600  0.16611000  1
  O  O17  1  0.15394300  0.50391400  0.66611000  1
  O  O18  1  0.99608600  0.34605700  0.83389000  1
  O  O19  1  0.50391400  0.15394300  0.33389000  1
  O  O20  1  0.72101000  0.00259900  0.08493200  1
  O  O21  1  0.77899000  0.49740100  0.58493200  1
  O  O22  1  0.00259900  0.72101000  0.91506800  1
  O  O23  1  0.16863400  0.17146600  0.84002300  1
  O  O24  1  0.27899000  0.99740100  0.91506800  1
  O  O25  1  0.22101000  0.50259900  0.41506800  1
  O  O26  1  0.99740100  0.27899000  0.08493200  1
  O  O27  1  0.50259900  0.22101000  0.58493200  1
  O  O28  1  0.83136600  0.82853400  0.15997700  1
  O  O29  1  0.66863400  0.67146600  0.65997700  1
  O  O30  1  0.82853400  0.83136600  0.84002300  1
  O  O31  1  0.67146600  0.66863400  0.34002300  1
  O  O32  1  0.59423200  0.15556200  0.00670800  1
  O  O33  1  0.90576800  0.34443800  0.50670800  1
  O  O34  1  0.15556200  0.59423200  0.99329200  1
  O  O35  1  0.34443800  0.90576800  0.49329200  1
  O  O36  1  0.40576800  0.84443800  0.99329200  1
  O  O37  1  0.09423200  0.65556200  0.49329200  1
  O  O38  1  0.84443800  0.40576800  0.00670800  1
  O  O39  1  0.65556200  0.09423200  0.50670800  1
  O  O40  1  0.40663000  0.24821800  0.07716100  1
  O  O41  1  0.09337000  0.25178200  0.57716100  1
  O  O42  1  0.17882600  0.82117400  0.07412800  1
  O  O43  1  0.25178200  0.09337000  0.42283900  1
  O  O44  1  0.59337000  0.75178200  0.92283900  1
  O  O45  1  0.90663000  0.74821800  0.42283900  1
  O  O46  1  0.75178200  0.59337000  0.07716100  1
  O  O47  1  0.74821800  0.90663000  0.57716100  1
  O  O48  1  0.47514600  0.25013500  0.82932500  1
  O  O49  1  0.02485400  0.24986500  0.32932500  1
  O  O50  1  0.25013500  0.47514600  0.17067500  1
  O  O51  1  0.24986500  0.02485400  0.67067500  1
  O  O52  1  0.52485400  0.74986500  0.17067500  1
  O  O53  1  0.97514600  0.75013500  0.67067500  1
  O  O54  1  0.74986500  0.52485400  0.82932500  1
  O  O55  1  0.75013500  0.97514600  0.32932500  1
  O  O56  1  0.32853400  0.33136600  0.65997700  1
  O  O57  1  0.17146600  0.16863400  0.15997700  1
  O  O58  1  0.33136600  0.32853400  0.34002300  1
  O  O59  1  0.49740100  0.77899000  0.41506800  1
loop_
_geom_bond_atom_site_label_1
_geom_bond_atom_site_label_2
_geom_bond_distance
_geom_bond_site_symmetry_2
Na0 O12 2.398960 1_555
Na0 O15 2.398960 1_545
Na0 O51 2.575857 1_555
Na0 O48 2.575857 1_555
Na0 O24 2.696388 1_545
Na0 O27 2.696388 1_555
Na1 O14 2.398960 1_555
Na1 O13 2.398960 1_455
Na1 O49 2.575857 1_555
Na1 O50 2.575857 1_555
Na1 O26 2.696388 1_455
Na1 O25 2.696388 1_555
Na2 O16 2.398960 1_555
Na2 O19 2.398960 1_565
Na2 O52 2.575857 1_555
Na2 O55 2.575857 1_555
Na2 O59 2.696388 1_555
Na2 O20 2.696388 1_565
Na3 O18 2.398960 1_555
Na3 O17 2.398960 1_655
Na3 O54 2.575857 1_555
Na3 O53 2.575857 1_555
Na3 O21 2.696388 1_555
Na3 O22 2.696388 1_655
Li0 O0 1.986048 1_554
Li0 O40 1.986048 1_555
Li0 O57 1.991971 1_555
Li0 O23 1.991971 1_554
Li1 O47 1.986048 1_555
Li1 O45 1.986048 1_555
Li1 O29 1.991971 1_555
Li1 O31 1.991971 1_555
Li2 O44 1.986048 1_554
Li2 O46 1.986048 1_555
Li2 O28 1.991971 1_555
Li2 O30 1.991971 1_554
Li3 O41 1.986048 1_555
Li3 O43 1.986048 1_555
Li3 O56 1.991971 1_555
Li3 O58 1.991971 1_555
O0 Si17 1.610688 1_556
O0 Zr0 2.114458 1_555
O1 Si3 1.628216 1_555
O1 Si21 1.628216 1_555
O2 Si2 1.628216 1_555
O2 Si20 1.628216 1_555
O3 Si1 1.628216 1_555
O3 Si14 1.628216 1_555
O4 Si6 1.626357 1_455
O4 Si8 1.626357 1_565
O5 Si7 1.626357 1_555
O5 Si9 1.626357 1_555
O6 Si4 1.626357 1_545
O6 Si10 1.626357 1_655
O7 Si5 1.626357 1_555
O7 Si11 1.626357 1_555
O8 Si16 1.627754 1_555
O8 Si23 1.627754 1_555
O9 Si15 1.627754 1_556
O9 Si17 1.627754 1_556
O10 Si18 1.627754 1_555
O10 Si0 1.627754 1_555
O11 Si13 1.627754 1_554
O11 Si19 1.627754 1_554
O12 Si20 1.612850 1_555
O12 Zr3 2.091981 1_545
O13 Si21 1.612850 1_555
O13 Zr2 2.091981 1_555
O14 Si22 1.612850 1_555
O14 Zr2 2.091981 1_455
O15 Si14 1.612850 1_555
O15 Zr3 2.091981 1_555
O16 Si12 1.612850 1_555
O16 Zr1 2.091981 1_565
O17 Si1 1.612850 1_555
O17 Zr0 2.091981 1_555
O18 Si2 1.612850 1_555
O18 Zr0 2.091981 1_655
O19 Si3 1.612850 1_555
O19 Zr1 2.091981 1_555
O20 Si20 1.644726 1_554
O20 Si4 1.648666 1_545
O21 Si21 1.644726 1_555
O21 Si5 1.648666 1_555
O22 Si22 1.644726 1_556
O22 Si6 1.648666 1_455
O23 Si8 1.609802 1_555
O23 Zr0 2.132874 1_555
O24 Si12 1.644726 1_556
O24 Si8 1.648666 1_565
O25 Si1 1.644726 1_555
O25 Si9 1.648666 1_555
O26 Si2 1.644726 1_554
O26 Si10 1.648666 1_655
O27 Si3 1.644726 1_555
O27 Si11 1.648666 1_555
O28 Si4 1.609802 1_555
O28 Zr2 2.132874 1_555
O29 Si5 1.609802 1_555
O29 Zr3 2.132874 1_555
O30 Si6 1.609802 1_555
O30 Zr3 2.132874 1_555
O31 Si7 1.609802 1_555
O31 Zr2 2.132874 1_555
O32 Si19 1.637833 1_554
O32 Si20 1.640419 1_554
O33 Si18 1.637833 1_555
O33 Si21 1.640419 1_555
O34 Si17 1.637833 1_556
O34 Si22 1.640419 1_556
O35 Si16 1.637833 1_555
O35 Si14 1.640419 1_555
O36 Si15 1.637833 1_556
O36 Si12 1.640419 1_556
O37 Si23 1.637833 1_555
O37 Si1 1.640419 1_555
O38 Si13 1.637833 1_554
O38 Si2 1.640419 1_554
O39 Si0 1.637833 1_555
O39 Si3 1.640419 1_555
O40 Si19 1.610688 1_554
O40 Zr1 2.114458 1_555
O41 Si18 1.610688 1_455
O41 Zr0 2.114458 1_555
O42 Si12 1.628216 1_555
O42 Si22 1.628216 1_555
O43 Si16 1.610688 1_545
O43 Zr1 2.114458 1_555
O44 Si15 1.610688 1_556
O44 Zr3 2.114458 1_555
O45 Si23 1.610688 1_655
O45 Zr2 2.114458 1_555
O46 Si13 1.610688 1_554
O46 Zr2 2.114458 1_555
O47 Si0 1.610688 1_565
O47 Zr3 2.114458 1_555
O48 Si11 1.649890 1_555
O48 Si19 1.652520 1_555
O49 Si10 1.649890 1_555
O49 Si18 1.652520 1_455
O50 Si9 1.649890 1_555
O50 Si17 1.652520 1_555
O51 Si8 1.649890 1_555
O51 Si16 1.652520 1_545
O52 Si7 1.649890 1_555
O52 Si15 1.652520 1_555
O53 Si6 1.649890 1_555
O53 Si23 1.652520 1_655
O54 Si5 1.649890 1_555
O54 Si13 1.652520 1_555
O55 Si4 1.649890 1_555
O55 Si0 1.652520 1_565
O56 Si11 1.609802 1_555
O56 Zr0 2.132874 1_555
O57 Si10 1.609802 1_555
O57 Zr1 2.132874 1_555
O58 Si9 1.609802 1_555
O58 Zr1 2.132874 1_555
O59 Si14 1.644726 1_555
O59 Si7 1.648666 1_555
