# generated using pymatgen
data_Sr2YbTaO6
_symmetry_space_group_name_H-M   'P 1'
_cell_length_a   5.81232700
_cell_length_b   6.03223700
_cell_length_c   8.45777100
_cell_angle_alpha   90.00000000
_cell_angle_beta   90.00000000
_cell_angle_gamma   90.00000000
_symmetry_Int_Tables_number   1
_chemical_formula_structural   Sr2YbTaO6
_chemical_formula_sum   'Sr4 Yb2 Ta2 O12'
_cell_volume   296.54073380
_cell_formula_units_Z   2
loop_
 _symmetry_equiv_pos_site_id
 _symmetry_equiv_pos_as_xyz
  1  'x, y, z'
loop_
 _atom_site_type_symbol
 _atom_site_label
 _atom_site_symmetry_multiplicity
 _atom_site_fract_x
 _atom_site_fract_y
 _atom_site_fract_z
 _atom_site_occupancy
  Sr  Sr0  1  0.97503700  0.46228600  0.24997400  1
  Sr  Sr1  1  0.97503700  0.53771400  0.75002600  1
  Sr  Sr2  1  0.47503700  0.96228600  0.25002600  1
  Sr  Sr3  1  0.47503700  0.03771400  0.74997400  1
  Yb  Yb0  1  0.00370000  0.00000000  0.00000000  1
  Yb  Yb1  1  0.50370000  0.50000000  0.50000000  1
  Ta  Ta0  1  0.98434700  0.00000000  0.50000000  1
  Ta  Ta1  1  0.48434700  0.50000000  0.00000000  1
  O  O0  1  0.45966100  0.52976200  0.23502900  1
  O  O1  1  0.45966100  0.47023800  0.76497100  1
  O  O2  1  0.95966100  0.02976200  0.26497100  1
  O  O3  1  0.95966100  0.97023800  0.73502900  1
  O  O4  1  0.28385300  0.18367200  0.49293300  1
  O  O5  1  0.28385300  0.81632800  0.50706700  1
  O  O6  1  0.78385300  0.68367200  0.00706700  1
  O  O7  1  0.78385300  0.31632800  0.99293300  1
  O  O8  1  0.30352600  0.23082000  0.01916000  1
  O  O9  1  0.30352600  0.76918000  0.98084000  1
  O  O10  1  0.80352600  0.73082000  0.48084000  1
  O  O11  1  0.80352600  0.26918000  0.51916000  1
loop_
_geom_bond_atom_site_label_1
_geom_bond_atom_site_label_2
_geom_bond_distance
_geom_bond_site_symmetry_2
O0 Ta1 2.001063 1_555
O0 Yb1 2.262768 1_555
O0 Sr2 2.613697 1_555
O0 Sr0 2.848855 1_455
O0 Sr0 3.025702 1_555
O1 Ta1 2.001063 1_556
O1 Yb1 2.262768 1_555
O1 Sr3 2.613697 1_555
O1 Sr1 2.848855 1_455
O1 Sr1 3.025702 1_555
O2 Ta0 2.001063 1_555
O2 Yb0 2.262768 1_655
O2 Sr0 2.613697 1_555
O2 Sr2 2.848855 1_545
O2 Sr2 3.025702 1_645
O3 Ta0 2.001063 1_565
O3 Yb0 2.262768 1_666
O3 Sr1 2.613697 1_555
O3 Sr3 2.848855 1_565
O3 Sr3 3.025702 1_665
O4 Ta0 2.064367 1_455
O4 Yb1 2.297281 1_555
O4 Sr3 2.595432 1_555
O4 Sr2 2.690544 1_545
O4 Sr0 3.204532 1_455
O5 Ta0 2.064367 1_465
O5 Yb1 2.297281 1_555
O5 Sr2 2.595432 1_555
O5 Sr3 2.690544 1_565
O5 Sr1 3.204532 1_455
O6 Ta1 2.064367 1_555
O6 Yb0 2.297281 1_665
O6 Sr1 2.595432 1_554
O6 Sr0 2.690544 1_555
O6 Sr2 3.204532 1_555
O7 Ta1 2.064367 1_556
O7 Yb0 2.297281 1_656
O7 Sr0 2.595432 1_556
O7 Sr1 2.690544 1_555
O7 Sr3 3.204532 1_555
O8 Ta1 1.940987 1_555
O8 Yb0 2.236490 1_555
O8 Sr2 2.725877 1_545
O8 Sr3 2.744830 1_554
O8 Sr0 3.066901 1_455
O9 Ta1 1.940987 1_556
O9 Yb0 2.236490 1_566
O9 Sr3 2.725877 1_565
O9 Sr2 2.744830 1_556
O9 Sr1 3.066901 1_455
O10 Ta0 1.940987 1_565
O10 Yb1 2.236490 1_555
O10 Sr0 2.725877 1_555
O10 Sr1 2.744830 1_555
O10 Sr2 3.066901 1_555
O11 Ta0 1.940987 1_555
O11 Yb1 2.236490 1_555
O11 Sr1 2.725877 1_555
O11 Sr0 2.744830 1_555
O11 Sr3 3.066901 1_555
