# generated using pymatgen
data_Ag2IOF
_symmetry_space_group_name_H-M   'P 1'
_cell_length_a   7.90982300
_cell_length_b   4.63901700
_cell_length_c   6.16143087
_cell_angle_alpha   87.81644198
_cell_angle_beta   90.00000000
_cell_angle_gamma   90.00000000
_symmetry_Int_Tables_number   1
_chemical_formula_structural   Ag2IOF
_chemical_formula_sum   'Ag4 I2 O2 F2'
_cell_volume   225.92216948
_cell_formula_units_Z   2
loop_
 _symmetry_equiv_pos_site_id
 _symmetry_equiv_pos_as_xyz
  1  'x, y, z'
loop_
 _atom_site_type_symbol
 _atom_site_label
 _atom_site_symmetry_multiplicity
 _atom_site_fract_x
 _atom_site_fract_y
 _atom_site_fract_z
 _atom_site_occupancy
  Ag  Ag0  1  0.99411100  0.01496800  0.73430500  1
  Ag  Ag1  1  0.49411100  0.98503200  0.26569500  1
  Ag  Ag2  1  0.43094600  0.02544600  0.73456500  1
  Ag  Ag3  1  0.93094600  0.97455400  0.26543500  1
  I  I0  1  0.71735100  0.31267700  0.51113600  1
  I  I1  1  0.21735100  0.68732300  0.48886400  1
  O  O0  1  0.88390900  0.74033600  0.98146100  1
  O  O1  1  0.38390900  0.25966400  0.01853900  1
  F  F0  1  0.55882300  0.70604500  0.99185200  1
  F  F1  1  0.05882300  0.29395500  0.00814800  1
loop_
_geom_bond_atom_site_label_1
_geom_bond_atom_site_label_2
_geom_bond_distance
_geom_bond_site_symmetry_2
Ag0 O0 2.134043 1_545
Ag0 F1 2.224924 1_656
Ag0 I1 2.808980 1_645
Ag0 I0 2.906141 1_555
Ag1 O1 2.134043 1_565
Ag1 F0 2.224924 1_554
Ag1 I0 2.808980 1_565
Ag1 I1 2.906141 1_555
Ag2 O1 2.127267 1_556
Ag2 F0 2.356396 1_545
Ag2 I1 2.790615 1_545
Ag2 I0 2.943286 1_555
Ag3 O0 2.127267 1_554
Ag3 F1 2.356396 1_665
Ag3 I0 2.790615 1_565
Ag3 I1 2.943286 1_655
