# generated using pymatgen
data_Ge(SeO3)2
_symmetry_space_group_name_H-M   'P 1'
_cell_length_a   5.07662735
_cell_length_b   6.81856921
_cell_length_c   7.32353347
_cell_angle_alpha   90.00000000
_cell_angle_beta   91.04042686
_cell_angle_gamma   90.00000000
_symmetry_Int_Tables_number   1
_chemical_formula_structural   Ge(SeO3)2
_chemical_formula_sum   'Ge2 Se4 O12'
_cell_volume   253.46476872
_cell_formula_units_Z   2
loop_
 _symmetry_equiv_pos_site_id
 _symmetry_equiv_pos_as_xyz
  1  'x, y, z'
loop_
 _atom_site_type_symbol
 _atom_site_label
 _atom_site_symmetry_multiplicity
 _atom_site_fract_x
 _atom_site_fract_y
 _atom_site_fract_z
 _atom_site_occupancy
  Ge  Ge0  1  0.00000000  -0.00000000  0.00000000  1
  Ge  Ge1  1  0.50000000  0.50000000  0.50000000  1
  Se  Se0  1  0.48447748  0.82571687  0.79904753  1
  Se  Se1  1  0.98447748  0.67428313  0.29904753  1
  Se  Se2  1  0.51552252  0.17428313  0.20095247  1
  Se  Se3  1  0.01552252  0.32571687  0.70095247  1
  O  O0  1  0.69836302  0.83821098  0.98580429  1
  O  O1  1  0.19836302  0.66178902  0.48580429  1
  O  O2  1  0.30163698  0.16178902  0.01419571  1
  O  O3  1  0.80163698  0.33821098  0.51419571  1
  O  O4  1  0.54759001  0.58519265  0.74355623  1
  O  O5  1  0.04759001  0.91480735  0.24355623  1
  O  O6  1  0.45240999  0.41480735  0.25644377  1
  O  O7  1  0.95240999  0.08519265  0.75644377  1
  O  O8  1  0.20087331  0.78333710  0.91655687  1
  O  O9  1  0.70087331  0.71666290  0.41655687  1
  O  O10  1  0.79912669  0.21666290  0.08344313  1
  O  O11  1  0.29912669  0.28333710  0.58344313  1
loop_
_geom_bond_atom_site_label_1
_geom_bond_atom_site_label_2
_geom_bond_distance
_geom_bond_site_symmetry_2
Ge0 O7 1.887250 1_454
Ge0 O5 1.887250 1_545
Ge0 O0 1.888620 1_444
Ge0 O2 1.888620 1_555
Ge0 O10 1.902232 1_455
Ge0 O8 1.902232 1_544
Ge1 O6 1.887250 1_555
Ge1 O4 1.887250 1_555
Ge1 O1 1.888620 1_555
Ge1 O3 1.888620 1_555
Ge1 O9 1.902232 1_555
Ge1 O11 1.902232 1_555
O0 Se0 1.732911 1_555
O1 Se1 1.732911 1_455
O2 Se2 1.732911 1_555
O3 Se3 1.732911 1_655
O4 Se0 1.721116 1_555
O5 Se1 1.721116 1_455
O6 Se2 1.721116 1_555
O7 Se3 1.721116 1_655
O8 Se0 1.715223 1_555
O9 Se1 1.715223 1_555
O10 Se2 1.715223 1_555
O11 Se3 1.715223 1_555
