# generated using pymatgen
data_Zr9W4O3
_symmetry_space_group_name_H-M   'P 1'
_cell_length_a   8.77615373
_cell_length_b   8.77615373
_cell_length_c   8.60127700
_cell_angle_alpha   90.00000000
_cell_angle_beta   90.00000000
_cell_angle_gamma   119.99999797
_symmetry_Int_Tables_number   1
_chemical_formula_structural   Zr9W4O3
_chemical_formula_sum   'Zr18 W8 O6'
_cell_volume   573.72268061
_cell_formula_units_Z   2
loop_
 _symmetry_equiv_pos_site_id
 _symmetry_equiv_pos_as_xyz
  1  'x, y, z'
loop_
 _atom_site_type_symbol
 _atom_site_label
 _atom_site_symmetry_multiplicity
 _atom_site_fract_x
 _atom_site_fract_y
 _atom_site_fract_z
 _atom_site_occupancy
  Zr  Zr0  1  0.45329000  0.90657900  0.25000000  1
  Zr  Zr1  1  0.54671000  0.09342100  0.75000000  1
  Zr  Zr2  1  0.09342100  0.54671000  0.25000000  1
  Zr  Zr3  1  0.90657900  0.45329000  0.75000000  1
  Zr  Zr4  1  0.45329000  0.54671000  0.25000000  1
  Zr  Zr5  1  0.54671000  0.45329000  0.75000000  1
  Zr  Zr6  1  0.20571200  0.41142500  0.56343900  1
  Zr  Zr7  1  0.79428800  0.58857500  0.43656100  1
  Zr  Zr8  1  0.58857500  0.79428800  0.56343900  1
  Zr  Zr9  1  0.79428800  0.58857500  0.06343900  1
  Zr  Zr10  1  0.41142500  0.20571200  0.43656100  1
  Zr  Zr11  1  0.20571200  0.41142500  0.93656100  1
  Zr  Zr12  1  0.20571200  0.79428800  0.56343900  1
  Zr  Zr13  1  0.41142500  0.20571200  0.06343900  1
  Zr  Zr14  1  0.79428800  0.20571200  0.43656100  1
  Zr  Zr15  1  0.58857500  0.79428800  0.93656100  1
  Zr  Zr16  1  0.79428800  0.20571200  0.06343900  1
  Zr  Zr17  1  0.20571200  0.79428800  0.93656100  1
  W  W0  1  0.10930800  0.21861600  0.25000000  1
  W  W1  1  0.89069200  0.78138400  0.75000000  1
  W  W2  1  0.78138400  0.89069200  0.25000000  1
  W  W3  1  0.21861600  0.10930800  0.75000000  1
  W  W4  1  0.10930800  0.89069200  0.25000000  1
  W  W5  1  0.89069200  0.10930800  0.75000000  1
  W  W6  1  0.00000000  0.00000000  0.00000000  1
  W  W7  1  0.00000000  0.00000000  0.50000000  1
  O  O0  1  0.50000000  0.00000000  0.00000000  1
  O  O1  1  0.00000000  0.50000000  0.00000000  1
  O  O2  1  0.50000000  0.00000000  0.50000000  1
  O  O3  1  0.50000000  0.50000000  0.00000000  1
  O  O4  1  0.00000000  0.50000000  0.50000000  1
  O  O5  1  0.50000000  0.50000000  0.50000000  1
loop_
_geom_bond_atom_site_label_1
_geom_bond_atom_site_label_2
_geom_bond_distance
_geom_bond_site_symmetry_2
W0 W7 2.717474 1_555
W0 W6 2.717474 1_555
W0 W4 2.877911 1_545
W0 W2 2.877912 1_445
W0 Zr2 2.951588 1_555
W0 Zr4 2.951592 1_555
W0 Zr6 3.068508 1_555
W0 Zr11 3.068508 1_554
W0 Zr14 3.149293 1_455
W0 Zr16 3.149293 1_455
W0 Zr13 3.149300 1_555
W0 Zr10 3.149300 1_555
W1 W6 2.717474 1_666
W1 W7 2.717474 1_665
W1 W5 2.877911 1_565
W1 W3 2.877912 1_665
W1 Zr3 2.951588 1_555
W1 Zr5 2.951592 1_555
W1 Zr7 3.068508 1_555
W1 Zr9 3.068508 1_556
W1 Zr12 3.149293 1_655
W1 Zr17 3.149293 1_655
W1 Zr15 3.149300 1_555
W1 Zr8 3.149300 1_555
W2 W6 2.717474 1_665
W2 W7 2.717474 1_665
W2 W4 2.877911 1_655
W2 Zr0 2.951588 1_555
W2 Zr4 2.951592 1_555
W2 Zr8 3.068508 1_555
W2 Zr15 3.068508 1_554
W2 Zr14 3.149293 1_565
W2 Zr16 3.149293 1_565
W2 Zr7 3.149300 1_555
W2 Zr9 3.149300 1_555
W3 W7 2.717474 1_555
W3 W6 2.717474 1_556
W3 W5 2.877911 1_455
W3 Zr1 2.951588 1_555
W3 Zr5 2.951592 1_555
W3 Zr13 3.068508 1_556
W3 Zr10 3.068508 1_555
W3 Zr12 3.149293 1_545
W3 Zr17 3.149293 1_545
W3 Zr11 3.149300 1_555
W3 Zr6 3.149300 1_555
W4 W7 2.717474 1_565
W4 W6 2.717474 1_565
W4 Zr2 2.951596 1_555
W4 Zr0 2.951596 1_555
W4 Zr12 3.068504 1_555
W4 Zr17 3.068504 1_554
W4 Zr7 3.149296 1_455
W4 Zr9 3.149296 1_455
W4 Zr13 3.149296 1_565
W4 Zr10 3.149296 1_565
W5 W6 2.717474 1_656
W5 W7 2.717474 1_655
W5 Zr1 2.951596 1_555
W5 Zr3 2.951596 1_555
W5 Zr14 3.068504 1_555
W5 Zr16 3.068504 1_556
W5 Zr15 3.149296 1_545
W5 Zr8 3.149296 1_545
W5 Zr11 3.149296 1_655
W5 Zr6 3.149296 1_655
W6 Zr17 3.174227 1_544
W6 Zr16 3.174227 1_455
W6 Zr13 3.174234 1_555
W6 Zr11 3.174234 1_554
W6 Zr9 3.174234 1_445
W6 Zr15 3.174234 1_444
W7 Zr14 3.174227 1_455
W7 Zr12 3.174227 1_545
W7 Zr6 3.174234 1_555
W7 Zr10 3.174234 1_555
W7 Zr7 3.174234 1_445
W7 Zr8 3.174234 1_445
O0 Zr1 2.264514 1_554
O0 Zr0 2.264514 1_545
O0 Zr13 2.358968 1_555
O0 Zr15 2.358968 1_544
O0 Zr16 2.358974 1_555
O0 Zr17 2.358974 1_544
O1 Zr2 2.264514 1_555
O1 Zr3 2.264514 1_454
O1 Zr11 2.358968 1_554
O1 Zr9 2.358968 1_455
O1 Zr17 2.358974 1_554
O1 Zr16 2.358974 1_455
O2 Zr1 2.264514 1_555
O2 Zr0 2.264514 1_545
O2 Zr10 2.358968 1_555
O2 Zr8 2.358968 1_545
O2 Zr14 2.358974 1_555
O2 Zr12 2.358974 1_545
O3 Zr4 2.264511 1_555
O3 Zr5 2.264511 1_554
O3 Zr15 2.358976 1_554
O3 Zr9 2.358976 1_555
O3 Zr11 2.358976 1_554
O3 Zr13 2.358976 1_555
O4 Zr2 2.264514 1_555
O4 Zr3 2.264514 1_455
O4 Zr6 2.358968 1_555
O4 Zr7 2.358968 1_455
O4 Zr12 2.358974 1_555
O4 Zr14 2.358974 1_455
O5 Zr4 2.264511 1_555
O5 Zr5 2.264511 1_555
O5 Zr8 2.358976 1_555
O5 Zr7 2.358976 1_555
O5 Zr10 2.358976 1_555
O5 Zr6 2.358976 1_555
