# generated using pymatgen
data_Tb2Sc3Si4
_symmetry_space_group_name_H-M   'P 1'
_cell_length_a   7.09973811
_cell_length_b   7.41351266
_cell_length_c   14.00446414
_cell_angle_alpha   89.99998942
_cell_angle_beta   90.00006887
_cell_angle_gamma   90.00015478
_symmetry_Int_Tables_number   1
_chemical_formula_structural   Tb2Sc3Si4
_chemical_formula_sum   'Tb8 Sc12 Si16'
_cell_volume   737.11094259
_cell_formula_units_Z   4
loop_
 _symmetry_equiv_pos_site_id
 _symmetry_equiv_pos_as_xyz
  1  'x, y, z'
loop_
 _atom_site_type_symbol
 _atom_site_label
 _atom_site_symmetry_multiplicity
 _atom_site_fract_x
 _atom_site_fract_y
 _atom_site_fract_z
 _atom_site_occupancy
  Tb  Tb0  1  0.01185887  0.17570613  0.09751027  1
  Tb  Tb1  1  0.98814204  0.82429410  0.90249170  1
  Tb  Tb2  1  0.48814493  0.67571066  0.90249047  1
  Tb  Tb3  1  0.98814392  0.82429408  0.59751438  1
  Tb  Tb4  1  0.51185759  0.32428914  0.09751096  1
  Tb  Tb5  1  0.01185691  0.17570770  0.40248475  1
  Tb  Tb6  1  0.51185595  0.32428888  0.40248419  1
  Tb  Tb7  1  0.48814559  0.67571061  0.59751517  1
  Sc  Sc0  1  0.16256340  0.50278976  0.75001370  1
  Sc  Sc1  1  0.83743386  0.49719661  0.24998827  1
  Sc  Sc2  1  0.33743688  0.00279990  0.24998842  1
  Sc  Sc3  1  0.66255968  0.99721526  0.75001337  1
  Sc  Sc4  1  0.32972864  0.17669399  0.62547907  1
  Sc  Sc5  1  0.67027157  0.82331127  0.37452547  1
  Sc  Sc6  1  0.17027291  0.67668873  0.37452512  1
  Sc  Sc7  1  0.67027301  0.82330804  0.12545702  1
  Sc  Sc8  1  0.82972754  0.32330481  0.62548028  1
  Sc  Sc9  1  0.32972665  0.17669701  0.87453664  1
  Sc  Sc10  1  0.82972579  0.32330298  0.87453670  1
  Sc  Sc11  1  0.17027301  0.67669178  0.12545786  1
  Si  Si0  1  0.03362968  0.11663818  0.75000513  1
  Si  Si1  1  0.96637459  0.88336719  0.24999424  1
  Si  Si2  1  0.46637126  0.61663376  0.24999438  1
  Si  Si3  1  0.53363427  0.38336056  0.75000476  1
  Si  Si4  1  0.28570527  0.87357194  0.75000302  1
  Si  Si5  1  0.71428815  0.12643156  0.24999533  1
  Si  Si6  1  0.21428933  0.37356382  0.24999546  1
  Si  Si7  1  0.78570611  0.62643398  0.75000307  1
  Si  Si8  1  0.15710054  0.46502284  0.53884058  1
  Si  Si9  1  0.84290009  0.53497756  0.46114951  1
  Si  Si10  1  0.34290277  0.96502069  0.46115039  1
  Si  Si11  1  0.84289939  0.53498250  0.03884902  1
  Si  Si12  1  0.65710174  0.03497914  0.53884042  1
  Si  Si13  1  0.15709872  0.46502559  0.96116235  1
  Si  Si14  1  0.65709658  0.03497719  0.96116170  1
  Si  Si15  1  0.34290180  0.96501507  0.03884784  1
loop_
_geom_bond_atom_site_label_1
_geom_bond_atom_site_label_2
_geom_bond_distance
_geom_bond_site_symmetry_2
Sc0 Si3 2.779307 1_555
Sc0 Si7 2.828252 1_455
Sc0 Si4 2.884482 1_555
Sc0 Si13 2.970501 1_555
Sc0 Si8 2.970844 1_555
Sc0 Si0 3.005530 1_555
Sc1 Si2 2.779271 1_555
Sc1 Si6 2.828212 1_655
Sc1 Si5 2.884369 1_555
Sc1 Si11 2.970385 1_555
Sc1 Si9 2.970688 1_555
Sc1 Si1 3.005680 1_555
Sc2 Si1 2.779253 1_445
Sc2 Si5 2.828177 1_555
Sc2 Si6 2.884370 1_555
Sc2 Si15 2.970403 1_545
Sc2 Si10 2.970697 1_545
Sc2 Si2 3.005639 1_545
Sc3 Si0 2.779282 1_665
Sc3 Si4 2.828226 1_555
Sc3 Si7 2.884490 1_555
Sc3 Si14 2.970495 1_565
Sc3 Si12 2.970839 1_565
Sc3 Si3 3.005473 1_565
Sc4 Si3 2.735763 1_555
Sc4 Si8 2.746513 1_555
Sc4 Si0 2.767461 1_555
Sc4 Si10 2.787009 1_545
Sc4 Si12 2.824563 1_555
Sc4 Si4 2.861599 1_545
Sc5 Si2 2.735837 1_555
Sc5 Si9 2.746453 1_555
Sc5 Si1 2.767528 1_555
Sc5 Si12 2.786826 1_565
Sc5 Si10 2.824440 1_555
Sc5 Si5 2.861636 1_565
Sc6 Si1 2.735835 1_455
Sc6 Si10 2.746450 1_555
Sc6 Si2 2.767500 1_555
Sc6 Si8 2.786824 1_555
Sc6 Si9 2.824460 1_455
Sc6 Si6 2.861660 1_555
Sc7 Si2 2.735887 1_555
Sc7 Si11 2.746301 1_555
Sc7 Si1 2.767574 1_555
Sc7 Si14 2.786605 1_564
Sc7 Si15 2.824350 1_555
Sc7 Si5 2.861723 1_565
Sc8 Si0 2.735747 1_655
Sc8 Si12 2.746491 1_555
Sc8 Si3 2.767418 1_555
Sc8 Si9 2.787029 1_555
Sc8 Si8 2.824573 1_655
Sc8 Si7 2.861631 1_555
Sc9 Si3 2.735815 1_555
Sc9 Si13 2.746433 1_555
Sc9 Si0 2.767498 1_555
Sc9 Si15 2.786842 1_546
Sc9 Si14 2.824474 1_555
Sc9 Si4 2.861697 1_545
Sc10 Si0 2.735808 1_655
Sc10 Si14 2.746411 1_555
Sc10 Si3 2.767473 1_555
Sc10 Si11 2.786845 1_556
Sc10 Si13 2.824498 1_655
Sc10 Si7 2.861731 1_555
Sc11 Si1 2.735875 1_455
Sc11 Si15 2.746303 1_555
Sc11 Si2 2.767550 1_555
Sc11 Si13 2.786595 1_554
Sc11 Si11 2.824364 1_455
Sc11 Si6 2.861745 1_555
Si0 Si4 2.539695 1_545
Si0 Tb1 3.059705 1_445
Si0 Tb3 3.059745 1_445
Si1 Si5 2.539740 1_565
Si1 Tb0 3.059650 1_665
Si1 Tb5 3.059721 1_665
Si2 Si6 2.539739 1_555
Si2 Tb4 3.059678 1_555
Si2 Tb6 3.059740 1_555
Si3 Si7 2.539707 1_555
Si3 Tb2 3.059732 1_555
Si3 Tb7 3.059768 1_555
Si4 Tb2 2.962729 1_555
Si4 Tb7 2.962739 1_555
Si4 Tb3 3.026055 1_455
Si4 Tb1 3.026068 1_455
Si5 Tb4 2.962653 1_555
Si5 Tb6 2.962706 1_555
Si5 Tb0 3.026067 1_655
Si5 Tb5 3.026098 1_655
Si6 Tb0 2.962658 1_555
Si6 Tb5 2.962703 1_555
Si6 Tb4 3.026051 1_555
Si6 Tb6 3.026081 1_555
Si7 Tb1 2.962721 1_555
Si7 Tb3 2.962730 1_555
Si7 Tb7 3.026044 1_555
Si7 Tb2 3.026046 1_555
Si8 Si9 2.535538 1_455
Si8 Tb7 2.939199 1_555
Si8 Tb3 3.034493 1_455
Si8 Tb5 3.051266 1_555
Si8 Tb6 3.328489 1_555
Si9 Tb6 2.939161 1_555
Si9 Tb5 3.034450 1_655
Si9 Tb3 3.051352 1_555
Si9 Tb7 3.328556 1_555
Si10 Si12 2.535526 1_565
Si10 Tb5 2.939172 1_565
Si10 Tb6 3.034429 1_565
Si10 Tb7 3.051319 1_555
Si10 Tb3 3.328547 1_455
Si11 Si13 2.535510 1_654
Si11 Tb4 2.939154 1_555
Si11 Tb0 3.034486 1_655
Si11 Tb1 3.051259 1_554
Si11 Tb2 3.328484 1_554
Si12 Tb3 2.939176 1_545
Si12 Tb7 3.034472 1_545
Si12 Tb6 3.051249 1_555
Si12 Tb5 3.328465 1_655
Si13 Tb2 2.939185 1_555
Si13 Tb1 3.034462 1_455
Si13 Tb0 3.051211 1_556
Si13 Tb4 3.328447 1_556
Si14 Si15 2.535484 1_546
Si14 Tb1 2.939173 1_545
Si14 Tb2 3.034432 1_545
Si14 Tb4 3.051186 1_556
Si14 Tb0 3.328443 1_656
Si15 Tb0 2.939160 1_565
Si15 Tb4 3.034462 1_565
Si15 Tb2 3.051227 1_554
Si15 Tb1 3.328472 1_454
