# generated using pymatgen
data_PuOs2
_symmetry_space_group_name_H-M   'P 1'
_cell_length_a   5.34581269
_cell_length_b   5.34581269
_cell_length_c   8.74267100
_cell_angle_alpha   90.00000000
_cell_angle_beta   90.00000000
_cell_angle_gamma   120.00567666
_symmetry_Int_Tables_number   1
_chemical_formula_structural   PuOs2
_chemical_formula_sum   'Pu4 Os8'
_cell_volume   216.36021156
_cell_formula_units_Z   4
loop_
 _symmetry_equiv_pos_site_id
 _symmetry_equiv_pos_as_xyz
  1  'x, y, z'
loop_
 _atom_site_type_symbol
 _atom_site_label
 _atom_site_symmetry_multiplicity
 _atom_site_fract_x
 _atom_site_fract_y
 _atom_site_fract_z
 _atom_site_occupancy
  Pu  Pu0  1  0.66668100  0.33331900  0.56752500  1
  Pu  Pu1  1  0.33331900  0.66668100  0.43247500  1
  Pu  Pu2  1  0.33331900  0.66668100  0.06752500  1
  Pu  Pu3  1  0.66668100  0.33331900  0.93247500  1
  Os  Os0  1  0.00000000  0.00000000  0.50000000  1
  Os  Os1  1  0.00000000  0.00000000  0.00000000  1
  Os  Os2  1  0.17098900  0.34188200  0.75000000  1
  Os  Os3  1  0.17091200  0.82908800  0.75000000  1
  Os  Os4  1  0.65811800  0.82901100  0.75000000  1
  Os  Os5  1  0.82901100  0.65811800  0.25000000  1
  Os  Os6  1  0.82908800  0.17091200  0.25000000  1
  Os  Os7  1  0.34188200  0.17098900  0.25000000  1
loop_
_geom_bond_atom_site_label_1
_geom_bond_atom_site_label_2
_geom_bond_distance
_geom_bond_site_symmetry_2
Os0 Os3 2.698450 1_545
Os0 Os6 2.698450 1_455
Os0 Os2 2.698527 1_555
Os0 Os4 2.698527 1_445
Os0 Os7 2.698527 1_555
Os0 Os5 2.698527 1_445
Os0 Pu0 3.142250 1_555
Os0 Pu1 3.142250 1_555
Os0 Pu0 3.142250 1_445
Os0 Pu1 3.142250 1_445
Os0 Pu0 3.142315 1_455
Os0 Pu1 3.142315 1_545
Os1 Os3 2.698450 1_544
Os1 Os6 2.698450 1_455
Os1 Os4 2.698527 1_444
Os1 Os2 2.698527 1_554
Os1 Os7 2.698527 1_555
Os1 Os5 2.698527 1_445
Os1 Pu3 3.142250 1_554
Os1 Pu2 3.142250 1_555
Os1 Pu3 3.142250 1_444
Os1 Pu2 3.142250 1_445
Os1 Pu3 3.142315 1_454
Os1 Pu2 3.142315 1_545
Os2 Os4 2.603877 1_555
Os2 Os3 2.604718 1_555
Os2 Os3 2.741095 1_545
Os2 Os4 2.741477 1_445
Os2 Pu3 3.112926 1_555
Os2 Pu0 3.112926 1_555
Os2 Pu3 3.113162 1_455
Os2 Pu0 3.113162 1_455
Os2 Pu1 3.157072 1_555
Os2 Pu2 3.157072 1_556
Os3 Os4 2.604718 1_555
Os3 Os4 2.741095 1_455
Os3 Pu3 3.112841 1_565
Os3 Pu0 3.112841 1_565
Os3 Pu3 3.112841 1_455
Os3 Pu0 3.112841 1_455
Os3 Pu1 3.157166 1_555
Os3 Pu2 3.157166 1_556
Os4 Pu3 3.112926 1_555
Os4 Pu0 3.112926 1_555
Os4 Pu3 3.113162 1_565
Os4 Pu0 3.113162 1_565
Os4 Pu1 3.157072 1_555
Os4 Pu2 3.157072 1_556
Os5 Os7 2.603877 1_555
Os5 Os6 2.604718 1_555
Os5 Os6 2.741095 1_565
Os5 Os7 2.741477 1_665
Os5 Pu1 3.112926 1_555
Os5 Pu2 3.112926 1_555
Os5 Pu1 3.113162 1_655
Os5 Pu2 3.113162 1_655
Os5 Pu3 3.157072 1_554
Os5 Pu0 3.157072 1_555
Os6 Os7 2.604718 1_555
Os6 Os7 2.741095 1_655
Os6 Pu1 3.112841 1_655
Os6 Pu2 3.112841 1_655
Os6 Pu1 3.112841 1_545
Os6 Pu2 3.112841 1_545
Os6 Pu0 3.157166 1_555
Os6 Pu3 3.157166 1_554
Os7 Pu1 3.112926 1_555
Os7 Pu2 3.112926 1_555
Os7 Pu2 3.113162 1_545
Os7 Pu1 3.113162 1_545
Os7 Pu3 3.157072 1_554
Os7 Pu0 3.157072 1_555
