# generated using pymatgen
data_CoP6(N2O11)2
_symmetry_space_group_name_H-M   'P 1'
_cell_length_a   12.91872100
_cell_length_b   9.06103700
_cell_length_c   9.07462955
_cell_angle_alpha   85.86713894
_cell_angle_beta   90.00000000
_cell_angle_gamma   90.00000000
_symmetry_Int_Tables_number   1
_chemical_formula_structural   CoP6(N2O11)2
_chemical_formula_sum   'Co2 P12 N8 O44'
_cell_volume   1059.48673405
_cell_formula_units_Z   2
loop_
 _symmetry_equiv_pos_site_id
 _symmetry_equiv_pos_as_xyz
  1  'x, y, z'
loop_
 _atom_site_type_symbol
 _atom_site_label
 _atom_site_symmetry_multiplicity
 _atom_site_fract_x
 _atom_site_fract_y
 _atom_site_fract_z
 _atom_site_occupancy
  Co  Co0  1  0.50000000  0.50000000  0.00000000  1
  Co  Co1  1  0.00000000  0.00000000  0.00000000  1
  P  P0  1  0.83382600  0.18751400  0.13988900  1
  P  P1  1  0.33382600  0.31248600  0.86011100  1
  P  P2  1  0.16617400  0.81248600  0.86011100  1
  P  P3  1  0.66617400  0.68751400  0.13988900  1
  P  P4  1  0.83837900  0.23455900  0.45775200  1
  P  P5  1  0.33837900  0.26544100  0.54224800  1
  P  P6  1  0.16162100  0.76544100  0.54224800  1
  P  P7  1  0.66162100  0.73455900  0.45775200  1
  P  P8  1  0.94728200  0.44818100  0.24964400  1
  P  P9  1  0.44728200  0.05181900  0.75035600  1
  P  P10  1  0.05271800  0.55181900  0.75035600  1
  P  P11  1  0.55271800  0.94818100  0.24964400  1
  N  N0  1  0.64450300  0.32075700  0.49043700  1
  N  N1  1  0.14450300  0.17924300  0.50956300  1
  N  N2  1  0.35549700  0.67924300  0.50956300  1
  N  N3  1  0.85549700  0.82075700  0.49043700  1
  N  N4  1  0.64912700  0.03346000  0.78232900  1
  N  N5  1  0.14912700  0.46654000  0.21767100  1
  N  N6  1  0.35087300  0.96654000  0.21767100  1
  N  N7  1  0.85087300  0.53346000  0.78232900  1
  O  O0  1  0.78545500  0.19258100  0.30987700  1
  O  O1  1  0.28545500  0.30741900  0.69012300  1
  O  O2  1  0.21454500  0.80741900  0.69012300  1
  O  O3  1  0.71454500  0.69258100  0.30987700  1
  O  O4  1  0.90041100  0.34759100  0.13384900  1
  O  O5  1  0.40041100  0.15240900  0.86615100  1
  O  O6  1  0.09958900  0.65240900  0.86615100  1
  O  O7  1  0.59958900  0.84759100  0.13384900  1
  O  O8  1  0.75080400  0.20038600  0.03067200  1
  O  O9  1  0.25080400  0.29961400  0.96932800  1
  O  O10  1  0.24919600  0.79961400  0.96932800  1
  O  O11  1  0.74919600  0.70038600  0.03067200  1
  O  O12  1  0.91167000  0.06133700  0.16131000  1
  O  O13  1  0.41167000  0.43866300  0.83869000  1
  O  O14  1  0.08833000  0.93866300  0.83869000  1
  O  O15  1  0.58833000  0.56133700  0.16131000  1
  O  O16  1  0.90570600  0.38201400  0.40845000  1
  O  O17  1  0.40570600  0.11798600  0.59155000  1
  O  O18  1  0.09429400  0.61798600  0.59155000  1
  O  O19  1  0.59429400  0.88201400  0.40845000  1
  O  O20  1  0.73843000  0.31103200  0.54450200  1
  O  O21  1  0.23843000  0.18896800  0.45549800  1
  O  O22  1  0.26157000  0.68896800  0.45549800  1
  O  O23  1  0.76157000  0.81103200  0.54450200  1
  O  O24  1  0.89039200  0.12546900  0.55628900  1
  O  O25  1  0.39039200  0.37453100  0.44371100  1
  O  O26  1  0.10960800  0.87453100  0.44371100  1
  O  O27  1  0.60960800  0.62546900  0.55628900  1
  O  O28  1  0.57366000  0.11780600  0.73926500  1
  O  O29  1  0.07366000  0.38219400  0.26073500  1
  O  O30  1  0.42634000  0.88219400  0.26073500  1
  O  O31  1  0.92634000  0.61780600  0.73926500  1
  O  O32  1  0.55557300  0.10783800  0.22325900  1
  O  O33  1  0.05557300  0.39216200  0.77674100  1
  O  O34  1  0.44442700  0.89216200  0.77674100  1
  O  O35  1  0.94442700  0.60783800  0.22325900  1
  O  O36  1  0.93619100  0.12607500  0.87454600  1
  O  O37  1  0.43619100  0.37392500  0.12545400  1
  O  O38  1  0.06380900  0.87392500  0.12545400  1
  O  O39  1  0.56381000  0.62607500  0.87454600  1
  O  O40  1  0.59991100  0.39739000  0.92448700  1
  O  O41  1  0.09991100  0.10261000  0.07551300  1
  O  O42  1  0.40008900  0.60261000  0.07551300  1
  O  O43  1  0.90008900  0.89739000  0.92448700  1
loop_
_geom_bond_atom_site_label_1
_geom_bond_atom_site_label_2
_geom_bond_distance
_geom_bond_site_symmetry_2
Co0 O40 1.758354 1_554
Co0 O42 1.758354 1_555
Co0 O37 1.758732 1_555
Co0 O39 1.758738 1_554
Co0 O15 1.967506 1_555
Co0 O13 1.967506 1_554
Co1 O41 1.758354 1_555
Co1 O43 1.758354 1_444
Co1 O38 1.758732 1_545
Co1 O36 1.758732 1_454
Co1 O12 1.967506 1_455
Co1 O14 1.967506 1_544
N0 O20 1.309435 1_555
N1 O21 1.309435 1_555
N2 O22 1.309435 1_555
N3 O23 1.309435 1_555
N4 O28 1.282290 1_555
N5 O29 1.282290 1_555
N6 O30 1.282290 1_555
N7 O31 1.282290 1_555
O0 P4 1.576842 1_555
O0 P0 1.668039 1_555
O1 P5 1.576842 1_555
O1 P1 1.668039 1_555
O2 P6 1.576842 1_555
O2 P2 1.668039 1_555
O3 P7 1.576842 1_555
O3 P3 1.668039 1_555
O4 P8 1.561925 1_555
O4 P0 1.683841 1_555
O5 P9 1.561925 1_555
O5 P1 1.683841 1_555
O6 P10 1.561925 1_555
O6 P2 1.683841 1_555
O7 P11 1.561925 1_555
O7 P3 1.683841 1_555
O8 P0 1.459303 1_555
O9 P1 1.459303 1_555
O10 P2 1.459303 1_555
O11 P3 1.459303 1_555
O12 P0 1.524532 1_555
O13 P1 1.524532 1_555
O14 P2 1.524532 1_555
O15 P3 1.524532 1_555
O16 P8 1.612509 1_555
O16 P4 1.629622 1_555
O17 P9 1.612509 1_555
O17 P5 1.629622 1_555
O18 P10 1.612509 1_555
O18 P6 1.629622 1_555
O19 P11 1.612509 1_555
O19 P7 1.629622 1_555
O20 P4 1.686927 1_555
O21 P5 1.686927 1_555
O22 P6 1.686927 1_555
O23 P7 1.686927 1_555
O24 P4 1.449394 1_555
O25 P5 1.449394 1_555
O26 P6 1.449394 1_555
O27 P7 1.449394 1_555
O28 P9 1.739101 1_555
O29 P8 1.739101 1_455
O30 P11 1.739101 1_555
O31 P10 1.739101 1_655
O32 P11 1.449683 1_545
O33 P10 1.449683 1_555
O34 P9 1.449683 1_565
O35 P8 1.449683 1_555
