# generated using pymatgen
data_Gd
_symmetry_space_group_name_H-M   'P 1'
_cell_length_a   7.31104092
_cell_length_b   7.31104166
_cell_length_c   23.55921392
_cell_angle_alpha   90.00000000
_cell_angle_beta   90.00000000
_cell_angle_gamma   120.00000672
_symmetry_Int_Tables_number   1
_chemical_formula_structural   Gd
_chemical_formula_sum   Gd32
_cell_volume   1090.56077090
_cell_formula_units_Z   32
loop_
 _symmetry_equiv_pos_site_id
 _symmetry_equiv_pos_as_xyz
  1  'x, y, z'
loop_
 _atom_site_type_symbol
 _atom_site_label
 _atom_site_symmetry_multiplicity
 _atom_site_fract_x
 _atom_site_fract_y
 _atom_site_fract_z
 _atom_site_occupancy
  Gd  Gd0_0  1  0.00000000  0.00000000  0.00000000  1
  Gd  Gd0_1  1  0.00000000  0.00000000  0.50000000  1
  Gd  Gd0_2  1  0.00000000  0.50000000  0.00000000  1
  Gd  Gd0_3  1  0.00000000  0.50000000  0.50000000  1
  Gd  Gd0_4  1  0.50000000  0.00000000  0.00000000  1
  Gd  Gd0_5  1  0.50000000  0.00000000  0.50000000  1
  Gd  Gd0_6  1  0.50000000  0.50000000  0.00000000  1
  Gd  Gd0_7  1  0.50000000  0.50000000  0.50000000  1
  Gd  Gd1_0  1  0.00000000  0.00000000  0.25000000  1
  Gd  Gd1_1  1  0.00000000  0.00000000  0.75000000  1
  Gd  Gd1_2  1  0.00000000  0.50000000  0.25000000  1
  Gd  Gd1_3  1  0.00000000  0.50000000  0.75000000  1
  Gd  Gd1_4  1  0.50000000  0.00000000  0.25000000  1
  Gd  Gd1_5  1  0.50000000  0.00000000  0.75000000  1
  Gd  Gd1_6  1  0.50000000  0.50000000  0.25000000  1
  Gd  Gd1_7  1  0.50000000  0.50000000  0.75000000  1
  Gd  Gd2_0  1  0.16666650  0.33333350  0.12404174  1
  Gd  Gd2_1  1  0.16666650  0.33333350  0.62404174  1
  Gd  Gd2_2  1  0.16666650  0.83333350  0.12404174  1
  Gd  Gd2_3  1  0.16666650  0.83333350  0.62404174  1
  Gd  Gd2_4  1  0.66666650  0.33333350  0.12404174  1
  Gd  Gd2_5  1  0.66666650  0.33333350  0.62404174  1
  Gd  Gd2_6  1  0.66666650  0.83333350  0.12404174  1
  Gd  Gd2_7  1  0.66666650  0.83333350  0.62404174  1
  Gd  Gd3_0  1  0.33333350  0.16666650  0.37595826  1
  Gd  Gd3_1  1  0.33333350  0.16666650  0.87595826  1
  Gd  Gd3_2  1  0.33333350  0.66666650  0.37595826  1
  Gd  Gd3_3  1  0.33333350  0.66666650  0.87595826  1
  Gd  Gd3_4  1  0.83333350  0.16666650  0.37595826  1
  Gd  Gd3_5  1  0.83333350  0.16666650  0.87595826  1
  Gd  Gd3_6  1  0.83333350  0.66666650  0.37595826  1
  Gd  Gd3_7  1  0.83333350  0.66666650  0.87595826  1
loop_
_geom_bond_atom_site_label_1
_geom_bond_atom_site_label_2
_geom_bond_distance
_geom_bond_site_symmetry_2
Gd0_0 Gd2_2 3.604755 1_545
Gd0_0 Gd3_5 3.604755 1_454
Gd0_0 Gd3_1 3.604756 1_554
Gd0_0 Gd2_6 3.604756 1_445
Gd0_0 Gd2_0 3.604757 1_555
Gd0_0 Gd3_7 3.604757 1_444
Gd0_0 Gd0_6 3.655520 1_445
Gd0_0 Gd0_6 3.655520 1_555
Gd0_0 Gd0_4 3.655520 1_555
Gd0_0 Gd0_4 3.655520 1_455
Gd0_0 Gd0_2 3.655521 1_545
Gd0_0 Gd0_2 3.655521 1_555
Gd0_1 Gd2_3 3.604755 1_545
Gd0_1 Gd3_4 3.604755 1_455
Gd0_1 Gd3_0 3.604756 1_555
Gd0_1 Gd2_7 3.604756 1_445
Gd0_1 Gd2_1 3.604757 1_555
Gd0_1 Gd3_6 3.604757 1_445
Gd0_1 Gd0_7 3.655520 1_555
Gd0_1 Gd0_7 3.655520 1_445
Gd0_1 Gd0_5 3.655520 1_555
Gd0_1 Gd0_5 3.655520 1_455
Gd0_1 Gd0_3 3.655521 1_545
Gd0_1 Gd0_3 3.655521 1_555
Gd0_2 Gd2_0 3.604755 1_555
Gd0_2 Gd3_7 3.604755 1_454
Gd0_2 Gd2_4 3.604756 1_455
Gd0_2 Gd3_3 3.604756 1_554
Gd0_2 Gd2_2 3.604757 1_555
Gd0_2 Gd3_5 3.604757 1_454
Gd0_2 Gd0_4 3.655520 1_565
Gd0_2 Gd0_4 3.655520 1_455
Gd0_2 Gd0_6 3.655520 1_555
Gd0_2 Gd0_6 3.655520 1_455
Gd0_3 Gd2_1 3.604755 1_555
Gd0_3 Gd3_6 3.604755 1_455
Gd0_3 Gd3_2 3.604756 1_555
Gd0_3 Gd2_5 3.604756 1_455
Gd0_3 Gd2_3 3.604757 1_555
Gd0_3 Gd3_4 3.604757 1_455
Gd0_3 Gd0_5 3.655520 1_455
Gd0_3 Gd0_5 3.655520 1_565
Gd0_3 Gd0_7 3.655520 1_555
Gd0_3 Gd0_7 3.655520 1_455
Gd0_4 Gd2_6 3.604755 1_545
Gd0_4 Gd3_1 3.604755 1_554
Gd0_4 Gd2_2 3.604756 1_545
Gd0_4 Gd3_5 3.604756 1_554
Gd0_4 Gd2_4 3.604757 1_555
Gd0_4 Gd3_3 3.604757 1_544
Gd0_4 Gd0_6 3.655521 1_555
Gd0_4 Gd0_6 3.655521 1_545
Gd0_5 Gd3_0 3.604755 1_555
Gd0_5 Gd2_7 3.604755 1_545
Gd0_5 Gd2_3 3.604756 1_545
Gd0_5 Gd3_4 3.604756 1_555
Gd0_5 Gd3_2 3.604757 1_545
Gd0_5 Gd2_5 3.604757 1_555
Gd0_5 Gd0_7 3.655521 1_555
Gd0_5 Gd0_7 3.655521 1_545
Gd0_6 Gd3_3 3.604755 1_554
Gd0_6 Gd2_4 3.604755 1_555
Gd0_6 Gd2_0 3.604756 1_555
Gd0_6 Gd3_7 3.604756 1_554
Gd0_6 Gd2_6 3.604757 1_555
Gd0_6 Gd3_1 3.604757 1_554
Gd0_7 Gd2_5 3.604755 1_555
Gd0_7 Gd3_2 3.604755 1_555
Gd0_7 Gd3_6 3.604756 1_555
Gd0_7 Gd2_1 3.604756 1_555
Gd0_7 Gd2_7 3.604757 1_555
Gd0_7 Gd3_0 3.604757 1_555
Gd1_0 Gd3_4 3.641455 1_455
Gd1_0 Gd2_2 3.641455 1_545
Gd1_0 Gd3_0 3.641456 1_555
Gd1_0 Gd2_6 3.641456 1_445
Gd1_0 Gd3_6 3.641456 1_445
Gd1_0 Gd2_0 3.641456 1_555
Gd1_0 Gd1_6 3.655520 1_555
Gd1_0 Gd1_6 3.655520 1_445
Gd1_0 Gd1_4 3.655520 1_555
Gd1_0 Gd1_4 3.655520 1_455
Gd1_0 Gd1_2 3.655521 1_545
Gd1_0 Gd1_2 3.655521 1_555
Gd1_1 Gd3_5 3.641455 1_455
Gd1_1 Gd2_3 3.641455 1_545
Gd1_1 Gd3_1 3.641456 1_555
Gd1_1 Gd2_7 3.641456 1_445
Gd1_1 Gd3_7 3.641456 1_445
Gd1_1 Gd2_1 3.641456 1_555
Gd1_1 Gd1_7 3.655520 1_445
Gd1_1 Gd1_7 3.655520 1_555
Gd1_1 Gd1_5 3.655520 1_555
Gd1_1 Gd1_5 3.655520 1_455
Gd1_1 Gd1_3 3.655521 1_545
Gd1_1 Gd1_3 3.655521 1_555
Gd1_2 Gd2_0 3.641455 1_555
Gd1_2 Gd3_6 3.641455 1_455
Gd1_2 Gd3_2 3.641456 1_555
Gd1_2 Gd2_4 3.641456 1_455
Gd1_2 Gd2_2 3.641456 1_555
Gd1_2 Gd3_4 3.641456 1_455
Gd1_2 Gd1_4 3.655520 1_455
Gd1_2 Gd1_4 3.655520 1_565
Gd1_2 Gd1_6 3.655520 1_555
Gd1_2 Gd1_6 3.655520 1_455
Gd1_3 Gd2_1 3.641455 1_555
Gd1_3 Gd3_7 3.641455 1_455
Gd1_3 Gd3_3 3.641456 1_555
Gd1_3 Gd2_5 3.641456 1_455
Gd1_3 Gd2_3 3.641456 1_555
Gd1_3 Gd3_5 3.641456 1_455
Gd1_3 Gd1_5 3.655520 1_565
Gd1_3 Gd1_5 3.655520 1_455
Gd1_3 Gd1_7 3.655520 1_555
Gd1_3 Gd1_7 3.655520 1_455
Gd1_4 Gd2_6 3.641455 1_545
Gd1_4 Gd3_0 3.641455 1_555
Gd1_4 Gd3_4 3.641456 1_555
Gd1_4 Gd2_2 3.641456 1_545
Gd1_4 Gd3_2 3.641456 1_545
Gd1_4 Gd2_4 3.641456 1_555
Gd1_4 Gd1_6 3.655521 1_545
Gd1_4 Gd1_6 3.655521 1_555
Gd1_5 Gd2_7 3.641455 1_545
Gd1_5 Gd3_1 3.641455 1_555
Gd1_5 Gd3_5 3.641456 1_555
Gd1_5 Gd2_3 3.641456 1_545
Gd1_5 Gd2_5 3.641456 1_555
Gd1_5 Gd3_3 3.641456 1_545
Gd1_5 Gd1_7 3.655521 1_555
Gd1_5 Gd1_7 3.655521 1_545
Gd1_6 Gd2_4 3.641455 1_555
Gd1_6 Gd3_2 3.641455 1_555
Gd1_6 Gd3_6 3.641456 1_555
Gd1_6 Gd2_0 3.641456 1_555
Gd1_6 Gd2_6 3.641456 1_555
Gd1_6 Gd3_0 3.641456 1_555
Gd1_7 Gd3_3 3.641455 1_555
Gd1_7 Gd2_5 3.641455 1_555
Gd1_7 Gd2_1 3.641456 1_555
Gd1_7 Gd3_7 3.641456 1_555
Gd1_7 Gd2_7 3.641456 1_555
Gd1_7 Gd3_1 3.641456 1_555
Gd2_0 Gd2_6 3.655520 1_555
Gd2_0 Gd2_6 3.655520 1_445
Gd2_0 Gd2_4 3.655520 1_455
Gd2_0 Gd2_4 3.655520 1_555
Gd2_0 Gd2_2 3.655521 1_545
Gd2_0 Gd2_2 3.655521 1_555
Gd2_1 Gd2_7 3.655520 1_555
Gd2_1 Gd2_7 3.655520 1_445
Gd2_1 Gd2_5 3.655520 1_455
Gd2_1 Gd2_5 3.655520 1_555
Gd2_1 Gd2_3 3.655521 1_545
Gd2_1 Gd2_3 3.655521 1_555
Gd2_2 Gd2_4 3.655520 1_455
Gd2_2 Gd2_4 3.655520 1_565
Gd2_2 Gd2_6 3.655520 1_555
Gd2_2 Gd2_6 3.655520 1_455
Gd2_3 Gd2_5 3.655520 1_455
Gd2_3 Gd2_5 3.655520 1_565
Gd2_3 Gd2_7 3.655520 1_555
Gd2_3 Gd2_7 3.655520 1_455
Gd2_4 Gd2_6 3.655521 1_545
Gd2_4 Gd2_6 3.655521 1_555
Gd2_5 Gd2_7 3.655521 1_545
Gd2_5 Gd2_7 3.655521 1_555
Gd3_0 Gd3_6 3.655520 1_555
Gd3_0 Gd3_6 3.655520 1_445
Gd3_0 Gd3_4 3.655520 1_455
Gd3_0 Gd3_4 3.655520 1_555
Gd3_0 Gd3_2 3.655521 1_555
Gd3_0 Gd3_2 3.655521 1_545
Gd3_1 Gd3_7 3.655520 1_555
Gd3_1 Gd3_7 3.655520 1_445
Gd3_1 Gd3_5 3.655520 1_455
Gd3_1 Gd3_5 3.655520 1_555
Gd3_1 Gd3_3 3.655521 1_555
Gd3_1 Gd3_3 3.655521 1_545
Gd3_2 Gd3_4 3.655520 1_455
Gd3_2 Gd3_4 3.655520 1_565
Gd3_2 Gd3_6 3.655520 1_555
Gd3_2 Gd3_6 3.655520 1_455
Gd3_3 Gd3_5 3.655520 1_455
Gd3_3 Gd3_5 3.655520 1_565
Gd3_3 Gd3_7 3.655520 1_555
Gd3_3 Gd3_7 3.655520 1_455
Gd3_4 Gd3_6 3.655521 1_545
Gd3_4 Gd3_6 3.655521 1_555
Gd3_5 Gd3_7 3.655521 1_545
Gd3_5 Gd3_7 3.655521 1_555
