# generated using pymatgen
data_Mg(FeO2)2
_symmetry_space_group_name_H-M   'P 1'
_cell_length_a   6.04956837
_cell_length_b   6.04956837
_cell_length_c   14.80643700
_cell_angle_alpha   90.00000000
_cell_angle_beta   90.00000000
_cell_angle_gamma   120.00000407
_symmetry_Int_Tables_number   1
_chemical_formula_structural   Mg(FeO2)2
_chemical_formula_sum   'Mg6 Fe12 O24'
_cell_volume   469.27774200
_cell_formula_units_Z   6
loop_
 _symmetry_equiv_pos_site_id
 _symmetry_equiv_pos_as_xyz
  1  'x, y, z'
loop_
 _atom_site_type_symbol
 _atom_site_label
 _atom_site_symmetry_multiplicity
 _atom_site_fract_x
 _atom_site_fract_y
 _atom_site_fract_z
 _atom_site_occupancy
  Mg  Mg0  1  0.00000000  0.00000000  0.04518300  1
  Mg  Mg1  1  0.33333300  0.66666700  0.37932900  1
  Mg  Mg2  1  0.66666700  0.33333300  0.33558700  1
  Mg  Mg3  1  0.66666700  0.33333300  0.70860800  1
  Mg  Mg4  1  0.33333300  0.66666700  0.00206000  1
  Mg  Mg5  1  0.33333300  0.66666700  0.62260500  1
  Fe  Fe0  1  0.49639400  0.99278800  0.16588400  1
  Fe  Fe1  1  0.49639400  0.50360600  0.16588400  1
  Fe  Fe2  1  0.83078200  0.66156300  0.49867700  1
  Fe  Fe3  1  0.00721200  0.50360600  0.16588400  1
  Fe  Fe4  1  0.83078200  0.16921800  0.49867700  1
  Fe  Fe5  1  0.00000000  0.00000000  0.66347700  1
  Fe  Fe6  1  0.00000000  0.00000000  0.28747000  1
  Fe  Fe7  1  0.16493100  0.32986300  0.83229400  1
  Fe  Fe8  1  0.33843700  0.16921800  0.49867700  1
  Fe  Fe9  1  0.16493100  0.83506900  0.83229400  1
  Fe  Fe10  1  0.67013700  0.83506900  0.83229400  1
  Fe  Fe11  1  0.66666700  0.33333300  0.95648400  1
  O  O0  1  0.17888800  0.35777700  0.08965400  1
  O  O1  1  0.33333300  0.66666700  0.24224100  1
  O  O2  1  0.17888800  0.82111200  0.08965400  1
  O  O3  1  0.64222300  0.82111200  0.08965400  1
  O  O4  1  0.51163100  0.02326300  0.42376200  1
  O  O5  1  0.35175900  0.17587900  0.24545300  1
  O  O6  1  0.66666700  0.33333300  0.57499300  1
  O  O7  1  0.82412100  0.17587900  0.24545300  1
  O  O8  1  0.66666700  0.33333300  0.08898200  1
  O  O9  1  0.51163100  0.48836900  0.42376200  1
  O  O10  1  0.97673700  0.48836900  0.42376200  1
  O  O11  1  0.82412100  0.64824100  0.24545300  1
  O  O12  1  0.84707700  0.69415400  0.75354300  1
  O  O13  1  0.69569400  0.84784700  0.57975000  1
  O  O14  1  0.15215300  0.84784700  0.57975000  1
  O  O15  1  0.00000000  0.00000000  0.90756000  1
  O  O16  1  0.00000000  0.00000000  0.41964100  1
  O  O17  1  0.84707700  0.15292300  0.75354300  1
  O  O18  1  0.30584600  0.15292300  0.75354300  1
  O  O19  1  0.15215300  0.30430600  0.57975000  1
  O  O20  1  0.01510000  0.50755000  0.91249800  1
  O  O21  1  0.49245000  0.50755000  0.91249800  1
  O  O22  1  0.33333300  0.66666700  0.76131700  1
  O  O23  1  0.49245000  0.98490000  0.91249800  1
loop_
_geom_bond_atom_site_label_1
_geom_bond_atom_site_label_2
_geom_bond_distance
_geom_bond_site_symmetry_2
Mg0 O2 1.986707 1_545
Mg0 O0 1.986712 1_555
Mg0 O3 1.986712 1_445
Mg0 O15 2.037706 1_554
Mg1 O4 1.980688 1_565
Mg1 O10 1.980688 1_455
Mg1 O9 1.980689 1_555
Mg1 O1 2.029785 1_555
Mg2 O10 2.084087 1_555
Mg2 O4 2.084087 1_555
Mg2 O9 2.084096 1_555
Mg2 O11 2.122025 1_555
Mg2 O5 2.122025 1_555
Mg2 O7 2.122026 1_555
Mg3 O6 1.978362 1_555
Mg3 O17 2.004031 1_555
Mg3 O18 2.004036 1_555
Mg3 O12 2.004036 1_555
Mg4 O3 2.073882 1_555
Mg4 O0 2.073882 1_555
Mg4 O2 2.073882 1_555
Mg4 O23 2.130315 1_554
Mg4 O20 2.130315 1_554
Mg4 O21 2.130319 1_554
Mg5 O14 2.001668 1_555
Mg5 O19 2.001673 1_555
Mg5 O13 2.001673 1_555
Mg5 O22 2.053830 1_555
Fe0 O3 2.011735 1_555
Fe0 O2 2.011739 1_555
Fe0 O1 2.048762 1_555
Fe0 O5 2.085560 1_565
Fe0 O7 2.085564 1_565
Fe0 O8 2.116524 1_565
Fe1 O3 2.011739 1_555
Fe1 O0 2.011739 1_555
Fe1 O1 2.048766 1_555
Fe1 O5 2.085564 1_555
Fe1 O11 2.085564 1_555
Fe1 O8 2.116529 1_555
Fe2 O10 2.008210 1_555
Fe2 O9 2.008219 1_555
Fe2 O6 2.057652 1_555
Fe2 O14 2.073585 1_655
Fe2 O13 2.073589 1_555
Fe2 O16 2.124463 1_665
Fe3 O0 2.011735 1_555
Fe3 O2 2.011739 1_555
Fe3 O1 2.048762 1_555
Fe3 O11 2.085560 1_455
Fe3 O7 2.085564 1_455
Fe3 O8 2.116524 1_455
Fe4 O10 2.008219 1_555
Fe4 O4 2.008219 1_555
Fe4 O6 2.057652 1_555
Fe4 O13 2.073584 1_545
Fe4 O19 2.073584 1_655
Fe4 O16 2.124459 1_655
Fe5 O13 2.019552 1_445
Fe5 O19 2.019552 1_555
Fe5 O14 2.019553 1_545
Fe5 O12 2.084683 1_445
Fe5 O18 2.084683 1_555
Fe5 O17 2.084683 1_455
Fe6 O7 1.945064 1_455
Fe6 O5 1.945069 1_555
Fe6 O11 1.945069 1_445
Fe6 O16 1.956982 1_555
Fe7 O17 2.035824 1_455
Fe7 O18 2.035828 1_555
Fe7 O22 2.053786 1_555
Fe7 O15 2.056340 1_555
Fe7 O20 2.088451 1_555
Fe7 O21 2.088455 1_555
Fe8 O4 2.008210 1_555
Fe8 O9 2.008219 1_555
Fe8 O6 2.057652 1_555
Fe8 O14 2.073585 1_545
Fe8 O19 2.073589 1_555
Fe8 O16 2.124463 1_555
Fe9 O12 2.035824 1_455
Fe9 O18 2.035824 1_565
Fe9 O22 2.053786 1_555
Fe9 O15 2.056336 1_565
Fe9 O23 2.088456 1_555
Fe9 O20 2.088456 1_555
Fe10 O17 2.035824 1_565
Fe10 O12 2.035828 1_555
Fe10 O22 2.053786 1_555
Fe10 O15 2.056340 1_665
Fe10 O23 2.088451 1_555
Fe10 O21 2.088455 1_555
Fe11 O20 1.938168 1_655
Fe11 O23 1.938168 1_545
Fe11 O21 1.938173 1_555
Fe11 O8 1.961823 1_556
