# generated using pymatgen
data_CuTeNO4
_symmetry_space_group_name_H-M   'P 1'
_cell_length_a   8.30359502
_cell_length_b   8.30359502
_cell_length_c   10.37236729
_cell_angle_alpha   88.35976869
_cell_angle_beta   88.35976869
_cell_angle_gamma   53.07808766
_symmetry_Int_Tables_number   1
_chemical_formula_structural   CuTeNO4
_chemical_formula_sum   'Cu4 Te4 N4 O16'
_cell_volume   571.45470702
_cell_formula_units_Z   4
loop_
 _symmetry_equiv_pos_site_id
 _symmetry_equiv_pos_as_xyz
  1  'x, y, z'
loop_
 _atom_site_type_symbol
 _atom_site_label
 _atom_site_symmetry_multiplicity
 _atom_site_fract_x
 _atom_site_fract_y
 _atom_site_fract_z
 _atom_site_occupancy
  Cu  Cu0  1  0.22444300  0.35450200  0.50563100  1
  Cu  Cu1  1  0.64549800  0.77555700  0.99436900  1
  Cu  Cu2  1  0.77555700  0.64549800  0.49436900  1
  Cu  Cu3  1  0.35450200  0.22444300  0.00563100  1
  Te  Te0  1  0.05553400  0.40164400  0.78593000  1
  Te  Te1  1  0.59835600  0.94446600  0.71407000  1
  Te  Te2  1  0.94446600  0.59835600  0.21407000  1
  Te  Te3  1  0.40164400  0.05553400  0.28593000  1
  N  N0  1  0.18247100  0.77084400  0.34023200  1
  N  N1  1  0.22915600  0.81752900  0.15976800  1
  N  N2  1  0.81752900  0.22915600  0.65976800  1
  N  N3  1  0.77084400  0.18247100  0.84023200  1
  O  O0  1  0.00531700  0.54188100  0.61967500  1
  O  O1  1  0.45811900  0.99468300  0.88032500  1
  O  O2  1  0.99468300  0.45811900  0.38032500  1
  O  O3  1  0.54188100  0.00531700  0.11967500  1
  O  O4  1  0.45210100  0.20199600  0.39272200  1
  O  O5  1  0.79800400  0.54789900  0.10727800  1
  O  O6  1  0.54789900  0.79800400  0.60727800  1
  O  O7  1  0.20199600  0.45210100  0.89272200  1
  O  O8  1  0.32526000  0.20782200  0.66762400  1
  O  O9  1  0.79217800  0.67474000  0.83237600  1
  O  O10  1  0.67474000  0.79217800  0.33237600  1
  O  O11  1  0.20782200  0.32526000  0.16762400  1
  O  O12  1  0.33423800  0.66576200  0.25000000  1
  O  O13  1  0.66576200  0.33423800  0.75000000  1
  O  O14  1  0.92319900  0.07680100  0.75000000  1
  O  O15  1  0.07680100  0.92319900  0.25000000  1
loop_
_geom_bond_atom_site_label_1
_geom_bond_atom_site_label_2
_geom_bond_distance
_geom_bond_site_symmetry_2
Cu0 O4 1.905455 1_555
Cu0 O0 1.926561 1_555
Cu0 O8 1.935421 1_555
Cu0 O2 2.043317 1_455
Cu1 O5 1.905455 1_556
Cu1 O1 1.926561 1_555
Cu1 O9 1.935421 1_555
Cu1 O3 2.043317 1_566
Cu2 O6 1.905455 1_555
Cu2 O2 1.926561 1_555
Cu2 O10 1.935421 1_555
Cu2 O0 2.043317 1_655
Cu3 O7 1.905455 1_554
Cu3 O3 1.926561 1_555
Cu3 O11 1.935421 1_555
Cu3 O1 2.043317 1_544
N0 O12 1.372421 1_555
N0 O15 1.375454 1_555
N1 O12 1.372421 1_555
N1 O15 1.375454 1_555
N2 O13 1.372421 1_555
N2 O14 1.375454 1_555
N3 O13 1.372421 1_555
N3 O14 1.375454 1_555
O0 Te0 1.961237 1_555
O1 Te1 1.961237 1_555
O2 Te2 1.961237 1_555
O3 Te3 1.961237 1_555
O4 Te3 1.896689 1_555
O5 Te2 1.896689 1_555
O6 Te1 1.896689 1_555
O7 Te0 1.896689 1_555
O8 Te1 2.049592 1_545
O8 Te0 2.176518 1_555
O9 Te0 2.049592 1_655
O9 Te1 2.176518 1_555
O10 Te3 2.049592 1_565
O10 Te2 2.176518 1_555
O11 Te2 2.049592 1_455
O11 Te3 2.176518 1_555
