# generated using pymatgen
data_KCo2(PO4)2
_symmetry_space_group_name_H-M   'P 1'
_cell_length_a   9.62724904
_cell_length_b   9.62724904
_cell_length_c   8.93432789
_cell_angle_alpha   83.14139793
_cell_angle_beta   83.14139793
_cell_angle_gamma   89.25574225
_symmetry_Int_Tables_number   1
_chemical_formula_structural   KCo2(PO4)2
_chemical_formula_sum   'K4 Co8 P8 O32'
_cell_volume   816.25878679
_cell_formula_units_Z   4
loop_
 _symmetry_equiv_pos_site_id
 _symmetry_equiv_pos_as_xyz
  1  'x, y, z'
loop_
 _atom_site_type_symbol
 _atom_site_label
 _atom_site_symmetry_multiplicity
 _atom_site_fract_x
 _atom_site_fract_y
 _atom_site_fract_z
 _atom_site_occupancy
  K  K0  1  0.43445100  0.93094300  0.77990000  1
  K  K1  1  0.56554900  0.06905700  0.22010000  1
  K  K2  1  0.06905700  0.56554900  0.72010000  1
  K  K3  1  0.93094300  0.43445100  0.27990000  1
  Co  Co0  1  0.54576500  0.29972300  0.54933900  1
  Co  Co1  1  0.45423500  0.70027700  0.45066100  1
  Co  Co2  1  0.70027700  0.45423500  0.95066100  1
  Co  Co3  1  0.29972300  0.54576500  0.04933900  1
  Co  Co4  1  0.80846000  0.93324100  0.88578500  1
  Co  Co5  1  0.19154000  0.06675900  0.11421500  1
  Co  Co6  1  0.06675900  0.19154000  0.61421500  1
  Co  Co7  1  0.93324100  0.80846000  0.38578500  1
  P  P0  1  0.78521500  0.06396700  0.52693700  1
  P  P1  1  0.21478500  0.93603300  0.47306300  1
  P  P2  1  0.93603300  0.21478500  0.97306300  1
  P  P3  1  0.06396700  0.78521500  0.02693700  1
  P  P4  1  0.42044600  0.28502000  0.91237900  1
  P  P5  1  0.57955400  0.71498000  0.08762100  1
  P  P6  1  0.71498000  0.57955400  0.58762100  1
  P  P7  1  0.28502000  0.42044600  0.41237900  1
  O  O0  1  0.63805200  0.85063100  0.99308800  1
  O  O1  1  0.36194800  0.14936900  0.00691200  1
  O  O2  1  0.14936900  0.36194800  0.50691200  1
  O  O3  1  0.85063100  0.63805200  0.49308800  1
  O  O4  1  0.59266200  0.68624600  0.59045100  1
  O  O5  1  0.40733800  0.31375500  0.40954900  1
  O  O6  1  0.31375400  0.40733800  0.90954900  1
  O  O7  1  0.68624500  0.59266200  0.09045100  1
  O  O8  1  0.76472200  0.97639700  0.68355500  1
  O  O9  1  0.23527800  0.02360300  0.31644500  1
  O  O10  1  0.02360300  0.23527800  0.81644500  1
  O  O11  1  0.97639700  0.76472200  0.18355500  1
  O  O12  1  0.82451400  0.09832900  0.98394400  1
  O  O13  1  0.17548600  0.90167100  0.01605600  1
  O  O14  1  0.90167100  0.17548600  0.51605600  1
  O  O15  1  0.09832900  0.82451400  0.48394500  1
  O  O16  1  0.18152000  0.03155200  0.60116900  1
  O  O17  1  0.81848000  0.96844800  0.39883100  1
  O  O18  1  0.96844800  0.81848000  0.89883100  1
  O  O19  1  0.03155200  0.18152000  0.10116900  1
  O  O20  1  0.35433200  0.86264300  0.50747100  1
  O  O21  1  0.64566800  0.13735700  0.49252900  1
  O  O22  1  0.13735700  0.64566800  0.99252900  1
  O  O23  1  0.86264300  0.35433200  0.00747100  1
  O  O24  1  0.46244600  0.24819900  0.74926900  1
  O  O25  1  0.53755400  0.75180100  0.25073100  1
  O  O26  1  0.75180100  0.53755400  0.75073100  1
  O  O27  1  0.24819900  0.46244600  0.24926900  1
  O  O28  1  0.54950500  0.32657000  0.98758500  1
  O  O29  1  0.45049500  0.67343000  0.01241500  1
  O  O30  1  0.67343000  0.45049500  0.51241500  1
  O  O31  1  0.32657000  0.54950500  0.48758500  1
loop_
_geom_bond_atom_site_label_1
_geom_bond_atom_site_label_2
_geom_bond_distance
_geom_bond_site_symmetry_2
K0 O20 2.792011 1_555
K0 O0 2.927167 1_555
K0 O24 3.046380 1_565
K0 O29 3.053211 1_556
K0 O13 3.060493 1_556
K0 O1 3.108880 1_566
K0 O16 3.148880 1_565
K0 O8 3.214777 1_555
K0 O4 3.313279 1_555
K1 O21 2.792011 1_555
K1 O1 2.927167 1_555
K1 O25 3.046380 1_545
K1 O28 3.053211 1_554
K1 O12 3.060493 1_554
K1 O0 3.108880 1_544
K1 O17 3.148880 1_545
K1 O9 3.214777 1_555
K1 O5 3.313286 1_555
K2 O22 2.792011 1_555
K2 O2 2.927167 1_555
K2 O26 3.046380 1_455
K2 O31 3.053211 1_555
K2 O15 3.060488 1_555
K2 O3 3.108880 1_455
K2 O18 3.148880 1_455
K2 O10 3.214777 1_555
K2 O6 3.313279 1_555
K3 O23 2.792011 1_555
K3 O3 2.927167 1_555
K3 O27 3.046380 1_655
K3 O30 3.053211 1_555
K3 O14 3.060493 1_555
K3 O2 3.108880 1_655
K3 O19 3.148880 1_655
K3 O11 3.214777 1_555
K3 O7 3.313286 1_555
Co0 O24 1.880593 1_555
Co0 O30 1.887187 1_555
Co0 O21 1.913086 1_555
Co0 O5 1.925264 1_555
Co1 O25 1.880593 1_555
Co1 O31 1.887187 1_555
Co1 O20 1.913086 1_555
Co1 O4 1.925264 1_555
Co2 O26 1.880593 1_555
Co2 O28 1.887187 1_555
Co2 O23 1.913086 1_556
Co2 O7 1.925264 1_556
Co3 O27 1.880593 1_555
Co3 O29 1.887187 1_555
Co3 O22 1.913086 1_554
Co3 O6 1.925264 1_554
Co4 O18 1.890636 1_555
Co4 O8 1.900601 1_555
Co4 O12 1.921108 1_565
Co4 O0 1.928516 1_555
Co5 O19 1.890636 1_555
Co5 O9 1.900601 1_555
Co5 O13 1.921108 1_545
Co5 O1 1.928516 1_555
Co6 O16 1.890636 1_555
Co6 O10 1.900601 1_555
Co6 O14 1.921108 1_455
Co6 O2 1.928516 1_555
Co7 O17 1.890636 1_555
Co7 O11 1.900601 1_555
Co7 O15 1.921113 1_655
Co7 O3 1.928516 1_555
O0 P5 1.542095 1_556
O1 P4 1.542095 1_554
O2 P7 1.542095 1_555
O3 P6 1.542095 1_555
O4 P6 1.552435 1_555
O5 P7 1.552429 1_555
O6 P4 1.552435 1_555
O7 P5 1.552429 1_555
O8 P0 1.537622 1_565
O9 P1 1.537622 1_545
O10 P2 1.537622 1_455
O11 P3 1.537622 1_655
O12 P2 1.549001 1_555
O13 P3 1.549001 1_555
O14 P0 1.549001 1_555
O15 P1 1.549000 1_555
O16 P1 1.553820 1_545
O17 P0 1.553820 1_565
O18 P3 1.553820 1_656
O19 P2 1.553820 1_454
O20 P1 1.555853 1_555
O21 P0 1.555853 1_555
O22 P3 1.555853 1_556
O23 P2 1.555853 1_554
O24 P4 1.546524 1_555
O25 P5 1.546524 1_555
O26 P6 1.546524 1_555
O27 P7 1.546524 1_555
O28 P4 1.559405 1_555
O29 P5 1.559405 1_555
O30 P6 1.559405 1_555
O31 P7 1.559405 1_555
