# generated using pymatgen
data_EuDyTi2O7
_symmetry_space_group_name_H-M   'P 1'
_cell_length_a   7.24996935
_cell_length_b   7.24996935
_cell_length_c   7.24996935
_cell_angle_alpha   120.23642241
_cell_angle_beta   119.84490972
_cell_angle_gamma   89.92991355
_symmetry_Int_Tables_number   1
_chemical_formula_structural   EuDyTi2O7
_chemical_formula_sum   'Eu2 Dy2 Ti4 O14'
_cell_volume   269.28972706
_cell_formula_units_Z   2
loop_
 _symmetry_equiv_pos_site_id
 _symmetry_equiv_pos_as_xyz
  1  'x, y, z'
loop_
 _atom_site_type_symbol
 _atom_site_label
 _atom_site_symmetry_multiplicity
 _atom_site_fract_x
 _atom_site_fract_y
 _atom_site_fract_z
 _atom_site_occupancy
  Eu  Eu0  1  0.00000000  0.00000000  0.50000000  1
  Eu  Eu1  1  0.00000000  0.50000000  0.00000000  1
  Dy  Dy0  1  0.00000000  0.00000000  0.00000000  1
  Dy  Dy1  1  0.50000000  0.00000000  0.50000000  1
  Ti  Ti0  1  0.50000000  0.50000000  0.50000000  1
  Ti  Ti1  1  0.50000000  0.00000000  0.00000000  1
  Ti  Ti2  1  0.50000000  0.50000000  0.00000000  1
  Ti  Ti3  1  0.00000000  0.50000000  0.50000000  1
  O  O0  1  0.42123400  0.17123400  0.25000000  1
  O  O1  1  0.82617900  0.57617900  0.25000000  1
  O  O2  1  0.42538900  0.58058100  0.25326800  1
  O  O3  1  0.82731300  0.17212200  0.24673200  1
  O  O4  1  0.42538900  0.17212200  0.84480800  1
  O  O5  1  0.82731300  0.58058100  0.65519200  1
  O  O6  1  0.57876600  0.82876600  0.75000000  1
  O  O7  1  0.17382100  0.42382100  0.75000000  1
  O  O8  1  0.57461100  0.41941900  0.74673200  1
  O  O9  1  0.17268700  0.82787800  0.75326800  1
  O  O10  1  0.57461100  0.82787800  0.15519200  1
  O  O11  1  0.17268700  0.41941900  0.34480800  1
  O  O12  1  0.13084500  0.88084500  0.25000000  1
  O  O13  1  0.86915500  0.11915500  0.75000000  1
loop_
_geom_bond_atom_site_label_1
_geom_bond_atom_site_label_2
_geom_bond_distance
_geom_bond_site_symmetry_2
Eu0 O13 2.250255 1_455
Eu0 O12 2.250255 1_545
Eu0 O7 2.538061 1_555
Eu0 O1 2.538061 1_445
Eu0 O4 2.551860 1_555
Eu0 O10 2.551860 1_445
Eu0 O9 2.551866 1_545
Eu0 O3 2.551866 1_455
Eu1 O13 2.250255 1_454
Eu1 O12 2.250255 1_555
Eu1 O7 2.538061 1_554
Eu1 O1 2.538061 1_455
Eu1 O11 2.551860 1_555
Eu1 O2 2.551860 1_555
Eu1 O8 2.551860 1_454
Eu1 O5 2.551860 1_454
Dy0 O13 2.189729 1_454
Dy0 O12 2.189729 1_545
Dy0 O5 2.510280 1_444
Dy0 O11 2.510280 1_555
Dy0 O9 2.510281 1_544
Dy0 O3 2.510281 1_455
Dy0 O6 2.527185 1_444
Dy0 O0 2.527185 1_555
Dy1 O12 2.189729 1_545
Dy1 O13 2.189729 1_555
Dy1 O10 2.510280 1_545
Dy1 O4 2.510280 1_555
Dy1 O2 2.510280 1_545
Dy1 O8 2.510280 1_555
Dy1 O6 2.527185 1_545
Dy1 O0 2.527185 1_555
O0 Ti1 1.978554 1_555
O0 Ti0 1.978554 1_555
O1 Ti2 1.977713 1_555
O1 Ti3 1.977713 1_655
O2 Ti2 1.978109 1_555
O2 Ti0 1.980494 1_555
O3 Ti3 1.978103 1_655
O3 Ti1 1.980495 1_555
O4 Ti2 1.978102 1_556
O4 Ti1 1.980501 1_556
O5 Ti3 1.978109 1_655
O5 Ti0 1.980494 1_555
O6 Ti1 1.978554 1_566
O6 Ti0 1.978554 1_555
O7 Ti3 1.977713 1_555
O7 Ti2 1.977713 1_556
O8 Ti2 1.978109 1_556
O8 Ti0 1.980494 1_555
O9 Ti3 1.978103 1_555
O9 Ti1 1.980495 1_566
O10 Ti2 1.978102 1_555
O10 Ti1 1.980501 1_565
O11 Ti3 1.978109 1_555
O11 Ti0 1.980494 1_555
