# generated using pymatgen
data_Ti(C5Cl)4
_symmetry_space_group_name_H-M   'P 1'
_cell_length_a   13.42216349
_cell_length_b   18.32282882
_cell_length_c   19.43427332
_cell_angle_alpha   90.00000000
_cell_angle_beta   90.00000000
_cell_angle_gamma   93.79142865
_symmetry_Int_Tables_number   1
_chemical_formula_structural   Ti(C5Cl)4
_chemical_formula_sum   'Ti12 C240 Cl48'
_cell_volume   4769.04921358
_cell_formula_units_Z   12
loop_
 _symmetry_equiv_pos_site_id
 _symmetry_equiv_pos_as_xyz
  1  'x, y, z'
loop_
 _atom_site_type_symbol
 _atom_site_label
 _atom_site_symmetry_multiplicity
 _atom_site_fract_x
 _atom_site_fract_y
 _atom_site_fract_z
 _atom_site_occupancy
  Ti  Ti0  1  0.15937458  0.89627365  0.24366008  1
  Ti  Ti1  1  0.65937458  0.39627365  0.25633992  1
  Ti  Ti2  1  0.84062542  0.10372635  0.75633992  1
  Ti  Ti3  1  0.34062542  0.60372635  0.74366008  1
  Ti  Ti4  1  0.87085928  0.14101119  0.41027122  1
  Ti  Ti5  1  0.37085928  0.64101119  0.08972878  1
  Ti  Ti6  1  0.12914072  0.85898881  0.58972878  1
  Ti  Ti7  1  0.62914072  0.35898881  0.91027122  1
  Ti  Ti8  1  0.59688346  0.04818533  0.14490748  1
  Ti  Ti9  1  0.09688346  0.54818533  0.35509252  1
  Ti  Ti10  1  0.40311654  0.95181467  0.85509252  1
  Ti  Ti11  1  0.90311654  0.45181467  0.64490748  1
  C  C0  1  0.94823256  0.56587016  0.88746467  1
  C  C1  1  0.44823256  0.06587016  0.61253533  1
  C  C2  1  0.05176744  0.43412984  0.11253533  1
  C  C3  1  0.55176744  0.93412984  0.38746467  1
  C  C4  1  0.89113348  0.58240312  0.82647671  1
  C  C5  1  0.39113348  0.08240312  0.67352329  1
  C  C6  1  0.10886652  0.41759688  0.17352329  1
  C  C7  1  0.60886652  0.91759688  0.32647671  1
  C  C8  1  0.78572377  0.57547104  0.84460827  1
  C  C9  1  0.28572377  0.07547104  0.65539173  1
  C  C10  1  0.21427623  0.42452896  0.15539173  1
  C  C11  1  0.71427623  0.92452896  0.34460827  1
  C  C12  1  0.77787559  0.55478434  0.91666321  1
  C  C13  1  0.27787559  0.05478434  0.58333679  1
  C  C14  1  0.22212441  0.44521566  0.08333679  1
  C  C15  1  0.72212441  0.94521566  0.41666321  1
  C  C16  1  0.87832508  0.54891478  0.94322227  1
  C  C17  1  0.37832508  0.04891478  0.55677773  1
  C  C18  1  0.12167492  0.45108522  0.05677773  1
  C  C19  1  0.62167492  0.95108522  0.44322227  1
  C  C20  1  0.03914447  0.60518362  0.90094991  1
  C  C21  1  0.53914447  0.10518362  0.59905009  1
  C  C22  1  0.96085553  0.39481638  0.09905009  1
  C  C23  1  0.46085553  0.89481638  0.40094991  1
  C  C24  1  0.92699421  0.63739114  0.78124450  1
  C  C25  1  0.42699421  0.13739114  0.71875550  1
  C  C26  1  0.07300579  0.36260886  0.21875550  1
  C  C27  1  0.57300579  0.86260886  0.28124450  1
  C  C28  1  0.72014118  0.62394822  0.81670135  1
  C  C29  1  0.22014118  0.12394822  0.68329865  1
  C  C30  1  0.27985882  0.37605178  0.18329865  1
  C  C31  1  0.77985882  0.87605178  0.31670135  1
  C  C32  1  0.70472712  0.58320193  0.95833622  1
  C  C33  1  0.20472712  0.08320193  0.54166378  1
  C  C34  1  0.29527288  0.41679807  0.04166378  1
  C  C35  1  0.79527288  0.91679807  0.45833622  1
  C  C36  1  0.90179470  0.57164125  0.01029072  1
  C  C37  1  0.40179470  0.07164125  0.48970928  1
  C  C38  1  0.09820530  0.42835875  0.98970928  1
  C  C39  1  0.59820530  0.92835875  0.51029072  1
  C  C40  1  0.07637810  0.66249707  0.85403890  1
  C  C41  1  0.57637810  0.16249707  0.64596110  1
  C  C42  1  0.92362190  0.33750293  0.14596110  1
  C  C43  1  0.42362190  0.83750293  0.35403890  1
  C  C44  1  0.85885495  0.68788053  0.75243585  1
  C  C45  1  0.35885495  0.18788053  0.74756415  1
  C  C46  1  0.14114505  0.31211947  0.24756415  1
  C  C47  1  0.64114505  0.81211947  0.25243585  1
  C  C48  1  0.64411903  0.65346677  0.86001694  1
  C  C49  1  0.14411903  0.15346677  0.63998306  1
  C  C50  1  0.35588097  0.34653323  0.13998306  1
  C  C51  1  0.85588097  0.84653323  0.36001694  1
  C  C52  1  0.72914519  0.60684671  0.02806442  1
  C  C53  1  0.22914519  0.10684671  0.47193558  1
  C  C54  1  0.27085481  0.39315329  0.97193558  1
  C  C55  1  0.77085481  0.89315329  0.52806442  1
  C  C56  1  0.99626642  0.61244471  0.02435599  1
  C  C57  1  0.49626642  0.11244471  0.47564401  1
  C  C58  1  0.00373358  0.38755529  0.97564401  1
  C  C59  1  0.50373358  0.88755529  0.52435599  1
  C  C60  1  0.02151583  0.67825887  0.79526610  1
  C  C61  1  0.52151583  0.17825887  0.70473390  1
  C  C62  1  0.97848417  0.32174113  0.20473390  1
  C  C63  1  0.47848417  0.82174113  0.29526610  1
  C  C64  1  0.75745882  0.68118847  0.76984734  1
  C  C65  1  0.25745882  0.18118847  0.73015266  1
  C  C66  1  0.24254118  0.31881153  0.23015266  1
  C  C67  1  0.74254118  0.81881153  0.26984734  1
  C  C68  1  0.63656242  0.63351043  0.92931383  1
  C  C69  1  0.13656242  0.13351043  0.57068617  1
  C  C70  1  0.36343758  0.36648957  0.07068617  1
  C  C71  1  0.86343758  0.86648957  0.42931383  1
  C  C72  1  0.82583048  0.60114858  0.05361741  1
  C  C73  1  0.32583048  0.10114858  0.44638259  1
  C  C74  1  0.17416952  0.39885142  0.94638259  1
  C  C75  1  0.67416952  0.89885142  0.55361741  1
  C  C76  1  0.06346976  0.62893680  0.97068988  1
  C  C77  1  0.56346976  0.12893680  0.52931012  1
  C  C78  1  0.93653024  0.37106320  0.02931012  1
  C  C79  1  0.43653024  0.87106320  0.47068988  1
  C  C80  1  0.12384464  0.72163241  0.89480644  1
  C  C81  1  0.62384464  0.22163241  0.60519356  1
  C  C82  1  0.87615536  0.27836759  0.10519356  1
  C  C83  1  0.37615536  0.77836759  0.39480644  1
  C  C84  1  0.91122328  0.75983954  0.74868434  1
  C  C85  1  0.41122328  0.25983954  0.75131566  1
  C  C86  1  0.08877672  0.24016046  0.25131566  1
  C  C87  1  0.58877672  0.74016046  0.24868434  1
  C  C88  1  0.63444529  0.72912878  0.83976348  1
  C  C89  1  0.13444529  0.22912878  0.66023652  1
  C  C90  1  0.36555471  0.27087122  0.16023652  1
  C  C91  1  0.86555471  0.77087122  0.33976348  1
  C  C92  1  0.67631321  0.67194058  0.04226423  1
  C  C93  1  0.17631321  0.17194058  0.45773577  1
  C  C94  1  0.32368679  0.32805942  0.95773577  1
  C  C95  1  0.82368679  0.82805942  0.54226423  1
  C  C96  1  0.97867167  0.66715838  0.07633904  1
  C  C97  1  0.47867167  0.16715838  0.42366096  1
  C  C98  1  0.02132833  0.33284162  0.92366096  1
  C  C99  1  0.52132833  0.83284162  0.57633904  1
  C  C100  1  0.11458673  0.79440476  0.87537665  1
  C  C101  1  0.61458673  0.29440476  0.62462335  1
  C  C102  1  0.88541327  0.20559524  0.12462335  1
  C  C103  1  0.38541327  0.70559524  0.37537665  1
  C  C104  1  0.86028962  0.82245415  0.76248956  1
  C  C105  1  0.36028962  0.32245415  0.73751044  1
  C  C106  1  0.13971038  0.17754585  0.23751044  1
  C  C107  1  0.63971038  0.67754585  0.26248956  1
  C  C108  1  0.61755899  0.78186744  0.88983425  1
  C  C109  1  0.11755899  0.28186744  0.61016575  1
  C  C110  1  0.38244101  0.21813256  0.11016575  1
  C  C111  1  0.88244101  0.71813256  0.38983425  1
  C  C112  1  0.72176655  0.72875415  0.08157873  1
  C  C113  1  0.22176655  0.22875415  0.41842127  1
  C  C114  1  0.27823345  0.27124585  0.91842127  1
  C  C115  1  0.77823345  0.77124585  0.58157873  1
  C  C116  1  0.02895024  0.73641025  0.07262230  1
  C  C117  1  0.52895024  0.23641025  0.42737770  1
  C  C118  1  0.97104976  0.26358975  0.92737770  1
  C  C119  1  0.47104976  0.76358975  0.57262230  1
  C  C120  1  0.70453434  0.74629019  0.78413624  1
  C  C121  1  0.20453434  0.24629019  0.71586376  1
  C  C122  1  0.29546566  0.25370981  0.21586376  1
  C  C123  1  0.79546566  0.75370981  0.28413624  1
  C  C124  1  0.01173213  0.75396170  0.77516654  1
  C  C125  1  0.51173213  0.25396170  0.72483346  1
  C  C126  1  0.98826787  0.24603830  0.22483346  1
  C  C127  1  0.48826787  0.74603830  0.27516654  1
  C  C128  1  0.11585990  0.70088249  0.96686207  1
  C  C129  1  0.61585990  0.20088249  0.53313793  1
  C  C130  1  0.88414010  0.29911751  0.03313793  1
  C  C131  1  0.38414010  0.79911751  0.46686207  1
  C  C132  1  0.87333276  0.66021056  0.09438917  1
  C  C133  1  0.37333276  0.16021056  0.40561083  1
  C  C134  1  0.12666724  0.33978944  0.90561083  1
  C  C135  1  0.62666724  0.83978944  0.59438917  1
  C  C136  1  0.61917114  0.68835005  0.98128215  1
  C  C137  1  0.11917114  0.18835005  0.51871785  1
  C  C138  1  0.38082886  0.31164995  0.01871785  1
  C  C139  1  0.88082886  0.81164995  0.48128215  1
  C  C140  1  0.75491408  0.81548080  0.78050514  1
  C  C141  1  0.25491408  0.31548080  0.71949486  1
  C  C142  1  0.24508592  0.18451920  0.21949486  1
  C  C143  1  0.74508592  0.68451920  0.28050514  1
  C  C144  1  0.05742406  0.81081162  0.81434241  1
  C  C145  1  0.55742406  0.31081162  0.68565759  1
  C  C146  1  0.94257594  0.18918838  0.18565759  1
  C  C147  1  0.44257594  0.68918838  0.31434241  1
  C  C148  1  0.09898195  0.75355255  0.01690318  1
  C  C149  1  0.59898195  0.25355255  0.48309682  1
  C  C150  1  0.90101805  0.24644745  0.98309682  1
  C  C151  1  0.40101805  0.74644745  0.51690318  1
  C  C152  1  0.82224381  0.72282050  0.10801255  1
  C  C153  1  0.32224381  0.22282050  0.39198745  1
  C  C154  1  0.17775619  0.27717950  0.89198745  1
  C  C155  1  0.67775619  0.77717950  0.60801255  1
  C  C156  1  0.60982792  0.76110662  0.96179437  1
  C  C157  1  0.10982792  0.26110662  0.53820563  1
  C  C158  1  0.39017208  0.23889338  0.03820563  1
  C  C159  1  0.89017208  0.73889338  0.46179437  1
  C  C160  1  0.66978854  0.85386522  0.88598360  1
  C  C161  1  0.16978854  0.35386522  0.61401640  1
  C  C162  1  0.33021146  0.14613478  0.11401640  1
  C  C163  1  0.83021146  0.64613478  0.38598360  1
  C  C164  1  0.90762959  0.88137917  0.80330519  1
  C  C165  1  0.40762959  0.38137917  0.69669481  1
  C  C166  1  0.09237041  0.11862083  0.19669481  1
  C  C167  1  0.59237041  0.61862083  0.30330519  1
  C  C168  1  0.09684506  0.84918261  0.92736275  1
  C  C169  1  0.59684506  0.34918261  0.57263725  1
  C  C170  1  0.90315494  0.15081739  0.07263725  1
  C  C171  1  0.40315494  0.65081739  0.42736275  1
  C  C172  1  0.97572506  0.80140168  0.08673367  1
  C  C173  1  0.47572506  0.30140168  0.41326633  1
  C  C174  1  0.02427494  0.19859832  0.91326633  1
  C  C175  1  0.52427494  0.69859832  0.58673367  1
  C  C176  1  0.71180937  0.80441441  0.06139512  1
  C  C177  1  0.21180937  0.30441441  0.43860488  1
  C  C178  1  0.28819063  0.19558559  0.93860488  1
  C  C179  1  0.78819063  0.69558559  0.56139512  1
  C  C180  1  0.73713751  0.87023697  0.83242126  1
  C  C181  1  0.23713751  0.37023697  0.66757874  1
  C  C182  1  0.26286249  0.12976303  0.16757874  1
  C  C183  1  0.76286249  0.62976303  0.33242126  1
  C  C184  1  0.00432232  0.87576875  0.82876518  1
  C  C185  1  0.50432232  0.37576875  0.67123482  1
  C  C186  1  0.99567768  0.12423125  0.17123482  1
  C  C187  1  0.49567768  0.62423125  0.32876518  1
  C  C188  1  0.08911856  0.82920763  0.99668471  1
  C  C189  1  0.58911856  0.32920763  0.50331529  1
  C  C190  1  0.91088144  0.17079237  0.00331529  1
  C  C191  1  0.41088144  0.67079237  0.49668471  1
  C  C192  1  0.87439655  0.79475627  0.10417844  1
  C  C193  1  0.37439655  0.29475627  0.39582156  1
  C  C194  1  0.12560345  0.20524373  0.89582156  1
  C  C195  1  0.62560345  0.70524373  0.60417844  1
  C  C196  1  0.65687016  0.82024792  0.00269618  1
  C  C197  1  0.15687016  0.32024792  0.49730382  1
  C  C198  1  0.34312984  0.17975208  0.99730382  1
  C  C199  1  0.84312984  0.67975208  0.50269618  1
  C  C200  1  0.83157438  0.91098192  0.84652048  1
  C  C201  1  0.33157438  0.41098192  0.65347952  1
  C  C202  1  0.16842562  0.08901808  0.15347952  1
  C  C203  1  0.66842562  0.58901808  0.34652048  1
  C  C204  1  0.02853148  0.89943023  0.89852131  1
  C  C205  1  0.52853148  0.39943023  0.60147869  1
  C  C206  1  0.97146852  0.10056977  0.10147869  1
  C  C207  1  0.47146852  0.60056977  0.39852131  1
  C  C208  1  0.01297590  0.85864748  0.03989441  1
  C  C209  1  0.51297590  0.35864748  0.46010559  1
  C  C210  1  0.98702410  0.14135252  0.96010559  1
  C  C211  1  0.48702410  0.64135252  0.53989441  1
  C  C212  1  0.80620189  0.84527851  0.07544176  1
  C  C213  1  0.30620189  0.34527851  0.42455824  1
  C  C214  1  0.19379811  0.15472149  0.92455824  1
  C  C215  1  0.69379811  0.65472149  0.57544176  1
  C  C216  1  0.69390782  0.87766027  0.95579014  1
  C  C217  1  0.19390782  0.37766027  0.54420986  1
  C  C218  1  0.30609218  0.12233973  0.04420986  1
  C  C219  1  0.80609218  0.62233973  0.45579014  1
  C  C220  1  0.85484901  0.93376799  0.91360769  1
  C  C221  1  0.35484901  0.43376799  0.58639231  1
  C  C222  1  0.14515099  0.06623201  0.08639231  1
  C  C223  1  0.64515099  0.56623201  0.41360769  1
  C  C224  1  0.95534177  0.92781116  0.94008436  1
  C  C225  1  0.45534177  0.42781116  0.55991564  1
  C  C226  1  0.04465823  0.07218884  0.05991564  1
  C  C227  1  0.54465823  0.57218884  0.44008436  1
  C  C228  1  0.94736222  0.90714833  0.01214585  1
  C  C229  1  0.44736222  0.40714833  0.48785415  1
  C  C230  1  0.05263778  0.09285167  0.98785415  1
  C  C231  1  0.55263778  0.59285167  0.51214585  1
  C  C232  1  0.84200618  0.90035752  0.03034095  1
  C  C233  1  0.34200618  0.40035752  0.46965905  1
  C  C234  1  0.15799382  0.09964248  0.96965905  1
  C  C235  1  0.65799382  0.59964248  0.53034095  1
  C  C236  1  0.78487087  0.91705649  0.96935162  1
  C  C237  1  0.28487087  0.41705649  0.53064838  1
  C  C238  1  0.21512913  0.08294351  0.03064838  1
  C  C239  1  0.71512913  0.58294351  0.46935162  1
  Cl  Cl0  1  0.00886052  0.92972063  0.22345061  1
  Cl  Cl1  1  0.50886052  0.42972063  0.27654939  1
  Cl  Cl2  1  0.99113948  0.07027937  0.77654939  1
  Cl  Cl3  1  0.49113948  0.57027937  0.72345061  1
  Cl  Cl4  1  0.23720613  0.97622746  0.31186618  1
  Cl  Cl5  1  0.73720613  0.47622746  0.18813382  1
  Cl  Cl6  1  0.76279387  0.02377254  0.68813382  1
  Cl  Cl7  1  0.26279387  0.52377254  0.81186618  1
  Cl  Cl8  1  0.24304130  0.88877956  0.14762648  1
  Cl  Cl9  1  0.74304130  0.38877956  0.35237352  1
  Cl  Cl10  1  0.75695870  0.11122044  0.85237352  1
  Cl  Cl11  1  0.25695870  0.61122044  0.64762648  1
  Cl  Cl12  1  0.14617916  0.78902777  0.29346367  1
  Cl  Cl13  1  0.64617916  0.28902777  0.20653633  1
  Cl  Cl14  1  0.85382084  0.21097223  0.70653633  1
  Cl  Cl15  1  0.35382084  0.71097223  0.79346367  1
  Cl  Cl16  1  0.92626092  0.25566963  0.40332732  1
  Cl  Cl17  1  0.42626092  0.75566963  0.09667268  1
  Cl  Cl18  1  0.07373908  0.74433037  0.59667268  1
  Cl  Cl19  1  0.57373908  0.24433037  0.90332732  1
  Cl  Cl20  1  0.97888688  0.06921953  0.36709354  1
  Cl  Cl21  1  0.47888688  0.56921953  0.13290646  1
  Cl  Cl22  1  0.02111312  0.93078047  0.63290646  1
  Cl  Cl23  1  0.52111312  0.43078047  0.86709354  1
  Cl  Cl24  1  0.84440491  0.11218094  0.51834879  1
  Cl  Cl25  1  0.34440491  0.61218094  0.98165121  1
  Cl  Cl26  1  0.15559509  0.88781906  0.48165121  1
  Cl  Cl27  1  0.65559509  0.38781906  0.01834879  1
  Cl  Cl28  1  0.73255327  0.12924319  0.35075122  1
  Cl  Cl29  1  0.23255327  0.62924319  0.14924878  1
  Cl  Cl30  1  0.26744673  0.87075681  0.64924878  1
  Cl  Cl31  1  0.76744673  0.37075681  0.85075122  1
  Cl  Cl32  1  0.61821456  0.13502188  0.06797280  1
  Cl  Cl33  1  0.11821456  0.63502188  0.43202720  1
  Cl  Cl34  1  0.38178544  0.86497812  0.93202720  1
  Cl  Cl35  1  0.88178544  0.36497812  0.56797280  1
  Cl  Cl36  1  0.52060149  0.08811101  0.23570232  1
  Cl  Cl37  1  0.02060149  0.58811101  0.26429768  1
  Cl  Cl38  1  0.47939851  0.91188899  0.76429768  1
  Cl  Cl39  1  0.97939851  0.41188899  0.73570232  1
  Cl  Cl40  1  0.74354303  0.01338388  0.17435273  1
  Cl  Cl41  1  0.24354303  0.51338388  0.32564727  1
  Cl  Cl42  1  0.25645697  0.98661612  0.82564727  1
  Cl  Cl43  1  0.75645697  0.48661612  0.67435273  1
  Cl  Cl44  1  0.50793828  0.95593744  0.09985738  1
  Cl  Cl45  1  0.00793828  0.45593744  0.40014262  1
  Cl  Cl46  1  0.49206172  0.04406256  0.90014262  1
  Cl  Cl47  1  0.99206172  0.54406256  0.59985738  1
loop_
_geom_bond_atom_site_label_1
_geom_bond_atom_site_label_2
_geom_bond_distance
_geom_bond_site_symmetry_2
C0 C20 1.400105 1_655
C0 C16 1.453478 1_555
C0 C4 1.454188 1_555
C1 C21 1.400105 1_555
C1 C17 1.453478 1_555
C1 C5 1.454188 1_555
C2 C22 1.400105 1_455
C2 C6 1.454188 1_555
C3 C7 1.454188 1_555
C4 C8 1.455427 1_555
C5 C9 1.455427 1_555
C10 C30 1.400491 1_555
C10 C14 1.452730 1_555
C10 C6 1.455427 1_555
C11 C31 1.400491 1_555
C11 C15 1.452730 1_555
C11 C7 1.455427 1_555
C12 C32 1.399497 1_555
C12 C8 1.452730 1_555
C12 C16 1.454282 1_555
C13 C33 1.399497 1_555
C13 C9 1.452730 1_555
C13 C17 1.454282 1_555
C14 C34 1.399497 1_555
C14 C18 1.454282 1_555
C15 C35 1.399497 1_555
C15 C19 1.454282 1_555
C16 C36 1.397929 1_556
C17 C37 1.397929 1_555
C18 C38 1.397929 1_554
C18 C2 1.453478 1_555
C19 C39 1.397929 1_555
C19 C3 1.453478 1_555
C20 C76 1.454026 1_555
C20 C40 1.454069 1_555
C21 C77 1.454026 1_555
C21 C41 1.454069 1_555
C22 C78 1.454026 1_555
C22 C42 1.454069 1_555
C23 C3 1.400105 1_555
C23 C79 1.454026 1_555
C23 C43 1.454069 1_555
C24 C4 1.398359 1_555
C24 C44 1.455208 1_555
C24 C60 1.455644 1_655
C25 C5 1.398359 1_555
C25 C45 1.455208 1_555
C25 C61 1.455644 1_555
C26 C6 1.398359 1_555
C26 C46 1.455208 1_555
C26 C62 1.455644 1_455
C27 C7 1.398359 1_555
C27 C47 1.455208 1_555
C27 C63 1.455644 1_555
C28 C8 1.400491 1_555
C28 C64 1.452771 1_555
C28 C48 1.454420 1_555
C29 C9 1.400491 1_555
C29 C65 1.452771 1_555
C29 C49 1.454420 1_555
C30 C66 1.452771 1_555
C30 C50 1.454420 1_555
C31 C67 1.452771 1_555
C31 C51 1.454420 1_555
C32 C52 1.453505 1_556
C32 C68 1.454800 1_555
C33 C53 1.453505 1_555
C33 C69 1.454800 1_555
C34 C54 1.453505 1_554
C34 C70 1.454800 1_555
C35 C55 1.453505 1_555
C35 C71 1.454800 1_555
C36 C72 1.453894 1_555
C36 C56 1.454704 1_555
C37 C73 1.453894 1_555
C37 C57 1.454704 1_555
C38 C74 1.453894 1_555
C38 C58 1.454704 1_555
C39 C75 1.453894 1_555
C39 C59 1.454704 1_555
C40 C60 1.399431 1_555
C40 C80 1.454770 1_555
C41 C61 1.399431 1_555
C41 C81 1.454770 1_555
C42 C62 1.399431 1_555
C42 C82 1.454770 1_555
C43 C63 1.399431 1_555
C43 C83 1.454770 1_555
C44 C64 1.399881 1_555
C44 C84 1.454386 1_555
C45 C65 1.399881 1_555
C45 C85 1.454386 1_555
C46 C66 1.399881 1_555
C46 C86 1.454386 1_555
C47 C67 1.399881 1_555
C47 C87 1.454386 1_555
C48 C68 1.397420 1_555
C48 C88 1.455177 1_555
C49 C69 1.397420 1_555
C49 C89 1.455177 1_555
C50 C70 1.397420 1_555
C50 C90 1.455177 1_555
C51 C71 1.397420 1_555
C51 C91 1.455177 1_555
C52 C72 1.399831 1_555
C52 C92 1.453754 1_555
C53 C73 1.399831 1_555
C53 C93 1.453754 1_555
C54 C74 1.399831 1_555
C54 C94 1.453754 1_555
C55 C75 1.399831 1_555
C55 C95 1.453754 1_555
C56 C76 1.398809 1_654
C56 C96 1.453519 1_555
C57 C77 1.398809 1_555
C57 C97 1.453519 1_555
C58 C78 1.398809 1_456
C58 C98 1.453519 1_555
C59 C79 1.398809 1_555
C59 C99 1.453519 1_555
C100 C80 1.399243 1_555
C100 C168 1.454795 1_555
C100 C144 1.454823 1_555
C101 C81 1.399243 1_555
C101 C169 1.454795 1_555
C101 C145 1.454823 1_555
C102 C82 1.399243 1_555
C102 C170 1.454795 1_555
C102 C146 1.454823 1_555
C103 C83 1.399243 1_555
C103 C171 1.454795 1_555
C103 C147 1.454823 1_555
C104 C84 1.399756 1_555
C104 C164 1.451863 1_555
C104 C140 1.454457 1_555
C105 C85 1.399756 1_555
C105 C165 1.451863 1_555
C105 C141 1.454457 1_555
C106 C86 1.399756 1_555
C106 C166 1.451863 1_555
C106 C142 1.454457 1_555
C107 C87 1.399756 1_555
C107 C167 1.451863 1_555
C107 C143 1.454457 1_555
C108 C88 1.400362 1_555
C108 C156 1.451217 1_555
C108 C160 1.454318 1_555
C109 C89 1.400362 1_555
C109 C157 1.451217 1_555
C109 C161 1.454318 1_555
C110 C90 1.400362 1_555
C110 C158 1.451217 1_555
C110 C162 1.454318 1_555
C111 C91 1.400362 1_555
C111 C159 1.451217 1_555
C111 C163 1.454318 1_555
C112 C92 1.398439 1_555
C112 C152 1.453927 1_555
C112 C176 1.455363 1_555
C113 C93 1.398439 1_555
C113 C153 1.453927 1_555
C113 C177 1.455363 1_555
C114 C94 1.398439 1_555
C114 C154 1.453927 1_555
C114 C178 1.455363 1_555
C115 C95 1.398439 1_555
C115 C155 1.453927 1_555
C115 C179 1.455363 1_555
C116 C96 1.399097 1_455
C116 C148 1.454563 1_555
C116 C172 1.454699 1_455
C117 C97 1.399097 1_555
C117 C149 1.454563 1_555
C117 C173 1.454699 1_555
C118 C98 1.399097 1_655
C118 C150 1.454563 1_555
C118 C174 1.454699 1_655
C119 C99 1.399097 1_555
C119 C151 1.454563 1_555
C119 C175 1.454699 1_555
C120 C140 1.398605 1_555
C120 C88 1.453782 1_555
C120 C64 1.454879 1_555
C121 C141 1.398605 1_555
C121 C89 1.453782 1_555
C121 C65 1.454879 1_555
C122 C142 1.398605 1_555
C122 C90 1.453782 1_555
C122 C66 1.454879 1_555
C123 C143 1.398605 1_555
C123 C91 1.453782 1_555
C123 C67 1.454879 1_555
C124 C144 1.398689 1_555
C124 C84 1.454516 1_455
C124 C60 1.455313 1_555
C125 C145 1.398689 1_555
C125 C85 1.454516 1_555
C125 C61 1.455313 1_555
C126 C146 1.398689 1_555
C126 C86 1.454516 1_655
C126 C62 1.455313 1_555
C127 C147 1.398689 1_555
C127 C87 1.454516 1_555
C127 C63 1.455313 1_555
C128 C148 1.399058 1_556
C128 C80 1.453143 1_555
C128 C76 1.454371 1_555
C129 C149 1.399058 1_555
C129 C81 1.453143 1_555
C129 C77 1.454371 1_555
C130 C150 1.399058 1_554
C130 C82 1.453143 1_555
C130 C78 1.454371 1_555
C131 C151 1.399058 1_555
C131 C83 1.453143 1_555
C131 C79 1.454371 1_555
C132 C152 1.400142 1_555
C132 C72 1.454040 1_555
C132 C96 1.454133 1_555
C133 C153 1.400142 1_555
C133 C73 1.454040 1_555
C133 C97 1.454133 1_555
C134 C154 1.400142 1_555
C134 C74 1.454040 1_555
C134 C98 1.454133 1_555
C135 C155 1.400142 1_555
C135 C75 1.454040 1_555
C135 C99 1.454133 1_555
C136 C156 1.399445 1_555
C136 C92 1.453858 1_556
C136 C68 1.454372 1_555
C137 C157 1.399445 1_555
C137 C93 1.453858 1_555
C137 C69 1.454372 1_555
C138 C158 1.399445 1_555
C138 C94 1.453858 1_554
C138 C70 1.454372 1_555
C139 C159 1.399445 1_555
C139 C95 1.453858 1_555
C139 C71 1.454372 1_555
C140 C180 1.453671 1_555
C141 C181 1.453671 1_555
C142 C182 1.453671 1_555
C143 C183 1.453671 1_555
C144 C184 1.454415 1_555
C145 C185 1.454415 1_555
C146 C186 1.454415 1_555
C147 C187 1.454415 1_555
C148 C188 1.455261 1_554
C149 C189 1.455261 1_555
C150 C190 1.455261 1_556
C151 C191 1.455261 1_555
C152 C192 1.452872 1_555
C153 C193 1.452872 1_555
C154 C194 1.452872 1_555
C155 C195 1.452872 1_555
C156 C196 1.454069 1_556
C157 C197 1.454069 1_555
C158 C198 1.454069 1_554
C159 C199 1.454069 1_555
C160 C180 1.398160 1_555
C160 C216 1.454887 1_555
C161 C181 1.398160 1_555
C161 C217 1.454887 1_555
C162 C182 1.398160 1_555
C162 C218 1.454887 1_555
C163 C183 1.398160 1_555
C163 C219 1.454887 1_555
C164 C184 1.399066 1_655
C164 C200 1.454262 1_555
C165 C185 1.399066 1_555
C165 C201 1.454262 1_555
C166 C186 1.399066 1_455
C166 C202 1.454262 1_555
C167 C187 1.399066 1_555
C167 C203 1.454262 1_555
C168 C188 1.398105 1_555
C168 C204 1.454029 1_555
C169 C189 1.398105 1_555
C169 C205 1.454029 1_555
C170 C190 1.398105 1_555
C170 C206 1.454029 1_555
C171 C191 1.398105 1_555
C171 C207 1.454029 1_555
C172 C192 1.399141 1_555
C172 C208 1.452396 1_655
C173 C193 1.399141 1_555
C173 C209 1.452396 1_555
C174 C194 1.399141 1_555
C174 C210 1.452396 1_455
C175 C195 1.399141 1_555
C175 C211 1.452396 1_555
C176 C196 1.399136 1_555
C176 C212 1.454254 1_555
C177 C197 1.399136 1_555
C177 C213 1.454254 1_555
C178 C198 1.399136 1_555
C178 C214 1.454254 1_555
C179 C199 1.399136 1_555
C179 C215 1.454254 1_555
C180 C200 1.453948 1_555
C181 C201 1.453948 1_555
C182 C202 1.453948 1_555
C183 C203 1.453948 1_555
C184 C204 1.453523 1_555
C185 C205 1.453523 1_555
C186 C206 1.453523 1_555
C187 C207 1.453523 1_555
C188 C208 1.453803 1_556
C189 C209 1.453803 1_555
C190 C210 1.453803 1_554
C191 C211 1.453803 1_555
C192 C212 1.455577 1_555
C193 C213 1.455577 1_555
C194 C214 1.455577 1_555
C195 C215 1.455577 1_555
C196 C216 1.454501 1_554
C197 C217 1.454501 1_555
C198 C218 1.454501 1_556
C199 C219 1.454501 1_555
C200 C220 1.398043 1_555
C201 C221 1.398043 1_555
C202 C222 1.398043 1_555
C203 C223 1.398043 1_555
C204 C224 1.398383 1_455
C205 C225 1.398383 1_555
C206 C226 1.398383 1_655
C207 C227 1.398383 1_555
C208 C228 1.399875 1_455
C209 C229 1.399875 1_555
C210 C230 1.399875 1_655
C211 C231 1.399875 1_555
C212 C232 1.397696 1_555
C213 C233 1.397696 1_555
C214 C234 1.397696 1_555
C215 C235 1.397696 1_555
C216 C236 1.401650 1_555
C217 C237 1.401650 1_555
C218 C238 1.401650 1_555
C219 C239 1.401650 1_555
C220 C236 1.453121 1_555
C220 C224 1.454473 1_555
C221 C237 1.453121 1_555
C221 C225 1.454473 1_555
C222 C238 1.453121 1_555
C222 C226 1.454473 1_555
C223 C239 1.453121 1_555
C223 C227 1.454473 1_555
C224 C228 1.452840 1_556
C225 C229 1.452840 1_555
C226 C230 1.452840 1_554
C227 C231 1.452840 1_555
C228 C232 1.454973 1_555
C229 C233 1.454973 1_555
C230 C234 1.454973 1_555
C231 C235 1.454973 1_555
C232 C236 1.455215 1_554
C233 C237 1.455215 1_555
C234 C238 1.455215 1_556
C235 C239 1.455215 1_555
Cl0 Ti0 2.185149 1_555
Cl1 Ti1 2.185149 1_555
Cl2 Ti2 2.185149 1_555
Cl3 Ti3 2.185149 1_555
Cl4 Ti0 2.189097 1_555
Cl5 Ti1 2.189097 1_555
Cl6 Ti2 2.189097 1_555
Cl7 Ti3 2.189097 1_555
Cl8 Ti0 2.187141 1_555
Cl9 Ti1 2.187141 1_555
Cl10 Ti2 2.187141 1_555
Cl11 Ti3 2.187141 1_555
Cl12 Ti0 2.187139 1_555
Cl13 Ti1 2.187139 1_555
Cl14 Ti2 2.187139 1_555
Cl15 Ti3 2.187139 1_555
Cl16 Ti4 2.185911 1_555
Cl17 Ti5 2.185911 1_555
Cl18 Ti6 2.185911 1_555
Cl19 Ti7 2.185911 1_555
Cl20 Ti4 2.188405 1_555
Cl21 Ti5 2.188405 1_555
Cl22 Ti6 2.188405 1_555
Cl23 Ti7 2.188405 1_555
Cl24 Ti4 2.189073 1_555
Cl25 Ti5 2.189073 1_556
Cl26 Ti6 2.189073 1_555
Cl27 Ti7 2.189073 1_554
Cl28 Ti4 2.185788 1_555
Cl29 Ti5 2.185788 1_555
Cl30 Ti6 2.185788 1_555
Cl31 Ti7 2.185788 1_555
Cl32 Ti8 2.188340 1_555
Cl33 Ti9 2.188340 1_555
Cl34 Ti10 2.188340 1_555
Cl35 Ti11 2.188340 1_555
Cl36 Ti8 2.190001 1_555
Cl37 Ti9 2.190001 1_555
Cl38 Ti10 2.190001 1_555
Cl39 Ti11 2.190001 1_555
Cl40 Ti8 2.185184 1_555
Cl41 Ti9 2.185184 1_555
Cl42 Ti10 2.185184 1_555
Cl43 Ti11 2.185184 1_555
Cl44 Ti8 2.186740 1_565
Cl45 Ti9 2.186740 1_555
Cl46 Ti10 2.186740 1_545
Cl47 Ti11 2.186740 1_555
