# generated using pymatgen
data_K4MgZn4H16(Br3O2)4
_symmetry_space_group_name_H-M   'P 1'
_cell_length_a   7.04444178
_cell_length_b   12.73229036
_cell_length_c   13.81138211
_cell_angle_alpha   89.28190808
_cell_angle_beta   128.78772649
_cell_angle_gamma   88.64137868
_symmetry_Int_Tables_number   1
_chemical_formula_structural   K4MgZn4H16(Br3O2)4
_chemical_formula_sum   'K4 Mg1 Zn4 H16 Br12 O8'
_cell_volume   964.71806197
_cell_formula_units_Z   1
loop_
 _symmetry_equiv_pos_site_id
 _symmetry_equiv_pos_as_xyz
  1  'x, y, z'
loop_
 _atom_site_type_symbol
 _atom_site_label
 _atom_site_symmetry_multiplicity
 _atom_site_fract_x
 _atom_site_fract_y
 _atom_site_fract_z
 _atom_site_occupancy
  K  K0  1  0.28162839  0.82982147  0.00160329  1
  K  K1  1  0.71075993  0.32572276  0.50000566  1
  K  K2  1  0.73327878  0.16887384  0.00937761  1
  K  K3  1  0.07447247  0.67070505  0.41892367  1
  Mg  Mg0  1  0.71205283  0.68923934  0.65797737  1
  Zn  Zn0  1  0.48276112  0.94551873  0.74951888  1
  Zn  Zn1  1  0.50602508  0.42060459  0.76682565  1
  Zn  Zn2  1  0.52424006  0.07107339  0.26525503  1
  Zn  Zn3  1  0.42587118  0.55545518  0.20811056  1
  H  H0  1  0.80518003  0.26573856  0.79925634  1
  H  H1  1  0.23975686  0.78070753  0.71813244  1
  H  H2  1  0.16495476  0.72508058  0.18818575  1
  H  H3  1  0.81662674  0.22224785  0.29837808  1
  H  H4  1  0.94698899  0.33544211  0.92156642  1
  H  H5  1  0.06154587  0.85847082  0.59727151  1
  H  H6  1  0.00445814  0.65768044  0.06403217  1
  H  H7  1  0.96733355  0.14837831  0.42285589  1
  H  H8  1  0.96302460  0.17203784  0.72689988  1
  H  H9  1  0.17851957  0.65027430  0.79515159  1
  H  H10  1  0.10345658  0.87003638  0.26554422  1
  H  H11  1  0.91666528  0.34653916  0.21164066  1
  H  H12  1  0.71034081  0.13389590  0.67590751  1
  H  H13  1  0.45576172  0.66744571  0.86578463  1
  H  H14  1  0.37011559  0.82695355  0.34197790  1
  H  H15  1  0.64283907  0.34949544  0.15432151  1
  Br  Br0  1  0.29820959  0.41699920  0.54701598  1
  Br  Br1  1  0.71020796  0.90811589  0.97078973  1
  Br  Br2  1  0.63934257  0.58644707  0.42603407  1
  Br  Br3  1  0.31021863  0.09557367  0.04577939  1
  Br  Br4  1  0.25213261  0.38819520  0.82177074  1
  Br  Br5  1  0.76370035  0.93615415  0.70503330  1
  Br  Br6  1  0.65843419  0.59012449  0.13823874  1
  Br  Br7  1  0.27739537  0.10754076  0.32597063  1
  Br  Br8  1  0.25298185  0.11124165  0.67468562  1
  Br  Br9  1  0.75195689  0.57579037  0.86933844  1
  Br  Br10  1  0.71287104  0.89416636  0.33945287  1
  Br  Br11  1  0.25490034  0.38360032  0.16031741  1
  O  O0  1  0.22953482  0.82943543  0.65573809  1
  O  O1  1  0.78896382  0.30513155  0.85720330  1
  O  O2  1  0.80442313  0.17876042  0.35565762  1
  O  O3  1  0.16925952  0.68272409  0.12848638  1
  O  O4  1  0.29954040  0.70566719  0.83088434  1
  O  O5  1  0.80033430  0.19859640  0.69482015  1
  O  O6  1  0.78373307  0.30141691  0.18773386  1
  O  O7  1  0.20246055  0.80438003  0.29870813  1
loop_
_geom_bond_atom_site_label_1
_geom_bond_atom_site_label_2
_geom_bond_distance
_geom_bond_site_symmetry_2
K0 O4 2.920786 1_554
K0 O3 2.988530 1_555
K1 O5 2.823643 1_555
K1 O2 3.097458 1_555
K2 O6 2.842188 1_555
K2 O1 2.924853 1_554
K3 O7 2.888572 1_555
H0 O1 1.013424 1_555
H1 O0 1.019537 1_555
H1 O4 1.623956 1_555
H2 O3 1.006631 1_555
H3 O2 1.008121 1_555
H4 O1 0.983633 1_555
H5 O0 0.981670 1_555
H6 O3 0.985783 1_555
H7 O2 0.981601 1_555
H8 O5 0.982748 1_555
H9 O4 0.988880 1_555
H10 O7 0.978546 1_555
H11 O6 0.979220 1_555
H12 O5 0.985616 1_555
H13 O4 0.992158 1_555
H14 O7 0.985248 1_555
H15 O6 0.981349 1_555
Br0 Zn1 2.408370 1_555
Br0 K3 3.488608 1_555
Br0 K1 3.527169 1_555
Br1 Zn0 2.434346 1_555
Br1 K2 3.360740 1_566
Br1 K0 3.468675 1_556
Br1 K0 3.876983 1_656
Br2 Zn3 2.421438 1_555
Br2 Mg0 3.212248 1_555
Br2 K3 3.329672 1_655
Br2 K1 3.392428 1_555
Br3 Zn2 2.405643 1_555
Br3 K0 3.433935 1_545
Br3 K2 3.464514 1_555
Br3 K2 3.858756 1_455
Br4 Zn1 2.381726 1_555
Br4 K1 3.731594 1_455
Br4 K2 3.790309 1_556
Br5 Zn0 2.412979 1_555
Br5 Mg0 3.201153 1_555
Br5 K0 3.581254 1_656
Br6 Zn3 2.411319 1_555
Br6 K3 3.267736 1_655
Br6 K0 3.621698 1_555
Br7 Zn2 2.396011 1_555
Br7 K2 3.632544 1_455
Br7 K1 3.767004 1_555
Br8 Zn0 2.414103 1_545
Br8 K2 3.736545 1_556
Br9 Zn1 2.463608 1_555
Br9 Mg0 3.087737 1_555
Br10 Zn2 2.446113 1_565
Br10 K3 3.444346 1_655
Br10 K0 3.758598 1_555
Br11 Zn3 2.416448 1_555
Br11 K1 3.713698 1_555
O0 Zn0 2.079056 1_555
O1 Zn1 2.095307 1_555
O2 Zn2 2.101951 1_555
O3 Zn3 2.104440 1_555
