# generated using pymatgen
data_Sm6Fe13Sn
_symmetry_space_group_name_H-M   'P 1'
_cell_length_a   8.04545200
_cell_length_b   8.04545200
_cell_length_c   12.90115159
_cell_angle_alpha   108.16843185
_cell_angle_beta   108.16843185
_cell_angle_gamma   90.00000000
_symmetry_Int_Tables_number   1
_chemical_formula_structural   Sm6Fe13Sn
_chemical_formula_sum   'Sm12 Fe26 Sn2'
_cell_volume   749.50558909
_cell_formula_units_Z   2
loop_
 _symmetry_equiv_pos_site_id
 _symmetry_equiv_pos_as_xyz
  1  'x, y, z'
loop_
 _atom_site_type_symbol
 _atom_site_label
 _atom_site_symmetry_multiplicity
 _atom_site_fract_x
 _atom_site_fract_y
 _atom_site_fract_z
 _atom_site_occupancy
  Sm  Sm0  1  0.60525300  0.60525300  0.21050600  1
  Sm  Sm1  1  0.10525300  0.10525300  0.21050600  1
  Sm  Sm2  1  0.39474700  0.39474700  0.78949400  1
  Sm  Sm3  1  0.89474700  0.89474700  0.78949400  1
  Sm  Sm4  1  0.97764500  0.47764500  0.62901000  1
  Sm  Sm5  1  0.65136500  0.15136500  0.62901000  1
  Sm  Sm6  1  0.15136500  0.97764500  0.62901000  1
  Sm  Sm7  1  0.47764500  0.65136500  0.62901000  1
  Sm  Sm8  1  0.02235500  0.52235500  0.37099000  1
  Sm  Sm9  1  0.34863500  0.84863500  0.37099000  1
  Sm  Sm10  1  0.84863500  0.02235500  0.37099000  1
  Sm  Sm11  1  0.52235500  0.34863500  0.37099000  1
  Fe  Fe0  1  0.00000000  0.50000000  0.00000000  1
  Fe  Fe1  1  0.50000000  0.00000000  0.00000000  1
  Fe  Fe2  1  0.70939700  0.56580200  0.00000000  1
  Fe  Fe3  1  0.29060300  0.43419800  0.00000000  1
  Fe  Fe4  1  0.79060300  0.06580200  0.00000000  1
  Fe  Fe5  1  0.20939700  0.93419800  0.00000000  1
  Fe  Fe6  1  0.56580200  0.29060300  0.00000000  1
  Fe  Fe7  1  0.43419800  0.70939700  0.00000000  1
  Fe  Fe8  1  0.06580200  0.20939700  0.00000000  1
  Fe  Fe9  1  0.93419800  0.79060300  0.00000000  1
  Fe  Fe10  1  0.11942300  0.61942300  0.88069400  1
  Fe  Fe11  1  0.76127100  0.26127100  0.88069400  1
  Fe  Fe12  1  0.26127100  0.11942300  0.88069400  1
  Fe  Fe13  1  0.61942300  0.76127100  0.88069400  1
  Fe  Fe14  1  0.88057700  0.38057700  0.11930600  1
  Fe  Fe15  1  0.23872900  0.73872900  0.11930600  1
  Fe  Fe16  1  0.73872900  0.88057700  0.11930600  1
  Fe  Fe17  1  0.38057700  0.23872900  0.11930600  1
  Fe  Fe18  1  0.29157500  0.79157500  0.81036100  1
  Fe  Fe19  1  0.51878600  0.01878600  0.81036100  1
  Fe  Fe20  1  0.01878600  0.29157500  0.81036100  1
  Fe  Fe21  1  0.79157500  0.51878600  0.81036100  1
  Fe  Fe22  1  0.70842500  0.20842500  0.18963900  1
  Fe  Fe23  1  0.48121400  0.98121400  0.18963900  1
  Fe  Fe24  1  0.98121400  0.70842500  0.18963900  1
  Fe  Fe25  1  0.20842500  0.48121400  0.18963900  1
  Sn  Sn0  1  0.25000000  0.25000000  0.50000000  1
  Sn  Sn1  1  0.75000000  0.75000000  0.50000000  1
loop_
_geom_bond_atom_site_label_1
_geom_bond_atom_site_label_2
_geom_bond_distance
_geom_bond_site_symmetry_2
Sm0 Sn1 3.352074 1_555
Sm0 Sm10 3.538503 1_565
Sm0 Sm8 3.538503 1_655
Sm0 Sm9 3.538503 1_555
Sm0 Sm11 3.538503 1_555
Sm1 Sn0 3.352074 1_555
Sm1 Sm11 3.538503 1_555
Sm1 Sm8 3.538503 1_555
Sm1 Sm9 3.538503 1_545
Sm1 Sm10 3.538503 1_455
Sm2 Sn0 3.352074 1_555
Sm2 Sm6 3.538503 1_545
Sm2 Sm4 3.538503 1_455
Sm2 Sm5 3.538503 1_555
Sm2 Sm7 3.538503 1_555
Sm3 Sn1 3.352074 1_555
Sm3 Sm7 3.538503 1_555
Sm3 Sm4 3.538503 1_555
Sm3 Sm5 3.538503 1_565
Sm3 Sm6 3.538503 1_655
Sm4 Sn0 3.361454 1_655
Sm4 Sn1 3.361454 1_555
Sm4 Sm8 3.582295 1_655
Sm4 Sm5 3.712410 1_555
Sm5 Sn1 3.361454 1_545
Sm5 Sn0 3.361454 1_555
Sm5 Sm9 3.582295 1_545
Sm6 Sn1 3.361454 1_455
Sm6 Sn0 3.361454 1_565
Sm6 Sm7 3.712410 1_555
Sm6 Sm8 3.977053 1_555
Sm6 Sm9 3.977053 1_555
Sm7 Sn0 3.361454 1_555
Sm7 Sn1 3.361454 1_555
Sm7 Sm8 3.977053 1_555
Sm7 Sm9 3.977053 1_555
Sm8 Sn1 3.361454 1_455
Sm8 Sn0 3.361454 1_555
Sm8 Sm9 3.712410 1_555
Sm9 Sn1 3.361454 1_555
Sm9 Sn0 3.361454 1_565
Sm10 Sn0 3.361454 1_655
Sm10 Sn1 3.361454 1_545
Sm10 Sm6 3.582295 1_645
Sm10 Sm11 3.712410 1_555
Sm10 Sm4 3.977053 1_555
Sm10 Sm5 3.977053 1_555
Sm11 Sn1 3.361454 1_555
Sm11 Sn0 3.361454 1_555
Sm11 Sm7 3.582295 1_555
Sm11 Sm4 3.977053 1_555
Sm11 Sm5 3.977053 1_555
Fe0 Fe9 2.397221 1_455
Fe0 Fe8 2.397221 1_555
Fe0 Fe3 2.397221 1_555
Fe0 Fe2 2.397221 1_455
Fe0 Fe15 2.461690 1_555
Fe0 Fe11 2.461690 1_454
Fe0 Fe10 2.461691 1_554
Fe0 Fe14 2.461691 1_455
Fe0 Fe25 2.548049 1_555
Fe0 Fe20 2.548049 1_554
Fe0 Fe24 2.548049 1_455
Fe0 Fe21 2.548049 1_454
Fe1 Fe4 2.397221 1_555
Fe1 Fe5 2.397221 1_545
Fe1 Fe6 2.397221 1_555
Fe1 Fe7 2.397221 1_545
Fe1 Fe17 2.461690 1_555
Fe1 Fe12 2.461690 1_554
Fe1 Fe13 2.461690 1_544
Fe1 Fe16 2.461690 1_545
Fe1 Fe22 2.548049 1_555
Fe1 Fe18 2.548049 1_544
Fe1 Fe19 2.548049 1_554
Fe1 Fe23 2.548049 1_545
Fe2 Fe7 2.497384 1_555
Fe2 Fe6 2.497384 1_555
Fe2 Fe9 2.557783 1_555
Fe2 Fe24 2.645278 1_555
Fe2 Fe21 2.645279 1_554
Fe2 Sm2 3.009934 1_554
Fe2 Sm0 3.009934 1_555
Fe3 Fe7 2.497384 1_555
Fe3 Fe6 2.497384 1_555
Fe3 Fe8 2.557783 1_555
Fe3 Sm0 3.009934 1_555
Fe3 Sm2 3.009934 1_554
Fe4 Fe8 2.497384 1_655
Fe4 Fe9 2.497384 1_545
Fe4 Fe6 2.557783 1_555
Fe4 Sm1 3.009934 1_655
Fe4 Sm3 3.009934 1_544
Fe5 Fe9 2.497384 1_455
Fe5 Fe8 2.497384 1_565
Fe5 Fe7 2.557783 1_555
Fe5 Sm3 3.009934 1_454
Fe5 Sm1 3.009934 1_565
Fe6 Sm0 3.009934 1_555
Fe6 Sm2 3.009934 1_554
Fe7 Sm2 3.009934 1_554
Fe7 Sm0 3.009934 1_555
Fe8 Sm3 3.009934 1_444
Fe8 Sm1 3.009934 1_555
Fe9 Sm1 3.009934 1_665
Fe9 Sm3 3.009934 1_554
Fe10 Fe7 2.486156 1_556
Fe10 Fe5 2.486156 1_556
Fe10 Fe18 2.495494 1_555
Fe10 Fe20 2.546676 1_555
Fe10 Fe21 2.546676 1_455
Fe10 Fe3 2.568081 1_556
Fe10 Fe9 2.568081 1_456
Fe10 Fe15 2.762907 1_556
Fe10 Sm4 2.919904 1_455
Fe10 Sm2 3.139670 1_555
Fe10 Sm3 3.139670 1_455
Fe11 Fe6 2.486157 1_556
Fe11 Fe4 2.486157 1_556
Fe11 Fe19 2.495493 1_555
Fe11 Fe21 2.546676 1_555
Fe11 Fe20 2.546676 1_655
Fe11 Fe2 2.568081 1_556
Fe11 Fe8 2.568081 1_656
Fe11 Fe14 2.762907 1_556
Fe11 Sm5 2.919904 1_555
Fe11 Sm2 3.139670 1_555
Fe11 Sm3 3.139670 1_545
Fe12 Fe3 2.486156 1_556
Fe12 Fe8 2.486157 1_556
Fe12 Fe20 2.495494 1_555
Fe12 Fe18 2.546676 1_545
Fe12 Fe19 2.546676 1_555
Fe12 Fe6 2.568081 1_556
Fe12 Fe5 2.568081 1_546
Fe12 Fe17 2.762907 1_556
Fe12 Sm6 2.919904 1_545
Fe12 Sm3 3.139670 1_445
Fe12 Sm2 3.139670 1_555
Fe13 Fe9 2.486156 1_556
Fe13 Fe2 2.486157 1_556
Fe13 Fe21 2.495494 1_555
Fe13 Fe18 2.546676 1_555
Fe13 Fe19 2.546676 1_565
Fe13 Fe4 2.568081 1_566
Fe13 Fe7 2.568081 1_556
Fe13 Fe16 2.762907 1_556
Fe13 Sm7 2.919904 1_555
Fe13 Sm2 3.139670 1_555
Fe13 Sm3 3.139670 1_555
Fe14 Fe6 2.486156 1_555
Fe14 Fe4 2.486156 1_555
Fe14 Fe22 2.495494 1_555
Fe14 Fe24 2.546676 1_555
Fe14 Fe25 2.546676 1_655
Fe14 Fe2 2.568081 1_555
Fe14 Fe8 2.568081 1_655
Fe14 Sm8 2.919904 1_655
Fe14 Sm0 3.139670 1_555
Fe14 Sm1 3.139670 1_655
Fe15 Fe7 2.486157 1_555
Fe15 Fe5 2.486157 1_555
Fe15 Fe23 2.495493 1_555
Fe15 Fe25 2.546676 1_555
Fe15 Fe24 2.546676 1_455
Fe15 Fe9 2.568081 1_455
Fe15 Fe3 2.568081 1_555
Fe15 Sm9 2.919904 1_555
Fe15 Sm0 3.139670 1_555
Fe15 Sm1 3.139670 1_565
Fe16 Fe2 2.486156 1_555
Fe16 Fe9 2.486157 1_555
Fe16 Fe24 2.495494 1_555
Fe16 Fe22 2.546676 1_565
Fe16 Fe23 2.546676 1_555
Fe16 Fe7 2.568081 1_555
Fe16 Fe4 2.568081 1_565
Fe16 Sm10 2.919904 1_565
Fe16 Sm1 3.139670 1_665
Fe16 Sm0 3.139670 1_555
Fe17 Fe8 2.486156 1_555
Fe17 Fe3 2.486157 1_555
Fe17 Fe25 2.495494 1_555
Fe17 Fe22 2.546676 1_555
Fe17 Fe23 2.546676 1_545
Fe17 Fe5 2.568081 1_545
Fe17 Fe6 2.568081 1_555
Fe17 Sm11 2.919904 1_555
Fe17 Sm0 3.139670 1_555
Fe17 Sm1 3.139670 1_555
Fe18 Fe19 2.585204 1_565
Fe18 Fe7 2.645279 1_556
Fe18 Fe5 2.645279 1_556
Fe18 Sm7 3.086390 1_555
Fe18 Sm6 3.086390 1_555
Fe18 Sm2 3.249295 1_555
Fe18 Sm3 3.249295 1_455
Fe18 Sm4 3.295760 1_455
Fe19 Fe4 2.645279 1_556
Fe19 Fe6 2.645279 1_556
Fe19 Sm6 3.086390 1_545
Fe19 Sm7 3.086390 1_545
Fe19 Sm2 3.249295 1_555
Fe19 Sm3 3.249295 1_545
Fe19 Sm5 3.295760 1_555
Fe20 Fe21 2.585204 1_455
Fe20 Fe3 2.645278 1_556
Fe20 Fe8 2.645279 1_556
Fe20 Sm5 3.086390 1_455
Fe20 Sm4 3.086390 1_455
Fe20 Sm3 3.249295 1_445
Fe20 Sm2 3.249295 1_555
Fe20 Sm6 3.295760 1_545
Fe21 Fe9 2.645278 1_556
Fe21 Sm5 3.086390 1_555
Fe21 Sm4 3.086390 1_555
Fe21 Sm2 3.249295 1_555
Fe21 Sm3 3.249295 1_555
Fe21 Sm7 3.295760 1_555
Fe22 Fe23 2.585204 1_545
Fe22 Fe4 2.645279 1_555
Fe22 Fe6 2.645279 1_555
Fe22 Sm10 3.086390 1_555
Fe22 Sm11 3.086390 1_555
Fe22 Sm0 3.249295 1_555
Fe22 Sm1 3.249295 1_655
Fe22 Sm8 3.295760 1_655
Fe23 Fe7 2.645279 1_555
Fe23 Fe5 2.645279 1_555
Fe23 Sm10 3.086390 1_565
Fe23 Sm11 3.086390 1_565
Fe23 Sm0 3.249295 1_555
Fe23 Sm1 3.249295 1_565
Fe23 Sm9 3.295760 1_555
Fe24 Fe25 2.585204 1_655
Fe24 Fe9 2.645279 1_555
Fe24 Sm9 3.086390 1_655
Fe24 Sm8 3.086390 1_655
Fe24 Sm1 3.249295 1_665
Fe24 Sm0 3.249295 1_555
Fe24 Sm10 3.295760 1_565
Fe25 Fe8 2.645278 1_555
Fe25 Fe3 2.645279 1_555
Fe25 Sm9 3.086390 1_555
Fe25 Sm8 3.086390 1_555
Fe25 Sm0 3.249295 1_555
Fe25 Sm1 3.249295 1_555
Fe25 Sm11 3.295760 1_555
