# generated using pymatgen
data_Gd2Nb2S7O30
_symmetry_space_group_name_H-M   'P 1'
_cell_length_a   7.19319137
_cell_length_b   12.90517782
_cell_length_c   12.90517782
_cell_angle_alpha   90.00000000
_cell_angle_beta   90.00000000
_cell_angle_gamma   90.00000000
_symmetry_Int_Tables_number   1
_chemical_formula_structural   Gd2Nb2S7O30
_chemical_formula_sum   'Gd4 Nb4 S14 O60'
_cell_volume   1197.98009102
_cell_formula_units_Z   2
loop_
 _symmetry_equiv_pos_site_id
 _symmetry_equiv_pos_as_xyz
  1  'x, y, z'
loop_
 _atom_site_type_symbol
 _atom_site_label
 _atom_site_symmetry_multiplicity
 _atom_site_fract_x
 _atom_site_fract_y
 _atom_site_fract_z
 _atom_site_occupancy
  Gd  Gd0  1  0.59219860  0.80116917  0.30116917  1
  Gd  Gd1  1  0.40780140  0.69883083  0.80116917  1
  Gd  Gd2  1  0.59219860  0.19883083  0.69883083  1
  Gd  Gd3  1  0.40780140  0.30116917  0.19883083  1
  Nb  Nb0  1  0.98241796  0.63819991  0.13819991  1
  Nb  Nb1  1  0.01758204  0.86180009  0.63819991  1
  Nb  Nb2  1  0.98241796  0.36180009  0.86180009  1
  Nb  Nb3  1  0.01758204  0.13819991  0.36180009  1
  S  S0  1  0.34548525  0.50000000  0.00000000  1
  S  S1  1  0.65451475  -0.00000000  0.50000000  1
  S  S2  1  0.89562966  0.37678873  0.12321127  1
  S  S3  1  0.10437034  0.12321127  0.62321127  1
  S  S4  1  0.89562966  0.62321127  0.87678873  1
  S  S5  1  0.10437034  0.87678873  0.37678873  1
  S  S6  1  0.29660579  0.56458543  0.32363417  1
  S  S7  1  0.70339421  0.93541457  0.82363417  1
  S  S8  1  0.29660579  0.43541457  0.67636583  1
  S  S9  1  0.70339421  0.06458543  0.17636583  1
  S  S10  1  0.70339421  0.67636583  0.56458543  1
  S  S11  1  0.29660579  0.82363417  0.06458543  1
  S  S12  1  0.70339421  0.32363417  0.43541457  1
  S  S13  1  0.29660579  0.17636583  0.93541457  1
  O  O0  1  0.79239587  0.70049705  0.20049705  1
  O  O1  1  0.20760413  0.79950295  0.70049705  1
  O  O2  1  0.79239587  0.29950295  0.79950295  1
  O  O3  1  0.20760413  0.20049705  0.29950295  1
  O  O4  1  0.45995214  0.56714003  0.93285997  1
  O  O5  1  0.54004786  0.93285997  0.43285997  1
  O  O6  1  0.45995214  0.43285997  0.06714003  1
  O  O7  1  0.54004786  0.06714003  0.56714003  1
  O  O8  1  0.22488436  0.56609427  0.06609427  1
  O  O9  1  0.77511564  0.93390573  0.56609427  1
  O  O10  1  0.22488436  0.43390573  0.93390573  1
  O  O11  1  0.77511564  0.06609427  0.43390573  1
  O  O12  1  0.07931877  0.34359832  0.15640168  1
  O  O13  1  0.92068123  0.15640168  0.65640168  1
  O  O14  1  0.07931877  0.65640168  0.84359832  1
  O  O15  1  0.92068123  0.84359832  0.34359832  1
  O  O16  1  0.74272655  0.32398622  0.17601378  1
  O  O17  1  0.25727345  0.17601378  0.67601378  1
  O  O18  1  0.74272655  0.67601378  0.82398622  1
  O  O19  1  0.25727345  0.82398622  0.32398622  1
  O  O20  1  0.87220592  0.49139560  0.14176563  1
  O  O21  1  0.12779408  0.00860440  0.64176563  1
  O  O22  1  0.87220592  0.50860440  0.85823437  1
  O  O23  1  0.12779408  0.99139560  0.35823437  1
  O  O24  1  0.12779408  0.85823437  0.49139560  1
  O  O25  1  0.87220592  0.64176563  0.99139560  1
  O  O26  1  0.12779408  0.14176563  0.50860440  1
  O  O27  1  0.87220592  0.35823437  0.00860440  1
  O  O28  1  0.45157683  0.63103117  0.28944353  1
  O  O29  1  0.54842317  0.86896883  0.78944353  1
  O  O30  1  0.45157683  0.36896883  0.71055647  1
  O  O31  1  0.54842317  0.13103117  0.21055647  1
  O  O32  1  0.54842317  0.71055647  0.63103117  1
  O  O33  1  0.45157683  0.78944353  0.13103117  1
  O  O34  1  0.54842317  0.28944353  0.36896883  1
  O  O35  1  0.45157683  0.21055647  0.86896883  1
  O  O36  1  0.32417509  0.45682462  0.29150550  1
  O  O37  1  0.67582491  0.04317538  0.79150550  1
  O  O38  1  0.32417509  0.54317538  0.70849450  1
  O  O39  1  0.67582491  0.95682462  0.20849450  1
  O  O40  1  0.67582491  0.70849450  0.45682462  1
  O  O41  1  0.32417509  0.79150550  0.95682462  1
  O  O42  1  0.67582491  0.29150550  0.54317538  1
  O  O43  1  0.32417509  0.20849450  0.04317538  1
  O  O44  1  0.26716764  0.57536098  0.43513207  1
  O  O45  1  0.73283236  0.92463902  0.93513207  1
  O  O46  1  0.26716764  0.42463902  0.56486793  1
  O  O47  1  0.73283236  0.07536098  0.06486793  1
  O  O48  1  0.73283236  0.56486793  0.57536098  1
  O  O49  1  0.26716764  0.93513207  0.07536098  1
  O  O50  1  0.73283236  0.43513207  0.42463902  1
  O  O51  1  0.26716764  0.06486793  0.92463902  1
  O  O52  1  0.11977268  0.60527658  0.26943771  1
  O  O53  1  0.88022732  0.89472342  0.76943771  1
  O  O54  1  0.11977268  0.39472342  0.73056229  1
  O  O55  1  0.88022732  0.10527658  0.23056229  1
  O  O56  1  0.88022732  0.73056229  0.60527658  1
  O  O57  1  0.11977268  0.76943771  0.10527658  1
  O  O58  1  0.88022732  0.26943771  0.39472342  1
  O  O59  1  0.11977268  0.23056229  0.89472342  1
loop_
_geom_bond_atom_site_label_1
_geom_bond_atom_site_label_2
_geom_bond_distance
_geom_bond_site_symmetry_2
Gd0 O0 2.334430 1_555
Gd0 O39 2.413990 1_555
Gd0 O40 2.413990 1_555
Gd0 O28 2.422189 1_555
Gd0 O33 2.422189 1_555
Gd0 O5 2.432545 1_555
Gd0 O19 2.444905 1_555
Gd0 O15 2.486491 1_555
Gd1 O1 2.334430 1_555
Gd1 O41 2.413990 1_555
Gd1 O38 2.413990 1_555
Gd1 O32 2.422189 1_555
Gd1 O29 2.422189 1_555
Gd1 O4 2.432545 1_555
Gd1 O18 2.444905 1_555
Gd1 O14 2.486491 1_555
Gd2 O2 2.334430 1_555
Gd2 O42 2.413990 1_555
Gd2 O37 2.413990 1_555
Gd2 O30 2.422189 1_555
Gd2 O35 2.422189 1_555
Gd2 O7 2.432545 1_555
Gd2 O17 2.444905 1_555
Gd2 O13 2.486491 1_555
Gd3 O3 2.334430 1_555
Gd3 O36 2.413990 1_555
Gd3 O43 2.413990 1_555
Gd3 O31 2.422189 1_555
Gd3 O34 2.422189 1_555
Gd3 O6 2.432545 1_555
Gd3 O16 2.444905 1_555
Gd3 O12 2.486491 1_555
Nb0 O0 1.777923 1_555
Nb0 O52 2.006277 1_655
Nb0 O57 2.006277 1_655
Nb0 O20 2.054234 1_555
Nb0 O25 2.054234 1_554
Nb0 O8 2.184881 1_655
Nb1 O1 1.777923 1_555
Nb1 O56 2.006277 1_455
Nb1 O53 2.006277 1_455
Nb1 O24 2.054234 1_555
Nb1 O21 2.054234 1_565
Nb1 O9 2.184881 1_455
Nb2 O2 1.777923 1_555
Nb2 O54 2.006277 1_655
Nb2 O59 2.006277 1_655
Nb2 O22 2.054234 1_555
Nb2 O27 2.054234 1_556
Nb2 O10 2.184881 1_655
Nb3 O3 1.777923 1_555
Nb3 O58 2.006277 1_455
Nb3 O55 2.006277 1_455
Nb3 O26 2.054234 1_555
Nb3 O23 2.054234 1_545
Nb3 O11 2.184881 1_455
O4 S0 1.476294 1_556
O5 S1 1.476294 1_565
O6 S0 1.476294 1_555
O7 S1 1.476294 1_555
O8 S0 1.485813 1_555
O9 S1 1.485813 1_565
O10 S0 1.485813 1_556
O11 S1 1.485813 1_555
O12 S2 1.453545 1_455
O13 S3 1.453545 1_655
O14 S4 1.453545 1_455
O15 S5 1.453545 1_655
O16 S2 1.462319 1_555
O17 S3 1.462319 1_555
O18 S4 1.462319 1_555
O19 S5 1.462319 1_555
O20 S2 1.507724 1_555
O21 S3 1.507724 1_555
O22 S4 1.507724 1_555
O23 S5 1.507724 1_555
O24 S5 1.507724 1_555
O25 S4 1.507724 1_555
O26 S3 1.507724 1_555
O27 S2 1.507724 1_555
O28 S6 1.473982 1_555
O29 S7 1.473982 1_555
O30 S8 1.473982 1_555
O31 S9 1.473982 1_555
O32 S10 1.473982 1_555
O33 S11 1.473982 1_555
O34 S12 1.473982 1_555
O35 S13 1.473982 1_555
O36 S6 1.464654 1_555
O37 S7 1.464654 1_545
O38 S8 1.464654 1_555
O39 S9 1.464654 1_565
O40 S10 1.464654 1_555
O41 S11 1.464654 1_556
O42 S12 1.464654 1_555
O43 S13 1.464654 1_554
O44 S6 1.461031 1_555
O45 S7 1.461031 1_555
O46 S8 1.461031 1_555
O47 S9 1.461031 1_555
O48 S10 1.461031 1_555
O49 S11 1.461031 1_555
O50 S12 1.461031 1_555
O51 S13 1.461031 1_555
O52 S6 1.543667 1_555
O53 S7 1.543667 1_555
O54 S8 1.543667 1_555
O55 S9 1.543667 1_555
O56 S10 1.543667 1_555
O57 S11 1.543667 1_555
O58 S12 1.543667 1_555
O59 S13 1.543667 1_555
