# generated using pymatgen
data_Zn3Bi2O7
_symmetry_space_group_name_H-M   'P 1'
_cell_length_a   10.41071430
_cell_length_b   10.41071430
_cell_length_c   5.55905100
_cell_angle_alpha   90.00000000
_cell_angle_beta   90.00000000
_cell_angle_gamma   148.41796912
_symmetry_Int_Tables_number   1
_chemical_formula_structural   Zn3Bi2O7
_chemical_formula_sum   'Zn6 Bi4 O14'
_cell_volume   315.54394221
_cell_formula_units_Z   2
loop_
 _symmetry_equiv_pos_site_id
 _symmetry_equiv_pos_as_xyz
  1  'x, y, z'
loop_
 _atom_site_type_symbol
 _atom_site_label
 _atom_site_symmetry_multiplicity
 _atom_site_fract_x
 _atom_site_fract_y
 _atom_site_fract_z
 _atom_site_occupancy
  Zn  Zn0  1  0.73842700  0.73842700  0.25456500  1
  Zn  Zn1  1  0.26157300  0.26157300  0.75456500  1
  Zn  Zn2  1  0.00536300  0.58515100  0.21697700  1
  Zn  Zn3  1  0.99463700  0.41484900  0.71697700  1
  Zn  Zn4  1  0.58515100  0.00536300  0.21697700  1
  Zn  Zn5  1  0.41484900  0.99463700  0.71697700  1
  Bi  Bi0  1  0.15529500  0.36498800  0.24534500  1
  Bi  Bi1  1  0.84470500  0.63501200  0.74534500  1
  Bi  Bi2  1  0.63501200  0.84470500  0.74534500  1
  Bi  Bi3  1  0.36498800  0.15529500  0.24534500  1
  O  O0  1  0.33867600  0.92305200  0.35430800  1
  O  O1  1  0.66132400  0.07694800  0.85430800  1
  O  O2  1  0.07694800  0.66132400  0.85430800  1
  O  O3  1  0.92305200  0.33867600  0.35430800  1
  O  O4  1  0.54797900  0.25586500  0.90815600  1
  O  O5  1  0.45202100  0.74413500  0.40815600  1
  O  O6  1  0.74413500  0.45202100  0.40815600  1
  O  O7  1  0.25586500  0.54797900  0.90815600  1
  O  O8  1  0.98524300  0.83645200  0.09002500  1
  O  O9  1  0.01475700  0.16354800  0.59002500  1
  O  O10  1  0.39915900  0.39915900  0.09581400  1
  O  O11  1  0.60084100  0.60084100  0.59581400  1
  O  O12  1  0.83645200  0.98524300  0.09002500  1
  O  O13  1  0.16354800  0.01475700  0.59002500  1
loop_
_geom_bond_atom_site_label_1
_geom_bond_atom_site_label_2
_geom_bond_distance
_geom_bond_site_symmetry_2
Bi0 O7 2.200154 1_554
Bi0 O9 2.232107 1_555
Bi0 O12 2.243824 1_445
Bi0 O3 2.271421 1_455
Bi0 O5 2.273175 1_555
Bi0 O10 2.392537 1_555
Bi1 O6 2.200154 1_555
Bi1 O8 2.232107 1_556
Bi1 O13 2.243824 1_665
Bi1 O2 2.271421 1_655
Bi1 O4 2.273175 1_555
Bi1 O11 2.392537 1_555
Bi2 O5 2.200154 1_555
Bi2 O12 2.232107 1_556
Bi2 O9 2.243824 1_665
Bi2 O1 2.271421 1_565
Bi2 O7 2.273175 1_555
Bi2 O11 2.392537 1_555
Bi3 O4 2.200154 1_554
Bi3 O13 2.232107 1_555
Bi3 O8 2.243824 1_445
Bi3 O0 2.271421 1_545
Bi3 O6 2.273175 1_555
Bi3 O10 2.392537 1_555
O0 Zn4 2.038396 1_565
O0 Zn2 2.049630 1_555
O0 Zn5 2.059608 1_555
O1 Zn5 2.038396 1_545
O1 Zn3 2.049630 1_555
O1 Zn4 2.059608 1_556
O2 Zn3 2.038396 1_455
O2 Zn5 2.049630 1_555
O2 Zn2 2.059608 1_556
O3 Zn2 2.038396 1_655
O3 Zn4 2.049630 1_555
O3 Zn3 2.059608 1_555
O4 Zn5 2.006110 1_545
O5 Zn4 2.006110 1_565
O6 Zn2 2.006110 1_655
O7 Zn3 2.006110 1_455
O8 Zn0 2.003214 1_555
O9 Zn1 2.003214 1_555
O10 Zn1 2.050958 1_554
O10 Zn0 2.115226 1_555
O11 Zn0 2.050958 1_555
O11 Zn1 2.115226 1_555
O12 Zn0 2.003214 1_555
O13 Zn1 2.003214 1_555
