# generated using pymatgen
data_Sr4LiMn2(GaO5)2
_symmetry_space_group_name_H-M   'P 1'
_cell_length_a   5.64348813
_cell_length_b   5.69064535
_cell_length_c   9.53154240
_cell_angle_alpha   72.85892266
_cell_angle_beta   73.59476436
_cell_angle_gamma   91.22164274
_symmetry_Int_Tables_number   1
_chemical_formula_structural   Sr4LiMn2(GaO5)2
_chemical_formula_sum   'Sr4 Li1 Mn2 Ga2 O10'
_cell_volume   278.76975040
_cell_formula_units_Z   1
loop_
 _symmetry_equiv_pos_site_id
 _symmetry_equiv_pos_as_xyz
  1  'x, y, z'
loop_
 _atom_site_type_symbol
 _atom_site_label
 _atom_site_symmetry_multiplicity
 _atom_site_fract_x
 _atom_site_fract_y
 _atom_site_fract_z
 _atom_site_occupancy
  Sr  Sr0  1  0.09849400  0.61137500  0.79185700  1
  Sr  Sr1  1  0.90150600  0.38862500  0.20814300  1
  Sr  Sr2  1  0.70720200  0.08222800  0.71453800  1
  Sr  Sr3  1  0.29279800  0.91777200  0.28546200  1
  Li  Li0  1  0.50000000  0.00000000  0.00000000  1
  Mn  Mn0  1  0.50000000  0.50000000  0.00000000  1
  Mn  Mn1  1  0.00000000  0.00000000  0.00000000  1
  Ga  Ga0  1  0.67344800  0.67698100  0.50186900  1
  Ga  Ga1  1  0.32655200  0.32301900  0.49813100  1
  O  O0  1  0.24479700  0.23534100  0.01267700  1
  O  O1  1  0.24795300  0.75742800  0.00416500  1
  O  O2  1  0.75204700  0.24257200  0.99583500  1
  O  O3  1  0.75520300  0.76465900  0.98732300  1
  O  O4  1  0.69878100  0.66631100  0.69236600  1
  O  O5  1  0.30121900  0.33368900  0.30763400  1
  O  O6  1  0.15026200  0.10253500  0.68602600  1
  O  O7  1  0.84973800  0.89746500  0.31397400  1
  O  O8  1  0.32114700  0.64979200  0.52130900  1
  O  O9  1  0.67885300  0.35020800  0.47869100  1
loop_
_geom_bond_atom_site_label_1
_geom_bond_atom_site_label_2
_geom_bond_distance
_geom_bond_site_symmetry_2
Li0 O1 1.944845 1_545
Li0 O2 1.944845 1_554
Li0 O3 1.990422 1_544
Li0 O0 1.990422 1_555
Mn0 O3 2.014720 1_554
Mn0 O0 2.014720 1_555
Mn0 O1 2.064492 1_555
Mn0 O2 2.064492 1_554
Mn0 O4 2.685705 1_554
Mn0 O5 2.685705 1_555
Mn1 O0 1.956406 1_555
Mn1 O3 1.956406 1_444
Mn1 O1 1.986603 1_545
Mn1 O2 1.986603 1_454
Mn1 O7 2.744392 1_445
Mn1 O6 2.744392 1_554
Ga0 O7 1.840456 1_555
Ga0 O4 1.844727 1_555
Ga0 O9 1.936086 1_555
Ga0 O8 1.942454 1_555
Ga1 O6 1.840456 1_555
Ga1 O5 1.844727 1_555
Ga1 O8 1.936086 1_555
Ga1 O9 1.942454 1_555
O0 Sr1 2.641309 1_455
O0 Sr3 2.783633 1_545
O0 Sr0 2.844801 1_554
O1 Sr1 2.698148 1_455
O1 Sr0 2.724504 1_554
O2 Sr0 2.698148 1_655
O2 Sr1 2.724504 1_556
O3 Sr0 2.641309 1_655
O3 Sr2 2.783633 1_565
O3 Sr1 2.844801 1_556
O4 Sr2 2.438145 1_565
O4 Sr0 2.673794 1_655
O5 Sr3 2.438145 1_545
O5 Sr1 2.673794 1_455
O6 Sr2 2.434043 1_455
O6 Sr0 2.655526 1_545
O7 Sr3 2.434043 1_655
O7 Sr1 2.655526 1_565
O8 Sr3 2.365890 1_555
O8 Sr0 2.470275 1_555
O9 Sr2 2.365890 1_555
O9 Sr1 2.470275 1_555
