# generated using pymatgen
data_GaSb
_symmetry_space_group_name_H-M   'P 1'
_cell_length_a   14.31716100
_cell_length_b   13.45730578
_cell_length_c   14.24827397
_cell_angle_alpha   90.30696303
_cell_angle_beta   90.57019183
_cell_angle_gamma   91.16363975
_symmetry_Int_Tables_number   1
_chemical_formula_structural   GaSb
_chemical_formula_sum   'Ga50 Sb50'
_cell_volume   2744.47634816
_cell_formula_units_Z   50
loop_
 _symmetry_equiv_pos_site_id
 _symmetry_equiv_pos_as_xyz
  1  'x, y, z'
loop_
 _atom_site_type_symbol
 _atom_site_label
 _atom_site_symmetry_multiplicity
 _atom_site_fract_x
 _atom_site_fract_y
 _atom_site_fract_z
 _atom_site_occupancy
  Ga  Ga0  1  0.64154621  0.20355544  0.78426944  1
  Ga  Ga1  1  0.12761172  0.92449520  0.20874040  1
  Ga  Ga2  1  0.76522862  0.70942646  0.02342759  1
  Ga  Ga3  1  0.17627196  0.35678648  0.88833717  1
  Ga  Ga4  1  0.41893508  0.48899739  0.02169766  1
  Ga  Ga5  1  0.18127941  0.75018126  0.14830639  1
  Ga  Ga6  1  0.84510603  0.88485623  0.92620071  1
  Ga  Ga7  1  0.36267998  0.44555414  0.51048777  1
  Ga  Ga8  1  0.10123453  0.75716352  0.69371356  1
  Ga  Ga9  1  0.89244639  0.47970560  0.94201474  1
  Ga  Ga10  1  0.04820202  0.79210234  0.34191186  1
  Ga  Ga11  1  0.70848307  0.76787199  0.71933003  1
  Ga  Ga12  1  0.85639051  0.28444699  0.02401879  1
  Ga  Ga13  1  0.55216693  0.67017237  0.27322959  1
  Ga  Ga14  1  0.67053994  0.24131177  0.96195623  1
  Ga  Ga15  1  0.70049219  0.86428084  0.11892319  1
  Ga  Ga16  1  0.02646175  0.90949463  0.50087833  1
  Ga  Ga17  1  0.48502238  0.57691187  0.43336885  1
  Ga  Ga18  1  0.98621045  0.31388679  0.86502854  1
  Ga  Ga19  1  0.63789548  0.68611031  0.57145105  1
  Ga  Ga20  1  0.22979168  0.87037848  0.37475821  1
  Ga  Ga21  1  0.69110672  0.14621123  0.46089461  1
  Ga  Ga22  1  0.81963344  0.34159529  0.22752082  1
  Ga  Ga23  1  0.97909815  0.59464511  0.29222650  1
  Ga  Ga24  1  0.30724697  0.65905265  0.44140893  1
  Ga  Ga25  1  0.71718429  0.85826460  0.43754069  1
  Ga  Ga26  1  0.87421644  0.75134167  0.42770387  1
  Ga  Ga27  1  0.52870110  0.30371011  0.55776200  1
  Ga  Ga28  1  0.48618794  0.23589214  0.98089576  1
  Ga  Ga29  1  0.94903067  0.17561296  0.57740070  1
  Ga  Ga30  1  0.17928317  0.47405087  0.54201193  1
  Ga  Ga31  1  0.73254837  0.72688528  0.26722258  1
  Ga  Ga32  1  0.41238735  0.06748906  0.89968146  1
  Ga  Ga33  1  0.06544652  0.62019232  0.07311443  1
  Ga  Ga34  1  0.94112728  0.55012624  0.68633804  1
  Ga  Ga35  1  0.95916652  0.26107856  0.32437205  1
  Ga  Ga36  1  0.30801757  0.04326913  0.40717078  1
  Ga  Ga37  1  0.05740200  0.79679305  0.87928455  1
  Ga  Ga38  1  0.14002543  0.37505643  0.06321687  1
  Ga  Ga39  1  0.47006836  0.13302406  0.38133122  1
  Ga  Ga40  1  0.88851314  0.97301783  0.76734115  1
  Ga  Ga41  1  0.71488705  0.44057605  0.98758375  1
  Ga  Ga42  1  0.27396447  0.94540447  0.83763275  1
  Ga  Ga43  1  0.10087598  0.98728042  0.87391940  1
  Ga  Ga44  1  0.10824884  0.34171196  0.69869882  1
  Ga  Ga45  1  0.54036581  0.84023091  0.49435605  1
  Ga  Ga46  1  0.64798734  0.31566970  0.14692665  1
  Ga  Ga47  1  0.84158861  0.41562163  0.76196067  1
  Ga  Ga48  1  0.89432793  0.10941414  0.93477816  1
  Ga  Ga49  1  0.03589743  0.59511084  0.89602937  1
  Sb  Sb0  1  0.42285610  0.73739382  0.61895443  1
  Sb  Sb1  1  0.71998642  0.04699098  0.02255277  1
  Sb  Sb2  1  0.42773950  0.81175685  0.33871325  1
  Sb  Sb3  1  0.29118921  0.20684320  0.00992115  1
  Sb  Sb4  1  0.24325515  0.82941095  0.57233330  1
  Sb  Sb5  1  0.37147057  0.54923366  0.73314388  1
  Sb  Sb6  1  0.97927645  0.05457141  0.36106027  1
  Sb  Sb7  1  0.03992128  0.03711097  0.06388296  1
  Sb  Sb8  1  0.37263666  0.37170459  0.86864215  1
  Sb  Sb9  1  0.63826592  0.64110137  0.87595768  1
  Sb  Sb10  1  0.28529665  0.96724504  0.04978338  1
  Sb  Sb11  1  0.54596162  0.04215003  0.54443278  1
  Sb  Sb12  1  0.47093066  0.16869372  0.69304533  1
  Sb  Sb13  1  0.54053992  0.50307541  0.63099427  1
  Sb  Sb14  1  0.67037416  0.13472312  0.26793775  1
  Sb  Sb15  1  0.27130984  0.13680965  0.22292286  1
  Sb  Sb16  1  0.91231377  0.54147196  0.49022660  1
  Sb  Sb17  1  0.09365438  0.65967800  0.50066176  1
  Sb  Sb18  1  0.19018160  0.17662315  0.49870370  1
  Sb  Sb19  1  0.78983044  0.24867126  0.66759877  1
  Sb  Sb20  1  0.24038435  0.76724148  0.96134280  1
  Sb  Sb21  1  0.18901892  0.60513510  0.28666918  1
  Sb  Sb22  1  0.83723431  0.01969861  0.50432516  1
  Sb  Sb23  1  0.49264559  0.97459916  0.06463088  1
  Sb  Sb24  1  0.08870036  0.21925087  0.17541694  1
  Sb  Sb25  1  0.63705924  0.88227383  0.88538946  1
  Sb  Sb26  1  0.48375042  0.15924072  0.17686668  1
  Sb  Sb27  1  0.86581957  0.68867431  0.82138123  1
  Sb  Sb28  1  0.91673812  0.81338855  0.64652335  1
  Sb  Sb29  1  0.14745276  0.01641834  0.62690331  1
  Sb  Sb30  1  0.29422725  0.29842866  0.63555760  1
  Sb  Sb31  1  0.47651510  0.34409946  0.36966181  1
  Sb  Sb32  1  0.87120067  0.88167522  0.24409469  1
  Sb  Sb33  1  0.76492858  0.55247163  0.15316945  1
  Sb  Sb34  1  0.02118574  0.35062025  0.49671385  1
  Sb  Sb35  1  0.71118828  0.34012932  0.50461349  1
  Sb  Sb36  1  0.60884883  0.92468214  0.28343273  1
  Sb  Sb37  1  0.56176392  0.50371869  0.15347379  1
  Sb  Sb38  1  0.97014704  0.44746594  0.12715625  1
  Sb  Sb39  1  0.13045187  0.55632988  0.73573371  1
  Sb  Sb40  1  0.65341000  0.43078155  0.79800102  1
  Sb  Sb41  1  0.69398426  0.58908132  0.41422370  1
  Sb  Sb42  1  0.86036745  0.11778759  0.16372619  1
  Sb  Sb43  1  0.27873242  0.32978609  0.32151391  1
  Sb  Sb44  1  0.95557950  0.79860705  0.07183876  1
  Sb  Sb45  1  0.01741658  0.13120176  0.75777390  1
  Sb  Sb46  1  0.70081869  0.99192184  0.72070844  1
  Sb  Sb47  1  0.42938685  0.66344203  0.90182126  1
  Sb  Sb48  1  0.44212338  0.85213149  0.79462135  1
  Sb  Sb49  1  0.28197939  0.46481717  0.16176743  1
loop_
_geom_bond_atom_site_label_1
_geom_bond_atom_site_label_2
_geom_bond_distance
_geom_bond_site_symmetry_2
Ga0 Ga14 2.607081 1_555
Ga0 Sb19 2.769100 1_555
Ga0 Sb12 2.785714 1_555
Ga0 Sb40 3.064216 1_555
Ga0 Sb46 3.120473 1_545
Ga1 Ga5 2.626660 1_555
Ga1 Ga10 2.839741 1_555
Ga1 Sb7 2.862196 1_565
Ga1 Ga20 2.873816 1_555
Ga1 Sb10 3.258882 1_555
Ga2 Sb33 2.814303 1_555
Ga2 Sb9 2.898280 1_554
Ga2 Ga6 2.959275 1_554
Ga2 Sb44 3.027235 1_555
Ga2 Sb27 3.244980 1_554
Ga3 Ga38 2.561806 1_556
Ga3 Sb8 2.831310 1_555
Ga3 Ga44 2.867798 1_555
Ga3 Sb3 3.145675 1_556
Ga4 Sb8 2.752910 1_554
Ga4 Sb37 2.765743 1_555
Ga4 Sb49 2.827127 1_555
Ga4 Sb47 2.912827 1_554
Ga5 Sb21 2.784694 1_555
Ga5 Sb20 2.812246 1_554
Ga6 Sb44 2.861800 1_556
Ga6 Sb25 3.028653 1_555
Ga6 Sb27 3.047436 1_555
Ga6 Sb1 3.167011 1_566
Ga7 Sb30 2.837240 1_555
Ga7 Sb31 2.944921 1_555
Ga7 Sb13 3.138535 1_555
Ga7 Sb43 3.306977 1_555
Ga8 Sb39 2.810016 1_555
Ga8 Sb28 2.837818 1_455
Ga8 Sb4 2.842264 1_555
Ga8 Sb17 3.041143 1_555
Ga9 Sb38 2.891022 1_556
Ga9 Sb27 3.330192 1_555
Ga10 Ga16 2.778215 1_555
Ga10 Ga20 2.819065 1_555
Ga10 Ga26 2.830616 1_455
Ga10 Ga23 2.898290 1_455
Ga10 Sb17 2.962517 1_555
Ga10 Sb32 3.144711 1_455
Ga11 Ga19 2.561080 1_555
Ga11 Sb27 2.893676 1_555
Ga11 Sb9 2.986170 1_555
Ga11 Sb25 3.014494 1_555
Ga11 Sb46 3.019296 1_555
Ga11 Sb28 3.214900 1_555
Ga12 Ga48 2.737454 1_554
Ga12 Ga14 2.843236 1_554
Ga12 Ga9 2.919941 1_554
Ga12 Ga18 2.967627 1_554
Ga12 Ga41 2.991998 1_554
Ga12 Sb42 3.007748 1_555
Ga12 Ga22 3.049381 1_555
Ga12 Sb38 3.065539 1_555
Ga13 Ga31 2.680376 1_555
Ga13 Ga17 2.780427 1_555
Ga13 Sb2 2.797559 1_555
Ga13 Sb37 2.815009 1_555
Ga13 Sb41 3.062931 1_555
Ga14 Ga28 2.655396 1_555
Ga14 Ga41 2.764592 1_555
Ga14 Ga46 2.837831 1_556
Ga14 Sb1 2.858714 1_556
Ga15 Ga2 2.669513 1_555
Ga15 Sb36 2.821451 1_555
Ga15 Sb1 2.832825 1_565
Ga15 Ga31 2.855028 1_555
Ga15 Sb32 3.015718 1_555
Ga16 Sb29 2.846861 1_565
Ga16 Sb6 2.881875 1_465
Ga16 Sb28 2.908274 1_455
Ga16 Sb22 3.115552 1_465
Ga17 Ga7 2.708075 1_555
Ga17 Ga24 2.798567 1_555
Ga17 Sb41 3.008084 1_555
Ga17 Sb13 3.092810 1_555
Ga17 Sb31 3.256758 1_555
Ga18 Ga3 2.786458 1_655
Ga18 Ga9 2.847735 1_555
Ga18 Ga47 2.897312 1_555
Ga18 Sb45 2.932048 1_655
Ga18 Ga44 2.979078 1_655
Ga19 Sb41 2.723136 1_555
Ga19 Ga45 2.751293 1_555
Ga19 Sb13 2.938744 1_555
Ga19 Sb0 3.245904 1_555
Ga20 Ga36 2.598700 1_565
Ga20 Sb4 2.876814 1_555
Ga20 Sb2 3.005560 1_555
Ga21 Sb35 2.688740 1_555
Ga21 Sb11 2.764974 1_555
Ga21 Sb14 2.765504 1_555
Ga21 Sb22 2.790825 1_555
Ga22 Ga35 2.668014 1_555
Ga22 Ga46 2.717412 1_555
Ga22 Sb38 2.945676 1_555
Ga22 Sb33 3.145624 1_555
Ga22 Sb42 3.207822 1_555
Ga23 Sb21 3.007768 1_655
Ga23 Sb38 3.066735 1_555
Ga23 Sb16 3.071279 1_555
Ga24 Sb21 2.848052 1_555
Ga24 Sb2 3.046065 1_555
Ga24 Sb4 3.106224 1_555
Ga24 Sb0 3.172982 1_555
Ga24 Sb17 3.180690 1_555
Ga25 Ga45 2.672237 1_555
Ga25 Ga26 2.698187 1_555
Ga25 Sb36 2.834718 1_555
Ga25 Sb22 2.893599 1_565
Ga25 Ga31 3.007285 1_555
Ga26 Sb16 3.024488 1_555
Ga26 Ga31 3.053396 1_555
Ga26 Sb32 3.157881 1_555
Ga26 Sb28 3.271419 1_555
Ga27 Sb35 2.762464 1_555
Ga27 Sb12 2.776531 1_555
Ga27 Sb31 2.833526 1_555
Ga27 Sb13 2.874640 1_555
Ga28 Ga32 2.727942 1_555
Ga28 Sb3 2.845794 1_556
Ga28 Sb8 2.939690 1_555
Ga28 Sb26 2.982153 1_556
Ga29 Sb22 2.802757 1_555
Ga29 Sb34 2.808798 1_655
Ga29 Sb45 2.812631 1_655
Ga29 Sb19 2.819440 1_555
Ga30 Ga7 2.702916 1_555
Ga30 Sb34 2.847073 1_555
Ga30 Sb17 2.866372 1_555
Ga30 Ga44 3.033870 1_555
Ga30 Sb39 3.061143 1_555
Ga30 Sb30 3.196639 1_555
Ga31 Sb41 2.855510 1_555
Ga31 Sb32 2.870677 1_555
Ga31 Sb33 2.895361 1_555
Ga31 Sb36 3.235452 1_555
Ga32 Ga42 2.688079 1_545
Ga32 Sb23 2.905633 1_546
Ga32 Sb3 3.024874 1_556
Ga32 Sb10 3.116630 1_546
Ga32 Sb48 3.292039 1_545
Ga32 Sb12 3.357306 1_555
Ga33 Ga49 2.573529 1_554
Ga33 Ga5 2.604778 1_555
Ga33 Sb38 2.787256 1_455
Ga33 Sb44 2.897001 1_455
Ga34 Ga47 2.532780 1_555
Ga34 Sb39 2.793174 1_655
Ga34 Sb16 2.821913 1_555
Ga34 Sb27 2.902686 1_555
Ga35 Sb6 2.850304 1_555
Ga35 Sb34 2.855121 1_655
Ga35 Sb24 2.892844 1_655
Ga35 Sb42 3.276571 1_555
Ga36 Ga39 2.623989 1_555
Ga36 Sb18 2.812357 1_555
Ga36 Sb15 2.964348 1_555
Ga37 Ga43 2.627310 1_555
Ga37 Ga49 2.737245 1_555
Ga37 Ga8 2.775039 1_555
Ga37 Sb20 2.893921 1_555
Ga37 Sb44 3.119821 1_456
Ga37 Sb27 3.178245 1_455
Ga38 Sb49 2.717848 1_555
Ga38 Sb24 2.736539 1_555
Ga38 Sb38 2.797468 1_455
Ga38 Sb3 3.255482 1_555
Ga39 Sb31 2.845937 1_555
Ga39 Sb11 2.847969 1_555
Ga39 Sb26 2.944407 1_555
Ga39 Sb14 3.305325 1_555
Ga40 Ga6 2.635137 1_555
Ga40 Sb46 2.778768 1_555
Ga40 Sb28 2.784031 1_555
Ga40 Sb45 2.793673 1_665
Ga40 Ga48 3.001753 1_565
Ga41 Ga9 2.672732 1_555
Ga41 Sb40 2.834230 1_555
Ga41 Sb33 2.869076 1_556
Ga41 Ga46 2.985995 1_556
Ga41 Sb9 3.338651 1_555
Ga41 Sb37 3.357420 1_556
Ga42 Ga43 2.608667 1_555
Ga42 Sb48 2.809147 1_555
Ga42 Sb20 3.016932 1_555
Ga42 Sb10 3.037876 1_556
Ga43 Sb45 2.829584 1_565
Ga43 Sb7 2.930630 1_566
Ga44 Sb30 2.888528 1_555
Ga44 Sb39 2.943488 1_555
Ga44 Sb34 3.128740 1_555
Ga44 Sb45 3.212898 1_555
Ga45 Sb2 2.749456 1_555
Ga45 Sb11 2.805068 1_565
Ga45 Sb0 2.808671 1_555
Ga46 Sb37 2.839609 1_555
Ga46 Sb14 3.011771 1_555
Ga46 Sb26 3.157710 1_555
Ga47 Sb19 2.699008 1_555
Ga47 Sb40 2.759108 1_555
Ga47 Ga9 2.787312 1_555
Ga48 Sb1 2.913484 1_556
Ga48 Sb7 2.949726 1_656
Ga48 Ga6 3.090557 1_545
Ga48 Sb45 3.102822 1_655
Ga49 Ga9 2.639607 1_455
Ga49 Sb39 2.720080 1_555
Ga49 Sb27 2.955222 1_455
Sb0 Sb48 2.941517 1_555
Sb0 Sb4 2.948011 1_555
Sb0 Sb5 3.097154 1_555
Sb1 Sb42 2.968922 1_555
Sb1 Sb25 3.153272 1_544
Sb1 Sb23 3.437882 1_545
Sb2 Sb36 3.089777 1_555
Sb3 Sb8 3.213023 1_554
Sb5 Sb8 3.079867 1_555
Sb10 Sb23 2.973678 1_555
Sb10 Sb20 3.020405 1_554
Sb10 Sb3 3.276528 1_565
Sb10 Sb15 3.361689 1_565
Sb11 Sb46 3.413058 1_545
Sb12 Sb30 3.205130 1_555
Sb13 Sb5 2.912897 1_555
Sb13 Sb40 3.038471 1_555
Sb14 Sb36 2.953589 1_545
Sb14 Sb26 2.983822 1_555
Sb14 Sb42 3.123766 1_555
Sb15 Sb24 2.935131 1_555
Sb15 Sb43 2.945414 1_555
Sb15 Sb26 3.126868 1_555
Sb15 Sb3 3.196380 1_555
Sb16 Sb17 3.019150 1_655
Sb16 Sb34 3.032640 1_655
Sb16 Sb41 3.372770 1_555
Sb17 Sb4 3.252768 1_555
Sb18 Sb29 2.893040 1_555
Sb18 Sb30 2.918375 1_555
Sb18 Sb34 3.401060 1_555
Sb18 Sb43 3.498981 1_555
Sb19 Sb35 2.865362 1_555
Sb20 Sb47 3.190500 1_555
Sb21 Sb49 2.935535 1_555
Sb22 Sb6 2.928629 1_555
Sb23 Sb26 2.953304 1_565
Sb24 Sb7 2.981238 1_555
Sb25 Sb46 2.922552 1_555
Sb25 Sb48 3.082689 1_555
Sb25 Sb9 3.247997 1_555
Sb27 Sb28 3.096232 1_555
Sb27 Sb9 3.405827 1_555
Sb29 Sb4 2.993276 1_545
Sb29 Sb45 3.079643 1_555
Sb31 Sb43 2.909286 1_555
Sb32 Sb44 2.969404 1_555
Sb32 Sb6 3.216548 1_565
Sb32 Sb42 3.389234 1_565
Sb33 Sb37 2.968840 1_555
Sb33 Sb38 3.309321 1_555
Sb39 Sb5 3.454521 1_555
Sb40 Sb9 3.047559 1_555
Sb43 Sb49 2.920255 1_555
Sb47 Sb5 2.948709 1_555
Sb47 Sb48 2.973607 1_555
Sb47 Sb9 3.037577 1_555
