# generated using pymatgen
data_Fe2CoSe4
_symmetry_space_group_name_H-M   'P 1'
_cell_length_a   6.31369816
_cell_length_b   6.31369816
_cell_length_c   6.18427177
_cell_angle_alpha   62.08249247
_cell_angle_beta   62.08249247
_cell_angle_gamma   32.61951754
_symmetry_Int_Tables_number   1
_chemical_formula_structural   Fe2CoSe4
_chemical_formula_sum   'Fe2 Co1 Se4'
_cell_volume   116.00449280
_cell_formula_units_Z   1
loop_
 _symmetry_equiv_pos_site_id
 _symmetry_equiv_pos_as_xyz
  1  'x, y, z'
loop_
 _atom_site_type_symbol
 _atom_site_label
 _atom_site_symmetry_multiplicity
 _atom_site_fract_x
 _atom_site_fract_y
 _atom_site_fract_z
 _atom_site_occupancy
  Fe  Fe0  1  0.49955800  0.49955800  0.50326500  1
  Fe  Fe1  1  0.75885900  0.75885900  0.21829700  1
  Co  Co0  1  0.23961500  0.23961500  0.78301300  1
  Se  Se0  1  0.62096000  0.62096000  0.04481900  1
  Se  Se1  1  0.37840600  0.37840600  0.95399500  1
  Se  Se2  1  0.13745300  0.13745300  0.52493000  1
  Se  Se3  1  0.86515000  0.86515000  0.47168100  1
loop_
_geom_bond_atom_site_label_1
_geom_bond_atom_site_label_2
_geom_bond_distance
_geom_bond_site_symmetry_2
Fe0 Se1 2.435676 1_555
Fe0 Se0 2.476486 1_555
Fe0 Se3 2.479066 1_455
Fe0 Se3 2.479066 1_545
Fe0 Se2 2.484565 1_655
Fe0 Se2 2.484565 1_565
Fe1 Se1 2.367284 1_564
Fe1 Se1 2.367284 1_654
Fe1 Se0 2.386065 1_555
Fe1 Se3 2.466631 1_555
Fe1 Se2 2.486446 1_655
Fe1 Se2 2.486446 1_565
Co0 Se0 2.358284 1_546
Co0 Se0 2.358284 1_456
Co0 Se1 2.383833 1_555
Co0 Se2 2.451198 1_555
Co0 Se3 2.511475 1_455
Co0 Se3 2.511475 1_545
