# generated using pymatgen
data_TaBe4Mo
_symmetry_space_group_name_H-M   'P 1'
_cell_length_a   4.53547544
_cell_length_b   4.53547544
_cell_length_c   7.38247359
_cell_angle_alpha   90.00000000
_cell_angle_beta   90.00000000
_cell_angle_gamma   120.00000703
_symmetry_Int_Tables_number   1
_chemical_formula_structural   TaBe4Mo
_chemical_formula_sum   'Ta2 Be8 Mo2'
_cell_volume   131.51586399
_cell_formula_units_Z   2
loop_
 _symmetry_equiv_pos_site_id
 _symmetry_equiv_pos_as_xyz
  1  'x, y, z'
loop_
 _atom_site_type_symbol
 _atom_site_label
 _atom_site_symmetry_multiplicity
 _atom_site_fract_x
 _atom_site_fract_y
 _atom_site_fract_z
 _atom_site_occupancy
  Ta  Ta0  1  0.33333300  0.66666700  0.92904250  1
  Ta  Ta1  1  0.66666700  0.33333300  0.07095750  1
  Be  Be0  1  -0.00000000  -0.00000000  0.50000000  1
  Be  Be1  1  -0.00000000  -0.00000000  0.00000000  1
  Be  Be2  1  0.65776368  0.82888134  0.25344333  1
  Be  Be3  1  0.17111866  0.82888134  0.25344333  1
  Be  Be4  1  0.17111866  0.34223632  0.25344333  1
  Be  Be5  1  0.34223632  0.17111866  0.74655667  1
  Be  Be6  1  0.82888134  0.17111866  0.74655667  1
  Be  Be7  1  0.82888134  0.65776368  0.74655667  1
  Mo  Mo0  1  0.66666700  0.33333300  0.44017901  1
  Mo  Mo1  1  0.33333300  0.66666700  0.55982099  1
loop_
_geom_bond_atom_site_label_1
_geom_bond_atom_site_label_2
_geom_bond_distance
_geom_bond_site_symmetry_2
Ta0 Ta1 2.820367 1_456
Ta0 Ta1 2.820367 1_566
Ta0 Ta1 2.820375 1_556
Be0 Be4 2.262769 1_555
Be0 Be2 2.262769 1_445
Be0 Be5 2.262769 1_555
Be0 Be7 2.262769 1_445
Be0 Be3 2.262772 1_545
Be0 Be6 2.262772 1_455
Be0 Mo0 2.655535 1_455
Be0 Mo1 2.655535 1_545
Be0 Mo1 2.655539 1_555
Be0 Mo0 2.655539 1_445
Be0 Mo0 2.655539 1_555
Be0 Mo1 2.655539 1_445
Be1 Be5 2.303864 1_554
Be1 Be7 2.303864 1_444
Be1 Be2 2.303864 1_445
Be1 Be4 2.303864 1_555
Be1 Be6 2.303866 1_454
Be1 Be3 2.303866 1_545
Be1 Ta0 2.670439 1_544
Be1 Ta1 2.670439 1_455
Be1 Ta1 2.670442 1_445
Be1 Ta0 2.670442 1_554
Be1 Ta1 2.670442 1_555
Be1 Ta0 2.670442 1_444
Be2 Be4 2.207166 1_555
Be2 Be3 2.207167 1_555
Be2 Be4 2.328309 1_665
Be2 Be3 2.328309 1_655
Be2 Mo1 2.596097 1_555
Be2 Ta1 2.637953 1_565
Be2 Ta1 2.637953 1_555
Be2 Mo0 2.654113 1_565
Be2 Mo0 2.654113 1_555
Be2 Ta0 2.712807 1_554
Be3 Be4 2.207167 1_555
Be3 Be4 2.328309 1_565
Be3 Mo1 2.596093 1_555
Be3 Ta1 2.637953 1_565
Be3 Ta1 2.637953 1_455
Be3 Mo0 2.654113 1_455
Be3 Mo0 2.654113 1_565
Be3 Ta0 2.712803 1_554
Be4 Mo1 2.596097 1_555
Be4 Ta1 2.637953 1_455
Be4 Ta1 2.637953 1_555
Be4 Mo0 2.654113 1_455
Be4 Mo0 2.654113 1_555
Be4 Ta0 2.712807 1_554
Be5 Be7 2.207166 1_555
Be5 Be6 2.207167 1_555
Be5 Be7 2.328309 1_445
Be5 Be6 2.328309 1_455
Be5 Mo0 2.596097 1_555
Be5 Ta0 2.637953 1_545
Be5 Ta0 2.637953 1_555
Be5 Mo1 2.654113 1_545
Be5 Mo1 2.654113 1_555
Be5 Ta1 2.712807 1_556
Be6 Be7 2.207167 1_555
Be6 Be7 2.328309 1_545
Be6 Mo0 2.596093 1_555
Be6 Ta0 2.637953 1_545
Be6 Ta0 2.637953 1_655
Be6 Mo1 2.654113 1_545
Be6 Mo1 2.654113 1_655
Be6 Ta1 2.712803 1_556
Be7 Mo0 2.596097 1_555
Be7 Ta0 2.637953 1_655
Be7 Ta0 2.637953 1_555
Be7 Mo1 2.654113 1_655
Be7 Mo1 2.654113 1_555
Be7 Ta1 2.712807 1_556
Mo0 Ta1 2.725768 1_555
Mo1 Ta0 2.725768 1_555
