# generated using pymatgen
data_Ba8Ge43
_symmetry_space_group_name_H-M   'P 1'
_cell_length_a   18.77549494
_cell_length_b   18.77549494
_cell_length_c   18.77549494
_cell_angle_alpha   109.47122063
_cell_angle_beta   109.47122063
_cell_angle_gamma   109.47122063
_symmetry_Int_Tables_number   1
_chemical_formula_structural   Ba8Ge43
_chemical_formula_sum   'Ba32 Ge172'
_cell_volume   5095.09507327
_cell_formula_units_Z   4
loop_
 _symmetry_equiv_pos_site_id
 _symmetry_equiv_pos_as_xyz
  1  'x, y, z'
loop_
 _atom_site_type_symbol
 _atom_site_label
 _atom_site_symmetry_multiplicity
 _atom_site_fract_x
 _atom_site_fract_y
 _atom_site_fract_z
 _atom_site_occupancy
  Ba  Ba0  1  -0.00000000  0.50000000  -0.00000000  1
  Ba  Ba1  1  0.50000000  0.00000000  -0.00000000  1
  Ba  Ba2  1  -0.00000000  0.00000000  0.50000000  1
  Ba  Ba3  1  0.50000000  0.50000000  0.50000000  1
  Ba  Ba4  1  -0.00000000  0.50000000  0.50000000  1
  Ba  Ba5  1  0.50000000  0.00000000  0.50000000  1
  Ba  Ba6  1  0.50000000  0.50000000  -0.00000000  1
  Ba  Ba7  1  -0.00000000  0.00000000  -0.00000000  1
  Ba  Ba8  1  0.75562698  0.37781349  0.62781349  1
  Ba  Ba9  1  0.74437302  0.87218651  0.12218651  1
  Ba  Ba10  1  0.75000000  0.12218651  0.37781349  1
  Ba  Ba11  1  0.75000000  0.62781349  0.87218651  1
  Ba  Ba12  1  0.62781349  0.75562698  0.37781349  1
  Ba  Ba13  1  0.12218651  0.74437302  0.87218651  1
  Ba  Ba14  1  0.37781349  0.75000000  0.12218651  1
  Ba  Ba15  1  0.87218651  0.75000000  0.62781349  1
  Ba  Ba16  1  0.37781349  0.62781349  0.75562698  1
  Ba  Ba17  1  0.87218651  0.12218651  0.74437302  1
  Ba  Ba18  1  0.12218651  0.37781349  0.75000000  1
  Ba  Ba19  1  0.62781349  0.87218651  0.75000000  1
  Ba  Ba20  1  0.24437302  0.62218651  0.37218651  1
  Ba  Ba21  1  0.25562698  0.12781349  0.87781349  1
  Ba  Ba22  1  0.25000000  0.87781349  0.62218651  1
  Ba  Ba23  1  0.25000000  0.37218651  0.12781349  1
  Ba  Ba24  1  0.37218651  0.24437302  0.62218651  1
  Ba  Ba25  1  0.87781349  0.25562698  0.12781349  1
  Ba  Ba26  1  0.62218651  0.25000000  0.87781349  1
  Ba  Ba27  1  0.12781349  0.25000000  0.37218651  1
  Ba  Ba28  1  0.62218651  0.37218651  0.24437302  1
  Ba  Ba29  1  0.12781349  0.87781349  0.25562698  1
  Ba  Ba30  1  0.87781349  0.62218651  0.25000000  1
  Ba  Ba31  1  0.37218651  0.12781349  0.25000000  1
  Ge  Ge0  1  0.25000000  0.37500000  0.62500000  1
  Ge  Ge1  1  0.75000000  0.12500000  0.87500000  1
  Ge  Ge2  1  0.62500000  0.25000000  0.37500000  1
  Ge  Ge3  1  0.87500000  0.75000000  0.12500000  1
  Ge  Ge4  1  0.37500000  0.62500000  0.25000000  1
  Ge  Ge5  1  0.12500000  0.87500000  0.75000000  1
  Ge  Ge6  1  0.75000000  0.62500000  0.37500000  1
  Ge  Ge7  1  0.25000000  0.87500000  0.12500000  1
  Ge  Ge8  1  0.37500000  0.75000000  0.62500000  1
  Ge  Ge9  1  0.12500000  0.25000000  0.87500000  1
  Ge  Ge10  1  0.62500000  0.37500000  0.75000000  1
  Ge  Ge11  1  0.87500000  0.12500000  0.25000000  1
  Ge  Ge12  1  -0.00000000  0.50000000  0.81657424  1
  Ge  Ge13  1  0.50000000  0.81657424  -0.00000000  1
  Ge  Ge14  1  0.81657424  -0.00000000  0.50000000  1
  Ge  Ge15  1  0.68342576  0.68342576  0.68342576  1
  Ge  Ge16  1  0.00000000  0.50000000  0.18342576  1
  Ge  Ge17  1  0.50000000  0.18342576  0.00000000  1
  Ge  Ge18  1  0.18342576  0.00000000  0.50000000  1
  Ge  Ge19  1  0.31657424  0.31657424  0.31657424  1
  Ge  Ge20  1  0.00000000  0.50000000  0.31657424  1
  Ge  Ge21  1  0.31657424  -0.00000000  0.50000000  1
  Ge  Ge22  1  0.50000000  0.31657424  0.00000000  1
  Ge  Ge23  1  0.18342576  0.18342576  0.18342576  1
  Ge  Ge24  1  -0.00000000  0.50000000  0.68342576  1
  Ge  Ge25  1  0.68342576  -0.00000000  0.50000000  1
  Ge  Ge26  1  0.50000000  0.68342576  -0.00000000  1
  Ge  Ge27  1  0.81657424  0.81657424  0.81657424  1
  Ge  Ge28  1  0.68572636  0.50104606  0.50492457  1
  Ge  Ge29  1  0.81427364  0.81919821  0.31531970  1
  Ge  Ge30  1  0.50387851  0.99895394  0.18468030  1
  Ge  Ge31  1  0.99612149  0.68080179  0.99507543  1
  Ge  Ge32  1  0.50492457  0.68572636  0.50104606  1
  Ge  Ge33  1  0.31531970  0.81427364  0.81919821  1
  Ge  Ge34  1  0.18468030  0.50387851  0.99895394  1
  Ge  Ge35  1  0.99507543  0.99612149  0.68080179  1
  Ge  Ge36  1  0.50104606  0.50492457  0.68572636  1
  Ge  Ge37  1  0.81919821  0.31531970  0.81427364  1
  Ge  Ge38  1  0.99895394  0.18468030  0.50387851  1
  Ge  Ge39  1  0.68080179  0.99507543  0.99612149  1
  Ge  Ge40  1  0.31427364  0.49895394  0.49507543  1
  Ge  Ge41  1  0.18572636  0.18080179  0.68468030  1
  Ge  Ge42  1  0.49612149  0.00104606  0.81531970  1
  Ge  Ge43  1  0.00387851  0.31919821  0.00492457  1
  Ge  Ge44  1  0.49507543  0.31427364  0.49895394  1
  Ge  Ge45  1  0.68468030  0.18572636  0.18080179  1
  Ge  Ge46  1  0.81531970  0.49612149  0.00104606  1
  Ge  Ge47  1  0.00492457  0.00387851  0.31919821  1
  Ge  Ge48  1  0.49895394  0.49507543  0.31427364  1
  Ge  Ge49  1  0.18080179  0.68468030  0.18572636  1
  Ge  Ge50  1  0.00104606  0.81531970  0.49612149  1
  Ge  Ge51  1  0.31919821  0.00492457  0.00387851  1
  Ge  Ge52  1  0.00104606  0.18572636  0.00492457  1
  Ge  Ge53  1  0.31919821  0.31427364  0.81531970  1
  Ge  Ge54  1  0.49895394  0.00387851  0.68468030  1
  Ge  Ge55  1  0.18080179  0.49612149  0.49507543  1
  Ge  Ge56  1  0.18572636  0.00492457  0.00104606  1
  Ge  Ge57  1  0.31427364  0.81531970  0.31919821  1
  Ge  Ge58  1  0.00387851  0.68468030  0.49895394  1
  Ge  Ge59  1  0.49612149  0.49507543  0.18080179  1
  Ge  Ge60  1  0.00492457  0.00104606  0.18572636  1
  Ge  Ge61  1  0.81531970  0.31919821  0.31427364  1
  Ge  Ge62  1  0.68468030  0.49895394  0.00387851  1
  Ge  Ge63  1  0.49507543  0.18080179  0.49612149  1
  Ge  Ge64  1  0.99895394  0.81427364  0.99507543  1
  Ge  Ge65  1  0.68080179  0.68572636  0.18468030  1
  Ge  Ge66  1  0.50104606  0.99612149  0.31531970  1
  Ge  Ge67  1  0.81919821  0.50387851  0.50492457  1
  Ge  Ge68  1  0.81427364  0.99507543  0.99895394  1
  Ge  Ge69  1  0.68572636  0.18468030  0.68080179  1
  Ge  Ge70  1  0.99612149  0.31531970  0.50104606  1
  Ge  Ge71  1  0.50387851  0.50492457  0.81919821  1
  Ge  Ge72  1  0.99507543  0.99895394  0.81427364  1
  Ge  Ge73  1  0.18468030  0.68080179  0.68572636  1
  Ge  Ge74  1  0.31531970  0.50104606  0.99612149  1
  Ge  Ge75  1  0.50492457  0.81919821  0.50387851  1
  Ge  Ge76  1  0.90260263  0.05647224  0.34718637  1
  Ge  Ge77  1  0.59739737  0.44458373  0.65386961  1
  Ge  Ge78  1  0.79071412  0.44352776  0.84613039  1
  Ge  Ge79  1  0.70928588  0.05541627  0.15281363  1
  Ge  Ge80  1  0.34718637  0.90260263  0.05647224  1
  Ge  Ge81  1  0.65386961  0.59739737  0.44458373  1
  Ge  Ge82  1  0.84613039  0.79071412  0.44352776  1
  Ge  Ge83  1  0.15281363  0.70928588  0.05541627  1
  Ge  Ge84  1  0.05647224  0.34718637  0.90260263  1
  Ge  Ge85  1  0.44458373  0.65386961  0.59739737  1
  Ge  Ge86  1  0.44352776  0.84613039  0.79071412  1
  Ge  Ge87  1  0.05541627  0.15281363  0.70928588  1
  Ge  Ge88  1  0.09739737  0.94352776  0.65281363  1
  Ge  Ge89  1  0.40260263  0.55541627  0.34613039  1
  Ge  Ge90  1  0.20928588  0.55647224  0.15386961  1
  Ge  Ge91  1  0.29071412  0.94458373  0.84718637  1
  Ge  Ge92  1  0.65281363  0.09739737  0.94352776  1
  Ge  Ge93  1  0.34613039  0.40260263  0.55541627  1
  Ge  Ge94  1  0.15386961  0.20928588  0.55647224  1
  Ge  Ge95  1  0.84718637  0.29071412  0.94458373  1
  Ge  Ge96  1  0.94352776  0.65281363  0.09739737  1
  Ge  Ge97  1  0.55541627  0.34613039  0.40260263  1
  Ge  Ge98  1  0.55647224  0.15386961  0.20928588  1
  Ge  Ge99  1  0.94458373  0.84718637  0.29071412  1
  Ge  Ge100  1  0.55647224  0.40260263  0.84718637  1
  Ge  Ge101  1  0.94458373  0.09739737  0.15386961  1
  Ge  Ge102  1  0.94352776  0.29071412  0.34613039  1
  Ge  Ge103  1  0.55541627  0.20928588  0.65281363  1
  Ge  Ge104  1  0.40260263  0.84718637  0.55647224  1
  Ge  Ge105  1  0.09739737  0.15386961  0.94458373  1
  Ge  Ge106  1  0.29071412  0.34613039  0.94352776  1
  Ge  Ge107  1  0.20928588  0.65281363  0.55541627  1
  Ge  Ge108  1  0.84718637  0.55647224  0.40260263  1
  Ge  Ge109  1  0.15386961  0.94458373  0.09739737  1
  Ge  Ge110  1  0.34613039  0.94352776  0.29071412  1
  Ge  Ge111  1  0.65281363  0.55541627  0.20928588  1
  Ge  Ge112  1  0.44352776  0.59739737  0.15281363  1
  Ge  Ge113  1  0.05541627  0.90260263  0.84613039  1
  Ge  Ge114  1  0.05647224  0.70928588  0.65386961  1
  Ge  Ge115  1  0.44458373  0.79071412  0.34718637  1
  Ge  Ge116  1  0.59739737  0.15281363  0.44352776  1
  Ge  Ge117  1  0.90260263  0.84613039  0.05541627  1
  Ge  Ge118  1  0.70928588  0.65386961  0.05647224  1
  Ge  Ge119  1  0.79071412  0.34718637  0.44458373  1
  Ge  Ge120  1  0.15281363  0.44352776  0.59739737  1
  Ge  Ge121  1  0.84613039  0.05541627  0.90260263  1
  Ge  Ge122  1  0.65386961  0.05647224  0.70928588  1
  Ge  Ge123  1  0.34718637  0.44458373  0.79071412  1
  Ge  Ge124  1  0.89841021  0.56394358  0.83243164  1
  Ge  Ge125  1  0.60158979  0.93402143  0.16553338  1
  Ge  Ge126  1  0.76848805  0.93605642  0.33446662  1
  Ge  Ge127  1  0.73151195  0.56597857  0.66756836  1
  Ge  Ge128  1  0.83243164  0.89841021  0.56394358  1
  Ge  Ge129  1  0.16553338  0.60158979  0.93402143  1
  Ge  Ge130  1  0.33446662  0.76848805  0.93605642  1
  Ge  Ge131  1  0.66756836  0.73151195  0.56597857  1
  Ge  Ge132  1  0.56394358  0.83243164  0.89841021  1
  Ge  Ge133  1  0.93402143  0.16553338  0.60158979  1
  Ge  Ge134  1  0.93605642  0.33446662  0.76848805  1
  Ge  Ge135  1  0.56597857  0.66756836  0.73151195  1
  Ge  Ge136  1  0.10158979  0.43605642  0.16756836  1
  Ge  Ge137  1  0.39841021  0.06597857  0.83446662  1
  Ge  Ge138  1  0.23151195  0.06394358  0.66553338  1
  Ge  Ge139  1  0.26848805  0.43402143  0.33243164  1
  Ge  Ge140  1  0.16756836  0.10158979  0.43605642  1
  Ge  Ge141  1  0.83446662  0.39841021  0.06597857  1
  Ge  Ge142  1  0.66553338  0.23151195  0.06394358  1
  Ge  Ge143  1  0.33243164  0.26848805  0.43402143  1
  Ge  Ge144  1  0.43605642  0.16756836  0.10158979  1
  Ge  Ge145  1  0.06597857  0.83446662  0.39841021  1
  Ge  Ge146  1  0.06394358  0.66553338  0.23151195  1
  Ge  Ge147  1  0.43402143  0.33243164  0.26848805  1
  Ge  Ge148  1  0.06394358  0.39841021  0.33243164  1
  Ge  Ge149  1  0.43402143  0.10158979  0.66553338  1
  Ge  Ge150  1  0.43605642  0.26848805  0.83446662  1
  Ge  Ge151  1  0.06597857  0.23151195  0.16756836  1
  Ge  Ge152  1  0.39841021  0.33243164  0.06394358  1
  Ge  Ge153  1  0.10158979  0.66553338  0.43402143  1
  Ge  Ge154  1  0.26848805  0.83446662  0.43605642  1
  Ge  Ge155  1  0.23151195  0.16756836  0.06597857  1
  Ge  Ge156  1  0.33243164  0.06394358  0.39841021  1
  Ge  Ge157  1  0.66553338  0.43402143  0.10158979  1
  Ge  Ge158  1  0.83446662  0.43605642  0.26848805  1
  Ge  Ge159  1  0.16756836  0.06597857  0.23151195  1
  Ge  Ge160  1  0.93605642  0.60158979  0.66756836  1
  Ge  Ge161  1  0.56597857  0.89841021  0.33446662  1
  Ge  Ge162  1  0.56394358  0.73151195  0.16553338  1
  Ge  Ge163  1  0.93402143  0.76848805  0.83243164  1
  Ge  Ge164  1  0.60158979  0.66756836  0.93605642  1
  Ge  Ge165  1  0.89841021  0.33446662  0.56597857  1
  Ge  Ge166  1  0.73151195  0.16553338  0.56394358  1
  Ge  Ge167  1  0.76848805  0.83243164  0.93402143  1
  Ge  Ge168  1  0.66756836  0.93605642  0.60158979  1
  Ge  Ge169  1  0.33446662  0.56597857  0.89841021  1
  Ge  Ge170  1  0.16553338  0.56394358  0.73151195  1
  Ge  Ge171  1  0.83243164  0.93402143  0.76848805  1
loop_
_geom_bond_atom_site_label_1
_geom_bond_atom_site_label_2
_geom_bond_distance
_geom_bond_site_symmetry_2
Ba0 Ge16 3.443909 1_555
Ba0 Ge12 3.443909 1_554
Ba0 Ge31 3.450654 1_454
Ba0 Ge34 3.450654 1_554
Ba0 Ge37 3.450654 1_454
Ba0 Ge46 3.450654 1_455
Ba0 Ge49 3.450654 1_555
Ba0 Ge43 3.450654 1_555
Ba0 Ge84 3.538816 1_554
Ba0 Ge96 3.538816 1_455
Ba0 Ge95 3.538816 1_454
Ba0 Ge83 3.538816 1_555
Ba0 Ge90 3.538816 1_555
Ba0 Ge78 3.538816 1_454
Ba1 Ge17 3.443909 1_555
Ba1 Ge13 3.443909 1_545
Ba1 Ge33 3.450654 1_544
Ba1 Ge30 3.450654 1_545
Ba1 Ge39 3.450654 1_544
Ba1 Ge45 3.450654 1_555
Ba1 Ge51 3.450654 1_555
Ba1 Ge42 3.450654 1_554
Ba1 Ge80 3.538816 1_545
Ba1 Ge92 3.538816 1_554
Ba1 Ge91 3.538816 1_544
Ba1 Ge79 3.538816 1_555
Ba1 Ge98 3.538816 1_555
Ba1 Ge86 3.538816 1_544
Ba2 Ge14 3.443909 1_455
Ba2 Ge18 3.443909 1_555
Ba2 Ge38 3.450654 1_455
Ba2 Ge35 3.450654 1_445
Ba2 Ge41 3.450654 1_555
Ba2 Ge29 3.450654 1_445
Ba2 Ge50 3.450654 1_545
Ba2 Ge47 3.450654 1_555
Ba2 Ge76 3.538816 1_455
Ba2 Ge88 3.538816 1_545
Ba2 Ge99 3.538816 1_445
Ba2 Ge87 3.538816 1_555
Ba2 Ge94 3.538816 1_555
Ba2 Ge82 3.538816 1_445
Ba3 Ge15 3.443909 1_555
Ba3 Ge19 3.443909 1_555
Ba3 Ge48 3.450654 1_555
Ba3 Ge36 3.450654 1_555
Ba3 Ge40 3.450654 1_555
Ba3 Ge44 3.450654 1_555
Ba3 Ge28 3.450654 1_555
Ba3 Ge32 3.450654 1_555
Ba3 Ge77 3.538816 1_555
Ba3 Ge81 3.538816 1_555
Ba3 Ge85 3.538816 1_555
Ba3 Ge93 3.538816 1_555
Ba3 Ge97 3.538816 1_555
Ba3 Ge89 3.538816 1_555
Ba4 Ge20 3.443909 1_555
Ba4 Ge24 3.443909 1_555
Ba4 Ge67 3.450654 1_455
Ba4 Ge73 3.450654 1_555
Ba4 Ge61 3.450654 1_455
Ba4 Ge55 3.450654 1_555
Ba4 Ge70 3.450654 1_455
Ba4 Ge58 3.450654 1_555
Ba4 Ge120 3.538816 1_555
Ba4 Ge108 3.538816 1_455
Ba4 Ge107 3.538816 1_555
Ba4 Ge119 3.538816 1_455
Ba4 Ge102 3.538816 1_455
Ba4 Ge114 3.538816 1_555
Ba5 Ge21 3.443909 1_555
Ba5 Ge25 3.443909 1_555
Ba5 Ge75 3.450654 1_545
Ba5 Ge69 3.450654 1_555
Ba5 Ge63 3.450654 1_555
Ba5 Ge57 3.450654 1_545
Ba5 Ge66 3.450654 1_545
Ba5 Ge54 3.450654 1_555
Ba5 Ge116 3.538816 1_555
Ba5 Ge104 3.538816 1_545
Ba5 Ge103 3.538816 1_555
Ba5 Ge115 3.538816 1_545
Ba5 Ge110 3.538816 1_545
Ba5 Ge122 3.538816 1_555
Ba6 Ge22 3.443909 1_555
Ba6 Ge26 3.443909 1_555
Ba6 Ge65 3.450654 1_555
Ba6 Ge53 3.450654 1_554
Ba6 Ge71 3.450654 1_554
Ba6 Ge59 3.450654 1_555
Ba6 Ge74 3.450654 1_554
Ba6 Ge62 3.450654 1_555
Ba6 Ge112 3.538816 1_555
Ba6 Ge100 3.538816 1_554
Ba6 Ge111 3.538816 1_555
Ba6 Ge123 3.538816 1_554
Ba6 Ge106 3.538816 1_554
Ba6 Ge118 3.538816 1_555
Ba7 Ge23 3.443909 1_555
Ba7 Ge27 3.443909 1_444
Ba7 Ge64 3.450654 1_444
Ba7 Ge72 3.450654 1_444
Ba7 Ge60 3.450654 1_555
Ba7 Ge68 3.450654 1_444
Ba7 Ge52 3.450654 1_555
Ba7 Ge56 3.450654 1_555
Ba7 Ge121 3.538816 1_454
Ba7 Ge105 3.538816 1_554
Ba7 Ge109 3.538816 1_545
Ba7 Ge101 3.538816 1_455
Ba7 Ge117 3.538816 1_445
Ba7 Ge113 3.538816 1_544
Ba8 Ge124 3.478020 1_555
Ba8 Ge165 3.478020 1_555
Ba8 Ge166 3.574516 1_555
Ba8 Ge127 3.574516 1_555
Ba8 Ge78 3.611709 1_555
Ba8 Ge119 3.611709 1_555
Ba8 Ge77 3.698623 1_555
Ba8 Ge116 3.698623 1_555
Ba8 Ge2 3.876383 1_555
Ba8 Ge10 3.876383 1_555
Ba9 Ge164 3.478020 1_554
Ba9 Ge125 3.478020 1_555
Ba9 Ge126 3.574516 1_555
Ba9 Ge167 3.574516 1_554
Ba9 Ge118 3.611709 1_555
Ba9 Ge79 3.611709 1_565
Ba9 Ge117 3.698623 1_555
Ba9 Ge76 3.698623 1_565
Ba9 Ge11 3.876383 1_565
Ba9 Ge3 3.876383 1_555
Ba10 Ge166 3.478020 1_555
Ba10 Ge126 3.478020 1_545
Ba10 Ge165 3.574516 1_555
Ba10 Ge125 3.574516 1_545
Ba10 Ge116 3.611709 1_555
Ba10 Ge76 3.611709 1_555
Ba10 Ge79 3.698623 1_555
Ba10 Ge119 3.698623 1_555
Ba10 Ge2 3.876383 1_555
Ba10 Ge11 3.876383 1_555
Ba11 Ge167 3.478020 1_555
Ba11 Ge127 3.478020 1_555
Ba11 Ge164 3.574516 1_555
Ba11 Ge124 3.574516 1_555
Ba11 Ge117 3.611709 1_556
Ba11 Ge77 3.611709 1_555
Ba11 Ge118 3.698623 1_556
Ba11 Ge78 3.698623 1_555
Ba11 Ge3 3.876383 1_556
Ba11 Ge10 3.876383 1_555
Ba12 Ge128 3.478020 1_555
Ba12 Ge161 3.478020 1_555
Ba12 Ge162 3.574516 1_555
Ba12 Ge131 3.574516 1_555
Ba12 Ge82 3.611709 1_555
Ba12 Ge115 3.611709 1_555
Ba12 Ge81 3.698623 1_555
Ba12 Ge112 3.698623 1_555
Ba12 Ge4 3.876383 1_555
Ba12 Ge6 3.876383 1_555
Ba13 Ge160 3.478020 1_455
Ba13 Ge129 3.478020 1_555
Ba13 Ge130 3.574516 1_555
Ba13 Ge163 3.574516 1_455
Ba13 Ge114 3.611709 1_555
Ba13 Ge83 3.611709 1_556
Ba13 Ge113 3.698623 1_555
Ba13 Ge80 3.698623 1_556
Ba13 Ge7 3.876383 1_556
Ba13 Ge5 3.876383 1_555
Ba14 Ge162 3.478020 1_555
Ba14 Ge130 3.478020 1_554
Ba14 Ge161 3.574516 1_555
Ba14 Ge129 3.574516 1_554
Ba14 Ge112 3.611709 1_555
Ba14 Ge80 3.611709 1_555
Ba14 Ge83 3.698623 1_555
Ba14 Ge115 3.698623 1_555
Ba14 Ge4 3.876383 1_555
Ba14 Ge7 3.876383 1_555
Ba15 Ge131 3.478020 1_555
Ba15 Ge163 3.478020 1_555
Ba15 Ge160 3.574516 1_555
Ba15 Ge128 3.574516 1_555
Ba15 Ge81 3.611709 1_555
Ba15 Ge113 3.611709 1_655
Ba15 Ge114 3.698623 1_655
Ba15 Ge82 3.698623 1_555
Ba15 Ge6 3.876383 1_555
Ba15 Ge5 3.876383 1_655
Ba16 Ge132 3.478020 1_555
Ba16 Ge169 3.478020 1_555
Ba16 Ge170 3.574516 1_555
Ba16 Ge135 3.574516 1_555
Ba16 Ge86 3.611709 1_555
Ba16 Ge123 3.611709 1_555
Ba16 Ge85 3.698623 1_555
Ba16 Ge120 3.698623 1_555
Ba16 Ge0 3.876383 1_555
Ba16 Ge8 3.876383 1_555
Ba17 Ge168 3.478020 1_545
Ba17 Ge133 3.478020 1_555
Ba17 Ge134 3.574516 1_555
Ba17 Ge171 3.574516 1_545
Ba17 Ge122 3.611709 1_555
Ba17 Ge87 3.611709 1_655
Ba17 Ge121 3.698623 1_555
Ba17 Ge84 3.698623 1_655
Ba17 Ge9 3.876383 1_655
Ba17 Ge1 3.876383 1_555
Ba18 Ge170 3.478020 1_555
Ba18 Ge134 3.478020 1_455
Ba18 Ge169 3.574516 1_555
Ba18 Ge133 3.574516 1_455
Ba18 Ge120 3.611709 1_555
Ba18 Ge84 3.611709 1_555
Ba18 Ge123 3.698623 1_555
Ba18 Ge87 3.698623 1_555
Ba18 Ge0 3.876383 1_555
Ba18 Ge9 3.876383 1_555
Ba19 Ge171 3.478020 1_555
Ba19 Ge135 3.478020 1_555
Ba19 Ge132 3.574516 1_555
Ba19 Ge168 3.574516 1_555
Ba19 Ge85 3.611709 1_555
Ba19 Ge121 3.611709 1_565
Ba19 Ge122 3.698623 1_565
Ba19 Ge86 3.698623 1_555
Ba19 Ge1 3.876383 1_565
Ba19 Ge8 3.876383 1_555
Ba20 Ge136 3.478020 1_555
Ba20 Ge153 3.478020 1_555
Ba20 Ge154 3.574516 1_555
Ba20 Ge139 3.574516 1_555
Ba20 Ge90 3.611709 1_555
Ba20 Ge107 3.611709 1_555
Ba20 Ge89 3.698623 1_555
Ba20 Ge104 3.698623 1_555
Ba20 Ge8 3.876383 1_555
Ba20 Ge4 3.876383 1_555
Ba21 Ge152 3.478020 1_556
Ba21 Ge137 3.478020 1_555
Ba21 Ge138 3.574516 1_555
Ba21 Ge155 3.574516 1_556
Ba21 Ge106 3.611709 1_555
Ba21 Ge91 3.611709 1_545
Ba21 Ge105 3.698623 1_555
Ba21 Ge88 3.698623 1_545
Ba21 Ge5 3.876383 1_545
Ba21 Ge9 3.876383 1_555
Ba22 Ge154 3.478020 1_555
Ba22 Ge138 3.478020 1_565
Ba22 Ge153 3.574516 1_555
Ba22 Ge137 3.574516 1_565
Ba22 Ge104 3.611709 1_555
Ba22 Ge88 3.611709 1_555
Ba22 Ge91 3.698623 1_555
Ba22 Ge107 3.698623 1_555
Ba22 Ge8 3.876383 1_555
Ba22 Ge5 3.876383 1_555
Ba23 Ge155 3.478020 1_555
Ba23 Ge139 3.478020 1_555
Ba23 Ge152 3.574516 1_555
Ba23 Ge136 3.574516 1_555
Ba23 Ge105 3.611709 1_554
Ba23 Ge89 3.611709 1_555
Ba23 Ge106 3.698623 1_554
Ba23 Ge90 3.698623 1_555
Ba23 Ge9 3.876383 1_554
Ba23 Ge4 3.876383 1_555
Ba24 Ge140 3.478020 1_555
Ba24 Ge149 3.478020 1_555
Ba24 Ge150 3.574516 1_555
Ba24 Ge143 3.574516 1_555
Ba24 Ge94 3.611709 1_555
Ba24 Ge103 3.611709 1_555
Ba24 Ge93 3.698623 1_555
Ba24 Ge100 3.698623 1_555
Ba24 Ge10 3.876383 1_555
Ba24 Ge0 3.876383 1_555
Ba25 Ge148 3.478020 1_655
Ba25 Ge141 3.478020 1_555
Ba25 Ge142 3.574516 1_555
Ba25 Ge151 3.574516 1_655
Ba25 Ge102 3.611709 1_555
Ba25 Ge95 3.611709 1_554
Ba25 Ge101 3.698623 1_555
Ba25 Ge92 3.698623 1_554
Ba25 Ge1 3.876383 1_554
Ba25 Ge11 3.876383 1_555
Ba26 Ge150 3.478020 1_555
Ba26 Ge142 3.478020 1_556
Ba26 Ge149 3.574516 1_555
Ba26 Ge141 3.574516 1_556
Ba26 Ge100 3.611709 1_555
Ba26 Ge92 3.611709 1_555
Ba26 Ge95 3.698623 1_555
Ba26 Ge103 3.698623 1_555
Ba26 Ge10 3.876383 1_555
Ba26 Ge1 3.876383 1_555
Ba27 Ge151 3.478020 1_555
Ba27 Ge143 3.478020 1_555
Ba27 Ge148 3.574516 1_555
Ba27 Ge140 3.574516 1_555
Ba27 Ge101 3.611709 1_455
Ba27 Ge93 3.611709 1_555
Ba27 Ge102 3.698623 1_455
Ba27 Ge94 3.698623 1_555
Ba27 Ge0 3.876383 1_555
Ba27 Ge11 3.876383 1_455
Ba28 Ge144 3.478020 1_555
Ba28 Ge157 3.478020 1_555
Ba28 Ge158 3.574516 1_555
Ba28 Ge147 3.574516 1_555
Ba28 Ge98 3.611709 1_555
Ba28 Ge111 3.611709 1_555
Ba28 Ge97 3.698623 1_555
Ba28 Ge108 3.698623 1_555
Ba28 Ge6 3.876383 1_555
Ba28 Ge2 3.876383 1_555
Ba29 Ge156 3.478020 1_565
Ba29 Ge145 3.478020 1_555
Ba29 Ge146 3.574516 1_555
Ba29 Ge159 3.574516 1_565
Ba29 Ge110 3.611709 1_555
Ba29 Ge99 3.611709 1_455
Ba29 Ge109 3.698623 1_555
Ba29 Ge96 3.698623 1_455
Ba29 Ge3 3.876383 1_455
Ba29 Ge7 3.876383 1_555
Ba30 Ge158 3.478020 1_555
Ba30 Ge146 3.478020 1_655
Ba30 Ge157 3.574516 1_555
Ba30 Ge145 3.574516 1_655
Ba30 Ge108 3.611709 1_555
Ba30 Ge96 3.611709 1_555
Ba30 Ge111 3.698623 1_555
Ba30 Ge99 3.698623 1_555
Ba30 Ge6 3.876383 1_555
Ba30 Ge3 3.876383 1_555
Ba31 Ge159 3.478020 1_555
Ba31 Ge147 3.478020 1_555
Ba31 Ge144 3.574516 1_555
Ba31 Ge156 3.574516 1_555
Ba31 Ge109 3.611709 1_545
Ba31 Ge97 3.611709 1_555
Ba31 Ge110 3.698623 1_545
Ba31 Ge98 3.698623 1_555
Ba31 Ge2 3.876383 1_555
Ba31 Ge7 3.876383 1_545
Ge0 Ge93 2.575445 1_555
Ge0 Ge94 2.575445 1_555
Ge0 Ge123 2.575445 1_555
Ge0 Ge120 2.575445 1_555
Ge1 Ge122 2.575445 1_555
Ge1 Ge121 2.575445 1_555
Ge1 Ge95 2.575445 1_555
Ge1 Ge92 2.575445 1_555
Ge2 Ge97 2.575445 1_555
Ge2 Ge98 2.575445 1_555
Ge3 Ge99 2.575445 1_555
Ge3 Ge96 2.575445 1_555
Ge4 Ge89 2.575445 1_555
Ge4 Ge90 2.575445 1_555
Ge5 Ge91 2.575445 1_555
Ge5 Ge88 2.575445 1_555
Ge6 Ge82 2.575445 1_555
Ge6 Ge81 2.575445 1_555
Ge7 Ge83 2.575445 1_555
Ge7 Ge80 2.575445 1_555
Ge8 Ge86 2.575445 1_555
Ge8 Ge85 2.575445 1_555
Ge10 Ge78 2.575445 1_555
Ge10 Ge77 2.575445 1_555
Ge10 Ge103 2.575445 1_555
Ge10 Ge100 2.575445 1_555
Ge11 Ge79 2.575445 1_555
Ge11 Ge76 2.575445 1_555
Ge12 Ge24 2.499929 1_555
Ge12 Ge124 2.614408 1_455
Ge12 Ge129 2.614408 1_555
Ge12 Ge134 2.614408 1_455
Ge13 Ge26 2.499929 1_555
Ge13 Ge132 2.614408 1_554
Ge13 Ge130 2.614408 1_554
Ge14 Ge25 2.499929 1_555
Ge15 Ge27 2.499929 1_555
Ge16 Ge20 2.499929 1_555
Ge17 Ge22 2.499929 1_555
Ge18 Ge21 2.499929 1_555
Ge19 Ge23 2.499929 1_555
Ge28 Ge67 2.488778 1_555
Ge28 Ge97 2.556140 1_555
Ge28 Ge81 2.559271 1_555
Ge29 Ge65 2.488778 1_555
Ge29 Ge99 2.556140 1_555
Ge29 Ge82 2.559271 1_555
Ge30 Ge66 2.488778 1_555
Ge30 Ge98 2.556140 1_565
Ge30 Ge80 2.559271 1_555
Ge31 Ge64 2.488778 1_555
Ge31 Ge96 2.556140 1_556
Ge31 Ge83 2.559271 1_656
Ge32 Ge75 2.488778 1_555
Ge32 Ge89 2.556140 1_555
Ge32 Ge85 2.559271 1_555
Ge33 Ge73 2.488778 1_555
Ge33 Ge91 2.556140 1_555
Ge33 Ge86 2.559271 1_555
Ge34 Ge74 2.488778 1_555
Ge34 Ge90 2.556140 1_556
Ge34 Ge84 2.559271 1_555
Ge35 Ge72 2.488778 1_555
Ge35 Ge88 2.556140 1_655
Ge35 Ge87 2.559271 1_665
Ge36 Ge71 2.488778 1_555
Ge36 Ge93 2.556140 1_555
Ge36 Ge77 2.559271 1_555
Ge37 Ge69 2.488778 1_555
Ge37 Ge95 2.556140 1_555
Ge37 Ge78 2.559271 1_555
Ge38 Ge70 2.488778 1_555
Ge38 Ge94 2.556140 1_655
Ge38 Ge76 2.559271 1_555
Ge39 Ge68 2.488778 1_555
Ge39 Ge92 2.556140 1_565
Ge39 Ge79 2.559271 1_566
Ge40 Ge55 2.488778 1_555
Ge40 Ge85 2.556140 1_555
Ge40 Ge93 2.559271 1_555
Ge41 Ge53 2.488778 1_555
Ge41 Ge87 2.556140 1_555
Ge41 Ge94 2.559271 1_555
Ge42 Ge54 2.488778 1_555
Ge42 Ge86 2.556140 1_545
Ge42 Ge92 2.559271 1_555
Ge43 Ge52 2.488778 1_555
Ge43 Ge84 2.556140 1_554
Ge43 Ge95 2.559271 1_454
Ge44 Ge63 2.488778 1_555
Ge44 Ge77 2.556140 1_555
Ge44 Ge97 2.559271 1_555
Ge45 Ge61 2.488778 1_555
Ge45 Ge79 2.556140 1_555
Ge45 Ge98 2.559271 1_555
Ge46 Ge62 2.488778 1_555
Ge46 Ge78 2.556140 1_554
Ge46 Ge96 2.559271 1_555
Ge47 Ge60 2.488778 1_555
Ge47 Ge76 2.556140 1_455
Ge47 Ge99 2.559271 1_445
Ge48 Ge59 2.488778 1_555
Ge48 Ge81 2.556140 1_555
Ge48 Ge89 2.559271 1_555
Ge49 Ge57 2.488778 1_555
Ge49 Ge83 2.556140 1_555
Ge49 Ge90 2.559271 1_555
Ge50 Ge58 2.488778 1_555
Ge50 Ge82 2.556140 1_455
Ge50 Ge88 2.559271 1_555
Ge51 Ge56 2.488778 1_555
Ge51 Ge80 2.556140 1_545
Ge51 Ge91 2.559271 1_544
Ge84 Ge9 2.575445 1_555
Ge87 Ge9 2.575445 1_555
Ge100 Ge71 2.556140 1_555
Ge100 Ge62 2.559271 1_556
Ge100 Ge150 2.636855 1_555
Ge101 Ge68 2.556140 1_544
Ge101 Ge60 2.559271 1_655
Ge101 Ge11 2.575445 1_555
Ge101 Ge151 2.636855 1_655
Ge102 Ge70 2.556140 1_555
Ge102 Ge61 2.559271 1_555
Ge102 Ge11 2.575445 1_555
Ge102 Ge148 2.636855 1_655
Ge103 Ge69 2.556140 1_555
Ge103 Ge63 2.559271 1_555
Ge103 Ge149 2.636855 1_555
Ge104 Ge75 2.556140 1_555
Ge104 Ge54 2.559271 1_565
Ge104 Ge8 2.575445 1_555
Ge104 Ge154 2.636855 1_555
Ge105 Ge72 2.556140 1_445
Ge105 Ge52 2.559271 1_556
Ge105 Ge9 2.575445 1_555
Ge105 Ge155 2.636855 1_556
Ge106 Ge74 2.556140 1_555
Ge106 Ge53 2.559271 1_555
Ge106 Ge9 2.575445 1_555
Ge106 Ge152 2.636855 1_556
Ge107 Ge73 2.556140 1_555
Ge107 Ge55 2.559271 1_555
Ge107 Ge8 2.575445 1_555
Ge107 Ge153 2.636855 1_555
Ge108 Ge67 2.556140 1_555
Ge108 Ge58 2.559271 1_655
Ge108 Ge6 2.575445 1_555
Ge108 Ge158 2.636855 1_555
Ge109 Ge64 2.556140 1_454
Ge109 Ge56 2.559271 1_565
Ge109 Ge7 2.575445 1_555
Ge109 Ge159 2.636855 1_565
Ge110 Ge66 2.556140 1_555
Ge110 Ge57 2.559271 1_555
Ge110 Ge7 2.575445 1_555
Ge110 Ge156 2.636855 1_565
Ge111 Ge65 2.556140 1_555
Ge111 Ge59 2.559271 1_555
Ge111 Ge6 2.575445 1_555
Ge111 Ge157 2.636855 1_555
Ge112 Ge59 2.556140 1_555
Ge112 Ge74 2.559271 1_554
Ge112 Ge4 2.575445 1_555
Ge112 Ge162 2.636855 1_555
Ge113 Ge56 2.556140 1_566
Ge113 Ge72 2.559271 1_455
Ge113 Ge5 2.575445 1_555
Ge113 Ge163 2.636855 1_455
Ge114 Ge58 2.556140 1_555
Ge114 Ge73 2.559271 1_555
Ge114 Ge5 2.575445 1_555
Ge114 Ge160 2.636855 1_455
Ge115 Ge57 2.556140 1_555
Ge115 Ge75 2.559271 1_555
Ge115 Ge4 2.575445 1_555
Ge115 Ge161 2.636855 1_555
Ge116 Ge63 2.556140 1_555
Ge116 Ge66 2.559271 1_545
Ge116 Ge2 2.575445 1_555
Ge116 Ge166 2.636855 1_555
Ge117 Ge60 2.556140 1_665
Ge117 Ge64 2.559271 1_554
Ge117 Ge3 2.575445 1_555
Ge117 Ge167 2.636855 1_554
Ge118 Ge62 2.556140 1_555
Ge118 Ge65 2.559271 1_555
Ge118 Ge3 2.575445 1_555
Ge118 Ge164 2.636855 1_554
Ge119 Ge61 2.556140 1_555
Ge119 Ge67 2.559271 1_555
Ge119 Ge2 2.575445 1_555
Ge119 Ge165 2.636855 1_555
Ge120 Ge55 2.556140 1_555
Ge120 Ge70 2.559271 1_455
Ge120 Ge170 2.636855 1_555
Ge121 Ge52 2.556140 1_656
Ge121 Ge68 2.559271 1_545
Ge121 Ge171 2.636855 1_545
Ge122 Ge54 2.556140 1_555
Ge122 Ge69 2.559271 1_555
Ge122 Ge168 2.636855 1_545
Ge123 Ge53 2.556140 1_555
Ge123 Ge71 2.559271 1_555
Ge123 Ge169 2.636855 1_555
Ge124 Ge31 2.572894 1_555
Ge124 Ge78 2.636855 1_555
Ge125 Ge30 2.572893 1_555
Ge125 Ge13 2.614408 1_555
Ge125 Ge79 2.636855 1_565
Ge126 Ge29 2.572894 1_555
Ge126 Ge14 2.614408 1_565
Ge126 Ge76 2.636855 1_565
Ge127 Ge28 2.572893 1_555
Ge127 Ge15 2.614408 1_555
Ge127 Ge77 2.636855 1_555
Ge128 Ge35 2.572894 1_555
Ge128 Ge14 2.614408 1_565
Ge128 Ge82 2.636855 1_555
Ge129 Ge34 2.572893 1_555
Ge129 Ge83 2.636855 1_556
Ge130 Ge33 2.572894 1_555
Ge130 Ge80 2.636855 1_556
Ge131 Ge32 2.572893 1_555
Ge131 Ge15 2.614408 1_555
Ge131 Ge81 2.636855 1_555
Ge132 Ge39 2.572894 1_555
Ge132 Ge86 2.636855 1_555
Ge133 Ge38 2.572893 1_555
Ge133 Ge14 2.614408 1_555
Ge133 Ge87 2.636855 1_655
Ge134 Ge37 2.572894 1_555
Ge134 Ge84 2.636855 1_655
Ge135 Ge36 2.572893 1_555
Ge135 Ge15 2.614408 1_555
Ge135 Ge85 2.636855 1_555
Ge136 Ge43 2.572894 1_555
Ge136 Ge16 2.614408 1_555
Ge136 Ge90 2.636855 1_555
Ge137 Ge42 2.572893 1_555
Ge137 Ge17 2.614408 1_556
Ge137 Ge91 2.636855 1_545
Ge138 Ge41 2.572894 1_555
Ge138 Ge18 2.614408 1_555
Ge138 Ge88 2.636855 1_545
Ge139 Ge40 2.572893 1_555
Ge139 Ge19 2.614408 1_555
Ge139 Ge89 2.636855 1_555
Ge140 Ge47 2.572894 1_555
Ge140 Ge18 2.614408 1_555
Ge140 Ge94 2.636855 1_555
Ge141 Ge46 2.572893 1_555
Ge141 Ge16 2.614408 1_655
Ge141 Ge95 2.636855 1_554
Ge142 Ge45 2.572894 1_555
Ge142 Ge17 2.614408 1_555
Ge142 Ge92 2.636855 1_554
Ge143 Ge44 2.572893 1_555
Ge143 Ge19 2.614408 1_555
Ge143 Ge93 2.636855 1_555
Ge144 Ge51 2.572894 1_555
Ge144 Ge17 2.614408 1_555
Ge144 Ge98 2.636855 1_555
Ge145 Ge50 2.572893 1_555
Ge145 Ge18 2.614408 1_565
Ge145 Ge99 2.636855 1_455
Ge146 Ge49 2.572894 1_555
Ge146 Ge16 2.614408 1_555
Ge146 Ge96 2.636855 1_455
Ge147 Ge48 2.572893 1_555
Ge147 Ge19 2.614408 1_555
Ge147 Ge97 2.636855 1_555
Ge148 Ge55 2.572894 1_555
Ge148 Ge20 2.614408 1_555
Ge149 Ge54 2.572893 1_555
Ge149 Ge21 2.614408 1_555
Ge150 Ge53 2.572894 1_555
Ge150 Ge22 2.614408 1_556
Ge151 Ge52 2.572893 1_555
Ge151 Ge23 2.614408 1_555
Ge152 Ge59 2.572894 1_555
Ge152 Ge22 2.614408 1_555
Ge153 Ge58 2.572893 1_555
Ge153 Ge20 2.614408 1_555
Ge154 Ge57 2.572894 1_555
Ge154 Ge21 2.614408 1_565
Ge155 Ge56 2.572893 1_555
Ge155 Ge23 2.614408 1_555
Ge156 Ge63 2.572894 1_555
Ge156 Ge21 2.614408 1_555
Ge157 Ge62 2.572893 1_555
Ge157 Ge22 2.614408 1_555
Ge158 Ge61 2.572894 1_555
Ge158 Ge20 2.614408 1_655
Ge159 Ge60 2.572893 1_555
Ge159 Ge23 2.614408 1_555
Ge160 Ge67 2.572894 1_555
Ge160 Ge24 2.614408 1_655
Ge161 Ge66 2.572893 1_555
Ge161 Ge25 2.614408 1_565
Ge162 Ge65 2.572894 1_555
Ge162 Ge26 2.614408 1_555
Ge163 Ge64 2.572893 1_555
Ge163 Ge27 2.614408 1_555
Ge164 Ge71 2.572894 1_555
Ge164 Ge26 2.614408 1_556
Ge165 Ge70 2.572893 1_555
Ge165 Ge24 2.614408 1_655
Ge166 Ge69 2.572894 1_555
Ge166 Ge25 2.614408 1_555
Ge167 Ge68 2.572893 1_555
Ge167 Ge27 2.614408 1_555
Ge168 Ge75 2.572894 1_555
Ge168 Ge25 2.614408 1_565
Ge169 Ge74 2.572893 1_555
Ge169 Ge26 2.614408 1_556
Ge170 Ge73 2.572894 1_555
Ge170 Ge24 2.614408 1_555
Ge171 Ge72 2.572893 1_555
Ge171 Ge27 2.614408 1_555
