# generated using pymatgen
data_LaGaSb2
_symmetry_space_group_name_H-M   'P 1'
_cell_length_a   11.76895508
_cell_length_b   11.76895508
_cell_length_c   4.42525500
_cell_angle_alpha   90.00000000
_cell_angle_beta   90.00000000
_cell_angle_gamma   158.38854394
_symmetry_Int_Tables_number   1
_chemical_formula_structural   LaGaSb2
_chemical_formula_sum   'La2 Ga2 Sb4'
_cell_volume   225.75020500
_cell_formula_units_Z   2
loop_
 _symmetry_equiv_pos_site_id
 _symmetry_equiv_pos_as_xyz
  1  'x, y, z'
loop_
 _atom_site_type_symbol
 _atom_site_label
 _atom_site_symmetry_multiplicity
 _atom_site_fract_x
 _atom_site_fract_y
 _atom_site_fract_z
 _atom_site_occupancy
  La  La0  1  0.86237100  0.13762900  0.25000000  1
  La  La1  1  0.13762900  0.86237100  0.75000000  1
  Ga  Ga0  1  0.15952500  0.15952500  0.00000000  1
  Ga  Ga1  1  0.84047500  0.84047500  0.50000000  1
  Sb  Sb0  1  0.58974100  0.41025900  0.25000000  1
  Sb  Sb1  1  0.41025900  0.58974100  0.75000000  1
  Sb  Sb2  1  0.24974400  0.75025600  0.25000000  1
  Sb  Sb3  1  0.75025600  0.24974400  0.75000000  1
loop_
_geom_bond_atom_site_label_1
_geom_bond_atom_site_label_2
_geom_bond_distance
_geom_bond_site_symmetry_2
La0 Sb1 3.315113 1_655
La0 Sb1 3.315113 1_654
La0 Sb1 3.315113 1_544
La0 Sb1 3.315113 1_545
La0 Sb3 3.408081 1_554
La0 Sb3 3.408081 1_555
La0 Sb2 3.413089 1_655
La0 Sb2 3.413089 1_545
La1 Sb0 3.315113 1_566
La1 Sb0 3.315113 1_565
La1 Sb0 3.315113 1_456
La1 Sb0 3.315113 1_455
La1 Sb2 3.408081 1_556
La1 Sb2 3.408081 1_555
La1 Sb3 3.413089 1_565
La1 Sb3 3.413089 1_455
Ga0 Ga1 2.622591 1_445
Ga0 Ga1 2.622591 1_444
Ga0 Sb0 2.790413 1_555
Ga0 Sb1 2.790413 1_554
Ga0 La0 3.441655 1_455
Ga0 La1 3.441655 1_544
Ga1 Sb0 2.790413 1_555
Ga1 Sb1 2.790413 1_555
Ga1 La1 3.441655 1_655
Ga1 La0 3.441655 1_565
Sb2 Sb3 3.124777 1_565
Sb2 Sb3 3.124777 1_455
Sb2 Sb3 3.124777 1_454
Sb2 Sb3 3.124777 1_564
