# generated using pymatgen
data_Ni3Sb
_symmetry_space_group_name_H-M   'P 1'
_cell_length_a   4.14654958
_cell_length_b   4.14654930
_cell_length_c   4.14654914
_cell_angle_alpha   60.00000922
_cell_angle_beta   60.00001149
_cell_angle_gamma   60.00000078
_symmetry_Int_Tables_number   1
_chemical_formula_structural   Ni3Sb
_chemical_formula_sum   'Ni3 Sb1'
_cell_volume   50.41335313
_cell_formula_units_Z   1
loop_
 _symmetry_equiv_pos_site_id
 _symmetry_equiv_pos_as_xyz
  1  'x, y, z'
loop_
 _atom_site_type_symbol
 _atom_site_label
 _atom_site_symmetry_multiplicity
 _atom_site_fract_x
 _atom_site_fract_y
 _atom_site_fract_z
 _atom_site_occupancy
  Ni  Ni0  1  0.50000000  0.50000000  0.50000000  1
  Ni  Ni1  1  0.25000000  0.25000000  0.25000000  1
  Ni  Ni2  1  0.75000000  0.75000000  0.75000000  1
  Sb  Sb0  1  -0.00000000  0.00000000  0.00000000  1
loop_
_geom_bond_atom_site_label_1
_geom_bond_atom_site_label_2
_geom_bond_distance
_geom_bond_site_symmetry_2
Ni0 Ni1 2.539232 1_555
Ni0 Ni2 2.539232 1_555
Ni0 Ni1 2.539233 1_565
Ni0 Ni2 2.539233 1_545
Ni0 Ni1 2.539233 1_556
Ni0 Ni2 2.539233 1_554
Ni0 Ni2 2.539233 1_455
Ni0 Ni1 2.539233 1_655
Ni0 Sb0 2.932053 1_656
Ni0 Sb0 2.932053 1_565
Ni0 Sb0 2.932053 1_566
Ni0 Sb0 2.932053 1_655
Ni0 Sb0 2.932054 1_665
Ni0 Sb0 2.932054 1_556
Ni1 Sb0 2.539232 1_555
Ni1 Sb0 2.539233 1_565
Ni1 Sb0 2.539233 1_556
Ni1 Sb0 2.539233 1_655
Ni2 Sb0 2.539232 1_666
Ni2 Sb0 2.539233 1_656
Ni2 Sb0 2.539233 1_665
Ni2 Sb0 2.539233 1_566
