# generated using pymatgen
data_Y3Ga9Pt2
_symmetry_space_group_name_H-M   'P 1'
_cell_length_a   8.21983970
_cell_length_b   8.21983970
_cell_length_c   8.21983970
_cell_angle_alpha   149.80150605
_cell_angle_beta   107.57358163
_cell_angle_gamma   80.43198016
_symmetry_Int_Tables_number   1
_chemical_formula_structural   Y3Ga9Pt2
_chemical_formula_sum   'Y3 Ga9 Pt2'
_cell_volume   261.06788263
_cell_formula_units_Z   1
loop_
 _symmetry_equiv_pos_site_id
 _symmetry_equiv_pos_as_xyz
  1  'x, y, z'
loop_
 _atom_site_type_symbol
 _atom_site_label
 _atom_site_symmetry_multiplicity
 _atom_site_fract_x
 _atom_site_fract_y
 _atom_site_fract_z
 _atom_site_occupancy
  Y  Y0  1  0.00000000  0.00000000  0.00000000  1
  Y  Y1  1  0.30455800  0.30455800  0.00000000  1
  Y  Y2  1  0.69544200  0.69544200  0.00000000  1
  Ga  Ga0  1  0.50000000  0.00000000  0.50000000  1
  Ga  Ga1  1  0.97447800  0.34351000  0.63096800  1
  Ga  Ga2  1  0.02552200  0.65649000  0.36903200  1
  Ga  Ga3  1  0.71254200  0.34351000  0.36903200  1
  Ga  Ga4  1  0.28745800  0.65649000  0.63096800  1
  Ga  Ga5  1  0.85596900  0.13815000  0.71782000  1
  Ga  Ga6  1  0.14403100  0.86185000  0.28218000  1
  Ga  Ga7  1  0.42033000  0.13815000  0.28218000  1
  Ga  Ga8  1  0.57967000  0.86185000  0.71782000  1
  Pt  Pt0  1  0.30668000  0.50000000  0.80668000  1
  Pt  Pt1  1  0.69332000  0.50000000  0.19332000  1
loop_
_geom_bond_atom_site_label_1
_geom_bond_atom_site_label_2
_geom_bond_distance
_geom_bond_site_symmetry_2
Ga0 Ga5 2.735559 1_555
Ga0 Ga6 2.735559 1_545
Ga0 Ga8 2.735566 1_545
Ga0 Ga7 2.735566 1_555
Ga0 Pt0 2.847832 1_555
Ga0 Pt1 2.847832 1_556
Ga0 Pt0 2.847832 1_544
Ga0 Pt1 2.847832 1_545
Ga0 Y2 3.256441 1_545
Ga0 Y2 3.256441 1_556
Ga0 Y1 3.256441 1_556
Ga0 Y1 3.256441 1_545
Ga1 Ga3 2.544034 1_555
Ga1 Pt0 2.602260 1_655
Ga1 Ga6 2.606654 1_656
Ga1 Ga6 2.606658 1_645
Ga1 Ga5 2.712510 1_555
Ga1 Y2 3.107709 1_545
Ga1 Y2 3.107709 1_556
Ga1 Y0 3.172078 1_655
Ga1 Y0 3.172078 1_666
Ga2 Ga4 2.544034 1_555
Ga2 Pt1 2.602260 1_455
Ga2 Ga5 2.606654 1_454
Ga2 Ga5 2.606658 1_465
Ga2 Ga6 2.712510 1_555
Ga2 Y1 3.107709 1_555
Ga2 Y1 3.107709 1_566
Ga2 Y0 3.172078 1_555
Ga2 Y0 3.172078 1_566
Ga3 Pt1 2.602260 1_555
Ga3 Ga8 2.606653 1_544
Ga3 Ga8 2.606653 1_555
Ga3 Ga7 2.712506 1_555
Ga3 Y2 3.107709 1_545
Ga3 Y2 3.107709 1_556
Ga3 Y0 3.172078 1_655
Ga3 Y0 3.172078 1_666
Ga4 Pt0 2.602260 1_555
Ga4 Ga7 2.606653 1_555
Ga4 Ga7 2.606653 1_566
Ga4 Ga8 2.712506 1_555
Ga4 Y1 3.107709 1_555
Ga4 Y1 3.107709 1_566
Ga4 Y0 3.172078 1_555
Ga4 Y0 3.172078 1_566
Ga5 Pt1 2.765693 1_556
Ga5 Pt1 2.765696 1_545
Ga5 Y2 3.094769 1_556
Ga5 Y2 3.094772 1_545
Ga5 Y0 3.243286 1_656
Ga5 Y1 3.446046 1_656
Ga6 Pt0 2.765693 1_554
Ga6 Pt0 2.765696 1_565
Ga6 Y1 3.094769 1_555
Ga6 Y1 3.094772 1_566
Ga6 Y0 3.243286 1_565
Ga6 Y2 3.446046 1_455
Ga7 Pt0 2.765699 1_555
Ga7 Pt0 2.765699 1_544
Ga7 Y2 3.094773 1_556
Ga7 Y2 3.094773 1_545
Ga7 Y0 3.243286 1_555
Ga7 Y1 3.446038 1_555
Ga8 Pt1 2.765699 1_566
Ga8 Pt1 2.765699 1_555
Ga8 Y1 3.094773 1_566
Ga8 Y1 3.094773 1_555
Ga8 Y0 3.243286 1_666
Ga8 Y2 3.446038 1_556
Pt0 Y1 3.089510 1_556
Pt0 Y2 3.089510 1_556
Pt1 Y2 3.089510 1_555
Pt1 Y1 3.089510 1_555
