# generated using pymatgen
data_VNi5(BO5)2
_symmetry_space_group_name_H-M   'P 1'
_cell_length_a   3.02080100
_cell_length_b   9.25440300
_cell_length_c   12.36320000
_cell_angle_alpha   90.00000000
_cell_angle_beta   90.00000000
_cell_angle_gamma   90.00000000
_symmetry_Int_Tables_number   1
_chemical_formula_structural   VNi5(BO5)2
_chemical_formula_sum   'V2 Ni10 B4 O20'
_cell_volume   345.62203185
_cell_formula_units_Z   2
loop_
 _symmetry_equiv_pos_site_id
 _symmetry_equiv_pos_as_xyz
  1  'x, y, z'
loop_
 _atom_site_type_symbol
 _atom_site_label
 _atom_site_symmetry_multiplicity
 _atom_site_fract_x
 _atom_site_fract_y
 _atom_site_fract_z
 _atom_site_occupancy
  V  V0  1  0.00000000  0.25636200  0.61472200  1
  V  V1  1  0.00000000  0.24363800  0.11472200  1
  Ni  Ni0  1  0.50000000  0.50487500  0.49664200  1
  Ni  Ni1  1  0.50000000  0.99512500  0.99664200  1
  Ni  Ni2  1  0.50000000  0.51045000  0.21973500  1
  Ni  Ni3  1  0.50000000  0.50168900  0.78334500  1
  Ni  Ni4  1  0.50000000  0.99831100  0.28334500  1
  Ni  Ni5  1  0.50000000  0.98955000  0.71973500  1
  Ni  Ni6  1  0.00000000  0.99163900  0.49837300  1
  Ni  Ni7  1  0.00000000  0.50836100  0.99837300  1
  Ni  Ni8  1  0.00000000  0.74133700  0.38521000  1
  Ni  Ni9  1  0.00000000  0.75866300  0.88521000  1
  B  B0  1  0.00000000  0.78043000  0.13915400  1
  B  B1  1  0.00000000  0.22598600  0.86103300  1
  B  B2  1  0.00000000  0.27401400  0.36103300  1
  B  B3  1  0.00000000  0.71957000  0.63915400  1
  O  O0  1  0.00000000  0.62908300  0.14023900  1
  O  O1  1  0.00000000  0.37487200  0.85922200  1
  O  O2  1  0.00000000  0.12512800  0.35922200  1
  O  O3  1  0.00000000  0.87091700  0.64023900  1
  O  O4  1  0.00000000  0.64494300  0.54205000  1
  O  O5  1  0.00000000  0.34904900  0.45899900  1
  O  O6  1  0.00000000  0.15095100  0.95899900  1
  O  O7  1  0.00000000  0.85505700  0.04205000  1
  O  O8  1  0.00000000  0.85569300  0.23583200  1
  O  O9  1  0.00000000  0.15009300  0.76336400  1
  O  O10  1  0.00000000  0.34990700  0.26336400  1
  O  O11  1  0.00000000  0.64430700  0.73583200  1
  O  O12  1  0.50000000  0.88756800  0.42219800  1
  O  O13  1  0.50000000  0.11759800  0.57980000  1
  O  O14  1  0.50000000  0.38240200  0.07979900  1
  O  O15  1  0.50000000  0.61243200  0.92219800  1
  O  O16  1  0.50000000  0.61025500  0.35682700  1
  O  O17  1  0.50000000  0.38304500  0.64325600  1
  O  O18  1  0.50000000  0.11695500  0.14325600  1
  O  O19  1  0.50000000  0.88974500  0.85682700  1
loop_
_geom_bond_atom_site_label_1
_geom_bond_atom_site_label_2
_geom_bond_distance
_geom_bond_site_symmetry_2
Ni0 O16 1.984690 1_555
Ni0 O4 2.068023 1_555
Ni0 O4 2.068023 1_655
Ni0 O17 2.134657 1_555
Ni0 O5 2.139505 1_555
Ni0 O5 2.139505 1_655
Ni1 O19 1.984690 1_555
Ni1 O7 2.068023 1_556
Ni1 O7 2.068023 1_656
Ni1 O18 2.134657 1_566
Ni1 O6 2.139505 1_565
Ni1 O6 2.139505 1_665
Ni2 O16 1.930227 1_555
Ni2 O14 2.096984 1_555
Ni2 O0 2.110116 1_555
Ni2 O0 2.110116 1_655
Ni2 O10 2.186241 1_555
Ni2 O10 2.186241 1_655
Ni3 O15 1.999321 1_555
Ni3 O17 2.050659 1_555
Ni3 O11 2.090060 1_555
Ni3 O11 2.090060 1_655
Ni3 O1 2.130418 1_655
Ni3 O1 2.130418 1_555
Ni4 O12 1.999321 1_555
Ni4 O18 2.050659 1_565
Ni4 O8 2.090060 1_555
Ni4 O8 2.090060 1_655
Ni4 O2 2.130418 1_665
Ni4 O2 2.130418 1_565
Ni5 O19 1.930227 1_555
Ni5 O13 2.096973 1_565
Ni5 O3 2.110116 1_655
Ni5 O3 2.110116 1_555
Ni5 O9 2.186241 1_565
Ni5 O9 2.186241 1_665
Ni6 O12 2.023814 1_455
Ni6 O12 2.023814 1_555
Ni6 O3 2.079516 1_555
Ni6 O2 2.117953 1_565
Ni6 O13 2.157209 1_565
Ni6 O13 2.157209 1_465
Ni7 O15 2.023814 1_455
Ni7 O15 2.023814 1_555
Ni7 O0 2.079516 1_556
Ni7 O1 2.117953 1_555
Ni7 O14 2.157203 1_456
Ni7 O14 2.157203 1_556
Ni8 O16 1.968761 1_455
Ni8 O16 1.968761 1_555
Ni8 O12 2.078892 1_555
Ni8 O12 2.078892 1_455
Ni8 O8 2.128527 1_555
Ni8 O4 2.134404 1_555
Ni9 O19 1.968761 1_555
Ni9 O19 1.968761 1_455
Ni9 O15 2.078892 1_455
Ni9 O15 2.078892 1_555
Ni9 O11 2.128527 1_555
Ni9 O7 2.134404 1_556
B0 O8 1.383385 1_555
B0 O7 1.384993 1_555
B0 O0 1.400690 1_555
B1 O1 1.378033 1_555
B1 O6 1.396115 1_555
B1 O9 1.396906 1_555
B2 O2 1.378033 1_555
B2 O5 1.396115 1_555
B2 O10 1.396906 1_555
B3 O11 1.383385 1_555
B3 O4 1.384993 1_555
B3 O3 1.400690 1_555
O5 V0 2.107673 1_555
O6 V1 2.107673 1_556
O9 V0 2.084297 1_555
O10 V1 2.084297 1_555
O13 V0 2.028997 1_655
O13 V0 2.028997 1_555
O14 V1 2.029000 1_655
O14 V1 2.029000 1_555
O17 V0 1.944279 1_655
O17 V0 1.944279 1_555
O18 V1 1.944279 1_555
O18 V1 1.944279 1_655
