# generated using pymatgen
data_Rb6Ga10Se20O61
_symmetry_space_group_name_H-M   'P 1'
_cell_length_a   10.99039800
_cell_length_b   12.78813116
_cell_length_c   12.95397812
_cell_angle_alpha   86.86706161
_cell_angle_beta   85.06614521
_cell_angle_gamma   72.43957228
_symmetry_Int_Tables_number   1
_chemical_formula_structural   Rb6Ga10Se20O61
_chemical_formula_sum   'Rb6 Ga10 Se20 O61'
_cell_volume   1728.57366426
_cell_formula_units_Z   1
loop_
 _symmetry_equiv_pos_site_id
 _symmetry_equiv_pos_as_xyz
  1  'x, y, z'
loop_
 _atom_site_type_symbol
 _atom_site_label
 _atom_site_symmetry_multiplicity
 _atom_site_fract_x
 _atom_site_fract_y
 _atom_site_fract_z
 _atom_site_occupancy
  Rb  Rb0  1  0.73942900  0.44340500  0.94629700  1
  Rb  Rb1  1  0.26063800  0.55685000  0.05353100  1
  Rb  Rb2  1  0.50502100  0.00260300  0.82119100  1
  Rb  Rb3  1  0.49536200  0.99660200  0.17993800  1
  Rb  Rb4  1  0.82427400  0.92212400  0.45276400  1
  Rb  Rb5  1  0.17624800  0.07560900  0.54658100  1
  Ga  Ga0  1  0.80318800  0.68205300  0.72663000  1
  Ga  Ga1  1  0.19670300  0.31836000  0.27220900  1
  Ga  Ga2  1  0.82136700  0.67539400  0.22050700  1
  Ga  Ga3  1  0.17826200  0.32528500  0.78047500  1
  Ga  Ga4  1  0.49018900  0.26517900  0.00166000  1
  Ga  Ga5  1  0.51004400  0.73463700  0.99840400  1
  Ga  Ga6  1  0.80611000  0.17610800  0.22862000  1
  Ga  Ga7  1  0.19391300  0.82371500  0.77159000  1
  Ga  Ga8  1  0.80209100  0.18150200  0.73298600  1
  Ga  Ga9  1  0.19770200  0.81849300  0.26685800  1
  Se  Se0  1  0.48320900  0.32741000  0.75708500  1
  Se  Se1  1  0.51689800  0.67282100  0.24301200  1
  Se  Se2  1  0.76085100  0.65210900  0.47769100  1
  Se  Se3  1  0.23760000  0.34794100  0.52264100  1
  Se  Se4  1  0.88909500  0.40743500  0.22327500  1
  Se  Se5  1  0.11074400  0.59270800  0.77667800  1
  Se  Se6  1  0.50378600  0.67495100  0.75919700  1
  Se  Se7  1  0.49628900  0.32528600  0.24077200  1
  Se  Se8  1  0.80684700  0.72944500  0.97448800  1
  Se  Se9  1  0.19330100  0.27039800  0.02548700  1
  Se  Se10  1  0.78464800  0.13118100  0.98709700  1
  Se  Se11  1  0.21542300  0.86887000  0.01288300  1
  Se  Se12  1  0.79328200  0.23112600  0.47494200  1
  Se  Se13  1  0.20747300  0.76908700  0.52530900  1
  Se  Se14  1  0.89204800  0.91221000  0.72176800  1
  Se  Se15  1  0.10779300  0.08772600  0.27843400  1
  Se  Se16  1  0.89702000  0.40957500  0.67791000  1
  Se  Se17  1  0.10282000  0.59071300  0.32202800  1
  Se  Se18  1  0.91736700  0.90796500  0.16937600  1
  Se  Se19  1  0.08263100  0.09216900  0.83043600  1
  O  O0  1  0.78426600  0.53496600  0.70706100  1
  O  O1  1  0.21563800  0.46490500  0.29348500  1
  O  O2  1  0.61204000  0.21321200  0.73389100  1
  O  O3  1  0.38767600  0.78714200  0.26598700  1
  O  O4  1  0.79760700  0.03158000  0.77983800  1
  O  O5  1  0.20229400  0.96854900  0.22015100  1
  O  O6  1  0.78571500  0.33335300  0.26471100  1
  O  O7  1  0.21442300  0.66650800  0.73515900  1
  O  O8  1  0.79509800  0.21790900  0.88273900  1
  O  O9  1  0.20490000  0.78213100  0.11721800  1
  O  O10  1  0.60213700  0.67613900  0.47702200  1
  O  O11  1  0.39330400  0.33285900  0.52325000  1
  O  O12  1  0.78719700  0.33630700  0.69850500  1
  O  O13  1  0.21302800  0.66357600  0.30127700  1
  O  O14  1  0.79286600  0.72660700  0.57260900  1
  O  O15  1  0.20715100  0.27367900  0.42715900  1
  O  O16  1  0.78890000  0.83627200  0.75847400  1
  O  O17  1  0.21107900  0.16384100  0.24193000  1
  O  O18  1  0.79735800  0.02383200  0.21035800  1
  O  O19  1  0.20254400  0.97629800  0.78982800  1
  O  O20  1  0.06364800  0.74022100  0.51760700  1
  O  O21  1  0.93751500  0.25928700  0.48211000  1
  O  O22  1  0.81795700  0.71563400  0.37121600  1
  O  O23  1  0.18175700  0.28420800  0.62911500  1
  O  O24  1  0.83043600  0.13455300  0.38009600  1
  O  O25  1  0.16862900  0.86555900  0.62033900  1
  O  O26  1  0.37972200  0.79256100  0.74598100  1
  O  O27  1  0.62010900  0.20773400  0.25437500  1
  O  O28  1  0.82159800  0.13769000  0.58108700  1
  O  O29  1  0.17714800  0.86237200  0.41906600  1
  O  O30  1  0.00705000  0.36361400  0.31053200  1
  O  O31  1  0.99318100  0.63630400  0.68938200  1
  O  O32  1  0.37092000  0.25799800  0.77107100  1
  O  O33  1  0.62894300  0.74216400  0.22818100  1
  O  O34  1  0.82333400  0.63173300  0.07423000  1
  O  O35  1  0.17679600  0.36836800  0.92600500  1
  O  O36  1  0.82350000  0.63802300  0.87730500  1
  O  O37  1  0.17661600  0.36206600  0.12242800  1
  O  O38  1  0.49392600  0.36023700  0.88767300  1
  O  O39  1  0.50560300  0.63974900  0.11251800  1
  O  O40  1  0.35865100  0.19927000  0.01655200  1
  O  O41  1  0.64127400  0.80070100  0.98342300  1
  O  O42  1  0.78746900  0.22298600  0.07847700  1
  O  O43  1  0.21245900  0.77697600  0.92156500  1
  O  O44  1  0.50424600  0.64013600  0.89456000  1
  O  O45  1  0.49562700  0.35979000  0.10541900  1
  O  O46  1  0.00749600  0.86285800  0.81000100  1
  O  O47  1  0.99260600  0.13725400  0.19012800  1
  O  O48  1  0.98454000  0.38064100  0.78698100  1
  O  O49  1  0.01559600  0.61918000  0.21299500  1
  O  O50  1  0.79826400  0.53200500  0.27171100  1
  O  O51  1  0.20137800  0.46793200  0.72797700  1
  O  O52  1  0.62271400  0.13191700  0.99610200  1
  O  O53  1  0.37729300  0.86802400  0.00387300  1
  O  O54  1  0.00313900  0.86769700  0.27809300  1
  O  O55  1  0.99697800  0.13224100  0.72180200  1
  O  O56  1  0.18171900  0.17487900  0.82758700  1
  O  O57  1  0.81840500  0.82531700  0.17184500  1
  O  O58  1  0.61645700  0.74289100  0.74473000  1
  O  O59  1  0.38348000  0.25726500  0.25572600  1
  O  O60  1  0.47803300  0.89355600  0.48423400  1
loop_
_geom_bond_atom_site_label_1
_geom_bond_atom_site_label_2
_geom_bond_distance
_geom_bond_site_symmetry_2
Rb4 Se14 3.613175 1_555
Rb5 Se15 3.602232 1_555
Ga0 O58 1.961045 1_555
Ga0 O0 1.985642 1_555
Ga0 O16 1.993788 1_555
Ga0 O36 2.013834 1_555
Ga0 O31 2.013862 1_555
Ga0 O14 2.047910 1_555
Ga1 O59 1.960836 1_555
Ga1 O1 1.983163 1_555
Ga1 O17 1.992257 1_555
Ga1 O37 2.001605 1_555
Ga1 O30 2.012823 1_555
Ga1 O15 2.059924 1_555
Ga2 O57 1.976861 1_555
Ga2 O50 1.996456 1_555
Ga2 O34 2.001014 1_555
Ga2 O33 2.023583 1_555
Ga2 O49 2.031977 1_655
Ga2 O22 2.040393 1_555
Ga3 O56 1.976105 1_555
Ga3 O35 1.990152 1_555
Ga3 O51 1.992240 1_555
Ga3 O32 2.026393 1_555
Ga3 O48 2.026674 1_455
Ga3 O23 2.051649 1_555
Ga4 O38 1.866334 1_554
Ga4 O40 1.872711 1_555
Ga4 O45 1.873290 1_555
Ga4 O52 1.878399 1_554
Ga5 O39 1.867417 1_556
Ga5 O41 1.871027 1_555
Ga5 O44 1.874290 1_555
Ga5 O53 1.880693 1_556
Ga6 O27 1.962723 1_555
Ga6 O47 1.983275 1_555
Ga6 O18 2.006137 1_555
Ga6 O42 2.012750 1_555
Ga6 O24 2.023536 1_555
Ga6 O6 2.031051 1_555
Ga7 O26 1.961120 1_555
Ga7 O46 1.982106 1_555
Ga7 O19 2.009510 1_555
Ga7 O43 2.010183 1_555
Ga7 O25 2.022807 1_555
Ga7 O7 2.031532 1_555
Ga8 O12 1.966155 1_555
Ga8 O4 1.992787 1_555
Ga8 O2 2.003148 1_555
Ga8 O8 2.009317 1_555
Ga8 O55 2.036642 1_555
Ga8 O28 2.051136 1_555
Ga9 O13 1.966451 1_555
Ga9 O5 1.994296 1_555
Ga9 O3 2.002868 1_555
Ga9 O9 2.007476 1_555
Ga9 O54 2.033253 1_555
Ga9 O29 2.054586 1_555
O0 Se16 1.742453 1_555
O0 Rb0 3.302549 1_555
O1 Se17 1.744973 1_555
O1 Rb1 3.313002 1_555
O2 Se0 1.718958 1_555
O2 Rb2 3.356478 1_555
O3 Se1 1.721871 1_555
O3 Rb3 3.343318 1_555
O4 Se14 1.734524 1_545
O4 Rb2 3.341501 1_555
O5 Se15 1.734126 1_565
O5 Rb3 3.341061 1_555
O6 Se4 1.722085 1_555
O7 Se5 1.722317 1_555
O8 Se10 1.719605 1_555
O8 Rb0 2.911359 1_555
O9 Se11 1.719627 1_555
O9 Rb1 2.909216 1_555
O10 Se2 1.678109 1_555
O11 Se3 1.663920 1_555
O12 Se16 1.733673 1_555
O13 Se17 1.733549 1_555
O14 Se2 1.716970 1_555
O14 Rb4 2.963972 1_555
O15 Se3 1.713207 1_555
O15 Rb5 2.987435 1_555
O16 Se14 1.724927 1_555
O16 Rb2 3.266018 1_565
O17 Se15 1.727345 1_555
O17 Rb3 3.271793 1_545
O18 Se18 1.732979 1_545
O18 Rb4 3.334781 1_545
O18 Rb3 3.497151 1_545
O19 Se19 1.731121 1_565
O19 Rb5 3.335128 1_565
O19 Rb2 3.500218 1_565
O20 Se13 1.740134 1_555
O20 Rb4 3.084098 1_455
O21 Se12 1.739123 1_555
O21 Rb5 3.089110 1_655
O22 Se2 1.729891 1_555
O22 Rb4 2.919206 1_555
O23 Se3 1.725300 1_555
O23 Rb5 2.946713 1_555
O24 Se12 1.725320 1_555
O24 Rb4 2.844466 1_545
O25 Se13 1.725531 1_555
O25 Rb5 2.824311 1_565
O26 Se6 1.710285 1_555
O26 Rb2 3.578999 1_565
O27 Se7 1.708978 1_555
O27 Rb3 3.584003 1_545
O28 Se12 1.756369 1_555
O28 Rb4 3.287394 1_545
O29 Se13 1.757222 1_555
O29 Rb5 3.261578 1_565
O30 Se4 1.736864 1_455
O31 Se5 1.734004 1_655
O32 Se0 1.717187 1_555
O32 Rb2 3.207618 1_555
O33 Se1 1.714430 1_555
O33 Rb3 3.191563 1_555
O34 Se8 1.729392 1_554
O34 Rb0 3.381757 1_554
O35 Se9 1.729121 1_556
O35 Rb1 3.380099 1_556
O36 Se8 1.725486 1_555
O36 Rb0 2.974734 1_555
O37 Se9 1.725216 1_555
O37 Rb1 2.976105 1_555
O38 Se0 1.787025 1_555
O38 Rb0 3.340719 1_555
O39 Se1 1.788214 1_555
O39 Rb1 3.334767 1_555
O40 Se9 1.766660 1_555
O40 Rb3 3.324433 1_545
O40 Rb2 3.587702 1_554
O41 Se8 1.769127 1_555
O41 Rb2 3.307650 1_565
O41 Rb3 3.591478 1_556
O42 Se10 1.720663 1_554
O42 Rb0 3.144174 1_554
O43 Se11 1.721351 1_556
O43 Rb1 3.139618 1_556
O44 Se6 1.785442 1_555
O44 Rb0 3.106321 1_555
O45 Se7 1.784576 1_555
O45 Rb1 3.107810 1_555
O46 Se14 1.732625 1_455
O47 Se15 1.731588 1_655
O48 Se16 1.737896 1_555
O48 Rb0 3.174958 1_555
O49 Se17 1.735658 1_555
O49 Rb1 3.175373 1_555
O50 Se4 1.723322 1_555
O51 Se5 1.726025 1_555
O52 Se10 1.770705 1_555
O52 Rb3 3.325990 1_546
O52 Rb2 3.427250 1_555
O53 Se11 1.769589 1_555
O53 Rb2 3.312681 1_564
O53 Rb3 3.434491 1_555
O54 Se18 1.730123 1_455
O54 Rb4 2.837245 1_455
O55 Se19 1.728307 1_655
O55 Rb5 2.847423 1_655
O56 Se19 1.729144 1_555
O56 Rb2 3.568123 1_555
O57 Se18 1.727717 1_555
O57 Rb3 3.561240 1_555
O58 Se6 1.707293 1_555
O58 Rb2 3.347835 1_565
O59 Se7 1.709494 1_555
O59 Rb3 3.356198 1_545
O60 Rb5 3.486894 1_565
