# generated using pymatgen
data_Li9Mn2Co5O16
_symmetry_space_group_name_H-M   'P 1'
_cell_length_a   5.74055700
_cell_length_b   5.82756796
_cell_length_c   9.77561265
_cell_angle_alpha   91.04304629
_cell_angle_beta   98.49038459
_cell_angle_gamma   119.19509704
_symmetry_Int_Tables_number   1
_chemical_formula_structural   Li9Mn2Co5O16
_chemical_formula_sum   'Li9 Mn2 Co5 O16'
_cell_volume   280.80935766
_cell_formula_units_Z   1
loop_
 _symmetry_equiv_pos_site_id
 _symmetry_equiv_pos_as_xyz
  1  'x, y, z'
loop_
 _atom_site_type_symbol
 _atom_site_label
 _atom_site_symmetry_multiplicity
 _atom_site_fract_x
 _atom_site_fract_y
 _atom_site_fract_z
 _atom_site_occupancy
  Li  Li0  1  0.75609200  0.86792800  0.26930900  1
  Li  Li1  1  0.75716600  0.62969700  0.73031200  1
  Li  Li2  1  0.76224000  0.38612300  0.26242700  1
  Li  Li3  1  0.25307600  0.38039700  0.26532800  1
  Li  Li4  1  0.24162300  0.11226200  0.73182300  1
  Li  Li5  1  0.24565500  0.86566000  0.26649900  1
  Li  Li6  1  0.74463700  0.12316800  0.73645300  1
  Li  Li7  1  0.24143400  0.62683400  0.73694200  1
  Li  Li8  1  0.00005500  0.74968000  0.49941100  1
  Mn  Mn0  1  0.00081200  0.00117500  0.00090000  1
  Mn  Mn1  1  0.49928500  0.49965200  0.99969700  1
  Co  Co0  1  0.99971600  0.50003700  0.99917800  1
  Co  Co1  1  0.99998500  0.25112400  0.50083900  1
  Co  Co2  1  0.49842200  0.24902600  0.49878200  1
  Co  Co3  1  0.49971000  0.00081100  0.00022300  1
  Co  Co4  1  0.50029200  0.75012300  0.50073800  1
  O  O0  1  0.87040900  0.19287100  0.10504900  1
  O  O1  1  0.85328100  0.93195900  0.61396700  1
  O  O2  1  0.85556700  0.65760400  0.11649400  1
  O  O3  1  0.36980900  0.68943600  0.10485300  1
  O  O4  1  0.38339300  0.45771700  0.61531300  1
  O  O5  1  0.37440800  0.19295200  0.10683000  1
  O  O6  1  0.86204900  0.41803300  0.61549600  1
  O  O7  1  0.38600600  0.93187700  0.61368900  1
  O  O8  1  0.61289700  0.56856800  0.38740400  1
  O  O9  1  0.62768000  0.30956600  0.89389900  1
  O  O10  1  0.61717200  0.04210900  0.38440900  1
  O  O11  1  0.13541600  0.08115400  0.38259700  1
  O  O12  1  0.12892500  0.81048900  0.89390600  1
  O  O13  1  0.14918700  0.56967400  0.38810500  1
  O  O14  1  0.62733500  0.80928500  0.89456300  1
  O  O15  1  0.14626800  0.34301200  0.88456200  1
loop_
_geom_bond_atom_site_label_1
_geom_bond_atom_site_label_2
_geom_bond_distance
_geom_bond_site_symmetry_2
Li0 O10 1.986303 1_565
Li0 O8 2.001606 1_555
Li0 O11 2.027380 1_665
Li0 O2 2.219919 1_555
Li0 O3 2.284724 1_555
Li0 O0 2.409238 1_565
Li1 O1 2.002696 1_555
Li1 O6 2.004355 1_555
Li1 O4 2.005227 1_555
Li1 O12 2.226952 1_655
Li1 O14 2.298267 1_555
Li1 O9 2.386845 1_555
Li2 O2 2.075113 1_555
Li2 O13 2.101438 1_655
Li2 O8 2.123498 1_555
Li2 O10 2.210445 1_555
Li2 O0 2.218557 1_555
Li2 O5 2.242819 1_555
Li3 O13 1.953914 1_555
Li3 O8 1.976854 1_555
Li3 O11 1.990922 1_555
Li3 O0 2.248139 1_455
Li3 O5 2.253518 1_555
Li3 O3 2.321492 1_555
Li4 O7 2.052823 1_545
Li4 O1 2.076902 1_445
Li4 O4 2.184308 1_555
Li4 O9 2.270401 1_555
Li4 O15 2.285526 1_555
Li4 O12 2.305633 1_545
Li5 O10 2.006470 1_565
Li5 O13 2.008043 1_555
Li5 O11 2.049654 1_565
Li5 O2 2.225263 1_455
Li5 O3 2.246580 1_555
Li5 O5 2.386252 1_565
Li6 O7 1.975887 1_545
Li6 O1 1.978439 1_545
Li6 O6 1.996136 1_555
Li6 O9 2.226071 1_555
Li6 O15 2.262404 1_655
Li6 O14 2.323121 1_545
Li7 O4 2.018931 1_555
Li7 O6 2.057144 1_455
Li7 O7 2.057799 1_555
Li7 O15 2.134195 1_555
Li7 O12 2.196417 1_555
Li7 O14 2.246497 1_555
Li8 O13 2.031464 1_555
Li8 O1 2.049586 1_455
Li8 O8 2.050193 1_455
Li8 O7 2.053073 1_555
Li8 O6 2.121863 1_455
Li8 O11 2.125371 1_565
Mn0 O0 1.960711 1_455
Mn0 O12 1.962600 1_544
Mn0 O5 1.970951 1_555
Mn0 O14 1.971881 1_444
Mn0 O15 2.167750 1_554
Mn0 O2 2.170902 1_445
Mn1 O15 1.921254 1_555
Mn1 O2 1.941530 1_556
Mn1 O3 1.954103 1_556
Mn1 O9 1.954457 1_555
Mn1 O5 1.960889 1_556
Mn1 O14 1.961916 1_555
Co0 O15 1.947452 1_655
Co0 O3 1.954953 1_656
Co0 O0 1.955600 1_556
Co0 O2 1.956091 1_556
Co0 O9 1.961922 1_555
Co0 O12 1.966311 1_655
Co1 O6 1.950162 1_555
Co1 O11 1.973969 1_655
Co1 O4 2.045628 1_655
Co1 O13 2.048481 1_655
Co1 O10 2.051332 1_555
Co1 O1 2.052671 1_545
Co2 O11 1.965033 1_555
Co2 O6 1.969586 1_555
Co2 O10 2.036339 1_555
Co2 O4 2.041545 1_555
Co2 O8 2.043573 1_555
Co2 O7 2.054303 1_545
Co3 O5 1.954953 1_555
Co3 O0 1.954993 1_555
Co3 O14 1.956680 1_544
Co3 O12 1.960251 1_544
Co3 O9 1.965065 1_554
Co3 O3 1.966619 1_545
Co4 O8 1.897563 1_555
Co4 O13 1.901410 1_555
Co4 O7 1.902819 1_555
Co4 O1 1.911642 1_555
Co4 O4 1.945340 1_555
Co4 O10 1.954655 1_565
