# generated using pymatgen
data_Sr5V3HO13
_symmetry_space_group_name_H-M   'P 1'
_cell_length_a   7.49179900
_cell_length_b   10.23078968
_cell_length_c   10.23086851
_cell_angle_alpha   120.00172721
_cell_angle_beta   90.00000000
_cell_angle_gamma   90.00000000
_symmetry_Int_Tables_number   1
_chemical_formula_structural   Sr5V3HO13
_chemical_formula_sum   'Sr10 V6 H2 O26'
_cell_volume   679.09549510
_cell_formula_units_Z   2
loop_
 _symmetry_equiv_pos_site_id
 _symmetry_equiv_pos_as_xyz
  1  'x, y, z'
loop_
 _atom_site_type_symbol
 _atom_site_label
 _atom_site_symmetry_multiplicity
 _atom_site_fract_x
 _atom_site_fract_y
 _atom_site_fract_z
 _atom_site_occupancy
  Sr  Sr0  1  0.00099400  0.33336000  0.66667800  1
  Sr  Sr1  1  0.50099400  0.66664000  0.33332200  1
  Sr  Sr2  1  0.99893800  0.66663900  0.33332100  1
  Sr  Sr3  1  0.49893800  0.33336100  0.66667900  1
  Sr  Sr4  1  0.24910300  0.74757800  0.99443000  1
  Sr  Sr5  1  0.24910200  0.00558300  0.75314300  1
  Sr  Sr6  1  0.24910100  0.24684400  0.25243400  1
  Sr  Sr7  1  0.74910300  0.25242200  0.00557000  1
  Sr  Sr8  1  0.74910200  0.99441700  0.24685700  1
  Sr  Sr9  1  0.74910100  0.75315600  0.74756600  1
  V  V0  1  0.24945400  0.96946300  0.36755500  1
  V  V1  1  0.24945300  0.63245600  0.60192300  1
  V  V2  1  0.24946600  0.39808600  0.03053000  1
  V  V3  1  0.74945400  0.03053700  0.63244500  1
  V  V4  1  0.74945300  0.36754400  0.39807700  1
  V  V5  1  0.74946600  0.60191400  0.96947000  1
  H  H0  1  0.57265500  0.00000000  0.00000100  1
  H  H1  1  0.07265500  0.00000000  0.99999900  1
  O  O0  1  0.25021600  0.87165700  0.46759500  1
  O  O1  1  0.25021600  0.53239000  0.40406100  1
  O  O2  1  0.25022100  0.59593100  0.12833000  1
  O  O3  1  0.75021600  0.12834300  0.53240500  1
  O  O4  1  0.75021600  0.46761000  0.59593900  1
  O  O5  1  0.75022100  0.40406900  0.87167000  1
  O  O6  1  0.24961100  0.16558500  0.48480600  1
  O  O7  1  0.24961300  0.51520800  0.68078300  1
  O  O8  1  0.24961500  0.31922000  0.83441500  1
  O  O9  1  0.74961100  0.83441500  0.51519400  1
  O  O10  1  0.74961300  0.48479200  0.31921700  1
  O  O11  1  0.74961500  0.68078000  0.16558500  1
  O  O12  1  0.06470800  0.90784900  0.24997900  1
  O  O13  1  0.06470400  0.75002100  0.65787100  1
  O  O14  1  0.06471800  0.34213600  0.09214500  1
  O  O15  1  0.56470800  0.09215100  0.75002100  1
  O  O16  1  0.56470400  0.24997900  0.34212900  1
  O  O17  1  0.56471800  0.65786400  0.90785500  1
  O  O18  1  0.93342400  0.09138800  0.75164100  1
  O  O19  1  0.93342900  0.24836100  0.33974900  1
  O  O20  1  0.93344200  0.66025300  0.90861000  1
  O  O21  1  0.43342400  0.90861200  0.24835900  1
  O  O22  1  0.43342900  0.75163900  0.66025100  1
  O  O23  1  0.43344200  0.33974700  0.09139000  1
  O  O24  1  0.20341600  0.00000200  0.99999600  1
  O  O25  1  0.70341600  0.99999800  0.00000400  1
loop_
_geom_bond_atom_site_label_1
_geom_bond_atom_site_label_2
_geom_bond_distance
_geom_bond_site_symmetry_2
H0 O25 0.979635 1_545
H1 O24 0.979635 1_555
O0 V0 1.753009 1_555
O0 Sr5 2.531602 1_565
O0 Sr1 2.633412 1_555
O0 Sr2 2.636093 1_455
O1 V1 1.753112 1_555
O1 Sr6 2.531561 1_555
O1 Sr1 2.633270 1_555
O1 Sr2 2.635942 1_455
O2 V2 1.752948 1_555
O2 Sr4 2.531655 1_554
O2 Sr1 2.633284 1_555
O2 Sr2 2.636006 1_455
O3 V3 1.753009 1_555
O3 Sr8 2.531602 1_545
O3 Sr0 2.633412 1_655
O3 Sr3 2.636093 1_555
O4 V4 1.753112 1_555
O4 Sr9 2.531561 1_555
O4 Sr0 2.633270 1_655
O4 Sr3 2.635942 1_555
O5 V5 1.752948 1_555
O5 Sr7 2.531655 1_556
O5 Sr0 2.633284 1_655
O5 Sr3 2.636006 1_555
O6 V0 1.748687 1_545
O6 Sr0 2.585290 1_555
O6 Sr3 2.589132 1_555
O6 Sr6 2.884360 1_555
O7 V1 1.748622 1_555
O7 Sr0 2.585130 1_555
O7 Sr3 2.588940 1_555
O7 Sr4 2.884382 1_555
O8 V2 1.748652 1_556
O8 Sr0 2.585252 1_555
O8 Sr3 2.589040 1_555
O8 Sr5 2.884323 1_555
O9 V3 1.748687 1_565
O9 Sr1 2.585290 1_555
O9 Sr2 2.589132 1_555
O9 Sr9 2.884360 1_555
O10 V4 1.748622 1_555
O10 Sr1 2.585130 1_555
O10 Sr2 2.588940 1_555
O10 Sr7 2.884382 1_555
O11 V5 1.748652 1_554
O11 Sr1 2.585252 1_555
O11 Sr2 2.589040 1_555
O11 Sr8 2.884323 1_555
O12 V0 1.732544 1_555
O12 Sr8 2.530683 1_455
O12 Sr4 2.673082 1_554
O12 Sr2 3.027207 1_455
O13 V1 1.732501 1_555
O13 Sr9 2.530660 1_455
O13 Sr5 2.673210 1_565
O13 Sr2 3.027051 1_455
O14 V2 1.732513 1_555
O14 Sr7 2.530797 1_455
O14 Sr6 2.673333 1_555
O14 Sr2 3.026693 1_455
O15 V3 1.732544 1_555
O15 Sr5 2.530683 1_555
O15 Sr7 2.673082 1_556
O15 Sr3 3.027207 1_555
O16 V4 1.732501 1_555
O16 Sr6 2.530660 1_555
O16 Sr8 2.673210 1_545
O16 Sr3 3.027051 1_555
O17 V5 1.732513 1_555
O17 Sr4 2.530797 1_555
O17 Sr9 2.673333 1_555
O17 Sr3 3.026693 1_555
O18 V3 1.736401 1_555
O18 Sr5 2.525383 1_655
O18 Sr7 2.662706 1_556
O18 Sr0 3.048320 1_655
O19 V4 1.736363 1_555
O19 Sr6 2.525345 1_655
O19 Sr8 2.662859 1_545
O19 Sr0 3.048134 1_655
O20 V5 1.736468 1_555
O20 Sr4 2.525316 1_655
O20 Sr9 2.662974 1_555
O20 Sr0 3.047803 1_655
O21 V0 1.736401 1_555
O21 Sr8 2.525383 1_555
O21 Sr4 2.662706 1_554
O21 Sr1 3.048320 1_555
O22 V1 1.736363 1_555
O22 Sr9 2.525345 1_555
O22 Sr5 2.662859 1_565
O22 Sr1 3.048134 1_555
O23 V2 1.736468 1_555
O23 Sr7 2.525316 1_555
O23 Sr6 2.662974 1_555
O23 Sr1 3.047803 1_555
O24 Sr6 2.577267 1_556
O24 Sr4 2.577328 1_545
O24 Sr5 2.577377 1_555
O25 Sr9 2.577267 1_554
O25 Sr7 2.577328 1_565
O25 Sr8 2.577377 1_555
