# generated using pymatgen
data_LiFePCO7
_symmetry_space_group_name_H-M   'P 1'
_cell_length_a   8.23308600
_cell_length_b   8.23659076
_cell_length_c   9.44029070
_cell_angle_alpha   106.74435912
_cell_angle_beta   107.12728064
_cell_angle_gamma   102.92904067
_symmetry_Int_Tables_number   1
_chemical_formula_structural   LiFePCO7
_chemical_formula_sum   'Li4 Fe4 P4 C4 O28'
_cell_volume   551.52861925
_cell_formula_units_Z   4
loop_
 _symmetry_equiv_pos_site_id
 _symmetry_equiv_pos_as_xyz
  1  'x, y, z'
loop_
 _atom_site_type_symbol
 _atom_site_label
 _atom_site_symmetry_multiplicity
 _atom_site_fract_x
 _atom_site_fract_y
 _atom_site_fract_z
 _atom_site_occupancy
  Li  Li0  1  0.30977900  0.55247800  0.10542000  1
  Li  Li1  1  0.54262100  0.00808400  0.28305700  1
  Li  Li2  1  0.18007300  0.93800900  0.88947300  1
  Li  Li3  1  0.68670400  0.43518300  0.89206900  1
  Fe  Fe0  1  0.18807800  0.94647200  0.33544700  1
  Fe  Fe1  1  0.69678300  0.44785800  0.33219400  1
  Fe  Fe2  1  0.80777300  0.05770900  0.66873700  1
  Fe  Fe3  1  0.30408200  0.55485300  0.66450000  1
  P  P0  1  0.44900900  0.69909200  0.42156700  1
  P  P1  1  0.94660400  0.20100600  0.42188700  1
  P  P2  1  0.55528800  0.30303100  0.57759300  1
  P  P3  1  0.05411900  0.80326400  0.57934000  1
  C  C0  1  0.50219700  0.24457700  0.04181200  1
  C  C1  1  0.00177900  0.75237300  0.04227400  1
  C  C2  1  0.00025200  0.24990600  0.95949800  1
  C  C3  1  0.49392400  0.74934800  0.96058000  1
  O  O0  1  0.14186900  0.88723700  0.07402800  1
  O  O1  1  0.63248700  0.38787300  0.07290700  1
  O  O2  1  0.10457900  0.35495600  0.09938800  1
  O  O3  1  0.48629000  0.21738400  0.16841800  1
  O  O4  1  0.58554200  0.86016200  0.10230000  1
  O  O5  1  0.97775500  0.73115100  0.16743600  1
  O  O6  1  0.02911200  0.08935900  0.32115900  1
  O  O7  1  0.83562800  0.27846100  0.31349000  1
  O  O8  1  0.34544200  0.78088200  0.30786700  1
  O  O9  1  0.51733800  0.57969300  0.30838000  1
  O  O10  1  0.41637900  0.14335100  0.42138900  1
  O  O11  1  0.81014500  0.07739000  0.46579300  1
  O  O12  1  0.32127500  0.58184700  0.47258100  1
  O  O13  1  0.90394400  0.65767600  0.42481600  1
  O  O14  1  0.09279100  0.34738300  0.57931500  1
  O  O15  1  0.67424500  0.42655300  0.52446100  1
  O  O16  1  0.18055000  0.92252200  0.52751200  1
  O  O17  1  0.60057800  0.84668800  0.57389900  1
  O  O18  1  0.47211100  0.41046200  0.68200200  1
  O  O19  1  0.67181900  0.23500900  0.69326600  1
  O  O20  1  0.16635400  0.72928500  0.69190000  1
  O  O21  1  0.98247200  0.92138300  0.68869600  1
  O  O22  1  0.02789600  0.27682800  0.83737800  1
  O  O23  1  0.38996400  0.13661500  0.90517500  1
  O  O24  1  0.52659100  0.77221500  0.84028600  1
  O  O25  1  0.89242100  0.64222700  0.90529000  1
  O  O26  1  0.35989700  0.60566700  0.92317400  1
  O  O27  1  0.86078600  0.10984200  0.91643500  1
loop_
_geom_bond_atom_site_label_1
_geom_bond_atom_site_label_2
_geom_bond_distance
_geom_bond_site_symmetry_2
Li0 O26 2.023286 1_554
Li0 O2 2.040651 1_555
Li0 O9 2.072232 1_555
Li0 O8 2.151404 1_555
Li1 O4 1.967479 1_545
Li1 O10 2.122784 1_555
Li1 O11 2.187469 1_555
Li1 O8 2.304197 1_545
Li1 O3 2.344217 1_555
Li2 O0 1.998245 1_556
Li2 O23 2.031881 1_565
Li2 O21 2.047566 1_455
Li2 O20 2.094877 1_555
Li3 O1 2.004945 1_556
Li3 O19 2.060773 1_555
Li3 O25 2.062206 1_555
Li3 O18 2.153672 1_555
Fe0 O16 1.896596 1_555
Fe0 O6 1.947552 1_565
Fe0 O10 1.949517 1_565
Fe0 O5 2.011649 1_455
Fe0 O8 2.095558 1_555
Fe0 O0 2.267891 1_555
Fe1 O13 1.895280 1_555
Fe1 O15 1.930539 1_555
Fe1 O7 1.993813 1_555
Fe1 O9 2.018724 1_555
Fe1 O3 2.062985 1_555
Fe1 O1 2.222326 1_555
Fe2 O17 1.899874 1_545
Fe2 O11 1.974009 1_555
Fe2 O21 2.012474 1_545
Fe2 O19 2.031844 1_555
Fe2 O22 2.063398 1_655
Fe2 O27 2.139902 1_555
Fe3 O14 1.909703 1_555
Fe3 O12 1.929006 1_555
Fe3 O18 2.017506 1_555
Fe3 O20 2.025961 1_555
Fe3 O24 2.084462 1_555
Fe3 O26 2.239104 1_555
C0 O23 1.256092 1_554
C0 O1 1.295463 1_555
C0 O3 1.314964 1_555
C1 O25 1.256461 1_454
C1 O0 1.298162 1_555
C1 O5 1.306506 1_455
C2 O2 1.253535 1_556
C2 O27 1.294866 1_455
C2 O22 1.307397 1_555
C3 O4 1.259316 1_556
C3 O24 1.295332 1_555
C3 O26 1.299300 1_555
O6 P1 1.538647 1_455
O7 P1 1.541187 1_555
O8 P0 1.570868 1_555
O9 P0 1.556112 1_555
O10 P2 1.558306 1_555
O11 P1 1.573608 1_555
O12 P0 1.543462 1_555
O13 P3 1.536525 1_655
O14 P1 1.541281 1_455
O15 P2 1.543816 1_555
O16 P3 1.551488 1_555
O17 P0 1.536218 1_555
O18 P2 1.545839 1_555
O19 P2 1.550098 1_555
O20 P3 1.549507 1_555
O21 P3 1.548222 1_655
