# generated using pymatgen
data_CsPO3
_symmetry_space_group_name_H-M   'P 1'
_cell_length_a   4.58139663
_cell_length_b   6.50273785
_cell_length_c   13.32108231
_cell_angle_alpha   90.00000000
_cell_angle_beta   90.00000000
_cell_angle_gamma   90.00000000
_symmetry_Int_Tables_number   1
_chemical_formula_structural   CsPO3
_chemical_formula_sum   'Cs4 P4 O12'
_cell_volume   396.85663911
_cell_formula_units_Z   4
loop_
 _symmetry_equiv_pos_site_id
 _symmetry_equiv_pos_as_xyz
  1  'x, y, z'
loop_
 _atom_site_type_symbol
 _atom_site_label
 _atom_site_symmetry_multiplicity
 _atom_site_fract_x
 _atom_site_fract_y
 _atom_site_fract_z
 _atom_site_occupancy
  Cs  Cs0  1  0.23428900  0.25000000  0.59661219  1
  Cs  Cs1  1  0.76571100  0.75000000  0.40338781  1
  Cs  Cs2  1  0.26571100  0.75000000  0.09661219  1
  Cs  Cs3  1  0.73428900  0.25000000  0.90338781  1
  P  P0  1  0.31287799  0.25000000  0.32163279  1
  P  P1  1  0.68712201  0.75000000  0.67836721  1
  P  P2  1  0.18712201  0.75000000  0.82163279  1
  P  P3  1  0.81287799  0.25000000  0.17836721  1
  O  O0  1  0.25878226  0.05292021  0.37483051  1
  O  O1  1  0.74121774  0.94707979  0.62516949  1
  O  O2  1  0.24121774  0.94707979  0.87483051  1
  O  O3  1  0.74121774  0.55292021  0.62516949  1
  O  O4  1  0.75878226  0.05292021  0.12516949  1
  O  O5  1  0.25878226  0.44707979  0.37483051  1
  O  O6  1  0.75878226  0.44707979  0.12516949  1
  O  O7  1  0.24121774  0.55292021  0.87483051  1
  O  O8  1  0.14957990  0.25000000  0.21475937  1
  O  O9  1  0.85042010  0.75000000  0.78524063  1
  O  O10  1  0.35042010  0.75000000  0.71475937  1
  O  O11  1  0.64957990  0.25000000  0.28524063  1
loop_
_geom_bond_atom_site_label_1
_geom_bond_atom_site_label_2
_geom_bond_distance
_geom_bond_site_symmetry_2
Cs0 O3 3.021216 1_455
Cs0 O1 3.021216 1_445
Cs0 O1 3.068974 1_545
Cs0 O3 3.068974 1_555
Cs0 O5 3.222312 1_555
Cs0 O0 3.222312 1_555
Cs1 O5 3.021216 1_655
Cs1 O0 3.021216 1_665
Cs1 O0 3.068974 1_565
Cs1 O5 3.068974 1_555
Cs1 O1 3.222312 1_555
Cs1 O3 3.222312 1_555
Cs2 O4 3.021216 1_565
Cs2 O6 3.021216 1_555
Cs2 O4 3.068974 1_465
Cs2 O6 3.068974 1_455
Cs2 O2 3.222312 1_554
Cs2 O7 3.222312 1_554
Cs3 O2 3.021216 1_545
Cs3 O7 3.021216 1_555
Cs3 O2 3.068974 1_645
Cs3 O7 3.068974 1_655
Cs3 O4 3.222312 1_556
Cs3 O6 3.222312 1_556
O0 P0 1.485261 1_555
O1 P1 1.485261 1_555
O2 P2 1.485261 1_555
O3 P1 1.485261 1_555
O4 P3 1.485261 1_555
O5 P0 1.485261 1_555
O6 P3 1.485261 1_555
O7 P2 1.485261 1_555
O8 P0 1.608272 1_555
O8 P3 1.616948 1_455
O9 P1 1.608272 1_555
O9 P2 1.616948 1_655
O10 P2 1.608272 1_555
O10 P1 1.616948 1_555
O11 P3 1.608272 1_555
O11 P0 1.616948 1_555
