# generated using pymatgen
data_Al27(FeNi2)2
_symmetry_space_group_name_H-M   'P 1'
_cell_length_a   6.15988000
_cell_length_b   6.23875205
_cell_length_c   25.52129034
_cell_angle_alpha   90.08035820
_cell_angle_beta   95.48006315
_cell_angle_gamma   90.02715935
_symmetry_Int_Tables_number   1
_chemical_formula_structural   Al27(FeNi2)2
_chemical_formula_sum   'Al54 Fe4 Ni8'
_cell_volume   976.29844948
_cell_formula_units_Z   2
loop_
 _symmetry_equiv_pos_site_id
 _symmetry_equiv_pos_as_xyz
  1  'x, y, z'
loop_
 _atom_site_type_symbol
 _atom_site_label
 _atom_site_symmetry_multiplicity
 _atom_site_fract_x
 _atom_site_fract_y
 _atom_site_fract_z
 _atom_site_occupancy
  Al  Al0  1  0.08372772  0.79287052  0.24380427  1
  Al  Al1  1  0.09156087  0.79251745  0.57691595  1
  Al  Al2  1  0.09016254  0.79166971  0.91068154  1
  Al  Al3  1  0.91628960  0.29229469  0.25607454  1
  Al  Al4  1  0.91525420  0.28565511  0.58936711  1
  Al  Al5  1  0.91497582  0.28522286  0.92300848  1
  Al  Al6  1  0.90837490  0.21003274  0.09123485  1
  Al  Al7  1  0.91056982  0.21390556  0.42346947  1
  Al  Al8  1  0.90966549  0.21362197  0.75701892  1
  Al  Al9  1  0.09373084  0.71149417  0.07645996  1
  Al  Al10  1  0.08915930  0.70726339  0.40848751  1
  Al  Al11  1  0.09092508  0.70825196  0.74273593  1
  Al  Al12  1  0.40802361  0.46094688  0.25484481  1
  Al  Al13  1  0.39970707  0.46486734  0.58839916  1
  Al  Al14  1  0.39809908  0.46491300  0.92185927  1
  Al  Al15  1  0.59196319  0.96218845  0.24532521  1
  Al  Al16  1  0.59159169  0.97307415  0.57773158  1
  Al  Al17  1  0.59090808  0.97266761  0.91109096  1
  Al  Al18  1  0.59624604  0.53022826  0.07805919  1
  Al  Al19  1  0.59603299  0.53073658  0.41002650  1
  Al  Al20  1  0.59557959  0.53032377  0.74410503  1
  Al  Al21  1  0.40526271  0.02987112  0.08983408  1
  Al  Al22  1  0.40130812  0.02560183  0.42266771  1
  Al  Al23  1  0.40296012  0.02453808  0.75635111  1
  Al  Al24  1  0.61452459  0.30547765  0.16905362  1
  Al  Al25  1  0.61440141  0.30273950  0.50126626  1
  Al  Al26  1  0.61336668  0.30193702  0.83498870  1
  Al  Al27  1  0.38560387  0.80544704  0.33090163  1
  Al  Al28  1  0.38965386  0.80603904  0.66415489  1
  Al  Al29  1  0.38882577  0.80633383  0.99778910  1
  Al  Al30  1  0.39507884  0.69268991  0.16656671  1
  Al  Al31  1  0.39227038  0.69582942  0.49828754  1
  Al  Al32  1  0.39101037  0.69566325  0.83182959  1
  Al  Al33  1  0.60482061  0.19535926  0.00074554  1
  Al  Al34  1  0.60383600  0.19254509  0.33392405  1
  Al  Al35  1  0.60426085  0.19649531  0.66751709  1
  Al  Al36  1  0.21341549  0.11470705  0.18261656  1
  Al  Al37  1  0.21017184  0.11550935  0.51570516  1
  Al  Al38  1  0.20855774  0.11461828  0.84904922  1
  Al  Al39  1  0.78660045  0.61470729  0.31748266  1
  Al  Al40  1  0.78821787  0.61000385  0.65230820  1
  Al  Al41  1  0.78724952  0.61009971  0.98589564  1
  Al  Al42  1  0.78369351  0.88837141  0.15403152  1
  Al  Al43  1  0.78984920  0.89036530  0.48601018  1
  Al  Al44  1  0.78952209  0.88979652  0.81958889  1
  Al  Al45  1  0.21284314  0.38624065  0.01321881  1
  Al  Al46  1  0.21684837  0.38782793  0.34628051  1
  Al  Al47  1  0.21319348  0.38655132  0.67984770  1
  Al  Al48  1  0.00258999  0.50753824  0.16758103  1
  Al  Al49  1  0.00298542  0.50549929  0.49990123  1
  Al  Al50  1  0.00295987  0.50510785  0.83382015  1
  Al  Al51  1  0.00109428  0.00278830  0.00011591  1
  Al  Al52  1  0.99509930  0.00762975  0.33201829  1
  Al  Al53  1  0.99922388  0.00286282  0.66605253  1
  Fe  Fe0  1  0.26363568  0.11771521  0.27839355  1
  Fe  Fe1  1  0.26418159  0.11871870  0.61140215  1
  Fe  Fe2  1  0.26339801  0.11822371  0.94452018  1
  Fe  Fe3  1  0.73635603  0.61801351  0.22213168  1
  Ni  Ni0  1  0.73553888  0.62070850  0.55566832  1
  Ni  Ni1  1  0.73354196  0.62020915  0.88912337  1
  Ni  Ni2  1  0.73706279  0.87935389  0.05578769  1
  Ni  Ni3  1  0.73657805  0.88056665  0.38928941  1
  Ni  Ni4  1  0.73738704  0.88037480  0.72240816  1
  Ni  Ni5  1  0.26295807  0.37942197  0.11072927  1
  Ni  Ni6  1  0.26845286  0.37787769  0.44464387  1
  Ni  Ni7  1  0.26706689  0.37727877  0.77780229  1
loop_
_geom_bond_atom_site_label_1
_geom_bond_atom_site_label_2
_geom_bond_distance
_geom_bond_site_symmetry_2
Al0 Fe3 2.417565 1_455
Al0 Fe0 2.433231 1_565
Al0 Al48 2.647000 1_555
Al0 Al36 2.711785 1_565
Al0 Al52 2.718215 1_465
Al0 Al27 2.759506 1_555
Al0 Al42 2.866367 1_455
Al0 Al12 2.873345 1_555
Al0 Al30 2.945218 1_555
Al0 Al39 2.963512 1_455
Al1 Fe1 2.420961 1_565
Al1 Ni0 2.453864 1_455
Al1 Al49 2.674264 1_555
Al1 Al37 2.694466 1_565
Al1 Al53 2.731333 1_465
Al1 Al28 2.748521 1_555
Al1 Al13 2.786827 1_555
Al1 Al43 2.896679 1_455
Al1 Al31 2.920525 1_555
Al1 Al40 3.030026 1_455
Al2 Fe2 2.419106 1_565
Al2 Ni1 2.457216 1_455
Al2 Al50 2.668447 1_555
Al2 Al38 2.700372 1_565
Al2 Al51 2.734404 1_566
Al2 Al29 2.748316 1_555
Al2 Al44 2.896861 1_455
Al2 Al32 2.924516 1_555
Al2 Al41 3.022862 1_455
Al3 Fe0 2.420707 1_655
Al3 Fe3 2.435555 1_555
Al3 Al52 2.641400 1_555
Al3 Al39 2.715162 1_555
Al3 Al48 2.724642 1_655
Al3 Al46 2.874708 1_655
Al3 Al36 2.956936 1_655
Al3 Al34 2.961725 1_555
Al4 Fe1 2.406976 1_655
Al4 Ni0 2.481929 1_555
Al4 Al53 2.650977 1_555
Al4 Al40 2.742229 1_555
Al4 Al49 2.762309 1_655
Al4 Al47 2.877871 1_655
Al5 Fe2 2.402479 1_655
Al5 Ni1 2.487422 1_555
Al5 Al51 2.658942 1_656
Al5 Al50 2.756875 1_655
Al6 Ni5 2.433880 1_655
Al6 Ni2 2.449166 1_545
Al7 Ni6 2.442782 1_655
Al7 Ni3 2.459405 1_545
Al8 Ni7 2.438021 1_655
Al8 Ni4 2.458163 1_545
Al9 Ni5 2.444701 1_555
Al9 Ni2 2.446291 1_455
Al10 Ni3 2.434436 1_455
Al10 Ni6 2.471215 1_555
Al10 Al46 2.709580 1_555
Al10 Al52 2.729703 1_465
Al10 Al49 2.748317 1_555
Al10 Al22 2.762954 1_565
Al10 Al31 2.815482 1_555
Al10 Al27 2.885035 1_555
Al10 Al39 2.893035 1_455
Al10 Al43 3.051384 1_455
Al11 Ni4 2.439847 1_455
Al11 Ni7 2.462449 1_555
Al11 Al53 2.706907 1_465
Al11 Al47 2.719303 1_555
Al11 Al50 2.748039 1_555
Al11 Al23 2.752409 1_565
Al11 Al32 2.791243 1_555
Al11 Al40 2.889931 1_455
Al11 Al28 2.913329 1_555
Al11 Al44 3.044359 1_455
Al12 Fe0 2.416914 1_555
Al12 Fe3 2.463862 1_555
Al12 Al30 2.673475 1_555
Al12 Al46 2.750947 1_555
Al12 Al34 2.806846 1_555
Al12 Al24 2.807114 1_555
Al12 Al39 2.862768 1_555
Al12 Al27 2.906179 1_555
Al12 Al36 3.010875 1_555
Al13 Fe1 2.408448 1_555
Al13 Ni0 2.500587 1_555
Al13 Al31 2.712285 1_555
Al13 Al47 2.742358 1_555
Al13 Al35 2.827303 1_555
Al13 Al25 2.876416 1_555
Al13 Al28 2.878143 1_555
Al13 Al40 2.907876 1_555
Al13 Al37 3.021263 1_555
Al14 Fe2 2.407193 1_555
Al14 Ni1 2.497262 1_555
Al14 Al32 2.709947 1_555
Al14 Al45 2.736865 1_556
Al14 Al2 2.781560 1_555
Al14 Al33 2.832791 1_556
Al14 Al26 2.874704 1_555
Al14 Al29 2.881872 1_555
Al14 Al41 2.912571 1_555
Al14 Al38 3.027193 1_555
Al15 Fe3 2.418854 1_555
Al15 Fe0 2.463660 1_565
Al15 Al34 2.672591 1_565
Al15 Al42 2.749291 1_555
Al15 Al30 2.803728 1_555
Al15 Al27 2.806610 1_555
Al15 Al36 2.863150 1_565
Al15 Al3 2.863160 1_565
Al15 Al24 2.908318 1_565
Al15 Al39 3.019983 1_555
Al16 Fe1 2.441746 1_565
Al16 Ni0 2.455535 1_555
Al16 Al35 2.675154 1_565
Al16 Al4 2.783463 1_565
Al16 Al43 2.789352 1_555
Al16 Al28 2.833256 1_555
Al16 Al37 2.848020 1_565
Al16 Al25 2.849814 1_565
Al16 Al31 2.850036 1_555
Al16 Al40 3.129633 1_555
Al17 Fe2 2.439427 1_565
Al17 Ni1 2.452324 1_555
Al17 Al33 2.669545 1_566
Al17 Al5 2.785390 1_565
Al17 Al44 2.785750 1_555
Al17 Al29 2.837866 1_555
Al17 Al26 2.841389 1_565
Al17 Al32 2.847300 1_555
Al17 Al38 2.851690 1_565
Al17 Al41 3.130122 1_555
Al18 Ni2 2.432178 1_555
Al18 Ni5 2.474381 1_555
Al18 Al24 2.707607 1_555
Al18 Al6 2.771693 1_555
Al18 Al41 2.774243 1_554
Al18 Al30 2.862606 1_555
Al18 Al33 2.875612 1_555
Al18 Al29 2.882442 1_554
Al18 Al45 2.893165 1_555
Al18 Al42 3.105285 1_555
Al19 Ni3 2.425259 1_555
Al19 Ni6 2.470376 1_555
Al19 Al25 2.723485 1_555
Al19 Al7 2.767180 1_555
Al19 Al39 2.786239 1_555
Al19 Al46 2.857525 1_555
Al19 Al27 2.864818 1_555
Al19 Al34 2.869261 1_555
Al19 Al31 2.871393 1_555
Al19 Al43 3.124551 1_555
Al20 Ni4 2.435766 1_555
Al20 Ni7 2.465578 1_555
Al20 Al26 2.717170 1_555
Al20 Al8 2.763937 1_555
Al20 Al40 2.770825 1_555
Al20 Al35 2.858249 1_555
Al20 Al32 2.863206 1_555
Al20 Al28 2.872067 1_555
Al20 Al47 2.880651 1_555
Al20 Al44 3.116682 1_555
Al21 Ni5 2.428235 1_555
Al21 Ni2 2.480492 1_545
Al21 Al29 2.723728 1_544
Al21 Al9 2.759298 1_545
Al21 Al36 2.795588 1_555
Al21 Al42 2.859051 1_545
Al21 Al24 2.862877 1_555
Al21 Al33 2.878489 1_555
Al21 Al30 2.880785 1_545
Al21 Al45 3.121421 1_555
Al22 Ni6 2.429067 1_555
Al22 Ni3 2.478945 1_545
Al22 Al27 2.707088 1_545
Al22 Al37 2.805286 1_555
Al22 Al31 2.827010 1_545
Al22 Al25 2.867299 1_555
Al22 Al34 2.883703 1_555
Al22 Al43 2.884464 1_545
Al22 Al46 3.128928 1_555
Al23 Ni7 2.435002 1_555
Al23 Ni4 2.478604 1_545
Al23 Al28 2.712091 1_545
Al23 Al38 2.807976 1_555
Al23 Al32 2.822031 1_545
Al23 Al26 2.862512 1_555
Al23 Al44 2.872810 1_545
Al23 Al35 2.893265 1_555
Al23 Al47 3.139804 1_555
Al24 Fe3 2.448894 1_555
Al24 Ni5 2.550593 1_555
Al24 Al48 2.705395 1_655
Al24 Al3 2.757995 1_555
Al24 Al30 2.766610 1_555
Al24 Al36 2.793352 1_555
Al24 Al42 2.842624 1_545
Al24 Al6 2.873957 1_555
Al25 Ni0 2.492521 1_555
Al25 Ni6 2.502765 1_555
Al25 Al49 2.709983 1_655
Al25 Al4 2.776019 1_555
Al25 Al37 2.806072 1_555
Al25 Al31 2.806436 1_555
Al25 Al43 2.831709 1_545
Al25 Al7 2.875286 1_555
Al26 Ni1 2.488983 1_555
Al26 Ni7 2.511897 1_555
Al26 Al50 2.716190 1_655
Al26 Al5 2.777139 1_555
Al26 Al38 2.807438 1_555
Al26 Al32 2.810499 1_555
Al26 Al44 2.832747 1_545
Al26 Al8 2.878545 1_555
Al27 Fe0 2.443771 1_565
Al27 Ni3 2.548716 1_555
Al27 Al52 2.719186 1_465
Al27 Al34 2.760781 1_565
Al27 Al39 2.792471 1_555
Al27 Al46 2.846241 1_555
Al28 Fe1 2.454657 1_565
Al28 Ni4 2.530292 1_555
Al28 Al53 2.705380 1_465
Al28 Al35 2.768306 1_565
Al28 Al40 2.785374 1_555
Al28 Al47 2.876528 1_555
Al29 Fe2 2.457547 1_565
Al29 Ni2 2.527982 1_556
Al29 Al51 2.690672 1_566
Al29 Al33 2.764719 1_566
Al29 Al41 2.785379 1_555
Al29 Al45 2.877641 1_556
Al29 Al9 2.895665 1_556
Al30 Fe3 2.465922 1_555
Al30 Ni5 2.506381 1_555
Al30 Al48 2.681333 1_555
Al30 Al42 2.732707 1_555
Al30 Al9 2.816643 1_555
Al30 Al36 2.905042 1_565
Al31 Ni6 2.486422 1_555
Al31 Ni0 2.499343 1_555
Al31 Al49 2.679202 1_555
Al31 Al43 2.777364 1_555
Al31 Al37 2.899304 1_565
Al32 Ni7 2.493873 1_555
Al32 Ni1 2.495028 1_555
Al32 Al50 2.674006 1_555
Al32 Al44 2.781215 1_555
Al32 Al38 2.895147 1_565
Al33 Fe2 2.476785 1_554
Al33 Ni2 2.512835 1_545
Al33 Al51 2.722557 1_655
Al33 Al45 2.738235 1_555
Al33 Al6 2.830646 1_555
Al33 Al41 2.860546 1_554
Al33 Al5 2.937093 1_554
Al34 Fe0 2.459250 1_555
Al34 Ni3 2.498399 1_545
Al34 Al52 2.677101 1_555
Al34 Al46 2.722407 1_555
Al34 Al7 2.825703 1_555
Al34 Al39 2.910455 1_555
Al35 Fe1 2.469593 1_555
Al35 Ni4 2.512845 1_545
Al35 Al53 2.720271 1_555
Al35 Al47 2.730262 1_555
Al35 Al8 2.818952 1_555
Al35 Al40 2.859020 1_555
Al35 Al4 2.947728 1_555
Al36 Fe0 2.434409 1_555
Al36 Ni5 2.510275 1_555
Al36 Al48 2.783980 1_555
Al36 Al6 2.913999 1_455
Al36 Al42 3.026158 1_445
Al37 Fe1 2.433234 1_555
Al37 Ni6 2.495866 1_555
Al37 Al49 2.760180 1_555
Al37 Al7 2.915359 1_455
Al37 Al4 2.934239 1_455
Al37 Al43 2.978207 1_445
Al38 Fe2 2.427754 1_555
Al38 Ni7 2.500875 1_555
Al38 Al50 2.757074 1_555
Al38 Al8 2.909819 1_455
Al38 Al5 2.935001 1_455
Al38 Al44 2.969543 1_445
Al39 Fe3 2.423703 1_555
Al39 Ni3 2.510824 1_555
Al39 Al52 2.774829 1_565
Al39 Al46 3.033487 1_655
Al40 Ni0 2.457719 1_555
Al40 Ni4 2.498590 1_555
Al40 Al53 2.779764 1_565
Al40 Al47 2.990830 1_655
Al41 Ni1 2.461200 1_555
Al41 Ni2 2.489268 1_556
Al41 Al5 2.745272 1_555
Al41 Al51 2.787824 1_666
Al41 Al9 2.909950 1_656
Al41 Al45 2.994429 1_656
Al42 Fe3 2.460728 1_555
Al42 Ni2 2.496859 1_555
Al42 Al6 2.725457 1_565
Al42 Al48 2.738429 1_655
Al42 Al9 3.082585 1_655
Al43 Ni3 2.459564 1_555
Al43 Ni0 2.494800 1_555
Al43 Al7 2.721981 1_565
Al43 Al49 2.744276 1_655
Al44 Ni4 2.470893 1_555
Al44 Ni1 2.494313 1_555
Al44 Al8 2.722593 1_565
Al44 Al50 2.744924 1_655
Al45 Fe2 2.462398 1_554
Al45 Ni5 2.478665 1_555
Al45 Al51 2.729023 1_555
Al45 Al9 2.734829 1_555
Al45 Al5 2.872679 1_454
Al45 Al6 3.067202 1_455
Al46 Fe0 2.451992 1_555
Al46 Ni6 2.500969 1_555
Al46 Al52 2.743000 1_455
Al46 Al7 3.054739 1_455
Al47 Fe1 2.457472 1_555
Al47 Ni7 2.491000 1_555
Al47 Al53 2.738091 1_455
Al47 Al8 3.040732 1_455
Al48 Fe3 2.353131 1_455
Al48 Ni5 2.399744 1_555
Al48 Al6 2.711292 1_455
Al48 Al9 2.756689 1_555
Al49 Ni0 2.387969 1_455
Al49 Ni6 2.394846 1_555
Al49 Al7 2.686158 1_455
Al50 Ni1 2.389061 1_455
Al50 Ni7 2.401844 1_555
Al50 Al8 2.693132 1_455
Al51 Fe2 2.362662 1_554
Al51 Ni2 2.387502 1_445
Al51 Al9 2.687575 1_545
Al51 Al6 2.766167 1_455
Al52 Fe0 2.348371 1_655
Al52 Ni3 2.397356 1_545
Al52 Al7 2.756610 1_555
Al53 Fe1 2.359667 1_655
Al53 Ni4 2.387248 1_545
Al53 Al8 2.767618 1_555
