# generated using pymatgen
data_Cs4In2S5
_symmetry_space_group_name_H-M   'P 1'
_cell_length_a   7.90608389
_cell_length_b   9.82459421
_cell_length_c   11.24539439
_cell_angle_alpha   72.98853335
_cell_angle_beta   70.01179084
_cell_angle_gamma   84.03900722
_symmetry_Int_Tables_number   1
_chemical_formula_structural   Cs4In2S5
_chemical_formula_sum   'Cs8 In4 S10'
_cell_volume   784.93703946
_cell_formula_units_Z   2
loop_
 _symmetry_equiv_pos_site_id
 _symmetry_equiv_pos_as_xyz
  1  'x, y, z'
loop_
 _atom_site_type_symbol
 _atom_site_label
 _atom_site_symmetry_multiplicity
 _atom_site_fract_x
 _atom_site_fract_y
 _atom_site_fract_z
 _atom_site_occupancy
  Cs  Cs0  1  0.50523518  0.78826420  0.91276271  1
  Cs  Cs1  1  0.49476482  0.21173580  0.08723729  1
  Cs  Cs2  1  0.54475174  0.18686939  0.54468034  1
  Cs  Cs3  1  0.45524826  0.81313061  0.45531966  1
  Cs  Cs4  1  0.12015738  0.17923200  0.90395211  1
  Cs  Cs5  1  0.87984262  0.82076800  0.09604789  1
  Cs  Cs6  1  0.76774903  0.47364036  0.65913551  1
  Cs  Cs7  1  0.23225097  0.52635964  0.34086449  1
  In  In0  1  0.03254226  0.00635083  0.34123654  1
  In  In1  1  0.96745774  0.99364917  0.65876346  1
  In  In2  1  0.88101825  0.41157704  0.16594087  1
  In  In3  1  0.11898175  0.58842296  0.83405913  1
  S  S0  1  0.83679315  0.85230215  0.55760775  1
  S  S1  1  0.16320685  0.14769785  0.44239225  1
  S  S2  1  0.82181217  0.14834841  0.22858888  1
  S  S3  1  0.17818783  0.85165159  0.77141112  1
  S  S4  1  0.20243640  0.48810185  0.04204448  1
  S  S5  1  0.79756360  0.51189815  0.95795552  1
  S  S6  1  0.72534156  0.51646809  0.34160907  1
  S  S7  1  0.27465844  0.48353191  0.65839093  1
  S  S8  1  0.25201502  0.89578739  0.18797777  1
  S  S9  1  0.74798498  0.10421261  0.81202223  1
loop_
_geom_bond_atom_site_label_1
_geom_bond_atom_site_label_2
_geom_bond_distance
_geom_bond_site_symmetry_2
Cs0 S3 3.390626 1_555
Cs0 S5 3.415292 1_555
Cs0 S8 3.455449 1_556
Cs0 S9 3.506465 1_565
Cs0 S4 3.622070 1_556
Cs0 S0 3.864330 1_555
Cs1 S2 3.390626 1_555
Cs1 S4 3.415292 1_555
Cs1 S9 3.455449 1_554
Cs1 S8 3.506465 1_545
Cs1 S5 3.622070 1_554
Cs1 S1 3.864330 1_555
Cs2 S6 3.484762 1_555
Cs2 S2 3.587236 1_555
Cs2 S1 3.666463 1_555
Cs2 S7 3.702849 1_555
Cs2 S9 3.725900 1_555
Cs2 S0 3.811824 1_545
Cs3 S7 3.484762 1_555
Cs3 S3 3.587236 1_555
Cs3 S0 3.666463 1_555
Cs3 S6 3.702849 1_555
Cs3 S8 3.725900 1_555
Cs3 S1 3.811824 1_565
Cs4 S7 3.417205 1_555
Cs4 S2 3.549182 1_456
Cs4 S9 3.639457 1_455
Cs4 S3 3.849979 1_545
Cs4 S8 3.938530 1_546
Cs4 S4 3.987592 1_556
Cs4 S5 3.990814 1_455
Cs5 S6 3.417205 1_555
Cs5 S3 3.549182 1_654
Cs5 S8 3.639457 1_655
Cs5 S2 3.849979 1_565
Cs5 S9 3.938530 1_564
Cs5 S5 3.987592 1_554
Cs5 S4 3.990814 1_655
Cs6 S9 3.526518 1_555
Cs6 S5 3.575995 1_555
Cs6 S6 3.598537 1_555
Cs6 S0 3.598863 1_555
Cs6 S7 3.892340 1_555
Cs6 S7 4.016017 1_655
Cs7 S8 3.526518 1_555
Cs7 S4 3.575995 1_555
Cs7 S7 3.598537 1_555
Cs7 S1 3.598863 1_555
Cs7 S6 3.892340 1_555
Cs7 S6 4.016017 1_455
In0 S8 2.412572 1_545
In0 S2 2.500536 1_455
In0 S1 2.513015 1_555
In0 S0 2.522580 1_445
In1 S9 2.412572 1_565
In1 S3 2.500536 1_655
In1 S0 2.513015 1_555
In1 S1 2.522580 1_665
In2 S6 2.396819 1_555
In2 S4 2.515420 1_655
In2 S2 2.522567 1_555
In2 S5 2.539331 1_554
In3 S7 2.396819 1_555
In3 S5 2.515420 1_455
In3 S3 2.522567 1_555
In3 S4 2.539331 1_556
