# generated using pymatgen
data_KAl3(SO7)2
_symmetry_space_group_name_H-M   'P 1'
_cell_length_a   7.42251871
_cell_length_b   7.42251871
_cell_length_c   7.42251817
_cell_angle_alpha   56.28562522
_cell_angle_beta   56.28562522
_cell_angle_gamma   56.28562468
_symmetry_Int_Tables_number   1
_chemical_formula_structural   KAl3(SO7)2
_chemical_formula_sum   'K1 Al3 S2 O14'
_cell_volume   264.31035810
_cell_formula_units_Z   1
loop_
 _symmetry_equiv_pos_site_id
 _symmetry_equiv_pos_as_xyz
  1  'x, y, z'
loop_
 _atom_site_type_symbol
 _atom_site_label
 _atom_site_symmetry_multiplicity
 _atom_site_fract_x
 _atom_site_fract_y
 _atom_site_fract_z
 _atom_site_occupancy
  K  K0  1  0.00000000  0.00000000  0.00000000  1
  Al  Al0  1  0.00000000  0.00000000  0.50000000  1
  Al  Al1  1  0.50000000  0.00000000  0.00000000  1
  Al  Al2  1  0.00000000  0.50000000  0.00000000  1
  S  S0  1  0.70102400  0.70102400  0.70102400  1
  S  S1  1  0.29897600  0.29897600  0.29897600  1
  O  O0  1  0.62425200  0.62425200  0.62425200  1
  O  O1  1  0.37574800  0.37574800  0.37574800  1
  O  O2  1  0.84664500  0.84664500  0.49864900  1
  O  O3  1  0.49864900  0.84664500  0.84664500  1
  O  O4  1  0.84664500  0.49864900  0.84664500  1
  O  O5  1  0.15335500  0.15335500  0.50135100  1
  O  O6  1  0.50135100  0.15335500  0.15335500  1
  O  O7  1  0.15335500  0.50135100  0.15335500  1
  O  O8  1  0.74447000  0.74447000  0.08626100  1
  O  O9  1  0.08626100  0.74447000  0.74447000  1
  O  O10  1  0.74447000  0.08626100  0.74447000  1
  O  O11  1  0.25553000  0.25553000  0.91373900  1
  O  O12  1  0.91373900  0.25553000  0.25553000  1
  O  O13  1  0.25553000  0.91373900  0.25553000  1
loop_
_geom_bond_atom_site_label_1
_geom_bond_atom_site_label_2
_geom_bond_distance
_geom_bond_site_symmetry_2
K0 O5 2.893956 1_554
K0 O2 2.893956 1_445
K0 O4 2.893956 1_454
K0 O3 2.893956 1_544
K0 O6 2.893956 1_455
K0 O7 2.893956 1_545
K0 O12 2.983618 1_455
K0 O13 2.983618 1_545
K0 O9 2.983618 1_544
K0 O10 2.983618 1_454
K0 O11 2.983618 1_554
K0 O8 2.983618 1_445
Al0 O9 1.849613 1_545
Al0 O10 1.849613 1_455
Al0 O12 1.849613 1_455
Al0 O13 1.849613 1_545
Al0 O5 2.013741 1_555
Al0 O2 2.013741 1_445
Al1 O10 1.849613 1_554
Al1 O13 1.849613 1_545
Al1 O8 1.849613 1_545
Al1 O11 1.849613 1_554
Al1 O6 2.013741 1_555
Al1 O3 2.013741 1_544
Al2 O9 1.849613 1_554
Al2 O12 1.849613 1_455
Al2 O8 1.849613 1_455
Al2 O11 1.849613 1_554
Al2 O7 2.013741 1_555
Al2 O4 2.013741 1_454
O0 S0 1.433729 1_555
O1 S1 1.433729 1_555
O2 S0 1.511666 1_555
O3 S0 1.511666 1_555
O4 S0 1.511666 1_555
O5 S1 1.511666 1_555
O6 S1 1.511666 1_555
O7 S1 1.511666 1_555
