# generated using pymatgen
data_Na2InBi
_symmetry_space_group_name_H-M   'P 1'
_cell_length_a   12.81249513
_cell_length_b   12.87876193
_cell_length_c   12.87876187
_cell_angle_alpha   60.19178230
_cell_angle_beta   60.17006233
_cell_angle_gamma   60.17005926
_symmetry_Int_Tables_number   1
_chemical_formula_structural   Na2InBi
_chemical_formula_sum   'Na2 In1 Bi1'
_cell_volume   1508.71515742
_cell_formula_units_Z   1
loop_
 _symmetry_equiv_pos_site_id
 _symmetry_equiv_pos_as_xyz
  1  'x, y, z'
loop_
 _atom_site_type_symbol
 _atom_site_label
 _atom_site_symmetry_multiplicity
 _atom_site_fract_x
 _atom_site_fract_y
 _atom_site_fract_z
 _atom_site_occupancy
  Na  Na0  1  0.74797696  1.00000000  1.00000000  1
  Na  Na1  1  0.25202304  0.00000000  0.00000000  1
  In  In0  1  0.00000000  0.00000000  0.00000000  1
  Bi  Bi0  1  0.50000000  0.00000000  0.00000000  1
loop_
_geom_bond_atom_site_label_1
_geom_bond_atom_site_label_2
_geom_bond_distance
_geom_bond_site_symmetry_2
In0 Na0 3.229044 1_444
In0 Na1 3.229044 1_555
Bi0 Na1 3.177204 1_555
Bi0 Na0 3.177204 1_544
