# generated using pymatgen
data_Y3Mg2TiS8
_symmetry_space_group_name_H-M   'P 1'
_cell_length_a   7.81711670
_cell_length_b   7.70755540
_cell_length_c   7.81882900
_cell_angle_alpha   59.52263976
_cell_angle_beta   59.99329991
_cell_angle_gamma   59.53414078
_symmetry_Int_Tables_number   1
_chemical_formula_structural   Y3Mg2TiS8
_chemical_formula_sum   'Y3 Mg2 Ti1 S8'
_cell_volume   330.70092050
_cell_formula_units_Z   1
loop_
 _symmetry_equiv_pos_site_id
 _symmetry_equiv_pos_as_xyz
  1  'x, y, z'
loop_
 _atom_site_type_symbol
 _atom_site_label
 _atom_site_symmetry_multiplicity
 _atom_site_fract_x
 _atom_site_fract_y
 _atom_site_fract_z
 _atom_site_occupancy
  Y  Y0  1  0.50000300  0.50001500  0.49998000  1
  Y  Y1  1  0.49999900  0.49999100  0.00000000  1
  Y  Y2  1  0.00000000  0.49999200  0.50001000  1
  Mg  Mg0  1  0.87538200  0.87378300  0.87543100  1
  Mg  Mg1  1  0.12462200  0.12622100  0.12457000  1
  Ti  Ti0  1  0.49999800  0.00000100  0.50000900  1
  S  S0  1  0.73320900  0.76567300  0.73318500  1
  S  S1  1  0.26679100  0.23435800  0.73207200  1
  S  S2  1  0.25431100  0.73712800  0.25425400  1
  S  S3  1  0.73206000  0.23432400  0.26681700  1
  S  S4  1  0.74567700  0.26287100  0.74573100  1
  S  S5  1  0.26793800  0.76567400  0.73318200  1
  S  S6  1  0.26678500  0.23431700  0.26683400  1
  S  S7  1  0.73323000  0.76564800  0.26792600  1
loop_
_geom_bond_atom_site_label_1
_geom_bond_atom_site_label_2
_geom_bond_distance
_geom_bond_site_symmetry_2
Mg0 S4 2.431049 1_565
Mg0 S7 2.506200 1_556
Mg0 S5 2.506290 1_655
Mg0 S0 2.506390 1_555
Mg1 S2 2.431080 1_545
Mg1 S1 2.506219 1_554
Mg1 S3 2.506332 1_455
Mg1 S6 2.506358 1_555
S0 Ti0 2.560213 1_565
S0 Y1 2.741723 1_556
S0 Y2 2.742274 1_655
S1 Ti0 2.560361 1_555
S1 Y0 2.741578 1_555
S1 Y2 2.742282 1_555
S2 Y2 2.699291 1_555
S2 Y1 2.699747 1_555
S2 Y0 2.699940 1_555
S3 Ti0 2.559445 1_555
S3 Y0 2.742289 1_555
S3 Y1 2.742456 1_555
S4 Y2 2.699280 1_655
S4 Y1 2.699742 1_556
S4 Y0 2.699969 1_555
S5 Ti0 2.559455 1_565
S5 Y0 2.742319 1_555
S5 Y1 2.742464 1_556
S6 Ti0 2.560220 1_555
S6 Y1 2.741708 1_555
S6 Y2 2.742245 1_555
S7 Ti0 2.560450 1_565
S7 Y0 2.741538 1_555
S7 Y2 2.742284 1_655
