# generated using pymatgen
data_Mg14NiCO16
_symmetry_space_group_name_H-M   'P 1'
_cell_length_a   8.49854000
_cell_length_b   8.49854000
_cell_length_c   4.23378802
_cell_angle_alpha   90.00000000
_cell_angle_beta   90.00000000
_cell_angle_gamma   90.00000000
_symmetry_Int_Tables_number   1
_chemical_formula_structural   Mg14NiCO16
_chemical_formula_sum   'Mg14 Ni1 C1 O16'
_cell_volume   305.78611085
_cell_formula_units_Z   1
loop_
 _symmetry_equiv_pos_site_id
 _symmetry_equiv_pos_as_xyz
  1  'x, y, z'
loop_
 _atom_site_type_symbol
 _atom_site_label
 _atom_site_symmetry_multiplicity
 _atom_site_fract_x
 _atom_site_fract_y
 _atom_site_fract_z
 _atom_site_occupancy
  Mg  Mg0  1  0.00000000  0.50000000  0.00000000  1
  Mg  Mg1  1  0.50000000  0.00000000  0.00000000  1
  Mg  Mg2  1  0.00000000  0.24914358  0.50000000  1
  Mg  Mg3  1  0.00000000  0.75085642  0.50000000  1
  Mg  Mg4  1  0.50000000  0.25283133  0.50000000  1
  Mg  Mg5  1  0.50000000  0.74716867  0.50000000  1
  Mg  Mg6  1  0.24914358  0.00000000  0.50000000  1
  Mg  Mg7  1  0.25283133  0.50000000  0.50000000  1
  Mg  Mg8  1  0.75085642  0.00000000  0.50000000  1
  Mg  Mg9  1  0.74716867  0.50000000  0.50000000  1
  Mg  Mg10  1  0.25125145  0.25125145  0.00000000  1
  Mg  Mg11  1  0.25125145  0.74874855  0.00000000  1
  Mg  Mg12  1  0.74874855  0.25125145  0.00000000  1
  Mg  Mg13  1  0.74874855  0.74874855  0.00000000  1
  Ni  Ni0  1  0.00000000  0.00000000  0.00000000  1
  C  C0  1  0.50000000  0.50000000  0.00000000  1
  O  O0  1  0.25112361  0.00000000  0.00000000  1
  O  O1  1  0.24862715  0.50000000  0.00000000  1
  O  O2  1  0.74887639  0.00000000  0.00000000  1
  O  O3  1  0.75137285  0.50000000  0.00000000  1
  O  O4  1  0.25028572  0.25028572  0.50000000  1
  O  O5  1  0.25028572  0.74971428  0.50000000  1
  O  O6  1  0.74971428  0.25028572  0.50000000  1
  O  O7  1  0.74971428  0.74971428  0.50000000  1
  O  O8  1  0.00000000  0.00000000  0.50000000  1
  O  O9  1  0.00000000  0.50000000  0.50000000  1
  O  O10  1  0.50000000  0.00000000  0.50000000  1
  O  O11  1  0.50000000  0.50000000  0.50000000  1
  O  O12  1  0.00000000  0.25112361  0.00000000  1
  O  O13  1  0.00000000  0.74887639  0.00000000  1
  O  O14  1  0.50000000  0.24862715  0.00000000  1
  O  O15  1  0.50000000  0.75137285  0.00000000  1
loop_
_geom_bond_atom_site_label_1
_geom_bond_atom_site_label_2
_geom_bond_distance
_geom_bond_site_symmetry_2
Mg0 O3 2.112968 1_455
Mg0 O1 2.112968 1_555
Mg0 O12 2.115086 1_555
Mg0 O13 2.115086 1_555
Mg0 O9 2.116894 1_554
Mg0 O9 2.116894 1_555
Mg1 O14 2.112968 1_555
Mg1 O15 2.112968 1_545
Mg1 O0 2.115086 1_555
Mg1 O2 2.115086 1_555
Mg1 O10 2.116894 1_555
Mg1 O10 2.116894 1_554
Mg2 O12 2.116961 1_556
Mg2 O12 2.116961 1_555
Mg2 O8 2.117357 1_555
Mg2 O6 2.127085 1_455
Mg2 O4 2.127085 1_555
Mg2 O9 2.131913 1_555
Mg3 O13 2.116961 1_555
Mg3 O13 2.116961 1_556
Mg3 O8 2.117357 1_565
Mg3 O7 2.127085 1_455
Mg3 O5 2.127085 1_555
Mg3 O9 2.131913 1_555
Mg4 O11 2.100573 1_555
Mg4 O14 2.117196 1_556
Mg4 O14 2.117196 1_555
Mg4 O4 2.122317 1_555
Mg4 O6 2.122317 1_555
Mg4 O10 2.148697 1_555
Mg5 O11 2.100573 1_555
Mg5 O15 2.117196 1_556
Mg5 O15 2.117196 1_555
Mg5 O5 2.122317 1_555
Mg5 O7 2.122317 1_555
Mg5 O10 2.148697 1_565
Mg6 O0 2.116961 1_556
Mg6 O0 2.116961 1_555
Mg6 O8 2.117357 1_555
Mg6 O5 2.127085 1_545
Mg6 O4 2.127085 1_555
Mg6 O10 2.131913 1_555
Mg7 O11 2.100573 1_555
Mg7 O1 2.117196 1_556
Mg7 O1 2.117196 1_555
Mg7 O4 2.122317 1_555
Mg7 O5 2.122317 1_555
Mg7 O9 2.148697 1_555
Mg8 O2 2.116961 1_555
Mg8 O2 2.116961 1_556
Mg8 O8 2.117357 1_655
Mg8 O7 2.127085 1_545
Mg8 O6 2.127085 1_555
Mg8 O10 2.131913 1_555
Mg9 O11 2.100573 1_555
Mg9 O3 2.117196 1_555
Mg9 O3 2.117196 1_556
Mg9 O6 2.122317 1_555
Mg9 O7 2.122317 1_555
Mg9 O9 2.148697 1_655
Mg10 O14 2.114117 1_555
Mg10 O1 2.114117 1_555
Mg10 O4 2.116926 1_554
Mg10 O4 2.116926 1_555
Mg10 O12 2.135271 1_555
Mg10 O0 2.135271 1_555
Mg11 O15 2.114117 1_555
Mg11 O1 2.114117 1_555
Mg11 O5 2.116926 1_555
Mg11 O5 2.116926 1_554
Mg11 O0 2.135271 1_565
Mg11 O13 2.135271 1_555
Mg12 O3 2.114117 1_555
Mg12 O14 2.114117 1_555
Mg12 O6 2.116926 1_555
Mg12 O6 2.116926 1_554
Mg12 O12 2.135271 1_655
Mg12 O2 2.135271 1_555
Mg13 O15 2.114117 1_555
Mg13 O3 2.114117 1_555
Mg13 O7 2.116926 1_555
Mg13 O7 2.116926 1_554
Mg13 O13 2.135271 1_655
Mg13 O2 2.135271 1_565
Ni0 O8 2.116894 1_555
Ni0 O8 2.116894 1_554
Ni0 O13 2.134184 1_545
Ni0 O2 2.134184 1_455
Ni0 O0 2.134184 1_555
Ni0 O12 2.134184 1_555
C0 O11 2.116894 1_555
C0 O11 2.116894 1_554
C0 O1 2.136302 1_555
C0 O15 2.136302 1_555
C0 O14 2.136302 1_555
C0 O3 2.136302 1_555
