# generated using pymatgen
data_ScAlAu2
_symmetry_space_group_name_H-M   'P 1'
_cell_length_a   4.63159845
_cell_length_b   4.63159880
_cell_length_c   4.63159771
_cell_angle_alpha   60.00000055
_cell_angle_beta   59.99999807
_cell_angle_gamma   60.00000119
_symmetry_Int_Tables_number   1
_chemical_formula_structural   ScAlAu2
_chemical_formula_sum   'Sc1 Al1 Au2'
_cell_volume   70.25506897
_cell_formula_units_Z   1
loop_
 _symmetry_equiv_pos_site_id
 _symmetry_equiv_pos_as_xyz
  1  'x, y, z'
loop_
 _atom_site_type_symbol
 _atom_site_label
 _atom_site_symmetry_multiplicity
 _atom_site_fract_x
 _atom_site_fract_y
 _atom_site_fract_z
 _atom_site_occupancy
  Sc  Sc0  1  0.50000000  0.50000000  0.50000000  1
  Al  Al0  1  0.00000000  -0.00000000  0.00000000  1
  Au  Au0  1  0.25000000  0.25000000  0.25000000  1
  Au  Au1  1  0.75000000  0.75000000  0.75000000  1
loop_
_geom_bond_atom_site_label_1
_geom_bond_atom_site_label_2
_geom_bond_distance
_geom_bond_site_symmetry_2
Al0 Au1 2.836263 1_445
Al0 Au0 2.836263 1_554
Al0 Au0 2.836263 1_555
Al0 Au1 2.836263 1_444
Al0 Au0 2.836263 1_455
Al0 Au1 2.836263 1_544
Al0 Au0 2.836263 1_545
Al0 Au1 2.836263 1_454
Au0 Sc0 2.836263 1_554
Au0 Sc0 2.836263 1_555
Au0 Sc0 2.836263 1_455
Au0 Sc0 2.836263 1_545
Au1 Sc0 2.836263 1_556
Au1 Sc0 2.836263 1_555
Au1 Sc0 2.836263 1_655
Au1 Sc0 2.836263 1_565
