# generated using pymatgen
data_CrCuAsPb2O9
_symmetry_space_group_name_H-M   'P 1'
_cell_length_a   5.96731500
_cell_length_b   8.48548349
_cell_length_c   16.38445649
_cell_angle_alpha   99.45805673
_cell_angle_beta   90.00000000
_cell_angle_gamma   90.00000000
_symmetry_Int_Tables_number   1
_chemical_formula_structural   CrCuAsPb2O9
_chemical_formula_sum   'Cr4 Cu4 As4 Pb8 O36'
_cell_volume   818.35807419
_cell_formula_units_Z   4
loop_
 _symmetry_equiv_pos_site_id
 _symmetry_equiv_pos_as_xyz
  1  'x, y, z'
loop_
 _atom_site_type_symbol
 _atom_site_label
 _atom_site_symmetry_multiplicity
 _atom_site_fract_x
 _atom_site_fract_y
 _atom_site_fract_z
 _atom_site_occupancy
  Cr  Cr0  1  0.25705100  0.89221900  0.84305000  1
  Cr  Cr1  1  0.74294900  0.10778100  0.15695000  1
  Cr  Cr2  1  0.75705100  0.60778100  0.65695000  1
  Cr  Cr3  1  0.24294900  0.39221900  0.34305000  1
  Cu  Cu0  1  0.00824000  0.26413200  0.74908100  1
  Cu  Cu1  1  0.99176000  0.73586800  0.25091900  1
  Cu  Cu2  1  0.50824000  0.23586800  0.75091900  1
  Cu  Cu3  1  0.49176000  0.76413200  0.24908100  1
  As  As0  1  0.25671000  0.40640000  0.91567100  1
  As  As1  1  0.74329000  0.59360000  0.08432900  1
  As  As2  1  0.75671000  0.09360000  0.58432900  1
  As  As3  1  0.24329000  0.90640000  0.41567100  1
  Pb  Pb0  1  0.21207700  0.82912800  0.62853400  1
  Pb  Pb1  1  0.78792300  0.17087200  0.37146600  1
  Pb  Pb2  1  0.71207700  0.67087200  0.87146600  1
  Pb  Pb3  1  0.28792300  0.32912800  0.12853400  1
  Pb  Pb4  1  0.77898100  0.15751200  0.93364800  1
  Pb  Pb5  1  0.22101900  0.84248800  0.06635200  1
  Pb  Pb6  1  0.27898100  0.34248800  0.56635200  1
  Pb  Pb7  1  0.72101900  0.65751200  0.43364800  1
  O  O0  1  0.24545600  0.03554200  0.78617500  1
  O  O1  1  0.75454400  0.96445800  0.21382500  1
  O  O2  1  0.74545600  0.46445800  0.71382500  1
  O  O3  1  0.25454400  0.53554200  0.28617500  1
  O  O4  1  0.51921400  0.60825400  0.60031300  1
  O  O5  1  0.48078600  0.39174600  0.39968700  1
  O  O6  1  0.01921400  0.89174600  0.89968700  1
  O  O7  1  0.98078600  0.10825400  0.10031300  1
  O  O8  1  0.48560300  0.91659200  0.90622000  1
  O  O9  1  0.51439700  0.08340800  0.09378000  1
  O  O10  1  0.98560300  0.58340800  0.59378000  1
  O  O11  1  0.01439700  0.41659200  0.40622000  1
  O  O12  1  0.50065900  0.33890600  0.86116000  1
  O  O13  1  0.49934100  0.66109400  0.13884000  1
  O  O14  1  0.00065900  0.16109400  0.63884000  1
  O  O15  1  0.99934100  0.83890600  0.36116000  1
  O  O16  1  0.32110700  0.59853400  0.95500000  1
  O  O17  1  0.67889300  0.40146600  0.04500000  1
  O  O18  1  0.82110700  0.90146600  0.54500000  1
  O  O19  1  0.17889300  0.09853400  0.45500000  1
  O  O20  1  0.27115200  0.35336800  0.72030500  1
  O  O21  1  0.72884800  0.64663200  0.27969500  1
  O  O22  1  0.77115200  0.14663200  0.77969500  1
  O  O23  1  0.22884800  0.85336800  0.22030500  1
  O  O24  1  0.78553900  0.77810200  0.72042700  1
  O  O25  1  0.21446100  0.22189800  0.27957300  1
  O  O26  1  0.28553900  0.72189800  0.77957300  1
  O  O27  1  0.71446100  0.27810200  0.22042700  1
  O  O28  1  0.19487800  0.28080000  0.98450800  1
  O  O29  1  0.80512200  0.71920000  0.01549200  1
  O  O30  1  0.69487800  0.21920000  0.51549200  1
  O  O31  1  0.30512200  0.78080000  0.48450800  1
  O  O32  1  0.00995200  0.38744200  0.85621700  1
  O  O33  1  0.99004800  0.61255800  0.14378300  1
  O  O34  1  0.50995200  0.11255800  0.64378300  1
  O  O35  1  0.49004800  0.88744200  0.35621700  1
loop_
_geom_bond_atom_site_label_1
_geom_bond_atom_site_label_2
_geom_bond_distance
_geom_bond_site_symmetry_2
Cr0 O26 1.644791 1_555
Cr0 O0 1.650660 1_565
Cr0 O6 1.696062 1_555
Cr0 O8 1.704032 1_555
Cr1 O27 1.644791 1_555
Cr1 O1 1.650660 1_545
Cr1 O7 1.696062 1_555
Cr1 O9 1.704032 1_555
Cr2 O24 1.644791 1_555
Cr2 O2 1.650660 1_555
Cr2 O4 1.696062 1_555
Cr2 O10 1.704032 1_555
Cr3 O25 1.644791 1_555
Cr3 O3 1.650660 1_555
Cr3 O5 1.696062 1_555
Cr3 O11 1.704032 1_555
Cu0 O20 1.836946 1_555
Cu0 O22 1.847067 1_455
Cu0 O14 1.873492 1_555
Cu0 O32 1.890135 1_555
Cu0 O2 2.450492 1_455
Cu0 O0 2.554017 1_555
Cu1 O21 1.836946 1_555
Cu1 O23 1.847067 1_655
Cu1 O15 1.873492 1_555
Cu1 O33 1.890135 1_555
Cu1 O3 2.450492 1_655
Cu1 O1 2.554017 1_555
Cu2 O22 1.836946 1_555
Cu2 O20 1.847067 1_555
Cu2 O12 1.873492 1_555
Cu2 O34 1.890135 1_555
Cu2 O0 2.450492 1_555
Cu2 O2 2.554017 1_555
Cu3 O23 1.836946 1_555
Cu3 O21 1.847067 1_555
Cu3 O13 1.873492 1_555
Cu3 O35 1.890135 1_555
Cu3 O1 2.450492 1_555
Cu3 O3 2.554017 1_555
As0 O16 1.695780 1_555
As0 O28 1.714390 1_555
As0 O12 1.754054 1_555
As0 O32 1.758265 1_555
As1 O17 1.695780 1_555
As1 O29 1.714390 1_555
As1 O13 1.754054 1_555
As1 O33 1.758265 1_555
As2 O18 1.695780 1_545
As2 O30 1.714390 1_555
As2 O14 1.754054 1_655
As2 O34 1.758265 1_555
As3 O19 1.695780 1_565
As3 O31 1.714390 1_555
As3 O15 1.754054 1_455
As3 O35 1.758265 1_555
O4 Pb0 2.607833 1_555
O4 Pb6 2.652919 1_555
O5 Pb1 2.607833 1_555
O5 Pb7 2.652919 1_555
O6 Pb2 2.607833 1_455
O6 Pb4 2.652919 1_465
O7 Pb3 2.607833 1_655
O7 Pb5 2.652919 1_645
O8 Pb2 2.471413 1_555
O8 Pb4 2.672855 1_565
O9 Pb3 2.471413 1_555
O9 Pb5 2.672855 1_545
O10 Pb0 2.471413 1_655
O10 Pb6 2.672855 1_655
O11 Pb1 2.471413 1_455
O11 Pb7 2.672855 1_455
O12 Pb4 2.671879 1_555
O13 Pb5 2.671879 1_555
O14 Pb6 2.671879 1_555
O15 Pb7 2.671879 1_555
O16 Pb5 2.594082 1_556
O17 Pb4 2.594082 1_554
O18 Pb7 2.594082 1_555
O19 Pb6 2.594082 1_555
O20 Pb6 2.509354 1_555
O21 Pb7 2.509354 1_555
O22 Pb4 2.509354 1_555
O23 Pb5 2.509354 1_555
O28 Pb3 2.393117 1_556
O28 Pb4 2.767963 1_455
O29 Pb2 2.393117 1_554
O29 Pb5 2.767963 1_655
O30 Pb1 2.393117 1_555
O30 Pb6 2.767963 1_555
O31 Pb0 2.393117 1_555
O31 Pb7 2.767963 1_555
O32 Pb4 2.851195 1_455
O33 Pb5 2.851195 1_655
O34 Pb6 2.851195 1_555
O35 Pb7 2.851195 1_555
