# generated using pymatgen
data_Li9Mn2Co5O16
_symmetry_space_group_name_H-M   'P 1'
_cell_length_a   5.02265500
_cell_length_b   5.86882420
_cell_length_c   9.77003829
_cell_angle_alpha   87.13364327
_cell_angle_beta   79.18668391
_cell_angle_gamma   86.96731327
_symmetry_Int_Tables_number   1
_chemical_formula_structural   Li9Mn2Co5O16
_chemical_formula_sum   'Li9 Mn2 Co5 O16'
_cell_volume   282.24640533
_cell_formula_units_Z   1
loop_
 _symmetry_equiv_pos_site_id
 _symmetry_equiv_pos_as_xyz
  1  'x, y, z'
loop_
 _atom_site_type_symbol
 _atom_site_label
 _atom_site_symmetry_multiplicity
 _atom_site_fract_x
 _atom_site_fract_y
 _atom_site_fract_z
 _atom_site_occupancy
  Li  Li0  1  0.24757800  0.75239100  0.25185400  1
  Li  Li1  1  0.24278300  0.99957900  0.74081800  1
  Li  Li2  1  0.24452200  0.24605400  0.25350500  1
  Li  Li3  1  0.75721700  0.00042100  0.25918200  1
  Li  Li4  1  0.75242200  0.24760900  0.74814600  1
  Li  Li5  1  0.74611300  0.50297200  0.25665500  1
  Li  Li6  1  0.25388700  0.49702800  0.74334500  1
  Li  Li7  1  0.75547800  0.75394600  0.74649500  1
  Li  Li8  1  0.00000000  0.00000000  0.50000000  1
  Mn  Mn0  1  0.00037300  0.75005500  0.99967900  1
  Mn  Mn1  1  0.99962700  0.24994500  0.00032100  1
  Co  Co0  1  0.00000000  0.50000000  0.50000000  1
  Co  Co1  1  0.50647000  0.24553500  0.49844500  1
  Co  Co2  1  0.50000000  0.50000000  0.00000000  1
  Co  Co3  1  0.49353000  0.75446500  0.50155500  1
  Co  Co4  1  0.50000000  0.00000000  0.00000000  1
  O  O0  1  0.14233600  0.51682400  0.11878700  1
  O  O1  1  0.15405300  0.74583800  0.61220600  1
  O  O2  1  0.14223400  0.01670800  0.11959700  1
  O  O3  1  0.63455000  0.76720600  0.11475100  1
  O  O4  1  0.59996500  0.99612500  0.60724200  1
  O  O5  1  0.63277200  0.26631900  0.11430900  1
  O  O6  1  0.14339000  0.26219000  0.60985900  1
  O  O7  1  0.61191100  0.49022900  0.60738500  1
  O  O8  1  0.40003500  0.00387500  0.39275800  1
  O  O9  1  0.36545000  0.23279400  0.88524900  1
  O  O10  1  0.38808900  0.50977100  0.39261500  1
  O  O11  1  0.84594700  0.25416200  0.38779400  1
  O  O12  1  0.85766400  0.48317600  0.88121300  1
  O  O13  1  0.85661000  0.73781000  0.39014100  1
  O  O14  1  0.36722800  0.73368100  0.88569100  1
  O  O15  1  0.85776600  0.98329200  0.88040300  1
loop_
_geom_bond_atom_site_label_1
_geom_bond_atom_site_label_2
_geom_bond_distance
_geom_bond_site_symmetry_2
Li0 O2 2.079700 1_565
Li0 O0 2.096626 1_555
Li0 O10 2.116324 1_555
Li0 O3 2.146826 1_555
Li0 O13 2.167843 1_455
Li0 O8 2.319082 1_565
Li1 O4 2.010549 1_555
Li1 O6 2.054911 1_565
Li1 O1 2.112488 1_555
Li1 O15 2.150708 1_455
Li1 O14 2.199343 1_555
Li1 O9 2.202891 1_565
Li2 O2 2.070927 1_555
Li2 O0 2.116373 1_555
Li2 O8 2.137537 1_555
Li2 O5 2.163235 1_555
Li2 O11 2.177590 1_455
Li2 O10 2.336396 1_555
Li3 O8 2.010549 1_555
Li3 O13 2.054911 1_545
Li3 O11 2.112488 1_555
Li3 O2 2.150708 1_655
Li3 O5 2.199343 1_555
Li3 O3 2.202891 1_545
Li4 O15 2.079700 1_545
Li4 O12 2.096626 1_555
Li4 O7 2.116324 1_555
Li4 O9 2.146826 1_555
Li4 O6 2.167843 1_655
Li4 O4 2.319082 1_545
Li5 O11 2.000428 1_555
Li5 O10 2.025127 1_555
Li5 O13 2.107282 1_555
Li5 O3 2.150683 1_555
Li5 O5 2.181986 1_555
Li5 O0 2.186726 1_655
Li6 O1 2.000428 1_555
Li6 O7 2.025127 1_555
Li6 O6 2.107282 1_555
Li6 O9 2.150683 1_555
Li6 O14 2.181986 1_555
Li6 O12 2.186726 1_455
Li7 O15 2.070927 1_555
Li7 O12 2.116373 1_555
Li7 O4 2.137537 1_555
Li7 O14 2.163235 1_555
Li7 O1 2.177590 1_655
Li7 O7 2.336396 1_555
Li8 O11 2.014460 1_455
Li8 O1 2.014460 1_545
Li8 O8 2.085160 1_555
Li8 O4 2.085160 1_445
Li8 O13 2.147311 1_445
Li8 O6 2.147311 1_555
Mn0 O0 1.945492 1_556
Mn0 O15 1.947982 1_455
Mn0 O14 1.966372 1_555
Mn0 O3 1.966415 1_456
Mn0 O12 2.217647 1_455
Mn0 O2 2.223502 1_566
Mn1 O12 1.945492 1_554
Mn1 O2 1.947982 1_655
Mn1 O5 1.966372 1_555
Mn1 O9 1.966415 1_654
Mn1 O0 2.217647 1_655
Mn1 O15 2.223502 1_544
Co0 O13 1.911143 1_455
Co0 O6 1.911143 1_555
Co0 O7 2.035192 1_455
Co0 O10 2.035192 1_555
Co0 O11 2.115815 1_455
Co0 O1 2.115815 1_555
Co1 O11 1.841349 1_555
Co1 O4 1.857923 1_545
Co1 O6 1.940873 1_555
Co1 O8 1.948652 1_555
Co1 O10 1.949411 1_555
Co1 O7 1.980008 1_555
Co2 O5 1.897969 1_555
Co2 O14 1.897969 1_554
Co2 O12 1.947867 1_554
Co2 O0 1.947867 1_555
Co2 O9 2.178320 1_554
Co2 O3 2.178320 1_555
Co3 O1 1.841349 1_555
Co3 O8 1.857923 1_565
Co3 O13 1.940873 1_555
Co3 O4 1.948652 1_555
Co3 O7 1.949411 1_555
Co3 O10 1.980008 1_555
Co4 O3 1.900945 1_545
Co4 O9 1.900945 1_554
Co4 O15 1.951638 1_544
Co4 O2 1.951638 1_555
Co4 O5 2.167759 1_555
Co4 O14 2.167759 1_544
