# generated using pymatgen
data_ZnFe3(SnS4)2
_symmetry_space_group_name_H-M   'P 1'
_cell_length_a   7.15779570
_cell_length_b   7.15779570
_cell_length_c   7.15779570
_cell_angle_alpha   120.30526232
_cell_angle_beta   119.18632548
_cell_angle_gamma   90.44357523
_symmetry_Int_Tables_number   1
_chemical_formula_structural   ZnFe3(SnS4)2
_chemical_formula_sum   'Zn1 Fe3 Sn2 S8'
_cell_volume   260.26935248
_cell_formula_units_Z   1
loop_
 _symmetry_equiv_pos_site_id
 _symmetry_equiv_pos_as_xyz
  1  'x, y, z'
loop_
 _atom_site_type_symbol
 _atom_site_label
 _atom_site_symmetry_multiplicity
 _atom_site_fract_x
 _atom_site_fract_y
 _atom_site_fract_z
 _atom_site_occupancy
  Zn  Zn0  1  0.99153200  0.99153200  0.00000000  1
  Fe  Fe0  1  0.37616300  0.62600500  0.24984200  1
  Fe  Fe1  1  0.37616300  0.12632200  0.75015800  1
  Fe  Fe2  1  0.75572900  0.25572900  0.50000000  1
  Sn  Sn0  1  0.87262400  0.62399300  0.24863200  1
  Sn  Sn1  1  0.37536100  0.62399300  0.75136800  1
  S  S0  1  0.14923500  0.90124500  0.75201000  1
  S  S1  1  0.14923500  0.39722500  0.24799000  1
  S  S2  1  0.58440600  0.87649900  0.70790700  1
  S  S3  1  0.16859200  0.87649900  0.29209300  1
  S  S4  1  0.60404700  0.34269300  0.73864500  1
  S  S5  1  0.60404800  0.86540200  0.26135500  1
  S  S6  1  0.15743200  0.37143200  0.78600000  1
  S  S7  1  0.58543200  0.37143200  0.21400000  1
loop_
_geom_bond_atom_site_label_1
_geom_bond_atom_site_label_2
_geom_bond_distance
_geom_bond_site_symmetry_2
Fe0 S1 2.288242 1_555
Fe0 S5 2.299312 1_555
Fe0 S3 2.333656 1_555
Fe0 S2 2.333656 1_555
Fe0 S6 2.361176 1_554
Fe0 S7 2.361176 1_555
Fe1 S0 2.288247 1_545
Fe1 S4 2.299307 1_555
Fe1 S3 2.333656 1_545
Fe1 S2 2.333661 1_545
Fe1 S6 2.361171 1_555
Fe1 S7 2.361176 1_556
Fe2 S4 2.286972 1_555
Fe2 S5 2.286972 1_545
Fe2 S6 2.378104 1_655
Fe2 S7 2.378104 1_555
S0 Zn0 2.377076 1_456
S0 Sn1 2.570184 1_555
S0 Sn0 2.570185 1_455
S1 Zn0 2.377076 1_445
S1 Sn1 2.570184 1_555
S1 Sn0 2.570190 1_455
S2 Zn0 2.413417 1_556
S2 Sn1 2.565517 1_555
S3 Zn0 2.413417 1_455
S3 Sn0 2.565522 1_455
S4 Sn1 2.598690 1_555
S4 Sn0 2.598695 1_556
S5 Sn0 2.598685 1_555
S5 Sn1 2.598696 1_554
S6 Sn1 2.559004 1_555
S7 Sn0 2.558999 1_555
