# generated using pymatgen
data_Na4(CoO2)7
_symmetry_space_group_name_H-M   'P 1'
_cell_length_a   7.50246674
_cell_length_b   7.50246674
_cell_length_c   11.13554900
_cell_angle_alpha   90.00000000
_cell_angle_beta   90.00000000
_cell_angle_gamma   120.00000651
_symmetry_Int_Tables_number   1
_chemical_formula_structural   Na4(CoO2)7
_chemical_formula_sum   'Na8 Co14 O28'
_cell_volume   542.81319215
_cell_formula_units_Z   2
loop_
 _symmetry_equiv_pos_site_id
 _symmetry_equiv_pos_as_xyz
  1  'x, y, z'
loop_
 _atom_site_type_symbol
 _atom_site_label
 _atom_site_symmetry_multiplicity
 _atom_site_fract_x
 _atom_site_fract_y
 _atom_site_fract_z
 _atom_site_occupancy
  Na  Na0  1  0.00000000  0.00000000  0.25000000  1
  Na  Na1  1  0.00000000  0.00000000  0.75000000  1
  Na  Na2  1  0.45246800  0.41007500  0.25000000  1
  Na  Na3  1  0.04239300  0.45246800  0.75000000  1
  Na  Na4  1  0.41007500  0.95760700  0.75000000  1
  Na  Na5  1  0.58992500  0.04239300  0.25000000  1
  Na  Na6  1  0.95760700  0.54753200  0.25000000  1
  Na  Na7  1  0.54753200  0.58992500  0.75000000  1
  Co  Co0  1  0.57155300  0.85655600  0.99837700  1
  Co  Co1  1  0.42844700  0.14344400  0.49837700  1
  Co  Co2  1  0.85655600  0.28500300  0.49837700  1
  Co  Co3  1  0.28500300  0.42844700  0.99837700  1
  Co  Co4  1  0.00000000  0.00000000  0.50000000  1
  Co  Co5  1  0.00000000  0.00000000  0.00000000  1
  Co  Co6  1  0.14344400  0.71499700  0.99837700  1
  Co  Co7  1  0.71499700  0.57155300  0.49837700  1
  Co  Co8  1  0.71499700  0.57155300  0.00162300  1
  Co  Co9  1  0.14344400  0.71499700  0.50162300  1
  Co  Co10  1  0.57155300  0.85655600  0.50162300  1
  Co  Co11  1  0.42844700  0.14344400  0.00162300  1
  Co  Co12  1  0.85655600  0.28500300  0.00162300  1
  Co  Co13  1  0.28500300  0.42844700  0.50162300  1
  O  O0  1  0.33333300  0.66666700  0.59389900  1
  O  O1  1  0.66666700  0.33333300  0.09389900  1
  O  O2  1  0.66666700  0.33333300  0.40610100  1
  O  O3  1  0.33333300  0.66666700  0.90610100  1
  O  O4  1  0.09625800  0.47690400  0.41595200  1
  O  O5  1  0.61935500  0.09625800  0.91595200  1
  O  O6  1  0.47690400  0.38064500  0.91595200  1
  O  O7  1  0.52309600  0.61935500  0.41595200  1
  O  O8  1  0.38064500  0.90374200  0.41595200  1
  O  O9  1  0.90374200  0.52309600  0.91595200  1
  O  O10  1  0.90374200  0.52309600  0.58404800  1
  O  O11  1  0.38064500  0.90374200  0.08404800  1
  O  O12  1  0.52309600  0.61935500  0.08404800  1
  O  O13  1  0.47690400  0.38064500  0.58404800  1
  O  O14  1  0.61935500  0.09625800  0.58404800  1
  O  O15  1  0.09625800  0.47690400  0.08404800  1
  O  O16  1  0.23837300  0.19283800  0.41108200  1
  O  O17  1  0.04553500  0.23837300  0.91108200  1
  O  O18  1  0.19283800  0.95446500  0.91108200  1
  O  O19  1  0.80716200  0.04553500  0.41108200  1
  O  O20  1  0.95446500  0.76162700  0.41108200  1
  O  O21  1  0.76162700  0.80716200  0.91108200  1
  O  O22  1  0.23837300  0.19283800  0.08891800  1
  O  O23  1  0.04553500  0.23837300  0.58891800  1
  O  O24  1  0.19283800  0.95446500  0.58891800  1
  O  O25  1  0.80716200  0.04553500  0.08891800  1
  O  O26  1  0.95446500  0.76162700  0.08891800  1
  O  O27  1  0.76162700  0.80716200  0.58891800  1
loop_
_geom_bond_atom_site_label_1
_geom_bond_atom_site_label_2
_geom_bond_distance
_geom_bond_site_symmetry_2
Na0 O16 2.433426 1_555
Na0 O22 2.433426 1_555
Na0 O26 2.433426 1_445
Na0 O20 2.433426 1_445
Na0 O19 2.433426 1_455
Na0 O25 2.433426 1_455
Na1 O27 2.433426 1_445
Na1 O21 2.433426 1_445
Na1 O17 2.433426 1_555
Na1 O23 2.433426 1_555
Na1 O24 2.433426 1_545
Na1 O18 2.433426 1_545
Na2 O12 2.308472 1_555
Na2 O7 2.308472 1_555
Na2 O22 2.415765 1_555
Na2 O16 2.415765 1_555
Na2 O2 2.619321 1_555
Na2 O1 2.619321 1_555
Na3 O9 2.308468 1_455
Na3 O10 2.308468 1_455
Na3 O23 2.415765 1_555
Na3 O17 2.415765 1_555
Na3 O0 2.619317 1_555
Na3 O3 2.619317 1_555
Na4 O5 2.308471 1_565
Na4 O14 2.308471 1_565
Na4 O18 2.415765 1_555
Na4 O24 2.415765 1_555
Na4 O3 2.619315 1_555
Na4 O0 2.619315 1_555
Na5 O8 2.308471 1_545
Na5 O11 2.308471 1_545
Na5 O25 2.415765 1_555
Na5 O19 2.415765 1_555
Na5 O2 2.619315 1_555
Na5 O1 2.619315 1_555
Na6 O4 2.308468 1_655
Na6 O15 2.308468 1_655
Na6 O20 2.415765 1_555
Na6 O26 2.415765 1_555
Na6 O1 2.619317 1_555
Na6 O2 2.619317 1_555
Na7 O13 2.308472 1_555
Na7 O6 2.308472 1_555
Na7 O27 2.415765 1_555
Na7 O21 2.415765 1_555
Na7 O0 2.619321 1_555
Na7 O3 2.619321 1_555
Co0 O5 1.886849 1_565
Co0 O12 1.887394 1_556
Co0 O11 1.895759 1_556
Co0 O21 1.908994 1_555
Co0 O25 1.909212 1_566
Co0 O3 1.932224 1_555
Co1 O8 1.886849 1_545
Co1 O13 1.887394 1_555
Co1 O14 1.895759 1_555
Co1 O16 1.908994 1_555
Co1 O24 1.909212 1_545
Co1 O2 1.932224 1_555
Co2 O4 1.886851 1_655
Co2 O14 1.887396 1_555
Co2 O10 1.895752 1_555
Co2 O19 1.908994 1_555
Co2 O23 1.909212 1_655
Co2 O2 1.932220 1_555
Co3 O6 1.886855 1_555
Co3 O15 1.887400 1_556
Co3 O12 1.895754 1_556
Co3 O17 1.908994 1_555
Co3 O22 1.909212 1_556
Co3 O3 1.932226 1_555
Co4 O27 1.919498 1_445
Co4 O16 1.919498 1_555
Co4 O20 1.919498 1_445
Co4 O23 1.919498 1_555
Co4 O19 1.919498 1_455
Co4 O24 1.919498 1_545
Co5 O22 1.919498 1_555
Co5 O21 1.919498 1_444
Co5 O26 1.919498 1_445
Co5 O17 1.919498 1_554
Co5 O25 1.919498 1_455
Co5 O18 1.919498 1_544
Co6 O9 1.886851 1_455
Co6 O11 1.887396 1_556
Co6 O15 1.895752 1_556
Co6 O18 1.908994 1_555
Co6 O26 1.909212 1_456
Co6 O3 1.932220 1_555
Co7 O7 1.886855 1_555
Co7 O10 1.887400 1_555
Co7 O13 1.895754 1_555
Co7 O20 1.908994 1_555
Co7 O27 1.909212 1_555
Co7 O2 1.932226 1_555
Co8 O12 1.886855 1_555
Co8 O9 1.887400 1_554
Co8 O6 1.895754 1_554
Co8 O26 1.908994 1_555
Co8 O21 1.909212 1_554
Co8 O1 1.932226 1_555
Co9 O10 1.886851 1_455
Co9 O8 1.887396 1_555
Co9 O4 1.895752 1_555
Co9 O24 1.908994 1_555
Co9 O20 1.909212 1_455
Co9 O0 1.932220 1_555
Co10 O14 1.886849 1_565
Co10 O7 1.887394 1_555
Co10 O8 1.895759 1_555
Co10 O27 1.908994 1_555
Co10 O19 1.909212 1_565
Co10 O0 1.932224 1_555
Co11 O11 1.886849 1_545
Co11 O6 1.887394 1_554
Co11 O5 1.895759 1_554
Co11 O22 1.908994 1_555
Co11 O18 1.909212 1_544
Co11 O1 1.932224 1_555
Co12 O15 1.886851 1_655
Co12 O5 1.887396 1_554
Co12 O9 1.895752 1_554
Co12 O25 1.908994 1_555
Co12 O17 1.909212 1_654
Co12 O1 1.932220 1_555
Co13 O13 1.886855 1_555
Co13 O4 1.887400 1_555
Co13 O7 1.895754 1_555
Co13 O23 1.908994 1_555
Co13 O16 1.909212 1_555
Co13 O0 1.932226 1_555
