# generated using pymatgen
data_La2Fe14C
_symmetry_space_group_name_H-M   'P 1'
_cell_length_a   8.79276800
_cell_length_b   8.79276800
_cell_length_c   12.02189300
_cell_angle_alpha   90.00000000
_cell_angle_beta   90.00000000
_cell_angle_gamma   90.00000000
_symmetry_Int_Tables_number   1
_chemical_formula_structural   La2Fe14C
_chemical_formula_sum   'La8 Fe56 C4'
_cell_volume   929.44583768
_cell_formula_units_Z   4
loop_
 _symmetry_equiv_pos_site_id
 _symmetry_equiv_pos_as_xyz
  1  'x, y, z'
loop_
 _atom_site_type_symbol
 _atom_site_label
 _atom_site_symmetry_multiplicity
 _atom_site_fract_x
 _atom_site_fract_y
 _atom_site_fract_z
 _atom_site_occupancy
  La  La0  1  0.76066500  0.23933500  0.00000000  1
  La  La1  1  0.26066500  0.26066500  0.50000000  1
  La  La2  1  0.73933500  0.73933500  0.50000000  1
  La  La3  1  0.23933500  0.76066500  0.00000000  1
  La  La4  1  0.64195900  0.64195900  0.00000000  1
  La  La5  1  0.85804100  0.14195900  0.50000000  1
  La  La6  1  0.14195900  0.85804100  0.50000000  1
  La  La7  1  0.35804100  0.35804100  0.00000000  1
  Fe  Fe0  1  0.09825900  0.09825900  0.71220200  1
  Fe  Fe1  1  0.90174100  0.90174100  0.71220200  1
  Fe  Fe2  1  0.09825900  0.09825900  0.28779800  1
  Fe  Fe3  1  0.59825900  0.40174100  0.21220200  1
  Fe  Fe4  1  0.40174100  0.59825900  0.21220200  1
  Fe  Fe5  1  0.40174100  0.59825900  0.78779800  1
  Fe  Fe6  1  0.59825900  0.40174100  0.78779800  1
  Fe  Fe7  1  0.90174100  0.90174100  0.28779800  1
  Fe  Fe8  1  0.00000000  0.00000000  0.89435000  1
  Fe  Fe9  1  0.50000000  0.50000000  0.39435000  1
  Fe  Fe10  1  0.50000000  0.50000000  0.60565000  1
  Fe  Fe11  1  0.00000000  0.00000000  0.10565000  1
  Fe  Fe12  1  0.35973700  0.03627400  0.32193400  1
  Fe  Fe13  1  0.64026300  0.96372600  0.32193400  1
  Fe  Fe14  1  0.03627400  0.35973700  0.67806600  1
  Fe  Fe15  1  0.53627400  0.14026300  0.82193400  1
  Fe  Fe16  1  0.46372600  0.85973700  0.82193400  1
  Fe  Fe17  1  0.14026300  0.53627400  0.17806600  1
  Fe  Fe18  1  0.85973700  0.46372600  0.17806600  1
  Fe  Fe19  1  0.96372600  0.64026300  0.67806600  1
  Fe  Fe20  1  0.64026300  0.96372600  0.67806600  1
  Fe  Fe21  1  0.35973700  0.03627400  0.67806600  1
  Fe  Fe22  1  0.96372600  0.64026300  0.32193400  1
  Fe  Fe23  1  0.46372600  0.85973700  0.17806600  1
  Fe  Fe24  1  0.53627400  0.14026300  0.17806600  1
  Fe  Fe25  1  0.85973700  0.46372600  0.82193400  1
  Fe  Fe26  1  0.14026300  0.53627400  0.82193400  1
  Fe  Fe27  1  0.03627400  0.35973700  0.32193400  1
  Fe  Fe28  1  0.68283800  0.68283800  0.74511400  1
  Fe  Fe29  1  0.31716200  0.31716200  0.74511400  1
  Fe  Fe30  1  0.68283800  0.68283800  0.25488600  1
  Fe  Fe31  1  0.18283800  0.81716200  0.24511400  1
  Fe  Fe32  1  0.81716200  0.18283800  0.24511400  1
  Fe  Fe33  1  0.81716200  0.18283800  0.75488600  1
  Fe  Fe34  1  0.18283800  0.81716200  0.75488600  1
  Fe  Fe35  1  0.31716200  0.31716200  0.25488600  1
  Fe  Fe36  1  0.06567200  0.27529200  0.12021000  1
  Fe  Fe37  1  0.93432800  0.72470800  0.12021000  1
  Fe  Fe38  1  0.27529200  0.06567200  0.87979000  1
  Fe  Fe39  1  0.77529200  0.43432800  0.62021000  1
  Fe  Fe40  1  0.22470800  0.56567200  0.62021000  1
  Fe  Fe41  1  0.43432800  0.77529200  0.37979000  1
  Fe  Fe42  1  0.56567200  0.22470800  0.37979000  1
  Fe  Fe43  1  0.72470800  0.93432800  0.87979000  1
  Fe  Fe44  1  0.93432800  0.72470800  0.87979000  1
  Fe  Fe45  1  0.06567200  0.27529200  0.87979000  1
  Fe  Fe46  1  0.72470800  0.93432800  0.12021000  1
  Fe  Fe47  1  0.22470800  0.56567200  0.37979000  1
  Fe  Fe48  1  0.77529200  0.43432800  0.37979000  1
  Fe  Fe49  1  0.56567200  0.22470800  0.62021000  1
  Fe  Fe50  1  0.43432800  0.77529200  0.62021000  1
  Fe  Fe51  1  0.27529200  0.06567200  0.12021000  1
  Fe  Fe52  1  0.50000000  0.00000000  0.00000000  1
  Fe  Fe53  1  0.50000000  0.00000000  0.50000000  1
  Fe  Fe54  1  0.00000000  0.50000000  0.50000000  1
  Fe  Fe55  1  0.00000000  0.50000000  0.00000000  1
  C  C0  1  0.87533500  0.87533500  0.00000000  1
  C  C1  1  0.62466500  0.37533500  0.50000000  1
  C  C2  1  0.37533500  0.62466500  0.50000000  1
  C  C3  1  0.12466500  0.12466500  0.00000000  1
loop_
_geom_bond_atom_site_label_1
_geom_bond_atom_site_label_2
_geom_bond_distance
_geom_bond_site_symmetry_2
La0 La4 3.690839 1_555
La0 La7 3.690839 1_555
La1 La5 3.690839 1_455
La1 La6 3.690839 1_545
La2 La6 3.690839 1_655
La2 La5 3.690839 1_565
La3 La4 3.690839 1_555
La3 La7 3.690839 1_555
La4 La7 3.530478 1_555
La5 La6 3.530478 1_645
Fe0 Fe14 2.398205 1_555
Fe0 Fe21 2.398205 1_555
Fe0 Fe1 2.443672 1_445
Fe0 Fe8 2.507578 1_555
Fe0 Fe38 2.562079 1_555
Fe0 Fe45 2.562079 1_555
Fe0 Fe33 2.631594 1_455
Fe0 Fe34 2.631594 1_545
Fe0 Fe29 2.750632 1_555
Fe0 La1 3.253662 1_555
Fe0 La6 3.334203 1_545
Fe0 La5 3.334203 1_455
Fe1 Fe19 2.398205 1_555
Fe1 Fe20 2.398205 1_555
Fe1 Fe8 2.507578 1_665
Fe1 Fe43 2.562079 1_555
Fe1 Fe44 2.562079 1_555
Fe1 Fe33 2.631594 1_565
Fe1 Fe34 2.631594 1_655
Fe1 Fe28 2.750632 1_555
Fe1 La2 3.253662 1_555
Fe1 La5 3.334203 1_565
Fe1 La6 3.334203 1_655
Fe2 Fe27 2.398205 1_555
Fe2 Fe7 2.443672 1_445
Fe2 Fe51 2.562079 1_555
Fe2 Fe36 2.562079 1_555
Fe2 Fe31 2.631594 1_545
Fe2 Fe32 2.631594 1_455
Fe2 Fe35 2.750632 1_555
Fe2 La1 3.253662 1_555
Fe2 La6 3.334203 1_545
Fe2 La5 3.334203 1_455
Fe3 Fe4 2.443672 1_555
Fe3 Fe9 2.507578 1_555
Fe3 Fe48 2.562079 1_555
Fe3 Fe42 2.562079 1_555
Fe3 Fe30 2.631594 1_555
Fe3 Fe35 2.631594 1_555
Fe3 Fe32 2.750632 1_555
Fe3 La0 3.253662 1_555
Fe3 La7 3.334203 1_555
Fe3 La4 3.334203 1_555
Fe4 Fe9 2.507578 1_555
Fe4 Fe41 2.562079 1_555
Fe4 Fe47 2.562079 1_555
Fe4 La3 3.253662 1_555
Fe4 La7 3.334203 1_555
Fe4 La4 3.334203 1_555
Fe5 Fe6 2.443672 1_555
Fe5 Fe50 2.562079 1_555
Fe5 La3 3.253662 1_556
Fe5 La4 3.334203 1_556
Fe5 La7 3.334203 1_556
Fe6 La0 3.253662 1_556
Fe6 La4 3.334203 1_556
Fe6 La7 3.334203 1_556
Fe7 La2 3.253662 1_555
Fe7 La5 3.334203 1_565
Fe7 La6 3.334203 1_655
Fe8 La3 3.235789 1_546
Fe8 La0 3.235789 1_456
Fe9 La2 3.235789 1_555
Fe9 La1 3.235789 1_555
Fe10 Fe6 2.507578 1_555
Fe10 Fe5 2.507578 1_555
Fe10 Fe28 2.824916 1_555
Fe10 Fe29 2.824916 1_555
Fe10 La2 3.235789 1_555
Fe10 La1 3.235789 1_555
Fe11 Fe7 2.507578 1_445
Fe11 Fe2 2.507578 1_555
Fe11 Fe31 2.824916 1_545
Fe11 Fe32 2.824916 1_455
Fe11 La3 3.235789 1_545
Fe11 La0 3.235789 1_455
Fe12 Fe2 2.398205 1_555
Fe12 Fe41 2.485925 1_545
Fe12 Fe53 2.491047 1_555
Fe12 Fe23 2.497381 1_545
Fe12 Fe24 2.497381 1_555
Fe12 Fe13 2.547750 1_545
Fe12 Fe51 2.549365 1_555
Fe12 Fe42 2.551024 1_555
Fe12 Fe35 2.624819 1_555
Fe12 Fe31 2.642736 1_545
Fe12 La1 3.038783 1_555
Fe12 La6 3.271893 1_545
Fe13 Fe7 2.398205 1_555
Fe13 Fe42 2.485925 1_565
Fe13 Fe53 2.491047 1_565
Fe13 Fe23 2.497381 1_555
Fe13 Fe24 2.497381 1_565
Fe13 Fe46 2.549365 1_555
Fe13 Fe41 2.551024 1_555
Fe13 Fe30 2.624819 1_555
Fe13 Fe32 2.642736 1_565
Fe13 La2 3.038783 1_555
Fe13 La5 3.271893 1_565
Fe14 Fe39 2.485925 1_455
Fe14 Fe54 2.491047 1_555
Fe14 Fe26 2.497381 1_555
Fe14 Fe25 2.497381 1_455
Fe14 Fe19 2.547750 1_455
Fe14 Fe45 2.549365 1_555
Fe14 Fe40 2.551024 1_555
Fe14 Fe29 2.624819 1_555
Fe14 Fe33 2.642736 1_455
Fe14 La1 3.038783 1_555
Fe14 La5 3.271893 1_455
Fe15 Fe6 2.398205 1_555
Fe15 Fe38 2.485925 1_555
Fe15 Fe52 2.491047 1_556
Fe15 Fe21 2.497381 1_555
Fe15 Fe20 2.497381 1_545
Fe15 Fe16 2.547750 1_545
Fe15 Fe49 2.549365 1_555
Fe15 Fe43 2.551024 1_545
Fe15 Fe33 2.624819 1_555
Fe15 Fe29 2.642736 1_555
Fe15 La0 3.038783 1_556
Fe15 La7 3.271893 1_556
Fe16 Fe5 2.398205 1_555
Fe16 Fe43 2.485925 1_555
Fe16 Fe52 2.491047 1_566
Fe16 Fe21 2.497381 1_565
Fe16 Fe20 2.497381 1_555
Fe16 Fe50 2.549365 1_555
Fe16 Fe38 2.551024 1_565
Fe16 Fe34 2.624819 1_555
Fe16 Fe28 2.642736 1_555
Fe16 La3 3.038783 1_556
Fe16 La4 3.271893 1_556
Fe17 Fe4 2.398205 1_555
Fe17 Fe36 2.485925 1_555
Fe17 Fe55 2.491047 1_555
Fe17 Fe22 2.497381 1_455
Fe17 Fe27 2.497381 1_555
Fe17 Fe18 2.547750 1_455
Fe17 Fe47 2.549365 1_555
Fe17 Fe37 2.551024 1_455
Fe17 Fe31 2.624819 1_555
Fe17 Fe35 2.642736 1_555
Fe17 La3 3.038783 1_555
Fe17 La7 3.271893 1_555
Fe18 Fe3 2.398205 1_555
Fe18 Fe37 2.485925 1_555
Fe18 Fe55 2.491047 1_655
Fe18 Fe22 2.497381 1_555
Fe18 Fe27 2.497381 1_655
Fe18 Fe48 2.549365 1_555
Fe18 Fe36 2.551024 1_655
Fe18 Fe32 2.624819 1_555
Fe18 Fe30 2.642736 1_555
Fe18 La0 3.038783 1_555
Fe18 La4 3.271893 1_555
Fe19 Fe40 2.485925 1_655
Fe19 Fe54 2.491047 1_655
Fe19 Fe25 2.497381 1_555
Fe19 Fe26 2.497381 1_655
Fe19 Fe44 2.549365 1_555
Fe19 Fe39 2.551024 1_555
Fe19 Fe28 2.624819 1_555
Fe19 Fe34 2.642736 1_655
Fe19 La2 3.038783 1_555
Fe19 La6 3.271893 1_655
Fe20 Fe49 2.485925 1_565
Fe20 Fe53 2.491047 1_565
Fe20 Fe21 2.547750 1_565
Fe20 Fe43 2.549365 1_555
Fe20 Fe50 2.551024 1_555
Fe20 Fe28 2.624819 1_555
Fe20 Fe33 2.642736 1_565
Fe20 La2 3.038783 1_555
Fe20 La5 3.271893 1_565
Fe21 Fe50 2.485925 1_545
Fe21 Fe53 2.491047 1_555
Fe21 Fe38 2.549365 1_555
Fe21 Fe49 2.551024 1_555
Fe21 Fe29 2.624819 1_555
Fe21 Fe34 2.642736 1_545
Fe21 La1 3.038783 1_555
Fe21 La6 3.271893 1_545
Fe22 Fe7 2.398205 1_555
Fe22 Fe47 2.485925 1_655
Fe22 Fe54 2.491047 1_655
Fe22 Fe27 2.547750 1_655
Fe22 Fe37 2.549365 1_555
Fe22 Fe48 2.551024 1_555
Fe22 Fe30 2.624819 1_555
Fe22 Fe31 2.642736 1_655
Fe22 La2 3.038783 1_555
Fe22 La6 3.271893 1_655
Fe23 Fe4 2.398205 1_555
Fe23 Fe46 2.485925 1_555
Fe23 Fe52 2.491047 1_565
Fe23 Fe24 2.547750 1_565
Fe23 Fe41 2.549365 1_555
Fe23 Fe51 2.551024 1_565
Fe23 Fe31 2.624819 1_555
Fe23 Fe30 2.642736 1_555
Fe23 La3 3.038783 1_555
Fe23 La4 3.271893 1_555
Fe24 Fe3 2.398205 1_555
Fe24 Fe51 2.485925 1_555
Fe24 Fe52 2.491047 1_555
Fe24 Fe42 2.549365 1_555
Fe24 Fe46 2.551024 1_545
Fe24 Fe32 2.624819 1_555
Fe24 Fe35 2.642736 1_555
Fe24 La0 3.038783 1_555
Fe24 La7 3.271893 1_555
Fe25 Fe6 2.398205 1_555
Fe25 Fe44 2.485925 1_555
Fe25 Fe55 2.491047 1_656
Fe25 Fe26 2.547750 1_655
Fe25 Fe39 2.549365 1_555
Fe25 Fe45 2.551024 1_655
Fe25 Fe33 2.624819 1_555
Fe25 Fe28 2.642736 1_555
Fe25 La0 3.038783 1_556
Fe25 La4 3.271893 1_556
Fe26 Fe5 2.398205 1_555
Fe26 Fe45 2.485925 1_555
Fe26 Fe55 2.491047 1_556
Fe26 Fe40 2.549365 1_555
Fe26 Fe44 2.551024 1_455
Fe26 Fe34 2.624819 1_555
Fe26 Fe29 2.642736 1_555
Fe26 La3 3.038783 1_556
Fe26 La7 3.271893 1_556
Fe27 Fe48 2.485925 1_455
Fe27 Fe54 2.491047 1_555
Fe27 Fe36 2.549365 1_555
Fe27 Fe47 2.551024 1_555
Fe27 Fe35 2.624819 1_555
Fe27 Fe32 2.642736 1_455
Fe27 La1 3.038783 1_555
Fe27 La5 3.271893 1_455
Fe28 Fe5 2.631594 1_555
Fe28 Fe6 2.631594 1_555
Fe28 Fe43 2.765269 1_555
Fe28 Fe44 2.765269 1_555
Fe28 Fe39 2.773125 1_555
Fe28 Fe50 2.773125 1_555
Fe28 La2 3.029322 1_555
Fe28 La4 3.106089 1_556
Fe29 Fe5 2.631594 1_555
Fe29 Fe6 2.631594 1_555
Fe29 Fe38 2.765269 1_555
Fe29 Fe45 2.765269 1_555
Fe29 Fe49 2.773125 1_555
Fe29 Fe40 2.773125 1_555
Fe29 La1 3.029322 1_555
Fe29 La7 3.106089 1_556
Fe30 Fe4 2.631594 1_555
Fe30 Fe7 2.750632 1_555
Fe30 Fe37 2.765269 1_555
Fe30 Fe46 2.765269 1_555
Fe30 Fe48 2.773125 1_555
Fe30 Fe41 2.773125 1_555
Fe30 Fe9 2.824916 1_555
Fe30 La2 3.029322 1_555
Fe30 La4 3.106089 1_555
Fe31 Fe7 2.631594 1_455
Fe31 Fe4 2.750632 1_555
Fe31 Fe41 2.765269 1_555
Fe31 Fe47 2.765269 1_555
Fe31 Fe51 2.773125 1_565
Fe31 Fe37 2.773125 1_455
Fe31 La3 3.029322 1_555
Fe31 La6 3.106089 1_555
Fe32 Fe7 2.631594 1_545
Fe32 Fe48 2.765269 1_555
Fe32 Fe42 2.765269 1_555
Fe32 Fe46 2.773125 1_545
Fe32 Fe36 2.773125 1_655
Fe32 La0 3.029322 1_555
Fe32 La5 3.106089 1_555
Fe33 Fe6 2.750632 1_555
Fe33 Fe39 2.765269 1_555
Fe33 Fe49 2.765269 1_555
Fe33 Fe45 2.773125 1_655
Fe33 Fe43 2.773125 1_545
Fe33 Fe8 2.824916 1_655
Fe33 La0 3.029322 1_556
Fe33 La5 3.106089 1_555
Fe34 Fe5 2.750632 1_555
Fe34 Fe50 2.765269 1_555
Fe34 Fe40 2.765269 1_555
Fe34 Fe38 2.773125 1_565
Fe34 Fe44 2.773125 1_455
Fe34 Fe8 2.824916 1_565
Fe34 La3 3.029322 1_556
Fe34 La6 3.106089 1_555
Fe35 Fe4 2.631594 1_555
Fe35 Fe51 2.765269 1_555
Fe35 Fe36 2.765269 1_555
Fe35 Fe47 2.773125 1_555
Fe35 Fe42 2.773125 1_555
Fe35 Fe9 2.824916 1_555
Fe35 La1 3.029322 1_555
Fe35 La7 3.106089 1_555
Fe36 Fe55 2.515096 1_555
Fe36 La7 3.037519 1_555
Fe36 La0 3.062805 1_455
Fe37 Fe55 2.515096 1_655
Fe37 Fe7 2.562079 1_555
Fe37 La4 3.037519 1_555
Fe37 La3 3.062805 1_655
Fe38 Fe52 2.515096 1_556
Fe38 La7 3.037519 1_556
Fe38 La3 3.062805 1_546
Fe39 Fe54 2.515096 1_655
Fe39 Fe6 2.562079 1_555
Fe39 La5 3.037519 1_555
Fe39 La2 3.062805 1_555
Fe40 Fe54 2.515096 1_555
Fe40 Fe5 2.562079 1_555
Fe40 La6 3.037519 1_555
Fe40 La1 3.062805 1_555
Fe41 Fe53 2.515096 1_565
Fe41 La6 3.037519 1_555
Fe41 La2 3.062805 1_555
Fe42 Fe53 2.515096 1_555
Fe42 La5 3.037519 1_555
Fe42 La1 3.062805 1_555
Fe43 Fe52 2.515096 1_566
Fe43 La4 3.037519 1_556
Fe43 La0 3.062805 1_566
Fe44 Fe55 2.515096 1_656
Fe44 La4 3.037519 1_556
Fe44 La3 3.062805 1_656
Fe45 Fe55 2.515096 1_556
Fe45 La7 3.037519 1_556
Fe45 La0 3.062805 1_456
Fe46 Fe52 2.515096 1_565
Fe46 Fe7 2.562079 1_555
Fe46 La4 3.037519 1_555
Fe46 La0 3.062805 1_565
Fe47 Fe54 2.515096 1_555
Fe47 La6 3.037519 1_555
Fe47 La1 3.062805 1_555
Fe48 Fe54 2.515096 1_655
Fe48 La5 3.037519 1_555
Fe48 La2 3.062805 1_555
Fe49 Fe53 2.515096 1_555
Fe49 Fe6 2.562079 1_555
Fe49 La5 3.037519 1_555
Fe49 La1 3.062805 1_555
Fe50 Fe53 2.515096 1_565
Fe50 La6 3.037519 1_555
Fe50 La2 3.062805 1_555
Fe51 Fe52 2.515096 1_555
Fe51 La7 3.037519 1_555
Fe51 La3 3.062805 1_545
Fe52 La3 3.111540 1_545
Fe52 La0 3.111540 1_555
Fe52 La7 3.386594 1_555
Fe52 La4 3.386594 1_545
Fe53 La2 3.111540 1_545
Fe53 La1 3.111540 1_555
Fe53 La6 3.386594 1_545
Fe53 La5 3.386594 1_555
Fe54 La2 3.111540 1_455
Fe54 La1 3.111540 1_555
Fe54 La5 3.386594 1_455
Fe54 La6 3.386594 1_555
Fe55 La0 3.111540 1_455
Fe55 La3 3.111540 1_555
Fe55 La7 3.386594 1_555
Fe55 La4 3.386594 1_455
C0 Fe11 2.004065 1_665
C0 Fe8 2.004065 1_664
C0 Fe46 2.027717 1_555
C0 Fe37 2.027717 1_555
C0 Fe43 2.027717 1_554
C0 Fe44 2.027717 1_554
C0 La4 2.901996 1_555
C1 Fe9 2.004065 1_555
C1 Fe10 2.004065 1_555
C1 Fe48 2.027717 1_555
C1 Fe39 2.027717 1_555
C1 Fe42 2.027717 1_555
C1 Fe49 2.027717 1_555
C1 La5 2.901996 1_555
C2 Fe9 2.004065 1_555
C2 Fe10 2.004065 1_555
C2 Fe41 2.027717 1_555
C2 Fe50 2.027717 1_555
C2 Fe47 2.027717 1_555
C2 Fe40 2.027717 1_555
C2 La6 2.901996 1_555
C3 Fe11 2.004065 1_555
C3 Fe8 2.004065 1_554
C3 Fe36 2.027717 1_555
C3 Fe51 2.027717 1_555
C3 Fe38 2.027717 1_554
C3 Fe45 2.027717 1_554
C3 La7 2.901996 1_555
