# generated using pymatgen
data_SmMg2Mo3S8
_symmetry_space_group_name_H-M   'P 1'
_cell_length_a   7.53818842
_cell_length_b   7.53817413
_cell_length_c   7.53825656
_cell_angle_alpha   60.43548258
_cell_angle_beta   60.43386473
_cell_angle_gamma   60.43599043
_symmetry_Int_Tables_number   1
_chemical_formula_structural   SmMg2Mo3S8
_chemical_formula_sum   'Sm1 Mg2 Mo3 S8'
_cell_volume   305.87263987
_cell_formula_units_Z   1
loop_
 _symmetry_equiv_pos_site_id
 _symmetry_equiv_pos_as_xyz
  1  'x, y, z'
loop_
 _atom_site_type_symbol
 _atom_site_label
 _atom_site_symmetry_multiplicity
 _atom_site_fract_x
 _atom_site_fract_y
 _atom_site_fract_z
 _atom_site_occupancy
  Sm  Sm0  1  0.50000000  0.50002100  0.49997600  1
  Mg  Mg0  1  0.87623200  0.87624700  0.87623700  1
  Mg  Mg1  1  0.12377200  0.12375800  0.12375900  1
  Mo  Mo0  1  0.50000000  0.49999100  0.00000500  1
  Mo  Mo1  1  0.99999800  0.49999100  0.50001200  1
  Mo  Mo2  1  0.49999900  0.99999500  0.50001000  1
  S  S0  1  0.73819300  0.73819200  0.73818800  1
  S  S1  1  0.24353700  0.24354700  0.72768500  1
  S  S2  1  0.24354100  0.72768800  0.24353600  1
  S  S3  1  0.72769000  0.24354700  0.24353000  1
  S  S4  1  0.75644000  0.27231500  0.75645100  1
  S  S5  1  0.27231300  0.75644500  0.75647200  1
  S  S6  1  0.26180700  0.26179700  0.26182600  1
  S  S7  1  0.75648200  0.75646100  0.27231400  1
loop_
_geom_bond_atom_site_label_1
_geom_bond_atom_site_label_2
_geom_bond_distance
_geom_bond_site_symmetry_2
Mg0 S4 2.455327 1_565
Mg0 S7 2.455383 1_556
Mg0 S5 2.455384 1_655
Mg0 S0 2.540603 1_555
Mg1 S2 2.455352 1_545
Mg1 S1 2.455357 1_554
Mg1 S3 2.455393 1_455
Mg1 S6 2.540590 1_555
Mo0 S3 2.527104 1_555
Mo0 S2 2.527111 1_555
Mo0 S4 2.527114 1_554
Mo0 S5 2.527135 1_554
Mo0 S6 2.555474 1_555
Mo0 S0 2.555507 1_554
Mo1 S1 2.527091 1_655
Mo1 S4 2.527105 1_555
Mo1 S7 2.527111 1_555
Mo1 S2 2.527152 1_655
Mo1 S0 2.555444 1_555
Mo1 S6 2.555462 1_655
Mo2 S1 2.527113 1_565
Mo2 S5 2.527128 1_555
Mo2 S7 2.527136 1_555
Mo2 S3 2.527173 1_565
Mo2 S0 2.555485 1_555
Mo2 S6 2.555505 1_565
S1 Sm0 2.749613 1_555
S2 Sm0 2.749522 1_555
S3 Sm0 2.749561 1_555
S4 Sm0 2.749591 1_555
S5 Sm0 2.749563 1_555
S7 Sm0 2.749554 1_555
