# generated using pymatgen
data_MgFe(GeO3)2
_symmetry_space_group_name_H-M   'P 1'
_cell_length_a   9.17583800
_cell_length_b   5.46532400
_cell_length_c   9.92229217
_cell_angle_alpha   75.56002122
_cell_angle_beta   90.00000000
_cell_angle_gamma   90.00000000
_symmetry_Int_Tables_number   1
_chemical_formula_structural   MgFe(GeO3)2
_chemical_formula_sum   'Mg4 Fe4 Ge8 O24'
_cell_volume   481.87307203
_cell_formula_units_Z   4
loop_
 _symmetry_equiv_pos_site_id
 _symmetry_equiv_pos_as_xyz
  1  'x, y, z'
loop_
 _atom_site_type_symbol
 _atom_site_label
 _atom_site_symmetry_multiplicity
 _atom_site_fract_x
 _atom_site_fract_y
 _atom_site_fract_z
 _atom_site_occupancy
  Mg  Mg0  1  0.48775300  0.55246900  0.24256000  1
  Mg  Mg1  1  0.98775300  0.94753100  0.75744000  1
  Mg  Mg2  1  0.51224700  0.44753100  0.75744000  1
  Mg  Mg3  1  0.01224700  0.05246900  0.24256000  1
  Fe  Fe0  1  0.65508400  0.04452300  0.24626100  1
  Fe  Fe1  1  0.15508400  0.45547700  0.75373900  1
  Fe  Fe2  1  0.34491600  0.95547700  0.75373900  1
  Fe  Fe3  1  0.84491600  0.54452300  0.24626100  1
  Ge  Ge0  1  0.33851200  0.17772200  0.05497900  1
  Ge  Ge1  1  0.83851200  0.32227800  0.94502100  1
  Ge  Ge2  1  0.66148800  0.82227800  0.94502100  1
  Ge  Ge3  1  0.16148800  0.67772200  0.05497900  1
  Ge  Ge4  1  0.34378100  0.74979400  0.45750600  1
  Ge  Ge5  1  0.84378100  0.75020600  0.54249400  1
  Ge  Ge6  1  0.65621900  0.25020600  0.54249400  1
  Ge  Ge7  1  0.15621900  0.24979400  0.45750600  1
  O  O0  1  0.29054400  0.48552900  0.38769800  1
  O  O1  1  0.79054400  0.01447100  0.61230200  1
  O  O2  1  0.70945600  0.51447100  0.61230200  1
  O  O3  1  0.20945600  0.98552900  0.38769800  1
  O  O4  1  0.32091000  0.83262200  0.10922700  1
  O  O5  1  0.82091000  0.66737800  0.89077300  1
  O  O6  1  0.67909000  0.16737800  0.89077300  1
  O  O7  1  0.17909000  0.33262200  0.10922700  1
  O  O8  1  0.99276600  0.30312000  0.36694900  1
  O  O9  1  0.49276600  0.19688000  0.63305100  1
  O  O10  1  0.00723400  0.69688000  0.63305100  1
  O  O11  1  0.50723400  0.80312000  0.36694900  1
  O  O12  1  0.01753100  0.77571700  0.14026200  1
  O  O13  1  0.51753100  0.72428300  0.85973800  1
  O  O14  1  0.98246900  0.22428300  0.85973800  1
  O  O15  1  0.48246900  0.27571700  0.14026200  1
  O  O16  1  0.33891700  0.25117200  0.87111600  1
  O  O17  1  0.83891700  0.24882800  0.12888400  1
  O  O18  1  0.66108300  0.74882800  0.12888400  1
  O  O19  1  0.16108300  0.75117200  0.87111600  1
  O  O20  1  0.34673100  0.67169900  0.63933800  1
  O  O21  1  0.84673100  0.82830100  0.36066200  1
  O  O22  1  0.65326900  0.32830100  0.36066200  1
  O  O23  1  0.15326900  0.17169900  0.63933800  1
loop_
_geom_bond_atom_site_label_1
_geom_bond_atom_site_label_2
_geom_bond_distance
_geom_bond_site_symmetry_2
Mg0 O15 2.021411 1_555
Mg0 O11 2.067629 1_555
Mg0 O18 2.085602 1_555
Mg0 O22 2.113004 1_555
Mg0 O0 2.284617 1_555
Mg0 O4 2.329824 1_555
Mg1 O14 2.021411 1_565
Mg1 O10 2.067629 1_655
Mg1 O19 2.085602 1_655
Mg1 O23 2.113004 1_665
Mg1 O1 2.284617 1_565
Mg1 O5 2.329824 1_555
Mg2 O13 2.021411 1_555
Mg2 O9 2.067629 1_555
Mg2 O16 2.085602 1_555
Mg2 O20 2.113004 1_555
Mg2 O2 2.284617 1_555
Mg2 O6 2.329824 1_555
Mg3 O12 2.021411 1_545
Mg3 O8 2.067629 1_455
Mg3 O17 2.085602 1_455
Mg3 O21 2.113004 1_445
Mg3 O3 2.284617 1_545
Mg3 O7 2.329824 1_555
Fe0 O11 2.056021 1_545
Fe0 O15 2.132758 1_555
Fe0 O22 2.138271 1_555
Fe0 O17 2.190887 1_555
Fe0 O18 2.215808 1_545
Fe0 O21 2.260170 1_545
Fe1 O10 2.056021 1_555
Fe1 O14 2.132758 1_455
Fe1 O23 2.138271 1_555
Fe1 O16 2.190887 1_555
Fe1 O19 2.215808 1_555
Fe1 O20 2.260170 1_555
Fe2 O9 2.056021 1_565
Fe2 O13 2.132758 1_555
Fe2 O20 2.138271 1_555
Fe2 O19 2.190887 1_555
Fe2 O16 2.215808 1_565
Fe2 O23 2.260170 1_565
Fe3 O8 2.056021 1_555
Fe3 O12 2.132758 1_655
Fe3 O21 2.138271 1_555
Fe3 O18 2.190887 1_555
Fe3 O17 2.215808 1_555
Fe3 O22 2.260170 1_555
Ge0 O15 1.724463 1_555
Ge0 O16 1.767524 1_554
Ge0 O4 1.834886 1_545
Ge0 O7 1.836726 1_555
Ge1 O14 1.724463 1_555
Ge1 O17 1.767524 1_556
Ge1 O5 1.834886 1_555
Ge1 O6 1.836726 1_555
Ge2 O13 1.724463 1_555
Ge2 O18 1.767524 1_556
Ge2 O6 1.834886 1_565
Ge2 O5 1.836726 1_555
Ge3 O12 1.724463 1_555
Ge3 O19 1.767524 1_554
Ge3 O7 1.834886 1_555
Ge3 O4 1.836726 1_555
Ge4 O11 1.735267 1_555
Ge4 O20 1.747557 1_555
Ge4 O3 1.792698 1_555
Ge4 O0 1.817502 1_555
Ge5 O10 1.735267 1_655
Ge5 O21 1.747557 1_555
Ge5 O2 1.792698 1_555
Ge5 O1 1.817502 1_565
Ge6 O9 1.735267 1_555
Ge6 O22 1.747557 1_555
Ge6 O1 1.792698 1_555
Ge6 O2 1.817502 1_555
Ge7 O8 1.735267 1_455
Ge7 O23 1.747557 1_555
Ge7 O0 1.792698 1_555
Ge7 O3 1.817502 1_545
