# generated using pymatgen
data_KCr2Fe(HO4)2
_symmetry_space_group_name_H-M   'P 1'
_cell_length_a   6.11851878
_cell_length_b   6.11851878
_cell_length_c   7.79258017
_cell_angle_alpha   68.42016287
_cell_angle_beta   68.42016287
_cell_angle_gamma   53.87995937
_symmetry_Int_Tables_number   1
_chemical_formula_structural   KCr2Fe(HO4)2
_chemical_formula_sum   'K1 Cr2 Fe1 H2 O8'
_cell_volume   214.66059834
_cell_formula_units_Z   1
loop_
 _symmetry_equiv_pos_site_id
 _symmetry_equiv_pos_as_xyz
  1  'x, y, z'
loop_
 _atom_site_type_symbol
 _atom_site_label
 _atom_site_symmetry_multiplicity
 _atom_site_fract_x
 _atom_site_fract_y
 _atom_site_fract_z
 _atom_site_occupancy
  K  K0  1  0.00000000  0.00000000  0.50000000  1
  Cr  Cr0  1  0.39429600  0.39429600  0.28210200  1
  Cr  Cr1  1  0.60570400  0.60570400  0.71789800  1
  Fe  Fe0  1  0.00000000  0.00000000  0.00000000  1
  H  H0  1  0.82483100  0.82483100  0.07581000  1
  H  H1  1  0.17516900  0.17516900  0.92419000  1
  O  O0  1  0.74340700  0.22885600  0.18542900  1
  O  O1  1  0.25659300  0.77114400  0.81457100  1
  O  O2  1  0.77114400  0.25659300  0.81457100  1
  O  O3  1  0.22885600  0.74340700  0.18542900  1
  O  O4  1  0.64446000  0.64446000  0.49293000  1
  O  O5  1  0.35554000  0.35554000  0.50707000  1
  O  O6  1  0.25900100  0.25900100  0.24549000  1
  O  O7  1  0.74099900  0.74099900  0.75451000  1
loop_
_geom_bond_atom_site_label_1
_geom_bond_atom_site_label_2
_geom_bond_distance
_geom_bond_site_symmetry_2
K0 O6 2.700530 1_555
K0 O7 2.700530 1_445
K0 O3 2.854599 1_545
K0 O0 2.854599 1_455
K0 O1 2.854599 1_545
K0 O2 2.854599 1_455
K0 O4 3.177913 1_455
K0 O5 3.177913 1_545
K0 O5 3.177913 1_455
K0 O4 3.177913 1_545
Cr0 O6 1.614705 1_555
Cr0 O5 1.624950 1_555
Cr0 O0 1.727118 1_555
Cr0 O3 1.727118 1_555
Cr1 O7 1.614705 1_555
Cr1 O4 1.624950 1_555
Cr1 O2 1.727118 1_555
Cr1 O1 1.727118 1_555
Fe0 H1 1.751905 1_554
Fe0 H0 1.751905 1_445
Fe0 O2 1.934245 1_454
Fe0 O1 1.934245 1_544
Fe0 O3 1.934245 1_545
Fe0 O0 1.934245 1_455
