# generated using pymatgen
data_KSm(WO4)2
_symmetry_space_group_name_H-M   'P 1'
_cell_length_a   7.48334652
_cell_length_b   7.48334652
_cell_length_c   7.55997917
_cell_angle_alpha   66.41966522
_cell_angle_beta   66.41966522
_cell_angle_gamma   93.13890651
_symmetry_Int_Tables_number   1
_chemical_formula_structural   KSm(WO4)2
_chemical_formula_sum   'K2 Sm2 W4 O16'
_cell_volume   343.79043533
_cell_formula_units_Z   2
loop_
 _symmetry_equiv_pos_site_id
 _symmetry_equiv_pos_as_xyz
  1  'x, y, z'
loop_
 _atom_site_type_symbol
 _atom_site_label
 _atom_site_symmetry_multiplicity
 _atom_site_fract_x
 _atom_site_fract_y
 _atom_site_fract_z
 _atom_site_occupancy
  K  K0  1  0.68861900  0.68861900  0.47352300  1
  K  K1  1  0.31138100  0.31138100  0.52647700  1
  Sm  Sm0  1  0.69944600  0.30055400  0.00000000  1
  Sm  Sm1  1  0.30055400  0.69944600  0.00000000  1
  W  W0  1  0.20529400  0.20529400  0.05500800  1
  W  W1  1  0.79470600  0.79470600  0.94499200  1
  W  W2  1  0.83788800  0.16211200  0.50000000  1
  W  W3  1  0.16211200  0.83788800  0.50000000  1
  O  O0  1  0.34914400  0.09555700  0.25895500  1
  O  O1  1  0.65085600  0.90444300  0.74104500  1
  O  O2  1  0.90444300  0.65085600  0.74104500  1
  O  O3  1  0.09555700  0.34914400  0.25895500  1
  O  O4  1  0.69171800  0.21673200  0.35053800  1
  O  O5  1  0.30828200  0.78326800  0.64946200  1
  O  O6  1  0.78326800  0.30828200  0.64946200  1
  O  O7  1  0.21673200  0.69171800  0.35053800  1
  O  O8  1  0.70540700  0.96228200  0.06396600  1
  O  O9  1  0.29459300  0.03771800  0.93603400  1
  O  O10  1  0.03771800  0.29459300  0.93603400  1
  O  O11  1  0.96228200  0.70540700  0.06396600  1
  O  O12  1  0.98320300  0.98320300  0.34428100  1
  O  O13  1  0.01679700  0.01679700  0.65571900  1
  O  O14  1  0.57104100  0.57104100  0.11118000  1
  O  O15  1  0.42895900  0.42895900  0.88882000  1
loop_
_geom_bond_atom_site_label_1
_geom_bond_atom_site_label_2
_geom_bond_distance
_geom_bond_site_symmetry_2
K0 O12 2.587528 1_555
K0 O15 2.689484 1_555
K0 O5 2.883979 1_555
K0 O6 2.883979 1_555
K0 O8 2.895506 1_555
K0 O11 2.895506 1_555
K0 O1 2.997467 1_555
K0 O2 2.997467 1_555
K1 O13 2.587528 1_555
K1 O14 2.689484 1_555
K1 O7 2.883979 1_555
K1 O4 2.883979 1_555
K1 O9 2.895506 1_555
K1 O10 2.895506 1_555
K1 O3 2.997467 1_555
K1 O0 2.997467 1_555
O0 W3 1.962226 1_545
O0 W0 2.149918 1_555
O0 Sm0 2.471579 1_555
O1 W2 1.962226 1_565
O1 W1 2.149918 1_555
O1 Sm1 2.471579 1_556
O2 W3 1.962226 1_655
O2 W1 2.149918 1_555
O2 Sm0 2.471579 1_556
O3 W2 1.962226 1_455
O3 W0 2.149918 1_555
O3 Sm1 2.471579 1_555
O4 W2 1.818957 1_555
O4 Sm0 2.441943 1_555
O5 W3 1.818957 1_555
O5 Sm1 2.441943 1_556
O6 W2 1.818957 1_555
O6 Sm0 2.441943 1_556
O7 W3 1.818957 1_555
O7 Sm1 2.441943 1_555
O8 W1 1.827964 1_554
O8 Sm0 2.386229 1_565
O9 W0 1.827964 1_556
O9 Sm1 2.386229 1_546
O10 W0 1.827964 1_556
O10 Sm0 2.386229 1_456
O11 W1 1.827964 1_554
O11 Sm1 2.386229 1_655
O12 W0 2.046598 1_665
O12 W3 2.181082 1_655
O12 W2 2.181082 1_565
O13 W1 2.046598 1_445
O13 W2 2.181082 1_455
O13 W3 2.181082 1_545
O14 W1 1.873433 1_554
O14 Sm1 2.579725 1_555
O14 Sm0 2.579725 1_555
O15 W0 1.873433 1_556
O15 Sm1 2.579725 1_556
O15 Sm0 2.579725 1_556
