# generated using pymatgen
data_Mg6ZrGa
_symmetry_space_group_name_H-M   'P 1'
_cell_length_a   5.01379500
_cell_length_b   6.07730100
_cell_length_c   11.25752400
_cell_angle_alpha   90.00000000
_cell_angle_beta   90.00000000
_cell_angle_gamma   90.00000000
_symmetry_Int_Tables_number   1
_chemical_formula_structural   Mg6ZrGa
_chemical_formula_sum   'Mg12 Zr2 Ga2'
_cell_volume   343.02059923
_cell_formula_units_Z   2
loop_
 _symmetry_equiv_pos_site_id
 _symmetry_equiv_pos_as_xyz
  1  'x, y, z'
loop_
 _atom_site_type_symbol
 _atom_site_label
 _atom_site_symmetry_multiplicity
 _atom_site_fract_x
 _atom_site_fract_y
 _atom_site_fract_z
 _atom_site_occupancy
  Mg  Mg0  1  0.50000000  0.74958900  0.92178500  1
  Mg  Mg1  1  0.50000000  0.25041100  0.92178500  1
  Mg  Mg2  1  0.00000000  0.25293800  0.58052500  1
  Mg  Mg3  1  0.00000000  0.74706200  0.58052500  1
  Mg  Mg4  1  0.00000000  0.50000000  0.83061900  1
  Mg  Mg5  1  0.00000000  0.00000000  0.82382900  1
  Mg  Mg6  1  0.50000000  0.24958900  0.42178500  1
  Mg  Mg7  1  0.50000000  0.75041100  0.42178500  1
  Mg  Mg8  1  0.00000000  0.75293800  0.08052500  1
  Mg  Mg9  1  0.00000000  0.24706200  0.08052500  1
  Mg  Mg10  1  0.00000000  0.00000000  0.33061900  1
  Mg  Mg11  1  0.00000000  0.50000000  0.32382900  1
  Zr  Zr0  1  0.50000000  0.50000000  0.67412400  1
  Zr  Zr1  1  0.50000000  0.00000000  0.17412400  1
  Ga  Ga0  1  0.50000000  0.00000000  0.66680400  1
  Ga  Ga1  1  0.50000000  0.50000000  0.16680400  1
loop_
_geom_bond_atom_site_label_1
_geom_bond_atom_site_label_2
_geom_bond_distance
_geom_bond_site_symmetry_2
Mg0 Mg1 3.033655 1_555
Mg0 Mg1 3.043646 1_565
Mg0 Mg8 3.078699 1_656
Mg0 Mg8 3.078699 1_556
Mg0 Mg4 3.104609 1_655
Mg0 Mg4 3.104609 1_555
Mg0 Mg5 3.133133 1_565
Mg0 Mg5 3.133133 1_665
Mg0 Zr0 3.173954 1_555
Mg0 Zr1 3.222668 1_566
Mg1 Mg9 3.078699 1_556
Mg1 Mg9 3.078699 1_656
Mg1 Mg4 3.104609 1_555
Mg1 Mg4 3.104609 1_655
Mg1 Mg5 3.133133 1_655
Mg1 Mg5 3.133133 1_555
Mg1 Zr0 3.173954 1_555
Mg1 Zr1 3.222668 1_556
Mg2 Mg3 3.002940 1_555
Mg2 Mg3 3.074361 1_545
Mg2 Mg6 3.078699 1_555
Mg2 Mg6 3.078699 1_455
Mg2 Zr0 3.106319 1_455
Mg2 Zr0 3.106319 1_555
Mg2 Mg5 3.140867 1_555
Mg2 Mg4 3.190785 1_555
Mg3 Mg7 3.078699 1_455
Mg3 Mg7 3.078699 1_555
Mg3 Zr0 3.106319 1_455
Mg3 Zr0 3.106319 1_555
Mg3 Mg5 3.140867 1_565
Mg3 Mg4 3.190785 1_555
Mg4 Mg5 3.039612 1_555
Mg4 Mg5 3.039612 1_565
Mg4 Zr0 3.064031 1_555
Mg4 Zr0 3.064031 1_455
Mg4 Mg8 3.205887 1_556
Mg4 Mg9 3.205887 1_556
Mg5 Mg9 3.256552 1_556
Mg5 Mg8 3.256552 1_546
Mg6 Mg7 3.033655 1_545
Mg6 Mg7 3.043646 1_555
Mg6 Zr1 3.173954 1_555
Mg6 Zr0 3.222668 1_555
Mg7 Zr1 3.173954 1_565
Mg7 Zr0 3.222668 1_555
Mg8 Mg9 3.002940 1_565
Mg8 Mg9 3.074361 1_555
Mg8 Zr1 3.106319 1_465
Mg8 Zr1 3.106319 1_565
Mg9 Zr1 3.106319 1_555
Mg9 Zr1 3.106319 1_455
Mg10 Mg11 3.039612 1_545
Mg10 Mg11 3.039612 1_555
Mg10 Zr1 3.064031 1_455
Mg10 Zr1 3.064031 1_555
Mg10 Mg6 3.104609 1_455
Mg10 Mg6 3.104609 1_555
Mg10 Mg7 3.104609 1_545
Mg10 Mg7 3.104609 1_445
Mg10 Mg9 3.190785 1_555
Mg10 Mg8 3.190785 1_545
Mg10 Mg3 3.205887 1_545
Mg10 Mg2 3.205887 1_555
Mg11 Mg7 3.133133 1_455
Mg11 Mg7 3.133133 1_555
Mg11 Mg6 3.133133 1_455
Mg11 Mg6 3.133133 1_555
Mg11 Mg8 3.140867 1_555
Mg11 Mg9 3.140867 1_555
Mg11 Mg3 3.256552 1_555
Mg11 Mg2 3.256552 1_555
Ga0 Zr0 3.039768 1_545
Ga0 Zr0 3.039768 1_555
Ga0 Mg5 3.067465 1_555
Ga0 Mg5 3.067465 1_655
Ga0 Mg2 3.096911 1_555
Ga0 Mg3 3.096911 1_645
Ga0 Mg3 3.096911 1_545
Ga0 Mg2 3.096911 1_655
Ga0 Mg6 3.147860 1_555
Ga0 Mg7 3.147860 1_545
Ga0 Mg0 3.248916 1_545
Ga0 Mg1 3.248916 1_555
Ga1 Zr1 3.039768 1_565
Ga1 Zr1 3.039768 1_555
Ga1 Mg11 3.067465 1_555
Ga1 Mg11 3.067465 1_655
Ga1 Mg8 3.096911 1_655
Ga1 Mg8 3.096911 1_555
Ga1 Mg9 3.096911 1_655
Ga1 Mg9 3.096911 1_555
Ga1 Mg1 3.147860 1_554
Ga1 Mg0 3.147860 1_554
Ga1 Mg7 3.248916 1_555
Ga1 Mg6 3.248916 1_555
