# generated using pymatgen
data_MgCo4(P2O7)4
_symmetry_space_group_name_H-M   'P 1'
_cell_length_a   6.83834011
_cell_length_b   8.07748512
_cell_length_c   9.43823638
_cell_angle_alpha   90.09435496
_cell_angle_beta   108.90149321
_cell_angle_gamma   90.36807906
_symmetry_Int_Tables_number   1
_chemical_formula_structural   MgCo4(P2O7)4
_chemical_formula_sum   'Mg1 Co4 P8 O28'
_cell_volume   493.20994630
_cell_formula_units_Z   1
loop_
 _symmetry_equiv_pos_site_id
 _symmetry_equiv_pos_as_xyz
  1  'x, y, z'
loop_
 _atom_site_type_symbol
 _atom_site_label
 _atom_site_symmetry_multiplicity
 _atom_site_fract_x
 _atom_site_fract_y
 _atom_site_fract_z
 _atom_site_occupancy
  Mg  Mg0  1  0.82693200  0.38243800  0.96026400  1
  Co  Co0  1  0.71650000  0.77418400  0.00645400  1
  Co  Co1  1  0.71524000  0.72906000  0.49978700  1
  Co  Co2  1  0.27149700  0.27089700  0.49545000  1
  Co  Co3  1  0.28344800  0.22669400  0.99740100  1
  P  P0  1  0.54623100  0.09134600  0.79480300  1
  P  P1  1  0.46795200  0.91877200  0.20225100  1
  P  P2  1  0.52639900  0.40891000  0.29576500  1
  P  P3  1  0.94593500  0.96304700  0.79594700  1
  P  P4  1  0.06019100  0.46572400  0.70875300  1
  P  P5  1  0.05918600  0.04184100  0.20301600  1
  P  P6  1  0.46873100  0.58249300  0.70329300  1
  P  P7  1  0.92847200  0.52643200  0.29550300  1
  O  O0  1  0.51166800  0.58111900  0.35755500  1
  O  O1  1  0.88001500  0.56553400  0.12635100  1
  O  O2  1  0.85871800  0.94441400  0.15920800  1
  O  O3  1  0.90932300  0.67568000  0.38788800  1
  O  O4  1  0.06982000  0.40090100  0.86669600  1
  O  O5  1  0.15329800  0.05901300  0.85527500  1
  O  O6  1  0.08700800  0.32411800  0.60968900  1
  O  O7  1  0.24522300  0.59933000  0.72635900  1
  O  O8  1  0.11062600  0.10005300  0.36515800  1
  O  O9  1  0.13860400  0.44292000  0.35143200  1
  O  O10  1  0.05180200  0.18740600  0.09244900  1
  O  O11  1  0.54152000  0.23830900  0.89888200  1
  O  O12  1  0.39175300  0.09517400  0.63614800  1
  O  O13  1  0.52586000  0.92090300  0.85750500  1
  O  O14  1  0.22861100  0.90656300  0.19282500  1
  O  O15  1  0.47702800  0.41294500  0.63374900  1
  O  O16  1  0.62638800  0.58021100  0.86502900  1
  O  O17  1  0.91234100  0.89520700  0.64048300  1
  O  O18  1  0.47791700  0.26579000  0.38439600  1
  O  O19  1  0.39383500  0.40490300  0.12684300  1
  O  O20  1  0.76258200  0.38284100  0.30036000  1
  O  O21  1  0.77901100  0.11043500  0.78667400  1
  O  O22  1  0.48905300  0.08918000  0.13746300  1
  O  O23  1  0.60008200  0.90846600  0.36742500  1
  O  O24  1  0.50880200  0.77592200  0.10631500  1
  O  O25  1  0.92247400  0.83245000  0.90757500  1
  O  O26  1  0.85794700  0.55758300  0.64701800  1
  O  O27  1  0.50530900  0.72746100  0.61170700  1
loop_
_geom_bond_atom_site_label_1
_geom_bond_atom_site_label_2
_geom_bond_distance
_geom_bond_site_symmetry_2
Mg0 O1 2.095984 1_556
Mg0 O16 2.115400 1_555
Mg0 O4 2.123316 1_655
Mg0 O11 2.176306 1_555
Mg0 O10 2.279816 1_656
Co0 O24 1.942502 1_555
Co0 O13 1.979474 1_554
Co0 O25 1.980138 1_554
Co0 O2 1.995741 1_555
Co0 O16 2.015969 1_554
Co0 O1 2.140567 1_555
Co1 O23 1.914179 1_555
Co1 O0 1.982578 1_555
Co1 O26 1.986696 1_555
Co1 O3 1.994189 1_555
Co1 O27 2.039404 1_555
Co1 O17 2.047546 1_555
Co2 O8 1.930088 1_555
Co2 O12 1.941154 1_555
Co2 O15 1.944598 1_555
Co2 O6 1.955946 1_555
Co2 O9 1.956111 1_555
Co2 O18 2.012967 1_555
Co3 O19 1.875431 1_556
Co3 O5 1.905536 1_555
Co3 O22 1.943932 1_556
Co3 O10 2.080845 1_556
Co3 O4 2.121455 1_555
Co3 O11 2.247043 1_555
O0 P2 1.523933 1_555
O1 P7 1.555192 1_555
O2 P5 1.512412 1_665
O3 P7 1.517674 1_555
O4 P4 1.562087 1_555
O5 P3 1.547648 1_445
O6 P4 1.525261 1_555
O7 P6 1.618679 1_555
O7 P4 1.624482 1_555
O8 P5 1.527578 1_555
O9 P7 1.523389 1_455
O10 P5 1.563563 1_555
O11 P0 1.546717 1_555
O12 P0 1.528032 1_555
O13 P0 1.522728 1_565
O14 P1 1.612443 1_555
O14 P5 1.622867 1_565
O15 P6 1.527023 1_555
O16 P6 1.557875 1_555
O17 P3 1.511087 1_555
O18 P2 1.524492 1_555
O19 P2 1.558131 1_555
O20 P2 1.616721 1_555
O20 P7 1.628256 1_555
O21 P0 1.624682 1_555
O21 P3 1.637397 1_545
O22 P1 1.531922 1_545
O23 P1 1.530507 1_555
O24 P1 1.547221 1_555
O25 P3 1.536084 1_555
O26 P4 1.515023 1_655
O27 P6 1.523356 1_555
