# generated using pymatgen
data_Li5Fe2P2(CO7)2
_symmetry_space_group_name_H-M   'P 1'
_cell_length_a   6.46824400
_cell_length_b   9.38372100
_cell_length_c   10.16137940
_cell_angle_alpha   63.43990387
_cell_angle_beta   90.00000000
_cell_angle_gamma   90.00000000
_symmetry_Int_Tables_number   1
_chemical_formula_structural   Li5Fe2P2(CO7)2
_chemical_formula_sum   'Li10 Fe4 P4 C4 O28'
_cell_volume   551.66815991
_cell_formula_units_Z   2
loop_
 _symmetry_equiv_pos_site_id
 _symmetry_equiv_pos_as_xyz
  1  'x, y, z'
loop_
 _atom_site_type_symbol
 _atom_site_label
 _atom_site_symmetry_multiplicity
 _atom_site_fract_x
 _atom_site_fract_y
 _atom_site_fract_z
 _atom_site_occupancy
  Li  Li0  1  0.49429200  0.10379900  0.55639000  1
  Li  Li1  1  0.50570800  0.10379900  0.05639000  1
  Li  Li2  1  0.31729700  0.28995500  0.73880100  1
  Li  Li3  1  0.68270300  0.28995500  0.23880100  1
  Li  Li4  1  0.74308700  0.73927800  0.76221400  1
  Li  Li5  1  0.25788800  0.73936700  0.76008100  1
  Li  Li6  1  0.74211200  0.73936700  0.26008100  1
  Li  Li7  1  0.25691300  0.73927800  0.26221400  1
  Li  Li8  1  0.99104300  0.89994500  0.93190800  1
  Li  Li9  1  0.00895700  0.89994500  0.43190800  1
  Fe  Fe0  1  0.00031100  0.32643600  0.93855500  1
  Fe  Fe1  1  0.99968900  0.32643600  0.43855500  1
  Fe  Fe2  1  0.49861600  0.66752400  0.56015000  1
  Fe  Fe3  1  0.50138400  0.66752400  0.06015000  1
  P  P0  1  0.50603100  0.41315600  0.93436900  1
  P  P1  1  0.49396900  0.41315600  0.43436900  1
  P  P2  1  0.00514800  0.58047000  0.57957100  1
  P  P3  1  0.99485200  0.58047000  0.07957100  1
  C  C0  1  0.00141300  0.03690200  0.63007800  1
  C  C1  1  0.99858700  0.03690200  0.13007800  1
  C  C2  1  0.48349900  0.96325100  0.85814100  1
  C  C3  1  0.51650100  0.96325100  0.35814100  1
  O  O0  1  0.00699700  0.06916400  0.99123900  1
  O  O1  1  0.99300300  0.06916400  0.49123900  1
  O  O2  1  0.45551500  0.10078200  0.75304200  1
  O  O3  1  0.00611300  0.15928100  0.65760400  1
  O  O4  1  0.54448500  0.10078200  0.25304200  1
  O  O5  1  0.99388700  0.15928100  0.15760400  1
  O  O6  1  0.31871100  0.30388400  0.93991300  1
  O  O7  1  0.69449200  0.31067100  0.93213800  1
  O  O8  1  0.30550800  0.31067100  0.43213800  1
  O  O9  1  0.68128900  0.30388400  0.43991300  1
  O  O10  1  0.03587500  0.42343000  0.72060700  1
  O  O11  1  0.48268800  0.44019800  0.57298700  1
  O  O12  1  0.96412500  0.42343000  0.22060700  1
  O  O13  1  0.51731200  0.44019800  0.07298700  1
  O  O14  1  0.00097700  0.54063600  0.94498300  1
  O  O15  1  0.49320600  0.57569100  0.79655700  1
  O  O16  1  0.99902300  0.54063600  0.44498300  1
  O  O17  1  0.50679400  0.57569100  0.29655700  1
  O  O18  1  0.81248800  0.67874200  0.57891200  1
  O  O19  1  0.18314700  0.70066700  0.55912800  1
  O  O20  1  0.18751200  0.67874200  0.07891200  1
  O  O21  1  0.81685300  0.70066700  0.05912800  1
  O  O22  1  0.50155000  0.83894700  0.82955100  1
  O  O23  1  0.00394600  0.89262100  0.73496300  1
  O  O24  1  0.49845000  0.83894700  0.32955100  1
  O  O25  1  0.99605400  0.89262100  0.23496300  1
  O  O26  1  0.50695300  0.93409200  0.49628600  1
  O  O27  1  0.49304700  0.93409200  0.99628600  1
loop_
_geom_bond_atom_site_label_1
_geom_bond_atom_site_label_2
_geom_bond_distance
_geom_bond_site_symmetry_2
Li0 O26 1.945630 1_545
Li0 O2 2.001536 1_555
Li0 O9 2.098032 1_555
Li0 O8 2.159105 1_555
Li1 O27 1.945630 1_544
Li1 O4 2.001536 1_555
Li1 O6 2.098032 1_554
Li1 O7 2.159105 1_554
Li2 O2 1.934335 1_555
Li2 O11 1.961298 1_555
Li2 O6 2.105287 1_555
Li2 O10 2.170105 1_555
Li3 O4 1.934335 1_555
Li3 O13 1.961298 1_555
Li3 O9 2.105287 1_555
Li3 O12 2.170105 1_555
Li4 O22 2.087111 1_555
Li4 O15 2.147445 1_555
Li4 O23 2.153566 1_655
Li4 O18 2.222537 1_555
Li4 O14 2.571068 1_655
Li5 O15 2.074614 1_555
Li5 O22 2.108397 1_555
Li5 O23 2.122030 1_555
Li5 O19 2.279985 1_555
Li5 O14 2.576017 1_555
Li6 O17 2.074614 1_555
Li6 O24 2.108397 1_555
Li6 O25 2.122030 1_555
Li6 O21 2.279985 1_555
Li6 O16 2.576017 1_555
Li7 O24 2.087111 1_555
Li7 O17 2.147445 1_555
Li7 O25 2.153566 1_455
Li7 O20 2.222537 1_555
Li7 O16 2.571068 1_455
Li8 O0 1.936922 1_665
Li8 O23 2.034605 1_655
Li8 O21 2.067756 1_556
Li8 O20 2.319925 1_656
Li9 O1 1.936922 1_465
Li9 O25 2.034605 1_455
Li9 O19 2.067756 1_555
Li9 O18 2.319925 1_455
Fe0 O7 1.986879 1_455
Fe0 O10 1.995850 1_555
Fe0 O14 2.040040 1_555
Fe0 O6 2.069748 1_555
Fe0 O5 2.072248 1_456
Fe0 O0 2.227310 1_555
Fe1 O8 1.986879 1_655
Fe1 O12 1.995850 1_555
Fe1 O16 2.040040 1_555
Fe1 O9 2.069748 1_555
Fe1 O3 2.072248 1_655
Fe1 O1 2.227310 1_555
Fe2 O18 2.046238 1_555
Fe2 O19 2.063421 1_555
Fe2 O11 2.080669 1_555
Fe2 O15 2.159459 1_555
Fe2 O24 2.169659 1_555
Fe2 O26 2.286786 1_555
Fe3 O20 2.046238 1_555
Fe3 O21 2.063421 1_555
Fe3 O13 2.080669 1_555
Fe3 O17 2.159459 1_555
Fe3 O22 2.169659 1_554
Fe3 O27 2.286786 1_554
C0 O23 1.295679 1_545
C0 O3 1.298135 1_555
C0 O1 1.304994 1_455
C1 O25 1.295679 1_545
C1 O5 1.298135 1_555
C1 O0 1.304994 1_654
C2 O2 1.267391 1_565
C2 O27 1.306023 1_555
C2 O22 1.327267 1_555
C3 O4 1.267391 1_565
C3 O26 1.306023 1_555
C3 O24 1.327267 1_555
O6 P0 1.571931 1_555
O7 P0 1.559118 1_555
O8 P1 1.559118 1_555
O9 P1 1.571931 1_555
O10 P2 1.541525 1_555
O11 P1 1.540573 1_555
O12 P3 1.541525 1_555
O13 P0 1.540573 1_554
O14 P3 1.571231 1_456
O15 P0 1.544047 1_555
O16 P2 1.571231 1_655
O17 P1 1.544047 1_555
O18 P2 1.548496 1_655
O19 P2 1.559282 1_555
O20 P3 1.548496 1_455
O21 P3 1.559282 1_555
