# generated using pymatgen
data_Na2Sb3O8
_symmetry_space_group_name_H-M   'P 1'
_cell_length_a   9.30301200
_cell_length_b   9.30301200
_cell_length_c   9.30301200
_cell_angle_alpha   90.00000000
_cell_angle_beta   90.00000000
_cell_angle_gamma   90.00000000
_symmetry_Int_Tables_number   1
_chemical_formula_structural   Na2Sb3O8
_chemical_formula_sum   'Na8 Sb12 O32'
_cell_volume   805.13877678
_cell_formula_units_Z   4
loop_
 _symmetry_equiv_pos_site_id
 _symmetry_equiv_pos_as_xyz
  1  'x, y, z'
loop_
 _atom_site_type_symbol
 _atom_site_label
 _atom_site_symmetry_multiplicity
 _atom_site_fract_x
 _atom_site_fract_y
 _atom_site_fract_z
 _atom_site_occupancy
  Na  Na0  1  0.50809200  0.50809200  0.50809200  1
  Na  Na1  1  0.49190800  0.00809200  0.99190800  1
  Na  Na2  1  0.74190800  0.74190800  0.74190800  1
  Na  Na3  1  0.75809200  0.25809200  0.24190800  1
  Na  Na4  1  0.99190800  0.49190800  0.00809200  1
  Na  Na5  1  0.00809200  0.99190800  0.49190800  1
  Na  Na6  1  0.24190800  0.75809200  0.25809200  1
  Na  Na7  1  0.25809200  0.24190800  0.75809200  1
  Sb  Sb0  1  0.61872000  0.63128000  0.12500000  1
  Sb  Sb1  1  0.63128000  0.12500000  0.61872000  1
  Sb  Sb2  1  0.62500000  0.88128000  0.36872000  1
  Sb  Sb3  1  0.86872000  0.87500000  0.11872000  1
  Sb  Sb4  1  0.87500000  0.11872000  0.86872000  1
  Sb  Sb5  1  0.88128000  0.36872000  0.62500000  1
  Sb  Sb6  1  0.12500000  0.61872000  0.63128000  1
  Sb  Sb7  1  0.11872000  0.86872000  0.87500000  1
  Sb  Sb8  1  0.13128000  0.37500000  0.38128000  1
  Sb  Sb9  1  0.36872000  0.62500000  0.88128000  1
  Sb  Sb10  1  0.38128000  0.13128000  0.37500000  1
  Sb  Sb11  1  0.37500000  0.38128000  0.13128000  1
  O  O0  1  0.58232900  0.64596000  0.90722700  1
  O  O1  1  0.64596000  0.90722700  0.58232900  1
  O  O2  1  0.60404000  0.66767100  0.34277300  1
  O  O3  1  0.66767100  0.34277300  0.60404000  1
  O  O4  1  0.63653200  0.86346800  0.13653200  1
  O  O5  1  0.65722700  0.10404000  0.83232900  1
  O  O6  1  0.59277300  0.41767100  0.14596000  1
  O  O7  1  0.61346800  0.11346800  0.38653200  1
  O  O8  1  0.90722700  0.58232900  0.64596000  1
  O  O9  1  0.83232900  0.65722700  0.10404000  1
  O  O10  1  0.88653200  0.88653200  0.88653200  1
  O  O11  1  0.84277300  0.89596000  0.33232900  1
  O  O12  1  0.86346800  0.13653200  0.63653200  1
  O  O13  1  0.89596000  0.33232900  0.84277300  1
  O  O14  1  0.85404000  0.09277300  0.08232900  1
  O  O15  1  0.91767100  0.35404000  0.40722700  1
  O  O16  1  0.13653200  0.63653200  0.86346800  1
  O  O17  1  0.10404000  0.83232900  0.65722700  1
  O  O18  1  0.08232900  0.85404000  0.09277300  1
  O  O19  1  0.09277300  0.08232900  0.85404000  1
  O  O20  1  0.14596000  0.59277300  0.41767100  1
  O  O21  1  0.16767100  0.15722700  0.39596000  1
  O  O22  1  0.11346800  0.38653200  0.61346800  1
  O  O23  1  0.15722700  0.39596000  0.16767100  1
  O  O24  1  0.34277300  0.60404000  0.66767100  1
  O  O25  1  0.38653200  0.61346800  0.11346800  1
  O  O26  1  0.33232900  0.84277300  0.89596000  1
  O  O27  1  0.41767100  0.14596000  0.59277300  1
  O  O28  1  0.39596000  0.16767100  0.15722700  1
  O  O29  1  0.40722700  0.91767100  0.35404000  1
  O  O30  1  0.35404000  0.40722700  0.91767100  1
  O  O31  1  0.36346800  0.36346800  0.36346800  1
loop_
_geom_bond_atom_site_label_1
_geom_bond_atom_site_label_2
_geom_bond_distance
_geom_bond_site_symmetry_2
Na0 O2 2.316466 1_555
Na0 O24 2.316466 1_555
Na0 O3 2.316466 1_555
Na0 O31 2.330368 1_555
Na1 O26 2.316466 1_545
Na1 O28 2.316466 1_556
Na1 O5 2.316466 1_555
Na1 O4 2.330368 1_546
Na2 O0 2.316466 1_555
Na2 O8 2.316466 1_555
Na2 O1 2.316466 1_555
Na2 O10 2.330368 1_555
Na3 O15 2.316466 1_555
Na3 O6 2.316466 1_555
Na3 O14 2.316466 1_555
Na3 O7 2.330368 1_555
Na4 O13 2.316466 1_554
Na4 O9 2.316466 1_555
Na4 O23 2.316466 1_655
Na4 O16 2.330368 1_654
Na5 O17 2.316466 1_555
Na5 O11 2.316466 1_455
Na5 O21 2.316466 1_565
Na5 O12 2.330368 1_465
Na6 O29 2.316466 1_555
Na6 O18 2.316466 1_555
Na6 O20 2.316466 1_555
Na6 O25 2.330368 1_555
Na7 O19 2.316466 1_555
Na7 O27 2.316466 1_555
Na7 O30 2.316466 1_555
Na7 O22 2.330368 1_555
O0 Sb9 2.011288 1_555
O0 Sb0 2.058572 1_556
O1 Sb2 2.011288 1_555
O1 Sb1 2.058572 1_565
O2 Sb2 2.011288 1_555
O2 Sb0 2.058572 1_555
O3 Sb5 2.011288 1_555
O3 Sb1 2.058572 1_555
O4 Sb2 2.169049 1_555
O4 Sb3 2.169049 1_555
O4 Sb0 2.169049 1_555
O5 Sb1 2.011288 1_555
O5 Sb4 2.058572 1_555
O6 Sb0 2.011288 1_555
O6 Sb11 2.058572 1_555
O7 Sb10 2.169049 1_555
O7 Sb1 2.169049 1_555
O7 Sb2 2.169049 1_545
O8 Sb5 2.011288 1_555
O8 Sb6 2.058572 1_655
O9 Sb0 2.011288 1_555
O9 Sb3 2.058572 1_555
O10 Sb3 2.169049 1_556
O10 Sb4 2.169049 1_565
O10 Sb7 2.169049 1_655
O11 Sb3 2.011288 1_555
O11 Sb2 2.058572 1_555
O12 Sb5 2.169049 1_555
O12 Sb1 2.169049 1_555
O12 Sb4 2.169049 1_555
O13 Sb4 2.011288 1_555
O13 Sb5 2.058572 1_555
O14 Sb4 2.011288 1_554
O14 Sb3 2.058572 1_545
O15 Sb8 2.011288 1_655
O15 Sb5 2.058572 1_555
O16 Sb9 2.169049 1_555
O16 Sb7 2.169049 1_555
O16 Sb6 2.169049 1_555
O17 Sb6 2.011288 1_555
O17 Sb7 2.058572 1_555
O18 Sb3 2.011288 1_455
O18 Sb7 2.058572 1_554
O19 Sb7 2.011288 1_545
O19 Sb4 2.058572 1_455
O20 Sb6 2.011288 1_555
O20 Sb8 2.058572 1_555
O21 Sb10 2.011288 1_555
O21 Sb8 2.058572 1_555
O22 Sb8 2.169049 1_555
O22 Sb5 2.169049 1_455
O22 Sb6 2.169049 1_555
O23 Sb8 2.011288 1_555
O23 Sb11 2.058572 1_555
O24 Sb9 2.011288 1_555
O24 Sb6 2.058572 1_555
O25 Sb11 2.169049 1_555
O25 Sb9 2.169049 1_554
O25 Sb0 2.169049 1_555
O26 Sb7 2.011288 1_555
O26 Sb9 2.058572 1_555
O27 Sb1 2.011288 1_555
O27 Sb10 2.058572 1_555
O28 Sb11 2.011288 1_555
O28 Sb10 2.058572 1_555
O29 Sb10 2.011288 1_565
O29 Sb2 2.058572 1_555
O30 Sb11 2.011288 1_556
O30 Sb9 2.058572 1_555
O31 Sb11 2.169049 1_555
O31 Sb10 2.169049 1_555
O31 Sb8 2.169049 1_555
