# generated using pymatgen
data_TbAlCo4
_symmetry_space_group_name_H-M   'P 1'
_cell_length_a   4.94849790
_cell_length_b   4.94849790
_cell_length_c   4.01030200
_cell_angle_alpha   90.00000000
_cell_angle_beta   90.00000000
_cell_angle_gamma   120.59363325
_symmetry_Int_Tables_number   1
_chemical_formula_structural   TbAlCo4
_chemical_formula_sum   'Tb1 Al1 Co4'
_cell_volume   84.53282937
_cell_formula_units_Z   1
loop_
 _symmetry_equiv_pos_site_id
 _symmetry_equiv_pos_as_xyz
  1  'x, y, z'
loop_
 _atom_site_type_symbol
 _atom_site_label
 _atom_site_symmetry_multiplicity
 _atom_site_fract_x
 _atom_site_fract_y
 _atom_site_fract_z
 _atom_site_occupancy
  Tb  Tb0  1  0.00000000  0.00000000  0.00000000  1
  Al  Al0  1  0.50000000  0.50000000  0.50000000  1
  Co  Co0  1  0.66920000  0.33080000  0.00000000  1
  Co  Co1  1  0.33080000  0.66920000  0.00000000  1
  Co  Co2  1  0.50000000  0.00000000  0.50000000  1
  Co  Co3  1  0.00000000  0.50000000  0.50000000  1
loop_
_geom_bond_atom_site_label_1
_geom_bond_atom_site_label_2
_geom_bond_distance
_geom_bond_site_symmetry_2
Al0 Co3 2.474249 1_655
Al0 Co2 2.474249 1_555
Al0 Co3 2.474249 1_555
Al0 Co2 2.474249 1_565
Al0 Co1 2.477159 1_555
Al0 Co0 2.477159 1_556
Al0 Co0 2.477159 1_555
Al0 Co1 2.477159 1_556
Al0 Tb0 3.167492 1_666
Al0 Tb0 3.167492 1_665
Al0 Tb0 3.167492 1_555
Al0 Tb0 3.167492 1_556
Co0 Co3 2.450755 1_655
Co0 Co3 2.450755 1_654
Co0 Co2 2.450755 1_555
Co0 Co2 2.450755 1_554
Co0 Co1 2.818203 1_655
Co0 Co1 2.818203 1_545
Co0 Tb0 2.843745 1_655
Co0 Tb0 2.850976 1_555
Co0 Tb0 2.850976 1_665
Co0 Co1 2.909079 1_555
Co1 Co3 2.450755 1_554
Co1 Co2 2.450755 1_565
Co1 Co3 2.450755 1_555
Co1 Co2 2.450755 1_564
Co1 Tb0 2.843745 1_565
Co1 Tb0 2.850976 1_555
Co1 Tb0 2.850976 1_665
Co2 Co3 2.452015 1_655
Co2 Co3 2.452015 1_545
Co2 Tb0 3.184735 1_656
Co2 Tb0 3.184735 1_655
Co2 Tb0 3.184735 1_555
Co2 Tb0 3.184735 1_556
Co3 Tb0 3.184735 1_565
Co3 Tb0 3.184735 1_566
Co3 Tb0 3.184735 1_555
Co3 Tb0 3.184735 1_556
