# generated using pymatgen
data_Dy2NiAs2
_symmetry_space_group_name_H-M   'P 1'
_cell_length_a   4.10604364
_cell_length_b   4.10604364
_cell_length_c   14.28105500
_cell_angle_alpha   90.00000000
_cell_angle_beta   90.00000000
_cell_angle_gamma   119.99999424
_symmetry_Int_Tables_number   1
_chemical_formula_structural   Dy2NiAs2
_chemical_formula_sum   'Dy4 Ni2 As4'
_cell_volume   208.51536894
_cell_formula_units_Z   2
loop_
 _symmetry_equiv_pos_site_id
 _symmetry_equiv_pos_as_xyz
  1  'x, y, z'
loop_
 _atom_site_type_symbol
 _atom_site_label
 _atom_site_symmetry_multiplicity
 _atom_site_fract_x
 _atom_site_fract_y
 _atom_site_fract_z
 _atom_site_occupancy
  Dy  Dy0  1  0.66666700  0.33333300  0.61883200  1
  Dy  Dy1  1  0.33333300  0.66666700  0.11883200  1
  Dy  Dy2  1  0.66666700  0.33333300  0.35300900  1
  Dy  Dy3  1  0.33333300  0.66666700  0.85300900  1
  Ni  Ni0  1  0.00000000  0.00000000  0.99560300  1
  Ni  Ni1  1  0.00000000  0.00000000  0.49560300  1
  As  As0  1  0.66666700  0.33333300  0.98256000  1
  As  As1  1  0.33333300  0.66666700  0.48256000  1
  As  As2  1  0.00000000  0.00000000  0.73432600  1
  As  As3  1  0.00000000  0.00000000  0.23432600  1
loop_
_geom_bond_atom_site_label_1
_geom_bond_atom_site_label_2
_geom_bond_distance
_geom_bond_site_symmetry_2
Dy0 Ni1 2.952438 1_655
Dy0 Ni1 2.952441 1_555
Dy0 Ni1 2.952441 1_665
Dy1 Ni0 2.952438 1_564
Dy1 Ni0 2.952441 1_554
Dy1 Ni0 2.952441 1_664
Dy2 Ni1 3.125180 1_655
Dy2 Ni1 3.125183 1_555
Dy2 Ni1 3.125183 1_665
Dy3 Ni0 3.125180 1_565
Dy3 Ni0 3.125183 1_665
Dy3 Ni0 3.125183 1_555
As0 Ni0 2.377930 1_655
As0 Ni0 2.377933 1_555
As0 Ni0 2.377933 1_665
As0 Dy3 3.007128 1_655
As0 Dy3 3.007128 1_545
As0 Dy3 3.007133 1_555
As0 Dy1 3.067114 1_546
As0 Dy1 3.067114 1_656
As0 Dy1 3.067120 1_556
As1 Ni1 2.377930 1_565
As1 Ni1 2.377933 1_665
As1 Ni1 2.377933 1_555
As1 Dy2 3.007128 1_455
As1 Dy2 3.007128 1_565
As1 Dy2 3.007133 1_555
As1 Dy0 3.067114 1_455
As1 Dy0 3.067114 1_565
As1 Dy0 3.067120 1_555
As2 Dy0 2.887957 1_455
As2 Dy0 2.887960 1_445
As2 Dy0 2.887960 1_555
As2 Dy3 2.914207 1_545
As2 Dy3 2.914210 1_555
As2 Dy3 2.914210 1_445
As3 Dy1 2.887957 1_545
As3 Dy1 2.887960 1_555
As3 Dy1 2.887960 1_445
As3 Dy2 2.914207 1_455
As3 Dy2 2.914210 1_555
As3 Dy2 2.914210 1_445
