# generated using pymatgen
data_Ba3FeRu2O9
_symmetry_space_group_name_H-M   'P 1'
_cell_length_a   5.81253528
_cell_length_b   5.81253528
_cell_length_c   14.13902300
_cell_angle_alpha   90.00000000
_cell_angle_beta   90.00000000
_cell_angle_gamma   119.99999176
_symmetry_Int_Tables_number   1
_chemical_formula_structural   Ba3FeRu2O9
_chemical_formula_sum   'Ba6 Fe2 Ru4 O18'
_cell_volume   413.69595252
_cell_formula_units_Z   2
loop_
 _symmetry_equiv_pos_site_id
 _symmetry_equiv_pos_as_xyz
  1  'x, y, z'
loop_
 _atom_site_type_symbol
 _atom_site_label
 _atom_site_symmetry_multiplicity
 _atom_site_fract_x
 _atom_site_fract_y
 _atom_site_fract_z
 _atom_site_occupancy
  Ba  Ba0  1  0.33333300  0.66666700  0.08901100  1
  Ba  Ba1  1  0.66666700  0.33333300  0.91098900  1
  Ba  Ba2  1  0.66666700  0.33333300  0.58901100  1
  Ba  Ba3  1  0.33333300  0.66666700  0.41098900  1
  Ba  Ba4  1  0.00000000  0.00000000  0.25000000  1
  Ba  Ba5  1  0.00000000  0.00000000  0.75000000  1
  Fe  Fe0  1  0.00000000  0.00000000  0.00000000  1
  Fe  Fe1  1  0.00000000  0.00000000  0.50000000  1
  Ru  Ru0  1  0.33333300  0.66666700  0.66029500  1
  Ru  Ru1  1  0.66666700  0.33333300  0.33970500  1
  Ru  Ru2  1  0.66666700  0.33333300  0.16029500  1
  Ru  Ru3  1  0.33333300  0.66666700  0.83970500  1
  O  O0  1  0.16856800  0.33713600  0.58224200  1
  O  O1  1  0.83143200  0.66286400  0.41775800  1
  O  O2  1  0.66286400  0.83143200  0.58224200  1
  O  O3  1  0.83143200  0.66286400  0.08224200  1
  O  O4  1  0.33713600  0.16856800  0.41775800  1
  O  O5  1  0.16856800  0.33713600  0.91775800  1
  O  O6  1  0.16856800  0.83143200  0.58224200  1
  O  O7  1  0.33713600  0.16856800  0.08224200  1
  O  O8  1  0.83143200  0.16856800  0.41775800  1
  O  O9  1  0.66286400  0.83143200  0.91775800  1
  O  O10  1  0.83143200  0.16856800  0.08224200  1
  O  O11  1  0.16856800  0.83143200  0.91775800  1
  O  O12  1  0.50895100  0.01790100  0.25000000  1
  O  O13  1  0.49104900  0.98209900  0.75000000  1
  O  O14  1  0.98209900  0.49104900  0.25000000  1
  O  O15  1  0.01790100  0.50895100  0.75000000  1
  O  O16  1  0.50895100  0.49104900  0.25000000  1
  O  O17  1  0.49104900  0.50895100  0.75000000  1
loop_
_geom_bond_atom_site_label_1
_geom_bond_atom_site_label_2
_geom_bond_distance
_geom_bond_site_symmetry_2
Ba0 O12 2.882219 1_565
Ba0 O14 2.882219 1_455
Ba0 O16 2.882225 1_555
Ba0 O7 2.907903 1_565
Ba0 O3 2.907903 1_455
Ba0 O10 2.907906 1_455
Ba0 O10 2.907906 1_565
Ba0 O3 2.907909 1_555
Ba0 O7 2.907909 1_555
Ba0 O11 2.935050 1_554
Ba0 O5 2.935053 1_554
Ba0 O9 2.935053 1_554
Ba1 O15 2.882219 1_655
Ba1 O13 2.882219 1_545
Ba1 O17 2.882225 1_555
Ba1 O9 2.907903 1_545
Ba1 O5 2.907903 1_655
Ba1 O11 2.907906 1_655
Ba1 O11 2.907906 1_545
Ba1 O9 2.907909 1_555
Ba1 O5 2.907909 1_555
Ba1 O10 2.935050 1_556
Ba1 O3 2.935053 1_556
Ba1 O7 2.935053 1_556
Ba2 O15 2.882219 1_655
Ba2 O13 2.882219 1_545
Ba2 O17 2.882225 1_555
Ba2 O2 2.907903 1_545
Ba2 O0 2.907903 1_655
Ba2 O6 2.907906 1_655
Ba2 O6 2.907906 1_545
Ba2 O2 2.907909 1_555
Ba2 O0 2.907909 1_555
Ba2 O8 2.935050 1_555
Ba2 O4 2.935053 1_555
Ba2 O1 2.935053 1_555
Ba3 O12 2.882219 1_565
Ba3 O14 2.882219 1_455
Ba3 O16 2.882225 1_555
Ba3 O4 2.907903 1_565
Ba3 O1 2.907903 1_455
Ba3 O8 2.907906 1_455
Ba3 O8 2.907906 1_565
Ba3 O1 2.907909 1_555
Ba3 O4 2.907909 1_555
Ba3 O6 2.935050 1_555
Ba3 O2 2.935053 1_555
Ba3 O0 2.935053 1_555
Ba4 O14 2.907661 1_455
Ba4 O12 2.907661 1_455
Ba4 O16 2.907665 1_445
Ba4 O16 2.907665 1_555
Ba4 O14 2.907667 1_445
Ba4 O12 2.907667 1_555
Ba4 O10 2.916529 1_455
Ba4 O8 2.916529 1_455
Ba4 O7 2.916529 1_555
Ba4 O1 2.916529 1_445
Ba4 O3 2.916529 1_445
Ba4 O4 2.916529 1_555
Ba5 O13 2.907661 1_545
Ba5 O15 2.907661 1_545
Ba5 O17 2.907665 1_445
Ba5 O17 2.907665 1_555
Ba5 O13 2.907667 1_445
Ba5 O15 2.907667 1_555
Ba5 O6 2.916529 1_545
Ba5 O11 2.916529 1_545
Ba5 O9 2.916529 1_445
Ba5 O5 2.916529 1_555
Ba5 O0 2.916529 1_555
Ba5 O2 2.916529 1_445
Fe0 O10 2.057236 1_455
Fe0 O11 2.057236 1_544
Fe0 O7 2.057237 1_555
Fe0 O3 2.057237 1_445
Fe0 O9 2.057237 1_444
Fe0 O5 2.057237 1_554
Fe1 O8 2.057236 1_455
Fe1 O6 2.057236 1_545
Fe1 O1 2.057237 1_445
Fe1 O4 2.057237 1_555
Fe1 O0 2.057237 1_555
Fe1 O2 2.057237 1_445
O0 Ru0 1.992365 1_555
O1 Ru1 1.992365 1_555
O2 Ru0 1.992365 1_555
O3 Ru2 1.992365 1_555
O4 Ru1 1.992365 1_555
O5 Ru3 1.992365 1_555
O6 Ru0 1.992360 1_555
O7 Ru2 1.992365 1_555
O8 Ru1 1.992360 1_555
O9 Ru3 1.992365 1_555
O10 Ru2 1.992360 1_555
O11 Ru3 1.992360 1_555
O12 Ru1 2.032208 1_555
O12 Ru2 2.032208 1_555
O13 Ru3 2.032208 1_555
O13 Ru0 2.032208 1_555
O14 Ru1 2.032208 1_555
O14 Ru2 2.032208 1_555
O15 Ru3 2.032208 1_555
O15 Ru0 2.032208 1_555
O16 Ru1 2.032208 1_555
O16 Ru2 2.032208 1_555
O17 Ru3 2.032208 1_555
O17 Ru0 2.032208 1_555
