# generated using pymatgen
data_Li6MnV3(PO4)6
_symmetry_space_group_name_H-M   'P 1'
_cell_length_a   9.80350400
_cell_length_b   9.83174941
_cell_length_c   9.84176126
_cell_angle_alpha   84.63277918
_cell_angle_beta   86.97276910
_cell_angle_gamma   87.00698526
_symmetry_Int_Tables_number   1
_chemical_formula_structural   Li6MnV3(PO4)6
_chemical_formula_sum   'Li12 Mn2 V6 P12 O48'
_cell_volume   942.06030405
_cell_formula_units_Z   2
loop_
 _symmetry_equiv_pos_site_id
 _symmetry_equiv_pos_as_xyz
  1  'x, y, z'
loop_
 _atom_site_type_symbol
 _atom_site_label
 _atom_site_symmetry_multiplicity
 _atom_site_fract_x
 _atom_site_fract_y
 _atom_site_fract_z
 _atom_site_occupancy
  Li  Li0  1  0.76348500  0.01410900  0.48951700  1
  Li  Li1  1  0.61613700  0.99507400  0.74197500  1
  Li  Li2  1  0.53512200  0.21296800  0.43300600  1
  Li  Li3  1  0.82461200  0.23146000  0.26450900  1
  Li  Li4  1  0.39279100  0.25063200  0.01453200  1
  Li  Li5  1  0.18755300  0.37241700  0.25345400  1
  Li  Li6  1  0.24112500  0.50300600  0.98817900  1
  Li  Li7  1  0.46376600  0.56298200  0.78468500  1
  Li  Li8  1  0.02649400  0.70334400  0.07327300  1
  Li  Li9  1  0.17932100  0.73325900  0.76494500  1
  Li  Li10  1  0.81120500  0.74900200  0.61954100  1
  Li  Li11  1  0.97904800  0.92852100  0.29789300  1
  Mn  Mn0  1  0.78173100  0.26211700  0.97096800  1
  Mn  Mn1  1  0.27808000  0.97489600  0.25754600  1
  V  V0  1  0.21805600  0.02900700  0.74860900  1
  V  V1  1  0.99869300  0.24602600  0.75336000  1
  V  V2  1  0.99858200  0.46674000  0.53616200  1
  V  V3  1  0.49777200  0.53364500  0.46870700  1
  V  V4  1  0.71836500  0.74826000  0.03315000  1
  V  V5  1  0.49675500  0.75047400  0.25280500  1
  P  P0  1  0.59990900  0.05310100  0.17445800  1
  P  P1  1  0.09428300  0.17205900  0.05325600  1
  P  P2  1  0.07212900  0.16096800  0.45013700  1
  P  P3  1  0.69744600  0.31702700  0.65792900  1
  P  P4  1  0.30041900  0.34287700  0.68391300  1
  P  P5  1  0.57190300  0.44539100  0.16658700  1
  P  P6  1  0.92551000  0.55148800  0.84654200  1
  P  P7  1  0.19420200  0.64992900  0.31954700  1
  P  P8  1  0.80259200  0.68283900  0.34811700  1
  P  P9  1  0.42870200  0.83844900  0.55634300  1
  P  P10  1  0.40669500  0.81616000  0.94666500  1
  P  P11  1  0.90566600  0.94307100  0.82287800  1
  O  O0  1  0.12608900  0.03025400  0.12732200  1
  O  O1  1  0.44454300  0.08650100  0.17416200  1
  O  O2  1  0.21025800  0.11482200  0.38841100  1
  O  O3  1  0.66138600  0.11731000  0.03635200  1
  O  O4  1  0.66505100  0.09932800  0.30036200  1
  O  O5  1  0.07606500  0.12551800  0.61055400  1
  O  O6  1  0.94636200  0.09710900  0.39892600  1
  O  O7  1  0.87820100  0.10142600  0.83114900  1
  O  O8  1  0.12464700  0.16230100  0.89343100  1
  O  O9  1  0.33021800  0.18606500  0.68829200  1
  O  O10  1  0.93853900  0.20336500  0.08860500  1
  O  O11  1  0.65111000  0.19215500  0.59400000  1
  O  O12  1  0.18545500  0.28458300  0.08831500  1
  O  O13  1  0.05826200  0.32068100  0.41379100  1
  O  O14  1  0.66715000  0.30894500  0.81473300  1
  O  O15  1  0.85827200  0.32595700  0.62314400  1
  O  O16  1  0.71218200  0.37799500  0.12981700  1
  O  O17  1  0.45138400  0.40606400  0.09163300  1
  O  O18  1  0.13920100  0.37900600  0.67787200  1
  O  O19  1  0.36504300  0.40231000  0.54564800  1
  O  O20  1  0.54956300  0.40889200  0.32648500  1
  O  O21  1  0.34881300  0.40406600  0.80905900  1
  O  O22  1  0.91983300  0.38965400  0.87825300  1
  O  O23  1  0.63055200  0.45546700  0.60126300  1
  O  O24  1  0.15629400  0.57569900  0.19741300  1
  O  O25  1  0.86123900  0.54516500  0.40743400  1
  O  O26  1  0.13743200  0.58853800  0.45892700  1
  O  O27  1  0.58173800  0.60837300  0.13502300  1
  O  O28  1  0.35735400  0.62346700  0.33080900  1
  O  O29  1  0.05555300  0.59927600  0.90394000  1
  O  O30  1  0.92655800  0.58786400  0.68803800  1
  O  O31  1  0.79156900  0.61087800  0.91090200  1
  O  O32  1  0.63956000  0.67267000  0.37590000  1
  O  O33  1  0.84144700  0.70270300  0.19189100  1
  O  O34  1  0.44561100  0.67818300  0.59222500  1
  O  O35  1  0.34380700  0.69316200  0.89226400  1
  O  O36  1  0.15338200  0.80330900  0.30183400  1
  O  O37  1  0.37646700  0.81140100  0.10621800  1
  O  O38  1  0.84237400  0.80624700  0.41906200  1
  O  O39  1  0.56475200  0.81911600  0.91293100  1
  O  O40  1  0.42111900  0.86838100  0.39336700  1
  O  O41  1  0.62813000  0.89016600  0.17128900  1
  O  O42  1  0.28937100  0.88127600  0.62315700  1
  O  O43  1  0.06069600  0.90518900  0.78978900  1
  O  O44  1  0.55119300  0.91017200  0.59523100  1
  O  O45  1  0.87231400  0.86893100  0.96495900  1
  O  O46  1  0.81315700  0.90709900  0.71192800  1
  O  O47  1  0.34255100  0.95445600  0.88790100  1
loop_
_geom_bond_atom_site_label_1
_geom_bond_atom_site_label_2
_geom_bond_distance
_geom_bond_site_symmetry_2
Li0 O6 2.126716 1_555
Li0 O4 2.216383 1_555
Li0 O38 2.301920 1_545
Li0 O11 2.313231 1_555
Li0 O46 2.400758 1_545
Li0 O44 2.500522 1_545
Li1 O44 1.888402 1_555
Li1 O46 2.092674 1_555
Li1 O11 2.341299 1_565
Li1 O39 2.352525 1_555
Li2 O11 1.987640 1_555
Li2 O20 2.112970 1_555
Li2 O4 2.126874 1_555
Li3 O10 2.042993 1_555
Li3 O4 2.080191 1_555
Li3 O6 2.143527 1_555
Li3 O16 2.163080 1_555
Li4 O17 1.896229 1_555
Li4 O12 2.142162 1_555
Li4 O1 2.203179 1_555
Li4 O21 2.450380 1_554
Li5 O12 1.911957 1_555
Li5 O13 2.015265 1_555
Li5 O24 2.034762 1_555
Li6 O29 2.173841 1_555
Li6 O35 2.272818 1_555
Li6 O21 2.277158 1_555
Li6 O24 2.339921 1_556
Li6 O12 2.355933 1_556
Li6 O17 2.455383 1_556
Li7 O21 1.963138 1_555
Li7 O35 2.026563 1_555
Li7 O34 2.124974 1_555
Li8 O29 2.035629 1_554
Li8 O24 2.097019 1_555
Li8 O33 2.104759 1_455
Li8 O45 2.379068 1_454
Li9 O43 2.027703 1_555
Li9 O35 2.092948 1_555
Li9 O29 2.175610 1_555
Li9 O42 2.203196 1_555
Li10 O46 1.874170 1_555
Li10 O30 1.984147 1_555
Li10 O38 2.012377 1_555
Li11 O6 2.014439 1_565
Li11 O36 2.053368 1_655
Li11 O38 2.096149 1_555
Li11 O0 2.340375 1_665
Mn0 O3 1.938244 1_556
Mn0 O14 1.958072 1_555
Mn0 O10 2.001848 1_556
Mn0 O22 2.017589 1_555
Mn0 O16 2.084808 1_556
Mn0 O7 2.323189 1_555
Mn1 O2 2.034448 1_565
Mn1 O0 2.036065 1_565
Mn1 O1 2.101837 1_565
Mn1 O36 2.133525 1_555
Mn1 O40 2.152359 1_555
Mn1 O37 2.422096 1_555
O0 P1 1.536501 1_555
O1 P0 1.541372 1_555
O2 P2 1.519579 1_555
O3 P0 1.549802 1_555
O4 P0 1.539174 1_555
O5 P2 1.586701 1_555
O5 V1 2.014822 1_455
O5 V0 2.122444 1_555
O6 P2 1.540801 1_655
O7 P11 1.575024 1_545
O7 V1 1.969476 1_555
O8 P1 1.596186 1_556
O8 V1 1.990992 1_455
O8 V0 2.161889 1_555
O9 P4 1.551134 1_555
O9 V0 1.970474 1_555
O10 P1 1.569029 1_655
O11 P3 1.530494 1_555
O12 P1 1.532679 1_555
O13 P2 1.577945 1_555
O13 V2 2.004066 1_455
O14 P3 1.551512 1_555
O15 P3 1.600807 1_555
O15 V1 2.009973 1_555
O15 V2 2.096080 1_555
O16 P5 1.535710 1_555
O17 P5 1.510879 1_555
O18 P4 1.604693 1_555
O18 V1 2.014201 1_455
O18 V2 2.107943 1_455
O19 P4 1.547050 1_555
O19 V3 1.955084 1_555
O20 P5 1.587249 1_555
O20 V3 1.975468 1_555
O21 P4 1.527783 1_555
O22 P6 1.595822 1_555
O22 V1 2.052547 1_555
O23 P3 1.548261 1_555
O23 V3 1.968366 1_555
O24 P7 1.534662 1_555
O25 P8 1.519832 1_555
O25 V2 1.975222 1_555
O26 P7 1.534695 1_555
O26 V2 1.937868 1_455
O27 P5 1.610380 1_555
O27 V5 2.017206 1_555
O27 V4 2.117402 1_555
O28 P7 1.614968 1_555
O28 V5 1.975934 1_555
O28 V3 2.088759 1_555
O29 P6 1.534092 1_455
O30 P6 1.567100 1_555
O30 V2 2.069936 1_555
O31 P6 1.538716 1_555
O31 V4 1.974478 1_556
O32 P8 1.613905 1_555
O32 V5 1.976542 1_555
O32 V3 2.113168 1_555
O33 P8 1.561089 1_555
O33 V4 2.027091 1_555
O34 P9 1.584238 1_555
O34 V3 1.985020 1_555
O35 P10 1.537196 1_555
O36 P7 1.536147 1_555
O37 P10 1.579350 1_554
O37 V5 1.942936 1_555
O38 P8 1.532455 1_555
O39 P10 1.568637 1_555
O39 V4 2.019283 1_556
O40 P9 1.608371 1_555
O40 V5 1.977188 1_555
O41 P0 1.614270 1_565
O41 V5 2.014480 1_555
O41 V4 2.162487 1_555
O42 P9 1.540236 1_555
O42 V0 2.064241 1_565
O43 P11 1.570342 1_455
O43 V0 2.015894 1_565
O44 P9 1.507718 1_555
O45 P11 1.542554 1_555
O45 V4 2.016635 1_556
O46 P11 1.533052 1_555
O47 P10 1.542948 1_555
O47 V0 1.949733 1_565
