# generated using pymatgen
data_Zr2Co3Mo
_symmetry_space_group_name_H-M   'P 1'
_cell_length_a   5.05497272
_cell_length_b   5.05497272
_cell_length_c   8.03945600
_cell_angle_alpha   90.00000000
_cell_angle_beta   90.00000000
_cell_angle_gamma   120.00000944
_symmetry_Int_Tables_number   1
_chemical_formula_structural   Zr2Co3Mo
_chemical_formula_sum   'Zr4 Co6 Mo2'
_cell_volume   177.90775755
_cell_formula_units_Z   2
loop_
 _symmetry_equiv_pos_site_id
 _symmetry_equiv_pos_as_xyz
  1  'x, y, z'
loop_
 _atom_site_type_symbol
 _atom_site_label
 _atom_site_symmetry_multiplicity
 _atom_site_fract_x
 _atom_site_fract_y
 _atom_site_fract_z
 _atom_site_occupancy
  Zr  Zr0  1  0.33333300  0.66666700  0.43728900  1
  Zr  Zr1  1  0.66666700  0.33333300  0.56271100  1
  Zr  Zr2  1  0.66666700  0.33333300  0.93728900  1
  Zr  Zr3  1  0.33333300  0.66666700  0.06271100  1
  Co  Co0  1  0.82822000  0.17178000  0.25000000  1
  Co  Co1  1  0.82822000  0.65643900  0.25000000  1
  Co  Co2  1  0.34356100  0.17178000  0.25000000  1
  Co  Co3  1  0.17178000  0.82822000  0.75000000  1
  Co  Co4  1  0.17178000  0.34356100  0.75000000  1
  Co  Co5  1  0.65643900  0.82822000  0.75000000  1
  Mo  Mo0  1  0.00000000  0.00000000  0.50000000  1
  Mo  Mo1  1  0.00000000  0.00000000  0.00000000  1
loop_
_geom_bond_atom_site_label_1
_geom_bond_atom_site_label_2
_geom_bond_distance
_geom_bond_site_symmetry_2
Zr0 Zr3 3.011403 1_555
Zr0 Zr1 3.087763 1_455
Zr0 Zr1 3.087763 1_565
Zr0 Zr1 3.087772 1_555
Zr1 Zr2 3.011403 1_555
Zr2 Zr3 3.087763 1_546
Zr2 Zr3 3.087763 1_656
Zr2 Zr3 3.087772 1_556
Co0 Co1 2.449938 1_555
Co0 Co2 2.449938 1_555
Co0 Mo1 2.510301 1_655
Co0 Mo0 2.510301 1_655
Co0 Co2 2.605035 1_655
Co0 Co1 2.605035 1_545
Co0 Zr1 2.884625 1_555
Co0 Zr2 2.884625 1_554
Co0 Zr0 2.942334 1_655
Co0 Zr3 2.942334 1_655
Co0 Zr3 2.942334 1_545
Co0 Zr0 2.942334 1_545
Co1 Co2 2.449938 1_555
Co1 Mo0 2.510304 1_665
Co1 Mo1 2.510304 1_665
Co1 Co2 2.605034 1_665
Co1 Zr1 2.884625 1_555
Co1 Zr2 2.884625 1_554
Co1 Zr0 2.942330 1_655
Co1 Zr3 2.942330 1_655
Co1 Zr3 2.942338 1_555
Co1 Zr0 2.942338 1_555
Co2 Mo1 2.510304 1_555
Co2 Mo0 2.510304 1_555
Co2 Zr1 2.884625 1_555
Co2 Zr2 2.884625 1_554
Co2 Zr3 2.942330 1_545
Co2 Zr0 2.942330 1_545
Co2 Zr3 2.942338 1_555
Co2 Zr0 2.942338 1_555
Co3 Co5 2.449938 1_555
Co3 Co4 2.449938 1_555
Co3 Mo0 2.510301 1_565
Co3 Mo1 2.510301 1_566
Co3 Co4 2.605035 1_565
Co3 Co5 2.605035 1_455
Co3 Zr3 2.884625 1_556
Co3 Zr0 2.884625 1_555
Co3 Zr2 2.942334 1_565
Co3 Zr2 2.942334 1_455
Co3 Zr1 2.942334 1_565
Co3 Zr1 2.942334 1_455
Co4 Co5 2.449938 1_555
Co4 Mo0 2.510304 1_555
Co4 Mo1 2.510304 1_556
Co4 Co5 2.605034 1_445
Co4 Zr3 2.884625 1_556
Co4 Zr0 2.884625 1_555
Co4 Zr2 2.942330 1_455
Co4 Zr1 2.942330 1_455
Co4 Zr2 2.942338 1_555
Co4 Zr1 2.942338 1_555
Co5 Mo0 2.510304 1_665
Co5 Mo1 2.510304 1_666
Co5 Zr0 2.884625 1_555
Co5 Zr3 2.884625 1_556
Co5 Zr2 2.942330 1_565
Co5 Zr1 2.942330 1_565
Co5 Zr2 2.942338 1_555
Co5 Zr1 2.942338 1_555
Mo0 Zr0 2.961713 1_545
Mo0 Zr1 2.961713 1_455
Mo0 Zr0 2.961717 1_445
Mo0 Zr1 2.961717 1_445
Mo0 Zr0 2.961717 1_555
Mo0 Zr1 2.961717 1_555
Mo1 Zr3 2.961713 1_545
Mo1 Zr2 2.961713 1_454
Mo1 Zr3 2.961717 1_445
Mo1 Zr3 2.961717 1_555
Mo1 Zr2 2.961717 1_554
Mo1 Zr2 2.961717 1_444
