# generated using pymatgen
data_TaZn2CrO6
_symmetry_space_group_name_H-M   'P 1'
_cell_length_a   7.67265400
_cell_length_b   5.23859100
_cell_length_c   5.32082060
_cell_angle_alpha   89.20701356
_cell_angle_beta   90.00000000
_cell_angle_gamma   90.00000000
_symmetry_Int_Tables_number   1
_chemical_formula_structural   TaZn2CrO6
_chemical_formula_sum   'Ta2 Zn4 Cr2 O12'
_cell_volume   213.84402804
_cell_formula_units_Z   2
loop_
 _symmetry_equiv_pos_site_id
 _symmetry_equiv_pos_as_xyz
  1  'x, y, z'
loop_
 _atom_site_type_symbol
 _atom_site_label
 _atom_site_symmetry_multiplicity
 _atom_site_fract_x
 _atom_site_fract_y
 _atom_site_fract_z
 _atom_site_occupancy
  Ta  Ta0  1  0.00000000  0.00000000  0.50000000  1
  Ta  Ta1  1  0.50000000  0.00000000  0.50000000  1
  Zn  Zn0  1  0.75000000  0.01284500  0.01859100  1
  Zn  Zn1  1  0.75000000  0.50761000  0.54735600  1
  Zn  Zn2  1  0.25000000  0.49239000  0.45264400  1
  Zn  Zn3  1  0.25000000  0.98715500  0.98140900  1
  Cr  Cr0  1  0.00000000  0.50000000  0.00000000  1
  Cr  Cr1  1  0.50000000  0.50000000  0.00000000  1
  O  O0  1  0.43614500  0.17263700  0.18190400  1
  O  O1  1  0.56451800  0.68249100  0.32199000  1
  O  O2  1  0.56385500  0.82736300  0.81809600  1
  O  O3  1  0.06451800  0.31750900  0.67801000  1
  O  O4  1  0.25000000  0.87751900  0.56205300  1
  O  O5  1  0.43548200  0.31750900  0.67801000  1
  O  O6  1  0.93548200  0.68249100  0.32199000  1
  O  O7  1  0.06385500  0.17263700  0.18190400  1
  O  O8  1  0.75000000  0.38375900  0.92144300  1
  O  O9  1  0.93614500  0.82736300  0.81809600  1
  O  O10  1  0.25000000  0.61624100  0.07855700  1
  O  O11  1  0.75000000  0.12248100  0.43794700  1
loop_
_geom_bond_atom_site_label_1
_geom_bond_atom_site_label_2
_geom_bond_distance
_geom_bond_site_symmetry_2
Cr0 O7 2.017879 1_555
Cr0 O9 2.017879 1_454
Cr0 O3 2.034586 1_554
Cr0 O6 2.034586 1_455
Cr0 O10 2.057162 1_555
Cr0 O8 2.057162 1_454
Cr1 O0 2.017879 1_555
Cr1 O2 2.017879 1_554
Cr1 O1 2.034586 1_555
Cr1 O5 2.034586 1_554
Cr1 O10 2.057162 1_555
Cr1 O8 2.057162 1_554
O0 Ta1 1.969829 1_555
O0 Zn3 2.037329 1_544
O1 Ta1 1.988047 1_565
O1 Zn1 2.066913 1_555
O2 Ta1 1.969829 1_565
O2 Zn0 2.037329 1_566
O3 Ta0 1.988047 1_555
O3 Zn2 2.066913 1_555
O4 Ta1 2.047972 1_565
O4 Ta0 2.047972 1_565
O4 Zn2 2.107568 1_555
O4 Zn3 2.311735 1_555
O5 Ta1 1.988047 1_555
O5 Zn2 2.066913 1_555
O6 Ta0 1.988047 1_665
O6 Zn1 2.066913 1_555
O7 Ta0 1.969829 1_555
O7 Zn3 2.037329 1_544
O8 Zn0 2.003722 1_556
O8 Zn1 2.084968 1_555
O9 Ta0 1.969829 1_665
O9 Zn0 2.037329 1_566
O10 Zn3 2.003722 1_554
O10 Zn2 2.084968 1_555
O11 Ta0 2.047972 1_655
O11 Ta1 2.047972 1_555
O11 Zn1 2.107568 1_555
O11 Zn0 2.311735 1_555
