# generated using pymatgen
data_YMg14Al
_symmetry_space_group_name_H-M   'P 1'
_cell_length_a   6.45990204
_cell_length_b   6.34144471
_cell_length_c   10.35846964
_cell_angle_alpha   90.00000000
_cell_angle_beta   90.00000000
_cell_angle_gamma   119.39524299
_symmetry_Int_Tables_number   1
_chemical_formula_structural   YMg14Al
_chemical_formula_sum   'Y1 Mg14 Al1'
_cell_volume   369.70455978
_cell_formula_units_Z   1
loop_
 _symmetry_equiv_pos_site_id
 _symmetry_equiv_pos_as_xyz
  1  'x, y, z'
loop_
 _atom_site_type_symbol
 _atom_site_label
 _atom_site_symmetry_multiplicity
 _atom_site_fract_x
 _atom_site_fract_y
 _atom_site_fract_z
 _atom_site_occupancy
  Y  Y0  1  0.16068916  0.83034408  0.12500000  1
  Mg  Mg0  1  0.16444714  0.33222307  0.62500000  1
  Mg  Mg1  1  0.16643770  0.83321835  0.62500000  1
  Mg  Mg2  1  0.66054860  0.33523819  0.12500000  1
  Mg  Mg3  1  0.66645675  0.33164790  0.62500000  1
  Mg  Mg4  1  0.66054860  0.82530941  0.12500000  1
  Mg  Mg5  1  0.66645675  0.83480785  0.62500000  1
  Mg  Mg6  1  0.33434427  0.16985253  0.37692119  1
  Mg  Mg7  1  0.33434427  0.16985253  0.87307881  1
  Mg  Mg8  1  0.33434427  0.66449273  0.37692119  1
  Mg  Mg9  1  0.33434427  0.66449273  0.87307881  1
  Mg  Mg10  1  0.83720778  0.16860439  0.36792040  1
  Mg  Mg11  1  0.83720778  0.16860439  0.88207960  1
  Mg  Mg12  1  0.83138211  0.66569156  0.38049393  1
  Mg  Mg13  1  0.83138211  0.66569156  0.86950607  1
  Al  Al0  1  0.17985846  0.33992873  0.12500000  1
loop_
_geom_bond_atom_site_label_1
_geom_bond_atom_site_label_2
_geom_bond_distance
_geom_bond_site_symmetry_2
Mg0 Mg6 3.158726 1_555
Mg0 Mg7 3.158726 1_555
Mg0 Mg9 3.158733 1_555
Mg0 Mg8 3.158733 1_555
Mg0 Mg1 3.170742 1_555
Mg0 Mg1 3.170742 1_545
Mg0 Mg5 3.215180 1_445
Mg0 Mg3 3.215180 1_455
Mg0 Mg11 3.237815 1_455
Mg0 Mg10 3.237815 1_455
Mg0 Mg5 3.244724 1_555
Mg0 Mg3 3.244725 1_555
Mg1 Mg13 3.157646 1_455
Mg1 Mg12 3.157646 1_455
Mg1 Mg8 3.172384 1_555
Mg1 Mg9 3.172384 1_555
Mg1 Mg6 3.172390 1_565
Mg1 Mg7 3.172390 1_565
Mg1 Mg3 3.225138 1_565
Mg1 Mg5 3.225139 1_555
Mg1 Mg3 3.234787 1_455
Mg1 Mg5 3.234787 1_455
Mg2 Mg4 3.107760 1_555
Mg2 Mg7 3.190690 1_554
Mg2 Mg6 3.190690 1_555
Mg2 Y0 3.215308 1_655
Mg2 Mg4 3.233685 1_545
Mg2 Y0 3.244833 1_545
Mg3 Mg5 3.150684 1_545
Mg3 Mg6 3.177749 1_555
Mg3 Mg7 3.177749 1_555
Mg3 Mg5 3.190761 1_555
Mg4 Mg9 3.190690 1_554
Mg4 Mg8 3.190690 1_555
Mg4 Y0 3.215309 1_655
Mg4 Y0 3.244833 1_555
Mg5 Mg8 3.177749 1_555
Mg5 Mg9 3.177749 1_555
Mg6 Mg8 3.136733 1_555
Mg6 Mg8 3.204711 1_545
Mg6 Y0 3.214405 1_545
Mg7 Mg9 3.136733 1_555
Mg7 Mg9 3.204711 1_545
Mg7 Y0 3.214405 1_546
Mg8 Y0 3.214399 1_555
Mg9 Y0 3.214399 1_556
Mg10 Mg2 3.151893 1_555
Mg10 Mg4 3.151899 1_545
Mg10 Mg12 3.173566 1_545
Mg10 Mg12 3.173566 1_555
Mg10 Mg8 3.208930 1_655
Mg10 Mg6 3.208930 1_655
Mg10 Mg3 3.239839 1_555
Mg10 Mg5 3.239845 1_545
Mg10 Mg8 3.253677 1_545
Mg10 Mg6 3.253677 1_555
Mg11 Mg2 3.151893 1_556
Mg11 Mg4 3.151899 1_546
Mg11 Mg13 3.173566 1_545
Mg11 Mg13 3.173566 1_555
Mg11 Mg9 3.208930 1_655
Mg11 Mg7 3.208930 1_655
Mg11 Mg3 3.239839 1_555
Mg11 Mg5 3.239845 1_545
Mg11 Mg9 3.253677 1_545
Mg11 Mg7 3.253677 1_555
Mg12 Mg5 3.133920 1_555
Mg12 Mg3 3.133926 1_555
Mg12 Mg6 3.207304 1_555
Mg12 Mg8 3.207305 1_555
Mg12 Mg4 3.216066 1_555
Mg12 Mg2 3.216073 1_555
Mg12 Y0 3.230981 1_655
Mg12 Mg6 3.253035 1_665
Mg12 Mg8 3.253035 1_655
Mg13 Mg5 3.133920 1_555
Mg13 Mg3 3.133926 1_555
Mg13 Mg7 3.207304 1_555
Mg13 Mg9 3.207305 1_555
Mg13 Mg4 3.216066 1_556
Mg13 Mg2 3.216073 1_556
Mg13 Y0 3.230981 1_656
Mg13 Mg7 3.253035 1_665
Mg13 Mg9 3.253035 1_655
Al0 Mg4 3.119918 1_555
Al0 Mg2 3.119919 1_555
Al0 Mg6 3.166281 1_555
Al0 Mg7 3.166281 1_554
Al0 Mg9 3.166287 1_554
Al0 Mg8 3.166287 1_555
Al0 Mg10 3.170307 1_455
Al0 Mg11 3.170307 1_454
Al0 Y0 3.172557 1_545
Al0 Y0 3.172557 1_555
Al0 Mg4 3.340191 1_445
Al0 Mg2 3.340192 1_455
