# generated using pymatgen
data_Mg(MoO2)2
_symmetry_space_group_name_H-M   'P 1'
_cell_length_a   5.51460800
_cell_length_b   6.37380600
_cell_length_c   10.54999400
_cell_angle_alpha   90.00000000
_cell_angle_beta   90.00000000
_cell_angle_gamma   90.00000000
_symmetry_Int_Tables_number   1
_chemical_formula_structural   Mg(MoO2)2
_chemical_formula_sum   'Mg4 Mo8 O16'
_cell_volume   370.82217754
_cell_formula_units_Z   4
loop_
 _symmetry_equiv_pos_site_id
 _symmetry_equiv_pos_as_xyz
  1  'x, y, z'
loop_
 _atom_site_type_symbol
 _atom_site_label
 _atom_site_symmetry_multiplicity
 _atom_site_fract_x
 _atom_site_fract_y
 _atom_site_fract_z
 _atom_site_occupancy
  Mg  Mg0  1  0.64130500  0.00000000  0.00000000  1
  Mg  Mg1  1  0.35869500  0.50000000  0.50000000  1
  Mg  Mg2  1  0.96635800  0.00000000  0.50000000  1
  Mg  Mg3  1  0.03364200  0.50000000  0.00000000  1
  Mo  Mo0  1  0.98098900  0.50000000  0.27088200  1
  Mo  Mo1  1  0.98098900  0.50000000  0.72911800  1
  Mo  Mo2  1  0.01901100  0.00000000  0.22911800  1
  Mo  Mo3  1  0.01901100  0.00000000  0.77088200  1
  Mo  Mo4  1  0.50000000  0.25000000  0.25000000  1
  Mo  Mo5  1  0.50000000  0.75000000  0.75000000  1
  Mo  Mo6  1  0.50000000  0.75000000  0.25000000  1
  Mo  Mo7  1  0.50000000  0.25000000  0.75000000  1
  O  O0  1  0.62671700  0.50000000  0.36543800  1
  O  O1  1  0.62671700  0.50000000  0.63456200  1
  O  O2  1  0.37328300  0.00000000  0.13456200  1
  O  O3  1  0.37328300  0.00000000  0.86543800  1
  O  O4  1  0.29347500  0.50000000  0.15220000  1
  O  O5  1  0.29347500  0.50000000  0.84780000  1
  O  O6  1  0.70652500  0.00000000  0.34780000  1
  O  O7  1  0.70652500  0.00000000  0.65220000  1
  O  O8  1  0.83556300  0.25124100  0.13461300  1
  O  O9  1  0.83556300  0.74875900  0.86538700  1
  O  O10  1  0.16443700  0.75124100  0.36538700  1
  O  O11  1  0.16443700  0.24875900  0.63461300  1
  O  O12  1  0.16443700  0.24875900  0.36538700  1
  O  O13  1  0.16443700  0.75124100  0.63461300  1
  O  O14  1  0.83556300  0.74875900  0.13461300  1
  O  O15  1  0.83556300  0.25124100  0.86538700  1
loop_
_geom_bond_atom_site_label_1
_geom_bond_atom_site_label_2
_geom_bond_distance
_geom_bond_site_symmetry_2
Mg0 O2 2.049374 1_555
Mg0 O3 2.049374 1_554
Mg0 O8 2.393496 1_555
Mg0 O14 2.393496 1_545
Mg0 O15 2.393496 1_554
Mg0 O9 2.393496 1_544
Mg1 O1 2.049374 1_555
Mg1 O0 2.049374 1_555
Mg1 O13 2.393496 1_555
Mg1 O10 2.393496 1_555
Mg1 O11 2.393496 1_555
Mg1 O12 2.393496 1_555
Mg2 O7 2.152078 1_555
Mg2 O6 2.152078 1_555
Mg2 O11 2.392487 1_655
Mg2 O12 2.392487 1_655
Mg2 O13 2.392487 1_645
Mg2 O10 2.392487 1_645
Mg3 O4 2.152078 1_555
Mg3 O5 2.152078 1_554
Mg3 O14 2.392487 1_455
Mg3 O8 2.392487 1_455
Mg3 O9 2.392487 1_454
Mg3 O15 2.392487 1_454
Mo0 O4 2.130091 1_655
Mo0 O10 2.140524 1_655
Mo0 O12 2.140524 1_655
Mo0 O0 2.193620 1_555
Mo0 O14 2.285584 1_555
Mo0 O8 2.285584 1_555
Mo1 O5 2.130091 1_655
Mo1 O13 2.140524 1_655
Mo1 O11 2.140524 1_655
Mo1 O1 2.193620 1_555
Mo1 O15 2.285584 1_555
Mo1 O9 2.285584 1_555
Mo2 O6 2.130091 1_455
Mo2 O8 2.140524 1_455
Mo2 O14 2.140524 1_445
Mo2 O2 2.193620 1_555
Mo2 O12 2.285584 1_555
Mo2 O10 2.285584 1_545
Mo3 O7 2.130091 1_455
Mo3 O15 2.140524 1_455
Mo3 O9 2.140524 1_445
Mo3 O3 2.193620 1_555
Mo3 O11 2.285584 1_555
Mo3 O13 2.285584 1_545
Mo4 O0 2.123820 1_555
Mo4 O2 2.123820 1_555
Mo4 O6 2.213771 1_555
Mo4 O4 2.213771 1_555
Mo4 O12 2.215018 1_555
Mo4 O8 2.215018 1_555
Mo5 O3 2.123820 1_565
Mo5 O1 2.123820 1_555
Mo5 O7 2.213771 1_565
Mo5 O5 2.213771 1_555
Mo5 O9 2.215018 1_555
Mo5 O13 2.215018 1_555
Mo6 O0 2.123820 1_555
Mo6 O2 2.123820 1_565
Mo6 O6 2.213771 1_565
Mo6 O4 2.213771 1_555
Mo6 O10 2.215018 1_555
Mo6 O14 2.215018 1_555
Mo7 O3 2.123820 1_555
Mo7 O1 2.123820 1_555
Mo7 O7 2.213771 1_555
Mo7 O5 2.213771 1_555
Mo7 O15 2.215018 1_555
Mo7 O11 2.215018 1_555
