# generated using pymatgen
data_Cs3AsCl6
_symmetry_space_group_name_H-M   'P 1'
_cell_length_a   8.17137546
_cell_length_b   8.17137546
_cell_length_c   8.17137546
_cell_angle_alpha   60.00000000
_cell_angle_beta   60.00000000
_cell_angle_gamma   60.00000000
_symmetry_Int_Tables_number   1
_chemical_formula_structural   Cs3AsCl6
_chemical_formula_sum   'Cs3 As1 Cl6'
_cell_volume   385.80735286
_cell_formula_units_Z   1
loop_
 _symmetry_equiv_pos_site_id
 _symmetry_equiv_pos_as_xyz
  1  'x, y, z'
loop_
 _atom_site_type_symbol
 _atom_site_label
 _atom_site_symmetry_multiplicity
 _atom_site_fract_x
 _atom_site_fract_y
 _atom_site_fract_z
 _atom_site_occupancy
  Cs  Cs0  1  0.75000000  0.75000000  0.75000000  1
  Cs  Cs1  1  0.25000000  0.25000000  0.25000000  1
  Cs  Cs2  1  0.50000000  0.50000000  0.50000000  1
  As  As0  1  0.00000000  0.00000000  0.00000000  1
  Cl  Cl0  1  0.78211300  0.21788700  0.21788700  1
  Cl  Cl1  1  0.21788700  0.21788700  0.78211300  1
  Cl  Cl2  1  0.21788700  0.78211300  0.78211300  1
  Cl  Cl3  1  0.21788700  0.78211300  0.21788700  1
  Cl  Cl4  1  0.78211300  0.21788700  0.78211300  1
  Cl  Cl5  1  0.78211300  0.78211300  0.21788700  1
loop_
_geom_bond_atom_site_label_1
_geom_bond_atom_site_label_2
_geom_bond_distance
_geom_bond_site_symmetry_2
As0 Cl1 2.517917 1_554
As0 Cl0 2.517917 1_455
As0 Cl3 2.517917 1_545
As0 Cl2 2.517917 1_544
As0 Cl4 2.517917 1_454
As0 Cl5 2.517917 1_445
Cl0 Cs2 3.260118 1_555
Cl0 Cs0 4.102506 1_545
Cl0 Cs1 4.102506 1_555
Cl0 Cs0 4.102506 1_554
Cl0 Cs1 4.102506 1_655
Cl1 Cs2 3.260118 1_555
Cl1 Cs1 4.102506 1_555
Cl1 Cs0 4.102506 1_545
Cl1 Cs0 4.102506 1_455
Cl1 Cs1 4.102506 1_556
Cl2 Cs2 3.260118 1_555
Cl2 Cs0 4.102506 1_455
Cl2 Cs1 4.102506 1_556
Cl2 Cs1 4.102506 1_565
Cl2 Cs0 4.102506 1_555
Cl3 Cs2 3.260118 1_555
Cl3 Cs1 4.102506 1_555
Cl3 Cs0 4.102506 1_554
Cl3 Cs0 4.102506 1_455
Cl3 Cs1 4.102506 1_565
Cl4 Cs2 3.260118 1_555
Cl4 Cs0 4.102506 1_545
Cl4 Cs1 4.102506 1_556
Cl4 Cs1 4.102506 1_655
Cl4 Cs0 4.102506 1_555
Cl5 Cs2 3.260118 1_555
Cl5 Cs0 4.102506 1_554
Cl5 Cs1 4.102506 1_565
Cl5 Cs1 4.102506 1_655
Cl5 Cs0 4.102506 1_555
