# generated using pymatgen
data_YAl2N3
_symmetry_space_group_name_H-M   'P 1'
_cell_length_a   5.85702247
_cell_length_b   5.78360565
_cell_length_c   5.16211600
_cell_angle_alpha   90.00000000
_cell_angle_beta   90.00000000
_cell_angle_gamma   119.58621576
_symmetry_Int_Tables_number   1
_chemical_formula_structural   YAl2N3
_chemical_formula_sum   'Y2 Al4 N6'
_cell_volume   152.06515697
_cell_formula_units_Z   2
loop_
 _symmetry_equiv_pos_site_id
 _symmetry_equiv_pos_as_xyz
  1  'x, y, z'
loop_
 _atom_site_type_symbol
 _atom_site_label
 _atom_site_symmetry_multiplicity
 _atom_site_fract_x
 _atom_site_fract_y
 _atom_site_fract_z
 _atom_site_occupancy
  Y  Y0  1  0.00000000  0.69242500  0.46526400  1
  Y  Y1  1  0.00000000  0.30757500  0.96526400  1
  Al  Al0  1  0.35084000  0.34058100  0.48975200  1
  Al  Al1  1  0.64916000  0.98974100  0.48975200  1
  Al  Al2  1  0.64916000  0.65941900  0.98975200  1
  Al  Al3  1  0.35084000  0.01025900  0.98975200  1
  N  N0  1  0.38766800  0.33171700  0.85471800  1
  N  N1  1  0.61233200  0.94404900  0.85471800  1
  N  N2  1  0.61233200  0.66828300  0.35471800  1
  N  N3  1  0.38766800  0.05595100  0.35471800  1
  N  N4  1  0.00000000  0.71016300  0.93379700  1
  N  N5  1  0.00000000  0.28983700  0.43379700  1
loop_
_geom_bond_atom_site_label_1
_geom_bond_atom_site_label_2
_geom_bond_distance
_geom_bond_site_symmetry_2
Al0 N2 1.886095 1_555
Al0 N3 1.895519 1_555
Al0 N0 1.899874 1_555
Al0 N5 1.948480 1_555
Al1 N3 1.886095 1_565
Al1 N2 1.895519 1_555
Al1 N1 1.899874 1_555
Al1 N5 1.948480 1_665
Al2 N0 1.886095 1_555
Al2 N1 1.895519 1_555
Al2 N2 1.899874 1_556
Al2 N4 1.948480 1_655
Al3 N1 1.886095 1_545
Al3 N0 1.895519 1_555
Al3 N3 1.899874 1_556
Al3 N4 1.948480 1_545
N0 Y1 2.277633 1_555
N1 Y1 2.277633 1_665
N2 Y0 2.277633 1_655
N3 Y0 2.277633 1_545
N4 Y1 2.334069 1_555
N4 Y0 2.420796 1_555
N4 Y0 2.745412 1_556
N5 Y0 2.334069 1_555
N5 Y1 2.420796 1_554
N5 Y1 2.745412 1_555
