# generated using pymatgen
data_LiVF4
_symmetry_space_group_name_H-M   'P 1'
_cell_length_a   7.56004400
_cell_length_b   7.74918100
_cell_length_c   10.95346600
_cell_angle_alpha   90.00000000
_cell_angle_beta   90.00000000
_cell_angle_gamma   90.00000000
_symmetry_Int_Tables_number   1
_chemical_formula_structural   LiVF4
_chemical_formula_sum   'Li8 V8 F32'
_cell_volume   641.69948776
_cell_formula_units_Z   8
loop_
 _symmetry_equiv_pos_site_id
 _symmetry_equiv_pos_as_xyz
  1  'x, y, z'
loop_
 _atom_site_type_symbol
 _atom_site_label
 _atom_site_symmetry_multiplicity
 _atom_site_fract_x
 _atom_site_fract_y
 _atom_site_fract_z
 _atom_site_occupancy
  Li  Li0  1  0.75000000  0.46092700  0.01796800  1
  Li  Li1  1  0.75000000  0.01001500  0.00854600  1
  Li  Li2  1  0.25000000  0.51001500  0.49145400  1
  Li  Li3  1  0.25000000  0.96092700  0.48203200  1
  Li  Li4  1  0.75000000  0.03907300  0.51796800  1
  Li  Li5  1  0.75000000  0.48998500  0.50854600  1
  Li  Li6  1  0.25000000  0.98998500  0.99145400  1
  Li  Li7  1  0.25000000  0.53907300  0.98203200  1
  V  V0  1  0.99989300  0.11012300  0.25389900  1
  V  V1  1  0.50010700  0.11012300  0.25389900  1
  V  V2  1  0.00010700  0.61012300  0.24610100  1
  V  V3  1  0.49989300  0.61012300  0.24610100  1
  V  V4  1  0.99989300  0.38987700  0.75389900  1
  V  V5  1  0.50010700  0.38987700  0.75389900  1
  V  V6  1  0.49989300  0.88987700  0.74610100  1
  V  V7  1  0.00010700  0.88987700  0.74610100  1
  F  F0  1  0.06909600  0.08579300  0.08844600  1
  F  F1  1  0.43090400  0.08579300  0.08844600  1
  F  F2  1  0.06795800  0.62791800  0.07795700  1
  F  F3  1  0.43204200  0.62791800  0.07795700  1
  F  F4  1  0.25000000  0.05787600  0.32126700  1
  F  F5  1  0.25000000  0.64703500  0.31811800  1
  F  F6  1  0.55576500  0.85887600  0.25479500  1
  F  F7  1  0.94423500  0.85887600  0.25479500  1
  F  F8  1  0.05576500  0.35887600  0.24520500  1
  F  F9  1  0.44423500  0.35887600  0.24520500  1
  F  F10  1  0.75000000  0.14703500  0.18188200  1
  F  F11  1  0.75000000  0.55787600  0.17873300  1
  F  F12  1  0.93204200  0.12791800  0.42204300  1
  F  F13  1  0.56795800  0.12791800  0.42204300  1
  F  F14  1  0.93090400  0.58579300  0.41155400  1
  F  F15  1  0.56909600  0.58579300  0.41155400  1
  F  F16  1  0.06909600  0.41420700  0.58844600  1
  F  F17  1  0.43090400  0.41420700  0.58844600  1
  F  F18  1  0.43204200  0.87208200  0.57795700  1
  F  F19  1  0.06795800  0.87208200  0.57795700  1
  F  F20  1  0.25000000  0.44212400  0.82126700  1
  F  F21  1  0.25000000  0.85296500  0.81811800  1
  F  F22  1  0.55576500  0.64112400  0.75479500  1
  F  F23  1  0.94423500  0.64112400  0.75479500  1
  F  F24  1  0.05576500  0.14112400  0.74520500  1
  F  F25  1  0.44423500  0.14112400  0.74520500  1
  F  F26  1  0.75000000  0.35296500  0.68188200  1
  F  F27  1  0.75000000  0.94212400  0.67873300  1
  F  F28  1  0.93204200  0.37208200  0.92204300  1
  F  F29  1  0.56795800  0.37208200  0.92204300  1
  F  F30  1  0.56909600  0.91420700  0.91155400  1
  F  F31  1  0.93090400  0.91420700  0.91155400  1
loop_
_geom_bond_atom_site_label_1
_geom_bond_atom_site_label_2
_geom_bond_distance
_geom_bond_site_symmetry_2
F0 Li6 1.884236 1_544
F0 V0 1.895688 1_455
F1 Li6 1.884236 1_544
F1 V1 1.895688 1_555
F2 Li7 1.863342 1_554
F2 V2 1.916825 1_555
F3 Li7 1.863342 1_554
F3 V3 1.916825 1_555
F4 Li3 1.914498 1_545
F4 V1 2.069695 1_555
F4 V0 2.069695 1_455
F5 V2 2.067163 1_555
F5 V3 2.067163 1_555
F5 Li2 2.175362 1_555
F6 V3 1.975665 1_555
F6 V1 1.991933 1_565
F7 V2 1.975665 1_655
F7 V0 1.991933 1_565
F8 V0 1.975665 1_455
F8 V2 1.991933 1_555
F9 V1 1.975665 1_555
F9 V3 1.991933 1_555
F10 V0 2.067163 1_555
F10 V1 2.067163 1_555
F10 Li1 2.175362 1_555
F11 Li0 1.914498 1_555
F11 V3 2.069695 1_555
F11 V2 2.069695 1_655
F12 Li4 1.863342 1_555
F12 V0 1.916825 1_555
F13 Li4 1.863342 1_555
F13 V1 1.916825 1_555
F14 Li5 1.884236 1_555
F14 V2 1.895688 1_655
F15 Li5 1.884236 1_555
F15 V3 1.895688 1_555
F16 Li2 1.884236 1_555
F16 V4 1.895688 1_455
F17 Li2 1.884236 1_555
F17 V5 1.895688 1_555
F18 Li3 1.863342 1_555
F18 V6 1.916825 1_555
F19 Li3 1.863342 1_555
F19 V7 1.916825 1_555
F20 Li7 1.914498 1_555
F20 V5 2.069695 1_555
F20 V4 2.069695 1_455
F21 V6 2.067163 1_555
F21 V7 2.067163 1_555
F21 Li6 2.175362 1_555
F22 V6 1.975665 1_555
F22 V5 1.991933 1_555
F23 V7 1.975665 1_655
F23 V4 1.991933 1_555
F24 V4 1.975665 1_455
F24 V7 1.991933 1_545
F25 V5 1.975665 1_555
F25 V6 1.991933 1_545
F26 V4 2.067163 1_555
F26 V5 2.067163 1_555
F26 Li5 2.175362 1_555
F27 Li4 1.914498 1_565
F27 V6 2.069695 1_555
F27 V7 2.069695 1_655
F28 Li0 1.863342 1_556
F28 V4 1.916825 1_555
F29 Li0 1.863342 1_556
F29 V5 1.916825 1_555
F30 Li1 1.884236 1_566
F30 V6 1.895688 1_555
F31 Li1 1.884236 1_566
F31 V7 1.895688 1_655
