# generated using pymatgen
data_Sm9Ni24Sn49
_symmetry_space_group_name_H-M   'P 1'
_cell_length_a   10.31632816
_cell_length_b   10.31632816
_cell_length_c   17.00574080
_cell_angle_alpha   90.12594012
_cell_angle_beta   89.87405988
_cell_angle_gamma   109.35637366
_symmetry_Int_Tables_number   1
_chemical_formula_structural   Sm9Ni24Sn49
_chemical_formula_sum   'Sm9 Ni24 Sn49'
_cell_volume   1707.55543365
_cell_formula_units_Z   1
loop_
 _symmetry_equiv_pos_site_id
 _symmetry_equiv_pos_as_xyz
  1  'x, y, z'
loop_
 _atom_site_type_symbol
 _atom_site_label
 _atom_site_symmetry_multiplicity
 _atom_site_fract_x
 _atom_site_fract_y
 _atom_site_fract_z
 _atom_site_occupancy
  Sm  Sm0  1  0.75027546  0.75048244  0.24959193  1
  Sm  Sm1  1  0.24972454  0.24951756  0.75040807  1
  Sm  Sm2  1  0.50000000  -0.00000000  0.00000000  1
  Sm  Sm3  1  -0.00000000  0.50000000  0.50000000  1
  Sm  Sm4  1  -0.00000000  0.50000000  0.00000000  1
  Sm  Sm5  1  0.50000000  -0.00000000  0.50000000  1
  Sm  Sm6  1  0.24951756  0.24972454  0.24959193  1
  Sm  Sm7  1  0.75048244  0.75027546  0.75040807  1
  Sm  Sm8  1  -0.00000000  -0.00000000  0.00000000  1
  Ni  Ni0  1  0.90277798  0.74260282  0.42027383  1
  Ni  Ni1  1  0.40154250  0.24283294  0.92089365  1
  Ni  Ni2  1  0.59845750  0.75716706  0.07910635  1
  Ni  Ni3  1  0.09722202  0.25739718  0.57972617  1
  Ni  Ni4  1  0.25739718  0.09722202  0.42027383  1
  Ni  Ni5  1  0.75716706  0.59845750  0.92089365  1
  Ni  Ni6  1  0.24283294  0.40154250  0.07910635  1
  Ni  Ni7  1  0.74260282  0.90277798  0.57972617  1
  Ni  Ni8  1  0.00181189  0.68012414  0.16070423  1
  Ni  Ni9  1  0.50052180  0.17921922  0.66124909  1
  Ni  Ni10  1  0.49947820  0.82078078  0.33875091  1
  Ni  Ni11  1  0.99818811  0.31987586  0.83929577  1
  Ni  Ni12  1  0.17921922  0.50052180  0.33875091  1
  Ni  Ni13  1  0.68012414  0.00181189  0.83929577  1
  Ni  Ni14  1  0.31987586  0.99818811  0.16070423  1
  Ni  Ni15  1  0.82078078  0.49947820  0.66124909  1
  Ni  Ni16  1  0.76007777  0.23992223  0.08079111  1
  Ni  Ni17  1  0.25925721  0.74074279  0.58064518  1
  Ni  Ni18  1  0.74074279  0.25925721  0.41935482  1
  Ni  Ni19  1  0.23992223  0.76007777  0.91920889  1
  Ni  Ni20  1  0.58135112  0.41864888  0.25915202  1
  Ni  Ni21  1  0.08159831  0.91840169  0.76036789  1
  Ni  Ni22  1  0.91840169  0.08159831  0.23963211  1
  Ni  Ni23  1  0.41864888  0.58135112  0.74084798  1
  Sn  Sn0  1  0.74947896  0.50418624  0.37698483  1
  Sn  Sn1  1  0.25908369  0.00385523  0.87218064  1
  Sn  Sn2  1  0.74091631  0.99614477  0.12781936  1
  Sn  Sn3  1  0.25052104  0.49581376  0.62301517  1
  Sn  Sn4  1  0.49581376  0.25052104  0.37698483  1
  Sn  Sn5  1  0.99614477  0.74091631  0.87218064  1
  Sn  Sn6  1  0.00385523  0.25908369  0.12781936  1
  Sn  Sn7  1  0.50418624  0.74947896  0.62301517  1
  Sn  Sn8  1  0.81201094  0.68119015  0.06490770  1
  Sn  Sn9  1  0.31698111  0.19022552  0.56357968  1
  Sn  Sn10  1  0.68301889  0.80977448  0.43642032  1
  Sn  Sn11  1  0.18798906  0.31880985  0.93509230  1
  Sn  Sn12  1  0.19022552  0.31698111  0.43642032  1
  Sn  Sn13  1  0.68119015  0.81201094  0.93509230  1
  Sn  Sn14  1  0.31880985  0.18798906  0.06490770  1
  Sn  Sn15  1  0.80977448  0.68301889  0.56357968  1
  Sn  Sn16  1  0.31462805  0.68537195  0.44113894  1
  Sn  Sn17  1  0.80714261  0.19285739  0.93863409  1
  Sn  Sn18  1  0.19285739  0.80714261  0.06136591  1
  Sn  Sn19  1  0.68537195  0.31462805  0.55886106  1
  Sn  Sn20  1  0.44045108  0.55954892  0.31315966  1
  Sn  Sn21  1  0.93849241  0.06150759  0.80749210  1
  Sn  Sn22  1  0.06150759  0.93849241  0.19250790  1
  Sn  Sn23  1  0.55954892  0.44045108  0.68684034  1
  Sn  Sn24  1  0.44465271  0.81224690  0.18449774  1
  Sn  Sn25  1  0.94350517  0.31257928  0.68392760  1
  Sn  Sn26  1  0.05649483  0.68742072  0.31607240  1
  Sn  Sn27  1  0.55534729  0.18775310  0.81550226  1
  Sn  Sn28  1  0.18775310  0.55534729  0.18449774  1
  Sn  Sn29  1  0.68742072  0.05649483  0.68392760  1
  Sn  Sn30  1  0.31257928  0.94350517  0.31607240  1
  Sn  Sn31  1  0.81224690  0.44465271  0.81550226  1
  Sn  Sn32  1  0.68257301  0.05462048  0.31430779  1
  Sn  Sn33  1  0.18178592  0.55420062  0.81312417  1
  Sn  Sn34  1  0.81821408  0.44579938  0.18687583  1
  Sn  Sn35  1  0.31742699  0.94537952  0.68569221  1
  Sn  Sn36  1  0.55420062  0.18178592  0.18687583  1
  Sn  Sn37  1  0.05462048  0.68257301  0.68569221  1
  Sn  Sn38  1  0.94537952  0.31742699  0.31430779  1
  Sn  Sn39  1  0.44579938  0.81821408  0.81312417  1
  Sn  Sn40  1  0.86996866  0.13003134  0.49790488  1
  Sn  Sn41  1  0.37099774  0.62900226  0.99744380  1
  Sn  Sn42  1  0.62900226  0.37099774  0.00255620  1
  Sn  Sn43  1  0.13003134  0.86996866  0.50209512  1
  Sn  Sn44  1  0.99821313  0.00178687  0.36934890  1
  Sn  Sn45  1  0.49848568  0.50151432  0.86922412  1
  Sn  Sn46  1  0.50151432  0.49848568  0.13077588  1
  Sn  Sn47  1  0.00178687  0.99821313  0.63065110  1
  Sn  Sn48  1  0.50000000  0.50000000  0.50000000  1
loop_
_geom_bond_atom_site_label_1
_geom_bond_atom_site_label_2
_geom_bond_distance
_geom_bond_site_symmetry_2
Sm0 Sn22 3.298455 1_655
Sm0 Sn2 3.302525 1_555
Sm0 Sn8 3.326214 1_555
Sm0 Sn20 3.329454 1_555
Sm0 Sn0 3.340616 1_555
Sm0 Sn10 3.348578 1_555
Sm0 Sn24 3.594769 1_555
Sm0 Sn34 3.598724 1_555
Sm0 Sn32 3.602439 1_565
Sm0 Sn46 3.606121 1_555
Sm0 Sn44 3.607651 1_565
Sm0 Sn26 3.614182 1_655
Sm1 Sn21 3.298455 1_455
Sm1 Sn1 3.302525 1_555
Sm1 Sn11 3.326214 1_555
Sm1 Sn23 3.329454 1_555
Sm1 Sn3 3.340616 1_555
Sm1 Sn9 3.348578 1_555
Sm1 Sn27 3.594769 1_555
Sm1 Sn33 3.598724 1_555
Sm1 Sn35 3.602439 1_545
Sm1 Sn45 3.606121 1_555
Sm1 Sn47 3.607651 1_545
Sm1 Sn25 3.614182 1_455
Sm2 Sn13 3.295147 1_544
Sm2 Sn14 3.295147 1_555
Sm2 Sn17 3.301978 1_554
Sm2 Sn18 3.301978 1_545
Sm2 Sn1 3.315587 1_554
Sm2 Sn2 3.315587 1_545
Sm2 Sn41 3.611728 1_544
Sm2 Sn42 3.611728 1_555
Sm2 Sn27 3.634205 1_554
Sm2 Sn24 3.634205 1_545
Sm2 Sn39 3.635324 1_544
Sm2 Sn36 3.635324 1_555
Sm3 Sn12 3.320069 1_555
Sm3 Sn15 3.320069 1_455
Sm3 Sn19 3.327736 1_455
Sm3 Sn16 3.327736 1_555
Sm3 Sn0 3.340023 1_455
Sm3 Sn3 3.340023 1_555
Sm3 Sn40 3.601913 1_455
Sm3 Sn43 3.601913 1_555
Sm3 Sn38 3.621475 1_455
Sm3 Sn37 3.621475 1_555
Sm3 Sn25 3.623941 1_455
Sm3 Sn26 3.623941 1_555
Sm4 Sn11 3.295147 1_554
Sm4 Sn8 3.295147 1_455
Sm4 Sn17 3.301978 1_454
Sm4 Sn18 3.301978 1_555
Sm4 Sn6 3.315587 1_555
Sm4 Sn5 3.315587 1_454
Sm4 Sn42 3.611728 1_455
Sm4 Sn41 3.611728 1_554
Sm4 Sn28 3.634205 1_555
Sm4 Sn31 3.634205 1_454
Sm4 Sn34 3.635324 1_455
Sm4 Sn33 3.635324 1_554
Sm5 Sn10 3.320069 1_545
Sm5 Sn9 3.320069 1_555
Sm5 Sn16 3.327736 1_545
Sm5 Sn19 3.327736 1_555
Sm5 Sn4 3.340023 1_555
Sm5 Sn7 3.340023 1_545
Sm5 Sn43 3.601913 1_545
Sm5 Sn40 3.601913 1_555
Sm5 Sn32 3.621475 1_555
Sm5 Sn35 3.621475 1_545
Sm5 Sn29 3.623941 1_555
Sm5 Sn30 3.623941 1_545
Sm6 Sn22 3.298455 1_545
Sm6 Sn6 3.302525 1_555
Sm6 Sn14 3.326214 1_555
Sm6 Sn20 3.329454 1_555
Sm6 Sn4 3.340616 1_555
Sm6 Sn12 3.348578 1_555
Sm6 Sn28 3.594769 1_555
Sm6 Sn36 3.598724 1_555
Sm6 Sn38 3.602439 1_455
Sm6 Sn46 3.606121 1_555
Sm6 Sn44 3.607651 1_455
Sm6 Sn30 3.614182 1_545
Sm7 Sn21 3.298455 1_565
Sm7 Sn5 3.302525 1_555
Sm7 Sn13 3.326214 1_555
Sm7 Sn23 3.329454 1_555
Sm7 Sn7 3.340616 1_555
Sm7 Sn15 3.348578 1_555
Sm7 Sn31 3.594769 1_555
Sm7 Sn39 3.598724 1_555
Sm7 Sn37 3.602439 1_655
Sm7 Sn45 3.606121 1_555
Sm7 Sn47 3.607651 1_655
Sm7 Sn29 3.614182 1_565
Sm8 Sn8 3.402210 1_445
Sm8 Sn13 3.402210 1_444
Sm8 Sn11 3.402210 1_554
Sm8 Sn14 3.402210 1_555
Sm8 Sn18 3.412938 1_545
Sm8 Sn17 3.412938 1_454
Sm8 Sn5 3.431412 1_444
Sm8 Sn1 3.431412 1_554
Sm8 Sn2 3.431412 1_445
Sm8 Sn6 3.431412 1_555
Sm8 Sn22 3.436247 1_545
Sm8 Sn21 3.436247 1_454
Ni0 Sn0 2.551714 1_555
Ni0 Sn26 2.561350 1_655
Ni0 Sn10 2.594842 1_555
Ni0 Sn15 2.615880 1_555
Ni0 Sn43 2.668926 1_655
Ni0 Sn44 2.670215 1_565
Ni0 Sm3 3.285255 1_655
Ni0 Sm0 3.318522 1_555
Ni1 Sn1 2.553187 1_555
Ni1 Sn27 2.575532 1_555
Ni1 Sn11 2.582196 1_555
Ni1 Sn14 2.592931 1_556
Ni1 Sn45 2.670429 1_555
Ni1 Sn42 2.670703 1_556
Ni1 Sm2 3.290094 1_556
Ni1 Sm1 3.309946 1_555
Ni2 Sn2 2.553187 1_555
Ni2 Sn24 2.575532 1_555
Ni2 Sn8 2.582196 1_555
Ni2 Sn13 2.592931 1_554
Ni2 Sn46 2.670429 1_555
Ni2 Sn41 2.670703 1_554
Ni2 Sm2 3.290094 1_565
Ni2 Sm0 3.309946 1_555
Ni3 Sn3 2.551714 1_555
Ni3 Sn25 2.561350 1_455
Ni3 Sn9 2.594842 1_555
Ni3 Sn12 2.615880 1_555
Ni3 Sn40 2.668926 1_455
Ni3 Sn47 2.670215 1_545
Ni3 Sm3 3.285255 1_555
Ni3 Sm1 3.318522 1_555
Ni4 Sn4 2.551714 1_555
Ni4 Sn30 2.561350 1_545
Ni4 Sn12 2.594842 1_555
Ni4 Sn9 2.615880 1_555
Ni4 Sn43 2.668926 1_545
Ni4 Sn44 2.670215 1_455
Ni4 Sm5 3.285255 1_555
Ni4 Sm6 3.318522 1_555
Ni5 Sn5 2.553187 1_555
Ni5 Sn31 2.575532 1_555
Ni5 Sn13 2.582196 1_555
Ni5 Sn8 2.592931 1_556
Ni5 Sn45 2.670429 1_555
Ni5 Sn42 2.670703 1_556
Ni5 Sm4 3.290094 1_656
Ni5 Sm7 3.309946 1_555
Ni6 Sn6 2.553187 1_555
Ni6 Sn28 2.575532 1_555
Ni6 Sn14 2.582196 1_555
Ni6 Sn11 2.592931 1_554
Ni6 Sn46 2.670429 1_555
Ni6 Sn41 2.670703 1_554
Ni6 Sm4 3.290094 1_555
Ni6 Sm6 3.309946 1_555
Ni7 Sn7 2.551714 1_555
Ni7 Sn29 2.561350 1_565
Ni7 Sn15 2.594842 1_555
Ni7 Sn10 2.615880 1_555
Ni7 Sn40 2.668926 1_565
Ni7 Sn47 2.670215 1_655
Ni7 Sm5 3.285255 1_565
Ni7 Sm7 3.318522 1_555
Ni8 Sn8 2.552722 1_455
Ni8 Sn34 2.568098 1_455
Ni8 Sn22 2.585191 1_555
Ni8 Sn18 2.595843 1_555
Ni8 Sn28 2.672607 1_555
Ni8 Sn26 2.698591 1_555
Ni8 Sm0 3.282063 1_455
Ni8 Sm4 3.298017 1_555
Ni9 Sn9 2.552254 1_555
Ni9 Sn35 2.557448 1_545
Ni9 Sn23 2.594446 1_555
Ni9 Sn19 2.617232 1_555
Ni9 Sn29 2.663243 1_555
Ni9 Sn27 2.679790 1_555
Ni9 Sm1 3.277308 1_555
Ni9 Sm5 3.302881 1_555
Ni10 Sn10 2.552254 1_555
Ni10 Sn32 2.557448 1_565
Ni10 Sn20 2.594446 1_555
Ni10 Sn16 2.617232 1_555
Ni10 Sn30 2.663243 1_555
Ni10 Sn24 2.679790 1_555
Ni10 Sm0 3.277308 1_555
Ni10 Sm5 3.302881 1_565
Ni11 Sn11 2.552722 1_655
Ni11 Sn33 2.568098 1_655
Ni11 Sn21 2.585191 1_555
Ni11 Sn17 2.595843 1_555
Ni11 Sn31 2.672607 1_555
Ni11 Sn25 2.698591 1_555
Ni11 Sm1 3.282063 1_655
Ni11 Sm4 3.298017 1_656
Ni12 Sn12 2.552254 1_555
Ni12 Sn38 2.557448 1_455
Ni12 Sn20 2.594446 1_555
Ni12 Sn16 2.617232 1_555
Ni12 Sn26 2.663243 1_555
Ni12 Sn28 2.679790 1_555
Ni12 Sm6 3.277308 1_555
Ni12 Sm3 3.302881 1_555
Ni13 Sn13 2.552722 1_545
Ni13 Sn39 2.568098 1_545
Ni13 Sn21 2.585191 1_555
Ni13 Sn17 2.595843 1_555
Ni13 Sn27 2.672607 1_555
Ni13 Sn29 2.698591 1_555
Ni13 Sm7 3.282063 1_545
Ni13 Sm2 3.298017 1_556
Ni14 Sn14 2.552722 1_565
Ni14 Sn36 2.568098 1_565
Ni14 Sn22 2.585191 1_555
Ni14 Sn18 2.595843 1_555
Ni14 Sn24 2.672607 1_555
Ni14 Sn30 2.698591 1_555
Ni14 Sm6 3.282063 1_565
Ni14 Sm2 3.298017 1_565
Ni15 Sn15 2.552254 1_555
Ni15 Sn37 2.557448 1_655
Ni15 Sn23 2.594446 1_555
Ni15 Sn19 2.617232 1_555
Ni15 Sn25 2.663243 1_555
Ni15 Sn31 2.679790 1_555
Ni15 Sm7 3.277308 1_555
Ni15 Sm3 3.302881 1_655
Ni16 Sn17 2.541983 1_554
Ni16 Sn42 2.579722 1_555
Ni16 Sn2 2.584946 1_545
Ni16 Sn6 2.584946 1_655
Ni16 Sn36 2.696062 1_555
Ni16 Sn34 2.696062 1_555
Ni16 Sm4 3.288116 1_655
Ni16 Sm2 3.288116 1_555
Ni17 Sn16 2.546623 1_555
Ni17 Sn43 2.555904 1_555
Ni17 Sn7 2.601655 1_555
Ni17 Sn3 2.601655 1_555
Ni17 Sn37 2.675152 1_555
Ni17 Sn35 2.675152 1_555
Ni17 Sm5 3.286380 1_565
Ni17 Sm3 3.286380 1_555
Ni18 Sn19 2.546623 1_555
Ni18 Sn40 2.555904 1_555
Ni18 Sn0 2.601655 1_555
Ni18 Sn4 2.601655 1_555
Ni18 Sn32 2.675152 1_555
Ni18 Sn38 2.675152 1_555
Ni18 Sm3 3.286380 1_655
Ni18 Sm5 3.286380 1_555
Ni19 Sn18 2.541983 1_556
Ni19 Sn41 2.579722 1_555
Ni19 Sn5 2.584946 1_455
Ni19 Sn1 2.584946 1_565
Ni19 Sn33 2.696062 1_555
Ni19 Sn39 2.696062 1_555
Ni19 Sm2 3.288116 1_566
Ni19 Sm4 3.288116 1_556
Ni20 Sn20 2.541284 1_555
Ni20 Sn46 2.566759 1_555
Ni20 Sn4 2.606784 1_555
Ni20 Sn0 2.606784 1_555
Ni20 Sn36 2.663596 1_555
Ni20 Sn34 2.663596 1_555
Ni20 Sm0 3.290742 1_555
Ni20 Sm6 3.290742 1_555
Ni21 Sn21 2.536865 1_465
Ni21 Sn1 2.585188 1_565
Ni21 Sn5 2.585188 1_455
Ni21 Sn47 2.585987 1_555
Ni21 Sn35 2.673613 1_555
Ni21 Sn37 2.673613 1_555
Ni21 Sm1 3.283172 1_565
Ni21 Sm7 3.283172 1_455
Ni22 Sn22 2.536865 1_645
Ni22 Sn6 2.585188 1_655
Ni22 Sn2 2.585188 1_545
Ni22 Sn44 2.585987 1_555
Ni22 Sn32 2.673613 1_555
Ni22 Sn38 2.673613 1_555
Ni22 Sm6 3.283172 1_655
Ni22 Sm0 3.283172 1_545
Ni23 Sn23 2.541284 1_555
Ni23 Sn45 2.566759 1_555
Ni23 Sn3 2.606784 1_555
Ni23 Sn7 2.606784 1_555
Ni23 Sn33 2.663596 1_555
Ni23 Sn39 2.663596 1_555
Ni23 Sm1 3.290742 1_555
Ni23 Sm7 3.290742 1_555
Sn0 Sn48 3.302301 1_555
Sn3 Sn48 3.302301 1_555
Sn4 Sn48 3.302301 1_555
Sn10 Sn48 3.309547 1_555
Sn12 Sn48 3.309547 1_555
Sn15 Sn48 3.309547 1_555
Sn16 Sn48 3.279826 1_555
Sn19 Sn48 3.279826 1_555
Sn20 Sn48 3.334326 1_555
Sn23 Sn48 3.334326 1_555
Sn48 Sn7 3.302301 1_555
Sn48 Sn9 3.309547 1_555
