# generated using pymatgen
data_Sr3CrF12
_symmetry_space_group_name_H-M   'P 1'
_cell_length_a   6.91672873
_cell_length_b   7.68088031
_cell_length_c   7.55400323
_cell_angle_alpha   120.55717353
_cell_angle_beta   102.99128563
_cell_angle_gamma   63.75701399
_symmetry_Int_Tables_number   1
_chemical_formula_structural   Sr3CrF12
_chemical_formula_sum   'Sr3 Cr1 F12'
_cell_volume   309.96365295
_cell_formula_units_Z   1
loop_
 _symmetry_equiv_pos_site_id
 _symmetry_equiv_pos_as_xyz
  1  'x, y, z'
loop_
 _atom_site_type_symbol
 _atom_site_label
 _atom_site_symmetry_multiplicity
 _atom_site_fract_x
 _atom_site_fract_y
 _atom_site_fract_z
 _atom_site_occupancy
  Sr  Sr0  1  0.50000000  0.00000000  0.00000000  1
  Sr  Sr1  1  0.00000000  0.50000000  0.50000000  1
  Sr  Sr2  1  0.00000000  0.00000000  0.50000000  1
  Cr  Cr0  1  0.00000000  0.00000000  0.00000000  1
  F  F0  1  0.90207500  0.66443100  0.84535000  1
  F  F1  1  0.09792500  0.33556900  0.15465000  1
  F  F2  1  0.64105400  0.02793100  0.37613000  1
  F  F3  1  0.09792500  0.18091900  0.84535000  1
  F  F4  1  0.35894600  0.97206900  0.62387000  1
  F  F5  1  0.90207500  0.81908100  0.15465000  1
  F  F6  1  0.20486100  0.77329400  0.78542100  1
  F  F7  1  0.35894600  0.34819900  0.37613000  1
  F  F8  1  0.79513900  0.22670600  0.21457900  1
  F  F9  1  0.64105400  0.65180100  0.62387000  1
  F  F10  1  0.79513900  0.01212700  0.78542100  1
  F  F11  1  0.20486100  0.98787300  0.21457900  1
loop_
_geom_bond_atom_site_label_1
_geom_bond_atom_site_label_2
_geom_bond_distance
_geom_bond_site_symmetry_2
Cr0 F10 1.909982 1_454
Cr0 F11 1.909982 1_545
Cr0 F8 1.909982 1_455
Cr0 F6 1.909982 1_544
Cr0 F3 2.567749 1_554
Cr0 F5 2.567749 1_445
Cr0 F1 2.567749 1_555
Cr0 F0 2.567749 1_444
F0 Sr1 2.355281 1_655
F0 Sr0 2.793251 1_566
F1 Sr1 2.355281 1_555
F1 Sr0 2.793251 1_555
F2 Sr2 2.402942 1_655
F2 Sr0 2.718414 1_555
F3 Sr2 2.355281 1_555
F3 Sr0 2.793251 1_556
F4 Sr2 2.402942 1_565
F4 Sr0 2.718414 1_566
F5 Sr2 2.355281 1_665
F5 Sr0 2.793251 1_565
F6 Sr1 2.778089 1_555
F6 Sr0 2.934757 1_566
F7 Sr1 2.402942 1_555
F7 Sr0 2.718414 1_555
F8 Sr1 2.778089 1_655
F8 Sr0 2.934757 1_555
F9 Sr1 2.402942 1_655
F9 Sr0 2.718414 1_566
F10 Sr2 2.778089 1_655
F10 Sr0 2.934757 1_556
F11 Sr2 2.778089 1_565
F11 Sr0 2.934757 1_565
