# generated using pymatgen
data_Al2Cu2Ni
_symmetry_space_group_name_H-M   'P 1'
_cell_length_a   2.95840800
_cell_length_b   2.95840800
_cell_length_c   14.31194800
_cell_angle_alpha   90.00000000
_cell_angle_beta   90.00000000
_cell_angle_gamma   90.00000000
_symmetry_Int_Tables_number   1
_chemical_formula_structural   Al2Cu2Ni
_chemical_formula_sum   'Al4 Cu4 Ni2'
_cell_volume   125.26071491
_cell_formula_units_Z   2
loop_
 _symmetry_equiv_pos_site_id
 _symmetry_equiv_pos_as_xyz
  1  'x, y, z'
loop_
 _atom_site_type_symbol
 _atom_site_label
 _atom_site_symmetry_multiplicity
 _atom_site_fract_x
 _atom_site_fract_y
 _atom_site_fract_z
 _atom_site_occupancy
  Al  Al0  1  0.00000000  0.00000000  0.99633800  1
  Al  Al1  1  0.00000000  0.00000000  0.19162000  1
  Al  Al2  1  0.00000000  0.00000000  0.39990600  1
  Al  Al3  1  0.00000000  0.00000000  0.61040000  1
  Cu  Cu0  1  0.50000000  0.50000000  0.29704100  1
  Cu  Cu1  1  0.50000000  0.50000000  0.50329600  1
  Cu  Cu2  1  0.50000000  0.50000000  0.70633500  1
  Cu  Cu3  1  0.50000000  0.50000000  0.89682800  1
  Ni  Ni0  1  0.00000000  0.00000000  0.80088100  1
  Ni  Ni1  1  0.50000000  0.50000000  0.09735500  1
loop_
_geom_bond_atom_site_label_1
_geom_bond_atom_site_label_2
_geom_bond_distance
_geom_bond_site_symmetry_2
Al0 Cu3 2.530688 1_545
Al0 Cu3 2.530688 1_455
Al0 Cu3 2.530688 1_555
Al0 Cu3 2.530688 1_445
Al0 Ni1 2.542889 1_456
Al0 Ni1 2.542889 1_556
Al0 Ni1 2.542889 1_446
Al0 Ni1 2.542889 1_546
Al0 Ni0 2.797370 1_555
Al1 Ni1 2.489217 1_445
Al1 Ni1 2.489217 1_555
Al1 Ni1 2.489217 1_455
Al1 Ni1 2.489217 1_545
Al1 Cu0 2.579245 1_445
Al1 Cu0 2.579245 1_555
Al1 Cu0 2.579245 1_545
Al1 Cu0 2.579245 1_455
Al2 Cu0 2.558018 1_555
Al2 Cu0 2.558018 1_445
Al2 Cu0 2.558018 1_545
Al2 Cu0 2.558018 1_455
Al2 Cu1 2.562350 1_455
Al2 Cu1 2.562350 1_555
Al2 Cu1 2.562350 1_445
Al2 Cu1 2.562350 1_545
Al3 Cu2 2.502252 1_455
Al3 Cu2 2.502252 1_445
Al3 Cu2 2.502252 1_545
Al3 Cu2 2.502252 1_555
Al3 Cu1 2.593409 1_555
Al3 Cu1 2.593409 1_545
Al3 Cu1 2.593409 1_445
Al3 Cu1 2.593409 1_455
Al3 Ni0 2.726154 1_555
Cu2 Ni0 2.491399 1_565
Cu2 Ni0 2.491399 1_555
Cu2 Ni0 2.491399 1_655
Cu2 Ni0 2.491399 1_665
Cu3 Ni0 2.502346 1_565
Cu3 Ni0 2.502346 1_555
Cu3 Ni0 2.502346 1_655
Cu3 Ni0 2.502346 1_665
