# generated using pymatgen
data_Na2Mg(SO6)2
_symmetry_space_group_name_H-M   'P 1'
_cell_length_a   4.99100655
_cell_length_b   8.57398900
_cell_length_c   12.20103585
_cell_angle_alpha   90.00000000
_cell_angle_beta   85.18464874
_cell_angle_gamma   90.00000000
_symmetry_Int_Tables_number   1
_chemical_formula_structural   Na2Mg(SO6)2
_chemical_formula_sum   'Na4 Mg2 S4 O24'
_cell_volume   520.27405483
_cell_formula_units_Z   2
loop_
 _symmetry_equiv_pos_site_id
 _symmetry_equiv_pos_as_xyz
  1  'x, y, z'
loop_
 _atom_site_type_symbol
 _atom_site_label
 _atom_site_symmetry_multiplicity
 _atom_site_fract_x
 _atom_site_fract_y
 _atom_site_fract_z
 _atom_site_occupancy
  Na  Na0  1  0.66356700  0.60905300  0.11714900  1
  Na  Na1  1  0.33643300  0.10905300  0.38285100  1
  Na  Na2  1  0.33643300  0.39094700  0.88285100  1
  Na  Na3  1  0.66356700  0.89094700  0.61714900  1
  Mg  Mg0  1  0.00000000  0.50000000  0.50000000  1
  Mg  Mg1  1  0.00000000  0.00000000  0.00000000  1
  S  S0  1  0.53630700  0.71101500  0.40846600  1
  S  S1  1  0.46369300  0.21101500  0.09153400  1
  S  S2  1  0.46369300  0.28898500  0.59153400  1
  S  S3  1  0.53630700  0.78898500  0.90846600  1
  O  O0  1  0.64668700  0.64135100  0.30431400  1
  O  O1  1  0.35331300  0.14135100  0.19568600  1
  O  O2  1  0.35331300  0.35864900  0.69568600  1
  O  O3  1  0.64668700  0.85864900  0.80431400  1
  O  O4  1  0.69099800  0.65288300  0.50242500  1
  O  O5  1  0.30900200  0.15288300  0.99757500  1
  O  O6  1  0.30900200  0.34711700  0.49757500  1
  O  O7  1  0.69099800  0.84711700  0.00242500  1
  O  O8  1  0.55786900  0.88324800  0.40919200  1
  O  O9  1  0.44213100  0.38324800  0.09080800  1
  O  O10  1  0.44213100  0.11675200  0.59080800  1
  O  O11  1  0.55786900  0.61675200  0.90919200  1
  O  O12  1  0.24729500  0.66627800  0.43244900  1
  O  O13  1  0.75270500  0.16627800  0.06755100  1
  O  O14  1  0.75270500  0.33372200  0.56755100  1
  O  O15  1  0.24729500  0.83372200  0.93244900  1
  O  O16  1  0.90281500  0.35509400  0.24343200  1
  O  O17  1  0.09718500  0.85509400  0.25656800  1
  O  O18  1  0.09718500  0.64490600  0.75656800  1
  O  O19  1  0.90281500  0.14490600  0.74343200  1
  O  O20  1  0.09699000  0.81023100  0.16048700  1
  O  O21  1  0.90301000  0.31023100  0.33951300  1
  O  O22  1  0.90301000  0.18976900  0.83951300  1
  O  O23  1  0.09699000  0.68976900  0.66048700  1
loop_
_geom_bond_atom_site_label_1
_geom_bond_atom_site_label_2
_geom_bond_distance
_geom_bond_site_symmetry_2
Na0 O9 2.265536 1_555
Na0 O0 2.294852 1_555
Na0 O7 2.472287 1_555
Na0 O11 2.635379 1_554
Na0 O20 2.850687 1_655
Na0 O16 2.974895 1_555
Na1 O8 2.265536 1_545
Na1 O1 2.294852 1_555
Na1 O6 2.472287 1_555
Na1 O10 2.635379 1_555
Na1 O21 2.850687 1_455
Na1 O17 2.974895 1_545
Na2 O11 2.265536 1_555
Na2 O2 2.294852 1_555
Na2 O5 2.472287 1_555
Na2 O9 2.635379 1_556
Na2 O22 2.850687 1_455
Na2 O18 2.974895 1_555
Na3 O10 2.265536 1_565
Na3 O3 2.294852 1_555
Na3 O4 2.472287 1_555
Na3 O8 2.635379 1_555
Na3 O23 2.850687 1_655
Na3 O19 2.974895 1_565
Mg0 O12 2.016037 1_555
Mg0 O14 2.016037 1_455
Mg0 O6 2.022358 1_555
Mg0 O4 2.022358 1_455
Mg0 O23 2.622029 1_555
Mg0 O21 2.622029 1_455
Mg1 O13 2.016037 1_455
Mg1 O15 2.016037 1_544
Mg1 O7 2.022358 1_445
Mg1 O5 2.022358 1_554
Mg1 O22 2.622029 1_454
Mg1 O20 2.622029 1_545
O0 S0 1.468866 1_555
O1 S1 1.468866 1_555
O2 S2 1.468866 1_555
O3 S3 1.468866 1_555
O4 S0 1.518991 1_555
O5 S1 1.518991 1_556
O6 S2 1.518991 1_555
O7 S3 1.518991 1_554
O8 S0 1.480720 1_555
O9 S1 1.480720 1_555
O10 S2 1.480720 1_555
O11 S3 1.480720 1_555
O12 S0 1.497526 1_555
O13 S1 1.497526 1_555
O14 S2 1.497526 1_555
O15 S3 1.497526 1_555
O16 O21 1.233860 1_555
O17 O20 1.233860 1_555
O18 O23 1.233860 1_555
O19 O22 1.233860 1_555
