# generated using pymatgen
data_Sr2LiTi6N2O11
_symmetry_space_group_name_H-M   'P 1'
_cell_length_a   3.90026911
_cell_length_b   7.78758373
_cell_length_c   9.69172245
_cell_angle_alpha   77.86072586
_cell_angle_beta   90.01265461
_cell_angle_gamma   75.50293368
_symmetry_Int_Tables_number   1
_chemical_formula_structural   Sr2LiTi6N2O11
_chemical_formula_sum   'Sr2 Li1 Ti6 N2 O11'
_cell_volume   278.19280154
_cell_formula_units_Z   1
loop_
 _symmetry_equiv_pos_site_id
 _symmetry_equiv_pos_as_xyz
  1  'x, y, z'
loop_
 _atom_site_type_symbol
 _atom_site_label
 _atom_site_symmetry_multiplicity
 _atom_site_fract_x
 _atom_site_fract_y
 _atom_site_fract_z
 _atom_site_occupancy
  Sr  Sr0  1  0.51727500  0.96211700  0.82476500  1
  Sr  Sr1  1  0.44299100  0.11469000  0.24828000  1
  Li  Li0  1  0.63569100  0.72501200  0.58708200  1
  Ti  Ti0  1  0.11679300  0.76399200  0.09800900  1
  Ti  Ti1  1  0.17348800  0.64967500  0.40787200  1
  Ti  Ti2  1  0.21940200  0.55782300  0.76736500  1
  Ti  Ti3  1  0.75489100  0.48757500  0.22045800  1
  Ti  Ti4  1  0.83373100  0.32708800  0.55519100  1
  Ti  Ti5  1  0.86220400  0.27301500  0.92700500  1
  N  N0  1  0.23177700  0.53371200  0.24440400  1
  N  N1  1  0.83390800  0.33054600  0.09886500  1
  O  O0  1  0.06208300  0.87456200  0.27462100  1
  O  O1  1  0.12677100  0.74324900  0.59862600  1
  O  O2  1  0.14922300  0.69834900  0.89563400  1
  O  O3  1  0.62412300  0.74922500  0.09051000  1
  O  O4  1  0.68904800  0.61846700  0.42822200  1
  O  O5  1  0.74431900  0.50796900  0.75081000  1
  O  O6  1  0.29851800  0.39871400  0.56046900  1
  O  O7  1  0.35112800  0.29496300  0.87796100  1
  O  O8  1  0.86946500  0.25601200  0.38627600  1
  O  O9  1  0.93312800  0.12941700  0.69086500  1
  O  O10  1  0.98737100  0.02217500  0.98569200  1
loop_
_geom_bond_atom_site_label_1
_geom_bond_atom_site_label_2
_geom_bond_distance
_geom_bond_site_symmetry_2
Li0 O4 1.884987 1_555
Li0 O1 1.959147 1_555
Li0 O1 1.960615 1_655
Li0 O5 2.016809 1_555
N0 Ti1 1.968829 1_555
N0 Ti0 1.989254 1_555
N0 Ti3 2.002987 1_455
N0 Ti3 2.003492 1_555
N1 Ti5 1.810076 1_554
N1 Ti3 1.843015 1_555
N1 Sr1 2.740026 1_555
N1 Sr1 2.746181 1_655
O0 Ti1 1.895066 1_555
O0 Ti0 2.060306 1_555
O0 Sr1 2.632645 1_465
O0 Sr1 2.638102 1_565
O1 Ti2 1.906701 1_555
O1 Ti1 2.117149 1_555
O2 Ti2 1.800086 1_555
O2 Ti0 2.124546 1_556
O2 Sr0 2.763180 1_555
O2 Sr0 2.763566 1_455
O3 Ti0 1.955379 1_555
O3 Ti0 1.955743 1_655
O3 Ti3 2.097208 1_555
O3 Sr0 2.722762 1_554
O4 Ti1 1.968849 1_555
O4 Ti1 1.969234 1_655
O4 Ti4 2.272864 1_555
O4 Ti3 2.427334 1_555
O5 Ti2 1.999036 1_655
O5 Ti2 1.999094 1_555
O5 Ti5 2.177078 1_555
O5 Ti4 2.564715 1_555
O6 Ti4 2.024942 1_555
O6 Ti4 2.029331 1_455
O6 Ti1 2.133430 1_555
O6 Ti2 2.550503 1_555
O7 Ti5 2.005233 1_455
O7 Ti5 2.005831 1_555
O7 Ti2 2.038048 1_555
O7 Sr0 2.669413 1_545
O8 Ti4 1.829863 1_555
O8 Ti3 2.100397 1_555
O8 Sr1 2.702089 1_555
O8 Sr1 2.718729 1_655
O9 Ti4 1.760301 1_555
O9 Sr0 2.521911 1_545
O9 Sr0 2.524636 1_645
O10 Ti5 1.852805 1_555
O10 Ti0 2.013321 1_646
O10 Sr0 2.597514 1_645
O10 Sr0 2.597669 1_545
