# generated using pymatgen
data_As4PRh10
_symmetry_space_group_name_H-M   'P 1'
_cell_length_a   16.75648616
_cell_length_b   16.75648616
_cell_length_c   16.75648622
_cell_angle_alpha   13.83562812
_cell_angle_beta   13.83562812
_cell_angle_gamma   13.83562624
_symmetry_Int_Tables_number   1
_chemical_formula_structural   As4PRh10
_chemical_formula_sum   'As4 P1 Rh10'
_cell_volume   234.14191747
_cell_formula_units_Z   1
loop_
 _symmetry_equiv_pos_site_id
 _symmetry_equiv_pos_as_xyz
  1  'x, y, z'
loop_
 _atom_site_type_symbol
 _atom_site_label
 _atom_site_symmetry_multiplicity
 _atom_site_fract_x
 _atom_site_fract_y
 _atom_site_fract_z
 _atom_site_occupancy
  As  As0  1  0.60141800  0.60141800  0.60141800  1
  As  As1  1  0.20056200  0.20056200  0.20056200  1
  As  As2  1  0.79943800  0.79943800  0.79943800  1
  As  As3  1  0.39858200  0.39858200  0.39858200  1
  P  P0  1  0.00000000  0.00000000  0.00000000  1
  Rh  Rh0  1  0.04732800  0.04732800  0.04732800  1
  Rh  Rh1  1  0.84999400  0.84999400  0.84999400  1
  Rh  Rh2  1  0.44908900  0.44908900  0.44908900  1
  Rh  Rh3  1  0.65171200  0.65171200  0.65171200  1
  Rh  Rh4  1  0.25134400  0.25134400  0.25134400  1
  Rh  Rh5  1  0.34828800  0.34828800  0.34828800  1
  Rh  Rh6  1  0.15000600  0.15000600  0.15000600  1
  Rh  Rh7  1  0.74865600  0.74865600  0.74865600  1
  Rh  Rh8  1  0.95267200  0.95267200  0.95267200  1
  Rh  Rh9  1  0.55091100  0.55091100  0.55091100  1
loop_
_geom_bond_atom_site_label_1
_geom_bond_atom_site_label_2
_geom_bond_distance
_geom_bond_site_symmetry_2
As0 Rh4 2.474989 1_565
As0 Rh4 2.474989 1_655
As0 Rh4 2.474990 1_556
As0 Rh8 2.495381 1_545
As0 Rh8 2.495381 1_455
As0 Rh8 2.495382 1_554
As0 Rh3 2.503681 1_555
As0 Rh9 2.514284 1_555
As1 Rh9 2.479632 1_545
As1 Rh9 2.479632 1_455
As1 Rh9 2.479633 1_554
As1 Rh1 2.483378 1_454
As1 Rh1 2.483378 1_544
As1 Rh1 2.483378 1_445
As1 Rh6 2.516724 1_555
As1 Rh4 2.527974 1_555
As2 Rh2 2.479632 1_565
As2 Rh2 2.479632 1_655
As2 Rh2 2.479633 1_556
As2 Rh6 2.483378 1_656
As2 Rh6 2.483378 1_566
As2 Rh6 2.483378 1_665
As2 Rh1 2.516724 1_555
As2 Rh7 2.527974 1_555
As3 Rh7 2.474989 1_545
As3 Rh7 2.474989 1_455
As3 Rh7 2.474990 1_554
As3 Rh0 2.495381 1_565
As3 Rh0 2.495381 1_655
As3 Rh0 2.495382 1_556
As3 Rh5 2.503681 1_555
As3 Rh2 2.514284 1_555
P0 Rh0 2.356031 1_555
P0 Rh8 2.356031 1_444
P0 Rh5 2.446485 1_545
P0 Rh5 2.446485 1_455
P0 Rh3 2.446485 1_454
P0 Rh3 2.446485 1_544
P0 Rh5 2.446485 1_554
P0 Rh3 2.446485 1_445
