# generated using pymatgen
data_BaSrCeSnO6
_symmetry_space_group_name_H-M   'P 1'
_cell_length_a   8.56160890
_cell_length_b   8.57300445
_cell_length_c   8.57493277
_cell_angle_alpha   90.00000000
_cell_angle_beta   90.00000000
_cell_angle_gamma   90.00000000
_symmetry_Int_Tables_number   1
_chemical_formula_structural   BaSrCeSnO6
_chemical_formula_sum   'Ba4 Sr4 Ce4 Sn4 O24'
_cell_volume   629.38901393
_cell_formula_units_Z   4
loop_
 _symmetry_equiv_pos_site_id
 _symmetry_equiv_pos_as_xyz
  1  'x, y, z'
loop_
 _atom_site_type_symbol
 _atom_site_label
 _atom_site_symmetry_multiplicity
 _atom_site_fract_x
 _atom_site_fract_y
 _atom_site_fract_z
 _atom_site_occupancy
  Ba  Ba0  1  0.00000000  0.00000000  0.00000000  1
  Ba  Ba1  1  0.50000000  0.50000000  0.50000000  1
  Ba  Ba2  1  0.50000000  0.00000000  0.00000000  1
  Ba  Ba3  1  -0.00000000  0.00000000  0.50000000  1
  Sr  Sr0  1  0.00000000  0.50000000  0.50000000  1
  Sr  Sr1  1  0.50000000  0.00000000  0.50000000  1
  Sr  Sr2  1  0.50000000  0.50000000  0.00000000  1
  Sr  Sr3  1  0.00000000  0.50000000  0.00000000  1
  Ce  Ce0  1  0.74996543  0.74735717  0.74952048  1
  Ce  Ce1  1  0.25003457  0.25264283  0.74952048  1
  Ce  Ce2  1  0.25003457  0.74735717  0.25047952  1
  Ce  Ce3  1  0.74996543  0.25264283  0.25047952  1
  Sn  Sn0  1  0.25024590  0.25254402  0.25047350  1
  Sn  Sn1  1  0.74975410  0.74745598  0.25047350  1
  Sn  Sn2  1  0.74975410  0.25254402  0.74952650  1
  Sn  Sn3  1  0.25024590  0.74745598  0.74952650  1
  O  O0  1  0.00728682  0.22859622  0.27457123  1
  O  O1  1  0.99271318  0.77140378  0.27457123  1
  O  O2  1  0.99271318  0.22859622  0.72542877  1
  O  O3  1  0.00728682  0.77140378  0.72542877  1
  O  O4  1  0.27203270  0.00849417  0.22655310  1
  O  O5  1  0.27203270  0.99150583  0.77344690  1
  O  O6  1  0.72796730  0.99150583  0.22655310  1
  O  O7  1  0.72796730  0.00849417  0.77344690  1
  O  O8  1  0.21899834  0.28281385  0.00819396  1
  O  O9  1  0.78100166  0.28281385  0.99180604  1
  O  O10  1  0.21899834  0.71718615  0.99180604  1
  O  O11  1  0.78100166  0.71718615  0.00819396  1
  O  O12  1  0.49144818  0.28607095  0.21719844  1
  O  O13  1  0.50855182  0.71392905  0.21719844  1
  O  O14  1  0.50855182  0.28607095  0.78280156  1
  O  O15  1  0.49144818  0.71392905  0.78280156  1
  O  O16  1  0.21758124  0.49248271  0.28614242  1
  O  O17  1  0.21758124  0.50751729  0.71385758  1
  O  O18  1  0.78241876  0.50751729  0.28614242  1
  O  O19  1  0.78241876  0.49248271  0.71385758  1
  O  O20  1  0.28602973  0.22087373  0.49178845  1
  O  O21  1  0.71397027  0.22087373  0.50821155  1
  O  O22  1  0.28602973  0.77912627  0.50821155  1
  O  O23  1  0.71397027  0.77912627  0.49178845  1
loop_
_geom_bond_atom_site_label_1
_geom_bond_atom_site_label_2
_geom_bond_distance
_geom_bond_site_symmetry_2
Ba0 O4 3.033763 1_555
Ba0 O6 3.033763 1_445
Ba0 O5 3.033763 1_544
Ba0 O7 3.033763 1_454
Ba0 O2 3.063964 1_454
Ba0 O3 3.063964 1_544
Ba0 O1 3.063964 1_445
Ba0 O0 3.063964 1_555
Ba0 O9 3.065778 1_454
Ba0 O11 3.065778 1_445
Ba0 O10 3.065778 1_544
Ba0 O8 3.065778 1_555
Ba1 O23 3.014488 1_555
Ba1 O21 3.014488 1_555
Ba1 O22 3.014488 1_555
Ba1 O20 3.014488 1_555
Ba1 O18 3.035384 1_555
Ba1 O19 3.035384 1_555
Ba1 O16 3.035384 1_555
Ba1 O17 3.035384 1_555
Ba1 O14 3.041318 1_555
Ba1 O12 3.041318 1_555
Ba1 O13 3.041318 1_555
Ba1 O15 3.041318 1_555
Ba2 O6 2.754758 1_545
Ba2 O4 2.754758 1_555
Ba2 O7 2.754758 1_554
Ba2 O5 2.754758 1_544
Ba2 O13 3.080393 1_545
Ba2 O15 3.080393 1_544
Ba2 O12 3.080393 1_555
Ba2 O14 3.080393 1_554
Ba3 O1 2.753392 1_445
Ba3 O0 2.753392 1_555
Ba3 O2 2.753392 1_455
Ba3 O3 2.753392 1_545
Ba3 O23 3.096366 1_445
Ba3 O22 3.096366 1_545
Ba3 O20 3.096366 1_555
Ba3 O21 3.096366 1_455
Ba3 O5 3.305715 1_545
Ba3 O7 3.305715 1_455
Ba3 O4 3.305715 1_555
Ba3 O6 3.305715 1_445
Ce0 O3 2.222332 1_655
Ce0 O19 2.223762 1_555
Ce0 O23 2.247978 1_555
Ce0 O11 2.248891 1_556
Ce0 O15 2.249972 1_555
Ce0 O7 2.255986 1_565
Ce1 O2 2.222332 1_455
Ce1 O17 2.223762 1_555
Ce1 O20 2.247978 1_555
Ce1 O8 2.248891 1_556
Ce1 O14 2.249972 1_555
Ce1 O5 2.255986 1_545
Ce2 O1 2.222332 1_455
Ce2 O16 2.223762 1_555
Ce2 O22 2.247978 1_555
Ce2 O10 2.248891 1_554
Ce2 O13 2.249972 1_555
Ce2 O4 2.255986 1_565
Ce3 O0 2.222332 1_655
Ce3 O18 2.223762 1_555
Ce3 O21 2.247978 1_555
Ce3 O9 2.248891 1_554
Ce3 O12 2.249972 1_555
Ce3 O6 2.255986 1_545
O0 Sn0 2.100417 1_555
O0 Sr0 3.025602 1_555
O1 Sn1 2.100417 1_555
O1 Sr0 3.025602 1_655
O2 Sn2 2.100417 1_555
O2 Sr0 3.025602 1_655
O3 Sn3 2.100417 1_555
O3 Sr0 3.025602 1_555
O4 Sn0 2.110530 1_555
O4 Sr1 3.051677 1_555
O5 Sn3 2.110530 1_555
O5 Sr1 3.051677 1_565
O6 Sn1 2.110530 1_555
O6 Sr1 3.051677 1_565
O7 Sn2 2.110530 1_555
O7 Sr1 3.051677 1_555
O8 Sn0 2.110698 1_555
O8 Sr3 2.643349 1_555
O8 Sr2 3.042984 1_555
O9 Sn2 2.110698 1_555
O9 Sr3 2.643349 1_656
O9 Sr2 3.042984 1_556
O10 Sn3 2.110698 1_555
O10 Sr3 2.643349 1_556
O10 Sr2 3.042984 1_556
O11 Sn1 2.110698 1_555
O11 Sr3 2.643349 1_655
O11 Sr2 3.042984 1_555
O12 Sn0 2.104420 1_555
O12 Sr2 2.614906 1_555
O13 Sn1 2.104420 1_555
O13 Sr2 2.614906 1_555
O14 Sn2 2.104420 1_555
O14 Sr2 2.614906 1_556
O15 Sn3 2.104420 1_555
O15 Sr2 2.614906 1_556
O16 Sn0 2.098330 1_555
O16 Sr0 2.614808 1_555
O16 Sr3 3.081356 1_555
O17 Sn3 2.098330 1_555
O17 Sr0 2.614808 1_555
O17 Sr3 3.081356 1_556
O18 Sn1 2.098330 1_555
O18 Sr0 2.614808 1_655
O18 Sr3 3.081356 1_655
O19 Sn2 2.098330 1_555
O19 Sr0 2.614808 1_655
O19 Sr3 3.081356 1_656
O20 Sn0 2.109363 1_555
O20 Sr1 2.635614 1_555
O21 Sn2 2.109363 1_555
O21 Sr1 2.635614 1_555
O22 Sn3 2.109363 1_555
O22 Sr1 2.635614 1_565
O23 Sn1 2.109363 1_555
O23 Sr1 2.635614 1_565
