# generated using pymatgen
data_Bi8Pt5I3
_symmetry_space_group_name_H-M   'P 1'
_cell_length_a   9.52772687
_cell_length_b   9.52772687
_cell_length_c   13.68822698
_cell_angle_alpha   67.83083350
_cell_angle_beta   67.83083350
_cell_angle_gamma   24.28909444
_symmetry_Int_Tables_number   1
_chemical_formula_structural   Bi8Pt5I3
_chemical_formula_sum   'Bi8 Pt5 I3'
_cell_volume   471.51689596
_cell_formula_units_Z   1
loop_
 _symmetry_equiv_pos_site_id
 _symmetry_equiv_pos_as_xyz
  1  'x, y, z'
loop_
 _atom_site_type_symbol
 _atom_site_label
 _atom_site_symmetry_multiplicity
 _atom_site_fract_x
 _atom_site_fract_y
 _atom_site_fract_z
 _atom_site_occupancy
  Bi  Bi0  1  0.89603300  0.89603300  0.47876800  1
  Bi  Bi1  1  0.10396700  0.10396700  0.52123200  1
  Bi  Bi2  1  0.32527300  0.32527300  0.72834600  1
  Bi  Bi3  1  0.67472700  0.67472700  0.27165400  1
  Bi  Bi4  1  0.48310600  0.48310600  0.78189300  1
  Bi  Bi5  1  0.51689400  0.51689400  0.21810700  1
  Bi  Bi6  1  0.68249200  0.68249200  0.97321500  1
  Bi  Bi7  1  0.31750800  0.31750800  0.02678500  1
  Pt  Pt0  1  0.50000000  0.50000000  0.50000000  1
  Pt  Pt1  1  0.94673500  0.94673500  0.65791300  1
  Pt  Pt2  1  0.05326500  0.05326500  0.34208700  1
  Pt  Pt3  1  0.84760100  0.84760100  0.87197200  1
  Pt  Pt4  1  0.15239900  0.15239900  0.12802800  1
  I  I0  1  0.00000000  0.00000000  0.00000000  1
  I  I1  1  0.68426100  0.68426100  0.67311800  1
  I  I2  1  0.31573900  0.31573900  0.32688200  1
loop_
_geom_bond_atom_site_label_1
_geom_bond_atom_site_label_2
_geom_bond_distance
_geom_bond_site_symmetry_2
Bi0 Pt2 2.801681 1_665
Bi0 Pt0 2.878877 1_565
Bi0 Pt0 2.878877 1_655
Bi0 Pt1 2.948437 1_555
Bi0 I2 3.602537 1_655
Bi0 I2 3.602537 1_565
Bi1 Pt1 2.801681 1_445
Bi1 Pt0 2.878877 1_455
Bi1 Pt0 2.878877 1_545
Bi1 Pt2 2.948437 1_555
Bi1 I1 3.602537 1_545
Bi1 I1 3.602537 1_455
Bi2 Pt1 2.895357 1_455
Bi2 Pt1 2.895357 1_545
Bi2 Pt3 2.947393 1_545
Bi2 Pt3 2.947393 1_455
Bi2 I1 3.608729 1_455
Bi2 I1 3.608729 1_545
Bi3 Pt2 2.895357 1_565
Bi3 Pt2 2.895357 1_655
Bi3 Pt4 2.947393 1_655
Bi3 Pt4 2.947393 1_565
Bi3 I2 3.608729 1_565
Bi3 I2 3.608729 1_655
Bi4 Pt1 2.871324 1_545
Bi4 Pt1 2.871324 1_455
Bi4 Pt3 3.083427 1_455
Bi4 Pt3 3.083427 1_545
Bi4 I1 3.457185 1_555
Bi5 Pt2 2.871324 1_565
Bi5 Pt2 2.871324 1_655
Bi5 Pt4 3.083427 1_655
Bi5 Pt4 3.083427 1_565
Bi5 I2 3.457185 1_555
Bi6 Pt4 2.811689 1_566
Bi6 Pt4 2.811689 1_656
Bi6 Pt3 2.844404 1_555
Bi7 Pt3 2.811689 1_454
Bi7 Pt3 2.811689 1_544
Bi7 Pt4 2.844404 1_555
Pt0 Pt1 2.831767 1_545
Pt0 Pt1 2.831767 1_455
Pt0 Pt2 2.831767 1_565
Pt0 Pt2 2.831767 1_655
Pt1 Pt3 2.796200 1_555
Pt2 Pt4 2.796200 1_555
