# generated using pymatgen
data_MgMn2(BrO2)6
_symmetry_space_group_name_H-M   'P 1'
_cell_length_a   9.04407465
_cell_length_b   9.04407465
_cell_length_c   7.37801066
_cell_angle_alpha   83.52580563
_cell_angle_beta   83.52580563
_cell_angle_gamma   72.97685235
_symmetry_Int_Tables_number   1
_chemical_formula_structural   MgMn2(BrO2)6
_chemical_formula_sum   'Mg1 Mn2 Br6 O12'
_cell_volume   571.34243636
_cell_formula_units_Z   1
loop_
 _symmetry_equiv_pos_site_id
 _symmetry_equiv_pos_as_xyz
  1  'x, y, z'
loop_
 _atom_site_type_symbol
 _atom_site_label
 _atom_site_symmetry_multiplicity
 _atom_site_fract_x
 _atom_site_fract_y
 _atom_site_fract_z
 _atom_site_occupancy
  Mg  Mg0  1  0.00000000  0.00000000  0.50000000  1
  Mn  Mn0  1  0.35886500  0.35886500  0.79746200  1
  Mn  Mn1  1  0.64113500  0.64113500  0.20253800  1
  Br  Br0  1  0.91644800  0.25841100  0.73142400  1
  Br  Br1  1  0.25841100  0.91644800  0.73142400  1
  Br  Br2  1  0.08355200  0.74158900  0.26857600  1
  Br  Br3  1  0.74158900  0.08355200  0.26857600  1
  Br  Br4  1  0.32669500  0.32669500  0.50644800  1
  Br  Br5  1  0.67330500  0.67330500  0.49355200  1
  O  O0  1  0.29501500  0.53947800  0.82519200  1
  O  O1  1  0.53947800  0.29501500  0.82519200  1
  O  O2  1  0.70498500  0.46052200  0.17480800  1
  O  O3  1  0.46052200  0.70498500  0.17480800  1
  O  O4  1  0.26200500  0.26200500  0.92947000  1
  O  O5  1  0.73799500  0.73799500  0.07053000  1
  O  O6  1  0.95550800  0.24613800  0.49679900  1
  O  O7  1  0.24613800  0.95550800  0.49679900  1
  O  O8  1  0.04449200  0.75386200  0.50320100  1
  O  O9  1  0.75386200  0.04449200  0.50320100  1
  O  O10  1  0.96899100  0.96899100  0.21195000  1
  O  O11  1  0.03100900  0.03100900  0.78805000  1
loop_
_geom_bond_atom_site_label_1
_geom_bond_atom_site_label_2
_geom_bond_distance
_geom_bond_site_symmetry_2
Mg0 O8 2.140972 1_545
Mg0 O9 2.140972 1_455
Mg0 O6 2.140972 1_455
Mg0 O7 2.140972 1_545
Mg0 O10 2.233562 1_445
Mg0 O11 2.233562 1_555
Mn0 O0 1.593735 1_555
Mn0 O1 1.593735 1_555
Mn0 O4 1.596210 1_555
Mn1 O2 1.593735 1_555
Mn1 O3 1.593735 1_555
Mn1 O5 1.596210 1_555
Br0 O6 1.736713 1_555
Br0 O11 2.033224 1_655
Br1 O7 1.736713 1_555
Br1 O11 2.033224 1_565
Br2 O8 1.736713 1_555
Br2 O10 2.033224 1_455
Br3 O9 1.736713 1_555
Br3 O10 2.033224 1_545
Br4 Mn0 2.260680 1_555
Br5 Mn1 2.260680 1_555
