# generated using pymatgen
data_CaZnF2
_symmetry_space_group_name_H-M   'P 1'
_cell_length_a   7.49563452
_cell_length_b   7.49563452
_cell_length_c   7.49563452
_cell_angle_alpha   60.00000000
_cell_angle_beta   60.00000000
_cell_angle_gamma   60.00000000
_symmetry_Int_Tables_number   1
_chemical_formula_structural   CaZnF2
_chemical_formula_sum   'Ca4 Zn4 F8'
_cell_volume   297.79006902
_cell_formula_units_Z   4
loop_
 _symmetry_equiv_pos_site_id
 _symmetry_equiv_pos_as_xyz
  1  'x, y, z'
loop_
 _atom_site_type_symbol
 _atom_site_label
 _atom_site_symmetry_multiplicity
 _atom_site_fract_x
 _atom_site_fract_y
 _atom_site_fract_z
 _atom_site_occupancy
  Ca  Ca0  1  0.62500000  0.62500000  0.62500000  1
  Ca  Ca1  1  0.62500000  0.62500000  0.12500000  1
  Ca  Ca2  1  0.12500000  0.62500000  0.62500000  1
  Ca  Ca3  1  0.62500000  0.12500000  0.62500000  1
  Zn  Zn0  1  0.12500000  0.12500000  0.12500000  1
  Zn  Zn1  1  0.12500000  0.12500000  0.62500000  1
  Zn  Zn2  1  0.62500000  0.12500000  0.12500000  1
  Zn  Zn3  1  0.12500000  0.62500000  0.12500000  1
  F  F0  1  0.84206300  0.47381000  0.84206300  1
  F  F1  1  0.47381000  0.84206300  0.84206300  1
  F  F2  1  0.40793700  0.40793700  0.40793700  1
  F  F3  1  0.40793700  0.77619000  0.40793700  1
  F  F4  1  0.40793700  0.40793700  0.77619000  1
  F  F5  1  0.77619000  0.40793700  0.40793700  1
  F  F6  1  0.84206300  0.84206300  0.84206300  1
  F  F7  1  0.84206300  0.84206300  0.47381000  1
loop_
_geom_bond_atom_site_label_1
_geom_bond_atom_site_label_2
_geom_bond_distance
_geom_bond_site_symmetry_2
Ca0 F5 2.353342 1_555
Ca0 F4 2.353342 1_555
Ca0 F1 2.353342 1_555
Ca0 F7 2.353342 1_555
Ca0 F3 2.353342 1_555
Ca0 F0 2.353342 1_555
Ca1 F6 2.353344 1_554
Ca1 F2 2.353344 1_555
Ca1 F1 2.353348 1_554
Ca1 F0 2.353348 1_554
Ca1 F5 2.353348 1_555
Ca1 F3 2.353348 1_555
Ca2 F6 2.353344 1_455
Ca2 F2 2.353344 1_555
Ca2 F7 2.353348 1_455
Ca2 F0 2.353348 1_455
Ca2 F4 2.353348 1_555
Ca2 F3 2.353348 1_555
Ca3 F2 2.353344 1_555
Ca3 F6 2.353344 1_545
Ca3 F7 2.353348 1_545
Ca3 F1 2.353348 1_545
Ca3 F5 2.353348 1_555
Ca3 F4 2.353348 1_555
