# generated using pymatgen
data_CoB4O7
_symmetry_space_group_name_H-M   'P 1'
_cell_length_a   6.37051618
_cell_length_b   8.23336530
_cell_length_c   8.23327836
_cell_angle_alpha   78.61365058
_cell_angle_beta   111.55118232
_cell_angle_gamma   111.54955725
_symmetry_Int_Tables_number   1
_chemical_formula_structural   CoB4O7
_chemical_formula_sum   'Co4 B16 O28'
_cell_volume   372.60012111
_cell_formula_units_Z   4
loop_
 _symmetry_equiv_pos_site_id
 _symmetry_equiv_pos_as_xyz
  1  'x, y, z'
loop_
 _atom_site_type_symbol
 _atom_site_label
 _atom_site_symmetry_multiplicity
 _atom_site_fract_x
 _atom_site_fract_y
 _atom_site_fract_z
 _atom_site_occupancy
  Co  Co0  1  0.24195000  0.49609600  0.74585700  1
  Co  Co1  1  0.75805000  0.50390100  0.25414700  1
  Co  Co2  1  0.24191200  0.99588400  0.24604500  1
  Co  Co3  1  0.75808700  0.00411300  0.75395800  1
  B  B0  1  0.29698600  0.10149100  0.60150800  1
  B  B1  1  0.29695900  0.60152800  0.10150400  1
  B  B2  1  0.29687800  0.35142900  0.35148300  1
  B  B3  1  0.29705400  0.85159000  0.85154300  1
  B  B4  1  0.70301400  0.89850900  0.39849200  1
  B  B5  1  0.70304300  0.39847300  0.89849700  1
  B  B6  1  0.70294500  0.14841000  0.14845700  1
  B  B7  1  0.70312100  0.64857200  0.64851700  1
  B  B8  1  0.07510300  0.77978900  0.52963000  1
  B  B9  1  0.07500100  0.27953700  0.02969200  1
  B  B10  1  0.69058700  0.33738100  0.58753000  1
  B  B11  1  0.69076500  0.83756700  0.08742200  1
  B  B12  1  0.92489600  0.22021100  0.47036900  1
  B  B13  1  0.92499900  0.72046300  0.97030800  1
  B  B14  1  0.30941300  0.66261900  0.41246900  1
  B  B15  1  0.30923500  0.16243400  0.91257700  1
  O  O0  1  0.92092700  0.33543300  0.58548300  1
  O  O1  1  0.92105500  0.83554300  0.08550500  1
  O  O2  1  0.07907300  0.66456800  0.41451400  1
  O  O3  1  0.07894500  0.16445900  0.91449400  1
  O  O4  1  0.19544500  0.25245000  0.50248500  1
  O  O5  1  0.19550100  0.75248000  0.00245000  1
  O  O6  1  0.24504300  0.02727200  0.77723900  1
  O  O7  1  0.24508400  0.52726200  0.27728800  1
  O  O8  1  0.80455500  0.74755000  0.49751600  1
  O  O9  1  0.80450000  0.24752000  0.99755000  1
  O  O10  1  0.75495700  0.97272900  0.22276100  1
  O  O11  1  0.75491600  0.47273800  0.72271200  1
  O  O12  1  0.18903900  0.96153700  0.48420800  1
  O  O13  1  0.18902700  0.46145400  0.98424200  1
  O  O14  1  0.55424500  0.16681100  0.64413800  1
  O  O15  1  0.55430400  0.66688000  0.14409000  1
  O  O16  1  0.18902000  0.73425700  0.71150200  1
  O  O17  1  0.18904100  0.23416700  0.21151100  1
  O  O18  1  0.55423700  0.39409500  0.41686600  1
  O  O19  1  0.55431100  0.89415800  0.91680900  1
  O  O20  1  0.81096100  0.03846300  0.51579300  1
  O  O21  1  0.81097300  0.53854600  0.01575900  1
  O  O22  1  0.44575600  0.83318900  0.35586100  1
  O  O23  1  0.44569800  0.33312000  0.85591000  1
  O  O24  1  0.81098000  0.26574200  0.28849800  1
  O  O25  1  0.81095900  0.76583200  0.78848900  1
  O  O26  1  0.44576300  0.60590600  0.58313400  1
  O  O27  1  0.44568800  0.10584200  0.08319100  1
loop_
_geom_bond_atom_site_label_1
_geom_bond_atom_site_label_2
_geom_bond_distance
_geom_bond_site_symmetry_2
Co0 O16 2.057997 1_555
Co0 O26 2.058031 1_555
Co0 O13 2.059522 1_555
Co0 O23 2.059528 1_555
Co0 O0 2.096220 1_455
Co1 O24 2.057984 1_555
Co1 O18 2.058002 1_555
Co1 O15 2.059541 1_555
Co1 O21 2.059544 1_555
Co1 O2 2.096210 1_655
Co2 O12 2.057841 1_555
Co2 O22 2.057964 1_555
Co2 O17 2.058650 1_565
Co2 O27 2.058819 1_565
Co2 O1 2.095168 1_455
Co3 O20 2.057857 1_555
Co3 O14 2.057978 1_555
Co3 O25 2.058640 1_545
Co3 O19 2.058797 1_545
Co3 O3 2.095175 1_655
B0 O12 1.450088 1_545
B0 O14 1.450098 1_555
B0 O6 1.558959 1_555
B0 O4 1.559166 1_555
B1 O15 1.450631 1_555
B1 O13 1.450634 1_554
B1 O5 1.558899 1_555
B1 O7 1.559238 1_555
B2 O17 1.450035 1_555
B2 O18 1.450641 1_555
B2 O4 1.559047 1_555
B2 O7 1.559327 1_555
B3 O19 1.450130 1_555
B3 O16 1.450763 1_555
B3 O6 1.558855 1_565
B3 O5 1.559009 1_556
B4 O22 1.450092 1_555
B4 O20 1.450093 1_565
B4 O10 1.558960 1_555
B4 O8 1.559167 1_555
B5 O21 1.450628 1_556
B5 O23 1.450630 1_555
B5 O9 1.558901 1_555
B5 O11 1.559239 1_555
B6 O27 1.450130 1_555
B6 O24 1.450757 1_555
B6 O10 1.558850 1_545
B6 O9 1.559015 1_554
B7 O25 1.450024 1_555
B7 O26 1.450635 1_555
B7 O8 1.559041 1_555
B7 O11 1.559337 1_555
B8 O12 1.444460 1_555
B8 O16 1.445430 1_555
B8 O2 1.479571 1_555
B8 O8 1.570913 1_455
B9 O17 1.444932 1_555
B9 O13 1.445753 1_554
B9 O3 1.479102 1_554
B9 O9 1.570943 1_454
B10 O14 1.444564 1_555
B10 O18 1.445384 1_555
B10 O0 1.479636 1_555
B10 O11 1.570935 1_555
B11 O19 1.444979 1_554
B11 O15 1.445675 1_555
B11 O1 1.479150 1_555
B11 O10 1.570927 1_555
B12 O20 1.444462 1_555
B12 O24 1.445420 1_555
B12 O0 1.479562 1_555
B12 O4 1.570916 1_655
B13 O25 1.444930 1_555
B13 O21 1.445755 1_556
B13 O1 1.479108 1_556
B13 O5 1.570949 1_656
B14 O22 1.444566 1_555
B14 O26 1.445386 1_555
B14 O2 1.479633 1_555
B14 O7 1.570929 1_555
B15 O27 1.444985 1_556
B15 O23 1.445671 1_555
B15 O3 1.479153 1_555
B15 O6 1.570921 1_555
