# generated using pymatgen
data_Np3P
_symmetry_space_group_name_H-M   'P 1'
_cell_length_a   5.03099951
_cell_length_b   5.03099951
_cell_length_c   5.03099951
_cell_angle_alpha   130.73634940
_cell_angle_beta   130.73634940
_cell_angle_gamma   72.23230062
_symmetry_Int_Tables_number   1
_chemical_formula_structural   Np3P
_chemical_formula_sum   'Np3 P1'
_cell_volume   71.47681777
_cell_formula_units_Z   1
loop_
 _symmetry_equiv_pos_site_id
 _symmetry_equiv_pos_as_xyz
  1  'x, y, z'
loop_
 _atom_site_type_symbol
 _atom_site_label
 _atom_site_symmetry_multiplicity
 _atom_site_fract_x
 _atom_site_fract_y
 _atom_site_fract_z
 _atom_site_occupancy
  Np  Np0  1  0.75000200  0.25000000  0.50000200  1
  Np  Np1  1  0.25000000  0.75000200  0.50000200  1
  Np  Np2  1  0.50000000  0.50000000  0.00000000  1
  P  P0  1  0.00000000  0.00000000  0.00000000  1
loop_
_geom_bond_atom_site_label_1
_geom_bond_atom_site_label_2
_geom_bond_distance
_geom_bond_site_symmetry_2
Np0 P0 2.919947 1_656
Np0 Np2 2.919947 1_656
Np0 Np2 2.919953 1_545
Np0 Np2 2.919953 1_556
Np0 P0 2.919953 1_655
Np0 P0 2.919953 1_666
Np0 P0 2.919959 1_555
Np0 Np2 2.919959 1_555
Np1 P0 2.919947 1_566
Np1 Np2 2.919947 1_566
Np1 Np2 2.919953 1_455
Np1 Np2 2.919953 1_556
Np1 P0 2.919953 1_666
Np1 P0 2.919953 1_565
Np1 P0 2.919959 1_555
Np1 Np2 2.919959 1_555
Np2 P0 2.965392 1_565
Np2 P0 2.965392 1_554
Np2 P0 2.965392 1_655
Np2 P0 2.965392 1_666
