# generated using pymatgen
data_As2SeS2
_symmetry_space_group_name_H-M   'P 1'
_cell_length_a   10.44930400
_cell_length_b   4.30802400
_cell_length_c   12.19050193
_cell_angle_alpha   76.04857616
_cell_angle_beta   90.00000000
_cell_angle_gamma   90.00000000
_symmetry_Int_Tables_number   1
_chemical_formula_structural   As2SeS2
_chemical_formula_sum   'As8 Se4 S8'
_cell_volume   532.57750815
_cell_formula_units_Z   4
loop_
 _symmetry_equiv_pos_site_id
 _symmetry_equiv_pos_as_xyz
  1  'x, y, z'
loop_
 _atom_site_type_symbol
 _atom_site_label
 _atom_site_symmetry_multiplicity
 _atom_site_fract_x
 _atom_site_fract_y
 _atom_site_fract_z
 _atom_site_occupancy
  As  As0  1  0.30578500  0.33221300  0.24622700  1
  As  As1  1  0.19421500  0.33221300  0.74622700  1
  As  As2  1  0.69421500  0.66778700  0.75377300  1
  As  As3  1  0.80578500  0.66778700  0.25377300  1
  As  As4  1  0.18163400  0.75116500  0.00309300  1
  As  As5  1  0.31836600  0.75116500  0.50309300  1
  As  As6  1  0.81836600  0.24883500  0.99690700  1
  As  As7  1  0.68163400  0.24883500  0.49690700  1
  Se  Se0  1  0.09771200  0.29744500  0.15323300  1
  Se  Se1  1  0.40228800  0.29744500  0.65323300  1
  Se  Se2  1  0.90228800  0.70255500  0.84676700  1
  Se  Se3  1  0.59771200  0.70255500  0.34676700  1
  S  S0  1  0.19674800  0.52633500  0.38184400  1
  S  S1  1  0.30325200  0.52633500  0.88184400  1
  S  S2  1  0.80325200  0.47366500  0.61815600  1
  S  S3  1  0.69674800  0.47366500  0.11815600  1
  S  S4  1  0.36464200  0.76980300  0.10393800  1
  S  S5  1  0.13535800  0.76980300  0.60393800  1
  S  S6  1  0.63535800  0.23019700  0.89606200  1
  S  S7  1  0.86464200  0.23019700  0.39606200  1
loop_
_geom_bond_atom_site_label_1
_geom_bond_atom_site_label_2
_geom_bond_distance
_geom_bond_site_symmetry_2
As0 S4 2.316035 1_555
As0 S0 2.323228 1_555
As0 Se0 2.473193 1_555
As1 S5 2.316035 1_555
As1 S1 2.323228 1_555
As1 Se1 2.473193 1_555
As2 S6 2.316035 1_555
As2 S2 2.323228 1_555
As2 Se2 2.473193 1_555
As3 S7 2.316035 1_555
As3 S3 2.323228 1_555
As3 Se3 2.473193 1_555
As4 S4 2.285227 1_555
As4 S1 2.329849 1_554
As4 Se0 2.492881 1_555
As5 S5 2.285227 1_555
As5 S0 2.329849 1_555
As5 Se1 2.492881 1_555
As6 S6 2.285227 1_555
As6 S3 2.329849 1_556
As6 Se2 2.492881 1_555
As7 S7 2.285227 1_555
As7 S2 2.329849 1_555
As7 Se3 2.492881 1_555
