# generated using pymatgen
data_Li2FeCo3O8
_symmetry_space_group_name_H-M   'P 1'
_cell_length_a   5.82568672
_cell_length_b   8.45970584
_cell_length_c   5.83818680
_cell_angle_alpha   89.24846467
_cell_angle_beta   90.08441959
_cell_angle_gamma   90.00179006
_symmetry_Int_Tables_number   1
_chemical_formula_structural   Li2FeCo3O8
_chemical_formula_sum   'Li4 Fe2 Co6 O16'
_cell_volume   287.70177570
_cell_formula_units_Z   2
loop_
 _symmetry_equiv_pos_site_id
 _symmetry_equiv_pos_as_xyz
  1  'x, y, z'
loop_
 _atom_site_type_symbol
 _atom_site_label
 _atom_site_symmetry_multiplicity
 _atom_site_fract_x
 _atom_site_fract_y
 _atom_site_fract_z
 _atom_site_occupancy
  Li  Li0  1  0.50007100  0.37297600  0.25818800  1
  Li  Li1  1  0.00008800  0.87307900  0.75777200  1
  Li  Li2  1  0.49992900  0.62711800  0.74185300  1
  Li  Li3  1  0.99991000  0.12682400  0.24216900  1
  Fe  Fe0  1  0.50001500  0.99999000  0.50001000  1
  Fe  Fe1  1  0.99998900  0.49999500  0.99993500  1
  Co  Co0  1  0.25001000  0.24990300  0.75032000  1
  Co  Co1  1  0.74994500  0.75011800  0.24968900  1
  Co  Co2  1  0.50000000  0.99999800  0.00002700  1
  Co  Co3  1  0.99999100  0.49998800  0.50006200  1
  Co  Co4  1  0.74988800  0.24987200  0.75015600  1
  Co  Co5  1  0.25015400  0.75015600  0.24986200  1
  O  O0  1  0.50020400  0.77264900  0.01661100  1
  O  O1  1  0.00017400  0.27276100  0.51656100  1
  O  O2  1  0.49979200  0.22735800  0.98339100  1
  O  O3  1  0.99982000  0.72722800  0.48342800  1
  O  O4  1  0.00060200  0.74121000  0.03347400  1
  O  O5  1  0.50064900  0.23944700  0.53546100  1
  O  O6  1  0.22223600  0.50968100  0.26494200  1
  O  O7  1  0.72113100  0.01016000  0.76453300  1
  O  O8  1  0.77766100  0.50980400  0.26465400  1
  O  O9  1  0.27881700  0.01030500  0.76413300  1
  O  O10  1  0.22232800  0.49017700  0.73536800  1
  O  O11  1  0.72116300  0.98970500  0.23583000  1
  O  O12  1  0.77779400  0.49029300  0.73508400  1
  O  O13  1  0.27888700  0.98985500  0.23544600  1
  O  O14  1  0.99936800  0.25881500  0.96644400  1
  O  O15  1  0.49938400  0.76053800  0.46459700  1
loop_
_geom_bond_atom_site_label_1
_geom_bond_atom_site_label_2
_geom_bond_distance
_geom_bond_site_symmetry_2
Li0 O5 1.961754 1_555
Li0 O8 1.989301 1_555
Li0 O6 1.990053 1_555
Li0 O2 2.035488 1_554
Li1 O4 1.946331 1_556
Li1 O9 1.996640 1_565
Li1 O7 1.997221 1_465
Li1 O3 2.034598 1_455
Li2 O15 1.961152 1_555
Li2 O10 1.989913 1_555
Li2 O12 1.990788 1_555
Li2 O0 2.034854 1_556
Li3 O14 1.947022 1_554
Li3 O11 1.996196 1_545
Li3 O13 1.996759 1_645
Li3 O1 2.035270 1_655
Fe0 O7 2.012293 1_565
Fe0 O13 2.012506 1_555
Fe0 O9 2.013787 1_565
Fe0 O11 2.013842 1_555
Fe0 O15 2.038915 1_555
Fe0 O5 2.038983 1_565
Fe1 O12 2.017578 1_555
Fe1 O6 2.018463 1_656
Fe1 O10 2.019820 1_655
Fe1 O8 2.020455 1_556
Fe1 O14 2.052213 1_555
Fe1 O4 2.052538 1_656
Co0 O5 1.929157 1_555
Co0 O14 1.933328 1_455
Co0 O2 1.998188 1_555
Co0 O1 2.001375 1_555
Co0 O9 2.034404 1_555
Co0 O10 2.039757 1_555
Co1 O15 1.928983 1_555
Co1 O4 1.933740 1_655
Co1 O0 1.998031 1_555
Co1 O3 2.001484 1_555
Co1 O11 2.034307 1_555
Co1 O8 2.040111 1_555
Co2 O11 1.885327 1_555
Co2 O9 1.885798 1_564
Co2 O13 1.886214 1_555
Co2 O7 1.886610 1_564
Co2 O0 1.924473 1_555
Co2 O2 1.924577 1_564
Co3 O10 1.887748 1_655
Co3 O8 1.888154 1_555
Co3 O12 1.888721 1_555
Co3 O6 1.889328 1_655
Co3 O1 1.923423 1_655
Co3 O3 1.923563 1_555
Co4 O5 1.919547 1_555
Co4 O14 1.926045 1_555
Co4 O2 2.003057 1_555
Co4 O1 2.005568 1_655
Co4 O7 2.035440 1_555
Co4 O12 2.041130 1_555
Co5 O15 1.919640 1_555
Co5 O4 1.926745 1_555
Co5 O0 2.002910 1_555
Co5 O3 2.005685 1_455
Co5 O13 2.035326 1_555
Co5 O6 2.041592 1_555
