# generated using pymatgen
data_ZnSi2WO6
_symmetry_space_group_name_H-M   'P 1'
_cell_length_a   6.87910237
_cell_length_b   6.87910237
_cell_length_c   5.50257281
_cell_angle_alpha   76.94245314
_cell_angle_beta   76.94245314
_cell_angle_gamma   86.31203987
_symmetry_Int_Tables_number   1
_chemical_formula_structural   ZnSi2WO6
_chemical_formula_sum   'Zn2 Si4 W2 O12'
_cell_volume   247.07728333
_cell_formula_units_Z   2
loop_
 _symmetry_equiv_pos_site_id
 _symmetry_equiv_pos_as_xyz
  1  'x, y, z'
loop_
 _atom_site_type_symbol
 _atom_site_label
 _atom_site_symmetry_multiplicity
 _atom_site_fract_x
 _atom_site_fract_y
 _atom_site_fract_z
 _atom_site_occupancy
  Zn  Zn0  1  0.71538700  0.28461300  0.75000000  1
  Zn  Zn1  1  0.28461300  0.71538700  0.25000000  1
  Si  Si0  1  0.37881900  0.21288600  0.24632300  1
  Si  Si1  1  0.78711400  0.62118100  0.25367700  1
  Si  Si2  1  0.21288600  0.37881900  0.74632300  1
  Si  Si3  1  0.62118100  0.78711400  0.75367700  1
  W  W0  1  0.89713000  0.10287000  0.25000000  1
  W  W1  1  0.10287000  0.89713000  0.75000000  1
  O  O0  1  0.36170700  0.33258300  0.48102900  1
  O  O1  1  0.66741700  0.63829300  0.01897100  1
  O  O2  1  0.63829300  0.66741700  0.51897100  1
  O  O3  1  0.33258300  0.36170700  0.98102900  1
  O  O4  1  0.60281100  0.12452800  0.17281500  1
  O  O5  1  0.87547200  0.39718900  0.32718500  1
  O  O6  1  0.39718900  0.87547200  0.82718500  1
  O  O7  1  0.12452800  0.60281100  0.67281500  1
  O  O8  1  0.04464000  0.19705000  0.84550100  1
  O  O9  1  0.80295000  0.95536000  0.65449900  1
  O  O10  1  0.19705000  0.04464000  0.34550100  1
  O  O11  1  0.95536000  0.80295000  0.15449900  1
loop_
_geom_bond_atom_site_label_1
_geom_bond_atom_site_label_2
_geom_bond_distance
_geom_bond_site_symmetry_2
O0 Si0 1.661068 1_555
O0 Si2 1.665194 1_555
O1 Si1 1.661068 1_555
O1 Si3 1.665194 1_554
O2 Si3 1.661068 1_555
O2 Si1 1.665194 1_555
O3 Si2 1.661068 1_555
O3 Si0 1.665194 1_556
O4 Si0 1.617498 1_555
O4 W0 2.150104 1_555
O4 Zn0 2.315870 1_554
O5 Si1 1.617498 1_555
O5 W0 2.150104 1_555
O5 Zn0 2.315870 1_555
O6 Si3 1.617498 1_555
O6 W1 2.150104 1_555
O6 Zn1 2.315870 1_556
O7 Si2 1.617498 1_555
O7 W1 2.150104 1_555
O7 Zn1 2.315870 1_555
O8 Si2 1.671318 1_555
O8 W0 2.194531 1_456
O8 W1 2.231993 1_545
O8 Zn0 2.447106 1_455
O9 Si3 1.671318 1_555
O9 W0 2.194531 1_565
O9 W1 2.231993 1_655
O9 Zn0 2.447106 1_565
O10 Si0 1.671318 1_555
O10 W1 2.194531 1_545
O10 W0 2.231993 1_455
O10 Zn1 2.447106 1_545
O11 Si1 1.671318 1_555
O11 W1 2.194531 1_654
O11 W0 2.231993 1_565
O11 Zn1 2.447106 1_655
