# generated using pymatgen
data_Sr2PrBiO6
_symmetry_space_group_name_H-M   'P 1'
_cell_length_a   6.02925132
_cell_length_b   6.20513994
_cell_length_c   8.65555773
_cell_angle_alpha   90.00639768
_cell_angle_beta   89.57525427
_cell_angle_gamma   90.00688788
_symmetry_Int_Tables_number   1
_chemical_formula_structural   Sr2PrBiO6
_chemical_formula_sum   'Sr4 Pr2 Bi2 O12'
_cell_volume   323.81583771
_cell_formula_units_Z   2
loop_
 _symmetry_equiv_pos_site_id
 _symmetry_equiv_pos_as_xyz
  1  'x, y, z'
loop_
 _atom_site_type_symbol
 _atom_site_label
 _atom_site_symmetry_multiplicity
 _atom_site_fract_x
 _atom_site_fract_y
 _atom_site_fract_z
 _atom_site_occupancy
  Sr  Sr0  1  0.51287013  0.54848410  0.25106349  1
  Sr  Sr1  1  0.98711434  0.04847250  0.24893400  1
  Sr  Sr2  1  0.48712987  0.45151590  0.74893651  1
  Sr  Sr3  1  0.01288566  0.95152750  0.75106600  1
  Pr  Pr0  1  0.50000000  0.00000000  0.00000000  1
  Pr  Pr1  1  -0.00000000  0.50000000  0.50000000  1
  Bi  Bi0  1  -0.00000000  0.50000000  0.00000000  1
  Bi  Bi1  1  0.50000000  0.00000000  0.50000000  1
  O  O0  1  0.18329082  0.21267910  0.94291715  1
  O  O1  1  0.31670089  0.71267645  0.55706752  1
  O  O2  1  0.81670918  0.78732090  0.05708285  1
  O  O3  1  0.68329911  0.28732355  0.44293248  1
  O  O4  1  0.28680438  0.68953488  0.94541325  1
  O  O5  1  0.21324429  0.18949025  0.55461103  1
  O  O6  1  0.71319562  0.31046512  0.05458675  1
  O  O7  1  0.78675571  0.81050975  0.44538897  1
  O  O8  1  0.39549396  0.95737534  0.26400988  1
  O  O9  1  0.10448124  0.45735100  0.23596459  1
  O  O10  1  0.60450604  0.04262466  0.73599012  1
  O  O11  1  0.89551876  0.54264900  0.76403541  1
loop_
_geom_bond_atom_site_label_1
_geom_bond_atom_site_label_2
_geom_bond_distance
_geom_bond_site_symmetry_2
Bi0 O6 2.141059 1_455
Bi0 O4 2.141059 1_554
Bi0 O2 2.153177 1_455
Bi0 O0 2.153177 1_554
Bi0 O11 2.158129 1_454
Bi0 O9 2.158129 1_555
Bi1 O5 2.140886 1_555
Bi1 O7 2.140886 1_545
Bi1 O3 2.153058 1_555
Bi1 O1 2.153058 1_545
Bi1 O8 2.158290 1_545
Bi1 O10 2.158290 1_555
O0 Pr0 2.376287 1_556
O0 Sr3 2.542314 1_545
O0 Sr2 2.885426 1_555
O0 Sr1 3.067073 1_456
O1 Pr1 2.375893 1_555
O1 Sr2 2.542903 1_555
O1 Sr3 2.885504 1_555
O1 Sr0 3.066830 1_555
O2 Pr0 2.376287 1_565
O2 Sr1 2.542314 1_565
O2 Sr0 2.885426 1_555
O2 Sr3 3.067073 1_654
O3 Pr1 2.375893 1_655
O3 Sr0 2.542903 1_555
O3 Sr1 2.885504 1_555
O3 Sr2 3.066830 1_555
O4 Pr0 2.365385 1_566
O4 Sr2 2.549838 1_555
O4 Sr3 2.870997 1_555
O4 Sr0 3.110813 1_556
O5 Pr1 2.366150 1_555
O5 Sr3 2.549657 1_545
O5 Sr2 2.870449 1_555
O5 Sr1 3.110867 1_455
O6 Pr0 2.365385 1_555
O6 Sr0 2.549838 1_555
O6 Sr1 2.870997 1_555
O6 Sr2 3.110813 1_554
O7 Pr1 2.366150 1_655
O7 Sr1 2.549657 1_565
O7 Sr0 2.870449 1_555
O7 Sr3 3.110867 1_655
O8 Pr0 2.380681 1_565
O8 Sr1 2.530655 1_465
O8 Sr0 2.636304 1_555
O9 Pr1 2.380831 1_555
O9 Sr0 2.530633 1_555
O9 Sr1 2.636081 1_455
O10 Pr0 2.380681 1_556
O10 Sr3 2.530655 1_645
O10 Sr2 2.636304 1_555
O11 Pr1 2.380831 1_655
O11 Sr2 2.530633 1_555
O11 Sr3 2.636081 1_655
