# generated using pymatgen
data_HoP2(HO2)5
_symmetry_space_group_name_H-M   'P 1'
_cell_length_a   6.42300900
_cell_length_b   6.89767449
_cell_length_c   10.29468609
_cell_angle_alpha   99.70757221
_cell_angle_beta   100.06706971
_cell_angle_gamma   89.24019552
_symmetry_Int_Tables_number   1
_chemical_formula_structural   HoP2(HO2)5
_chemical_formula_sum   'Ho2 P4 H10 O20'
_cell_volume   442.57991094
_cell_formula_units_Z   2
loop_
 _symmetry_equiv_pos_site_id
 _symmetry_equiv_pos_as_xyz
  1  'x, y, z'
loop_
 _atom_site_type_symbol
 _atom_site_label
 _atom_site_symmetry_multiplicity
 _atom_site_fract_x
 _atom_site_fract_y
 _atom_site_fract_z
 _atom_site_occupancy
  Ho  Ho0  1  0.62960900  0.74299300  0.46176100  1
  Ho  Ho1  1  0.37039100  0.25700700  0.53823900  1
  P  P0  1  0.95167600  0.86703300  0.78736700  1
  P  P1  1  0.04832400  0.13296700  0.21263300  1
  P  P2  1  0.19903900  0.76719700  0.56956300  1
  P  P3  1  0.80096100  0.23280300  0.43043700  1
  H  H0  1  0.23393400  0.54766000  0.29038800  1
  H  H1  1  0.76606600  0.45234000  0.70961200  1
  H  H2  1  0.83266300  0.77150800  0.21238700  1
  H  H3  1  0.16733700  0.22849200  0.78761300  1
  H  H4  1  0.99783700  0.81373500  0.99845100  1
  H  H5  1  0.00216300  0.18626500  0.00154900  1
  H  H6  1  0.67607900  0.58614900  0.17788300  1
  H  H7  1  0.32392100  0.41385100  0.82211700  1
  H  H8  1  0.22645500  0.75380000  0.24162000  1
  H  H9  1  0.77354500  0.24620000  0.75838000  1
  O  O0  1  0.71317100  0.70863400  0.23937600  1
  O  O1  1  0.28682900  0.29136600  0.76062400  1
  O  O2  1  0.33979900  0.58533700  0.55671200  1
  O  O3  1  0.66020100  0.41466300  0.44328800  1
  O  O4  1  0.98716700  0.74703700  0.47838100  1
  O  O5  1  0.01283300  0.25296300  0.52161900  1
  O  O6  1  0.97634900  0.74111900  0.90318800  1
  O  O7  1  0.02365100  0.25888100  0.09681200  1
  O  O8  1  0.32119200  0.65997300  0.28552500  1
  O  O9  1  0.67880800  0.34002700  0.71447500  1
  O  O10  1  0.75971500  0.79197100  0.68459600  1
  O  O11  1  0.24028500  0.20802900  0.31540400  1
  O  O12  1  0.34127200  0.93540500  0.55109400  1
  O  O13  1  0.65872800  0.06459500  0.44890600  1
  O  O14  1  0.16318800  0.80823300  0.72402500  1
  O  O15  1  0.83681200  0.19176700  0.27597500  1
  O  O16  1  0.96440100  0.08787000  0.84092900  1
  O  O17  1  0.03559900  0.91213000  0.15907100  1
  O  O18  1  0.47560100  0.08690300  0.01152500  1
  O  O19  1  0.52439900  0.91309700  0.98847500  1
loop_
_geom_bond_atom_site_label_1
_geom_bond_atom_site_label_2
_geom_bond_distance
_geom_bond_site_symmetry_2
Ho0 O3 2.249382 1_555
Ho0 O13 2.256554 1_565
Ho0 O10 2.269563 1_555
Ho0 O4 2.273133 1_555
Ho0 O0 2.414278 1_555
Ho0 O8 2.442751 1_555
Ho0 O12 2.481071 1_555
Ho0 O2 2.579020 1_555
Ho1 O2 2.249382 1_555
Ho1 O12 2.256554 1_545
Ho1 O11 2.269563 1_555
Ho1 O5 2.273133 1_555
Ho1 O1 2.414278 1_555
Ho1 O9 2.442751 1_555
Ho1 O13 2.481071 1_555
Ho1 O3 2.579020 1_555
H0 O8 0.975286 1_555
H1 O9 0.975286 1_555
H2 O0 0.989114 1_555
H3 O1 0.989114 1_555
H4 O6 1.010230 1_555
H4 O17 1.655088 1_656
H5 O7 1.010230 1_555
H5 O16 1.655088 1_454
H6 O0 0.971363 1_555
H7 O1 0.971363 1_555
H8 O8 0.992707 1_555
H9 O9 0.992707 1_555
O2 P2 1.537603 1_555
O3 P3 1.537603 1_555
O4 P2 1.505594 1_655
O5 P3 1.505594 1_455
O6 P0 1.575002 1_555
O7 P1 1.575002 1_555
O10 P0 1.511219 1_555
O11 P1 1.511219 1_555
O12 P2 1.542773 1_555
O13 P3 1.542773 1_555
O14 P2 1.623630 1_555
O14 P0 1.625195 1_455
O15 P3 1.623630 1_555
O15 P1 1.625195 1_655
O16 P0 1.528182 1_545
O17 P1 1.528182 1_565
O18 O19 1.229595 1_544
