# generated using pymatgen
data_BaV6O11
_symmetry_space_group_name_H-M   'P 1'
_cell_length_a   5.81795357
_cell_length_b   5.81795357
_cell_length_c   13.25815110
_cell_angle_alpha   90.00000000
_cell_angle_beta   90.00000000
_cell_angle_gamma   120.00521531
_symmetry_Int_Tables_number   1
_chemical_formula_structural   BaV6O11
_chemical_formula_sum   'Ba2 V12 O22'
_cell_volume   388.62548093
_cell_formula_units_Z   2
loop_
 _symmetry_equiv_pos_site_id
 _symmetry_equiv_pos_as_xyz
  1  'x, y, z'
loop_
 _atom_site_type_symbol
 _atom_site_label
 _atom_site_symmetry_multiplicity
 _atom_site_fract_x
 _atom_site_fract_y
 _atom_site_fract_z
 _atom_site_occupancy
  Ba  Ba0  1  0.66717121  0.33282879  0.75000000  1
  Ba  Ba1  1  0.33282879  0.66717121  0.25000000  1
  V  V0  1  0.66631692  0.33368308  0.25000000  1
  V  V1  1  0.33368308  0.66631692  0.75000000  1
  V  V2  1  0.00028149  0.99971851  0.64671797  1
  V  V3  1  0.99971851  0.00028149  0.14671797  1
  V  V4  1  0.00028149  0.99971851  0.85328203  1
  V  V5  1  0.99971851  0.00028149  0.35328203  1
  V  V6  1  0.50000000  -0.00000000  0.00000000  1
  V  V7  1  0.50000000  0.50000000  0.50000000  1
  V  V8  1  -0.00000000  0.50000000  0.50000000  1
  V  V9  1  -0.00000000  0.50000000  0.00000000  1
  V  V10  1  0.50000000  0.50000000  0.00000000  1
  V  V11  1  0.50000000  -0.00000000  0.50000000  1
  O  O0  1  0.66659163  0.33340837  0.08591033  1
  O  O1  1  0.33340837  0.66659163  0.58591033  1
  O  O2  1  0.66659163  0.33340837  0.41408967  1
  O  O3  1  0.33340837  0.66659163  0.91408967  1
  O  O4  1  0.85010918  0.70129955  0.25000000  1
  O  O5  1  0.14987704  0.85012296  0.75000000  1
  O  O6  1  0.70129955  0.85010918  0.75000000  1
  O  O7  1  0.29870045  0.14989082  0.25000000  1
  O  O8  1  0.85012296  0.14987704  0.25000000  1
  O  O9  1  0.14989082  0.29870045  0.75000000  1
  O  O10  1  0.82968269  0.65918503  0.57884846  1
  O  O11  1  0.17010831  0.82989169  0.07875791  1
  O  O12  1  0.65918503  0.82968269  0.07884846  1
  O  O13  1  0.34081497  0.17031731  0.57884846  1
  O  O14  1  0.17031731  0.34081497  0.42115154  1
  O  O15  1  0.82989169  0.17010831  0.92124209  1
  O  O16  1  0.34081497  0.17031731  0.92115154  1
  O  O17  1  0.65918503  0.82968269  0.42115154  1
  O  O18  1  0.17010831  0.82989169  0.42124209  1
  O  O19  1  0.82968269  0.65918503  0.92115154  1
  O  O20  1  0.17031731  0.34081497  0.07884846  1
  O  O21  1  0.82989169  0.17010831  0.57875791  1
loop_
_geom_bond_atom_site_label_1
_geom_bond_atom_site_label_2
_geom_bond_distance
_geom_bond_site_symmetry_2
Ba0 O21 2.800602 1_555
Ba0 O15 2.800602 1_555
Ba0 O19 2.802259 1_555
Ba0 O13 2.802259 1_555
Ba0 O16 2.802259 1_555
Ba0 O10 2.802259 1_555
Ba0 O9 2.912814 1_655
Ba0 O6 2.912814 1_545
Ba0 O5 2.913964 1_655
Ba0 O5 2.913964 1_545
Ba0 O6 2.915294 1_555
Ba0 O9 2.915294 1_555
Ba1 O18 2.800602 1_555
Ba1 O11 2.800602 1_555
Ba1 O12 2.802259 1_555
Ba1 O20 2.802259 1_555
Ba1 O17 2.802259 1_555
Ba1 O14 2.802259 1_555
Ba1 O7 2.912814 1_565
Ba1 O4 2.912814 1_455
Ba1 O8 2.913964 1_565
Ba1 O8 2.913964 1_455
Ba1 O7 2.915294 1_555
Ba1 O4 2.915294 1_555
O0 V10 2.028712 1_555
O0 V9 2.029541 1_655
O0 V6 2.029541 1_555
O0 V0 2.175527 1_555
O1 V7 2.028712 1_555
O1 V11 2.029541 1_565
O1 V8 2.029541 1_555
O1 V1 2.175527 1_555
O2 V7 2.028712 1_555
O2 V8 2.029541 1_655
O2 V11 2.029541 1_555
O2 V0 2.175527 1_555
O3 V10 2.028712 1_556
O3 V9 2.029541 1_556
O3 V6 2.029541 1_566
O3 V1 2.175527 1_555
O4 V0 1.852137 1_555
O4 V3 2.035712 1_565
O4 V5 2.035712 1_565
O5 V1 1.852261 1_555
O5 V2 2.036579 1_555
O5 V4 2.036579 1_555
O6 V1 1.852137 1_555
O6 V2 2.035712 1_655
O6 V4 2.035712 1_655
O7 V0 1.852137 1_555
O7 V3 2.035712 1_455
O7 V5 2.035712 1_455
O8 V0 1.852261 1_555
O8 V3 2.036579 1_555
O8 V5 2.036579 1_555
O9 V1 1.852137 1_555
O9 V2 2.035712 1_545
O9 V4 2.035712 1_545
O10 V2 1.937335 1_655
O10 V8 1.962211 1_655
O10 V7 1.962881 1_555
O11 V3 1.939110 1_465
O11 V6 1.963082 1_565
O11 V9 1.963082 1_555
O12 V3 1.937335 1_565
O12 V6 1.962211 1_565
O12 V10 1.962881 1_555
O13 V2 1.937335 1_545
O13 V11 1.962211 1_555
O13 V7 1.962881 1_555
O14 V5 1.937335 1_455
O14 V8 1.962211 1_555
O14 V7 1.962881 1_555
O15 V4 1.939110 1_645
O15 V9 1.963082 1_656
O15 V6 1.963082 1_556
O16 V4 1.937335 1_545
O16 V6 1.962211 1_556
O16 V10 1.962881 1_556
O17 V5 1.937335 1_565
O17 V11 1.962211 1_565
O17 V7 1.962881 1_555
O18 V5 1.939110 1_465
O18 V11 1.963082 1_565
O18 V8 1.963082 1_555
O19 V4 1.937335 1_655
O19 V9 1.962211 1_656
O19 V10 1.962881 1_556
O20 V3 1.937335 1_455
O20 V9 1.962211 1_555
O20 V10 1.962881 1_555
O21 V2 1.939110 1_645
O21 V8 1.963082 1_655
O21 V11 1.963082 1_555
