# generated using pymatgen
data_Lu(PO3)3
_symmetry_space_group_name_H-M   'P 1'
_cell_length_a   12.84269082
_cell_length_b   12.84269082
_cell_length_c   12.84269082
_cell_angle_alpha   109.47122063
_cell_angle_beta   109.47122063
_cell_angle_gamma   109.47122063
_symmetry_Int_Tables_number   1
_chemical_formula_structural   Lu(PO3)3
_chemical_formula_sum   'Lu8 P24 O72'
_cell_volume   1630.59531732
_cell_formula_units_Z   8
loop_
 _symmetry_equiv_pos_site_id
 _symmetry_equiv_pos_as_xyz
  1  'x, y, z'
loop_
 _atom_site_type_symbol
 _atom_site_label
 _atom_site_symmetry_multiplicity
 _atom_site_fract_x
 _atom_site_fract_y
 _atom_site_fract_z
 _atom_site_occupancy
  Lu  Lu0  1  0.79404500  0.79404500  0.79404500  1
  Lu  Lu1  1  0.00000000  0.70595500  0.50000000  1
  Lu  Lu2  1  0.50000000  0.00000000  0.70595500  1
  Lu  Lu3  1  0.70595500  0.50000000  0.00000000  1
  Lu  Lu4  1  0.29404500  0.29404500  0.29404500  1
  Lu  Lu5  1  0.00000000  0.20595500  0.50000000  1
  Lu  Lu6  1  0.20595500  0.50000000  0.00000000  1
  Lu  Lu7  1  0.50000000  0.00000000  0.20595500  1
  P  P0  1  0.83061200  0.53954500  0.62318700  1
  P  P1  1  0.08364200  0.96045500  0.79106700  1
  P  P2  1  0.41635800  0.20742500  0.87681300  1
  P  P3  1  0.66938800  0.29257500  0.70893300  1
  P  P4  1  0.12318700  0.03954500  0.33061200  1
  P  P5  1  0.29106700  0.46045500  0.58364200  1
  P  P6  1  0.37681300  0.70742500  0.91635800  1
  P  P7  1  0.20893300  0.79257500  0.16938800  1
  P  P8  1  0.53954500  0.62318700  0.83061200  1
  P  P9  1  0.96045500  0.79106700  0.08364200  1
  P  P10  1  0.20742500  0.87681300  0.41635800  1
  P  P11  1  0.29257500  0.70893300  0.66938800  1
  P  P12  1  0.03954500  0.33061200  0.12318700  1
  P  P13  1  0.46045500  0.58364200  0.29106700  1
  P  P14  1  0.70742500  0.91635800  0.37681300  1
  P  P15  1  0.79257500  0.16938800  0.20893300  1
  P  P16  1  0.62318700  0.83061200  0.53954500  1
  P  P17  1  0.79106700  0.08364200  0.96045500  1
  P  P18  1  0.87681300  0.41635800  0.20742500  1
  P  P19  1  0.70893300  0.66938800  0.29257500  1
  P  P20  1  0.33061200  0.12318700  0.03954500  1
  P  P21  1  0.58364200  0.29106700  0.46045500  1
  P  P22  1  0.91635800  0.37681300  0.70742500  1
  P  P23  1  0.16938800  0.20893300  0.79257500  1
  O  O0  1  0.90466600  0.50001100  0.71778200  1
  O  O1  1  0.21777100  0.99998900  0.90465500  1
  O  O2  1  0.28222900  0.18688400  0.78221800  1
  O  O3  1  0.59533400  0.31311600  0.59534500  1
  O  O4  1  0.21778200  0.00001100  0.40466600  1
  O  O5  1  0.40465500  0.49998900  0.71777100  1
  O  O6  1  0.28221800  0.68688400  0.78222900  1
  O  O7  1  0.09534500  0.81311600  0.09533400  1
  O  O8  1  0.50001100  0.71778200  0.90466600  1
  O  O9  1  0.99998900  0.90465500  0.21777100  1
  O  O10  1  0.18688400  0.78221800  0.28222900  1
  O  O11  1  0.31311600  0.59534500  0.59533400  1
  O  O12  1  0.00001100  0.40466600  0.21778200  1
  O  O13  1  0.49998900  0.71777100  0.40465500  1
  O  O14  1  0.68688400  0.78222900  0.28221800  1
  O  O15  1  0.81311600  0.09533400  0.09534500  1
  O  O16  1  0.71778200  0.90466600  0.50001100  1
  O  O17  1  0.90465500  0.21777100  0.99998900  1
  O  O18  1  0.78221800  0.28222900  0.18688400  1
  O  O19  1  0.59534500  0.59533400  0.31311600  1
  O  O20  1  0.40466600  0.21778200  0.00001100  1
  O  O21  1  0.71777100  0.40465500  0.49998900  1
  O  O22  1  0.78222900  0.28221800  0.68688400  1
  O  O23  1  0.09533400  0.09534500  0.81311600  1
  O  O24  1  0.89648200  0.81199700  0.97839800  1
  O  O25  1  0.16640100  0.68800300  0.58448500  1
  O  O26  1  0.33359900  0.91808400  0.52160200  1
  O  O27  1  0.60351800  0.58191600  0.91551500  1
  O  O28  1  0.47839800  0.31199700  0.39648200  1
  O  O29  1  0.08448500  0.18800300  0.66640100  1
  O  O30  1  0.02160200  0.41808400  0.83359900  1
  O  O31  1  0.41551500  0.08191600  0.10351800  1
  O  O32  1  0.81199700  0.97839800  0.89648200  1
  O  O33  1  0.68800300  0.58448500  0.16640100  1
  O  O34  1  0.91808400  0.52160200  0.33359900  1
  O  O35  1  0.58191600  0.91551500  0.60351800  1
  O  O36  1  0.31199700  0.39648200  0.47839800  1
  O  O37  1  0.18800300  0.66640100  0.08448500  1
  O  O38  1  0.41808400  0.83359900  0.02160200  1
  O  O39  1  0.08191600  0.10351800  0.41551500  1
  O  O40  1  0.97839800  0.89648200  0.81199700  1
  O  O41  1  0.58448500  0.16640100  0.68800300  1
  O  O42  1  0.52160200  0.33359900  0.91808400  1
  O  O43  1  0.91551500  0.60351800  0.58191600  1
  O  O44  1  0.39648200  0.47839800  0.31199700  1
  O  O45  1  0.66640100  0.08448500  0.18800300  1
  O  O46  1  0.83359900  0.02160200  0.41808400  1
  O  O47  1  0.10351800  0.41551500  0.08191600  1
  O  O48  1  0.78005800  0.61097700  0.68990900  1
  O  O49  1  0.07893100  0.88902300  0.66908100  1
  O  O50  1  0.42106900  0.09015000  0.81009100  1
  O  O51  1  0.71994200  0.40985000  0.83091900  1
  O  O52  1  0.18990900  0.11097700  0.28005800  1
  O  O53  1  0.16908100  0.38902300  0.57893100  1
  O  O54  1  0.31009100  0.59015000  0.92106900  1
  O  O55  1  0.33091900  0.90985000  0.21994200  1
  O  O56  1  0.61097700  0.68990900  0.78005800  1
  O  O57  1  0.88902300  0.66908100  0.07893100  1
  O  O58  1  0.09015000  0.81009100  0.42106900  1
  O  O59  1  0.40985000  0.83091900  0.71994200  1
  O  O60  1  0.11097700  0.28005800  0.18990900  1
  O  O61  1  0.38902300  0.57893100  0.16908100  1
  O  O62  1  0.59015000  0.92106900  0.31009100  1
  O  O63  1  0.90985000  0.21994200  0.33091900  1
  O  O64  1  0.68990900  0.78005800  0.61097700  1
  O  O65  1  0.66908100  0.07893100  0.88902300  1
  O  O66  1  0.81009100  0.42106900  0.09015000  1
  O  O67  1  0.83091900  0.71994200  0.40985000  1
  O  O68  1  0.28005800  0.18990900  0.11097700  1
  O  O69  1  0.57893100  0.16908100  0.38902300  1
  O  O70  1  0.92106900  0.31009100  0.59015000  1
  O  O71  1  0.21994200  0.33091900  0.90985000  1
loop_
_geom_bond_atom_site_label_1
_geom_bond_atom_site_label_2
_geom_bond_distance
_geom_bond_site_symmetry_2
Lu0 O40 2.178706 1_555
Lu0 O24 2.178706 1_555
Lu0 O32 2.178706 1_555
Lu0 O64 2.193299 1_555
Lu0 O48 2.193299 1_555
Lu0 O56 2.193299 1_555
Lu1 O34 2.178706 1_455
Lu1 O43 2.178706 1_455
Lu1 O25 2.178706 1_555
Lu1 O58 2.193294 1_555
Lu1 O49 2.193301 1_555
Lu1 O67 2.193301 1_455
Lu2 O35 2.178706 1_545
Lu2 O26 2.178706 1_545
Lu2 O41 2.178706 1_555
Lu2 O50 2.193294 1_555
Lu2 O65 2.193301 1_555
Lu2 O59 2.193301 1_545
Lu3 O42 2.178706 1_554
Lu3 O27 2.178706 1_554
Lu3 O33 2.178706 1_555
Lu3 O66 2.193294 1_555
Lu3 O57 2.193301 1_555
Lu3 O51 2.193301 1_554
Lu4 O28 2.178706 1_555
Lu4 O36 2.178706 1_555
Lu4 O44 2.178706 1_555
Lu4 O68 2.193299 1_555
Lu4 O52 2.193299 1_555
Lu4 O60 2.193299 1_555
Lu5 O29 2.178706 1_555
Lu5 O46 2.178706 1_455
Lu5 O39 2.178706 1_555
Lu5 O70 2.193294 1_455
Lu5 O53 2.193301 1_555
Lu5 O63 2.193301 1_455
Lu6 O37 2.178706 1_555
Lu6 O30 2.178706 1_554
Lu6 O47 2.178706 1_555
Lu6 O54 2.193294 1_554
Lu6 O61 2.193301 1_555
Lu6 O71 2.193301 1_554
Lu7 O38 2.178706 1_545
Lu7 O45 2.178706 1_555
Lu7 O31 2.178706 1_555
Lu7 O62 2.193294 1_545
Lu7 O69 2.193301 1_555
Lu7 O55 2.193301 1_545
O0 P22 1.604673 1_555
O0 P0 1.612766 1_555
O1 P20 1.604673 1_566
O1 P1 1.612766 1_555
O2 P23 1.604673 1_555
O2 P2 1.612766 1_555
O3 P21 1.604673 1_555
O3 P3 1.612766 1_555
O4 P10 1.604673 1_545
O4 P4 1.612766 1_555
O5 P8 1.604673 1_555
O5 P5 1.612766 1_555
O6 P11 1.604673 1_555
O6 P6 1.612766 1_555
O7 P9 1.604673 1_455
O7 P7 1.612766 1_555
O8 P6 1.604673 1_555
O8 P8 1.612766 1_555
O9 P4 1.604673 1_665
O9 P9 1.612766 1_555
O10 P7 1.604673 1_555
O10 P10 1.612766 1_555
O11 P5 1.604673 1_555
O11 P11 1.612766 1_555
O12 P18 1.604673 1_455
O12 P12 1.612766 1_555
O13 P16 1.604673 1_555
O13 P13 1.612766 1_555
O14 P19 1.604673 1_555
O14 P14 1.612766 1_555
O15 P17 1.604673 1_554
O15 P15 1.612766 1_555
O16 P14 1.604673 1_555
O16 P16 1.612766 1_555
O17 P12 1.604673 1_656
O17 P17 1.612766 1_555
O18 P15 1.604673 1_555
O18 P18 1.612766 1_555
O19 P13 1.604673 1_555
O19 P19 1.612766 1_555
O20 P2 1.604673 1_554
O20 P20 1.612766 1_555
O21 P0 1.604673 1_555
O21 P21 1.612766 1_555
O22 P3 1.604673 1_555
O22 P22 1.612766 1_555
O23 P1 1.604673 1_545
O23 P23 1.612766 1_555
O24 P9 1.491054 1_556
O25 P11 1.491054 1_555
O26 P10 1.491054 1_555
O27 P8 1.491054 1_555
O28 P21 1.491054 1_555
O29 P23 1.491054 1_555
O30 P22 1.491054 1_455
O31 P20 1.491054 1_555
O32 P17 1.491054 1_565
O33 P19 1.491054 1_555
O34 P18 1.491054 1_555
O35 P16 1.491054 1_555
O36 P5 1.491054 1_555
O37 P7 1.491054 1_555
O38 P6 1.491054 1_554
O39 P4 1.491054 1_555
O40 P1 1.491054 1_655
O41 P3 1.491054 1_555
O42 P2 1.491054 1_555
O43 P0 1.491054 1_555
O44 P13 1.491054 1_555
O45 P15 1.491054 1_555
O46 P14 1.491054 1_545
O47 P12 1.491054 1_555
O48 P0 1.497087 1_555
O49 P1 1.497081 1_555
O50 P2 1.497084 1_555
O51 P3 1.497081 1_555
O52 P4 1.497087 1_555
O53 P5 1.497081 1_555
O54 P6 1.497084 1_555
O55 P7 1.497081 1_555
O56 P8 1.497087 1_555
O57 P9 1.497081 1_555
O58 P10 1.497084 1_555
O59 P11 1.497081 1_555
O60 P12 1.497087 1_555
O61 P13 1.497081 1_555
O62 P14 1.497084 1_555
O63 P15 1.497081 1_555
O64 P16 1.497087 1_555
O65 P17 1.497081 1_555
O66 P18 1.497084 1_555
O67 P19 1.497081 1_555
O68 P20 1.497087 1_555
O69 P21 1.497081 1_555
O70 P22 1.497084 1_555
O71 P23 1.497081 1_555
