# generated using pymatgen
data_Li6PBrO5
_symmetry_space_group_name_H-M   'P 1'
_cell_length_a   5.94023436
_cell_length_b   5.94023436
_cell_length_c   5.94023436
_cell_angle_alpha   60.00000000
_cell_angle_beta   60.00000000
_cell_angle_gamma   60.00000000
_symmetry_Int_Tables_number   1
_chemical_formula_structural   Li6PBrO5
_chemical_formula_sum   'Li6 P1 Br1 O5'
_cell_volume   148.21622284
_cell_formula_units_Z   1
loop_
 _symmetry_equiv_pos_site_id
 _symmetry_equiv_pos_as_xyz
  1  'x, y, z'
loop_
 _atom_site_type_symbol
 _atom_site_label
 _atom_site_symmetry_multiplicity
 _atom_site_fract_x
 _atom_site_fract_y
 _atom_site_fract_z
 _atom_site_occupancy
  Li  Li0  1  0.98190800  0.51809200  0.98190800  1
  Li  Li1  1  0.51809200  0.98190800  0.98190800  1
  Li  Li2  1  0.51809200  0.51809200  0.98190800  1
  Li  Li3  1  0.51809200  0.98190800  0.51809200  1
  Li  Li4  1  0.98190800  0.98190800  0.51809200  1
  Li  Li5  1  0.98190800  0.51809200  0.51809200  1
  P  P0  1  0.50000000  0.50000000  0.50000000  1
  Br  Br0  1  0.00000000  0.00000000  0.00000000  1
  O  O0  1  0.82230300  0.39256600  0.39256600  1
  O  O1  1  0.39256600  0.82230300  0.39256600  1
  O  O2  1  0.39256600  0.39256600  0.39256600  1
  O  O3  1  0.39256600  0.39256600  0.82230300  1
  O  O4  1  0.75000000  0.75000000  0.75000000  1
loop_
_geom_bond_atom_site_label_1
_geom_bond_atom_site_label_2
_geom_bond_distance
_geom_bond_site_symmetry_2
Li0 O4 1.948203 1_555
Li0 O0 1.995192 1_556
Li0 O3 1.995192 1_655
Li1 O4 1.948203 1_555
Li1 O3 1.995192 1_565
Li1 O1 1.995192 1_556
Li2 O4 1.948203 1_555
Li2 O3 1.995187 1_555
Li2 O2 1.995192 1_556
Li3 O4 1.948203 1_555
Li3 O1 1.995187 1_555
Li3 O2 1.995192 1_565
Li4 O4 1.948203 1_555
Li4 O1 1.995192 1_655
Li4 O0 1.995192 1_565
Li5 O4 1.948203 1_555
Li5 O0 1.995187 1_555
Li5 O2 1.995192 1_655
Br0 Li1 2.974003 1_544
Br0 Li5 2.974003 1_454
Br0 Li5 2.974003 1_445
Br0 Li1 2.974003 1_444
Br0 Li3 2.974003 1_544
Br0 Li3 2.974003 1_445
Br0 Li0 2.974003 1_444
Br0 Li0 2.974003 1_454
Br0 Li4 2.974003 1_445
Br0 Li2 2.974003 1_454
Br0 Li2 2.974003 1_544
Br0 Li4 2.974003 1_444
O0 P0 1.563228 1_555
O1 P0 1.563228 1_555
O2 P0 1.563223 1_555
O3 P0 1.563228 1_555
