# generated using pymatgen
data_TiReSi
_symmetry_space_group_name_H-M   'P 1'
_cell_length_a   6.77787633
_cell_length_b   6.77787633
_cell_length_c   3.23571294
_cell_angle_alpha   90.00000000
_cell_angle_beta   90.00000000
_cell_angle_gamma   120.00000458
_symmetry_Int_Tables_number   1
_chemical_formula_structural   TiReSi
_chemical_formula_sum   'Ti3 Re3 Si3'
_cell_volume   128.73240355
_cell_formula_units_Z   3
loop_
 _symmetry_equiv_pos_site_id
 _symmetry_equiv_pos_as_xyz
  1  'x, y, z'
loop_
 _atom_site_type_symbol
 _atom_site_label
 _atom_site_symmetry_multiplicity
 _atom_site_fract_x
 _atom_site_fract_y
 _atom_site_fract_z
 _atom_site_occupancy
  Ti  Ti0  1  0.40328177  0.40328177  0.50000000  1
  Ti  Ti1  1  0.59671823  -0.00000000  0.50000000  1
  Ti  Ti2  1  -0.00000000  0.59671823  0.50000000  1
  Re  Re0  1  0.73759801  0.73759801  0.00000000  1
  Re  Re1  1  0.26240199  -0.00000000  -0.00000000  1
  Re  Re2  1  -0.00000000  0.26240199  -0.00000000  1
  Si  Si0  1  0.66666700  0.33333300  0.00000000  1
  Si  Si1  1  0.33333300  0.66666700  -0.00000000  1
  Si  Si2  1  0.00000000  -0.00000000  0.50000000  1
loop_
_geom_bond_atom_site_label_1
_geom_bond_atom_site_label_2
_geom_bond_distance
_geom_bond_site_symmetry_2
Re0 Si2 2.404292 1_664
Re0 Si2 2.404292 1_665
Re0 Si0 2.534114 1_555
Re0 Si1 2.534114 1_555
Re0 Ti0 2.784243 1_555
Re0 Ti0 2.784243 1_554
Re0 Ti1 2.896661 1_564
Re0 Ti1 2.896661 1_565
Re0 Ti2 2.896661 1_655
Re0 Ti2 2.896661 1_654
Re1 Si2 2.404292 1_555
Re1 Si2 2.404292 1_554
Re1 Si1 2.534108 1_545
Re1 Si0 2.534112 1_555
Re1 Ti1 2.784243 1_554
Re1 Ti1 2.784243 1_555
Re1 Ti2 2.896661 1_545
Re1 Ti2 2.896661 1_544
Re1 Ti0 2.896661 1_555
Re1 Ti0 2.896661 1_554
Re2 Si2 2.404292 1_555
Re2 Si2 2.404292 1_554
Re2 Si0 2.534108 1_455
Re2 Si1 2.534112 1_555
Re2 Ti2 2.784243 1_554
Re2 Ti2 2.784243 1_555
Re2 Ti1 2.896661 1_455
Re2 Ti1 2.896661 1_454
Re2 Ti0 2.896661 1_555
Re2 Ti0 2.896661 1_554
Si0 Ti1 2.622115 1_555
Si0 Ti1 2.622115 1_554
Si0 Ti2 2.622116 1_655
Si0 Ti2 2.622116 1_654
Si0 Ti0 2.622120 1_555
Si0 Ti0 2.622120 1_554
Si1 Ti2 2.622115 1_554
Si1 Ti2 2.622115 1_555
Si1 Ti1 2.622116 1_564
Si1 Ti1 2.622116 1_565
Si1 Ti0 2.622120 1_555
Si1 Ti0 2.622120 1_554
Si2 Ti0 2.733394 1_555
Si2 Ti2 2.733394 1_545
Si2 Ti1 2.733394 1_455
