# generated using pymatgen
data_Y(Fe5Si)2
_symmetry_space_group_name_H-M   'P 1'
_cell_length_a   4.75159200
_cell_length_b   6.35190077
_cell_length_c   6.35190077
_cell_angle_alpha   98.38402785
_cell_angle_beta   111.96433038
_cell_angle_gamma   68.03566962
_symmetry_Int_Tables_number   1
_chemical_formula_structural   Y(Fe5Si)2
_chemical_formula_sum   'Y1 Fe10 Si2'
_cell_volume   164.88695601
_cell_formula_units_Z   1
loop_
 _symmetry_equiv_pos_site_id
 _symmetry_equiv_pos_as_xyz
  1  'x, y, z'
loop_
 _atom_site_type_symbol
 _atom_site_label
 _atom_site_symmetry_multiplicity
 _atom_site_fract_x
 _atom_site_fract_y
 _atom_site_fract_z
 _atom_site_occupancy
  Y  Y0  1  0.00000000  0.00000000  0.00000000  1
  Fe  Fe0  1  0.63843500  0.36156500  0.63843500  1
  Fe  Fe1  1  0.36156500  0.63843500  0.36156500  1
  Fe  Fe2  1  0.00000000  0.35488300  0.35488300  1
  Fe  Fe3  1  0.00000000  0.64511700  0.64511700  1
  Fe  Fe4  1  0.50000000  0.78974900  0.78974900  1
  Fe  Fe5  1  0.50000000  0.21025100  0.21025100  1
  Fe  Fe6  1  0.50000000  0.00000000  0.50000000  1
  Fe  Fe7  1  0.00000000  0.00000000  0.50000000  1
  Fe  Fe8  1  0.50000000  0.50000000  0.00000000  1
  Fe  Fe9  1  0.00000000  0.50000000  0.00000000  1
  Si  Si0  1  0.73561600  0.76438400  0.23561600  1
  Si  Si1  1  0.26438400  0.23561600  0.76438400  1
loop_
_geom_bond_atom_site_label_1
_geom_bond_atom_site_label_2
_geom_bond_distance
_geom_bond_site_symmetry_2
Fe0 Fe1 2.314496 1_555
Fe0 Fe9 2.566880 1_656
Fe0 Fe7 2.566880 1_655
Fe0 Fe8 2.566880 1_556
Fe0 Fe6 2.566880 1_555
Fe0 Si1 2.598643 1_655
Fe0 Si1 2.598643 1_555
Fe0 Fe5 2.669458 1_555
Fe0 Fe4 2.669458 1_555
Fe0 Fe2 2.904337 1_555
Fe0 Fe3 2.904337 1_555
Fe0 Fe2 2.904337 1_655
Fe0 Fe3 2.904337 1_655
Fe0 Y0 3.022504 1_656
Fe1 Fe9 2.566880 1_555
Fe1 Fe7 2.566880 1_565
Fe1 Fe8 2.566880 1_555
Fe1 Fe6 2.566880 1_565
Fe1 Si0 2.598643 1_455
Fe1 Si0 2.598643 1_555
Fe1 Fe5 2.669458 1_555
Fe1 Fe4 2.669458 1_555
Fe1 Fe2 2.904337 1_655
Fe1 Fe3 2.904337 1_655
Fe1 Fe2 2.904337 1_555
Fe1 Fe3 2.904337 1_555
Fe1 Y0 3.022504 1_565
Fe2 Fe3 2.409600 1_555
Fe2 Si0 2.517175 1_455
Fe2 Si1 2.517175 1_555
Fe2 Fe6 2.556739 1_555
Fe2 Fe8 2.556739 1_455
Fe2 Fe9 2.556740 1_555
Fe2 Fe7 2.556740 1_555
Fe2 Fe5 2.662004 1_555
Fe2 Fe5 2.662004 1_455
Fe2 Y0 2.946333 1_555
Fe3 Si1 2.517175 1_555
Fe3 Si0 2.517175 1_455
Fe3 Fe6 2.556739 1_465
Fe3 Fe8 2.556739 1_556
Fe3 Fe7 2.556740 1_565
Fe3 Fe9 2.556740 1_556
Fe3 Fe4 2.662004 1_555
Fe3 Fe4 2.662004 1_455
Fe3 Y0 2.946333 1_566
Fe4 Fe9 2.426435 1_656
Fe4 Fe7 2.426435 1_565
Fe4 Fe6 2.426435 1_565
Fe4 Fe8 2.426435 1_556
Fe4 Si0 2.631812 1_556
Fe4 Si1 2.631812 1_565
Fe4 Y0 2.948116 1_566
Fe4 Y0 2.948116 1_666
Fe5 Fe7 2.426435 1_655
Fe5 Fe9 2.426435 1_555
Fe5 Fe8 2.426435 1_555
Fe5 Fe6 2.426435 1_555
Fe5 Si1 2.631812 1_554
Fe5 Si0 2.631812 1_545
Fe5 Y0 2.948116 1_655
Fe5 Y0 2.948116 1_555
Fe6 Fe7 2.375796 1_655
Fe6 Fe7 2.375796 1_555
Fe6 Si1 2.394480 1_555
Fe6 Si0 2.394480 1_545
Fe6 Y0 3.175950 1_555
Fe6 Y0 3.175950 1_656
Fe7 Si1 2.394480 1_555
Fe7 Si0 2.394480 1_445
Fe7 Y0 3.175950 1_556
Fe7 Y0 3.175950 1_555
Fe8 Fe9 2.375796 1_555
Fe8 Fe9 2.375796 1_655
Fe8 Si0 2.394480 1_555
Fe8 Si1 2.394480 1_554
Fe8 Y0 3.175950 1_565
Fe8 Y0 3.175950 1_655
Fe9 Si0 2.394480 1_455
Fe9 Si1 2.394480 1_554
Fe9 Y0 3.175950 1_555
Fe9 Y0 3.175950 1_565
Si0 Y0 3.086075 1_565
Si0 Y0 3.086076 1_665
Si1 Y0 3.086075 1_656
Si1 Y0 3.086076 1_556
