# generated using pymatgen
data_Ca2YFeO5
_symmetry_space_group_name_H-M   'P 1'
_cell_length_a   8.90508470
_cell_length_b   8.90508470
_cell_length_c   8.90508470
_cell_angle_alpha   143.78616278
_cell_angle_beta   142.59994344
_cell_angle_gamma   53.04183909
_symmetry_Int_Tables_number   1
_chemical_formula_structural   Ca2YFeO5
_chemical_formula_sum   'Ca4 Y2 Fe2 O10'
_cell_volume   251.84695911
_cell_formula_units_Z   2
loop_
 _symmetry_equiv_pos_site_id
 _symmetry_equiv_pos_as_xyz
  1  'x, y, z'
loop_
 _atom_site_type_symbol
 _atom_site_label
 _atom_site_symmetry_multiplicity
 _atom_site_fract_x
 _atom_site_fract_y
 _atom_site_fract_z
 _atom_site_occupancy
  Ca  Ca0  1  0.37219800  0.89071100  0.46034400  1
  Ca  Ca1  1  0.06963300  0.58814500  0.46034400  1
  Ca  Ca2  1  0.62780200  0.08814500  0.51851300  1
  Ca  Ca3  1  0.93036700  0.39071100  0.51851300  1
  Y  Y0  1  0.70491800  0.70581300  0.91073100  1
  Y  Y1  1  0.29508200  0.20581300  0.00089500  1
  Fe  Fe0  1  0.50000000  0.51250300  0.01250300  1
  Fe  Fe1  1  0.00000000  0.01250300  0.01250300  1
  O  O0  1  0.66621300  0.30862700  0.47484000  1
  O  O1  1  0.33378700  0.80862700  0.64241400  1
  O  O2  1  0.28964200  0.42571300  0.97428600  1
  O  O3  1  0.71035800  0.68464500  0.13607100  1
  O  O4  1  0.95142700  0.92571300  0.13607100  1
  O  O5  1  0.04857300  0.18464500  0.97428600  1
  O  O6  1  0.26199900  0.78173500  0.00787600  1
  O  O7  1  0.73800100  0.74587600  0.51973600  1
  O  O8  1  0.72614000  0.24587600  0.00787600  1
  O  O9  1  0.27386000  0.28173500  0.51973600  1
loop_
_geom_bond_atom_site_label_1
_geom_bond_atom_site_label_2
_geom_bond_distance
_geom_bond_site_symmetry_2
Ca0 O4 2.309229 1_455
Ca0 O7 2.421965 1_555
Ca0 O2 2.470889 1_554
Ca0 O1 2.524733 1_555
Ca0 O8 2.529215 1_566
Ca0 O6 2.587085 1_555
Ca0 O9 2.696120 1_565
Ca1 O3 2.309238 1_455
Ca1 O9 2.421957 1_555
Ca1 O5 2.470888 1_554
Ca1 O1 2.524740 1_555
Ca1 O6 2.529219 1_556
Ca1 O8 2.587091 1_455
Ca1 O7 2.696118 1_455
Ca2 O5 2.309227 1_655
Ca2 O6 2.421962 1_545
Ca2 O3 2.470886 1_545
Ca2 O0 2.524741 1_555
Ca2 O9 2.529215 1_555
Ca2 O7 2.587085 1_545
Ca2 O8 2.696123 1_556
Ca3 O2 2.309229 1_655
Ca3 O8 2.421957 1_555
Ca3 O4 2.470889 1_545
Ca3 O0 2.524733 1_555
Ca3 O7 2.529215 1_555
Ca3 O9 2.587094 1_655
Ca3 O6 2.696118 1_656
Fe0 O9 1.979651 1_554
Fe0 O8 1.979652 1_555
Fe0 O6 2.037717 1_555
Fe0 O7 2.037718 1_555
Fe0 O2 2.127396 1_554
Fe0 O3 2.127404 1_555
Fe1 O6 1.979649 1_545
Fe1 O7 1.979651 1_444
Fe1 O9 2.037718 1_555
Fe1 O8 2.037719 1_455
Fe1 O4 2.127396 1_445
Fe1 O5 2.127405 1_554
O0 Y1 2.194308 1_555
O0 Y0 2.209602 1_555
O1 Y0 2.194308 1_555
O1 Y1 2.209602 1_566
O2 Y1 2.123580 1_556
O3 Y0 2.123572 1_554
O4 Y0 2.123580 1_554
O5 Y1 2.123574 1_556
