# generated using pymatgen
data_Mg6MnSi
_symmetry_space_group_name_H-M   'P 1'
_cell_length_a   4.78862500
_cell_length_b   6.18948600
_cell_length_c   10.60860300
_cell_angle_alpha   90.00000000
_cell_angle_beta   90.00000000
_cell_angle_gamma   90.00000000
_symmetry_Int_Tables_number   1
_chemical_formula_structural   Mg6MnSi
_chemical_formula_sum   'Mg12 Mn2 Si2'
_cell_volume   314.42973582
_cell_formula_units_Z   2
loop_
 _symmetry_equiv_pos_site_id
 _symmetry_equiv_pos_as_xyz
  1  'x, y, z'
loop_
 _atom_site_type_symbol
 _atom_site_label
 _atom_site_symmetry_multiplicity
 _atom_site_fract_x
 _atom_site_fract_y
 _atom_site_fract_z
 _atom_site_occupancy
  Mg  Mg0  1  0.00000000  0.25529000  0.08636300  1
  Mg  Mg1  1  0.00000000  0.74471000  0.08636300  1
  Mg  Mg2  1  0.00000000  0.50000000  0.83423000  1
  Mg  Mg3  1  0.50000000  0.24133700  0.91123900  1
  Mg  Mg4  1  0.50000000  0.75866300  0.91123900  1
  Mg  Mg5  1  0.50000000  0.50000000  0.66673600  1
  Mg  Mg6  1  0.00000000  0.75529000  0.58636300  1
  Mg  Mg7  1  0.00000000  0.24471000  0.58636300  1
  Mg  Mg8  1  0.00000000  0.00000000  0.33423000  1
  Mg  Mg9  1  0.50000000  0.74133700  0.41123900  1
  Mg  Mg10  1  0.50000000  0.25866300  0.41123900  1
  Mg  Mg11  1  0.50000000  0.00000000  0.16673600  1
  Mn  Mn0  1  0.00000000  0.50000000  0.32258600  1
  Mn  Mn1  1  0.00000000  0.00000000  0.82258600  1
  Si  Si0  1  0.50000000  0.50000000  0.18124500  1
  Si  Si1  1  0.50000000  0.00000000  0.68124500  1
loop_
_geom_bond_atom_site_label_1
_geom_bond_atom_site_label_2
_geom_bond_distance
_geom_bond_site_symmetry_2
Mg0 Mn0 2.928159 1_555
Mg0 Mg11 2.992741 1_455
Mg0 Mg11 2.992741 1_555
Mg0 Si0 3.006661 1_555
Mg0 Si0 3.006661 1_455
Mg0 Mg1 3.029258 1_555
Mg0 Mg3 3.031780 1_554
Mg0 Mg3 3.031780 1_454
Mg0 Mg8 3.067760 1_555
Mg0 Mg2 3.073848 1_554
Mg0 Mg1 3.160228 1_545
Mg0 Mn1 3.213608 1_554
Mg1 Mn0 2.928159 1_555
Mg1 Mg11 2.992741 1_565
Mg1 Mg11 2.992741 1_465
Mg1 Si0 3.006661 1_555
Mg1 Si0 3.006661 1_455
Mg1 Mg4 3.031780 1_454
Mg1 Mg4 3.031780 1_554
Mg1 Mg8 3.067760 1_565
Mg1 Mg2 3.073848 1_554
Mg1 Mn1 3.213608 1_564
Mg2 Mg5 2.981615 1_555
Mg2 Mg5 2.981615 1_455
Mg2 Mg4 2.993881 1_455
Mg2 Mg3 2.993881 1_555
Mg2 Mg4 2.993881 1_555
Mg2 Mg3 2.993881 1_455
Mg2 Mg6 3.067760 1_555
Mg2 Mg7 3.067760 1_555
Mg2 Mn1 3.097207 1_565
Mg2 Mn1 3.097207 1_555
Mg3 Si1 2.860853 1_555
Mg3 Mn1 2.974649 1_555
Mg3 Mn1 2.974649 1_655
Mg3 Mg4 2.987504 1_545
Mg3 Mg5 3.048139 1_555
Mg3 Mg4 3.201982 1_555
Mg3 Si0 3.281445 1_556
Mg4 Si1 2.860853 1_565
Mg4 Mn1 2.974649 1_665
Mg4 Mn1 2.974649 1_565
Mg4 Mg5 3.048139 1_555
Mg4 Si0 3.281445 1_556
Mg5 Mg6 2.992741 1_555
Mg5 Mg7 2.992741 1_555
Mg5 Mg6 2.992741 1_655
Mg5 Mg7 2.992741 1_655
Mg5 Mg9 3.094822 1_555
Mg5 Si1 3.098568 1_565
Mg5 Si1 3.098568 1_555
Mg6 Mn1 2.928159 1_565
Mg6 Si1 3.006661 1_465
Mg6 Si1 3.006661 1_565
Mg6 Mg7 3.029258 1_565
Mg6 Mg9 3.031780 1_455
Mg6 Mg9 3.031780 1_555
Mg6 Mg8 3.073848 1_565
Mg6 Mg7 3.160228 1_555
Mg6 Mn0 3.213608 1_555
Mg7 Mn1 2.928159 1_555
Mg7 Si1 3.006661 1_455
Mg7 Si1 3.006661 1_555
Mg7 Mg8 3.073848 1_555
Mg7 Mn0 3.213608 1_555
Mg8 Mg9 2.993881 1_445
Mg8 Mg9 2.993881 1_545
Mg8 Mn0 3.097207 1_545
Mg8 Mn0 3.097207 1_555
Mg9 Si0 2.860853 1_555
Mg9 Mn0 2.974649 1_555
Mg9 Mn0 2.974649 1_655
Mg9 Si1 3.281445 1_565
Mg10 Si0 2.860853 1_555
Mg10 Mn0 2.974649 1_555
Mg10 Mn0 2.974649 1_655
Mg10 Mg9 2.987504 1_555
Mg10 Mg8 2.993881 1_655
Mg10 Mg8 2.993881 1_555
Mg10 Mg7 3.031780 1_555
Mg10 Mg7 3.031780 1_655
Mg10 Mg11 3.048139 1_555
Mg10 Mg5 3.094822 1_555
Mg10 Mg9 3.201982 1_545
Mg10 Si1 3.281445 1_555
Mg11 Mg8 2.981615 1_655
Mg11 Mg8 2.981615 1_555
Mg11 Mg9 3.048139 1_545
Mg11 Mg3 3.094822 1_554
Mg11 Mg4 3.094822 1_544
Mg11 Si0 3.098568 1_545
Mg11 Si0 3.098568 1_555
Mn0 Si0 2.825071 1_555
Mn0 Si0 2.825071 1_455
Mn1 Si1 2.825071 1_555
Mn1 Si1 2.825071 1_455
