# generated using pymatgen
data_KMg14Ga
_symmetry_space_group_name_H-M   'P 1'
_cell_length_a   6.46056524
_cell_length_b   6.50791896
_cell_length_c   10.55299917
_cell_angle_alpha   90.00000000
_cell_angle_beta   90.00000000
_cell_angle_gamma   120.24276626
_symmetry_Int_Tables_number   1
_chemical_formula_structural   KMg14Ga
_chemical_formula_sum   'K1 Mg14 Ga1'
_cell_volume   383.31126155
_cell_formula_units_Z   1
loop_
 _symmetry_equiv_pos_site_id
 _symmetry_equiv_pos_as_xyz
  1  'x, y, z'
loop_
 _atom_site_type_symbol
 _atom_site_label
 _atom_site_symmetry_multiplicity
 _atom_site_fract_x
 _atom_site_fract_y
 _atom_site_fract_z
 _atom_site_occupancy
  K  K0  1  0.16457732  0.33228816  0.12500000  1
  Mg  Mg0  1  0.16839722  0.33419811  0.62500000  1
  Mg  Mg1  1  0.16588113  0.83294006  0.62500000  1
  Mg  Mg2  1  0.66090260  0.32364611  0.12500000  1
  Mg  Mg3  1  0.66668090  0.33548855  0.62500000  1
  Mg  Mg4  1  0.66090260  0.83725549  0.12500000  1
  Mg  Mg5  1  0.66668090  0.83119135  0.62500000  1
  Mg  Mg6  1  0.33398233  0.15828410  0.38299472  1
  Mg  Mg7  1  0.33398233  0.15828410  0.86700528  1
  Mg  Mg8  1  0.33398233  0.67569923  0.38299472  1
  Mg  Mg9  1  0.33398233  0.67569923  0.86700528  1
  Mg  Mg10  1  0.82328452  0.16164276  0.38812005  1
  Mg  Mg11  1  0.82328452  0.16164276  0.86187995  1
  Mg  Mg12  1  0.83634838  0.66817469  0.36625794  1
  Mg  Mg13  1  0.83634838  0.66817469  0.88374206  1
  Ga  Ga0  1  0.19078220  0.84539060  0.12500000  1
loop_
_geom_bond_atom_site_label_1
_geom_bond_atom_site_label_2
_geom_bond_distance
_geom_bond_site_symmetry_2
K0 Mg4 3.226062 1_445
K0 Mg2 3.226062 1_455
K0 Mg4 3.235233 1_555
K0 Mg2 3.235234 1_555
K0 Mg6 3.337853 1_555
K0 Mg7 3.337853 1_554
K0 Mg8 3.337859 1_555
K0 Mg9 3.337859 1_554
K0 Mg11 3.367276 1_454
K0 Mg10 3.367276 1_455
Mg0 Mg10 3.155804 1_455
Mg0 Mg11 3.155804 1_455
Mg0 Mg6 3.195475 1_555
Mg0 Mg7 3.195475 1_555
Mg0 Mg9 3.195482 1_555
Mg0 Mg8 3.195482 1_555
Mg0 Mg5 3.214972 1_555
Mg0 Mg3 3.214973 1_555
Mg0 Mg5 3.245609 1_445
Mg0 Mg3 3.245609 1_455
Mg0 Mg1 3.253990 1_555
Mg0 Mg1 3.253990 1_545
Mg1 Mg8 3.141405 1_555
Mg1 Mg9 3.141405 1_555
Mg1 Mg6 3.141411 1_565
Mg1 Mg7 3.141411 1_565
Mg1 Mg3 3.219398 1_455
Mg1 Mg5 3.219399 1_455
Mg1 Mg3 3.241196 1_565
Mg1 Mg5 3.241196 1_555
Mg1 Mg12 3.292167 1_455
Mg1 Mg13 3.292167 1_455
Mg2 Mg4 3.165391 1_545
Mg2 Mg7 3.277512 1_554
Mg2 Mg6 3.277512 1_555
Mg2 Mg4 3.342528 1_555
Mg3 Mg7 3.158372 1_555
Mg3 Mg6 3.158372 1_555
Mg3 Mg5 3.225994 1_555
Mg3 Mg5 3.281925 1_545
Mg4 Mg8 3.277512 1_555
Mg4 Mg9 3.277512 1_554
Mg5 Mg9 3.158372 1_555
Mg5 Mg8 3.158372 1_555
Mg6 Mg8 3.140623 1_545
Mg6 Mg8 3.367296 1_555
Mg7 Mg9 3.140623 1_545
Mg7 Mg9 3.367296 1_555
Mg10 Mg3 3.115392 1_555
Mg10 Mg5 3.115399 1_545
Mg10 Mg8 3.150680 1_545
Mg10 Mg6 3.150681 1_555
Mg10 Mg12 3.262943 1_555
Mg10 Mg12 3.262943 1_545
Mg10 Mg8 3.310901 1_655
Mg10 Mg6 3.310901 1_655
Mg10 Mg2 3.322104 1_555
Mg10 Mg4 3.322110 1_545
Mg11 Mg3 3.115392 1_555
Mg11 Mg5 3.115399 1_545
Mg11 Mg9 3.150680 1_545
Mg11 Mg7 3.150681 1_555
Mg11 Mg13 3.262943 1_555
Mg11 Mg13 3.262943 1_545
Mg11 Mg9 3.310901 1_655
Mg11 Mg7 3.310901 1_655
Mg11 Mg2 3.322104 1_556
Mg11 Mg4 3.322110 1_546
Mg12 Mg6 3.195498 1_665
Mg12 Mg8 3.195498 1_655
Mg12 Mg4 3.199070 1_555
Mg12 Mg2 3.199076 1_555
Mg12 Mg6 3.275272 1_555
Mg12 Mg8 3.275272 1_555
Mg12 Mg5 3.309702 1_555
Mg12 Mg3 3.309709 1_555
Mg13 Mg7 3.195498 1_665
Mg13 Mg9 3.195498 1_655
Mg13 Mg4 3.199070 1_556
Mg13 Mg2 3.199076 1_556
Mg13 Mg7 3.275272 1_555
Mg13 Mg9 3.275272 1_555
Mg13 Mg5 3.309702 1_555
Mg13 Mg3 3.309709 1_555
Ga0 Mg2 3.064250 1_565
Ga0 Mg4 3.064250 1_555
Ga0 Mg12 3.224180 1_455
Ga0 Mg13 3.224180 1_454
Ga0 Mg8 3.243037 1_555
Ga0 Mg9 3.243037 1_554
Ga0 Mg7 3.243044 1_564
Ga0 Mg6 3.243044 1_565
Ga0 K0 3.257245 1_555
Ga0 K0 3.257245 1_565
