# generated using pymatgen
data_UC2S(NO2)4
_symmetry_space_group_name_H-M   'P 1'
_cell_length_a   7.02939300
_cell_length_b   13.69166600
_cell_length_c   11.89607266
_cell_angle_alpha   90.00000000
_cell_angle_beta   93.71561830
_cell_angle_gamma   90.00000000
_symmetry_Int_Tables_number   1
_chemical_formula_structural   UC2S(NO2)4
_chemical_formula_sum   'U4 C8 S4 N16 O32'
_cell_volume   1142.52017297
_cell_formula_units_Z   4
loop_
 _symmetry_equiv_pos_site_id
 _symmetry_equiv_pos_as_xyz
  1  'x, y, z'
loop_
 _atom_site_type_symbol
 _atom_site_label
 _atom_site_symmetry_multiplicity
 _atom_site_fract_x
 _atom_site_fract_y
 _atom_site_fract_z
 _atom_site_occupancy
  U  U0  1  0.73538300  0.47875300  0.30288500  1
  U  U1  1  0.26461700  0.97875300  0.19711500  1
  U  U2  1  0.26461700  0.52124700  0.69711500  1
  U  U3  1  0.73538300  0.02124700  0.80288500  1
  C  C0  1  0.95585600  0.35420500  0.08145300  1
  C  C1  1  0.04414400  0.85420500  0.41854700  1
  C  C2  1  0.04414400  0.64579500  0.91854700  1
  C  C3  1  0.95585600  0.14579500  0.58145300  1
  C  C4  1  0.49318100  0.34995200  0.08326600  1
  C  C5  1  0.50681900  0.84995200  0.41673400  1
  C  C6  1  0.50681900  0.65004800  0.91673400  1
  C  C7  1  0.49318100  0.15004800  0.58326600  1
  S  S0  1  0.24690200  0.44109200  0.39358400  1
  S  S1  1  0.75309800  0.94109200  0.10641600  1
  S  S2  1  0.75309800  0.55890800  0.60641600  1
  S  S3  1  0.24690200  0.05890800  0.89358400  1
  N  N0  1  0.03140300  0.30820200  0.99150600  1
  N  N1  1  0.96859700  0.80820200  0.50849400  1
  N  N2  1  0.96859700  0.69179800  0.00849400  1
  N  N3  1  0.03140300  0.19179800  0.49150600  1
  N  N4  1  0.96443400  0.25374000  0.07215200  1
  N  N5  1  0.03556600  0.75374000  0.42784800  1
  N  N6  1  0.03556600  0.74626000  0.92784800  1
  N  N7  1  0.96443400  0.24626000  0.57215200  1
  N  N8  1  0.43251100  0.26813100  0.12831000  1
  N  N9  1  0.56748900  0.76813100  0.37169000  1
  N  N10  1  0.56748900  0.73186900  0.87169000  1
  N  N11  1  0.43251100  0.23186900  0.62831000  1
  N  N12  1  0.53223100  0.35681800  0.97524400  1
  N  N13  1  0.46776900  0.85681800  0.52475600  1
  N  N14  1  0.46776900  0.64318200  0.02475600  1
  N  N15  1  0.53223100  0.14318200  0.47524400  1
  O  O0  1  0.22656800  0.45689300  0.51735500  1
  O  O1  1  0.77343200  0.95689300  0.98264500  1
  O  O2  1  0.77343200  0.54310700  0.48264500  1
  O  O3  1  0.22656800  0.04310700  0.01735500  1
  O  O4  1  0.41926900  0.49683700  0.36222600  1
  O  O5  1  0.58073100  0.99683700  0.13777400  1
  O  O6  1  0.58073100  0.50316300  0.63777400  1
  O  O7  1  0.41926900  0.00316300  0.86222600  1
  O  O8  1  0.07729900  0.48723700  0.33285600  1
  O  O9  1  0.92270100  0.98723700  0.16714400  1
  O  O10  1  0.92270100  0.51276300  0.66714400  1
  O  O11  1  0.07729900  0.01276300  0.83285600  1
  O  O12  1  0.26183100  0.33744500  0.36862100  1
  O  O13  1  0.73816900  0.83744500  0.13137900  1
  O  O14  1  0.73816900  0.66255500  0.63137900  1
  O  O15  1  0.26183100  0.16255500  0.86862100  1
  O  O16  1  0.74083600  0.59831000  0.24277900  1
  O  O17  1  0.25916400  0.09831000  0.25722100  1
  O  O18  1  0.25916400  0.40169000  0.75722100  1
  O  O19  1  0.74083600  0.90169000  0.74277900  1
  O  O20  1  0.74282000  0.35420600  0.35043900  1
  O  O21  1  0.25718000  0.85420600  0.14956100  1
  O  O22  1  0.25718000  0.64579400  0.64956100  1
  O  O23  1  0.74282000  0.14579400  0.85043900  1
  O  O24  1  0.91461100  0.42905900  0.12782700  1
  O  O25  1  0.08538900  0.92905900  0.37217300  1
  O  O26  1  0.08538900  0.57094100  0.87217300  1
  O  O27  1  0.91461100  0.07094100  0.62782700  1
  O  O28  1  0.52363100  0.42934100  0.14508400  1
  O  O29  1  0.47636900  0.92934100  0.35491600  1
  O  O30  1  0.47636900  0.57065900  0.85491600  1
  O  O31  1  0.52363100  0.07065900  0.64508400  1
loop_
_geom_bond_atom_site_label_1
_geom_bond_atom_site_label_2
_geom_bond_distance
_geom_bond_site_symmetry_2
C0 O24 1.208096 1_555
C0 N0 1.377431 1_654
C0 N4 1.381606 1_555
C1 O25 1.208096 1_555
C1 N1 1.377431 1_455
C1 N5 1.381606 1_555
C2 O26 1.208096 1_555
C2 N2 1.377431 1_456
C2 N6 1.381606 1_555
C3 O27 1.208096 1_555
C3 N3 1.377431 1_655
C3 N7 1.381606 1_555
C4 O28 1.322011 1_555
C4 N8 1.324245 1_555
C4 N12 1.334626 1_554
C5 O29 1.322011 1_555
C5 N9 1.324245 1_555
C5 N13 1.334626 1_555
C6 O30 1.322011 1_555
C6 N10 1.324245 1_555
C6 N14 1.334626 1_556
C7 O31 1.322011 1_555
C7 N11 1.324245 1_555
C7 N15 1.334626 1_555
N0 N4 1.325355 1_456
N1 N5 1.325355 1_655
N2 N6 1.325355 1_654
N3 N7 1.325355 1_455
O0 S0 1.504141 1_555
O0 U2 2.312290 1_555
O1 S1 1.504141 1_556
O1 U3 2.312290 1_565
O2 S2 1.504141 1_555
O2 U0 2.312290 1_555
O3 S3 1.504141 1_554
O3 U1 2.312290 1_545
O4 S0 1.499445 1_555
O4 U0 2.387598 1_555
O5 S1 1.499445 1_555
O5 U1 2.387598 1_555
O6 S2 1.499445 1_555
O6 U2 2.387598 1_555
O7 S3 1.499445 1_555
O7 U3 2.387598 1_555
O8 S0 1.493585 1_555
O8 U0 2.409601 1_455
O9 S1 1.493585 1_555
O9 U1 2.409601 1_655
O10 S2 1.493585 1_555
O10 U2 2.409601 1_655
O11 S3 1.493585 1_555
O11 U3 2.409601 1_455
O12 S0 1.455020 1_555
O13 S1 1.455020 1_555
O14 S2 1.455020 1_555
O15 S3 1.455020 1_555
O16 U0 1.787691 1_555
O17 U1 1.787691 1_545
O18 U2 1.787691 1_555
O19 U3 1.787691 1_565
O20 U0 1.796335 1_555
O21 U1 1.796335 1_555
O22 U2 1.796335 1_555
O23 U3 1.796335 1_555
O24 U0 2.593658 1_555
O25 U1 2.593658 1_555
O26 U2 2.593658 1_555
O27 U3 2.593658 1_555
O28 U0 2.415588 1_555
O29 U1 2.415588 1_555
O30 U2 2.415588 1_555
O31 U3 2.415588 1_555
