# generated using pymatgen
data_KNa2Li3Cr2(Si2O5)6
_symmetry_space_group_name_H-M   'P 1'
_cell_length_a   10.14862693
_cell_length_b   10.14862693
_cell_length_c   14.25137400
_cell_angle_alpha   90.00000000
_cell_angle_beta   90.00000000
_cell_angle_gamma   120.00000604
_symmetry_Int_Tables_number   1
_chemical_formula_structural   KNa2Li3Cr2(Si2O5)6
_chemical_formula_sum   'K2 Na4 Li6 Cr4 Si24 O60'
_cell_volume   1271.16497537
_cell_formula_units_Z   2
loop_
 _symmetry_equiv_pos_site_id
 _symmetry_equiv_pos_as_xyz
  1  'x, y, z'
loop_
 _atom_site_type_symbol
 _atom_site_label
 _atom_site_symmetry_multiplicity
 _atom_site_fract_x
 _atom_site_fract_y
 _atom_site_fract_z
 _atom_site_occupancy
  K  K0  1  0.00000000  0.00000000  0.25000000  1
  K  K1  1  0.00000000  0.00000000  0.75000000  1
  Na  Na0  1  0.66666700  0.33333300  0.50000000  1
  Na  Na1  1  0.66666700  0.33333300  0.00000000  1
  Na  Na2  1  0.33333300  0.66666700  0.00000000  1
  Na  Na3  1  0.33333300  0.66666700  0.50000000  1
  Li  Li0  1  0.50000000  0.00000000  0.25000000  1
  Li  Li1  1  0.00000000  0.50000000  0.75000000  1
  Li  Li2  1  0.50000000  0.50000000  0.75000000  1
  Li  Li3  1  0.50000000  0.00000000  0.75000000  1
  Li  Li4  1  0.00000000  0.50000000  0.25000000  1
  Li  Li5  1  0.50000000  0.50000000  0.25000000  1
  Cr  Cr0  1  0.33333300  0.66666700  0.75000000  1
  Cr  Cr1  1  0.66666700  0.33333300  0.75000000  1
  Cr  Cr2  1  0.66666700  0.33333300  0.25000000  1
  Cr  Cr3  1  0.33333300  0.66666700  0.25000000  1
  Si  Si0  1  0.35716600  0.12198800  0.38752200  1
  Si  Si1  1  0.76482200  0.64283400  0.61247800  1
  Si  Si2  1  0.35716600  0.12198800  0.61247800  1
  Si  Si3  1  0.64283400  0.76482200  0.88752200  1
  Si  Si4  1  0.12198800  0.35716600  0.88752200  1
  Si  Si5  1  0.87801200  0.64283400  0.88752200  1
  Si  Si6  1  0.35716600  0.23517800  0.88752200  1
  Si  Si7  1  0.23517800  0.87801200  0.88752200  1
  Si  Si8  1  0.76482200  0.64283400  0.38752200  1
  Si  Si9  1  0.76482200  0.12198800  0.88752200  1
  Si  Si10  1  0.87801200  0.23517800  0.38752200  1
  Si  Si11  1  0.12198800  0.76482200  0.38752200  1
  Si  Si12  1  0.23517800  0.87801200  0.11247800  1
  Si  Si13  1  0.87801200  0.23517800  0.61247800  1
  Si  Si14  1  0.64283400  0.87801200  0.38752200  1
  Si  Si15  1  0.35716600  0.23517800  0.11247800  1
  Si  Si16  1  0.87801200  0.64283400  0.11247800  1
  Si  Si17  1  0.12198800  0.35716600  0.11247800  1
  Si  Si18  1  0.64283400  0.76482200  0.11247800  1
  Si  Si19  1  0.76482200  0.12198800  0.11247800  1
  Si  Si20  1  0.12198800  0.76482200  0.61247800  1
  Si  Si21  1  0.64283400  0.87801200  0.61247800  1
  Si  Si22  1  0.23517800  0.35716600  0.61247800  1
  Si  Si23  1  0.23517800  0.35716600  0.38752200  1
  O  O0  1  0.14161100  0.73988000  0.50000000  1
  O  O1  1  0.49154500  0.65778600  0.82934500  1
  O  O2  1  0.16624100  0.50845500  0.82934500  1
  O  O3  1  0.83375900  0.49154500  0.82934500  1
  O  O4  1  0.34221400  0.50845500  0.67065500  1
  O  O5  1  0.65778600  0.49154500  0.67065500  1
  O  O6  1  0.65778600  0.16624100  0.82934500  1
  O  O7  1  0.83375900  0.34221400  0.67065500  1
  O  O8  1  0.16624100  0.65778600  0.67065500  1
  O  O9  1  0.49154500  0.83375900  0.67065500  1
  O  O10  1  0.50845500  0.34221400  0.82934500  1
  O  O11  1  0.34221400  0.83375900  0.82934500  1
  O  O12  1  0.65778600  0.49154500  0.32934500  1
  O  O13  1  0.50845500  0.16624100  0.32934500  1
  O  O14  1  0.83375900  0.34221400  0.32934500  1
  O  O15  1  0.16624100  0.65778600  0.32934500  1
  O  O16  1  0.34221400  0.83375900  0.17065500  1
  O  O17  1  0.34221400  0.50845500  0.32934500  1
  O  O18  1  0.49154500  0.83375900  0.32934500  1
  O  O19  1  0.50845500  0.34221400  0.17065500  1
  O  O20  1  0.83375900  0.49154500  0.17065500  1
  O  O21  1  0.16624100  0.50845500  0.17065500  1
  O  O22  1  0.49154500  0.65778600  0.17065500  1
  O  O23  1  0.65778600  0.16624100  0.17065500  1
  O  O24  1  0.27641900  0.05282700  0.86444700  1
  O  O25  1  0.72358100  0.77640800  0.63555300  1
  O  O26  1  0.22359200  0.94717300  0.63555300  1
  O  O27  1  0.77640800  0.05282700  0.63555300  1
  O  O28  1  0.94717300  0.22359200  0.86444700  1
  O  O29  1  0.94717300  0.72358100  0.63555300  1
  O  O30  1  0.27641900  0.22359200  0.63555300  1
  O  O31  1  0.72358100  0.94717300  0.86444700  1
  O  O32  1  0.22359200  0.27641900  0.86444700  1
  O  O33  1  0.77640800  0.72358100  0.86444700  1
  O  O34  1  0.73988000  0.14161100  0.00000000  1
  O  O35  1  0.59826900  0.73988000  0.00000000  1
  O  O36  1  0.14161100  0.40173100  0.00000000  1
  O  O37  1  0.85838900  0.59826900  0.00000000  1
  O  O38  1  0.40173100  0.26012000  0.00000000  1
  O  O39  1  0.59826900  0.85838900  0.50000000  1
  O  O40  1  0.26012000  0.40173100  0.50000000  1
  O  O41  1  0.26012000  0.85838900  0.00000000  1
  O  O42  1  0.50845500  0.16624100  0.67065500  1
  O  O43  1  0.85838900  0.26012000  0.50000000  1
  O  O44  1  0.40173100  0.14161100  0.50000000  1
  O  O45  1  0.73988000  0.59826900  0.50000000  1
  O  O46  1  0.94717300  0.22359200  0.13555300  1
  O  O47  1  0.72358100  0.94717300  0.13555300  1
  O  O48  1  0.22359200  0.27641900  0.13555300  1
  O  O49  1  0.77640800  0.72358100  0.13555300  1
  O  O50  1  0.27641900  0.05282700  0.13555300  1
  O  O51  1  0.72358100  0.77640800  0.36444700  1
  O  O52  1  0.05282700  0.27641900  0.36444700  1
  O  O53  1  0.05282700  0.77640800  0.13555300  1
  O  O54  1  0.22359200  0.94717300  0.36444700  1
  O  O55  1  0.77640800  0.05282700  0.36444700  1
  O  O56  1  0.27641900  0.22359200  0.36444700  1
  O  O57  1  0.94717300  0.72358100  0.36444700  1
  O  O58  1  0.05282700  0.77640800  0.86444700  1
  O  O59  1  0.05282700  0.27641900  0.63555300  1
loop_
_geom_bond_atom_site_label_1
_geom_bond_atom_site_label_2
_geom_bond_distance
_geom_bond_site_symmetry_2
K0 O49 3.051764 1_445
K0 O48 3.051764 1_555
K0 O56 3.051764 1_555
K0 O51 3.051764 1_445
K0 O57 3.051764 1_445
K0 O47 3.051764 1_445
K0 O52 3.051764 1_555
K0 O50 3.051764 1_555
K0 O54 3.051764 1_545
K0 O53 3.051764 1_545
K0 O55 3.051764 1_455
K0 O46 3.051764 1_455
K1 O33 3.051764 1_445
K1 O25 3.051764 1_445
K1 O30 3.051764 1_555
K1 O32 3.051764 1_555
K1 O59 3.051764 1_555
K1 O29 3.051764 1_445
K1 O31 3.051764 1_445
K1 O24 3.051764 1_555
K1 O58 3.051764 1_545
K1 O26 3.051764 1_545
K1 O27 3.051764 1_455
K1 O28 3.051764 1_455
Na0 O43 2.404904 1_555
Na0 O44 2.404911 1_555
Na0 O45 2.404913 1_555
Na1 O34 2.404904 1_555
Na1 O37 2.404911 1_555
Na1 O38 2.404913 1_555
Na2 O41 2.404904 1_555
Na2 O36 2.404911 1_555
Na2 O35 2.404913 1_555
Na3 O0 2.404904 1_555
Na3 O39 2.404911 1_555
Na3 O40 2.404913 1_555
Li0 O16 1.996902 1_545
Li0 O23 1.996902 1_555
Li0 O18 1.996902 1_545
Li0 O13 1.996902 1_555
Li1 O7 1.996902 1_455
Li1 O8 1.996902 1_555
Li1 O3 1.996902 1_455
Li1 O2 1.996902 1_555
Li2 O10 1.996902 1_555
Li2 O5 1.996902 1_555
Li2 O4 1.996902 1_555
Li2 O1 1.996902 1_555
Li3 O11 1.996902 1_545
Li3 O6 1.996902 1_555
Li3 O9 1.996902 1_545
Li3 O42 1.996902 1_555
Li4 O15 1.996902 1_555
Li4 O14 1.996902 1_455
Li4 O20 1.996902 1_455
Li4 O21 1.996902 1_555
Li5 O12 1.996902 1_555
Li5 O22 1.996902 1_555
Li5 O19 1.996902 1_555
Li5 O17 1.996902 1_555
Cr0 O8 2.002379 1_555
Cr0 O11 2.002379 1_555
Cr0 O2 2.002382 1_555
Cr0 O9 2.002382 1_555
Cr0 O4 2.002387 1_555
Cr0 O1 2.002387 1_555
Cr1 O6 2.002379 1_555
Cr1 O7 2.002379 1_555
Cr1 O42 2.002382 1_555
Cr1 O3 2.002382 1_555
Cr1 O5 2.002387 1_555
Cr1 O10 2.002387 1_555
Cr2 O14 2.002379 1_555
Cr2 O23 2.002379 1_555
Cr2 O13 2.002382 1_555
Cr2 O20 2.002382 1_555
Cr2 O19 2.002387 1_555
Cr2 O12 2.002387 1_555
Cr3 O15 2.002379 1_555
Cr3 O16 2.002379 1_555
Cr3 O21 2.002382 1_555
Cr3 O18 2.002382 1_555
Cr3 O22 2.002387 1_555
Cr3 O17 2.002387 1_555
O0 Si20 1.650346 1_555
O0 Si11 1.650346 1_555
O1 Si3 1.599043 1_555
O2 Si4 1.599043 1_555
O3 Si5 1.599043 1_555
O4 Si22 1.599043 1_555
O5 Si1 1.599043 1_555
O6 Si9 1.599043 1_555
O7 Si13 1.599043 1_555
O8 Si20 1.599043 1_555
O9 Si21 1.599043 1_555
O10 Si6 1.599043 1_555
O11 Si7 1.599043 1_555
O12 Si8 1.599043 1_555
O13 Si0 1.599043 1_555
O14 Si10 1.599043 1_555
O15 Si11 1.599043 1_555
O16 Si12 1.599043 1_555
O17 Si23 1.599043 1_555
O18 Si14 1.599043 1_555
O19 Si15 1.599043 1_555
O20 Si16 1.599043 1_555
O21 Si17 1.599043 1_555
O22 Si18 1.599043 1_555
O23 Si19 1.599043 1_555
O24 Si6 1.639487 1_555
O24 Si7 1.639609 1_545
O25 Si21 1.639487 1_555
O25 Si1 1.639609 1_555
O26 Si20 1.639487 1_555
O26 Si2 1.639609 1_565
O27 Si13 1.639487 1_555
O27 Si21 1.639609 1_545
O28 Si9 1.639487 1_555
O28 Si4 1.639609 1_655
O29 Si1 1.639487 1_555
O29 Si20 1.639609 1_655
O30 Si2 1.639487 1_555
O30 Si22 1.639609 1_555
O31 Si3 1.639487 1_555
O31 Si9 1.639609 1_565
O32 Si4 1.639487 1_555
O32 Si6 1.639609 1_555
O33 Si5 1.639487 1_555
O33 Si3 1.639609 1_555
O34 Si9 1.650346 1_554
O34 Si19 1.650346 1_555
O35 Si3 1.650346 1_554
O35 Si18 1.650346 1_555
O36 Si4 1.650346 1_554
O36 Si17 1.650346 1_555
O37 Si5 1.650346 1_554
O37 Si16 1.650346 1_555
O38 Si6 1.650346 1_554
O38 Si15 1.650346 1_555
O39 Si21 1.650346 1_555
O39 Si14 1.650346 1_555
O40 Si22 1.650346 1_555
O40 Si23 1.650346 1_555
O41 Si7 1.650346 1_554
O41 Si12 1.650346 1_555
O42 Si2 1.599043 1_555
O43 Si13 1.650346 1_555
O43 Si10 1.650346 1_555
O44 Si2 1.650346 1_555
O44 Si0 1.650346 1_555
O45 Si1 1.650346 1_555
O45 Si8 1.650346 1_555
O46 Si19 1.639487 1_555
O46 Si17 1.639609 1_655
O47 Si18 1.639487 1_555
O47 Si19 1.639609 1_565
O48 Si17 1.639487 1_555
O48 Si15 1.639609 1_555
O49 Si16 1.639487 1_555
O49 Si18 1.639609 1_555
O50 Si15 1.639487 1_555
O50 Si12 1.639609 1_545
O51 Si14 1.639487 1_555
O51 Si8 1.639609 1_555
O52 Si23 1.639487 1_555
O52 Si10 1.639609 1_455
O53 Si12 1.639487 1_555
O53 Si16 1.639609 1_455
O54 Si11 1.639487 1_555
O54 Si0 1.639609 1_565
O55 Si10 1.639487 1_555
O55 Si14 1.639609 1_545
O56 Si0 1.639487 1_555
O56 Si23 1.639609 1_555
O57 Si8 1.639487 1_555
O57 Si11 1.639609 1_655
O58 Si7 1.639487 1_555
O58 Si5 1.639609 1_455
O59 Si22 1.639487 1_555
O59 Si13 1.639609 1_455
