# generated using pymatgen
data_Be13W
_symmetry_space_group_name_H-M   'P 1'
_cell_length_a   9.74209155
_cell_length_b   9.74209155
_cell_length_c   9.74209155
_cell_angle_alpha   60.00000000
_cell_angle_beta   60.00000000
_cell_angle_gamma   60.00000000
_symmetry_Int_Tables_number   1
_chemical_formula_structural   Be13W
_chemical_formula_sum   'Be52 W4'
_cell_volume   653.79504076
_cell_formula_units_Z   4
loop_
 _symmetry_equiv_pos_site_id
 _symmetry_equiv_pos_as_xyz
  1  'x, y, z'
loop_
 _atom_site_type_symbol
 _atom_site_label
 _atom_site_symmetry_multiplicity
 _atom_site_fract_x
 _atom_site_fract_y
 _atom_site_fract_z
 _atom_site_occupancy
  Be  Be0  1  0.96866400  0.32388400  0.73878800  1
  Be  Be1  1  0.32388400  0.96866400  0.96866400  1
  Be  Be2  1  0.73878800  0.96866400  0.96866400  1
  Be  Be3  1  0.73878800  0.96866400  0.32388400  1
  Be  Be4  1  0.28133600  0.92611600  0.28133600  1
  Be  Be5  1  0.28133600  0.92611600  0.51121200  1
  Be  Be6  1  0.96866400  0.73878800  0.32388400  1
  Be  Be7  1  0.96866400  0.32388400  0.96866400  1
  Be  Be8  1  0.92611600  0.28133600  0.51121200  1
  Be  Be9  1  0.92611600  0.28133600  0.28133600  1
  Be  Be10  1  0.96866400  0.73878800  0.96866400  1
  Be  Be11  1  0.51121200  0.28133600  0.92611600  1
  Be  Be12  1  0.51121200  0.28133600  0.28133600  1
  Be  Be13  1  0.32388400  0.96866400  0.73878800  1
  Be  Be14  1  0.28133600  0.51121200  0.28133600  1
  Be  Be15  1  0.28133600  0.51121200  0.92611600  1
  Be  Be16  1  0.32388400  0.73878800  0.96866400  1
  Be  Be17  1  0.96866400  0.96866400  0.73878800  1
  Be  Be18  1  0.73878800  0.32388400  0.96866400  1
  Be  Be19  1  0.96866400  0.96866400  0.32388400  1
  Be  Be20  1  0.28133600  0.28133600  0.92611600  1
  Be  Be21  1  0.51121200  0.92611600  0.28133600  1
  Be  Be22  1  0.28133600  0.28133600  0.51121200  1
  Be  Be23  1  0.92611600  0.51121200  0.28133600  1
  Be  Be24  1  0.50000000  0.50000000  0.50000000  1
  Be  Be25  1  0.75000000  0.75000000  0.75000000  1
  Be  Be26  1  0.00000000  0.00000000  0.00000000  1
  Be  Be27  1  0.25000000  0.25000000  0.25000000  1
  Be  Be28  1  0.72400200  0.50949000  0.50949000  1
  Be  Be29  1  0.50949000  0.72400200  0.25701900  1
  Be  Be30  1  0.50949000  0.25701900  0.72400200  1
  Be  Be31  1  0.50949000  0.72400200  0.50949000  1
  Be  Be32  1  0.52599800  0.74051000  0.99298100  1
  Be  Be33  1  0.52599800  0.74051000  0.74051000  1
  Be  Be34  1  0.25701900  0.50949000  0.50949000  1
  Be  Be35  1  0.25701900  0.50949000  0.72400200  1
  Be  Be36  1  0.74051000  0.52599800  0.74051000  1
  Be  Be37  1  0.74051000  0.52599800  0.99298100  1
  Be  Be38  1  0.72400200  0.50949000  0.25701900  1
  Be  Be39  1  0.74051000  0.99298100  0.74051000  1
  Be  Be40  1  0.74051000  0.99298100  0.52599800  1
  Be  Be41  1  0.50949000  0.25701900  0.50949000  1
  Be  Be42  1  0.99298100  0.74051000  0.52599800  1
  Be  Be43  1  0.99298100  0.74051000  0.74051000  1
  Be  Be44  1  0.50949000  0.50949000  0.72400200  1
  Be  Be45  1  0.25701900  0.72400200  0.50949000  1
  Be  Be46  1  0.50949000  0.50949000  0.25701900  1
  Be  Be47  1  0.72400200  0.25701900  0.50949000  1
  Be  Be48  1  0.99298100  0.52599800  0.74051000  1
  Be  Be49  1  0.74051000  0.74051000  0.52599800  1
  Be  Be50  1  0.52599800  0.99298100  0.74051000  1
  Be  Be51  1  0.74051000  0.74051000  0.99298100  1
  W  W0  1  0.12500000  0.12500000  0.12500000  1
  W  W1  1  0.12500000  0.12500000  0.62500000  1
  W  W2  1  0.12500000  0.62500000  0.12500000  1
  W  W3  1  0.62500000  0.12500000  0.12500000  1
loop_
_geom_bond_atom_site_label_1
_geom_bond_atom_site_label_2
_geom_bond_distance
_geom_bond_site_symmetry_2
Be0 Be48 2.106390 1_555
Be0 Be36 2.106395 1_555
Be0 W1 2.193425 1_655
Be1 Be50 2.106395 1_555
Be1 Be32 2.106395 1_555
Be1 W0 2.193425 1_566
Be2 Be39 2.106399 1_555
Be2 Be51 2.106399 1_555
Be2 W3 2.193425 1_566
Be3 Be40 2.106390 1_555
Be3 Be49 2.106395 1_555
Be3 W3 2.193425 1_565
Be4 Be45 2.106395 1_555
Be4 W0 2.193425 1_565
Be5 W1 2.193425 1_565
Be6 W2 2.193425 1_655
Be7 W0 2.193425 1_656
Be8 W1 2.193425 1_655
Be9 W0 2.193425 1_655
Be10 Be43 2.106399 1_555
Be10 Be51 2.106399 1_555
Be10 W2 2.193425 1_656
Be11 Be30 2.106390 1_555
Be11 Be44 2.106395 1_555
Be11 W3 2.193425 1_556
Be12 Be46 2.106399 1_555
Be12 Be41 2.106399 1_555
Be12 W3 2.193425 1_555
Be13 Be50 2.106390 1_555
Be13 Be33 2.106395 1_555
Be13 W1 2.193425 1_565
Be14 Be46 2.106399 1_555
Be14 Be34 2.106399 1_555
Be14 W2 2.193425 1_555
Be15 Be35 2.106390 1_555
Be15 Be44 2.106395 1_555
Be15 W2 2.193425 1_556
Be16 Be32 2.106390 1_555
Be16 Be33 2.106395 1_555
Be16 W2 2.193425 1_556
Be17 Be43 2.106399 1_555
Be17 Be39 2.106399 1_555
Be17 W1 2.193425 1_665
Be18 Be37 2.106390 1_555
Be18 Be36 2.106395 1_555
Be18 W3 2.193425 1_556
Be19 Be42 2.106395 1_555
Be19 Be40 2.106395 1_555
Be19 W0 2.193425 1_665
Be20 Be30 2.106395 1_555
Be20 Be35 2.106395 1_555
Be20 W0 2.193425 1_556
Be21 Be29 2.106390 1_555
Be21 Be31 2.106395 1_555
Be21 W3 2.193425 1_565
Be22 Be41 2.106399 1_555
Be22 Be34 2.106399 1_555
Be22 W1 2.193425 1_555
Be23 Be38 2.106390 1_555
Be23 Be28 2.106395 1_555
Be23 W2 2.193425 1_655
Be24 Be41 2.278445 1_555
Be24 Be34 2.278445 1_555
Be24 Be46 2.278445 1_555
Be24 Be29 2.278450 1_555
Be24 Be30 2.278450 1_555
Be24 Be35 2.278450 1_555
Be24 Be38 2.278450 1_555
Be24 Be45 2.278450 1_555
Be24 Be47 2.278450 1_555
Be24 Be28 2.278455 1_555
Be24 Be44 2.278455 1_555
Be24 Be31 2.278455 1_555
Be25 Be39 2.278445 1_555
Be25 Be51 2.278445 1_555
Be25 Be43 2.278445 1_555
Be25 Be42 2.278450 1_555
Be25 Be37 2.278450 1_555
Be25 Be40 2.278450 1_555
Be25 Be32 2.278450 1_555
Be25 Be50 2.278450 1_555
Be25 Be48 2.278450 1_555
Be25 Be36 2.278455 1_555
Be25 Be33 2.278455 1_555
Be25 Be49 2.278455 1_555
Be26 W1 2.982894 1_554
Be26 W2 2.982894 1_545
Be26 W0 2.982894 1_555
Be26 W3 2.982894 1_455
Be27 W1 2.982894 1_555
Be27 W2 2.982894 1_555
Be27 W0 2.982894 1_555
Be27 W3 2.982894 1_555
Be28 Be31 2.089796 1_555
Be28 Be44 2.089796 1_555
Be28 Be8 2.106395 1_555
Be28 Be36 2.422142 1_555
Be28 Be49 2.422142 1_555
Be28 Be47 2.459596 1_555
Be28 Be38 2.459596 1_555
Be29 Be38 2.089796 1_555
Be29 Be46 2.089796 1_555
Be29 Be4 2.106395 1_555
Be29 Be51 2.422153 1_554
Be29 Be32 2.422162 1_554
Be29 Be45 2.459596 1_555
Be29 Be31 2.459596 1_555
Be30 Be41 2.089796 1_555
Be30 Be47 2.089796 1_555
Be30 Be39 2.422153 1_545
Be30 Be50 2.422162 1_545
Be30 Be35 2.459596 1_555
Be30 Be44 2.459596 1_555
Be31 Be44 2.089796 1_555
Be31 Be5 2.106395 1_555
Be31 Be33 2.422142 1_555
Be31 Be49 2.422142 1_555
Be31 Be45 2.459596 1_555
Be32 Be51 2.089796 1_555
Be32 Be37 2.089796 1_555
Be32 Be46 2.422153 1_556
Be32 Be33 2.459596 1_555
Be32 Be50 2.459596 1_555
Be33 Be36 2.089796 1_555
Be33 Be49 2.089796 1_555
Be33 Be44 2.422142 1_555
Be33 Be50 2.459596 1_555
Be34 Be35 2.089796 1_555
Be34 Be45 2.089796 1_555
Be34 Be42 2.422153 1_455
Be34 Be48 2.422153 1_455
Be34 Be41 2.459596 1_555
Be34 Be46 2.459596 1_555
Be35 Be45 2.089796 1_555
Be35 Be43 2.422153 1_455
Be35 Be48 2.422162 1_455
Be35 Be44 2.459596 1_555
Be36 Be49 2.089796 1_555
Be36 Be44 2.422142 1_555
Be36 Be48 2.459596 1_555
Be36 Be37 2.459596 1_555
Be37 Be51 2.089796 1_555
Be37 Be7 2.106395 1_555
Be37 Be46 2.422153 1_556
Be37 Be38 2.422162 1_556
Be37 Be48 2.459596 1_555
Be38 Be46 2.089796 1_555
Be38 Be9 2.106395 1_555
Be38 Be51 2.422153 1_554
Be38 Be47 2.459596 1_555
Be39 Be50 2.089796 1_555
Be39 Be40 2.089796 1_555
Be39 Be47 2.422153 1_565
Be39 Be51 2.459596 1_555
Be39 Be43 2.459596 1_555
Be40 Be50 2.089796 1_555
Be40 Be41 2.422153 1_565
Be40 Be47 2.422162 1_565
Be40 Be42 2.459596 1_555
Be40 Be49 2.459596 1_555
Be41 Be47 2.089796 1_555
Be41 Be50 2.422153 1_545
Be41 Be46 2.459596 1_555
Be42 Be48 2.089796 1_555
Be42 Be43 2.089796 1_555
Be42 Be6 2.106390 1_555
Be42 Be45 2.422162 1_655
Be42 Be49 2.459596 1_555
Be43 Be48 2.089796 1_555
Be43 Be45 2.422153 1_655
Be43 Be51 2.459596 1_555
Be45 Be5 2.106390 1_555
Be47 Be8 2.106390 1_555
Be47 Be9 2.106395 1_555
Be48 Be7 2.106395 1_555
Be49 Be6 2.106395 1_555
