# generated using pymatgen
data_BaNd2ZnS5
_symmetry_space_group_name_H-M   'P 1'
_cell_length_a   8.85355673
_cell_length_b   8.85355673
_cell_length_c   8.85355673
_cell_angle_alpha   126.89762097
_cell_angle_beta   126.89762097
_cell_angle_gamma   78.41777353
_symmetry_Int_Tables_number   1
_chemical_formula_structural   BaNd2ZnS5
_chemical_formula_sum   'Ba2 Nd4 Zn2 S10'
_cell_volume   429.77243053
_cell_formula_units_Z   2
loop_
 _symmetry_equiv_pos_site_id
 _symmetry_equiv_pos_as_xyz
  1  'x, y, z'
loop_
 _atom_site_type_symbol
 _atom_site_label
 _atom_site_symmetry_multiplicity
 _atom_site_fract_x
 _atom_site_fract_y
 _atom_site_fract_z
 _atom_site_occupancy
  Ba  Ba0  1  0.75000000  0.75000000  0.00000000  1
  Ba  Ba1  1  0.25000000  0.25000000  0.00000000  1
  Nd  Nd0  1  0.83791700  0.66208300  0.50000000  1
  Nd  Nd1  1  0.66208300  0.16208300  0.82416600  1
  Nd  Nd2  1  0.33791700  0.83791700  0.17583400  1
  Nd  Nd3  1  0.16208300  0.33791700  0.50000000  1
  Zn  Zn0  1  0.25000000  0.75000000  0.50000000  1
  Zn  Zn1  1  0.75000000  0.25000000  0.50000000  1
  S  S0  1  0.98468700  0.48468700  0.20267900  1
  S  S1  1  0.71799200  0.21799200  0.20267900  1
  S  S2  1  0.01531300  0.51531300  0.79732100  1
  S  S3  1  0.51531300  0.71799200  0.50000000  1
  S  S4  1  0.21799200  0.01531300  0.50000000  1
  S  S5  1  0.48468700  0.28200800  0.50000000  1
  S  S6  1  0.78200800  0.98468700  0.50000000  1
  S  S7  1  0.28200800  0.78200800  0.79732100  1
  S  S8  1  0.00000000  0.00000000  0.00000000  1
  S  S9  1  0.50000000  0.50000000  0.00000000  1
loop_
_geom_bond_atom_site_label_1
_geom_bond_atom_site_label_2
_geom_bond_distance
_geom_bond_site_symmetry_2
Ba0 S3 3.417503 1_554
Ba0 S2 3.417503 1_654
Ba0 S1 3.417503 1_565
Ba0 S4 3.417503 1_665
Ba0 S6 3.417503 1_555
Ba0 S0 3.417503 1_555
Ba0 S7 3.417503 1_554
Ba0 S5 3.417503 1_554
Ba0 S8 3.430074 1_665
Ba0 S9 3.430074 1_555
Ba1 S3 3.417503 1_555
Ba1 S6 3.417503 1_444
Ba1 S7 3.417503 1_544
Ba1 S1 3.417503 1_555
Ba1 S5 3.417503 1_555
Ba1 S0 3.417503 1_455
Ba1 S4 3.417503 1_554
Ba1 S2 3.417503 1_554
Ba1 S8 3.430074 1_555
Ba1 S9 3.430074 1_555
Nd0 S6 2.799134 1_555
Nd0 S3 2.799134 1_555
Nd0 S9 2.966382 1_555
Nd0 S8 2.966382 1_666
Nd0 S0 3.067240 1_555
Nd0 S2 3.067240 1_655
Nd0 S7 3.067240 1_655
Nd0 S1 3.067240 1_555
Nd1 S0 2.799134 1_556
Nd1 S1 2.799134 1_556
Nd1 S9 2.966382 1_556
Nd1 S8 2.966382 1_656
Nd1 S5 3.067240 1_555
Nd1 S4 3.067240 1_555
Nd1 S3 3.067240 1_545
Nd1 S6 3.067240 1_545
Nd2 S7 2.799134 1_554
Nd2 S2 2.799134 1_554
Nd2 S8 2.966382 1_565
Nd2 S9 2.966382 1_555
Nd2 S5 3.067240 1_565
Nd2 S6 3.067240 1_555
Nd2 S4 3.067240 1_565
Nd2 S3 3.067240 1_555
Nd3 S4 2.799134 1_555
Nd3 S5 2.799134 1_555
Nd3 S8 2.966382 1_555
Nd3 S9 2.966382 1_556
Nd3 S0 3.067240 1_455
Nd3 S1 3.067240 1_455
Nd3 S2 3.067240 1_555
Nd3 S7 3.067240 1_555
S0 Zn0 2.308818 1_655
S1 Zn1 2.308818 1_555
S2 Zn1 2.308818 1_455
S3 Zn0 2.308818 1_555
S4 Zn0 2.308818 1_545
S5 Zn1 2.308818 1_555
S6 Zn1 2.308818 1_565
S7 Zn0 2.308818 1_555
