# generated using pymatgen
data_Tb5Sn4
_symmetry_space_group_name_H-M   'P 1'
_cell_length_a   8.09576173
_cell_length_b   8.17292485
_cell_length_c   15.50398657
_cell_angle_alpha   90.00000000
_cell_angle_beta   90.00000000
_cell_angle_gamma   90.00000000
_symmetry_Int_Tables_number   1
_chemical_formula_structural   Tb5Sn4
_chemical_formula_sum   'Tb20 Sn16'
_cell_volume   1025.83758505
_cell_formula_units_Z   4
loop_
 _symmetry_equiv_pos_site_id
 _symmetry_equiv_pos_as_xyz
  1  'x, y, z'
loop_
 _atom_site_type_symbol
 _atom_site_label
 _atom_site_symmetry_multiplicity
 _atom_site_fract_x
 _atom_site_fract_y
 _atom_site_fract_z
 _atom_site_occupancy
  Tb  Tb0  1  0.37959672  0.83997716  0.88051846  1
  Tb  Tb1  1  0.87959672  0.66002284  0.61948154  1
  Tb  Tb2  1  0.62040328  0.16002284  0.38051846  1
  Tb  Tb3  1  0.12040328  0.33997716  0.11948154  1
  Tb  Tb4  1  0.62040328  0.16002284  0.11948154  1
  Tb  Tb5  1  0.12040328  0.33997716  0.38051846  1
  Tb  Tb6  1  0.37959672  0.83997716  0.61948154  1
  Tb  Tb7  1  0.87959672  0.66002284  0.88051846  1
  Tb  Tb8  1  0.53380707  0.32298053  0.89918499  1
  Tb  Tb9  1  0.03380707  0.17701947  0.60081501  1
  Tb  Tb10  1  0.46619293  0.67701947  0.39918499  1
  Tb  Tb11  1  0.96619293  0.82298053  0.10081501  1
  Tb  Tb12  1  0.46619293  0.67701947  0.10081501  1
  Tb  Tb13  1  0.96619293  0.82298053  0.39918499  1
  Tb  Tb14  1  0.53380707  0.32298053  0.60081501  1
  Tb  Tb15  1  0.03380707  0.17701947  0.89918499  1
  Tb  Tb16  1  0.21233204  0.50329566  0.75000000  1
  Tb  Tb17  1  0.71233204  0.99670434  0.75000000  1
  Tb  Tb18  1  0.78766796  0.49670434  0.25000000  1
  Tb  Tb19  1  0.28766796  0.00329566  0.25000000  1
  Sn  Sn0  1  0.28037937  0.03189798  0.04342268  1
  Sn  Sn1  1  0.78037937  0.46810202  0.45657732  1
  Sn  Sn2  1  0.71962063  0.96810202  0.54342268  1
  Sn  Sn3  1  0.21962063  0.53189798  0.95657732  1
  Sn  Sn4  1  0.71962063  0.96810202  0.95657732  1
  Sn  Sn5  1  0.21962063  0.53189798  0.54342268  1
  Sn  Sn6  1  0.28037937  0.03189798  0.45657732  1
  Sn  Sn7  1  0.78037937  0.46810202  0.04342268  1
  Sn  Sn8  1  0.57792157  0.62090951  0.75000000  1
  Sn  Sn9  1  0.07792157  0.87909049  0.75000000  1
  Sn  Sn10  1  0.42207843  0.37909049  0.25000000  1
  Sn  Sn11  1  0.92207843  0.12090951  0.25000000  1
  Sn  Sn12  1  0.34139563  0.14437660  0.75000000  1
  Sn  Sn13  1  0.84139563  0.35562340  0.75000000  1
  Sn  Sn14  1  0.65860437  0.85562340  0.25000000  1
  Sn  Sn15  1  0.15860437  0.64437660  0.25000000  1
loop_
_geom_bond_atom_site_label_1
_geom_bond_atom_site_label_2
_geom_bond_distance
_geom_bond_site_symmetry_2
Sn0 Tb3 3.067208 1_555
Sn0 Tb0 3.079698 1_544
Sn0 Tb4 3.172496 1_555
Sn0 Tb11 3.190140 1_445
Sn0 Tb19 3.211834 1_555
Sn0 Tb15 3.223723 1_554
Sn0 Tb12 3.386293 1_545
Sn0 Tb8 3.856152 1_554
Sn1 Tb2 3.067208 1_555
Sn1 Tb1 3.079698 1_555
Sn1 Tb5 3.172496 1_655
Sn1 Tb10 3.190140 1_555
Sn1 Tb18 3.211834 1_555
Sn1 Tb14 3.223723 1_555
Sn1 Tb13 3.386293 1_555
Sn1 Tb9 3.856152 1_655
Sn2 Tb1 3.067208 1_555
Sn2 Tb2 3.079698 1_565
Sn2 Tb6 3.172496 1_555
Sn2 Tb9 3.190140 1_665
Sn2 Tb17 3.211834 1_555
Sn2 Tb13 3.223723 1_555
Sn2 Tb14 3.386293 1_565
Sn2 Tb10 3.856152 1_555
Sn3 Tb0 3.067208 1_555
Sn3 Tb3 3.079698 1_556
Sn3 Tb7 3.172496 1_455
Sn3 Tb8 3.190140 1_555
Sn3 Tb16 3.211834 1_555
Sn3 Tb12 3.223723 1_556
Sn3 Tb15 3.386293 1_555
Sn3 Tb11 3.856152 1_456
Sn4 Tb7 3.067208 1_555
Sn4 Tb4 3.079698 1_566
Sn4 Tb0 3.172496 1_555
Sn4 Tb15 3.190140 1_665
Sn4 Tb17 3.211834 1_555
Sn4 Tb11 3.223723 1_556
Sn4 Tb8 3.386293 1_565
Sn4 Tb12 3.856152 1_556
Sn5 Tb6 3.067208 1_555
Sn5 Tb5 3.079698 1_555
Sn5 Tb1 3.172496 1_455
Sn5 Tb14 3.190140 1_555
Sn5 Tb16 3.211834 1_555
Sn5 Tb10 3.223723 1_555
Sn5 Tb9 3.386293 1_555
Sn5 Tb13 3.856152 1_455
Sn6 Tb5 3.067208 1_555
Sn6 Tb6 3.079698 1_545
Sn6 Tb2 3.172496 1_555
Sn6 Tb13 3.190140 1_445
Sn6 Tb19 3.211834 1_555
Sn6 Tb9 3.223723 1_555
Sn6 Tb10 3.386293 1_545
Sn6 Tb14 3.856152 1_555
Sn7 Tb4 3.067208 1_555
Sn7 Tb7 3.079698 1_554
Sn7 Tb3 3.172496 1_655
Sn7 Tb12 3.190140 1_555
Sn7 Tb18 3.211834 1_555
Sn7 Tb8 3.223723 1_554
Sn7 Tb11 3.386293 1_555
Sn7 Tb15 3.856152 1_654
Sn8 Tb16 3.111909 1_555
Sn8 Tb0 3.142979 1_555
Sn8 Tb6 3.142979 1_555
Sn8 Tb7 3.187750 1_555
Sn8 Tb1 3.187750 1_555
Sn8 Tb17 3.258409 1_555
Sn8 Tb14 3.377326 1_555
Sn8 Tb8 3.377326 1_555
Sn9 Tb17 3.111909 1_455
Sn9 Tb1 3.142979 1_455
Sn9 Tb7 3.142979 1_455
Sn9 Tb6 3.187750 1_555
Sn9 Tb0 3.187750 1_555
Sn9 Tb16 3.258409 1_555
Sn9 Tb9 3.377326 1_565
Sn9 Tb15 3.377326 1_565
Sn10 Sn15 3.041500 1_555
Sn10 Tb18 3.111909 1_555
Sn10 Tb2 3.142979 1_555
Sn10 Tb4 3.142979 1_555
Sn10 Tb3 3.187750 1_555
Sn10 Tb5 3.187750 1_555
Sn10 Tb19 3.258409 1_555
Sn10 Tb12 3.377326 1_555
Sn10 Tb10 3.377326 1_555
Sn11 Sn14 3.041500 1_545
Sn11 Tb19 3.111909 1_655
Sn11 Tb3 3.142979 1_655
Sn11 Tb5 3.142979 1_655
Sn11 Tb4 3.187750 1_555
Sn11 Tb2 3.187750 1_555
Sn11 Tb18 3.258409 1_555
Sn11 Tb13 3.377326 1_545
Sn11 Tb11 3.377326 1_545
Sn12 Sn9 3.041500 1_545
Sn12 Tb16 3.113951 1_555
Sn12 Tb14 3.147546 1_555
Sn12 Tb8 3.147546 1_555
Sn12 Tb6 3.221761 1_545
Sn12 Tb0 3.221761 1_545
Sn12 Tb17 3.236468 1_545
Sn12 Tb9 3.409089 1_555
Sn12 Tb15 3.409089 1_555
Sn13 Sn8 3.041500 1_555
Sn13 Tb17 3.113951 1_545
Sn13 Tb9 3.147546 1_655
Sn13 Tb15 3.147546 1_655
Sn13 Tb1 3.221761 1_555
Sn13 Tb7 3.221761 1_555
Sn13 Tb16 3.236468 1_655
Sn13 Tb14 3.409089 1_555
Sn13 Tb8 3.409089 1_555
Sn14 Tb18 3.113951 1_555
Sn14 Tb12 3.147546 1_555
Sn14 Tb10 3.147546 1_555
Sn14 Tb2 3.221761 1_565
Sn14 Tb4 3.221761 1_565
Sn14 Tb19 3.236468 1_565
Sn14 Tb13 3.409089 1_555
Sn14 Tb11 3.409089 1_555
Sn15 Tb19 3.113951 1_565
Sn15 Tb11 3.147546 1_455
Sn15 Tb13 3.147546 1_455
Sn15 Tb5 3.221761 1_555
Sn15 Tb3 3.221761 1_555
Sn15 Tb18 3.236468 1_455
Sn15 Tb12 3.409089 1_555
Sn15 Tb10 3.409089 1_555
