# generated using pymatgen
data_RbMg6W
_symmetry_space_group_name_H-M   'P 1'
_cell_length_a   6.44066704
_cell_length_b   6.44066704
_cell_length_c   5.11784200
_cell_angle_alpha   90.00000000
_cell_angle_beta   90.00000000
_cell_angle_gamma   119.99999017
_symmetry_Int_Tables_number   1
_chemical_formula_structural   RbMg6W
_chemical_formula_sum   'Rb1 Mg6 W1'
_cell_volume   183.85660890
_cell_formula_units_Z   1
loop_
 _symmetry_equiv_pos_site_id
 _symmetry_equiv_pos_as_xyz
  1  'x, y, z'
loop_
 _atom_site_type_symbol
 _atom_site_label
 _atom_site_symmetry_multiplicity
 _atom_site_fract_x
 _atom_site_fract_y
 _atom_site_fract_z
 _atom_site_occupancy
  Rb  Rb0  1  0.33333300  0.66666700  0.50000000  1
  Mg  Mg0  1  0.81468700  0.62937300  0.50000000  1
  Mg  Mg1  1  0.37062700  0.18531300  0.50000000  1
  Mg  Mg2  1  0.81468700  0.18531300  0.50000000  1
  Mg  Mg3  1  0.15681200  0.31362400  0.00000000  1
  Mg  Mg4  1  0.68637600  0.84318800  0.00000000  1
  Mg  Mg5  1  0.15681200  0.84318800  0.00000000  1
  W  W0  1  0.66666700  0.33333300  0.00000000  1
loop_
_geom_bond_atom_site_label_1
_geom_bond_atom_site_label_2
_geom_bond_distance
_geom_bond_site_symmetry_2
Mg0 Mg2 2.860043 1_555
Mg0 Mg1 2.860043 1_555
Mg0 W0 3.045438 1_556
Mg0 W0 3.045438 1_555
Mg0 Mg5 3.203982 1_656
Mg0 Mg5 3.203982 1_655
Mg0 Mg4 3.203985 1_556
Mg0 Mg4 3.203985 1_555
Mg0 Rb0 3.227039 1_655
Mg0 Rb0 3.227051 1_555
Mg1 Mg2 2.860043 1_555
Mg1 W0 3.045438 1_556
Mg1 W0 3.045438 1_555
Mg1 Mg5 3.203982 1_545
Mg1 Mg5 3.203982 1_546
Mg1 Mg3 3.203985 1_555
Mg1 Mg3 3.203985 1_556
Mg1 Rb0 3.227039 1_545
Mg1 Rb0 3.227051 1_555
Mg2 W0 3.045438 1_556
Mg2 W0 3.045438 1_555
Mg2 Mg3 3.203981 1_655
Mg2 Mg3 3.203981 1_656
Mg2 Mg4 3.203981 1_545
Mg2 Mg4 3.203981 1_546
Mg2 Rb0 3.227045 1_545
Mg2 Rb0 3.227045 1_655
Mg3 Mg5 3.029922 1_545
Mg3 Mg4 3.029922 1_445
Mg3 W0 3.222206 1_455
Mg3 W0 3.222213 1_555
Mg3 Rb0 3.228903 1_554
Mg3 Rb0 3.228903 1_555
Mg3 Mg5 3.410745 1_555
Mg3 Mg4 3.410746 1_555
Mg4 Mg5 3.029922 1_655
Mg4 W0 3.222206 1_565
Mg4 W0 3.222213 1_555
Mg4 Rb0 3.228903 1_555
Mg4 Rb0 3.228903 1_554
Mg4 Mg5 3.410745 1_555
Mg5 W0 3.222210 1_455
Mg5 W0 3.222210 1_565
Mg5 Rb0 3.228899 1_555
Mg5 Rb0 3.228899 1_554
