# generated using pymatgen
data_Sr6Ca2Mn3Fe5O24
_symmetry_space_group_name_H-M   'P 1'
_cell_length_a   7.76935400
_cell_length_b   7.77420800
_cell_length_c   7.79409506
_cell_angle_alpha   89.99303843
_cell_angle_beta   90.00000000
_cell_angle_gamma   90.00000000
_symmetry_Int_Tables_number   1
_chemical_formula_structural   Sr6Ca2Mn3Fe5O24
_chemical_formula_sum   'Sr6 Ca2 Mn3 Fe5 O24'
_cell_volume   470.76781198
_cell_formula_units_Z   1
loop_
 _symmetry_equiv_pos_site_id
 _symmetry_equiv_pos_as_xyz
  1  'x, y, z'
loop_
 _atom_site_type_symbol
 _atom_site_label
 _atom_site_symmetry_multiplicity
 _atom_site_fract_x
 _atom_site_fract_y
 _atom_site_fract_z
 _atom_site_occupancy
  Sr  Sr0  1  0.74965200  0.74970000  0.25099500  1
  Sr  Sr1  1  0.74970200  0.74969800  0.74896000  1
  Sr  Sr2  1  0.25033800  0.74968800  0.74894300  1
  Sr  Sr3  1  0.74970200  0.25030200  0.25104000  1
  Sr  Sr4  1  0.74965200  0.25030000  0.74900500  1
  Sr  Sr5  1  0.25033800  0.25031200  0.25105700  1
  Ca  Ca0  1  0.25054000  0.74956700  0.25149000  1
  Ca  Ca1  1  0.25054000  0.25043300  0.74851000  1
  Mn  Mn0  1  0.49873800  0.00000000  0.50000000  1
  Mn  Mn1  1  0.00135100  0.50000000  0.50000000  1
  Mn  Mn2  1  0.49902500  0.50000000  0.50000000  1
  Fe  Fe0  1  0.00144100  0.00000000  0.00000000  1
  Fe  Fe1  1  0.00139000  0.00000000  0.50000000  1
  Fe  Fe2  1  0.49866800  0.00000000  0.00000000  1
  Fe  Fe3  1  0.00128000  0.50000000  0.00000000  1
  Fe  Fe4  1  0.49866400  0.50000000  0.00000000  1
  O  O0  1  0.00294500  0.75106400  0.00170300  1
  O  O1  1  0.00306900  0.74650400  0.49815900  1
  O  O2  1  0.49703400  0.74974700  0.00174300  1
  O  O3  1  0.49662600  0.74951500  0.49767300  1
  O  O4  1  0.00294500  0.24893600  0.99829700  1
  O  O5  1  0.00306900  0.25349600  0.50184100  1
  O  O6  1  0.49703400  0.25025300  0.99825700  1
  O  O7  1  0.49662600  0.25048500  0.50232700  1
  O  O8  1  0.75108200  0.00000000  0.00000000  1
  O  O9  1  0.74654200  0.00000000  0.50000000  1
  O  O10  1  0.24899100  0.00000000  0.00000000  1
  O  O11  1  0.25356000  0.00000000  0.50000000  1
  O  O12  1  0.74968800  0.50000000  0.00000000  1
  O  O13  1  0.74949200  0.50000000  0.50000000  1
  O  O14  1  0.25024900  0.50000000  0.00000000  1
  O  O15  1  0.25053400  0.50000000  0.50000000  1
  O  O16  1  0.00306400  0.99818200  0.24811400  1
  O  O17  1  0.00306400  0.00181800  0.75188600  1
  O  O18  1  0.49675600  0.99808500  0.25307300  1
  O  O19  1  0.49675600  0.00191500  0.74692700  1
  O  O20  1  0.00317600  0.50193500  0.25307700  1
  O  O21  1  0.00317600  0.49806500  0.74692300  1
  O  O22  1  0.49674900  0.50196100  0.25309100  1
  O  O23  1  0.49674900  0.49803900  0.74690900  1
loop_
_geom_bond_atom_site_label_1
_geom_bond_atom_site_label_2
_geom_bond_distance
_geom_bond_site_symmetry_2
Ca0 O3 2.708720 1_555
Ca0 O22 2.713793 1_555
Ca0 O18 2.718867 1_555
Ca0 O1 2.719106 1_555
Ca0 O20 2.720269 1_555
Ca0 O16 2.726394 1_555
Ca0 O2 2.730690 1_555
Ca0 O0 2.736942 1_555
Ca0 O15 2.741356 1_555
Ca0 O11 2.746558 1_565
Ca0 O14 2.758149 1_555
Ca0 O10 2.762579 1_565
Ca1 O7 2.708720 1_555
Ca1 O23 2.713793 1_555
Ca1 O19 2.718867 1_555
Ca1 O5 2.719106 1_555
Ca1 O21 2.720269 1_555
Ca1 O17 2.726394 1_555
Ca1 O6 2.730690 1_555
Ca1 O4 2.736942 1_555
Ca1 O15 2.741356 1_555
Ca1 O11 2.746558 1_555
Ca1 O14 2.758149 1_556
Ca1 O10 2.762579 1_556
Mn0 O11 1.904875 1_555
Mn0 O19 1.924694 1_555
Mn0 O18 1.924694 1_545
Mn0 O9 1.925277 1_555
Mn0 O7 1.947478 1_555
Mn0 O3 1.947478 1_545
Mn1 O1 1.916472 1_555
Mn1 O5 1.916472 1_555
Mn1 O20 1.924651 1_555
Mn1 O21 1.924651 1_555
Mn1 O15 1.935991 1_555
Mn1 O13 1.956782 1_455
Mn2 O23 1.924572 1_555
Mn2 O22 1.924572 1_555
Mn2 O15 1.930615 1_555
Mn2 O3 1.939954 1_555
Mn2 O7 1.939954 1_555
Mn2 O13 1.945967 1_555
Fe0 O10 1.923304 1_555
Fe0 O16 1.933915 1_545
Fe0 O17 1.933915 1_554
Fe0 O4 1.935359 1_554
Fe0 O0 1.935359 1_545
Fe0 O8 1.945128 1_455
Fe1 O11 1.959198 1_555
Fe1 O17 1.963319 1_555
Fe1 O16 1.963319 1_545
Fe1 O5 1.970828 1_555
Fe1 O1 1.970828 1_545
Fe1 O9 1.980004 1_455
Fe2 O10 1.939829 1_555
Fe2 O6 1.945606 1_554
Fe2 O2 1.945606 1_545
Fe2 O8 1.961094 1_555
Fe2 O18 1.972585 1_545
Fe2 O19 1.972585 1_554
Fe3 O14 1.934328 1_555
Fe3 O0 1.951913 1_555
Fe3 O4 1.951913 1_554
Fe3 O12 1.954707 1_455
Fe3 O20 1.972620 1_555
Fe3 O21 1.972620 1_554
Fe4 O14 1.930024 1_555
Fe4 O2 1.941676 1_555
Fe4 O6 1.941676 1_554
Fe4 O12 1.950294 1_555
Fe4 O22 1.972732 1_555
Fe4 O23 1.972732 1_554
O0 Sr2 2.752375 1_554
O0 Sr0 2.765520 1_455
O0 Sr1 2.784210 1_454
O1 Sr2 2.740789 1_555
O1 Sr0 2.754671 1_455
O1 Sr1 2.774297 1_455
O2 Sr2 2.748797 1_554
O2 Sr0 2.761551 1_555
O2 Sr1 2.781255 1_554
O3 Sr2 2.738046 1_555
O3 Sr0 2.749741 1_555
O3 Sr1 2.775253 1_555
O4 Sr5 2.752375 1_556
O4 Sr4 2.765520 1_455
O4 Sr3 2.784210 1_456
O5 Sr5 2.740789 1_555
O5 Sr4 2.754671 1_455
O5 Sr3 2.774297 1_455
O6 Sr5 2.748797 1_556
O6 Sr4 2.761551 1_555
O6 Sr3 2.781255 1_556
O7 Sr5 2.738046 1_555
O7 Sr4 2.749741 1_555
O7 Sr3 2.775253 1_555
O8 Sr0 2.759111 1_545
O8 Sr4 2.759111 1_554
O8 Sr3 2.759704 1_555
O8 Sr1 2.759704 1_544
O9 Sr3 2.747987 1_555
O9 Sr1 2.747987 1_545
O9 Sr4 2.748554 1_555
O9 Sr0 2.748554 1_545
O10 Sr5 2.759852 1_555
O10 Sr2 2.759852 1_544
O11 Sr2 2.747953 1_545
O11 Sr5 2.747953 1_555
O12 Sr1 2.756039 1_554
O12 Sr3 2.756039 1_555
O12 Sr0 2.756136 1_555
O12 Sr4 2.756136 1_554
O13 Sr4 2.744814 1_555
O13 Sr0 2.744814 1_555
O13 Sr1 2.744889 1_555
O13 Sr3 2.744889 1_555
O14 Sr5 2.756078 1_555
O14 Sr2 2.756078 1_554
O15 Sr2 2.744740 1_555
O15 Sr5 2.744740 1_555
O16 Sr5 2.744709 1_565
O16 Sr0 2.758354 1_455
O16 Sr3 2.777966 1_465
O17 Sr2 2.744709 1_545
O17 Sr4 2.758354 1_455
O17 Sr1 2.777966 1_445
O18 Sr5 2.740543 1_565
O18 Sr0 2.754924 1_555
O18 Sr3 2.776157 1_565
O19 Sr2 2.740543 1_545
O19 Sr4 2.754924 1_555
O19 Sr1 2.776157 1_545
O20 Sr5 2.741234 1_555
O20 Sr0 2.755032 1_455
O20 Sr3 2.775864 1_455
O21 Sr2 2.741234 1_555
O21 Sr4 2.755032 1_455
O21 Sr1 2.775864 1_455
O22 Sr5 2.737295 1_555
O22 Sr0 2.751443 1_555
O22 Sr3 2.773137 1_555
O23 Sr2 2.737295 1_555
O23 Sr4 2.751443 1_555
O23 Sr1 2.773137 1_555
