# generated using pymatgen
data_Sr(AlGa)2
_symmetry_space_group_name_H-M   'P 1'
_cell_length_a   6.30755877
_cell_length_b   6.30755877
_cell_length_c   6.30755877
_cell_angle_alpha   139.56413444
_cell_angle_beta   139.56413444
_cell_angle_gamma   58.51570005
_symmetry_Int_Tables_number   1
_chemical_formula_structural   Sr(AlGa)2
_chemical_formula_sum   'Sr1 Al2 Ga2'
_cell_volume   104.59265380
_cell_formula_units_Z   1
loop_
 _symmetry_equiv_pos_site_id
 _symmetry_equiv_pos_as_xyz
  1  'x, y, z'
loop_
 _atom_site_type_symbol
 _atom_site_label
 _atom_site_symmetry_multiplicity
 _atom_site_fract_x
 _atom_site_fract_y
 _atom_site_fract_z
 _atom_site_occupancy
  Sr  Sr0  1  0.00000000  0.00000000  0.00000000  1
  Al  Al0  1  0.75000000  0.25000000  0.50000000  1
  Al  Al1  1  0.25000000  0.75000000  0.50000000  1
  Ga  Ga0  1  0.38411272  0.38411272  0.00000000  1
  Ga  Ga1  1  0.61588728  0.61588728  -0.00000000  1
loop_
_geom_bond_atom_site_label_1
_geom_bond_atom_site_label_2
_geom_bond_distance
_geom_bond_site_symmetry_2
Al0 Ga1 2.632553 1_545
Al0 Ga1 2.632553 1_556
Al0 Ga0 2.632553 1_555
Al0 Ga0 2.632553 1_656
Al0 Sr0 3.510296 1_555
Al0 Sr0 3.510296 1_666
Al0 Sr0 3.510296 1_655
Al0 Sr0 3.510296 1_656
Al1 Ga1 2.632553 1_455
Al1 Ga1 2.632553 1_556
Al1 Ga0 2.632553 1_555
Al1 Ga0 2.632553 1_566
Al1 Sr0 3.510296 1_666
Al1 Sr0 3.510296 1_566
Al1 Sr0 3.510296 1_555
Al1 Sr0 3.510296 1_565
Ga0 Ga1 2.550863 1_555
Ga0 Sr0 3.336187 1_666
Ga0 Sr0 3.336187 1_565
Ga0 Sr0 3.336187 1_655
Ga0 Sr0 3.336187 1_554
Ga1 Sr0 3.336187 1_565
Ga1 Sr0 3.336187 1_666
Ga1 Sr0 3.336187 1_655
Ga1 Sr0 3.336187 1_554
