# generated using pymatgen
data_H12C71F4
_symmetry_space_group_name_H-M   'P 1'
_cell_length_a   10.42338824
_cell_length_b   10.46906693
_cell_length_c   19.27921029
_cell_angle_alpha   105.20271739
_cell_angle_beta   99.52470762
_cell_angle_gamma   93.14222630
_symmetry_Int_Tables_number   1
_chemical_formula_structural   H12C71F4
_chemical_formula_sum   'H24 C142 F8'
_cell_volume   1991.50724996
_cell_formula_units_Z   2
loop_
 _symmetry_equiv_pos_site_id
 _symmetry_equiv_pos_as_xyz
  1  'x, y, z'
loop_
 _atom_site_type_symbol
 _atom_site_label
 _atom_site_symmetry_multiplicity
 _atom_site_fract_x
 _atom_site_fract_y
 _atom_site_fract_z
 _atom_site_occupancy
  H  H0  1  0.68629183  0.19847041  0.54362848  1
  H  H1  1  0.31370817  0.80152959  0.45637152  1
  H  H2  1  0.64597669  0.83953820  0.36742288  1
  H  H3  1  0.35402331  0.16046180  0.63257712  1
  H  H4  1  0.35898408  0.11915823  0.36477125  1
  H  H5  1  0.64101592  0.88084177  0.63522875  1
  H  H6  1  0.36463424  0.29027524  0.49596845  1
  H  H7  1  0.63536576  0.70972476  0.50403155  1
  H  H8  1  0.52372482  0.34759484  0.54903754  1
  H  H9  1  0.47627518  0.65240516  0.45096246  1
  H  H10  1  0.47903165  0.37726425  0.46200185  1
  H  H11  1  0.52096835  0.62273575  0.53799815  1
  H  H12  1  0.88603510  0.98468803  0.46572821  1
  H  H13  1  0.11396490  0.01531197  0.53427179  1
  H  H14  1  0.83755581  0.04079946  0.55189333  1
  H  H15  1  0.16244419  0.95920054  0.44810667  1
  H  H16  1  0.79481287  0.87282995  0.49834126  1
  H  H17  1  0.20518713  0.12717005  0.50165874  1
  H  H18  1  0.42175565  0.77644987  0.28187808  1
  H  H19  1  0.57824435  0.22355013  0.71812192  1
  H  H20  1  0.32027648  0.90516572  0.27333293  1
  H  H21  1  0.67972352  0.09483428  0.72666707  1
  H  H22  1  0.46889902  0.89836068  0.23995917  1
  H  H23  1  0.53110098  0.10163932  0.76004083  1
  C  C0  1  0.28431638  0.73244421  0.97846844  1
  C  C1  1  0.71568362  0.26755579  0.02153156  1
  C  C2  1  0.22769637  0.59049774  0.96005631  1
  C  C3  1  0.77230363  0.40950226  0.03994369  1
  C  C4  1  0.32509210  0.51305287  0.92750249  1
  C  C5  1  0.67490790  0.48694713  0.07249751  1
  C  C6  1  0.39752107  0.59698605  0.89466658  1
  C  C7  1  0.60247893  0.40301395  0.10533342  1
  C  C8  1  0.37782305  0.73358943  0.92845231  1
  C  C9  1  0.62217695  0.26641057  0.07154769  1
  C  C10  1  0.38903454  0.83118243  0.89277086  1
  C  C11  1  0.61096546  0.16881757  0.10722914  1
  C  C12  1  0.29820036  0.93429952  0.89512868  1
  C  C13  1  0.70179964  0.06570048  0.10487132  1
  C  C14  1  0.19535718  0.93694919  0.93288134  1
  C  C15  1  0.80464282  0.06305081  0.06711866  1
  C  C16  1  0.17846098  0.84807424  0.98026972  1
  C  C17  1  0.82153902  0.15192576  0.01973028  1
  C  C18  1  0.03956060  0.79116291  0.95903057  1
  C  C19  1  0.96043940  0.20883709  0.04096943  1
  C  C20  1  0.00050713  0.65629458  0.94516441  1
  C  C21  1  0.99949287  0.34370542  0.05483559  1
  C  C22  1  0.09376990  0.55388910  0.94374838  1
  C  C23  1  0.90623010  0.44611090  0.05625162  1
  C  C24  1  0.03129220  0.43307931  0.88736435  1
  C  C25  1  0.96870780  0.56692069  0.11263565  1
  C  C26  1  0.09857642  0.34338386  0.84226829  1
  C  C27  1  0.90142358  0.65661614  0.15773171  1
  C  C28  1  0.23955503  0.34574875  0.84947819  1
  C  C29  1  0.76044497  0.65425125  0.15052181  1
  C  C30  1  0.27228314  0.34594992  0.77903000  1
  C  C31  1  0.72771686  0.65405008  0.22097000  1
  C  C32  1  0.36286225  0.43826885  0.76706982  1
  C  C33  1  0.63713775  0.56173115  0.23293018  1
  C  C34  1  0.42356590  0.56001140  0.82325662  1
  C  C35  1  0.57643410  0.43998860  0.17674338  1
  C  C36  1  0.43898674  0.66349412  0.78690081  1
  C  C37  1  0.56101326  0.33650588  0.21309919  1
  C  C38  1  0.42246037  0.79571756  0.82081599  1
  C  C39  1  0.57753963  0.20428244  0.17918401  1
  C  C40  1  0.35533467  0.87629725  0.77850143  1
  C  C41  1  0.64466533  0.12370275  0.22149857  1
  C  C42  1  0.27767695  0.96029232  0.82408034  1
  C  C43  1  0.72232305  0.03970768  0.17591966  1
  C  C44  1  0.15441381  0.98648262  0.79253233  1
  C  C45  1  0.84558619  0.01351738  0.20746767  1
  C  C46  1  0.04629850  0.98373974  0.83049861  1
  C  C47  1  0.95370150  0.01626026  0.16950139  1
  C  C48  1  0.06672415  0.95590518  0.89844753  1
  C  C49  1  0.93327585  0.04409482  0.10155247  1
  C  C50  1  0.97121747  0.86732937  0.91477179  1
  C  C51  1  0.02878253  0.13267063  0.08522821  1
  C  C52  1  0.85812291  0.81147048  0.86305317  1
  C  C53  1  0.14187709  0.18852952  0.13694683  1
  C  C54  1  0.81244200  0.67364707  0.85170288  1
  C  C55  1  0.18755800  0.32635293  0.14829712  1
  C  C56  1  0.88429050  0.59783422  0.89136172  1
  C  C57  1  0.11570950  0.40216578  0.10863828  1
  C  C58  1  0.90291349  0.46212908  0.85572493  1
  C  C59  1  0.09708651  0.53787092  0.14427507  1
  C  C60  1  0.84805167  0.40692966  0.78171018  1
  C  C61  1  0.15194833  0.59307034  0.21828982  1
  C  C62  1  0.92263099  0.32320231  0.73454121  1
  C  C63  1  0.07736901  0.67679769  0.26545879  1
  C  C64  1  0.04566884  0.29614980  0.76435701  1
  C  C65  1  0.95433116  0.70385020  0.23564299  1
  C  C66  1  0.15257987  0.29811740  0.72544912  1
  C  C67  1  0.84742013  0.70188260  0.27455088  1
  C  C68  1  0.13294032  0.32823807  0.65855112  1
  C  C69  1  0.86705968  0.67176193  0.34144888  1
  C  C70  1  0.23073012  0.41566298  0.64353182  1
  C  C71  1  0.76926988  0.58433702  0.35646818  1
  C  C72  1  0.34184128  0.47065142  0.69709640  1
  C  C73  1  0.65815872  0.52934858  0.30290360  1
  C  C74  1  0.39029797  0.60855351  0.70927932  1
  C  C75  1  0.60970203  0.39144649  0.29072068  1
  C  C76  1  0.32629285  0.68642327  0.66814557  1
  C  C77  1  0.67370715  0.31357673  0.33185443  1
  C  C78  1  0.30812915  0.82300353  0.70359916  1
  C  C79  1  0.69187085  0.17699647  0.29640084  1
  C  C80  1  0.18031546  0.85013088  0.67109296  1
  C  C81  1  0.81968454  0.14986912  0.32890704  1
  C  C82  1  0.10468599  0.93015635  0.71487651  1
  C  C83  1  0.89531401  0.06984365  0.28512349  1
  C  C84  1  0.96524802  0.89244912  0.70516253  1
  C  C85  1  0.03475198  0.10755088  0.29483747  1
  C  C86  1  0.92910852  0.92544811  0.77680387  1
  C  C87  1  0.07089148  0.07455189  0.22319613  1
  C  C88  1  0.83631738  0.84123285  0.79286308  1
  C  C89  1  0.16368262  0.15876715  0.20713692  1
  C  C90  1  0.77541464  0.72086947  0.73788336  1
  C  C91  1  0.22458536  0.27913053  0.26211664  1
  C  C92  1  0.75958934  0.61754143  0.77442385  1
  C  C93  1  0.24041066  0.38245857  0.22557615  1
  C  C94  1  0.77685705  0.48621131  0.73993207  1
  C  C95  1  0.22314295  0.51378869  0.26006793  1
  C  C96  1  0.81053735  0.45312720  0.66757215  1
  C  C97  1  0.18946265  0.54687280  0.33242785  1
  C  C98  1  0.90090346  0.35196786  0.66433161  1
  C  C99  1  0.09909654  0.64803214  0.33566839  1
  C  C100  1  0.00487466  0.35489341  0.62689484  1
  C  C101  1  0.99512534  0.64510659  0.37310516  1
  C  C102  1  0.02325003  0.45886550  0.59141586  1
  C  C103  1  0.97674997  0.54113450  0.40858414  1
  C  C104  1  0.16297904  0.49634456  0.60147934  1
  C  C105  1  0.83702096  0.50365544  0.39852066  1
  C  C106  1  0.21012490  0.62945785  0.61358327  1
  C  C107  1  0.78987510  0.37054215  0.38641673  1
  C  C108  1  0.11933044  0.73034829  0.61576840  1
  C  C109  1  0.88066956  0.26965171  0.38423160  1
  C  C110  1  0.98495534  0.69414512  0.60636670  1
  C  C111  1  0.01504466  0.30585488  0.39363330  1
  C  C112  1  0.90659247  0.77647575  0.65207581  1
  C  C113  1  0.09340753  0.22352425  0.34792419  1
  C  C114  1  0.80986658  0.68923267  0.66866539  1
  C  C115  1  0.19013342  0.31076733  0.33133461  1
  C  C116  1  0.82773875  0.55296611  0.63280360  1
  C  C117  1  0.17226125  0.44703389  0.36719640  1
  C  C118  1  0.93597464  0.55599923  0.59423166  1
  C  C119  1  0.06402536  0.44400077  0.40576834  1
  C  C120  1  0.27291507  0.83876983  0.04483340  1
  C  C121  1  0.72708493  0.16123017  0.95516660  1
  C  C122  1  0.33353160  0.36959863  0.91812992  1
  C  C123  1  0.66646840  0.63040137  0.08187008  1
  C  C124  1  0.51791889  0.17433778  0.45778475  1
  C  C125  1  0.48208111  0.82566222  0.54221525  1
  C  C126  1  0.63327616  0.13548109  0.49103467  1
  C  C127  1  0.36672384  0.86451891  0.50896533  1
  C  C128  1  0.68111123  0.01537189  0.45904633  1
  C  C129  1  0.31888877  0.98462811  0.54095367  1
  C  C130  1  0.61029386  0.93392227  0.39259149  1
  C  C131  1  0.38970614  0.06607773  0.60740851  1
  C  C132  1  0.49450878  0.96968079  0.35763316  1
  C  C133  1  0.50549122  0.03031921  0.64236684  1
  C  C134  1  0.44955769  0.09049254  0.39116478  1
  C  C135  1  0.55044231  0.90950746  0.60883522  1
  C  C136  1  0.46886801  0.30396499  0.49313774  1
  C  C137  1  0.53113199  0.69603501  0.50686226  1
  C  C138  1  0.80616143  0.97654078  0.49580792  1
  C  C139  1  0.19383857  0.02345922  0.50419208  1
  C  C140  1  0.42211117  0.88286006  0.28481580  1
  C  C141  1  0.57788883  0.11713994  0.71518420  1
  F  F0  1  0.22525592  0.80328333  0.09967176  1
  F  F1  1  0.77474408  0.19671667  0.90032824  1
  F  F2  1  0.37326760  0.93711463  0.07458244  1
  F  F3  1  0.62673240  0.06288537  0.92541756  1
  F  F4  1  0.29176567  0.31979250  0.97083658  1
  F  F5  1  0.70823433  0.68020750  0.02916342  1
  F  F6  1  0.45497730  0.32772102  0.91052082  1
  F  F7  1  0.54502270  0.67227898  0.08947918  1
loop_
_geom_bond_atom_site_label_1
_geom_bond_atom_site_label_2
_geom_bond_distance
_geom_bond_site_symmetry_2
C0 C8 1.481801 1_555
C0 C120 1.485960 1_556
C0 C2 1.496832 1_555
C0 C16 1.679613 1_555
C1 C9 1.481801 1_555
C1 C121 1.485960 1_554
C1 C3 1.496832 1_555
C1 C17 1.679613 1_555
C2 C22 1.388294 1_555
C2 C4 1.454679 1_555
C3 C5 1.454679 1_555
C4 C6 1.456026 1_555
C5 C7 1.456026 1_555
C6 C8 1.448979 1_555
C7 C9 1.448979 1_555
C10 C8 1.383076 1_555
C10 C38 1.444874 1_555
C10 C12 1.471211 1_555
C11 C9 1.383076 1_555
C11 C39 1.444874 1_555
C11 C13 1.471211 1_555
C12 C14 1.389437 1_555
C12 C42 1.449462 1_555
C13 C15 1.389437 1_555
C13 C43 1.449462 1_555
C14 C48 1.442742 1_555
C14 C16 1.487458 1_555
C15 C49 1.442742 1_555
C15 C17 1.487458 1_555
C16 C18 1.483272 1_555
C17 C19 1.483272 1_555
C18 C20 1.390602 1_555
C18 C50 1.445453 1_455
C19 C21 1.390602 1_555
C19 C51 1.445453 1_655
C20 C56 1.444942 1_455
C20 C22 1.484188 1_555
C21 C57 1.444942 1_655
C21 C23 1.484188 1_555
C22 C24 1.469606 1_555
C23 C3 1.388294 1_555
C23 C25 1.469606 1_555
C24 C26 1.405465 1_555
C24 C58 1.458413 1_455
C25 C27 1.405465 1_555
C25 C59 1.458413 1_655
C26 C28 1.451171 1_555
C26 C64 1.453019 1_555
C27 C29 1.451171 1_555
C27 C65 1.453019 1_555
C28 C30 1.454581 1_555
C29 C31 1.454581 1_555
C30 C32 1.402702 1_555
C30 C66 1.451994 1_555
C31 C33 1.402702 1_555
C31 C67 1.451994 1_555
C32 C72 1.460483 1_555
C32 C34 1.469304 1_555
C33 C73 1.460483 1_555
C33 C35 1.469304 1_555
C34 C6 1.405215 1_555
C34 C36 1.451636 1_555
C35 C7 1.405215 1_555
C35 C37 1.451636 1_555
C36 C38 1.400744 1_555
C36 C74 1.446743 1_555
C37 C39 1.400744 1_555
C37 C75 1.446743 1_555
C38 C40 1.450331 1_555
C39 C41 1.450331 1_555
C40 C78 1.396743 1_555
C40 C42 1.452173 1_555
C41 C79 1.396743 1_555
C41 C43 1.452173 1_555
C42 C44 1.401192 1_555
C43 C45 1.401192 1_555
C44 C46 1.444652 1_555
C44 C82 1.450683 1_555
C45 C47 1.444652 1_555
C45 C83 1.450683 1_555
C46 C48 1.400377 1_555
C46 C86 1.450728 1_455
C47 C49 1.400377 1_555
C47 C87 1.450728 1_655
C48 C50 1.451040 1_455
C49 C51 1.451040 1_655
C50 C52 1.398367 1_555
C51 C53 1.398367 1_555
C52 C54 1.442608 1_555
C52 C88 1.451562 1_555
C53 C55 1.442608 1_555
C53 C89 1.451562 1_555
C54 C56 1.403331 1_555
C54 C92 1.449883 1_555
C55 C57 1.403331 1_555
C55 C93 1.449883 1_555
C56 C58 1.445877 1_555
C57 C59 1.445877 1_555
C58 C60 1.399419 1_555
C59 C61 1.399419 1_555
C60 C62 1.445754 1_555
C60 C94 1.452132 1_555
C61 C63 1.445754 1_555
C61 C95 1.452132 1_555
C62 C64 1.391617 1_655
C62 C98 1.447062 1_555
C63 C65 1.391617 1_455
C63 C99 1.447062 1_555
C64 C66 1.444699 1_555
C65 C67 1.444699 1_555
C66 C68 1.392040 1_555
C67 C69 1.392040 1_555
C68 C70 1.447382 1_555
C69 C71 1.447382 1_555
C70 C72 1.399451 1_555
C71 C73 1.399451 1_555
C72 C74 1.448281 1_555
C73 C75 1.448281 1_555
C74 C76 1.400774 1_555
C75 C77 1.400774 1_555
C76 C78 1.451717 1_555
C77 C79 1.451717 1_555
C78 C80 1.451485 1_555
C79 C81 1.451485 1_555
C80 C82 1.399138 1_555
C81 C83 1.399138 1_555
C82 C84 1.453125 1_455
C83 C85 1.453125 1_655
C84 C86 1.450906 1_555
C85 C87 1.450906 1_555
C86 C88 1.399081 1_555
C87 C89 1.399081 1_555
C88 C90 1.450329 1_555
C89 C91 1.450329 1_555
C90 C92 1.453356 1_555
C91 C93 1.453356 1_555
C92 C94 1.397203 1_555
C93 C95 1.397203 1_555
C94 C96 1.453047 1_555
C95 C97 1.453047 1_555
C96 C98 1.451491 1_555
C97 C99 1.451491 1_555
C100 C98 1.401126 1_455
C100 C68 1.446648 1_555
C100 C102 1.449258 1_555
C101 C99 1.401126 1_655
C101 C69 1.446648 1_555
C101 C103 1.449258 1_555
C102 C118 1.397642 1_455
C102 C104 1.454906 1_555
C103 C119 1.397642 1_655
C103 C105 1.454906 1_555
C104 C106 1.398001 1_555
C104 C70 1.450700 1_555
C105 C107 1.398001 1_555
C105 C71 1.450700 1_555
C106 C76 1.448677 1_555
C106 C108 1.453438 1_555
C107 C77 1.448677 1_555
C107 C109 1.453438 1_555
C108 C110 1.400022 1_455
C108 C80 1.449486 1_555
C109 C111 1.400022 1_655
C109 C81 1.449486 1_555
C110 C112 1.450412 1_555
C110 C118 1.452280 1_555
C111 C113 1.450412 1_555
C111 C119 1.452280 1_555
C112 C84 1.398292 1_555
C112 C114 1.453263 1_555
C113 C85 1.398292 1_555
C113 C115 1.453263 1_555
C114 C90 1.399745 1_555
C114 C116 1.449939 1_555
C115 C91 1.399745 1_555
C115 C117 1.449939 1_555
C116 C96 1.400226 1_555
C116 C118 1.453586 1_555
C117 C97 1.400226 1_555
C117 C119 1.453586 1_555
C120 F2 1.362649 1_555
C120 F0 1.364602 1_555
C120 C16 1.482126 1_554
C121 F3 1.362649 1_555
C121 F1 1.364602 1_555
C121 C17 1.482126 1_556
C122 F4 1.375991 1_555
C122 F6 1.380124 1_555
C122 C28 1.464395 1_555
C122 C4 1.474213 1_555
C123 F5 1.375991 1_555
C123 F7 1.380124 1_555
C123 C29 1.464395 1_555
C123 C5 1.474213 1_555
C124 C126 1.399107 1_555
C124 C134 1.401831 1_555
C124 C136 1.507942 1_555
C125 C127 1.399107 1_555
C125 C135 1.401831 1_555
C125 C137 1.507942 1_555
C126 H0 1.091919 1_555
C126 C128 1.404940 1_555
C127 H1 1.091919 1_555
C127 C129 1.404940 1_555
C128 C130 1.399458 1_545
C128 C138 1.506657 1_545
C129 C131 1.399458 1_565
C129 C139 1.506657 1_565
C130 H2 1.094855 1_555
C130 C132 1.401281 1_555
C131 H3 1.094855 1_555
C131 C133 1.401281 1_555
C132 C134 1.404818 1_565
C132 C140 1.507123 1_555
C133 C135 1.404818 1_545
C133 C141 1.507123 1_555
C134 H4 1.091992 1_555
C135 H5 1.091992 1_555
C136 H8 1.098310 1_555
C136 H6 1.100267 1_555
C136 H10 1.101881 1_555
C137 H9 1.098310 1_555
C137 H7 1.100267 1_555
C137 H11 1.101881 1_555
C138 H14 1.098217 1_565
C138 H16 1.100403 1_555
C138 H12 1.102117 1_555
C139 H15 1.098217 1_545
C139 H17 1.100403 1_555
C139 H13 1.102117 1_555
C140 H20 1.098528 1_555
C140 H18 1.100290 1_555
C140 H22 1.102976 1_555
C141 H21 1.098528 1_555
C141 H19 1.100290 1_555
C141 H23 1.102976 1_555
