# generated using pymatgen
data_Er2(GePt3)3
_symmetry_space_group_name_H-M   'P 1'
_cell_length_a   7.81079378
_cell_length_b   7.81079378
_cell_length_c   10.08773752
_cell_angle_alpha   67.10766358
_cell_angle_beta   67.10766358
_cell_angle_gamma   60.21399146
_symmetry_Int_Tables_number   1
_chemical_formula_structural   Er2(GePt3)3
_chemical_formula_sum   'Er4 Ge6 Pt18'
_cell_volume   477.08372246
_cell_formula_units_Z   2
loop_
 _symmetry_equiv_pos_site_id
 _symmetry_equiv_pos_as_xyz
  1  'x, y, z'
loop_
 _atom_site_type_symbol
 _atom_site_label
 _atom_site_symmetry_multiplicity
 _atom_site_fract_x
 _atom_site_fract_y
 _atom_site_fract_z
 _atom_site_occupancy
  Er  Er0  1  0.41567200  0.24435100  0.25069000  1
  Er  Er1  1  0.58432800  0.75564900  0.74931000  1
  Er  Er2  1  0.75564900  0.58432800  0.24931000  1
  Er  Er3  1  0.24435100  0.41567200  0.75069000  1
  Ge  Ge0  1  0.50000000  0.00000000  0.00000000  1
  Ge  Ge1  1  0.00000000  0.50000000  0.50000000  1
  Ge  Ge2  1  0.63918500  0.18175000  0.49782600  1
  Ge  Ge3  1  0.36081500  0.81825000  0.50217400  1
  Ge  Ge4  1  0.81825000  0.36081500  0.00217400  1
  Ge  Ge5  1  0.18175000  0.63918500  0.99782600  1
  Pt  Pt0  1  0.29657500  0.91617300  0.25663800  1
  Pt  Pt1  1  0.70342500  0.08382700  0.74336200  1
  Pt  Pt2  1  0.08382700  0.70342500  0.24336200  1
  Pt  Pt3  1  0.91617300  0.29657500  0.75663800  1
  Pt  Pt4  1  0.47803700  0.63949800  0.07795900  1
  Pt  Pt5  1  0.52196300  0.36050200  0.92204100  1
  Pt  Pt6  1  0.36050200  0.52196300  0.42204100  1
  Pt  Pt7  1  0.63949800  0.47803700  0.57795900  1
  Pt  Pt8  1  0.86536100  0.13463900  0.25000000  1
  Pt  Pt9  1  0.13463900  0.86536100  0.75000000  1
  Pt  Pt10  1  0.80028700  0.97935300  0.07205600  1
  Pt  Pt11  1  0.19971300  0.02064700  0.92794400  1
  Pt  Pt12  1  0.02064700  0.19971300  0.42794400  1
  Pt  Pt13  1  0.97935300  0.80028700  0.57205600  1
  Pt  Pt14  1  0.69307100  0.86004700  0.42124300  1
  Pt  Pt15  1  0.30692900  0.13995300  0.57875700  1
  Pt  Pt16  1  0.13995300  0.30692900  0.07875700  1
  Pt  Pt17  1  0.86004700  0.69307100  0.92124300  1
loop_
_geom_bond_atom_site_label_1
_geom_bond_atom_site_label_2
_geom_bond_distance
_geom_bond_site_symmetry_2
Er0 Pt15 2.956433 1_555
Er0 Pt5 2.961517 1_554
Er0 Pt10 3.011428 1_545
Er0 Pt14 3.014234 1_545
Er0 Pt16 3.014242 1_555
Er0 Pt12 3.021649 1_555
Er0 Pt6 3.046896 1_555
Er0 Pt4 3.073874 1_555
Er0 Pt0 3.105738 1_545
Er0 Pt8 3.172810 1_555
Er0 Pt2 3.207831 1_555
Er1 Pt14 2.956433 1_555
Er1 Pt4 2.961517 1_556
Er1 Pt11 3.011428 1_565
Er1 Pt15 3.014234 1_565
Er1 Pt17 3.014242 1_555
Er1 Pt13 3.021649 1_555
Er1 Pt7 3.046896 1_555
Er1 Pt5 3.073874 1_555
Er1 Pt1 3.105738 1_565
Er1 Pt9 3.172810 1_555
Er1 Pt3 3.207831 1_555
Er2 Pt17 2.956433 1_554
Er2 Pt7 2.961517 1_555
Er2 Pt12 3.011428 1_655
Er2 Pt16 3.014234 1_655
Er2 Pt14 3.014242 1_555
Er2 Pt10 3.021649 1_555
Er2 Pt4 3.046896 1_555
Er2 Pt6 3.073874 1_555
Er2 Pt2 3.105738 1_655
Er2 Pt8 3.172810 1_555
Er2 Pt0 3.207831 1_555
Er3 Pt16 2.956433 1_556
Er3 Pt6 2.961517 1_555
Er3 Pt13 3.011428 1_455
Er3 Pt17 3.014234 1_455
Er3 Pt15 3.014242 1_555
Er3 Pt11 3.021649 1_555
Er3 Pt5 3.046896 1_555
Er3 Pt7 3.073874 1_555
Er3 Pt3 3.105738 1_455
Er3 Pt9 3.172810 1_555
Er3 Pt1 3.207831 1_555
Ge0 Pt1 2.483994 1_554
Ge0 Pt0 2.483994 1_545
Ge0 Pt10 2.629646 1_545
Ge0 Pt11 2.629646 1_554
Ge0 Pt5 2.688642 1_554
Ge0 Pt4 2.688642 1_545
Ge0 Pt16 2.707864 1_555
Ge0 Pt17 2.707864 1_544
Ge1 Pt3 2.483994 1_455
Ge1 Pt2 2.483994 1_555
Ge1 Pt13 2.629646 1_455
Ge1 Pt12 2.629646 1_555
Ge1 Pt6 2.688642 1_555
Ge1 Pt7 2.688642 1_455
Ge1 Pt14 2.707864 1_455
Ge1 Pt15 2.707864 1_555
Ge2 Pt1 2.466484 1_555
Ge2 Pt8 2.477928 1_555
Ge2 Pt6 2.520189 1_555
Ge2 Pt15 2.548352 1_555
Ge2 Pt14 2.700829 1_545
Ge2 Pt7 2.733448 1_555
Ge2 Pt12 2.845777 1_655
Ge2 Pt13 2.905971 1_545
Ge3 Pt0 2.466484 1_555
Ge3 Pt9 2.477928 1_555
Ge3 Pt7 2.520189 1_555
Ge3 Pt14 2.548352 1_555
Ge3 Pt15 2.700829 1_565
Ge3 Pt6 2.733448 1_555
Ge3 Pt13 2.845777 1_455
Ge3 Pt12 2.905971 1_565
Ge4 Pt3 2.466484 1_554
Ge4 Pt8 2.477928 1_555
Ge4 Pt4 2.520189 1_555
Ge4 Pt17 2.548352 1_554
Ge4 Pt16 2.700829 1_655
Ge4 Pt5 2.733448 1_554
Ge4 Pt10 2.845777 1_545
Ge4 Pt11 2.905971 1_654
Ge5 Pt2 2.466484 1_556
Ge5 Pt9 2.477928 1_555
Ge5 Pt5 2.520189 1_555
Ge5 Pt16 2.548352 1_556
Ge5 Pt17 2.700829 1_455
Ge5 Pt4 2.733448 1_556
Ge5 Pt11 2.845777 1_565
Ge5 Pt10 2.905971 1_456
