# generated using pymatgen
data_Nd4CdPt
_symmetry_space_group_name_H-M   'P 1'
_cell_length_a   9.99289763
_cell_length_b   9.99292016
_cell_length_c   9.99276362
_cell_angle_alpha   59.99974918
_cell_angle_beta   59.99971747
_cell_angle_gamma   60.00024870
_symmetry_Int_Tables_number   1
_chemical_formula_structural   Nd4CdPt
_chemical_formula_sum   'Nd16 Cd4 Pt4'
_cell_volume   705.59182073
_cell_formula_units_Z   4
loop_
 _symmetry_equiv_pos_site_id
 _symmetry_equiv_pos_as_xyz
  1  'x, y, z'
loop_
 _atom_site_type_symbol
 _atom_site_label
 _atom_site_symmetry_multiplicity
 _atom_site_fract_x
 _atom_site_fract_y
 _atom_site_fract_z
 _atom_site_occupancy
  Nd  Nd0  1  0.35039952  0.35040091  0.35039580  1
  Nd  Nd1  1  0.35039438  0.35039518  0.94881696  1
  Nd  Nd2  1  0.35040218  0.94879887  0.35039784  1
  Nd  Nd3  1  0.94880070  0.35040188  0.35039734  1
  Nd  Nd4  1  0.80807861  0.19191736  0.19192204  1
  Nd  Nd5  1  0.19191955  0.80806305  0.80809833  1
  Nd  Nd6  1  0.19191775  0.80807643  0.19192190  1
  Nd  Nd7  1  0.80806519  0.19191935  0.80809607  1
  Nd  Nd8  1  0.19192025  0.19191964  0.80809412  1
  Nd  Nd9  1  0.80808191  0.80807840  0.19192157  1
  Nd  Nd10  1  0.93642304  0.56358674  0.56356979  1
  Nd  Nd11  1  0.56357778  0.93642265  0.93642518  1
  Nd  Nd12  1  0.56358576  0.93642299  0.56357114  1
  Nd  Nd13  1  0.93642259  0.56357857  0.93642589  1
  Nd  Nd14  1  0.56357528  0.56357706  0.93642657  1
  Nd  Nd15  1  0.93642154  0.93642229  0.56357286  1
  Cd  Cd0  1  0.57998290  0.57998322  0.57998908  1
  Cd  Cd1  1  0.57999722  0.57999484  0.26001118  1
  Cd  Cd2  1  0.57998389  0.26004560  0.57999003  1
  Cd  Cd3  1  0.26004417  0.57998526  0.57999004  1
  Pt  Pt0  1  0.14301578  0.14301653  0.14300169  1
  Pt  Pt1  1  0.14301092  0.14301108  0.57096588  1
  Pt  Pt2  1  0.14301482  0.57096651  0.14300108  1
  Pt  Pt3  1  0.57096626  0.14301659  0.14300061  1
loop_
_geom_bond_atom_site_label_1
_geom_bond_atom_site_label_2
_geom_bond_distance
_geom_bond_site_symmetry_2
Nd0 Pt1 2.933785 1_555
Nd0 Pt2 2.933794 1_555
Nd0 Pt3 2.933796 1_555
Nd0 Nd14 3.619609 1_554
Nd0 Nd10 3.619724 1_455
Nd0 Nd12 3.619743 1_545
Nd1 Pt3 2.933635 1_556
Nd1 Pt2 2.933636 1_556
Nd1 Pt0 2.933646 1_556
Nd1 Nd14 3.619714 1_555
Nd1 Nd13 3.619720 1_455
Nd1 Nd11 3.619737 1_545
Nd2 Pt1 2.933799 1_565
Nd2 Pt3 2.933808 1_565
Nd2 Pt0 2.933813 1_565
Nd3 Pt1 2.933787 1_655
Nd3 Pt2 2.933788 1_655
Nd3 Pt0 2.933805 1_655
Nd4 Pt3 2.940593 1_555
Nd4 Pt0 2.940626 1_655
Nd5 Pt2 2.940297 1_556
Nd5 Pt1 2.940736 1_565
Nd6 Pt2 2.940584 1_555
Nd6 Pt0 2.940660 1_565
Nd7 Pt3 2.940313 1_556
Nd7 Pt1 2.940708 1_655
Nd8 Pt0 2.940332 1_556
Nd8 Pt1 2.940695 1_555
Nd9 Pt2 2.940595 1_655
Nd9 Pt3 2.940645 1_565
Nd10 Pt2 3.618798 1_655
Nd10 Pt1 3.618890 1_655
Nd10 Nd3 3.619722 1_555
Nd10 Nd15 3.725724 1_555
Nd10 Nd12 3.725738 1_555
Nd10 Nd13 3.725820 1_555
Nd10 Nd14 3.725834 1_555
Nd10 Nd6 3.736590 1_655
Nd10 Nd9 3.736614 1_555
Nd10 Nd8 3.736872 1_655
Nd10 Nd7 3.736887 1_555
Nd11 Pt3 3.618724 1_566
Nd11 Pt0 3.618764 1_566
Nd11 Nd2 3.619615 1_556
Nd11 Nd15 3.725791 1_555
Nd11 Nd12 3.725801 1_555
Nd11 Nd13 3.725815 1_555
Nd11 Nd14 3.725822 1_555
Nd11 Nd7 3.736649 1_565
Nd11 Nd8 3.736686 1_565
Nd11 Nd9 3.736715 1_556
Nd11 Nd6 3.736761 1_556
Nd12 Pt3 3.618813 1_565
Nd12 Pt1 3.618879 1_565
Nd12 Nd2 3.619724 1_555
Nd12 Nd15 3.725715 1_555
Nd12 Nd14 3.725824 1_555
Nd12 Nd4 3.736608 1_565
Nd12 Nd9 3.736642 1_555
Nd12 Nd8 3.736855 1_565
Nd12 Nd5 3.736882 1_555
Nd13 Pt2 3.618701 1_656
Nd13 Pt0 3.618766 1_656
Nd13 Nd3 3.619612 1_556
Nd13 Nd15 3.725801 1_555
Nd13 Nd14 3.725829 1_555
Nd13 Nd5 3.736632 1_655
Nd13 Nd9 3.736690 1_556
Nd13 Nd8 3.736707 1_655
Nd13 Nd4 3.736765 1_556
Nd14 Pt2 3.618750 1_556
Nd14 Pt3 3.618755 1_556
Nd14 Nd5 3.736656 1_555
Nd14 Nd7 3.736690 1_555
Nd14 Nd6 3.736703 1_556
Nd14 Nd4 3.736732 1_556
Nd15 Pt0 3.618815 1_665
Nd15 Pt1 3.618842 1_665
Nd15 Nd2 3.619732 1_655
Nd15 Nd3 3.619740 1_565
Nd15 Nd4 3.736644 1_565
Nd15 Nd6 3.736660 1_655
Nd15 Nd7 3.736845 1_565
Nd15 Nd5 3.736858 1_655
Cd0 Cd3 3.197100 1_555
Cd0 Cd2 3.197101 1_555
Cd0 Cd1 3.197334 1_555
Cd0 Nd14 3.405743 1_555
Cd0 Nd10 3.405811 1_555
Cd0 Nd12 3.405819 1_555
Cd0 Nd2 3.530252 1_555
Cd0 Nd3 3.530263 1_555
Cd0 Nd1 3.530284 1_555
Cd0 Nd9 3.598051 1_555
Cd0 Nd5 3.598051 1_555
Cd0 Nd7 3.598058 1_555
Cd1 Cd2 3.197338 1_555
Cd1 Cd3 3.197352 1_555
Cd1 Nd14 3.405503 1_554
Cd1 Nd13 3.405521 1_554
Cd1 Nd11 3.405543 1_554
Cd1 Nd3 3.530294 1_555
Cd1 Nd2 3.530307 1_555
Cd1 Nd0 3.530311 1_555
Cd1 Nd9 3.598039 1_555
Cd1 Nd4 3.598042 1_555
Cd1 Nd6 3.598052 1_555
Cd2 Cd3 3.197140 1_555
Cd2 Nd11 3.405739 1_545
Cd2 Nd12 3.405806 1_545
Cd2 Nd15 3.405808 1_545
Cd2 Nd3 3.530251 1_555
Cd2 Nd1 3.530276 1_555
Cd2 Nd0 3.530296 1_555
Cd2 Nd7 3.598019 1_555
Cd2 Nd8 3.598047 1_555
Cd2 Nd4 3.598057 1_555
Cd3 Nd13 3.405732 1_455
Cd3 Nd10 3.405793 1_455
Cd3 Nd15 3.405802 1_455
Cd3 Nd2 3.530239 1_555
Cd3 Nd1 3.530280 1_555
Cd3 Nd0 3.530300 1_555
Cd3 Nd5 3.598020 1_555
Cd3 Nd6 3.598052 1_555
Cd3 Nd8 3.598063 1_555
