# generated using pymatgen
data_Y2Cu3(SiO4)3
_symmetry_space_group_name_H-M   'P 1'
_cell_length_a   10.76710159
_cell_length_b   10.76710159
_cell_length_c   10.76710159
_cell_angle_alpha   109.47122063
_cell_angle_beta   109.47122063
_cell_angle_gamma   109.47122063
_symmetry_Int_Tables_number   1
_chemical_formula_structural   Y2Cu3(SiO4)3
_chemical_formula_sum   'Y8 Cu12 Si12 O48'
_cell_volume   960.89191932
_cell_formula_units_Z   4
loop_
 _symmetry_equiv_pos_site_id
 _symmetry_equiv_pos_as_xyz
  1  'x, y, z'
loop_
 _atom_site_type_symbol
 _atom_site_label
 _atom_site_symmetry_multiplicity
 _atom_site_fract_x
 _atom_site_fract_y
 _atom_site_fract_z
 _atom_site_occupancy
  Y  Y0  1  0.00000000  0.00000000  0.50000000  1
  Y  Y1  1  0.00000000  0.00000000  0.00000000  1
  Y  Y2  1  0.50000000  0.00000000  0.00000000  1
  Y  Y3  1  0.00000000  0.50000000  0.00000000  1
  Y  Y4  1  0.50000000  0.50000000  0.00000000  1
  Y  Y5  1  0.00000000  0.50000000  0.50000000  1
  Y  Y6  1  0.50000000  0.00000000  0.50000000  1
  Y  Y7  1  0.50000000  0.50000000  0.50000000  1
  Cu  Cu0  1  0.87500000  0.62500000  0.25000000  1
  Cu  Cu1  1  0.62500000  0.25000000  0.87500000  1
  Cu  Cu2  1  0.87500000  0.75000000  0.62500000  1
  Cu  Cu3  1  0.75000000  0.62500000  0.87500000  1
  Cu  Cu4  1  0.25000000  0.87500000  0.62500000  1
  Cu  Cu5  1  0.62500000  0.87500000  0.75000000  1
  Cu  Cu6  1  0.12500000  0.37500000  0.75000000  1
  Cu  Cu7  1  0.37500000  0.75000000  0.12500000  1
  Cu  Cu8  1  0.12500000  0.25000000  0.37500000  1
  Cu  Cu9  1  0.25000000  0.37500000  0.12500000  1
  Cu  Cu10  1  0.75000000  0.12500000  0.37500000  1
  Cu  Cu11  1  0.37500000  0.12500000  0.25000000  1
  Si  Si0  1  0.12500000  0.87500000  0.25000000  1
  Si  Si1  1  0.25000000  0.12500000  0.87500000  1
  Si  Si2  1  0.75000000  0.37500000  0.62500000  1
  Si  Si3  1  0.62500000  0.37500000  0.25000000  1
  Si  Si4  1  0.62500000  0.75000000  0.37500000  1
  Si  Si5  1  0.37500000  0.62500000  0.75000000  1
  Si  Si6  1  0.12500000  0.75000000  0.87500000  1
  Si  Si7  1  0.75000000  0.87500000  0.12500000  1
  Si  Si8  1  0.87500000  0.25000000  0.12500000  1
  Si  Si9  1  0.37500000  0.25000000  0.62500000  1
  Si  Si10  1  0.25000000  0.62500000  0.37500000  1
  Si  Si11  1  0.87500000  0.12500000  0.75000000  1
  O  O0  1  0.48052300  0.36981400  0.27668800  1
  O  O1  1  0.29616500  0.88929100  0.01947700  1
  O  O2  1  0.61070900  0.90687400  0.13018600  1
  O  O3  1  0.59312600  0.20383500  0.22331200  1
  O  O4  1  0.13018600  0.01947700  0.22331200  1
  O  O5  1  0.20383500  0.22331200  0.59312600  1
  O  O6  1  0.20383500  0.48052300  0.61070900  1
  O  O7  1  0.22331200  0.59312600  0.20383500  1
  O  O8  1  0.36981400  0.59312600  0.88929100  1
  O  O9  1  0.90687400  0.27668800  0.29616500  1
  O  O10  1  0.27668800  0.29616500  0.90687400  1
  O  O11  1  0.22331200  0.13018600  0.01947700  1
  O  O12  1  0.48052300  0.61070900  0.20383500  1
  O  O13  1  0.88929100  0.36981400  0.59312600  1
  O  O14  1  0.01947700  0.22331200  0.13018600  1
  O  O15  1  0.61070900  0.20383500  0.48052300  1
  O  O16  1  0.59312600  0.88929100  0.36981400  1
  O  O17  1  0.01947700  0.29616500  0.88929100  1
  O  O18  1  0.90687400  0.13018600  0.61070900  1
  O  O19  1  0.63018600  0.40687400  0.11070900  1
  O  O20  1  0.36981400  0.27668800  0.48052300  1
  O  O21  1  0.27668800  0.48052300  0.36981400  1
  O  O22  1  0.88929100  0.01947700  0.29616500  1
  O  O23  1  0.29616500  0.90687400  0.27668800  1
  O  O24  1  0.51947700  0.63018600  0.72331200  1
  O  O25  1  0.70383500  0.11070900  0.98052300  1
  O  O26  1  0.38929100  0.09312600  0.86981400  1
  O  O27  1  0.40687400  0.79616500  0.77668800  1
  O  O28  1  0.86981400  0.98052300  0.77668800  1
  O  O29  1  0.79616500  0.77668800  0.40687400  1
  O  O30  1  0.79616500  0.51947700  0.38929100  1
  O  O31  1  0.77668800  0.40687400  0.79616500  1
  O  O32  1  0.70383500  0.09312600  0.72331200  1
  O  O33  1  0.11070900  0.98052300  0.70383500  1
  O  O34  1  0.72331200  0.51947700  0.63018600  1
  O  O35  1  0.63018600  0.72331200  0.51947700  1
  O  O36  1  0.86981400  0.38929100  0.09312600  1
  O  O37  1  0.09312600  0.86981400  0.38929100  1
  O  O38  1  0.98052300  0.70383500  0.11070900  1
  O  O39  1  0.40687400  0.11070900  0.63018600  1
  O  O40  1  0.38929100  0.79616500  0.51947700  1
  O  O41  1  0.98052300  0.77668800  0.86981400  1
  O  O42  1  0.11070900  0.63018600  0.40687400  1
  O  O43  1  0.51947700  0.38929100  0.79616500  1
  O  O44  1  0.77668800  0.86981400  0.98052300  1
  O  O45  1  0.72331200  0.70383500  0.09312600  1
  O  O46  1  0.09312600  0.72331200  0.70383500  1
  O  O47  1  0.13018600  0.61070900  0.90687400  1
loop_
_geom_bond_atom_site_label_1
_geom_bond_atom_site_label_2
_geom_bond_distance
_geom_bond_site_symmetry_2
Cu0 O38 2.366944 1_555
Cu0 O37 2.366944 1_655
Cu0 O30 2.366944 1_555
Cu0 O19 2.366944 1_555
Cu0 O29 2.506370 1_555
Cu0 O42 2.506370 1_655
Cu0 O36 2.506370 1_555
Cu0 O45 2.506370 1_555
Cu1 O25 2.366944 1_555
Cu1 O36 2.366944 1_556
Cu1 O43 2.366944 1_555
Cu1 O39 2.366944 1_555
Cu1 O31 2.506370 1_555
Cu1 O19 2.506370 1_556
Cu1 O26 2.506370 1_555
Cu1 O32 2.506370 1_555
Cu2 O35 2.366944 1_555
Cu2 O46 2.366944 1_655
Cu2 O41 2.366944 1_555
Cu2 O29 2.366944 1_555
Cu2 O28 2.506370 1_555
Cu2 O33 2.506370 1_655
Cu2 O30 2.506370 1_555
Cu2 O34 2.506370 1_555
Cu3 O34 2.366944 1_555
Cu3 O45 2.366944 1_556
Cu3 O44 2.366944 1_555
Cu3 O31 2.366944 1_555
Cu3 O41 2.506370 1_555
Cu3 O38 2.506370 1_556
Cu3 O43 2.506370 1_555
Cu3 O24 2.506370 1_555
Cu4 O33 2.366944 1_555
Cu4 O26 2.366944 1_565
Cu4 O40 2.366944 1_555
Cu4 O42 2.366944 1_555
Cu4 O27 2.506370 1_555
Cu4 O39 2.506370 1_565
Cu4 O37 2.506370 1_555
Cu4 O46 2.506370 1_555
Cu5 O24 2.366944 1_555
Cu5 O32 2.366944 1_565
Cu5 O28 2.366944 1_555
Cu5 O27 2.366944 1_555
Cu5 O44 2.506370 1_555
Cu5 O25 2.506370 1_565
Cu5 O40 2.506370 1_555
Cu5 O35 2.506370 1_555
Cu6 O8 2.366944 1_555
Cu6 O17 2.366944 1_555
Cu6 O18 2.366944 1_455
Cu6 O6 2.366944 1_555
Cu6 O10 2.506370 1_555
Cu6 O47 2.506370 1_555
Cu6 O13 2.506370 1_455
Cu6 O5 2.506370 1_555
Cu7 O16 2.366944 1_555
Cu7 O1 2.366944 1_555
Cu7 O47 2.366944 1_554
Cu7 O12 2.366944 1_555
Cu7 O2 2.506370 1_555
Cu7 O23 2.506370 1_555
Cu7 O8 2.506370 1_554
Cu7 O7 2.506370 1_555
Cu8 O14 2.366944 1_555
Cu8 O5 2.366944 1_555
Cu8 O20 2.366944 1_555
Cu8 O9 2.366944 1_455
Cu8 O6 2.506370 1_555
Cu8 O21 2.506370 1_555
Cu8 O22 2.506370 1_455
Cu8 O4 2.506370 1_555
Cu9 O11 2.366944 1_555
Cu9 O7 2.366944 1_555
Cu9 O21 2.366944 1_555
Cu9 O10 2.366944 1_554
Cu9 O12 2.506370 1_555
Cu9 O0 2.506370 1_555
Cu9 O17 2.506370 1_554
Cu9 O14 2.506370 1_555
Cu10 O13 2.366944 1_555
Cu10 O22 2.366944 1_555
Cu10 O2 2.366944 1_545
Cu10 O15 2.366944 1_555
Cu10 O9 2.506370 1_555
Cu10 O18 2.506370 1_555
Cu10 O16 2.506370 1_545
Cu10 O3 2.506370 1_555
Cu11 O3 2.366944 1_555
Cu11 O4 2.366944 1_555
Cu11 O0 2.366944 1_555
Cu11 O23 2.366944 1_545
Cu11 O15 2.506370 1_555
Cu11 O20 2.506370 1_555
Cu11 O1 2.506370 1_545
Cu11 O11 2.506370 1_555
O0 Si3 1.660231 1_555
O0 Y7 2.238536 1_555
O1 Si6 1.660231 1_554
O1 Y2 2.238536 1_565
O2 Si7 1.660231 1_555
O2 Y2 2.238536 1_565
O3 Si3 1.660231 1_555
O3 Y2 2.238536 1_555
O4 Si0 1.660231 1_545
O4 Y1 2.238536 1_555
O5 Si9 1.660231 1_555
O5 Y0 2.238536 1_555
O6 Si5 1.660231 1_555
O6 Y5 2.238536 1_555
O7 Si10 1.660231 1_555
O7 Y3 2.238536 1_555
O8 Si5 1.660231 1_555
O8 Y4 2.238536 1_556
O9 Si8 1.660231 1_555
O9 Y5 2.238536 1_655
O10 Si1 1.660231 1_555
O10 Y4 2.238536 1_556
O11 Si1 1.660231 1_554
O11 Y1 2.238536 1_555
O12 Si4 1.660231 1_555
O12 Y4 2.238536 1_555
O13 Si2 1.660231 1_555
O13 Y5 2.238536 1_655
O14 Si8 1.660231 1_455
O14 Y1 2.238536 1_555
O15 Si2 1.660231 1_555
O15 Y6 2.238536 1_555
O16 Si4 1.660231 1_555
O16 Y6 2.238536 1_565
O17 Si11 1.660231 1_455
O17 Y3 2.238536 1_556
O18 Si11 1.660231 1_555
O18 Y0 2.238536 1_655
O19 Si3 1.660231 1_555
O19 Y4 2.238536 1_555
O20 Si9 1.660231 1_555
O20 Y7 2.238536 1_555
O21 Si10 1.660231 1_555
O21 Y7 2.238536 1_555
O22 Si7 1.660231 1_545
O22 Y0 2.238536 1_655
O23 Si0 1.660231 1_555
O23 Y6 2.238536 1_565
O24 Si5 1.660231 1_555
O24 Y7 2.238536 1_555
O25 Si8 1.660231 1_556
O25 Y2 2.238536 1_556
O26 Si1 1.660231 1_555
O26 Y2 2.238536 1_556
O27 Si5 1.660231 1_555
O27 Y2 2.238536 1_566
O28 Si11 1.660231 1_565
O28 Y1 2.238536 1_666
O29 Si4 1.660231 1_555
O29 Y0 2.238536 1_665
O30 Si3 1.660231 1_555
O30 Y5 2.238536 1_655
O31 Si2 1.660231 1_555
O31 Y3 2.238536 1_656
O32 Si11 1.660231 1_555
O32 Y6 2.238536 1_555
O33 Si1 1.660231 1_565
O33 Y0 2.238536 1_565
O34 Si2 1.660231 1_555
O34 Y7 2.238536 1_555
O35 Si4 1.660231 1_555
O35 Y7 2.238536 1_555
O36 Si8 1.660231 1_555
O36 Y3 2.238536 1_655
O37 Si0 1.660231 1_555
O37 Y0 2.238536 1_565
O38 Si0 1.660231 1_655
O38 Y3 2.238536 1_655
O39 Si9 1.660231 1_555
O39 Y6 2.238536 1_555
O40 Si10 1.660231 1_555
O40 Y6 2.238536 1_565
O41 Si6 1.660231 1_655
O41 Y1 2.238536 1_666
O42 Si10 1.660231 1_555
O42 Y5 2.238536 1_555
O43 Si9 1.660231 1_555
O43 Y4 2.238536 1_556
O44 Si7 1.660231 1_556
O44 Y1 2.238536 1_666
O45 Si7 1.660231 1_555
O45 Y4 2.238536 1_555
O46 Si6 1.660231 1_555
O46 Y5 2.238536 1_555
O47 Si6 1.660231 1_555
O47 Y3 2.238536 1_556
