# generated using pymatgen
data_KNaSrMg5(SiO3)8
_symmetry_space_group_name_H-M   'P 1'
_cell_length_a   5.28297472
_cell_length_b   10.25497371
_cell_length_c   10.62560383
_cell_angle_alpha   65.10281796
_cell_angle_beta   82.54755470
_cell_angle_gamma   104.27014182
_symmetry_Int_Tables_number   1
_chemical_formula_structural   KNaSrMg5(SiO3)8
_chemical_formula_sum   'K1 Na1 Sr1 Mg5 Si8 O24'
_cell_volume   487.87558439
_cell_formula_units_Z   1
loop_
 _symmetry_equiv_pos_site_id
 _symmetry_equiv_pos_as_xyz
  1  'x, y, z'
loop_
 _atom_site_type_symbol
 _atom_site_label
 _atom_site_symmetry_multiplicity
 _atom_site_fract_x
 _atom_site_fract_y
 _atom_site_fract_z
 _atom_site_occupancy
  K  K0  1  0.50784100  0.48885300  0.00605300  1
  Na  Na0  1  0.77897400  0.27870800  0.44280300  1
  Sr  Sr0  1  0.21538300  0.71530400  0.56956700  1
  Mg  Mg0  1  0.60015200  0.10031000  0.79887200  1
  Mg  Mg1  1  0.40163000  0.90167100  0.19628500  1
  Mg  Mg2  1  0.18450200  0.18450500  0.63065600  1
  Mg  Mg3  1  0.82123800  0.82105400  0.35739200  1
  Mg  Mg4  1  0.99999100  0.00021400  0.99899000  1
  Si  Si0  1  0.11997400  0.81475500  0.83323400  1
  Si  Si1  1  0.94866500  0.64384300  0.16947600  1
  Si  Si2  1  0.88206100  0.18638100  0.16942800  1
  Si  Si3  1  0.04680800  0.35180700  0.83303200  1
  Si  Si4  1  0.70529000  0.88884900  0.65839100  1
  Si  Si5  1  0.35573700  0.54402500  0.34095600  1
  Si  Si6  1  0.30312500  0.11446400  0.34122600  1
  Si  Si7  1  0.63628400  0.45246400  0.65807200  1
  O  O0  1  0.69333800  0.87840000  0.51263200  1
  O  O1  1  0.19747500  0.39557000  0.49090400  1
  O  O2  1  0.31223900  0.11350900  0.49080400  1
  O  O3  1  0.79458800  0.60866800  0.51266500  1
  O  O4  1  0.78542100  0.05184900  0.65691700  1
  O  O5  1  0.43723200  0.70864300  0.34297300  1
  O  O6  1  0.22006100  0.94804700  0.34302600  1
  O  O7  1  0.55768700  0.29086800  0.65688800  1
  O  O8  1  0.18721800  0.98073900  0.82286800  1
  O  O9  1  0.00934400  0.80242900  0.17740700  1
  O  O10  1  0.81326900  0.01991400  0.17753100  1
  O  O11  1  0.98973700  0.19621800  0.82274200  1
  O  O12  1  0.89715200  0.78660900  0.74201300  1
  O  O13  1  0.63389900  0.53028400  0.25678200  1
  O  O14  1  0.10969400  0.21261700  0.25664500  1
  O  O15  1  0.36086900  0.47093400  0.74207100  1
  O  O16  1  0.38511100  0.78114800  0.76922800  1
  O  O17  1  0.15606500  0.55151500  0.22764500  1
  O  O18  1  0.61618700  0.22072900  0.22733200  1
  O  O19  1  0.84493200  0.44917800  0.76958400  1
  O  O20  1  0.55850300  0.93711000  0.99835000  1
  O  O21  1  0.44312300  0.06520200  0.99847100  1
  O  O22  1  0.97849600  0.67646900  0.00007600  1
  O  O23  1  0.02080500  0.32344400  0.00001300  1
loop_
_geom_bond_atom_site_label_1
_geom_bond_atom_site_label_2
_geom_bond_distance
_geom_bond_site_symmetry_2
K0 O22 2.717720 1_555
K0 O23 2.735802 1_555
K0 O14 2.966084 1_555
K0 O13 2.999253 1_555
K0 O18 3.016263 1_555
K0 O15 3.071336 1_554
K0 O12 3.101476 1_554
K0 O19 3.115679 1_554
K0 O17 3.184046 1_555
K0 O16 3.281460 1_554
Na0 O1 2.467442 1_655
Na0 O2 2.469205 1_555
Na0 O7 2.485504 1_555
Na0 O4 2.488407 1_555
Na0 O17 2.776293 1_655
Na0 O18 2.782055 1_555
Na0 O13 2.867817 1_555
Na0 O14 2.870668 1_655
Mg0 O7 1.991676 1_555
Mg0 O4 1.992007 1_555
Mg0 O20 2.013123 1_545
Mg0 O21 2.017252 1_555
Mg0 O8 2.145073 1_545
Mg0 O11 2.148309 1_555
Mg1 O20 1.999518 1_554
Mg1 O21 2.002427 1_564
Mg1 O6 2.009655 1_555
Mg1 O5 2.011209 1_555
Mg1 O9 2.147306 1_555
Mg1 O10 2.150215 1_565
Mg2 O2 2.021567 1_555
Mg2 O1 2.022107 1_555
Mg2 O4 2.118347 1_455
Mg2 O7 2.119608 1_555
Mg2 O11 2.227447 1_455
Mg2 O8 2.228669 1_545
Mg3 O0 2.060788 1_555
Mg3 O3 2.061211 1_555
Mg3 O5 2.131755 1_555
Mg3 O6 2.134269 1_655
Mg3 O9 2.142340 1_655
Mg3 O10 2.143509 1_565
Mg4 O8 2.110045 1_645
Mg4 O11 2.112068 1_555
Mg4 O9 2.132252 1_646
Mg4 O10 2.132696 1_556
Mg4 O20 2.263295 1_545
Mg4 O21 2.269168 1_655
O0 Si4 1.604976 1_555
O0 Sr0 2.491774 1_555
O1 Si5 1.593712 1_555
O2 Si6 1.592309 1_555
O3 Si7 1.604075 1_555
O3 Sr0 2.492041 1_655
O4 Si4 1.612748 1_545
O5 Si5 1.646278 1_555
O5 Sr0 2.573178 1_555
O6 Si6 1.645164 1_565
O6 Sr0 2.570925 1_555
O7 Si7 1.611969 1_555
O8 Si0 1.602989 1_555
O9 Si1 1.618669 1_455
O10 Si2 1.617407 1_555
O11 Si3 1.602171 1_655
O12 Si0 1.665102 1_655
O12 Si4 1.699799 1_555
O12 Sr0 2.766535 1_655
O13 Si1 1.648492 1_555
O13 Si5 1.687175 1_555
O14 Si2 1.648317 1_455
O14 Si6 1.687831 1_555
O15 Si3 1.664342 1_555
O15 Si7 1.700260 1_555
O15 Sr0 2.770919 1_555
O16 Si0 1.652734 1_555
O16 Si4 1.713198 1_555
O16 Sr0 2.676177 1_555
O17 Si1 1.635054 1_455
O17 Si5 1.691089 1_555
O18 Si2 1.636381 1_555
O18 Si6 1.693914 1_555
O19 Si3 1.653400 1_655
O19 Si7 1.715694 1_555
O19 Sr0 2.683173 1_655
O20 O21 1.578922 1_565
O22 Si0 1.652114 1_654
O22 Si1 1.664346 1_555
O23 Si3 1.653504 1_554
O23 Si2 1.665174 1_455
