# generated using pymatgen
data_MgO
_symmetry_space_group_name_H-M   'P 1'
_cell_length_a   11.30418178
_cell_length_b   11.30418178
_cell_length_c   11.30418178
_cell_angle_alpha   158.77332520
_cell_angle_beta   148.77993003
_cell_angle_gamma   38.06255685
_symmetry_Int_Tables_number   1
_chemical_formula_structural   MgO
_chemical_formula_sum   'Mg12 O12'
_cell_volume   270.70964618
_cell_formula_units_Z   12
loop_
 _symmetry_equiv_pos_site_id
 _symmetry_equiv_pos_as_xyz
  1  'x, y, z'
loop_
 _atom_site_type_symbol
 _atom_site_label
 _atom_site_symmetry_multiplicity
 _atom_site_fract_x
 _atom_site_fract_y
 _atom_site_fract_z
 _atom_site_occupancy
  Mg  Mg0  1  0.88028907  0.54750093  0.33279013  1
  Mg  Mg1  1  0.11971093  0.45249907  0.66720987  1
  Mg  Mg2  1  0.78528920  0.95249907  0.83279013  1
  Mg  Mg3  1  0.21471080  0.04750093  0.16720987  1
  Mg  Mg4  1  0.04388280  0.70947095  0.33441286  1
  Mg  Mg5  1  0.95611720  0.29052905  0.66558714  1
  Mg  Mg6  1  0.62494191  0.79052905  0.83441286  1
  Mg  Mg7  1  0.37505809  0.20947095  0.16558714  1
  Mg  Mg8  1  0.79323136  0.12829069  0.66494067  1
  Mg  Mg9  1  0.20676864  0.87170931  0.33505933  1
  Mg  Mg10  1  0.53665098  0.37170931  0.16494067  1
  Mg  Mg11  1  0.46334902  0.62829069  0.83505933  1
  O  O0  1  0.79385343  0.62834842  0.16550400  1
  O  O1  1  0.20614657  0.37165158  0.83449600  1
  O  O2  1  0.53715458  0.87165158  0.66550400  1
  O  O3  1  0.46284542  0.12834842  0.33449600  1
  O  O4  1  0.87629354  0.04755475  0.82873879  1
  O  O5  1  0.12370646  0.95244525  0.17126121  1
  O  O6  1  0.78118404  0.45244525  0.32873879  1
  O  O7  1  0.21881596  0.54755475  0.67126121  1
  O  O8  1  0.04369537  0.20941163  0.83428174  1
  O  O9  1  0.95630463  0.79058837  0.16571826  1
  O  O10  1  0.62487011  0.29058837  0.33428174  1
  O  O11  1  0.37512989  0.70941163  0.66571826  1
loop_
_geom_bond_atom_site_label_1
_geom_bond_atom_site_label_2
_geom_bond_distance
_geom_bond_site_symmetry_2
Mg0 O0 2.005378 1_555
Mg0 O6 2.031716 1_555
Mg0 O7 2.059146 1_655
Mg0 O4 2.082148 1_565
Mg0 O4 2.082156 1_554
Mg1 O1 2.005378 1_555
Mg1 O7 2.031716 1_555
Mg1 O6 2.059146 1_455
Mg1 O5 2.082148 1_545
Mg1 O5 2.082156 1_556
Mg2 O2 2.005365 1_555
Mg2 O4 2.031737 1_565
Mg2 O5 2.059140 1_656
Mg2 O6 2.082152 1_566
Mg2 O6 2.082152 1_555
Mg3 O3 2.005365 1_555
Mg3 O5 2.031737 1_545
Mg3 O4 2.059140 1_454
Mg3 O7 2.082152 1_544
Mg3 O7 2.082152 1_555
Mg4 O9 2.014672 1_455
Mg4 O0 2.015416 1_455
Mg4 O11 2.015550 1_555
Mg4 O8 2.082000 1_565
Mg4 O8 2.082013 1_554
Mg5 O8 2.014672 1_655
Mg5 O1 2.015416 1_655
Mg5 O10 2.015550 1_555
Mg5 O9 2.082000 1_545
Mg5 O9 2.082013 1_556
Mg6 O11 2.014679 1_555
Mg6 O2 2.015430 1_555
Mg6 O9 2.015541 1_556
Mg6 O10 2.082006 1_555
Mg6 O10 2.082006 1_566
Mg7 O10 2.014679 1_555
Mg7 O3 2.015430 1_555
Mg7 O8 2.015541 1_554
Mg7 O11 2.082006 1_544
Mg7 O11 2.082006 1_555
Mg8 O4 1.992605 1_555
Mg8 O3 2.010307 1_555
Mg8 O8 2.016772 1_655
Mg8 O0 2.082007 1_556
Mg8 O0 2.082011 1_545
Mg9 O5 1.992605 1_555
Mg9 O2 2.010307 1_555
Mg9 O9 2.016772 1_455
Mg9 O1 2.082007 1_554
Mg9 O1 2.082011 1_565
Mg10 O6 1.992594 1_555
Mg10 O1 2.010316 1_554
Mg10 O10 2.016758 1_555
Mg10 O2 2.082005 1_544
Mg10 O2 2.082013 1_555
Mg11 O7 1.992594 1_555
Mg11 O0 2.010316 1_556
Mg11 O11 2.016758 1_555
Mg11 O3 2.082005 1_566
Mg11 O3 2.082013 1_555
