# generated using pymatgen
data_CsGa(SO4)2
_symmetry_space_group_name_H-M   'P 1'
_cell_length_a   4.92670775
_cell_length_b   4.92670775
_cell_length_c   8.83042000
_cell_angle_alpha   90.00000000
_cell_angle_beta   90.00000000
_cell_angle_gamma   119.99999669
_symmetry_Int_Tables_number   1
_chemical_formula_structural   CsGa(SO4)2
_chemical_formula_sum   'Cs1 Ga1 S2 O8'
_cell_volume   185.62035926
_cell_formula_units_Z   1
loop_
 _symmetry_equiv_pos_site_id
 _symmetry_equiv_pos_as_xyz
  1  'x, y, z'
loop_
 _atom_site_type_symbol
 _atom_site_label
 _atom_site_symmetry_multiplicity
 _atom_site_fract_x
 _atom_site_fract_y
 _atom_site_fract_z
 _atom_site_occupancy
  Cs  Cs0  1  0.00000000  0.00000000  0.50000000  1
  Ga  Ga0  1  0.00000000  0.00000000  0.00000000  1
  S  S0  1  0.33333300  0.66666700  0.19931200  1
  S  S1  1  0.66666700  0.33333300  0.80068800  1
  O  O0  1  0.08854900  0.35051400  0.14346400  1
  O  O1  1  0.64948600  0.73803500  0.14346400  1
  O  O2  1  0.35051400  0.08854900  0.85653600  1
  O  O3  1  0.26196500  0.91145100  0.14346400  1
  O  O4  1  0.73803500  0.64948600  0.85653600  1
  O  O5  1  0.91145100  0.26196500  0.85653600  1
  O  O6  1  0.33333300  0.66666700  0.36457500  1
  O  O7  1  0.66666700  0.33333300  0.63542500  1
loop_
_geom_bond_atom_site_label_1
_geom_bond_atom_site_label_2
_geom_bond_distance
_geom_bond_site_symmetry_2
Cs0 O6 3.085592 1_545
Cs0 O7 3.085592 1_455
Cs0 O6 3.085596 1_445
Cs0 O7 3.085596 1_445
Cs0 O6 3.085596 1_555
Cs0 O7 3.085596 1_555
Ga0 O3 2.005985 1_545
Ga0 O5 2.005985 1_454
Ga0 O0 2.005985 1_555
Ga0 O2 2.005985 1_554
Ga0 O1 2.005985 1_445
Ga0 O4 2.005985 1_444
O0 S0 1.498421 1_555
O1 S0 1.498423 1_555
O2 S1 1.498421 1_555
O3 S0 1.498418 1_555
O4 S1 1.498423 1_555
O5 S1 1.498418 1_555
O6 S0 1.459342 1_555
O7 S1 1.459342 1_555
