# generated using pymatgen
data_Lu3PbC
_symmetry_space_group_name_H-M   'P 1'
_cell_length_a   4.75169539
_cell_length_b   4.75169539
_cell_length_c   4.75169539
_cell_angle_alpha   90.00000000
_cell_angle_beta   90.00000000
_cell_angle_gamma   90.00000000
_symmetry_Int_Tables_number   1
_chemical_formula_structural   Lu3PbC
_chemical_formula_sum   'Lu3 Pb1 C1'
_cell_volume   107.28667267
_cell_formula_units_Z   1
loop_
 _symmetry_equiv_pos_site_id
 _symmetry_equiv_pos_as_xyz
  1  'x, y, z'
loop_
 _atom_site_type_symbol
 _atom_site_label
 _atom_site_symmetry_multiplicity
 _atom_site_fract_x
 _atom_site_fract_y
 _atom_site_fract_z
 _atom_site_occupancy
  Lu  Lu0  1  0.50000000  0.00000000  -0.00000000  1
  Lu  Lu1  1  -0.00000000  0.50000000  -0.00000000  1
  Lu  Lu2  1  -0.00000000  -0.00000000  0.50000000  1
  Pb  Pb0  1  0.50000000  0.50000000  0.50000000  1
  C  C0  1  -0.00000000  -0.00000000  -0.00000000  1
loop_
_geom_bond_atom_site_label_1
_geom_bond_atom_site_label_2
_geom_bond_distance
_geom_bond_site_symmetry_2
Lu0 Pb0 3.359956 1_555
Lu0 Pb0 3.359956 1_545
Lu0 Pb0 3.359956 1_554
Lu0 Pb0 3.359956 1_544
Lu1 Pb0 3.359956 1_555
Lu1 Pb0 3.359956 1_455
Lu1 Pb0 3.359956 1_554
Lu1 Pb0 3.359956 1_454
Lu2 Pb0 3.359956 1_555
Lu2 Pb0 3.359956 1_545
Lu2 Pb0 3.359956 1_455
Lu2 Pb0 3.359956 1_445
C0 Lu0 2.375848 1_555
C0 Lu1 2.375848 1_545
C0 Lu1 2.375848 1_555
C0 Lu0 2.375848 1_455
C0 Lu2 2.375848 1_555
C0 Lu2 2.375848 1_554
