# generated using pymatgen
data_YMg6V
_symmetry_space_group_name_H-M   'P 1'
_cell_length_a   5.09273400
_cell_length_b   6.50806600
_cell_length_c   11.20038900
_cell_angle_alpha   90.00000000
_cell_angle_beta   90.00000000
_cell_angle_gamma   90.00000000
_symmetry_Int_Tables_number   1
_chemical_formula_structural   YMg6V
_chemical_formula_sum   'Y2 Mg12 V2'
_cell_volume   371.22400167
_cell_formula_units_Z   2
loop_
 _symmetry_equiv_pos_site_id
 _symmetry_equiv_pos_as_xyz
  1  'x, y, z'
loop_
 _atom_site_type_symbol
 _atom_site_label
 _atom_site_symmetry_multiplicity
 _atom_site_fract_x
 _atom_site_fract_y
 _atom_site_fract_z
 _atom_site_occupancy
  Y  Y0  1  0.00000000  0.50000000  0.32651900  1
  Y  Y1  1  0.00000000  0.00000000  0.82651900  1
  Mg  Mg0  1  0.00000000  0.25985800  0.08209300  1
  Mg  Mg1  1  0.00000000  0.74014200  0.08209300  1
  Mg  Mg2  1  0.00000000  0.50000000  0.83775200  1
  Mg  Mg3  1  0.50000000  0.25479200  0.91918700  1
  Mg  Mg4  1  0.50000000  0.74520800  0.91918700  1
  Mg  Mg5  1  0.50000000  0.50000000  0.66560700  1
  Mg  Mg6  1  0.00000000  0.75985800  0.58209300  1
  Mg  Mg7  1  0.00000000  0.24014200  0.58209300  1
  Mg  Mg8  1  0.00000000  0.00000000  0.33775200  1
  Mg  Mg9  1  0.50000000  0.75479200  0.41918700  1
  Mg  Mg10  1  0.50000000  0.24520800  0.41918700  1
  Mg  Mg11  1  0.50000000  0.00000000  0.16560700  1
  V  V0  1  0.50000000  0.50000000  0.16756200  1
  V  V1  1  0.50000000  0.00000000  0.66756200  1
loop_
_geom_bond_atom_site_label_1
_geom_bond_atom_site_label_2
_geom_bond_distance
_geom_bond_site_symmetry_2
Mg0 Mg1 3.125720 1_555
Mg0 Mg3 3.132774 1_454
Mg0 Mg3 3.132774 1_554
Mg0 V0 3.137342 1_555
Mg0 V0 3.137342 1_455
Mg0 Mg2 3.151529 1_554
Mg0 Y0 3.152356 1_555
Mg0 Mg11 3.196718 1_455
Mg0 Mg11 3.196718 1_555
Mg0 Y1 3.324776 1_554
Mg0 Mg8 3.325595 1_555
Mg0 Mg1 3.382346 1_545
Mg1 Mg4 3.132774 1_554
Mg1 Mg4 3.132774 1_454
Mg1 V0 3.137342 1_555
Mg1 V0 3.137342 1_455
Mg1 Mg2 3.151529 1_554
Mg1 Y0 3.152356 1_555
Mg1 Mg11 3.196718 1_465
Mg1 Mg11 3.196718 1_565
Mg1 Y1 3.324776 1_564
Mg1 Mg8 3.325595 1_565
Mg2 Mg4 3.140476 1_455
Mg2 Mg4 3.140476 1_555
Mg2 Mg3 3.140476 1_455
Mg2 Mg3 3.140476 1_555
Mg2 Mg5 3.193982 1_455
Mg2 Mg5 3.193982 1_555
Mg2 Y1 3.256464 1_565
Mg2 Y1 3.256464 1_555
Mg2 Mg6 3.325595 1_555
Mg2 Mg7 3.325595 1_555
Mg3 Mg4 3.191660 1_555
Mg3 V0 3.207120 1_556
Mg3 Y1 3.211058 1_555
Mg3 Y1 3.211058 1_655
Mg3 Mg5 3.257818 1_555
Mg3 V1 3.269930 1_555
Mg3 Mg4 3.316406 1_545
Mg4 V0 3.207120 1_556
Mg4 Y1 3.211058 1_565
Mg4 Y1 3.211058 1_665
Mg4 Mg5 3.257818 1_555
Mg4 V1 3.269930 1_565
Mg5 Mg6 3.196718 1_655
Mg5 Mg6 3.196718 1_555
Mg5 Mg7 3.196718 1_655
Mg5 Mg7 3.196718 1_555
Mg5 Mg9 3.219819 1_555
Mg5 V1 3.254107 1_565
Mg5 V1 3.254107 1_555
Mg6 Mg7 3.125720 1_565
Mg6 Mg9 3.132774 1_455
Mg6 Mg9 3.132774 1_555
Mg6 V1 3.137342 1_465
Mg6 V1 3.137342 1_565
Mg6 Mg8 3.151529 1_565
Mg6 Y1 3.152356 1_565
Mg6 Y0 3.324776 1_555
Mg6 Mg7 3.382346 1_555
Mg7 V1 3.137342 1_455
Mg7 V1 3.137342 1_555
Mg7 Mg8 3.151529 1_555
Mg7 Y1 3.152356 1_555
Mg7 Y0 3.324776 1_555
Mg8 Mg9 3.140476 1_545
Mg8 Mg9 3.140476 1_445
Mg8 Y0 3.256464 1_555
Mg8 Y0 3.256464 1_545
Mg9 V1 3.207120 1_565
Mg9 Y0 3.211058 1_555
Mg9 Y0 3.211058 1_655
Mg9 V0 3.269930 1_555
Mg10 Mg7 3.132774 1_555
Mg10 Mg7 3.132774 1_655
Mg10 Mg8 3.140476 1_555
Mg10 Mg8 3.140476 1_655
Mg10 Mg9 3.191660 1_545
Mg10 V1 3.207120 1_555
Mg10 Y0 3.211058 1_655
Mg10 Y0 3.211058 1_555
Mg10 Mg5 3.219819 1_555
Mg10 Mg11 3.257818 1_555
Mg10 V0 3.269930 1_555
Mg10 Mg9 3.316406 1_555
Mg11 Mg8 3.193982 1_655
Mg11 Mg8 3.193982 1_555
Mg11 Mg3 3.219819 1_554
Mg11 Mg4 3.219819 1_544
Mg11 V0 3.254107 1_555
Mg11 V0 3.254107 1_545
Mg11 Mg9 3.257818 1_545
V0 Y0 3.107047 1_555
V0 Y0 3.107047 1_655
V1 Y1 3.107047 1_555
V1 Y1 3.107047 1_655
