# generated using pymatgen
data_Li7Mn2Fe6(PO4)8
_symmetry_space_group_name_H-M   'P 1'
_cell_length_a   7.73785800
_cell_length_b   7.76191128
_cell_length_c   10.40472837
_cell_angle_alpha   90.25169613
_cell_angle_beta   90.28596443
_cell_angle_gamma   103.77172167
_symmetry_Int_Tables_number   1
_chemical_formula_structural   Li7Mn2Fe6(PO4)8
_chemical_formula_sum   'Li7 Mn2 Fe6 P8 O32'
_cell_volume   606.93121507
_cell_formula_units_Z   1
loop_
 _symmetry_equiv_pos_site_id
 _symmetry_equiv_pos_as_xyz
  1  'x, y, z'
loop_
 _atom_site_type_symbol
 _atom_site_label
 _atom_site_symmetry_multiplicity
 _atom_site_fract_x
 _atom_site_fract_y
 _atom_site_fract_z
 _atom_site_occupancy
  Li  Li0  1  0.74995100  0.74545600  0.49703500  1
  Li  Li1  1  0.49538200  0.99996400  0.49682300  1
  Li  Li2  1  0.25105700  0.25226600  0.49574800  1
  Li  Li3  1  0.00213300  0.50082700  0.49609900  1
  Li  Li4  1  0.75279100  0.24692300  0.00688600  1
  Li  Li5  1  0.49953700  0.49654400  0.00239200  1
  Li  Li6  1  0.23982200  0.75568500  0.00086500  1
  Mn  Mn0  1  0.38446800  0.13614200  0.78362500  1
  Mn  Mn1  1  0.88805900  0.63836800  0.78397100  1
  Fe  Fe0  1  0.88259900  0.12997200  0.72577900  1
  Fe  Fe1  1  0.39093300  0.64067800  0.71845200  1
  Fe  Fe2  1  0.61046800  0.36058300  0.27935700  1
  Fe  Fe3  1  0.11117800  0.86455600  0.27604100  1
  Fe  Fe4  1  0.11033900  0.35751400  0.21769300  1
  Fe  Fe5  1  0.61229700  0.86295700  0.21842300  1
  P  P0  1  0.67095000  0.91958400  0.90698900  1
  P  P1  1  0.16844800  0.42083600  0.90064200  1
  P  P2  1  0.66611000  0.40990600  0.59227900  1
  P  P3  1  0.16073500  0.91574600  0.59146300  1
  P  P4  1  0.83471400  0.08522600  0.41018900  1
  P  P5  1  0.33415000  0.58545500  0.40691000  1
  P  P6  1  0.33314000  0.08365600  0.09508600  1
  P  P7  1  0.83452100  0.58120100  0.09671300  1
  O  O0  1  0.28031700  0.02166800  0.95656300  1
  O  O1  1  0.77056300  0.52035500  0.95787000  1
  O  O2  1  0.00390300  0.26490700  0.88326100  1
  O  O3  1  0.51120900  0.75894600  0.89857400  1
  O  O4  1  0.64401900  0.09070000  0.83158100  1
  O  O5  1  0.33854100  0.38755400  0.83378500  1
  O  O6  1  0.83365400  0.89105000  0.82527500  1
  O  O7  1  0.14000300  0.59357500  0.83463800  1
  O  O8  1  0.11759300  0.08181900  0.66348600  1
  O  O9  1  0.83243400  0.36683200  0.66383800  1
  O  O10  1  0.63371300  0.57636900  0.66574900  1
  O  O11  1  0.32774600  0.88357200  0.66498700  1
  O  O12  1  0.50329300  0.25221400  0.59285800  1
  O  O13  1  0.00220400  0.75377000  0.59249600  1
  O  O14  1  0.77689400  0.02727800  0.55203000  1
  O  O15  1  0.27186700  0.52268300  0.54490900  1
  O  O16  1  0.22596700  0.98128300  0.45565800  1
  O  O17  1  0.73132400  0.47561600  0.45616300  1
  O  O18  1  0.99545900  0.24507400  0.40679400  1
  O  O19  1  0.49550300  0.74603400  0.40735500  1
  O  O20  1  0.37043900  0.41834400  0.33627400  1
  O  O21  1  0.16634400  0.62031500  0.33580100  1
  O  O22  1  0.66454100  0.11827000  0.34221000  1
  O  O23  1  0.86636600  0.91538300  0.34167500  1
  O  O24  1  0.17348900  0.12134500  0.17259400  1
  O  O25  1  0.86422400  0.40951100  0.16624700  1
  O  O26  1  0.66734100  0.61919700  0.16674900  1
  O  O27  1  0.37008900  0.91584900  0.16619000  1
  O  O28  1  0.49553600  0.24534200  0.09725800  1
  O  O29  1  0.99875900  0.73465200  0.10063400  1
  O  O30  1  0.22077100  0.47058200  0.04211800  1
  O  O31  1  0.72210900  0.97986400  0.04491900  1
loop_
_geom_bond_atom_site_label_1
_geom_bond_atom_site_label_2
_geom_bond_distance
_geom_bond_site_symmetry_2
Li0 O17 2.106247 1_555
Li0 O23 2.152137 1_555
Li0 O13 2.172722 1_655
Li0 O19 2.175567 1_555
Li0 O14 2.219601 1_565
Li0 O10 2.255430 1_555
Li1 O16 2.096915 1_555
Li1 O22 2.146206 1_565
Li1 O19 2.176257 1_555
Li1 O12 2.181939 1_565
Li1 O14 2.210532 1_565
Li1 O11 2.244731 1_555
Li2 O16 2.105425 1_545
Li2 O15 2.126499 1_555
Li2 O18 2.167965 1_455
Li2 O20 2.176105 1_555
Li2 O12 2.193399 1_555
Li2 O8 2.291413 1_555
Li3 O17 2.096988 1_455
Li3 O15 2.112589 1_555
Li3 O21 2.174884 1_555
Li3 O18 2.177458 1_455
Li3 O13 2.200634 1_555
Li3 O9 2.289228 1_455
Li4 O31 2.069702 1_545
Li4 O25 2.129482 1_555
Li4 O1 2.157464 1_554
Li4 O28 2.203171 1_555
Li4 O4 2.232729 1_554
Li4 O2 2.312341 1_654
Li5 O1 2.114886 1_554
Li5 O30 2.160326 1_555
Li5 O28 2.182993 1_555
Li5 O5 2.192848 1_554
Li5 O26 2.211719 1_555
Li5 O3 2.292602 1_554
Li6 O0 2.067553 1_564
Li6 O29 2.111743 1_455
Li6 O7 2.162409 1_554
Li6 O27 2.210832 1_555
Li6 O30 2.226376 1_555
Li6 O3 2.353815 1_554
Mn0 O0 2.089095 1_555
Mn0 O5 2.128348 1_555
Mn0 O4 2.176175 1_555
Mn0 O11 2.263473 1_545
Mn0 O12 2.288310 1_555
Mn0 O8 2.357914 1_555
Mn1 O7 2.124484 1_655
Mn1 O1 2.138681 1_555
Mn1 O6 2.143851 1_555
Mn1 O10 2.266660 1_555
Mn1 O13 2.282120 1_655
Mn1 O9 2.393606 1_555
Fe0 O2 2.040679 1_655
Fe0 O8 2.049242 1_655
Fe0 O14 2.057846 1_555
Fe0 O9 2.072136 1_555
Fe0 O6 2.083425 1_545
Fe0 O4 2.113802 1_555
Fe1 O15 2.124899 1_555
Fe1 O10 2.129160 1_555
Fe1 O11 2.132680 1_555
Fe1 O3 2.186755 1_555
Fe1 O7 2.248209 1_555
Fe1 O5 2.260723 1_555
Fe2 O20 2.099146 1_555
Fe2 O22 2.126721 1_555
Fe2 O17 2.151002 1_555
Fe2 O28 2.184129 1_555
Fe2 O25 2.248705 1_555
Fe2 O26 2.280587 1_555
Fe3 O21 2.134432 1_555
Fe3 O23 2.139348 1_455
Fe3 O29 2.157455 1_455
Fe3 O16 2.165152 1_555
Fe3 O24 2.220405 1_565
Fe3 O27 2.263994 1_555
Fe4 O24 2.059249 1_555
Fe4 O25 2.105666 1_455
Fe4 O30 2.123737 1_555
Fe4 O18 2.255280 1_455
Fe4 O20 2.305101 1_555
Fe4 O21 2.326087 1_555
Fe5 O27 2.081957 1_555
Fe5 O26 2.104124 1_555
Fe5 O31 2.113527 1_555
Fe5 O19 2.268833 1_555
Fe5 O23 2.294443 1_555
Fe5 O22 2.310941 1_565
O0 P6 1.539575 1_556
O1 P7 1.559006 1_556
O2 P1 1.542968 1_555
O3 P0 1.534386 1_555
O4 P0 1.600751 1_545
O5 P1 1.565995 1_555
O6 P0 1.580738 1_555
O7 P1 1.569989 1_555
O8 P3 1.591707 1_545
O9 P2 1.587442 1_555
O10 P2 1.569745 1_555
O11 P3 1.569430 1_555
O12 P2 1.533422 1_555
O13 P3 1.533466 1_555
O14 P4 1.580230 1_555
O15 P5 1.559665 1_555
O16 P3 1.549626 1_555
O17 P2 1.552894 1_555
O18 P4 1.534215 1_555
O19 P5 1.539916 1_555
O20 P5 1.571166 1_555
O21 P5 1.570370 1_555
O22 P4 1.566222 1_555
O23 P4 1.566305 1_565
O24 P6 1.562683 1_555
O25 P7 1.582665 1_555
O26 P7 1.574990 1_555
O27 P6 1.584058 1_565
O28 P6 1.550222 1_555
O29 P7 1.521106 1_555
O30 P1 1.547410 1_554
O31 P0 1.528219 1_554
