# generated using pymatgen
data_Al13Rh4
_symmetry_space_group_name_H-M   'P 1'
_cell_length_a   8.33002300
_cell_length_b   8.89981208
_cell_length_c   12.91243358
_cell_angle_alpha   105.97398395
_cell_angle_beta   90.00000000
_cell_angle_gamma   117.90381416
_symmetry_Int_Tables_number   1
_chemical_formula_structural   Al13Rh4
_chemical_formula_sum   'Al39 Rh12'
_cell_volume   803.90925739
_cell_formula_units_Z   3
loop_
 _symmetry_equiv_pos_site_id
 _symmetry_equiv_pos_as_xyz
  1  'x, y, z'
loop_
 _atom_site_type_symbol
 _atom_site_label
 _atom_site_symmetry_multiplicity
 _atom_site_fract_x
 _atom_site_fract_y
 _atom_site_fract_z
 _atom_site_occupancy
  Al  Al0  1  0.07094400  0.14188800  0.17612100  1
  Al  Al1  1  0.92905600  0.85811200  0.82387900  1
  Al  Al2  1  0.32566300  0.65132600  0.28555900  1
  Al  Al3  1  0.67433700  0.34867400  0.71444100  1
  Al  Al4  1  0.23790400  0.47580900  0.52023400  1
  Al  Al5  1  0.76209600  0.52419100  0.47976600  1
  Al  Al6  1  0.07635900  0.15271800  0.58107400  1
  Al  Al7  1  0.92364100  0.84728200  0.41892600  1
  Al  Al8  1  0.24436800  0.48873500  0.97809800  1
  Al  Al9  1  0.75563200  0.51126500  0.02190200  1
  Al  Al10  1  0.48202900  0.96405700  0.83035700  1
  Al  Al11  1  0.51797100  0.03594300  0.16964300  1
  Al  Al12  1  0.50000000  0.00000000  0.50000000  1
  Al  Al13  1  0.30058400  0.60116700  0.76957100  1
  Al  Al14  1  0.69941600  0.39883300  0.23042900  1
  Al  Al15  1  0.08656700  0.17313400  0.78522200  1
  Al  Al16  1  0.91343300  0.82686600  0.21477800  1
  Al  Al17  1  0.96592000  0.36831400  0.11430400  1
  Al  Al18  1  0.40239400  0.36831400  0.11430400  1
  Al  Al19  1  0.03408000  0.63168600  0.88569600  1
  Al  Al20  1  0.59760600  0.63168600  0.88569600  1
  Al  Al21  1  0.15289600  0.73754400  0.11000300  1
  Al  Al22  1  0.58464800  0.73754400  0.11000300  1
  Al  Al23  1  0.84710400  0.26245600  0.88999700  1
  Al  Al24  1  0.41535200  0.26245600  0.88999700  1
  Al  Al25  1  0.95913800  0.35541400  0.32998600  1
  Al  Al26  1  0.39627600  0.35541400  0.32998600  1
  Al  Al27  1  0.04086200  0.64458600  0.67001400  1
  Al  Al28  1  0.60372400  0.64458600  0.67001400  1
  Al  Al29  1  0.26143100  0.98199300  0.32748500  1
  Al  Al30  1  0.72056200  0.98199300  0.32748500  1
  Al  Al31  1  0.73856900  0.01800700  0.67251500  1
  Al  Al32  1  0.27943800  0.01800700  0.67251500  1
  Al  Al33  1  0.14115700  0.72277600  0.48062300  1
  Al  Al34  1  0.58161900  0.72277600  0.48062300  1
  Al  Al35  1  0.85884300  0.27722400  0.51937700  1
  Al  Al36  1  0.41838100  0.27722400  0.51937700  1
  Al  Al37  1  0.75075600  0.00000000  0.00000000  1
  Al  Al38  1  0.24924400  0.00000000  0.00000000  1
  Rh  Rh0  1  0.08185400  0.16370900  0.38556800  1
  Rh  Rh1  1  0.91814600  0.83629100  0.61443200  1
  Rh  Rh2  1  0.39781300  0.79562600  0.62762500  1
  Rh  Rh3  1  0.60218700  0.20437400  0.37237500  1
  Rh  Rh4  1  0.08994200  0.17988400  0.97913000  1
  Rh  Rh5  1  0.91005800  0.82011600  0.02087000  1
  Rh  Rh6  1  0.39839100  0.79678300  0.97768300  1
  Rh  Rh7  1  0.60160900  0.20321700  0.02231700  1
  Rh  Rh8  1  0.03844600  0.64522200  0.28081600  1
  Rh  Rh9  1  0.60677500  0.64522200  0.28081600  1
  Rh  Rh10  1  0.96155400  0.35477800  0.71918400  1
  Rh  Rh11  1  0.39322500  0.35477800  0.71918400  1
loop_
_geom_bond_atom_site_label_1
_geom_bond_atom_site_label_2
_geom_bond_distance
_geom_bond_site_symmetry_2
Al0 Rh4 2.651943 1_554
Al0 Rh0 2.656038 1_555
Al0 Rh5 2.695125 1_445
Al1 Rh5 2.651943 1_556
Al1 Rh1 2.656038 1_555
Al1 Rh4 2.695125 1_665
Al2 Rh9 2.367985 1_555
Al2 Rh8 2.367993 1_555
Al3 Rh11 2.367985 1_555
Al3 Rh10 2.367993 1_555
Al4 Rh2 2.465287 1_555
Al4 Rh0 2.527993 1_555
Al5 Rh3 2.465287 1_555
Al5 Rh1 2.527993 1_555
Al6 Rh0 2.552700 1_555
Al6 Rh1 2.654600 1_445
Al6 Rh10 2.678294 1_455
Al6 Rh11 2.678300 1_555
Al7 Rh1 2.552700 1_555
Al7 Rh0 2.654600 1_665
Al7 Rh8 2.678294 1_655
Al7 Rh9 2.678300 1_555
Al8 Rh6 2.424493 1_555
Al8 Rh4 2.433318 1_555
Al9 Rh7 2.424493 1_555
Al9 Rh5 2.433318 1_555
Al10 Rh2 2.539247 1_555
Al10 Rh7 2.603498 1_566
Al10 Rh6 2.628402 1_555
Al11 Rh3 2.539247 1_555
Al11 Rh6 2.603498 1_544
Al11 Rh7 2.628402 1_555
Al12 Rh2 2.636156 1_545
Al12 Rh3 2.636156 1_555
Al13 Rh11 2.574078 1_555
Al13 Rh10 2.574078 1_455
Al13 Rh6 2.648272 1_555
Al13 Rh2 2.728457 1_555
Al14 Rh9 2.574078 1_555
Al14 Rh8 2.574078 1_655
Al14 Rh7 2.648272 1_555
Al14 Rh3 2.728457 1_555
Al15 Rh4 2.487803 1_555
Al15 Rh10 2.599874 1_455
Al15 Rh11 2.599879 1_555
Al15 Rh1 2.871126 1_445
Al16 Rh5 2.487803 1_555
Al16 Rh8 2.599874 1_655
Al16 Rh9 2.599879 1_555
Al16 Rh0 2.871126 1_665
Al17 Rh8 2.598318 1_655
Al17 Rh4 2.633752 1_654
Al17 Rh7 2.764987 1_555
Al18 Rh9 2.598317 1_555
Al18 Rh4 2.633752 1_554
Al18 Rh7 2.764994 1_555
Al19 Rh10 2.598318 1_455
Al19 Rh5 2.633752 1_456
Al19 Rh6 2.764987 1_555
Al20 Rh11 2.598317 1_555
Al20 Rh5 2.633752 1_556
Al20 Rh6 2.764994 1_555
Al21 Rh8 2.590949 1_555
Al21 Rh6 2.620266 1_554
Al21 Rh5 2.795257 1_455
Al22 Rh9 2.590948 1_555
Al22 Rh6 2.620272 1_554
Al22 Rh5 2.795257 1_555
Al23 Rh10 2.590949 1_555
Al23 Rh7 2.620266 1_556
Al23 Rh4 2.795257 1_655
Al24 Rh11 2.590948 1_555
Al24 Rh7 2.620272 1_556
Al24 Rh4 2.795257 1_555
Al25 Rh0 2.603327 1_655
Al25 Rh8 2.607389 1_655
Al25 Rh3 2.758916 1_555
Al26 Rh0 2.603333 1_555
Al26 Rh9 2.607388 1_555
Al26 Rh3 2.758916 1_555
Al27 Rh1 2.603327 1_455
Al27 Rh10 2.607389 1_455
Al27 Rh2 2.758916 1_555
Al28 Rh1 2.603333 1_555
Al28 Rh11 2.607388 1_555
Al28 Rh2 2.758916 1_555
Al29 Rh3 2.533881 1_565
Al29 Rh8 2.567421 1_555
Al29 Rh0 2.648080 1_565
Al30 Rh3 2.533881 1_565
Al30 Rh9 2.567419 1_555
Al30 Rh0 2.648073 1_665
Al31 Rh2 2.533881 1_545
Al31 Rh10 2.567421 1_555
Al31 Rh1 2.648080 1_545
Al32 Rh2 2.533881 1_545
Al32 Rh11 2.567419 1_555
Al32 Rh1 2.648073 1_445
Al33 Rh8 2.516334 1_555
Al33 Rh2 2.572823 1_555
Al33 Rh1 2.872764 1_455
Al34 Rh9 2.516332 1_555
Al34 Rh2 2.572823 1_555
Al34 Rh1 2.872771 1_555
Al35 Rh10 2.516334 1_555
Al35 Rh3 2.572823 1_555
Al35 Rh0 2.872764 1_655
Al36 Rh11 2.516332 1_555
Al36 Rh3 2.572823 1_555
Al36 Rh0 2.872771 1_555
Al37 Rh5 2.573398 1_545
Al37 Rh4 2.573398 1_654
Al37 Rh7 2.591115 1_555
Al37 Rh6 2.591122 1_544
Al38 Rh4 2.573398 1_554
Al38 Rh5 2.573398 1_445
Al38 Rh6 2.591115 1_544
Al38 Rh7 2.591122 1_555
