# generated using pymatgen
data_GaCo(Mo3O20)2
_symmetry_space_group_name_H-M   'P 1'
_cell_length_a   6.91423000
_cell_length_b   11.21124989
_cell_length_c   11.31947664
_cell_angle_alpha   98.30480738
_cell_angle_beta   95.83247909
_cell_angle_gamma   103.92038796
_symmetry_Int_Tables_number   1
_chemical_formula_structural   GaCo(Mo3O20)2
_chemical_formula_sum   'Ga1 Co1 Mo6 O40'
_cell_volume   834.21474552
_cell_formula_units_Z   1
loop_
 _symmetry_equiv_pos_site_id
 _symmetry_equiv_pos_as_xyz
  1  'x, y, z'
loop_
 _atom_site_type_symbol
 _atom_site_label
 _atom_site_symmetry_multiplicity
 _atom_site_fract_x
 _atom_site_fract_y
 _atom_site_fract_z
 _atom_site_occupancy
  Ga  Ga0  1  0.50000000  0.00000000  0.50000000  1
  Co  Co0  1  0.50000000  0.50000000  0.00000000  1
  Mo  Mo0  1  0.90216900  0.67463500  0.88949100  1
  Mo  Mo1  1  0.09783100  0.32536500  0.11050900  1
  Mo  Mo2  1  0.85495400  0.76016700  0.18542100  1
  Mo  Mo3  1  0.14504600  0.23983300  0.81457900  1
  Mo  Mo4  1  0.46627900  0.57057800  0.30024200  1
  Mo  Mo5  1  0.53372100  0.42942200  0.69975800  1
  O  O0  1  0.69717100  0.48619700  0.89596800  1
  O  O1  1  0.30282900  0.51380300  0.10403200  1
  O  O2  1  0.65289600  0.60840200  0.76699800  1
  O  O3  1  0.34710400  0.39159800  0.23300200  1
  O  O4  1  0.09533300  0.63419800  0.82135900  1
  O  O5  1  0.90466700  0.36580200  0.17864100  1
  O  O6  1  0.91588700  0.82779600  0.87560100  1
  O  O7  1  0.08411300  0.17220400  0.12439900  1
  O  O8  1  0.58538400  0.66401300  0.00925600  1
  O  O9  1  0.41461600  0.33598700  0.99074400  1
  O  O10  1  0.98931900  0.69099600  0.05954500  1
  O  O11  1  0.01068100  0.30900400  0.94045500  1
  O  O12  1  0.02076000  0.77189500  0.31387600  1
  O  O13  1  0.97924000  0.22810500  0.68612400  1
  O  O14  1  0.87529200  0.91003000  0.15965000  1
  O  O15  1  0.12470800  0.08997000  0.84035000  1
  O  O16  1  0.68111900  0.54134700  0.13485300  1
  O  O17  1  0.31888100  0.45865300  0.86514700  1
  O  O18  1  0.59246400  0.72624000  0.24583500  1
  O  O19  1  0.40753600  0.27376000  0.75416500  1
  O  O20  1  0.28745800  0.61240500  0.38030000  1
  O  O21  1  0.71254200  0.38759500  0.61970000  1
  O  O22  1  0.65634900  0.55813800  0.40566000  1
  O  O23  1  0.34365100  0.44186200  0.59434000  1
  O  O24  1  0.14873000  0.90558100  0.54807700  1
  O  O25  1  0.85127000  0.09441900  0.45192300  1
  O  O26  1  0.42898000  0.19264400  0.42914600  1
  O  O27  1  0.57102000  0.80735600  0.57085400  1
  O  O28  1  0.50425500  0.05497400  0.65098500  1
  O  O29  1  0.49574500  0.94502600  0.34901500  1
  O  O30  1  0.04079100  0.71953500  0.59943900  1
  O  O31  1  0.95920900  0.28046500  0.40056100  1
  O  O32  1  0.45073500  0.76164600  0.63519900  1
  O  O33  1  0.54926500  0.23835400  0.36480100  1
  O  O34  1  0.97869200  0.17066200  0.40150500  1
  O  O35  1  0.02130800  0.82933800  0.59849500  1
  O  O36  1  0.39775000  0.02428200  0.11106300  1
  O  O37  1  0.60225000  0.97571800  0.88893700  1
  O  O38  1  0.48258000  0.88449200  0.90881800  1
  O  O39  1  0.51742000  0.11550800  0.09118200  1
loop_
_geom_bond_atom_site_label_1
_geom_bond_atom_site_label_2
_geom_bond_distance
_geom_bond_site_symmetry_2
Ga0 O28 1.725809 1_555
Ga0 O29 1.725809 1_545
Ga0 O26 2.545519 1_555
Ga0 O27 2.545519 1_545
Ga0 O24 2.552178 1_545
Ga0 O25 2.552178 1_555
Co0 O8 1.774858 1_555
Co0 O9 1.774858 1_554
Co0 O16 1.800277 1_555
Co0 O17 1.800277 1_554
Co0 O0 1.909018 1_554
Co0 O1 1.909018 1_555
Mo0 O4 1.727353 1_655
Mo0 O6 1.727686 1_555
Mo0 O10 1.926434 1_556
Mo0 O2 2.011363 1_555
Mo0 O0 2.258914 1_555
Mo0 O8 2.678469 1_556
Mo1 O5 1.727353 1_455
Mo1 O7 1.727686 1_555
Mo1 O11 1.926434 1_554
Mo1 O3 2.011363 1_555
Mo1 O1 2.258914 1_555
Mo1 O9 2.678469 1_554
Mo2 O14 1.721635 1_555
Mo2 O12 1.726054 1_655
Mo2 O10 1.947092 1_555
Mo2 O18 1.975221 1_555
Mo2 O16 2.413813 1_555
Mo2 O8 2.503876 1_555
Mo3 O15 1.721635 1_555
Mo3 O13 1.726054 1_455
Mo3 O11 1.947092 1_555
Mo3 O19 1.975221 1_555
Mo3 O17 2.413813 1_555
Mo3 O9 2.503876 1_555
Mo4 O20 1.718650 1_555
Mo4 O22 1.728582 1_555
Mo4 O18 1.968039 1_555
Mo4 O3 1.980022 1_555
Mo4 O1 2.313121 1_555
Mo4 O16 2.537909 1_555
Mo5 O21 1.718650 1_555
Mo5 O23 1.728582 1_555
Mo5 O19 1.968039 1_555
Mo5 O2 1.980022 1_555
Mo5 O0 2.313121 1_555
Mo5 O17 2.537909 1_555
O24 O35 1.308941 1_555
O25 O34 1.308941 1_555
O26 O33 1.229096 1_555
O27 O32 1.229096 1_555
O30 O35 1.271609 1_555
O31 O34 1.271609 1_555
O36 O39 1.215924 1_555
O37 O38 1.215924 1_555
