# generated using pymatgen
data_CoAgO3
_symmetry_space_group_name_H-M   'P 1'
_cell_length_a   5.13039628
_cell_length_b   6.01975394
_cell_length_c   7.51740191
_cell_angle_alpha   77.80944957
_cell_angle_beta   85.72618580
_cell_angle_gamma   82.23842171
_symmetry_Int_Tables_number   1
_chemical_formula_structural   CoAgO3
_chemical_formula_sum   'Co4 Ag4 O12'
_cell_volume   224.59738849
_cell_formula_units_Z   4
loop_
 _symmetry_equiv_pos_site_id
 _symmetry_equiv_pos_as_xyz
  1  'x, y, z'
loop_
 _atom_site_type_symbol
 _atom_site_label
 _atom_site_symmetry_multiplicity
 _atom_site_fract_x
 _atom_site_fract_y
 _atom_site_fract_z
 _atom_site_occupancy
  Co  Co0  1  0.49698100  0.81938800  0.66433300  1
  Co  Co1  1  0.50310300  0.18053000  0.33565600  1
  Co  Co2  1  0.99681900  0.31952700  0.16449100  1
  Co  Co3  1  0.00324600  0.68052400  0.83552500  1
  Ag  Ag0  1  0.00448100  0.72018900  0.34174300  1
  Ag  Ag1  1  0.50412500  0.22001700  0.84180400  1
  Ag  Ag2  1  0.99532300  0.27983600  0.65816600  1
  Ag  Ag3  1  0.49584900  0.77988900  0.15822000  1
  O  O0  1  0.83950500  0.66221900  0.61980300  1
  O  O1  1  0.33936400  0.16233400  0.11993800  1
  O  O2  1  0.59877500  0.12015700  0.57630500  1
  O  O3  1  0.09900900  0.62025200  0.07626900  1
  O  O4  1  0.16842300  0.94004600  0.75740900  1
  O  O5  1  0.66858000  0.44025400  0.25801300  1
  O  O6  1  0.83150300  0.05978500  0.24252200  1
  O  O7  1  0.33158900  0.55971200  0.74211200  1
  O  O8  1  0.40109900  0.87984000  0.42371500  1
  O  O9  1  0.90112000  0.37980600  0.92387200  1
  O  O10  1  0.16050300  0.33801500  0.38004900  1
  O  O11  1  0.66060300  0.83768100  0.88005500  1
loop_
_geom_bond_atom_site_label_1
_geom_bond_atom_site_label_2
_geom_bond_distance
_geom_bond_site_symmetry_2
Co0 O7 1.844921 1_555
Co0 O8 1.858095 1_555
Co0 O4 1.888552 1_555
Co0 O11 1.910468 1_555
Co0 O2 1.920062 1_565
Co0 O0 1.921524 1_555
Co1 O5 1.845299 1_555
Co1 O2 1.858004 1_555
Co1 O6 1.888241 1_555
Co1 O1 1.910575 1_555
Co1 O8 1.920063 1_545
Co1 O10 1.922405 1_555
Co2 O6 1.845238 1_555
Co2 O9 1.857858 1_554
Co2 O5 1.888659 1_555
Co2 O10 1.909877 1_655
Co2 O3 1.920765 1_655
Co2 O1 1.921709 1_655
Co3 O4 1.843797 1_555
Co3 O3 1.858857 1_556
Co3 O7 1.888951 1_555
Co3 O0 1.910801 1_455
Co3 O9 1.920723 1_455
Co3 O11 1.922004 1_455
Ag0 O6 2.118414 1_465
Ag0 O0 2.171517 1_455
Ag0 O3 2.205406 1_555
Ag0 O10 2.296421 1_555
Ag0 O8 2.531601 1_555
Ag1 O7 2.118837 1_555
Ag1 O1 2.171627 1_556
Ag1 O2 2.205455 1_555
Ag1 O11 2.297873 1_545
Ag1 O9 2.534014 1_555
Ag2 O4 2.119615 1_645
Ag2 O10 2.172272 1_655
Ag2 O9 2.206950 1_555
Ag2 O0 2.297331 1_555
Ag2 O2 2.531058 1_555
Ag3 O5 2.118987 1_555
Ag3 O11 2.171830 1_554
Ag3 O8 2.205724 1_555
Ag3 O1 2.298476 1_565
Ag3 O3 2.532489 1_555
