# generated using pymatgen
data_Ni3Mo
_symmetry_space_group_name_H-M   'P 1'
_cell_length_a   5.20762365
_cell_length_b   5.20762365
_cell_length_c   16.89081524
_cell_angle_alpha   90.00000000
_cell_angle_beta   81.13217951
_cell_angle_gamma   120.00000000
_symmetry_Int_Tables_number   1
_chemical_formula_structural   Ni3Mo
_chemical_formula_sum   'Ni24 Mo8'
_cell_volume   390.36305312
_cell_formula_units_Z   8
loop_
 _symmetry_equiv_pos_site_id
 _symmetry_equiv_pos_as_xyz
  1  'x, y, z'
loop_
 _atom_site_type_symbol
 _atom_site_label
 _atom_site_symmetry_multiplicity
 _atom_site_fract_x
 _atom_site_fract_y
 _atom_site_fract_z
 _atom_site_occupancy
  Ni  Ni0_0  1  0.24654300  0.12327150  0.13018500  1
  Ni  Ni0_1  1  0.24654300  0.12327150  0.63018500  1
  Ni  Ni0_2  1  0.24654300  0.62327150  0.13018500  1
  Ni  Ni0_3  1  0.24654300  0.62327150  0.63018500  1
  Ni  Ni0_4  1  0.74654300  0.12327150  0.13018500  1
  Ni  Ni0_5  1  0.74654300  0.12327150  0.63018500  1
  Ni  Ni0_6  1  0.74654300  0.62327150  0.13018500  1
  Ni  Ni0_7  1  0.74654300  0.62327150  0.63018500  1
  Ni  Ni1_0  1  0.00000000  0.25000000  0.25000000  1
  Ni  Ni1_1  1  0.00000000  0.25000000  0.75000000  1
  Ni  Ni1_2  1  1.00000000  0.75000000  0.25000000  1
  Ni  Ni1_3  1  0.00000000  0.75000000  0.75000000  1
  Ni  Ni1_4  1  0.50000000  0.25000000  0.25000000  1
  Ni  Ni1_5  1  0.50000000  0.25000000  0.75000000  1
  Ni  Ni1_6  1  0.50000000  0.75000000  0.25000000  1
  Ni  Ni1_7  1  0.50000000  0.75000000  0.75000000  1
  Ni  Ni2_0  1  0.25345700  0.37672850  0.36981500  1
  Ni  Ni2_1  1  0.25345700  0.37672850  0.86981500  1
  Ni  Ni2_2  1  0.25345700  0.87672850  0.36981500  1
  Ni  Ni2_3  1  0.25345700  0.87672850  0.86981500  1
  Ni  Ni2_4  1  0.75345700  0.37672850  0.36981500  1
  Ni  Ni2_5  1  0.75345700  0.37672850  0.86981500  1
  Ni  Ni2_6  1  0.75345700  0.87672850  0.36981500  1
  Ni  Ni2_7  1  0.75345700  0.87672850  0.86981500  1
  Mo  Mo0_0  1  0.00000000  0.00000000  0.00000000  1
  Mo  Mo0_1  1  0.00000000  0.00000000  0.50000000  1
  Mo  Mo0_2  1  0.00000000  0.50000000  0.00000000  1
  Mo  Mo0_3  1  0.00000000  0.50000000  0.50000000  1
  Mo  Mo0_4  1  0.50000000  0.00000000  0.00000000  1
  Mo  Mo0_5  1  0.50000000  0.00000000  0.50000000  1
  Mo  Mo0_6  1  0.50000000  0.50000000  0.00000000  1
  Mo  Mo0_7  1  0.50000000  0.50000000  0.50000000  1
loop_
_geom_bond_atom_site_label_1
_geom_bond_atom_site_label_2
_geom_bond_distance
_geom_bond_site_symmetry_2
Ni0_0 Ni1_2 2.495161 1_445
Ni0_0 Ni1_0 2.495161 1_555
Ni0_0 Ni1_4 2.495162 1_555
Ni0_0 Ni0_4 2.603812 1_555
Ni0_0 Ni0_6 2.603812 1_445
Ni0_0 Ni0_2 2.603812 1_555
Ni0_0 Ni0_2 2.603812 1_545
Ni0_0 Ni0_4 2.603812 1_455
Ni0_0 Ni0_6 2.603812 1_555
Ni0_1 Ni1_3 2.495161 1_545
Ni0_1 Ni1_1 2.495161 1_555
Ni0_1 Ni1_5 2.495162 1_555
Ni0_1 Ni0_5 2.603812 1_555
Ni0_1 Ni0_3 2.603812 1_555
Ni0_1 Ni0_7 2.603812 1_555
Ni0_1 Ni0_7 2.603812 1_445
Ni0_1 Ni0_5 2.603812 1_455
Ni0_1 Ni0_3 2.603812 1_545
Ni0_2 Ni1_0 2.495161 1_555
Ni0_2 Ni1_2 2.495161 1_455
Ni0_2 Ni1_6 2.495162 1_555
Ni0_2 Ni0_6 2.603812 1_555
Ni0_2 Ni0_4 2.603812 1_455
Ni0_2 Ni0_4 2.603812 1_565
Ni0_2 Ni0_6 2.603812 1_455
Ni0_3 Ni1_3 2.495161 1_555
Ni0_3 Ni1_1 2.495161 1_555
Ni0_3 Ni1_7 2.495162 1_555
Ni0_3 Ni0_5 2.603812 1_455
Ni0_3 Ni0_7 2.603812 1_455
Ni0_3 Ni0_7 2.603812 1_555
Ni0_3 Ni0_5 2.603812 1_565
Ni0_4 Ni1_6 2.495161 1_545
Ni0_4 Ni1_4 2.495161 1_555
Ni0_4 Ni1_0 2.495162 1_655
Ni0_4 Ni0_6 2.603812 1_555
Ni0_4 Ni0_6 2.603812 1_545
Ni0_5 Ni1_7 2.495161 1_545
Ni0_5 Ni1_5 2.495161 1_555
Ni0_5 Ni1_1 2.495162 1_655
Ni0_5 Ni0_7 2.603812 1_555
Ni0_5 Ni0_7 2.603812 1_545
Ni0_6 Ni1_4 2.495161 1_555
Ni0_6 Ni1_6 2.495161 1_555
Ni0_6 Ni1_2 2.495162 1_555
Ni0_7 Ni1_5 2.495161 1_555
Ni0_7 Ni1_7 2.495161 1_555
Ni0_7 Ni1_3 2.495162 1_655
Ni1_0 Ni2_4 2.495161 1_455
Ni1_0 Ni2_6 2.495161 1_445
Ni1_0 Ni2_0 2.495162 1_555
Ni1_0 Ni1_2 2.603812 1_445
Ni1_0 Ni1_6 2.603812 1_445
Ni1_0 Ni1_6 2.603812 1_555
Ni1_0 Ni1_4 2.603812 1_555
Ni1_0 Ni1_2 2.603812 1_455
Ni1_0 Ni1_4 2.603812 1_455
Ni1_1 Ni2_5 2.495161 1_455
Ni1_1 Ni2_7 2.495161 1_445
Ni1_1 Ni2_1 2.495162 1_555
Ni1_1 Ni1_5 2.603812 1_555
Ni1_1 Ni1_3 2.603812 1_545
Ni1_1 Ni1_7 2.603812 1_555
Ni1_1 Ni1_3 2.603812 1_555
Ni1_1 Ni1_7 2.603812 1_445
Ni1_1 Ni1_5 2.603812 1_455
Ni1_2 Ni2_6 2.495161 1_555
Ni1_2 Ni2_4 2.495161 1_555
Ni1_2 Ni2_2 2.495162 1_655
Ni1_2 Ni1_4 2.603812 1_555
Ni1_2 Ni1_6 2.603812 1_555
Ni1_2 Ni1_6 2.603812 1_655
Ni1_2 Ni1_4 2.603812 1_665
Ni1_3 Ni2_7 2.495161 1_455
Ni1_3 Ni2_5 2.495161 1_455
Ni1_3 Ni2_3 2.495162 1_555
Ni1_3 Ni1_5 2.603812 1_455
Ni1_3 Ni1_7 2.603812 1_555
Ni1_3 Ni1_7 2.603812 1_455
Ni1_3 Ni1_5 2.603812 1_565
Ni1_4 Ni2_0 2.495161 1_555
Ni1_4 Ni2_2 2.495161 1_545
Ni1_4 Ni2_4 2.495162 1_555
Ni1_4 Ni1_6 2.603812 1_555
Ni1_4 Ni1_6 2.603812 1_545
Ni1_5 Ni2_1 2.495161 1_555
Ni1_5 Ni2_3 2.495161 1_545
Ni1_5 Ni2_5 2.495162 1_555
Ni1_5 Ni1_7 2.603812 1_555
Ni1_5 Ni1_7 2.603812 1_545
Ni1_6 Ni2_2 2.495161 1_555
Ni1_6 Ni2_0 2.495161 1_555
Ni1_6 Ni2_6 2.495162 1_555
Ni1_7 Ni2_3 2.495161 1_555
Ni1_7 Ni2_1 2.495161 1_555
Ni1_7 Ni2_7 2.495162 1_555
Ni2_0 Ni2_6 2.603812 1_445
Ni2_0 Ni2_4 2.603812 1_555
Ni2_0 Ni2_2 2.603812 1_545
Ni2_0 Ni2_4 2.603812 1_455
Ni2_0 Ni2_2 2.603812 1_555
Ni2_0 Ni2_6 2.603812 1_555
Ni2_1 Ni2_5 2.603812 1_555
Ni2_1 Ni2_3 2.603812 1_545
Ni2_1 Ni2_7 2.603812 1_445
Ni2_1 Ni2_7 2.603812 1_555
Ni2_1 Ni2_3 2.603812 1_555
Ni2_1 Ni2_5 2.603812 1_455
Ni2_2 Ni2_6 2.603812 1_455
Ni2_2 Ni2_4 2.603812 1_455
Ni2_2 Ni2_6 2.603812 1_555
Ni2_2 Ni2_4 2.603812 1_565
Ni2_3 Ni2_7 2.603812 1_455
Ni2_3 Ni2_5 2.603812 1_565
Ni2_3 Ni2_7 2.603812 1_555
Ni2_3 Ni2_5 2.603812 1_455
Ni2_4 Ni2_6 2.603812 1_545
Ni2_4 Ni2_6 2.603812 1_555
Ni2_5 Ni2_7 2.603812 1_555
Ni2_5 Ni2_7 2.603812 1_545
Mo0_0 Mo0_6 2.603812 1_445
Mo0_0 Mo0_4 2.603812 1_555
Mo0_0 Mo0_6 2.603812 1_555
Mo0_0 Mo0_2 2.603812 1_545
Mo0_0 Mo0_2 2.603812 1_555
Mo0_0 Mo0_4 2.603812 1_455
Mo0_0 Ni0_0 2.634773 1_555
Mo0_0 Ni2_7 2.634773 1_444
Mo0_0 Ni2_1 2.634775 1_554
Mo0_0 Ni0_4 2.634775 1_455
Mo0_0 Ni0_6 2.634775 1_445
Mo0_0 Ni2_3 2.634775 1_544
Mo0_1 Mo0_3 2.603812 1_555
Mo0_1 Mo0_7 2.603812 1_555
Mo0_1 Mo0_5 2.603812 1_555
Mo0_1 Mo0_7 2.603812 1_445
Mo0_1 Mo0_5 2.603812 1_455
Mo0_1 Mo0_3 2.603812 1_545
Mo0_1 Ni2_6 2.634773 1_445
Mo0_1 Ni0_1 2.634773 1_555
Mo0_1 Ni2_0 2.634775 1_555
Mo0_1 Ni0_7 2.634775 1_445
Mo0_1 Ni0_5 2.634775 1_455
Mo0_1 Ni2_2 2.634775 1_545
Mo0_2 Mo0_6 2.603812 1_555
Mo0_2 Mo0_4 2.603812 1_455
Mo0_2 Mo0_4 2.603812 1_565
Mo0_2 Mo0_6 2.603812 1_455
Mo0_2 Ni0_2 2.634773 1_555
Mo0_2 Ni2_5 2.634773 1_454
Mo0_2 Ni2_3 2.634775 1_554
Mo0_2 Ni0_6 2.634775 1_455
Mo0_2 Ni0_4 2.634775 1_455
Mo0_2 Ni2_1 2.634775 1_554
Mo0_3 Mo0_5 2.603812 1_455
Mo0_3 Mo0_7 2.603812 1_555
Mo0_3 Mo0_7 2.603812 1_455
Mo0_3 Mo0_5 2.603812 1_565
Mo0_3 Ni2_4 2.634773 1_455
Mo0_3 Ni0_3 2.634773 1_555
Mo0_3 Ni2_2 2.634775 1_555
Mo0_3 Ni2_0 2.634775 1_555
Mo0_3 Ni0_7 2.634775 1_455
Mo0_3 Ni0_5 2.634775 1_455
Mo0_4 Mo0_6 2.603812 1_545
Mo0_4 Mo0_6 2.603812 1_555
Mo0_4 Ni0_4 2.634773 1_555
Mo0_4 Ni2_3 2.634773 1_544
Mo0_4 Ni0_0 2.634775 1_555
Mo0_4 Ni2_5 2.634775 1_554
Mo0_4 Ni0_2 2.634775 1_545
Mo0_4 Ni2_7 2.634775 1_544
Mo0_5 Mo0_7 2.603812 1_555
Mo0_5 Mo0_7 2.603812 1_545
Mo0_5 Ni0_5 2.634773 1_555
Mo0_5 Ni2_2 2.634773 1_545
Mo0_5 Ni2_4 2.634775 1_555
Mo0_5 Ni0_1 2.634775 1_555
Mo0_5 Ni2_6 2.634775 1_545
Mo0_5 Ni0_3 2.634775 1_545
Mo0_6 Ni0_6 2.634773 1_555
Mo0_6 Ni2_1 2.634773 1_554
Mo0_6 Ni2_7 2.634775 1_554
Mo0_6 Ni0_2 2.634775 1_555
Mo0_6 Ni0_0 2.634775 1_555
Mo0_6 Ni2_5 2.634775 1_554
Mo0_7 Ni2_0 2.634773 1_555
Mo0_7 Ni0_7 2.634773 1_555
Mo0_7 Ni2_6 2.634775 1_555
Mo0_7 Ni2_4 2.634775 1_555
Mo0_7 Ni0_3 2.634775 1_555
Mo0_7 Ni0_1 2.634775 1_555
