# generated using pymatgen
data_Dy5(SiSb)2
_symmetry_space_group_name_H-M   'P 1'
_cell_length_a   8.49749407
_cell_length_b   8.49749058
_cell_length_c   7.86312773
_cell_angle_alpha   90.00031156
_cell_angle_beta   89.99922245
_cell_angle_gamma   125.06731313
_symmetry_Int_Tables_number   1
_chemical_formula_structural   Dy5(SiSb)2
_chemical_formula_sum   'Dy10 Si4 Sb4'
_cell_volume   464.71180148
_cell_formula_units_Z   2
loop_
 _symmetry_equiv_pos_site_id
 _symmetry_equiv_pos_as_xyz
  1  'x, y, z'
loop_
 _atom_site_type_symbol
 _atom_site_label
 _atom_site_symmetry_multiplicity
 _atom_site_fract_x
 _atom_site_fract_y
 _atom_site_fract_z
 _atom_site_occupancy
  Dy  Dy0  1  0.04018358  0.29171392  0.33407748  1
  Dy  Dy1  1  0.95981595  0.70828594  0.66592236  1
  Dy  Dy2  1  0.45981731  0.20828815  0.83407819  1
  Dy  Dy3  1  0.79171409  0.54018322  0.16592204  1
  Dy  Dy4  1  0.54018205  0.79171187  0.16592240  1
  Dy  Dy5  1  0.20828508  0.45981634  0.83407952  1
  Dy  Dy6  1  0.70828608  0.95981588  0.66592306  1
  Dy  Dy7  1  0.29171364  0.04018443  0.33407724  1
  Dy  Dy8  1  0.00000042  0.00000014  0.00000083  1
  Dy  Dy9  1  0.49999944  0.50000016  0.50000022  1
  Si  Si0  1  0.36814712  0.36814775  0.13050291  1
  Si  Si1  1  0.63185236  0.63185226  0.86949798  1
  Si  Si2  1  0.13185275  0.13185342  0.63050195  1
  Si  Si3  1  0.86814710  0.86814687  0.36949848  1
  Sb  Sb0  1  0.79481383  0.20518627  -0.00000361  1
  Sb  Sb1  1  0.20518437  0.79481110  0.00000418  1
  Sb  Sb2  1  0.70519331  0.29482346  0.50000030  1
  Sb  Sb3  1  0.29481152  0.70517882  0.49999447  1
loop_
_geom_bond_atom_site_label_1
_geom_bond_atom_site_label_2
_geom_bond_distance
_geom_bond_site_symmetry_2
Dy0 Si0 2.944625 1_555
Dy0 Si2 3.016749 1_555
Dy0 Si3 3.020470 1_445
Dy0 Sb2 3.145187 1_455
Dy0 Sb3 3.161092 1_555
Dy0 Sb0 3.166577 1_455
Dy1 Si1 2.944631 1_555
Dy1 Si3 3.016746 1_555
Dy1 Si2 3.020473 1_665
Dy1 Sb3 3.145234 1_655
Dy1 Sb2 3.161091 1_555
Dy1 Sb1 3.166579 1_656
Dy2 Si2 2.944674 1_555
Dy2 Si0 3.016723 1_556
Dy2 Si1 3.020449 1_555
Dy2 Sb0 3.145218 1_556
Dy2 Sb1 3.161189 1_546
Dy2 Sb2 3.166535 1_555
Dy3 Si3 2.944650 1_555
Dy3 Si1 3.016756 1_554
Dy3 Si0 3.020476 1_555
Dy3 Sb0 3.145212 1_555
Dy3 Sb1 3.161109 1_655
Dy3 Sb2 3.166503 1_555
Dy4 Si3 2.944676 1_555
Dy4 Si1 3.016722 1_554
Dy4 Si0 3.020449 1_555
Dy4 Sb1 3.145215 1_555
Dy4 Sb0 3.161172 1_565
Dy4 Sb3 3.166475 1_555
Dy5 Si2 2.944652 1_555
Dy5 Si0 3.016752 1_556
Dy5 Si1 3.020477 1_555
Dy5 Sb1 3.145197 1_556
Dy5 Sb0 3.161113 1_456
Dy5 Sb3 3.166553 1_555
Dy6 Si1 2.944649 1_555
Dy6 Si3 3.016721 1_555
Dy6 Si2 3.020464 1_665
Dy6 Sb2 3.145267 1_565
Dy6 Sb3 3.161203 1_555
Dy6 Sb0 3.166508 1_566
Dy7 Si0 2.944645 1_555
Dy7 Si2 3.016721 1_555
Dy7 Si3 3.020463 1_445
Dy7 Sb3 3.145257 1_545
Dy7 Sb2 3.161217 1_555
Dy7 Sb1 3.166517 1_545
Dy8 Si0 3.062768 1_555
Dy8 Si1 3.062776 1_444
Dy8 Si3 3.083754 1_445
Dy8 Si2 3.083762 1_554
Dy8 Sb0 3.094075 1_455
Dy8 Sb1 3.094077 1_545
Dy9 Si2 3.062747 1_555
Dy9 Si3 3.062750 1_555
Dy9 Si0 3.083767 1_555
Dy9 Si1 3.083770 1_555
Dy9 Sb3 3.094029 1_555
Dy9 Sb2 3.094059 1_555
