# generated using pymatgen
data_Sr2YCu2NiO7
_symmetry_space_group_name_H-M   'P 1'
_cell_length_a   12.18176423
_cell_length_b   12.18176423
_cell_length_c   12.18176423
_cell_angle_alpha   154.26456919
_cell_angle_beta   153.81982577
_cell_angle_gamma   37.03956248
_symmetry_Int_Tables_number   1
_chemical_formula_structural   Sr2YCu2NiO7
_chemical_formula_sum   'Sr4 Y2 Cu4 Ni2 O14'
_cell_volume   345.82309717
_cell_formula_units_Z   2
loop_
 _symmetry_equiv_pos_site_id
 _symmetry_equiv_pos_as_xyz
  1  'x, y, z'
loop_
 _atom_site_type_symbol
 _atom_site_label
 _atom_site_symmetry_multiplicity
 _atom_site_fract_x
 _atom_site_fract_y
 _atom_site_fract_z
 _atom_site_occupancy
  Sr  Sr0  1  0.66356300  0.66459500  0.02296300  1
  Sr  Sr1  1  0.33643700  0.35939900  0.00103200  1
  Sr  Sr2  1  0.14163300  0.16459500  0.00103200  1
  Sr  Sr3  1  0.85836700  0.85939900  0.02296300  1
  Y  Y0  1  0.00000000  0.00997600  0.00997600  1
  Y  Y1  1  0.50000000  0.50997600  0.00997600  1
  Cu  Cu0  1  0.57074300  0.08411600  0.50994800  1
  Cu  Cu1  1  0.42925700  0.93920500  0.51337300  1
  Cu  Cu2  1  0.07416800  0.58411600  0.51337300  1
  Cu  Cu3  1  0.92583200  0.43920500  0.50994800  1
  Ni  Ni0  1  0.32024100  0.72224600  0.54248800  1
  Ni  Ni1  1  0.67975900  0.22224600  0.40200500  1
  O  O0  1  0.63437600  0.86969200  0.00406700  1
  O  O1  1  0.36562400  0.36969200  0.23531600  1
  O  O2  1  0.80532900  0.81851200  0.50057500  1
  O  O3  1  0.19467100  0.69524600  0.01318300  1
  O  O4  1  0.81793700  0.31851200  0.01318300  1
  O  O5  1  0.18206300  0.19524600  0.50057500  1
  O  O6  1  0.31770800  0.32951000  0.51900700  1
  O  O7  1  0.68229200  0.20129900  0.01180300  1
  O  O8  1  0.31050300  0.82951000  0.01180300  1
  O  O9  1  0.68949700  0.70129900  0.51900700  1
  O  O10  1  0.13377200  0.70899900  0.49166400  1
  O  O11  1  0.86622800  0.35789300  0.57522700  1
  O  O12  1  0.71733500  0.20899900  0.57522700  1
  O  O13  1  0.28266500  0.85789300  0.49166400  1
loop_
_geom_bond_atom_site_label_1
_geom_bond_atom_site_label_2
_geom_bond_distance
_geom_bond_site_symmetry_2
Cu0 O8 1.937599 1_545
Cu0 O6 1.937933 1_555
Cu0 O2 1.951208 1_545
Cu0 O4 1.964613 1_556
Cu0 O12 2.396731 1_555
Cu1 O9 1.937602 1_555
Cu1 O7 1.937936 1_566
Cu1 O3 1.951208 1_555
Cu1 O5 1.964613 1_565
Cu1 O13 2.396720 1_555
Cu2 O6 1.937602 1_555
Cu2 O8 1.937938 1_556
Cu2 O4 1.951208 1_455
Cu2 O2 1.964613 1_455
Cu2 O10 2.396731 1_555
Cu3 O7 1.937597 1_555
Cu3 O9 1.937933 1_555
Cu3 O5 1.951208 1_655
Cu3 O3 1.964613 1_656
Cu3 O11 2.396719 1_555
Ni0 O10 1.857470 1_555
Ni0 O13 1.857504 1_555
Ni0 O0 1.909074 1_556
Ni0 O1 1.929204 1_555
Ni1 O12 1.857481 1_555
Ni1 O11 1.857491 1_555
Ni1 O1 1.909082 1_555
Ni1 O0 1.929205 1_545
O0 Sr3 2.427446 1_555
O0 Sr0 2.427489 1_555
O1 Sr1 2.427467 1_555
O1 Sr2 2.427467 1_555
O2 Y1 2.372794 1_555
O2 Y0 2.431720 1_666
O2 Sr0 2.798319 1_555
O2 Sr2 2.857419 1_666
O3 Y1 2.372794 1_555
O3 Y0 2.431720 1_565
O3 Sr1 2.798331 1_555
O3 Sr3 2.857428 1_455
O4 Y0 2.372794 1_655
O4 Y1 2.431720 1_555
O4 Sr2 2.798331 1_655
O4 Sr0 2.857411 1_555
O5 Y0 2.372794 1_555
O5 Y1 2.431720 1_556
O5 Sr3 2.798337 1_445
O5 Sr1 2.857419 1_556
O6 Y1 2.408869 1_556
O6 Y0 2.464172 1_555
O6 Sr0 2.825972 1_556
O6 Sr2 2.863732 1_555
O7 Y1 2.408876 1_555
O7 Y0 2.464179 1_655
O7 Sr1 2.825970 1_555
O7 Sr3 2.863732 1_545
O8 Y0 2.408862 1_565
O8 Y1 2.464165 1_555
O8 Sr2 2.825986 1_565
O8 Sr0 2.863732 1_555
O9 Y0 2.408869 1_666
O9 Y1 2.464172 1_555
O9 Sr3 2.825989 1_556
O9 Sr1 2.863732 1_555
O10 Sr0 2.526925 1_455
O10 Sr2 2.655567 1_566
O10 Sr2 2.883554 1_555
O10 Sr0 3.097963 1_556
O11 Sr1 2.526926 1_656
O11 Sr3 2.655562 1_556
O11 Sr3 2.883549 1_545
O11 Sr1 3.097953 1_555
O12 Sr2 2.526925 1_656
O12 Sr0 2.655571 1_556
O12 Sr0 2.883553 1_545
O12 Sr2 3.097958 1_555
O13 Sr3 2.526915 1_455
O13 Sr1 2.655562 1_566
O13 Sr1 2.883554 1_555
O13 Sr3 3.097959 1_556
