# generated using pymatgen
data_YMg14AlO16
_symmetry_space_group_name_H-M   'P 1'
_cell_length_a   4.39555800
_cell_length_b   8.64815000
_cell_length_c   8.69807100
_cell_angle_alpha   90.00000000
_cell_angle_beta   90.00000000
_cell_angle_gamma   90.00000000
_symmetry_Int_Tables_number   1
_chemical_formula_structural   YMg14AlO16
_chemical_formula_sum   'Y1 Mg14 Al1 O16'
_cell_volume   330.64364285
_cell_formula_units_Z   1
loop_
 _symmetry_equiv_pos_site_id
 _symmetry_equiv_pos_as_xyz
  1  'x, y, z'
loop_
 _atom_site_type_symbol
 _atom_site_label
 _atom_site_symmetry_multiplicity
 _atom_site_fract_x
 _atom_site_fract_y
 _atom_site_fract_z
 _atom_site_occupancy
  Y  Y0  1  0.00000000  0.50000000  0.00000000  1
  Mg  Mg0  1  0.00000000  0.00000000  0.50000000  1
  Mg  Mg1  1  0.00000000  0.50000000  0.50000000  1
  Mg  Mg2  1  0.50000000  0.75846600  0.00000000  1
  Mg  Mg3  1  0.50000000  0.24153400  0.00000000  1
  Mg  Mg4  1  0.50000000  0.75138800  0.50000000  1
  Mg  Mg5  1  0.50000000  0.24861200  0.50000000  1
  Mg  Mg6  1  0.50000000  0.00000000  0.74663900  1
  Mg  Mg7  1  0.50000000  0.50000000  0.73884500  1
  Mg  Mg8  1  0.50000000  0.00000000  0.25336100  1
  Mg  Mg9  1  0.50000000  0.50000000  0.26115500  1
  Mg  Mg10  1  0.00000000  0.75554200  0.74218000  1
  Mg  Mg11  1  0.00000000  0.24445800  0.74218000  1
  Mg  Mg12  1  0.00000000  0.75554200  0.25782000  1
  Mg  Mg13  1  0.00000000  0.24445800  0.25782000  1
  Al  Al0  1  0.00000000  0.00000000  0.00000000  1
  O  O0  1  0.00000000  0.00000000  0.75616200  1
  O  O1  1  0.00000000  0.50000000  0.73988500  1
  O  O2  1  0.00000000  0.00000000  0.24383800  1
  O  O3  1  0.00000000  0.50000000  0.26011500  1
  O  O4  1  0.50000000  0.74949700  0.74876000  1
  O  O5  1  0.50000000  0.25050300  0.74876000  1
  O  O6  1  0.50000000  0.74949700  0.25124000  1
  O  O7  1  0.50000000  0.25050300  0.25124000  1
  O  O8  1  0.50000000  0.00000000  0.00000000  1
  O  O9  1  0.50000000  0.50000000  0.00000000  1
  O  O10  1  0.50000000  0.00000000  0.50000000  1
  O  O11  1  0.50000000  0.50000000  0.50000000  1
  O  O12  1  0.00000000  0.77627700  0.00000000  1
  O  O13  1  0.00000000  0.22372300  0.00000000  1
  O  O14  1  0.00000000  0.75232600  0.50000000  1
  O  O15  1  0.00000000  0.24767400  0.50000000  1
loop_
_geom_bond_atom_site_label_1
_geom_bond_atom_site_label_2
_geom_bond_distance
_geom_bond_site_symmetry_2
Mg0 O14 2.141922 1_545
Mg0 O15 2.141922 1_555
Mg0 O10 2.197779 1_455
Mg0 O10 2.197779 1_555
Mg0 O0 2.228115 1_555
Mg0 O2 2.228115 1_555
Mg1 O3 2.086537 1_555
Mg1 O1 2.086537 1_555
Mg1 O15 2.182153 1_555
Mg1 O14 2.182153 1_555
Mg1 O11 2.197779 1_555
Mg1 O11 2.197779 1_455
Mg2 O8 2.088822 1_565
Mg2 O6 2.186679 1_555
Mg2 O4 2.186679 1_554
Mg2 O12 2.203170 1_555
Mg2 O12 2.203170 1_655
Mg2 O9 2.235253 1_555
Mg3 O8 2.088822 1_555
Mg3 O7 2.186679 1_555
Mg3 O5 2.186679 1_554
Mg3 O13 2.203170 1_655
Mg3 O13 2.203170 1_555
Mg3 O9 2.235253 1_555
Mg4 O10 2.150034 1_565
Mg4 O4 2.163794 1_555
Mg4 O6 2.163794 1_555
Mg4 O11 2.174041 1_555
Mg4 O14 2.197794 1_555
Mg4 O14 2.197794 1_655
Mg5 O10 2.150034 1_555
Mg5 O5 2.163794 1_555
Mg5 O7 2.163794 1_555
Mg5 O11 2.174041 1_555
Mg5 O15 2.197794 1_555
Mg5 O15 2.197794 1_655
Mg6 O10 2.145284 1_555
Mg6 O5 2.166466 1_555
Mg6 O4 2.166466 1_545
Mg6 O0 2.199339 1_555
Mg6 O0 2.199339 1_655
Mg6 O8 2.203752 1_556
Mg7 O11 2.077491 1_555
Mg7 O4 2.159410 1_555
Mg7 O5 2.159410 1_555
Mg7 O1 2.197798 1_655
Mg7 O1 2.197798 1_555
Mg7 O9 2.271545 1_556
Mg8 O10 2.145284 1_555
Mg8 O7 2.166466 1_555
Mg8 O6 2.166466 1_545
Mg8 O2 2.199339 1_655
Mg8 O2 2.199339 1_555
Mg8 O8 2.203752 1_555
Mg9 O11 2.077491 1_555
Mg9 O6 2.159410 1_555
Mg9 O7 2.159410 1_555
Mg9 O3 2.197798 1_655
Mg9 O3 2.197798 1_555
Mg9 O9 2.271545 1_555
Mg10 O14 2.106682 1_555
Mg10 O0 2.117605 1_565
Mg10 O4 2.199146 1_555
Mg10 O4 2.199146 1_455
Mg10 O1 2.210056 1_555
Mg10 O12 2.249695 1_556
Mg11 O15 2.106682 1_555
Mg11 O0 2.117605 1_555
Mg11 O5 2.199146 1_455
Mg11 O5 2.199146 1_555
Mg11 O1 2.210056 1_555
Mg11 O13 2.249695 1_556
Mg12 O14 2.106682 1_555
Mg12 O2 2.117605 1_565
Mg12 O6 2.199146 1_455
Mg12 O6 2.199146 1_555
Mg12 O3 2.210056 1_555
Mg12 O12 2.249695 1_555
Mg13 O15 2.106682 1_555
Mg13 O2 2.117605 1_555
Mg13 O7 2.199146 1_555
Mg13 O7 2.199146 1_455
Mg13 O3 2.210056 1_555
Mg13 O13 2.249695 1_555
Al0 O13 1.934790 1_555
Al0 O12 1.934790 1_545
Al0 O0 2.120920 1_554
Al0 O2 2.120920 1_555
Al0 O8 2.197779 1_455
Al0 O8 2.197779 1_555
O1 Y0 2.262499 1_556
O3 Y0 2.262499 1_555
O9 Y0 2.197779 1_555
O9 Y0 2.197779 1_655
O12 Y0 2.389285 1_555
O13 Y0 2.389285 1_555
