# generated using pymatgen
data_Lu2Si9B36C
_symmetry_space_group_name_H-M   'P 1'
_cell_length_a   8.02413363
_cell_length_b   8.02413363
_cell_length_c   7.98869484
_cell_angle_alpha   78.05521411
_cell_angle_beta   78.05521411
_cell_angle_gamma   78.04714402
_symmetry_Int_Tables_number   1
_chemical_formula_structural   Lu2Si9B36C
_chemical_formula_sum   'Lu2 Si9 B36 C1'
_cell_volume   485.02758259
_cell_formula_units_Z   1
loop_
 _symmetry_equiv_pos_site_id
 _symmetry_equiv_pos_as_xyz
  1  'x, y, z'
loop_
 _atom_site_type_symbol
 _atom_site_label
 _atom_site_symmetry_multiplicity
 _atom_site_fract_x
 _atom_site_fract_y
 _atom_site_fract_z
 _atom_site_occupancy
  Lu  Lu0  1  0.00010000  0.50051000  0.50057300  1
  Lu  Lu1  1  0.50051000  0.00010000  0.50057300  1
  Si  Si0  1  0.42839900  0.42839900  0.42713200  1
  Si  Si1  1  0.57041700  0.57041700  0.57197400  1
  Si  Si2  1  0.26600500  0.65553400  0.25504200  1
  Si  Si3  1  0.26259200  0.26259200  0.66099100  1
  Si  Si4  1  0.65553400  0.26600500  0.25504200  1
  Si  Si5  1  0.73405700  0.34565100  0.74478000  1
  Si  Si6  1  0.73712900  0.73712900  0.34049100  1
  Si  Si7  1  0.34565100  0.73405700  0.74478000  1
  Si  Si8  1  0.04469800  0.04469800  0.04282400  1
  B  B0  1  0.42082200  0.10716000  0.82329900  1
  B  B1  1  0.82015600  0.41978100  0.10674900  1
  B  B2  1  0.10896300  0.81912900  0.41881700  1
  B  B3  1  0.81912900  0.10896300  0.41881700  1
  B  B4  1  0.41978100  0.82015600  0.10674900  1
  B  B5  1  0.10716000  0.42082200  0.82329900  1
  B  B6  1  0.58746500  0.89190300  0.17209100  1
  B  B7  1  0.17523900  0.58840600  0.89232200  1
  B  B8  1  0.89000400  0.17659500  0.58918100  1
  B  B9  1  0.17659500  0.89000400  0.58918100  1
  B  B10  1  0.58840600  0.17523900  0.89232200  1
  B  B11  1  0.89190300  0.58746500  0.17209100  1
  B  B12  1  0.44562100  0.87379100  0.87409500  1
  B  B13  1  0.87379100  0.44562100  0.87409500  1
  B  B14  1  0.87408500  0.87408500  0.44489400  1
  B  B15  1  0.56266600  0.12246900  0.12222300  1
  B  B16  1  0.12246900  0.56266600  0.12222300  1
  B  B17  1  0.12198300  0.12198300  0.56361400  1
  B  B18  1  0.37404400  0.20135300  0.01924100  1
  B  B19  1  0.01890100  0.37465300  0.19737000  1
  B  B20  1  0.19821000  0.01793200  0.37407500  1
  B  B21  1  0.01793200  0.19821000  0.37407500  1
  B  B22  1  0.37465300  0.01890100  0.19737000  1
  B  B23  1  0.20135300  0.37404400  0.01924100  1
  B  B24  1  0.62797000  0.79571600  0.97767200  1
  B  B25  1  0.97822100  0.62776400  0.79914800  1
  B  B26  1  0.79840200  0.97917200  0.62812700  1
  B  B27  1  0.97917200  0.79840200  0.62812700  1
  B  B28  1  0.62776400  0.97822100  0.79914800  1
  B  B29  1  0.79571600  0.62797000  0.97767200  1
  B  B30  1  0.29628800  0.00597900  0.00586100  1
  B  B31  1  0.00597900  0.29628800  0.00586100  1
  B  B32  1  0.00550400  0.00550400  0.29500400  1
  B  B33  1  0.72306600  0.98192800  0.98215600  1
  B  B34  1  0.98192800  0.72306600  0.98215600  1
  B  B35  1  0.98221100  0.98221100  0.72487200  1
  C  C0  1  0.93218800  0.93218800  0.93355100  1
loop_
_geom_bond_atom_site_label_1
_geom_bond_atom_site_label_2
_geom_bond_distance
_geom_bond_site_symmetry_2
Lu0 Si6 2.854011 1_455
Lu0 Si3 2.856980 1_555
Lu0 Si5 2.877267 1_455
Lu0 Si2 2.881710 1_555
Lu0 Si0 3.312449 1_555
Lu0 Si1 3.323378 1_455
Lu1 Si6 2.854011 1_545
Lu1 Si3 2.856980 1_555
Lu1 Si7 2.877267 1_545
Lu1 Si4 2.881710 1_555
Lu1 Si0 3.312449 1_555
Lu1 Si1 3.323378 1_545
Si0 Si1 2.359166 1_555
Si0 Si2 2.372841 1_555
Si0 Si4 2.372841 1_555
Si0 Si3 2.388713 1_555
Si1 Si7 2.370970 1_555
Si1 Si5 2.370970 1_555
Si1 Si6 2.385782 1_555
B0 B30 1.739941 1_556
B0 B28 1.761651 1_545
B0 B10 1.773869 1_555
B0 B12 1.809798 1_545
B0 B18 1.814218 1_556
B0 Si3 2.050594 1_555
B0 Lu1 2.792961 1_555
B1 B31 1.753830 1_655
B1 B29 1.768445 1_554
B1 B11 1.774917 1_555
B1 B13 1.796928 1_554
B1 B19 1.824459 1_655
B1 Si4 2.023164 1_555
B2 B32 1.765606 1_565
B2 B27 1.773146 1_455
B2 B9 1.795602 1_555
B2 B20 1.821140 1_565
B2 Si2 2.089543 1_555
B2 Lu0 2.779164 1_555
B3 B32 1.765606 1_655
B3 B8 1.795602 1_555
B3 Si4 2.089543 1_555
B3 Lu1 2.779164 1_555
B4 B6 1.774917 1_555
B4 Si2 2.023164 1_555
B5 B7 1.773869 1_555
B5 Si3 2.050594 1_555
B5 Lu0 2.792961 1_555
B6 Si6 2.038089 1_555
B6 Lu1 2.839180 1_565
B7 Si7 2.012356 1_555
B8 Si5 2.074164 1_555
B8 Lu0 2.822709 1_655
B9 Si7 2.074164 1_555
B9 Lu1 2.822709 1_565
B10 B15 1.775494 1_556
B10 B18 1.802031 1_556
B10 B33 1.804050 1_545
B10 B28 1.826472 1_545
B10 Si5 2.012356 1_555
B11 B16 1.787842 1_655
B11 B34 1.787876 1_554
B11 B19 1.793569 1_655
B11 B29 1.815756 1_554
B11 Si6 2.038089 1_555
B11 Lu0 2.839180 1_655
B12 B30 1.755721 1_566
B12 B24 1.767758 1_555
B12 B28 1.770351 1_555
B12 B4 1.796928 1_556
B12 Si7 2.040326 1_555
B12 Lu1 2.917910 1_565
B13 B31 1.755721 1_656
B13 B29 1.767758 1_555
B13 B25 1.770351 1_555
B13 B5 1.809798 1_655
B13 Si5 2.040326 1_555
B13 Lu0 2.917910 1_655
B14 B32 1.753029 1_665
B14 B26 1.775776 1_555
B14 B27 1.775776 1_555
B14 B2 1.822409 1_655
B14 B3 1.822409 1_565
B14 Si6 2.090474 1_555
B14 Lu1 2.929972 1_565
B14 Lu0 2.929972 1_655
B15 B6 1.787842 1_545
B15 B22 1.806913 1_555
B15 B18 1.808670 1_555
B15 B33 1.872255 1_544
B15 Si4 2.048492 1_555
B15 Lu1 2.949387 1_555
B16 B7 1.775494 1_554
B16 B19 1.806913 1_555
B16 B23 1.808670 1_555
B16 B34 1.872255 1_454
B16 Si2 2.048492 1_555
B16 Lu0 2.949387 1_555
B17 B8 1.800130 1_455
B17 B9 1.800130 1_545
B17 B20 1.814476 1_555
B17 B21 1.814476 1_555
B17 B35 1.870883 1_445
B17 Si3 2.098816 1_555
B17 Lu0 2.962412 1_555
B17 Lu1 2.962412 1_555
B18 B23 1.744979 1_555
B18 B22 1.818215 1_555
B18 B30 1.833177 1_555
B19 B21 1.780452 1_555
B19 B31 1.799350 1_555
B19 B23 1.818215 1_555
B19 Lu0 2.776305 1_555
B20 B22 1.780452 1_555
B20 B9 1.804705 1_545
B20 B32 1.815010 1_555
B20 B21 1.821643 1_555
B20 Lu1 2.781502 1_555
B21 B8 1.804705 1_455
B21 B32 1.815010 1_555
B21 B3 1.821140 1_455
B21 Lu0 2.781502 1_555
B22 B6 1.793569 1_545
B22 B30 1.799350 1_555
B22 B4 1.824459 1_545
B22 Lu1 2.776305 1_555
B23 B7 1.802031 1_554
B23 B5 1.814218 1_554
B23 B31 1.833177 1_555
B24 B29 1.695012 1_555
B24 B4 1.768445 1_556
B24 B6 1.815756 1_556
B24 B28 1.820443 1_555
B24 B33 1.822606 1_555
B25 B27 1.722525 1_555
B25 B5 1.761651 1_655
B25 B34 1.792572 1_555
B25 B29 1.820443 1_555
B25 B7 1.826472 1_655
B25 Lu0 2.742872 1_655
B26 B28 1.722525 1_555
B26 B3 1.773146 1_565
B26 B35 1.807711 1_555
B26 B8 1.824888 1_565
B26 B27 1.826614 1_555
B26 Lu1 2.747969 1_565
B27 B35 1.807711 1_555
B27 B9 1.824888 1_655
B27 Lu0 2.747969 1_655
B28 B33 1.792572 1_555
B28 Lu1 2.742872 1_565
B29 B34 1.822606 1_555
B30 B4 1.753830 1_545
B30 Si8 1.946961 1_555
B31 B5 1.739941 1_554
B31 Si8 1.946961 1_555
B32 Si8 1.942377 1_555
B33 C0 1.625687 1_555
B33 B6 1.787876 1_556
B34 C0 1.625687 1_555
B34 B7 1.804050 1_655
B35 C0 1.616826 1_555
B35 B8 1.819182 1_565
B35 B9 1.819182 1_655
C0 Si8 1.839066 1_666
