# generated using pymatgen
data_Mg5Si9
_symmetry_space_group_name_H-M   'P 1'
_cell_length_a   13.67232531
_cell_length_b   6.91854913
_cell_length_c   5.73037954
_cell_angle_alpha   71.94729184
_cell_angle_beta   101.10402002
_cell_angle_gamma   105.26733499
_symmetry_Int_Tables_number   1
_chemical_formula_structural   Mg5Si9
_chemical_formula_sum   'Mg10 Si18'
_cell_volume   493.52567893
_cell_formula_units_Z   2
loop_
 _symmetry_equiv_pos_site_id
 _symmetry_equiv_pos_as_xyz
  1  'x, y, z'
loop_
 _atom_site_type_symbol
 _atom_site_label
 _atom_site_symmetry_multiplicity
 _atom_site_fract_x
 _atom_site_fract_y
 _atom_site_fract_z
 _atom_site_occupancy
  Mg  Mg0  1  0.67433700  0.23905100  0.42650800  1
  Mg  Mg1  1  0.38310000  0.55559400  0.75915600  1
  Mg  Mg2  1  0.54635300  0.41563200  0.64878500  1
  Mg  Mg3  1  0.40744800  0.67862800  0.22377600  1
  Mg  Mg4  1  0.61949300  0.99326600  0.04167000  1
  Mg  Mg5  1  0.44485100  0.15379400  0.16515200  1
  Mg  Mg6  1  0.14201900  0.47315500  0.49655900  1
  Mg  Mg7  1  0.92183800  0.61301900  0.18893400  1
  Mg  Mg8  1  0.11211800  0.00041200  0.44405200  1
  Mg  Mg9  1  0.75617800  0.70133600  0.41031300  1
  Si  Si0  1  0.12151200  0.81623900  0.07219900  1
  Si  Si1  1  0.86232000  0.34550500  0.65736300  1
  Si  Si2  1  0.33008000  0.25643200  0.47733000  1
  Si  Si3  1  0.69037400  0.72568600  0.84471100  1
  Si  Si4  1  0.24983000  0.15041700  0.86624300  1
  Si  Si5  1  0.83959300  0.98555100  0.94997600  1
  Si  Si6  1  0.24498700  0.76784600  0.80367800  1
  Si  Si7  1  0.83847200  0.14485300  0.30187400  1
  Si  Si8  1  0.22388700  0.40015700  0.07368200  1
  Si  Si9  1  0.56877700  0.53709900  0.14074200  1
  Si  Si10  1  0.93068600  0.90106800  0.65911300  1
  Si  Si11  1  0.06083900  0.13486300  0.87221500  1
  Si  Si12  1  0.27696100  0.87607100  0.35936500  1
  Si  Si13  1  0.74205800  0.39162400  0.89405400  1
  Si  Si14  1  0.02114000  0.59891700  0.77555800  1
  Si  Si15  1  0.00999400  0.29519500  0.15063300  1
  Si  Si16  1  0.54755700  0.86380500  0.55105700  1
  Si  Si17  1  0.43300400  0.98483200  0.74518100  1
loop_
_geom_bond_atom_site_label_1
_geom_bond_atom_site_label_2
_geom_bond_distance
_geom_bond_site_symmetry_2
Mg0 Si1 2.682450 1_555
Mg0 Si16 2.685547 1_545
Mg0 Si9 2.753323 1_555
Mg0 Si7 2.765300 1_555
Mg0 Si13 3.071211 1_555
Mg0 Si13 3.139813 1_554
Mg1 Si6 2.768650 1_555
Mg1 Si16 2.820733 1_555
Mg1 Si17 2.845634 1_555
Mg1 Si8 2.867149 1_556
Mg1 Si4 2.868678 1_555
Mg1 Si2 2.871958 1_555
Mg1 Mg2 2.895055 1_555
Mg1 Mg3 2.972882 1_556
Mg1 Mg3 2.978790 1_555
Mg1 Si9 3.016936 1_556
Mg1 Si12 3.088076 1_555
Mg1 Mg5 3.213132 1_556
Mg1 Mg6 3.329499 1_555
Mg2 Si13 2.793455 1_555
Mg2 Si9 2.822683 1_555
Mg2 Si3 2.855878 1_555
Mg2 Si17 2.909814 1_545
Mg2 Si2 2.959475 1_555
Mg2 Si16 2.971316 1_555
Mg2 Si9 3.122064 1_556
Mg3 Si16 2.764254 1_555
Mg3 Si9 2.807305 1_555
Mg3 Si2 2.845441 1_555
Mg3 Si12 2.850927 1_555
Mg3 Si8 2.898164 1_555
Mg3 Si17 2.917169 1_554
Mg3 Si6 2.975145 1_554
Mg4 Si17 2.775903 1_554
Mg4 Si13 2.790755 1_564
Mg4 Si3 2.881206 1_554
Mg4 Si9 2.941458 1_555
Mg4 Si16 3.051476 1_555
Mg4 Si16 3.115322 1_554
Mg4 Si7 3.143720 1_565
Mg4 Si5 3.169499 1_554
Mg5 Si9 2.723614 1_555
Mg5 Si12 2.745075 1_545
Mg5 Si4 2.876958 1_554
Mg5 Si16 2.902612 1_545
Mg5 Si2 2.936351 1_555
Mg5 Si17 2.945871 1_544
Mg5 Si17 3.184309 1_545
Mg6 Si15 2.769057 1_555
Mg6 Si11 2.788063 1_555
Mg6 Si0 2.852472 1_555
Mg6 Si12 2.878286 1_555
Mg6 Si14 2.946484 1_555
Mg6 Si6 2.998996 1_555
Mg6 Si4 3.040581 1_555
Mg6 Si8 3.079135 1_555
Mg6 Si8 3.206520 1_556
Mg7 Si0 2.824228 1_655
Mg7 Si15 2.851802 1_655
Mg7 Si1 2.874381 1_555
Mg7 Si5 2.920317 1_554
Mg7 Si14 2.985941 1_654
Mg7 Si7 3.041369 1_555
Mg7 Si13 3.043823 1_554
Mg7 Si10 3.077084 1_554
Mg8 Si15 2.721435 1_555
Mg8 Si12 2.784999 1_545
Mg8 Si10 2.810544 1_445
Mg8 Si0 2.838148 1_545
Mg8 Si6 2.859758 1_545
Mg8 Si14 2.948206 1_545
Mg8 Si4 3.041009 1_555
Mg8 Si2 3.043854 1_555
Mg8 Si11 3.108679 1_554
Mg8 Si11 3.130055 1_555
Mg8 Si8 3.142293 1_555
Mg9 Si10 2.794513 1_555
Mg9 Si3 2.869956 1_555
Mg9 Si9 2.876171 1_555
Mg9 Si7 2.887392 1_565
Mg9 Si13 2.935929 1_555
Mg9 Si5 2.981391 1_554
Mg9 Si1 3.016773 1_555
Mg9 Si3 3.156084 1_554
Si0 Si11 2.427352 1_564
Si0 Si12 2.451138 1_555
Si0 Si14 2.575334 1_554
Si0 Si4 2.605082 1_564
Si0 Si6 2.635775 1_554
Si1 Si13 2.459386 1_555
Si1 Si5 2.512989 1_545
Si1 Si14 2.532243 1_655
Si1 Si7 2.727943 1_555
Si2 Si4 2.492690 1_555
Si2 Si8 2.547208 1_555
Si3 Si9 2.432309 1_556
Si3 Si5 2.454579 1_555
Si4 Si8 2.506470 1_556
Si4 Si6 2.761406 1_545
Si5 Si7 2.584474 1_566
Si6 Si8 2.508870 1_556
Si10 Si11 2.479017 1_665
Si10 Si5 2.541188 1_555
Si10 Si14 2.554177 1_655
Si10 Si7 2.571149 1_565
Si11 Si15 2.487840 1_556
Si11 Si4 2.564151 1_555
Si11 Si8 2.799711 1_556
Si12 Si6 2.511785 1_555
Si12 Si2 2.795773 1_565
Si12 Si4 2.892771 1_564
Si12 Si17 2.893897 1_555
Si13 Si3 2.509816 1_555
Si13 Si7 2.764004 1_556
Si14 Si15 2.493323 1_556
Si15 Si7 2.504407 1_455
Si15 Si8 2.907544 1_555
Si16 Si3 2.505597 1_555
Si16 Si17 2.516071 1_555
Si17 Si2 2.576844 1_565
Si17 Si6 2.638527 1_555
