# generated using pymatgen
data_Li7Mn5O12
_symmetry_space_group_name_H-M   'P 1'
_cell_length_a   6.01903780
_cell_length_b   7.63931198
_cell_length_c   9.93021895
_cell_angle_alpha   94.73414604
_cell_angle_beta   78.31902747
_cell_angle_gamma   98.28787889
_symmetry_Int_Tables_number   1
_chemical_formula_structural   Li7Mn5O12
_chemical_formula_sum   'Li14 Mn10 O24'
_cell_volume   441.80733388
_cell_formula_units_Z   2
loop_
 _symmetry_equiv_pos_site_id
 _symmetry_equiv_pos_as_xyz
  1  'x, y, z'
loop_
 _atom_site_type_symbol
 _atom_site_label
 _atom_site_symmetry_multiplicity
 _atom_site_fract_x
 _atom_site_fract_y
 _atom_site_fract_z
 _atom_site_occupancy
  Li  Li0  1  0.16922100  0.66576800  0.00274000  1
  Li  Li1  1  0.66969800  0.16575600  0.50272100  1
  Li  Li2  1  0.67792400  0.42244900  0.75545100  1
  Li  Li3  1  0.17818800  0.92262900  0.25551100  1
  Li  Li4  1  0.15130200  0.40694500  0.74450600  1
  Li  Li5  1  0.65113700  0.90681500  0.24435400  1
  Li  Li6  1  0.84838000  0.58676000  0.24428100  1
  Li  Li7  1  0.34846400  0.08663700  0.74414800  1
  Li  Li8  1  0.50310800  0.75550700  0.76103700  1
  Li  Li9  1  0.00334900  0.25554600  0.26110200  1
  Li  Li10  1  0.99562100  0.74025100  0.74915800  1
  Li  Li11  1  0.49569700  0.24026500  0.24903900  1
  Li  Li12  1  0.32004300  0.58371600  0.24316300  1
  Li  Li13  1  0.82010700  0.08371400  0.74314100  1
  Mn  Mn0  1  0.16869400  0.16660700  0.50023000  1
  Mn  Mn1  1  0.49683300  0.49679400  0.49781100  1
  Mn  Mn2  1  0.83279800  0.83747700  0.50147800  1
  Mn  Mn3  1  0.49041800  0.99668700  0.99687500  1
  Mn  Mn4  1  0.84269300  0.34071700  0.00271800  1
  Mn  Mn5  1  0.66849700  0.66651700  0.00009300  1
  Mn  Mn6  1  0.99657600  0.99688500  0.99769800  1
  Mn  Mn7  1  0.33261000  0.33743000  0.00141100  1
  Mn  Mn8  1  0.99067400  0.49676700  0.49704600  1
  Mn  Mn9  1  0.34263200  0.84061600  0.50275000  1
  O  O0  1  0.89300900  0.79046700  0.10563700  1
  O  O1  1  0.39335100  0.29060400  0.60586100  1
  O  O2  1  0.44482600  0.54580800  0.89327000  1
  O  O3  1  0.94531800  0.04595200  0.39340900  1
  O  O4  1  0.60854000  0.46860500  0.11840400  1
  O  O5  1  0.10868500  0.96880800  0.61850200  1
  O  O6  1  0.72674300  0.86710300  0.88332400  1
  O  O7  1  0.22706600  0.36713900  0.38342600  1
  O  O8  1  0.26841400  0.12274300  0.11565500  1
  O  O9  1  0.76868900  0.62273900  0.61574900  1
  O  O10  1  0.06397600  0.20744900  0.88489200  1
  O  O11  1  0.56416800  0.70742600  0.38496200  1
  O  O12  1  0.43293900  0.79778500  0.11287500  1
  O  O13  1  0.93326700  0.29785600  0.61299300  1
  O  O14  1  0.90361300  0.54388100  0.88485900  1
  O  O15  1  0.40391300  0.04406000  0.38485600  1
  O  O16  1  0.09835200  0.44563300  0.12102100  1
  O  O17  1  0.59850900  0.94567100  0.62104900  1
  O  O18  1  0.76258800  0.39415000  0.39236100  1
  O  O19  1  0.26223700  0.89409600  0.89221500  1
  O  O20  1  0.73387700  0.11583900  0.10374800  1
  O  O21  1  0.23423700  0.61592600  0.60389100  1
  O  O22  1  0.56436600  0.20051500  0.88421900  1
  O  O23  1  0.06465100  0.70048800  0.38436000  1
loop_
_geom_bond_atom_site_label_1
_geom_bond_atom_site_label_2
_geom_bond_distance
_geom_bond_site_symmetry_2
Li0 O16 2.075077 1_555
Li0 O2 2.077743 1_554
Li0 O0 2.079323 1_455
Li0 O19 2.084745 1_554
Li0 O12 2.189109 1_555
Li0 O14 2.223026 1_454
Li1 O17 2.074988 1_545
Li1 O3 2.076691 1_555
Li1 O1 2.081257 1_555
Li1 O18 2.084252 1_555
Li1 O13 2.189455 1_555
Li1 O15 2.223344 1_555
Li2 O2 2.029859 1_555
Li2 O9 2.089646 1_555
Li2 O14 2.122268 1_555
Li2 O13 2.142044 1_555
Li2 O22 2.155589 1_555
Li2 O1 2.537890 1_555
Li3 O3 2.029256 1_465
Li3 O8 2.089599 1_565
Li3 O15 2.121981 1_565
Li3 O12 2.141532 1_555
Li3 O23 2.157305 1_555
Li3 O0 2.543128 1_455
Li4 O1 2.041344 1_555
Li4 O13 2.078785 1_455
Li4 O10 2.089342 1_555
Li4 O21 2.145608 1_555
Li4 O14 2.151054 1_455
Li4 O2 2.585885 1_555
Li5 O0 2.041042 1_555
Li5 O12 2.079112 1_555
Li5 O11 2.090200 1_555
Li5 O20 2.145807 1_565
Li5 O15 2.151238 1_565
Li5 O3 2.591317 1_565
Li6 O18 2.103471 1_555
Li6 O16 2.104378 1_655
Li6 O0 2.114882 1_555
Li6 O23 2.142886 1_655
Li6 O4 2.151739 1_555
Li6 O11 2.236540 1_555
Li7 O19 2.103010 1_545
Li7 O17 2.103344 1_545
Li7 O1 2.113814 1_555
Li7 O22 2.141620 1_555
Li7 O5 2.149223 1_545
Li7 O10 2.238497 1_555
Li8 O17 2.035232 1_555
Li8 O6 2.042906 1_555
Li8 O19 2.090415 1_555
Li8 O2 2.100535 1_555
Li8 O9 2.226559 1_555
Li8 O21 2.538037 1_555
Li9 O16 2.035339 1_555
Li9 O7 2.043509 1_555
Li9 O18 2.090409 1_455
Li9 O3 2.100488 1_455
Li9 O8 2.225405 1_555
Li9 O20 2.542307 1_455
Li10 O14 2.040819 1_555
Li10 O21 2.091387 1_655
Li10 O9 2.146988 1_555
Li10 O6 2.167767 1_555
Li10 O5 2.206560 1_655
Li10 O19 2.465444 1_655
Li11 O15 2.040599 1_555
Li11 O20 2.090286 1_555
Li11 O8 2.148314 1_555
Li11 O7 2.167769 1_555
Li11 O4 2.205019 1_555
Li11 O18 2.468463 1_555
Li12 O16 2.098272 1_555
Li12 O23 2.107331 1_555
Li12 O12 2.117276 1_555
Li12 O4 2.170888 1_555
Li12 O7 2.188238 1_555
Li12 O11 2.291900 1_555
Li13 O17 2.097450 1_545
Li13 O22 2.108245 1_555
Li13 O13 2.116999 1_555
Li13 O5 2.170062 1_645
Li13 O6 2.187968 1_545
Li13 O10 2.290525 1_655
Mn0 O15 1.934361 1_555
Mn0 O5 1.938277 1_545
Mn0 O7 1.946458 1_555
Mn0 O3 1.959928 1_455
Mn0 O13 1.961877 1_455
Mn0 O1 1.966498 1_555
Mn1 O1 1.935410 1_555
Mn1 O18 1.953938 1_555
Mn1 O11 1.983661 1_555
Mn1 O21 2.004592 1_555
Mn1 O7 2.237236 1_555
Mn1 O9 2.260735 1_555
Mn2 O17 1.891469 1_555
Mn2 O3 1.955398 1_565
Mn2 O23 1.989522 1_655
Mn2 O9 2.018681 1_555
Mn2 O11 2.246059 1_555
Mn2 O5 2.285416 1_655
Mn3 O8 1.910345 1_566
Mn3 O19 1.927147 1_555
Mn3 O12 1.931675 1_556
Mn3 O22 1.939144 1_565
Mn3 O6 1.961380 1_555
Mn3 O20 2.046444 1_566
Mn4 O10 1.934612 1_654
Mn4 O4 1.953621 1_555
Mn4 O14 1.968504 1_554
Mn4 O20 2.020087 1_555
Mn4 O16 2.147433 1_655
Mn4 O22 2.326205 1_554
Mn5 O14 1.933745 1_554
Mn5 O4 1.939230 1_555
Mn5 O6 1.946616 1_554
Mn5 O2 1.961368 1_554
Mn5 O12 1.962568 1_555
Mn5 O0 1.965196 1_555
Mn6 O0 1.936261 1_556
Mn6 O19 1.954140 1_655
Mn6 O10 1.982968 1_665
Mn6 O20 2.004245 1_566
Mn6 O6 2.237759 1_555
Mn6 O8 2.260585 1_666
Mn7 O16 1.891546 1_555
Mn7 O2 1.954974 1_554
Mn7 O22 1.989103 1_554
Mn7 O8 2.018178 1_555
Mn7 O10 2.245938 1_554
Mn7 O4 2.285076 1_555
Mn8 O9 1.909584 1_555
Mn8 O18 1.926924 1_555
Mn8 O13 1.931426 1_555
Mn8 O23 1.938653 1_655
Mn8 O7 1.962108 1_655
Mn8 O21 2.046759 1_655
Mn9 O11 1.935088 1_555
Mn9 O5 1.954339 1_555
Mn9 O15 1.970351 1_565
Mn9 O21 2.019172 1_555
Mn9 O17 2.148661 1_555
Mn9 O23 2.323788 1_555
