# generated using pymatgen
data_Be3Co2(NF6)2
_symmetry_space_group_name_H-M   'P 1'
_cell_length_a   9.91544300
_cell_length_b   9.91544300
_cell_length_c   9.91544300
_cell_angle_alpha   90.00000000
_cell_angle_beta   90.00000000
_cell_angle_gamma   90.00000000
_symmetry_Int_Tables_number   1
_chemical_formula_structural   Be3Co2(NF6)2
_chemical_formula_sum   'Be12 Co8 N8 F48'
_cell_volume   974.84679201
_cell_formula_units_Z   4
loop_
 _symmetry_equiv_pos_site_id
 _symmetry_equiv_pos_as_xyz
  1  'x, y, z'
loop_
 _atom_site_type_symbol
 _atom_site_label
 _atom_site_symmetry_multiplicity
 _atom_site_fract_x
 _atom_site_fract_y
 _atom_site_fract_z
 _atom_site_occupancy
  Be  Be0  1  0.02007200  0.21025500  0.37551300  1
  Be  Be1  1  0.47992800  0.78974500  0.87551300  1
  Be  Be2  1  0.97992800  0.71025500  0.12448700  1
  Be  Be3  1  0.37551300  0.02007200  0.21025500  1
  Be  Be4  1  0.52007200  0.28974500  0.62448700  1
  Be  Be5  1  0.87551300  0.47992800  0.78974500  1
  Be  Be6  1  0.12448700  0.97992800  0.71025500  1
  Be  Be7  1  0.62448700  0.52007200  0.28974500  1
  Be  Be8  1  0.21025500  0.37551300  0.02007200  1
  Be  Be9  1  0.71025500  0.12448700  0.97992800  1
  Be  Be10  1  0.28974500  0.62448700  0.52007200  1
  Be  Be11  1  0.78974500  0.87551300  0.47992800  1
  Co  Co0  1  0.33720600  0.33720600  0.33720600  1
  Co  Co1  1  0.16279400  0.66279400  0.83720600  1
  Co  Co2  1  0.66279400  0.83720600  0.16279400  1
  Co  Co3  1  0.83720600  0.16279400  0.66279400  1
  Co  Co4  1  0.60655300  0.60655300  0.60655300  1
  Co  Co5  1  0.89344700  0.39344700  0.10655300  1
  Co  Co6  1  0.39344700  0.10655300  0.89344700  1
  Co  Co7  1  0.10655300  0.89344700  0.39344700  1
  N  N0  1  0.04393300  0.04393300  0.04393300  1
  N  N1  1  0.45606700  0.95606700  0.54393300  1
  N  N2  1  0.95606700  0.54393300  0.45606700  1
  N  N3  1  0.54393300  0.45606700  0.95606700  1
  N  N4  1  0.81765700  0.81765700  0.81765700  1
  N  N5  1  0.68234300  0.18234300  0.31765700  1
  N  N6  1  0.18234300  0.31765700  0.68234300  1
  N  N7  1  0.31765700  0.68234300  0.18234300  1
  F  F0  1  0.01568700  0.05733700  0.33418500  1
  F  F1  1  0.48431300  0.94266300  0.83418500  1
  F  F2  1  0.98431300  0.55733700  0.16581500  1
  F  F3  1  0.33418500  0.01568700  0.05733700  1
  F  F4  1  0.51568700  0.44266300  0.66581500  1
  F  F5  1  0.83418500  0.48431300  0.94266300  1
  F  F6  1  0.16581500  0.98431300  0.55733700  1
  F  F7  1  0.66581500  0.51568700  0.44266300  1
  F  F8  1  0.05733700  0.33418500  0.01568700  1
  F  F9  1  0.55733700  0.16581500  0.98431300  1
  F  F10  1  0.44266300  0.66581500  0.51568700  1
  F  F11  1  0.94266300  0.83418500  0.48431300  1
  F  F12  1  0.27232500  0.49357200  0.43467000  1
  F  F13  1  0.22767500  0.50642800  0.93467000  1
  F  F14  1  0.72767500  0.99357200  0.06533000  1
  F  F15  1  0.43467000  0.27232500  0.49357200  1
  F  F16  1  0.77232500  0.00642800  0.56533000  1
  F  F17  1  0.93467000  0.22767500  0.50642800  1
  F  F18  1  0.06533000  0.72767500  0.99357200  1
  F  F19  1  0.56533000  0.77232500  0.00642800  1
  F  F20  1  0.49357200  0.43467000  0.27232500  1
  F  F21  1  0.99357200  0.06533000  0.72767500  1
  F  F22  1  0.00642800  0.56533000  0.77232500  1
  F  F23  1  0.50642800  0.93467000  0.22767500  1
  F  F24  1  0.04692000  0.80060100  0.23393900  1
  F  F25  1  0.45308000  0.19939900  0.73393900  1
  F  F26  1  0.95308000  0.30060100  0.26606100  1
  F  F27  1  0.23393900  0.04692000  0.80060100  1
  F  F28  1  0.54692000  0.69939900  0.76606100  1
  F  F29  1  0.73393900  0.45308000  0.19939900  1
  F  F30  1  0.26606100  0.95308000  0.30060100  1
  F  F31  1  0.76606100  0.54692000  0.69939900  1
  F  F32  1  0.80060100  0.23393900  0.04692000  1
  F  F33  1  0.30060100  0.26606100  0.95308000  1
  F  F34  1  0.69939900  0.76606100  0.54692000  1
  F  F35  1  0.19939900  0.73393900  0.45308000  1
  F  F36  1  0.17025600  0.25239700  0.39625500  1
  F  F37  1  0.32974400  0.74760300  0.89625500  1
  F  F38  1  0.82974400  0.75239700  0.10374500  1
  F  F39  1  0.39625500  0.17025600  0.25239700  1
  F  F40  1  0.67025600  0.24760300  0.60374500  1
  F  F41  1  0.89625500  0.32974400  0.74760300  1
  F  F42  1  0.10374500  0.82974400  0.75239700  1
  F  F43  1  0.60374500  0.67025600  0.24760300  1
  F  F44  1  0.25239700  0.39625500  0.17025600  1
  F  F45  1  0.75239700  0.10374500  0.82974400  1
  F  F46  1  0.24760300  0.60374500  0.67025600  1
  F  F47  1  0.74760300  0.89625500  0.32974400  1
loop_
_geom_bond_atom_site_label_1
_geom_bond_atom_site_label_2
_geom_bond_distance
_geom_bond_site_symmetry_2
Be0 F26 1.556127 1_455
Be0 F17 1.559460 1_455
Be0 F36 1.560270 1_555
Be0 F0 1.571250 1_555
Be1 F28 1.556127 1_555
Be1 F19 1.559460 1_556
Be1 F37 1.560270 1_555
Be1 F1 1.571250 1_555
Be2 F24 1.556127 1_655
Be2 F18 1.559460 1_654
Be2 F38 1.560270 1_555
Be2 F2 1.571250 1_555
Be3 F30 1.556127 1_545
Be3 F23 1.559460 1_545
Be3 F39 1.560270 1_555
Be3 F3 1.571250 1_555
Be4 F25 1.556127 1_555
Be4 F15 1.559460 1_555
Be4 F40 1.560270 1_555
Be4 F4 1.571250 1_555
Be5 F31 1.556127 1_555
Be5 F22 1.559460 1_655
Be5 F41 1.560270 1_555
Be5 F5 1.571250 1_555
Be6 F27 1.556127 1_565
Be6 F21 1.559460 1_465
Be6 F42 1.560270 1_555
Be6 F6 1.571250 1_555
Be7 F29 1.556127 1_555
Be7 F20 1.559460 1_555
Be7 F43 1.560270 1_555
Be7 F7 1.571250 1_555
Be8 F33 1.556127 1_554
Be8 F13 1.559460 1_554
Be8 F44 1.560270 1_555
Be8 F8 1.571250 1_555
Be9 F32 1.556127 1_556
Be9 F14 1.559460 1_546
Be9 F45 1.560270 1_555
Be9 F9 1.571250 1_555
Be10 F35 1.556127 1_555
Be10 F12 1.559460 1_555
Be10 F46 1.560270 1_555
Be10 F10 1.571250 1_555
Be11 F34 1.556127 1_555
Be11 F16 1.559460 1_565
Be11 F47 1.560270 1_555
Be11 F11 1.571250 1_555
Co0 F20 1.936918 1_555
Co0 F15 1.936918 1_555
Co0 F12 1.936918 1_555
Co0 F39 1.946855 1_555
Co0 F44 1.946855 1_555
Co0 F36 1.946855 1_555
Co1 F18 1.936918 1_555
Co1 F22 1.936918 1_555
Co1 F13 1.936918 1_555
Co1 F37 1.946855 1_555
Co1 F42 1.946855 1_555
Co1 F46 1.946855 1_555
Co2 F19 1.936918 1_555
Co2 F23 1.936918 1_555
Co2 F14 1.936918 1_555
Co2 F47 1.946855 1_555
Co2 F38 1.946855 1_555
Co2 F43 1.946855 1_555
Co3 F16 1.936918 1_555
Co3 F17 1.936918 1_555
Co3 F21 1.936918 1_555
Co3 F41 1.946855 1_555
Co3 F45 1.946855 1_555
Co3 F40 1.946855 1_555
Co4 F34 1.923169 1_555
Co4 F28 1.923169 1_555
Co4 F31 1.923169 1_555
Co4 F10 1.948796 1_555
Co4 F7 1.948796 1_555
Co4 F4 1.948796 1_555
Co5 F32 1.923169 1_555
Co5 F26 1.923169 1_555
Co5 F29 1.923169 1_555
Co5 F2 1.948796 1_555
Co5 F8 1.948796 1_655
Co5 F5 1.948796 1_554
Co6 F27 1.923169 1_555
Co6 F33 1.923169 1_555
Co6 F25 1.923169 1_555
Co6 F3 1.948796 1_556
Co6 F9 1.948796 1_555
Co6 F1 1.948796 1_545
Co7 F24 1.923169 1_555
Co7 F35 1.923169 1_555
Co7 F30 1.923169 1_555
Co7 F0 1.948796 1_565
Co7 F6 1.948796 1_555
Co7 F11 1.948796 1_455
