# generated using pymatgen
data_LaGe2PdRh
_symmetry_space_group_name_H-M   'P 1'
_cell_length_a   4.32522900
_cell_length_b   4.32522900
_cell_length_c   10.36407300
_cell_angle_alpha   90.00000000
_cell_angle_beta   90.00000000
_cell_angle_gamma   90.00000000
_symmetry_Int_Tables_number   1
_chemical_formula_structural   LaGe2PdRh
_chemical_formula_sum   'La2 Ge4 Pd2 Rh2'
_cell_volume   193.88699323
_cell_formula_units_Z   2
loop_
 _symmetry_equiv_pos_site_id
 _symmetry_equiv_pos_as_xyz
  1  'x, y, z'
loop_
 _atom_site_type_symbol
 _atom_site_label
 _atom_site_symmetry_multiplicity
 _atom_site_fract_x
 _atom_site_fract_y
 _atom_site_fract_z
 _atom_site_occupancy
  La  La0  1  0.00000000  0.50000000  0.25338000  1
  La  La1  1  0.50000000  0.00000000  0.74662000  1
  Ge  Ge0  1  0.00000000  0.00000000  0.50000000  1
  Ge  Ge1  1  0.50000000  0.50000000  0.50000000  1
  Ge  Ge2  1  0.00000000  0.50000000  0.87606900  1
  Ge  Ge3  1  0.50000000  0.00000000  0.12393100  1
  Pd  Pd0  1  0.00000000  0.50000000  0.63279400  1
  Pd  Pd1  1  0.50000000  0.00000000  0.36720600  1
  Rh  Rh0  1  0.00000000  0.00000000  0.00000000  1
  Rh  Rh1  1  0.50000000  0.50000000  0.00000000  1
loop_
_geom_bond_atom_site_label_1
_geom_bond_atom_site_label_2
_geom_bond_distance
_geom_bond_site_symmetry_2
La0 Pd1 3.278033 1_565
La0 Pd1 3.278033 1_455
La0 Pd1 3.278033 1_465
La0 Pd1 3.278033 1_555
La0 Rh1 3.401916 1_455
La0 Rh1 3.401916 1_555
La0 Rh0 3.401916 1_565
La0 Rh0 3.401916 1_555
La1 Pd0 3.278033 1_645
La1 Pd0 3.278033 1_655
La1 Pd0 3.278033 1_545
La1 Pd0 3.278033 1_555
La1 Rh0 3.401916 1_656
La1 Rh1 3.401916 1_556
La1 Rh1 3.401916 1_546
La1 Rh0 3.401916 1_556
Ge0 Pd0 2.563409 1_545
Ge0 Pd0 2.563409 1_555
Ge0 Pd1 2.563409 1_455
Ge0 Pd1 2.563409 1_555
Ge0 La0 3.348130 1_545
Ge0 La0 3.348130 1_555
Ge0 La1 3.348130 1_455
Ge0 La1 3.348130 1_555
Ge1 Pd0 2.563409 1_655
Ge1 Pd0 2.563409 1_555
Ge1 Pd1 2.563409 1_565
Ge1 Pd1 2.563409 1_555
Ge1 La0 3.348130 1_655
Ge1 La0 3.348130 1_555
Ge1 La1 3.348130 1_565
Ge1 La1 3.348130 1_555
Ge2 Rh0 2.515286 1_556
Ge2 Rh0 2.515286 1_566
Ge2 Rh1 2.515286 1_456
Ge2 Rh1 2.515286 1_556
Ge2 Pd0 2.521320 1_555
Ge2 La1 3.339722 1_455
Ge2 La1 3.339722 1_555
Ge2 La1 3.339722 1_465
Ge2 La1 3.339722 1_565
Ge3 Rh1 2.515286 1_555
Ge3 Rh1 2.515286 1_545
Ge3 Rh0 2.515286 1_555
Ge3 Rh0 2.515286 1_655
Ge3 Pd1 2.521320 1_555
Ge3 La0 3.339722 1_545
Ge3 La0 3.339722 1_645
Ge3 La0 3.339722 1_555
Ge3 La0 3.339722 1_655
