# generated using pymatgen
data_Y6Cr(SiS7)2
_symmetry_space_group_name_H-M   'P 1'
_cell_length_a   9.91672185
_cell_length_b   9.91672185
_cell_length_c   5.61359100
_cell_angle_alpha   90.00000000
_cell_angle_beta   90.00000000
_cell_angle_gamma   119.99999899
_symmetry_Int_Tables_number   1
_chemical_formula_structural   Y6Cr(SiS7)2
_chemical_formula_sum   'Y6 Cr1 Si2 S14'
_cell_volume   478.08780661
_cell_formula_units_Z   1
loop_
 _symmetry_equiv_pos_site_id
 _symmetry_equiv_pos_as_xyz
  1  'x, y, z'
loop_
 _atom_site_type_symbol
 _atom_site_label
 _atom_site_symmetry_multiplicity
 _atom_site_fract_x
 _atom_site_fract_y
 _atom_site_fract_z
 _atom_site_occupancy
  Y  Y0  1  0.43412700  0.45670600  0.74930100  1
  Y  Y1  1  0.02257900  0.56587300  0.74930100  1
  Y  Y2  1  0.54329400  0.97742100  0.74930100  1
  Y  Y3  1  0.89962900  0.21054700  0.25090000  1
  Y  Y4  1  0.31091800  0.10037100  0.25090000  1
  Y  Y5  1  0.78945300  0.68908200  0.25090000  1
  Cr  Cr0  1  0.66666700  0.33333300  0.51333400  1
  Si  Si0  1  0.33333300  0.66666700  0.16501900  1
  Si  Si1  1  0.00000000  0.00000000  0.66231200  1
  S  S0  1  0.33333300  0.66666700  0.53961700  1
  S  S1  1  0.00000000  0.00000000  0.03714200  1
  S  S2  1  0.50739800  0.41899100  0.27563700  1
  S  S3  1  0.91159300  0.49260200  0.27563700  1
  S  S4  1  0.58100900  0.08840700  0.27563700  1
  S  S5  1  0.82887300  0.24992700  0.75190200  1
  S  S6  1  0.42105400  0.17112700  0.75190200  1
  S  S7  1  0.75007300  0.57894600  0.75190200  1
  S  S8  1  0.55916400  0.74437300  0.01519100  1
  S  S9  1  0.18521000  0.44083600  0.01519100  1
  S  S10  1  0.25562700  0.81479000  0.01519100  1
  S  S11  1  0.77526900  0.92146000  0.51235300  1
  S  S12  1  0.14619100  0.22473100  0.51235300  1
  S  S13  1  0.07854000  0.85380900  0.51235300  1
loop_
_geom_bond_atom_site_label_1
_geom_bond_atom_site_label_2
_geom_bond_distance
_geom_bond_site_symmetry_2
Cr0 S4 2.517577 1_555
Cr0 S3 2.517578 1_555
Cr0 S2 2.517585 1_555
Cr0 S5 2.528939 1_555
Cr0 S6 2.528945 1_555
Cr0 S7 2.528947 1_555
S0 Si0 2.102840 1_555
S0 Y1 2.966645 1_555
S0 Y2 2.966647 1_555
S0 Y0 2.966654 1_555
S1 Si1 2.104142 1_554
S1 Y3 2.977971 1_455
S1 Y4 2.977971 1_555
S1 Y5 2.977971 1_445
S2 Y5 2.743184 1_555
S2 Y4 2.764556 1_555
S2 Y0 2.830132 1_555
S2 Y0 3.109577 1_554
S3 Y3 2.743184 1_555
S3 Y5 2.764556 1_555
S3 Y1 2.830132 1_655
S3 Y1 3.109577 1_654
S4 Y4 2.743184 1_555
S4 Y3 2.764556 1_555
S4 Y2 2.830132 1_545
S4 Y2 3.109577 1_544
S5 Y1 2.736466 1_655
S5 Y2 2.769502 1_545
S5 Y3 2.960645 1_556
S5 Y3 2.971291 1_555
S6 Y2 2.736466 1_545
S6 Y0 2.769502 1_555
S6 Y4 2.960645 1_556
S6 Y4 2.971291 1_555
S7 Y0 2.736466 1_555
S7 Y1 2.769502 1_655
S7 Y5 2.960645 1_556
S7 Y5 2.971291 1_555
S8 Si0 2.142627 1_555
S8 Y2 2.820883 1_554
S8 Y0 2.892417 1_554
S8 Y5 2.918722 1_555
S9 Si0 2.142624 1_555
S9 Y0 2.820875 1_554
S9 Y1 2.892424 1_554
S9 Y3 2.918728 1_455
S10 Si0 2.142610 1_555
S10 Y1 2.820879 1_554
S10 Y2 2.892417 1_554
S10 Y4 2.918731 1_565
S11 Si1 2.132167 1_665
S11 Y5 2.794356 1_555
S11 Y3 2.891031 1_565
S11 Y2 2.940378 1_555
S12 Si1 2.132167 1_555
S12 Y3 2.794356 1_455
S12 Y4 2.891031 1_555
S12 Y0 2.940378 1_555
S13 Si1 2.132167 1_565
S13 Y4 2.794356 1_565
S13 Y5 2.891032 1_455
S13 Y1 2.940378 1_555
