# generated using pymatgen
data_RbScBr3
_symmetry_space_group_name_H-M   'P 1'
_cell_length_a   6.13981006
_cell_length_b   7.75078291
_cell_length_c   7.75152481
_cell_angle_alpha   120.00337023
_cell_angle_beta   89.99956561
_cell_angle_gamma   90.00103866
_symmetry_Int_Tables_number   1
_chemical_formula_structural   RbScBr3
_chemical_formula_sum   'Rb2 Sc2 Br6'
_cell_volume   319.45047060
_cell_formula_units_Z   2
loop_
 _symmetry_equiv_pos_site_id
 _symmetry_equiv_pos_as_xyz
  1  'x, y, z'
loop_
 _atom_site_type_symbol
 _atom_site_label
 _atom_site_symmetry_multiplicity
 _atom_site_fract_x
 _atom_site_fract_y
 _atom_site_fract_z
 _atom_site_occupancy
  Rb  Rb0  1  0.25001998  0.66667400  0.33333760  1
  Rb  Rb1  1  0.74997943  0.33333915  0.66667110  1
  Sc  Sc0  1  -0.00000141  0.00000193  0.00000036  1
  Sc  Sc1  1  0.50000095  0.00000222  0.00000075  1
  Br  Br0  1  0.74999332  0.83052219  0.16948554  1
  Br  Br1  1  0.25001149  0.16948688  0.83051962  1
  Br  Br2  1  0.75001057  0.33897442  0.16949237  1
  Br  Br3  1  0.24999085  0.66098852  0.83049572  1
  Br  Br4  1  0.74999528  0.83052068  0.66103137  1
  Br  Br5  1  0.24999853  0.16949101  0.33896557  1
loop_
_geom_bond_atom_site_label_1
_geom_bond_atom_site_label_2
_geom_bond_distance
_geom_bond_site_symmetry_2
Br0 Sc1 2.744725 1_565
Br0 Sc0 2.744732 1_665
Br0 Rb0 3.776531 1_555
Br0 Rb0 3.776850 1_655
Br0 Rb1 3.875558 1_554
Br0 Rb1 3.875569 1_565
Br1 Sc1 2.744720 1_556
Br1 Sc0 2.744762 1_556
Br1 Rb1 3.776506 1_555
Br1 Rb1 3.776879 1_455
Br1 Rb0 3.875540 1_545
Br1 Rb0 3.875588 1_556
Br2 Sc0 2.744568 1_655
Br2 Sc1 2.744599 1_555
Br2 Rb0 3.776544 1_555
Br2 Rb0 3.776579 1_655
Br2 Rb1 3.875919 1_555
Br2 Rb1 3.875975 1_554
Br3 Sc0 2.744811 1_566
Br3 Sc1 2.744831 1_566
Br3 Rb1 3.776338 1_555
Br3 Rb1 3.776392 1_455
Br3 Rb0 3.875943 1_556
Br3 Rb0 3.875957 1_555
Br4 Sc1 2.744734 1_566
Br4 Sc0 2.744759 1_666
Br4 Rb0 3.776535 1_555
Br4 Rb0 3.776788 1_655
Br4 Rb1 3.875561 1_565
Br4 Rb1 3.875592 1_555
Br5 Sc0 2.744726 1_555
Br5 Sc1 2.744737 1_555
Br5 Rb1 3.776609 1_555
Br5 Rb1 3.776806 1_455
Br5 Rb0 3.875556 1_555
Br5 Rb0 3.875595 1_545
