# generated using pymatgen
data_MgMn4Cu2(PO4)6
_symmetry_space_group_name_H-M   'P 1'
_cell_length_a   9.96782060
_cell_length_b   8.38860934
_cell_length_c   8.43123730
_cell_angle_alpha   61.09562512
_cell_angle_beta   56.84457390
_cell_angle_gamma   57.08008081
_symmetry_Int_Tables_number   1
_chemical_formula_structural   MgMn4Cu2(PO4)6
_chemical_formula_sum   'Mg1 Mn4 Cu2 P6 O24'
_cell_volume   477.74821837
_cell_formula_units_Z   1
loop_
 _symmetry_equiv_pos_site_id
 _symmetry_equiv_pos_as_xyz
  1  'x, y, z'
loop_
 _atom_site_type_symbol
 _atom_site_label
 _atom_site_symmetry_multiplicity
 _atom_site_fract_x
 _atom_site_fract_y
 _atom_site_fract_z
 _atom_site_occupancy
  Mg  Mg0  1  0.25335100  0.21564200  0.27801300  1
  Mn  Mn0  1  0.11339700  0.15572700  0.11093900  1
  Mn  Mn1  1  0.38131500  0.38776000  0.34941900  1
  Mn  Mn2  1  0.67568800  0.64702100  0.62979700  1
  Mn  Mn3  1  0.82235300  0.87378000  0.85116600  1
  Cu  Cu0  1  0.98171100  0.98961700  0.00222100  1
  Cu  Cu1  1  0.51771700  0.49801100  0.51016000  1
  P  P0  1  0.02186200  0.76057700  0.42590400  1
  P  P1  1  0.47484600  0.07428300  0.74128600  1
  P  P2  1  0.74852400  0.46846600  0.03322300  1
  P  P3  1  0.25160800  0.53609500  0.96375200  1
  P  P4  1  0.54930900  0.92834900  0.26825300  1
  P  P5  1  0.95588500  0.23094300  0.56890900  1
  O  O0  1  0.09693900  0.27679100  0.54097500  1
  O  O1  1  0.30797700  0.46963800  0.13558700  1
  O  O2  1  0.05623500  0.91943600  0.21655600  1
  O  O3  1  0.47081500  0.11566500  0.33674400  1
  O  O4  1  0.92716400  0.86297300  0.58817800  1
  O  O5  1  0.20258500  0.61496600  0.43956700  1
  O  O6  1  0.29476600  0.05773100  0.88901000  1
  O  O7  1  0.43747300  0.28535900  0.58502300  1
  O  O8  1  0.19883600  0.36133400  0.02540100  1
  O  O9  1  0.59935200  0.46481500  0.24365600  1
  O  O10  1  0.09283700  0.72864900  0.96475700  1
  O  O11  1  0.41000700  0.95068700  0.22415400  1
  O  O12  1  0.58175800  0.06565300  0.82294500  1
  O  O13  1  0.89938800  0.25921900  0.03113700  1
  O  O14  1  0.40813000  0.54207800  0.76817100  1
  O  O15  1  0.83097700  0.60726300  0.97852300  1
  O  O16  1  0.58253200  0.73091900  0.43247100  1
  O  O17  1  0.72608500  0.92510300  0.09779600  1
  O  O18  1  0.77612100  0.39658200  0.58266300  1
  O  O19  1  0.03072600  0.16538900  0.38122200  1
  O  O20  1  0.56846000  0.91215800  0.63859100  1
  O  O21  1  0.92904100  0.06095500  0.76279500  1
  O  O22  1  0.66529900  0.52654900  0.89530600  1
  O  O23  1  0.91607200  0.67600600  0.43572900  1
loop_
_geom_bond_atom_site_label_1
_geom_bond_atom_site_label_2
_geom_bond_distance
_geom_bond_site_symmetry_2
Mg0 O11 2.003053 1_545
Mg0 O0 2.014586 1_555
Mg0 O1 2.085829 1_555
Mg0 O8 2.086362 1_555
Mg0 O19 2.099823 1_555
Mg0 O3 2.108050 1_555
Mn0 O6 1.901771 1_554
Mn0 O19 1.982562 1_555
Mn0 O8 1.985568 1_555
Mn0 O2 2.003206 1_545
Mn0 O13 2.179285 1_455
Mn1 O5 1.900729 1_555
Mn1 O3 1.983768 1_555
Mn1 O1 1.988786 1_555
Mn1 O7 2.010287 1_555
Mn1 O9 2.187771 1_555
Mn2 O20 1.893016 1_555
Mn2 O18 1.912998 1_555
Mn2 O22 1.927811 1_555
Mn2 O16 1.993244 1_555
Mn2 O23 2.106636 1_555
Mn3 O4 1.890422 1_555
Mn3 O17 1.914122 1_556
Mn3 O15 1.931356 1_555
Mn3 O21 1.992160 1_565
Mn3 O12 2.111163 1_565
Cu0 O10 1.941443 1_654
Cu0 O2 2.031895 1_655
Cu0 O13 2.035829 1_565
Cu0 O21 2.087746 1_564
Cu0 O17 2.503211 1_555
Cu1 O14 1.949693 1_555
Cu1 O7 2.032362 1_555
Cu1 O9 2.036452 1_555
Cu1 O16 2.082223 1_555
Cu1 O18 2.563075 1_555
O0 P5 1.522568 1_455
O1 P3 1.579440 1_554
O2 P0 1.603014 1_555
O3 P4 1.568866 1_545
O4 P0 1.530641 1_655
O5 P0 1.565139 1_555
O6 P1 1.565527 1_555
O7 P1 1.604523 1_555
O8 P3 1.580674 1_554
O9 P2 1.571952 1_555
O10 P3 1.527674 1_555
O11 P4 1.521821 1_555
O12 P1 1.511766 1_555
O13 P2 1.573084 1_555
O14 P3 1.531945 1_555
O15 P2 1.533044 1_556
O16 P4 1.567882 1_555
O17 P4 1.544918 1_555
O18 P5 1.541797 1_555
O19 P5 1.570692 1_455
O20 P1 1.531416 1_565
O21 P5 1.568468 1_555
O22 P2 1.531610 1_556
O23 P0 1.510923 1_655
