# generated using pymatgen
data_Ca3(B3O10)2
_symmetry_space_group_name_H-M   'P 1'
_cell_length_a   8.29613801
_cell_length_b   8.29613801
_cell_length_c   13.49195080
_cell_angle_alpha   67.49158059
_cell_angle_beta   67.49158059
_cell_angle_gamma   71.63154997
_symmetry_Int_Tables_number   1
_chemical_formula_structural   Ca3(B3O10)2
_chemical_formula_sum   'Ca6 B12 O40'
_cell_volume   776.89570397
_cell_formula_units_Z   2
loop_
 _symmetry_equiv_pos_site_id
 _symmetry_equiv_pos_as_xyz
  1  'x, y, z'
loop_
 _atom_site_type_symbol
 _atom_site_label
 _atom_site_symmetry_multiplicity
 _atom_site_fract_x
 _atom_site_fract_y
 _atom_site_fract_z
 _atom_site_occupancy
  Ca  Ca0  1  0.00998700  0.99001300  0.25000000  1
  Ca  Ca1  1  0.99001300  0.00998700  0.75000000  1
  Ca  Ca2  1  0.70081200  0.36630600  0.06391000  1
  Ca  Ca3  1  0.29918800  0.63369400  0.93609000  1
  Ca  Ca4  1  0.63369400  0.29918800  0.43609000  1
  Ca  Ca5  1  0.36630600  0.70081200  0.56391000  1
  B  B0  1  0.10536800  0.22491900  0.32258500  1
  B  B1  1  0.89463200  0.77508100  0.67741500  1
  B  B2  1  0.77508100  0.89463200  0.17741500  1
  B  B3  1  0.22491900  0.10536800  0.82258500  1
  B  B4  1  0.27529900  0.41845300  0.17040900  1
  B  B5  1  0.72470100  0.58154700  0.82959100  1
  B  B6  1  0.58154700  0.72470100  0.32959100  1
  B  B7  1  0.41845300  0.27529900  0.67040900  1
  B  B8  1  0.97123600  0.39606500  0.16794700  1
  B  B9  1  0.02876400  0.60393500  0.83205300  1
  B  B10  1  0.60393500  0.02876400  0.33205300  1
  B  B11  1  0.39606500  0.97123600  0.66794700  1
  O  O0  1  0.21578300  0.34242400  0.29288900  1
  O  O1  1  0.78421700  0.65757600  0.70711100  1
  O  O2  1  0.65757600  0.78421700  0.20711100  1
  O  O3  1  0.34242400  0.21578300  0.79288900  1
  O  O4  1  0.94163800  0.30172900  0.29461900  1
  O  O5  1  0.05836200  0.69827100  0.70538000  1
  O  O6  1  0.69827100  0.05836200  0.20538100  1
  O  O7  1  0.30172900  0.94163800  0.79462000  1
  O  O8  1  0.50070100  0.80723500  0.64723400  1
  O  O9  1  0.49929900  0.19276500  0.35276600  1
  O  O10  1  0.19276500  0.49929900  0.85276600  1
  O  O11  1  0.80723500  0.50070100  0.14723400  1
  O  O12  1  0.40915700  0.28494500  0.11930600  1
  O  O13  1  0.59084300  0.71505500  0.88069400  1
  O  O14  1  0.71505500  0.59084300  0.38069400  1
  O  O15  1  0.28494500  0.40915700  0.61930600  1
  O  O16  1  0.33277400  0.93944700  0.09820100  1
  O  O17  1  0.66722600  0.06055300  0.90179900  1
  O  O18  1  0.06055300  0.66722600  0.40179900  1
  O  O19  1  0.93944700  0.33277400  0.59820100  1
  O  O20  1  0.39516300  0.54012100  0.11847700  1
  O  O21  1  0.60483700  0.45987900  0.88152300  1
  O  O22  1  0.45987900  0.60483700  0.38152300  1
  O  O23  1  0.54012100  0.39516300  0.61847700  1
  O  O24  1  0.12725100  0.47916300  0.12002500  1
  O  O25  1  0.87274900  0.52083700  0.87997500  1
  O  O26  1  0.52083700  0.87274900  0.37997500  1
  O  O27  1  0.47916300  0.12725100  0.62002500  1
  O  O28  1  0.73414000  0.01619700  0.38387200  1
  O  O29  1  0.26586000  0.98380300  0.61612800  1
  O  O30  1  0.98380300  0.26586000  0.11612800  1
  O  O31  1  0.01619700  0.73414000  0.88387200  1
  O  O32  1  0.92007100  0.30588900  0.52023400  1
  O  O33  1  0.07992900  0.69411100  0.47976600  1
  O  O34  1  0.69411100  0.07992900  0.97976600  1
  O  O35  1  0.30588900  0.92007100  0.02023400  1
  O  O36  1  0.14370400  0.04786400  0.35593400  1
  O  O37  1  0.85629600  0.95213600  0.64406600  1
  O  O38  1  0.95213600  0.85629600  0.14406600  1
  O  O39  1  0.04786400  0.14370400  0.85593400  1
loop_
_geom_bond_atom_site_label_1
_geom_bond_atom_site_label_2
_geom_bond_distance
_geom_bond_site_symmetry_2
Ca0 O30 2.317108 1_465
Ca0 O28 2.317108 1_465
Ca0 O36 2.361870 1_565
Ca0 O38 2.361870 1_455
Ca0 O16 2.700424 1_555
Ca0 O18 2.700424 1_555
Ca0 O4 2.716234 1_465
Ca0 O6 2.716234 1_465
Ca1 O29 2.317108 1_645
Ca1 O31 2.317108 1_645
Ca1 O39 2.361870 1_655
Ca1 O37 2.361870 1_545
Ca1 O19 2.700424 1_555
Ca1 O17 2.700424 1_555
Ca1 O7 2.716241 1_645
Ca1 O5 2.716241 1_645
Ca2 O11 2.372029 1_555
Ca2 O25 2.417264 1_554
Ca2 O12 2.475319 1_555
Ca2 O20 2.475917 1_555
Ca2 O30 2.507285 1_555
Ca2 O6 2.537723 1_555
Ca2 O21 2.634370 1_554
Ca2 O34 3.022101 1_554
Ca3 O10 2.372029 1_555
Ca3 O24 2.417264 1_556
Ca3 O13 2.475319 1_555
Ca3 O21 2.475917 1_555
Ca3 O31 2.507285 1_555
Ca3 O7 2.537718 1_555
Ca3 O20 2.634370 1_556
Ca3 O35 3.022101 1_556
Ca4 O9 2.372029 1_555
Ca4 O27 2.417264 1_555
Ca4 O14 2.475319 1_555
Ca4 O22 2.475917 1_555
Ca4 O28 2.507285 1_555
Ca4 O4 2.537723 1_555
Ca4 O23 2.634370 1_555
Ca4 O32 3.022101 1_555
Ca5 O8 2.372029 1_555
Ca5 O26 2.417264 1_555
Ca5 O15 2.475319 1_555
Ca5 O23 2.475917 1_555
Ca5 O29 2.507285 1_555
Ca5 O5 2.537718 1_555
Ca5 O22 2.634370 1_555
Ca5 O33 3.022101 1_555
B0 O36 1.330527 1_555
B0 O0 1.390210 1_555
B0 O4 1.433970 1_455
B1 O37 1.330527 1_555
B1 O1 1.390210 1_555
B1 O5 1.433964 1_655
B2 O38 1.330527 1_555
B2 O2 1.390210 1_555
B2 O6 1.433970 1_565
B3 O39 1.330527 1_555
B3 O3 1.390210 1_555
B3 O7 1.433964 1_545
B4 O20 1.433973 1_555
B4 O0 1.464896 1_555
B4 O12 1.469231 1_555
B4 O24 1.487126 1_555
B5 O21 1.433973 1_555
B5 O1 1.464896 1_555
B5 O13 1.469231 1_555
B5 O25 1.487126 1_555
B6 O22 1.433973 1_555
B6 O2 1.464896 1_555
B6 O14 1.469231 1_555
B6 O26 1.487126 1_555
B7 O23 1.433973 1_555
B7 O3 1.464896 1_555
B7 O15 1.469231 1_555
B7 O27 1.487126 1_555
B8 O11 1.429620 1_555
B8 O30 1.455310 1_555
B8 O24 1.465927 1_655
B8 O4 1.539283 1_555
B9 O10 1.429620 1_555
B9 O31 1.455310 1_555
B9 O25 1.465927 1_455
B9 O5 1.539294 1_555
B10 O9 1.429620 1_555
B10 O28 1.455310 1_555
B10 O26 1.465927 1_545
B10 O6 1.539283 1_555
B11 O8 1.429620 1_555
B11 O29 1.455310 1_555
B11 O27 1.465927 1_565
B11 O7 1.539294 1_555
O16 O35 1.230380 1_555
O17 O34 1.230380 1_555
O18 O33 1.230380 1_555
O19 O32 1.230380 1_555
