# generated using pymatgen
data_K2H2C2O5
_symmetry_space_group_name_H-M   'P 1'
_cell_length_a   5.63474979
_cell_length_b   5.63474979
_cell_length_c   10.79872841
_cell_angle_alpha   73.51401740
_cell_angle_beta   73.51401740
_cell_angle_gamma   68.07198500
_symmetry_Int_Tables_number   1
_chemical_formula_structural   K2H2C2O5
_chemical_formula_sum   'K4 H4 C4 O10'
_cell_volume   298.82836912
_cell_formula_units_Z   2
loop_
 _symmetry_equiv_pos_site_id
 _symmetry_equiv_pos_as_xyz
  1  'x, y, z'
loop_
 _atom_site_type_symbol
 _atom_site_label
 _atom_site_symmetry_multiplicity
 _atom_site_fract_x
 _atom_site_fract_y
 _atom_site_fract_z
 _atom_site_occupancy
  K  K0  1  0.70037200  0.03710300  0.13133400  1
  K  K1  1  0.96289700  0.29962800  0.36866600  1
  K  K2  1  0.29962800  0.96289700  0.86866600  1
  K  K3  1  0.03710300  0.70037200  0.63133400  1
  H  H0  1  0.36593200  0.56099700  0.19331400  1
  H  H1  1  0.43900300  0.63406800  0.30668600  1
  H  H2  1  0.63406800  0.43900300  0.80668600  1
  H  H3  1  0.56099700  0.36593200  0.69331400  1
  C  C0  1  0.08998200  0.44157300  0.05250000  1
  C  C1  1  0.55842700  0.91001800  0.44750000  1
  C  C2  1  0.91001800  0.55842700  0.94750000  1
  C  C3  1  0.44157300  0.08998200  0.55250000  1
  O  O0  1  0.14332900  0.60617100  0.09135000  1
  O  O1  1  0.39382900  0.85667100  0.40865000  1
  O  O2  1  0.85667100  0.39382900  0.90865000  1
  O  O3  1  0.60617100  0.14332900  0.59135000  1
  O  O4  1  0.16607100  0.19606500  0.09150500  1
  O  O5  1  0.80393500  0.83392900  0.40849500  1
  O  O6  1  0.83392900  0.80393500  0.90849500  1
  O  O7  1  0.19606500  0.16607100  0.59150500  1
  O  O8  1  0.49714700  0.50285300  0.25000000  1
  O  O9  1  0.50285300  0.49714700  0.75000000  1
loop_
_geom_bond_atom_site_label_1
_geom_bond_atom_site_label_2
_geom_bond_distance
_geom_bond_site_symmetry_2
K0 O0 2.787316 1_645
K0 O2 2.824077 1_554
K0 O6 2.848033 1_544
K0 O4 2.924635 1_555
K0 O8 2.944842 1_555
K0 O4 2.961326 1_655
K0 O5 3.026008 1_545
K1 O1 2.787316 1_645
K1 O3 2.824077 1_555
K1 O7 2.848033 1_655
K1 O5 2.924635 1_555
K1 O8 2.944842 1_555
K1 O5 2.961326 1_545
K1 O4 3.026008 1_655
K2 O2 2.787316 1_465
K2 O0 2.824077 1_556
K2 O4 2.848033 1_566
K2 O6 2.924635 1_555
K2 O9 2.944842 1_555
K2 O6 2.961326 1_455
K2 O7 3.026008 1_565
K3 O3 2.787316 1_465
K3 O1 2.824077 1_555
K3 O5 2.848033 1_455
K3 O7 2.924635 1_555
K3 O9 2.944842 1_555
K3 O7 2.961326 1_565
K3 O6 3.026008 1_455
H0 O8 0.995407 1_555
H1 O8 0.995407 1_555
H2 O9 0.995407 1_555
H3 O9 0.995407 1_555
C0 O4 1.266398 1_555
C0 O0 1.275619 1_555
C1 O5 1.266398 1_555
C1 O1 1.275619 1_555
C2 O6 1.266398 1_555
C2 O2 1.275619 1_555
C3 O7 1.266398 1_555
C3 O3 1.275619 1_555
