# generated using pymatgen
data_Mg17Al11Sn
_symmetry_space_group_name_H-M   'P 1'
_cell_length_a   9.19664142
_cell_length_b   9.19664142
_cell_length_c   9.16020551
_cell_angle_alpha   70.49377347
_cell_angle_beta   70.49377347
_cell_angle_gamma   109.24117897
_symmetry_Int_Tables_number   1
_chemical_formula_structural   Mg17Al11Sn
_chemical_formula_sum   'Mg17 Al11 Sn1'
_cell_volume   597.57755777
_cell_formula_units_Z   1
loop_
 _symmetry_equiv_pos_site_id
 _symmetry_equiv_pos_as_xyz
  1  'x, y, z'
loop_
 _atom_site_type_symbol
 _atom_site_label
 _atom_site_symmetry_multiplicity
 _atom_site_fract_x
 _atom_site_fract_y
 _atom_site_fract_z
 _atom_site_occupancy
  Mg  Mg0  1  0.99480700  0.99480700  0.34509700  1
  Mg  Mg1  1  0.60027900  0.60027900  0.71661100  1
  Mg  Mg2  1  0.00537500  0.00537500  0.99699400  1
  Mg  Mg3  1  0.34142600  0.34142600  0.66116600  1
  Mg  Mg4  1  0.30581700  0.30581700  0.28717200  1
  Mg  Mg5  1  0.68564700  0.39078200  0.99833700  1
  Mg  Mg6  1  0.00059800  0.68386400  0.60489600  1
  Mg  Mg7  1  0.59974400  0.27807200  0.40436600  1
  Mg  Mg8  1  0.00723200  0.65762500  0.99528000  1
  Mg  Mg9  1  0.71362300  0.31736100  0.68300200  1
  Mg  Mg10  1  0.39804600  0.99819600  0.31631000  1
  Mg  Mg11  1  0.99819600  0.39804600  0.31631000  1
  Mg  Mg12  1  0.31736100  0.71362300  0.68300200  1
  Mg  Mg13  1  0.65762500  0.00723200  0.99528000  1
  Mg  Mg14  1  0.27807200  0.59974400  0.40436600  1
  Mg  Mg15  1  0.68386400  0.00059800  0.60489600  1
  Mg  Mg16  1  0.39078200  0.68564700  0.99833700  1
  Al  Al0  1  0.82503200  0.82503200  0.80035600  1
  Al  Al1  1  0.36541600  0.18445700  0.00122900  1
  Al  Al2  1  0.18750000  0.00155800  0.63539500  1
  Al  Al3  1  0.82420400  0.63606700  0.36948300  1
  Al  Al4  1  0.36659100  0.00249300  0.81562600  1
  Al  Al5  1  0.18189900  0.81680200  0.18366700  1
  Al  Al6  1  0.81680200  0.18189900  0.18366700  1
  Al  Al7  1  0.00249300  0.36659100  0.81562600  1
  Al  Al8  1  0.63606700  0.82420400  0.36948300  1
  Al  Al9  1  0.00155800  0.18750000  0.63539500  1
  Al  Al10  1  0.18445700  0.36541600  0.00122900  1
  Sn  Sn0  1  0.62950000  0.62950000  0.17742500  1
loop_
_geom_bond_atom_site_label_1
_geom_bond_atom_site_label_2
_geom_bond_distance
_geom_bond_site_symmetry_2
Mg0 Mg4 3.037186 1_665
Mg0 Mg6 3.079625 1_655
Mg0 Mg15 3.079625 1_565
Mg0 Mg2 3.125142 1_664
Mg1 Mg3 3.077655 1_555
Mg1 Mg5 3.165096 1_555
Mg1 Mg16 3.165096 1_555
Mg1 Mg9 3.171657 1_555
Mg1 Mg12 3.171657 1_555
Mg1 Mg15 3.207122 1_565
Mg1 Mg6 3.207122 1_655
Mg2 Mg3 3.093973 1_555
Mg2 Mg8 3.209040 1_545
Mg2 Sn0 3.335237 1_446
Mg3 Mg7 3.100372 1_555
Mg4 Sn0 2.982591 1_555
Mg4 Mg5 3.234377 1_554
Mg4 Mg7 3.276297 1_555
Mg5 Mg9 3.128333 1_555
Mg5 Mg8 3.144075 1_655
Mg5 Mg6 3.168487 1_655
Mg5 Sn0 3.219354 1_556
Mg5 Mg7 3.233454 1_556
Mg6 Mg9 3.178625 1_455
Mg7 Sn0 3.064679 1_555
Mg7 Mg9 3.145406 1_555
Mg8 Sn0 3.188625 1_456
Mg10 Mg13 3.061281 1_564
Mg10 Mg12 3.141255 1_555
Mg10 Mg7 3.155215 1_565
Mg10 Mg4 3.165889 1_565
Mg10 Mg5 3.170700 1_564
Mg10 Mg14 3.172211 1_555
Mg10 Mg6 3.191370 1_555
Mg11 Mg8 3.061281 1_654
Mg11 Mg9 3.141255 1_555
Mg11 Mg14 3.155215 1_655
Mg11 Mg4 3.165889 1_655
Mg11 Mg16 3.170700 1_654
Mg11 Mg7 3.172211 1_555
Mg11 Mg15 3.191370 1_555
Mg12 Mg8 3.030213 1_555
Mg12 Mg16 3.128333 1_555
Mg12 Mg14 3.145406 1_555
Mg12 Mg6 3.173400 1_555
Mg12 Mg15 3.178625 1_565
Mg13 Mg9 3.030213 1_555
Mg13 Mg16 3.144075 1_545
Mg13 Sn0 3.188625 1_546
Mg13 Mg2 3.209040 1_655
Mg14 Sn0 3.064679 1_555
Mg14 Mg6 3.099081 1_555
Mg14 Mg3 3.100372 1_555
Mg14 Mg16 3.233454 1_554
Mg14 Mg4 3.276297 1_555
Mg15 Mg7 3.099081 1_555
Mg15 Mg16 3.168487 1_545
Mg15 Mg9 3.173400 1_555
Mg16 Sn0 3.219354 1_556
Mg16 Mg4 3.234377 1_556
Al0 Al2 2.731681 1_665
Al0 Al9 2.731681 1_665
Al0 Sn0 2.823207 1_556
Al0 Mg1 2.904334 1_555
Al0 Mg6 2.915744 1_655
Al0 Mg15 2.915744 1_565
Al0 Mg13 3.198239 1_565
Al0 Mg8 3.198239 1_655
Al0 Mg2 3.305025 1_665
Al1 Al10 2.713789 1_555
Al1 Al4 2.755144 1_554
Al1 Al5 2.766850 1_545
Al1 Mg5 2.916453 1_554
Al1 Mg10 2.995002 1_545
Al1 Mg9 3.008835 1_554
Al1 Mg3 3.082523 1_554
Al1 Mg4 3.131065 1_555
Al1 Mg0 3.134348 1_445
Al1 Mg2 3.195622 1_554
Al1 Mg1 3.197470 1_554
Al2 Al4 2.693420 1_555
Al2 Al9 2.788517 1_555
Al2 Mg10 2.934917 1_545
Al2 Mg4 2.983818 1_555
Al2 Mg6 3.020732 1_545
Al2 Mg8 3.090530 1_545
Al2 Mg3 3.103060 1_555
Al2 Mg7 3.164267 1_555
Al2 Mg2 3.192101 1_555
Al2 Mg12 3.207738 1_545
Al3 Al5 2.692382 1_655
Al3 Al8 2.821435 1_555
Al3 Mg9 2.887291 1_555
Al3 Sn0 2.899749 1_555
Al3 Mg1 2.990232 1_555
Al3 Mg0 3.042762 1_555
Al3 Mg7 3.095233 1_555
Al3 Mg6 3.158209 1_655
Al3 Mg11 3.176402 1_555
Al3 Mg8 3.177310 1_654
Al3 Mg2 3.269298 1_664
Al4 Al5 2.754353 1_546
Al4 Mg15 2.921448 1_555
Al4 Mg16 2.959834 1_545
Al4 Mg9 3.002860 1_555
Al4 Mg3 3.085501 1_555
Al4 Mg8 3.108619 1_545
Al4 Mg7 3.140155 1_555
Al4 Mg2 3.193445 1_555
Al4 Mg12 3.235506 1_545
Al5 Mg14 2.918374 1_555
Al5 Mg16 2.957028 1_554
Al5 Mg10 2.998614 1_555
Al5 Mg0 3.098557 1_455
Al5 Mg8 3.112818 1_554
Al5 Mg2 3.208761 1_564
Al5 Mg6 3.220681 1_555
Al5 Mg11 3.221470 1_455
Al6 Al8 2.692382 1_545
Al6 Al7 2.754353 1_654
Al6 Mg7 2.918374 1_555
Al6 Mg5 2.957028 1_554
Al6 Mg11 2.998614 1_555
Al6 Mg0 3.098557 1_545
Al6 Mg13 3.112818 1_554
Al6 Mg2 3.208761 1_654
Al6 Mg15 3.220681 1_555
Al6 Mg10 3.221470 1_545
Al7 Al9 2.693420 1_555
Al7 Mg6 2.921448 1_555
Al7 Mg5 2.959834 1_455
Al7 Mg12 3.002860 1_555
Al7 Mg3 3.085501 1_555
Al7 Mg13 3.108619 1_455
Al7 Mg14 3.140155 1_555
Al7 Mg2 3.193445 1_555
Al7 Mg9 3.235506 1_455
Al8 Mg12 2.887291 1_555
Al8 Sn0 2.899749 1_555
Al8 Mg1 2.990232 1_555
Al8 Mg0 3.042762 1_555
Al8 Mg14 3.095233 1_555
Al8 Mg15 3.158209 1_565
Al8 Mg10 3.176402 1_555
Al8 Mg13 3.177310 1_564
Al8 Mg2 3.269298 1_664
Al9 Mg11 2.934917 1_455
Al9 Mg4 2.983818 1_555
Al9 Mg15 3.020732 1_455
Al9 Mg13 3.090530 1_455
Al9 Mg3 3.103060 1_555
Al9 Mg14 3.164267 1_555
Al9 Mg2 3.192101 1_555
Al9 Mg9 3.207738 1_455
Al10 Al7 2.755144 1_554
Al10 Al6 2.766850 1_455
Al10 Mg16 2.916453 1_554
Al10 Mg11 2.995002 1_455
Al10 Mg12 3.008835 1_554
Al10 Mg3 3.082523 1_554
Al10 Mg4 3.131065 1_555
Al10 Mg0 3.134348 1_445
Al10 Mg2 3.195622 1_554
Al10 Mg1 3.197470 1_554
