# generated using pymatgen
data_SbPbIO2
_symmetry_space_group_name_H-M   'P 1'
_cell_length_a   7.44038851
_cell_length_b   7.44038851
_cell_length_c   7.44038851
_cell_angle_alpha   148.92566388
_cell_angle_beta   148.92566388
_cell_angle_gamma   44.52073662
_symmetry_Int_Tables_number   1
_chemical_formula_structural   SbPbIO2
_chemical_formula_sum   'Sb1 Pb1 I1 O2'
_cell_volume   109.40494639
_cell_formula_units_Z   1
loop_
 _symmetry_equiv_pos_site_id
 _symmetry_equiv_pos_as_xyz
  1  'x, y, z'
loop_
 _atom_site_type_symbol
 _atom_site_label
 _atom_site_symmetry_multiplicity
 _atom_site_fract_x
 _atom_site_fract_y
 _atom_site_fract_z
 _atom_site_occupancy
  Sb  Sb0  1  0.32275400  0.32275400  0.00000000  1
  Pb  Pb0  1  0.64678400  0.64678400  0.00000000  1
  I  I0  1  0.99463900  0.99463900  0.00000000  1
  O  O0  1  0.75431200  0.25431200  0.50000000  1
  O  O1  1  0.25431200  0.75431200  0.50000000  1
loop_
_geom_bond_atom_site_label_1
_geom_bond_atom_site_label_2
_geom_bond_distance
_geom_bond_site_symmetry_2
I0 Pb0 3.512044 1_554
I0 Pb0 3.512044 1_565
I0 Pb0 3.512044 1_655
I0 Pb0 3.512044 1_666
O0 Sb0 2.204657 1_555
O0 Sb0 2.204657 1_656
O0 Pb0 2.482940 1_556
O0 Pb0 2.482940 1_545
O1 Sb0 2.204657 1_555
O1 Sb0 2.204657 1_566
O1 Pb0 2.482940 1_556
O1 Pb0 2.482940 1_455
