# generated using pymatgen
data_GeTe
_symmetry_space_group_name_H-M   'P 1'
_cell_length_a   4.10769256
_cell_length_b   4.81913784
_cell_length_c   12.05706194
_cell_angle_alpha   90.00000000
_cell_angle_beta   90.00000000
_cell_angle_gamma   90.00000000
_symmetry_Int_Tables_number   1
_chemical_formula_structural   GeTe
_chemical_formula_sum   'Ge4 Te4'
_cell_volume   238.67601154
_cell_formula_units_Z   4
loop_
 _symmetry_equiv_pos_site_id
 _symmetry_equiv_pos_as_xyz
  1  'x, y, z'
loop_
 _atom_site_type_symbol
 _atom_site_label
 _atom_site_symmetry_multiplicity
 _atom_site_fract_x
 _atom_site_fract_y
 _atom_site_fract_z
 _atom_site_occupancy
  Ge  Ge0  1  0.25000000  0.38721961  0.63234160  1
  Ge  Ge1  1  0.25000000  0.11278039  0.13234160  1
  Ge  Ge2  1  0.75000000  0.61278039  0.36765840  1
  Ge  Ge3  1  0.75000000  0.88721961  0.86765840  1
  Te  Te0  1  0.25000000  0.50221793  0.85537689  1
  Te  Te1  1  0.25000000  -0.00221793  0.35537689  1
  Te  Te2  1  0.75000000  0.49778207  0.14462311  1
  Te  Te3  1  0.75000000  0.00221793  0.64462311  1
loop_
_geom_bond_atom_site_label_1
_geom_bond_atom_site_label_2
_geom_bond_distance
_geom_bond_site_symmetry_2
Ge0 Te0 2.745662 1_555
Ge0 Te3 2.771756 1_555
Ge0 Te3 2.771756 1_455
Ge1 Te1 2.745662 1_555
Ge1 Te2 2.771756 1_455
Ge1 Te2 2.771756 1_555
Ge2 Te2 2.745662 1_555
Ge2 Te1 2.771756 1_565
Ge2 Te1 2.771756 1_665
Ge3 Te3 2.745662 1_565
Ge3 Te0 2.771756 1_555
Ge3 Te0 2.771756 1_655
