# generated using pymatgen
data_Na4Li4MnFe3P4(O4F)4
_symmetry_space_group_name_H-M   'P 1'
_cell_length_a   11.12278900
_cell_length_b   6.44012300
_cell_length_c   13.26918615
_cell_angle_alpha   61.19925192
_cell_angle_beta   90.00000000
_cell_angle_gamma   90.00000000
_symmetry_Int_Tables_number   1
_chemical_formula_structural   Na4Li4MnFe3P4(O4F)4
_chemical_formula_sum   'Na8 Li8 Mn2 Fe6 P8 O32 F8'
_cell_volume   832.92357122
_cell_formula_units_Z   2
loop_
 _symmetry_equiv_pos_site_id
 _symmetry_equiv_pos_as_xyz
  1  'x, y, z'
loop_
 _atom_site_type_symbol
 _atom_site_label
 _atom_site_symmetry_multiplicity
 _atom_site_fract_x
 _atom_site_fract_y
 _atom_site_fract_z
 _atom_site_occupancy
  Na  Na0  1  0.27347600  0.85355100  0.15351000  1
  Na  Na1  1  0.77347600  0.14644900  0.34649000  1
  Na  Na2  1  0.72647700  0.66031400  0.84684500  1
  Na  Na3  1  0.22647700  0.33968600  0.65315500  1
  Na  Na4  1  0.72652400  0.14644900  0.84649000  1
  Na  Na5  1  0.22652400  0.85355100  0.65351000  1
  Na  Na6  1  0.27352300  0.33968600  0.15315500  1
  Na  Na7  1  0.77352300  0.66031400  0.34684500  1
  Li  Li0  1  0.22275400  0.34213400  0.90805900  1
  Li  Li1  1  0.72275400  0.65786600  0.59194100  1
  Li  Li2  1  0.77724600  0.65786600  0.09194100  1
  Li  Li3  1  0.27724600  0.34213400  0.40805900  1
  Li  Li4  1  0.54936500  0.01751600  0.23221600  1
  Li  Li5  1  0.04936500  0.98248400  0.26778400  1
  Li  Li6  1  0.45063500  0.98248400  0.76778400  1
  Li  Li7  1  0.95063500  0.01751600  0.73221600  1
  Mn  Mn0  1  0.50000000  0.00000000  0.00000000  1
  Mn  Mn1  1  0.00000000  0.00000000  0.50000000  1
  Fe  Fe0  1  0.50000000  0.50000000  0.00000000  1
  Fe  Fe1  1  0.00000000  0.50000000  0.50000000  1
  Fe  Fe2  1  0.50000000  0.50000000  0.50000000  1
  Fe  Fe3  1  0.00000000  0.50000000  0.00000000  1
  Fe  Fe4  1  0.50000000  0.00000000  0.50000000  1
  Fe  Fe5  1  0.00000000  0.00000000  0.00000000  1
  P  P0  1  0.25394600  0.82957900  0.41966100  1
  P  P1  1  0.75394600  0.17042100  0.08033900  1
  P  P2  1  0.74605400  0.17042100  0.58033900  1
  P  P3  1  0.24605400  0.82957900  0.91966100  1
  P  P4  1  0.45978900  0.49341600  0.75678700  1
  P  P5  1  0.95978900  0.50658400  0.74321300  1
  P  P6  1  0.54021100  0.50658400  0.24321300  1
  P  P7  1  0.04021100  0.49341600  0.25678700  1
  O  O0  1  0.00939500  0.37894700  0.86943600  1
  O  O1  1  0.50939500  0.62105300  0.63056400  1
  O  O2  1  0.99060500  0.62105300  0.13056400  1
  O  O3  1  0.49060500  0.37894700  0.36943600  1
  O  O4  1  0.12767700  0.76680300  0.48165900  1
  O  O5  1  0.62767700  0.23319700  0.01834100  1
  O  O6  1  0.87232300  0.23319700  0.51834100  1
  O  O7  1  0.37232300  0.76680300  0.98165900  1
  O  O8  1  0.32119700  0.49165800  0.75869800  1
  O  O9  1  0.82119700  0.50834200  0.74130200  1
  O  O10  1  0.67880300  0.50834200  0.24130200  1
  O  O11  1  0.17880300  0.49165800  0.25869800  1
  O  O12  1  0.49121400  0.36999100  0.18002600  1
  O  O13  1  0.99121400  0.63000900  0.31997400  1
  O  O14  1  0.50938600  0.23310900  0.81650400  1
  O  O15  1  0.00938600  0.76689100  0.68349600  1
  O  O16  1  0.50878600  0.63000900  0.81997400  1
  O  O17  1  0.00878600  0.36999100  0.68002600  1
  O  O18  1  0.49061400  0.76689100  0.18349600  1
  O  O19  1  0.99061400  0.23310900  0.31650400  1
  O  O20  1  0.32036600  0.58869400  0.46212900  1
  O  O21  1  0.82036600  0.41130600  0.03787100  1
  O  O22  1  0.68033300  0.01368000  0.53761200  1
  O  O23  1  0.18033300  0.98632000  0.96238800  1
  O  O24  1  0.67963400  0.41130600  0.53787100  1
  O  O25  1  0.17963400  0.58869400  0.96212900  1
  O  O26  1  0.31966700  0.98632000  0.46238800  1
  O  O27  1  0.81966700  0.01368000  0.03761200  1
  O  O28  1  0.23449700  0.96001100  0.28986200  1
  O  O29  1  0.73449700  0.03998900  0.21013800  1
  O  O30  1  0.76550300  0.03998900  0.71013800  1
  O  O31  1  0.26550300  0.96001100  0.78986200  1
  F  F0  1  0.06324600  0.14329700  0.10672600  1
  F  F1  1  0.56324600  0.85670300  0.39327400  1
  F  F2  1  0.93675400  0.85670300  0.89327400  1
  F  F3  1  0.43675400  0.14329700  0.60672600  1
  F  F4  1  0.36842200  0.22313000  0.02849200  1
  F  F5  1  0.86842200  0.77687000  0.47150800  1
  F  F6  1  0.63157800  0.77687000  0.97150800  1
  F  F7  1  0.13157800  0.22313000  0.52849200  1
loop_
_geom_bond_atom_site_label_1
_geom_bond_atom_site_label_2
_geom_bond_distance
_geom_bond_site_symmetry_2
Na0 O28 2.264236 1_555
Na0 O11 2.313980 1_555
Na0 O18 2.467575 1_555
Na0 O23 2.479222 1_554
Na0 O7 2.819267 1_554
Na1 O29 2.264236 1_555
Na1 O10 2.313980 1_555
Na1 O19 2.467575 1_555
Na1 O22 2.479222 1_555
Na1 O6 2.819267 1_555
Na2 O30 2.276848 1_565
Na2 O9 2.312975 1_555
Na2 O16 2.468829 1_555
Na2 O21 2.484079 1_556
Na2 O5 2.814449 1_556
Na3 O31 2.276848 1_545
Na3 O8 2.312975 1_555
Na3 O17 2.468829 1_555
Na3 O20 2.484079 1_555
Na3 O4 2.814449 1_555
Na4 O30 2.264236 1_555
Na4 O9 2.313980 1_555
Na4 O14 2.467575 1_555
Na4 O27 2.479222 1_556
Na4 O5 2.819267 1_556
Na5 O31 2.264236 1_555
Na5 O8 2.313980 1_555
Na5 O15 2.467575 1_555
Na5 O26 2.479222 1_555
Na5 O4 2.819267 1_555
Na6 O28 2.276848 1_545
Na6 O11 2.312975 1_555
Na6 O12 2.468829 1_555
Na6 O25 2.484079 1_554
Na6 O7 2.814449 1_554
Na7 O29 2.276848 1_565
Na7 O10 2.312975 1_555
Na7 O13 2.468829 1_555
Na7 O24 2.484079 1_555
Na7 O6 2.814449 1_555
Li0 O8 2.053112 1_555
Li0 O25 2.088980 1_555
Li0 O23 2.097987 1_545
Li0 O0 2.415288 1_555
Li1 O9 2.053112 1_555
Li1 O24 2.088980 1_555
Li1 O22 2.097987 1_565
Li1 O1 2.415288 1_555
Li2 O10 2.053112 1_555
Li2 O21 2.088980 1_555
Li2 O27 2.097987 1_565
Li2 O2 2.415288 1_555
Li3 O11 2.053112 1_555
Li3 O20 2.088980 1_555
Li3 O26 2.097987 1_545
Li3 O3 2.415288 1_555
Li4 O29 2.075128 1_555
Li4 O18 2.110812 1_545
Li4 O12 2.129807 1_555
Li5 O28 2.075128 1_555
Li5 O19 2.110812 1_465
Li5 O13 2.129807 1_455
Li6 O31 2.075128 1_555
Li6 O14 2.110812 1_565
Li6 O16 2.129807 1_555
Li7 O30 2.075128 1_555
Li7 O15 2.110812 1_645
Li7 O17 2.129807 1_655
Mn0 O18 2.161275 1_545
Mn0 O14 2.161275 1_554
Mn0 O7 2.164164 1_544
Mn0 O5 2.164164 1_555
Mn1 O19 2.161275 1_455
Mn1 O15 2.161275 1_545
Mn1 O4 2.164164 1_545
Mn1 O6 2.164164 1_455
Fe0 O12 2.118915 1_555
Fe0 O16 2.118915 1_554
Fe0 O7 2.150680 1_554
Fe0 O5 2.150680 1_555
Fe1 O13 2.118915 1_455
Fe1 O17 2.118915 1_555
Fe1 O4 2.150680 1_555
Fe1 O6 2.150680 1_455
Fe2 O24 2.072282 1_555
Fe2 O20 2.072282 1_555
Fe2 O3 2.218456 1_555
Fe2 O1 2.218456 1_555
Fe3 O25 2.072282 1_554
Fe3 O21 2.072282 1_455
Fe3 O0 2.218456 1_554
Fe3 O2 2.218456 1_455
Fe4 O22 2.079054 1_555
Fe4 O26 2.079054 1_545
Fe4 O3 2.212332 1_555
Fe4 O1 2.212332 1_545
Fe5 O27 2.079054 1_455
Fe5 O23 2.079054 1_544
Fe5 O0 2.212332 1_554
Fe5 O2 2.212332 1_445
O0 P5 1.568054 1_455
O1 P4 1.568054 1_555
O2 P7 1.568054 1_655
O3 P6 1.568054 1_555
O4 P0 1.578695 1_555
O5 P1 1.578695 1_555
O6 P2 1.578695 1_555
O7 P3 1.578695 1_555
O8 P4 1.541690 1_555
O9 P5 1.541690 1_555
O10 P6 1.541690 1_555
O11 P7 1.541690 1_555
O12 P6 1.576222 1_555
O13 P7 1.576222 1_655
O14 P4 1.569277 1_555
O15 P5 1.569277 1_455
O16 P4 1.576222 1_555
O17 P5 1.576222 1_455
O18 P6 1.569277 1_555
O19 P7 1.569277 1_655
O20 P0 1.558090 1_555
O21 P1 1.558090 1_555
O22 P2 1.557619 1_555
O23 P3 1.557619 1_555
O24 P2 1.558090 1_555
O25 P3 1.558090 1_555
O26 P0 1.557619 1_555
O27 P1 1.557619 1_555
O28 P0 1.524735 1_555
O29 P1 1.524735 1_555
O30 P2 1.524735 1_555
O31 P3 1.524735 1_555
F0 Li5 1.879113 1_545
F0 Fe5 2.147394 1_555
F0 Fe3 2.154760 1_555
F0 Na6 2.863610 1_555
F0 Na0 2.866887 1_545
F1 Li4 1.879113 1_565
F1 Fe4 2.147394 1_565
F1 Fe2 2.154760 1_555
F1 Na7 2.863610 1_555
F1 Na1 2.866887 1_565
F2 Li7 1.879113 1_565
F2 Fe5 2.147394 1_666
F2 Fe3 2.154760 1_656
F2 Na2 2.863610 1_555
F2 Na4 2.866887 1_565
F3 Li6 1.879113 1_545
F3 Fe4 2.147394 1_555
F3 Fe2 2.154760 1_555
F3 Na3 2.863610 1_555
F3 Na5 2.866887 1_545
F4 Li0 2.141543 1_554
F4 Fe0 2.194228 1_555
F4 Mn0 2.207531 1_555
F4 Na6 2.368611 1_555
F4 Na0 2.393291 1_545
F5 Li1 2.141543 1_555
F5 Fe1 2.194228 1_655
F5 Mn1 2.207531 1_665
F5 Na7 2.368611 1_555
F5 Na1 2.393291 1_565
F6 Li2 2.141543 1_556
F6 Fe0 2.194228 1_556
F6 Mn0 2.207531 1_566
F6 Na2 2.368611 1_555
F6 Na4 2.393291 1_565
F7 Li3 2.141543 1_555
F7 Fe1 2.194228 1_555
F7 Mn1 2.207531 1_555
F7 Na3 2.368611 1_555
F7 Na5 2.393291 1_545
