# generated using pymatgen
data_Sr4Al6WO16
_symmetry_space_group_name_H-M   'P 1'
_cell_length_a   16.51293323
_cell_length_b   16.51293323
_cell_length_c   16.51293323
_cell_angle_alpha   109.85880443
_cell_angle_beta   109.27777704
_cell_angle_gamma   109.27777704
_symmetry_Int_Tables_number   1
_chemical_formula_structural   Sr4Al6WO16
_chemical_formula_sum   'Sr32 Al48 W8 O128'
_cell_volume   3466.05832415
_cell_formula_units_Z   8
loop_
 _symmetry_equiv_pos_site_id
 _symmetry_equiv_pos_as_xyz
  1  'x, y, z'
loop_
 _atom_site_type_symbol
 _atom_site_label
 _atom_site_symmetry_multiplicity
 _atom_site_fract_x
 _atom_site_fract_y
 _atom_site_fract_z
 _atom_site_occupancy
  Sr  Sr0  1  0.50580938  0.75290469  0.50290469  1
  Sr  Sr1  1  0.75000000  0.49709531  0.00290469  1
  Sr  Sr2  1  0.00580938  0.00290469  0.25290469  1
  Sr  Sr3  1  0.25000000  0.74709531  0.75290469  1
  Sr  Sr4  1  0.49419062  0.24709531  0.49709531  1
  Sr  Sr5  1  0.25000000  0.50290469  0.99709531  1
  Sr  Sr6  1  0.99419062  0.99709531  0.74709531  1
  Sr  Sr7  1  0.75000000  0.25290469  0.24709531  1
  Sr  Sr8  1  0.00933064  0.50466532  0.25466532  1
  Sr  Sr9  1  0.75000000  0.74533468  0.75466532  1
  Sr  Sr10  1  0.50933064  0.75466532  0.00466532  1
  Sr  Sr11  1  0.25000000  0.99533468  0.50466532  1
  Sr  Sr12  1  0.99066936  0.49533468  0.74533468  1
  Sr  Sr13  1  0.25000000  0.25466532  0.24533468  1
  Sr  Sr14  1  0.49066936  0.24533468  0.99533468  1
  Sr  Sr15  1  0.75000000  0.00466532  0.49533468  1
  Sr  Sr16  1  0.24493664  0.73809888  0.24043335  1
  Sr  Sr17  1  0.50233447  0.49549671  0.74043335  1
  Sr  Sr18  1  0.74493664  0.74043335  0.23809888  1
  Sr  Sr19  1  0.49766553  0.99316224  0.73809888  1
  Sr  Sr20  1  0.75506336  0.26190112  0.75956665  1
  Sr  Sr21  1  0.49766553  0.50450329  0.25956665  1
  Sr  Sr22  1  0.25506336  0.25956665  0.76190112  1
  Sr  Sr23  1  0.50233447  0.00683776  0.26190112  1
  Sr  Sr24  1  0.99766553  0.23809888  0.49316224  1
  Sr  Sr25  1  0.25506336  0.99549671  0.99316224  1
  Sr  Sr26  1  0.00233447  0.24043335  0.99549671  1
  Sr  Sr27  1  0.75506336  0.49316224  0.49549671  1
  Sr  Sr28  1  0.00233447  0.76190112  0.50683776  1
  Sr  Sr29  1  0.74493664  0.00450329  0.00683776  1
  Sr  Sr30  1  0.99766553  0.75956665  0.00450329  1
  Sr  Sr31  1  0.24493664  0.50683776  0.50450329  1
  Al  Al0  1  0.87870825  0.50772336  0.87912965  1
  Al  Al1  1  0.37140629  0.50042140  0.37912965  1
  Al  Al2  1  0.37870825  0.37912965  0.00772336  1
  Al  Al3  1  0.62859371  0.12901511  0.50772336  1
  Al  Al4  1  0.12129175  0.49227664  0.12087035  1
  Al  Al5  1  0.62859371  0.49957860  0.62087035  1
  Al  Al6  1  0.62129175  0.62087035  0.99227664  1
  Al  Al7  1  0.37140629  0.87098489  0.49227664  1
  Al  Al8  1  0.12859371  0.00772336  0.62901511  1
  Al  Al9  1  0.62129175  0.00042140  0.12901511  1
  Al  Al10  1  0.87140629  0.87912965  0.00042140  1
  Al  Al11  1  0.12129175  0.62901511  0.50042140  1
  Al  Al12  1  0.87140629  0.99227664  0.37098489  1
  Al  Al13  1  0.37870825  0.99957860  0.87098489  1
  Al  Al14  1  0.12859371  0.12087035  0.99957860  1
  Al  Al15  1  0.87870825  0.37098489  0.49957860  1
  Al  Al16  1  0.87907148  0.37520864  0.00234968  1
  Al  Al17  1  0.62714104  0.62327820  0.50234968  1
  Al  Al18  1  0.37907148  0.50234968  0.87520864  1
  Al  Al19  1  0.37285896  0.99613716  0.37520864  1
  Al  Al20  1  0.12092852  0.62479136  0.99765032  1
  Al  Al21  1  0.37285896  0.37672180  0.49765032  1
  Al  Al22  1  0.62092852  0.49765032  0.12479136  1
  Al  Al23  1  0.62714104  0.00386284  0.62479136  1
  Al  Al24  1  0.87285896  0.87520864  0.49613716  1
  Al  Al25  1  0.62092852  0.12327820  0.99613716  1
  Al  Al26  1  0.12714104  0.00234968  0.12327820  1
  Al  Al27  1  0.12092852  0.49613716  0.62327820  1
  Al  Al28  1  0.12714104  0.12479136  0.50386284  1
  Al  Al29  1  0.37907148  0.87672180  0.00386284  1
  Al  Al30  1  0.87285896  0.99765032  0.87672180  1
  Al  Al31  1  0.87907148  0.50386284  0.37672180  1
  Al  Al32  1  0.25666657  0.62833328  0.37833328  1
  Al  Al33  1  0.75000000  0.62166672  0.87833328  1
  Al  Al34  1  0.75666657  0.87833328  0.12833328  1
  Al  Al35  1  0.25000000  0.87166672  0.62833328  1
  Al  Al36  1  0.74333343  0.37166672  0.62166672  1
  Al  Al37  1  0.25000000  0.37833328  0.12166672  1
  Al  Al38  1  0.24333343  0.12166672  0.87166672  1
  Al  Al39  1  0.75000000  0.12833328  0.37166672  1
  Al  Al40  1  0.75000000  0.87500000  0.62500000  1
  Al  Al41  1  0.75000000  0.37500000  0.12500000  1
  Al  Al42  1  0.25000000  0.12500000  0.37500000  1
  Al  Al43  1  0.25000000  0.62500000  0.87500000  1
  Al  Al44  1  0.75000000  0.12500000  0.87500000  1
  Al  Al45  1  0.75000000  0.62500000  0.37500000  1
  Al  Al46  1  0.25000000  0.37500000  0.62500000  1
  Al  Al47  1  0.25000000  0.87500000  0.12500000  1
  W  W0  1  0.50171042  0.75171042  0.25000000  1
  W  W1  1  0.49828958  0.24828958  0.75000000  1
  W  W2  1  0.00171042  0.75000000  0.25171042  1
  W  W3  1  0.50171042  0.75000000  0.75171042  1
  W  W4  1  0.99828958  0.25000000  0.74828958  1
  W  W5  1  0.49828958  0.25000000  0.24828958  1
  W  W6  1  0.00171042  0.25171042  0.25000000  1
  W  W7  1  0.99828958  0.74828958  0.75000000  1
  O  O0  1  0.99996327  0.58906647  0.91375543  1
  O  O1  1  0.32468897  0.41379216  0.41375543  1
  O  O2  1  0.49996327  0.41375543  0.08906647  1
  O  O3  1  0.67531103  0.08910320  0.58906647  1
  O  O4  1  0.00003673  0.41093353  0.08624457  1
  O  O5  1  0.67531103  0.58620784  0.58624457  1
  O  O6  1  0.50003673  0.58624457  0.91093353  1
  O  O7  1  0.32468897  0.91089680  0.41093353  1
  O  O8  1  0.17531103  0.08906647  0.58910320  1
  O  O9  1  0.50003673  0.91379216  0.08910320  1
  O  O10  1  0.82468897  0.91375543  0.91379216  1
  O  O11  1  0.00003673  0.58910320  0.41379216  1
  O  O12  1  0.82468897  0.91093353  0.41089680  1
  O  O13  1  0.49996327  0.08620784  0.91089680  1
  O  O14  1  0.17531103  0.08624457  0.08620784  1
  O  O15  1  0.99996327  0.41089680  0.58620784  1
  O  O16  1  0.85810573  0.42895686  0.92831994  1
  O  O17  1  0.49936309  0.57021422  0.42831994  1
  O  O18  1  0.35810573  0.42831994  0.92895686  1
  O  O19  1  0.50063691  0.07085113  0.42895686  1
  O  O20  1  0.14189427  0.57104314  0.07168006  1
  O  O21  1  0.50063691  0.42978578  0.57168006  1
  O  O22  1  0.64189427  0.57168006  0.07104314  1
  O  O23  1  0.49936309  0.92914887  0.57104314  1
  O  O24  1  0.00063691  0.92895686  0.57085113  1
  O  O25  1  0.64189427  0.07021422  0.07085113  1
  O  O26  1  0.99936309  0.92831994  0.07021422  1
  O  O27  1  0.14189427  0.57085113  0.57021422  1
  O  O28  1  0.99936309  0.07104314  0.42914887  1
  O  O29  1  0.35810573  0.92978578  0.92914887  1
  O  O30  1  0.00063691  0.07168006  0.92978578  1
  O  O31  1  0.85810573  0.42914887  0.42978578  1
  O  O32  1  0.83757290  0.58850763  0.92748546  1
  O  O33  1  0.33897783  0.58991256  0.42748546  1
  O  O34  1  0.33757290  0.42748546  0.08850763  1
  O  O35  1  0.66102217  0.25093472  0.58850763  1
  O  O36  1  0.16242710  0.41149237  0.07251454  1
  O  O37  1  0.66102217  0.41008744  0.57251454  1
  O  O38  1  0.66242710  0.57251454  0.91149237  1
  O  O39  1  0.33897783  0.74906528  0.41149237  1
  O  O40  1  0.16102217  0.08850763  0.75093472  1
  O  O41  1  0.66242710  0.08991256  0.25093472  1
  O  O42  1  0.83897783  0.92748546  0.08991256  1
  O  O43  1  0.16242710  0.75093472  0.58991256  1
  O  O44  1  0.83897783  0.91149237  0.24906528  1
  O  O45  1  0.33757290  0.91008744  0.74906528  1
  O  O46  1  0.16102217  0.07251454  0.91008744  1
  O  O47  1  0.83757290  0.24906528  0.41008744  1
  O  O48  1  0.82968601  0.40949728  0.07902346  1
  O  O49  1  0.66952618  0.74933745  0.57902346  1
  O  O50  1  0.32968601  0.57902346  0.90949728  1
  O  O51  1  0.33047382  0.07981127  0.40949728  1
  O  O52  1  0.17031399  0.59050272  0.92097654  1
  O  O53  1  0.33047382  0.25066255  0.42097654  1
  O  O54  1  0.67031399  0.42097654  0.09050272  1
  O  O55  1  0.66952618  0.92018873  0.59050272  1
  O  O56  1  0.83047382  0.90949728  0.57981127  1
  O  O57  1  0.67031399  0.24933745  0.07981127  1
  O  O58  1  0.16952618  0.07902346  0.24933745  1
  O  O59  1  0.17031399  0.57981127  0.74933745  1
  O  O60  1  0.16952618  0.09050272  0.42018873  1
  O  O61  1  0.32968601  0.75066255  0.92018873  1
  O  O62  1  0.83047382  0.92097654  0.75066255  1
  O  O63  1  0.82968601  0.42018873  0.25066255  1
  O  O64  1  0.17042940  0.75034614  0.08314305  1
  O  O65  1  0.33279691  0.41271366  0.58314305  1
  O  O66  1  0.67042940  0.58314305  0.25034614  1
  O  O67  1  0.66720309  0.07991674  0.75034614  1
  O  O68  1  0.82957060  0.24965386  0.91685695  1
  O  O69  1  0.66720309  0.58728634  0.41685695  1
  O  O70  1  0.32957060  0.41685695  0.74965386  1
  O  O71  1  0.33279691  0.92008326  0.24965386  1
  O  O72  1  0.16720309  0.25034614  0.57991674  1
  O  O73  1  0.32957060  0.91271366  0.07991674  1
  O  O74  1  0.83279691  0.08314305  0.91271366  1
  O  O75  1  0.82957060  0.57991674  0.41271366  1
  O  O76  1  0.83279691  0.74965386  0.42008326  1
  O  O77  1  0.67042940  0.08728634  0.92008326  1
  O  O78  1  0.16720309  0.91685695  0.08728634  1
  O  O79  1  0.17042940  0.42008326  0.58728634  1
  O  O80  1  0.17875000  0.56891198  0.24992674  1
  O  O81  1  0.68101476  0.57117674  0.74992674  1
  O  O82  1  0.67875000  0.74992674  0.06891198  1
  O  O83  1  0.31898524  0.89016199  0.56891198  1
  O  O84  1  0.82125000  0.43108802  0.75007326  1
  O  O85  1  0.31898524  0.42882326  0.25007326  1
  O  O86  1  0.32125000  0.25007326  0.93108802  1
  O  O87  1  0.68101476  0.10983801  0.43108802  1
  O  O88  1  0.81898524  0.06891198  0.39016199  1
  O  O89  1  0.32125000  0.07117674  0.89016199  1
  O  O90  1  0.18101476  0.24992674  0.07117674  1
  O  O91  1  0.82125000  0.39016199  0.57117674  1
  O  O92  1  0.18101476  0.93108802  0.60983801  1
  O  O93  1  0.67875000  0.92882326  0.10983801  1
  O  O94  1  0.81898524  0.75007326  0.92882326  1
  O  O95  1  0.17875000  0.60983801  0.42882326  1
  O  O96  1  0.55811870  0.88536215  0.32829381  1
  O  O97  1  0.44293166  0.27017512  0.82829381  1
  O  O98  1  0.05811870  0.82829381  0.38536215  1
  O  O99  1  0.55706834  0.82724346  0.88536215  1
  O  O100  1  0.44188130  0.11463785  0.67170619  1
  O  O101  1  0.55706834  0.72982488  0.17170619  1
  O  O102  1  0.94188130  0.17170619  0.61463785  1
  O  O103  1  0.44293166  0.17275654  0.11463785  1
  O  O104  1  0.05706834  0.38536215  0.32724346  1
  O  O105  1  0.94188130  0.77017512  0.82724346  1
  O  O106  1  0.94293166  0.32829381  0.77017512  1
  O  O107  1  0.44188130  0.32724346  0.27017512  1
  O  O108  1  0.94293166  0.61463785  0.67275654  1
  O  O109  1  0.05811870  0.22982488  0.17275654  1
  O  O110  1  0.05706834  0.67170619  0.22982488  1
  O  O111  1  0.55811870  0.67275654  0.72982488  1
  O  O112  1  0.36879058  0.69578269  0.17223229  1
  O  O113  1  0.47644960  0.30344171  0.67223229  1
  O  O114  1  0.86879058  0.67223229  0.19578269  1
  O  O115  1  0.52355040  0.82699211  0.69578269  1
  O  O116  1  0.63120942  0.30421731  0.82776771  1
  O  O117  1  0.52355040  0.69655829  0.32776771  1
  O  O118  1  0.13120942  0.32776771  0.80421731  1
  O  O119  1  0.47644960  0.17300789  0.30421731  1
  O  O120  1  0.02355040  0.19578269  0.32699211  1
  O  O121  1  0.13120942  0.80344171  0.82699211  1
  O  O122  1  0.97644960  0.17223229  0.80344171  1
  O  O123  1  0.63120942  0.32699211  0.30344171  1
  O  O124  1  0.97644960  0.80421731  0.67300789  1
  O  O125  1  0.86879058  0.19655829  0.17300789  1
  O  O126  1  0.02355040  0.82776771  0.19655829  1
  O  O127  1  0.36879058  0.67300789  0.69655829  1
loop_
_geom_bond_atom_site_label_1
_geom_bond_atom_site_label_2
_geom_bond_distance
_geom_bond_site_symmetry_2
Al0 O16 1.753667 1_555
Al0 O84 1.755863 1_555
Al0 O0 1.756891 1_555
Al0 O32 1.763881 1_555
Al1 O17 1.753667 1_555
Al1 O85 1.755863 1_555
Al1 O1 1.756891 1_555
Al1 O33 1.763881 1_555
Al2 O18 1.753667 1_554
Al2 O86 1.755863 1_554
Al2 O2 1.756891 1_555
Al2 O34 1.763881 1_555
Al3 O19 1.753667 1_555
Al3 O87 1.755863 1_555
Al3 O3 1.756891 1_555
Al3 O35 1.763881 1_555
Al4 O20 1.753667 1_555
Al4 O80 1.755863 1_555
Al4 O4 1.756891 1_555
Al4 O36 1.763881 1_555
Al5 O21 1.753667 1_555
Al5 O81 1.755863 1_555
Al5 O5 1.756891 1_555
Al5 O37 1.763881 1_555
Al6 O22 1.753667 1_556
Al6 O82 1.755863 1_556
Al6 O6 1.756891 1_555
Al6 O38 1.763881 1_555
Al7 O23 1.753667 1_555
Al7 O83 1.755863 1_555
Al7 O7 1.756891 1_555
Al7 O39 1.763881 1_555
Al8 O24 1.753667 1_545
Al8 O92 1.755863 1_545
Al8 O8 1.756891 1_555
Al8 O40 1.763881 1_555
Al9 O25 1.753667 1_555
Al9 O93 1.755863 1_545
Al9 O9 1.756891 1_545
Al9 O41 1.763881 1_555
Al10 O26 1.753667 1_555
Al10 O94 1.755863 1_554
Al10 O10 1.756891 1_554
Al10 O42 1.763881 1_555
Al11 O27 1.753667 1_555
Al11 O95 1.755863 1_555
Al11 O11 1.756891 1_555
Al11 O43 1.763881 1_555
Al12 O28 1.753667 1_565
Al12 O88 1.755863 1_565
Al12 O12 1.756891 1_555
Al12 O44 1.763881 1_555
Al13 O29 1.753667 1_555
Al13 O89 1.755863 1_565
Al13 O13 1.756891 1_565
Al13 O45 1.763881 1_555
Al14 O30 1.753667 1_555
Al14 O90 1.755863 1_556
Al14 O14 1.756891 1_556
Al14 O46 1.763881 1_555
Al15 O31 1.753667 1_555
Al15 O91 1.755863 1_555
Al15 O15 1.756891 1_555
Al15 O47 1.763881 1_555
Al16 O16 1.750013 1_554
Al16 O48 1.757344 1_555
Al16 O68 1.757866 1_554
Al16 O4 1.759736 1_655
Al17 O17 1.750013 1_555
Al17 O49 1.757344 1_555
Al17 O69 1.757866 1_555
Al17 O5 1.759736 1_555
Al18 O18 1.750013 1_555
Al18 O50 1.757344 1_555
Al18 O70 1.757866 1_555
Al18 O6 1.759736 1_555
Al19 O19 1.750013 1_565
Al19 O51 1.757344 1_565
Al19 O71 1.757866 1_555
Al19 O7 1.759736 1_555
Al20 O20 1.750013 1_556
Al20 O52 1.757344 1_555
Al20 O64 1.757866 1_556
Al20 O0 1.759736 1_455
Al21 O21 1.750013 1_555
Al21 O53 1.757344 1_555
Al21 O65 1.757866 1_555
Al21 O1 1.759736 1_555
Al22 O22 1.750013 1_555
Al22 O54 1.757344 1_555
Al22 O66 1.757866 1_555
Al22 O2 1.759736 1_555
Al23 O23 1.750013 1_545
Al23 O55 1.757344 1_545
Al23 O67 1.757866 1_555
Al23 O3 1.759736 1_555
Al24 O24 1.750013 1_655
Al24 O56 1.757344 1_555
Al24 O76 1.757866 1_555
Al24 O12 1.759736 1_555
Al25 O25 1.750013 1_556
Al25 O57 1.757344 1_556
Al25 O77 1.757866 1_555
Al25 O13 1.759736 1_555
Al26 O26 1.750013 1_445
Al26 O58 1.757344 1_555
Al26 O78 1.757866 1_545
Al26 O14 1.759736 1_555
Al27 O27 1.750013 1_555
Al27 O59 1.757344 1_555
Al27 O79 1.757866 1_555
Al27 O15 1.759736 1_455
Al28 O28 1.750013 1_455
Al28 O60 1.757344 1_555
Al28 O72 1.757866 1_555
Al28 O8 1.759736 1_555
Al29 O29 1.750013 1_554
Al29 O61 1.757344 1_554
Al29 O73 1.757866 1_555
Al29 O9 1.759736 1_555
Al30 O30 1.750013 1_665
Al30 O62 1.757344 1_555
Al30 O74 1.757866 1_565
Al30 O10 1.759736 1_555
Al31 O31 1.750013 1_555
Al31 O63 1.757344 1_555
Al31 O75 1.757866 1_555
Al31 O11 1.759736 1_655
Al32 O80 1.750902 1_555
Al32 O95 1.750902 1_555
Al32 O33 1.760546 1_555
Al32 O39 1.760546 1_555
Al33 O81 1.750902 1_555
Al33 O94 1.750902 1_555
Al33 O38 1.760546 1_555
Al33 O32 1.760546 1_555
Al34 O82 1.750902 1_555
Al34 O93 1.750902 1_555
Al34 O42 1.760546 1_555
Al34 O44 1.760546 1_555
Al35 O92 1.750902 1_555
Al35 O83 1.750902 1_555
Al35 O43 1.760546 1_555
Al35 O45 1.760546 1_555
Al36 O84 1.750902 1_555
Al36 O91 1.750902 1_555
Al36 O37 1.760546 1_555
Al36 O35 1.760546 1_555
Al37 O90 1.750902 1_555
Al37 O85 1.750902 1_555
Al37 O36 1.760546 1_555
Al37 O34 1.760546 1_555
Al38 O86 1.750902 1_555
Al38 O89 1.750902 1_555
Al38 O46 1.760546 1_555
Al38 O40 1.760546 1_555
Al39 O87 1.750902 1_555
Al39 O88 1.750902 1_555
Al39 O47 1.760546 1_555
Al39 O41 1.760546 1_555
Al40 O55 1.758092 1_555
Al40 O56 1.758092 1_555
Al40 O62 1.758092 1_555
Al40 O49 1.758092 1_555
Al41 O63 1.758092 1_555
Al41 O54 1.758092 1_555
Al41 O48 1.758092 1_555
Al41 O57 1.758092 1_555
Al42 O53 1.758092 1_555
Al42 O51 1.758092 1_555
Al42 O58 1.758092 1_555
Al42 O60 1.758092 1_555
Al43 O50 1.758092 1_555
Al43 O52 1.758092 1_555
Al43 O61 1.758092 1_555
Al43 O59 1.758092 1_555
Al44 O67 1.757574 1_555
Al44 O68 1.757574 1_555
Al44 O74 1.757574 1_555
Al44 O77 1.757574 1_555
Al45 O76 1.757574 1_555
Al45 O66 1.757574 1_555
Al45 O69 1.757574 1_555
Al45 O75 1.757574 1_555
Al46 O70 1.757574 1_555
Al46 O72 1.757574 1_555
Al46 O65 1.757574 1_555
Al46 O79 1.757574 1_555
Al47 O64 1.757574 1_555
Al47 O71 1.757574 1_555
Al47 O78 1.757574 1_555
Al47 O73 1.757574 1_555
O0 Sr12 2.605877 1_555
O0 Sr30 2.723132 1_556
O1 Sr13 2.605877 1_555
O1 Sr31 2.723132 1_555
O2 Sr14 2.605877 1_554
O2 Sr21 2.723132 1_555
O3 Sr15 2.605877 1_555
O3 Sr20 2.723132 1_555
O4 Sr8 2.605877 1_555
O4 Sr26 2.723132 1_554
O5 Sr9 2.605877 1_555
O5 Sr27 2.723132 1_555
O6 Sr10 2.605877 1_556
O6 Sr17 2.723132 1_555
O7 Sr11 2.605877 1_555
O7 Sr16 2.723132 1_555
O8 Sr11 2.605877 1_545
O8 Sr22 2.723132 1_555
O9 Sr10 2.605877 1_555
O9 Sr23 2.723132 1_565
O10 Sr9 2.605877 1_555
O10 Sr29 2.723132 1_566
O11 Sr8 2.605877 1_555
O11 Sr28 2.723132 1_555
O12 Sr15 2.605877 1_565
O12 Sr18 2.723132 1_555
O13 Sr14 2.605877 1_555
O13 Sr19 2.723132 1_545
O14 Sr13 2.605877 1_555
O14 Sr25 2.723132 1_544
O15 Sr12 2.605877 1_555
O15 Sr24 2.723132 1_555
O16 Sr20 2.611017 1_555
O16 Sr1 2.793939 1_556
O17 Sr21 2.611017 1_555
O17 Sr0 2.793939 1_555
O18 Sr22 2.611017 1_555
O18 Sr5 2.793939 1_555
O19 Sr23 2.611017 1_555
O19 Sr4 2.793939 1_555
O20 Sr16 2.611017 1_555
O20 Sr5 2.793939 1_554
O21 Sr17 2.611017 1_555
O21 Sr4 2.793939 1_555
O22 Sr18 2.611017 1_555
O22 Sr1 2.793939 1_555
O23 Sr19 2.611017 1_555
O23 Sr0 2.793939 1_555
O24 Sr28 2.611017 1_555
O24 Sr6 2.793939 1_455
O25 Sr29 2.611017 1_555
O25 Sr7 2.793939 1_555
O26 Sr30 2.611017 1_555
O26 Sr2 2.793939 1_665
O27 Sr31 2.611017 1_555
O27 Sr3 2.793939 1_555
O28 Sr24 2.611017 1_555
O28 Sr2 2.793939 1_655
O29 Sr25 2.611017 1_555
O29 Sr3 2.793939 1_555
O30 Sr26 2.611017 1_555
O30 Sr6 2.793939 1_445
O31 Sr27 2.611017 1_555
O31 Sr7 2.793939 1_555
O32 Sr1 2.635482 1_556
O32 Sr30 2.644536 1_556
O33 Sr0 2.635482 1_555
O33 Sr31 2.644536 1_555
O34 Sr5 2.635482 1_554
O34 Sr21 2.644536 1_555
O35 Sr4 2.635482 1_555
O35 Sr20 2.644535 1_555
O36 Sr5 2.635482 1_554
O36 Sr26 2.644536 1_554
O37 Sr4 2.635482 1_555
O37 Sr27 2.644536 1_555
O38 Sr1 2.635482 1_556
O38 Sr17 2.644536 1_555
O39 Sr0 2.635482 1_555
O39 Sr16 2.644535 1_555
O40 Sr6 2.635482 1_445
O40 Sr22 2.644535 1_555
O41 Sr7 2.635482 1_555
O41 Sr23 2.644536 1_555
O42 Sr2 2.635482 1_665
O42 Sr29 2.644536 1_565
O43 Sr3 2.635482 1_555
O43 Sr28 2.644536 1_555
O44 Sr2 2.635482 1_665
O44 Sr18 2.644535 1_555
O45 Sr3 2.635482 1_555
O45 Sr19 2.644536 1_555
O46 Sr6 2.635482 1_445
O46 Sr25 2.644536 1_545
O47 Sr7 2.635482 1_555
O47 Sr24 2.644536 1_555
O48 Sr1 2.608391 1_555
O48 Sr8 2.797442 1_655
O49 Sr0 2.608391 1_555
O49 Sr9 2.797442 1_555
O50 Sr5 2.608391 1_555
O50 Sr10 2.797442 1_556
O51 Sr4 2.608391 1_555
O51 Sr11 2.797442 1_545
O52 Sr5 2.608391 1_555
O52 Sr12 2.797442 1_455
O53 Sr4 2.608391 1_555
O53 Sr13 2.797442 1_555
O54 Sr1 2.608391 1_555
O54 Sr14 2.797442 1_554
O55 Sr0 2.608391 1_555
O55 Sr15 2.797442 1_565
O56 Sr6 2.608391 1_555
O56 Sr15 2.797442 1_565
O57 Sr7 2.608391 1_555
O57 Sr14 2.797442 1_554
O58 Sr2 2.608391 1_555
O58 Sr13 2.797442 1_555
O59 Sr3 2.608391 1_555
O59 Sr12 2.797442 1_455
O60 Sr2 2.608391 1_555
O60 Sr11 2.797442 1_545
O61 Sr3 2.608391 1_555
O61 Sr10 2.797442 1_556
O62 Sr6 2.608391 1_555
O62 Sr9 2.797442 1_555
O63 Sr7 2.608391 1_555
O63 Sr8 2.797442 1_655
O64 Sr16 2.590726 1_555
O64 Sr30 2.796990 1_455
O65 Sr17 2.590726 1_555
O65 Sr31 2.796990 1_555
O66 Sr18 2.590726 1_555
O66 Sr21 2.796990 1_555
O67 Sr19 2.590726 1_545
O67 Sr20 2.796990 1_555
O68 Sr20 2.590726 1_555
O68 Sr26 2.796990 1_655
O69 Sr21 2.590726 1_555
O69 Sr27 2.796990 1_555
O70 Sr22 2.590726 1_555
O70 Sr17 2.796990 1_555
O71 Sr23 2.590726 1_565
O71 Sr16 2.796990 1_555
O72 Sr24 2.590726 1_455
O72 Sr22 2.796990 1_555
O73 Sr25 2.590725 1_554
O73 Sr23 2.796990 1_565
O74 Sr26 2.590726 1_655
O74 Sr29 2.796990 1_556
O75 Sr27 2.590725 1_555
O75 Sr28 2.796990 1_655
O76 Sr28 2.590726 1_655
O76 Sr18 2.796990 1_555
O77 Sr29 2.590725 1_556
O77 Sr19 2.796990 1_545
O78 Sr30 2.590726 1_455
O78 Sr25 2.796990 1_554
O79 Sr31 2.590725 1_555
O79 Sr24 2.796990 1_455
O80 Sr8 2.683179 1_555
O80 Sr16 2.723742 1_555
O81 Sr9 2.683179 1_555
O81 Sr17 2.723742 1_555
O82 Sr10 2.683179 1_555
O82 Sr18 2.723742 1_555
O83 Sr11 2.683179 1_555
O83 Sr19 2.723742 1_555
O84 Sr12 2.683179 1_555
O84 Sr20 2.723742 1_555
O85 Sr13 2.683179 1_555
O85 Sr21 2.723742 1_555
O86 Sr14 2.683179 1_555
O86 Sr22 2.723742 1_555
O87 Sr15 2.683179 1_555
O87 Sr23 2.723742 1_555
O88 Sr15 2.683179 1_555
O88 Sr24 2.723742 1_555
O89 Sr14 2.683179 1_555
O89 Sr25 2.723742 1_545
O90 Sr13 2.683179 1_555
O90 Sr26 2.723742 1_554
O91 Sr12 2.683179 1_555
O91 Sr27 2.723742 1_555
O92 Sr11 2.683179 1_555
O92 Sr28 2.723742 1_555
O93 Sr10 2.683179 1_555
O93 Sr29 2.723742 1_565
O94 Sr9 2.683179 1_555
O94 Sr30 2.723742 1_556
O95 Sr8 2.683179 1_555
O95 Sr31 2.723742 1_555
O96 W0 1.821748 1_555
O96 Sr15 2.818608 1_565
O96 Sr23 2.849838 1_565
O97 W1 1.821748 1_555
O97 Sr14 2.818608 1_555
O97 Sr22 2.849838 1_555
O98 W2 1.821748 1_555
O98 Sr11 2.818608 1_555
O98 Sr28 2.849838 1_555
O99 W3 1.821748 1_555
O99 Sr10 2.818608 1_556
O99 Sr29 2.849838 1_566
O100 W1 1.821748 1_555
O100 Sr11 2.818608 1_545
O100 Sr19 2.849838 1_545
O101 W0 1.821748 1_555
O101 Sr10 2.818608 1_555
O101 Sr18 2.849838 1_555
O102 W4 1.821748 1_555
O102 Sr15 2.818608 1_555
O102 Sr24 2.849838 1_555
O103 W5 1.821748 1_555
O103 Sr14 2.818608 1_554
O103 Sr25 2.849838 1_544
O104 W6 1.821748 1_555
O104 Sr8 2.818608 1_555
O104 Sr31 2.849838 1_555
O105 W7 1.821748 1_555
O105 Sr9 2.818608 1_555
O105 Sr30 2.849838 1_556
O106 W4 1.821748 1_555
O106 Sr12 2.818608 1_555
O106 Sr20 2.849838 1_555
O107 W5 1.821748 1_555
O107 Sr13 2.818608 1_555
O107 Sr21 2.849838 1_555
O108 W7 1.821748 1_555
O108 Sr12 2.818608 1_555
O108 Sr27 2.849838 1_555
O109 W6 1.821748 1_555
O109 Sr13 2.818608 1_555
O109 Sr26 2.849838 1_554
O110 W2 1.821748 1_555
O110 Sr8 2.818608 1_555
O110 Sr16 2.849838 1_555
O111 W3 1.821748 1_555
O111 Sr9 2.818608 1_555
O111 Sr17 2.849838 1_555
O112 W0 1.820504 1_555
O112 Sr16 2.805217 1_555
O112 Sr5 2.868201 1_554
O113 W1 1.820504 1_555
O113 Sr17 2.805217 1_555
O113 Sr4 2.868201 1_555
O114 W2 1.820504 1_655
O114 Sr18 2.805217 1_555
O114 Sr1 2.868201 1_555
O115 W3 1.820504 1_555
O115 Sr19 2.805217 1_555
O115 Sr0 2.868201 1_555
O116 W1 1.820504 1_555
O116 Sr20 2.805217 1_555
O116 Sr1 2.868201 1_556
O117 W0 1.820504 1_555
O117 Sr21 2.805217 1_555
O117 Sr0 2.868201 1_555
O118 W4 1.820504 1_455
O118 Sr22 2.805217 1_555
O118 Sr5 2.868201 1_555
O119 W5 1.820504 1_555
O119 Sr23 2.805217 1_555
O119 Sr4 2.868201 1_555
O120 W6 1.820504 1_555
O120 Sr24 2.805217 1_455
O120 Sr2 2.868201 1_555
O121 W7 1.820504 1_455
O121 Sr25 2.805217 1_555
O121 Sr3 2.868201 1_555
O122 W4 1.820504 1_555
O122 Sr26 2.805217 1_655
O122 Sr6 2.868201 1_545
O123 W5 1.820504 1_555
O123 Sr27 2.805217 1_555
O123 Sr7 2.868201 1_555
O124 W7 1.820504 1_555
O124 Sr28 2.805217 1_655
O124 Sr6 2.868201 1_555
O125 W6 1.820504 1_655
O125 Sr29 2.805217 1_555
O125 Sr7 2.868201 1_555
O126 W2 1.820504 1_555
O126 Sr30 2.805217 1_455
O126 Sr2 2.868201 1_565
O127 W3 1.820504 1_555
O127 Sr31 2.805217 1_555
O127 Sr3 2.868201 1_555
