# generated using pymatgen
data_U3O11
_symmetry_space_group_name_H-M   'P 1'
_cell_length_a   10.04656016
_cell_length_b   10.04656016
_cell_length_c   10.04656016
_cell_angle_alpha   137.64228989
_cell_angle_beta   111.03240131
_cell_angle_gamma   84.38469860
_symmetry_Int_Tables_number   1
_chemical_formula_structural   U3O11
_chemical_formula_sum   'U6 O22'
_cell_volume   614.69855280
_cell_formula_units_Z   2
loop_
 _symmetry_equiv_pos_site_id
 _symmetry_equiv_pos_as_xyz
  1  'x, y, z'
loop_
 _atom_site_type_symbol
 _atom_site_label
 _atom_site_symmetry_multiplicity
 _atom_site_fract_x
 _atom_site_fract_y
 _atom_site_fract_z
 _atom_site_occupancy
  U  U0  1  0.94814200  0.26773500  0.68040700  1
  U  U1  1  0.05185800  0.73226500  0.31959300  1
  U  U2  1  0.41267200  0.73226500  0.68040700  1
  U  U3  1  0.58732800  0.26773500  0.31959300  1
  U  U4  1  0.23829300  0.23829300  0.00000000  1
  U  U5  1  0.76170700  0.76170700  0.00000000  1
  O  O0  1  0.08865100  0.40678300  0.03721400  1
  O  O1  1  0.91134900  0.94856300  0.31813300  1
  O  O2  1  0.63043000  0.59321700  0.68186700  1
  O  O3  1  0.36957000  0.05143700  0.96278600  1
  O  O4  1  0.91134900  0.59321700  0.96278600  1
  O  O5  1  0.08865100  0.05143700  0.68186700  1
  O  O6  1  0.36957000  0.40678300  0.31813300  1
  O  O7  1  0.63043000  0.94856300  0.03721400  1
  O  O8  1  0.80560900  0.30560900  0.50000000  1
  O  O9  1  0.19439100  0.69439100  0.50000000  1
  O  O10  1  0.11716000  0.38192700  0.73523300  1
  O  O11  1  0.88284000  0.61807300  0.26476700  1
  O  O12  1  0.35330600  0.61807300  0.73523300  1
  O  O13  1  0.64669400  0.38192700  0.26476700  1
  O  O14  1  0.79368200  0.15011000  0.64357200  1
  O  O15  1  0.20631800  0.84989000  0.35642800  1
  O  O16  1  0.49346200  0.84989000  0.64357200  1
  O  O17  1  0.50653800  0.15011000  0.35642800  1
  O  O18  1  0.36413100  0.36413100  0.00000000  1
  O  O19  1  0.63586900  0.63586900  0.00000000  1
  O  O20  1  0.04122000  0.04122000  0.00000000  1
  O  O21  1  0.95878000  0.95878000  0.00000000  1
loop_
_geom_bond_atom_site_label_1
_geom_bond_atom_site_label_2
_geom_bond_distance
_geom_bond_site_symmetry_2
O0 U4 2.058020 1_555
O0 U1 2.384040 1_555
O0 U0 2.479320 1_454
O1 U5 2.058027 1_555
O1 U0 2.384035 1_565
O1 U1 2.479315 1_655
O2 U5 2.058029 1_556
O2 U3 2.384038 1_555
O2 U2 2.479310 1_555
O3 U4 2.058027 1_556
O3 U2 2.384035 1_545
O3 U3 2.479315 1_556
O4 U5 2.058020 1_556
O4 U0 2.384040 1_555
O4 U1 2.479320 1_656
O5 U4 2.058027 1_556
O5 U1 2.384035 1_545
O5 U0 2.479315 1_455
O6 U4 2.058029 1_555
O6 U2 2.384038 1_555
O6 U3 2.479310 1_555
O7 U5 2.058027 1_555
O7 U3 2.384035 1_565
O7 U2 2.479315 1_554
O8 U0 2.128383 1_555
O8 U3 2.128383 1_555
O9 U1 2.128383 1_555
O9 U2 2.128383 1_555
O10 U0 1.810770 1_455
O11 U1 1.810770 1_655
O12 U2 1.810770 1_555
O13 U3 1.810770 1_555
O14 U0 1.800511 1_555
O15 U1 1.800511 1_555
O16 U2 1.800511 1_555
O17 U3 1.800511 1_555
O18 U4 1.873335 1_555
O19 U5 1.873335 1_555
O20 O21 1.227274 1_445
O20 U4 2.933802 1_555
O21 U5 2.933802 1_555
