# generated using pymatgen
data_SrSmEuNbO6
_symmetry_space_group_name_H-M   'P 1'
_cell_length_a   5.86487394
_cell_length_b   6.01353756
_cell_length_c   8.39098997
_cell_angle_alpha   89.73799929
_cell_angle_beta   89.46368974
_cell_angle_gamma   90.02559693
_symmetry_Int_Tables_number   1
_chemical_formula_structural   SrSmEuNbO6
_chemical_formula_sum   'Sr2 Sm2 Eu2 Nb2 O12'
_cell_volume   295.92270811
_cell_formula_units_Z   2
loop_
 _symmetry_equiv_pos_site_id
 _symmetry_equiv_pos_as_xyz
  1  'x, y, z'
loop_
 _atom_site_type_symbol
 _atom_site_label
 _atom_site_symmetry_multiplicity
 _atom_site_fract_x
 _atom_site_fract_y
 _atom_site_fract_z
 _atom_site_occupancy
  Sr  Sr0  1  0.51082503  0.54682401  0.24974714  1
  Sr  Sr1  1  0.48917497  0.45317599  0.75025286  1
  Sm  Sm0  1  0.50000000  0.00000000  -0.00000000  1
  Sm  Sm1  1  0.00000000  0.50000000  0.50000000  1
  Eu  Eu0  1  0.98699130  0.05140105  0.24934546  1
  Eu  Eu1  1  0.01300870  0.94859895  0.75065454  1
  Nb  Nb0  1  0.00000000  0.50000000  -0.00000000  1
  Nb  Nb1  1  0.50000000  0.00000000  0.50000000  1
  O  O0  1  0.18037220  0.21745298  0.94411928  1
  O  O1  1  0.31600454  0.72063538  0.55472164  1
  O  O2  1  0.81962780  0.78254702  0.05588072  1
  O  O3  1  0.68399546  0.27936462  0.44527836  1
  O  O4  1  0.27925489  0.68916139  0.94896806  1
  O  O5  1  0.21958181  0.18634906  0.55416046  1
  O  O6  1  0.72074511  0.31083861  0.05103194  1
  O  O7  1  0.78041819  0.81365094  0.44583954  1
  O  O8  1  0.39616532  0.96860856  0.26873663  1
  O  O9  1  0.09446699  0.46121489  0.23187468  1
  O  O10  1  0.60383468  0.03139144  0.73126337  1
  O  O11  1  0.90553301  0.53878511  0.76812532  1
loop_
_geom_bond_atom_site_label_1
_geom_bond_atom_site_label_2
_geom_bond_distance
_geom_bond_site_symmetry_2
Eu0 O8 2.457806 1_645
Eu0 O7 2.483921 1_545
Eu0 O2 2.503021 1_545
Eu0 O9 2.546725 1_655
Eu0 O6 2.769195 1_555
Eu0 O3 2.776362 1_555
Eu0 O0 2.960428 1_654
Eu0 O5 3.023987 1_655
Eu1 O10 2.457806 1_465
Eu1 O5 2.483921 1_565
Eu1 O0 2.503021 1_565
Eu1 O11 2.546725 1_455
Eu1 O4 2.769195 1_555
Eu1 O1 2.776362 1_555
Eu1 O2 2.960428 1_456
Eu1 O7 3.023987 1_455
Nb0 O4 2.034812 1_554
Nb0 O6 2.034812 1_455
Nb0 O11 2.040364 1_454
Nb0 O9 2.040364 1_555
Nb0 O0 2.055603 1_554
Nb0 O2 2.055603 1_455
Nb1 O5 2.039459 1_555
Nb1 O7 2.039459 1_545
Nb1 O3 2.044422 1_555
Nb1 O1 2.044422 1_545
Nb1 O8 2.048783 1_545
Nb1 O10 2.048783 1_555
O0 Sm0 2.336004 1_556
O0 Sr1 2.803061 1_555
O1 Sm1 2.329240 1_555
O1 Sr1 2.513719 1_555
O1 Sr0 2.986216 1_555
O2 Sm0 2.336004 1_565
O2 Sr0 2.803061 1_555
O3 Sm1 2.329240 1_655
O3 Sr0 2.513719 1_555
O3 Sr1 2.986216 1_555
O4 Sm0 2.317122 1_566
O4 Sr1 2.508916 1_555
O4 Sr0 2.998726 1_556
O5 Sm1 2.329779 1_555
O5 Sr1 2.802246 1_555
O6 Sm0 2.317122 1_555
O6 Sr0 2.508916 1_555
O6 Sr1 2.998726 1_554
O7 Sm1 2.329779 1_655
O7 Sr0 2.802246 1_555
O8 Sm0 2.337019 1_565
O8 Sr0 2.629491 1_555
O9 Sm1 2.324801 1_555
O9 Sr0 2.501355 1_555
O10 Sm0 2.337019 1_556
O10 Sr1 2.629491 1_555
O11 Sm1 2.324801 1_655
O11 Sr1 2.501355 1_555
