# generated using pymatgen
data_U3P2Pb2O21
_symmetry_space_group_name_H-M   'P 1'
_cell_length_a   6.98987200
_cell_length_b   16.71495200
_cell_length_c   8.09164823
_cell_angle_alpha   90.00000000
_cell_angle_beta   106.82750509
_cell_angle_gamma   90.00000000
_symmetry_Int_Tables_number   1
_chemical_formula_structural   U3P2Pb2O21
_chemical_formula_sum   'U6 P4 Pb4 O42'
_cell_volume   904.90972429
_cell_formula_units_Z   2
loop_
 _symmetry_equiv_pos_site_id
 _symmetry_equiv_pos_as_xyz
  1  'x, y, z'
loop_
 _atom_site_type_symbol
 _atom_site_label
 _atom_site_symmetry_multiplicity
 _atom_site_fract_x
 _atom_site_fract_y
 _atom_site_fract_z
 _atom_site_occupancy
  U  U0  1  0.70081900  0.75000000  0.40175800  1
  U  U1  1  0.29918100  0.25000000  0.59824200  1
  U  U2  1  0.20110800  0.63972600  0.40661600  1
  U  U3  1  0.79889200  0.13972600  0.59338400  1
  U  U4  1  0.79889200  0.36027400  0.59338400  1
  U  U5  1  0.20110800  0.86027400  0.40661600  1
  P  P0  1  0.68788400  0.55317000  0.37343900  1
  P  P1  1  0.31211600  0.05317000  0.62656100  1
  P  P2  1  0.31211600  0.44683000  0.62656100  1
  P  P3  1  0.68788400  0.94683000  0.37343900  1
  Pb  Pb0  1  0.34539300  0.60596600  0.92587300  1
  Pb  Pb1  1  0.65460700  0.10596600  0.07412700  1
  Pb  Pb2  1  0.65460700  0.39403400  0.07412700  1
  Pb  Pb3  1  0.34539300  0.89403400  0.92587300  1
  O  O0  1  0.57571700  0.75000000  0.16122200  1
  O  O1  1  0.42428300  0.25000000  0.83877800  1
  O  O2  1  0.81535600  0.75000000  0.63075900  1
  O  O3  1  0.18464400  0.25000000  0.36924100  1
  O  O4  1  0.17598000  0.62936000  0.17118700  1
  O  O5  1  0.82402000  0.12936000  0.82881300  1
  O  O6  1  0.82402000  0.37064000  0.82881300  1
  O  O7  1  0.17598000  0.87064000  0.17118700  1
  O  O8  1  0.23669100  0.65047100  0.64477900  1
  O  O9  1  0.76330900  0.15047100  0.35522100  1
  O  O10  1  0.76330900  0.34952900  0.35522100  1
  O  O11  1  0.23669100  0.84952900  0.64477900  1
  O  O12  1  0.54687700  0.61568400  0.42057500  1
  O  O13  1  0.45312300  0.11568400  0.57942500  1
  O  O14  1  0.45312300  0.38431600  0.57942500  1
  O  O15  1  0.54687700  0.88431600  0.42057500  1
  O  O16  1  0.86416500  0.60752100  0.36203600  1
  O  O17  1  0.13583500  0.10752100  0.63796400  1
  O  O18  1  0.13583500  0.39247900  0.63796400  1
  O  O19  1  0.86416500  0.89247900  0.36203600  1
  O  O20  1  0.75770200  0.49110600  0.51856100  1
  O  O21  1  0.24229800  0.99110600  0.48143900  1
  O  O22  1  0.24229800  0.50889400  0.48143900  1
  O  O23  1  0.75770200  0.00889400  0.51856100  1
  O  O24  1  0.57887400  0.51387700  0.19686200  1
  O  O25  1  0.42112600  0.01387700  0.80313800  1
  O  O26  1  0.42112600  0.48612300  0.80313800  1
  O  O27  1  0.57887400  0.98612300  0.19686200  1
  O  O28  1  0.00870200  0.75000000  0.36725000  1
  O  O29  1  0.99129800  0.25000000  0.63275000  1
  O  O30  1  0.38845700  0.75000000  0.42488000  1
  O  O31  1  0.61154300  0.25000000  0.57512000  1
  O  O32  1  0.62568000  0.65143100  0.95716700  1
  O  O33  1  0.37432000  0.15143100  0.04283300  1
  O  O34  1  0.37432000  0.34856900  0.04283300  1
  O  O35  1  0.62568000  0.84856900  0.95716700  1
  O  O36  1  0.07106200  0.56273700  0.91495400  1
  O  O37  1  0.92893800  0.06273700  0.08504600  1
  O  O38  1  0.92893800  0.43726300  0.08504600  1
  O  O39  1  0.07106200  0.93726300  0.91495400  1
  O  O40  1  0.29827300  0.75000000  0.95025400  1
  O  O41  1  0.70172700  0.25000000  0.04974600  1
loop_
_geom_bond_atom_site_label_1
_geom_bond_atom_site_label_2
_geom_bond_distance
_geom_bond_site_symmetry_2
O0 U0 1.888772 1_555
O1 U1 1.888772 1_555
O2 U0 1.793217 1_555
O3 U1 1.793217 1_555
O4 U2 1.869814 1_555
O4 Pb0 2.618458 1_554
O5 U3 1.869814 1_555
O5 Pb1 2.618458 1_556
O6 U4 1.869814 1_555
O6 Pb2 2.618458 1_556
O7 U5 1.869814 1_555
O7 Pb3 2.618458 1_554
O8 U2 1.878946 1_555
O8 Pb0 2.302936 1_555
O9 U3 1.878946 1_555
O9 Pb1 2.302936 1_555
O10 U4 1.878946 1_555
O10 Pb2 2.302936 1_555
O11 U5 1.878946 1_555
O11 Pb3 2.302936 1_555
O12 P0 1.557700 1_555
O12 U2 2.420229 1_555
O12 U0 2.513225 1_555
O13 P1 1.557700 1_555
O13 U3 2.420229 1_555
O13 U1 2.513225 1_555
O14 P2 1.557700 1_555
O14 U4 2.420229 1_555
O14 U1 2.513225 1_555
O15 P3 1.557700 1_555
O15 U5 2.420229 1_555
O15 U0 2.513225 1_555
O16 P0 1.554972 1_555
O16 U2 2.339854 1_655
O16 U0 2.700204 1_555
O17 P1 1.554972 1_555
O17 U3 2.339854 1_455
O17 U1 2.700204 1_555
O18 P2 1.554972 1_555
O18 U4 2.339854 1_455
O18 U1 2.700204 1_555
O19 P3 1.554972 1_555
O19 U5 2.339854 1_655
O19 U0 2.700204 1_555
O20 P0 1.536711 1_555
O20 U4 2.265137 1_555
O21 P1 1.536711 1_565
O21 U5 2.265137 1_555
O22 P2 1.536711 1_555
O22 U2 2.265137 1_555
O23 P3 1.536711 1_545
O23 U3 2.265137 1_555
O24 P0 1.556626 1_555
O24 Pb2 2.362966 1_555
O24 Pb0 2.787288 1_554
O25 P1 1.556626 1_555
O25 Pb3 2.362966 1_545
O25 Pb1 2.787288 1_556
O26 P2 1.556626 1_555
O26 Pb0 2.362966 1_555
O26 Pb2 2.787288 1_556
O27 P3 1.556626 1_555
O27 Pb1 2.362966 1_565
O27 Pb3 2.787288 1_554
O28 U0 2.248835 1_455
O28 U2 2.249366 1_555
O28 U5 2.249366 1_555
O29 U1 2.248835 1_655
O29 U4 2.249366 1_555
O29 U3 2.249366 1_555
O30 U2 2.241021 1_555
O30 U5 2.241021 1_555
O30 U0 2.244688 1_555
O31 U4 2.241021 1_555
O31 U3 2.241021 1_555
O31 U1 2.244688 1_555
O32 Pb0 2.047621 1_555
O33 Pb1 2.047621 1_555
O34 Pb2 2.047621 1_555
O35 Pb3 2.047621 1_555
O36 Pb0 2.027012 1_555
O37 Pb1 2.027012 1_555
O38 Pb2 2.027012 1_555
O39 Pb3 2.027012 1_555
O40 Pb3 2.445645 1_555
O40 Pb0 2.445645 1_555
O41 Pb2 2.445645 1_555
O41 Pb1 2.445645 1_555
