# generated using pymatgen
data_KNa7V6(MoO10)2
_symmetry_space_group_name_H-M   'P 1'
_cell_length_a   11.10868128
_cell_length_b   11.44480509
_cell_length_c   16.60815751
_cell_angle_alpha   110.15241261
_cell_angle_beta   109.01087615
_cell_angle_gamma   90.08021643
_symmetry_Int_Tables_number   1
_chemical_formula_structural   KNa7V6(MoO10)2
_chemical_formula_sum   'K4 Na28 V24 Mo8 O80'
_cell_volume   1858.70028726
_cell_formula_units_Z   4
loop_
 _symmetry_equiv_pos_site_id
 _symmetry_equiv_pos_as_xyz
  1  'x, y, z'
loop_
 _atom_site_type_symbol
 _atom_site_label
 _atom_site_symmetry_multiplicity
 _atom_site_fract_x
 _atom_site_fract_y
 _atom_site_fract_z
 _atom_site_occupancy
  K  K0  1  0.30685200  0.06889200  0.11841200  1
  K  K1  1  0.80702900  0.07457400  0.11982000  1
  K  K2  1  0.05579300  0.79984900  0.11951100  1
  K  K3  1  0.55660300  0.79789300  0.11938700  1
  Na  Na0  1  0.30079400  0.07275500  0.60688100  1
  Na  Na1  1  0.30600700  0.56834500  0.11031700  1
  Na  Na2  1  0.30155100  0.56895800  0.60546000  1
  Na  Na3  1  0.80646000  0.06792700  0.60570800  1
  Na  Na4  1  0.80405800  0.56886100  0.11127700  1
  Na  Na5  1  0.80443600  0.56692000  0.60477400  1
  Na  Na6  1  0.19867600  0.43617100  0.39741000  1
  Na  Na7  1  0.19570600  0.42699300  0.88684100  1
  Na  Na8  1  0.19690800  0.93652300  0.39837100  1
  Na  Na9  1  0.19370500  0.92649700  0.88650900  1
  Na  Na10  1  0.70260400  0.43470700  0.39804100  1
  Na  Na11  1  0.69354500  0.42541400  0.88673600  1
  Na  Na12  1  0.70320800  0.92967800  0.39813300  1
  Na  Na13  1  0.69235900  0.93074700  0.88700000  1
  Na  Na14  1  0.05085100  0.29136900  0.11077600  1
  Na  Na15  1  0.05225400  0.28734300  0.60457500  1
  Na  Na16  1  0.05299600  0.78554300  0.60535300  1
  Na  Na17  1  0.55992100  0.28963900  0.10941500  1
  Na  Na18  1  0.54989300  0.28968400  0.60578500  1
  Na  Na19  1  0.55531000  0.78512000  0.60606500  1
  Na  Na20  1  0.44753400  0.21489700  0.39772400  1
  Na  Na21  1  0.45020700  0.20788800  0.88849400  1
  Na  Na22  1  0.45215100  0.70915600  0.39754800  1
  Na  Na23  1  0.44191600  0.71001300  0.88659500  1
  Na  Na24  1  0.95015000  0.21632600  0.39846200  1
  Na  Na25  1  0.93945000  0.20672800  0.88595100  1
  Na  Na26  1  0.95001500  0.71102400  0.39733300  1
  Na  Na27  1  0.94060400  0.71048500  0.88545000  1
  V  V0  1  0.00332900  0.99576900  0.50148800  1
  V  V1  1  0.00083700  0.49434700  0.50067800  1
  V  V2  1  0.50320200  0.49655800  0.50041500  1
  V  V3  1  0.25527000  0.25233400  0.50089200  1
  V  V4  1  0.25485700  0.75172800  0.50016700  1
  V  V5  1  0.75198100  0.24833400  0.99679200  1
  V  V6  1  0.75603500  0.25236000  0.50126600  1
  V  V7  1  0.75603800  0.74863600  0.50037700  1
  V  V8  1  0.11305600  0.09714700  0.25814900  1
  V  V9  1  0.10238300  0.08690000  0.74734100  1
  V  V10  1  0.10448300  0.58703400  0.25327200  1
  V  V11  1  0.10087100  0.58407200  0.74531300  1
  V  V12  1  0.61344400  0.09668600  0.25815100  1
  V  V13  1  0.60327200  0.08874900  0.74975100  1
  V  V14  1  0.60564000  0.58530000  0.25361500  1
  V  V15  1  0.60144600  0.58523300  0.74639700  1
  V  V16  1  0.35449400  0.41644000  0.25323900  1
  V  V17  1  0.35198400  0.41049600  0.74757800  1
  V  V18  1  0.36240600  0.91141000  0.25737800  1
  V  V19  1  0.35148900  0.91142200  0.74570400  1
  V  V20  1  0.85524500  0.41680300  0.25242600  1
  V  V21  1  0.85151900  0.40973900  0.74777100  1
  V  V22  1  0.86279500  0.91170200  0.25808700  1
  V  V23  1  0.85052300  0.91063900  0.74472200  1
  Mo  Mo0  1  0.99887800  0.00069500  0.99492200  1
  Mo  Mo1  1  0.00191100  0.49524800  0.99731600  1
  Mo  Mo2  1  0.50325500  0.99995400  0.99501300  1
  Mo  Mo3  1  0.50864200  0.00127600  0.50107700  1
  Mo  Mo4  1  0.50613700  0.49524600  0.99729100  1
  Mo  Mo5  1  0.25435100  0.24893300  0.99698900  1
  Mo  Mo6  1  0.25087100  0.74649000  0.99483100  1
  Mo  Mo7  1  0.75090100  0.74734100  0.99522100  1
  O  O0  1  0.13197200  0.13625800  0.49034300  1
  O  O1  1  0.11758800  0.11750300  0.98048400  1
  O  O2  1  0.13732600  0.63334200  0.48809500  1
  O  O3  1  0.11750700  0.60970900  0.98429400  1
  O  O4  1  0.62904300  0.12061400  0.48894700  1
  O  O5  1  0.62131900  0.12041200  0.98026200  1
  O  O6  1  0.63857100  0.62647700  0.48880500  1
  O  O7  1  0.62118100  0.61182500  0.98011700  1
  O  O8  1  0.13859700  0.38329700  0.01447300  1
  O  O9  1  0.13104500  0.39300500  0.51099900  1
  O  O10  1  0.12672300  0.87419900  0.00417700  1
  O  O11  1  0.13404500  0.89132800  0.51285600  1
  O  O12  1  0.64451800  0.37378500  0.00827500  1
  O  O13  1  0.62564400  0.38908800  0.51071100  1
  O  O14  1  0.63117500  0.87824700  0.00675800  1
  O  O15  1  0.64199000  0.88184700  0.51886700  1
  O  O16  1  0.37214100  0.11726300  0.48528100  1
  O  O17  1  0.36898700  0.11407200  0.97848400  1
  O  O18  1  0.38706900  0.61217000  0.48973800  1
  O  O19  1  0.36723900  0.61003100  0.98047200  1
  O  O20  1  0.88578400  0.10503900  0.49026600  1
  O  O21  1  0.86856700  0.13019100  0.98603600  1
  O  O22  1  0.88724400  0.61045800  0.48862700  1
  O  O23  1  0.86921800  0.61228900  0.97968800  1
  O  O24  1  0.39044000  0.37925900  0.01305600  1
  O  O25  1  0.37962200  0.37829200  0.51344800  1
  O  O26  1  0.38058500  0.87721400  0.00676600  1
  O  O27  1  0.38040800  0.87375600  0.51096500  1
  O  O28  1  0.88823800  0.38331600  0.00776200  1
  O  O29  1  0.88742600  0.38112500  0.51486600  1
  O  O30  1  0.87861700  0.88214200  0.00565800  1
  O  O31  1  0.88421400  0.87011200  0.51118300  1
  O  O32  1  0.07429800  0.09879500  0.14391100  1
  O  O33  1  0.08177400  0.09996200  0.64103700  1
  O  O34  1  0.07743500  0.58793700  0.14034700  1
  O  O35  1  0.08244200  0.60065700  0.64061600  1
  O  O36  1  0.57519800  0.09950600  0.14437000  1
  O  O37  1  0.58189900  0.10748100  0.64507100  1
  O  O38  1  0.58616100  0.58833800  0.14284600  1
  O  O39  1  0.58194700  0.59866300  0.64048300  1
  O  O40  1  0.43941700  0.39959000  0.35796500  1
  O  O41  1  0.43846800  0.39200500  0.85334600  1
  O  O42  1  0.44853500  0.88663300  0.35846400  1
  O  O43  1  0.43866800  0.89445100  0.85127300  1
  O  O44  1  0.94089100  0.39843600  0.35648800  1
  O  O45  1  0.93953000  0.39458100  0.85569300  1
  O  O46  1  0.94607300  0.89194900  0.36160900  1
  O  O47  1  0.93525800  0.89716700  0.85220100  1
  O  O48  1  0.33287800  0.30176400  0.14305100  1
  O  O49  1  0.33181100  0.29231800  0.64129900  1
  O  O50  1  0.32254300  0.79483000  0.14398400  1
  O  O51  1  0.33233700  0.79114800  0.63968600  1
  O  O52  1  0.83218400  0.30664500  0.14050900  1
  O  O53  1  0.83182700  0.29023200  0.64251100  1
  O  O54  1  0.82392500  0.79530500  0.14407300  1
  O  O55  1  0.83477900  0.78824200  0.64092000  1
  O  O56  1  0.19466100  0.22113600  0.36081500  1
  O  O57  1  0.18808700  0.21049600  0.85342200  1
  O  O58  1  0.19237500  0.70953900  0.35668100  1
  O  O59  1  0.18725100  0.70605700  0.85144700  1
  O  O60  1  0.69729800  0.21929800  0.36134700  1
  O  O61  1  0.69158500  0.20900900  0.85626100  1
  O  O62  1  0.69269700  0.70702900  0.35805500  1
  O  O63  1  0.68859100  0.70836100  0.85203400  1
  O  O64  1  0.45563200  0.05449400  0.26625600  1
  O  O65  1  0.43438600  0.05612900  0.74765500  1
  O  O66  1  0.43671700  0.56107500  0.25381700  1
  O  O67  1  0.43469800  0.55483000  0.74831100  1
  O  O68  1  0.95543500  0.05470100  0.26645200  1
  O  O69  1  0.93452400  0.05536800  0.74712600  1
  O  O70  1  0.93693800  0.56341300  0.25468000  1
  O  O71  1  0.93426700  0.55323700  0.74800300  1
  O  O72  1  0.18572300  0.44365600  0.25380500  1
  O  O73  1  0.18407700  0.44135800  0.74718200  1
  O  O74  1  0.20549200  0.96241200  0.26668300  1
  O  O75  1  0.18459100  0.94327700  0.74751300  1
  O  O76  1  0.68667200  0.44154900  0.25389300  1
  O  O77  1  0.68460300  0.44215600  0.74803900  1
  O  O78  1  0.70572000  0.96142300  0.26669600  1
  O  O79  1  0.68457300  0.94375900  0.74756900  1
loop_
_geom_bond_atom_site_label_1
_geom_bond_atom_site_label_2
_geom_bond_distance
_geom_bond_site_symmetry_2
K0 O64 2.534456 1_555
K0 O48 2.554112 1_555
K0 O26 2.667056 1_545
K0 O10 2.677646 1_545
K0 O32 2.754202 1_555
K0 O1 2.778675 1_554
K0 O17 2.831353 1_554
K0 O36 2.872375 1_555
K1 O68 2.543088 1_555
K1 O52 2.560676 1_555
K1 O14 2.661116 1_545
K1 O30 2.680983 1_545
K1 O36 2.736058 1_555
K1 O5 2.762067 1_554
K1 O21 2.787866 1_554
K1 O32 2.863437 1_655
K2 O74 2.532008 1_555
K2 O34 2.566185 1_555
K2 O10 2.668050 1_555
K2 O30 2.672815 1_455
K2 O54 2.739046 1_455
K2 O23 2.777286 1_454
K2 O3 2.808665 1_554
K2 O50 2.860278 1_555
K3 O78 2.535406 1_555
K3 O38 2.564027 1_555
K3 O26 2.634041 1_555
K3 O14 2.687689 1_555
K3 O50 2.762287 1_555
K3 O19 2.788932 1_554
K3 O7 2.844449 1_554
K3 O54 2.864067 1_555
Na0 O49 2.374751 1_555
Na0 O65 2.398259 1_555
Na0 O11 2.460027 1_545
Na0 O0 2.529755 1_555
Na0 O16 2.591668 1_555
Na0 O27 2.632577 1_545
Na0 O33 2.667948 1_555
Na1 O66 2.382791 1_555
Na1 O50 2.449152 1_555
Na1 O8 2.493003 1_555
Na1 O24 2.599278 1_555
Na1 O3 2.611465 1_554
Na1 O19 2.646578 1_554
Na1 O34 2.737845 1_555
Na1 O38 2.974408 1_555
Na2 O51 2.404465 1_555
Na2 O67 2.412753 1_555
Na2 O9 2.445521 1_555
Na2 O2 2.519381 1_555
Na2 O25 2.533803 1_555
Na2 O18 2.585344 1_555
Na2 O35 2.679429 1_555
Na3 O69 2.370066 1_555
Na3 O53 2.395913 1_555
Na3 O15 2.471760 1_545
Na3 O20 2.508705 1_555
Na3 O4 2.515443 1_555
Na3 O31 2.603082 1_545
Na3 O37 2.777938 1_555
Na3 O33 2.917513 1_655
Na4 O70 2.380608 1_555
Na4 O54 2.451377 1_555
Na4 O12 2.536537 1_555
Na4 O28 2.622384 1_555
Na4 O38 2.632761 1_555
Na4 O7 2.640404 1_554
Na4 O23 2.706516 1_554
Na4 O34 2.910939 1_655
Na5 O55 2.389153 1_555
Na5 O71 2.405271 1_555
Na5 O6 2.482989 1_555
Na5 O13 2.510771 1_555
Na5 O29 2.513097 1_555
Na5 O22 2.575370 1_555
Na5 O39 2.720536 1_555
Na5 O35 2.946441 1_655
Na6 O56 2.319368 1_555
Na6 O72 2.373514 1_555
Na6 O9 2.435550 1_555
Na6 O2 2.481174 1_555
Na6 O25 2.559843 1_555
Na6 O18 2.560797 1_555
Na6 O44 2.715740 1_455
Na6 O40 2.951603 1_555
Na7 O57 2.340036 1_555
Na7 O73 2.343352 1_555
Na7 O19 2.500242 1_555
Na7 O3 2.517162 1_555
Na7 O8 2.598360 1_556
Na7 O24 2.685184 1_556
Na7 O45 2.722018 1_455
Na7 O41 2.927328 1_555
Na8 O74 2.337215 1_555
Na8 O11 2.431494 1_555
Na8 O58 2.442949 1_555
Na8 O16 2.500489 1_565
Na8 O0 2.528947 1_565
Na8 O27 2.571847 1_555
Na8 O46 2.659011 1_455
Na9 O75 2.351470 1_555
Na9 O59 2.381016 1_555
Na9 O1 2.538444 1_565
Na9 O10 2.546187 1_556
Na9 O17 2.554279 1_565
Na9 O26 2.587486 1_556
Na9 O47 2.734915 1_455
Na9 O43 2.962159 1_555
Na10 O60 2.322415 1_555
Na10 O76 2.371079 1_555
Na10 O6 2.453288 1_555
Na10 O13 2.493831 1_555
Na10 O22 2.531652 1_555
Na10 O29 2.565938 1_555
Na10 O40 2.774335 1_555
Na10 O44 2.941310 1_555
Na11 O77 2.346871 1_555
Na11 O61 2.349400 1_555
Na11 O7 2.477944 1_555
Na11 O12 2.501481 1_556
Na11 O23 2.552716 1_555
Na11 O28 2.605368 1_556
Na11 O41 2.703697 1_555
Na11 O45 2.941504 1_555
Na12 O78 2.341809 1_555
Na12 O62 2.393684 1_555
Na12 O4 2.504481 1_565
Na12 O20 2.516652 1_565
Na12 O15 2.535058 1_555
Na12 O31 2.541501 1_555
Na12 O42 2.690465 1_555
Na13 O79 2.345048 1_555
Na13 O63 2.404641 1_555
Na13 O5 2.493635 1_565
Na13 O14 2.545970 1_556
Na13 O30 2.564420 1_556
Na13 O21 2.655220 1_565
Na13 O43 2.684063 1_555
Na13 O47 2.937401 1_555
Na14 O72 2.397181 1_555
Na14 O32 2.443791 1_555
Na14 O21 2.533441 1_454
Na14 O28 2.555380 1_455
Na14 O8 2.605275 1_555
Na14 O52 2.626430 1_455
Na14 O1 2.697043 1_554
Na15 O73 2.391138 1_555
Na15 O33 2.416757 1_555
Na15 O29 2.460593 1_455
Na15 O0 2.492370 1_555
Na15 O20 2.519882 1_455
Na15 O9 2.611887 1_555
Na15 O53 2.717523 1_455
Na16 O35 2.378736 1_555
Na16 O75 2.403637 1_555
Na16 O31 2.456814 1_455
Na16 O22 2.480180 1_455
Na16 O2 2.561267 1_555
Na16 O11 2.610724 1_555
Na16 O55 2.673329 1_455
Na16 O51 2.963109 1_555
Na17 O76 2.383360 1_555
Na17 O36 2.430688 1_555
Na17 O24 2.516189 1_555
Na17 O12 2.602434 1_555
Na17 O5 2.628991 1_554
Na17 O17 2.690223 1_554
Na17 O48 2.749191 1_555
Na17 O52 2.891988 1_555
Na18 O37 2.385150 1_555
Na18 O77 2.390571 1_555
Na18 O25 2.478921 1_555
Na18 O16 2.547877 1_555
Na18 O13 2.568341 1_555
Na18 O4 2.609936 1_555
Na18 O49 2.671457 1_555
Na19 O39 2.387505 1_555
Na19 O79 2.394887 1_555
Na19 O18 2.479052 1_555
Na19 O15 2.502022 1_555
Na19 O27 2.531578 1_555
Na19 O6 2.585829 1_555
Na19 O51 2.706800 1_555
Na20 O64 2.347796 1_555
Na20 O40 2.415717 1_555
Na20 O16 2.444388 1_555
Na20 O25 2.496433 1_555
Na20 O13 2.530374 1_555
Na20 O4 2.582173 1_555
Na20 O56 2.679683 1_555
Na21 O65 2.334703 1_555
Na21 O41 2.365737 1_555
Na21 O5 2.471355 1_555
Na21 O17 2.486394 1_555
Na21 O24 2.582632 1_556
Na21 O12 2.609614 1_556
Na21 O57 2.779575 1_555
Na21 O61 2.901106 1_555
Na22 O42 2.332469 1_555
Na22 O66 2.354757 1_555
Na22 O18 2.447243 1_555
Na22 O27 2.503852 1_555
Na22 O6 2.535715 1_555
Na22 O15 2.624768 1_555
Na22 O58 2.741238 1_555
Na22 O62 2.949954 1_555
Na23 O67 2.346147 1_555
Na23 O43 2.375040 1_555
Na23 O26 2.523342 1_556
Na23 O19 2.549054 1_555
Na23 O14 2.591838 1_556
Na23 O7 2.614340 1_555
Na23 O59 2.692870 1_555
Na24 O68 2.349820 1_555
Na24 O44 2.407384 1_555
Na24 O29 2.479752 1_555
Na24 O0 2.491706 1_655
Na24 O20 2.550280 1_555
Na24 O9 2.560811 1_655
Na24 O60 2.675347 1_555
Na25 O69 2.342060 1_555
Na25 O45 2.370551 1_555
Na25 O21 2.450380 1_555
Na25 O28 2.537069 1_556
Na25 O1 2.551457 1_655
Na25 O61 2.636258 1_555
Na25 O8 2.733646 1_656
Na25 O57 2.985029 1_655
Na26 O46 2.339095 1_555
Na26 O70 2.346371 1_555
Na26 O31 2.440628 1_555
Na26 O22 2.449261 1_555
Na26 O2 2.505481 1_655
Na26 O11 2.612170 1_655
Na26 O62 2.713430 1_555
Na27 O71 2.349243 1_555
Na27 O47 2.380163 1_555
Na27 O23 2.521812 1_555
Na27 O10 2.541832 1_656
Na27 O30 2.552723 1_556
Na27 O3 2.663870 1_655
Na27 O63 2.669133 1_555
Mo0 O30 1.993563 1_546
Mo0 O1 2.001401 1_655
Mo0 O10 2.037972 1_646
Mo0 O21 2.081178 1_555
Mo0 O47 2.119657 1_545
Mo0 O32 2.194946 1_656
Mo1 O28 1.886014 1_456
Mo1 O3 1.945052 1_555
Mo1 O8 2.000872 1_556
Mo1 O23 2.011816 1_455
Mo1 O45 2.099665 1_455
Mo1 O34 2.105915 1_556
Mo2 O17 1.997894 1_565
Mo2 O14 2.002431 1_556
Mo2 O5 2.029216 1_565
Mo2 O26 2.055531 1_556
Mo2 O43 2.137115 1_555
Mo2 O36 2.201925 1_566
Mo3 O4 2.013680 1_555
Mo3 O16 2.028959 1_555
Mo3 O15 2.036825 1_545
Mo3 O27 2.120825 1_545
Mo3 O37 2.141318 1_555
Mo3 O42 2.145515 1_545
Mo4 O24 1.984051 1_556
Mo4 O7 1.997420 1_555
Mo4 O19 2.040173 1_555
Mo4 O12 2.080083 1_556
Mo4 O41 2.134669 1_555
Mo4 O38 2.142860 1_556
Mo5 O17 2.007993 1_555
Mo5 O24 2.009481 1_556
Mo5 O8 2.010882 1_556
Mo5 O1 2.020902 1_555
Mo5 O57 2.133902 1_555
Mo5 O48 2.149510 1_556
Mo6 O26 1.989352 1_556
Mo6 O10 2.012745 1_556
Mo6 O19 2.029003 1_555
Mo6 O3 2.076505 1_555
Mo6 O59 2.127851 1_555
Mo6 O50 2.201324 1_556
Mo7 O14 2.005991 1_556
Mo7 O7 2.008752 1_555
Mo7 O30 2.018030 1_556
Mo7 O23 2.033449 1_555
Mo7 O63 2.128168 1_555
Mo7 O54 2.197296 1_556
O0 V3 1.830228 1_555
O0 V0 2.243360 1_545
O2 V4 1.793857 1_555
O2 V1 2.302578 1_555
O4 V6 1.974563 1_555
O5 V5 1.945016 1_555
O6 V7 1.827762 1_555
O6 V2 2.211237 1_555
O9 V1 1.856597 1_555
O9 V3 2.120231 1_555
O11 V0 1.885390 1_555
O11 V4 2.087208 1_555
O12 V5 1.867439 1_554
O13 V2 1.841252 1_555
O13 V6 2.134619 1_555
O15 V7 1.989976 1_555
O16 V3 2.022671 1_555
O18 V2 1.861160 1_555
O18 V4 2.172523 1_555
O20 V0 1.819430 1_645
O20 V6 2.218051 1_555
O21 V5 1.877945 1_555
O22 V1 1.849777 1_655
O22 V7 2.154639 1_555
O25 V3 1.905110 1_555
O25 V2 2.038080 1_555
O27 V4 1.893896 1_555
O28 V5 2.081028 1_554
O29 V1 1.929008 1_655
O29 V6 1.975600 1_555
O31 V7 1.910107 1_555
O31 V0 2.034216 1_655
O32 V8 1.810497 1_555
O33 V9 1.763639 1_555
O33 V0 2.080830 1_545
O34 V10 1.803894 1_555
O35 V11 1.759846 1_555
O35 V1 2.092730 1_555
O36 V12 1.808726 1_555
O37 V13 1.764340 1_555
O38 V14 1.793645 1_555
O39 V15 1.761507 1_555
O39 V2 2.083412 1_555
O40 V16 1.764929 1_555
O40 V2 2.104139 1_555
O41 V17 1.791842 1_555
O42 V18 1.759739 1_555
O43 V19 1.782875 1_555
O44 V20 1.765204 1_555
O44 V1 2.128583 1_655
O45 V21 1.808774 1_555
O46 V22 1.759297 1_555
O46 V0 2.084841 1_655
O47 V23 1.786480 1_555
O48 V16 1.785229 1_555
O49 V17 1.758295 1_555
O49 V3 2.083751 1_555
O50 V18 1.801842 1_555
O51 V19 1.767890 1_555
O51 V4 2.071912 1_555
O52 V20 1.784428 1_555
O52 V5 2.109890 1_554
O53 V21 1.754186 1_555
O53 V6 2.100300 1_555
O54 V22 1.809486 1_555
O55 V23 1.761758 1_555
O55 V7 2.087722 1_555
O56 V8 1.750706 1_555
O56 V3 2.097508 1_555
O57 V9 1.788173 1_555
O58 V10 1.764416 1_555
O58 V4 2.126593 1_555
O59 V11 1.782017 1_555
O60 V12 1.753100 1_555
O60 V6 2.091545 1_555
O61 V13 1.781558 1_555
O61 V5 2.086924 1_555
O62 V14 1.767242 1_555
O62 V7 2.109244 1_555
O63 V15 1.785255 1_555
O64 V18 1.872237 1_545
O64 V12 1.876366 1_555
O65 V19 1.879146 1_545
O65 V13 1.899178 1_555
O66 V16 1.885089 1_555
O66 V14 1.897752 1_555
O67 V17 1.883538 1_555
O67 V15 1.896698 1_555
O68 V22 1.871439 1_545
O68 V8 1.876686 1_655
O69 V23 1.881973 1_545
O69 V9 1.897422 1_655
O70 V10 1.889183 1_655
O70 V20 1.889632 1_555
O71 V21 1.879164 1_555
O71 V11 1.901241 1_655
O72 V10 1.875138 1_555
O72 V16 1.903463 1_555
O73 V11 1.882434 1_555
O73 V17 1.897187 1_555
O74 V8 1.874171 1_565
O74 V18 1.875957 1_555
O75 V9 1.881912 1_565
O75 V19 1.897849 1_555
O76 V14 1.877144 1_555
O76 V20 1.901047 1_555
O77 V15 1.885218 1_555
O77 V21 1.892604 1_555
O78 V22 1.870341 1_555
O78 V12 1.878411 1_565
O79 V13 1.885370 1_565
O79 V23 1.894928 1_555
