# generated using pymatgen
data_NaY9(Si3O13)2
_symmetry_space_group_name_H-M   'P 1'
_cell_length_a   9.45356436
_cell_length_b   9.45356436
_cell_length_c   6.83414000
_cell_angle_alpha   90.00000000
_cell_angle_beta   90.00000000
_cell_angle_gamma   120.00000254
_symmetry_Int_Tables_number   1
_chemical_formula_structural   NaY9(Si3O13)2
_chemical_formula_sum   'Na1 Y9 Si6 O26'
_cell_volume   528.93908862
_cell_formula_units_Z   1
loop_
 _symmetry_equiv_pos_site_id
 _symmetry_equiv_pos_as_xyz
  1  'x, y, z'
loop_
 _atom_site_type_symbol
 _atom_site_label
 _atom_site_symmetry_multiplicity
 _atom_site_fract_x
 _atom_site_fract_y
 _atom_site_fract_z
 _atom_site_occupancy
  Na  Na0  1  0.66666700  0.33333300  0.49625200  1
  Y  Y0  1  0.56706100  0.90150200  0.74892000  1
  Y  Y1  1  0.09849800  0.66555900  0.74892000  1
  Y  Y2  1  0.33444100  0.43293900  0.74892000  1
  Y  Y3  1  0.09495200  0.43244200  0.25044900  1
  Y  Y4  1  0.56755800  0.66251000  0.25044900  1
  Y  Y5  1  0.33749000  0.90504800  0.25044900  1
  Y  Y6  1  0.00000000  0.00000000  0.99797000  1
  Y  Y7  1  0.00000000  0.00000000  0.50104200  1
  Y  Y8  1  0.66666700  0.33333300  0.00194100  1
  Si  Si0  1  0.70617000  0.63821600  0.74947500  1
  Si  Si1  1  0.36178400  0.06795400  0.74947500  1
  Si  Si2  1  0.93204600  0.29383000  0.74947500  1
  Si  Si3  1  0.96252300  0.69320200  0.24717000  1
  Si  Si4  1  0.30679800  0.26932100  0.24717000  1
  Si  Si5  1  0.73067900  0.03747700  0.24717000  1
  O  O0  1  0.58248800  0.57830100  0.94023300  1
  O  O1  1  0.42169900  0.00418700  0.94023300  1
  O  O2  1  0.99581300  0.41751200  0.94023300  1
  O  O3  1  0.08296200  0.75961700  0.44065000  1
  O  O4  1  0.24038300  0.32334500  0.44065000  1
  O  O5  1  0.67665500  0.91703800  0.44065000  1
  O  O6  1  0.08841400  0.76573800  0.05818500  1
  O  O7  1  0.23426200  0.32267600  0.05818500  1
  O  O8  1  0.67732400  0.91158600  0.05818500  1
  O  O9  1  0.57937000  0.58610400  0.56396500  1
  O  O10  1  0.41389600  0.99326700  0.56396500  1
  O  O11  1  0.00673300  0.42063000  0.56396500  1
  O  O12  1  0.86386500  0.79746000  0.25007400  1
  O  O13  1  0.20254000  0.06640500  0.25007400  1
  O  O14  1  0.93359500  0.13613500  0.25007400  1
  O  O15  1  0.81111100  0.54465700  0.76380100  1
  O  O16  1  0.45534300  0.26645400  0.76380100  1
  O  O17  1  0.73354600  0.18888900  0.76380100  1
  O  O18  1  0.33333300  0.66666700  0.75383500  1
  O  O19  1  0.33333300  0.66666700  0.25061200  1
  O  O20  1  0.82655400  0.83802300  0.74861500  1
  O  O21  1  0.16197700  0.98853100  0.74861500  1
  O  O22  1  0.01146900  0.17344600  0.74861500  1
  O  O23  1  0.85166000  0.49791800  0.23791700  1
  O  O24  1  0.50208200  0.35374200  0.23791700  1
  O  O25  1  0.64625800  0.14834000  0.23791700  1
loop_
_geom_bond_atom_site_label_1
_geom_bond_atom_site_label_2
_geom_bond_distance
_geom_bond_site_symmetry_2
Na0 O25 2.423890 1_555
Na0 O23 2.423892 1_555
Na0 O24 2.423896 1_555
Na0 O17 2.543813 1_555
Na0 O15 2.543818 1_555
Na0 O16 2.543819 1_555
Na0 O11 2.928700 1_655
Na0 O10 2.928705 1_545
Na0 O9 2.928718 1_555
O0 Si0 1.650822 1_555
O0 Y4 2.293615 1_556
O0 Y2 2.423667 1_555
O0 Y8 2.831443 1_556
O1 Si1 1.650822 1_555
O1 Y5 2.293615 1_546
O1 Y0 2.423667 1_545
O1 Y8 2.831436 1_556
O2 Si2 1.650822 1_555
O2 Y3 2.293615 1_656
O2 Y1 2.423667 1_655
O2 Y8 2.831434 1_556
O3 Si3 1.650484 1_455
O3 Y1 2.319753 1_555
O3 Y5 2.462005 1_555
O3 Y7 2.780624 1_565
O4 Si4 1.650484 1_555
O4 Y2 2.319753 1_555
O4 Y3 2.462005 1_555
O4 Y7 2.780624 1_555
O5 Si5 1.650484 1_565
O5 Y0 2.319753 1_555
O5 Y4 2.462005 1_555
O5 Y7 2.780624 1_665
O6 Si3 1.654874 1_455
O6 Y1 2.337393 1_554
O6 Y5 2.429875 1_555
O6 Y6 2.761067 1_564
O7 Si4 1.654874 1_555
O7 Y2 2.337393 1_554
O7 Y3 2.429875 1_555
O7 Y6 2.761066 1_554
O8 Si5 1.654874 1_565
O8 Y0 2.337393 1_554
O8 Y4 2.429875 1_555
O8 Y6 2.761066 1_664
O9 Si0 1.642069 1_555
O9 Y4 2.281588 1_555
O9 Y2 2.388083 1_555
O10 Si1 1.642063 1_565
O10 Y5 2.281590 1_555
O10 Y0 2.388089 1_555
O11 Si2 1.642068 1_455
O11 Y3 2.281591 1_555
O11 Y1 2.388081 1_555
O12 Si3 1.661608 1_555
O12 Y7 2.408320 1_665
O12 Y6 2.413855 1_664
O12 Y4 2.429084 1_555
O13 Si4 1.661608 1_555
O13 Y7 2.408320 1_555
O13 Y6 2.413855 1_554
O13 Y5 2.429084 1_545
O14 Si5 1.661608 1_555
O14 Y7 2.408320 1_655
O14 Y6 2.413855 1_654
O14 Y3 2.429084 1_655
O15 Si0 1.628960 1_555
O15 Y1 2.364878 1_655
O15 Y8 2.403417 1_556
O16 Si1 1.628960 1_555
O16 Y2 2.364878 1_555
O16 Y8 2.403418 1_556
O17 Si2 1.628960 1_555
O17 Y0 2.364878 1_545
O17 Y8 2.403412 1_556
O18 Y1 2.215064 1_555
O18 Y0 2.215068 1_555
O18 Y2 2.215073 1_555
O19 Y5 2.234160 1_555
O19 Y3 2.234165 1_555
O19 Y4 2.234170 1_555
O20 Si0 1.647254 1_555
O20 Y7 2.320609 1_665
O20 Y6 2.329503 1_665
O20 Y0 2.801808 1_555
O21 Si1 1.647254 1_565
O21 Y7 2.320609 1_565
O21 Y6 2.329503 1_565
O21 Y1 2.801808 1_555
O22 Si2 1.647254 1_455
O22 Y7 2.320609 1_555
O22 Y6 2.329503 1_555
O22 Y2 2.801807 1_555
O23 Si3 1.604920 1_555
O23 Y8 2.314962 1_555
O23 Y3 2.665335 1_655
O24 Si4 1.604920 1_555
O24 Y8 2.314966 1_555
O24 Y4 2.665335 1_555
O25 Si5 1.604920 1_555
O25 Y8 2.314960 1_555
O25 Y5 2.665335 1_545
