# generated using pymatgen
data_K2U(Si2O5)3
_symmetry_space_group_name_H-M   'P 1'
_cell_length_a   12.81056235
_cell_length_b   12.81056235
_cell_length_c   17.32783063
_cell_angle_alpha   83.17989068
_cell_angle_beta   83.17989068
_cell_angle_gamma   32.53212712
_symmetry_Int_Tables_number   1
_chemical_formula_structural   K2U(Si2O5)3
_chemical_formula_sum   'K8 U4 Si24 O60'
_cell_volume   1517.50624884
_cell_formula_units_Z   4
loop_
 _symmetry_equiv_pos_site_id
 _symmetry_equiv_pos_as_xyz
  1  'x, y, z'
loop_
 _atom_site_type_symbol
 _atom_site_label
 _atom_site_symmetry_multiplicity
 _atom_site_fract_x
 _atom_site_fract_y
 _atom_site_fract_z
 _atom_site_occupancy
  K  K0  1  0.55248600  0.65358700  0.74141100  1
  K  K1  1  0.34641300  0.44751400  0.75858900  1
  K  K2  1  0.44751400  0.34641300  0.25858900  1
  K  K3  1  0.65358700  0.55248600  0.24141100  1
  K  K4  1  0.36577100  0.31860800  0.49545700  1
  K  K5  1  0.68139200  0.63422900  0.00454300  1
  K  K6  1  0.63422900  0.68139200  0.50454300  1
  K  K7  1  0.31860800  0.36577100  0.99545700  1
  U  U0  1  0.08943400  0.15318700  0.62712500  1
  U  U1  1  0.84681300  0.91056600  0.87287500  1
  U  U2  1  0.91056600  0.84681300  0.37287500  1
  U  U3  1  0.15318700  0.08943400  0.12712500  1
  Si  Si0  1  0.88257500  0.95871400  0.66229100  1
  Si  Si1  1  0.04128600  0.11742500  0.83770900  1
  Si  Si2  1  0.11742500  0.04128600  0.33770900  1
  Si  Si3  1  0.95871400  0.88257500  0.16229100  1
  Si  Si4  1  0.25221900  0.75830300  0.57207200  1
  Si  Si5  1  0.24169700  0.74778100  0.92792800  1
  Si  Si6  1  0.74778100  0.24169700  0.42792800  1
  Si  Si7  1  0.75830300  0.25221900  0.07207200  1
  Si  Si8  1  0.13773700  0.22222600  0.42015500  1
  Si  Si9  1  0.77777400  0.86226300  0.07984500  1
  Si  Si10  1  0.86226300  0.77777400  0.57984600  1
  Si  Si11  1  0.22222600  0.13773700  0.92015400  1
  Si  Si12  1  0.66627300  0.34375400  0.60929900  1
  Si  Si13  1  0.65624600  0.33372700  0.89070100  1
  Si  Si14  1  0.33372700  0.65624600  0.39070100  1
  Si  Si15  1  0.34375400  0.66627300  0.10929900  1
  Si  Si16  1  0.89210000  0.60315500  0.32044600  1
  Si  Si17  1  0.39684500  0.10790000  0.17955400  1
  Si  Si18  1  0.10790000  0.39684500  0.67955400  1
  Si  Si19  1  0.60315500  0.89210000  0.82044600  1
  Si  Si20  1  0.50137600  0.02777600  0.35515900  1
  Si  Si21  1  0.97222400  0.49862400  0.14484100  1
  Si  Si22  1  0.49862400  0.97222400  0.64484100  1
  Si  Si23  1  0.02777600  0.50137600  0.85515900  1
  O  O0  1  0.00731200  0.61233700  0.33179300  1
  O  O1  1  0.38766300  0.99268800  0.16820700  1
  O  O2  1  0.99268800  0.38766300  0.66820700  1
  O  O3  1  0.61233700  0.00731200  0.83179300  1
  O  O4  1  0.66606400  0.79494300  0.35736500  1
  O  O5  1  0.20505700  0.33393600  0.14263500  1
  O  O6  1  0.33393600  0.20505700  0.64263500  1
  O  O7  1  0.79494300  0.66606400  0.85736500  1
  O  O8  1  0.42911800  0.55386800  0.62473500  1
  O  O9  1  0.44613200  0.57088200  0.87526500  1
  O  O10  1  0.57088200  0.44613200  0.37526500  1
  O  O11  1  0.55386800  0.42911800  0.12473500  1
  O  O12  1  0.33354300  0.13122100  0.42287300  1
  O  O13  1  0.86877900  0.66645700  0.07712700  1
  O  O14  1  0.66645700  0.86877900  0.57712700  1
  O  O15  1  0.13122100  0.33354300  0.92287300  1
  O  O16  1  0.97640100  0.42264000  0.36542100  1
  O  O17  1  0.57736000  0.02359900  0.13457900  1
  O  O18  1  0.02359900  0.57736000  0.63457900  1
  O  O19  1  0.42264000  0.97640100  0.86542100  1
  O  O20  1  0.77819000  0.35083200  0.63307800  1
  O  O21  1  0.64916800  0.22181000  0.86692200  1
  O  O22  1  0.22181000  0.64916800  0.36692200  1
  O  O23  1  0.35083200  0.77819000  0.13307800  1
  O  O24  1  0.71358000  0.19235900  0.66299900  1
  O  O25  1  0.80764100  0.28642000  0.83700100  1
  O  O26  1  0.28642000  0.80764100  0.33700100  1
  O  O27  1  0.19235900  0.71358000  0.16299900  1
  O  O28  1  0.59297900  0.06003400  0.37386000  1
  O  O29  1  0.93996600  0.40702100  0.12614000  1
  O  O30  1  0.40702100  0.93996600  0.62614000  1
  O  O31  1  0.06003400  0.59297900  0.87386000  1
  O  O32  1  0.04282600  0.27204100  0.50594200  1
  O  O33  1  0.72795900  0.95717400  0.99405800  1
  O  O34  1  0.95717400  0.72795900  0.49405800  1
  O  O35  1  0.27204100  0.04282600  0.00594200  1
  O  O36  1  0.87064800  0.60157100  0.22935700  1
  O  O37  1  0.39842900  0.12935200  0.27064300  1
  O  O38  1  0.12935200  0.39842900  0.77064300  1
  O  O39  1  0.60157100  0.87064800  0.72935700  1
  O  O40  1  0.13833800  0.04486600  0.75129500  1
  O  O41  1  0.95513400  0.86166200  0.74870500  1
  O  O42  1  0.86166200  0.95513400  0.24870500  1
  O  O43  1  0.04486600  0.13833800  0.25129500  1
  O  O44  1  0.21431100  0.05664800  0.37761200  1
  O  O45  1  0.94335200  0.78568900  0.12238800  1
  O  O46  1  0.78568900  0.94335200  0.62238800  1
  O  O47  1  0.05664800  0.21431100  0.87761200  1
  O  O48  1  0.29377700  0.70317000  0.48213600  1
  O  O49  1  0.29683000  0.70622300  0.01786400  1
  O  O50  1  0.70622300  0.29683000  0.51786400  1
  O  O51  1  0.70317000  0.29377700  0.98213600  1
  O  O52  1  0.23531200  0.89558300  0.58117000  1
  O  O53  1  0.10441700  0.76468800  0.91883000  1
  O  O54  1  0.76468800  0.10441700  0.41883000  1
  O  O55  1  0.89558300  0.23531200  0.08117000  1
  O  O56  1  0.05912200  0.85476500  0.60275000  1
  O  O57  1  0.14523500  0.94087800  0.89725000  1
  O  O58  1  0.94087800  0.14523500  0.39725000  1
  O  O59  1  0.85476500  0.05912200  0.10275000  1
loop_
_geom_bond_atom_site_label_1
_geom_bond_atom_site_label_2
_geom_bond_distance
_geom_bond_site_symmetry_2
K0 O40 2.906694 1_565
K0 O20 2.908159 1_555
K0 O30 2.921878 1_555
K0 O25 3.010475 1_555
K0 O9 3.075432 1_555
K1 O41 2.906694 1_455
K1 O21 2.908159 1_555
K1 O31 2.921878 1_555
K1 O24 3.010475 1_555
K1 O8 3.075432 1_555
K2 O42 2.906694 1_545
K2 O22 2.908159 1_555
K2 O28 2.921878 1_555
K2 O27 3.010475 1_555
K2 O11 3.075432 1_555
K3 O43 2.906694 1_655
K3 O23 2.908159 1_555
K3 O29 2.921878 1_555
K3 O26 3.010475 1_555
K3 O10 3.075432 1_555
K4 O28 2.797809 1_555
K4 O34 2.935079 1_455
K4 O6 2.942523 1_555
K5 O29 2.797809 1_555
K5 O35 2.935079 1_565
K5 O7 2.942523 1_554
K6 O30 2.797809 1_555
K6 O32 2.935079 1_655
K6 O4 2.942523 1_555
K7 O31 2.797809 1_555
K7 O33 2.935079 1_545
K7 O5 2.942523 1_556
O0 Si16 1.611837 1_455
O0 U2 2.255314 1_455
O1 Si17 1.611837 1_565
O1 U3 2.255314 1_565
O2 Si18 1.611837 1_655
O2 U0 2.255314 1_655
O3 Si19 1.611837 1_545
O3 U1 2.255314 1_545
O4 Si20 1.652399 1_565
O4 Si16 1.663642 1_555
O5 Si21 1.652399 1_455
O5 Si17 1.663642 1_555
O6 Si22 1.652399 1_545
O6 Si18 1.663642 1_555
O7 Si23 1.652399 1_655
O7 Si19 1.663642 1_555
O8 Si12 1.654030 1_555
O8 Si4 1.656263 1_555
O9 Si13 1.654030 1_555
O9 Si5 1.656263 1_555
O10 Si14 1.654030 1_555
O10 Si6 1.656263 1_555
O11 Si15 1.654030 1_555
O11 Si7 1.656263 1_555
O12 Si20 1.649656 1_555
O12 Si8 1.654514 1_555
O13 Si21 1.649656 1_555
O13 Si9 1.654514 1_555
O14 Si22 1.649656 1_555
O14 Si10 1.654517 1_555
O15 Si23 1.649656 1_555
O15 Si11 1.654517 1_555
O16 Si16 1.637717 1_555
O16 Si8 1.643955 1_655
O17 Si17 1.637717 1_555
O17 Si9 1.643955 1_545
O18 Si18 1.637717 1_555
O18 Si10 1.643945 1_455
O19 Si19 1.637717 1_555
O19 Si11 1.643945 1_565
O20 Si12 1.613050 1_555
O20 U0 2.293671 1_655
O21 Si13 1.613050 1_555
O21 U1 2.293671 1_545
O22 Si14 1.613050 1_555
O22 U2 2.293671 1_455
O23 Si15 1.613050 1_555
O23 U3 2.293671 1_565
O24 Si12 1.648645 1_555
O24 Si0 1.649848 1_545
O25 Si13 1.648645 1_555
O25 Si1 1.649848 1_655
O26 Si14 1.648645 1_555
O26 Si2 1.649848 1_565
O27 Si15 1.648645 1_555
O27 Si3 1.649848 1_455
O28 Si20 1.610172 1_555
O28 U2 2.295620 1_545
O29 Si21 1.610172 1_555
O29 U3 2.295620 1_655
O30 Si22 1.610172 1_555
O30 U0 2.295620 1_565
O31 Si23 1.610172 1_555
O31 U1 2.295620 1_455
O32 Si8 1.607162 1_555
O32 U0 2.256017 1_555
O33 Si9 1.607162 1_556
O33 U1 2.256017 1_555
O34 Si10 1.607178 1_555
O34 U2 2.256017 1_555
O35 Si11 1.607178 1_554
O35 U3 2.256017 1_555
O36 Si16 1.639277 1_555
O36 Si21 1.640018 1_555
O37 Si17 1.639277 1_555
O37 Si20 1.640018 1_555
O38 Si18 1.639277 1_555
O38 Si23 1.640018 1_555
O39 Si19 1.639277 1_555
O39 Si22 1.640018 1_555
O40 Si1 1.609858 1_555
O40 U0 2.256677 1_555
O41 Si0 1.609858 1_555
O41 U1 2.256677 1_555
O42 Si3 1.609858 1_555
O42 U2 2.256677 1_555
O43 Si2 1.609858 1_555
O43 U3 2.256677 1_555
O44 Si8 1.641974 1_555
O44 Si2 1.644778 1_555
O45 Si9 1.641974 1_555
O45 Si3 1.644778 1_555
O46 Si10 1.641964 1_555
O46 Si0 1.644778 1_555
O47 Si11 1.641964 1_555
O47 Si1 1.644778 1_555
O48 Si4 1.625179 1_555
O48 Si14 1.627383 1_555
O49 Si5 1.625179 1_554
O49 Si15 1.627383 1_555
O50 Si6 1.625179 1_555
O50 Si12 1.627383 1_555
O51 Si7 1.625179 1_556
O51 Si13 1.627383 1_555
O52 Si4 1.606247 1_555
O52 U0 2.211035 1_565
O53 Si5 1.606247 1_555
O53 U1 2.211035 1_455
O54 Si6 1.606247 1_555
O54 U2 2.211035 1_545
O55 Si7 1.606247 1_555
O55 U3 2.211035 1_655
O56 Si4 1.618051 1_555
O56 Si0 1.626847 1_455
O57 Si5 1.618051 1_555
O57 Si1 1.626847 1_565
O58 Si6 1.618051 1_555
O58 Si2 1.626847 1_655
O59 Si7 1.618051 1_555
O59 Si3 1.626847 1_545
