# generated using pymatgen
data_Ho3Er
_symmetry_space_group_name_H-M   'P 1'
_cell_length_a   7.21176577
_cell_length_b   7.21171256
_cell_length_c   5.53950539
_cell_angle_alpha   90.00000000
_cell_angle_beta   90.00000000
_cell_angle_gamma   120.00039156
_symmetry_Int_Tables_number   1
_chemical_formula_structural   Ho3Er
_chemical_formula_sum   'Ho6 Er2'
_cell_volume   249.50538821
_cell_formula_units_Z   2
loop_
 _symmetry_equiv_pos_site_id
 _symmetry_equiv_pos_as_xyz
  1  'x, y, z'
loop_
 _atom_site_type_symbol
 _atom_site_label
 _atom_site_symmetry_multiplicity
 _atom_site_fract_x
 _atom_site_fract_y
 _atom_site_fract_z
 _atom_site_occupancy
  Ho  Ho0  1  0.16691116  0.33382511  0.25000000  1
  Ho  Ho1  1  0.66617185  0.83308391  0.25000000  1
  Ho  Ho2  1  0.16691138  0.83308258  0.25000000  1
  Ho  Ho3  1  0.83308632  0.66617375  0.75000000  1
  Ho  Ho4  1  0.33382612  0.16691550  0.74999900  1
  Ho  Ho5  1  0.83308609  0.16691627  0.75000000  1
  Er  Er0  1  0.33334028  0.66667270  0.75000000  1
  Er  Er1  1  0.66666280  0.33332919  0.24999900  1
loop_
_geom_bond_atom_site_label_1
_geom_bond_atom_site_label_2
_geom_bond_distance
_geom_bond_site_symmetry_2
Ho0 Ho4 3.466756 1_555
Ho0 Ho5 3.466760 1_455
Ho0 Ho5 3.466760 1_454
Ho0 Ho4 3.466765 1_554
Ho0 Ho2 3.600501 1_555
Ho0 Ho1 3.600510 1_555
Ho0 Ho1 3.611187 1_445
Ho0 Ho2 3.611212 1_545
Ho1 Ho3 3.466761 1_555
Ho1 Ho3 3.466761 1_554
Ho1 Ho5 3.466778 1_565
Ho1 Ho5 3.466778 1_564
Ho1 Ho2 3.600545 1_555
Ho1 Ho2 3.611221 1_655
Ho2 Ho3 3.466760 1_454
Ho2 Ho3 3.466760 1_455
Ho2 Ho4 3.466776 1_565
Ho2 Ho4 3.466784 1_564
Ho3 Ho5 3.600501 1_555
Ho3 Ho4 3.600506 1_555
Ho3 Ho4 3.611190 1_665
Ho3 Ho5 3.611212 1_565
Ho4 Ho5 3.600543 1_555
Ho4 Ho5 3.611223 1_455
Er0 Ho1 3.463032 1_555
Er0 Ho1 3.463032 1_556
Er0 Ho2 3.463061 1_556
Er0 Ho2 3.463061 1_555
Er0 Ho0 3.463082 1_556
Er0 Ho0 3.463082 1_555
Er0 Ho5 3.605811 1_565
Er0 Ho3 3.605852 1_555
Er0 Ho4 3.605857 1_565
Er0 Ho4 3.605858 1_555
Er0 Ho5 3.605888 1_455
Er0 Ho3 3.605917 1_455
Er1 Ho5 3.463047 1_554
Er1 Ho4 3.463051 1_555
Er1 Ho4 3.463051 1_554
Er1 Ho5 3.463056 1_555
Er1 Ho3 3.463067 1_554
Er1 Ho3 3.463076 1_555
Er1 Ho2 3.605842 1_545
Er1 Ho1 3.605856 1_545
Er1 Ho2 3.605857 1_655
Er1 Ho1 3.605859 1_555
Er1 Ho0 3.605881 1_555
Er1 Ho0 3.605887 1_655
