# generated using pymatgen
data_K(PO4)2
_symmetry_space_group_name_H-M   'P 1'
_cell_length_a   11.46532300
_cell_length_b   8.17404200
_cell_length_c   9.94773134
_cell_angle_alpha   64.81257761
_cell_angle_beta   90.00000000
_cell_angle_gamma   90.00000000
_symmetry_Int_Tables_number   1
_chemical_formula_structural   K(PO4)2
_chemical_formula_sum   'K4 P8 O32'
_cell_volume   843.64091228
_cell_formula_units_Z   4
loop_
 _symmetry_equiv_pos_site_id
 _symmetry_equiv_pos_as_xyz
  1  'x, y, z'
loop_
 _atom_site_type_symbol
 _atom_site_label
 _atom_site_symmetry_multiplicity
 _atom_site_fract_x
 _atom_site_fract_y
 _atom_site_fract_z
 _atom_site_occupancy
  K  K0  1  0.87696000  0.21281800  0.85695800  1
  K  K1  1  0.37696000  0.78718200  0.64304200  1
  K  K2  1  0.12304000  0.78718200  0.14304200  1
  K  K3  1  0.62304000  0.21281800  0.35695800  1
  P  P0  1  0.72192500  0.64660500  0.70495800  1
  P  P1  1  0.22192500  0.35339500  0.79504200  1
  P  P2  1  0.27807500  0.35339500  0.29504200  1
  P  P3  1  0.77807500  0.64660500  0.20495800  1
  P  P4  1  0.56936000  0.10911700  0.76578000  1
  P  P5  1  0.06936000  0.89088300  0.73422000  1
  P  P6  1  0.43064000  0.89088300  0.23422000  1
  P  P7  1  0.93064000  0.10911700  0.26578000  1
  O  O0  1  0.71025100  0.84919500  0.60234300  1
  O  O1  1  0.21025100  0.15080500  0.89765700  1
  O  O2  1  0.28974900  0.15080500  0.39765700  1
  O  O3  1  0.78974900  0.84919500  0.10234300  1
  O  O4  1  0.79076900  0.53766400  0.63791000  1
  O  O5  1  0.29076900  0.46233600  0.86209000  1
  O  O6  1  0.20923100  0.46233600  0.36209000  1
  O  O7  1  0.70923100  0.53766400  0.13791000  1
  O  O8  1  0.59237200  0.59534500  0.74008800  1
  O  O9  1  0.09237200  0.40465500  0.75991200  1
  O  O10  1  0.40762800  0.40465500  0.25991200  1
  O  O11  1  0.90762800  0.59534500  0.24008800  1
  O  O12  1  0.79638900  0.59424700  0.84712500  1
  O  O13  1  0.29638900  0.40575300  0.65287500  1
  O  O14  1  0.20361100  0.40575300  0.15287500  1
  O  O15  1  0.70361100  0.59424700  0.34712500  1
  O  O16  1  0.49821500  0.21114100  0.62208600  1
  O  O17  1  0.99821500  0.78885900  0.87791400  1
  O  O18  1  0.50178500  0.78885900  0.37791400  1
  O  O19  1  0.00178500  0.21114100  0.12208600  1
  O  O20  1  0.50142000  0.92965100  0.83129900  1
  O  O21  1  0.00142000  0.07034900  0.66870100  1
  O  O22  1  0.49858000  0.07034900  0.16870100  1
  O  O23  1  0.99858000  0.92965100  0.33129900  1
  O  O24  1  0.69841200  0.09259400  0.73014600  1
  O  O25  1  0.19841200  0.90740600  0.76985400  1
  O  O26  1  0.30158800  0.90740600  0.26985400  1
  O  O27  1  0.80158800  0.09259400  0.23014600  1
  O  O28  1  0.58441100  0.20460500  0.86842600  1
  O  O29  1  0.08441100  0.79539500  0.63157400  1
  O  O30  1  0.41558900  0.79539500  0.13157400  1
  O  O31  1  0.91558900  0.20460500  0.36842600  1
loop_
_geom_bond_atom_site_label_1
_geom_bond_atom_site_label_2
_geom_bond_distance
_geom_bond_site_symmetry_2
K0 O24 2.793372 1_555
K0 O4 2.801885 1_555
K0 O9 2.863934 1_655
K0 O21 2.959025 1_655
K0 O19 2.995601 1_656
K0 O3 3.101176 1_546
K0 O12 3.213117 1_555
K1 O25 2.793372 1_555
K1 O5 2.801885 1_555
K1 O8 2.863934 1_555
K1 O20 2.959025 1_555
K1 O18 2.995601 1_555
K1 O2 3.101176 1_565
K1 O13 3.213117 1_555
K2 O26 2.793372 1_555
K2 O6 2.801885 1_555
K2 O11 2.863934 1_455
K2 O23 2.959025 1_455
K2 O17 2.995601 1_454
K2 O1 3.101176 1_564
K2 O14 3.213117 1_555
K3 O27 2.793372 1_555
K3 O7 2.801885 1_555
K3 O10 2.863934 1_555
K3 O22 2.959025 1_555
K3 O16 2.995601 1_555
K3 O0 3.101176 1_545
K3 O15 3.213117 1_555
O0 P0 1.537330 1_555
O1 P1 1.537330 1_555
O2 P2 1.537330 1_555
O3 P3 1.537330 1_555
O4 P0 1.538305 1_555
O5 P1 1.538305 1_555
O6 P2 1.538305 1_555
O7 P3 1.538305 1_555
O8 P0 1.542521 1_555
O9 P1 1.542521 1_555
O10 P2 1.542521 1_555
O11 P3 1.542521 1_555
O12 P0 1.548211 1_555
O13 P1 1.548211 1_555
O14 P2 1.548211 1_555
O15 P3 1.548211 1_555
O16 P4 1.545788 1_555
O17 P5 1.545788 1_655
O18 P6 1.545788 1_555
O19 P7 1.545788 1_455
O20 P4 1.539395 1_565
O21 P5 1.539395 1_545
O22 P6 1.539395 1_545
O23 P7 1.539395 1_565
O24 P4 1.540756 1_555
O25 P5 1.540756 1_555
O26 P6 1.540756 1_555
O27 P7 1.540756 1_555
O28 P4 1.536227 1_555
O29 P5 1.536227 1_555
O30 P6 1.536227 1_555
O31 P7 1.536227 1_555
