# generated using pymatgen
data_Li9Mn2Co5O16
_symmetry_space_group_name_H-M   'P 1'
_cell_length_a   5.93884698
_cell_length_b   5.93884698
_cell_length_c   10.28860152
_cell_angle_alpha   72.23495870
_cell_angle_beta   72.23495870
_cell_angle_gamma   58.63019306
_symmetry_Int_Tables_number   1
_chemical_formula_structural   Li9Mn2Co5O16
_chemical_formula_sum   'Li9 Mn2 Co5 O16'
_cell_volume   290.24586153
_cell_formula_units_Z   1
loop_
 _symmetry_equiv_pos_site_id
 _symmetry_equiv_pos_as_xyz
  1  'x, y, z'
loop_
 _atom_site_type_symbol
 _atom_site_label
 _atom_site_symmetry_multiplicity
 _atom_site_fract_x
 _atom_site_fract_y
 _atom_site_fract_z
 _atom_site_occupancy
  Li  Li0  1  0.50000000  0.00000000  0.00000000  1
  Li  Li1  1  0.00000000  0.50000000  0.00000000  1
  Li  Li2  1  0.74014600  0.74014600  0.27256200  1
  Li  Li3  1  0.24481400  0.24481400  0.26101700  1
  Li  Li4  1  0.00000000  0.50000000  0.50000000  1
  Li  Li5  1  0.50000000  0.00000000  0.50000000  1
  Li  Li6  1  0.25985400  0.25985400  0.72743800  1
  Li  Li7  1  0.75518600  0.75518600  0.73898300  1
  Li  Li8  1  0.50000000  0.50000000  0.50000000  1
  Mn  Mn0  1  0.00000000  0.00000000  0.00000000  1
  Mn  Mn1  1  0.50000000  0.50000000  0.00000000  1
  Co  Co0  1  0.25257500  0.74367800  0.25954900  1
  Co  Co1  1  0.74367800  0.25257500  0.25954900  1
  Co  Co2  1  0.00000000  0.00000000  0.50000000  1
  Co  Co3  1  0.74742500  0.25632200  0.74045100  1
  Co  Co4  1  0.25632200  0.74742500  0.74045100  1
  O  O0  1  0.36069500  0.86230900  0.89021400  1
  O  O1  1  0.86230900  0.36069500  0.89021400  1
  O  O2  1  0.61082300  0.61082300  0.11788400  1
  O  O3  1  0.10181900  0.10181900  0.12570900  1
  O  O4  1  0.87102000  0.35626700  0.37149500  1
  O  O5  1  0.35626700  0.87102000  0.37149500  1
  O  O6  1  0.12119100  0.12119100  0.62460100  1
  O  O7  1  0.61763800  0.61763800  0.64141200  1
  O  O8  1  0.63930500  0.13769100  0.10978600  1
  O  O9  1  0.13769100  0.63930500  0.10978600  1
  O  O10  1  0.87880900  0.87880900  0.37539900  1
  O  O11  1  0.38236200  0.38236200  0.35858800  1
  O  O12  1  0.12898000  0.64373300  0.62850500  1
  O  O13  1  0.64373300  0.12898000  0.62850500  1
  O  O14  1  0.38917700  0.38917700  0.88211600  1
  O  O15  1  0.89818100  0.89818100  0.87429100  1
loop_
_geom_bond_atom_site_label_1
_geom_bond_atom_site_label_2
_geom_bond_distance
_geom_bond_site_symmetry_2
Li0 O14 2.106873 1_554
Li0 O2 2.106873 1_545
Li0 O8 2.113578 1_555
Li0 O0 2.113578 1_544
Li0 O15 2.180042 1_544
Li0 O3 2.180042 1_555
Li1 O2 2.106873 1_455
Li1 O14 2.106873 1_554
Li1 O9 2.113578 1_555
Li1 O1 2.113578 1_454
Li1 O15 2.180042 1_454
Li1 O3 2.180042 1_555
Li2 O5 2.014834 1_555
Li2 O4 2.014834 1_555
Li2 O10 2.060385 1_555
Li2 O9 2.337662 1_655
Li2 O8 2.337662 1_565
Li2 O2 2.412093 1_555
Li3 O11 2.009446 1_555
Li3 O5 2.011877 1_545
Li3 O4 2.011877 1_455
Li3 O9 2.267676 1_555
Li3 O8 2.267676 1_555
Li3 O3 2.360952 1_555
Li4 O6 2.083250 1_555
Li4 O10 2.083250 1_455
Li4 O11 2.171150 1_555
Li4 O7 2.171150 1_455
Li4 O12 2.247417 1_555
Li4 O4 2.247417 1_455
Li5 O10 2.083250 1_545
Li5 O6 2.083250 1_555
Li5 O11 2.171150 1_555
Li5 O7 2.171150 1_545
Li5 O5 2.247417 1_545
Li5 O13 2.247417 1_555
Li6 O13 2.014834 1_555
Li6 O12 2.014834 1_555
Li6 O6 2.060385 1_555
Li6 O1 2.337662 1_455
Li6 O0 2.337662 1_545
Li6 O14 2.412093 1_555
Li7 O7 2.009446 1_555
Li7 O13 2.011877 1_565
Li7 O12 2.011877 1_655
Li7 O1 2.267676 1_555
Li7 O0 2.267676 1_555
Li7 O15 2.360952 1_555
Li8 O12 2.069915 1_555
Li8 O13 2.069915 1_555
Li8 O4 2.069915 1_555
Li8 O5 2.069915 1_555
Li8 O11 2.200390 1_555
Li8 O7 2.200390 1_555
Mn0 O15 1.933722 1_444
Mn0 O3 1.933722 1_555
Mn0 O8 1.948494 1_455
Mn0 O9 1.948494 1_545
Mn0 O1 1.948494 1_454
Mn0 O0 1.948494 1_544
Mn1 O14 1.939745 1_554
Mn1 O2 1.939745 1_555
Mn1 O8 1.955485 1_555
Mn1 O9 1.955485 1_555
Mn1 O0 1.955485 1_554
Mn1 O1 1.955485 1_554
Co0 O11 1.913092 1_555
Co0 O5 1.930530 1_555
Co0 O10 2.026459 1_455
Co0 O3 2.050404 1_565
Co0 O2 2.082131 1_555
Co0 O9 2.211021 1_555
Co1 O11 1.913092 1_555
Co1 O4 1.930530 1_555
Co1 O10 2.026459 1_545
Co1 O3 2.050404 1_655
Co1 O2 2.082131 1_555
Co1 O8 2.211021 1_555
Co2 O5 2.008750 1_545
Co2 O4 2.008750 1_455
Co2 O13 2.008750 1_455
Co2 O12 2.008750 1_545
Co2 O6 2.084440 1_555
Co2 O10 2.084440 1_445
Co3 O7 1.913092 1_555
Co3 O13 1.930530 1_555
Co3 O6 2.026459 1_655
Co3 O15 2.050404 1_545
Co3 O14 2.082131 1_555
Co3 O1 2.211021 1_555
Co4 O7 1.913092 1_555
Co4 O12 1.930530 1_555
Co4 O6 2.026459 1_565
Co4 O15 2.050404 1_455
Co4 O14 2.082131 1_555
Co4 O0 2.211021 1_555
