# generated using pymatgen
data_Na5B(SO4)4
_symmetry_space_group_name_H-M   'P 1'
_cell_length_a   10.97031011
_cell_length_b   14.12183447
_cell_length_c   18.53032234
_cell_angle_alpha   90.00000000
_cell_angle_beta   90.00000000
_cell_angle_gamma   90.00000000
_symmetry_Int_Tables_number   1
_chemical_formula_structural   Na5B(SO4)4
_chemical_formula_sum   'Na40 B8 S32 O128'
_cell_volume   2870.73427828
_cell_formula_units_Z   8
loop_
 _symmetry_equiv_pos_site_id
 _symmetry_equiv_pos_as_xyz
  1  'x, y, z'
loop_
 _atom_site_type_symbol
 _atom_site_label
 _atom_site_symmetry_multiplicity
 _atom_site_fract_x
 _atom_site_fract_y
 _atom_site_fract_z
 _atom_site_occupancy
  Na  Na0  1  0.02398937  0.13221558  0.59016318  1
  Na  Na1  1  0.97601063  0.86778442  0.09016318  1
  Na  Na2  1  0.47601063  0.13221558  0.09016318  1
  Na  Na3  1  0.52398937  0.86778442  0.59016318  1
  Na  Na4  1  0.22788653  0.62723718  0.83061919  1
  Na  Na5  1  0.77211347  0.37276282  0.33061919  1
  Na  Na6  1  0.27211347  0.62723718  0.33061919  1
  Na  Na7  1  0.72788653  0.37276282  0.83061919  1
  Na  Na8  1  0.26091195  0.37126974  0.85475092  1
  Na  Na9  1  0.73908805  0.62873026  0.35475092  1
  Na  Na10  1  0.23908805  0.37126974  0.35475092  1
  Na  Na11  1  0.76091195  0.62873026  0.85475092  1
  Na  Na12  1  0.22900291  0.13501917  0.88741962  1
  Na  Na13  1  0.77099709  0.86498083  0.38741962  1
  Na  Na14  1  0.27099709  0.13501917  0.38741962  1
  Na  Na15  1  0.72900291  0.86498083  0.88741962  1
  Na  Na16  1  0.69320888  0.13882262  0.87545897  1
  Na  Na17  1  0.30679112  0.86117738  0.37545897  1
  Na  Na18  1  0.80679112  0.13882262  0.37545897  1
  Na  Na19  1  0.19320888  0.86117738  0.87545897  1
  Na  Na20  1  0.76937396  0.26969629  0.53715606  1
  Na  Na21  1  0.23062604  0.73030371  0.03715606  1
  Na  Na22  1  0.73062604  0.26969629  0.03715606  1
  Na  Na23  1  0.26937396  0.73030371  0.53715606  1
  Na  Na24  1  0.00300986  0.23985125  0.78023760  1
  Na  Na25  1  0.99699014  0.76014875  0.28023760  1
  Na  Na26  1  0.49699014  0.23985125  0.28023760  1
  Na  Na27  1  0.50300986  0.76014875  0.78023760  1
  Na  Na28  1  0.50301984  0.12871045  0.58536997  1
  Na  Na29  1  0.49698016  0.87128955  0.08536997  1
  Na  Na30  1  0.99698016  0.12871045  0.08536997  1
  Na  Na31  1  0.00301984  0.87128955  0.58536997  1
  Na  Na32  1  0.01393688  0.64630160  0.63566010  1
  Na  Na33  1  0.98606312  0.35369840  0.13566010  1
  Na  Na34  1  0.48606312  0.64630160  0.13566010  1
  Na  Na35  1  0.51393688  0.35369840  0.63566010  1
  Na  Na36  1  0.08914975  0.37483518  0.62462002  1
  Na  Na37  1  0.91085025  0.62516482  0.12462002  1
  Na  Na38  1  0.41085025  0.37483518  0.12462002  1
  Na  Na39  1  0.58914975  0.62516482  0.62462002  1
  B  B0  1  0.03906285  0.50255664  0.93831132  1
  B  B1  1  0.96093715  0.49744336  0.43831132  1
  B  B2  1  0.46093715  0.50255664  0.43831132  1
  B  B3  1  0.53906285  0.49744336  0.93831132  1
  B  B4  1  0.81514554  0.00164761  0.69365872  1
  B  B5  1  0.18485446  0.99835239  0.19365872  1
  B  B6  1  0.68485446  0.00164761  0.19365872  1
  B  B7  1  0.31514554  0.99835239  0.69365872  1
  S  S0  1  0.97789648  0.31233295  0.94578866  1
  S  S1  1  0.02210352  0.68766705  0.44578866  1
  S  S2  1  0.52210352  0.31233295  0.44578866  1
  S  S3  1  0.47789648  0.68766705  0.94578866  1
  S  S4  1  0.98624421  0.69272506  0.95256933  1
  S  S5  1  0.01375579  0.30727494  0.45256933  1
  S  S6  1  0.51375579  0.69272506  0.45256933  1
  S  S7  1  0.48624421  0.30727494  0.95256933  1
  S  S8  1  0.00759944  0.49279410  0.78901821  1
  S  S9  1  0.99240056  0.50720590  0.28901821  1
  S  S10  1  0.49240056  0.49279410  0.28901821  1
  S  S11  1  0.50759944  0.50720590  0.78901821  1
  S  S12  1  0.17117921  0.50095784  0.06409304  1
  S  S13  1  0.82882079  0.49904216  0.56409304  1
  S  S14  1  0.32882079  0.50095784  0.56409304  1
  S  S15  1  0.67117921  0.49904216  0.06409304  1
  S  S16  1  0.94866931  0.00780042  0.81893759  1
  S  S17  1  0.05133069  0.99219958  0.31893759  1
  S  S18  1  0.55133069  0.00780042  0.31893759  1
  S  S19  1  0.44866931  0.99219958  0.81893759  1
  S  S20  1  0.75538338  0.18933122  0.69736694  1
  S  S21  1  0.24461662  0.81066878  0.19736694  1
  S  S22  1  0.74461662  0.18933122  0.19736694  1
  S  S23  1  0.25538338  0.81066878  0.69736694  1
  S  S24  1  0.76010562  0.80993297  0.70458006  1
  S  S25  1  0.23989438  0.19006703  0.20458006  1
  S  S26  1  0.73989438  0.80993297  0.20458006  1
  S  S27  1  0.26010562  0.19006703  0.70458006  1
  S  S28  1  0.77999548  0.00815492  0.54395585  1
  S  S29  1  0.22000452  0.99184508  0.04395585  1
  S  S30  1  0.72000452  0.00815492  0.04395585  1
  S  S31  1  0.27999548  0.99184508  0.54395585  1
  O  O0  1  0.96705558  0.27092966  0.01830456  1
  O  O1  1  0.03294442  0.72907034  0.51830456  1
  O  O2  1  0.53294442  0.27092966  0.51830456  1
  O  O3  1  0.46705558  0.72907034  0.01830456  1
  O  O4  1  0.87344808  0.28528021  0.90016489  1
  O  O5  1  0.12655192  0.71471979  0.40016489  1
  O  O6  1  0.62655192  0.28528021  0.40016489  1
  O  O7  1  0.37344808  0.71471979  0.90016489  1
  O  O8  1  0.09458140  0.29300500  0.91007512  1
  O  O9  1  0.90541860  0.70699500  0.41007512  1
  O  O10  1  0.40541860  0.29300500  0.41007512  1
  O  O11  1  0.59458140  0.70699500  0.91007512  1
  O  O12  1  0.87945355  0.73854655  0.92208230  1
  O  O13  1  0.12054645  0.26145345  0.42208230  1
  O  O14  1  0.62054645  0.73854655  0.42208230  1
  O  O15  1  0.37945355  0.26145345  0.92208230  1
  O  O16  1  0.00409293  0.71436354  0.02992000  1
  O  O17  1  0.99590707  0.28563646  0.52992000  1
  O  O18  1  0.49590707  0.71436354  0.52992000  1
  O  O19  1  0.50409293  0.28563646  0.02992000  1
  O  O20  1  0.10081409  0.70993536  0.91299638  1
  O  O21  1  0.89918591  0.29006464  0.41299638  1
  O  O22  1  0.39918591  0.70993536  0.41299638  1
  O  O23  1  0.60081409  0.29006464  0.91299638  1
  O  O24  1  0.05163479  0.57594185  0.74982392  1
  O  O25  1  0.94836521  0.42405815  0.24982392  1
  O  O26  1  0.44836521  0.57594185  0.24982392  1
  O  O27  1  0.55163479  0.42405815  0.74982392  1
  O  O28  1  0.87762074  0.49686645  0.80768531  1
  O  O29  1  0.12237926  0.50313355  0.30768531  1
  O  O30  1  0.62237926  0.49686645  0.30768531  1
  O  O31  1  0.37762074  0.50313355  0.80768531  1
  O  O32  1  0.04295407  0.40260435  0.75535003  1
  O  O33  1  0.95704593  0.59739565  0.25535003  1
  O  O34  1  0.45704593  0.40260435  0.25535003  1
  O  O35  1  0.54295407  0.59739565  0.75535003  1
  O  O36  1  0.25385243  0.57858524  0.08231919  1
  O  O37  1  0.74614757  0.42141476  0.58231919  1
  O  O38  1  0.24614757  0.57858524  0.58231919  1
  O  O39  1  0.75385243  0.42141476  0.08231919  1
  O  O40  1  0.05006741  0.50910948  0.09777954  1
  O  O41  1  0.94993259  0.49089052  0.59777954  1
  O  O42  1  0.44993259  0.50910948  0.59777954  1
  O  O43  1  0.55006741  0.49089052  0.09777954  1
  O  O44  1  0.22292526  0.40692228  0.07553738  1
  O  O45  1  0.77707474  0.59307772  0.57553738  1
  O  O46  1  0.27707474  0.40692228  0.57553738  1
  O  O47  1  0.72292526  0.59307772  0.07553738  1
  O  O48  1  0.82665257  0.01258024  0.85231445  1
  O  O49  1  0.17334743  0.98741976  0.35231445  1
  O  O50  1  0.67334743  0.01258024  0.35231445  1
  O  O51  1  0.32665257  0.98741976  0.85231445  1
  O  O52  1  0.02139712  0.09336703  0.83212183  1
  O  O53  1  0.97860288  0.90663297  0.33212183  1
  O  O54  1  0.47860288  0.09336703  0.33212183  1
  O  O55  1  0.52139712  0.90663297  0.83212183  1
  O  O56  1  0.01195258  0.92039041  0.83602985  1
  O  O57  1  0.98804742  0.07960959  0.33602985  1
  O  O58  1  0.48804742  0.92039041  0.33602985  1
  O  O59  1  0.51195258  0.07960959  0.83602985  1
  O  O60  1  0.65980180  0.22296382  0.64817280  1
  O  O61  1  0.34019820  0.77703618  0.14817280  1
  O  O62  1  0.84019820  0.22296382  0.14817280  1
  O  O63  1  0.15980180  0.77703618  0.64817280  1
  O  O64  1  0.87830681  0.20362470  0.66700775  1
  O  O65  1  0.12169319  0.79637530  0.16700775  1
  O  O66  1  0.62169319  0.20362470  0.16700775  1
  O  O67  1  0.37830681  0.79637530  0.66700775  1
  O  O68  1  0.74699863  0.22991631  0.77011825  1
  O  O69  1  0.25300137  0.77008369  0.27011825  1
  O  O70  1  0.75300137  0.22991631  0.27011825  1
  O  O71  1  0.24699863  0.77008369  0.77011825  1
  O  O72  1  0.65469917  0.77740501  0.66160759  1
  O  O73  1  0.34530083  0.22259499  0.16160759  1
  O  O74  1  0.84530083  0.77740501  0.16160759  1
  O  O75  1  0.15469917  0.22259499  0.66160759  1
  O  O76  1  0.87766913  0.79185450  0.67022601  1
  O  O77  1  0.12233087  0.20814550  0.17022601  1
  O  O78  1  0.62233087  0.79185450  0.17022601  1
  O  O79  1  0.37766913  0.20814550  0.67022601  1
  O  O80  1  0.75082728  0.77310870  0.77868631  1
  O  O81  1  0.24917272  0.22689130  0.27868631  1
  O  O82  1  0.74917272  0.77310870  0.27868631  1
  O  O83  1  0.25082728  0.22689130  0.77868631  1
  O  O84  1  0.65003689  0.00146204  0.56239356  1
  O  O85  1  0.34996311  0.99853796  0.06239356  1
  O  O86  1  0.84996311  0.00146204  0.06239356  1
  O  O87  1  0.15003689  0.99853796  0.56239356  1
  O  O88  1  0.82547582  0.92828607  0.50161146  1
  O  O89  1  0.17452418  0.07171393  0.00161146  1
  O  O90  1  0.67452418  0.92828607  0.00161146  1
  O  O91  1  0.32547582  0.07171393  0.50161146  1
  O  O92  1  0.81285834  0.10107781  0.51320403  1
  O  O93  1  0.18714166  0.89892219  0.01320403  1
  O  O94  1  0.68714166  0.10107781  0.01320403  1
  O  O95  1  0.31285834  0.89892219  0.51320403  1
  O  O96  1  0.95410262  0.58399806  0.94637860  1
  O  O97  1  0.04589738  0.41600194  0.44637860  1
  O  O98  1  0.54589738  0.58399806  0.44637860  1
  O  O99  1  0.45410262  0.41600194  0.94637860  1
  O  O100  1  0.96294955  0.42140372  0.95843370  1
  O  O101  1  0.03705045  0.57859628  0.45843370  1
  O  O102  1  0.53705045  0.42140372  0.45843370  1
  O  O103  1  0.46294955  0.57859628  0.95843370  1
  O  O104  1  0.15270832  0.51229910  0.97875944  1
  O  O105  1  0.84729168  0.48770090  0.47875944  1
  O  O106  1  0.34729168  0.51229910  0.47875944  1
  O  O107  1  0.65270832  0.48770090  0.97875944  1
  O  O108  1  0.08625252  0.49562364  0.86204666  1
  O  O109  1  0.91374748  0.50437636  0.36204666  1
  O  O110  1  0.41374748  0.49562364  0.36204666  1
  O  O111  1  0.58625252  0.50437636  0.86204666  1
  O  O112  1  0.73864342  0.91942257  0.71099889  1
  O  O113  1  0.26135658  0.08057743  0.21099889  1
  O  O114  1  0.76135658  0.91942257  0.21099889  1
  O  O115  1  0.23864342  0.08057743  0.71099889  1
  O  O116  1  0.92966908  0.00766912  0.73331695  1
  O  O117  1  0.07033092  0.99233088  0.23331695  1
  O  O118  1  0.57033092  0.00766912  0.23331695  1
  O  O119  1  0.42966908  0.99233088  0.73331695  1
  O  O120  1  0.72999162  0.08132261  0.70649903  1
  O  O121  1  0.27000838  0.91867739  0.20649903  1
  O  O122  1  0.77000838  0.08132261  0.20649903  1
  O  O123  1  0.22999162  0.91867739  0.70649903  1
  O  O124  1  0.85948951  0.00096126  0.61631888  1
  O  O125  1  0.14051049  0.99903874  0.11631888  1
  O  O126  1  0.64051049  0.00096126  0.11631888  1
  O  O127  1  0.35948951  0.99903874  0.61631888  1
loop_
_geom_bond_atom_site_label_1
_geom_bond_atom_site_label_2
_geom_bond_distance
_geom_bond_site_symmetry_2
Na0 O75 2.331915 1_555
Na0 O64 2.366170 1_455
Na0 O87 2.395947 1_545
Na0 O17 2.456660 1_455
Na0 O124 2.631957 1_455
Na0 O92 2.755306 1_455
Na1 O74 2.331915 1_555
Na1 O65 2.366170 1_655
Na1 O86 2.395947 1_565
Na1 O16 2.456660 1_655
Na1 O125 2.631957 1_655
Na1 O93 2.755306 1_655
Na2 O73 2.331915 1_555
Na2 O66 2.366170 1_555
Na2 O85 2.395947 1_545
Na2 O19 2.456660 1_555
Na2 O126 2.631957 1_555
Na2 O94 2.755306 1_555
Na3 O72 2.331915 1_555
Na3 O67 2.366170 1_555
Na3 O84 2.395947 1_565
Na3 O18 2.456660 1_555
Na3 O127 2.631957 1_555
Na3 O95 2.755306 1_555
Na4 O71 2.317358 1_555
Na4 O20 2.374301 1_555
Na4 O7 2.395194 1_555
Na4 O31 2.439332 1_555
Na4 O108 2.491551 1_555
Na4 O24 2.550449 1_555
Na5 O70 2.317358 1_555
Na5 O21 2.374301 1_555
Na5 O6 2.395194 1_555
Na5 O30 2.439332 1_555
Na5 O109 2.491551 1_555
Na5 O25 2.550449 1_555
Na6 O69 2.317358 1_555
Na6 O22 2.374301 1_555
Na6 O5 2.395194 1_555
Na6 O29 2.439332 1_555
Na6 O110 2.491551 1_555
Na6 O26 2.550449 1_555
Na7 O68 2.317358 1_555
Na7 O23 2.374301 1_555
Na7 O4 2.395194 1_555
Na7 O28 2.439332 1_555
Na7 O111 2.491551 1_555
Na7 O27 2.550449 1_555
Na8 O8 2.366868 1_555
Na8 O15 2.377568 1_555
Na8 O31 2.422295 1_555
Na8 O83 2.481129 1_555
Na8 O108 2.602595 1_555
Na8 O99 2.788112 1_555
Na9 O9 2.366868 1_555
Na9 O14 2.377568 1_555
Na9 O30 2.422295 1_555
Na9 O82 2.481129 1_555
Na9 O109 2.602595 1_555
Na9 O98 2.788112 1_555
Na10 O10 2.366868 1_555
Na10 O13 2.377568 1_555
Na10 O29 2.422295 1_555
Na10 O81 2.481129 1_555
Na10 O110 2.602595 1_555
Na10 O97 2.788112 1_555
Na11 O11 2.366868 1_555
Na11 O12 2.377568 1_555
Na11 O28 2.422295 1_555
Na11 O80 2.481129 1_555
Na11 O111 2.602595 1_555
Na11 O96 2.788112 1_555
Na12 O89 2.373584 1_556
Na12 O83 2.408371 1_555
Na12 O51 2.432149 1_545
Na12 O15 2.514882 1_555
Na12 O52 2.565730 1_555
Na12 O8 2.707103 1_555
Na13 O88 2.373584 1_555
Na13 O82 2.408371 1_555
Na13 O50 2.432149 1_565
Na13 O14 2.514882 1_555
Na13 O53 2.565730 1_555
Na13 O9 2.707103 1_555
Na14 O91 2.373584 1_555
Na14 O81 2.408371 1_555
Na14 O49 2.432149 1_545
Na14 O13 2.514882 1_555
Na14 O54 2.565730 1_555
Na14 O10 2.707103 1_555
Na15 O90 2.373584 1_556
Na15 O80 2.408371 1_555
Na15 O48 2.432149 1_565
Na15 O12 2.514882 1_555
Na15 O55 2.565730 1_555
Na15 O11 2.707103 1_555
Na16 O59 2.277485 1_555
Na16 O48 2.346332 1_555
Na16 O68 2.411089 1_555
Na16 O23 2.464330 1_555
Na16 O94 2.608371 1_556
Na16 O4 2.897737 1_555
Na17 O58 2.277485 1_555
Na17 O49 2.346332 1_555
Na17 O69 2.411089 1_555
Na17 O22 2.464330 1_555
Na17 O95 2.608371 1_555
Na17 O5 2.897737 1_555
Na18 O57 2.277485 1_555
Na18 O50 2.346332 1_555
Na18 O70 2.411089 1_555
Na18 O21 2.464330 1_555
Na18 O92 2.608371 1_555
Na18 O6 2.897737 1_555
Na19 O56 2.277485 1_555
Na19 O51 2.346332 1_555
Na19 O71 2.411089 1_555
Na19 O20 2.464330 1_555
Na19 O93 2.608371 1_556
Na19 O7 2.897737 1_555
Na20 O37 2.314259 1_555
Na20 O92 2.468741 1_555
Na20 O60 2.472328 1_555
Na20 O17 2.498913 1_555
Na20 O2 2.617181 1_555
Na20 O21 2.721036 1_555
Na20 O64 2.844019 1_555
Na20 O6 2.991193 1_555
Na21 O36 2.314259 1_555
Na21 O93 2.468741 1_555
Na21 O61 2.472328 1_555
Na21 O16 2.498913 1_555
Na21 O3 2.617181 1_555
Na21 O20 2.721036 1_554
Na21 O65 2.844019 1_555
Na21 O7 2.991193 1_554
Na22 O39 2.314259 1_555
Na22 O94 2.468741 1_555
Na22 O62 2.472328 1_555
Na22 O19 2.498913 1_555
Na22 O0 2.617181 1_555
Na22 O23 2.721036 1_554
Na22 O66 2.844019 1_555
Na22 O4 2.991193 1_554
Na23 O38 2.314259 1_555
Na23 O95 2.468741 1_555
Na23 O63 2.472328 1_555
Na23 O18 2.498913 1_555
Na23 O1 2.617181 1_555
Na23 O22 2.721036 1_555
Na23 O67 2.844019 1_555
Na23 O5 2.991193 1_555
Na24 O52 2.290033 1_555
Na24 O32 2.384789 1_555
Na24 O64 2.556484 1_455
Na24 O8 2.713136 1_555
Na24 O4 2.714837 1_455
Na24 O83 2.724939 1_555
Na24 O75 2.767825 1_555
Na24 O68 2.818270 1_455
Na25 O53 2.290033 1_555
Na25 O33 2.384789 1_555
Na25 O65 2.556484 1_655
Na25 O9 2.713136 1_555
Na25 O5 2.714837 1_655
Na25 O82 2.724939 1_555
Na25 O74 2.767825 1_555
Na25 O69 2.818270 1_655
Na26 O54 2.290033 1_555
Na26 O34 2.384789 1_555
Na26 O66 2.556484 1_555
Na26 O10 2.713136 1_555
Na26 O6 2.714837 1_555
Na26 O81 2.724939 1_555
Na26 O73 2.767825 1_555
Na26 O70 2.818270 1_555
Na27 O55 2.290033 1_555
Na27 O35 2.384789 1_555
Na27 O67 2.556484 1_555
Na27 O11 2.713136 1_555
Na27 O7 2.714837 1_555
Na27 O80 2.724939 1_555
Na27 O72 2.767825 1_555
Na27 O71 2.818270 1_555
Na28 O79 2.371041 1_555
Na28 O2 2.384499 1_555
Na28 O84 2.451858 1_555
Na28 O60 2.466615 1_555
Na28 O127 2.482232 1_545
Na28 O91 2.617321 1_555
Na29 O78 2.371041 1_555
Na29 O3 2.384499 1_555
Na29 O85 2.451858 1_555
Na29 O61 2.466615 1_555
Na29 O126 2.482232 1_565
Na29 O90 2.617321 1_555
Na30 O77 2.371041 1_655
Na30 O0 2.384499 1_555
Na30 O86 2.451858 1_555
Na30 O62 2.466615 1_555
Na30 O125 2.482232 1_645
Na30 O89 2.617321 1_655
Na31 O76 2.371041 1_455
Na31 O1 2.384499 1_555
Na31 O87 2.451858 1_555
Na31 O63 2.466615 1_555
Na31 O124 2.482232 1_465
Na31 O88 2.617321 1_455
Na32 O24 2.373520 1_555
Na32 O41 2.408815 1_455
Na32 O63 2.454149 1_555
Na32 O1 2.477645 1_555
Na32 O76 2.621061 1_455
Na32 O38 2.894964 1_555
Na32 O45 2.925420 1_455
Na33 O25 2.373520 1_555
Na33 O40 2.408815 1_655
Na33 O62 2.454149 1_555
Na33 O0 2.477645 1_555
Na33 O77 2.621061 1_655
Na33 O39 2.894964 1_555
Na33 O44 2.925420 1_655
Na34 O26 2.373520 1_555
Na34 O43 2.408815 1_555
Na34 O61 2.454149 1_555
Na34 O3 2.477645 1_555
Na34 O78 2.621061 1_555
Na34 O36 2.894964 1_555
Na34 O47 2.925420 1_555
Na35 O27 2.373520 1_555
Na35 O42 2.408815 1_555
Na35 O60 2.454149 1_555
Na35 O2 2.477645 1_555
Na35 O79 2.621061 1_555
Na35 O37 2.894964 1_555
Na35 O46 2.925420 1_555
Na36 O41 2.294759 1_455
Na36 O46 2.298417 1_555
Na36 O75 2.368328 1_555
Na36 O17 2.390072 1_455
Na36 O32 2.505787 1_555
Na37 O40 2.294759 1_655
Na37 O47 2.298417 1_555
Na37 O74 2.368328 1_555
Na37 O16 2.390072 1_655
Na37 O33 2.505787 1_555
Na38 O43 2.294759 1_555
Na38 O44 2.298417 1_555
Na38 O73 2.368328 1_555
Na38 O19 2.390072 1_555
Na38 O34 2.505787 1_555
Na39 O42 2.294759 1_555
Na39 O45 2.298417 1_555
Na39 O72 2.368328 1_555
Na39 O18 2.390072 1_555
Na39 O35 2.505787 1_555
B0 O104 1.461174 1_555
B0 O100 1.466158 1_455
B0 O96 1.487878 1_455
B0 O108 1.508225 1_555
B1 O105 1.461174 1_555
B1 O101 1.466158 1_655
B1 O97 1.487878 1_655
B1 O109 1.508225 1_555
B2 O106 1.461174 1_555
B2 O102 1.466158 1_555
B2 O98 1.487878 1_555
B2 O110 1.508225 1_555
B3 O107 1.461174 1_555
B3 O103 1.466158 1_555
B3 O99 1.487878 1_555
B3 O111 1.508225 1_555
B4 O116 1.457984 1_555
B4 O112 1.468299 1_545
B4 O120 1.481640 1_555
B4 O124 1.513477 1_555
B5 O117 1.457984 1_555
B5 O113 1.468299 1_565
B5 O121 1.481640 1_555
B5 O125 1.513477 1_555
B6 O118 1.457984 1_555
B6 O114 1.468299 1_545
B6 O122 1.481640 1_555
B6 O126 1.513477 1_555
B7 O119 1.457984 1_555
B7 O115 1.468299 1_565
B7 O123 1.481640 1_555
B7 O127 1.513477 1_555
O0 S0 1.470256 1_554
O1 S1 1.470256 1_555
O2 S2 1.470256 1_555
O3 S3 1.470256 1_554
O4 S0 1.474320 1_555
O5 S1 1.474320 1_555
O6 S2 1.474320 1_555
O7 S3 1.474320 1_555
O8 S0 1.466641 1_455
O9 S1 1.466641 1_655
O10 S2 1.466641 1_555
O11 S3 1.466641 1_555
O12 S4 1.452702 1_555
O13 S5 1.452702 1_555
O14 S6 1.452702 1_555
O15 S7 1.452702 1_555
O16 S4 1.478567 1_454
O17 S5 1.478567 1_655
O18 S6 1.478567 1_555
O19 S7 1.478567 1_554
O20 S4 1.475301 1_455
O21 S5 1.475301 1_655
O22 S6 1.475301 1_555
O23 S7 1.475301 1_555
O24 S8 1.462736 1_555
O25 S9 1.462736 1_555
O26 S10 1.462736 1_555
O27 S11 1.462736 1_555
O28 S8 1.468390 1_655
O29 S9 1.468390 1_455
O30 S10 1.468390 1_555
O31 S11 1.468390 1_555
O32 S8 1.470316 1_555
O33 S9 1.470316 1_555
O34 S10 1.470316 1_555
O35 S11 1.470316 1_555
O36 S12 1.462317 1_555
O37 S13 1.462317 1_555
O38 S14 1.462317 1_555
O39 S15 1.462317 1_555
O40 S12 1.472472 1_555
O41 S13 1.472472 1_555
O42 S14 1.472472 1_555
O43 S15 1.472472 1_555
O44 S12 1.459687 1_555
O45 S13 1.459687 1_555
O46 S14 1.459687 1_555
O47 S15 1.459687 1_555
O48 S16 1.476085 1_555
O49 S17 1.476085 1_555
O50 S18 1.476085 1_555
O51 S19 1.476085 1_555
O52 S16 1.468460 1_455
O53 S17 1.468460 1_655
O54 S18 1.468460 1_555
O55 S19 1.468460 1_555
O56 S16 1.451206 1_465
O57 S17 1.451206 1_645
O58 S18 1.451206 1_565
O59 S19 1.451206 1_545
O60 S20 1.468347 1_555
O61 S21 1.468347 1_555
O62 S22 1.468347 1_555
O63 S23 1.468347 1_555
O64 S20 1.475025 1_555
O65 S21 1.475025 1_555
O66 S22 1.475025 1_555
O67 S23 1.475025 1_555
O68 S20 1.467765 1_555
O69 S21 1.467765 1_555
O70 S22 1.467765 1_555
O71 S23 1.467765 1_555
O72 S24 1.477232 1_555
O73 S25 1.477232 1_555
O74 S26 1.477232 1_555
O75 S27 1.477232 1_555
O76 S24 1.460745 1_555
O77 S25 1.460745 1_555
O78 S26 1.460745 1_555
O79 S27 1.460745 1_555
O80 S24 1.471904 1_555
O81 S25 1.471904 1_555
O82 S26 1.471904 1_555
O83 S27 1.471904 1_555
O84 S28 1.469096 1_555
O85 S29 1.469096 1_555
O86 S30 1.469096 1_555
O87 S31 1.469096 1_555
O88 S28 1.461768 1_565
O89 S29 1.461768 1_545
O90 S30 1.461768 1_565
O91 S31 1.461768 1_545
O92 S28 1.475354 1_555
O93 S29 1.475354 1_555
O94 S30 1.475354 1_555
O95 S31 1.475354 1_555
O96 S4 1.579563 1_555
O97 S5 1.579563 1_555
O98 S6 1.579563 1_555
O99 S7 1.579563 1_555
O100 S0 1.566605 1_555
O101 S1 1.566605 1_555
O102 S2 1.566605 1_555
O103 S3 1.566605 1_555
O104 S12 1.602214 1_556
O105 S13 1.602214 1_555
O106 S14 1.602214 1_555
O107 S15 1.602214 1_556
O108 S8 1.605417 1_555
O109 S9 1.605417 1_555
O110 S10 1.605417 1_555
O111 S11 1.605417 1_555
O112 S24 1.568534 1_555
O113 S25 1.568534 1_555
O114 S26 1.568534 1_555
O115 S27 1.568534 1_555
O116 S16 1.600212 1_555
O117 S17 1.600212 1_555
O118 S18 1.600212 1_555
O119 S19 1.600212 1_555
O120 S20 1.559714 1_555
O121 S21 1.559714 1_555
O122 S22 1.559714 1_555
O123 S23 1.559714 1_555
O124 S28 1.602771 1_555
O125 S29 1.602771 1_555
O126 S30 1.602771 1_555
O127 S31 1.602771 1_555
