# generated using pymatgen
data_P3N6O7
_symmetry_space_group_name_H-M   'P 1'
_cell_length_a   5.55785592
_cell_length_b   7.64657430
_cell_length_c   12.90827200
_cell_angle_alpha   90.00000000
_cell_angle_beta   90.00000000
_cell_angle_gamma   107.84284806
_symmetry_Int_Tables_number   1
_chemical_formula_structural   P3N6O7
_chemical_formula_sum   'P6 N12 O14'
_cell_volume   522.19639195
_cell_formula_units_Z   2
loop_
 _symmetry_equiv_pos_site_id
 _symmetry_equiv_pos_as_xyz
  1  'x, y, z'
loop_
 _atom_site_type_symbol
 _atom_site_label
 _atom_site_symmetry_multiplicity
 _atom_site_fract_x
 _atom_site_fract_y
 _atom_site_fract_z
 _atom_site_occupancy
  P  P0  1  0.98614000  0.74050200  0.19830200  1
  P  P1  1  0.01386000  0.25949800  0.69830200  1
  P  P2  1  0.12469700  0.10098300  0.31576000  1
  P  P3  1  0.87530300  0.89901700  0.81576000  1
  P  P4  1  0.66504800  0.97063100  0.18492800  1
  P  P5  1  0.33495200  0.02936900  0.68492800  1
  N  N0  1  0.19913700  0.91828900  0.25099000  1
  N  N1  1  0.80086300  0.08171100  0.75099000  1
  N  N2  1  0.88142500  0.12419200  0.25193000  1
  N  N3  1  0.11857500  0.87580800  0.75193000  1
  N  N4  1  0.73941100  0.78130900  0.16877600  1
  N  N5  1  0.26058900  0.21869100  0.66877600  1
  N  N6  1  0.16864800  0.56569400  0.44256400  1
  N  N7  1  0.83135200  0.43430600  0.94256400  1
  N  N8  1  0.32405800  0.85593400  0.93649100  1
  N  N9  1  0.67594200  0.14406600  0.43649100  1
  N  N10  1  0.42586200  0.40845100  0.01594400  1
  N  N11  1  0.57413800  0.59154900  0.51594400  1
  O  O0  1  0.25568100  0.71932600  0.97558300  1
  O  O1  1  0.74431900  0.28067400  0.47558300  1
  O  O2  1  0.05540400  0.57415700  0.17674600  1
  O  O3  1  0.94459600  0.42584300  0.67674600  1
  O  O4  1  0.00135100  0.02675200  0.41939600  1
  O  O5  1  0.99864900  0.97324800  0.91939600  1
  O  O6  1  0.36416300  0.25635900  0.31621700  1
  O  O7  1  0.63583700  0.74364100  0.81621700  1
  O  O8  1  0.57533800  0.04358900  0.09097000  1
  O  O9  1  0.42466200  0.95641100  0.59097000  1
  O  O10  1  0.43608500  0.89506700  0.27457900  1
  O  O11  1  0.56391500  0.10493300  0.77457900  1
  O  O12  1  0.37155000  0.57831200  0.47919600  1
  O  O13  1  0.62845000  0.42168800  0.97919600  1
loop_
_geom_bond_atom_site_label_1
_geom_bond_atom_site_label_2
_geom_bond_distance
_geom_bond_site_symmetry_2
N0 O10 1.414862 1_555
N0 P0 1.651017 1_455
N0 P2 1.782114 1_565
N1 O11 1.414862 1_555
N1 P1 1.651017 1_655
N1 P3 1.782114 1_545
N2 P2 1.638751 1_655
N2 P4 1.645500 1_545
N3 P3 1.638751 1_455
N3 P5 1.645500 1_565
N4 P0 1.544429 1_555
N4 P4 1.636055 1_555
N5 P1 1.544429 1_555
N5 P5 1.636055 1_555
N6 O12 1.199138 1_555
N7 O13 1.199138 1_555
N8 O0 1.116664 1_555
N9 O1 1.116664 1_555
N10 O13 1.197159 1_554
N11 O12 1.197159 1_555
O2 P0 1.464101 1_455
O3 P1 1.464101 1_655
O4 P2 1.530783 1_555
O5 P3 1.530783 1_555
O6 P2 1.487927 1_555
O7 P3 1.487927 1_555
O8 P4 1.483662 1_545
O9 P5 1.483662 1_565
O10 P4 1.685775 1_555
O11 P5 1.685775 1_555
