# generated using pymatgen
data_Ba5Fe3W2O15
_symmetry_space_group_name_H-M   'P 1'
_cell_length_a   10.05815269
_cell_length_b   10.05815269
_cell_length_c   10.05815269
_cell_angle_alpha   99.67262188
_cell_angle_beta   99.67262188
_cell_angle_gamma   131.60284114
_symmetry_Int_Tables_number   1
_chemical_formula_structural   Ba5Fe3W2O15
_chemical_formula_sum   'Ba10 Fe6 W4 O30'
_cell_volume   694.02765456
_cell_formula_units_Z   2
loop_
 _symmetry_equiv_pos_site_id
 _symmetry_equiv_pos_as_xyz
  1  'x, y, z'
loop_
 _atom_site_type_symbol
 _atom_site_label
 _atom_site_symmetry_multiplicity
 _atom_site_fract_x
 _atom_site_fract_y
 _atom_site_fract_z
 _atom_site_occupancy
  Ba  Ba0  1  0.25000000  0.75000000  0.50000000  1
  Ba  Ba1  1  0.85487900  0.95144600  0.29122600  1
  Ba  Ba2  1  0.43634600  0.14512100  0.09656700  1
  Ba  Ba3  1  0.04855400  0.33977900  0.90343300  1
  Ba  Ba4  1  0.66022100  0.56365400  0.70877400  1
  Ba  Ba5  1  0.14512100  0.04855400  0.70877400  1
  Ba  Ba6  1  0.75000000  0.25000000  0.50000000  1
  Ba  Ba7  1  0.33977900  0.43634600  0.29122600  1
  Ba  Ba8  1  0.95144600  0.66022100  0.09656700  1
  Ba  Ba9  1  0.56365400  0.85487900  0.90343300  1
  Fe  Fe0  1  0.70400000  0.89919600  0.60319500  1
  Fe  Fe1  1  0.29600000  0.10080400  0.39680500  1
  Fe  Fe2  1  0.89919600  0.29600000  0.19519600  1
  Fe  Fe3  1  0.50000000  0.50000000  0.00000000  1
  Fe  Fe4  1  0.10080400  0.70400000  0.80480400  1
  Fe  Fe5  1  0.00000000  0.00000000  0.00000000  1
  W  W0  1  0.59935900  0.19996200  0.79932100  1
  W  W1  1  0.19996200  0.40064100  0.60060300  1
  W  W2  1  0.80003800  0.59935900  0.39939700  1
  W  W3  1  0.40064100  0.80003800  0.20067900  1
  O  O0  1  0.43757100  0.63874100  0.59974100  1
  O  O1  1  0.03899900  0.83782900  0.40025900  1
  O  O2  1  0.63874100  0.03899900  0.20117000  1
  O  O3  1  0.25995600  0.25995600  0.00000000  1
  O  O4  1  0.83782900  0.43757100  0.79883000  1
  O  O5  1  0.75104900  0.74242200  0.49347100  1
  O  O6  1  0.35367500  0.94335100  0.29702600  1
  O  O7  1  0.94992700  0.15115200  0.10107900  1
  O  O8  1  0.55128600  0.34414200  0.89542800  1
  O  O9  1  0.15187300  0.54537900  0.69725200  1
  O  O10  1  0.84884800  0.94992700  0.79877500  1
  O  O11  1  0.45462100  0.15187300  0.60649500  1
  O  O12  1  0.05664900  0.35367500  0.41032400  1
  O  O13  1  0.65585800  0.55128600  0.20714300  1
  O  O14  1  0.25757800  0.75104900  0.00862700  1
  O  O15  1  0.96100100  0.16217100  0.59974100  1
  O  O16  1  0.56242900  0.36125900  0.40025900  1
  O  O17  1  0.16217100  0.56242900  0.20117000  1
  O  O18  1  0.74004400  0.74004400  0.00000000  1
  O  O19  1  0.36125900  0.96100100  0.79883000  1
  O  O20  1  0.64632500  0.05664900  0.70297400  1
  O  O21  1  0.24895100  0.25757800  0.50652900  1
  O  O22  1  0.84812700  0.45462100  0.30274800  1
  O  O23  1  0.44871400  0.65585800  0.10457200  1
  O  O24  1  0.05007300  0.84884800  0.89892100  1
  O  O25  1  0.54537900  0.84812700  0.39350500  1
  O  O26  1  0.15115200  0.05007300  0.20122500  1
  O  O27  1  0.74242200  0.24895100  0.99137300  1
  O  O28  1  0.34414200  0.44871400  0.79285700  1
  O  O29  1  0.94335100  0.64632500  0.58967600  1
loop_
_geom_bond_atom_site_label_1
_geom_bond_atom_site_label_2
_geom_bond_distance
_geom_bond_site_symmetry_2
Ba0 O0 2.891862 1_555
Ba0 O1 2.891862 1_555
Ba0 O19 2.891865 1_555
Ba0 O17 2.891865 1_555
Ba0 O29 2.897229 1_455
Ba0 O20 2.897229 1_565
Ba0 O6 2.897229 1_555
Ba0 O12 2.897229 1_555
Ba0 O9 2.911850 1_555
Ba0 O22 2.911850 1_455
Ba0 O11 2.911850 1_565
Ba0 O25 2.911856 1_555
Ba1 O18 2.818560 1_555
Ba1 O7 2.821665 1_565
Ba1 O26 2.822484 1_665
Ba1 O2 2.910424 1_565
Ba1 O23 2.910592 1_555
Ba1 O1 2.913275 1_655
Ba1 O13 2.917230 1_555
Ba1 O21 2.923912 1_665
Ba1 O12 2.927929 1_665
Ba1 O5 2.980625 1_555
Ba1 O15 2.988885 1_565
Ba1 O25 2.994747 1_555
Ba2 O3 2.818552 1_555
Ba2 O26 2.821657 1_555
Ba2 O24 2.822479 1_544
Ba2 O16 2.910430 1_555
Ba2 O13 2.910589 1_555
Ba2 O19 2.913275 1_544
Ba2 O8 2.917231 1_554
Ba2 O14 2.923915 1_545
Ba2 O6 2.927930 1_545
Ba2 O27 2.980633 1_554
Ba2 O2 2.988902 1_555
Ba2 O22 2.994758 1_555
Ba3 O3 2.818552 1_556
Ba3 O10 2.821657 1_445
Ba3 O7 2.822479 1_456
Ba3 O15 2.910431 1_455
Ba3 O28 2.910583 1_555
Ba3 O17 2.913275 1_556
Ba3 O23 2.917231 1_556
Ba3 O27 2.923915 1_455
Ba3 O20 2.927930 1_455
Ba3 O14 2.980633 1_556
Ba3 O4 2.988902 1_455
Ba3 O9 2.994758 1_555
Ba4 O18 2.818561 1_556
Ba4 O24 2.821659 1_655
Ba4 O10 2.822479 1_555
Ba4 O4 2.910425 1_555
Ba4 O8 2.910598 1_555
Ba4 O0 2.913275 1_555
Ba4 O28 2.917242 1_555
Ba4 O5 2.923906 1_555
Ba4 O29 2.927924 1_555
Ba4 O21 2.980631 1_555
Ba4 O16 2.988884 1_555
Ba4 O11 2.994758 1_555
Ba5 O3 2.818560 1_556
Ba5 O24 2.821665 1_545
Ba5 O10 2.822484 1_445
Ba5 O19 2.910424 1_545
Ba5 O8 2.910592 1_555
Ba5 O15 2.913275 1_455
Ba5 O28 2.917230 1_555
Ba5 O5 2.923912 1_445
Ba5 O29 2.927929 1_445
Ba5 O21 2.980625 1_555
Ba5 O1 2.988885 1_545
Ba5 O11 2.994747 1_555
Ba6 O16 2.891862 1_555
Ba6 O15 2.891862 1_555
Ba6 O4 2.891865 1_555
Ba6 O2 2.891865 1_555
Ba6 O20 2.897229 1_555
Ba6 O6 2.897229 1_545
Ba6 O12 2.897229 1_655
Ba6 O29 2.897229 1_555
Ba6 O9 2.911850 1_655
Ba6 O22 2.911850 1_555
Ba6 O25 2.911850 1_545
Ba6 O11 2.911856 1_555
Ba7 O3 2.818561 1_555
Ba7 O7 2.821659 1_455
Ba7 O26 2.822479 1_555
Ba7 O17 2.910425 1_555
Ba7 O23 2.910598 1_555
Ba7 O16 2.913275 1_555
Ba7 O13 2.917242 1_555
Ba7 O21 2.923906 1_555
Ba7 O12 2.927924 1_555
Ba7 O5 2.980631 1_555
Ba7 O0 2.988884 1_555
Ba7 O25 2.994758 1_555
Ba8 O18 2.818552 1_555
Ba8 O26 2.821657 1_665
Ba8 O24 2.822479 1_654
Ba8 O1 2.910431 1_655
Ba8 O13 2.910583 1_555
Ba8 O4 2.913275 1_554
Ba8 O8 2.917231 1_554
Ba8 O14 2.923915 1_655
Ba8 O6 2.927930 1_655
Ba8 O27 2.980633 1_554
Ba8 O17 2.988902 1_655
Ba8 O22 2.994758 1_555
Ba9 O18 2.818552 1_556
Ba9 O10 2.821657 1_555
Ba9 O7 2.822479 1_566
Ba9 O0 2.910430 1_555
Ba9 O28 2.910589 1_555
Ba9 O2 2.913275 1_566
Ba9 O23 2.917231 1_556
Ba9 O27 2.923915 1_565
Ba9 O20 2.927930 1_565
Ba9 O14 2.980633 1_556
Ba9 O19 2.988902 1_555
Ba9 O9 2.994758 1_555
Fe0 O10 1.991267 1_555
Fe0 O5 2.123681 1_555
Fe0 O0 2.158947 1_555
Fe0 O15 2.158947 1_565
Fe0 O25 2.162059 1_555
Fe0 O20 2.175614 1_565
Fe1 O26 1.991267 1_555
Fe1 O21 2.123681 1_555
Fe1 O1 2.158947 1_545
Fe1 O16 2.158947 1_555
Fe1 O11 2.162059 1_555
Fe1 O6 2.175614 1_545
Fe2 O7 1.991259 1_555
Fe2 O27 2.123685 1_554
Fe2 O2 2.158947 1_555
Fe2 O17 2.158947 1_655
Fe2 O22 2.162059 1_555
Fe2 O12 2.175611 1_655
Fe3 O3 1.979326 1_555
Fe3 O18 1.979326 1_555
Fe3 O28 2.128834 1_554
Fe3 O13 2.128834 1_555
Fe3 O23 2.128842 1_555
Fe3 O8 2.128842 1_554
Fe4 O24 1.991259 1_555
Fe4 O14 2.123685 1_556
Fe4 O4 2.158947 1_455
Fe4 O19 2.158947 1_555
Fe4 O9 2.162059 1_555
Fe4 O29 2.175611 1_455
Fe5 O10 2.065929 1_444
Fe5 O24 2.065929 1_544
Fe5 O26 2.065929 1_555
Fe5 O7 2.065929 1_455
Fe5 O18 2.143515 1_445
Fe5 O3 2.143515 1_555
O0 W1 1.964848 1_555
O1 W2 1.964839 1_455
O2 W3 1.964843 1_545
O4 W0 1.964843 1_555
O5 W2 1.961978 1_555
O6 W3 1.956715 1_555
O8 W0 1.971903 1_555
O9 W1 1.978838 1_555
O11 W0 1.978830 1_555
O12 W1 1.956715 1_555
O13 W2 1.971911 1_555
O14 W3 1.961978 1_555
O15 W1 1.964839 1_655
O16 W2 1.964848 1_555
O17 W3 1.964843 1_555
O19 W0 1.964843 1_565
O20 W0 1.956715 1_555
O21 W1 1.961978 1_555
O22 W2 1.978838 1_555
O23 W3 1.971903 1_555
O25 W3 1.978830 1_555
O27 W0 1.961978 1_555
O28 W1 1.971911 1_555
O29 W2 1.956715 1_555
