# generated using pymatgen
data_Ho4NiSn8
_symmetry_space_group_name_H-M   'P 1'
_cell_length_a   4.39099500
_cell_length_b   4.39743500
_cell_length_c   16.88804900
_cell_angle_alpha   90.00000000
_cell_angle_beta   90.00000000
_cell_angle_gamma   90.00000000
_symmetry_Int_Tables_number   1
_chemical_formula_structural   Ho4NiSn8
_chemical_formula_sum   'Ho4 Ni1 Sn8'
_cell_volume   326.09328192
_cell_formula_units_Z   1
loop_
 _symmetry_equiv_pos_site_id
 _symmetry_equiv_pos_as_xyz
  1  'x, y, z'
loop_
 _atom_site_type_symbol
 _atom_site_label
 _atom_site_symmetry_multiplicity
 _atom_site_fract_x
 _atom_site_fract_y
 _atom_site_fract_z
 _atom_site_occupancy
  Ho  Ho0  1  0.25000000  0.00000000  0.09652300  1
  Ho  Ho1  1  0.25000000  0.50000000  0.60333500  1
  Ho  Ho2  1  0.75000000  0.50000000  0.39828500  1
  Ho  Ho3  1  0.75000000  0.00000000  0.90003100  1
  Ni  Ni0  1  0.25000000  0.00000000  0.31041700  1
  Sn  Sn0  1  0.25000000  0.00000000  0.45682500  1
  Sn  Sn1  1  0.25000000  0.50000000  0.93481100  1
  Sn  Sn2  1  0.75000000  0.50000000  0.05798800  1
  Sn  Sn3  1  0.75000000  0.00000000  0.57465400  1
  Sn  Sn4  1  0.25000000  0.50000000  0.23583800  1
  Sn  Sn5  1  0.25000000  0.00000000  0.74697700  1
  Sn  Sn6  1  0.75000000  0.00000000  0.23621400  1
  Sn  Sn7  1  0.75000000  0.50000000  0.75510100  1
loop_
_geom_bond_atom_site_label_1
_geom_bond_atom_site_label_2
_geom_bond_distance
_geom_bond_site_symmetry_2
Ho0 Sn2 3.174600 1_545
Ho0 Sn2 3.174600 1_455
Ho0 Sn2 3.174600 1_445
Ho0 Sn2 3.174600 1_555
Ho0 Sn4 3.220222 1_555
Ho0 Sn4 3.220222 1_545
Ho0 Sn6 3.222670 1_455
Ho0 Sn6 3.222670 1_555
Ho0 Sn1 3.506098 1_554
Ho0 Sn1 3.506098 1_544
Ho1 Sn3 3.144706 1_555
Ho1 Sn3 3.144706 1_455
Ho1 Sn3 3.144706 1_565
Ho1 Sn3 3.144706 1_465
Ho1 Sn5 3.273992 1_565
Ho1 Sn5 3.273992 1_555
Ho1 Sn0 3.310039 1_555
Ho1 Sn0 3.310039 1_565
Ho1 Sn7 3.374810 1_455
Ho1 Sn7 3.374810 1_555
Ho2 Sn0 3.260667 1_665
Ho2 Sn0 3.260667 1_555
Ho2 Sn0 3.260667 1_565
Ho2 Sn0 3.260667 1_655
Ho2 Ni0 3.443339 1_665
Ho2 Ni0 3.443339 1_655
Ho2 Ni0 3.443339 1_555
Ho2 Ni0 3.443339 1_565
Ho2 Sn6 3.510822 1_565
Ho2 Sn6 3.510822 1_555
Ho2 Sn4 3.513762 1_655
Ho2 Sn4 3.513762 1_555
Ho2 Sn3 3.702160 1_555
Ho2 Sn3 3.702160 1_565
Ho3 Sn1 3.162209 1_645
Ho3 Sn1 3.162209 1_555
Ho3 Sn1 3.162209 1_545
Ho3 Sn1 3.162209 1_655
Ho3 Sn7 3.290141 1_555
Ho3 Sn7 3.290141 1_545
Ho3 Sn5 3.391359 1_555
Ho3 Sn5 3.391359 1_655
Ho3 Sn2 3.456931 1_556
Ho3 Sn2 3.456931 1_546
Ni0 Sn0 2.472545 1_555
Ni0 Sn6 2.527959 1_455
Ni0 Sn6 2.527959 1_555
Ni0 Sn4 2.533907 1_545
Ni0 Sn4 2.533907 1_555
Sn0 Sn3 2.963093 1_455
Sn0 Sn3 2.963093 1_555
Sn1 Sn2 3.024487 1_456
Sn1 Sn2 3.024487 1_556
Sn4 Sn6 3.107187 1_565
Sn4 Sn6 3.107187 1_555
Sn4 Sn6 3.107187 1_455
Sn4 Sn6 3.107187 1_465
Sn5 Sn7 3.110208 1_545
Sn5 Sn7 3.110208 1_455
Sn5 Sn7 3.110208 1_555
Sn5 Sn7 3.110208 1_445
