# generated using pymatgen
data_NaYbTiNbO6F
_symmetry_space_group_name_H-M   'P 1'
_cell_length_a   7.33745099
_cell_length_b   7.33745099
_cell_length_c   7.33745099
_cell_angle_alpha   121.34805470
_cell_angle_beta   118.43198670
_cell_angle_gamma   90.20908458
_symmetry_Int_Tables_number   1
_chemical_formula_structural   NaYbTiNbO6F
_chemical_formula_sum   'Na2 Yb2 Ti2 Nb2 O12 F2'
_cell_volume   279.56878940
_cell_formula_units_Z   2
loop_
 _symmetry_equiv_pos_site_id
 _symmetry_equiv_pos_as_xyz
  1  'x, y, z'
loop_
 _atom_site_type_symbol
 _atom_site_label
 _atom_site_symmetry_multiplicity
 _atom_site_fract_x
 _atom_site_fract_y
 _atom_site_fract_z
 _atom_site_occupancy
  Na  Na0  1  0.50000000  0.00000000  0.00000000  1
  Na  Na1  1  0.50000000  0.50000000  0.50000000  1
  Yb  Yb0  1  0.50000000  0.00000000  0.50000000  1
  Yb  Yb1  1  0.00000000  0.00000000  0.00000000  1
  Ti  Ti0  1  0.00000000  0.50000000  0.00000000  1
  Ti  Ti1  1  0.00000000  0.00000000  0.50000000  1
  Nb  Nb0  1  0.00000000  0.50000000  0.50000000  1
  Nb  Nb1  1  0.50000000  0.50000000  0.00000000  1
  O  O0  1  0.92637800  0.17637800  0.75000000  1
  O  O1  1  0.31941900  0.56941900  0.75000000  1
  O  O2  1  0.93767700  0.57997200  0.76451400  1
  O  O3  1  0.31545800  0.17316300  0.73548600  1
  O  O4  1  0.93767700  0.17316300  0.35770500  1
  O  O5  1  0.31545800  0.57997200  0.14229500  1
  O  O6  1  0.07362200  0.82362200  0.25000000  1
  O  O7  1  0.68058100  0.43058100  0.25000000  1
  O  O8  1  0.06232300  0.42002800  0.23548600  1
  O  O9  1  0.68454200  0.82683700  0.26451400  1
  O  O10  1  0.06232300  0.82683700  0.64229500  1
  O  O11  1  0.68454200  0.42002800  0.85770500  1
  F  F0  1  0.63375400  0.88375400  0.75000000  1
  F  F1  1  0.36624600  0.11624600  0.25000000  1
loop_
_geom_bond_atom_site_label_1
_geom_bond_atom_site_label_2
_geom_bond_distance
_geom_bond_site_symmetry_2
Na0 O1 2.593678 1_544
Na0 O7 2.593678 1_555
Na0 O4 2.700119 1_555
Na0 O9 2.700119 1_545
Na0 O3 2.700119 1_554
Na0 O10 2.700119 1_544
Na1 O7 2.593678 1_555
Na1 O1 2.593678 1_555
Na1 O2 2.700119 1_555
Na1 O8 2.700119 1_555
Na1 O5 2.700119 1_555
Na1 O11 2.700119 1_555
Nb0 O4 1.995621 1_455
Nb0 O8 1.995621 1_555
Nb0 O2 1.995621 1_455
Nb0 O10 1.995621 1_555
Nb0 O7 2.010628 1_455
Nb0 O1 2.010628 1_555
Nb1 O11 1.995621 1_554
Nb1 O3 1.995621 1_554
Nb1 O5 1.995621 1_555
Nb1 O9 1.995621 1_555
Nb1 O7 2.010628 1_555
Nb1 O1 2.010628 1_554
O0 Ti1 1.951974 1_655
O0 Ti0 1.951974 1_656
O0 Yb1 2.619757 1_656
O0 Yb0 2.619757 1_555
O2 Ti0 1.960474 1_656
O2 Yb1 2.527764 1_666
O3 Ti1 1.960474 1_555
O3 Yb0 2.527764 1_555
O4 Ti1 1.960474 1_655
O4 Yb1 2.527764 1_655
O5 Ti0 1.960474 1_555
O5 Yb0 2.527764 1_565
O6 Ti0 1.951974 1_555
O6 Ti1 1.951974 1_565
O6 Yb0 2.619757 1_565
O6 Yb1 2.619757 1_565
O8 Ti0 1.960474 1_555
O8 Yb1 2.527764 1_555
O9 Ti1 1.960474 1_665
O9 Yb0 2.527764 1_565
O10 Ti1 1.960474 1_565
O10 Yb1 2.527764 1_566
O11 Ti0 1.960474 1_656
O11 Yb0 2.527764 1_555
F0 Yb0 2.230552 1_565
F0 Yb1 2.230552 1_666
F0 Na0 2.268925 1_566
F0 Na1 2.268925 1_555
F1 Yb1 2.230552 1_555
F1 Yb0 2.230552 1_555
F1 Na0 2.268925 1_555
F1 Na1 2.268925 1_555
