# generated using pymatgen
data_Pr32In3Rh19
_symmetry_space_group_name_H-M   'P 1'
_cell_length_a   11.87988445
_cell_length_b   11.87968294
_cell_length_c   10.03146855
_cell_angle_alpha   90.00000000
_cell_angle_beta   90.00000000
_cell_angle_gamma   90.78826067
_symmetry_Int_Tables_number   1
_chemical_formula_structural   Pr32In3Rh19
_chemical_formula_sum   'Pr32 In3 Rh19'
_cell_volume   1415.59975983
_cell_formula_units_Z   1
loop_
 _symmetry_equiv_pos_site_id
 _symmetry_equiv_pos_as_xyz
  1  'x, y, z'
loop_
 _atom_site_type_symbol
 _atom_site_label
 _atom_site_symmetry_multiplicity
 _atom_site_fract_x
 _atom_site_fract_y
 _atom_site_fract_z
 _atom_site_occupancy
  Pr  Pr0  1  0.49811189  0.49816414  0.80947260  1
  Pr  Pr1  1  0.99423354  0.99419243  0.80345619  1
  Pr  Pr2  1  0.49811189  0.49816414  0.19052740  1
  Pr  Pr3  1  0.99423354  0.99419243  0.19654381  1
  Pr  Pr4  1  0.72051740  0.06903037  0.00000000  1
  Pr  Pr5  1  0.30274072  0.91239982  0.00000000  1
  Pr  Pr6  1  0.21579453  0.44332259  0.00000000  1
  Pr  Pr7  1  0.78407580  0.57700910  0.00000000  1
  Pr  Pr8  1  0.44329220  0.21577666  0.00000000  1
  Pr  Pr9  1  0.57694623  0.78407197  0.00000000  1
  Pr  Pr10  1  0.06908677  0.72050218  0.00000000  1
  Pr  Pr11  1  0.91244686  0.30273561  0.00000000  1
  Pr  Pr12  1  0.58456454  0.20320503  0.69312274  1
  Pr  Pr13  1  0.41610768  0.79056143  0.69358944  1
  Pr  Pr14  1  0.08165843  0.29413809  0.69792338  1
  Pr  Pr15  1  0.91374883  0.70374035  0.69287742  1
  Pr  Pr16  1  0.29413698  0.08159659  0.69792640  1
  Pr  Pr17  1  0.70371154  0.91371230  0.69288279  1
  Pr  Pr18  1  0.20321854  0.58460437  0.69310852  1
  Pr  Pr19  1  0.79055965  0.41612610  0.69358413  1
  Pr  Pr20  1  0.41610768  0.79056143  0.30641056  1
  Pr  Pr21  1  0.58456454  0.20320503  0.30687726  1
  Pr  Pr22  1  0.91374883  0.70374035  0.30712258  1
  Pr  Pr23  1  0.08165843  0.29413809  0.30207662  1
  Pr  Pr24  1  0.70371154  0.91371230  0.30711721  1
  Pr  Pr25  1  0.29413698  0.08159659  0.30207360  1
  Pr  Pr26  1  0.79055965  0.41612610  0.30641587  1
  Pr  Pr27  1  0.20321854  0.58460437  0.30689148  1
  Pr  Pr28  1  0.63440363  0.63445418  0.50000000  1
  Pr  Pr29  1  0.35790805  0.35791986  0.50000000  1
  Pr  Pr30  1  0.13724931  0.86133157  0.50000000  1
  Pr  Pr31  1  0.86134055  0.13720302  0.50000000  1
  In  In0  1  0.49687792  0.99748692  0.50000000  1
  In  In1  1  0.99750466  0.49692017  0.50000000  1
  In  In2  1  0.16623740  0.16621525  0.00000000  1
  Rh  Rh0  1  0.67218806  0.67224547  0.77215956  1
  Rh  Rh1  1  0.32128363  0.32127327  0.78334565  1
  Rh  Rh2  1  0.17639411  0.82839186  0.77401720  1
  Rh  Rh3  1  0.82839010  0.17634026  0.77400926  1
  Rh  Rh4  1  0.32128363  0.32127327  0.21665435  1
  Rh  Rh5  1  0.67218806  0.67224547  0.22784044  1
  Rh  Rh6  1  0.82839010  0.17634026  0.22599074  1
  Rh  Rh7  1  0.17639411  0.82839186  0.22598280  1
  Rh  Rh8  1  0.11119564  0.11113793  0.50000000  1
  Rh  Rh9  1  0.89103059  0.89099041  0.50000000  1
  Rh  Rh10  1  0.60426848  0.38863385  0.50000000  1
  Rh  Rh11  1  0.38860016  0.60431453  0.50000000  1
  Rh  Rh12  1  0.50554326  0.99768692  0.84335344  1
  Rh  Rh13  1  0.99774890  0.50560207  0.84333744  1
  Rh  Rh14  1  0.50554326  0.99768692  0.15664656  1
  Rh  Rh15  1  0.99774890  0.50560207  0.15666256  1
  Rh  Rh16  1  0.85531460  0.85530908  0.00000000  1
  Rh  Rh17  1  0.65241557  0.35758207  0.00000000  1
  Rh  Rh18  1  0.35755955  0.65248849  0.00000000  1
loop_
_geom_bond_atom_site_label_1
_geom_bond_atom_site_label_2
_geom_bond_distance
_geom_bond_site_symmetry_2
Pr0 Rh0 2.928452 1_555
Pr0 Rh1 2.962445 1_555
Pr0 Rh18 3.144250 1_556
Pr0 Rh17 3.144298 1_556
Pr0 Rh11 3.600779 1_555
Pr0 Rh10 3.600886 1_555
Pr1 Rh2 2.960936 1_655
Pr1 Rh3 2.961171 1_565
Pr1 Rh16 3.042719 1_556
Pr1 Rh9 3.497359 1_555
Pr1 Rh8 3.615838 1_665
Pr2 Rh5 2.928452 1_555
Pr2 Rh4 2.962445 1_555
Pr2 Rh18 3.144250 1_555
Pr2 Rh17 3.144298 1_555
Pr2 Rh11 3.600779 1_555
Pr2 Rh10 3.600886 1_555
Pr3 Rh7 2.960936 1_655
Pr3 Rh6 2.961171 1_565
Pr3 Rh16 3.042719 1_555
Pr3 Rh9 3.497359 1_555
Pr3 Rh8 3.615838 1_665
Pr4 Rh3 2.891685 1_554
Pr4 Rh6 2.891685 1_555
Pr4 Rh16 3.020347 1_545
Pr4 Rh14 3.106491 1_545
Pr4 Rh12 3.106491 1_544
Pr4 Rh17 3.532899 1_555
Pr5 Rh7 2.889071 1_555
Pr5 Rh2 2.889071 1_554
Pr5 Rh12 3.038626 1_554
Pr5 Rh14 3.038626 1_555
Pr5 Rh18 3.164350 1_555
Pr6 Rh1 2.906240 1_554
Pr6 Rh4 2.906240 1_555
Pr6 Rh18 2.982545 1_555
Pr6 Rh15 3.127277 1_455
Pr6 Rh13 3.127277 1_454
Pr7 Rh5 2.883063 1_555
Pr7 Rh0 2.883063 1_554
Pr7 Rh17 3.021467 1_555
Pr7 Rh13 3.113225 1_554
Pr7 Rh15 3.113225 1_555
Pr7 Rh16 3.401419 1_555
Pr8 Rh1 2.906038 1_554
Pr8 Rh4 2.906038 1_555
Pr8 Rh17 2.982413 1_555
Pr8 Rh12 3.127515 1_544
Pr8 Rh14 3.127515 1_545
Pr9 Rh5 2.882747 1_555
Pr9 Rh0 2.882747 1_554
Pr9 Rh18 3.020620 1_555
Pr9 Rh12 3.112533 1_554
Pr9 Rh14 3.112533 1_555
Pr9 Rh16 3.402252 1_555
Pr10 Rh7 2.891697 1_555
Pr10 Rh2 2.891697 1_554
Pr10 Rh16 3.020943 1_455
Pr10 Rh15 3.105804 1_455
Pr10 Rh13 3.105804 1_454
Pr10 Rh18 3.531786 1_555
Pr11 Rh3 2.889620 1_554
Pr11 Rh6 2.889620 1_555
Pr11 Rh13 3.039338 1_554
Pr11 Rh15 3.039338 1_555
Pr11 Rh17 3.165866 1_555
Pr12 Rh10 2.940449 1_555
Pr12 Rh12 3.008362 1_545
Pr12 Rh3 3.029205 1_555
Pr12 Rh1 3.562300 1_555
Pr12 Rh17 3.667310 1_556
Pr13 Rh11 2.958649 1_555
Pr13 Rh2 2.999653 1_555
Pr13 Rh12 3.060798 1_555
Pr13 Rh0 3.459692 1_555
Pr13 Rh18 3.548349 1_556
Pr14 Rh8 2.968566 1_555
Pr14 Rh1 2.986097 1_555
Pr14 Rh13 3.082403 1_455
Pr14 Rh3 3.387904 1_455
Pr15 Rh9 2.963318 1_555
Pr15 Rh13 2.979768 1_555
Pr15 Rh0 2.996370 1_555
Pr15 Rh2 3.530416 1_655
Pr15 Rh16 3.640096 1_556
Pr16 Rh8 2.968106 1_555
Pr16 Rh1 2.986638 1_555
Pr16 Rh12 3.081933 1_545
Pr16 Rh2 3.386952 1_545
Pr17 Rh9 2.964002 1_555
Pr17 Rh12 2.980026 1_555
Pr17 Rh0 2.995281 1_555
Pr17 Rh3 3.530299 1_565
Pr17 Rh16 3.640193 1_556
Pr18 Rh11 2.939968 1_555
Pr18 Rh13 3.007849 1_455
Pr18 Rh2 3.028728 1_555
Pr18 Rh1 3.562810 1_555
Pr18 Rh18 3.667314 1_556
Pr19 Rh10 2.959016 1_555
Pr19 Rh3 3.000418 1_555
Pr19 Rh13 3.061539 1_555
Pr19 Rh0 3.460355 1_555
Pr19 Rh17 3.548785 1_556
Pr20 Rh11 2.958649 1_555
Pr20 Rh7 2.999653 1_555
Pr20 Rh14 3.060798 1_555
Pr20 Rh5 3.459692 1_555
Pr20 Rh18 3.548349 1_555
Pr21 Rh10 2.940449 1_555
Pr21 Rh14 3.008362 1_545
Pr21 Rh6 3.029205 1_555
Pr21 Rh4 3.562300 1_555
Pr21 Rh17 3.667310 1_555
Pr22 Rh9 2.963318 1_555
Pr22 Rh15 2.979768 1_555
Pr22 Rh5 2.996370 1_555
Pr22 Rh7 3.530416 1_655
Pr22 Rh16 3.640096 1_555
Pr23 Rh8 2.968566 1_555
Pr23 Rh4 2.986097 1_555
Pr23 Rh15 3.082403 1_455
Pr23 Rh6 3.387904 1_455
Pr24 Rh9 2.964002 1_555
Pr24 Rh14 2.980026 1_555
Pr24 Rh5 2.995281 1_555
Pr24 Rh6 3.530299 1_565
Pr24 Rh16 3.640193 1_555
Pr25 Rh8 2.968106 1_555
Pr25 Rh4 2.986638 1_555
Pr25 Rh14 3.081933 1_545
Pr25 Rh7 3.386952 1_545
Pr26 Rh10 2.959016 1_555
Pr26 Rh6 3.000418 1_555
Pr26 Rh15 3.061539 1_555
Pr26 Rh5 3.460355 1_555
Pr26 Rh17 3.548785 1_555
Pr27 Rh11 2.939968 1_555
Pr27 Rh15 3.007849 1_455
Pr27 Rh7 3.028728 1_555
Pr27 Rh4 3.562810 1_555
Pr27 Rh18 3.667314 1_555
Pr28 Rh0 2.802012 1_555
Pr28 Rh5 2.802012 1_555
Pr28 Rh11 2.937093 1_555
Pr28 Rh10 2.937237 1_555
Pr29 Rh1 2.907354 1_555
Pr29 Rh4 2.907354 1_555
Pr29 Rh10 2.944405 1_555
Pr29 Rh11 2.944731 1_555
Pr30 Rh2 2.816073 1_555
Pr30 Rh7 2.816073 1_555
Pr30 Rh9 2.951002 1_455
Pr30 Rh8 2.987950 1_565
Pr31 Rh6 2.815997 1_555
Pr31 Rh3 2.815997 1_555
Pr31 Rh9 2.950931 1_545
Pr31 Rh8 2.988591 1_655
In0 Pr20 3.266485 1_555
In0 Pr13 3.266485 1_555
In0 Pr12 3.277306 1_565
In0 Pr21 3.277306 1_565
In0 Pr16 3.287529 1_565
In0 Pr25 3.287529 1_565
In0 Pr17 3.292294 1_555
In0 Pr24 3.292294 1_555
In0 Rh14 3.445877 1_555
In0 Rh12 3.445877 1_555
In1 Pr19 3.266733 1_555
In1 Pr26 3.266733 1_555
In1 Pr18 3.277201 1_655
In1 Pr27 3.277201 1_655
In1 Pr14 3.288011 1_655
In1 Pr23 3.288011 1_655
In1 Pr15 3.292047 1_555
In1 Pr22 3.292047 1_555
In1 Rh15 3.445723 1_555
In1 Rh13 3.445723 1_555
In2 Pr8 3.335642 1_555
In2 Pr6 3.336195 1_555
In2 Rh1 3.378752 1_554
In2 Rh4 3.378752 1_555
In2 Pr11 3.443120 1_455
In2 Pr5 3.443251 1_545
In2 Pr3 3.481958 1_445
In2 Pr1 3.481958 1_444
In2 Pr25 3.541692 1_555
In2 Pr16 3.541692 1_554
In2 Pr23 3.541694 1_555
In2 Pr14 3.541694 1_554
