# generated using pymatgen
data_RbFe2F6
_symmetry_space_group_name_H-M   'P 1'
_cell_length_a   6.95902628
_cell_length_b   7.41034536
_cell_length_c   10.06700348
_cell_angle_alpha   90.00000000
_cell_angle_beta   90.00000000
_cell_angle_gamma   90.00000000
_symmetry_Int_Tables_number   1
_chemical_formula_structural   RbFe2F6
_chemical_formula_sum   'Rb4 Fe8 F24'
_cell_volume   519.14316930
_cell_formula_units_Z   4
loop_
 _symmetry_equiv_pos_site_id
 _symmetry_equiv_pos_as_xyz
  1  'x, y, z'
loop_
 _atom_site_type_symbol
 _atom_site_label
 _atom_site_symmetry_multiplicity
 _atom_site_fract_x
 _atom_site_fract_y
 _atom_site_fract_z
 _atom_site_occupancy
  Rb  Rb0  1  0.49607491  0.25000000  0.12741555  1
  Rb  Rb1  1  0.99607491  0.25000000  0.37258445  1
  Rb  Rb2  1  0.50392509  0.75000000  0.87258445  1
  Rb  Rb3  1  0.00392509  0.75000000  0.62741555  1
  Fe  Fe0  1  0.30334446  0.25000000  0.77033418  1
  Fe  Fe1  1  0.80334446  0.25000000  0.72966582  1
  Fe  Fe2  1  0.69665554  0.75000000  0.22966582  1
  Fe  Fe3  1  0.19665554  0.75000000  0.27033418  1
  Fe  Fe4  1  0.00000000  -0.00000000  -0.00000000  1
  Fe  Fe5  1  0.50000000  0.50000000  0.50000000  1
  Fe  Fe6  1  0.00000000  0.50000000  -0.00000000  1
  Fe  Fe7  1  0.50000000  -0.00000000  0.50000000  1
  F  F0  1  0.24460852  0.07258064  0.92026611  1
  F  F1  1  0.74460852  0.42741936  0.57973389  1
  F  F2  1  0.75539148  0.57258064  0.07973389  1
  F  F3  1  0.25539148  0.92741936  0.42026611  1
  F  F4  1  0.75539148  0.92741936  0.07973389  1
  F  F5  1  0.25539148  0.57258064  0.42026611  1
  F  F6  1  0.24460852  0.42741936  0.92026611  1
  F  F7  1  0.74460852  0.07258064  0.57973389  1
  F  F8  1  0.86997636  0.02022904  0.82445681  1
  F  F9  1  0.36997636  0.47977096  0.67554319  1
  F  F10  1  0.13002364  0.52022904  0.17554319  1
  F  F11  1  0.63002364  0.97977096  0.32445681  1
  F  F12  1  0.13002364  0.97977096  0.17554319  1
  F  F13  1  0.63002364  0.52022904  0.32445681  1
  F  F14  1  0.86997636  0.47977096  0.82445681  1
  F  F15  1  0.36997636  0.02022904  0.67554319  1
  F  F16  1  0.92979814  0.25000000  0.04730459  1
  F  F17  1  0.42979814  0.25000000  0.45269541  1
  F  F18  1  0.07020186  0.75000000  0.95269541  1
  F  F19  1  0.57020186  0.75000000  0.54730459  1
  F  F20  1  0.07158425  0.25000000  0.65846404  1
  F  F21  1  0.57158425  0.25000000  0.84153596  1
  F  F22  1  0.92841575  0.75000000  0.34153596  1
  F  F23  1  0.42841575  0.75000000  0.15846404  1
loop_
_geom_bond_atom_site_label_1
_geom_bond_atom_site_label_2
_geom_bond_distance
_geom_bond_site_symmetry_2
F0 Fe4 1.957342 1_556
F0 Fe0 2.042987 1_555
F0 Rb0 3.023192 1_556
F0 Rb2 3.033337 1_545
F1 Fe5 1.957342 1_555
F1 Fe1 2.042987 1_555
F1 Rb1 3.023192 1_555
F1 Rb3 3.033337 1_655
F2 Fe6 1.957342 1_655
F2 Fe2 2.042987 1_555
F2 Rb2 3.023192 1_554
F2 Rb0 3.033337 1_555
F3 Fe7 1.957342 1_565
F3 Fe3 2.042987 1_555
F3 Rb3 3.023192 1_555
F3 Rb1 3.033337 1_465
F4 Fe4 1.957342 1_665
F4 Fe2 2.042987 1_555
F4 Rb2 3.023192 1_554
F4 Rb0 3.033337 1_565
F5 Fe5 1.957342 1_555
F5 Fe3 2.042987 1_555
F5 Rb3 3.023192 1_555
F5 Rb1 3.033337 1_455
F6 Fe6 1.957342 1_556
F6 Fe0 2.042987 1_555
F6 Rb0 3.023192 1_556
F6 Rb2 3.033337 1_555
F7 Fe7 1.957342 1_555
F7 Fe1 2.042987 1_555
F7 Rb1 3.023192 1_555
F7 Rb3 3.033337 1_645
F8 Fe4 1.991024 1_656
F8 Fe1 2.006179 1_555
F8 Rb3 2.968772 1_645
F8 Rb2 3.276241 1_545
F9 Fe5 1.991024 1_555
F9 Fe0 2.006179 1_555
F9 Rb2 2.968772 1_555
F9 Rb3 3.276241 1_555
F10 Fe6 1.991024 1_555
F10 Fe3 2.006179 1_555
F10 Rb1 2.968772 1_455
F10 Rb0 3.276241 1_555
F11 Fe7 1.991024 1_565
F11 Fe2 2.006179 1_555
F11 Rb0 2.968772 1_565
F11 Rb1 3.276241 1_565
F12 Fe4 1.991024 1_565
F12 Fe3 2.006179 1_555
F12 Rb1 2.968772 1_465
F12 Rb0 3.276241 1_565
F13 Fe5 1.991024 1_555
F13 Fe2 2.006179 1_555
F13 Rb0 2.968772 1_555
F13 Rb1 3.276241 1_555
F14 Fe6 1.991024 1_656
F14 Fe1 2.006179 1_555
F14 Rb3 2.968772 1_655
F14 Rb2 3.276241 1_555
F15 Fe7 1.991024 1_555
F15 Fe0 2.006179 1_555
F15 Rb2 2.968772 1_545
F15 Rb3 3.276241 1_545
F16 Fe4 1.974215 1_655
F16 Fe6 1.974215 1_655
F16 Rb0 3.124178 1_555
F16 Rb1 3.306915 1_555
F17 Fe5 1.974215 1_555
F17 Fe7 1.974215 1_555
F17 Rb1 3.124178 1_455
F17 Rb0 3.306915 1_555
F18 Fe6 1.974215 1_556
F18 Fe4 1.974215 1_566
F18 Rb2 3.124178 1_555
F18 Rb3 3.306915 1_555
F19 Fe5 1.974215 1_555
F19 Fe7 1.974215 1_565
F19 Rb3 3.124178 1_655
F19 Rb2 3.306915 1_555
F20 Fe0 1.967111 1_555
F20 Fe1 1.999577 1_455
F20 Rb1 2.925529 1_455
F21 Fe1 1.967111 1_555
F21 Fe0 1.999577 1_555
F21 Rb0 2.925529 1_556
F22 Fe2 1.967111 1_555
F22 Fe3 1.999577 1_655
F22 Rb3 2.925529 1_655
F23 Fe3 1.967111 1_555
F23 Fe2 1.999577 1_555
F23 Rb2 2.925529 1_554
