# generated using pymatgen
data_TiGeIr
_symmetry_space_group_name_H-M   'P 1'
_cell_length_a   6.44791920
_cell_length_b   7.45150916
_cell_length_c   7.38540859
_cell_angle_alpha   120.29963971
_cell_angle_beta   115.88645748
_cell_angle_gamma   89.99899226
_symmetry_Int_Tables_number   1
_chemical_formula_structural   TiGeIr
_chemical_formula_sum   'Ti6 Ge6 Ir6'
_cell_volume   264.31883449
_cell_formula_units_Z   6
loop_
 _symmetry_equiv_pos_site_id
 _symmetry_equiv_pos_as_xyz
  1  'x, y, z'
loop_
 _atom_site_type_symbol
 _atom_site_label
 _atom_site_symmetry_multiplicity
 _atom_site_fract_x
 _atom_site_fract_y
 _atom_site_fract_z
 _atom_site_occupancy
  Ti  Ti0  1  0.89639258  0.94427563  0.38855282  1
  Ti  Ti1  1  0.50871051  0.05588200  0.61175629  1
  Ti  Ti2  1  0.51596695  0.51417208  0.52834962  1
  Ti  Ti3  1  0.98804171  0.48570775  0.47138233  1
  Ti  Ti4  1  0.07825067  0.74999281  -0.00001859  1
  Ti  Ti5  1  0.07901426  0.24997201  -0.00006102  1
  Ge  Ge0  1  0.16882647  0.67254023  0.33599519  1
  Ge  Ge1  1  0.83273359  0.32766431  0.66396342  1
  Ge  Ge2  1  0.16881627  0.16346194  0.33602649  1
  Ge  Ge3  1  0.83271145  0.83631726  0.66396025  1
  Ge  Ge4  1  0.45629281  0.70196611  0.90395748  1
  Ge  Ge5  1  0.55283619  0.29807489  0.09614048  1
  Ir  Ir0  1  0.24875555  0.92707508  0.75686925  1
  Ir  Ir1  1  0.49179541  0.07295484  0.24307067  1
  Ir  Ir2  1  0.24875574  0.32976679  0.75688907  1
  Ir  Ir3  1  0.49180882  0.67017034  0.24306035  1
  Ir  Ir4  1  0.75015079  0.50000126  0.00004473  1
  Ir  Ir5  1  0.75013824  0.00000568  0.00006117  1
loop_
_geom_bond_atom_site_label_1
_geom_bond_atom_site_label_2
_geom_bond_distance
_geom_bond_site_symmetry_2
Ge0 Ir4 2.455506 1_455
Ge0 Ir3 2.458528 1_555
Ge0 Ir0 2.485380 1_555
Ge0 Ti3 2.592141 1_455
Ge0 Ti4 2.648049 1_555
Ge0 Ti0 2.671812 1_455
Ge0 Ti5 2.696185 1_555
Ge0 Ti2 2.708477 1_555
Ge0 Ti1 2.709779 1_565
Ge1 Ir4 2.455855 1_556
Ge1 Ir2 2.459388 1_655
Ge1 Ir1 2.485504 1_555
Ge1 Ti2 2.593165 1_555
Ge1 Ti5 2.650033 1_656
Ge1 Ti1 2.669073 1_555
Ge1 Ti4 2.694001 1_656
Ge1 Ti0 2.707905 1_545
Ge1 Ti3 2.710436 1_555
Ge2 Ir5 2.455544 1_455
Ge2 Ir1 2.458511 1_555
Ge2 Ir2 2.485350 1_555
Ge2 Ti3 2.592117 1_455
Ge2 Ti4 2.647987 1_545
Ge2 Ti0 2.671704 1_445
Ge2 Ti5 2.696556 1_555
Ge2 Ti2 2.708488 1_555
Ge2 Ti1 2.709758 1_555
Ge3 Ir5 2.455947 1_566
Ge3 Ir0 2.459505 1_655
Ge3 Ir3 2.485523 1_555
Ge3 Ti2 2.593199 1_555
Ge3 Ti5 2.649872 1_666
Ge3 Ti1 2.668889 1_565
Ge3 Ti4 2.694244 1_656
Ge3 Ti0 2.707991 1_555
Ge3 Ti3 2.710320 1_555
Ge4 Ir5 2.502229 1_566
Ge4 Ir4 2.502410 1_556
Ge4 Ir0 2.520660 1_555
Ge4 Ir2 2.520677 1_555
Ge4 Ir3 2.545310 1_556
Ge4 Ir1 2.545631 1_566
Ge4 Ti2 2.610835 1_555
Ge4 Ti4 2.797525 1_556
Ge4 Ti3 2.881321 1_455
Ge4 Ti0 2.955205 1_556
Ge5 Ir4 2.500471 1_555
Ge5 Ir5 2.500591 1_555
Ge5 Ir1 2.521133 1_555
Ge5 Ir3 2.521303 1_555
Ge5 Ir2 2.546596 1_554
Ge5 Ir0 2.546761 1_544
Ge5 Ti3 2.609495 1_555
Ge5 Ti5 2.795533 1_555
Ge5 Ti2 2.883516 1_555
Ge5 Ti1 2.955046 1_554
Ir0 Ti1 2.736039 1_565
Ir0 Ti0 2.744648 1_455
Ir0 Ti5 2.750786 1_566
Ir0 Ti3 2.827766 1_455
Ir1 Ti0 2.733432 1_545
Ir1 Ti1 2.744531 1_555
Ir1 Ti4 2.754167 1_545
Ir1 Ti2 2.827760 1_555
Ir2 Ti1 2.735849 1_555
Ir2 Ti0 2.744462 1_445
Ir2 Ti5 2.750631 1_556
Ir2 Ti3 2.828333 1_455
Ir3 Ti0 2.733099 1_555
Ir3 Ti1 2.744270 1_565
Ir3 Ti4 2.754037 1_555
Ir3 Ti2 2.828358 1_555
Ir4 Ti4 2.819142 1_655
Ir4 Ti5 2.822662 1_655
Ir4 Ti1 2.850438 1_554
Ir4 Ti0 2.852085 1_555
Ir5 Ti4 2.818946 1_645
Ir5 Ti5 2.823063 1_655
Ir5 Ti1 2.850894 1_554
Ir5 Ti0 2.851941 1_545
