# generated using pymatgen
data_Nd4MgRh
_symmetry_space_group_name_H-M   'P 1'
_cell_length_a   9.99234738
_cell_length_b   9.99226889
_cell_length_c   9.99219769
_cell_angle_alpha   59.99559548
_cell_angle_beta   59.99578572
_cell_angle_gamma   59.99594434
_symmetry_Int_Tables_number   1
_chemical_formula_structural   Nd4MgRh
_chemical_formula_sum   'Nd16 Mg4 Rh4'
_cell_volume   705.40097093
_cell_formula_units_Z   4
loop_
 _symmetry_equiv_pos_site_id
 _symmetry_equiv_pos_as_xyz
  1  'x, y, z'
loop_
 _atom_site_type_symbol
 _atom_site_label
 _atom_site_symmetry_multiplicity
 _atom_site_fract_x
 _atom_site_fract_y
 _atom_site_fract_z
 _atom_site_occupancy
  Nd  Nd0  1  0.59620379  0.59626860  0.59634096  1
  Nd  Nd1  1  0.59626275  0.59632946  0.21114089  1
  Nd  Nd2  1  0.59623167  0.21115596  0.59637459  1
  Nd  Nd3  1  0.21117411  0.59627110  0.59634236  1
  Nd  Nd4  1  0.06186869  0.43812002  0.43814534  1
  Nd  Nd5  1  0.43813868  0.06190261  0.06181629  1
  Nd  Nd6  1  0.43811107  0.06182795  0.43815833  1
  Nd  Nd7  1  0.06194454  0.43814960  0.06177755  1
  Nd  Nd8  1  0.43812486  0.43814815  0.06178301  1
  Nd  Nd9  1  0.06190285  0.06182451  0.43815856  1
  Nd  Nd10  1  0.18722746  0.81276937  0.81278186  1
  Nd  Nd11  1  0.81282132  0.18719589  0.18715757  1
  Nd  Nd12  1  0.81277837  0.18719512  0.81280337  1
  Nd  Nd13  1  0.18722737  0.81281269  0.18715511  1
  Nd  Nd14  1  0.81280208  0.81281369  0.18715983  1
  Nd  Nd15  1  0.18722526  0.18719076  0.81280238  1
  Mg  Mg0  1  0.82863894  0.82863193  0.82862312  1
  Mg  Mg1  1  0.82858073  0.82857172  0.51423453  1
  Mg  Mg2  1  0.82858748  0.51422119  0.82857089  1
  Mg  Mg3  1  0.51421052  0.82858583  0.82857768  1
  Rh  Rh0  1  0.39178340  0.39180795  0.39183563  1
  Rh  Rh1  1  0.39179628  0.39182129  0.82458222  1
  Rh  Rh2  1  0.39178894  0.82457618  0.39184304  1
  Rh  Rh3  1  0.82456786  0.39180843  0.39183689  1
loop_
_geom_bond_atom_site_label_1
_geom_bond_atom_site_label_2
_geom_bond_distance
_geom_bond_site_symmetry_2
Nd0 Rh1 2.898477 1_555
Nd0 Rh2 2.898915 1_555
Nd0 Rh3 2.899302 1_555
Nd0 Nd10 3.613315 1_555
Nd0 Nd12 3.614126 1_555
Nd0 Nd14 3.615033 1_555
Nd1 Rh2 2.899123 1_555
Nd1 Rh3 2.899523 1_555
Nd1 Rh0 2.899546 1_555
Nd1 Nd13 3.613986 1_555
Nd1 Nd14 3.614223 1_555
Nd1 Nd11 3.614800 1_555
Nd2 Rh1 2.898584 1_555
Nd2 Rh3 2.899468 1_555
Nd2 Rh0 2.899474 1_555
Nd3 Rh1 2.898538 1_555
Nd3 Rh2 2.898981 1_555
Nd3 Rh0 2.899375 1_555
Nd4 Rh0 2.908394 1_555
Nd4 Rh3 2.908562 1_455
Nd5 Rh1 2.908069 1_554
Nd5 Rh2 2.909058 1_545
Nd6 Rh2 2.908182 1_545
Nd6 Rh0 2.908908 1_555
Nd7 Rh1 2.907535 1_554
Nd7 Rh3 2.909445 1_455
Nd8 Rh1 2.907789 1_554
Nd8 Rh0 2.909487 1_555
Nd9 Rh2 2.907941 1_545
Nd9 Rh3 2.908844 1_455
Nd10 Rh2 3.609665 1_555
Nd10 Rh1 3.609794 1_555
Nd10 Nd3 3.613643 1_555
Nd10 Nd14 3.740885 1_456
Nd10 Nd13 3.741028 1_556
Nd10 Nd12 3.741265 1_465
Nd10 Nd15 3.741411 1_565
Nd10 Nd8 3.745133 1_556
Nd10 Nd7 3.745225 1_556
Nd10 Nd6 3.745348 1_565
Nd10 Nd9 3.745444 1_565
Nd11 Rh0 3.610657 1_555
Nd11 Rh3 3.610943 1_555
Nd11 Nd2 3.615413 1_555
Nd11 Nd15 3.740664 1_654
Nd11 Nd13 3.740837 1_645
Nd11 Nd12 3.740840 1_554
Nd11 Nd14 3.741012 1_545
Nd11 Nd8 3.746348 1_555
Nd11 Nd6 3.746426 1_555
Nd11 Nd7 3.746501 1_655
Nd11 Nd9 3.746565 1_655
Nd12 Rh3 3.609943 1_555
Nd12 Rh1 3.610175 1_555
Nd12 Nd2 3.613905 1_555
Nd12 Nd14 3.740533 1_546
Nd12 Nd15 3.741577 1_655
Nd12 Nd8 3.745424 1_556
Nd12 Nd5 3.745463 1_556
Nd12 Nd4 3.745828 1_655
Nd12 Nd9 3.745858 1_655
Nd13 Rh0 3.610290 1_555
Nd13 Rh2 3.610688 1_555
Nd13 Nd3 3.615105 1_555
Nd13 Nd15 3.740497 1_564
Nd13 Nd14 3.741359 1_455
Nd13 Nd5 3.746008 1_565
Nd13 Nd8 3.746050 1_555
Nd13 Nd9 3.746150 1_565
Nd13 Nd4 3.746209 1_555
Nd14 Rh3 3.610368 1_555
Nd14 Rh2 3.610481 1_555
Nd14 Nd5 3.745919 1_565
Nd14 Nd6 3.745949 1_565
Nd14 Nd7 3.746099 1_655
Nd14 Nd4 3.746142 1_655
Nd15 Rh0 3.609877 1_555
Nd15 Rh1 3.610380 1_555
Nd15 Nd2 3.613661 1_555
Nd15 Nd3 3.614212 1_555
Nd15 Nd5 3.745550 1_556
Nd15 Nd7 3.745619 1_556
Nd15 Nd6 3.745812 1_555
Nd15 Nd4 3.745884 1_555
Mg0 Mg1 3.142025 1_555
Mg0 Mg2 3.142195 1_555
Mg0 Mg3 3.142335 1_555
Mg0 Nd14 3.431691 1_556
Mg0 Nd12 3.431868 1_565
Mg0 Nd10 3.432043 1_655
Mg0 Nd2 3.609625 1_565
Mg0 Nd3 3.609625 1_655
Mg0 Nd1 3.609684 1_556
Mg0 Nd9 3.650896 1_665
Mg0 Nd7 3.651002 1_656
Mg0 Nd5 3.651112 1_566
Mg1 Mg2 3.140784 1_555
Mg1 Mg3 3.140938 1_555
Mg1 Nd11 3.432861 1_565
Mg1 Nd14 3.433016 1_555
Mg1 Nd13 3.433020 1_655
Mg1 Nd0 3.610195 1_555
Mg1 Nd3 3.610221 1_655
Mg1 Nd2 3.610262 1_565
Mg1 Nd4 3.651303 1_655
Mg1 Nd6 3.651424 1_565
Mg1 Nd9 3.651828 1_665
Mg2 Mg3 3.141097 1_555
Mg2 Nd11 3.432419 1_556
Mg2 Nd15 3.432768 1_655
Mg2 Nd12 3.432771 1_555
Mg2 Nd0 3.609864 1_555
Mg2 Nd3 3.609907 1_655
Mg2 Nd1 3.609977 1_556
Mg2 Nd4 3.651104 1_655
Mg2 Nd8 3.651345 1_556
Mg2 Nd7 3.651739 1_656
Mg3 Nd13 3.432198 1_556
Mg3 Nd15 3.432380 1_565
Mg3 Nd10 3.432561 1_555
Mg3 Nd0 3.609569 1_555
Mg3 Nd2 3.609613 1_565
Mg3 Nd1 3.609669 1_556
Mg3 Nd6 3.651037 1_565
Mg3 Nd8 3.651156 1_556
Mg3 Nd5 3.651655 1_566
