# generated using pymatgen
data_Dy12Co5Sn
_symmetry_space_group_name_H-M   'P 1'
_cell_length_a   8.34623729
_cell_length_b   8.34623729
_cell_length_c   8.34623729
_cell_angle_alpha   107.10015993
_cell_angle_beta   110.41895721
_cell_angle_gamma   110.92066170
_symmetry_Int_Tables_number   1
_chemical_formula_structural   Dy12Co5Sn
_chemical_formula_sum   'Dy12 Co5 Sn1'
_cell_volume   446.97817074
_cell_formula_units_Z   1
loop_
 _symmetry_equiv_pos_site_id
 _symmetry_equiv_pos_as_xyz
  1  'x, y, z'
loop_
 _atom_site_type_symbol
 _atom_site_label
 _atom_site_symmetry_multiplicity
 _atom_site_fract_x
 _atom_site_fract_y
 _atom_site_fract_z
 _atom_site_occupancy
  Dy  Dy0  1  0.47165300  0.28796100  0.18369200  1
  Dy  Dy1  1  0.10426900  0.28796100  0.81630800  1
  Dy  Dy2  1  0.89573100  0.71203900  0.18369200  1
  Dy  Dy3  1  0.52834700  0.71203900  0.81630800  1
  Dy  Dy4  1  0.30362500  0.61743100  0.31380600  1
  Dy  Dy5  1  0.30362500  0.98982000  0.68619400  1
  Dy  Dy6  1  0.69637500  0.38256900  0.68619400  1
  Dy  Dy7  1  0.69637500  0.01018000  0.31380600  1
  Dy  Dy8  1  0.19587500  0.21227400  0.40814900  1
  Dy  Dy9  1  0.80412500  0.78772600  0.59185100  1
  Dy  Dy10  1  0.19587500  0.78772600  0.98360000  1
  Dy  Dy11  1  0.80412500  0.21227400  0.01640000  1
  Co  Co0  1  0.50000000  0.61291400  0.11291400  1
  Co  Co1  1  0.50000000  0.38708600  0.88708600  1
  Co  Co2  1  0.37791500  0.00000000  0.37791500  1
  Co  Co3  1  0.62208500  0.00000000  0.62208500  1
  Co  Co4  1  0.00000000  0.00000000  0.00000000  1
  Sn  Sn0  1  0.00000000  0.50000000  0.50000000  1
loop_
_geom_bond_atom_site_label_1
_geom_bond_atom_site_label_2
_geom_bond_distance
_geom_bond_site_symmetry_2
Dy0 Dy10 3.445683 1_544
Dy0 Dy8 3.445684 1_555
Dy0 Dy1 3.499095 1_554
Dy0 Dy5 3.573256 1_544
Dy0 Dy4 3.573258 1_555
Dy0 Sn0 3.619826 1_655
Dy0 Dy6 3.638269 1_555
Dy0 Dy7 3.638277 1_555
Dy0 Dy11 3.672220 1_555
Dy0 Dy9 3.672224 1_555
Dy1 Dy9 3.445684 1_445
Dy1 Dy11 3.445690 1_456
Dy1 Dy5 3.573252 1_545
Dy1 Dy4 3.573258 1_556
Dy1 Sn0 3.619826 1_555
Dy1 Dy7 3.638269 1_455
Dy1 Dy6 3.638269 1_455
Dy1 Dy8 3.672224 1_555
Dy1 Dy10 3.672225 1_555
Dy2 Dy8 3.445684 1_665
Dy2 Dy3 3.499095 1_554
Dy2 Dy7 3.573252 1_565
Dy2 Dy6 3.573258 1_554
Dy2 Sn0 3.619826 1_655
Dy2 Dy5 3.638269 1_655
Dy2 Dy4 3.638269 1_655
Dy2 Dy9 3.672224 1_555
Dy3 Dy9 3.445684 1_555
Dy3 Dy7 3.573256 1_566
Dy3 Dy6 3.573258 1_555
Dy3 Sn0 3.619826 1_555
Dy3 Dy4 3.638269 1_555
Dy3 Dy5 3.638277 1_555
Dy3 Dy8 3.672224 1_555
Dy4 Sn0 3.415729 1_555
Dy5 Sn0 3.415736 1_555
Dy6 Sn0 3.415729 1_655
Dy7 Sn0 3.415736 1_655
Dy8 Sn0 3.409210 1_555
Dy9 Sn0 3.409210 1_655
Dy10 Sn0 3.409204 1_555
Dy10 Dy2 3.445690 1_456
Dy10 Dy3 3.672220 1_555
Dy11 Sn0 3.409204 1_655
Dy11 Dy3 3.445683 1_544
Dy11 Dy2 3.672225 1_555
Co0 Co1 2.239611 1_554
Co0 Dy7 2.724600 1_565
Co0 Dy4 2.724607 1_555
Co0 Dy2 2.888266 1_555
Co0 Dy1 2.888266 1_554
Co0 Dy0 2.888266 1_555
Co0 Dy3 2.888266 1_554
Co0 Dy9 3.375776 1_555
Co0 Dy10 3.375778 1_554
Co1 Dy5 2.724600 1_545
Co1 Dy6 2.724607 1_555
Co1 Dy2 2.888266 1_556
Co1 Dy1 2.888266 1_555
Co1 Dy3 2.888266 1_555
Co1 Dy0 2.888266 1_556
Co1 Dy8 3.375776 1_555
Co1 Dy11 3.375778 1_556
Co2 Co3 2.325562 1_555
Co2 Dy8 2.727259 1_555
Co2 Dy10 2.727266 1_544
Co2 Dy5 2.866350 1_545
Co2 Dy6 2.866352 1_555
Co2 Dy4 2.866352 1_545
Co2 Dy7 2.866354 1_555
Co2 Dy0 3.293840 1_555
Co2 Dy2 3.293840 1_445
Co3 Dy9 2.727259 1_545
Co3 Dy11 2.727266 1_556
Co3 Dy7 2.866350 1_555
Co3 Dy6 2.866352 1_555
Co3 Dy4 2.866352 1_545
Co3 Dy5 2.866354 1_545
Co3 Dy3 3.293840 1_545
Co3 Dy1 3.293840 1_655
Co4 Dy8 2.812869 1_555
Co4 Dy9 2.812869 1_444
Co4 Dy11 2.812869 1_455
Co4 Dy10 2.812869 1_544
Co4 Dy0 3.238573 1_555
Co4 Dy3 3.238573 1_444
Co4 Dy1 3.238573 1_554
Co4 Dy2 3.238573 1_445
