# generated using pymatgen
data_Mg3Si4(WO7)2
_symmetry_space_group_name_H-M   'P 1'
_cell_length_a   9.53420722
_cell_length_b   9.53420722
_cell_length_c   10.10409267
_cell_angle_alpha   59.39849581
_cell_angle_beta   59.39849581
_cell_angle_gamma   47.39267064
_symmetry_Int_Tables_number   1
_chemical_formula_structural   Mg3Si4(WO7)2
_chemical_formula_sum   'Mg6 Si8 W4 O28'
_cell_volume   561.91312761
_cell_formula_units_Z   2
loop_
 _symmetry_equiv_pos_site_id
 _symmetry_equiv_pos_as_xyz
  1  'x, y, z'
loop_
 _atom_site_type_symbol
 _atom_site_label
 _atom_site_symmetry_multiplicity
 _atom_site_fract_x
 _atom_site_fract_y
 _atom_site_fract_z
 _atom_site_occupancy
  Mg  Mg0  1  0.06915700  0.28374900  0.10279200  1
  Mg  Mg1  1  0.71625100  0.93084300  0.39720800  1
  Mg  Mg2  1  0.28374900  0.06915700  0.60279200  1
  Mg  Mg3  1  0.37871600  0.62128400  0.75000000  1
  Mg  Mg4  1  0.93084300  0.71625100  0.89720800  1
  Mg  Mg5  1  0.62128400  0.37871600  0.25000000  1
  Si  Si0  1  0.53360600  0.08763200  0.71368000  1
  Si  Si1  1  0.08763200  0.53360600  0.21368000  1
  Si  Si2  1  0.51197500  0.24618900  0.10088600  1
  Si  Si3  1  0.24618900  0.51197500  0.60088600  1
  Si  Si4  1  0.91236800  0.46639400  0.78632000  1
  Si  Si5  1  0.48802500  0.75381100  0.89911400  1
  Si  Si6  1  0.75381100  0.48802500  0.39911400  1
  Si  Si7  1  0.46639400  0.91236800  0.28632000  1
  W  W0  1  0.80624400  0.19375600  0.75000000  1
  W  W1  1  0.19375600  0.80624400  0.25000000  1
  W  W2  1  0.00000000  0.00000000  0.00000000  1
  W  W3  1  0.00000000  0.00000000  0.50000000  1
  O  O0  1  0.83742800  0.30699200  0.33406900  1
  O  O1  1  0.91546200  0.92022600  0.41118400  1
  O  O2  1  0.47740400  0.62795200  0.08493000  1
  O  O3  1  0.92022600  0.91546200  0.91118400  1
  O  O4  1  0.25506100  0.96999500  0.29737300  1
  O  O5  1  0.06485400  0.50959700  0.62049000  1
  O  O6  1  0.62795200  0.47740400  0.58493000  1
  O  O7  1  0.03000500  0.74493900  0.20262700  1
  O  O8  1  0.93514600  0.49040300  0.37951000  1
  O  O9  1  0.62955900  0.68436600  0.26793600  1
  O  O10  1  0.08453800  0.07977400  0.58881600  1
  O  O11  1  0.74493900  0.03000500  0.70262700  1
  O  O12  1  0.49040300  0.93514600  0.87951000  1
  O  O13  1  0.30699200  0.83742800  0.83406900  1
  O  O14  1  0.68436600  0.62955900  0.76793600  1
  O  O15  1  0.96999500  0.25506100  0.79737300  1
  O  O16  1  0.92011000  0.49439600  0.92809300  1
  O  O17  1  0.37044100  0.31563400  0.73206400  1
  O  O18  1  0.50560400  0.07989000  0.57190700  1
  O  O19  1  0.31563400  0.37044100  0.23206400  1
  O  O20  1  0.50959700  0.06485400  0.12049000  1
  O  O21  1  0.07977400  0.08453800  0.08881600  1
  O  O22  1  0.49439600  0.92011000  0.42809300  1
  O  O23  1  0.52259600  0.37204800  0.91507000  1
  O  O24  1  0.07989000  0.50560400  0.07190700  1
  O  O25  1  0.37204800  0.52259600  0.41507000  1
  O  O26  1  0.69300800  0.16257200  0.16593100  1
  O  O27  1  0.16257200  0.69300800  0.66593100  1
loop_
_geom_bond_atom_site_label_1
_geom_bond_atom_site_label_2
_geom_bond_distance
_geom_bond_site_symmetry_2
Mg0 O21 1.906781 1_555
Mg0 O24 2.042174 1_555
Mg0 O16 2.061336 1_454
Mg0 O0 2.235852 1_455
Mg0 O4 2.517288 1_545
Mg1 O1 1.906781 1_555
Mg1 O22 2.042174 1_555
Mg1 O18 2.061336 1_565
Mg1 O26 2.235852 1_565
Mg1 O7 2.517288 1_655
Mg2 O10 1.906781 1_555
Mg2 O18 2.042174 1_555
Mg2 O22 2.061336 1_545
Mg2 O13 2.235852 1_545
Mg2 O15 2.517288 1_455
Mg3 O23 2.047209 1_555
Mg3 O6 2.047209 1_555
Mg3 O13 2.172268 1_555
Mg3 O27 2.172268 1_555
Mg4 O3 1.906781 1_555
Mg4 O16 2.042174 1_555
Mg4 O24 2.061336 1_656
Mg4 O27 2.235852 1_655
Mg4 O11 2.517288 1_565
Mg5 O25 2.047209 1_555
Mg5 O2 2.047209 1_555
Mg5 O26 2.172268 1_555
Mg5 O0 2.172268 1_555
O0 Si6 1.674827 1_555
O0 W3 2.299450 1_655
O1 W3 2.072394 1_665
O1 W1 2.090893 1_655
O2 Si5 1.628606 1_554
O2 W1 2.248348 1_555
O3 W2 2.072394 1_666
O3 W0 2.090893 1_565
O4 Si7 1.645795 1_555
O4 W3 2.184622 1_565
O4 W1 2.299874 1_555
O5 Si4 1.648869 1_455
O5 Si3 1.651856 1_555
O6 Si6 1.628606 1_555
O6 W0 2.248348 1_555
O7 Si1 1.645795 1_555
O7 W2 2.184622 1_565
O7 W1 2.299874 1_555
O8 Si1 1.648869 1_655
O8 Si6 1.651856 1_555
O9 Si7 1.648735 1_555
O9 Si6 1.653595 1_555
O10 W3 2.072394 1_555
O10 W0 2.090893 1_455
O11 Si0 1.645795 1_555
O11 W3 2.184622 1_655
O11 W0 2.299874 1_555
O12 Si0 1.648869 1_565
O12 Si5 1.651856 1_555
O13 Si5 1.674827 1_555
O13 W2 2.299450 1_566
O14 Si4 1.648735 1_555
O14 Si5 1.653595 1_555
O15 Si4 1.645795 1_555
O15 W2 2.184622 1_656
O15 W0 2.299874 1_555
O16 Si4 1.628636 1_555
O17 Si0 1.648735 1_555
O17 Si3 1.653595 1_555
O18 Si0 1.628636 1_555
O19 Si1 1.648735 1_555
O19 Si2 1.653595 1_555
O20 Si7 1.648869 1_545
O20 Si2 1.651856 1_555
O21 W2 2.072394 1_555
O21 W1 2.090893 1_545
O22 Si7 1.628636 1_555
O23 Si2 1.628606 1_556
O23 W0 2.248348 1_555
O24 Si1 1.628636 1_555
O25 Si3 1.628606 1_555
O25 W1 2.248348 1_555
O26 Si2 1.674827 1_555
O26 W2 2.299450 1_655
O27 Si3 1.674827 1_555
O27 W3 2.299450 1_565
