# generated using pymatgen
data_Li7La3Hf2O12
_symmetry_space_group_name_H-M   'P 1'
_cell_length_a   11.15760874
_cell_length_b   11.15760874
_cell_length_c   11.15760874
_cell_angle_alpha   108.28923640
_cell_angle_beta   108.28923640
_cell_angle_gamma   111.86196800
_symmetry_Int_Tables_number   1
_chemical_formula_structural   Li7La3Hf2O12
_chemical_formula_sum   'Li28 La12 Hf8 O48'
_cell_volume   1067.87740168
_cell_formula_units_Z   4
loop_
 _symmetry_equiv_pos_site_id
 _symmetry_equiv_pos_as_xyz
  1  'x, y, z'
loop_
 _atom_site_type_symbol
 _atom_site_label
 _atom_site_symmetry_multiplicity
 _atom_site_fract_x
 _atom_site_fract_y
 _atom_site_fract_z
 _atom_site_occupancy
  Li  Li0  1  0.50000000  0.50000000  -0.00000000  1
  Li  Li1  1  -0.00000000  -0.00000000  -0.00000000  1
  Li  Li2  1  0.25000000  0.75000000  0.50000000  1
  Li  Li3  1  0.75000000  0.25000000  0.50000000  1
  Li  Li4  1  0.92866478  0.92866478  0.35732956  1
  Li  Li5  1  0.07133522  0.42866478  0.00000000  1
  Li  Li6  1  0.67866478  0.17866478  0.85732956  1
  Li  Li7  1  0.82133522  0.67866478  0.50000000  1
  Li  Li8  1  0.32133522  0.82133522  0.14267044  1
  Li  Li9  1  0.17866478  0.32133522  0.50000000  1
  Li  Li10  1  0.57133522  0.57133522  0.64267044  1
  Li  Li11  1  0.42866478  0.07133522  -0.00000000  1
  Li  Li12  1  0.90496348  0.14959085  0.91712005  1
  Li  Li13  1  0.73247080  0.64959085  0.24462637  1
  Li  Li14  1  0.89959085  0.15496348  0.41712005  1
  Li  Li15  1  0.23784443  0.65496348  0.25537363  1
  Li  Li16  1  0.34503652  0.60040915  0.58287995  1
  Li  Li17  1  0.51752920  0.10040915  0.25537363  1
  Li  Li18  1  0.35040915  0.59503652  0.08287995  1
  Li  Li19  1  0.01215557  0.09503652  0.24462637  1
  Li  Li20  1  0.40496348  0.48784443  0.75537363  1
  Li  Li21  1  0.23247080  0.98784443  0.08287995  1
  Li  Li22  1  0.39959085  0.98247080  0.74462637  1
  Li  Li23  1  0.73784443  0.48247080  0.58287995  1
  Li  Li24  1  0.84503652  0.26215557  0.74462637  1
  Li  Li25  1  0.01752920  0.76215557  0.41712005  1
  Li  Li26  1  0.85040915  0.76752920  0.75537363  1
  Li  Li27  1  0.51215557  0.26752920  0.91712005  1
  La  La0  1  0.75000000  0.75000000  -0.00000000  1
  La  La1  1  0.25000000  0.25000000  -0.00000000  1
  La  La2  1  0.50000000  -0.00000000  0.50000000  1
  La  La3  1  -0.00000000  0.50000000  0.50000000  1
  La  La4  1  0.37500000  0.75293351  0.87793351  1
  La  La5  1  0.37500000  0.25293351  0.37793351  1
  La  La6  1  0.50293351  0.62500000  0.37793351  1
  La  La7  1  0.74706649  0.12500000  0.12206649  1
  La  La8  1  0.87500000  0.99706649  0.62206649  1
  La  La9  1  0.87500000  0.49706649  0.12206649  1
  La  La10  1  0.00293351  0.62500000  0.87793351  1
  La  La11  1  0.24706649  0.12500000  0.62206649  1
  Hf  Hf0  1  0.62500000  0.87500000  0.75000000  1
  Hf  Hf1  1  0.62500000  0.37500000  0.25000000  1
  Hf  Hf2  1  0.62500000  0.87500000  0.25000000  1
  Hf  Hf3  1  0.12500000  0.37500000  0.25000000  1
  Hf  Hf4  1  0.12500000  0.37500000  0.75000000  1
  Hf  Hf5  1  0.12500000  0.87500000  0.25000000  1
  Hf  Hf6  1  0.12500000  0.87500000  0.75000000  1
  Hf  Hf7  1  0.62500000  0.37500000  0.75000000  1
  O  O0  1  0.52647313  0.68730869  0.76944015  1
  O  O1  1  0.41786854  0.18730869  0.16083656  1
  O  O2  1  0.43730869  0.77647313  0.26944015  1
  O  O3  1  0.00703298  0.27647313  0.33916344  1
  O  O4  1  0.72352687  0.06269131  0.73055985  1
  O  O5  1  0.83213146  0.56269131  0.33916344  1
  O  O6  1  0.81269131  0.97352687  0.23055985  1
  O  O7  1  0.24296702  0.47352687  0.16083656  1
  O  O8  1  0.02647313  0.25703298  0.83916344  1
  O  O9  1  0.91786854  0.75703298  0.23055985  1
  O  O10  1  0.93730869  0.66786854  0.66083656  1
  O  O11  1  0.50703298  0.16786854  0.73055985  1
  O  O12  1  0.22352687  0.49296702  0.66083656  1
  O  O13  1  0.33213146  0.99296702  0.26944015  1
  O  O14  1  0.31269131  0.08213146  0.83916344  1
  O  O15  1  0.74296702  0.58213146  0.76944015  1
  O  O16  1  0.94374622  0.39268804  0.65730835  1
  O  O17  1  0.23537869  0.89268804  0.44894082  1
  O  O18  1  0.14268804  0.19374622  0.15730835  1
  O  O19  1  0.53643788  0.69374622  0.05105918  1
  O  O20  1  0.30625378  0.35731196  0.84269165  1
  O  O21  1  0.01462131  0.85731196  0.05105918  1
  O  O22  1  0.10731196  0.55625378  0.34269165  1
  O  O23  1  0.71356212  0.05625378  0.44894082  1
  O  O24  1  0.44374622  0.78643788  0.55105918  1
  O  O25  1  0.73537869  0.28643788  0.34269165  1
  O  O26  1  0.64268804  0.48537869  0.94894082  1
  O  O27  1  0.03643788  0.98537869  0.84269165  1
  O  O28  1  0.80625378  0.96356212  0.94894082  1
  O  O29  1  0.51462131  0.46356212  0.15730835  1
  O  O30  1  0.60731196  0.26462131  0.55105918  1
  O  O31  1  0.21356212  0.76462131  0.65730835  1
  O  O32  1  0.20471360  0.57602673  0.92706390  1
  O  O33  1  0.14896283  0.07602673  0.37131313  1
  O  O34  1  0.32602673  0.45471360  0.42706390  1
  O  O35  1  0.52764970  0.95471360  0.12868687  1
  O  O36  1  0.04528640  0.17397327  0.57293610  1
  O  O37  1  0.10103717  0.67397327  0.12868687  1
  O  O38  1  0.92397327  0.29528640  0.07293610  1
  O  O39  1  0.72235030  0.79528640  0.37131313  1
  O  O40  1  0.70471360  0.77764970  0.62868687  1
  O  O41  1  0.64896283  0.27764970  0.07293610  1
  O  O42  1  0.82602673  0.39896283  0.87131313  1
  O  O43  1  0.02764970  0.89896283  0.57293610  1
  O  O44  1  0.54528640  0.97235030  0.87131313  1
  O  O45  1  0.60103717  0.47235030  0.42706390  1
  O  O46  1  0.42397327  0.35103717  0.62868687  1
  O  O47  1  0.22235030  0.85103717  0.92706390  1
loop_
_geom_bond_atom_site_label_1
_geom_bond_atom_site_label_2
_geom_bond_distance
_geom_bond_site_symmetry_2
Li0 O19 1.894763 1_555
Li0 O29 1.894763 1_555
Li0 O20 1.894765 1_554
Li0 O26 1.894774 1_554
Li1 O28 1.894763 1_444
Li1 O27 1.894763 1_544
Li1 O18 1.894765 1_555
Li1 O21 1.894774 1_545
Li2 O24 1.894763 1_555
Li2 O31 1.894763 1_555
Li2 O22 1.894765 1_555
Li2 O17 1.894774 1_555
Li3 O23 1.894763 1_555
Li3 O25 1.894763 1_555
Li3 O16 1.894765 1_555
Li3 O30 1.894774 1_555
Li4 O6 1.924481 1_555
Li4 O9 1.924481 1_555
Li4 O33 2.314727 1_665
Li4 O39 2.314727 1_555
Li4 O43 2.494432 1_655
Li4 O36 2.494432 1_665
Li5 O7 1.924487 1_555
Li5 O8 1.924487 1_554
Li5 O38 2.314727 1_455
Li5 O32 2.314727 1_554
Li5 O42 2.494432 1_454
Li5 O37 2.494432 1_555
Li6 O11 1.924481 1_555
Li6 O4 1.924481 1_555
Li6 O44 2.314727 1_545
Li6 O42 2.314727 1_555
Li6 O41 2.494432 1_556
Li6 O38 2.494432 1_556
Li7 O5 1.924489 1_555
Li7 O10 1.924489 1_555
Li7 O43 2.314727 1_655
Li7 O45 2.314727 1_555
Li7 O39 2.494432 1_555
Li7 O40 2.494432 1_555
Li8 O2 1.924481 1_555
Li8 O13 1.924481 1_555
Li8 O35 2.314727 1_555
Li8 O37 2.314727 1_555
Li8 O32 2.494432 1_554
Li8 O47 2.494432 1_554
Li9 O12 1.924487 1_555
Li9 O3 1.924487 1_555
Li9 O34 2.314727 1_555
Li9 O36 2.314727 1_555
Li9 O33 2.494432 1_555
Li9 O46 2.494432 1_555
Li10 O15 1.924481 1_555
Li10 O0 1.924481 1_555
Li10 O40 2.314727 1_555
Li10 O46 2.314727 1_555
Li10 O34 2.494432 1_555
Li10 O45 2.494432 1_555
Li11 O1 1.924489 1_555
Li11 O14 1.924489 1_554
Li11 O47 2.314727 1_544
Li11 O41 2.314727 1_555
Li11 O44 2.494432 1_544
Li11 O35 2.494432 1_545
Li12 O38 1.856904 1_556
Li12 O4 1.999476 1_555
Li12 O8 2.053270 1_655
Li12 O28 2.157027 1_545
Li13 O39 1.856910 1_555
Li13 O5 1.999476 1_555
Li13 O9 2.053255 1_555
Li13 O29 2.157029 1_555
Li14 O36 1.856904 1_655
Li14 O6 1.999476 1_545
Li14 O3 2.053270 1_655
Li14 O23 2.157027 1_555
Li15 O37 1.856917 1_555
Li15 O7 1.999470 1_555
Li15 O2 2.053258 1_555
Li15 O22 2.157031 1_555
Li16 O34 1.856904 1_555
Li16 O0 1.999476 1_555
Li16 O12 2.053270 1_555
Li16 O24 2.157027 1_555
Li17 O35 1.856910 1_545
Li17 O1 1.999476 1_555
Li17 O13 2.053255 1_545
Li17 O25 2.157029 1_555
Li18 O32 1.856904 1_554
Li18 O2 1.999476 1_555
Li18 O7 2.053270 1_555
Li18 O19 2.157027 1_555
Li19 O33 1.856917 1_555
Li19 O3 1.999470 1_555
Li19 O6 2.053258 1_445
Li19 O18 2.157031 1_555
Li20 O46 1.856917 1_555
Li20 O12 1.999470 1_555
Li20 O0 2.053258 1_555
Li20 O20 2.157031 1_555
Li21 O47 1.856910 1_554
Li21 O13 1.999482 1_555
Li21 O1 2.053252 1_565
Li21 O21 2.157031 1_555
Li22 O44 1.856910 1_555
Li22 O14 1.999476 1_565
Li22 O11 2.053255 1_565
Li22 O31 2.157029 1_555
Li23 O45 1.856910 1_555
Li23 O15 1.999482 1_555
Li23 O10 2.053252 1_555
Li23 O30 2.157031 1_555
Li24 O42 1.856917 1_555
Li24 O8 1.999470 1_655
Li24 O4 2.053258 1_555
Li24 O16 2.157031 1_555
Li25 O43 1.856910 1_555
Li25 O9 1.999482 1_455
Li25 O5 2.053252 1_455
Li25 O17 2.157031 1_555
Li26 O40 1.856910 1_555
Li26 O10 1.999476 1_555
Li26 O15 2.053255 1_555
Li26 O27 2.157029 1_655
Li27 O41 1.856910 1_556
Li27 O11 1.999482 1_555
Li27 O14 2.053252 1_555
Li27 O26 2.157031 1_555
La0 O28 2.521713 1_554
La0 O19 2.521713 1_555
La0 O26 2.521713 1_554
La0 O21 2.521713 1_655
La0 O15 2.621412 1_554
La0 O6 2.621412 1_555
La0 O9 2.621412 1_555
La0 O0 2.621412 1_554
La1 O18 2.521706 1_555
La1 O20 2.521706 1_554
La1 O29 2.521713 1_555
La1 O27 2.521713 1_544
La1 O7 2.621416 1_555
La1 O8 2.621416 1_554
La1 O1 2.621418 1_555
La1 O14 2.621418 1_554
La2 O24 2.521713 1_545
La2 O23 2.521713 1_555
La2 O30 2.521713 1_555
La2 O17 2.521713 1_545
La2 O2 2.621412 1_545
La2 O13 2.621412 1_545
La2 O11 2.621412 1_555
La2 O4 2.621412 1_555
La3 O22 2.521706 1_555
La3 O16 2.521706 1_455
La3 O25 2.521713 1_455
La3 O31 2.521713 1_555
La3 O12 2.621416 1_555
La3 O3 2.621416 1_555
La3 O10 2.621418 1_455
La3 O5 2.621418 1_455
La4 O47 2.448960 1_555
La4 O35 2.448960 1_556
La4 O32 2.519197 1_555
La4 O44 2.519197 1_555
La4 O12 2.550926 1_555
La4 O0 2.550930 1_555
La4 O31 2.629588 1_555
La4 O19 2.629588 1_556
La5 O34 2.448960 1_555
La5 O46 2.448960 1_555
La5 O33 2.519197 1_555
La5 O45 2.519197 1_555
La5 O1 2.550920 1_555
La5 O13 2.550930 1_545
La5 O30 2.629580 1_555
La5 O18 2.629581 1_555
La6 O40 2.448960 1_555
La6 O45 2.448960 1_555
La6 O34 2.519197 1_555
La6 O39 2.519197 1_555
La6 O7 2.550926 1_555
La6 O2 2.550930 1_555
La6 O29 2.629588 1_555
La6 O24 2.629588 1_555
La7 O44 2.448960 1_544
La7 O41 2.448960 1_555
La7 O35 2.519197 1_545
La7 O38 2.519197 1_555
La7 O3 2.550926 1_655
La7 O6 2.550930 1_545
La7 O25 2.629588 1_555
La7 O28 2.629588 1_544
La8 O39 2.448960 1_555
La8 O43 2.448960 1_655
La8 O36 2.519197 1_665
La8 O40 2.519197 1_555
La8 O8 2.550926 1_665
La8 O4 2.550930 1_565
La8 O27 2.629588 1_655
La8 O23 2.629588 1_565
La9 O42 2.448960 1_554
La9 O38 2.448960 1_555
La9 O41 2.519197 1_555
La9 O37 2.519197 1_655
La9 O5 2.550920 1_555
La9 O9 2.550930 1_555
La9 O26 2.629580 1_554
La9 O22 2.629581 1_655
La10 O32 2.448960 1_555
La10 O37 2.448960 1_556
La10 O42 2.519197 1_455
La10 O47 2.519197 1_555
La10 O10 2.550920 1_455
La10 O15 2.550930 1_455
La10 O21 2.629580 1_556
La10 O16 2.629581 1_455
La11 O36 2.448960 1_555
La11 O33 2.448960 1_555
La11 O43 2.519197 1_545
La11 O46 2.519197 1_555
La11 O14 2.550920 1_555
La11 O11 2.550930 1_555
La11 O17 2.629580 1_545
La11 O20 2.629581 1_555
Hf0 O24 2.076317 1_555
Hf0 O28 2.076317 1_555
Hf0 O40 2.086941 1_555
Hf0 O44 2.086941 1_555
Hf0 O4 2.088394 1_565
Hf0 O0 2.088394 1_555
Hf1 O25 2.076317 1_555
Hf1 O29 2.076317 1_555
Hf1 O45 2.086941 1_555
Hf1 O41 2.086941 1_555
Hf1 O1 2.088396 1_555
Hf1 O5 2.088396 1_555
Hf2 O19 2.076317 1_555
Hf2 O23 2.076317 1_565
Hf2 O35 2.086941 1_555
Hf2 O39 2.086941 1_555
Hf2 O2 2.088394 1_555
Hf2 O6 2.088394 1_555
Hf3 O18 2.076324 1_555
Hf3 O22 2.076324 1_555
Hf3 O34 2.086941 1_555
Hf3 O38 2.086941 1_455
Hf3 O3 2.088384 1_555
Hf3 O7 2.088384 1_555
Hf4 O16 2.076324 1_455
Hf4 O20 2.076324 1_555
Hf4 O32 2.086941 1_555
Hf4 O36 2.086941 1_555
Hf4 O8 2.088384 1_555
Hf4 O12 2.088384 1_555
Hf5 O21 2.076312 1_555
Hf5 O17 2.076312 1_555
Hf5 O37 2.086941 1_555
Hf5 O33 2.086941 1_565
Hf5 O9 2.088394 1_455
Hf5 O13 2.088394 1_555
Hf6 O31 2.076317 1_555
Hf6 O27 2.076317 1_555
Hf6 O47 2.086941 1_555
Hf6 O43 2.086941 1_555
Hf6 O10 2.088396 1_455
Hf6 O14 2.088396 1_565
Hf7 O26 2.076312 1_555
Hf7 O30 2.076312 1_555
Hf7 O42 2.086941 1_555
Hf7 O46 2.086941 1_555
Hf7 O11 2.088394 1_555
Hf7 O15 2.088394 1_555
