# generated using pymatgen
data_YMnCo
_symmetry_space_group_name_H-M   'P 1'
_cell_length_a   5.18555465
_cell_length_b   5.18555465
_cell_length_c   5.18555465
_cell_angle_alpha   88.20535935
_cell_angle_beta   60.23042085
_cell_angle_gamma   118.17522088
_symmetry_Int_Tables_number   1
_chemical_formula_structural   YMnCo
_chemical_formula_sum   'Y2 Mn2 Co2'
_cell_volume   100.05359494
_cell_formula_units_Z   2
loop_
 _symmetry_equiv_pos_site_id
 _symmetry_equiv_pos_as_xyz
  1  'x, y, z'
loop_
 _atom_site_type_symbol
 _atom_site_label
 _atom_site_symmetry_multiplicity
 _atom_site_fract_x
 _atom_site_fract_y
 _atom_site_fract_z
 _atom_site_occupancy
  Y  Y0  1  0.50000000  0.74597100  0.75402900  1
  Y  Y1  1  0.00000000  0.00402900  0.99597100  1
  Mn  Mn0  1  0.25000000  0.87500000  0.37500000  1
  Mn  Mn1  1  0.75000000  0.37500000  0.37500000  1
  Co  Co0  1  0.75000000  0.37500000  0.87500000  1
  Co  Co1  1  0.25000000  0.37500000  0.37500000  1
loop_
_geom_bond_atom_site_label_1
_geom_bond_atom_site_label_2
_geom_bond_distance
_geom_bond_site_symmetry_2
Mn0 Mn1 2.663958 1_565
Mn0 Mn1 2.663958 1_455
Mn0 Y0 3.042761 1_555
Mn0 Y1 3.042761 1_564
Mn0 Y1 3.050559 1_664
Mn0 Y0 3.050559 1_455
Mn0 Y1 3.050559 1_565
Mn0 Y0 3.050559 1_554
Mn1 Y0 3.042761 1_545
Mn1 Y1 3.042761 1_664
Mn1 Y1 3.050559 1_654
Mn1 Y0 3.050559 1_654
Mn1 Y0 3.050559 1_555
Mn1 Y1 3.050559 1_555
Co0 Mn1 2.592777 1_556
Co0 Mn1 2.592777 1_555
Co0 Mn0 2.592777 1_546
Co0 Mn0 2.592777 1_655
Co0 Co1 2.601802 1_556
Co0 Co1 2.601802 1_655
Co0 Y1 2.976866 1_655
Co0 Y0 2.976866 1_555
Co0 Y0 3.107464 1_655
Co0 Y0 3.107464 1_545
Co0 Y1 3.107464 1_555
Co0 Y1 3.107464 1_665
Co1 Mn1 2.592777 1_455
Co1 Mn0 2.592777 1_555
Co1 Mn1 2.592777 1_555
Co1 Mn0 2.592777 1_545
Co1 Y0 2.976866 1_554
Co1 Y1 2.976866 1_555
Co1 Y1 3.107464 1_554
Co1 Y0 3.107464 1_555
Co1 Y0 3.107464 1_445
Co1 Y1 3.107464 1_664
