# generated using pymatgen
data_Na2MgFe2(PO4)3
_symmetry_space_group_name_H-M   'P 1'
_cell_length_a   8.67776192
_cell_length_b   8.67776192
_cell_length_c   6.57116302
_cell_angle_alpha   73.77915794
_cell_angle_beta   73.77915794
_cell_angle_gamma   93.28998243
_symmetry_Int_Tables_number   1
_chemical_formula_structural   Na2MgFe2(PO4)3
_chemical_formula_sum   'Na4 Mg2 Fe4 P6 O24'
_cell_volume   451.27151501
_cell_formula_units_Z   2
loop_
 _symmetry_equiv_pos_site_id
 _symmetry_equiv_pos_as_xyz
  1  'x, y, z'
loop_
 _atom_site_type_symbol
 _atom_site_label
 _atom_site_symmetry_multiplicity
 _atom_site_fract_x
 _atom_site_fract_y
 _atom_site_fract_z
 _atom_site_occupancy
  Na  Na0  1  0.98350700  0.01649300  0.25000000  1
  Na  Na1  1  0.01649300  0.98350700  0.75000000  1
  Na  Na2  1  0.50000000  0.50000000  0.00000000  1
  Na  Na3  1  0.50000000  0.50000000  0.50000000  1
  Mg  Mg0  1  0.26658200  0.73341800  0.25000000  1
  Mg  Mg1  1  0.73341800  0.26658200  0.75000000  1
  Fe  Fe0  1  0.38085200  0.05732100  0.37393900  1
  Fe  Fe1  1  0.61914800  0.94267900  0.62606100  1
  Fe  Fe2  1  0.94267900  0.61914800  0.12606100  1
  Fe  Fe3  1  0.05732100  0.38085200  0.87393900  1
  P  P0  1  0.71118600  0.28881400  0.25000000  1
  P  P1  1  0.28881400  0.71118600  0.75000000  1
  P  P2  1  0.65460300  0.87393100  0.11994500  1
  P  P3  1  0.34539700  0.12606900  0.88005500  1
  P  P4  1  0.12606900  0.34539700  0.38005500  1
  P  P5  1  0.87393100  0.65460300  0.61994500  1
  O  O0  1  0.53305200  0.26235000  0.25360100  1
  O  O1  1  0.46694800  0.73765000  0.74639900  1
  O  O2  1  0.73765000  0.46694800  0.24639900  1
  O  O3  1  0.26235000  0.53305200  0.75360100  1
  O  O4  1  0.52194300  0.73116300  0.17065600  1
  O  O5  1  0.47805700  0.26883700  0.82934400  1
  O  O6  1  0.26883700  0.47805700  0.32934400  1
  O  O7  1  0.73116300  0.52194300  0.67065600  1
  O  O8  1  0.74197700  0.17802100  0.46369800  1
  O  O9  1  0.25802300  0.82197900  0.53630200  1
  O  O10  1  0.82197900  0.25802300  0.03630200  1
  O  O11  1  0.17802100  0.74197700  0.96369800  1
  O  O12  1  0.60329700  0.95557700  0.30861200  1
  O  O13  1  0.39670300  0.04442300  0.69138800  1
  O  O14  1  0.04442300  0.39670300  0.19138800  1
  O  O15  1  0.95557700  0.60329700  0.80861200  1
  O  O16  1  0.82563000  0.82465100  0.11035000  1
  O  O17  1  0.17437000  0.17534900  0.88965000  1
  O  O18  1  0.17534900  0.17437000  0.38965000  1
  O  O19  1  0.82465100  0.82563000  0.61035000  1
  O  O20  1  0.32418400  0.99517700  0.10988900  1
  O  O21  1  0.67581600  0.00482300  0.89011100  1
  O  O22  1  0.00482300  0.67581600  0.39011100  1
  O  O23  1  0.99517700  0.32418400  0.60988900  1
loop_
_geom_bond_atom_site_label_1
_geom_bond_atom_site_label_2
_geom_bond_distance
_geom_bond_site_symmetry_2
Na0 O19 2.444125 1_545
Na0 O17 2.444125 1_654
Na0 O16 2.604721 1_545
Na0 O18 2.604721 1_655
Na0 O8 2.849946 1_555
Na0 O10 2.849946 1_555
Na0 O20 2.873838 1_645
Na0 O22 2.873838 1_645
Na1 O16 2.444125 1_456
Na1 O18 2.444125 1_565
Na1 O19 2.604721 1_455
Na1 O17 2.604721 1_565
Na1 O11 2.849946 1_555
Na1 O9 2.849946 1_555
Na1 O23 2.873838 1_465
Na1 O21 2.873838 1_465
Na2 O0 2.351001 1_555
Na2 O1 2.351001 1_554
Na2 O6 2.458534 1_555
Na2 O7 2.458534 1_554
Na2 O4 2.578755 1_555
Na2 O5 2.578755 1_554
Na3 O3 2.351001 1_555
Na3 O2 2.351001 1_555
Na3 O5 2.458534 1_555
Na3 O4 2.458534 1_555
Na3 O7 2.578755 1_555
Na3 O6 2.578755 1_555
Mg0 O4 2.132582 1_555
Mg0 O6 2.132582 1_555
Mg0 O20 2.168257 1_555
Mg0 O22 2.168257 1_555
Mg0 O9 2.207215 1_555
Mg0 O11 2.207215 1_554
Mg1 O7 2.132582 1_555
Mg1 O5 2.132582 1_555
Mg1 O23 2.168257 1_555
Mg1 O21 2.168257 1_555
Mg1 O10 2.207215 1_556
Mg1 O8 2.207215 1_555
Fe0 O0 1.973830 1_555
Fe0 O9 2.083907 1_545
Fe0 O18 2.094317 1_555
Fe0 O13 2.101074 1_555
Fe0 O20 2.124210 1_545
Fe0 O12 2.152761 1_545
Fe1 O1 1.973830 1_555
Fe1 O8 2.083907 1_565
Fe1 O19 2.094317 1_555
Fe1 O12 2.101074 1_555
Fe1 O21 2.124210 1_565
Fe1 O13 2.152761 1_565
Fe2 O2 1.973830 1_555
Fe2 O11 2.083907 1_654
Fe2 O16 2.094317 1_555
Fe2 O15 2.101074 1_554
Fe2 O22 2.124210 1_655
Fe2 O14 2.152761 1_655
Fe3 O3 1.973830 1_555
Fe3 O10 2.083907 1_456
Fe3 O17 2.094317 1_555
Fe3 O14 2.101074 1_556
Fe3 O23 2.124210 1_455
Fe3 O15 2.152761 1_455
O0 P0 1.542269 1_555
O1 P1 1.542269 1_555
O2 P0 1.542269 1_555
O3 P1 1.542269 1_555
O4 P2 1.537047 1_555
O5 P3 1.537047 1_555
O6 P4 1.537047 1_555
O7 P5 1.537047 1_555
O8 P0 1.566044 1_555
O9 P1 1.566044 1_555
O10 P0 1.566044 1_555
O11 P1 1.566044 1_555
O12 P2 1.567091 1_555
O13 P3 1.567091 1_555
O14 P4 1.567091 1_555
O15 P5 1.567091 1_555
O16 P2 1.557283 1_555
O17 P3 1.557283 1_555
O18 P4 1.557283 1_555
O19 P5 1.557283 1_555
O20 P3 1.570754 1_564
O21 P2 1.570754 1_546
O22 P5 1.570754 1_455
O23 P4 1.570754 1_655
