# generated using pymatgen
data_InGa2N3
_symmetry_space_group_name_H-M   'P 1'
_cell_length_a   5.77714723
_cell_length_b   5.77304102
_cell_length_c   5.39030300
_cell_angle_alpha   90.00000000
_cell_angle_beta   90.00000000
_cell_angle_gamma   119.97649285
_symmetry_Int_Tables_number   1
_chemical_formula_structural   InGa2N3
_chemical_formula_sum   'In2 Ga4 N6'
_cell_volume   155.72728561
_cell_formula_units_Z   2
loop_
 _symmetry_equiv_pos_site_id
 _symmetry_equiv_pos_as_xyz
  1  'x, y, z'
loop_
 _atom_site_type_symbol
 _atom_site_label
 _atom_site_symmetry_multiplicity
 _atom_site_fract_x
 _atom_site_fract_y
 _atom_site_fract_z
 _atom_site_occupancy
  In  In0  1  0.00000000  0.67473500  0.48969600  1
  In  In1  1  0.00000000  0.32526500  0.98969600  1
  Ga  Ga0  1  0.34094000  0.33385200  0.49257500  1
  Ga  Ga1  1  0.65906000  0.99291200  0.49257500  1
  Ga  Ga2  1  0.65906000  0.66614800  0.99257500  1
  Ga  Ga3  1  0.34094000  0.00708800  0.99257500  1
  N  N0  1  0.36050400  0.33367900  0.85888300  1
  N  N1  1  0.63949600  0.97317400  0.85888300  1
  N  N2  1  0.63949600  0.66632100  0.35888300  1
  N  N3  1  0.36050400  0.02682600  0.35888300  1
  N  N4  1  0.00000000  0.69255500  0.89538900  1
  N  N5  1  0.00000000  0.30744500  0.39538900  1
loop_
_geom_bond_atom_site_label_1
_geom_bond_atom_site_label_2
_geom_bond_distance
_geom_bond_site_symmetry_2
In0 N2 2.176244 1_455
In0 N3 2.176247 1_565
In0 N5 2.180464 1_555
In0 N4 2.189227 1_555
In1 N0 2.176244 1_555
In1 N1 2.176247 1_445
In1 N4 2.180464 1_555
In1 N5 2.189227 1_556
Ga0 N2 1.967241 1_555
Ga0 N3 1.968235 1_555
Ga0 N5 1.969055 1_555
Ga0 N0 1.977772 1_555
Ga1 N3 1.967244 1_565
Ga1 N2 1.968241 1_555
Ga1 N5 1.969055 1_665
Ga1 N1 1.977772 1_555
Ga2 N0 1.967241 1_555
Ga2 N1 1.968235 1_555
Ga2 N4 1.969055 1_655
Ga2 N2 1.977772 1_556
Ga3 N1 1.967244 1_545
Ga3 N0 1.968241 1_555
Ga3 N4 1.969055 1_545
Ga3 N3 1.977772 1_556
