# generated using pymatgen
data_Cu3P4Pb3O16
_symmetry_space_group_name_H-M   'P 1'
_cell_length_a   9.29311791
_cell_length_b   9.29311791
_cell_length_c   18.12942481
_cell_angle_alpha   65.01748039
_cell_angle_beta   65.01748039
_cell_angle_gamma   31.16271340
_symmetry_Int_Tables_number   1
_chemical_formula_structural   Cu3P4Pb3O16
_chemical_formula_sum   'Cu6 P8 Pb6 O32'
_cell_volume   728.16993301
_cell_formula_units_Z   2
loop_
 _symmetry_equiv_pos_site_id
 _symmetry_equiv_pos_as_xyz
  1  'x, y, z'
loop_
 _atom_site_type_symbol
 _atom_site_label
 _atom_site_symmetry_multiplicity
 _atom_site_fract_x
 _atom_site_fract_y
 _atom_site_fract_z
 _atom_site_occupancy
  Cu  Cu0  1  0.50000000  0.00000000  0.50000000  1
  Cu  Cu1  1  0.00000000  0.50000000  0.00000000  1
  Cu  Cu2  1  0.99604300  0.55407500  0.35281600  1
  Cu  Cu3  1  0.44592500  0.00395700  0.14718400  1
  Cu  Cu4  1  0.00395700  0.44592500  0.64718400  1
  Cu  Cu5  1  0.55407500  0.99604300  0.85281600  1
  P  P0  1  0.10851300  0.62114600  0.46991300  1
  P  P1  1  0.37885400  0.89148700  0.03008700  1
  P  P2  1  0.89148700  0.37885400  0.53008700  1
  P  P3  1  0.62114600  0.10851300  0.96991300  1
  P  P4  1  0.87689200  0.42438800  0.26192200  1
  P  P5  1  0.57561200  0.12310800  0.23807800  1
  P  P6  1  0.12310800  0.57561200  0.73807800  1
  P  P7  1  0.42438800  0.87689200  0.76192200  1
  Pb  Pb0  1  0.21163000  0.78837000  0.25000000  1
  Pb  Pb1  1  0.78837000  0.21163000  0.75000000  1
  Pb  Pb2  1  0.30305400  0.91126000  0.40523600  1
  Pb  Pb3  1  0.08874000  0.69694600  0.09476400  1
  Pb  Pb4  1  0.69694600  0.08874000  0.59476400  1
  Pb  Pb5  1  0.91126000  0.30305400  0.90523600  1
  O  O0  1  0.85796000  0.72816700  0.53694500  1
  O  O1  1  0.27183300  0.14204000  0.96305500  1
  O  O2  1  0.14204000  0.27183300  0.46305500  1
  O  O3  1  0.72816700  0.85796000  0.03694500  1
  O  O4  1  0.04931400  0.68596300  0.38493600  1
  O  O5  1  0.31403700  0.95068600  0.11506400  1
  O  O6  1  0.95068600  0.31403700  0.61506400  1
  O  O7  1  0.68596300  0.04931400  0.88493600  1
  O  O8  1  0.38783700  0.30100400  0.49454000  1
  O  O9  1  0.69899600  0.61216300  0.00546000  1
  O  O10  1  0.61216300  0.69899600  0.50546000  1
  O  O11  1  0.30100400  0.38783700  0.99454000  1
  O  O12  1  0.11478300  0.77814400  0.47286900  1
  O  O13  1  0.22185600  0.88521700  0.02713100  1
  O  O14  1  0.88521700  0.22185600  0.52713100  1
  O  O15  1  0.77814400  0.11478300  0.97286900  1
  O  O16  1  0.55852000  0.72193500  0.25845500  1
  O  O17  1  0.27806500  0.44148000  0.24154500  1
  O  O18  1  0.44148000  0.27806500  0.74154500  1
  O  O19  1  0.72193500  0.55852000  0.75845500  1
  O  O20  1  0.96372500  0.39094900  0.33319000  1
  O  O21  1  0.60905100  0.03627500  0.16681000  1
  O  O22  1  0.03627500  0.60905100  0.66681000  1
  O  O23  1  0.39094900  0.96372500  0.83319000  1
  O  O24  1  0.04376400  0.39067200  0.17788500  1
  O  O25  1  0.60932800  0.95623600  0.32211500  1
  O  O26  1  0.95623600  0.60932800  0.82211500  1
  O  O27  1  0.39067200  0.04376400  0.67788500  1
  O  O28  1  0.93408900  0.19724800  0.29189400  1
  O  O29  1  0.80275200  0.06591100  0.20810600  1
  O  O30  1  0.06591100  0.80275200  0.70810600  1
  O  O31  1  0.19724800  0.93408900  0.79189400  1
loop_
_geom_bond_atom_site_label_1
_geom_bond_atom_site_label_2
_geom_bond_distance
_geom_bond_site_symmetry_2
Cu0 O10 1.945323 1_545
Cu0 O8 1.945323 1_555
Cu0 O2 1.991808 1_555
Cu0 O0 1.991808 1_545
Cu1 O9 1.945323 1_455
Cu1 O11 1.945323 1_554
Cu1 O1 1.991808 1_554
Cu1 O3 1.991808 1_455
Cu2 O20 1.959583 1_555
Cu2 O4 1.992781 1_655
Cu2 O25 2.034482 1_555
Cu2 O2 2.118247 1_655
Cu2 O17 2.158014 1_655
Cu3 O21 1.959583 1_555
Cu3 O5 1.992781 1_545
Cu3 O24 2.034482 1_555
Cu3 O3 2.118247 1_545
Cu3 O16 2.158014 1_545
Cu4 O22 1.959583 1_555
Cu4 O6 1.992781 1_455
Cu4 O27 2.034482 1_555
Cu4 O0 2.118247 1_455
Cu4 O19 2.158014 1_455
Cu5 O23 1.959583 1_555
Cu5 O7 1.992781 1_565
Cu5 O26 2.034482 1_555
Cu5 O1 2.118247 1_565
Cu5 O18 2.158014 1_565
O0 P0 1.598476 1_655
O0 Pb4 2.761718 1_565
O1 P1 1.598476 1_546
O1 Pb5 2.761718 1_455
O2 P2 1.598476 1_455
O2 Pb2 2.761718 1_545
O3 P3 1.598476 1_564
O3 Pb3 2.761718 1_655
O4 P0 1.550426 1_555
O4 Pb0 2.557107 1_555
O5 P1 1.550426 1_555
O5 Pb0 2.557107 1_555
O6 P2 1.550426 1_555
O6 Pb1 2.557107 1_555
O7 P3 1.550426 1_555
O7 Pb1 2.557107 1_555
O8 P0 1.558508 1_555
O8 Pb4 2.669852 1_555
O9 P1 1.558508 1_555
O9 Pb5 2.669852 1_554
O10 P2 1.558508 1_555
O10 Pb2 2.669852 1_555
O11 P3 1.558508 1_555
O11 Pb3 2.669852 1_556
O12 P0 1.532685 1_555
O12 Pb2 2.589550 1_555
O12 Pb4 2.692784 1_465
O13 P1 1.532685 1_555
O13 Pb3 2.589550 1_555
O13 Pb5 2.692784 1_464
O14 P2 1.532685 1_555
O14 Pb4 2.589550 1_555
O14 Pb2 2.692784 1_645
O15 P3 1.532685 1_555
O15 Pb5 2.589550 1_555
O15 Pb3 2.692784 1_646
O16 P4 1.553298 1_555
O16 Pb2 2.698684 1_555
O16 Pb0 2.779954 1_555
O17 P5 1.553298 1_555
O17 Pb3 2.698684 1_555
O17 Pb0 2.779954 1_555
O18 P6 1.553298 1_555
O18 Pb4 2.698684 1_555
O18 Pb1 2.779954 1_555
O19 P7 1.553298 1_555
O19 Pb5 2.698684 1_555
O19 Pb1 2.779954 1_555
O20 P4 1.590441 1_555
O20 Pb2 2.454641 1_645
O21 P5 1.590441 1_555
O21 Pb3 2.454641 1_645
O22 P6 1.590441 1_555
O22 Pb4 2.454641 1_465
O23 P7 1.590441 1_555
O23 Pb5 2.454641 1_465
O24 P4 1.549253 1_455
O25 P5 1.549253 1_565
O26 P6 1.549253 1_655
O27 P7 1.549253 1_545
O28 P4 1.545439 1_555
O28 Pb0 2.382847 1_645
O29 P5 1.545439 1_555
O29 Pb0 2.382847 1_645
O30 P6 1.545439 1_555
O30 Pb1 2.382847 1_465
O31 P7 1.545439 1_555
O31 Pb1 2.382847 1_465
