# generated using pymatgen
data_Li3MnV(PO4)3
_symmetry_space_group_name_H-M   'P 1'
_cell_length_a   8.70793500
_cell_length_b   8.80660813
_cell_length_c   12.20026101
_cell_angle_alpha   89.80306155
_cell_angle_beta   88.92893804
_cell_angle_gamma   89.80096809
_symmetry_Int_Tables_number   1
_chemical_formula_structural   Li3MnV(PO4)3
_chemical_formula_sum   'Li12 Mn4 V4 P12 O48'
_cell_volume   935.43151127
_cell_formula_units_Z   4
loop_
 _symmetry_equiv_pos_site_id
 _symmetry_equiv_pos_as_xyz
  1  'x, y, z'
loop_
 _atom_site_type_symbol
 _atom_site_label
 _atom_site_symmetry_multiplicity
 _atom_site_fract_x
 _atom_site_fract_y
 _atom_site_fract_z
 _atom_site_occupancy
  Li  Li0  1  0.07631900  0.90429200  0.30238200  1
  Li  Li1  1  0.07846300  0.29572900  0.24136500  1
  Li  Li2  1  0.21095500  0.22810200  0.82132900  1
  Li  Li3  1  0.29071200  0.72697200  0.67728500  1
  Li  Li4  1  0.42043800  0.79606700  0.25792100  1
  Li  Li5  1  0.42320900  0.40567700  0.19752700  1
  Li  Li6  1  0.57973600  0.59430500  0.80274100  1
  Li  Li7  1  0.58126400  0.20485400  0.74040100  1
  Li  Li8  1  0.70999200  0.27424700  0.32298700  1
  Li  Li9  1  0.78863500  0.77268400  0.17699000  1
  Li  Li10  1  0.91566200  0.70238700  0.75993100  1
  Li  Li11  1  0.92172700  0.09713700  0.69821900  1
  Mn  Mn0  1  0.25288600  0.04292900  0.61019900  1
  Mn  Mn1  1  0.74655900  0.95774800  0.38942400  1
  Mn  Mn2  1  0.75285500  0.45750600  0.11035300  1
  Mn  Mn3  1  0.75408400  0.53392000  0.60560400  1
  V  V0  1  0.24590400  0.46851200  0.38956300  1
  V  V1  1  0.24713200  0.54177400  0.88852900  1
  V  V2  1  0.25404900  0.96911500  0.10971500  1
  V  V3  1  0.74623600  0.03160500  0.89082100  1
  P  P0  1  0.03662300  0.74895600  0.50604600  1
  P  P1  1  0.10412000  0.61239900  0.14752600  1
  P  P2  1  0.10745300  0.90159000  0.84916700  1
  P  P3  1  0.39419500  0.11124700  0.35447700  1
  P  P4  1  0.39833800  0.40421300  0.64905400  1
  P  P5  1  0.46092400  0.25295500  0.99328900  1
  P  P6  1  0.53863000  0.75007400  0.00507200  1
  P  P7  1  0.60449900  0.59699200  0.34511600  1
  P  P8  1  0.60643600  0.88759200  0.64491800  1
  P  P9  1  0.89307000  0.09681300  0.15200700  1
  P  P10  1  0.89388700  0.38808500  0.85761300  1
  P  P11  1  0.96012200  0.25161800  0.49490400  1
  O  O0  1  0.04952900  0.13614500  0.56731000  1
  O  O1  1  0.06585200  0.32777800  0.40721400  1
  O  O2  1  0.06881500  0.40599200  0.83491600  1
  O  O3  1  0.07233700  0.10034400  0.15386400  1
  O  O4  1  0.11204600  0.63969700  0.42287300  1
  O  O5  1  0.14691200  0.58641200  0.02700400  1
  O  O6  1  0.14859100  0.77764900  0.18131700  1
  O  O7  1  0.15440000  0.02520800  0.76026600  1
  O  O8  1  0.15783100  0.74013200  0.81207500  1
  O  O9  1  0.16205000  0.82802300  0.57131400  1
  O  O10  1  0.17182100  0.94980000  0.95747700  1
  O  O11  1  0.19207400  0.49144900  0.21728600  1
  O  O12  1  0.30636000  0.99153500  0.28521800  1
  O  O13  1  0.33142800  0.44947100  0.54034900  1
  O  O14  1  0.33310300  0.33542500  0.92955400  1
  O  O15  1  0.34985400  0.24451000  0.69028000  1
  O  O16  1  0.35125500  0.27650200  0.31944600  1
  O  O17  1  0.35228400  0.52769200  0.73651900  1
  O  O18  1  0.35675100  0.08855800  0.47690200  1
  O  O19  1  0.38369900  0.14203200  0.07523200  1
  O  O20  1  0.42513800  0.60138400  0.34347100  1
  O  O21  1  0.43068200  0.90511800  0.66595300  1
  O  O22  1  0.43362500  0.82802700  0.09271500  1
  O  O23  1  0.44937100  0.63723100  0.93347400  1
  O  O24  1  0.54946700  0.36529800  0.06556200  1
  O  O25  1  0.56442600  0.17444400  0.90571300  1
  O  O26  1  0.56996600  0.09305100  0.33358400  1
  O  O27  1  0.57882300  0.39841300  0.65098100  1
  O  O28  1  0.61313700  0.86156400  0.92182700  1
  O  O29  1  0.64297300  0.91003600  0.52245500  1
  O  O30  1  0.64920600  0.47247300  0.25649500  1
  O  O31  1  0.65060500  0.72185900  0.67969500  1
  O  O32  1  0.65257800  0.75730000  0.30631800  1
  O  O33  1  0.66718600  0.67084400  0.06806800  1
  O  O34  1  0.67129200  0.54694200  0.45199900  1
  O  O35  1  0.69415000  0.00739300  0.71437300  1
  O  O36  1  0.80376500  0.51006400  0.79322000  1
  O  O37  1  0.82716300  0.04935800  0.04374800  1
  O  O38  1  0.83248300  0.17252000  0.43195000  1
  O  O39  1  0.84438600  0.25613300  0.19219500  1
  O  O40  1  0.84810600  0.97198900  0.24060600  1
  O  O41  1  0.85083400  0.22280800  0.82158300  1
  O  O42  1  0.86194800  0.40448300  0.98168300  1
  O  O43  1  0.88982300  0.36205300  0.58067100  1
  O  O44  1  0.92845200  0.89763400  0.84595700  1
  O  O45  1  0.92916200  0.59537600  0.16839700  1
  O  O46  1  0.93187700  0.66998200  0.59436600  1
  O  O47  1  0.94727200  0.86377300  0.43405100  1
loop_
_geom_bond_atom_site_label_1
_geom_bond_atom_site_label_2
_geom_bond_distance
_geom_bond_site_symmetry_2
Li0 O6 1.947627 1_555
Li0 O47 1.975342 1_455
Li0 O12 2.154252 1_555
Li0 O40 2.217513 1_455
Li0 O3 2.499161 1_565
Li1 O11 2.008345 1_555
Li1 O3 2.029435 1_555
Li1 O1 2.044817 1_555
Li1 O39 2.165255 1_455
Li2 O14 1.958604 1_555
Li2 O15 1.991839 1_555
Li2 O2 1.998598 1_555
Li2 O7 2.004794 1_555
Li3 O9 1.938567 1_555
Li3 O17 1.972033 1_555
Li3 O21 1.992870 1_555
Li3 O8 1.996469 1_555
Li4 O20 2.004834 1_555
Li4 O12 2.010141 1_555
Li4 O22 2.035324 1_555
Li4 O32 2.142414 1_555
Li4 O6 2.567089 1_555
Li5 O16 1.964097 1_555
Li5 O24 1.965300 1_555
Li5 O11 2.156902 1_555
Li5 O30 2.190978 1_555
Li5 O20 2.482655 1_555
Li6 O31 1.963378 1_555
Li6 O23 1.977128 1_555
Li6 O36 2.086068 1_555
Li6 O17 2.234046 1_555
Li6 O27 2.535130 1_555
Li7 O35 2.017764 1_555
Li7 O27 2.020917 1_555
Li7 O25 2.036273 1_555
Li7 O15 2.143883 1_555
Li8 O38 1.935391 1_555
Li8 O39 1.967720 1_555
Li8 O30 1.996402 1_555
Li8 O26 2.013960 1_555
Li9 O33 1.938055 1_555
Li9 O32 1.959942 1_555
Li9 O45 1.982350 1_555
Li9 O40 1.995497 1_555
Li10 O36 1.993738 1_555
Li10 O44 2.022029 1_555
Li10 O46 2.043169 1_555
Li10 O8 2.240243 1_655
Li10 O31 2.528940 1_555
Li11 O0 1.959536 1_655
Li11 O41 1.960402 1_555
Li11 O35 2.141477 1_555
Li11 O7 2.263737 1_655
Li11 O44 2.514069 1_545
Mn0 O18 1.888720 1_555
Mn0 O7 2.012995 1_555
Mn0 O0 2.026103 1_555
Mn0 O21 2.086458 1_545
Mn0 O9 2.112639 1_545
Mn0 O15 2.207310 1_555
Mn1 O29 1.888803 1_555
Mn1 O40 2.008310 1_555
Mn1 O47 2.014592 1_555
Mn1 O26 2.066276 1_565
Mn1 O38 2.106549 1_565
Mn1 O32 2.206196 1_555
Mn2 O42 1.879095 1_554
Mn2 O30 1.987867 1_555
Mn2 O24 2.035685 1_555
Mn2 O33 2.085779 1_555
Mn2 O45 2.095767 1_555
Mn2 O39 2.187470 1_555
Mn3 O43 1.938516 1_555
Mn3 O46 1.963509 1_555
Mn3 O27 2.009050 1_555
Mn3 O34 2.023198 1_555
Mn3 O31 2.082761 1_555
Mn3 O36 2.346005 1_555
O0 P11 1.560340 1_455
O1 P11 1.550683 1_455
O1 V0 2.009914 1_555
O2 P10 1.551604 1_455
O2 V1 2.079681 1_555
O3 P9 1.562052 1_455
O3 V2 2.022183 1_545
O4 P0 1.537621 1_555
O4 V0 1.941872 1_555
O5 P1 1.527921 1_555
O5 V1 1.928055 1_554
O6 P1 1.565824 1_555
O6 V2 2.102433 1_555
O7 P2 1.583378 1_545
O8 P2 1.552963 1_555
O8 V1 2.129024 1_555
O9 P0 1.534098 1_555
O10 P2 1.507898 1_555
O10 V2 2.010996 1_556
O11 P1 1.567797 1_555
O11 V0 2.170587 1_555
O12 P3 1.564080 1_565
O12 V2 2.207066 1_555
O13 P4 1.510252 1_555
O13 V0 2.003801 1_555
O14 P5 1.547215 1_555
O14 V1 2.027710 1_555
O15 P4 1.549396 1_555
O16 P3 1.561536 1_555
O16 V0 2.098226 1_555
O17 P4 1.571934 1_555
O17 V1 2.056821 1_555
O18 P3 1.535359 1_555
O19 P5 1.542281 1_554
O19 V2 1.939158 1_545
O20 P7 1.562711 1_555
O20 V0 2.024054 1_555
O21 P8 1.554323 1_555
O22 P6 1.553974 1_555
O22 V2 2.002063 1_555
O23 P6 1.546430 1_556
O23 V1 2.039203 1_555
O24 P5 1.545158 1_554
O25 P5 1.548131 1_555
O25 V3 2.024564 1_555
O26 P3 1.554795 1_555
O27 P4 1.572916 1_555
O28 P6 1.545760 1_556
O28 V3 1.928899 1_565
O29 P8 1.534017 1_555
O30 P7 1.585090 1_555
O31 P8 1.567218 1_555
O32 P7 1.544195 1_555
O33 P6 1.534205 1_555
O34 P7 1.501869 1_555
O35 P8 1.565404 1_545
O35 V3 2.219387 1_555
O36 P10 1.548677 1_555
O37 P9 1.510733 1_555
O37 V3 2.013455 1_554
O38 P11 1.533454 1_555
O39 P9 1.543227 1_555
O40 P9 1.584022 1_565
O41 P10 1.570572 1_555
O41 V3 2.085817 1_555
O42 P10 1.541083 1_555
O43 P11 1.547395 1_555
O44 P2 1.560466 1_655
O44 V3 2.041630 1_565
O45 P1 1.547661 1_655
O46 P0 1.561811 1_655
O47 P0 1.553478 1_655
