# generated using pymatgen
data_Cd41Ir8
_symmetry_space_group_name_H-M   'P 1'
_cell_length_a   10.16832076
_cell_length_b   10.16832129
_cell_length_c   10.16832019
_cell_angle_alpha   94.81852732
_cell_angle_beta   94.81853004
_cell_angle_gamma   94.81852289
_symmetry_Int_Tables_number   1
_chemical_formula_structural   Cd41Ir8
_chemical_formula_sum   'Cd41 Ir8'
_cell_volume   1039.53388205
_cell_formula_units_Z   1
loop_
 _symmetry_equiv_pos_site_id
 _symmetry_equiv_pos_as_xyz
  1  'x, y, z'
loop_
 _atom_site_type_symbol
 _atom_site_label
 _atom_site_symmetry_multiplicity
 _atom_site_fract_x
 _atom_site_fract_y
 _atom_site_fract_z
 _atom_site_occupancy
  Cd  Cd0  1  -0.00000000  0.00000000  0.00000000  1
  Cd  Cd1  1  0.50000000  0.50000000  0.50000000  1
  Cd  Cd2  1  0.50000000  0.00000000  0.50000000  1
  Cd  Cd3  1  -0.00000000  0.50000000  0.50000000  1
  Cd  Cd4  1  0.50000000  0.50000000  0.00000000  1
  Cd  Cd5  1  0.44896198  0.77752423  0.07531017  1
  Cd  Cd6  1  0.77752423  0.07531017  0.44896198  1
  Cd  Cd7  1  0.07531017  0.44896198  0.77752423  1
  Cd  Cd8  1  0.55103802  0.22247577  0.92468983  1
  Cd  Cd9  1  0.22247577  0.92468983  0.55103802  1
  Cd  Cd10  1  0.92468983  0.55103802  0.22247577  1
  Cd  Cd11  1  0.05017186  0.73025538  0.87091319  1
  Cd  Cd12  1  0.73025538  0.87091319  0.05017186  1
  Cd  Cd13  1  0.87091319  0.05017186  0.73025538  1
  Cd  Cd14  1  0.94982814  0.26974462  0.12908681  1
  Cd  Cd15  1  0.26974462  0.12908681  0.94982814  1
  Cd  Cd16  1  0.12908681  0.94982814  0.26974462  1
  Cd  Cd17  1  0.17795045  0.68008911  0.12820582  1
  Cd  Cd18  1  0.68008911  0.12820582  0.17795045  1
  Cd  Cd19  1  0.12820582  0.17795045  0.68008911  1
  Cd  Cd20  1  0.82204955  0.31991089  0.87179418  1
  Cd  Cd21  1  0.31991089  0.87179418  0.82204955  1
  Cd  Cd22  1  0.87179418  0.82204955  0.31991089  1
  Cd  Cd23  1  0.36565168  0.38958821  0.73769662  1
  Cd  Cd24  1  0.38958821  0.73769662  0.36565168  1
  Cd  Cd25  1  0.73769662  0.36565168  0.38958821  1
  Cd  Cd26  1  0.63434832  0.61041179  0.26230338  1
  Cd  Cd27  1  0.61041179  0.26230338  0.63434832  1
  Cd  Cd28  1  0.26230338  0.63434832  0.61041179  1
  Cd  Cd29  1  0.59683985  0.96463156  0.78318042  1
  Cd  Cd30  1  0.96463156  0.78318042  0.59683985  1
  Cd  Cd31  1  0.78318042  0.59683985  0.96463156  1
  Cd  Cd32  1  0.40316015  0.03536844  0.21681958  1
  Cd  Cd33  1  0.03536844  0.21681958  0.40316015  1
  Cd  Cd34  1  0.21681958  0.40316015  0.03536844  1
  Cd  Cd35  1  0.53784239  0.66849760  0.77492759  1
  Cd  Cd36  1  0.66849760  0.77492759  0.53784239  1
  Cd  Cd37  1  0.77492759  0.53784239  0.66849760  1
  Cd  Cd38  1  0.46215761  0.33150240  0.22507241  1
  Cd  Cd39  1  0.33150240  0.22507241  0.46215761  1
  Cd  Cd40  1  0.22507241  0.46215761  0.33150240  1
  Ir  Ir0  1  0.28580237  0.61683077  0.88993119  1
  Ir  Ir1  1  0.61683077  0.88993119  0.28580237  1
  Ir  Ir2  1  0.88993119  0.28580237  0.61683077  1
  Ir  Ir3  1  0.71419763  0.38316923  0.11006881  1
  Ir  Ir4  1  0.38316923  0.11006881  0.71419763  1
  Ir  Ir5  1  0.11006881  0.71419763  0.38316923  1
  Ir  Ir6  1  0.80706504  0.80706504  0.80706504  1
  Ir  Ir7  1  0.19293496  0.19293496  0.19293496  1
loop_
_geom_bond_atom_site_label_1
_geom_bond_atom_site_label_2
_geom_bond_distance
_geom_bond_site_symmetry_2
Cd0 Cd16 3.041240 1_545
Cd0 Cd13 3.041240 1_454
Cd0 Cd14 3.041240 1_455
Cd0 Cd11 3.041240 1_544
Cd0 Cd15 3.041240 1_554
Cd0 Cd12 3.041240 1_445
Cd0 Ir6 3.099434 1_444
Cd0 Ir7 3.099434 1_555
Cd1 Cd28 3.117911 1_555
Cd1 Cd25 3.117911 1_555
Cd1 Cd24 3.117911 1_555
Cd1 Cd27 3.117911 1_555
Cd1 Cd26 3.117911 1_555
Cd1 Cd23 3.117911 1_555
Cd1 Cd40 3.130902 1_555
Cd1 Cd37 3.130902 1_555
Cd1 Cd38 3.130902 1_555
Cd1 Cd35 3.130902 1_555
Cd1 Cd39 3.130903 1_555
Cd1 Cd36 3.130903 1_555
Cd2 Ir1 2.766996 1_545
Cd2 Ir4 2.766996 1_555
Cd3 Ir2 2.766996 1_455
Cd3 Ir5 2.766996 1_555
Cd4 Ir0 2.766996 1_554
Cd4 Ir3 2.766996 1_555
Cd5 Ir1 2.729220 1_555
Cd5 Ir0 2.734467 1_554
Cd6 Ir2 2.729220 1_555
Cd6 Ir1 2.734467 1_545
Cd7 Ir0 2.729220 1_555
Cd7 Ir2 2.734467 1_455
Cd8 Ir4 2.729220 1_555
Cd8 Ir3 2.734467 1_556
Cd9 Ir5 2.729220 1_555
Cd9 Ir4 2.734467 1_565
Cd10 Ir3 2.729220 1_555
Cd10 Ir5 2.734467 1_655
Cd11 Ir6 2.698545 1_455
Cd11 Ir0 2.744470 1_555
Cd12 Ir6 2.698545 1_554
Cd12 Ir1 2.744470 1_555
Cd13 Ir6 2.698545 1_545
Cd13 Ir2 2.744470 1_555
Cd14 Ir7 2.698545 1_655
Cd14 Ir3 2.744470 1_555
Cd15 Ir7 2.698545 1_556
Cd15 Ir4 2.744470 1_555
Cd16 Ir7 2.698545 1_565
Cd16 Ir5 2.744470 1_555
Cd17 Ir5 2.740042 1_555
Cd17 Ir0 2.791009 1_554
Cd18 Ir3 2.740042 1_555
Cd18 Ir1 2.791009 1_545
Cd19 Ir4 2.740042 1_555
Cd19 Ir2 2.791009 1_455
Cd20 Ir2 2.740042 1_555
Cd20 Ir3 2.791009 1_556
Cd21 Ir0 2.740042 1_555
Cd21 Ir4 2.791009 1_565
Cd22 Ir1 2.740042 1_555
Cd22 Ir5 2.791009 1_655
Cd23 Ir4 2.853993 1_555
Cd23 Ir0 2.884457 1_555
Cd24 Ir5 2.853993 1_555
Cd24 Ir1 2.884457 1_555
Cd25 Ir3 2.853993 1_555
Cd25 Ir2 2.884457 1_555
Cd26 Ir1 2.853993 1_555
Cd26 Ir3 2.884457 1_555
Cd27 Ir2 2.853993 1_555
Cd27 Ir4 2.884457 1_555
Cd28 Ir0 2.853993 1_555
Cd28 Ir5 2.884457 1_555
Cd29 Ir6 2.783705 1_555
Cd29 Ir4 2.803133 1_565
Cd30 Ir6 2.783705 1_555
Cd30 Ir5 2.803133 1_655
Cd31 Ir6 2.783705 1_555
Cd31 Ir3 2.803133 1_556
Cd32 Ir7 2.783705 1_555
Cd32 Ir1 2.803133 1_545
Cd33 Ir7 2.783705 1_555
Cd33 Ir2 2.803133 1_455
Cd34 Ir7 2.783705 1_555
Cd34 Ir0 2.803133 1_554
Cd35 Ir0 2.931221 1_555
Cd35 Ir6 2.951364 1_555
Cd36 Ir1 2.931221 1_555
Cd36 Ir6 2.951364 1_555
Cd37 Ir2 2.931221 1_555
Cd37 Ir6 2.951364 1_555
Cd38 Ir3 2.931221 1_555
Cd38 Ir7 2.951364 1_555
Cd39 Ir4 2.931221 1_555
Cd39 Ir7 2.951364 1_555
Cd40 Ir5 2.931221 1_555
Cd40 Ir7 2.951364 1_555
