# generated using pymatgen
data_DyAlFe2
_symmetry_space_group_name_H-M   'P 1'
_cell_length_a   5.27242289
_cell_length_b   5.27242289
_cell_length_c   16.20375400
_cell_angle_alpha   89.99993312
_cell_angle_beta   90.00006688
_cell_angle_gamma   119.98512844
_symmetry_Int_Tables_number   1
_chemical_formula_structural   DyAlFe2
_chemical_formula_sum   'Dy6 Al6 Fe12'
_cell_volume   390.15017739
_cell_formula_units_Z   6
loop_
 _symmetry_equiv_pos_site_id
 _symmetry_equiv_pos_as_xyz
  1  'x, y, z'
loop_
 _atom_site_type_symbol
 _atom_site_label
 _atom_site_symmetry_multiplicity
 _atom_site_fract_x
 _atom_site_fract_y
 _atom_site_fract_z
 _atom_site_occupancy
  Dy  Dy0  1  0.66667200  0.33332800  0.74003600  1
  Dy  Dy1  1  0.33332800  0.66667200  0.25996400  1
  Dy  Dy2  1  0.66669400  0.33330600  0.53337300  1
  Dy  Dy3  1  0.33330600  0.66669400  0.46662700  1
  Dy  Dy4  1  0.33331100  0.66668900  0.03151400  1
  Dy  Dy5  1  0.66668900  0.33331100  0.96848600  1
  Al  Al0  1  0.83639500  0.67278800  0.13463400  1
  Al  Al1  1  0.83640200  0.16359800  0.13456700  1
  Al  Al2  1  0.32721200  0.16360500  0.13463400  1
  Al  Al3  1  0.16360500  0.32721200  0.86536600  1
  Al  Al4  1  0.16359800  0.83640200  0.86543300  1
  Al  Al5  1  0.67278800  0.83639500  0.86536600  1
  Fe  Fe0  1  0.00000000  0.00000000  0.50000000  1
  Fe  Fe1  1  0.00000000  0.00000000  0.00000000  1
  Fe  Fe2  1  0.66675900  0.33324100  0.26150200  1
  Fe  Fe3  1  0.33324100  0.66675900  0.73849800  1
  Fe  Fe4  1  0.00014900  0.99985100  0.73817200  1
  Fe  Fe5  1  0.99985100  0.00014900  0.26182800  1
  Fe  Fe6  1  0.16555600  0.33108200  0.62501300  1
  Fe  Fe7  1  0.16562000  0.83438000  0.62495200  1
  Fe  Fe8  1  0.66891800  0.83444400  0.62501300  1
  Fe  Fe9  1  0.83444400  0.66891800  0.37498700  1
  Fe  Fe10  1  0.83438000  0.16562000  0.37504800  1
  Fe  Fe11  1  0.33108200  0.16555600  0.37498700  1
loop_
_geom_bond_atom_site_label_1
_geom_bond_atom_site_label_2
_geom_bond_distance
_geom_bond_site_symmetry_2
Dy0 Fe4 3.043985 1_545
Dy0 Fe4 3.043985 1_655
Dy0 Fe3 3.044147 1_545
Dy0 Fe3 3.044147 1_655
Dy0 Fe3 3.044800 1_555
Dy0 Fe4 3.045268 1_645
Dy0 Fe6 3.228512 1_555
Dy0 Fe8 3.228512 1_555
Dy0 Fe6 3.228572 1_655
Dy0 Fe8 3.228572 1_545
Dy0 Fe7 3.229594 1_545
Dy0 Fe7 3.229594 1_655
Dy1 Fe5 3.043985 1_455
Dy1 Fe5 3.043985 1_565
Dy1 Fe2 3.044147 1_455
Dy1 Fe2 3.044147 1_565
Dy1 Fe2 3.044800 1_555
Dy1 Fe5 3.045268 1_465
Dy1 Fe9 3.228512 1_555
Dy1 Fe11 3.228512 1_555
Dy1 Fe11 3.228572 1_565
Dy1 Fe9 3.228572 1_455
Dy1 Fe10 3.229594 1_455
Dy1 Fe10 3.229594 1_565
Dy2 Fe10 2.987675 1_555
Dy2 Fe11 2.989259 1_555
Dy2 Fe9 2.989259 1_555
Dy2 Fe6 3.025547 1_655
Dy2 Fe8 3.025547 1_545
Dy2 Fe7 3.025700 1_545
Dy2 Fe7 3.025700 1_655
Dy2 Fe8 3.025793 1_555
Dy2 Fe6 3.025793 1_555
Dy2 Fe0 3.091225 1_655
Dy2 Fe0 3.092267 1_665
Dy2 Fe0 3.092267 1_555
Dy3 Fe7 2.987675 1_555
Dy3 Fe6 2.989259 1_555
Dy3 Fe8 2.989259 1_555
Dy3 Fe11 3.025547 1_565
Dy3 Fe9 3.025547 1_455
Dy3 Fe10 3.025700 1_565
Dy3 Fe10 3.025700 1_455
Dy3 Fe9 3.025793 1_555
Dy3 Fe11 3.025793 1_555
Dy3 Fe0 3.091225 1_565
Dy3 Fe0 3.092267 1_555
Dy3 Fe0 3.092267 1_665
Dy4 Fe1 3.086142 1_565
Dy4 Fe1 3.087119 1_555
Dy4 Fe1 3.087119 1_665
Dy5 Fe1 3.086142 1_656
Dy5 Fe1 3.087119 1_556
Dy5 Fe1 3.087119 1_666
Al0 Fe5 2.546124 1_565
Al0 Fe2 2.574972 1_555
Al0 Al1 2.587740 1_565
Al0 Al2 2.588376 1_665
Al0 Fe1 2.644272 1_665
Al0 Al1 2.684684 1_555
Al0 Al2 2.685232 1_555
Al0 Dy5 3.106686 1_554
Al0 Dy4 3.121123 1_655
Al0 Dy4 3.121439 1_555
Al0 Dy1 3.327808 1_655
Al0 Dy1 3.327898 1_555
Al1 Fe5 2.545563 1_555
Al1 Fe2 2.574915 1_555
Al1 Al2 2.587740 1_655
Al1 Fe1 2.643148 1_655
Al1 Al2 2.684684 1_555
Al1 Dy5 3.105452 1_554
Al1 Dy4 3.121204 1_655
Al1 Dy4 3.121204 1_545
Al1 Dy1 3.328986 1_655
Al1 Dy1 3.328986 1_545
Al2 Fe5 2.546124 1_455
Al2 Fe2 2.574972 1_555
Al2 Fe1 2.644272 1_555
Al2 Dy5 3.106686 1_554
Al2 Dy4 3.121123 1_545
Al2 Dy4 3.121439 1_555
Al2 Dy1 3.327808 1_545
Al2 Dy1 3.327898 1_555
Al3 Fe4 2.546124 1_545
Al3 Fe3 2.574972 1_555
Al3 Al4 2.587740 1_545
Al3 Al5 2.588376 1_445
Al3 Fe1 2.644272 1_556
Al3 Al4 2.684684 1_555
Al3 Al5 2.685232 1_555
Al3 Dy4 3.106686 1_556
Al3 Dy5 3.121123 1_455
Al3 Dy5 3.121439 1_555
Al3 Dy0 3.327808 1_455
Al3 Dy0 3.327898 1_555
Al4 Fe4 2.545563 1_555
Al4 Fe3 2.574915 1_555
Al4 Al5 2.587740 1_455
Al4 Fe1 2.643148 1_566
Al4 Al5 2.684684 1_555
Al4 Dy4 3.105452 1_556
Al4 Dy5 3.121204 1_565
Al4 Dy5 3.121204 1_455
Al4 Dy0 3.328986 1_565
Al4 Dy0 3.328986 1_455
Al5 Fe4 2.546124 1_655
Al5 Fe3 2.574972 1_555
Al5 Fe1 2.644272 1_666
Al5 Dy4 3.106686 1_556
Al5 Dy5 3.121123 1_565
Al5 Dy5 3.121439 1_555
Al5 Dy0 3.327808 1_565
Al5 Dy0 3.327898 1_555
Fe0 Fe7 2.527164 1_545
Fe0 Fe10 2.527164 1_455
Fe0 Fe8 2.527730 1_445
Fe0 Fe6 2.527730 1_555
Fe0 Fe11 2.527730 1_555
Fe0 Fe9 2.527730 1_445
Fe2 Fe9 2.394040 1_555
Fe3 Fe7 2.393305 1_555
Fe3 Fe8 2.394040 1_555
Fe3 Fe6 2.394040 1_555
Fe4 Fe7 2.376721 1_555
Fe4 Fe8 2.377011 1_455
Fe4 Fe6 2.377011 1_565
Fe5 Fe9 2.377011 1_545
Fe6 Fe7 2.618992 1_545
Fe6 Fe8 2.619074 1_445
Fe6 Fe7 2.653431 1_555
Fe6 Fe8 2.654534 1_555
Fe7 Fe8 2.618992 1_455
Fe7 Fe8 2.653431 1_555
Fe10 Fe5 2.376721 1_555
Fe10 Fe2 2.393305 1_555
Fe10 Fe9 2.618992 1_545
Fe10 Fe11 2.618992 1_655
Fe10 Fe11 2.653431 1_555
Fe10 Fe9 2.653431 1_555
Fe11 Fe5 2.377011 1_455
Fe11 Fe2 2.394040 1_555
Fe11 Fe9 2.619074 1_445
Fe11 Fe9 2.654534 1_555
