# generated using pymatgen
data_YCr3Se2ClO8
_symmetry_space_group_name_H-M   'P 1'
_cell_length_a   6.57610700
_cell_length_b   7.18940300
_cell_length_c   9.81227700
_cell_angle_alpha   90.00000000
_cell_angle_beta   90.00000000
_cell_angle_gamma   90.00000000
_symmetry_Int_Tables_number   1
_chemical_formula_structural   YCr3Se2ClO8
_chemical_formula_sum   'Y2 Cr6 Se4 Cl2 O16'
_cell_volume   463.90761275
_cell_formula_units_Z   2
loop_
 _symmetry_equiv_pos_site_id
 _symmetry_equiv_pos_as_xyz
  1  'x, y, z'
loop_
 _atom_site_type_symbol
 _atom_site_label
 _atom_site_symmetry_multiplicity
 _atom_site_fract_x
 _atom_site_fract_y
 _atom_site_fract_z
 _atom_site_occupancy
  Y  Y0  1  0.00000000  0.73855900  0.00000000  1
  Y  Y1  1  0.50000000  0.26144100  0.50000000  1
  Cr  Cr0  1  0.25000000  0.00000000  0.75000000  1
  Cr  Cr1  1  0.25000000  0.00000000  0.25000000  1
  Cr  Cr2  1  0.75000000  0.00000000  0.75000000  1
  Cr  Cr3  1  0.50000000  0.79425600  0.50000000  1
  Cr  Cr4  1  0.00000000  0.20574400  0.00000000  1
  Cr  Cr5  1  0.75000000  0.00000000  0.25000000  1
  Se  Se0  1  0.50000000  0.59067400  0.81141900  1
  Se  Se1  1  0.00000000  0.40932600  0.68858100  1
  Se  Se2  1  0.50000000  0.59067400  0.18858100  1
  Se  Se3  1  0.00000000  0.40932600  0.31141900  1
  Cl  Cl0  1  0.00000000  0.85160700  0.50000000  1
  Cl  Cl1  1  0.50000000  0.14839300  0.00000000  1
  O  O0  1  0.00000000  0.99420300  0.86598800  1
  O  O1  1  0.00000000  0.42827000  0.86539200  1
  O  O2  1  0.50000000  0.57173000  0.36539200  1
  O  O3  1  0.29313500  0.73747500  0.83904000  1
  O  O4  1  0.20686500  0.26252500  0.33904000  1
  O  O5  1  0.79313500  0.26252500  0.33904000  1
  O  O6  1  0.50000000  0.00579700  0.63401200  1
  O  O7  1  0.70686500  0.73747500  0.83904000  1
  O  O8  1  0.70686500  0.73747500  0.16096000  1
  O  O9  1  0.79313500  0.26252500  0.66096000  1
  O  O10  1  0.00000000  0.99420300  0.13401200  1
  O  O11  1  0.50000000  0.00579700  0.36598800  1
  O  O12  1  0.20686500  0.26252500  0.66096000  1
  O  O13  1  0.29313500  0.73747500  0.16096000  1
  O  O14  1  0.50000000  0.57173000  0.63460800  1
  O  O15  1  0.00000000  0.42827000  0.13460800  1
loop_
_geom_bond_atom_site_label_1
_geom_bond_atom_site_label_2
_geom_bond_distance
_geom_bond_site_symmetry_2
Cr0 O0 1.999962 1_545
Cr0 O6 1.999962 1_555
Cr0 O12 2.099062 1_555
Cr0 O3 2.099062 1_545
Cr1 O11 1.999962 1_555
Cr1 O10 1.999962 1_545
Cr1 O13 2.099062 1_545
Cr1 O4 2.099062 1_555
Cr2 O0 1.999962 1_645
Cr2 O6 1.999962 1_555
Cr2 O9 2.099062 1_555
Cr2 O7 2.099062 1_545
Cr3 O11 2.010503 1_565
Cr3 O6 2.010503 1_565
Cr3 O14 2.074607 1_555
Cr3 O2 2.074607 1_555
Cr4 O0 2.010503 1_544
Cr4 O10 2.010503 1_545
Cr4 O1 2.074607 1_554
Cr4 O15 2.074607 1_555
Cr5 O11 1.999962 1_555
Cr5 O10 1.999962 1_645
Cr5 O8 2.099062 1_545
Cr5 O5 2.099062 1_555
Cl0 Cr2 3.139834 1_465
Cl0 Cr5 3.139834 1_465
Cl0 Cr0 3.139834 1_565
Cl0 Cr1 3.139834 1_565
Cl1 Cr2 3.139834 1_554
Cl1 Cr1 3.139834 1_555
Cl1 Cr0 3.139834 1_554
Cl1 Cr5 3.139834 1_555
O0 Y0 2.259891 1_556
O1 Se1 1.740256 1_555
O1 Y0 2.592485 1_556
O2 Se2 1.740256 1_555
O2 Y1 2.592485 1_555
O3 Se0 1.742970 1_555
O3 Y0 2.492086 1_556
O4 Se3 1.742970 1_555
O4 Y1 2.492086 1_555
O5 Se3 1.742970 1_655
O5 Y1 2.492086 1_555
O6 Y1 2.259891 1_555
O7 Se0 1.742970 1_555
O7 Y0 2.492086 1_656
O8 Se2 1.742970 1_555
O8 Y0 2.492086 1_655
O9 Se1 1.742970 1_655
O9 Y1 2.492086 1_555
O10 Y0 2.259891 1_555
O11 Y1 2.259891 1_555
O12 Se1 1.742970 1_555
O12 Y1 2.492086 1_555
O13 Se2 1.742970 1_555
O13 Y0 2.492086 1_555
O14 Se0 1.740256 1_555
O14 Y1 2.592485 1_555
O15 Se3 1.740256 1_555
O15 Y0 2.592485 1_555
