# generated using pymatgen
data_NbCr3(CuS4)2
_symmetry_space_group_name_H-M   'P 1'
_cell_length_a   6.36814737
_cell_length_b   7.31775279
_cell_length_c   12.17509198
_cell_angle_alpha   81.69821935
_cell_angle_beta   85.22742724
_cell_angle_gamma   90.45843762
_symmetry_Int_Tables_number   1
_chemical_formula_structural   NbCr3(CuS4)2
_chemical_formula_sum   'Nb2 Cr6 Cu4 S16'
_cell_volume   559.35865724
_cell_formula_units_Z   2
loop_
 _symmetry_equiv_pos_site_id
 _symmetry_equiv_pos_as_xyz
  1  'x, y, z'
loop_
 _atom_site_type_symbol
 _atom_site_label
 _atom_site_symmetry_multiplicity
 _atom_site_fract_x
 _atom_site_fract_y
 _atom_site_fract_z
 _atom_site_occupancy
  Nb  Nb0  1  0.85873500  0.29641200  0.30123300  1
  Nb  Nb1  1  0.63010300  0.44588800  0.69961300  1
  Cr  Cr0  1  0.15284500  0.70102600  0.70722900  1
  Cr  Cr1  1  0.24574500  0.87882900  0.99820300  1
  Cr  Cr2  1  0.75631800  0.11665700  0.00038600  1
  Cr  Cr3  1  0.36642100  0.56037300  0.29276900  1
  Cr  Cr4  1  0.36552500  0.04266400  0.29366100  1
  Cr  Cr5  1  0.61682500  0.94769100  0.70589800  1
  Cu  Cu0  1  0.13296700  0.19758500  0.70826900  1
  Cu  Cu1  1  0.87591900  0.80286500  0.29228600  1
  Cu  Cu2  1  0.24968900  0.37490900  0.99701200  1
  Cu  Cu3  1  0.74963600  0.63173000  0.00300300  1
  S  S0  1  0.10070100  0.65861800  0.89341400  1
  S  S1  1  0.89200700  0.34643400  0.10919100  1
  S  S2  1  0.09772400  0.14711200  0.89885100  1
  S  S3  1  0.90438200  0.85317100  0.10069100  1
  S  S4  1  0.19088100  0.78057200  0.36810500  1
  S  S5  1  0.81448000  0.21077300  0.62799600  1
  S  S6  1  0.19837100  0.28400500  0.36933000  1
  S  S7  1  0.82265600  0.72228100  0.63263700  1
  S  S8  1  0.30732000  0.96969300  0.63243400  1
  S  S9  1  0.68284800  0.02129500  0.37344400  1
  S  S10  1  0.30186200  0.46454500  0.62594600  1
  S  S11  1  0.68338100  0.54129100  0.37072200  1
  S  S12  1  0.40491700  0.09401300  0.10405500  1
  S  S13  1  0.59556300  0.90636600  0.89515000  1
  S  S14  1  0.39187100  0.60145200  0.10565600  1
  S  S15  1  0.61030900  0.40175000  0.89281500  1
loop_
_geom_bond_atom_site_label_1
_geom_bond_atom_site_label_2
_geom_bond_distance
_geom_bond_site_symmetry_2
Nb0 S1 2.305407 1_555
Nb0 S9 2.317233 1_555
Nb0 S11 2.342327 1_555
Nb0 S6 2.377678 1_655
Nb1 S15 2.320326 1_555
Nb1 S5 2.322550 1_555
Nb1 S10 2.339561 1_555
Nb1 S7 2.361565 1_555
Cr0 S8 2.228285 1_555
Cr0 S0 2.239418 1_555
Cr0 S10 2.288909 1_555
Cr0 S7 2.356368 1_455
Cr1 S2 2.395737 1_565
Cr1 S3 2.406725 1_456
Cr1 S0 2.417353 1_555
Cr1 S12 2.438394 1_566
Cr1 S13 2.456043 1_555
Cr1 S14 2.482622 1_556
Cr2 S3 2.374623 1_545
Cr2 S2 2.402109 1_654
Cr2 S13 2.412490 1_544
Cr2 S12 2.468169 1_555
Cr2 S1 2.477748 1_555
Cr2 S15 2.525247 1_554
Cr3 S4 2.229891 1_555
Cr3 S14 2.246437 1_555
Cr3 S11 2.297696 1_555
Cr3 S6 2.314995 1_555
Cr4 S4 2.243428 1_545
Cr4 S12 2.277015 1_555
Cr4 S9 2.310691 1_555
Cr4 S6 2.331865 1_555
Cr5 S8 2.228791 1_555
Cr5 S13 2.272697 1_555
Cr5 S5 2.329261 1_565
Cr5 S7 2.345089 1_555
Cu0 S8 2.273768 1_545
Cu0 S10 2.280198 1_555
Cu0 S2 2.288091 1_555
Cu0 S5 2.320282 1_455
Cu1 S4 2.274094 1_655
Cu1 S3 2.300086 1_555
Cu1 S11 2.306287 1_555
Cu1 S9 2.308323 1_565
Cu2 S2 2.426010 1_555
Cu2 S14 2.475125 1_556
Cu2 S0 2.505155 1_555
Cu2 S15 2.521471 1_555
Cu2 S12 2.524705 1_556
Cu2 S1 2.547469 1_456
Cu3 S3 2.395323 1_555
Cu3 S13 2.491946 1_554
Cu3 S0 2.497559 1_654
Cu3 S14 2.497980 1_555
Cu3 S15 2.499080 1_554
Cu3 S1 2.509573 1_555
