# generated using pymatgen
data_PuP2H4CO7
_symmetry_space_group_name_H-M   'P 1'
_cell_length_a   8.79602200
_cell_length_b   11.41846200
_cell_length_c   13.86369500
_cell_angle_alpha   90.00000000
_cell_angle_beta   90.00000000
_cell_angle_gamma   90.00000000
_symmetry_Int_Tables_number   1
_chemical_formula_structural   PuP2H4CO7
_chemical_formula_sum   'Pu8 P16 H32 C8 O56'
_cell_volume   1392.42853027
_cell_formula_units_Z   8
loop_
 _symmetry_equiv_pos_site_id
 _symmetry_equiv_pos_as_xyz
  1  'x, y, z'
loop_
 _atom_site_type_symbol
 _atom_site_label
 _atom_site_symmetry_multiplicity
 _atom_site_fract_x
 _atom_site_fract_y
 _atom_site_fract_z
 _atom_site_occupancy
  Pu  Pu0  1  0.33823300  0.27482700  0.64696300  1
  Pu  Pu1  1  0.83823300  0.22517300  0.35303700  1
  Pu  Pu2  1  0.66176700  0.77482700  0.85303700  1
  Pu  Pu3  1  0.16176700  0.72517300  0.14696300  1
  Pu  Pu4  1  0.66176700  0.72517300  0.35303700  1
  Pu  Pu5  1  0.16176700  0.77482700  0.64696300  1
  Pu  Pu6  1  0.33823300  0.22517300  0.14696300  1
  Pu  Pu7  1  0.83823300  0.27482700  0.85303700  1
  P  P0  1  0.00037800  0.47436500  0.67458200  1
  P  P1  1  0.50037800  0.02563500  0.32541800  1
  P  P2  1  0.99962200  0.97436500  0.82541800  1
  P  P3  1  0.49962200  0.52563500  0.17458200  1
  P  P4  1  0.99962200  0.52563500  0.32541800  1
  P  P5  1  0.49962200  0.97436500  0.67458200  1
  P  P6  1  0.00037800  0.02563500  0.17458200  1
  P  P7  1  0.50037800  0.47436500  0.82541800  1
  P  P8  1  0.75268900  0.30600700  0.59750800  1
  P  P9  1  0.25268900  0.19399300  0.40249200  1
  P  P10  1  0.24731100  0.80600700  0.90249200  1
  P  P11  1  0.74731100  0.69399300  0.09750800  1
  P  P12  1  0.24731100  0.69399300  0.40249200  1
  P  P13  1  0.74731100  0.80600700  0.59750800  1
  P  P14  1  0.75268900  0.19399300  0.09750800  1
  P  P15  1  0.25268900  0.30600700  0.90249200  1
  H  H0  1  0.75141700  0.51297500  0.62231000  1
  H  H1  1  0.25141700  0.98702500  0.37769000  1
  H  H2  1  0.24858300  0.01297500  0.87769000  1
  H  H3  1  0.74858300  0.48702500  0.12231000  1
  H  H4  1  0.24858300  0.48702500  0.37769000  1
  H  H5  1  0.74858300  0.01297500  0.62231000  1
  H  H6  1  0.75141700  0.98702500  0.12231000  1
  H  H7  1  0.25141700  0.51297500  0.87769000  1
  H  H8  1  0.86485200  0.47569700  0.52204500  1
  H  H9  1  0.36485200  0.02430300  0.47795500  1
  H  H10  1  0.13514800  0.97569700  0.97795500  1
  H  H11  1  0.63514800  0.52430300  0.02204500  1
  H  H12  1  0.13514800  0.52430300  0.47795500  1
  H  H13  1  0.63514800  0.97569700  0.52204500  1
  H  H14  1  0.86485200  0.02430300  0.02204500  1
  H  H15  1  0.36485200  0.47569700  0.97795500  1
  H  H16  1  0.10088600  0.07225200  0.64627300  1
  H  H17  1  0.60088600  0.42774800  0.35372700  1
  H  H18  1  0.89911400  0.57225200  0.85372700  1
  H  H19  1  0.39911400  0.92774800  0.14627300  1
  H  H20  1  0.89911400  0.92774800  0.35372700  1
  H  H21  1  0.39911400  0.57225200  0.64627300  1
  H  H22  1  0.10088600  0.42774800  0.14627300  1
  H  H23  1  0.60088600  0.07225200  0.85372700  1
  H  H24  1  0.07923000  0.15367300  0.54915300  1
  H  H25  1  0.57923000  0.34632700  0.45084700  1
  H  H26  1  0.92077000  0.65367300  0.95084700  1
  H  H27  1  0.42077000  0.84632700  0.04915300  1
  H  H28  1  0.92077000  0.84632700  0.45084700  1
  H  H29  1  0.42077000  0.65367300  0.54915300  1
  H  H30  1  0.07923000  0.34632700  0.04915300  1
  H  H31  1  0.57923000  0.15367300  0.95084700  1
  C  C0  1  0.83806600  0.45088500  0.59663500  1
  C  C1  1  0.33806600  0.04911500  0.40336500  1
  C  C2  1  0.16193400  0.95088500  0.90336500  1
  C  C3  1  0.66193400  0.54911500  0.09663500  1
  C  C4  1  0.16193400  0.54911500  0.40336500  1
  C  C5  1  0.66193400  0.95088500  0.59663500  1
  C  C6  1  0.83806600  0.04911500  0.09663500  1
  C  C7  1  0.33806600  0.45088500  0.90336500  1
  O  O0  1  0.94742700  0.44732200  0.77840400  1
  O  O1  1  0.44742700  0.05267800  0.22159600  1
  O  O2  1  0.05257300  0.94732200  0.72159600  1
  O  O3  1  0.55257300  0.55267800  0.27840400  1
  O  O4  1  0.05257300  0.55267800  0.22159600  1
  O  O5  1  0.55257300  0.94732200  0.77840400  1
  O  O6  1  0.94742700  0.05267800  0.27840400  1
  O  O7  1  0.44742700  0.44732200  0.72159600  1
  O  O8  1  0.04381800  0.60546600  0.66525800  1
  O  O9  1  0.54381800  0.89453400  0.33474200  1
  O  O10  1  0.95618200  0.10546600  0.83474200  1
  O  O11  1  0.45618200  0.39453400  0.16525800  1
  O  O12  1  0.95618200  0.39453400  0.33474200  1
  O  O13  1  0.45618200  0.10546600  0.66525800  1
  O  O14  1  0.04381800  0.89453400  0.16525800  1
  O  O15  1  0.54381800  0.60546600  0.83474200  1
  O  O16  1  0.13501200  0.39788200  0.64054900  1
  O  O17  1  0.63501200  0.10211800  0.35945100  1
  O  O18  1  0.86498800  0.89788200  0.85945100  1
  O  O19  1  0.36498800  0.60211800  0.14054900  1
  O  O20  1  0.86498800  0.60211800  0.35945100  1
  O  O21  1  0.36498800  0.89788200  0.64054900  1
  O  O22  1  0.13501200  0.10211800  0.14054900  1
  O  O23  1  0.63501200  0.39788200  0.85945100  1
  O  O24  1  0.78266600  0.25075300  0.69825800  1
  O  O25  1  0.28266600  0.24924700  0.30174200  1
  O  O26  1  0.21733400  0.75075300  0.80174200  1
  O  O27  1  0.71733400  0.74924700  0.19825800  1
  O  O28  1  0.21733400  0.74924700  0.30174200  1
  O  O29  1  0.71733400  0.75075300  0.69825800  1
  O  O30  1  0.78266600  0.24924700  0.19825800  1
  O  O31  1  0.28266600  0.25075300  0.80174200  1
  O  O32  1  0.82639700  0.23039400  0.51749800  1
  O  O33  1  0.32639700  0.26960600  0.48250200  1
  O  O34  1  0.17360300  0.73039400  0.98250200  1
  O  O35  1  0.67360300  0.76960600  0.01749800  1
  O  O36  1  0.17360300  0.76960600  0.48250200  1
  O  O37  1  0.67360300  0.73039400  0.51749800  1
  O  O38  1  0.82639700  0.26960600  0.01749800  1
  O  O39  1  0.32639700  0.23039400  0.98250200  1
  O  O40  1  0.58178800  0.32016700  0.57810300  1
  O  O41  1  0.08178800  0.17983300  0.42189700  1
  O  O42  1  0.41821200  0.82016700  0.92189700  1
  O  O43  1  0.91821200  0.67983300  0.07810300  1
  O  O44  1  0.41821200  0.67983300  0.42189700  1
  O  O45  1  0.91821200  0.82016700  0.57810300  1
  O  O46  1  0.58178800  0.17983300  0.07810300  1
  O  O47  1  0.08178800  0.32016700  0.92189700  1
  O  O48  1  0.13449900  0.14387200  0.61155000  1
  O  O49  1  0.63449900  0.35612800  0.38845000  1
  O  O50  1  0.86550100  0.64387200  0.88845000  1
  O  O51  1  0.36550100  0.85612800  0.11155000  1
  O  O52  1  0.86550100  0.85612800  0.38845000  1
  O  O53  1  0.36550100  0.64387200  0.61155000  1
  O  O54  1  0.13449900  0.35612800  0.11155000  1
  O  O55  1  0.63449900  0.14387200  0.88845000  1
loop_
_geom_bond_atom_site_label_1
_geom_bond_atom_site_label_2
_geom_bond_distance
_geom_bond_site_symmetry_2
H16 O48 0.993947 1_555
H17 O49 0.993947 1_555
H18 O50 0.993947 1_555
H19 O51 0.993947 1_555
H20 O52 0.993947 1_555
H21 O53 0.993947 1_555
H22 O54 0.993947 1_555
H23 O55 0.993947 1_555
H24 O48 0.998589 1_555
H25 O49 0.998589 1_555
H26 O50 0.998589 1_555
H27 O51 0.998589 1_555
H28 O52 0.998589 1_555
H29 O53 0.998589 1_555
H30 O54 0.998589 1_555
H31 O55 0.998589 1_555
C0 H8 1.097783 1_555
C0 H0 1.100109 1_555
C0 P0 1.810518 1_655
C0 P8 1.816802 1_555
C1 H9 1.097783 1_555
C1 H1 1.100109 1_545
C1 P1 1.810518 1_555
C1 P9 1.816802 1_555
C2 H10 1.097783 1_555
C2 H2 1.100109 1_565
C2 P2 1.810518 1_455
C2 P10 1.816802 1_555
C3 H11 1.097783 1_555
C3 H3 1.100109 1_555
C3 P3 1.810518 1_555
C3 P11 1.816802 1_555
C4 H12 1.097783 1_555
C4 H4 1.100109 1_555
C4 P4 1.810518 1_455
C4 P12 1.816802 1_555
C5 H13 1.097783 1_555
C5 H5 1.100109 1_565
C5 P5 1.810518 1_555
C5 P13 1.816802 1_555
C6 H14 1.097783 1_555
C6 H6 1.100109 1_545
C6 P6 1.810518 1_655
C6 P14 1.816802 1_555
C7 H15 1.097783 1_555
C7 H7 1.100109 1_555
C7 P7 1.810518 1_555
C7 P15 1.816802 1_555
O0 P0 1.544030 1_655
O0 Pu7 2.423329 1_555
O1 P1 1.544030 1_555
O1 Pu6 2.423329 1_555
O2 P2 1.544030 1_455
O2 Pu5 2.423329 1_555
O3 P3 1.544030 1_555
O3 Pu4 2.423329 1_555
O4 P4 1.544030 1_455
O4 Pu3 2.423329 1_555
O5 P5 1.544030 1_555
O5 Pu2 2.423329 1_555
O6 P6 1.544030 1_655
O6 Pu1 2.423329 1_555
O7 P7 1.544030 1_555
O7 Pu0 2.423329 1_555
O8 P0 1.550366 1_555
O8 Pu5 2.209173 1_555
O9 P1 1.550366 1_565
O9 Pu4 2.209173 1_555
O10 P2 1.550366 1_545
O10 Pu7 2.209173 1_555
O11 P3 1.550366 1_555
O11 Pu6 2.209173 1_555
O12 P4 1.550366 1_555
O12 Pu1 2.209173 1_555
O13 P5 1.550366 1_545
O13 Pu0 2.209173 1_555
O14 P6 1.550366 1_565
O14 Pu3 2.209173 1_555
O15 P7 1.550366 1_555
O15 Pu2 2.209173 1_555
O16 P0 1.545230 1_555
O16 Pu0 2.275411 1_555
O17 P1 1.545230 1_555
O17 Pu1 2.275411 1_555
O18 P2 1.545230 1_555
O18 Pu2 2.275411 1_555
O19 P3 1.545230 1_555
O19 Pu3 2.275411 1_555
O20 P4 1.545230 1_555
O20 Pu4 2.275411 1_555
O21 P5 1.545230 1_555
O21 Pu5 2.275411 1_555
O22 P6 1.545230 1_555
O22 Pu6 2.275411 1_555
O23 P7 1.545230 1_555
O23 Pu7 2.275411 1_555
O24 P8 1.555165 1_555
O24 Pu7 2.217871 1_555
O25 P9 1.555165 1_555
O25 Pu6 2.217871 1_555
O26 P10 1.555165 1_555
O26 Pu5 2.217871 1_555
O27 P11 1.555165 1_555
O27 Pu4 2.217871 1_555
O28 P12 1.555165 1_555
O28 Pu3 2.217871 1_555
O29 P13 1.555165 1_555
O29 Pu2 2.217871 1_555
O30 P14 1.555165 1_555
O30 Pu1 2.217871 1_555
O31 P15 1.555165 1_555
O31 Pu0 2.217871 1_555
O32 P8 1.547958 1_555
O32 Pu1 2.283191 1_555
O33 P9 1.547958 1_555
O33 Pu0 2.283191 1_555
O34 P10 1.547958 1_555
O34 Pu3 2.283191 1_556
O35 P11 1.547958 1_555
O35 Pu2 2.283191 1_554
O36 P12 1.547958 1_555
O36 Pu5 2.283191 1_555
O37 P13 1.547958 1_555
O37 Pu4 2.283191 1_555
O38 P14 1.547958 1_555
O38 Pu7 2.283191 1_554
O39 P15 1.547958 1_555
O39 Pu6 2.283191 1_556
O40 P8 1.535667 1_555
O40 Pu0 2.401855 1_555
O41 P9 1.535667 1_555
O41 Pu1 2.401855 1_455
O42 P10 1.535667 1_555
O42 Pu2 2.401855 1_555
O43 P11 1.535667 1_555
O43 Pu3 2.401855 1_655
O44 P12 1.535667 1_555
O44 Pu4 2.401855 1_555
O45 P13 1.535667 1_555
O45 Pu5 2.401855 1_655
O46 P14 1.535667 1_555
O46 Pu6 2.401855 1_555
O47 P15 1.535667 1_555
O47 Pu7 2.401855 1_455
O48 Pu0 2.385039 1_555
O49 Pu1 2.385039 1_555
O50 Pu2 2.385039 1_555
O51 Pu3 2.385039 1_555
O52 Pu4 2.385039 1_555
O53 Pu5 2.385039 1_555
O54 Pu6 2.385039 1_555
O55 Pu7 2.385039 1_555
