# generated using pymatgen
data_NaLaMg14
_symmetry_space_group_name_H-M   'P 1'
_cell_length_a   6.67182976
_cell_length_b   6.67182917
_cell_length_c   10.39154912
_cell_angle_alpha   90.00000000
_cell_angle_beta   90.00000000
_cell_angle_gamma   120.00000293
_symmetry_Int_Tables_number   1
_chemical_formula_structural   NaLaMg14
_chemical_formula_sum   'Na1 La1 Mg14'
_cell_volume   400.59063089
_cell_formula_units_Z   1
loop_
 _symmetry_equiv_pos_site_id
 _symmetry_equiv_pos_as_xyz
  1  'x, y, z'
loop_
 _atom_site_type_symbol
 _atom_site_label
 _atom_site_symmetry_multiplicity
 _atom_site_fract_x
 _atom_site_fract_y
 _atom_site_fract_z
 _atom_site_occupancy
  Na  Na0  1  0.16666700  0.33333300  0.62500000  1
  La  La0  1  0.16666700  0.33333300  0.12500000  1
  Mg  Mg0  1  0.17447937  0.83723919  0.12500000  1
  Mg  Mg1  1  0.16871094  0.83435497  0.62500000  1
  Mg  Mg2  1  0.66276081  0.32552063  0.12500000  1
  Mg  Mg3  1  0.66564503  0.33128906  0.62500000  1
  Mg  Mg4  1  0.66276081  0.83723919  0.12500000  1
  Mg  Mg5  1  0.66564503  0.83435497  0.62500000  1
  Mg  Mg6  1  0.33653134  0.16346866  0.37779641  1
  Mg  Mg7  1  0.33653134  0.16346866  0.87220359  1
  Mg  Mg8  1  0.33653134  0.67306369  0.37779641  1
  Mg  Mg9  1  0.33653134  0.67306369  0.87220359  1
  Mg  Mg10  1  0.82693631  0.16346866  0.37779641  1
  Mg  Mg11  1  0.82693631  0.16346866  0.87220359  1
  Mg  Mg12  1  0.83333300  0.66666700  0.37196685  1
  Mg  Mg13  1  0.83333300  0.66666700  0.87803315  1
loop_
_geom_bond_atom_site_label_1
_geom_bond_atom_site_label_2
_geom_bond_distance
_geom_bond_site_symmetry_2
La0 Mg7 3.279328 1_554
La0 Mg6 3.279328 1_555
La0 Mg9 3.279335 1_554
La0 Mg8 3.279335 1_555
La0 Mg11 3.279335 1_454
La0 Mg10 3.279335 1_455
La0 Mg0 3.336220 1_545
La0 Mg4 3.336220 1_555
La0 Mg4 3.336220 1_445
La0 Mg0 3.336220 1_555
La0 Mg2 3.336220 1_555
La0 Mg2 3.336220 1_455
Mg0 Mg9 3.233245 1_554
Mg0 Mg8 3.233245 1_555
Mg0 Mg7 3.233252 1_564
Mg0 Mg6 3.233252 1_565
Mg0 Mg13 3.235988 1_454
Mg0 Mg12 3.235988 1_455
Mg0 Mg2 3.257730 1_565
Mg0 Mg4 3.257731 1_555
Mg0 Mg2 3.414099 1_455
Mg0 Mg4 3.414099 1_455
Mg1 Mg8 3.196159 1_555
Mg1 Mg9 3.196159 1_555
Mg1 Mg6 3.196165 1_565
Mg1 Mg7 3.196165 1_565
Mg1 Mg12 3.266323 1_455
Mg1 Mg13 3.266323 1_455
Mg1 Mg3 3.315459 1_565
Mg1 Mg5 3.315460 1_555
Mg1 Na0 3.335935 1_555
Mg1 Na0 3.335935 1_565
Mg1 Mg3 3.356370 1_455
Mg1 Mg5 3.356370 1_455
Mg2 Mg7 3.233252 1_554
Mg2 Mg6 3.233252 1_555
Mg2 Mg4 3.257730 1_545
Mg2 Mg4 3.414099 1_555
Mg3 Mg6 3.196166 1_555
Mg3 Mg7 3.196166 1_555
Mg3 Mg5 3.315459 1_545
Mg3 Na0 3.335936 1_555
Mg3 Na0 3.335936 1_655
Mg3 Mg5 3.356370 1_555
Mg4 Mg9 3.233252 1_554
Mg4 Mg8 3.233252 1_555
Mg5 Mg8 3.196166 1_555
Mg5 Mg9 3.196166 1_555
Mg5 Na0 3.335935 1_555
Mg5 Na0 3.335935 1_665
Mg6 Na0 3.232959 1_555
Mg6 Mg8 3.271898 1_545
Mg6 Mg8 3.399931 1_555
Mg7 Na0 3.232959 1_555
Mg7 Mg9 3.271898 1_545
Mg7 Mg9 3.399931 1_555
Mg8 Na0 3.232966 1_555
Mg9 Na0 3.232966 1_555
Mg10 Mg3 3.196159 1_555
Mg10 Mg5 3.196166 1_545
Mg10 Na0 3.232966 1_655
Mg10 Mg2 3.233245 1_555
Mg10 Mg4 3.233252 1_545
Mg10 Mg8 3.271898 1_545
Mg10 Mg6 3.271898 1_555
Mg10 Mg12 3.336669 1_555
Mg10 Mg12 3.336669 1_545
Mg10 Mg8 3.399931 1_655
Mg10 Mg6 3.399931 1_655
Mg11 Mg3 3.196159 1_555
Mg11 Mg5 3.196166 1_545
Mg11 Na0 3.232966 1_655
Mg11 Mg2 3.233245 1_556
Mg11 Mg4 3.233252 1_546
Mg11 Mg9 3.271898 1_545
Mg11 Mg7 3.271898 1_555
Mg11 Mg13 3.336669 1_555
Mg11 Mg13 3.336669 1_545
Mg11 Mg9 3.399931 1_655
Mg11 Mg7 3.399931 1_655
Mg12 Mg4 3.235981 1_555
Mg12 Mg2 3.235988 1_555
Mg12 Mg5 3.266316 1_555
Mg12 Mg3 3.266323 1_555
Mg12 Mg6 3.336669 1_555
Mg12 Mg6 3.336669 1_665
Mg12 Mg8 3.336670 1_655
Mg12 Mg8 3.336670 1_555
Mg13 Mg4 3.235981 1_556
Mg13 Mg2 3.235988 1_556
Mg13 Mg5 3.266316 1_555
Mg13 Mg3 3.266323 1_555
Mg13 Mg7 3.336669 1_555
Mg13 Mg7 3.336669 1_665
Mg13 Mg9 3.336670 1_655
Mg13 Mg9 3.336670 1_555
