# generated using pymatgen
data_HoB4Rh
_symmetry_space_group_name_H-M   'P 1'
_cell_length_a   3.54602838
_cell_length_b   5.93659696
_cell_length_c   11.51250324
_cell_angle_alpha   90.00000000
_cell_angle_beta   90.00000000
_cell_angle_gamma   90.00000000
_symmetry_Int_Tables_number   1
_chemical_formula_structural   HoB4Rh
_chemical_formula_sum   'Ho4 B16 Rh4'
_cell_volume   242.35363493
_cell_formula_units_Z   4
loop_
 _symmetry_equiv_pos_site_id
 _symmetry_equiv_pos_as_xyz
  1  'x, y, z'
loop_
 _atom_site_type_symbol
 _atom_site_label
 _atom_site_symmetry_multiplicity
 _atom_site_fract_x
 _atom_site_fract_y
 _atom_site_fract_z
 _atom_site_occupancy
  Ho  Ho0  1  0.50000000  0.36913719  0.14879031  1
  Ho  Ho1  1  0.50000000  0.63086281  0.85120969  1
  Ho  Ho2  1  0.50000000  0.13086281  0.64879031  1
  Ho  Ho3  1  0.50000000  0.86913719  0.35120969  1
  B  B0  1  -0.00000000  0.11249162  0.04693320  1
  B  B1  1  -0.00000000  0.88750838  0.95306680  1
  B  B2  1  -0.00000000  0.38750838  0.54693320  1
  B  B3  1  -0.00000000  0.61249162  0.45306680  1
  B  B4  1  -0.00000000  0.13623215  0.46920560  1
  B  B5  1  -0.00000000  0.86376785  0.53079440  1
  B  B6  1  -0.00000000  0.36376785  0.96920560  1
  B  B7  1  -0.00000000  0.63623215  0.03079440  1
  B  B8  1  -0.00000000  0.02312741  0.19249451  1
  B  B9  1  -0.00000000  0.97687259  0.80750549  1
  B  B10  1  -0.00000000  0.47687259  0.69249451  1
  B  B11  1  -0.00000000  0.52312741  0.30750549  1
  B  B12  1  -0.00000000  0.21015204  0.31303054  1
  B  B13  1  -0.00000000  0.78984796  0.68696946  1
  B  B14  1  -0.00000000  0.28984796  0.81303054  1
  B  B15  1  -0.00000000  0.71015204  0.18696946  1
  Rh  Rh0  1  0.50000000  0.35795606  0.40525274  1
  Rh  Rh1  1  0.50000000  0.64204394  0.59474726  1
  Rh  Rh2  1  0.50000000  0.14204394  0.90525274  1
  Rh  Rh3  1  0.50000000  0.85795606  0.09474726  1
loop_
_geom_bond_atom_site_label_1
_geom_bond_atom_site_label_2
_geom_bond_distance
_geom_bond_site_symmetry_2
Ho0 Rh0 2.953271 1_555
Ho0 Rh3 2.967868 1_555
Ho0 Rh3 3.097799 1_545
Ho0 Rh2 3.111017 1_554
Ho1 Rh1 2.953271 1_555
Ho1 Rh2 2.967868 1_555
Ho1 Rh2 3.097799 1_565
Ho1 Rh3 3.111017 1_556
Ho2 Rh2 2.953271 1_555
Ho2 Rh1 2.967868 1_545
Ho2 Rh1 3.097799 1_555
Ho2 Rh0 3.111017 1_555
Ho3 Rh3 2.953271 1_555
Ho3 Rh0 2.967868 1_565
Ho3 Rh0 3.097799 1_555
Ho3 Rh1 3.111017 1_555
B0 B1 1.718050 1_544
B0 B6 1.739535 1_554
B0 B8 1.757746 1_555
B0 Rh3 2.393728 1_545
B0 Rh3 2.393728 1_445
B0 Rh2 2.415540 1_554
B0 Rh2 2.415540 1_454
B0 Ho0 2.615340 1_555
B0 Ho0 2.615340 1_455
B1 B7 1.739535 1_556
B1 B9 1.757746 1_555
B1 Rh2 2.393728 1_565
B1 Rh2 2.393728 1_465
B1 Rh3 2.415540 1_456
B1 Rh3 2.415540 1_556
B1 Ho1 2.615340 1_555
B1 Ho1 2.615340 1_455
B2 B3 1.718050 1_555
B2 B4 1.739535 1_555
B2 Rh1 2.393728 1_455
B2 Rh1 2.393728 1_555
B2 Rh0 2.415540 1_455
B2 Rh0 2.415540 1_555
B2 Ho2 2.615340 1_455
B2 Ho2 2.615340 1_555
B3 B5 1.739535 1_555
B3 Rh0 2.393728 1_555
B3 Rh0 2.393728 1_455
B3 Rh1 2.415540 1_455
B3 Rh1 2.415540 1_555
B3 Ho3 2.615340 1_555
B3 Ho3 2.615340 1_455
B4 B5 1.766092 1_545
B4 Rh0 2.327716 1_555
B4 Rh0 2.327716 1_455
B4 Ho2 2.723789 1_455
B4 Ho2 2.723789 1_555
B4 Ho3 2.739187 1_445
B4 Ho3 2.739187 1_545
B5 Rh1 2.327716 1_555
B5 Rh1 2.327716 1_455
B5 Ho3 2.723789 1_455
B5 Ho3 2.723789 1_555
B5 Ho2 2.739187 1_465
B5 Ho2 2.739187 1_565
B6 B7 1.766092 1_556
B6 Rh2 2.327716 1_455
B6 Rh2 2.327716 1_555
B6 Ho0 2.723789 1_556
B6 Ho0 2.723789 1_456
B6 Ho1 2.739187 1_555
B6 Ho1 2.739187 1_455
B7 Rh3 2.327716 1_455
B7 Rh3 2.327716 1_555
B7 Ho1 2.723789 1_454
B7 Ho1 2.723789 1_554
B7 Ho0 2.739187 1_555
B7 Ho0 2.739187 1_455
B8 Rh3 2.317629 1_545
B8 Rh3 2.317629 1_445
B8 Ho3 2.705179 1_545
B8 Ho3 2.705179 1_445
B8 Ho0 2.759736 1_555
B8 Ho0 2.759736 1_455
B9 Rh2 2.317629 1_565
B9 Rh2 2.317629 1_465
B9 Ho2 2.705179 1_565
B9 Ho2 2.705179 1_465
B9 Ho1 2.759736 1_555
B9 Ho1 2.759736 1_455
B10 B2 1.757746 1_555
B10 B14 1.777182 1_555
B10 B13 1.859097 1_555
B10 Rh1 2.317629 1_455
B10 Rh1 2.317629 1_555
B10 Ho1 2.705179 1_555
B10 Ho1 2.705179 1_455
B10 Ho2 2.759736 1_455
B10 Ho2 2.759736 1_555
B11 B3 1.757746 1_555
B11 B15 1.777182 1_555
B11 B12 1.859097 1_555
B11 Rh0 2.317629 1_555
B11 Rh0 2.317629 1_455
B11 Ho0 2.705179 1_555
B11 Ho0 2.705179 1_455
B11 Ho3 2.759736 1_555
B11 Ho3 2.759736 1_455
B12 B8 1.777182 1_555
B12 B4 1.850745 1_555
B12 Rh0 2.245156 1_555
B12 Rh0 2.245156 1_455
B12 Ho3 2.726764 1_445
B12 Ho3 2.726764 1_545
B12 Ho0 2.758547 1_455
B12 Ho0 2.758547 1_555
B13 B9 1.777182 1_555
B13 B5 1.850745 1_555
B13 Rh1 2.245156 1_555
B13 Rh1 2.245156 1_455
B13 Ho2 2.726764 1_565
B13 Ho2 2.726764 1_465
B13 Ho1 2.758547 1_555
B13 Ho1 2.758547 1_455
B14 B6 1.850745 1_555
B14 B9 1.859097 1_545
B14 Rh2 2.245156 1_555
B14 Rh2 2.245156 1_455
B14 Ho1 2.726764 1_555
B14 Ho1 2.726764 1_455
B14 Ho2 2.758547 1_555
B14 Ho2 2.758547 1_455
B15 B7 1.850745 1_555
B15 B8 1.859097 1_565
B15 Rh3 2.245156 1_455
B15 Rh3 2.245156 1_555
B15 Ho0 2.726764 1_455
B15 Ho0 2.726764 1_555
B15 Ho3 2.758547 1_455
B15 Ho3 2.758547 1_555
Rh0 Rh1 2.757448 1_555
Rh2 Rh3 2.757448 1_546
