# generated using pymatgen
data_CoH12C2(I2N)2
_symmetry_space_group_name_H-M   'P 1'
_cell_length_a   11.52231800
_cell_length_b   12.28664900
_cell_length_c   21.38525500
_cell_angle_alpha   90.00000000
_cell_angle_beta   90.00000000
_cell_angle_gamma   90.00000000
_symmetry_Int_Tables_number   1
_chemical_formula_structural   CoH12C2(I2N)2
_chemical_formula_sum   'Co8 H96 C16 I32 N16'
_cell_volume   3027.52502672
_cell_formula_units_Z   8
loop_
 _symmetry_equiv_pos_site_id
 _symmetry_equiv_pos_as_xyz
  1  'x, y, z'
loop_
 _atom_site_type_symbol
 _atom_site_label
 _atom_site_symmetry_multiplicity
 _atom_site_fract_x
 _atom_site_fract_y
 _atom_site_fract_z
 _atom_site_occupancy
  Co  Co0  1  0.94373100  0.11618800  0.36248700  1
  Co  Co1  1  0.44373100  0.38381200  0.63751300  1
  Co  Co2  1  0.05626900  0.61618800  0.13751300  1
  Co  Co3  1  0.55626900  0.88381200  0.86248700  1
  Co  Co4  1  0.05626900  0.88381200  0.63751300  1
  Co  Co5  1  0.55626900  0.61618800  0.36248700  1
  Co  Co6  1  0.94373100  0.38381200  0.86248700  1
  Co  Co7  1  0.44373100  0.11618800  0.13751300  1
  H  H0  1  0.17651800  0.10988200  0.47211500  1
  H  H1  1  0.67651800  0.39011800  0.52788500  1
  H  H2  1  0.82348200  0.60988200  0.02788500  1
  H  H3  1  0.32348200  0.89011800  0.97211500  1
  H  H4  1  0.82348200  0.89011800  0.52788500  1
  H  H5  1  0.32348200  0.60988200  0.47211500  1
  H  H6  1  0.17651800  0.39011800  0.97211500  1
  H  H7  1  0.67651800  0.10988200  0.02788500  1
  H  H8  1  0.25535800  0.04686900  0.52682900  1
  H  H9  1  0.75535800  0.45313100  0.47317100  1
  H  H10  1  0.74464200  0.54686900  0.97317100  1
  H  H11  1  0.24464200  0.95313100  0.02682900  1
  H  H12  1  0.74464200  0.95313100  0.47317100  1
  H  H13  1  0.24464200  0.54686900  0.52682900  1
  H  H14  1  0.25535800  0.45313100  0.02682900  1
  H  H15  1  0.75535800  0.04686900  0.97317100  1
  H  H16  1  0.25502200  0.18384900  0.52190100  1
  H  H17  1  0.75502200  0.31615100  0.47809900  1
  H  H18  1  0.74497800  0.68384900  0.97809900  1
  H  H19  1  0.24497800  0.81615100  0.02190100  1
  H  H20  1  0.74497800  0.81615100  0.47809900  1
  H  H21  1  0.24497800  0.68384900  0.52190100  1
  H  H22  1  0.25502200  0.31615100  0.02190100  1
  H  H23  1  0.75502200  0.18384900  0.97809900  1
  H  H24  1  0.16614500  0.30256700  0.27922800  1
  H  H25  1  0.66614500  0.19743300  0.72077200  1
  H  H26  1  0.83385500  0.80256700  0.22077200  1
  H  H27  1  0.33385500  0.69743300  0.77922800  1
  H  H28  1  0.83385500  0.69743300  0.72077200  1
  H  H29  1  0.33385500  0.80256700  0.27922800  1
  H  H30  1  0.16614500  0.19743300  0.77922800  1
  H  H31  1  0.66614500  0.30256700  0.22077200  1
  H  H32  1  0.11241400  0.36828300  0.21750900  1
  H  H33  1  0.61241400  0.13171700  0.78249100  1
  H  H34  1  0.88758600  0.86828300  0.28249100  1
  H  H35  1  0.38758600  0.63171700  0.71750900  1
  H  H36  1  0.88758600  0.63171700  0.78249100  1
  H  H37  1  0.38758600  0.86828300  0.21750900  1
  H  H38  1  0.11241400  0.13171700  0.71750900  1
  H  H39  1  0.61241400  0.36828300  0.28249100  1
  H  H40  1  0.18681500  0.25355100  0.20693300  1
  H  H41  1  0.68681500  0.24644900  0.79306700  1
  H  H42  1  0.81318500  0.75355100  0.29306700  1
  H  H43  1  0.31318500  0.74644900  0.70693300  1
  H  H44  1  0.81318500  0.74644900  0.79306700  1
  H  H45  1  0.31318500  0.75355100  0.20693300  1
  H  H46  1  0.18681500  0.24644900  0.70693300  1
  H  H47  1  0.68681500  0.25355100  0.29306700  1
  H  H48  1  0.39824600  0.18607100  0.44990800  1
  H  H49  1  0.89824600  0.31392900  0.55009200  1
  H  H50  1  0.60175400  0.68607100  0.05009200  1
  H  H51  1  0.10175400  0.81392900  0.94990800  1
  H  H52  1  0.60175400  0.81392900  0.55009200  1
  H  H53  1  0.10175400  0.68607100  0.44990800  1
  H  H54  1  0.39824600  0.31392900  0.94990800  1
  H  H55  1  0.89824600  0.18607100  0.05009200  1
  H  H56  1  0.41458900  0.04334700  0.46606300  1
  H  H57  1  0.91458900  0.45665300  0.53393700  1
  H  H58  1  0.58541100  0.54334700  0.03393700  1
  H  H59  1  0.08541100  0.95665300  0.96606300  1
  H  H60  1  0.58541100  0.95665300  0.53393700  1
  H  H61  1  0.08541100  0.54334700  0.46606300  1
  H  H62  1  0.41458900  0.45665300  0.96606300  1
  H  H63  1  0.91458900  0.04334700  0.03393700  1
  H  H64  1  0.32146200  0.08747200  0.40437800  1
  H  H65  1  0.82146200  0.41252800  0.59562200  1
  H  H66  1  0.67853800  0.58747200  0.09562200  1
  H  H67  1  0.17853800  0.91252800  0.90437800  1
  H  H68  1  0.67853800  0.91252800  0.59562200  1
  H  H69  1  0.17853800  0.58747200  0.40437800  1
  H  H70  1  0.32146200  0.41252800  0.90437800  1
  H  H71  1  0.82146200  0.08747200  0.09562200  1
  H  H72  1  0.64390000  0.84168400  0.29960700  1
  H  H73  1  0.14390000  0.65831600  0.70039300  1
  H  H74  1  0.35610000  0.34168400  0.20039300  1
  H  H75  1  0.85610000  0.15831600  0.79960700  1
  H  H76  1  0.35610000  0.15831600  0.70039300  1
  H  H77  1  0.85610000  0.34168400  0.29960700  1
  H  H78  1  0.64390000  0.65831600  0.79960700  1
  H  H79  1  0.14390000  0.84168400  0.20039300  1
  H  H80  1  0.72795900  0.96476000  0.29935000  1
  H  H81  1  0.22795900  0.53524000  0.70065000  1
  H  H82  1  0.27204100  0.46476000  0.20065000  1
  H  H83  1  0.77204100  0.03524000  0.79935000  1
  H  H84  1  0.27204100  0.03524000  0.70065000  1
  H  H85  1  0.77204100  0.46476000  0.29935000  1
  H  H86  1  0.72795900  0.53524000  0.79935000  1
  H  H87  1  0.22795900  0.96476000  0.20065000  1
  H  H88  1  0.67377000  0.91069300  0.22751900  1
  H  H89  1  0.17377000  0.58930700  0.77248100  1
  H  H90  1  0.32623000  0.41069300  0.27248100  1
  H  H91  1  0.82623000  0.08930700  0.72751900  1
  H  H92  1  0.32623000  0.08930700  0.77248100  1
  H  H93  1  0.82623000  0.41069300  0.22751900  1
  H  H94  1  0.67377000  0.58930700  0.72751900  1
  H  H95  1  0.17377000  0.91069300  0.27248100  1
  C  C0  1  0.35480400  0.10714300  0.45100100  1
  C  C1  1  0.85480400  0.39285700  0.54899900  1
  C  C2  1  0.64519600  0.60714300  0.04899900  1
  C  C3  1  0.14519600  0.89285700  0.95100100  1
  C  C4  1  0.64519600  0.89285700  0.54899900  1
  C  C5  1  0.14519600  0.60714300  0.45100100  1
  C  C6  1  0.35480400  0.39285700  0.95100100  1
  C  C7  1  0.85480400  0.10714300  0.04899900  1
  C  C8  1  0.70734600  0.89003900  0.27380900  1
  C  C9  1  0.20734600  0.60996100  0.72619100  1
  C  C10  1  0.29265400  0.39003900  0.22619100  1
  C  C11  1  0.79265400  0.10996100  0.77380900  1
  C  C12  1  0.29265400  0.10996100  0.72619100  1
  C  C13  1  0.79265400  0.39003900  0.27380900  1
  C  C14  1  0.70734600  0.60996100  0.77380900  1
  C  C15  1  0.20734600  0.89003900  0.22619100  1
  I  I0  1  0.93798500  0.10975600  0.24215800  1
  I  I1  1  0.43798500  0.39024400  0.75784200  1
  I  I2  1  0.06201500  0.60975600  0.25784200  1
  I  I3  1  0.56201500  0.89024400  0.74215800  1
  I  I4  1  0.06201500  0.89024400  0.75784200  1
  I  I5  1  0.56201500  0.60975600  0.24215800  1
  I  I6  1  0.93798500  0.39024400  0.74215800  1
  I  I7  1  0.43798500  0.10975600  0.25784200  1
  I  I8  1  0.73469400  0.14082900  0.40944900  1
  I  I9  1  0.23469400  0.35917100  0.59055100  1
  I  I10  1  0.26530600  0.64082900  0.09055100  1
  I  I11  1  0.76530600  0.85917100  0.90944900  1
  I  I12  1  0.26530600  0.85917100  0.59055100  1
  I  I13  1  0.76530600  0.64082900  0.40944900  1
  I  I14  1  0.73469400  0.35917100  0.90944900  1
  I  I15  1  0.23469400  0.14082900  0.09055100  1
  I  I16  1  0.07332400  0.27998200  0.39396000  1
  I  I17  1  0.57332400  0.22001800  0.60604000  1
  I  I18  1  0.92667600  0.77998200  0.10604000  1
  I  I19  1  0.42667600  0.72001800  0.89396000  1
  I  I20  1  0.92667600  0.72001800  0.60604000  1
  I  I21  1  0.42667600  0.77998200  0.39396000  1
  I  I22  1  0.07332400  0.22001800  0.89396000  1
  I  I23  1  0.57332400  0.27998200  0.10604000  1
  I  I24  1  0.03053800  0.93567700  0.40057500  1
  I  I25  1  0.53053800  0.56432300  0.59942500  1
  I  I26  1  0.96946200  0.43567700  0.09942500  1
  I  I27  1  0.46946200  0.06432300  0.90057500  1
  I  I28  1  0.96946200  0.06432300  0.59942500  1
  I  I29  1  0.46946200  0.43567700  0.40057500  1
  I  I30  1  0.03053800  0.56432300  0.90057500  1
  I  I31  1  0.53053800  0.93567700  0.09942500  1
  N  N0  1  0.25455000  0.11214800  0.49588500  1
  N  N1  1  0.75455000  0.38785200  0.50411500  1
  N  N2  1  0.74545000  0.61214800  0.00411500  1
  N  N3  1  0.24545000  0.88785200  0.99588500  1
  N  N4  1  0.74545000  0.88785200  0.50411500  1
  N  N5  1  0.24545000  0.61214800  0.49588500  1
  N  N6  1  0.25455000  0.38785200  0.99588500  1
  N  N7  1  0.75455000  0.11214800  0.00411500  1
  N  N8  1  0.18287900  0.32417100  0.23310200  1
  N  N9  1  0.68287900  0.17582900  0.76689800  1
  N  N10  1  0.81712100  0.82417100  0.26689800  1
  N  N11  1  0.31712100  0.67582900  0.73310200  1
  N  N12  1  0.81712100  0.67582900  0.76689800  1
  N  N13  1  0.31712100  0.82417100  0.23310200  1
  N  N14  1  0.18287900  0.17582900  0.73310200  1
  N  N15  1  0.68287900  0.32417100  0.26689800  1
loop_
_geom_bond_atom_site_label_1
_geom_bond_atom_site_label_2
_geom_bond_distance
_geom_bond_site_symmetry_2
Co0 I24 2.565707 1_645
Co0 I0 2.575331 1_555
Co0 I16 2.594757 1_655
Co0 I8 2.627085 1_555
Co1 I25 2.565707 1_555
Co1 I1 2.575331 1_555
Co1 I17 2.594757 1_555
Co1 I9 2.627085 1_555
Co2 I26 2.565707 1_455
Co2 I2 2.575331 1_555
Co2 I18 2.594757 1_455
Co2 I10 2.627085 1_555
Co3 I27 2.565707 1_565
Co3 I3 2.575331 1_555
Co3 I19 2.594757 1_555
Co3 I11 2.627085 1_555
Co4 I28 2.565707 1_465
Co4 I4 2.575331 1_555
Co4 I20 2.594757 1_455
Co4 I12 2.627085 1_555
Co5 I29 2.565707 1_555
Co5 I5 2.575331 1_555
Co5 I21 2.594757 1_555
Co5 I13 2.627085 1_555
Co6 I30 2.565707 1_655
Co6 I6 2.575331 1_555
Co6 I22 2.594757 1_655
Co6 I14 2.627085 1_555
Co7 I31 2.565707 1_545
Co7 I7 2.575331 1_555
Co7 I23 2.594757 1_555
Co7 I15 2.627085 1_555
H0 N0 1.033233 1_555
H1 N1 1.033233 1_555
H2 N2 1.033233 1_555
H3 N3 1.033233 1_555
H4 N4 1.033233 1_555
H5 N5 1.033233 1_555
H6 N6 1.033233 1_555
H7 N7 1.033233 1_555
H8 N0 1.039853 1_555
H9 N1 1.039853 1_555
H10 N2 1.039853 1_556
H11 N3 1.039853 1_554
H12 N4 1.039853 1_555
H13 N5 1.039853 1_555
H14 N6 1.039853 1_554
H15 N7 1.039853 1_556
H16 N0 1.041952 1_555
H17 N1 1.041952 1_555
H18 N2 1.041952 1_556
H19 N3 1.041952 1_554
H20 N4 1.041952 1_555
H21 N5 1.041952 1_555
H22 N6 1.041952 1_554
H23 N7 1.041952 1_556
H24 N8 1.039545 1_555
H25 N9 1.039545 1_555
H26 N10 1.039545 1_555
H27 N11 1.039545 1_555
H28 N12 1.039545 1_555
H29 N13 1.039545 1_555
H30 N14 1.039545 1_555
H31 N15 1.039545 1_555
H32 N8 1.031582 1_555
H33 N9 1.031582 1_555
H34 N10 1.031582 1_555
H35 N11 1.031582 1_555
H36 N12 1.031582 1_555
H37 N13 1.031582 1_555
H38 N14 1.031582 1_555
H39 N15 1.031582 1_555
H40 N8 1.033498 1_555
H41 N9 1.033498 1_555
H42 N10 1.033498 1_555
H43 N11 1.033498 1_555
H44 N12 1.033498 1_555
H45 N13 1.033498 1_555
H46 N14 1.033498 1_555
H47 N15 1.033498 1_555
C0 H48 1.091574 1_555
C0 H56 1.092101 1_555
C0 H64 1.095493 1_555
C0 N0 1.503162 1_555
C1 H49 1.091574 1_555
C1 H57 1.092101 1_555
C1 H65 1.095493 1_555
C1 N1 1.503162 1_555
C2 H50 1.091574 1_555
C2 H58 1.092101 1_555
C2 H66 1.095493 1_555
C2 N2 1.503162 1_555
C3 H51 1.091574 1_555
C3 H59 1.092101 1_555
C3 H67 1.095493 1_555
C3 N3 1.503162 1_555
C4 H52 1.091574 1_555
C4 H60 1.092101 1_555
C4 H68 1.095493 1_555
C4 N4 1.503162 1_555
C5 H53 1.091574 1_555
C5 H61 1.092101 1_555
C5 H69 1.095493 1_555
C5 N5 1.503162 1_555
C6 H54 1.091574 1_555
C6 H62 1.092101 1_555
C6 H70 1.095493 1_555
C6 N6 1.503162 1_555
C7 H55 1.091574 1_555
C7 H63 1.092101 1_555
C7 H71 1.095493 1_555
C7 N7 1.503162 1_555
C8 H72 1.091685 1_555
C8 H88 1.092711 1_555
C8 H80 1.094349 1_555
C8 N10 1.508868 1_555
C9 H73 1.091685 1_555
C9 H89 1.092711 1_555
C9 H81 1.094349 1_555
C9 N11 1.508868 1_555
C10 H74 1.091685 1_555
C10 H90 1.092711 1_555
C10 H82 1.094349 1_555
C10 N8 1.508868 1_555
C11 H75 1.091685 1_555
C11 H91 1.092711 1_555
C11 H83 1.094349 1_555
C11 N9 1.508868 1_555
C12 H76 1.091685 1_555
C12 H92 1.092711 1_555
C12 H84 1.094349 1_555
C12 N14 1.508868 1_555
C13 H77 1.091685 1_555
C13 H93 1.092711 1_555
C13 H85 1.094349 1_555
C13 N15 1.508868 1_555
C14 H78 1.091685 1_555
C14 H94 1.092711 1_555
C14 H86 1.094349 1_555
C14 N12 1.508868 1_555
C15 H79 1.091685 1_555
C15 H95 1.092711 1_555
C15 H87 1.094349 1_555
C15 N13 1.508868 1_555
