# generated using pymatgen
data_H9PtC3Br
_symmetry_space_group_name_H-M   'P 1'
_cell_length_a   10.37800616
_cell_length_b   10.37800616
_cell_length_c   13.42141705
_cell_angle_alpha   86.10975894
_cell_angle_beta   86.10975894
_cell_angle_gamma   91.21580046
_symmetry_Int_Tables_number   1
_chemical_formula_structural   H9PtC3Br
_chemical_formula_sum   'H72 Pt8 C24 Br8'
_cell_volume   1438.38909123
_cell_formula_units_Z   8
loop_
 _symmetry_equiv_pos_site_id
 _symmetry_equiv_pos_as_xyz
  1  'x, y, z'
loop_
 _atom_site_type_symbol
 _atom_site_label
 _atom_site_symmetry_multiplicity
 _atom_site_fract_x
 _atom_site_fract_y
 _atom_site_fract_z
 _atom_site_occupancy
  H  H0  1  0.62315900  0.62315900  0.09236400  1
  H  H1  1  0.37684100  0.37684100  0.90763600  1
  H  H2  1  0.53758600  0.65971600  0.98241400  1
  H  H3  1  0.65971600  0.53758600  0.98241400  1
  H  H4  1  0.46241400  0.34028400  0.01758600  1
  H  H5  1  0.34028400  0.46241400  0.01758600  1
  H  H6  1  0.97368700  0.74778800  0.04959900  1
  H  H7  1  0.74778800  0.97368700  0.04959900  1
  H  H8  1  0.02631300  0.25221200  0.95040100  1
  H  H9  1  0.25221200  0.02631300  0.95040100  1
  H  H10  1  0.83800300  0.69793800  0.13464200  1
  H  H11  1  0.69793800  0.83800300  0.13464200  1
  H  H12  1  0.16199700  0.30206200  0.86535800  1
  H  H13  1  0.30206200  0.16199700  0.86535800  1
  H  H14  1  0.89817400  0.58956600  0.04512000  1
  H  H15  1  0.58956600  0.89817400  0.04512000  1
  H  H16  1  0.10182600  0.41043400  0.95488000  1
  H  H17  1  0.41043400  0.10182600  0.95488000  1
  H  H18  1  0.51951400  0.51951400  0.63757400  1
  H  H19  1  0.48048700  0.48048700  0.36242600  1
  H  H20  1  0.60458200  0.48236900  0.74746800  1
  H  H21  1  0.48236900  0.60458200  0.74746800  1
  H  H22  1  0.39541800  0.51763100  0.25253200  1
  H  H23  1  0.51763100  0.39541800  0.25253200  1
  H  H24  1  0.84234200  0.52113000  0.58955800  1
  H  H25  1  0.52113000  0.84234200  0.58955800  1
  H  H26  1  0.15765800  0.47887000  0.41044200  1
  H  H27  1  0.47887000  0.15765800  0.41044200  1
  H  H28  1  0.69046100  0.51641000  0.53290100  1
  H  H29  1  0.51641000  0.69046100  0.53290100  1
  H  H30  1  0.30953900  0.48359000  0.46709900  1
  H  H31  1  0.48359000  0.30953900  0.46709900  1
  H  H32  1  0.80882300  0.63990400  0.49042600  1
  H  H33  1  0.63990400  0.80882300  0.49042600  1
  H  H34  1  0.19117700  0.36009600  0.50957400  1
  H  H35  1  0.36009600  0.19117700  0.50957400  1
  H  H36  1  0.17143800  0.76746100  0.90641200  1
  H  H37  1  0.76746100  0.17143800  0.90641200  1
  H  H38  1  0.82856200  0.23253900  0.09358800  1
  H  H39  1  0.23253900  0.82856200  0.09358800  1
  H  H40  1  0.16772500  0.61238200  0.85275500  1
  H  H41  1  0.61238200  0.16772500  0.85275500  1
  H  H42  1  0.83227500  0.38761800  0.14724500  1
  H  H43  1  0.38761800  0.83227500  0.14724500  1
  H  H44  1  0.29031000  0.73169700  0.80931800  1
  H  H45  1  0.73169700  0.29031000  0.80931800  1
  H  H46  1  0.70969000  0.26830300  0.19068200  1
  H  H47  1  0.26830300  0.70969000  0.19068200  1
  H  H48  1  0.09483700  0.67876600  0.57111200  1
  H  H49  1  0.67876600  0.09483700  0.57111200  1
  H  H50  1  0.90516300  0.32123400  0.42888800  1
  H  H51  1  0.32123400  0.90516300  0.42888800  1
  H  H52  1  0.24818100  0.68199800  0.62573600  1
  H  H53  1  0.68199800  0.24818100  0.62573600  1
  H  H54  1  0.75181900  0.31800200  0.37426400  1
  H  H55  1  0.31800200  0.75181900  0.37426400  1
  H  H56  1  0.12648100  0.56466600  0.67425000  1
  H  H57  1  0.56466600  0.12648100  0.67425000  1
  H  H58  1  0.87351900  0.43533400  0.32575000  1
  H  H59  1  0.43533400  0.87351900  0.32575000  1
  H  H60  1  0.16683600  0.97801000  0.62364800  1
  H  H61  1  0.97801000  0.16683600  0.62364800  1
  H  H62  1  0.83316400  0.02199000  0.37635200  1
  H  H63  1  0.02199000  0.83316400  0.37635200  1
  H  H64  1  0.22716500  0.98053000  0.74719200  1
  H  H65  1  0.98053000  0.22716500  0.74719200  1
  H  H66  1  0.77283500  0.01947000  0.25280800  1
  H  H67  1  0.01947000  0.77283500  0.25280800  1
  H  H68  1  0.29381400  0.87313200  0.65936400  1
  H  H69  1  0.87313200  0.29381400  0.65936400  1
  H  H70  1  0.70618600  0.12686800  0.34063600  1
  H  H71  1  0.12686800  0.70618600  0.34063600  1
  Pt  Pt0  1  0.76655800  0.76655800  0.95254100  1
  Pt  Pt1  1  0.23344200  0.23344200  0.04745900  1
  Pt  Pt2  1  0.69927500  0.69927500  0.66177800  1
  Pt  Pt3  1  0.30072500  0.30072500  0.33822200  1
  Pt  Pt4  1  0.06307700  0.78787900  0.73805000  1
  Pt  Pt5  1  0.78787900  0.06307700  0.73805000  1
  Pt  Pt6  1  0.93692300  0.21212100  0.26195000  1
  Pt  Pt7  1  0.21212100  0.93692300  0.26195000  1
  C  C0  1  0.63055400  0.63055400  0.01024300  1
  C  C1  1  0.36944600  0.36944600  0.98975700  1
  C  C2  1  0.88242500  0.69125600  0.05842700  1
  C  C3  1  0.69125600  0.88242500  0.05842700  1
  C  C4  1  0.11757500  0.30874400  0.94157300  1
  C  C5  1  0.30874400  0.11757500  0.94157300  1
  C  C6  1  0.55965000  0.55965000  0.70307300  1
  C  C7  1  0.44035000  0.44035000  0.29692700  1
  C  C8  1  0.76756500  0.57956100  0.55589800  1
  C  C9  1  0.57956100  0.76756500  0.55589800  1
  C  C10  1  0.23243500  0.42043900  0.44410200  1
  C  C11  1  0.42043900  0.23243500  0.44410200  1
  C  C12  1  0.18929600  0.71615500  0.83781700  1
  C  C13  1  0.71615500  0.18929600  0.83781700  1
  C  C14  1  0.81070400  0.28384500  0.16218300  1
  C  C15  1  0.28384500  0.81070400  0.16218300  1
  C  C16  1  0.14393400  0.66354400  0.64084200  1
  C  C17  1  0.66354400  0.14393400  0.64084200  1
  C  C18  1  0.85606600  0.33645600  0.35915800  1
  C  C19  1  0.33645600  0.85606600  0.35915800  1
  C  C20  1  0.20550800  0.92012700  0.68589600  1
  C  C21  1  0.92012700  0.20550800  0.68589600  1
  C  C22  1  0.79449200  0.07987300  0.31410400  1
  C  C23  1  0.07987300  0.79449200  0.31410400  1
  Br  Br0  1  0.94460300  0.94460300  0.86644600  1
  Br  Br1  1  0.05539700  0.05539700  0.13355400  1
  Br  Br2  1  0.88373100  0.88373100  0.61389900  1
  Br  Br3  1  0.11626900  0.11626900  0.38610100  1
  Br  Br4  1  0.86360400  0.62155800  0.80433500  1
  Br  Br5  1  0.62155800  0.86360400  0.80433500  1
  Br  Br6  1  0.13639600  0.37844200  0.19566500  1
  Br  Br7  1  0.37844200  0.13639600  0.19566500  1
loop_
_geom_bond_atom_site_label_1
_geom_bond_atom_site_label_2
_geom_bond_distance
_geom_bond_site_symmetry_2
C0 H0 1.096985 1_555
C0 H3 1.099060 1_554
C0 H2 1.099060 1_554
C0 Pt0 2.050112 1_554
C1 H1 1.096985 1_555
C1 H5 1.099060 1_556
C1 H4 1.099060 1_556
C1 Pt1 2.050112 1_556
C2 H14 1.096032 1_555
C2 H6 1.098652 1_555
C2 H10 1.100312 1_555
C2 Pt0 2.048743 1_554
C3 H15 1.096032 1_555
C3 H7 1.098652 1_555
C3 H11 1.100312 1_555
C3 Pt0 2.048743 1_554
C4 H16 1.096032 1_555
C4 H8 1.098652 1_555
C4 H12 1.100312 1_555
C4 Pt1 2.048743 1_556
C5 H17 1.096032 1_555
C5 H9 1.098652 1_555
C5 H13 1.100312 1_555
C5 Pt1 2.048743 1_556
C6 H21 1.097469 1_555
C6 H20 1.097469 1_555
C6 H18 1.100820 1_555
C6 Pt2 2.049268 1_555
C7 H23 1.097469 1_555
C7 H22 1.097469 1_555
C7 H19 1.100829 1_555
C7 Pt3 2.049268 1_555
C8 H28 1.097176 1_555
C8 H24 1.097456 1_555
C8 H32 1.100259 1_555
C8 Pt2 2.050731 1_555
C9 H29 1.097176 1_555
C9 H25 1.097456 1_555
C9 H33 1.100259 1_555
C9 Pt2 2.050731 1_555
C10 H30 1.097176 1_555
C10 H26 1.097456 1_555
C10 H34 1.100259 1_555
C10 Pt3 2.050731 1_555
C11 H31 1.097176 1_555
C11 H27 1.097456 1_555
C11 H35 1.100259 1_555
C11 Pt3 2.050731 1_555
C12 H44 1.096060 1_555
C12 H40 1.097510 1_555
C12 H36 1.101357 1_555
C12 Pt4 2.051096 1_555
C13 H45 1.096060 1_555
C13 H41 1.097510 1_555
C13 H37 1.101357 1_555
C13 Pt5 2.051096 1_555
C14 H46 1.096060 1_555
C14 H42 1.097510 1_555
C14 H38 1.101357 1_555
C14 Pt6 2.051096 1_555
C15 H47 1.096060 1_555
C15 H43 1.097510 1_555
C15 H39 1.101357 1_555
C15 Pt7 2.051096 1_555
C16 H52 1.097458 1_555
C16 H56 1.097958 1_555
C16 H48 1.099317 1_555
C16 Pt4 2.048692 1_555
C17 H53 1.097458 1_555
C17 H57 1.097958 1_555
C17 H49 1.099317 1_555
C17 Pt5 2.048692 1_555
C18 H54 1.097458 1_555
C18 H58 1.097958 1_555
C18 H50 1.099317 1_555
C18 Pt6 2.048692 1_555
C19 H55 1.097458 1_555
C19 H59 1.097958 1_555
C19 H51 1.099317 1_555
C19 Pt7 2.048692 1_555
C20 H68 1.096715 1_555
C20 H60 1.098882 1_555
C20 H64 1.099709 1_555
C20 Pt4 2.049812 1_555
C21 H69 1.096715 1_555
C21 H61 1.098882 1_555
C21 H65 1.099709 1_555
C21 Pt5 2.049812 1_555
C22 H70 1.096715 1_555
C22 H62 1.098882 1_555
C22 H66 1.099709 1_555
C22 Pt6 2.049812 1_555
C23 H71 1.096715 1_555
C23 H63 1.098882 1_555
C23 H67 1.099709 1_555
C23 Pt7 2.049812 1_555
Br0 Pt4 2.702679 1_655
Br0 Pt5 2.702679 1_565
Br0 Pt0 2.727504 1_555
Br1 Pt6 2.702679 1_455
Br1 Pt7 2.702679 1_545
Br1 Pt1 2.727504 1_555
Br2 Pt2 2.693061 1_555
Br2 Pt5 2.739486 1_565
Br2 Pt4 2.739486 1_655
Br3 Pt3 2.693061 1_555
Br3 Pt6 2.739486 1_455
Br3 Pt7 2.739486 1_545
Br4 Pt0 2.726553 1_555
Br4 Pt4 2.728802 1_655
Br4 Pt2 2.740702 1_555
Br5 Pt0 2.726553 1_555
Br5 Pt5 2.728802 1_565
Br5 Pt2 2.740702 1_555
Br6 Pt1 2.726553 1_555
Br6 Pt6 2.728802 1_455
Br6 Pt3 2.740702 1_555
Br7 Pt1 2.726553 1_555
Br7 Pt7 2.728802 1_545
Br7 Pt3 2.740702 1_555
