# generated using pymatgen
data_CaSbAs2SeO7
_symmetry_space_group_name_H-M   'P 1'
_cell_length_a   11.04231938
_cell_length_b   13.26226681
_cell_length_c   13.25998738
_cell_angle_alpha   80.03336650
_cell_angle_beta   65.41174568
_cell_angle_gamma   65.41766550
_symmetry_Int_Tables_number   1
_chemical_formula_structural   CaSbAs2SeO7
_chemical_formula_sum   'Ca8 Sb8 As16 Se8 O56'
_cell_volume   1605.74491767
_cell_formula_units_Z   8
loop_
 _symmetry_equiv_pos_site_id
 _symmetry_equiv_pos_as_xyz
  1  'x, y, z'
loop_
 _atom_site_type_symbol
 _atom_site_label
 _atom_site_symmetry_multiplicity
 _atom_site_fract_x
 _atom_site_fract_y
 _atom_site_fract_z
 _atom_site_occupancy
  Ca  Ca0  1  0.17913700  0.41375300  0.28960500  1
  Ca  Ca1  1  0.09286200  0.28967100  0.08621300  1
  Ca  Ca2  1  0.53120300  0.78962900  0.58621400  1
  Ca  Ca3  1  0.90713800  0.71032900  0.91378700  1
  Ca  Ca4  1  0.82086300  0.58624700  0.71039500  1
  Ca  Ca5  1  0.11738200  0.91381400  0.78965100  1
  Ca  Ca6  1  0.46879700  0.21037100  0.41378600  1
  Ca  Ca7  1  0.88261800  0.08618600  0.21034900  1
  Sb  Sb0  1  0.29877500  0.61276500  0.73401100  1
  Sb  Sb1  1  0.64558500  0.88721800  0.76597600  1
  Sb  Sb2  1  0.70122500  0.38723500  0.26598900  1
  Sb  Sb3  1  0.96722500  0.23406600  0.38720500  1
  Sb  Sb4  1  0.35441500  0.11278200  0.23402400  1
  Sb  Sb5  1  0.03277500  0.76593400  0.61279500  1
  Sb  Sb6  1  0.58857500  0.26592400  0.11266200  1
  Sb  Sb7  1  0.41142500  0.73407600  0.88733800  1
  As  As0  1  0.62879100  0.43139700  0.83721000  1
  As  As1  1  0.89843900  0.58274000  0.21605800  1
  As  As2  1  0.30277900  0.08272200  0.71608900  1
  As  As3  1  0.46620100  0.66256900  0.43132500  1
  As  As4  1  0.11456500  0.28388100  0.58263600  1
  As  As5  1  0.89758300  0.06852200  0.66261600  1
  As  As6  1  0.43977100  0.16268900  0.93136200  1
  As  As7  1  0.88543500  0.71611900  0.41736400  1
  As  As8  1  0.56022900  0.83731100  0.06863800  1
  As  As9  1  0.10241700  0.93147800  0.33738400  1
  As  As10  1  0.10156100  0.41726000  0.78394200  1
  As  As11  1  0.98112600  0.21603700  0.91728200  1
  As  As12  1  0.37120900  0.56860300  0.16279000  1
  As  As13  1  0.69722100  0.91727800  0.28391100  1
  As  As14  1  0.01887400  0.78396300  0.08271800  1
  As  As15  1  0.53379900  0.33743100  0.56867500  1
  Se  Se0  1  0.75522100  0.48542800  0.48655400  1
  Se  Se1  1  0.72728600  0.01473400  0.01339700  1
  Se  Se2  1  0.75808700  0.98655100  0.51456400  1
  Se  Se3  1  0.74064700  0.48660200  0.01477300  1
  Se  Se4  1  0.24191300  0.01344900  0.48543600  1
  Se  Se5  1  0.24477900  0.51457200  0.51344600  1
  Se  Se6  1  0.25935300  0.51339800  0.98522700  1
  Se  Se7  1  0.27271400  0.98526600  0.98660300  1
  O  O0  1  0.97468300  0.84897800  0.96883100  1
  O  O1  1  0.10781600  0.11232200  0.80357900  1
  O  O2  1  0.65129600  0.90054000  0.60739600  1
  O  O3  1  0.12005900  0.98314900  0.20584800  1
  O  O4  1  0.05191300  0.60743100  0.59935100  1
  O  O5  1  0.74136300  0.10739600  0.09955500  1
  O  O6  1  0.42174700  0.51459300  0.86476800  1
  O  O7  1  0.69106900  0.48326000  0.70581200  1
  O  O8  1  0.10770000  0.74098400  0.73339500  1
  O  O9  1  0.32563100  0.29418100  0.98320700  1
  O  O10  1  0.65134600  0.26660900  0.24098200  1
  O  O11  1  0.39690300  0.79413500  0.48302600  1
  O  O12  1  0.89218400  0.88767800  0.19642100  1
  O  O13  1  0.25863700  0.89260400  0.90044500  1
  O  O14  1  0.94353700  0.53112600  0.84897900  1
  O  O15  1  0.07885900  0.96457600  0.59739700  1
  O  O16  1  0.97626200  0.61244500  0.30364100  1
  O  O17  1  0.19875500  0.01465500  0.36489300  1
  O  O18  1  0.05646300  0.46887400  0.15102100  1
  O  O19  1  0.02531700  0.15102200  0.03116900  1
  O  O20  1  0.56371400  0.13514500  0.01455200  1
  O  O21  1  0.02373800  0.38755500  0.69635900  1
  O  O22  1  0.87994100  0.01685100  0.79415200  1
  O  O23  1  0.20754000  0.34901200  0.46877900  1
  O  O24  1  0.35910500  0.46478400  0.09747500  1
  O  O25  1  0.34865400  0.73339100  0.75901800  1
  O  O26  1  0.58201100  0.75895600  0.76666300  1
  O  O27  1  0.54340300  0.59738800  0.53539600  1
  O  O28  1  0.15895900  0.23340100  0.25892800  1
  O  O29  1  0.91140500  0.69641100  0.11233200  1
  O  O30  1  0.89230000  0.25901600  0.26660500  1
  O  O31  1  0.43628600  0.86485500  0.98544800  1
  O  O32  1  0.45659700  0.40261200  0.46460400  1
  O  O33  1  0.72016800  0.80357600  0.38762100  1
  O  O34  1  0.60309700  0.20586500  0.51697400  1
  O  O35  1  0.71337800  0.36482700  0.48546100  1
  O  O36  1  0.34870400  0.09946000  0.39260400  1
  O  O37  1  0.32385800  0.09745000  0.03530900  1
  O  O38  1  0.67614200  0.90255000  0.96469100  1
  O  O39  1  0.84082600  0.40049600  0.10742500  1
  O  O40  1  0.57825300  0.48540700  0.13523200  1
  O  O41  1  0.15917400  0.59950400  0.89257500  1
  O  O42  1  0.84104100  0.76659900  0.74107200  1
  O  O43  1  0.28662200  0.63517300  0.51453900  1
  O  O44  1  0.92114100  0.03542400  0.40260300  1
  O  O45  1  0.79246000  0.65098800  0.53122100  1
  O  O46  1  0.64089500  0.53521600  0.90252500  1
  O  O47  1  0.27983200  0.19642400  0.61237900  1
  O  O48  1  0.30893100  0.51674000  0.29418800  1
  O  O49  1  0.80124500  0.98534500  0.63510700  1
  O  O50  1  0.32373300  0.96881700  0.65095800  1
  O  O51  1  0.67626700  0.03118300  0.34904200  1
  O  O52  1  0.94808700  0.39256900  0.40064900  1
  O  O53  1  0.08859500  0.30358900  0.88766800  1
  O  O54  1  0.41798900  0.24104400  0.23333700  1
  O  O55  1  0.67436900  0.70581900  0.01679300  1
loop_
_geom_bond_atom_site_label_1
_geom_bond_atom_site_label_2
_geom_bond_distance
_geom_bond_site_symmetry_2
Ca0 O48 2.377658 1_555
Ca0 O52 2.466414 1_455
Ca0 O23 2.483980 1_555
Ca0 O18 2.555161 1_555
Ca0 O54 2.585943 1_555
Ca0 O28 2.606109 1_555
Ca0 O16 2.628364 1_455
Ca0 O24 2.684524 1_555
Ca1 O9 2.377756 1_554
Ca1 O39 2.464383 1_455
Ca1 O18 2.484595 1_555
Ca1 O19 2.555168 1_555
Ca1 O28 2.584741 1_555
Ca1 O30 2.606854 1_455
Ca1 O53 2.625872 1_554
Ca1 O37 2.685781 1_555
Ca2 O11 2.379402 1_555
Ca2 O2 2.465150 1_555
Ca2 O50 2.484501 1_555
Ca2 O45 2.556417 1_555
Ca2 O25 2.585637 1_555
Ca2 O26 2.606884 1_555
Ca2 O33 2.627257 1_555
Ca2 O27 2.684363 1_555
Ca3 O55 2.377756 1_556
Ca3 O41 2.464383 1_655
Ca3 O14 2.484595 1_555
Ca3 O0 2.555168 1_555
Ca3 O42 2.584741 1_555
Ca3 O8 2.606854 1_655
Ca3 O29 2.625872 1_556
Ca3 O38 2.685781 1_555
Ca4 O7 2.377658 1_555
Ca4 O4 2.466414 1_655
Ca4 O45 2.483980 1_555
Ca4 O14 2.555161 1_555
Ca4 O26 2.585943 1_555
Ca4 O42 2.606109 1_555
Ca4 O21 2.628364 1_655
Ca4 O46 2.684524 1_555
Ca5 O22 2.379566 1_465
Ca5 O13 2.463588 1_555
Ca5 O0 2.484326 1_455
Ca5 O50 2.556862 1_555
Ca5 O8 2.585302 1_555
Ca5 O25 2.607952 1_555
Ca5 O1 2.626194 1_565
Ca5 O15 2.683867 1_555
Ca6 O34 2.379402 1_555
Ca6 O36 2.465150 1_555
Ca6 O51 2.484501 1_555
Ca6 O23 2.556417 1_555
Ca6 O10 2.585637 1_555
Ca6 O54 2.606884 1_555
Ca6 O47 2.627257 1_555
Ca6 O32 2.684363 1_555
Ca7 O3 2.379566 1_645
Ca7 O5 2.463588 1_555
Ca7 O19 2.484326 1_655
Ca7 O51 2.556862 1_555
Ca7 O30 2.585302 1_555
Ca7 O10 2.607952 1_555
Ca7 O12 2.626194 1_545
Ca7 O44 2.683867 1_555
As0 O7 1.721437 1_555
As0 O46 1.823720 1_555
As0 O6 1.980761 1_555
As1 O18 1.753607 1_655
As1 O29 1.866246 1_555
As1 O16 1.874293 1_555
As2 O50 1.753832 1_545
As2 O47 1.866421 1_555
As2 O1 1.873706 1_555
As3 O11 1.722413 1_555
As3 O27 1.825184 1_555
As3 O43 1.980279 1_555
As4 O23 1.753855 1_555
As4 O21 1.866043 1_555
As4 O47 1.873701 1_555
As5 O22 1.721699 1_555
As5 O15 1.825197 1_645
As5 O49 1.979932 1_545
As6 O9 1.722645 1_555
As6 O37 1.824038 1_556
As6 O20 1.980988 1_556
As7 O45 1.753855 1_555
As7 O16 1.866043 1_555
As7 O33 1.873701 1_555
As8 O55 1.722645 1_555
As8 O38 1.824038 1_554
As8 O31 1.980988 1_554
As9 O3 1.721699 1_555
As9 O44 1.825197 1_465
As9 O17 1.979932 1_565
As10 O14 1.753607 1_455
As10 O53 1.866246 1_555
As10 O21 1.874293 1_555
As11 O19 1.753443 1_656
As11 O1 1.866505 1_655
As11 O53 1.873907 1_655
As12 O48 1.721437 1_555
As12 O24 1.823720 1_555
As12 O40 1.980761 1_555
As13 O51 1.753832 1_565
As13 O33 1.866421 1_555
As13 O12 1.873706 1_555
As14 O0 1.753443 1_454
As14 O12 1.866505 1_455
As14 O29 1.873907 1_455
As15 O34 1.722413 1_555
As15 O32 1.825184 1_555
As15 O35 1.980279 1_555
O2 Se2 1.905817 1_555
O2 Sb1 2.056002 1_555
O4 Se5 1.906406 1_555
O4 Sb5 2.055252 1_555
O5 Se1 1.905854 1_555
O5 Sb6 2.056249 1_555
O6 Se6 1.843485 1_555
O6 Sb0 2.500432 1_555
O8 Sb5 2.010319 1_555
O8 Sb0 2.089939 1_555
O10 Sb2 2.010297 1_555
O10 Sb6 2.089919 1_555
O13 Se7 1.905854 1_555
O13 Sb7 2.056249 1_555
O15 Se4 2.068662 1_565
O17 Se4 1.844171 1_555
O17 Sb4 2.501308 1_555
O20 Se1 1.843486 1_555
O20 Sb6 2.500087 1_555
O24 Se6 2.070178 1_554
O25 Sb0 2.010297 1_555
O25 Sb7 2.089919 1_555
O26 Sb7 2.010863 1_555
O26 Sb1 2.090284 1_555
O27 Se0 2.068254 1_555
O28 Sb4 2.010827 1_555
O28 Sb3 2.090108 1_455
O30 Sb3 2.010319 1_555
O30 Sb2 2.089939 1_555
O31 Se7 1.843486 1_555
O31 Sb7 2.500087 1_555
O32 Se5 2.068254 1_555
O35 Se0 1.844008 1_555
O35 Sb3 2.502112 1_555
O36 Se4 1.905817 1_555
O36 Sb4 2.056002 1_555
O37 Se7 2.069992 1_544
O38 Se1 2.069992 1_566
O39 Se3 1.905641 1_555
O39 Sb2 2.056280 1_555
O40 Se3 1.843485 1_555
O40 Sb2 2.500432 1_555
O41 Se6 1.905641 1_555
O41 Sb0 2.056280 1_555
O42 Sb1 2.010827 1_555
O42 Sb5 2.090108 1_655
O43 Se5 1.844008 1_555
O43 Sb5 2.502112 1_555
O44 Se2 2.068662 1_545
O46 Se3 2.070178 1_556
O49 Se2 1.844171 1_555
O49 Sb1 2.501308 1_555
O52 Se0 1.906406 1_555
O52 Sb3 2.055252 1_555
O54 Sb6 2.010863 1_555
O54 Sb4 2.090284 1_555
