# generated using pymatgen
data_Mg4Si7
_symmetry_space_group_name_H-M   'P 1'
_cell_length_a   3.93524400
_cell_length_b   7.04458600
_cell_length_c   14.12338502
_cell_angle_alpha   80.91624172
_cell_angle_beta   90.00000000
_cell_angle_gamma   90.00000000
_symmetry_Int_Tables_number   1
_chemical_formula_structural   Mg4Si7
_chemical_formula_sum   'Mg8 Si14'
_cell_volume   386.62046247
_cell_formula_units_Z   2
loop_
 _symmetry_equiv_pos_site_id
 _symmetry_equiv_pos_as_xyz
  1  'x, y, z'
loop_
 _atom_site_type_symbol
 _atom_site_label
 _atom_site_symmetry_multiplicity
 _atom_site_fract_x
 _atom_site_fract_y
 _atom_site_fract_z
 _atom_site_occupancy
  Mg  Mg0  1  0.50000000  0.14738300  0.07390900  1
  Mg  Mg1  1  0.50000000  0.34829500  0.49446200  1
  Mg  Mg2  1  0.00000000  0.14813900  0.65248100  1
  Mg  Mg3  1  0.00000000  0.57204800  0.33953900  1
  Mg  Mg4  1  0.50000000  0.61788100  0.15108600  1
  Mg  Mg5  1  0.00000000  0.49789000  0.81343300  1
  Mg  Mg6  1  0.00000000  0.64022900  0.58356100  1
  Mg  Mg7  1  0.00000000  0.05713400  0.42362800  1
  Si  Si0  1  0.00000000  0.45572200  0.01751400  1
  Si  Si1  1  0.00000000  0.85304500  0.02618100  1
  Si  Si2  1  0.50000000  0.66748900  0.94687500  1
  Si  Si3  1  0.00000000  0.16968900  0.93329500  1
  Si  Si4  1  0.50000000  0.74055100  0.44509800  1
  Si  Si5  1  0.50000000  0.95066100  0.56489600  1
  Si  Si6  1  0.50000000  0.14818800  0.82812200  1
  Si  Si7  1  0.00000000  0.92264300  0.19138400  1
  Si  Si8  1  0.50000000  0.28880000  0.30087800  1
  Si  Si9  1  0.00000000  0.88048900  0.81727300  1
  Si  Si10  1  0.50000000  0.40981600  0.68895200  1
  Si  Si11  1  0.00000000  0.30256200  0.18831500  1
  Si  Si12  1  0.50000000  0.93411100  0.29124100  1
  Si  Si13  1  0.50000000  0.75086800  0.72435900  1
loop_
_geom_bond_atom_site_label_1
_geom_bond_atom_site_label_2
_geom_bond_distance
_geom_bond_site_symmetry_2
Mg0 Si3 2.782386 1_654
Mg0 Si3 2.782386 1_554
Mg0 Si11 2.869687 1_555
Mg0 Si11 2.869687 1_655
Mg0 Si7 2.881216 1_545
Mg0 Si7 2.881216 1_645
Mg0 Si0 2.945803 1_655
Mg0 Si0 2.945803 1_555
Mg0 Si1 3.011082 1_545
Mg0 Si1 3.011082 1_645
Mg0 Si12 3.197297 1_545
Mg1 Si4 2.741073 1_555
Mg1 Si5 2.820681 1_545
Mg1 Si8 2.830649 1_555
Mg1 Si10 2.847621 1_555
Mg2 Si9 2.754324 1_545
Mg2 Si10 2.799075 1_455
Mg2 Si10 2.799075 1_555
Mg2 Si5 2.807199 1_545
Mg2 Si5 2.807199 1_445
Mg2 Si6 3.166293 1_555
Mg2 Si6 3.166293 1_455
Mg3 Si4 2.839368 1_555
Mg3 Si4 2.839368 1_455
Mg3 Si8 2.914650 1_455
Mg3 Si8 2.914650 1_555
Mg3 Si7 2.974296 1_555
Mg3 Si11 3.073415 1_555
Mg3 Si12 3.208263 1_455
Mg3 Si12 3.208263 1_555
Mg3 Mg4 3.284588 1_455
Mg3 Mg4 3.284588 1_555
Mg4 Si2 2.849947 1_554
Mg4 Si8 2.881194 1_555
Mg4 Si11 2.951838 1_655
Mg4 Si11 2.951838 1_555
Mg4 Si1 2.967352 1_555
Mg4 Si1 2.967352 1_655
Mg4 Si7 3.031594 1_655
Mg4 Si7 3.031594 1_555
Mg4 Si0 3.068515 1_655
Mg4 Si0 3.068515 1_555
Mg4 Si12 3.205206 1_555
Mg5 Si3 2.641106 1_555
Mg5 Si9 2.704344 1_555
Mg5 Si10 2.773411 1_555
Mg5 Si10 2.773411 1_455
Mg5 Si13 2.814645 1_455
Mg5 Si13 2.814645 1_555
Mg5 Si0 2.850548 1_556
Mg5 Si2 3.092229 1_555
Mg5 Si2 3.092229 1_455
Mg5 Si6 3.134017 1_555
Mg5 Si6 3.134017 1_455
Mg6 Si4 2.785471 1_455
Mg6 Si4 2.785471 1_555
Mg6 Si10 2.821149 1_455
Mg6 Si10 2.821149 1_555
Mg6 Si5 2.922563 1_455
Mg6 Si5 2.922563 1_555
Mg6 Si13 2.987090 1_555
Mg6 Si13 2.987090 1_455
Mg7 Si5 2.818217 1_445
Mg7 Si5 2.818217 1_545
Mg7 Si12 2.937727 1_545
Mg7 Si12 2.937727 1_445
Mg7 Si8 2.940594 1_555
Mg7 Si8 2.940594 1_455
Mg7 Si4 2.953595 1_545
Mg7 Si4 2.953595 1_445
Si0 Si11 2.482224 1_555
Si0 Si3 2.496348 1_554
Si0 Si2 2.573406 1_454
Si0 Si2 2.573406 1_554
Si0 Si1 2.820892 1_555
Si1 Si3 2.402642 1_564
Si1 Si7 2.458767 1_555
Si1 Si2 2.701310 1_454
Si1 Si2 2.701310 1_554
Si1 Si9 2.926199 1_554
Si3 Si6 2.484337 1_455
Si3 Si6 2.484337 1_555
Si3 Si9 2.808872 1_545
Si4 Si5 2.417493 1_555
Si6 Si9 2.746380 1_645
Si6 Si9 2.746380 1_545
Si10 Si6 2.473135 1_555
Si10 Si13 2.530173 1_555
Si11 Si8 2.521833 1_455
Si11 Si8 2.521833 1_555
Si11 Si7 2.669872 1_545
Si12 Si4 2.376035 1_555
Si12 Si7 2.429617 1_655
Si12 Si7 2.429617 1_555
Si12 Si8 2.523707 1_565
Si13 Si5 2.460135 1_555
Si13 Si9 2.608778 1_555
Si13 Si9 2.608778 1_655
