# generated using pymatgen
data_PrHfO14
_symmetry_space_group_name_H-M   'P 1'
_cell_length_a   7.62811098
_cell_length_b   7.62811098
_cell_length_c   7.62811098
_cell_angle_alpha   60.00000000
_cell_angle_beta   60.00000000
_cell_angle_gamma   60.00000000
_symmetry_Int_Tables_number   1
_chemical_formula_structural   PrHfO14
_chemical_formula_sum   'Pr2 Hf2 O28'
_cell_volume   313.86002894
_cell_formula_units_Z   2
loop_
 _symmetry_equiv_pos_site_id
 _symmetry_equiv_pos_as_xyz
  1  'x, y, z'
loop_
 _atom_site_type_symbol
 _atom_site_label
 _atom_site_symmetry_multiplicity
 _atom_site_fract_x
 _atom_site_fract_y
 _atom_site_fract_z
 _atom_site_occupancy
  Pr  Pr0  1  0.00000000  0.00000000  0.00000000  1
  Pr  Pr1  1  0.75000000  0.75000000  0.75000000  1
  Hf  Hf0  1  0.50000000  0.50000000  0.50000000  1
  Hf  Hf1  1  0.25000000  0.25000000  0.25000000  1
  O  O0  1  0.87500000  0.87500000  0.87500000  1
  O  O1  1  0.37500000  0.87500000  0.87500000  1
  O  O2  1  0.87500000  0.37500000  0.87500000  1
  O  O3  1  0.87500000  0.87500000  0.37500000  1
  O  O4  1  0.51964600  0.51964600  0.18063400  1
  O  O5  1  0.78007400  0.18063400  0.51964600  1
  O  O6  1  0.18063400  0.78007400  0.51964600  1
  O  O7  1  0.51964600  0.18063400  0.51964600  1
  O  O8  1  0.96992600  0.23035400  0.56936600  1
  O  O9  1  0.23035400  0.23035400  0.56936600  1
  O  O10  1  0.51964600  0.51964600  0.78007400  1
  O  O11  1  0.18063400  0.51964600  0.78007400  1
  O  O12  1  0.23035400  0.56936600  0.23035400  1
  O  O13  1  0.96992600  0.56936600  0.23035400  1
  O  O14  1  0.78007400  0.51964600  0.18063400  1
  O  O15  1  0.23035400  0.96992600  0.23035400  1
  O  O16  1  0.56936600  0.96992600  0.23035400  1
  O  O17  1  0.51964600  0.78007400  0.51964600  1
  O  O18  1  0.56936600  0.23035400  0.96992600  1
  O  O19  1  0.23035400  0.23035400  0.96992600  1
  O  O20  1  0.18063400  0.51964600  0.51964600  1
  O  O21  1  0.51964600  0.18063400  0.78007400  1
  O  O22  1  0.78007400  0.51964600  0.51964600  1
  O  O23  1  0.51964600  0.78007400  0.18063400  1
  O  O24  1  0.23035400  0.56936600  0.96992600  1
  O  O25  1  0.56936600  0.23035400  0.23035400  1
  O  O26  1  0.23035400  0.96992600  0.56936600  1
  O  O27  1  0.96992600  0.23035400  0.23035400  1
loop_
_geom_bond_atom_site_label_1
_geom_bond_atom_site_label_2
_geom_bond_distance
_geom_bond_site_symmetry_2
Hf0 O17 2.296100 1_555
Hf0 O22 2.296100 1_555
Hf0 O10 2.296100 1_555
Hf0 O11 2.296100 1_555
Hf0 O5 2.296100 1_555
Hf0 O21 2.296100 1_555
Hf0 O14 2.296100 1_555
Hf0 O6 2.296100 1_555
Hf0 O23 2.296100 1_555
Hf0 O4 2.296100 1_555
Hf0 O7 2.296100 1_555
Hf0 O20 2.296100 1_555
Hf1 O12 2.296100 1_555
Hf1 O9 2.296100 1_555
Hf1 O25 2.296100 1_555
Hf1 O8 2.296100 1_455
Hf1 O24 2.296100 1_554
Hf1 O26 2.296100 1_545
Hf1 O13 2.296100 1_455
Hf1 O16 2.296100 1_545
Hf1 O18 2.296100 1_554
Hf1 O19 2.296100 1_554
Hf1 O15 2.296100 1_545
Hf1 O27 2.296100 1_455
O0 Pr0 2.335622 1_666
O0 Pr1 2.335622 1_555
O1 Pr0 2.335622 1_566
O1 Pr1 2.335622 1_555
O2 Pr0 2.335622 1_656
O2 Pr1 2.335622 1_555
O3 Pr1 2.335622 1_555
O3 Pr0 2.335622 1_665
O4 Pr1 2.917072 1_554
O5 O8 1.904568 1_555
O5 O7 1.986574 1_555
O5 Pr1 2.917072 1_545
O6 Pr1 2.917072 1_455
O7 O9 1.904568 1_555
O7 Pr1 2.917072 1_545
O8 O9 1.986574 1_655
O8 Pr0 2.917072 1_656
O9 Pr0 2.917072 1_556
O10 O18 1.904568 1_555
O10 O24 1.904568 1_555
O10 O22 1.986574 1_555
O10 O17 1.986574 1_555
O10 Pr1 2.917072 1_555
O11 O19 1.904568 1_555
O11 O24 1.904568 1_555
O11 O6 1.986574 1_555
O11 O20 1.986574 1_555
O11 Pr1 2.917072 1_455
O12 O4 1.904568 1_555
O12 O20 1.904568 1_555
O12 O24 1.986574 1_554
O12 O13 1.986574 1_455
O12 Pr0 2.917072 1_565
O13 O22 1.904568 1_555
O13 O14 1.904568 1_555
O13 O24 1.986574 1_654
O13 Pr0 2.917072 1_665
O14 O27 1.904568 1_555
O14 O23 1.986574 1_555
O14 O4 1.986574 1_555
O14 Pr1 2.917072 1_554
O15 O23 1.904568 1_555
O15 O6 1.904568 1_555
O15 O27 1.986574 1_465
O15 O19 1.986574 1_564
O15 Pr0 2.917072 1_565
O16 O17 1.904568 1_555
O16 O23 1.904568 1_555
O16 O25 1.986574 1_565
O16 O18 1.986574 1_564
O16 Pr0 2.917072 1_665
O17 O26 1.904568 1_555
O17 O22 1.986574 1_555
O17 Pr1 2.917072 1_555
O18 O21 1.904568 1_555
O18 O25 1.986574 1_556
O18 Pr0 2.917072 1_656
O19 O21 1.904568 1_555
O19 O27 1.986574 1_456
O19 Pr0 2.917072 1_556
O20 O9 1.904568 1_555
O20 O6 1.986574 1_555
O20 Pr1 2.917072 1_455
O21 O7 1.986574 1_555
O21 O5 1.986574 1_555
O21 Pr1 2.917072 1_545
O22 O8 1.904568 1_555
O22 Pr1 2.917072 1_555
O23 O4 1.986574 1_555
O23 Pr1 2.917072 1_554
O24 Pr0 2.917072 1_566
O25 O4 1.904568 1_555
O25 O7 1.904568 1_555
O25 Pr0 2.917072 1_655
O26 O6 1.904568 1_555
O26 O9 1.986574 1_565
O26 O8 1.986574 1_465
O26 Pr0 2.917072 1_566
O27 O5 1.904568 1_555
O27 Pr0 2.917072 1_655
