# generated using pymatgen
data_Y4Si2NO8
_symmetry_space_group_name_H-M   'P 1'
_cell_length_a   10.48062100
_cell_length_b   7.70705700
_cell_length_c   10.86555951
_cell_angle_alpha   70.43759949
_cell_angle_beta   90.00000000
_cell_angle_gamma   90.00000000
_symmetry_Int_Tables_number   1
_chemical_formula_structural   Y4Si2NO8
_chemical_formula_sum   'Y16 Si8 N4 O32'
_cell_volume   827.00179079
_cell_formula_units_Z   4
loop_
 _symmetry_equiv_pos_site_id
 _symmetry_equiv_pos_as_xyz
  1  'x, y, z'
loop_
 _atom_site_type_symbol
 _atom_site_label
 _atom_site_symmetry_multiplicity
 _atom_site_fract_x
 _atom_site_fract_y
 _atom_site_fract_z
 _atom_site_occupancy
  Y  Y0  1  0.87844800  0.65913000  0.42239300  1
  Y  Y1  1  0.12155200  0.34087000  0.57760700  1
  Y  Y2  1  0.37844800  0.34087000  0.07760700  1
  Y  Y3  1  0.62155200  0.65913000  0.92239300  1
  Y  Y4  1  0.38091500  0.83135200  0.06681300  1
  Y  Y5  1  0.61908500  0.16864800  0.93318700  1
  Y  Y6  1  0.88091500  0.16864800  0.43318700  1
  Y  Y7  1  0.11908500  0.83135200  0.56681300  1
  Y  Y8  1  0.60388900  0.98244800  0.28054700  1
  Y  Y9  1  0.39611100  0.01755200  0.71945300  1
  Y  Y10  1  0.10388900  0.01755200  0.21945300  1
  Y  Y11  1  0.89611100  0.98244800  0.78054700  1
  Y  Y12  1  0.58251500  0.47631800  0.31245000  1
  Y  Y13  1  0.41748500  0.52368200  0.68755000  1
  Y  Y14  1  0.08251500  0.52368200  0.18755000  1
  Y  Y15  1  0.91748500  0.47631800  0.81245000  1
  Si  Si0  1  0.81717100  0.85067100  0.12080500  1
  Si  Si1  1  0.18282900  0.14932900  0.87919500  1
  Si  Si2  1  0.31717100  0.14932900  0.37919500  1
  Si  Si3  1  0.68282900  0.85067100  0.62080500  1
  Si  Si4  1  0.81256100  0.26544600  0.13173700  1
  Si  Si5  1  0.18743900  0.73455400  0.86826300  1
  Si  Si6  1  0.31256100  0.73455400  0.36826300  1
  Si  Si7  1  0.68743900  0.26544600  0.63173700  1
  N  N0  1  0.26693100  0.93673300  0.38701000  1
  N  N1  1  0.73306900  0.06326700  0.61299000  1
  N  N2  1  0.76693100  0.06326700  0.11299000  1
  N  N3  1  0.23306900  0.93673300  0.88701000  1
  O  O0  1  0.96622200  0.80024800  0.17284000  1
  O  O1  1  0.03377800  0.19975200  0.82716000  1
  O  O2  1  0.46622200  0.19975200  0.32716000  1
  O  O3  1  0.53377800  0.80024800  0.67284000  1
  O  O4  1  0.97663800  0.93045400  0.39655300  1
  O  O5  1  0.02336200  0.06954600  0.60344700  1
  O  O6  1  0.47663800  0.06954600  0.10344700  1
  O  O7  1  0.52336200  0.93045400  0.89655300  1
  O  O8  1  0.46168600  0.73293300  0.31928700  1
  O  O9  1  0.53831400  0.26706700  0.68071300  1
  O  O10  1  0.96168600  0.26706700  0.18071300  1
  O  O11  1  0.03831400  0.73293300  0.81928700  1
  O  O12  1  0.50017700  0.57020000  0.10989100  1
  O  O13  1  0.49982300  0.42980000  0.89010900  1
  O  O14  1  0.00017700  0.42980000  0.39010900  1
  O  O15  1  0.99982300  0.57020000  0.60989100  1
  O  O16  1  0.72561100  0.27372700  0.25963300  1
  O  O17  1  0.27438900  0.72627300  0.74036700  1
  O  O18  1  0.22561100  0.72627300  0.24036700  1
  O  O19  1  0.77438900  0.27372700  0.75963300  1
  O  O20  1  0.71158900  0.83307300  0.47678000  1
  O  O21  1  0.28841100  0.16692700  0.52322000  1
  O  O22  1  0.21158900  0.16692700  0.02322000  1
  O  O23  1  0.78841100  0.83307300  0.97678000  1
  O  O24  1  0.72626000  0.42254900  0.49135100  1
  O  O25  1  0.27374000  0.57745100  0.50864900  1
  O  O26  1  0.22626000  0.57745100  0.00864900  1
  O  O27  1  0.77374000  0.42254900  0.99135100  1
  O  O28  1  0.72807400  0.71531400  0.24312300  1
  O  O29  1  0.27192600  0.28468600  0.75687700  1
  O  O30  1  0.22807400  0.28468600  0.25687700  1
  O  O31  1  0.77192600  0.71531400  0.74312300  1
loop_
_geom_bond_atom_site_label_1
_geom_bond_atom_site_label_2
_geom_bond_distance
_geom_bond_site_symmetry_2
N0 Si2 1.695859 1_565
N0 Si6 1.706093 1_555
N0 Y7 2.411401 1_555
N0 Y10 2.421381 1_565
N1 Si3 1.695859 1_545
N1 Si7 1.706093 1_555
N1 Y6 2.411401 1_555
N1 Y11 2.421381 1_545
N2 Si0 1.695859 1_545
N2 Si4 1.706093 1_555
N2 Y5 2.411401 1_554
N2 Y8 2.421381 1_545
N3 Si1 1.695859 1_565
N3 Si5 1.706093 1_555
N3 Y4 2.411401 1_556
N3 Y9 2.421381 1_565
O0 Si0 1.662483 1_555
O0 Y10 2.389811 1_665
O0 Y14 2.413766 1_655
O0 Y0 2.721518 1_555
O1 Si1 1.662483 1_555
O1 Y11 2.389811 1_445
O1 Y15 2.413766 1_455
O1 Y1 2.721518 1_555
O2 Si2 1.662483 1_555
O2 Y8 2.389811 1_545
O2 Y12 2.413766 1_555
O2 Y2 2.721518 1_555
O3 Si3 1.662483 1_555
O3 Y9 2.389811 1_565
O3 Y13 2.413766 1_555
O3 Y3 2.721518 1_555
O4 Y6 2.241504 1_565
O4 Y10 2.251033 1_665
O4 Y0 2.262174 1_555
O4 Y7 2.299648 1_655
O5 Y7 2.241504 1_545
O5 Y11 2.251033 1_445
O5 Y1 2.262174 1_555
O5 Y6 2.299648 1_455
O6 Y4 2.241504 1_545
O6 Y8 2.251033 1_545
O6 Y2 2.262174 1_555
O6 Y5 2.299648 1_554
O7 Y5 2.241504 1_565
O7 Y9 2.251033 1_565
O7 Y3 2.262174 1_555
O7 Y4 2.299648 1_556
O8 Si6 1.652429 1_555
O8 Y8 2.356770 1_555
O8 Y12 2.370456 1_555
O8 Y4 2.724710 1_555
O9 Si7 1.652429 1_555
O9 Y9 2.356770 1_555
O9 Y13 2.370456 1_555
O9 Y5 2.724710 1_555
O10 Si4 1.652429 1_555
O10 Y10 2.356770 1_655
O10 Y14 2.370456 1_655
O10 Y6 2.724710 1_555
O11 Si5 1.652429 1_555
O11 Y11 2.356770 1_455
O11 Y15 2.370456 1_455
O11 Y7 2.724710 1_555
O12 Y12 2.246291 1_555
O12 Y4 2.280695 1_555
O12 Y2 2.299958 1_555
O12 Y3 2.302903 1_554
O13 Y13 2.246291 1_555
O13 Y5 2.280695 1_555
O13 Y3 2.299958 1_555
O13 Y2 2.302903 1_556
O14 Y14 2.246291 1_555
O14 Y6 2.280695 1_455
O14 Y0 2.299958 1_455
O14 Y1 2.302903 1_555
O15 Y15 2.246291 1_555
O15 Y7 2.280695 1_655
O15 Y1 2.299958 1_655
O15 Y0 2.302903 1_555
O16 Si4 1.680796 1_555
O16 Y12 2.369919 1_555
O16 Y6 2.416319 1_555
O16 Y8 2.525288 1_545
O17 Si5 1.680796 1_555
O17 Y13 2.369919 1_555
O17 Y7 2.416319 1_555
O17 Y9 2.525288 1_565
O18 Si6 1.680796 1_555
O18 Y14 2.369919 1_555
O18 Y4 2.416319 1_555
O18 Y10 2.525288 1_565
O19 Si7 1.680796 1_555
O19 Y15 2.369919 1_555
O19 Y5 2.416319 1_555
O19 Y11 2.525288 1_545
O20 Si3 1.643270 1_555
O20 Y8 2.345604 1_555
O20 Y0 2.394821 1_555
O20 Y6 3.040111 1_565
O21 Si2 1.643270 1_555
O21 Y9 2.345604 1_555
O21 Y1 2.394821 1_555
O21 Y7 3.040111 1_545
O22 Si1 1.643270 1_554
O22 Y10 2.345604 1_555
O22 Y2 2.394821 1_555
O22 Y4 3.040111 1_545
O23 Si0 1.643270 1_556
O23 Y11 2.345604 1_555
O23 Y3 2.394821 1_555
O23 Y5 3.040111 1_565
O24 Si7 1.649703 1_555
O24 Y0 2.348448 1_555
O24 Y12 2.383386 1_555
O24 Y6 2.772004 1_555
O25 Si6 1.649703 1_555
O25 Y1 2.348448 1_555
O25 Y13 2.383386 1_555
O25 Y7 2.772004 1_555
O26 Si5 1.649703 1_554
O26 Y2 2.348448 1_555
O26 Y14 2.383386 1_555
O26 Y4 2.772004 1_555
O27 Si4 1.649703 1_556
O27 Y3 2.348448 1_555
O27 Y15 2.383386 1_555
O27 Y5 2.772004 1_555
O28 Si0 1.672767 1_555
O28 Y12 2.314814 1_555
O28 Y0 2.429131 1_555
O28 Y8 2.580447 1_555
O29 Si1 1.672767 1_555
O29 Y13 2.314814 1_555
O29 Y1 2.429131 1_555
O29 Y9 2.580447 1_555
O30 Si2 1.672767 1_555
O30 Y14 2.314814 1_555
O30 Y2 2.429131 1_555
O30 Y10 2.580447 1_555
O31 Si3 1.672767 1_555
O31 Y15 2.314814 1_555
O31 Y3 2.429131 1_555
O31 Y11 2.580447 1_555
