# generated using pymatgen
data_Li7Mn2(CoO4)3
_symmetry_space_group_name_H-M   'P 1'
_cell_length_a   6.54734033
_cell_length_b   6.54734033
_cell_length_c   11.95548411
_cell_angle_alpha   75.85592923
_cell_angle_beta   75.85592923
_cell_angle_gamma   25.76566211
_symmetry_Int_Tables_number   1
_chemical_formula_structural   Li7Mn2(CoO4)3
_chemical_formula_sum   'Li7 Mn2 Co3 O12'
_cell_volume   215.66810901
_cell_formula_units_Z   1
loop_
 _symmetry_equiv_pos_site_id
 _symmetry_equiv_pos_as_xyz
  1  'x, y, z'
loop_
 _atom_site_type_symbol
 _atom_site_label
 _atom_site_symmetry_multiplicity
 _atom_site_fract_x
 _atom_site_fract_y
 _atom_site_fract_z
 _atom_site_occupancy
  Li  Li0  1  0.66751200  0.66751200  0.58763900  1
  Li  Li1  1  0.33096600  0.33096600  0.42288300  1
  Li  Li2  1  0.00147800  0.00147800  0.24412200  1
  Li  Li3  1  0.66798500  0.66798500  0.07450200  1
  Li  Li4  1  0.32772400  0.32772400  0.91107500  1
  Li  Li5  1  0.00545400  0.00545400  0.75528200  1
  Li  Li6  1  0.66862000  0.66862000  0.83681900  1
  Mn  Mn0  1  0.00670800  0.00670800  0.99722200  1
  Mn  Mn1  1  0.00012600  0.00012600  0.50087900  1
  Co  Co0  1  0.31739900  0.31739900  0.67812700  1
  Co  Co1  1  0.67255100  0.67255100  0.32933000  1
  Co  Co2  1  0.32840600  0.32840600  0.16479900  1
  O  O0  1  0.50389900  0.50389900  0.38779200  1
  O  O1  1  0.16483100  0.16483100  0.21624600  1
  O  O2  1  0.83963900  0.83963900  0.04912700  1
  O  O3  1  0.49928400  0.49928400  0.89300000  1
  O  O4  1  0.17313500  0.17313500  0.70306100  1
  O  O5  1  0.84610800  0.84610800  0.54370100  1
  O  O6  1  0.83943000  0.83943000  0.78042800  1
  O  O7  1  0.49970200  0.49970200  0.60738000  1
  O  O8  1  0.15884100  0.15884100  0.45203900  1
  O  O9  1  0.82945700  0.82945700  0.28783100  1
  O  O10  1  0.49620200  0.49620200  0.11363500  1
  O  O11  1  0.15454400  0.15454400  0.96308200  1
loop_
_geom_bond_atom_site_label_1
_geom_bond_atom_site_label_2
_geom_bond_distance
_geom_bond_site_symmetry_2
Li0 O4 2.022367 1_655
Li0 O4 2.022367 1_565
Li0 O7 2.095437 1_555
Li0 O8 2.204846 1_655
Li0 O8 2.204846 1_565
Li0 O5 2.207484 1_555
Li1 O5 2.096353 1_455
Li1 O5 2.096353 1_545
Li1 O8 2.136624 1_555
Li1 O0 2.141206 1_555
Li1 O9 2.180344 1_545
Li1 O9 2.180344 1_455
Li2 O1 2.027504 1_555
Li2 O9 2.125933 1_445
Li2 O10 2.149857 1_455
Li2 O10 2.149857 1_545
Li2 O0 2.260273 1_455
Li2 O0 2.260273 1_545
Li3 O11 2.012317 1_564
Li3 O11 2.012317 1_654
Li3 O10 2.124385 1_555
Li3 O2 2.135419 1_555
Li3 O1 2.229374 1_565
Li3 O1 2.229374 1_655
Li4 O6 2.115647 1_455
Li4 O6 2.115647 1_545
Li4 O11 2.141141 1_555
Li4 O3 2.146026 1_555
Li4 O2 2.236968 1_456
Li4 O2 2.236968 1_546
Li5 O6 2.064563 1_445
Li5 O4 2.073977 1_555
Li5 O3 2.187023 1_545
Li5 O3 2.187023 1_455
Li5 O7 2.308272 1_455
Li5 O7 2.308272 1_545
Li6 O11 2.075082 1_655
Li6 O11 2.075082 1_565
Li6 O3 2.096594 1_555
Li6 O6 2.114640 1_555
Li6 O4 2.155303 1_565
Li6 O4 2.155303 1_655
Mn0 O11 1.828036 1_555
Mn0 O3 1.936936 1_545
Mn0 O3 1.936936 1_455
Mn0 O10 1.998101 1_546
Mn0 O10 1.998101 1_456
Mn0 O2 2.066344 1_446
Mn1 O5 1.903374 1_445
Mn1 O7 1.936171 1_455
Mn1 O7 1.936171 1_545
Mn1 O8 1.962795 1_555
Mn1 O0 1.982062 1_455
Mn1 O0 1.982062 1_545
Co0 O4 1.790227 1_555
Co0 O6 1.969356 1_545
Co0 O6 1.969356 1_455
Co0 O5 2.133741 1_545
Co0 O5 2.133741 1_455
Co0 O7 2.268049 1_555
Co1 O9 1.938976 1_555
Co1 O1 2.008806 1_655
Co1 O1 2.008806 1_565
Co1 O8 2.045751 1_565
Co1 O8 2.045751 1_655
Co1 O0 2.090196 1_555
Co2 O2 1.991121 1_545
Co2 O2 1.991121 1_455
Co2 O1 2.023456 1_555
Co2 O9 2.074754 1_455
Co2 O9 2.074754 1_545
Co2 O10 2.074887 1_555
