# generated using pymatgen
data_Pu3Th
_symmetry_space_group_name_H-M   'P 1'
_cell_length_a   6.89595953
_cell_length_b   6.89595953
_cell_length_c   5.43935600
_cell_angle_alpha   90.00000000
_cell_angle_beta   90.00000000
_cell_angle_gamma   119.99999548
_symmetry_Int_Tables_number   1
_chemical_formula_structural   Pu3Th
_chemical_formula_sum   'Pu6 Th2'
_cell_volume   224.01007086
_cell_formula_units_Z   2
loop_
 _symmetry_equiv_pos_site_id
 _symmetry_equiv_pos_as_xyz
  1  'x, y, z'
loop_
 _atom_site_type_symbol
 _atom_site_label
 _atom_site_symmetry_multiplicity
 _atom_site_fract_x
 _atom_site_fract_y
 _atom_site_fract_z
 _atom_site_occupancy
  Pu  Pu0  1  0.16352200  0.32704400  0.25000000  1
  Pu  Pu1  1  0.67295600  0.83647800  0.25000000  1
  Pu  Pu2  1  0.16352200  0.83647800  0.25000000  1
  Pu  Pu3  1  0.83647800  0.67295600  0.75000000  1
  Pu  Pu4  1  0.32704400  0.16352200  0.75000000  1
  Pu  Pu5  1  0.83647800  0.16352200  0.75000000  1
  Th  Th0  1  0.33333300  0.66666700  0.75000000  1
  Th  Th1  1  0.66666700  0.33333300  0.25000000  1
loop_
_geom_bond_atom_site_label_1
_geom_bond_atom_site_label_2
_geom_bond_distance
_geom_bond_site_symmetry_2
Pu0 Pu4 3.348339 1_555
Pu0 Pu4 3.348339 1_554
Pu0 Pu5 3.348339 1_455
Pu0 Pu5 3.348339 1_454
Pu0 Pu2 3.382923 1_545
Pu0 Pu1 3.382924 1_445
Pu0 Th0 3.392708 1_555
Pu0 Th0 3.392708 1_554
Pu0 Th1 3.448181 1_455
Pu0 Th1 3.448188 1_555
Pu0 Pu2 3.513036 1_555
Pu0 Pu1 3.513036 1_555
Pu1 Pu3 3.348339 1_554
Pu1 Pu3 3.348339 1_555
Pu1 Pu5 3.348339 1_565
Pu1 Pu5 3.348339 1_564
Pu1 Pu2 3.382923 1_655
Pu1 Th0 3.392708 1_555
Pu1 Th0 3.392708 1_554
Pu1 Th1 3.448181 1_565
Pu1 Th1 3.448188 1_555
Pu1 Pu2 3.513036 1_555
Pu2 Pu4 3.348339 1_564
Pu2 Pu4 3.348339 1_565
Pu2 Pu3 3.348339 1_455
Pu2 Pu3 3.348339 1_454
Pu2 Th0 3.392704 1_555
Pu2 Th0 3.392704 1_554
Pu2 Th1 3.448185 1_455
Pu2 Th1 3.448185 1_565
Pu3 Pu5 3.382923 1_565
Pu3 Pu4 3.382924 1_665
Pu3 Th1 3.392708 1_555
Pu3 Th1 3.392708 1_556
Pu3 Th0 3.448181 1_655
Pu3 Th0 3.448188 1_555
Pu3 Pu5 3.513036 1_555
Pu3 Pu4 3.513036 1_555
Pu4 Pu5 3.382923 1_455
Pu4 Th1 3.392708 1_555
Pu4 Th1 3.392708 1_556
Pu4 Th0 3.448181 1_545
Pu4 Th0 3.448188 1_555
Pu4 Pu5 3.513036 1_555
Pu5 Th1 3.392704 1_556
Pu5 Th1 3.392704 1_555
Pu5 Th0 3.448185 1_545
Pu5 Th0 3.448185 1_655
