# generated using pymatgen
data_MgGe3
_symmetry_space_group_name_H-M   'P 1'
_cell_length_a   5.91355643
_cell_length_b   5.91355643
_cell_length_c   5.91355643
_cell_angle_alpha   142.99213277
_cell_angle_beta   139.33424033
_cell_angle_gamma   56.14612320
_symmetry_Int_Tables_number   1
_chemical_formula_structural   MgGe3
_chemical_formula_sum   'Mg1 Ge3'
_cell_volume   80.48850651
_cell_formula_units_Z   1
loop_
 _symmetry_equiv_pos_site_id
 _symmetry_equiv_pos_as_xyz
  1  'x, y, z'
loop_
 _atom_site_type_symbol
 _atom_site_label
 _atom_site_symmetry_multiplicity
 _atom_site_fract_x
 _atom_site_fract_y
 _atom_site_fract_z
 _atom_site_occupancy
  Mg  Mg0  1  0.20942300  0.50000000  0.70942300  1
  Ge  Ge0  1  0.73605000  0.77408200  0.96196900  1
  Ge  Ge1  1  0.18788700  0.22591800  0.96196900  1
  Ge  Ge2  1  0.69997300  0.00000000  0.69997300  1
loop_
_geom_bond_atom_site_label_1
_geom_bond_atom_site_label_2
_geom_bond_distance
_geom_bond_site_symmetry_2
Ge0 Ge2 2.591828 1_565
Ge0 Ge1 2.827924 1_565
Ge0 Ge1 2.827926 1_554
Ge0 Ge1 2.827927 1_666
Ge0 Ge1 2.827929 1_655
Ge0 Mg0 3.042694 1_555
Ge0 Mg0 3.180373 1_666
Ge0 Mg0 3.180375 1_655
Ge1 Ge2 2.591824 1_455
Ge1 Mg0 3.042699 1_555
Ge1 Mg0 3.180369 1_545
Ge1 Mg0 3.180369 1_556
Ge2 Mg0 2.754352 1_555
Ge2 Mg0 2.754352 1_544
Ge2 Mg0 2.811700 1_656
Ge2 Mg0 2.811700 1_645
