# generated using pymatgen
data_AlAsO6
_symmetry_space_group_name_H-M   'P 1'
_cell_length_a   8.89253400
_cell_length_b   10.01366200
_cell_length_c   10.05425900
_cell_angle_alpha   90.00000000
_cell_angle_beta   90.00000000
_cell_angle_gamma   90.00000000
_symmetry_Int_Tables_number   1
_chemical_formula_structural   AlAsO6
_chemical_formula_sum   'Al8 As8 O48'
_cell_volume   895.29988993
_cell_formula_units_Z   8
loop_
 _symmetry_equiv_pos_site_id
 _symmetry_equiv_pos_as_xyz
  1  'x, y, z'
loop_
 _atom_site_type_symbol
 _atom_site_label
 _atom_site_symmetry_multiplicity
 _atom_site_fract_x
 _atom_site_fract_y
 _atom_site_fract_z
 _atom_site_occupancy
  Al  Al0  1  0.35862700  0.18834600  0.12718600  1
  Al  Al1  1  0.64137300  0.81165400  0.87281400  1
  Al  Al2  1  0.14137300  0.81165400  0.62718600  1
  Al  Al3  1  0.64137300  0.68834600  0.37281400  1
  Al  Al4  1  0.85862700  0.18834600  0.37281400  1
  Al  Al5  1  0.35862700  0.31165400  0.62718600  1
  Al  Al6  1  0.85862700  0.31165400  0.87281400  1
  Al  Al7  1  0.14137300  0.68834600  0.12718600  1
  As  As0  1  0.04082700  0.36407700  0.16133500  1
  As  As1  1  0.95917300  0.63592300  0.83866500  1
  As  As2  1  0.45917300  0.63592300  0.66133500  1
  As  As3  1  0.95917300  0.86407700  0.33866500  1
  As  As4  1  0.54082700  0.36407700  0.33866500  1
  As  As5  1  0.04082700  0.13592300  0.66133500  1
  As  As6  1  0.54082700  0.13592300  0.83866500  1
  As  As7  1  0.45917300  0.86407700  0.16133500  1
  O  O0  1  0.47545500  0.03491700  0.16994800  1
  O  O1  1  0.52454500  0.96508300  0.83005200  1
  O  O2  1  0.02454500  0.96508300  0.66994800  1
  O  O3  1  0.52454500  0.53491700  0.33005200  1
  O  O4  1  0.97545500  0.03491700  0.33005200  1
  O  O5  1  0.47545500  0.46508300  0.66994800  1
  O  O6  1  0.97545500  0.46508300  0.83005200  1
  O  O7  1  0.02454500  0.53491700  0.16994800  1
  O  O8  1  0.21558800  0.32422200  0.10269300  1
  O  O9  1  0.78441200  0.67577800  0.89730700  1
  O  O10  1  0.28441200  0.67577800  0.60269300  1
  O  O11  1  0.78441200  0.82422200  0.39730700  1
  O  O12  1  0.71558800  0.32422200  0.39730700  1
  O  O13  1  0.21558800  0.17577800  0.60269300  1
  O  O14  1  0.71558800  0.17577800  0.89730700  1
  O  O15  1  0.28441200  0.82422200  0.10269300  1
  O  O16  1  0.40279700  0.30590300  0.44627500  1
  O  O17  1  0.59720300  0.69409700  0.55372500  1
  O  O18  1  0.09720300  0.69409700  0.94627500  1
  O  O19  1  0.59720300  0.80590300  0.05372500  1
  O  O20  1  0.90279700  0.30590300  0.05372500  1
  O  O21  1  0.40279700  0.19409700  0.94627500  1
  O  O22  1  0.90279700  0.19409700  0.55372500  1
  O  O23  1  0.09720300  0.80590300  0.44627500  1
  O  O24  1  0.20021700  0.07710700  0.05169100  1
  O  O25  1  0.79978300  0.92289300  0.94830900  1
  O  O26  1  0.29978300  0.92289300  0.55169100  1
  O  O27  1  0.79978300  0.57710700  0.44830900  1
  O  O28  1  0.70021700  0.07710700  0.44830900  1
  O  O29  1  0.20021700  0.42289300  0.55169100  1
  O  O30  1  0.70021700  0.42289300  0.94830900  1
  O  O31  1  0.29978300  0.57710700  0.05169100  1
  O  O32  1  0.28057400  0.12912000  0.29474300  1
  O  O33  1  0.71942600  0.87088000  0.70525700  1
  O  O34  1  0.21942600  0.87088000  0.79474300  1
  O  O35  1  0.71942600  0.62912000  0.20525700  1
  O  O36  1  0.78057400  0.12912000  0.20525700  1
  O  O37  1  0.28057400  0.37088000  0.79474300  1
  O  O38  1  0.78057400  0.37088000  0.70525700  1
  O  O39  1  0.21942600  0.62912000  0.29474300  1
  O  O40  1  0.00868400  0.29696800  0.31307500  1
  O  O41  1  0.99131600  0.70303200  0.68692500  1
  O  O42  1  0.49131600  0.70303200  0.81307500  1
  O  O43  1  0.99131600  0.79696800  0.18692500  1
  O  O44  1  0.50868400  0.29696800  0.18692500  1
  O  O45  1  0.00868400  0.20303200  0.81307500  1
  O  O46  1  0.50868400  0.20303200  0.68692500  1
  O  O47  1  0.49131600  0.79696800  0.31307500  1
loop_
_geom_bond_atom_site_label_1
_geom_bond_atom_site_label_2
_geom_bond_distance
_geom_bond_site_symmetry_2
Al0 O44 1.823307 1_555
Al0 O21 1.861743 1_554
Al0 O8 1.878790 1_555
Al0 O0 1.903848 1_555
Al0 O32 1.916135 1_555
Al0 O24 1.949689 1_555
Al1 O42 1.823307 1_555
Al1 O19 1.861743 1_556
Al1 O9 1.878790 1_555
Al1 O1 1.903848 1_555
Al1 O33 1.916135 1_555
Al1 O25 1.949689 1_555
Al2 O41 1.823307 1_455
Al2 O23 1.861743 1_555
Al2 O10 1.878790 1_555
Al2 O2 1.903848 1_555
Al2 O34 1.916135 1_555
Al2 O26 1.949689 1_555
Al3 O47 1.823307 1_555
Al3 O17 1.861743 1_555
Al3 O11 1.878790 1_555
Al3 O3 1.903848 1_555
Al3 O35 1.916135 1_555
Al3 O27 1.949689 1_555
Al4 O40 1.823307 1_655
Al4 O22 1.861743 1_555
Al4 O12 1.878790 1_555
Al4 O4 1.903848 1_555
Al4 O36 1.916135 1_555
Al4 O28 1.949689 1_555
Al5 O46 1.823307 1_555
Al5 O16 1.861743 1_555
Al5 O13 1.878790 1_555
Al5 O5 1.903848 1_555
Al5 O37 1.916135 1_555
Al5 O29 1.949689 1_555
Al6 O45 1.823307 1_655
Al6 O20 1.861743 1_556
Al6 O14 1.878790 1_555
Al6 O6 1.903848 1_555
Al6 O38 1.916135 1_555
Al6 O30 1.949689 1_555
Al7 O43 1.823307 1_455
Al7 O18 1.861743 1_554
Al7 O15 1.878790 1_555
Al7 O7 1.903848 1_555
Al7 O39 1.916135 1_555
Al7 O31 1.949689 1_555
As0 O40 1.691405 1_555
As0 O8 1.709396 1_555
As0 O7 1.719033 1_555
As0 O20 1.736819 1_455
As1 O41 1.691405 1_555
As1 O9 1.709396 1_555
As1 O6 1.719033 1_555
As1 O18 1.736819 1_655
As2 O42 1.691405 1_555
As2 O10 1.709396 1_555
As2 O5 1.719033 1_555
As2 O17 1.736819 1_555
As3 O43 1.691405 1_555
As3 O11 1.709396 1_555
As3 O4 1.719033 1_565
As3 O23 1.736819 1_655
As4 O44 1.691405 1_555
As4 O12 1.709396 1_555
As4 O3 1.719033 1_555
As4 O16 1.736819 1_555
As5 O45 1.691405 1_555
As5 O13 1.709396 1_555
As5 O2 1.719033 1_545
As5 O22 1.736819 1_455
As6 O46 1.691405 1_555
As6 O14 1.709396 1_555
As6 O1 1.719033 1_545
As6 O21 1.736819 1_555
As7 O47 1.691405 1_555
As7 O15 1.709396 1_555
As7 O0 1.719033 1_565
As7 O19 1.736819 1_555
