# generated using pymatgen
data_KCaAs(H4O3)4
_symmetry_space_group_name_H-M   'P 1'
_cell_length_a   8.48084940
_cell_length_b   8.48084940
_cell_length_c   7.49653100
_cell_angle_alpha   90.00000000
_cell_angle_beta   90.00000000
_cell_angle_gamma   118.77029087
_symmetry_Int_Tables_number   1
_chemical_formula_structural   KCaAs(H4O3)4
_chemical_formula_sum   'K1 Ca1 As1 H16 O12'
_cell_volume   472.62739363
_cell_formula_units_Z   1
loop_
 _symmetry_equiv_pos_site_id
 _symmetry_equiv_pos_as_xyz
  1  'x, y, z'
loop_
 _atom_site_type_symbol
 _atom_site_label
 _atom_site_symmetry_multiplicity
 _atom_site_fract_x
 _atom_site_fract_y
 _atom_site_fract_z
 _atom_site_occupancy
  K  K0  1  0.41062600  0.58937400  0.00000000  1
  Ca  Ca0  1  0.11537600  0.88462400  0.00000000  1
  As  As0  1  0.58407200  0.41592800  0.50000000  1
  H  H0  1  0.46385200  0.93212400  0.55028000  1
  H  H1  1  0.06787600  0.53614800  0.44972000  1
  H  H2  1  0.06787600  0.53614800  0.55028000  1
  H  H3  1  0.46385200  0.93212400  0.44972000  1
  H  H4  1  0.73574700  0.52555800  0.14472500  1
  H  H5  1  0.47444200  0.26425300  0.85527500  1
  H  H6  1  0.47444200  0.26425300  0.14472500  1
  H  H7  1  0.73574700  0.52555800  0.85527500  1
  H  H8  1  0.98164500  0.83822500  0.36926300  1
  H  H9  1  0.16177500  0.01835500  0.63073700  1
  H  H10  1  0.16177500  0.01835500  0.36926300  1
  H  H11  1  0.98164500  0.83822500  0.63073700  1
  H  H12  1  0.15619300  0.29803900  0.39726200  1
  H  H13  1  0.70196100  0.84380700  0.60273800  1
  H  H14  1  0.70196100  0.84380700  0.39726200  1
  H  H15  1  0.15619300  0.29803900  0.60273800  1
  O  O0  1  0.76116500  0.82422300  0.50000000  1
  O  O1  1  0.17577700  0.23883500  0.50000000  1
  O  O2  1  0.65034400  0.34965600  0.30828100  1
  O  O3  1  0.65034400  0.34965600  0.69171900  1
  O  O4  1  0.16384100  0.66133900  0.00000000  1
  O  O5  1  0.33866100  0.83615900  0.00000000  1
  O  O6  1  0.76238900  0.64850500  0.90049000  1
  O  O7  1  0.35149500  0.23761100  0.09951000  1
  O  O8  1  0.35149500  0.23761100  0.90049000  1
  O  O9  1  0.76238900  0.64850500  0.09951000  1
  O  O10  1  0.09507200  0.90492800  0.30552400  1
  O  O11  1  0.09507200  0.90492800  0.69447600  1
loop_
_geom_bond_atom_site_label_1
_geom_bond_atom_site_label_2
_geom_bond_distance
_geom_bond_site_symmetry_2
K0 O4 2.445919 1_555
K0 O5 2.445919 1_555
K0 O7 2.875353 1_555
K0 O8 2.875353 1_554
K0 O6 2.875353 1_554
K0 O9 2.875353 1_555
Ca0 O5 2.122278 1_555
Ca0 O4 2.122278 1_555
Ca0 O11 2.309467 1_554
Ca0 O10 2.309467 1_555
As0 O2 1.732479 1_555
As0 O3 1.732479 1_555
H0 H3 0.753851 1_555
H1 H2 0.753851 1_555
H4 O9 1.013101 1_555
H5 O8 1.013101 1_555
H6 O7 1.013101 1_555
H7 O6 1.013101 1_555
H8 O10 0.974610 1_655
H9 O11 0.974610 1_545
H10 O10 0.974610 1_545
H11 O11 0.974610 1_655
H12 O1 0.976289 1_555
H13 O0 0.976289 1_555
H14 O0 0.976289 1_555
H15 O1 0.976289 1_555
O4 O5 1.510094 1_555
