# generated using pymatgen
data_Li9Mn2Co5O16
_symmetry_space_group_name_H-M   'P 1'
_cell_length_a   5.94620900
_cell_length_b   6.45121939
_cell_length_c   7.73523406
_cell_angle_alpha   89.44850019
_cell_angle_beta   98.79143853
_cell_angle_gamma   103.51257515
_symmetry_Int_Tables_number   1
_chemical_formula_structural   Li9Mn2Co5O16
_chemical_formula_sum   'Li9 Mn2 Co5 O16'
_cell_volume   285.01736626
_cell_formula_units_Z   1
loop_
 _symmetry_equiv_pos_site_id
 _symmetry_equiv_pos_as_xyz
  1  'x, y, z'
loop_
 _atom_site_type_symbol
 _atom_site_label
 _atom_site_symmetry_multiplicity
 _atom_site_fract_x
 _atom_site_fract_y
 _atom_site_fract_z
 _atom_site_occupancy
  Li  Li0  1  0.37674900  0.36862900  0.12207200  1
  Li  Li1  1  0.12493300  0.12359400  0.37566300  1
  Li  Li2  1  0.73855700  0.75715900  0.24787600  1
  Li  Li3  1  0.50000000  0.50000000  0.50000000  1
  Li  Li4  1  0.87506700  0.87640600  0.62433700  1
  Li  Li5  1  0.26144300  0.24284100  0.75212400  1
  Li  Li6  1  0.00000000  0.00000000  0.00000000  1
  Li  Li7  1  0.62325100  0.63137100  0.87792800  1
  Li  Li8  1  0.50000000  0.00000000  0.00000000  1
  Mn  Mn0  1  0.86670300  0.37321600  0.12089500  1
  Mn  Mn1  1  0.13329700  0.62678400  0.87910500  1
  Co  Co0  1  0.61004300  0.11931400  0.36678000  1
  Co  Co1  1  0.38995700  0.88068600  0.63322000  1
  Co  Co2  1  0.00000000  0.50000000  0.50000000  1
  Co  Co3  1  0.74649900  0.24922500  0.74963200  1
  Co  Co4  1  0.25350100  0.75077500  0.25036800  1
  O  O0  1  0.06135000  0.32698400  0.95043800  1
  O  O1  1  0.81817300  0.08527500  0.19028000  1
  O  O2  1  0.40047800  0.68636500  0.05913400  1
  O  O3  1  0.15364600  0.45154500  0.30166800  1
  O  O4  1  0.56748200  0.81671500  0.44217500  1
  O  O5  1  0.90927100  0.20814500  0.55445000  1
  O  O6  1  0.67586900  0.95560500  0.79570100  1
  O  O7  1  0.30898500  0.56521400  0.70548700  1
  O  O8  1  0.69101500  0.43478600  0.29451300  1
  O  O9  1  0.43251800  0.18328500  0.55782500  1
  O  O10  1  0.09072900  0.79185500  0.44555000  1
  O  O11  1  0.84635400  0.54845500  0.69833200  1
  O  O12  1  0.18182700  0.91472500  0.80972000  1
  O  O13  1  0.59952200  0.31363500  0.94086600  1
  O  O14  1  0.32413100  0.04439500  0.20429900  1
  O  O15  1  0.93865000  0.67301600  0.04956200  1
loop_
_geom_bond_atom_site_label_1
_geom_bond_atom_site_label_2
_geom_bond_distance
_geom_bond_site_symmetry_2
Li0 O2 2.079704 1_555
Li0 O8 2.080793 1_555
Li0 O0 2.088617 1_554
Li0 O14 2.146406 1_555
Li0 O13 2.154533 1_554
Li0 O3 2.210257 1_555
Li1 O14 2.048625 1_555
Li1 O9 2.091031 1_555
Li1 O1 2.107406 1_455
Li1 O3 2.161164 1_555
Li1 O10 2.172936 1_545
Li1 O5 2.176714 1_455
Li2 O4 2.025429 1_555
Li2 O8 2.068136 1_555
Li2 O1 2.116896 1_565
Li2 O15 2.222430 1_555
Li2 O2 2.251217 1_555
Li2 O10 2.362645 1_655
Li3 O9 2.046918 1_555
Li3 O4 2.046918 1_555
Li3 O7 2.186685 1_555
Li3 O8 2.186685 1_555
Li3 O11 2.331395 1_555
Li3 O3 2.331395 1_555
Li4 O6 2.048625 1_555
Li4 O4 2.091031 1_555
Li4 O12 2.107406 1_655
Li4 O11 2.161164 1_555
Li4 O5 2.172936 1_565
Li4 O10 2.176714 1_655
Li5 O9 2.025429 1_555
Li5 O7 2.068136 1_555
Li5 O12 2.116896 1_545
Li5 O0 2.222430 1_555
Li5 O13 2.251217 1_555
Li5 O5 2.362645 1_455
Li6 O15 2.096994 1_445
Li6 O0 2.096994 1_554
Li6 O12 2.101891 1_544
Li6 O1 2.101891 1_455
Li6 O14 2.261368 1_555
Li6 O6 2.261368 1_444
Li7 O13 2.079704 1_555
Li7 O7 2.080793 1_555
Li7 O15 2.088617 1_556
Li7 O6 2.146406 1_555
Li7 O2 2.154533 1_556
Li7 O11 2.210257 1_555
Li8 O13 2.039281 1_554
Li8 O2 2.039281 1_545
Li8 O14 2.080100 1_555
Li8 O6 2.080100 1_544
Li8 O1 2.174026 1_555
Li8 O12 2.174026 1_544
Mn0 O1 1.897247 1_555
Mn0 O13 1.913022 1_554
Mn0 O8 1.919829 1_555
Mn0 O0 1.949984 1_654
Mn0 O15 1.973088 1_555
Mn0 O3 2.000809 1_655
Mn1 O12 1.897247 1_555
Mn1 O2 1.913022 1_556
Mn1 O7 1.919829 1_555
Mn1 O15 1.949984 1_456
Mn1 O0 1.973088 1_555
Mn1 O11 2.000809 1_455
Co0 O14 1.917834 1_555
Co0 O4 2.001828 1_545
Co0 O1 2.023128 1_555
Co0 O9 2.039753 1_555
Co0 O8 2.070919 1_555
Co0 O5 2.086036 1_555
Co1 O6 1.917834 1_555
Co1 O9 2.001828 1_565
Co1 O12 2.023128 1_555
Co1 O4 2.039753 1_555
Co1 O7 2.070919 1_555
Co1 O10 2.086036 1_555
Co2 O10 1.895512 1_555
Co2 O5 1.895512 1_455
Co2 O3 1.963958 1_555
Co2 O11 1.963958 1_455
Co2 O7 2.199563 1_555
Co2 O8 2.199563 1_455
Co3 O6 1.884776 1_545
Co3 O13 1.923882 1_555
Co3 O11 1.938580 1_555
Co3 O5 1.964866 1_555
Co3 O9 2.159212 1_555
Co3 O0 2.203759 1_655
Co4 O14 1.884776 1_565
Co4 O2 1.923882 1_555
Co4 O3 1.938580 1_555
Co4 O10 1.964866 1_555
Co4 O4 2.159212 1_555
Co4 O15 2.203759 1_455
