# generated using pymatgen
data_Sb4S3N6(OF)12
_symmetry_space_group_name_H-M   'P 1'
_cell_length_a   7.49446000
_cell_length_b   17.79407651
_cell_length_c   17.79629618
_cell_angle_alpha   60.22951458
_cell_angle_beta   89.39448454
_cell_angle_gamma   89.17837953
_symmetry_Int_Tables_number   1
_chemical_formula_structural   Sb4S3N6(OF)12
_chemical_formula_sum   'Sb12 S9 N18 O36 F36'
_cell_volume   2059.81277055
_cell_formula_units_Z   3
loop_
 _symmetry_equiv_pos_site_id
 _symmetry_equiv_pos_as_xyz
  1  'x, y, z'
loop_
 _atom_site_type_symbol
 _atom_site_label
 _atom_site_symmetry_multiplicity
 _atom_site_fract_x
 _atom_site_fract_y
 _atom_site_fract_z
 _atom_site_occupancy
  Sb  Sb0  1  0.49480700  0.02491700  0.81585600  1
  Sb  Sb1  1  0.49260200  0.15840800  0.02590600  1
  Sb  Sb2  1  0.49513600  0.81598400  0.15865800  1
  Sb  Sb3  1  0.57455200  0.59914500  0.86751300  1
  Sb  Sb4  1  0.58196700  0.52666100  0.60637800  1
  Sb  Sb5  1  0.62265900  0.87459200  0.52919400  1
  Sb  Sb6  1  0.15703800  0.14808400  0.49275400  1
  Sb  Sb7  1  0.11382200  0.36691100  0.14145200  1
  Sb  Sb8  1  0.16028200  0.48664100  0.36751000  1
  Sb  Sb9  1  0.12725400  0.66397700  0.66766800  1
  Sb  Sb10  1  0.60222900  0.33320500  0.33507100  1
  Sb  Sb11  1  0.88467700  0.99825800  0.99951800  1
  S  S0  1  0.26244100  0.15798400  0.86544400  1
  S  S1  1  0.26361600  0.97839200  0.15810400  1
  S  S2  1  0.26431700  0.86504800  0.97792400  1
  S  S3  1  0.86337600  0.49478100  0.78449800  1
  S  S4  1  0.84992100  0.72314000  0.49758800  1
  S  S5  1  0.86181100  0.78873800  0.71287300  1
  S  S6  1  0.87226100  0.30327500  0.49576500  1
  S  S7  1  0.88438000  0.20477500  0.29885100  1
  S  S8  1  0.87218300  0.49071100  0.19840500  1
  N  N0  1  0.78783800  0.27346900  0.77653900  1
  N  N1  1  0.78691700  0.94944200  0.27337800  1
  N  N2  1  0.78773100  0.77682300  0.94908700  1
  N  N3  1  0.10075600  0.44742000  0.60665800  1
  N  N4  1  0.10467400  0.94397100  0.44843800  1
  N  N5  1  0.09654700  0.60683600  0.94586700  1
  N  N6  1  0.31124900  0.39922700  0.84023100  1
  N  N7  1  0.31894400  0.76152600  0.39915700  1
  N  N8  1  0.31062700  0.83878100  0.76148700  1
  N  N9  1  0.97459500  0.07121000  0.72486100  1
  N  N10  1  0.97380100  0.20419300  0.07199400  1
  N  N11  1  0.97739400  0.72395700  0.20430300  1
  N  N12  1  0.42098500  0.30169000  0.60301500  1
  N  N13  1  0.42028700  0.09563700  0.30299100  1
  N  N14  1  0.41973600  0.60155400  0.09596800  1
  N  N15  1  0.62776900  0.06308400  0.58812000  1
  N  N16  1  0.62108800  0.34919100  0.06351400  1
  N  N17  1  0.63063300  0.58794300  0.34939600  1
  O  O0  1  0.25387200  0.23215900  0.78111900  1
  O  O1  1  0.25430500  0.98685200  0.23370600  1
  O  O2  1  0.25463500  0.78145800  0.98634000  1
  O  O3  1  0.10269200  0.13333700  0.92033000  1
  O  O4  1  0.10478000  0.94954600  0.13285000  1
  O  O5  1  0.10308400  0.92038300  0.94930600  1
  O  O6  1  0.31156500  0.07264700  0.86414300  1
  O  O7  1  0.30950600  0.06508500  0.07414900  1
  O  O8  1  0.31093000  0.86248600  0.06473400  1
  O  O9  1  0.42835800  0.16952000  0.91143600  1
  O  O10  1  0.43197600  0.92129300  0.16775900  1
  O  O11  1  0.42949800  0.91134700  0.92049700  1
  O  O12  1  0.96749500  0.57999100  0.76177900  1
  O  O13  1  0.96119900  0.66313100  0.57860200  1
  O  O14  1  0.98716800  0.76583500  0.65792500  1
  O  O15  1  0.82495100  0.49662500  0.70139100  1
  O  O16  1  0.80580300  0.80326800  0.51011800  1
  O  O17  1  0.80540200  0.71049800  0.79137600  1
  O  O18  1  0.96613500  0.41981400  0.84285200  1
  O  O19  1  0.94814000  0.75460200  0.41856900  1
  O  O20  1  0.93445400  0.85646700  0.72276900  1
  O  O21  1  0.69548000  0.50461200  0.82523900  1
  O  O22  1  0.68759200  0.67455100  0.50620200  1
  O  O23  1  0.68776900  0.82176200  0.65433100  1
  O  O24  1  0.77887500  0.29793100  0.56871900  1
  O  O25  1  0.80477100  0.14275000  0.28148400  1
  O  O26  1  0.82359400  0.56454400  0.11842200  1
  O  O27  1  0.90535600  0.21566900  0.50432100  1
  O  O28  1  0.90951600  0.29147900  0.21028400  1
  O  O29  1  0.91215400  0.50363500  0.27130900  1
  O  O30  1  0.75685100  0.35709000  0.41111800  1
  O  O31  1  0.75764800  0.23185700  0.35066300  1
  O  O32  1  0.73053400  0.41974700  0.22485400  1
  O  O33  1  0.04360600  0.35169900  0.47501000  1
  O  O34  1  0.05462000  0.18024500  0.34562600  1
  O  O35  1  0.05137300  0.44706500  0.18661900  1
  F  F0  1  0.58386300  0.13474400  0.73548600  1
  F  F1  1  0.58322900  0.12870400  0.13593700  1
  F  F2  1  0.58727600  0.73540500  0.12827600  1
  F  F3  1  0.33214000  0.01139300  0.74380600  1
  F  F4  1  0.32770800  0.24390500  0.01620400  1
  F  F5  1  0.33069500  0.74491100  0.24444000  1
  F  F6  1  0.68222700  0.96410600  0.79758900  1
  F  F7  1  0.67786500  0.23649100  0.96634300  1
  F  F8  1  0.68090200  0.79668600  0.23698300  1
  F  F9  1  0.47439500  0.68092500  0.89771700  1
  F  F10  1  0.47753800  0.41691300  0.68486600  1
  F  F11  1  0.49039300  0.87842000  0.43765900  1
  F  F12  1  0.72849900  0.54894600  0.96519200  1
  F  F13  1  0.73045700  0.48263100  0.54974300  1
  F  F14  1  0.75098000  0.97815600  0.47589000  1
  F  F15  1  0.39202200  0.51366100  0.91968100  1
  F  F16  1  0.39886100  0.57076500  0.51977500  1
  F  F17  1  0.41249200  0.89796000  0.57303000  1
  F  F18  1  0.25721000  0.15574100  0.58728800  1
  F  F19  1  0.24617300  0.26610100  0.16752100  1
  F  F20  1  0.26061000  0.58003200  0.26338300  1
  F  F21  1  0.02409500  0.04549000  0.55943200  1
  F  F22  1  0.99852200  0.40075100  0.03688100  1
  F  F23  1  0.02247500  0.55934500  0.39640900  1
  F  F24  1  0.34384300  0.08433100  0.47221800  1
  F  F25  1  0.31855100  0.43516900  0.09677800  1
  F  F26  1  0.34861000  0.46874900  0.44655700  1
  F  F27  1  0.27175800  0.66697400  0.75418700  1
  F  F28  1  0.27333600  0.57346800  0.67103300  1
  F  F29  1  0.27845600  0.74653200  0.57983800  1
  F  F30  1  0.46080500  0.25540400  0.43222500  1
  F  F31  1  0.45055700  0.31346700  0.26170100  1
  F  F32  1  0.44743500  0.42690900  0.31804500  1
  F  F33  1  0.69816100  0.03242300  0.89993700  1
  F  F34  1  0.69400600  0.06482200  0.03464600  1
  F  F35  1  0.69915500  0.89899200  0.06542400  1
loop_
_geom_bond_atom_site_label_1
_geom_bond_atom_site_label_2
_geom_bond_distance
_geom_bond_site_symmetry_2
O0 S0 1.425089 1_555
O1 S1 1.427086 1_555
O2 S2 1.421870 1_555
O3 S0 1.464486 1_555
O3 Sb11 2.670798 1_445
O4 S1 1.463008 1_555
O4 Sb11 2.664936 1_454
O5 S2 1.473060 1_555
O5 Sb11 2.555708 1_455
O6 S0 1.568629 1_555
O6 Sb0 2.003024 1_555
O7 S1 1.563910 1_545
O7 Sb1 2.000571 1_555
O8 S2 1.565832 1_554
O8 Sb2 2.006731 1_555
O9 S0 1.566501 1_555
O9 Sb1 2.009692 1_556
O10 S1 1.564716 1_555
O10 Sb2 2.008990 1_555
O11 S2 1.556303 1_555
O11 Sb0 2.015762 1_565
O12 S3 1.577914 1_555
O12 Sb9 1.998837 1_655
O13 S4 1.544478 1_555
O13 Sb9 2.031571 1_655
O14 S5 1.539578 1_555
O14 Sb9 2.013586 1_655
O15 S3 1.493980 1_555
O15 Sb4 2.366563 1_555
O16 S4 1.578801 1_555
O16 Sb5 1.994483 1_555
O17 S5 1.463439 1_555
O17 Sb3 2.477469 1_555
O18 S3 1.436235 1_555
O19 S4 1.428609 1_555
O20 S5 1.418263 1_555
O21 S3 1.496641 1_555
O21 Sb3 2.327118 1_555
O22 S4 1.464810 1_555
O22 Sb4 2.470033 1_555
O23 S5 1.590859 1_555
O23 Sb5 2.003024 1_555
O24 S6 1.429890 1_555
O25 S7 1.425172 1_555
O26 S8 1.422988 1_555
O27 S6 1.506243 1_555
O27 Sb6 2.284525 1_655
O28 S7 1.577113 1_555
O28 Sb7 2.008264 1_655
O29 S8 1.460278 1_555
O29 Sb8 2.453074 1_655
O30 S6 1.582918 1_555
O30 Sb10 1.993366 1_555
O31 S7 1.547301 1_555
O31 Sb10 2.033618 1_555
O32 S8 1.542941 1_555
O32 Sb10 2.036272 1_555
O33 S6 1.494507 1_455
O33 Sb8 2.377661 1_555
O34 S7 1.468644 1_455
O34 Sb6 2.512809 1_555
O35 S8 1.605158 1_455
O35 Sb7 2.002689 1_555
F0 Sb0 1.884630 1_555
F1 Sb1 1.888129 1_555
F2 Sb2 1.886434 1_555
F3 Sb0 1.880449 1_555
F4 Sb1 1.887117 1_555
F5 Sb2 1.880534 1_555
F6 Sb0 1.882972 1_565
F7 Sb1 1.882426 1_556
F8 Sb2 1.884438 1_555
F9 Sb3 1.925325 1_555
F10 Sb4 1.920719 1_555
F11 Sb5 1.887547 1_555
F12 Sb3 1.903068 1_555
F13 Sb4 1.898310 1_555
F14 Sb5 1.875178 1_555
F15 Sb3 1.917672 1_555
F16 Sb4 1.920176 1_555
F17 Sb5 1.881426 1_555
F18 Sb6 1.915657 1_555
F19 Sb7 1.883921 1_555
F20 Sb8 1.925921 1_555
F21 Sb6 1.899845 1_555
F22 Sb7 1.865146 1_655
F23 Sb8 1.901576 1_555
F24 Sb6 1.932833 1_555
F25 Sb7 1.878886 1_555
F26 Sb8 1.912252 1_555
F27 Sb9 1.914383 1_555
F28 Sb9 1.910763 1_555
F29 Sb9 1.901392 1_555
F30 Sb10 1.911986 1_555
F31 Sb10 1.902251 1_555
F32 Sb10 1.915210 1_555
F33 Sb11 2.102911 1_545
F33 Sb0 2.198183 1_555
F34 Sb11 2.122164 1_544
F34 Sb1 2.179754 1_555
F35 Sb11 2.099393 1_554
F35 Sb2 2.202269 1_555
