# generated using pymatgen
data_Sr4LaCl11
_symmetry_space_group_name_H-M   'P 1'
_cell_length_a   18.28478752
_cell_length_b   18.28478752
_cell_length_c   18.28478752
_cell_angle_alpha   164.59927900
_cell_angle_beta   164.59927900
_cell_angle_gamma   21.84650035
_symmetry_Int_Tables_number   1
_chemical_formula_structural   Sr4LaCl11
_chemical_formula_sum   'Sr4 La1 Cl11'
_cell_volume   431.07165250
_cell_formula_units_Z   1
loop_
 _symmetry_equiv_pos_site_id
 _symmetry_equiv_pos_as_xyz
  1  'x, y, z'
loop_
 _atom_site_type_symbol
 _atom_site_label
 _atom_site_symmetry_multiplicity
 _atom_site_fract_x
 _atom_site_fract_y
 _atom_site_fract_z
 _atom_site_occupancy
  Sr  Sr0  1  0.10267358  0.10267358  -0.00000000  1
  Sr  Sr1  1  0.89732642  0.89732642  0.00000000  1
  Sr  Sr2  1  0.29901649  0.29901649  0.00000000  1
  Sr  Sr3  1  0.70098351  0.70098351  -0.00000000  1
  La  La0  1  0.50000000  0.50000000  0.00000000  1
  Cl  Cl0  1  0.15193382  0.65193382  0.50000000  1
  Cl  Cl1  1  0.34806618  0.84806618  0.50000000  1
  Cl  Cl2  1  0.75000000  0.25000000  0.50000000  1
  Cl  Cl3  1  0.55514600  0.05514600  0.50000000  1
  Cl  Cl4  1  0.94485400  0.44485400  0.50000000  1
  Cl  Cl5  1  0.05514600  0.55514600  0.50000000  1
  Cl  Cl6  1  0.25000000  0.75000000  0.50000000  1
  Cl  Cl7  1  0.65193382  0.15193382  0.50000000  1
  Cl  Cl8  1  0.44485400  0.94485400  0.50000000  1
  Cl  Cl9  1  0.84806618  0.34806618  0.50000000  1
  Cl  Cl10  1  0.00000000  0.00000000  0.00000000  1
loop_
_geom_bond_atom_site_label_1
_geom_bond_atom_site_label_2
_geom_bond_distance
_geom_bond_site_symmetry_2
Cl0 Sr3 3.017372 1_455
Cl0 Sr3 3.017372 1_556
Cl0 Sr0 3.021791 1_566
Cl0 Sr0 3.021791 1_555
Cl1 Sr2 3.017372 1_555
Cl1 Sr2 3.017372 1_566
Cl1 Sr1 3.021791 1_455
Cl1 Sr1 3.021791 1_556
Cl2 Sr3 3.016676 1_545
Cl2 Sr3 3.016676 1_556
Cl2 Sr2 3.016676 1_555
Cl2 Sr2 3.016676 1_656
Cl3 Sr0 2.985800 1_656
Cl3 Sr0 2.985800 1_555
Cl3 La0 3.150162 1_556
Cl3 La0 3.150162 1_545
Cl4 Sr1 2.985800 1_556
Cl4 Sr1 2.985800 1_545
Cl4 La0 3.150162 1_656
Cl4 La0 3.150162 1_555
Cl5 Sr0 2.985800 1_555
Cl5 Sr0 2.985800 1_566
Cl5 La0 3.150162 1_455
Cl5 La0 3.150162 1_556
Cl6 Sr3 3.016676 1_556
Cl6 Sr3 3.016676 1_455
Cl6 Sr2 3.016676 1_555
Cl6 Sr2 3.016676 1_566
Cl7 Sr3 3.017372 1_556
Cl7 Sr3 3.017372 1_545
Cl7 Sr0 3.021791 1_656
Cl7 Sr0 3.021791 1_555
Cl8 Sr1 2.985800 1_455
Cl8 Sr1 2.985800 1_556
Cl8 La0 3.150162 1_566
Cl8 La0 3.150162 1_555
Cl9 Sr2 3.017372 1_555
Cl9 Sr2 3.017372 1_656
Cl9 Sr1 3.021791 1_556
Cl9 Sr1 3.021791 1_545
Cl10 La0 3.464856 1_444
Cl10 La0 3.464856 1_455
Cl10 La0 3.464856 1_545
Cl10 La0 3.464856 1_556
