# generated using pymatgen
data_Sr2FeH6
_symmetry_space_group_name_H-M   'P 1'
_cell_length_a   5.24341210
_cell_length_b   5.24341210
_cell_length_c   5.24341210
_cell_angle_alpha   60.00000000
_cell_angle_beta   60.00000000
_cell_angle_gamma   60.00000000
_symmetry_Int_Tables_number   1
_chemical_formula_structural   Sr2FeH6
_chemical_formula_sum   'Sr2 Fe1 H6'
_cell_volume   101.93585668
_cell_formula_units_Z   1
loop_
 _symmetry_equiv_pos_site_id
 _symmetry_equiv_pos_as_xyz
  1  'x, y, z'
loop_
 _atom_site_type_symbol
 _atom_site_label
 _atom_site_symmetry_multiplicity
 _atom_site_fract_x
 _atom_site_fract_y
 _atom_site_fract_z
 _atom_site_occupancy
  Sr  Sr0  1  0.75000000  0.75000000  0.75000000  1
  Sr  Sr1  1  0.25000000  0.25000000  0.25000000  1
  Fe  Fe0  1  0.00000000  -0.00000000  -0.00000000  1
  H  H0  1  0.78245799  0.78245799  0.21754201  1
  H  H1  1  0.21754201  0.78245799  0.21754201  1
  H  H2  1  0.78245799  0.21754201  0.21754201  1
  H  H3  1  0.21754201  0.21754201  0.78245799  1
  H  H4  1  0.78245799  0.21754201  0.78245799  1
  H  H5  1  0.21754201  0.78245799  0.78245799  1
loop_
_geom_bond_atom_site_label_1
_geom_bond_atom_site_label_2
_geom_bond_distance
_geom_bond_site_symmetry_2
Fe0 H5 1.613140 1_544
Fe0 H0 1.613140 1_445
Fe0 H4 1.613140 1_454
Fe0 H2 1.613140 1_455
Fe0 H1 1.613140 1_545
Fe0 H3 1.613140 1_554
H0 Sr0 2.632731 1_555
H0 Sr1 2.632731 1_655
H0 Sr1 2.632731 1_565
H0 Sr0 2.632731 1_554
H1 Sr1 2.632731 1_565
H1 Sr0 2.632731 1_455
H1 Sr0 2.632731 1_554
H1 Sr1 2.632731 1_555
H2 Sr1 2.632731 1_655
H2 Sr0 2.632731 1_545
H2 Sr0 2.632731 1_554
H2 Sr1 2.632731 1_555
H3 Sr1 2.632731 1_556
H3 Sr0 2.632731 1_545
H3 Sr0 2.632731 1_455
H3 Sr1 2.632731 1_555
H4 Sr0 2.632731 1_555
H4 Sr1 2.632731 1_655
H4 Sr1 2.632731 1_556
H4 Sr0 2.632731 1_545
H5 Sr0 2.632731 1_555
H5 Sr1 2.632731 1_565
H5 Sr1 2.632731 1_556
H5 Sr0 2.632731 1_455
