# generated using pymatgen
data_Nd3Er(WO4)6
_symmetry_space_group_name_H-M   'P 1'
_cell_length_a   7.03903200
_cell_length_b   7.05216711
_cell_length_c   11.64288965
_cell_angle_alpha   101.05119109
_cell_angle_beta   100.70619561
_cell_angle_gamma   112.03109059
_symmetry_Int_Tables_number   1
_chemical_formula_structural   Nd3Er(WO4)6
_chemical_formula_sum   'Nd3 Er1 W6 O24'
_cell_volume   504.29028330
_cell_formula_units_Z   1
loop_
 _symmetry_equiv_pos_site_id
 _symmetry_equiv_pos_as_xyz
  1  'x, y, z'
loop_
 _atom_site_type_symbol
 _atom_site_label
 _atom_site_symmetry_multiplicity
 _atom_site_fract_x
 _atom_site_fract_y
 _atom_site_fract_z
 _atom_site_occupancy
  Nd  Nd0  1  0.94618300  0.69427800  0.59467000  1
  Nd  Nd1  1  0.69511800  0.94708800  0.09290400  1
  Nd  Nd2  1  0.05345000  0.30573500  0.40497400  1
  Er  Er0  1  0.30705100  0.04976700  0.90658400  1
  W  W0  1  0.48840600  0.19805200  0.55340800  1
  W  W1  1  0.79892100  0.50861700  0.95010300  1
  W  W2  1  0.50998900  0.80061900  0.45029700  1
  W  W3  1  0.20282100  0.49256300  0.04550000  1
  W  W4  1  0.87784000  0.11764000  0.75258600  1
  W  W5  1  0.12045000  0.88239000  0.24751300  1
  O  O0  1  0.61995700  0.22607700  0.95805300  1
  O  O1  1  0.77275100  0.37174700  0.54175700  1
  O  O2  1  0.37327300  0.77786300  0.03708800  1
  O  O3  1  0.22686900  0.62761100  0.45931900  1
  O  O4  1  0.95470200  0.03098000  0.88938800  1
  O  O5  1  0.96803100  0.05333500  0.61144700  1
  O  O6  1  0.06302800  0.97218700  0.10344600  1
  O  O7  1  0.02959400  0.94768300  0.38861000  1
  O  O8  1  0.32329500  0.38713600  0.93988900  1
  O  O9  1  0.60373400  0.67289500  0.55926900  1
  O  O10  1  0.67097400  0.60350600  0.05862100  1
  O  O11  1  0.39390800  0.32553400  0.44466600  1
  O  O12  1  0.34897300  0.19622700  0.70419300  1
  O  O13  1  0.79585600  0.65380200  0.80357100  1
  O  O14  1  0.65503900  0.79767300  0.30251500  1
  O  O15  1  0.20405100  0.35058600  0.19386500  1
  O  O16  1  0.59075900  0.01331300  0.78518100  1
  O  O17  1  0.98723300  0.40269800  0.72178600  1
  O  O18  1  0.40503700  0.98724500  0.22126700  1
  O  O19  1  0.01253500  0.59740600  0.27890300  1
  O  O20  1  0.10231000  0.67939800  0.92353400  1
  O  O21  1  0.32658900  0.89762500  0.57769100  1
  O  O22  1  0.89977200  0.32871200  0.07331700  1
  O  O23  1  0.67150300  0.10201200  0.42408300  1
loop_
_geom_bond_atom_site_label_1
_geom_bond_atom_site_label_2
_geom_bond_distance
_geom_bond_site_symmetry_2
Nd0 O1 2.035585 1_555
Nd0 O9 2.310304 1_555
Nd0 O5 2.445519 1_565
Nd0 O21 2.586532 1_655
Nd0 O17 2.820586 1_555
Nd0 O13 2.848266 1_555
Nd0 O3 2.859669 1_655
Nd1 O2 2.026395 1_555
Nd1 O10 2.313917 1_555
Nd1 O6 2.506547 1_655
Nd1 O22 2.611319 1_565
Nd1 O18 2.808642 1_555
Nd1 O14 2.857350 1_555
Nd1 O0 2.876193 1_564
Nd2 O3 2.031413 1_555
Nd2 O11 2.299781 1_555
Nd2 O7 2.434320 1_545
Nd2 O23 2.605532 1_455
Nd2 O19 2.813041 1_555
Nd2 O1 2.869123 1_455
Nd2 O15 2.877462 1_555
Er0 O0 1.981346 1_555
Er0 O8 2.291222 1_555
Er0 O4 2.401629 1_455
Er0 O20 2.533234 1_545
Er0 O16 2.710495 1_555
Er0 O12 2.769358 1_555
Er0 O2 2.779790 1_546
Er0 O6 3.121174 1_546
O0 O22 1.944299 1_556
O0 W1 1.948480 1_555
O1 O23 1.903799 1_555
O1 W0 1.962184 1_555
O2 O20 1.893542 1_554
O2 W3 1.950743 1_555
O3 W2 1.942680 1_555
O4 W4 1.871948 1_555
O5 W4 1.904450 1_555
O6 W5 1.930095 1_555
O7 W5 1.908148 1_555
O8 W3 1.814890 1_556
O9 W2 1.851874 1_555
O10 W1 1.845547 1_554
O11 W0 1.850875 1_555
O12 W0 2.164456 1_555
O13 W1 2.152199 1_555
O14 W2 2.158314 1_555
O15 W3 2.156496 1_555
O16 W4 2.011325 1_555
O17 W4 1.995093 1_555
O18 W5 1.963626 1_555
O19 W5 1.997278 1_555
O20 W1 2.136714 1_455
O20 W3 2.301408 1_556
O21 O3 1.910435 1_555
O21 W0 2.098785 1_565
O21 W2 2.306413 1_555
O22 W3 2.131069 1_655
O22 W1 2.273028 1_554
O23 W2 2.113784 1_545
O23 W0 2.317738 1_555
