# generated using pymatgen
data_Ba4Ru3O10
_symmetry_space_group_name_H-M   'P 1'
_cell_length_a   13.30401400
_cell_length_b   5.85738100
_cell_length_c   7.32046174
_cell_angle_alpha   66.79294630
_cell_angle_beta   90.00000000
_cell_angle_gamma   90.00000000
_symmetry_Int_Tables_number   1
_chemical_formula_structural   Ba4Ru3O10
_chemical_formula_sum   'Ba8 Ru6 O20'
_cell_volume   524.30160489
_cell_formula_units_Z   2
loop_
 _symmetry_equiv_pos_site_id
 _symmetry_equiv_pos_as_xyz
  1  'x, y, z'
loop_
 _atom_site_type_symbol
 _atom_site_label
 _atom_site_symmetry_multiplicity
 _atom_site_fract_x
 _atom_site_fract_y
 _atom_site_fract_z
 _atom_site_occupancy
  Ba  Ba0  1  0.63976600  0.96556800  0.07099900  1
  Ba  Ba1  1  0.13976600  0.53443200  0.92900100  1
  Ba  Ba2  1  0.36023400  0.03443200  0.92900100  1
  Ba  Ba3  1  0.86023400  0.46556800  0.07099900  1
  Ba  Ba4  1  0.11091400  0.24019500  0.51758800  1
  Ba  Ba5  1  0.61091400  0.25980500  0.48241200  1
  Ba  Ba6  1  0.88908600  0.75980500  0.48241200  1
  Ba  Ba7  1  0.38908600  0.74019500  0.51758800  1
  Ru  Ru0  1  0.50000000  0.50000000  0.00000000  1
  Ru  Ru1  1  0.00000000  0.00000000  0.00000000  1
  Ru  Ru2  1  0.35092900  0.37413800  0.24741300  1
  Ru  Ru3  1  0.85092900  0.12586200  0.75258700  1
  Ru  Ru4  1  0.64907100  0.62586200  0.75258700  1
  Ru  Ru5  1  0.14907100  0.87413800  0.24741300  1
  O  O0  1  0.65062600  0.46966400  0.07121100  1
  O  O1  1  0.15062600  0.03033600  0.92878900  1
  O  O2  1  0.34937400  0.53033600  0.92878900  1
  O  O3  1  0.84937400  0.96966400  0.07121100  1
  O  O4  1  0.53697800  0.37594500  0.78242800  1
  O  O5  1  0.03697800  0.12405500  0.21757200  1
  O  O6  1  0.46302200  0.62405500  0.21757200  1
  O  O7  1  0.96302200  0.87594500  0.78242800  1
  O  O8  1  0.53356500  0.83909900  0.78064400  1
  O  O9  1  0.03356500  0.66090100  0.21935600  1
  O  O10  1  0.46643500  0.16090100  0.21935600  1
  O  O11  1  0.96643500  0.33909900  0.78064400  1
  O  O12  1  0.64678900  0.76769600  0.46334000  1
  O  O13  1  0.14678900  0.73230400  0.53666000  1
  O  O14  1  0.35321100  0.23230400  0.53666000  1
  O  O15  1  0.85321100  0.26769600  0.46334000  1
  O  O16  1  0.75280700  0.37926600  0.75805400  1
  O  O17  1  0.25280700  0.12073400  0.24194600  1
  O  O18  1  0.24719300  0.62073400  0.24194600  1
  O  O19  1  0.74719300  0.87926600  0.75805400  1
loop_
_geom_bond_atom_site_label_1
_geom_bond_atom_site_label_2
_geom_bond_distance
_geom_bond_site_symmetry_2
Ba0 O12 2.641519 1_555
Ba0 O3 2.788737 1_555
Ba0 O4 2.847566 1_564
Ba0 O8 2.881639 1_554
Ba0 O0 2.907679 1_555
Ba0 O19 2.908451 1_554
Ba0 O0 2.956826 1_565
Ba0 O10 2.964028 1_565
Ba0 O6 2.998385 1_555
Ba0 O16 3.001126 1_564
Ba1 O13 2.641519 1_555
Ba1 O2 2.788737 1_555
Ba1 O5 2.847566 1_556
Ba1 O9 2.881639 1_556
Ba1 O1 2.907679 1_565
Ba1 O18 2.908451 1_556
Ba1 O1 2.956826 1_555
Ba1 O11 2.964028 1_455
Ba1 O7 2.998385 1_455
Ba1 O17 3.001126 1_556
Ba2 O14 2.641519 1_555
Ba2 O1 2.788737 1_555
Ba2 O6 2.847566 1_546
Ba2 O10 2.881639 1_556
Ba2 O2 2.907679 1_555
Ba2 O17 2.908451 1_556
Ba2 O2 2.956826 1_545
Ba2 O8 2.964028 1_545
Ba2 O4 2.998385 1_555
Ba2 O18 3.001126 1_546
Ba3 O15 2.641519 1_555
Ba3 O0 2.788737 1_555
Ba3 O7 2.847566 1_554
Ba3 O11 2.881639 1_554
Ba3 O3 2.907679 1_545
Ba3 O16 2.908451 1_554
Ba3 O3 2.956826 1_555
Ba3 O9 2.964028 1_655
Ba3 O5 2.998385 1_655
Ba3 O19 3.001126 1_554
Ba4 O5 2.726052 1_555
Ba4 O9 2.767271 1_555
Ba4 O1 2.816941 1_555
Ba4 O11 2.935603 1_455
Ba4 O13 2.961427 1_545
Ba4 O18 2.963515 1_555
Ba4 O13 2.978773 1_555
Ba4 O7 2.986992 1_445
Ba4 O17 3.039340 1_555
Ba4 O14 3.226088 1_555
Ba5 O4 2.726052 1_555
Ba5 O8 2.767271 1_545
Ba5 O0 2.816941 1_555
Ba5 O10 2.935603 1_555
Ba5 O12 2.961427 1_555
Ba5 O19 2.963515 1_545
Ba5 O12 2.978773 1_545
Ba5 O6 2.986992 1_555
Ba5 O16 3.039340 1_555
Ba5 O15 3.226088 1_555
Ba6 O7 2.726052 1_555
Ba6 O11 2.767271 1_555
Ba6 O3 2.816941 1_555
Ba6 O9 2.935603 1_655
Ba6 O15 2.961427 1_565
Ba6 O16 2.963515 1_555
Ba6 O15 2.978773 1_555
Ba6 O5 2.986992 1_665
Ba6 O19 3.039340 1_555
Ba6 O12 3.226088 1_555
Ba7 O6 2.726052 1_555
Ba7 O10 2.767271 1_565
Ba7 O2 2.816941 1_555
Ba7 O8 2.935603 1_555
Ba7 O14 2.961427 1_555
Ba7 O17 2.963515 1_565
Ba7 O14 2.978773 1_565
Ba7 O4 2.986992 1_555
Ba7 O18 3.039340 1_555
Ba7 O13 3.226088 1_555
O0 Ru0 2.060597 1_555
O0 Ru4 2.143851 1_554
O1 Ru1 2.060597 1_556
O1 Ru5 2.143851 1_546
O2 Ru0 2.060597 1_556
O2 Ru2 2.143851 1_556
O3 Ru1 2.060597 1_665
O3 Ru3 2.143851 1_564
O4 Ru4 2.040225 1_555
O4 Ru0 2.053999 1_556
O5 Ru5 2.040225 1_545
O5 Ru1 2.053999 1_555
O6 Ru2 2.040225 1_555
O6 Ru0 2.053999 1_555
O7 Ru3 2.040225 1_565
O7 Ru1 2.053999 1_666
O8 Ru4 2.041033 1_555
O8 Ru0 2.051689 1_556
O9 Ru5 2.041033 1_555
O9 Ru1 2.051689 1_565
O10 Ru2 2.041033 1_555
O10 Ru0 2.051689 1_555
O11 Ru3 2.041033 1_555
O11 Ru1 2.051689 1_656
O12 Ru4 1.946334 1_555
O13 Ru5 1.946334 1_555
O14 Ru2 1.946334 1_555
O15 Ru3 1.946334 1_555
O16 Ru4 1.986717 1_555
O16 Ru3 1.988876 1_555
O17 Ru5 1.986717 1_545
O17 Ru2 1.988876 1_555
O18 Ru2 1.986717 1_555
O18 Ru5 1.988876 1_555
O19 Ru3 1.986717 1_565
O19 Ru4 1.988876 1_555
