# generated using pymatgen
data_LaSnAu
_symmetry_space_group_name_H-M   'P 1'
_cell_length_a   4.76189184
_cell_length_b   4.76189184
_cell_length_c   8.05012322
_cell_angle_alpha   90.00000000
_cell_angle_beta   90.00000000
_cell_angle_gamma   119.99999145
_symmetry_Int_Tables_number   1
_chemical_formula_structural   LaSnAu
_chemical_formula_sum   'La2 Sn2 Au2'
_cell_volume   158.08557801
_cell_formula_units_Z   2
loop_
 _symmetry_equiv_pos_site_id
 _symmetry_equiv_pos_as_xyz
  1  'x, y, z'
loop_
 _atom_site_type_symbol
 _atom_site_label
 _atom_site_symmetry_multiplicity
 _atom_site_fract_x
 _atom_site_fract_y
 _atom_site_fract_z
 _atom_site_occupancy
  La  La0  1  0.00000000  0.00000000  0.69419680  1
  La  La1  1  0.00000000  0.00000000  0.19419680  1
  Sn  Sn0  1  0.33333300  0.66666700  0.41876241  1
  Sn  Sn1  1  0.66666700  0.33333300  0.91876241  1
  Au  Au0  1  0.66666700  0.33333300  0.49387079  1
  Au  Au1  1  0.33333300  0.66666700  0.99387079  1
loop_
_geom_bond_atom_site_label_1
_geom_bond_atom_site_label_2
_geom_bond_distance
_geom_bond_site_symmetry_2
La0 Sn1 3.290379 1_455
La0 Sn1 3.290383 1_445
La0 Sn1 3.290383 1_555
La0 Sn0 3.531976 1_545
La0 Sn0 3.531980 1_445
La0 Sn0 3.531980 1_555
La1 Sn0 3.290379 1_545
La1 Sn0 3.290383 1_445
La1 Sn0 3.290383 1_555
La1 Sn1 3.531976 1_454
La1 Sn1 3.531980 1_444
La1 Sn1 3.531980 1_554
Au0 Sn0 2.814978 1_545
Au0 Sn0 2.814978 1_655
Au0 Sn0 2.814986 1_555
Au0 La0 3.187344 1_655
Au0 La0 3.187347 1_665
Au0 La0 3.187347 1_555
Au0 Sn1 3.420430 1_555
Au0 La1 3.657630 1_655
Au0 La1 3.657633 1_555
Au0 La1 3.657633 1_665
Au1 Sn1 2.814978 1_455
Au1 Sn1 2.814978 1_565
Au1 Sn1 2.814986 1_555
Au1 La1 3.187344 1_566
Au1 La1 3.187347 1_556
Au1 La1 3.187347 1_666
Au1 Sn0 3.420430 1_556
Au1 La0 3.657630 1_565
Au1 La0 3.657633 1_555
Au1 La0 3.657633 1_665
