# generated using pymatgen
data_V3Pb5O12F
_symmetry_space_group_name_H-M   'P 1'
_cell_length_a   10.37986048
_cell_length_b   10.37986048
_cell_length_c   7.31702600
_cell_angle_alpha   90.00000000
_cell_angle_beta   90.00000000
_cell_angle_gamma   120.00000305
_symmetry_Int_Tables_number   1
_chemical_formula_structural   V3Pb5O12F
_chemical_formula_sum   'V6 Pb10 O24 F2'
_cell_volume   682.72883949
_cell_formula_units_Z   2
loop_
 _symmetry_equiv_pos_site_id
 _symmetry_equiv_pos_as_xyz
  1  'x, y, z'
loop_
 _atom_site_type_symbol
 _atom_site_label
 _atom_site_symmetry_multiplicity
 _atom_site_fract_x
 _atom_site_fract_y
 _atom_site_fract_z
 _atom_site_occupancy
  V  V0  1  0.02595700  0.61624300  0.75000000  1
  V  V1  1  0.38375700  0.40971400  0.75000000  1
  V  V2  1  0.59028600  0.97404300  0.75000000  1
  V  V3  1  0.97404300  0.38375700  0.25000000  1
  V  V4  1  0.61624300  0.59028600  0.25000000  1
  V  V5  1  0.40971400  0.02595700  0.25000000  1
  Pb  Pb0  1  0.66666700  0.33333300  0.50711000  1
  Pb  Pb1  1  0.33333300  0.66666700  0.00711000  1
  Pb  Pb2  1  0.33333300  0.66666700  0.49289000  1
  Pb  Pb3  1  0.66666700  0.33333300  0.99289000  1
  Pb  Pb4  1  0.22482300  0.98136600  0.75000000  1
  Pb  Pb5  1  0.01863400  0.24345700  0.75000000  1
  Pb  Pb6  1  0.75654300  0.77517700  0.75000000  1
  Pb  Pb7  1  0.77517700  0.01863400  0.25000000  1
  Pb  Pb8  1  0.98136600  0.75654300  0.25000000  1
  Pb  Pb9  1  0.24345700  0.22482300  0.25000000  1
  O  O0  1  0.83312700  0.50285500  0.75000000  1
  O  O1  1  0.49714500  0.33027200  0.75000000  1
  O  O2  1  0.66972800  0.16687300  0.75000000  1
  O  O3  1  0.16687300  0.49714500  0.25000000  1
  O  O4  1  0.50285500  0.66972800  0.25000000  1
  O  O5  1  0.33027200  0.83312700  0.25000000  1
  O  O6  1  0.11589100  0.51034000  0.75000000  1
  O  O7  1  0.48966000  0.60555100  0.75000000  1
  O  O8  1  0.39444900  0.88410900  0.75000000  1
  O  O9  1  0.88410900  0.48966000  0.25000000  1
  O  O10  1  0.51034000  0.39444900  0.25000000  1
  O  O11  1  0.60555100  0.11589100  0.25000000  1
  O  O12  1  0.08949600  0.73490400  0.56145600  1
  O  O13  1  0.26509600  0.35459100  0.56145600  1
  O  O14  1  0.64540900  0.91050400  0.56145600  1
  O  O15  1  0.91050400  0.26509600  0.06145600  1
  O  O16  1  0.73490400  0.64540900  0.06145600  1
  O  O17  1  0.35459100  0.08949600  0.06145600  1
  O  O18  1  0.91050400  0.26509600  0.43854400  1
  O  O19  1  0.73490400  0.64540900  0.43854400  1
  O  O20  1  0.35459100  0.08949600  0.43854400  1
  O  O21  1  0.08949600  0.73490400  0.93854400  1
  O  O22  1  0.26509600  0.35459100  0.93854400  1
  O  O23  1  0.64540900  0.91050400  0.93854400  1
  F  F0  1  0.00000000  0.00000000  0.50000000  1
  F  F1  1  0.00000000  0.00000000  0.00000000  1
loop_
_geom_bond_atom_site_label_1
_geom_bond_atom_site_label_2
_geom_bond_distance
_geom_bond_site_symmetry_2
O0 V0 1.742322 1_655
O0 Pb0 2.489956 1_555
O0 Pb3 2.489956 1_555
O1 V1 1.742322 1_555
O1 Pb0 2.489960 1_555
O1 Pb3 2.489960 1_555
O2 V2 1.742322 1_545
O2 Pb0 2.489953 1_555
O2 Pb3 2.489953 1_555
O3 V3 1.742322 1_455
O3 Pb1 2.489956 1_555
O3 Pb2 2.489956 1_555
O4 V4 1.742322 1_555
O4 Pb1 2.489960 1_555
O4 Pb2 2.489960 1_555
O5 V5 1.742322 1_565
O5 Pb1 2.489953 1_555
O5 Pb2 2.489953 1_555
O6 V0 1.762372 1_555
O6 Pb5 2.428293 1_555
O6 Pb1 2.757533 1_556
O6 Pb2 2.757533 1_555
O7 V1 1.762372 1_555
O7 Pb6 2.428293 1_555
O7 Pb1 2.757539 1_556
O7 Pb2 2.757539 1_555
O8 V2 1.762372 1_555
O8 Pb4 2.428293 1_555
O8 Pb1 2.757532 1_556
O8 Pb2 2.757532 1_555
O9 V3 1.762372 1_555
O9 Pb8 2.428293 1_555
O9 Pb3 2.757533 1_554
O9 Pb0 2.757533 1_555
O10 V4 1.762372 1_555
O10 Pb9 2.428293 1_555
O10 Pb3 2.757539 1_554
O10 Pb0 2.757539 1_555
O11 V5 1.762372 1_555
O11 Pb7 2.428293 1_555
O11 Pb3 2.757532 1_554
O11 Pb0 2.757532 1_555
O12 V0 1.744402 1_555
O12 Pb8 2.599192 1_455
O12 Pb4 2.612940 1_555
O13 V1 1.744402 1_555
O13 Pb9 2.599187 1_555
O13 Pb5 2.612941 1_555
O14 V2 1.744407 1_555
O14 Pb7 2.599189 1_565
O14 Pb6 2.612933 1_555
O15 V3 1.744402 1_555
O15 Pb5 2.599192 1_654
O15 Pb7 2.612940 1_555
O16 V4 1.744402 1_555
O16 Pb6 2.599187 1_554
O16 Pb8 2.612941 1_555
O17 V5 1.744407 1_555
O17 Pb4 2.599189 1_544
O17 Pb9 2.612933 1_555
O18 V3 1.744402 1_555
O18 Pb5 2.599192 1_655
O18 Pb7 2.612940 1_555
O19 V4 1.744402 1_555
O19 Pb6 2.599187 1_555
O19 Pb8 2.612941 1_555
O20 V5 1.744407 1_555
O20 Pb4 2.599189 1_545
O20 Pb9 2.612933 1_555
O21 V0 1.744402 1_555
O21 Pb8 2.599192 1_456
O21 Pb4 2.612940 1_555
O22 V1 1.744402 1_555
O22 Pb9 2.599187 1_556
O22 Pb5 2.612941 1_555
O23 V2 1.744407 1_555
O23 Pb7 2.599189 1_566
O23 Pb6 2.612933 1_555
