# generated using pymatgen
data_Li7Mn4CoO12
_symmetry_space_group_name_H-M   'P 1'
_cell_length_a   6.74512864
_cell_length_b   6.74512864
_cell_length_c   11.82743796
_cell_angle_alpha   77.66604515
_cell_angle_beta   77.66604515
_cell_angle_gamma   24.85280554
_symmetry_Int_Tables_number   1
_chemical_formula_structural   Li7Mn4CoO12
_chemical_formula_sum   'Li7 Mn4 Co1 O12'
_cell_volume   220.68492424
_cell_formula_units_Z   1
loop_
 _symmetry_equiv_pos_site_id
 _symmetry_equiv_pos_as_xyz
  1  'x, y, z'
loop_
 _atom_site_type_symbol
 _atom_site_label
 _atom_site_symmetry_multiplicity
 _atom_site_fract_x
 _atom_site_fract_y
 _atom_site_fract_z
 _atom_site_occupancy
  Li  Li0  1  0.66455300  0.66455300  0.07907500  1
  Li  Li1  1  0.99918900  0.99918900  0.25209500  1
  Li  Li2  1  0.33715000  0.33715000  0.42547300  1
  Li  Li3  1  0.33584800  0.33584800  0.90952500  1
  Li  Li4  1  0.00052500  0.00052500  0.74715000  1
  Li  Li5  1  0.66700700  0.66700700  0.59265500  1
  Li  Li6  1  0.33357000  0.33357000  0.66352800  1
  Mn  Mn0  1  0.00538500  0.00538500  0.99500900  1
  Mn  Mn1  1  0.98866500  0.98866500  0.50601500  1
  Mn  Mn2  1  0.33462000  0.33462000  0.16698600  1
  Mn  Mn3  1  0.66247900  0.66247900  0.33744800  1
  Co  Co0  1  0.68775900  0.68775900  0.81937900  1
  O  O0  1  0.50546800  0.50546800  0.10780500  1
  O  O1  1  0.83621200  0.83621200  0.27791500  1
  O  O2  1  0.15482200  0.15482200  0.45146900  1
  O  O3  1  0.15204000  0.15204000  0.95456200  1
  O  O4  1  0.82622200  0.82622200  0.79858500  1
  O  O5  1  0.49943700  0.49943700  0.61055200  1
  O  O6  1  0.84393100  0.84393100  0.05081300  1
  O  O7  1  0.16312200  0.16312200  0.22219800  1
  O  O8  1  0.49513500  0.49513500  0.38991500  1
  O  O9  1  0.49593400  0.49593400  0.89037000  1
  O  O10  1  0.16368300  0.16368300  0.71420900  1
  O  O11  1  0.84723100  0.84723100  0.53726900  1
loop_
_geom_bond_atom_site_label_1
_geom_bond_atom_site_label_2
_geom_bond_distance
_geom_bond_site_symmetry_2
Li0 O0 2.048508 1_555
Li0 O3 2.099726 1_654
Li0 O3 2.099726 1_564
Li0 O7 2.226793 1_565
Li0 O7 2.226793 1_655
Li0 O6 2.313162 1_555
Li1 O1 2.101532 1_555
Li1 O7 2.110738 1_665
Li1 O8 2.174528 1_655
Li1 O8 2.174528 1_565
Li1 O0 2.228053 1_565
Li1 O0 2.228053 1_655
Li2 O11 1.987347 1_545
Li2 O11 1.987347 1_455
Li2 O8 2.031226 1_555
Li2 O1 2.272035 1_455
Li2 O1 2.272035 1_545
Li2 O2 2.353974 1_555
Li3 O4 1.979215 1_545
Li3 O4 1.979215 1_455
Li3 O9 2.071285 1_555
Li3 O6 2.233471 1_456
Li3 O6 2.233471 1_546
Li3 O3 2.362891 1_555
Li4 O10 2.098976 1_555
Li4 O5 2.174219 1_455
Li4 O5 2.174219 1_545
Li4 O9 2.221472 1_455
Li4 O9 2.221472 1_545
Li4 O4 2.243210 1_445
Li5 O10 2.036662 1_565
Li5 O10 2.036662 1_655
Li5 O5 2.171151 1_555
Li5 O2 2.244597 1_565
Li5 O2 2.244597 1_655
Li5 O11 2.320789 1_555
Li6 O11 2.061926 1_545
Li6 O11 2.061926 1_455
Li6 O5 2.137426 1_555
Li6 O4 2.144774 1_545
Li6 O4 2.144774 1_455
Li6 O10 2.186694 1_555
Mn0 O3 1.886105 1_555
Mn0 O9 1.929070 1_455
Mn0 O9 1.929070 1_545
Mn0 O0 1.971584 1_546
Mn0 O0 1.971584 1_456
Mn0 O6 2.084643 1_446
Mn1 O11 1.818558 1_555
Mn1 O5 1.931919 1_565
Mn1 O5 1.931919 1_655
Mn1 O8 1.987048 1_565
Mn1 O8 1.987048 1_655
Mn1 O2 2.142449 1_665
Mn2 O1 1.959733 1_545
Mn2 O1 1.959733 1_455
Mn2 O6 1.983932 1_455
Mn2 O6 1.983932 1_545
Mn2 O0 2.206079 1_555
Mn2 O7 2.210355 1_555
Mn3 O2 1.968766 1_565
Mn3 O2 1.968766 1_655
Mn3 O7 1.989927 1_565
Mn3 O7 1.989927 1_655
Mn3 O8 2.155684 1_555
Mn3 O1 2.242624 1_555
Co0 O4 1.786539 1_555
Co0 O10 1.981713 1_655
Co0 O10 1.981713 1_565
Co0 O3 2.134336 1_655
Co0 O3 2.134336 1_565
Co0 O9 2.482580 1_555
