# generated using pymatgen
data_B5Ir3W2
_symmetry_space_group_name_H-M   'P 1'
_cell_length_a   8.33474145
_cell_length_b   8.33562503
_cell_length_c   8.33522109
_cell_angle_alpha   160.07241322
_cell_angle_beta   147.18145779
_cell_angle_gamma   38.68945089
_symmetry_Int_Tables_number   1
_chemical_formula_structural   B5Ir3W2
_chemical_formula_sum   'B5 Ir3 W2'
_cell_volume   106.82999717
_cell_formula_units_Z   1
loop_
 _symmetry_equiv_pos_site_id
 _symmetry_equiv_pos_as_xyz
  1  'x, y, z'
loop_
 _atom_site_type_symbol
 _atom_site_label
 _atom_site_symmetry_multiplicity
 _atom_site_fract_x
 _atom_site_fract_y
 _atom_site_fract_z
 _atom_site_occupancy
  B  B0  1  0.52045670  0.22085521  0.29958093  1
  B  B1  1  0.07872119  0.77911778  0.29957506  1
  B  B2  1  0.92160300  0.22153809  0.70005835  1
  B  B3  1  0.47853254  0.77846104  0.70007552  1
  B  B4  1  0.65478734  0.50004971  0.15484124  1
  Ir  Ir0  1  0.99781813  -0.00000335  0.99780211  1
  Ir  Ir1  1  0.40498853  0.90524232  0.49977424  1
  Ir  Ir2  1  0.59456313  0.09482050  0.49984321  1
  W  W0  1  0.15138206  0.65187418  0.50001807  1
  W  W1  1  0.84814538  0.34804551  0.49943427  1
loop_
_geom_bond_atom_site_label_1
_geom_bond_atom_site_label_2
_geom_bond_distance
_geom_bond_site_symmetry_2
B0 B3 1.766355 1_544
B0 B3 1.766590 1_555
B0 B2 1.885928 1_555
B0 Ir2 2.196123 1_555
B0 W1 2.216087 1_555
B0 W0 2.293181 1_544
B0 W0 2.293652 1_555
B1 B2 1.766257 1_465
B1 B2 1.766585 1_454
B1 B3 1.885995 1_555
B1 Ir1 2.195934 1_555
B1 W0 2.216226 1_555
B1 W1 2.292944 1_465
B1 W1 2.294077 1_454
B2 Ir2 2.205722 1_555
B2 W1 2.206852 1_555
B2 W0 2.297775 1_645
B2 W0 2.298685 1_656
B3 Ir1 2.205928 1_555
B3 W0 2.206784 1_555
B3 W1 2.297712 1_566
B3 W1 2.298431 1_555
B4 Ir0 2.165494 1_554
B4 Ir0 2.165542 1_565
B4 Ir1 2.198526 1_555
B4 Ir2 2.198787 1_554
B4 Ir2 2.199023 1_565
B4 Ir1 2.199163 1_544
