# generated using pymatgen
data_Zr2Cr30P19
_symmetry_space_group_name_H-M   'P 1'
_cell_length_a   14.86304564
_cell_length_b   14.86304564
_cell_length_c   3.26434100
_cell_angle_alpha   90.00000000
_cell_angle_beta   90.00000000
_cell_angle_gamma   119.99999841
_symmetry_Int_Tables_number   1
_chemical_formula_structural   Zr2Cr30P19
_chemical_formula_sum   'Zr2 Cr30 P19'
_cell_volume   624.51342874
_cell_formula_units_Z   1
loop_
 _symmetry_equiv_pos_site_id
 _symmetry_equiv_pos_as_xyz
  1  'x, y, z'
loop_
 _atom_site_type_symbol
 _atom_site_label
 _atom_site_symmetry_multiplicity
 _atom_site_fract_x
 _atom_site_fract_y
 _atom_site_fract_z
 _atom_site_occupancy
  Zr  Zr0  1  0.00000000  0.00000000  0.50000000  1
  Zr  Zr1  1  0.33333300  0.66666700  0.00000000  1
  Cr  Cr0  1  0.15621600  0.98211800  0.00000000  1
  Cr  Cr1  1  0.05840300  0.52424800  0.00000000  1
  Cr  Cr2  1  0.46584500  0.94159700  0.00000000  1
  Cr  Cr3  1  0.47575200  0.53415500  0.00000000  1
  Cr  Cr4  1  0.27015600  0.14434600  0.50000000  1
  Cr  Cr5  1  0.82590200  0.84378400  0.00000000  1
  Cr  Cr6  1  0.85565400  0.12581000  0.50000000  1
  Cr  Cr7  1  0.84537800  0.44364300  0.00000000  1
  Cr  Cr8  1  0.59826500  0.15462200  0.00000000  1
  Cr  Cr9  1  0.55635700  0.40173500  0.00000000  1
  Cr  Cr10  1  0.52277000  0.24686400  0.50000000  1
  Cr  Cr11  1  0.72409400  0.47723000  0.50000000  1
  Cr  Cr12  1  0.75313600  0.27590600  0.50000000  1
  Cr  Cr13  1  0.50826800  0.82139200  0.50000000  1
  Cr  Cr14  1  0.17860800  0.68687600  0.50000000  1
  Cr  Cr15  1  0.31312400  0.49173200  0.50000000  1
  Cr  Cr16  1  0.73071500  0.91540800  0.50000000  1
  Cr  Cr17  1  0.08459200  0.81530700  0.50000000  1
  Cr  Cr18  1  0.18469300  0.26928500  0.50000000  1
  Cr  Cr19  1  0.60342500  0.74543500  0.00000000  1
  Cr  Cr20  1  0.25456500  0.85799000  0.00000000  1
  Cr  Cr21  1  0.14201000  0.39657500  0.00000000  1
  Cr  Cr22  1  0.69244400  0.61858900  0.00000000  1
  Cr  Cr23  1  0.38141100  0.07385600  0.00000000  1
  Cr  Cr24  1  0.92614400  0.30755600  0.00000000  1
  Cr  Cr25  1  0.64326600  0.04428700  0.50000000  1
  Cr  Cr26  1  0.95571300  0.59897900  0.50000000  1
  Cr  Cr27  1  0.40102100  0.35673400  0.50000000  1
  Cr  Cr28  1  0.87419000  0.72984400  0.50000000  1
  Cr  Cr29  1  0.01788200  0.17409800  0.00000000  1
  P  P0  1  0.66666700  0.33333300  0.00000000  1
  P  P1  1  0.93940200  0.42287300  0.50000000  1
  P  P2  1  0.39751300  0.23938600  0.00000000  1
  P  P3  1  0.76061400  0.15812600  0.00000000  1
  P  P4  1  0.84187400  0.60248700  0.00000000  1
  P  P5  1  0.17577400  0.52636600  0.50000000  1
  P  P6  1  0.47363400  0.64940800  0.50000000  1
  P  P7  1  0.35059200  0.82422600  0.50000000  1
  P  P8  1  0.15554100  0.14049700  0.00000000  1
  P  P9  1  0.85950300  0.01504400  0.00000000  1
  P  P10  1  0.98495600  0.84445900  0.00000000  1
  P  P11  1  0.02712700  0.28522600  0.50000000  1
  P  P12  1  0.71477400  0.74190100  0.50000000  1
  P  P13  1  0.25809900  0.97287300  0.50000000  1
  P  P14  1  0.29966600  0.37985400  0.00000000  1
  P  P15  1  0.62014600  0.91981200  0.00000000  1
  P  P16  1  0.08018800  0.70033400  0.00000000  1
  P  P17  1  0.57712700  0.51653000  0.50000000  1
  P  P18  1  0.48347000  0.06059800  0.50000000  1
loop_
_geom_bond_atom_site_label_1
_geom_bond_atom_site_label_2
_geom_bond_distance
_geom_bond_site_symmetry_2
Cr0 P13 2.276844 1_555
Cr0 P13 2.276844 1_554
Cr0 P10 2.336124 1_455
Cr0 P8 2.359027 1_565
Cr0 Zr0 2.956804 1_565
Cr0 Zr0 2.956804 1_564
Cr1 P1 2.323276 1_454
Cr1 P1 2.323276 1_455
Cr1 P5 2.377667 1_554
Cr1 P5 2.377667 1_555
Cr1 P16 2.471239 1_555
Cr2 P18 2.323280 1_564
Cr2 P18 2.323280 1_565
Cr2 P7 2.377667 1_555
Cr2 P7 2.377667 1_554
Cr2 P15 2.471239 1_555
Cr3 P17 2.323269 1_554
Cr3 P17 2.323269 1_555
Cr3 P6 2.377667 1_555
Cr3 P6 2.377667 1_554
Cr3 P14 2.471239 1_555
Cr4 P8 2.339189 1_555
Cr4 P8 2.339189 1_556
Cr4 P2 2.359787 1_556
Cr4 P2 2.359787 1_555
Cr4 P13 2.463902 1_545
Cr5 P12 2.276844 1_555
Cr5 P12 2.276844 1_554
Cr5 P9 2.336124 1_565
Cr5 P10 2.359027 1_555
Cr5 Zr0 2.956804 1_665
Cr5 Zr0 2.956804 1_664
Cr6 P9 2.339189 1_556
Cr6 P9 2.339189 1_555
Cr6 P3 2.359780 1_555
Cr6 P3 2.359780 1_556
Cr6 P11 2.463902 1_655
Cr7 P1 2.267961 1_555
Cr7 P1 2.267961 1_554
Cr7 P0 2.321316 1_555
Cr7 P4 2.387372 1_555
Cr8 P18 2.267968 1_555
Cr8 P18 2.267968 1_554
Cr8 P0 2.321314 1_555
Cr8 P3 2.387387 1_555
Cr9 P17 2.267972 1_555
Cr9 P17 2.267972 1_554
Cr9 P0 2.321328 1_555
Cr9 P2 2.387379 1_555
Cr10 P2 2.436256 1_556
Cr10 P2 2.436256 1_555
Cr10 P0 2.478152 1_556
Cr10 P0 2.478152 1_555
Cr10 P18 2.527560 1_555
Cr11 P4 2.436261 1_555
Cr11 P4 2.436261 1_556
Cr11 P0 2.478154 1_555
Cr11 P0 2.478154 1_556
Cr11 P17 2.527574 1_555
Cr12 P3 2.436267 1_555
Cr12 P3 2.436267 1_556
Cr12 P0 2.478143 1_555
Cr12 P0 2.478143 1_556
Cr12 P1 2.527564 1_555
Cr13 P15 2.266372 1_556
Cr13 P15 2.266372 1_555
Cr13 P6 2.341650 1_555
Cr13 P7 2.364888 1_555
Cr13 Zr1 2.955257 1_555
Cr13 Zr1 2.955257 1_556
Cr14 P16 2.266372 1_555
Cr14 P16 2.266372 1_556
Cr14 P7 2.341650 1_555
Cr14 P5 2.364888 1_555
Cr14 Zr1 2.955250 1_555
Cr14 Zr1 2.955250 1_556
Cr15 P14 2.266372 1_555
Cr15 P14 2.266372 1_556
Cr15 P5 2.341650 1_555
Cr15 P6 2.364888 1_555
Cr15 Zr1 2.955262 1_555
Cr15 Zr1 2.955262 1_556
Cr16 P15 2.340208 1_555
Cr16 P15 2.340208 1_556
Cr16 P9 2.384622 1_566
Cr16 P9 2.384622 1_565
Cr16 P12 2.468918 1_555
Cr17 P16 2.340208 1_556
Cr17 P16 2.340208 1_555
Cr17 P10 2.384622 1_455
Cr17 P10 2.384622 1_456
Cr17 P13 2.468918 1_555
Cr18 P14 2.340208 1_556
Cr18 P14 2.340208 1_555
Cr18 P8 2.384622 1_555
Cr18 P8 2.384622 1_556
Cr18 P11 2.468918 1_555
Cr19 P12 2.343639 1_554
Cr19 P12 2.343639 1_555
Cr19 P6 2.380991 1_554
Cr19 P6 2.380991 1_555
Cr19 P15 2.476880 1_555
Cr20 P13 2.343639 1_555
Cr20 P13 2.343639 1_554
Cr20 P7 2.380991 1_554
Cr20 P7 2.380991 1_555
Cr20 P16 2.476880 1_555
Cr21 P11 2.343639 1_555
Cr21 P11 2.343639 1_554
Cr21 P5 2.380991 1_554
Cr21 P5 2.380991 1_555
Cr21 P14 2.476880 1_555
Cr22 P17 2.302766 1_554
Cr22 P17 2.302766 1_555
Cr22 P4 2.349806 1_555
Cr22 P12 2.350526 1_554
Cr22 P12 2.350526 1_555
Cr23 P18 2.302766 1_554
Cr23 P18 2.302766 1_555
Cr23 P2 2.349776 1_555
Cr23 P13 2.350529 1_544
Cr23 P13 2.350529 1_545
Cr24 P1 2.302766 1_555
Cr24 P1 2.302766 1_554
Cr24 P3 2.349789 1_555
Cr24 P11 2.350536 1_655
Cr24 P11 2.350536 1_654
Cr25 P15 2.359895 1_546
Cr25 P15 2.359895 1_545
Cr25 P3 2.370188 1_555
Cr25 P3 2.370188 1_556
Cr25 P18 2.505084 1_555
Cr26 P16 2.359895 1_655
Cr26 P16 2.359895 1_656
Cr26 P4 2.370182 1_555
Cr26 P4 2.370182 1_556
Cr26 P1 2.505070 1_555
Cr27 P14 2.359895 1_555
Cr27 P14 2.359895 1_556
Cr27 P2 2.370193 1_556
Cr27 P2 2.370193 1_555
Cr27 P17 2.505076 1_555
Cr28 P10 2.339189 1_555
Cr28 P10 2.339189 1_556
Cr28 P4 2.359790 1_555
Cr28 P4 2.359790 1_556
Cr28 P12 2.463902 1_555
Cr29 P11 2.276844 1_555
Cr29 P11 2.276844 1_554
Cr29 P8 2.336124 1_555
Cr29 P9 2.359027 1_455
Cr29 Zr0 2.956804 1_555
Cr29 Zr0 2.956804 1_554
P5 Zr1 2.759193 1_555
P5 Zr1 2.759193 1_556
P6 Zr1 2.759200 1_555
P6 Zr1 2.759200 1_556
P7 Zr1 2.759188 1_556
P7 Zr1 2.759188 1_555
P8 Zr0 2.746186 1_555
P8 Zr0 2.746186 1_554
P9 Zr0 2.746186 1_655
P9 Zr0 2.746186 1_654
P10 Zr0 2.746186 1_664
P10 Zr0 2.746186 1_665
