# generated using pymatgen
data_Cs2CeN5O17
_symmetry_space_group_name_H-M   'P 1'
_cell_length_a   7.28501891
_cell_length_b   7.28501891
_cell_length_c   16.77439584
_cell_angle_alpha   78.96858107
_cell_angle_beta   78.96858107
_cell_angle_gamma   78.45685741
_symmetry_Int_Tables_number   1
_chemical_formula_structural   Cs2CeN5O17
_chemical_formula_sum   'Cs4 Ce2 N10 O34'
_cell_volume   845.20689626
_cell_formula_units_Z   2
loop_
 _symmetry_equiv_pos_site_id
 _symmetry_equiv_pos_as_xyz
  1  'x, y, z'
loop_
 _atom_site_type_symbol
 _atom_site_label
 _atom_site_symmetry_multiplicity
 _atom_site_fract_x
 _atom_site_fract_y
 _atom_site_fract_z
 _atom_site_occupancy
  Cs  Cs0  1  0.73702800  0.63298900  0.57729000  1
  Cs  Cs1  1  0.36701100  0.26297200  0.92271000  1
  Cs  Cs2  1  0.26297200  0.36701100  0.42271000  1
  Cs  Cs3  1  0.63298900  0.73702800  0.07729000  1
  Ce  Ce0  1  0.05146800  0.94853200  0.75000000  1
  Ce  Ce1  1  0.94853200  0.05146800  0.25000000  1
  N  N0  1  0.15330100  0.82366400  0.94972300  1
  N  N1  1  0.17633600  0.84669900  0.55027700  1
  N  N2  1  0.84669900  0.17633600  0.05027700  1
  N  N3  1  0.82366400  0.15330100  0.44972300  1
  N  N4  1  0.24332300  0.27895600  0.65679300  1
  N  N5  1  0.72104400  0.75667700  0.84320700  1
  N  N6  1  0.75667700  0.72104400  0.34320700  1
  N  N7  1  0.27895600  0.24332300  0.15679300  1
  N  N8  1  0.37829600  0.62170400  0.75000000  1
  N  N9  1  0.62170400  0.37829600  0.25000000  1
  O  O0  1  0.86353200  0.22298100  0.50556300  1
  O  O1  1  0.77701900  0.13646800  0.99443700  1
  O  O2  1  0.13646800  0.77701900  0.49443700  1
  O  O3  1  0.22298100  0.86353200  0.00556300  1
  O  O4  1  0.07078400  0.82181400  0.62277300  1
  O  O5  1  0.17818600  0.92921600  0.87722700  1
  O  O6  1  0.92921600  0.17818600  0.37722700  1
  O  O7  1  0.82181400  0.07078400  0.12277300  1
  O  O8  1  0.06297500  0.69034400  0.95988100  1
  O  O9  1  0.30965600  0.93702500  0.54011900  1
  O  O10  1  0.93702500  0.30965600  0.04011900  1
  O  O11  1  0.69034400  0.06297500  0.45988100  1
  O  O12  1  0.82747700  0.70716100  0.77856700  1
  O  O13  1  0.29283900  0.17252300  0.72143300  1
  O  O14  1  0.17252300  0.29283900  0.22143300  1
  O  O15  1  0.70716100  0.82747700  0.27856700  1
  O  O16  1  0.08580500  0.25994700  0.63694700  1
  O  O17  1  0.74005300  0.91419500  0.86305300  1
  O  O18  1  0.91419500  0.74005300  0.36305300  1
  O  O19  1  0.25994700  0.08580500  0.13694700  1
  O  O20  1  0.33968100  0.39304100  0.61319400  1
  O  O21  1  0.60695900  0.66031900  0.88680600  1
  O  O22  1  0.66031900  0.60695900  0.38680600  1
  O  O23  1  0.39304100  0.33968100  0.11319400  1
  O  O24  1  0.20930500  0.60015000  0.78536400  1
  O  O25  1  0.39985000  0.79069500  0.71463600  1
  O  O26  1  0.79069500  0.39985000  0.21463600  1
  O  O27  1  0.60015000  0.20930500  0.28536400  1
  O  O28  1  0.51229900  0.48770100  0.75000000  1
  O  O29  1  0.48770100  0.51229900  0.25000000  1
  O  O30  1  0.88234400  0.21394500  0.79554600  1
  O  O31  1  0.78605500  0.11765600  0.70445400  1
  O  O32  1  0.11765600  0.78605500  0.20445400  1
  O  O33  1  0.21394500  0.88234400  0.29554600  1
loop_
_geom_bond_atom_site_label_1
_geom_bond_atom_site_label_2
_geom_bond_distance
_geom_bond_site_symmetry_2
Cs0 O28 3.146211 1_555
Cs0 O25 3.221698 1_555
Cs0 O2 3.258277 1_655
Cs0 O4 3.291849 1_655
Cs0 O0 3.326851 1_555
Cs0 O11 3.357941 1_565
Cs0 O22 3.393453 1_555
Cs0 O16 3.465775 1_655
Cs0 O9 3.527394 1_555
Cs0 O18 3.569872 1_555
Cs0 O20 3.571062 1_555
Cs0 O12 3.717205 1_555
Cs1 O28 3.146211 1_555
Cs1 O24 3.221698 1_555
Cs1 O3 3.258277 1_546
Cs1 O5 3.291849 1_545
Cs1 O1 3.326851 1_555
Cs1 O10 3.357941 1_456
Cs1 O23 3.393453 1_556
Cs1 O17 3.465775 1_545
Cs1 O8 3.527394 1_555
Cs1 O19 3.569872 1_556
Cs1 O21 3.571062 1_555
Cs1 O13 3.717205 1_555
Cs2 O29 3.146211 1_555
Cs2 O27 3.221698 1_555
Cs2 O0 3.258277 1_455
Cs2 O6 3.291849 1_455
Cs2 O2 3.326851 1_555
Cs2 O9 3.357941 1_545
Cs2 O20 3.393453 1_555
Cs2 O18 3.465775 1_455
Cs2 O11 3.527394 1_555
Cs2 O16 3.569872 1_555
Cs2 O22 3.571062 1_555
Cs2 O14 3.717205 1_555
Cs3 O29 3.146211 1_555
Cs3 O26 3.221698 1_555
Cs3 O1 3.258277 1_564
Cs3 O7 3.291849 1_565
Cs3 O3 3.326851 1_555
Cs3 O8 3.357941 1_654
Cs3 O21 3.393453 1_554
Cs3 O19 3.465775 1_565
Cs3 O10 3.527394 1_555
Cs3 O17 3.569872 1_554
Cs3 O23 3.571062 1_555
Cs3 O15 3.717205 1_555
Ce0 O30 2.256539 1_465
Ce0 O31 2.256539 1_465
Ce0 O5 2.452276 1_555
Ce0 O4 2.452276 1_555
Ce0 O13 2.551646 1_565
Ce0 O12 2.551646 1_455
Ce0 O24 2.575321 1_555
Ce0 O25 2.575321 1_555
Ce0 O17 2.684184 1_455
Ce0 O16 2.684184 1_565
Ce1 O32 2.256539 1_645
Ce1 O33 2.256539 1_645
Ce1 O6 2.452276 1_555
Ce1 O7 2.452276 1_555
Ce1 O14 2.551646 1_655
Ce1 O15 2.551646 1_545
Ce1 O27 2.575321 1_555
Ce1 O26 2.575321 1_555
Ce1 O18 2.684184 1_545
Ce1 O19 2.684184 1_655
N0 O8 1.246945 1_555
N0 O3 1.250794 1_556
N0 O5 1.310173 1_555
N1 O9 1.246945 1_555
N1 O2 1.250794 1_555
N1 O4 1.310173 1_555
N2 O10 1.246945 1_555
N2 O1 1.250794 1_554
N2 O7 1.310173 1_555
N3 O11 1.246945 1_555
N3 O0 1.250794 1_555
N3 O6 1.310173 1_555
N4 O20 1.234011 1_555
N4 O13 1.273979 1_555
N4 O16 1.293926 1_555
N5 O21 1.234011 1_555
N5 O12 1.273979 1_555
N5 O17 1.293926 1_555
N6 O22 1.234011 1_555
N6 O15 1.273979 1_555
N6 O18 1.293926 1_555
N7 O23 1.234011 1_555
N7 O14 1.273979 1_555
N7 O19 1.293926 1_555
N8 O28 1.234743 1_555
N8 O24 1.286236 1_555
N8 O25 1.286236 1_555
N9 O29 1.234743 1_555
N9 O27 1.286236 1_555
N9 O26 1.286236 1_555
