# generated using pymatgen
data_Yb4Zr3O12
_symmetry_space_group_name_H-M   'P 1'
_cell_length_a   6.38271000
_cell_length_b   6.40820340
_cell_length_c   6.53224112
_cell_angle_alpha   97.67586184
_cell_angle_beta   99.30492291
_cell_angle_gamma   100.63976521
_symmetry_Int_Tables_number   1
_chemical_formula_structural   Yb4Zr3O12
_chemical_formula_sum   'Yb4 Zr3 O12'
_cell_volume   255.42608686
_cell_formula_units_Z   1
loop_
 _symmetry_equiv_pos_site_id
 _symmetry_equiv_pos_as_xyz
  1  'x, y, z'
loop_
 _atom_site_type_symbol
 _atom_site_label
 _atom_site_symmetry_multiplicity
 _atom_site_fract_x
 _atom_site_fract_y
 _atom_site_fract_z
 _atom_site_occupancy
  Yb  Yb0  1  0.85390800  0.38699000  0.69940000  1
  Yb  Yb1  1  0.39547400  0.70629200  0.86829600  1
  Yb  Yb2  1  0.14609200  0.61301000  0.30060000  1
  Yb  Yb3  1  0.60452600  0.29370800  0.13170400  1
  Zr  Zr0  1  0.00000000  0.00000000  0.00000000  1
  Zr  Zr1  1  0.71604100  0.86435300  0.38463100  1
  Zr  Zr2  1  0.28395900  0.13564700  0.61536900  1
  O  O0  1  0.46811100  0.60050600  0.20025600  1
  O  O1  1  0.55550900  0.15081200  0.43710000  1
  O  O2  1  0.18891400  0.42450900  0.58440700  1
  O  O3  1  0.53188900  0.39949400  0.79974400  1
  O  O4  1  0.44449100  0.84918800  0.56290000  1
  O  O5  1  0.81108600  0.57549100  0.41559300  1
  O  O6  1  0.92681000  0.03474500  0.67569800  1
  O  O7  1  0.04986700  0.68175600  0.94506200  1
  O  O8  1  0.69144900  0.93993300  0.08018600  1
  O  O9  1  0.07319000  0.96525500  0.32430200  1
  O  O10  1  0.95013300  0.31824400  0.05493800  1
  O  O11  1  0.30855100  0.06006700  0.91981400  1
loop_
_geom_bond_atom_site_label_1
_geom_bond_atom_site_label_2
_geom_bond_distance
_geom_bond_site_symmetry_2
O0 Zr1 2.159899 1_555
O0 Yb2 2.267816 1_555
O0 Yb3 2.312337 1_555
O0 Yb1 2.358024 1_554
O1 Zr2 2.233893 1_555
O1 Zr1 2.275331 1_545
O1 Yb3 2.345239 1_555
O1 Yb0 2.457923 1_555
O2 Zr2 2.076162 1_555
O2 Yb2 2.350973 1_555
O2 Yb0 2.360498 1_455
O2 Yb1 2.423529 1_555
O3 Zr2 2.159899 1_555
O3 Yb0 2.267816 1_555
O3 Yb1 2.312337 1_555
O3 Yb3 2.358024 1_556
O4 Zr1 2.233893 1_555
O4 Zr2 2.275331 1_565
O4 Yb1 2.345239 1_555
O4 Yb2 2.457923 1_555
O5 Zr1 2.076162 1_555
O5 Yb0 2.350973 1_555
O5 Yb2 2.360498 1_655
O5 Yb3 2.423529 1_555
O6 Zr0 2.144736 1_656
O6 Zr1 2.166309 1_545
O6 Zr2 2.363082 1_655
O6 Yb0 2.377706 1_555
O7 Zr0 2.114297 1_566
O7 Yb0 2.318688 1_455
O7 Yb1 2.322263 1_555
O7 Yb2 2.424267 1_556
O8 Zr1 2.097286 1_555
O8 Zr0 2.099653 1_665
O8 Yb1 2.298397 1_554
O8 Yb3 2.425212 1_565
O9 Zr0 2.144736 1_565
O9 Zr2 2.166309 1_565
O9 Zr1 2.363082 1_455
O9 Yb2 2.377706 1_555
O10 Zr0 2.114297 1_655
O10 Yb2 2.318688 1_655
O10 Yb3 2.322263 1_555
O10 Yb0 2.424267 1_554
O11 Zr2 2.097286 1_555
O11 Zr0 2.099653 1_556
O11 Yb3 2.298397 1_556
O11 Yb1 2.425212 1_545
