# generated using pymatgen
data_NaCa3AlFe3(SiO3)8
_symmetry_space_group_name_H-M   'P 1'
_cell_length_a   8.98264600
_cell_length_b   5.33891900
_cell_length_c   9.81501039
_cell_angle_alpha   74.82964205
_cell_angle_beta   90.00000000
_cell_angle_gamma   90.00000000
_symmetry_Int_Tables_number   1
_chemical_formula_structural   NaCa3AlFe3(SiO3)8
_chemical_formula_sum   'Na1 Ca3 Al1 Fe3 Si8 O24'
_cell_volume   454.30142555
_cell_formula_units_Z   1
loop_
 _symmetry_equiv_pos_site_id
 _symmetry_equiv_pos_as_xyz
  1  'x, y, z'
loop_
 _atom_site_type_symbol
 _atom_site_label
 _atom_site_symmetry_multiplicity
 _atom_site_fract_x
 _atom_site_fract_y
 _atom_site_fract_z
 _atom_site_occupancy
  Na  Na0  1  0.30145000  0.00000000  0.00000000  1
  Ca  Ca0  1  0.79660100  0.50000000  0.50000000  1
  Ca  Ca1  1  0.20168700  0.00000000  0.50000000  1
  Ca  Ca2  1  0.69938900  0.50000000  0.00000000  1
  Al  Al0  1  0.10187800  0.50000000  0.00000000  1
  Fe  Fe0  1  0.40430100  0.50000000  0.50000000  1
  Fe  Fe1  1  0.90980900  0.00000000  0.00000000  1
  Fe  Fe2  1  0.59186900  0.00000000  0.50000000  1
  Si  Si0  1  0.09404500  0.69161300  0.28223000  1
  Si  Si1  1  0.58788900  0.19352000  0.79100700  1
  Si  Si2  1  0.09404500  0.30838700  0.71777000  1
  Si  Si3  1  0.58788900  0.80648000  0.20899300  1
  Si  Si4  1  0.91245200  0.80001200  0.71609400  1
  Si  Si5  1  0.40159500  0.30675900  0.20536900  1
  Si  Si6  1  0.91245200  0.19998800  0.28390600  1
  Si  Si7  1  0.40159500  0.69324100  0.79463100  1
  O  O0  1  0.25009500  0.71636400  0.35640000  1
  O  O1  1  0.74718000  0.20582300  0.86463600  1
  O  O2  1  0.25009500  0.28363600  0.64360000  1
  O  O3  1  0.74718000  0.79417700  0.13536400  1
  O  O4  1  0.75245600  0.78683100  0.64522500  1
  O  O5  1  0.24243400  0.30898700  0.12868900  1
  O  O6  1  0.75245600  0.21316900  0.35477500  1
  O  O7  1  0.24243400  0.69101300  0.87131100  1
  O  O8  1  0.01907900  0.39671200  0.35500100  1
  O  O9  1  0.51369000  0.89765300  0.85282700  1
  O  O10  1  0.01907900  0.60328800  0.64499900  1
  O  O11  1  0.51369000  0.10234700  0.14717300  1
  O  O12  1  0.98394800  0.09910500  0.65872900  1
  O  O13  1  0.48376500  0.59670100  0.14686200  1
  O  O14  1  0.98394800  0.90089500  0.34127100  1
  O  O15  1  0.48376500  0.40329900  0.85313800  1
  O  O16  1  0.08692800  0.74992700  0.11083100  1
  O  O17  1  0.58840500  0.28220600  0.61951900  1
  O  O18  1  0.08692800  0.25007300  0.88916900  1
  O  O19  1  0.58840500  0.71779400  0.38048100  1
  O  O20  1  0.92909000  0.70131800  0.88745400  1
  O  O21  1  0.40345900  0.21656900  0.37689000  1
  O  O22  1  0.92909000  0.29868200  0.11254600  1
  O  O23  1  0.40345900  0.78343100  0.62311000  1
loop_
_geom_bond_atom_site_label_1
_geom_bond_atom_site_label_2
_geom_bond_distance
_geom_bond_site_symmetry_2
Na0 O5 2.385019 1_555
Na0 O7 2.385019 1_544
Na0 O16 2.432893 1_545
Na0 O18 2.432893 1_554
Na0 O11 2.536323 1_555
Na0 O9 2.536323 1_544
Na0 O15 2.787745 1_554
Na0 O13 2.787745 1_545
Ca0 O17 2.347709 1_555
Ca0 O19 2.347709 1_555
Ca0 O4 2.382536 1_555
Ca0 O6 2.382536 1_555
Ca0 O10 2.594997 1_655
Ca0 O8 2.594997 1_655
Ca0 O12 2.845182 1_555
Ca0 O14 2.845182 1_555
Ca1 O21 2.313156 1_555
Ca1 O23 2.313156 1_545
Ca1 O0 2.363426 1_545
Ca1 O2 2.363426 1_555
Ca1 O14 2.638933 1_445
Ca1 O12 2.638933 1_455
Ca1 O8 2.761225 1_555
Ca1 O10 2.761225 1_545
Ca2 O3 2.346984 1_555
Ca2 O1 2.346984 1_554
Ca2 O20 2.451809 1_554
Ca2 O22 2.451809 1_555
Ca2 O13 2.546626 1_555
Ca2 O15 2.546626 1_554
Ca2 O9 2.787699 1_554
Ca2 O11 2.787699 1_555
Al0 O7 1.885546 1_554
Al0 O5 1.885546 1_555
Al0 O16 1.934298 1_555
Al0 O18 1.934298 1_554
Al0 O22 2.040358 1_455
Al0 O20 2.040358 1_454
Fe0 O0 2.094631 1_555
Fe0 O2 2.094631 1_555
Fe0 O23 2.169541 1_555
Fe0 O21 2.169541 1_555
Fe0 O17 2.179251 1_555
Fe0 O19 2.179251 1_555
Fe1 O3 2.083898 1_545
Fe1 O1 2.083898 1_554
Fe1 O22 2.171413 1_555
Fe1 O20 2.171413 1_544
Fe1 O16 2.176467 1_645
Fe1 O18 2.176467 1_654
Fe2 O4 2.135119 1_545
Fe2 O6 2.135119 1_555
Fe2 O17 2.138271 1_555
Fe2 O19 2.138271 1_545
Fe2 O21 2.220364 1_555
Fe2 O23 2.220364 1_545
O0 Si0 1.600826 1_555
O1 Si1 1.612065 1_555
O2 Si2 1.600826 1_555
O3 Si3 1.612065 1_555
O4 Si4 1.606210 1_555
O5 Si5 1.614277 1_555
O6 Si6 1.606210 1_555
O7 Si7 1.614277 1_555
O8 Si0 1.689362 1_555
O8 Si6 1.700290 1_455
O9 Si1 1.675089 1_565
O9 Si7 1.690387 1_555
O10 Si2 1.689362 1_555
O10 Si4 1.700290 1_455
O11 Si3 1.675089 1_545
O11 Si5 1.690387 1_555
O12 Si4 1.675942 1_545
O12 Si2 1.703285 1_655
O13 Si5 1.674976 1_555
O13 Si3 1.690718 1_555
O14 Si6 1.675942 1_565
O14 Si0 1.703285 1_655
O15 Si7 1.674976 1_555
O15 Si1 1.690718 1_555
O16 Si0 1.630022 1_555
O17 Si1 1.624844 1_555
O18 Si2 1.630022 1_555
O19 Si3 1.624844 1_555
O20 Si4 1.632463 1_555
O21 Si5 1.625417 1_555
O22 Si6 1.632463 1_555
O23 Si7 1.625417 1_555
