# generated using pymatgen
data_Mg3TiNi2
_symmetry_space_group_name_H-M   'P 1'
_cell_length_a   8.16419680
_cell_length_b   8.16419680
_cell_length_c   8.16419680
_cell_angle_alpha   59.99986282
_cell_angle_beta   59.99986282
_cell_angle_gamma   59.99986282
_symmetry_Int_Tables_number   1
_chemical_formula_structural   Mg3TiNi2
_chemical_formula_sum   'Mg12 Ti4 Ni8'
_cell_volume   384.79023855
_cell_formula_units_Z   4
loop_
 _symmetry_equiv_pos_site_id
 _symmetry_equiv_pos_as_xyz
  1  'x, y, z'
loop_
 _atom_site_type_symbol
 _atom_site_label
 _atom_site_symmetry_multiplicity
 _atom_site_fract_x
 _atom_site_fract_y
 _atom_site_fract_z
 _atom_site_occupancy
  Mg  Mg0  1  0.80728300  0.80728300  0.19271768  1
  Mg  Mg1  1  0.19271599  0.19271599  0.80728406  1
  Mg  Mg2  1  0.80728300  0.19271768  0.80728300  1
  Mg  Mg3  1  0.19271599  0.80728406  0.19271599  1
  Mg  Mg4  1  0.19271768  0.80728300  0.80728300  1
  Mg  Mg5  1  0.80728406  0.19271599  0.19271599  1
  Mg  Mg6  1  0.44271700  0.44271700  0.05728232  1
  Mg  Mg7  1  0.05728401  0.05728401  0.44271594  1
  Mg  Mg8  1  0.44271700  0.05728232  0.44271700  1
  Mg  Mg9  1  0.05728401  0.44271594  0.05728401  1
  Mg  Mg10  1  0.05728232  0.44271700  0.44271700  1
  Mg  Mg11  1  0.44271594  0.05728401  0.05728401  1
  Ti  Ti0  1  0.12500000  0.62500000  0.62500000  1
  Ti  Ti1  1  0.62500000  0.12500000  0.62500000  1
  Ti  Ti2  1  0.62500000  0.62500000  0.12500000  1
  Ti  Ti3  1  0.62500000  0.62500000  0.62500000  1
  Ni  Ni0  1  0.73920134  0.42026716  0.42026716  1
  Ni  Ni1  1  0.42026716  0.73920134  0.42026716  1
  Ni  Ni2  1  0.42026716  0.42026716  0.73920134  1
  Ni  Ni3  1  0.42026644  0.42026644  0.42026644  1
  Ni  Ni4  1  0.51079866  0.82973284  0.82973284  1
  Ni  Ni5  1  0.82973284  0.51079866  0.82973284  1
  Ni  Ni6  1  0.82973284  0.82973284  0.51079866  1
  Ni  Ni7  1  0.82973356  0.82973356  0.82973356  1
loop_
_geom_bond_atom_site_label_1
_geom_bond_atom_site_label_2
_geom_bond_distance
_geom_bond_site_symmetry_2
Mg0 Ni6 2.792218 1_555
Mg0 Ni7 2.792240 1_554
Mg0 Ti3 2.931769 1_555
Mg0 Ti2 2.931785 1_555
Mg0 Ni0 2.932144 1_555
Mg0 Ni1 2.932144 1_555
Mg0 Mg10 3.034231 1_655
Mg0 Mg8 3.034231 1_565
Mg0 Mg9 3.034244 1_655
Mg0 Mg11 3.034244 1_565
Mg0 Mg5 3.146748 1_565
Mg0 Mg3 3.146748 1_655
Mg0 Mg2 3.146758 1_564
Mg0 Mg4 3.146758 1_654
Mg1 Ni4 2.792229 1_545
Mg1 Ni5 2.792229 1_455
Mg1 Ti0 2.931783 1_555
Mg1 Ti1 2.931783 1_555
Mg1 Ni3 2.932159 1_555
Mg1 Ni2 2.932178 1_555
Mg1 Mg10 3.034244 1_555
Mg1 Mg8 3.034244 1_555
Mg1 Mg11 3.034246 1_556
Mg1 Mg9 3.034246 1_556
Mg1 Mg3 3.146736 1_546
Mg1 Mg5 3.146736 1_456
Mg1 Mg2 3.146748 1_455
Mg1 Mg4 3.146748 1_545
Mg2 Ni5 2.792218 1_555
Mg2 Ni7 2.792240 1_545
Mg2 Ti3 2.931769 1_555
Mg2 Ti1 2.931785 1_555
Mg2 Ni0 2.932144 1_555
Mg2 Ni2 2.932144 1_555
Mg2 Mg6 3.034231 1_556
Mg2 Mg7 3.034244 1_655
Mg2 Mg5 3.146748 1_556
Mg2 Mg4 3.146758 1_645
Mg3 Ni4 2.792229 1_554
Mg3 Ni6 2.792229 1_455
Mg3 Ti2 2.931783 1_555
Mg3 Ti0 2.931783 1_555
Mg3 Ni3 2.932159 1_555
Mg3 Ni1 2.932178 1_555
Mg3 Mg6 3.034244 1_555
Mg3 Mg7 3.034246 1_565
Mg3 Mg5 3.146736 1_465
Mg3 Mg4 3.146748 1_554
Mg4 Ni4 2.792218 1_555
Mg4 Ni7 2.792240 1_455
Mg4 Ti3 2.931769 1_555
Mg4 Ti0 2.931785 1_555
Mg4 Ni1 2.932144 1_555
Mg4 Ni2 2.932144 1_555
Mg4 Mg8 3.034231 1_565
Mg4 Mg6 3.034231 1_556
Mg4 Mg9 3.034244 1_556
Mg4 Mg7 3.034244 1_565
Mg5 Ni5 2.792229 1_554
Mg5 Ni6 2.792229 1_545
Mg5 Ti2 2.931783 1_555
Mg5 Ti1 2.931783 1_555
Mg5 Ni3 2.932159 1_555
Mg5 Ni0 2.932178 1_555
Mg5 Mg8 3.034244 1_555
Mg5 Mg6 3.034244 1_555
Mg5 Mg9 3.034246 1_655
Mg5 Mg7 3.034246 1_655
Mg6 Ni2 2.792218 1_554
Mg6 Ni3 2.792240 1_555
Mg6 Ti3 2.931769 1_554
Mg6 Ti2 2.931785 1_555
Mg6 Ni4 2.932144 1_554
Mg6 Ni5 2.932144 1_554
Mg6 Mg9 3.146748 1_555
Mg6 Mg8 3.146758 1_555
Mg7 Ni0 2.792229 1_455
Mg7 Ni1 2.792229 1_545
Mg7 Ti0 2.931783 1_545
Mg7 Ti1 2.931783 1_455
Mg7 Ni7 2.932159 1_445
Mg7 Ni6 2.932178 1_445
Mg7 Mg9 3.146736 1_555
Mg7 Mg8 3.146748 1_555
Mg8 Ni1 2.792218 1_545
Mg8 Ni3 2.792240 1_555
Mg8 Ti3 2.931769 1_545
Mg8 Ti1 2.931785 1_555
Mg8 Ni6 2.932144 1_545
Mg8 Ni4 2.932144 1_545
Mg9 Ni0 2.792229 1_455
Mg9 Ni2 2.792229 1_554
Mg9 Ti0 2.931783 1_554
Mg9 Ti2 2.931783 1_455
Mg9 Ni7 2.932159 1_454
Mg9 Ni5 2.932178 1_454
Mg10 Ni0 2.792218 1_455
Mg10 Ni3 2.792240 1_555
Mg10 Ti3 2.931769 1_455
Mg10 Ti0 2.931785 1_555
Mg10 Ni5 2.932144 1_455
Mg10 Ni6 2.932144 1_455
Mg10 Mg2 3.034231 1_455
Mg10 Mg3 3.034244 1_555
Mg10 Mg7 3.146748 1_555
Mg10 Mg9 3.146748 1_555
Mg10 Mg8 3.146758 1_555
Mg10 Mg6 3.146758 1_555
Mg11 Ni1 2.792229 1_545
Mg11 Ni2 2.792229 1_554
Mg11 Ti2 2.931783 1_545
Mg11 Ti1 2.931783 1_554
Mg11 Ni7 2.932159 1_544
Mg11 Ni4 2.932178 1_544
Mg11 Mg2 3.034244 1_554
Mg11 Mg3 3.034246 1_545
Mg11 Mg7 3.146736 1_555
Mg11 Mg9 3.146736 1_555
Mg11 Mg8 3.146748 1_555
Mg11 Mg6 3.146748 1_555
Ni0 Ti3 2.476687 1_555
Ni0 Ti2 2.476703 1_555
Ni0 Ti1 2.476703 1_555
Ni0 Ni1 2.603836 1_555
Ni0 Ni2 2.603836 1_555
Ni0 Ni3 2.603853 1_555
Ni1 Ti3 2.476687 1_555
Ni1 Ti2 2.476703 1_555
Ni1 Ti0 2.476703 1_555
Ni1 Ni2 2.603836 1_555
Ni1 Ni3 2.603853 1_555
Ni2 Ti3 2.476687 1_555
Ni2 Ti0 2.476703 1_555
Ni2 Ti1 2.476703 1_555
Ni2 Ni3 2.603853 1_555
Ni3 Ti2 2.476694 1_555
Ni3 Ti1 2.476694 1_555
Ni3 Ti0 2.476694 1_555
Ni4 Ti3 2.476687 1_555
Ni4 Ti1 2.476703 1_565
Ni4 Ti2 2.476703 1_556
Ni4 Ni5 2.603836 1_555
Ni4 Ni6 2.603836 1_555
Ni4 Ni7 2.603853 1_555
Ni5 Ti3 2.476687 1_555
Ni5 Ti0 2.476703 1_655
Ni5 Ti2 2.476703 1_556
Ni5 Ni6 2.603836 1_555
Ni5 Ni7 2.603853 1_555
Ni6 Ti3 2.476687 1_555
Ni6 Ti0 2.476703 1_655
Ni6 Ti1 2.476703 1_565
Ni6 Ni7 2.603853 1_555
Ni7 Ti2 2.476694 1_556
Ni7 Ti1 2.476694 1_565
Ni7 Ti0 2.476694 1_655
