# generated using pymatgen
data_Li8Mn3Fe5(BO3)8
_symmetry_space_group_name_H-M   'P 1'
_cell_length_a   5.22927753
_cell_length_b   5.23047098
_cell_length_c   20.76279912
_cell_angle_alpha   89.11067202
_cell_angle_beta   90.93524978
_cell_angle_gamma   60.25588343
_symmetry_Int_Tables_number   1
_chemical_formula_structural   Li8Mn3Fe5(BO3)8
_chemical_formula_sum   'Li8 Mn3 Fe5 B8 O24'
_cell_volume   492.82690699
_cell_formula_units_Z   1
loop_
 _symmetry_equiv_pos_site_id
 _symmetry_equiv_pos_as_xyz
  1  'x, y, z'
loop_
 _atom_site_type_symbol
 _atom_site_label
 _atom_site_symmetry_multiplicity
 _atom_site_fract_x
 _atom_site_fract_y
 _atom_site_fract_z
 _atom_site_occupancy
  Li  Li0  1  0.32103205  0.65265997  0.66647466  1
  Li  Li1  1  0.35001747  0.67624460  0.91580052  1
  Li  Li2  1  0.32125849  0.65056989  0.16633312  1
  Li  Li3  1  0.34739958  0.67883791  0.41673193  1
  Li  Li4  1  0.65081763  0.33862908  0.79143897  1
  Li  Li5  1  0.66418648  0.34704304  0.54099176  1
  Li  Li6  1  0.65161553  0.33550091  0.29189606  1
  Li  Li7  1  0.66213558  0.34735506  0.04082477  1
  Mn  Mn0  1  0.33071970  0.00261492  0.05834746  1
  Mn  Mn1  1  0.99875356  0.32287488  0.68305165  1
  Mn  Mn2  1  0.99690729  0.32473962  0.18398943  1
  Fe  Fe0  1  0.32807287  0.99788955  0.55790205  1
  Fe  Fe1  1  0.67754509  0.99412031  0.93330895  1
  Fe  Fe2  1  0.68313892  0.99772761  0.43342085  1
  Fe  Fe3  1  0.98824930  0.67285440  0.80891206  1
  Fe  Fe4  1  0.00177597  0.67475041  0.30855698  1
  B  B0  1  0.00084426  0.34272415  0.93647133  1
  B  B1  1  0.00216226  0.33892814  0.43702559  1
  B  B2  1  0.33483550  0.00340459  0.81217325  1
  B  B3  1  0.33220185  0.00719791  0.31273213  1
  B  B4  1  0.65983499  0.99661227  0.68681672  1
  B  B5  1  0.65925283  0.99726124  0.18779697  1
  B  B6  1  0.99353740  0.66860751  0.56137327  1
  B  B7  1  0.99539891  0.66596808  0.06180772  1
  O  O0  1  0.07201629  0.25387546  0.79245413  1
  O  O1  1  0.06769869  0.25411522  0.29278502  1
  O  O2  1  0.25743802  0.07372847  0.95071986  1
  O  O3  1  0.02746856  0.58713276  0.91730618  1
  O  O4  1  0.25655610  0.07111958  0.45208562  1
  O  O5  1  0.02437122  0.58400021  0.41727478  1
  O  O6  1  0.58434750  0.03117077  0.82698208  1
  O  O7  1  0.26813346  0.64849382  0.56766742  1
  O  O8  1  0.58124160  0.03036169  0.32777277  1
  O  O9  1  0.27141676  0.63774376  0.06898754  1
  O  O10  1  0.35380540  0.73209072  0.81864377  1
  O  O11  1  0.35159284  0.73267349  0.31876822  1
  O  O12  1  0.62752910  0.27402165  0.69410542  1
  O  O13  1  0.62685988  0.27411507  0.19479093  1
  O  O14  1  0.72890114  0.36529550  0.94340173  1
  O  O15  1  0.42294807  0.96421641  0.66599588  1
  O  O16  1  0.72681166  0.36307445  0.44345370  1
  O  O17  1  0.42273244  0.96351437  0.16693154  1
  O  O18  1  0.96942641  0.41976886  0.57649080  1
  O  O19  1  0.95947464  0.42367039  0.07730534  1
  O  O20  1  0.74679259  0.93270902  0.54159176  1
  O  O21  1  0.75435596  0.93289110  0.04094752  1
  O  O22  1  0.93290235  0.74810442  0.70239525  1
  O  O23  1  0.93228581  0.74819769  0.20316350  1
loop_
_geom_bond_atom_site_label_1
_geom_bond_atom_site_label_2
_geom_bond_distance
_geom_bond_site_symmetry_2
Li0 O12 1.898755 1_555
Li0 O15 1.949644 1_555
Li0 O22 1.995112 1_455
Li0 O7 2.067499 1_555
Li1 O14 1.906752 1_555
Li1 O3 1.960744 1_555
Li1 O2 2.035173 1_565
Li1 O10 2.035621 1_555
Li2 O13 1.894949 1_555
Li2 O17 1.955314 1_555
Li2 O23 2.003783 1_455
Li2 O9 2.040076 1_555
Li3 O16 1.912118 1_555
Li3 O5 1.982797 1_555
Li3 O4 2.016289 1_565
Li3 O11 2.051032 1_555
Li4 O6 1.943646 1_555
Li4 O10 1.964631 1_555
Li4 O0 2.019309 1_655
Li4 O12 2.065703 1_555
Li5 O18 1.951544 1_555
Li5 O7 1.976488 1_555
Li5 O20 1.988324 1_545
Li5 O16 2.063780 1_555
Li6 O8 1.947416 1_555
Li6 O11 1.979622 1_555
Li6 O1 1.998780 1_655
Li6 O13 2.058549 1_555
Li7 O19 1.933247 1_555
Li7 O9 1.952113 1_555
Li7 O21 1.973463 1_545
Li7 O14 2.066879 1_554
Mn0 O9 2.088910 1_545
Mn0 O21 2.097545 1_545
Mn0 O19 2.140904 1_455
Mn0 O2 2.254700 1_554
Mn0 O17 2.282277 1_545
Mn1 O12 2.095538 1_555
Mn1 O15 2.117156 1_645
Mn1 O22 2.121087 1_555
Mn1 O18 2.247782 1_555
Mn1 O0 2.290348 1_655
Mn2 O13 2.094205 1_555
Mn2 O23 2.113645 1_555
Mn2 O17 2.127335 1_645
Mn2 O19 2.249962 1_555
Mn2 O1 2.277551 1_655
Fe0 O7 2.009496 1_555
Fe0 O20 2.076620 1_555
Fe0 O18 2.116412 1_465
Fe0 O4 2.217769 1_565
Fe0 O15 2.275711 1_555
Fe1 O3 2.041316 1_655
Fe1 O2 2.062323 1_565
Fe1 O14 2.100781 1_565
Fe1 O6 2.237553 1_565
Fe1 O21 2.253756 1_556
Fe2 O5 2.046912 1_655
Fe2 O16 2.047209 1_565
Fe2 O4 2.111115 1_565
Fe2 O8 2.232644 1_565
Fe2 O20 2.260579 1_555
Fe3 O0 2.046155 1_655
Fe3 O6 2.057714 1_565
Fe3 O10 2.089986 1_655
Fe3 O22 2.229092 1_555
Fe3 O3 2.273874 1_655
Fe4 O11 2.005565 1_555
Fe4 O1 2.083287 1_555
Fe4 O8 2.108993 1_465
Fe4 O23 2.208519 1_455
Fe4 O5 2.288447 1_555
B0 O14 1.377511 1_455
B0 O2 1.402993 1_555
B0 O3 1.405198 1_555
B1 O16 1.390462 1_455
B1 O4 1.397651 1_555
B1 O5 1.399188 1_555
B2 O10 1.376843 1_545
B2 O0 1.396854 1_555
B2 O6 1.412219 1_555
B3 O11 1.391869 1_545
B3 O1 1.394562 1_555
B3 O8 1.397369 1_555
B4 O12 1.386079 1_565
B4 O15 1.393971 1_555
B4 O22 1.401195 1_555
B5 O13 1.382260 1_565
B5 O17 1.396459 1_555
B5 O23 1.401443 1_555
B6 O7 1.390546 1_655
B6 O20 1.392215 1_555
B6 O18 1.399956 1_555
B7 O9 1.381379 1_655
B7 O21 1.393853 1_555
B7 O19 1.403747 1_555
