# generated using pymatgen
data_Ge3N4
_symmetry_space_group_name_H-M   'P 1'
_cell_length_a   8.05093195
_cell_length_b   8.05093102
_cell_length_c   3.08352139
_cell_angle_alpha   90.00000000
_cell_angle_beta   90.00000000
_cell_angle_gamma   120.00000112
_symmetry_Int_Tables_number   1
_chemical_formula_structural   Ge3N4
_chemical_formula_sum   'Ge6 N8'
_cell_volume   173.08915352
_cell_formula_units_Z   2
loop_
 _symmetry_equiv_pos_site_id
 _symmetry_equiv_pos_as_xyz
  1  'x, y, z'
loop_
 _atom_site_type_symbol
 _atom_site_label
 _atom_site_symmetry_multiplicity
 _atom_site_fract_x
 _atom_site_fract_y
 _atom_site_fract_z
 _atom_site_occupancy
  Ge  Ge0  1  0.82914730  0.23548350  0.75000000  1
  Ge  Ge1  1  0.59366280  0.82914730  0.25000000  1
  Ge  Ge2  1  0.23548350  0.40633720  0.25000000  1
  Ge  Ge3  1  0.76451650  0.59366280  0.75000000  1
  Ge  Ge4  1  0.40633720  0.17085270  0.75000000  1
  Ge  Ge5  1  0.17085270  0.76451650  0.25000000  1
  N  N0  1  0.66666700  0.33333300  0.75000000  1
  N  N1  1  0.33333300  0.66666700  0.25000000  1
  N  N2  1  0.66963060  0.97271598  0.75000000  1
  N  N3  1  0.69691562  0.66963060  0.25000000  1
  N  N4  1  0.97271598  0.30308438  0.25000000  1
  N  N5  1  0.02728402  0.69691562  0.75000000  1
  N  N6  1  0.33036940  0.02728402  0.25000000  1
  N  N7  1  0.30308438  0.33036940  0.75000000  1
loop_
_geom_bond_atom_site_label_1
_geom_bond_atom_site_label_2
_geom_bond_distance
_geom_bond_site_symmetry_2
Ge0 N0 1.833651 1_555
Ge0 N4 1.838525 1_556
Ge0 N4 1.838525 1_555
Ge0 N2 1.846044 1_545
Ge1 N1 1.833651 1_555
Ge1 N2 1.838525 1_554
Ge1 N2 1.838525 1_555
Ge1 N3 1.846057 1_555
Ge2 N1 1.833651 1_555
Ge2 N7 1.838525 1_555
Ge2 N7 1.838525 1_554
Ge2 N4 1.846042 1_455
Ge3 N0 1.833651 1_555
Ge3 N3 1.838525 1_556
Ge3 N3 1.838525 1_555
Ge3 N5 1.846042 1_655
Ge4 N0 1.833651 1_555
Ge4 N6 1.838525 1_556
Ge4 N6 1.838525 1_555
Ge4 N7 1.846057 1_555
Ge5 N1 1.833651 1_555
Ge5 N5 1.838525 1_554
Ge5 N5 1.838525 1_555
Ge5 N6 1.846044 1_565
