# generated using pymatgen
data_K2Bi(IO3)5
_symmetry_space_group_name_H-M   'P 1'
_cell_length_a   8.39071200
_cell_length_b   8.39204100
_cell_length_c   12.46597777
_cell_angle_alpha   90.00000000
_cell_angle_beta   109.66648434
_cell_angle_gamma   90.00000000
_symmetry_Int_Tables_number   1
_chemical_formula_structural   K2Bi(IO3)5
_chemical_formula_sum   'K4 Bi2 I10 O30'
_cell_volume   826.59043237
_cell_formula_units_Z   2
loop_
 _symmetry_equiv_pos_site_id
 _symmetry_equiv_pos_as_xyz
  1  'x, y, z'
loop_
 _atom_site_type_symbol
 _atom_site_label
 _atom_site_symmetry_multiplicity
 _atom_site_fract_x
 _atom_site_fract_y
 _atom_site_fract_z
 _atom_site_occupancy
  K  K0  1  0.74547900  0.00000000  0.00000000  1
  K  K1  1  0.24547900  0.00000000  0.00000000  1
  K  K2  1  0.48329500  0.51156300  0.50000000  1
  K  K3  1  0.98329500  0.48843600  0.50000000  1
  Bi  Bi0  1  0.82467700  0.50000000  0.00000000  1
  Bi  Bi1  1  0.32467600  0.50000000  0.00000000  1
  I  I0  1  0.87308400  0.26548300  0.79079900  1
  I  I1  1  0.08228500  0.73451700  0.20920100  1
  I  I2  1  0.37308400  0.73451700  0.79079900  1
  I  I3  1  0.58228500  0.26548300  0.20920100  1
  I  I4  1  0.82806600  0.75261700  0.72841300  1
  I  I5  1  0.09965200  0.24738300  0.27158700  1
  I  I6  1  0.32806600  0.24738300  0.72841300  1
  I  I7  1  0.59965200  0.75261700  0.27158700  1
  I  I8  1  0.52261300  0.05342600  0.50000000  1
  I  I9  1  0.02261300  0.94657400  0.50000000  1
  O  O0  1  0.92406600  0.06446600  0.84536100  1
  O  O1  1  0.07870600  0.93553400  0.15463900  1
  O  O2  1  0.42406600  0.93553400  0.84536100  1
  O  O3  1  0.57870600  0.06446600  0.15463900  1
  O  O4  1  0.01754400  0.38142200  0.91604800  1
  O  O5  1  0.10149600  0.61857800  0.08395200  1
  O  O6  1  0.51754400  0.61857800  0.91604800  1
  O  O7  1  0.60149600  0.38142200  0.08395200  1
  O  O8  1  0.69300900  0.30489000  0.84189400  1
  O  O9  1  0.85111500  0.69511000  0.15810600  1
  O  O10  1  0.19300900  0.69511000  0.84189400  1
  O  O11  1  0.35111500  0.30489000  0.15810600  1
  O  O12  1  0.83079000  0.71147200  0.87422100  1
  O  O13  1  0.95656900  0.28852800  0.12577900  1
  O  O14  1  0.33079000  0.28852800  0.87422100  1
  O  O15  1  0.45656900  0.71147200  0.12577900  1
  O  O16  1  0.82371300  0.55341100  0.66820900  1
  O  O17  1  0.15550400  0.44658900  0.33179100  1
  O  O18  1  0.32371300  0.44658900  0.66820900  1
  O  O19  1  0.65550400  0.55341100  0.33179100  1
  O  O20  1  0.60218700  0.80067300  0.66518700  1
  O  O21  1  0.93700100  0.19932700  0.33481300  1
  O  O22  1  0.10218700  0.19932700  0.66518700  1
  O  O23  1  0.43700100  0.80067300  0.33481300  1
  O  O24  1  0.63788400  0.18801900  0.61622500  1
  O  O25  1  0.02165900  0.81198100  0.38377500  1
  O  O26  1  0.13788400  0.81198100  0.61622500  1
  O  O27  1  0.52165900  0.18801900  0.38377500  1
  O  O28  1  0.30741500  0.10202100  0.50000000  1
  O  O29  1  0.80741500  0.89797900  0.50000000  1
loop_
_geom_bond_atom_site_label_1
_geom_bond_atom_site_label_2
_geom_bond_distance
_geom_bond_site_symmetry_2
K0 O3 2.789743 1_555
K0 O2 2.789750 1_544
K0 O0 2.863310 1_554
K0 O1 2.863316 1_645
K0 O12 3.096648 1_544
K0 O13 3.096648 1_555
K0 O8 3.168767 1_554
K0 O9 3.168767 1_545
K1 O1 2.789743 1_545
K1 O0 2.789750 1_454
K1 O2 2.863310 1_544
K1 O3 2.863316 1_555
K1 O14 3.096648 1_554
K1 O15 3.096648 1_545
K1 O10 3.168767 1_544
K1 O11 3.168767 1_555
K2 O17 2.894316 1_555
K2 O18 2.894316 1_555
K2 O19 2.940677 1_555
K2 O16 2.940677 1_555
K2 O20 3.120805 1_555
K2 O23 3.120806 1_555
K2 O24 3.144680 1_555
K2 O27 3.144680 1_555
K3 O19 2.894317 1_555
K3 O16 2.894317 1_555
K3 O18 2.940676 1_655
K3 O17 2.940676 1_655
K3 O22 3.120798 1_655
K3 O21 3.120799 1_555
K3 O25 3.144687 1_655
K3 O26 3.144687 1_655
Bi0 O12 2.380074 1_554
Bi0 O13 2.380074 1_555
Bi0 O5 2.417503 1_655
Bi0 O4 2.417503 1_654
Bi0 O9 2.514067 1_555
Bi0 O8 2.514067 1_554
Bi0 O6 2.628961 1_554
Bi0 O7 2.628961 1_555
Bi1 O14 2.380076 1_554
Bi1 O15 2.380076 1_555
Bi1 O7 2.417510 1_555
Bi1 O6 2.417510 1_554
Bi1 O10 2.514065 1_554
Bi1 O11 2.514065 1_555
Bi1 O5 2.628954 1_555
Bi1 O4 2.628954 1_554
I0 O0 1.815367 1_555
I0 O8 1.856299 1_555
I0 O4 1.892053 1_655
I0 O24 2.482441 1_555
I1 O1 1.815368 1_555
I1 O9 1.856299 1_455
I1 O5 1.892053 1_555
I1 O25 2.482441 1_555
I2 O2 1.815367 1_555
I2 O10 1.856299 1_555
I2 O6 1.892053 1_555
I2 O26 2.482441 1_555
I3 O3 1.815368 1_555
I3 O11 1.856299 1_555
I3 O7 1.892053 1_555
I3 O27 2.482441 1_555
I4 O16 1.827804 1_555
I4 O20 1.835891 1_555
I4 O12 1.842715 1_555
I5 O17 1.827805 1_555
I5 O21 1.835876 1_455
I5 O13 1.842712 1_455
I6 O18 1.827804 1_555
I6 O22 1.835891 1_555
I6 O14 1.842715 1_555
I7 O19 1.827805 1_555
I7 O23 1.835876 1_555
I7 O15 1.842712 1_555
I8 O27 1.835004 1_555
I8 O24 1.835004 1_555
I8 O28 1.851144 1_555
I9 O26 1.835004 1_555
I9 O25 1.835004 1_555
I9 O29 1.851144 1_455
