# generated using pymatgen
data_AlVCo
_symmetry_space_group_name_H-M   'P 1'
_cell_length_a   4.65375910
_cell_length_b   4.65375910
_cell_length_c   8.02267500
_cell_angle_alpha   90.00000000
_cell_angle_beta   90.00000000
_cell_angle_gamma   116.76903999
_symmetry_Int_Tables_number   1
_chemical_formula_structural   AlVCo
_chemical_formula_sum   'Al4 V4 Co4'
_cell_volume   155.12987452
_cell_formula_units_Z   4
loop_
 _symmetry_equiv_pos_site_id
 _symmetry_equiv_pos_as_xyz
  1  'x, y, z'
loop_
 _atom_site_type_symbol
 _atom_site_label
 _atom_site_symmetry_multiplicity
 _atom_site_fract_x
 _atom_site_fract_y
 _atom_site_fract_z
 _atom_site_occupancy
  Al  Al0  1  0.67205800  0.32794200  0.32269600  1
  Al  Al1  1  0.33776900  0.66223100  0.20659000  1
  Al  Al2  1  0.33776900  0.66223100  0.79341000  1
  Al  Al3  1  0.67205800  0.32794200  0.67730400  1
  V  V0  1  0.16016600  0.83983400  0.50000000  1
  V  V1  1  0.34236600  0.17539800  0.00000000  1
  V  V2  1  0.82460200  0.65763400  0.00000000  1
  V  V3  1  0.83059600  0.16940400  0.00000000  1
  Co  Co0  1  0.00724300  0.99275700  0.25446200  1
  Co  Co1  1  0.00724300  0.99275700  0.74553800  1
  Co  Co2  1  0.64590800  0.84063500  0.50000000  1
  Co  Co3  1  0.15936500  0.35409200  0.50000000  1
loop_
_geom_bond_atom_site_label_1
_geom_bond_atom_site_label_2
_geom_bond_distance
_geom_bond_site_symmetry_2
Al0 Co2 2.632971 1_545
Al0 Co3 2.632971 1_655
Al0 Co0 2.712537 1_645
Al0 Al1 2.808587 1_555
Al0 Co0 2.820946 1_655
Al0 Co0 2.820946 1_545
Al0 V0 2.825559 1_545
Al0 V0 2.825559 1_655
Al0 Co3 2.827099 1_555
Al0 Co2 2.827099 1_555
Al0 Al3 2.844905 1_555
Al0 V3 2.877735 1_555
Al0 Al1 2.923069 1_545
Al0 Al1 2.923069 1_655
Al0 V2 2.929034 1_555
Al0 V1 2.929034 1_555
Al1 Co0 2.647799 1_555
Al1 Co2 2.685930 1_555
Al1 Co3 2.685930 1_555
Al1 V0 2.742743 1_555
Al1 Co0 2.811302 1_655
Al1 Co0 2.811302 1_545
Al1 V1 2.814972 1_555
Al1 V2 2.814972 1_555
Al1 V2 2.899088 1_455
Al1 V1 2.899088 1_565
Al1 V3 2.949873 1_455
Al1 V3 2.949873 1_565
Al2 Co1 2.647799 1_555
Al2 Co2 2.685930 1_555
Al2 Co3 2.685930 1_555
Al2 V0 2.742743 1_555
Al2 Al3 2.808587 1_555
Al2 Co1 2.811302 1_655
Al2 Co1 2.811302 1_545
Al2 V1 2.814972 1_556
Al2 V2 2.814972 1_556
Al2 V2 2.899088 1_456
Al2 V1 2.899088 1_566
Al2 Al3 2.923069 1_565
Al2 Al3 2.923069 1_455
Al2 V3 2.949873 1_566
Al2 V3 2.949873 1_456
Al3 Co2 2.632971 1_545
Al3 Co3 2.632971 1_655
Al3 Co1 2.712537 1_645
Al3 Co1 2.820946 1_655
Al3 Co1 2.820946 1_545
Al3 V0 2.825559 1_545
Al3 V0 2.825559 1_655
Al3 Co3 2.827099 1_555
Al3 Co2 2.827099 1_555
Al3 V3 2.877735 1_556
Al3 V1 2.929034 1_556
Al3 V2 2.929034 1_556
V1 V3 2.284804 1_555
V1 V2 2.352902 1_555
V1 V3 2.369222 1_455
V1 V2 2.526248 1_445
V2 V3 2.284804 1_555
V2 V3 2.369222 1_565
Co0 V0 2.312911 1_555
Co0 V3 2.475469 1_465
Co0 V2 2.475528 1_455
Co0 V1 2.475528 1_565
Co0 Co3 2.477275 1_565
Co0 Co2 2.477275 1_455
Co1 V0 2.312911 1_555
Co1 V3 2.475469 1_466
Co1 V2 2.475528 1_456
Co1 V1 2.475528 1_566
Co1 Co3 2.477275 1_565
Co1 Co2 2.477275 1_455
Co2 V0 2.258850 1_555
Co2 Co3 2.373916 1_555
Co2 V0 2.394914 1_655
Co2 Co3 2.505234 1_665
Co3 V0 2.258850 1_555
Co3 V0 2.394914 1_545
