# generated using pymatgen
data_Zn3SbN
_symmetry_space_group_name_H-M   'P 1'
_cell_length_a   5.91422936
_cell_length_b   6.06367936
_cell_length_c   6.10398884
_cell_angle_alpha   120.22015951
_cell_angle_beta   90.00000000
_cell_angle_gamma   119.18797603
_symmetry_Int_Tables_number   1
_chemical_formula_structural   Zn3SbN
_chemical_formula_sum   'Zn6 Sb2 N2'
_cell_volume   156.14831360
_cell_formula_units_Z   2
loop_
 _symmetry_equiv_pos_site_id
 _symmetry_equiv_pos_as_xyz
  1  'x, y, z'
loop_
 _atom_site_type_symbol
 _atom_site_label
 _atom_site_symmetry_multiplicity
 _atom_site_fract_x
 _atom_site_fract_y
 _atom_site_fract_z
 _atom_site_occupancy
  Zn  Zn0  1  0.20707074  0.91414148  0.70707074  1
  Zn  Zn1  1  0.29292926  0.08585852  0.29292926  1
  Zn  Zn2  1  0.79292926  0.08585852  0.29292926  1
  Zn  Zn3  1  0.70707074  0.91414148  0.70707074  1
  Zn  Zn4  1  0.75000000  0.50000000  0.18206455  1
  Zn  Zn5  1  0.25000000  0.50000000  0.81793545  1
  Sb  Sb0  1  0.25000000  0.50000000  0.25262908  1
  Sb  Sb1  1  0.75000000  0.50000000  0.74737092  1
  N  N0  1  0.50000000  -0.00000000  -0.00000000  1
  N  N1  1  -0.00000000  -0.00000000  0.50000000  1
loop_
_geom_bond_atom_site_label_1
_geom_bond_atom_site_label_2
_geom_bond_distance
_geom_bond_site_symmetry_2
Sb0 Zn5 2.653365 1_554
Sb0 Zn0 2.770364 1_555
Sb0 Zn3 2.770365 1_555
Sb0 Zn1 2.770365 1_555
Sb0 Zn2 2.770365 1_455
Sb0 Zn4 2.988319 1_555
Sb0 Zn4 2.988319 1_455
Sb1 Zn4 2.653365 1_556
Sb1 Zn2 2.770364 1_555
Sb1 Zn1 2.770365 1_555
Sb1 Zn3 2.770365 1_555
Sb1 Zn0 2.770365 1_655
Sb1 Zn5 2.988319 1_555
Sb1 Zn5 2.988319 1_655
N0 Zn1 2.157015 1_555
N0 Zn3 2.157015 1_544
N0 Zn0 2.157016 1_544
N0 Zn2 2.157016 1_555
N0 Zn5 2.202092 1_544
N0 Zn4 2.202092 1_555
N1 Zn2 2.157016 1_455
N1 Zn0 2.157016 1_545
N1 Zn3 2.157016 1_445
N1 Zn1 2.157016 1_555
N1 Zn5 2.202092 1_555
N1 Zn4 2.202092 1_445
