# generated using pymatgen
data_BaSrLa4O8
_symmetry_space_group_name_H-M   'P 1'
_cell_length_a   3.67771900
_cell_length_b   10.61986000
_cell_length_c   12.60890200
_cell_angle_alpha   90.00000000
_cell_angle_beta   90.00000000
_cell_angle_gamma   90.00000000
_symmetry_Int_Tables_number   1
_chemical_formula_structural   BaSrLa4O8
_chemical_formula_sum   'Ba2 Sr2 La8 O16'
_cell_volume   492.46413151
_cell_formula_units_Z   2
loop_
 _symmetry_equiv_pos_site_id
 _symmetry_equiv_pos_as_xyz
  1  'x, y, z'
loop_
 _atom_site_type_symbol
 _atom_site_label
 _atom_site_symmetry_multiplicity
 _atom_site_fract_x
 _atom_site_fract_y
 _atom_site_fract_z
 _atom_site_occupancy
  Ba  Ba0  1  0.50000000  0.75184200  0.60416000  1
  Ba  Ba1  1  0.50000000  0.25184200  0.39584000  1
  Sr  Sr0  1  0.00000000  0.24835800  0.89740300  1
  Sr  Sr1  1  0.00000000  0.74835800  0.10259700  1
  La  La0  1  0.50000000  0.08668700  0.64091400  1
  La  La1  1  0.50000000  0.58668700  0.35908600  1
  La  La2  1  0.00000000  0.91633700  0.86414900  1
  La  La3  1  0.00000000  0.41633700  0.13585100  1
  La  La4  1  0.50000000  0.07193100  0.13216500  1
  La  La5  1  0.50000000  0.57193100  0.86783500  1
  La  La6  1  0.00000000  0.92558100  0.36270200  1
  La  La7  1  0.00000000  0.42558100  0.63729800  1
  O  O0  1  0.50000000  0.98700000  0.46714700  1
  O  O1  1  0.50000000  0.48700000  0.53285300  1
  O  O2  1  0.00000000  0.01160900  0.03135600  1
  O  O3  1  0.00000000  0.51160900  0.96864400  1
  O  O4  1  0.50000000  0.28418400  0.06030900  1
  O  O5  1  0.50000000  0.78418400  0.93969100  1
  O  O6  1  0.00000000  0.71544600  0.43095800  1
  O  O7  1  0.00000000  0.21544600  0.56904200  1
  O  O8  1  0.50000000  0.07323900  0.83098400  1
  O  O9  1  0.50000000  0.57323900  0.16901600  1
  O  O10  1  0.00000000  0.93436000  0.67535200  1
  O  O11  1  0.00000000  0.43436000  0.32464800  1
  O  O12  1  0.50000000  0.36588800  0.77066400  1
  O  O13  1  0.50000000  0.86588800  0.22933600  1
  O  O14  1  0.00000000  0.62753500  0.73612300  1
  O  O15  1  0.00000000  0.12753500  0.26387700  1
loop_
_geom_bond_atom_site_label_1
_geom_bond_atom_site_label_2
_geom_bond_distance
_geom_bond_site_symmetry_2
Ba0 O14 2.809399 1_555
Ba0 O14 2.809399 1_655
Ba0 O10 2.818555 1_555
Ba0 O10 2.818555 1_655
Ba0 O6 2.881001 1_655
Ba0 O6 2.881001 1_555
Ba0 O1 2.952799 1_555
Ba0 O0 3.036656 1_555
Ba1 O15 2.809399 1_655
Ba1 O15 2.809399 1_555
Ba1 O11 2.818555 1_655
Ba1 O11 2.818555 1_555
Ba1 O7 2.881001 1_655
Ba1 O7 2.881001 1_555
Ba1 O0 2.952799 1_545
Ba1 O1 3.036656 1_555
La0 O8 2.400826 1_555
La0 O0 2.433371 1_545
La0 O7 2.464232 1_655
La0 O7 2.464232 1_555
La0 O10 2.487344 1_545
La0 O10 2.487344 1_645
La1 O9 2.400826 1_555
La1 O1 2.433371 1_555
La1 O6 2.464232 1_655
La1 O6 2.464232 1_555
La1 O11 2.487344 1_555
La1 O11 2.487344 1_655
La2 O2 2.338505 1_566
La2 O10 2.388205 1_555
La2 O5 2.501665 1_555
La2 O5 2.501665 1_455
La2 O8 2.516496 1_565
La2 O8 2.516496 1_465
La3 O3 2.338505 1_554
La3 O11 2.388205 1_555
La3 O4 2.501665 1_555
La3 O4 2.501665 1_455
La3 O9 2.516496 1_555
La3 O9 2.516496 1_455
La4 O2 2.325394 1_555
La4 O2 2.325394 1_655
La4 O4 2.429369 1_555
La4 O13 2.507819 1_545
La4 O15 2.547189 1_655
La4 O15 2.547189 1_555
La5 O3 2.325394 1_555
La5 O3 2.325394 1_655
La5 O5 2.429369 1_555
La5 O12 2.507819 1_555
La5 O14 2.547189 1_655
La5 O14 2.547189 1_555
La6 O0 2.353969 1_455
La6 O0 2.353969 1_555
La6 O6 2.391808 1_555
La6 O15 2.480431 1_565
La6 O13 2.571196 1_555
La6 O13 2.571196 1_455
La7 O1 2.353969 1_455
La7 O1 2.353969 1_555
La7 O7 2.391808 1_555
La7 O14 2.480431 1_555
La7 O12 2.571196 1_555
La7 O12 2.571196 1_455
O2 Sr1 2.936455 1_545
O2 Sr0 3.028883 1_554
O3 Sr0 2.936455 1_555
O3 Sr1 3.028883 1_556
O4 Sr0 2.783046 1_654
O4 Sr0 2.783046 1_554
O5 Sr1 2.783046 1_556
O5 Sr1 2.783046 1_656
O8 Sr0 2.746159 1_555
O8 Sr0 2.746159 1_655
O9 Sr1 2.746159 1_555
O9 Sr1 2.746159 1_655
O12 Sr0 2.737338 1_555
O12 Sr0 2.737338 1_655
O13 Sr1 2.737338 1_555
O13 Sr1 2.737338 1_655
