# generated using pymatgen
data_Al21Pt8
_symmetry_space_group_name_H-M   'P 1'
_cell_length_a   10.59961065
_cell_length_b   10.59974256
_cell_length_c   10.59967411
_cell_angle_alpha   104.70827289
_cell_angle_beta   104.70811190
_cell_angle_gamma   119.48561935
_symmetry_Int_Tables_number   1
_chemical_formula_structural   Al21Pt8
_chemical_formula_sum   'Al42 Pt16'
_cell_volume   895.43926899
_cell_formula_units_Z   2
loop_
 _symmetry_equiv_pos_site_id
 _symmetry_equiv_pos_as_xyz
  1  'x, y, z'
loop_
 _atom_site_type_symbol
 _atom_site_label
 _atom_site_symmetry_multiplicity
 _atom_site_fract_x
 _atom_site_fract_y
 _atom_site_fract_z
 _atom_site_occupancy
  Al  Al0  1  0.12499515  0.37500511  0.74999504  1
  Al  Al1  1  0.87500485  0.62499489  0.25000496  1
  Al  Al2  1  0.61572758  0.72229429  0.78651713  1
  Al  Al3  1  0.22229953  0.93576938  0.10656906  1
  Al  Al4  1  0.32918490  0.11572302  0.39342597  1
  Al  Al5  1  0.43575485  0.82918862  0.71345941  1
  Al  Al6  1  0.38427242  0.27770571  0.21348287  1
  Al  Al7  1  0.77770047  0.06423062  0.89343094  1
  Al  Al8  1  0.67081510  0.88427698  0.60657403  1
  Al  Al9  1  0.56424515  0.17081138  0.28654059  1
  Al  Al10  1  0.66102141  0.07446484  0.09013008  1
  Al  Al11  1  0.57445939  0.98433607  0.41343836  1
  Al  Al12  1  0.07090650  0.16102357  0.08657663  1
  Al  Al13  1  0.48431955  0.57090073  0.40988076  1
  Al  Al14  1  0.33897859  0.92553516  0.90986992  1
  Al  Al15  1  0.42554061  0.01566393  0.58656164  1
  Al  Al16  1  0.92909350  0.83897643  0.91342337  1
  Al  Al17  1  0.51568045  0.42909927  0.59011924  1
  Al  Al18  1  0.94018454  0.18011667  0.32111695  1
  Al  Al19  1  0.68010994  0.85899175  0.23993847  1
  Al  Al20  1  0.11906920  0.44018704  0.26007723  1
  Al  Al21  1  0.35899991  0.61906762  0.17889352  1
  Al  Al22  1  0.05981546  0.81988333  0.67888305  1
  Al  Al23  1  0.31989006  0.14100825  0.76006153  1
  Al  Al24  1  0.88093080  0.55981296  0.73992277  1
  Al  Al25  1  0.64100009  0.38093238  0.82110648  1
  Al  Al26  1  0.15515677  0.17766648  0.54120079  1
  Al  Al27  1  0.67766786  0.63646795  0.02250846  1
  Al  Al28  1  0.11396704  0.65517201  0.47748554  1
  Al  Al29  1  0.13648169  0.61397156  0.95879439  1
  Al  Al30  1  0.84484323  0.82233352  0.45879921  1
  Al  Al31  1  0.32233214  0.36353205  0.97749154  1
  Al  Al32  1  0.88603296  0.34482799  0.52251446  1
  Al  Al33  1  0.86351831  0.38602844  0.04120561  1
  Al  Al34  1  0.28596611  0.51216397  0.58959321  1
  Al  Al35  1  0.01215937  0.92257450  0.22618993  1
  Al  Al36  1  0.19638867  0.78597649  0.27380717  1
  Al  Al37  1  0.42259203  0.69640520  0.91042229  1
  Al  Al38  1  0.71403389  0.48783603  0.41040679  1
  Al  Al39  1  0.98784063  0.07742550  0.77381007  1
  Al  Al40  1  0.80361133  0.21402351  0.72619283  1
  Al  Al41  1  0.57740797  0.30359480  0.08957771  1
  Pt  Pt0  1  0.85130637  0.37730939  0.28804842  1
  Pt  Pt1  1  0.87732223  0.08926652  0.52602157  1
  Pt  Pt2  1  0.06325808  0.35131243  0.97399873  1
  Pt  Pt3  1  0.58926286  0.56324036  0.21194256  1
  Pt  Pt4  1  0.14869363  0.62269061  0.71195158  1
  Pt  Pt5  1  0.12267777  0.91073348  0.47397843  1
  Pt  Pt6  1  0.93674192  0.64868757  0.02600127  1
  Pt  Pt7  1  0.41073714  0.43675964  0.78805744  1
  Pt  Pt8  1  0.20291163  0.06929257  0.93711578  1
  Pt  Pt9  1  0.56929777  0.13218410  0.86638264  1
  Pt  Pt10  1  0.76579702  0.70290414  0.63360365  1
  Pt  Pt11  1  0.63218912  0.26579931  0.56288960  1
  Pt  Pt12  1  0.79708837  0.93070743  0.06288422  1
  Pt  Pt13  1  0.43070223  0.86781590  0.13361736  1
  Pt  Pt14  1  0.23420298  0.29709586  0.36639635  1
  Pt  Pt15  1  0.36781088  0.73420069  0.43711040  1
loop_
_geom_bond_atom_site_label_1
_geom_bond_atom_site_label_2
_geom_bond_distance
_geom_bond_site_symmetry_2
Al0 Pt1 2.656701 1_455
Al0 Pt4 2.656741 1_555
Al0 Pt7 2.656754 1_555
Al0 Pt2 2.656860 1_555
Al1 Pt5 2.656701 1_655
Al1 Pt0 2.656741 1_555
Al1 Pt3 2.656754 1_555
Al1 Pt6 2.656860 1_555
Al2 Pt10 2.580982 1_555
Al2 Pt12 2.613592 1_556
Al2 Pt7 2.729664 1_555
Al3 Pt8 2.580939 1_564
Al3 Pt13 2.613468 1_555
Al3 Pt6 2.729746 1_455
Al4 Pt11 2.581151 1_555
Al4 Pt14 2.613480 1_555
Al4 Pt5 2.729588 1_545
Al5 Pt9 2.581093 1_565
Al5 Pt15 2.613432 1_555
Al5 Pt4 2.729618 1_555
Al6 Pt14 2.580982 1_555
Al6 Pt8 2.613592 1_554
Al6 Pt3 2.729664 1_555
Al7 Pt12 2.580939 1_546
Al7 Pt9 2.613468 1_555
Al7 Pt2 2.729746 1_655
Al8 Pt15 2.581151 1_555
Al8 Pt10 2.613480 1_555
Al8 Pt1 2.729588 1_565
Al9 Pt13 2.581093 1_545
Al9 Pt11 2.613432 1_555
Al9 Pt0 2.729618 1_555
Al10 Pt12 2.576223 1_545
Al10 Pt13 2.605836 1_545
Al10 Pt0 2.613778 1_555
Al10 Pt9 2.663789 1_554
Al11 Pt13 2.576185 1_555
Al11 Pt15 2.605849 1_555
Al11 Pt1 2.613916 1_565
Al11 Pt11 2.663743 1_565
Al12 Pt14 2.576163 1_555
Al12 Pt12 2.605801 1_445
Al12 Pt2 2.613982 1_554
Al12 Pt8 2.663768 1_554
Al13 Pt15 2.576070 1_555
Al13 Pt14 2.605758 1_555
Al13 Pt3 2.614071 1_555
Al13 Pt10 2.663783 1_555
Al14 Pt8 2.576223 1_565
Al14 Pt9 2.605836 1_565
Al14 Pt4 2.613778 1_555
Al14 Pt13 2.663789 1_556
Al15 Pt9 2.576185 1_555
Al15 Pt11 2.605849 1_555
Al15 Pt5 2.613916 1_545
Al15 Pt15 2.663743 1_545
Al16 Pt10 2.576163 1_555
Al16 Pt8 2.605801 1_665
Al16 Pt6 2.613982 1_556
Al16 Pt12 2.663768 1_556
Al17 Pt11 2.576070 1_555
Al17 Pt10 2.605758 1_555
Al17 Pt7 2.614071 1_555
Al17 Pt14 2.663783 1_555
Al18 Pt14 2.571872 1_655
Al18 Pt12 2.655513 1_545
Al18 Pt1 2.693298 1_555
Al18 Pt0 2.742634 1_555
Al19 Pt12 2.572068 1_555
Al19 Pt13 2.655494 1_555
Al19 Pt3 2.693269 1_555
Al19 Pt1 2.742764 1_565
Al20 Pt15 2.571870 1_555
Al20 Pt14 2.655468 1_555
Al20 Pt0 2.693121 1_455
Al20 Pt2 2.742702 1_554
Al21 Pt13 2.571974 1_555
Al21 Pt15 2.655403 1_555
Al21 Pt2 2.693181 1_554
Al21 Pt3 2.742768 1_555
Al22 Pt10 2.571872 1_455
Al22 Pt8 2.655513 1_565
Al22 Pt5 2.693298 1_555
Al22 Pt4 2.742634 1_555
Al23 Pt8 2.572068 1_555
Al23 Pt9 2.655494 1_555
Al23 Pt7 2.693269 1_555
Al23 Pt5 2.742764 1_545
Al24 Pt11 2.571870 1_555
Al24 Pt10 2.655468 1_555
Al24 Pt4 2.693121 1_655
Al24 Pt6 2.742702 1_556
Al25 Pt9 2.571974 1_555
Al25 Pt11 2.655403 1_555
Al25 Pt6 2.693181 1_556
Al25 Pt7 2.742768 1_555
Al26 Pt5 2.554341 1_545
Al26 Pt1 2.557919 1_455
Al26 Pt14 2.583206 1_555
Al26 Pt7 2.674958 1_555
Al27 Pt7 2.554294 1_554
Al27 Pt3 2.557975 1_555
Al27 Pt12 2.583315 1_555
Al27 Pt6 2.674869 1_555
Al28 Pt4 2.554466 1_555
Al28 Pt0 2.558093 1_455
Al28 Pt15 2.583105 1_555
Al28 Pt5 2.674815 1_555
Al29 Pt6 2.554395 1_456
Al29 Pt2 2.558098 1_555
Al29 Pt13 2.583144 1_556
Al29 Pt4 2.674718 1_555
Al30 Pt1 2.554341 1_565
Al30 Pt5 2.557919 1_655
Al30 Pt10 2.583206 1_555
Al30 Pt3 2.674958 1_555
Al31 Pt3 2.554294 1_556
Al31 Pt7 2.557975 1_555
Al31 Pt8 2.583315 1_555
Al31 Pt2 2.674869 1_555
Al32 Pt0 2.554466 1_555
Al32 Pt4 2.558093 1_655
Al32 Pt11 2.583105 1_555
Al32 Pt1 2.674815 1_555
Al33 Pt2 2.554395 1_654
Al33 Pt6 2.558098 1_555
Al33 Pt9 2.583144 1_554
Al33 Pt0 2.674718 1_555
Al34 Pt14 2.542813 1_555
Al34 Pt4 2.652646 1_555
Al34 Pt7 2.700906 1_555
Al34 Pt15 3.088323 1_555
Al35 Pt12 2.542852 1_455
Al35 Pt5 2.652585 1_555
Al35 Pt6 2.701064 1_455
Al35 Pt14 3.088345 1_565
Al36 Pt15 2.542811 1_555
Al36 Pt6 2.652740 1_455
Al36 Pt5 2.700942 1_555
Al36 Pt13 3.088163 1_555
Al37 Pt13 2.542790 1_556
Al37 Pt7 2.652677 1_555
Al37 Pt4 2.701057 1_555
Al37 Pt12 3.088106 1_556
Al38 Pt10 2.542813 1_555
Al38 Pt0 2.652646 1_555
Al38 Pt3 2.700906 1_555
Al38 Pt11 3.088323 1_555
Al39 Pt8 2.542852 1_655
Al39 Pt1 2.652585 1_555
Al39 Pt2 2.701064 1_655
Al39 Pt10 3.088345 1_545
Al40 Pt11 2.542811 1_555
Al40 Pt2 2.652740 1_655
Al40 Pt1 2.700942 1_555
Al40 Pt9 3.088163 1_555
Al41 Pt9 2.542790 1_554
Al41 Pt3 2.652677 1_555
Al41 Pt0 2.701057 1_555
Al41 Pt8 3.088106 1_554
