# generated using pymatgen
data_Ho2Ga3Fe
_symmetry_space_group_name_H-M   'P 1'
_cell_length_a   5.59745812
_cell_length_b   5.59745812
_cell_length_c   7.11132970
_cell_angle_alpha   51.30417680
_cell_angle_beta   51.30417680
_cell_angle_gamma   45.29188644
_symmetry_Int_Tables_number   1
_chemical_formula_structural   Ho2Ga3Fe
_chemical_formula_sum   'Ho2 Ga3 Fe1'
_cell_volume   116.48288541
_cell_formula_units_Z   1
loop_
 _symmetry_equiv_pos_site_id
 _symmetry_equiv_pos_as_xyz
  1  'x, y, z'
loop_
 _atom_site_type_symbol
 _atom_site_label
 _atom_site_symmetry_multiplicity
 _atom_site_fract_x
 _atom_site_fract_y
 _atom_site_fract_z
 _atom_site_occupancy
  Ho  Ho0  1  0.54128700  0.54128700  0.70778900  1
  Ho  Ho1  1  0.45511900  0.45511900  0.29204900  1
  Ga  Ga0  1  0.84984100  0.84984100  0.68277000  1
  Ga  Ga1  1  0.82567600  0.82567600  0.12884000  1
  Ga  Ga2  1  0.16422700  0.16422700  0.90079600  1
  Fe  Fe0  1  0.16385000  0.16385000  0.28775500  1
loop_
_geom_bond_atom_site_label_1
_geom_bond_atom_site_label_2
_geom_bond_distance
_geom_bond_site_symmetry_2
Ga0 Ga2 2.588086 1_565
Ga0 Ga2 2.588086 1_655
Ga0 Ga1 3.008633 1_556
Ga0 Ho0 3.010953 1_565
Ga0 Ho0 3.010953 1_655
Ga0 Ho0 3.070187 1_555
Ga0 Ho1 3.074699 1_565
Ga0 Ho1 3.074699 1_655
Ga1 Ga2 2.679485 1_664
Ga1 Ho0 3.032225 1_555
Ga1 Ho0 3.088041 1_654
Ga1 Ho0 3.088041 1_564
Ga1 Ho1 3.143819 1_655
Ga1 Ho1 3.143819 1_565
Ga1 Ho1 3.159822 1_555
Ga2 Ho1 2.984947 1_546
Ga2 Ho1 2.984947 1_456
Ga2 Ho0 3.133075 1_555
Ga2 Ho1 3.185260 1_555
Ga2 Ho0 3.241019 1_455
Ga2 Ho0 3.241019 1_545
Fe0 Ga0 2.463566 1_445
Fe0 Ga1 2.481455 1_455
Fe0 Ga1 2.481455 1_545
Fe0 Ga2 2.749156 1_554
Fe0 Ho1 3.030104 1_555
Fe0 Ho1 3.034382 1_545
Fe0 Ho1 3.034382 1_455
Fe0 Ho0 3.169561 1_545
Fe0 Ho0 3.169561 1_455
Fe0 Ho0 3.229086 1_554
