# generated using pymatgen
data_CeIrPt
_symmetry_space_group_name_H-M   'P 1'
_cell_length_a   5.43500144
_cell_length_b   5.43500144
_cell_length_c   5.43500144
_cell_angle_alpha   120.53703765
_cell_angle_beta   119.64953182
_cell_angle_gamma   89.84022516
_symmetry_Int_Tables_number   1
_chemical_formula_structural   CeIrPt
_chemical_formula_sum   'Ce2 Ir2 Pt2'
_cell_volume   113.35396038
_cell_formula_units_Z   2
loop_
 _symmetry_equiv_pos_site_id
 _symmetry_equiv_pos_as_xyz
  1  'x, y, z'
loop_
 _atom_site_type_symbol
 _atom_site_label
 _atom_site_symmetry_multiplicity
 _atom_site_fract_x
 _atom_site_fract_y
 _atom_site_fract_z
 _atom_site_occupancy
  Ce  Ce0  1  0.12158756  0.87158756  0.25000000  1
  Ce  Ce1  1  0.87841244  0.12841244  0.75000000  1
  Ir  Ir0  1  -0.00000000  0.50000000  0.50000000  1
  Ir  Ir1  1  0.50000000  0.50000000  0.00000000  1
  Pt  Pt0  1  0.50000000  -0.00000000  0.00000000  1
  Pt  Pt1  1  0.50000000  0.50000000  0.50000000  1
loop_
_geom_bond_atom_site_label_1
_geom_bond_atom_site_label_2
_geom_bond_distance
_geom_bond_site_symmetry_2
Ce0 Ir0 3.169533 1_555
Ce0 Ir1 3.169533 1_455
Ce0 Ir0 3.179300 1_554
Ce0 Ir0 3.179300 1_565
Ce0 Ir1 3.179300 1_566
Ce0 Ir1 3.179300 1_555
Ce0 Pt1 3.186742 1_454
Ce0 Pt0 3.186742 1_465
Ce0 Pt0 3.186742 1_566
Ce0 Pt1 3.186742 1_555
Ce0 Pt0 3.209315 1_565
Ce0 Pt1 3.209315 1_565
Ce1 Ir0 3.169533 1_655
Ce1 Ir1 3.169533 1_656
Ce1 Ir1 3.179300 1_545
Ce1 Ir1 3.179300 1_556
Ce1 Ir0 3.179300 1_645
Ce1 Ir0 3.179300 1_656
Ce1 Pt0 3.186742 1_656
Ce1 Pt1 3.186742 1_656
Ce1 Pt0 3.186742 1_555
Ce1 Pt1 3.186742 1_555
Ce1 Pt1 3.209315 1_545
Ce1 Pt0 3.209315 1_556
Ir0 Pt0 2.717501 1_566
Ir0 Pt1 2.717501 1_455
Ir0 Pt1 2.717501 1_555
Ir0 Pt0 2.717501 1_455
Ir0 Ir1 2.731883 1_556
Ir0 Ir1 2.731883 1_455
Ir1 Pt0 2.717501 1_555
Ir1 Pt0 2.717501 1_565
Ir1 Pt1 2.717501 1_554
Ir1 Pt1 2.717501 1_555
Pt0 Pt1 2.695412 1_544
Pt0 Pt1 2.695412 1_555
