# generated using pymatgen
data_Ca3Bi2O7
_symmetry_space_group_name_H-M   'P 1'
_cell_length_a   10.50122407
_cell_length_b   10.50122407
_cell_length_c   6.06607389
_cell_angle_alpha   90.00000000
_cell_angle_beta   90.00000000
_cell_angle_gamma   147.81961467
_symmetry_Int_Tables_number   1
_chemical_formula_structural   Ca3Bi2O7
_chemical_formula_sum   'Ca6 Bi4 O14'
_cell_volume   356.26876468
_cell_formula_units_Z   2
loop_
 _symmetry_equiv_pos_site_id
 _symmetry_equiv_pos_as_xyz
  1  'x, y, z'
loop_
 _atom_site_type_symbol
 _atom_site_label
 _atom_site_symmetry_multiplicity
 _atom_site_fract_x
 _atom_site_fract_y
 _atom_site_fract_z
 _atom_site_occupancy
  Ca  Ca0  1  0.22958495  0.22958495  0.30593455  1
  Ca  Ca1  1  0.77041505  0.77041505  0.80593455  1
  Ca  Ca2  1  0.04467959  0.43597081  0.18190128  1
  Ca  Ca3  1  0.95532041  0.56402919  0.68190128  1
  Ca  Ca4  1  0.43597081  0.04467959  0.18190128  1
  Ca  Ca5  1  0.56402919  0.95532041  0.68190128  1
  Bi  Bi0  1  0.84926051  0.64169809  0.24938229  1
  Bi  Bi1  1  0.15073949  0.35830191  0.74938229  1
  Bi  Bi2  1  0.35830191  0.15073949  0.74938229  1
  Bi  Bi3  1  0.64169809  0.84926051  0.24938229  1
  O  O0  1  0.66474694  0.07423128  0.30612827  1
  O  O1  1  0.33525306  0.92576872  0.80612827  1
  O  O2  1  0.92576872  0.33525306  0.80612827  1
  O  O3  1  0.07423128  0.66474694  0.30612827  1
  O  O4  1  0.42046192  0.69066920  0.95221658  1
  O  O5  1  0.57953808  0.30933080  0.45221658  1
  O  O6  1  0.30933080  0.57953808  0.45221658  1
  O  O7  1  0.69066920  0.42046192  0.95221658  1
  O  O8  1  0.98252479  0.13705540  0.05910990  1
  O  O9  1  0.01747521  0.86294460  0.55910990  1
  O  O10  1  0.61142779  0.61142779  0.17658580  1
  O  O11  1  0.38857221  0.38857221  0.67658580  1
  O  O12  1  0.13705540  0.98252479  0.05910990  1
  O  O13  1  0.86294460  0.01747521  0.55910990  1
loop_
_geom_bond_atom_site_label_1
_geom_bond_atom_site_label_2
_geom_bond_distance
_geom_bond_site_symmetry_2
Ca0 O10 2.357075 1_555
Ca0 O8 2.376907 1_455
Ca0 O12 2.376907 1_545
Ca0 O11 2.431405 1_555
Ca0 O9 2.761687 1_545
Ca0 O13 2.761687 1_455
Ca1 O11 2.357075 1_555
Ca1 O9 2.376907 1_655
Ca1 O13 2.376907 1_565
Ca1 O10 2.431405 1_556
Ca1 O12 2.761687 1_656
Ca1 O8 2.761687 1_566
Ca2 O3 2.274603 1_555
Ca2 O0 2.293689 1_455
Ca2 O6 2.364939 1_555
Ca2 O2 2.374501 1_454
Ca2 O4 2.607858 1_554
Ca2 O8 2.714016 1_455
Ca3 O2 2.274603 1_555
Ca3 O1 2.293689 1_655
Ca3 O7 2.364939 1_555
Ca3 O3 2.374501 1_655
Ca3 O5 2.607858 1_555
Ca3 O9 2.714016 1_655
Ca4 O0 2.274603 1_555
Ca4 O3 2.293689 1_545
Ca4 O5 2.364939 1_555
Ca4 O1 2.374501 1_544
Ca4 O7 2.607858 1_554
Ca4 O12 2.714016 1_545
Ca5 O1 2.274603 1_555
Ca5 O2 2.293689 1_565
Ca5 O4 2.364939 1_555
Ca5 O0 2.374501 1_565
Ca5 O6 2.607858 1_555
Ca5 O13 2.714016 1_565
Bi0 O3 2.188697 1_655
Bi0 O7 2.207040 1_554
Bi0 O12 2.228399 1_655
Bi0 O5 2.232508 1_555
Bi0 O9 2.258568 1_655
Bi0 O10 2.278123 1_555
Bi1 O2 2.188697 1_455
Bi1 O6 2.207040 1_555
Bi1 O13 2.228399 1_455
Bi1 O4 2.232508 1_555
Bi1 O8 2.258568 1_456
Bi1 O11 2.278123 1_555
Bi2 O1 2.188697 1_545
Bi2 O5 2.207040 1_555
Bi2 O9 2.228399 1_545
Bi2 O7 2.232508 1_555
Bi2 O12 2.258568 1_546
Bi2 O11 2.278123 1_555
Bi3 O0 2.188697 1_565
Bi3 O4 2.207040 1_554
Bi3 O8 2.228399 1_565
Bi3 O6 2.232508 1_555
Bi3 O13 2.258568 1_565
Bi3 O10 2.278123 1_555
