# generated using pymatgen
data_BaNaAlF6
_symmetry_space_group_name_H-M   'P 1'
_cell_length_a   5.52503700
_cell_length_b   10.03262600
_cell_length_c   18.96049400
_cell_angle_alpha   90.00000000
_cell_angle_beta   90.00000000
_cell_angle_gamma   90.00000000
_symmetry_Int_Tables_number   1
_chemical_formula_structural   BaNaAlF6
_chemical_formula_sum   'Ba8 Na8 Al8 F48'
_cell_volume   1050.99212482
_cell_formula_units_Z   8
loop_
 _symmetry_equiv_pos_site_id
 _symmetry_equiv_pos_as_xyz
  1  'x, y, z'
loop_
 _atom_site_type_symbol
 _atom_site_label
 _atom_site_symmetry_multiplicity
 _atom_site_fract_x
 _atom_site_fract_y
 _atom_site_fract_z
 _atom_site_occupancy
  Ba  Ba0  1  0.73667100  0.32920300  0.36222400  1
  Ba  Ba1  1  0.26332900  0.82920300  0.63777600  1
  Ba  Ba2  1  0.76332900  0.32920300  0.86222400  1
  Ba  Ba3  1  0.23667100  0.82920300  0.13777600  1
  Ba  Ba4  1  0.24180500  0.69837900  0.38878600  1
  Ba  Ba5  1  0.74180500  0.19837900  0.11121400  1
  Ba  Ba6  1  0.25819500  0.69837900  0.88878600  1
  Ba  Ba7  1  0.75819500  0.19837900  0.61121400  1
  Na  Na0  1  0.24063700  0.06458100  0.31384400  1
  Na  Na1  1  0.23610700  0.46269200  0.06679400  1
  Na  Na2  1  0.76389300  0.96269200  0.93320600  1
  Na  Na3  1  0.26389300  0.46269200  0.56679400  1
  Na  Na4  1  0.73610700  0.96269200  0.43320600  1
  Na  Na5  1  0.74063700  0.56458100  0.18615600  1
  Na  Na6  1  0.25936300  0.06458100  0.81384400  1
  Na  Na7  1  0.75936300  0.56458100  0.68615600  1
  Al  Al0  1  0.25138600  0.43641500  0.24293800  1
  Al  Al1  1  0.73081100  0.58984900  0.00779400  1
  Al  Al2  1  0.26918900  0.08984900  0.99220600  1
  Al  Al3  1  0.76918900  0.58984900  0.50779400  1
  Al  Al4  1  0.23081100  0.08984900  0.49220600  1
  Al  Al5  1  0.74861400  0.93641500  0.75706200  1
  Al  Al6  1  0.24861400  0.43641500  0.74293800  1
  Al  Al7  1  0.75138600  0.93641500  0.25706200  1
  F  F0  1  0.01125900  0.99875100  0.03007500  1
  F  F1  1  0.98874100  0.49875100  0.96992500  1
  F  F2  1  0.48874100  0.99875100  0.53007500  1
  F  F3  1  0.51125900  0.49875100  0.46992500  1
  F  F4  1  0.45392100  0.67534800  0.03669400  1
  F  F5  1  0.54607900  0.17534800  0.96330600  1
  F  F6  1  0.04607900  0.67534800  0.53669400  1
  F  F7  1  0.95392100  0.17534800  0.46330600  1
  F  F8  1  0.20613800  0.22846900  0.05193300  1
  F  F9  1  0.79386200  0.72846900  0.94806700  1
  F  F10  1  0.29386200  0.22846900  0.55193300  1
  F  F11  1  0.70613800  0.72846900  0.44806700  1
  F  F12  1  0.46087300  0.00779700  0.05927200  1
  F  F13  1  0.53912700  0.50779700  0.94072800  1
  F  F14  1  0.03912700  0.00779700  0.55927200  1
  F  F15  1  0.96087300  0.50779700  0.44072800  1
  F  F16  1  0.92262600  0.65498300  0.07762300  1
  F  F17  1  0.07737400  0.15498300  0.92237700  1
  F  F18  1  0.04727900  0.51881300  0.80778200  1
  F  F19  1  0.42262600  0.15498300  0.42237700  1
  F  F20  1  0.66038200  0.45010600  0.06786200  1
  F  F21  1  0.33961800  0.95010600  0.93213800  1
  F  F22  1  0.83961800  0.45010600  0.56786200  1
  F  F23  1  0.16038200  0.95010600  0.43213800  1
  F  F24  1  0.69617100  0.79864900  0.19619500  1
  F  F25  1  0.30382900  0.29864900  0.80380500  1
  F  F26  1  0.80382900  0.79864900  0.69619500  1
  F  F27  1  0.19617100  0.29864900  0.30380500  1
  F  F28  1  0.95272100  0.01881300  0.19221800  1
  F  F29  1  0.99714800  0.52722800  0.28235700  1
  F  F30  1  0.54727900  0.01881300  0.69221800  1
  F  F31  1  0.45272100  0.51881300  0.30778200  1
  F  F32  1  0.05302700  0.37064400  0.17519400  1
  F  F33  1  0.94697300  0.87064400  0.82480600  1
  F  F34  1  0.44697300  0.37064400  0.67519400  1
  F  F35  1  0.55302700  0.87064400  0.32480600  1
  F  F36  1  0.31472300  0.57613300  0.18211400  1
  F  F37  1  0.68527700  0.07613300  0.81788600  1
  F  F38  1  0.18527700  0.57613300  0.68211400  1
  F  F39  1  0.81472300  0.07613300  0.31788600  1
  F  F40  1  0.52397800  0.35050900  0.21135300  1
  F  F41  1  0.47602200  0.85050900  0.78864700  1
  F  F42  1  0.97602200  0.35050900  0.71135300  1
  F  F43  1  0.02397800  0.85050900  0.28864700  1
  F  F44  1  0.49714800  0.02722800  0.21764300  1
  F  F45  1  0.50285200  0.52722800  0.78235700  1
  F  F46  1  0.00285200  0.02722800  0.71764300  1
  F  F47  1  0.57737400  0.65498300  0.57762300  1
loop_
_geom_bond_atom_site_label_1
_geom_bond_atom_site_label_2
_geom_bond_distance
_geom_bond_site_symmetry_2
Ba0 F15 2.638261 1_555
Ba0 F31 2.673101 1_555
Ba0 F39 2.709058 1_555
Ba0 F19 2.714133 1_555
Ba0 F7 2.737989 1_555
Ba0 F27 2.786779 1_655
Ba0 F29 2.882935 1_555
Ba0 F3 2.935049 1_555
Ba0 F40 3.099936 1_555
Ba0 F27 3.199804 1_555
Ba1 F14 2.638261 1_565
Ba1 F30 2.673101 1_565
Ba1 F38 2.709058 1_555
Ba1 F47 2.714133 1_555
Ba1 F6 2.737989 1_555
Ba1 F26 2.786779 1_455
Ba1 F46 2.882935 1_565
Ba1 F2 2.935049 1_555
Ba1 F41 3.099936 1_555
Ba1 F26 3.199804 1_555
Ba2 F13 2.638261 1_555
Ba2 F18 2.673101 1_655
Ba2 F37 2.709058 1_555
Ba2 F17 2.714133 1_655
Ba2 F5 2.737989 1_555
Ba2 F25 2.786779 1_555
Ba2 F45 2.882935 1_555
Ba2 F1 2.935049 1_555
Ba2 F42 3.099936 1_555
Ba2 F25 3.199804 1_655
Ba3 F12 2.638261 1_565
Ba3 F28 2.673101 1_465
Ba3 F36 2.709058 1_555
Ba3 F16 2.714133 1_455
Ba3 F4 2.737989 1_555
Ba3 F24 2.786779 1_555
Ba3 F44 2.882935 1_565
Ba3 F0 2.935049 1_555
Ba3 F43 3.099936 1_555
Ba3 F24 3.199804 1_455
Ba4 F31 2.638627 1_555
Ba4 F15 2.652359 1_455
Ba4 F23 2.693712 1_555
Ba4 F43 2.717150 1_555
Ba4 F35 2.723093 1_555
Ba4 F11 2.817103 1_555
Ba4 F3 2.931607 1_555
Ba4 F29 2.974511 1_455
Ba4 F6 3.014550 1_555
Ba4 F11 3.180191 1_455
Ba5 F28 2.638627 1_555
Ba5 F12 2.652359 1_555
Ba5 F20 2.693712 1_555
Ba5 F40 2.717150 1_555
Ba5 F32 2.723093 1_655
Ba5 F8 2.817103 1_655
Ba5 F0 2.931607 1_645
Ba5 F44 2.974511 1_555
Ba5 F5 3.014550 1_554
Ba5 F8 3.180191 1_555
Ba6 F18 2.638627 1_555
Ba6 F13 2.652359 1_555
Ba6 F21 2.693712 1_555
Ba6 F41 2.717150 1_555
Ba6 F33 2.723093 1_455
Ba6 F9 2.817103 1_455
Ba6 F1 2.931607 1_455
Ba6 F45 2.974511 1_555
Ba6 F4 3.014550 1_556
Ba6 F9 3.180191 1_555
Ba7 F30 2.638627 1_555
Ba7 F14 2.652359 1_655
Ba7 F22 2.693712 1_555
Ba7 F42 2.717150 1_555
Ba7 F34 2.723093 1_555
Ba7 F10 2.817103 1_555
Ba7 F2 2.931607 1_545
Ba7 F46 2.974511 1_655
Ba7 F7 3.014550 1_555
Ba7 F10 3.180191 1_655
Al0 F32 1.812825 1_555
Al0 F27 1.826278 1_555
Al0 F29 1.833525 1_455
Al0 F40 1.835682 1_555
Al0 F36 1.848600 1_555
Al0 F31 1.852669 1_555
Al1 F16 1.817448 1_555
Al1 F9 1.826996 1_554
Al1 F4 1.837503 1_555
Al1 F1 1.838936 1_554
Al1 F20 1.847736 1_555
Al1 F13 1.848308 1_554
Al2 F17 1.817448 1_555
Al2 F8 1.826996 1_556
Al2 F5 1.837503 1_555
Al2 F0 1.838936 1_546
Al2 F21 1.847736 1_545
Al2 F12 1.848308 1_556
Al3 F47 1.817448 1_555
Al3 F11 1.826996 1_555
Al3 F6 1.837503 1_655
Al3 F3 1.838936 1_555
Al3 F22 1.847736 1_555
Al3 F15 1.848308 1_555
Al4 F19 1.817448 1_555
Al4 F10 1.826996 1_555
Al4 F7 1.837503 1_455
Al4 F2 1.838936 1_545
Al4 F23 1.847736 1_545
Al4 F14 1.848308 1_555
Al5 F33 1.812825 1_555
Al5 F26 1.826278 1_555
Al5 F46 1.833525 1_665
Al5 F41 1.835682 1_555
Al5 F37 1.848600 1_565
Al5 F30 1.852669 1_565
Al6 F34 1.812825 1_555
Al6 F25 1.826278 1_555
Al6 F45 1.833525 1_555
Al6 F42 1.835682 1_455
Al6 F38 1.848600 1_555
Al6 F18 1.852669 1_555
Al7 F35 1.812825 1_555
Al7 F24 1.826278 1_555
Al7 F44 1.833525 1_565
Al7 F43 1.835682 1_655
Al7 F39 1.848600 1_565
Al7 F28 1.852669 1_565
F0 Na2 2.317794 1_454
F1 Na1 2.317794 1_656
F2 Na4 2.317794 1_555
F3 Na3 2.317794 1_555
F4 Na1 2.515108 1_555
F5 Na2 2.515108 1_545
F6 Na3 2.515108 1_555
F7 Na4 2.515108 1_545
F8 Na1 2.372490 1_555
F9 Na2 2.372490 1_555
F10 Na3 2.372490 1_555
F11 Na4 2.372490 1_555
F16 Na5 2.463396 1_555
F16 Na1 2.600714 1_655
F17 Na6 2.463396 1_555
F17 Na2 2.600714 1_445
F18 Na7 2.838901 1_455
F19 Na0 2.463396 1_555
F19 Na4 2.600714 1_545
F20 Na1 2.347621 1_555
F20 Na5 2.558572 1_555
F21 Na2 2.347621 1_555
F21 Na6 2.558572 1_565
F22 Na3 2.347621 1_655
F22 Na7 2.558572 1_555
F23 Na4 2.347621 1_455
F23 Na0 2.558572 1_565
F24 Na5 2.368793 1_555
F25 Na6 2.368793 1_555
F26 Na7 2.368793 1_555
F27 Na0 2.368793 1_555
F28 Na0 2.838901 1_655
F29 Na5 2.340092 1_555
F30 Na6 2.838901 1_555
F31 Na5 2.838901 1_555
F32 Na1 2.469885 1_555
F32 Na5 2.609195 1_455
F33 Na2 2.469885 1_555
F33 Na6 2.609195 1_665
F34 Na3 2.469885 1_555
F34 Na7 2.609195 1_555
F35 Na4 2.469885 1_555
F35 Na0 2.609195 1_565
F36 Na5 2.357289 1_555
F36 Na1 2.502968 1_555
F37 Na6 2.357289 1_555
F37 Na2 2.502968 1_545
F38 Na7 2.357289 1_455
F38 Na3 2.502968 1_555
F39 Na0 2.357289 1_655
F39 Na4 2.502968 1_545
F40 Na5 2.504756 1_555
F41 Na6 2.504756 1_565
F42 Na7 2.504756 1_555
F43 Na0 2.504756 1_565
F44 Na0 2.340092 1_555
F45 Na7 2.340092 1_555
F46 Na6 2.340092 1_555
F47 Na7 2.463396 1_555
F47 Na3 2.600714 1_555
