# generated using pymatgen
data_Os3C9SO9
_symmetry_space_group_name_H-M   'P 1'
_cell_length_a   9.29068000
_cell_length_b   12.17711138
_cell_length_c   14.83573384
_cell_angle_alpha   89.66590524
_cell_angle_beta   78.14864989
_cell_angle_gamma   82.74892760
_symmetry_Int_Tables_number   1
_chemical_formula_structural   Os3C9SO9
_chemical_formula_sum   'Os12 C36 S4 O36'
_cell_volume   1629.15713026
_cell_formula_units_Z   4
loop_
 _symmetry_equiv_pos_site_id
 _symmetry_equiv_pos_as_xyz
  1  'x, y, z'
loop_
 _atom_site_type_symbol
 _atom_site_label
 _atom_site_symmetry_multiplicity
 _atom_site_fract_x
 _atom_site_fract_y
 _atom_site_fract_z
 _atom_site_occupancy
  Os  Os0  1  0.79997800  0.94321100  0.82978000  1
  Os  Os1  1  0.20002200  0.05678900  0.17022000  1
  Os  Os2  1  0.05635300  0.49932500  0.77156300  1
  Os  Os3  1  0.94364700  0.50067500  0.22843700  1
  Os  Os4  1  0.05176700  0.66894300  0.61661500  1
  Os  Os5  1  0.94823300  0.33105700  0.38338500  1
  Os  Os6  1  0.61381300  0.03383900  0.70446100  1
  Os  Os7  1  0.38618700  0.96616100  0.29553900  1
  Os  Os8  1  0.59812100  0.80311700  0.75751500  1
  Os  Os9  1  0.40187900  0.19688300  0.24248500  1
  Os  Os10  1  0.76104800  0.61266700  0.81674700  1
  Os  Os11  1  0.23895200  0.38733300  0.18325300  1
  C  C0  1  0.89915800  0.88526200  0.92464300  1
  C  C1  1  0.10084200  0.11473800  0.07535700  1
  C  C2  1  0.95484000  0.02133600  0.77248100  1
  C  C3  1  0.04516000  0.97866400  0.22751900  1
  C  C4  1  0.70425700  0.06369100  0.91009800  1
  C  C5  1  0.29574300  0.93630900  0.08990200  1
  C  C6  1  0.11163700  0.54848200  0.88017200  1
  C  C7  1  0.88836300  0.45151800  0.11982800  1
  C  C8  1  0.24782900  0.42702300  0.71412300  1
  C  C9  1  0.75217100  0.57297700  0.28587700  1
  C  C10  1  0.00098300  0.36672000  0.82448900  1
  C  C11  1  0.99901700  0.63328000  0.17551100  1
  C  C12  1  0.96481200  0.70601800  0.51378000  1
  C  C13  1  0.03518800  0.29398200  0.48622000  1
  C  C14  1  0.21264500  0.57448400  0.54446400  1
  C  C15  1  0.78735500  0.42551600  0.45553600  1
  C  C16  1  0.17199700  0.78658700  0.60165500  1
  C  C17  1  0.82800300  0.21341300  0.39834500  1
  C  C18  1  0.78060400  0.97322300  0.60782200  1
  C  C19  1  0.21939600  0.02677700  0.39217800  1
  C  C20  1  0.47460500  0.05888800  0.62448300  1
  C  C21  1  0.52539500  0.94111200  0.37551700  1
  C  C22  1  0.45623800  0.07548400  0.81278500  1
  C  C23  1  0.54376200  0.92451600  0.18721500  1
  C  C24  1  0.68096100  0.17601800  0.69345200  1
  C  C25  1  0.31903900  0.82398200  0.30654800  1
  C  C26  1  0.39106100  0.84629100  0.80008300  1
  C  C27  1  0.60893900  0.15370900  0.19991700  1
  C  C28  1  0.57314300  0.76644100  0.64053800  1
  C  C29  1  0.42685700  0.23355900  0.35946200  1
  C  C30  1  0.69223800  0.47908500  0.86342400  1
  C  C31  1  0.30776200  0.52091500  0.13657600  1
  C  C32  1  0.73901500  0.65742300  0.94144000  1
  C  C33  1  0.26098500  0.34257700  0.05856000  1
  C  C34  1  0.54395400  0.64696400  0.79724800  1
  C  C35  1  0.45604600  0.35303600  0.20275200  1
  S  S0  1  0.86438800  0.77204200  0.73968500  1
  S  S1  1  0.13561200  0.22795800  0.26031500  1
  S  S2  1  0.89519300  0.52584300  0.66779500  1
  S  S3  1  0.10480700  0.47415700  0.33220500  1
  O  O0  1  0.96271000  0.86147400  0.98297300  1
  O  O1  1  0.03729000  0.13852600  0.01702700  1
  O  O2  1  0.05203600  0.06790100  0.73617300  1
  O  O3  1  0.94796400  0.93209900  0.26382700  1
  O  O4  1  0.65368400  0.13578300  0.96256300  1
  O  O5  1  0.34631600  0.86421700  0.03743700  1
  O  O6  1  0.13559800  0.58021500  0.94869600  1
  O  O7  1  0.86440200  0.41978500  0.05130400  1
  O  O8  1  0.36056700  0.37384400  0.68451600  1
  O  O9  1  0.63943300  0.62615600  0.31548400  1
  O  O10  1  0.96906700  0.28097200  0.85085700  1
  O  O11  1  0.03093300  0.71902800  0.14914300  1
  O  O12  1  0.91357300  0.72222000  0.44922400  1
  O  O13  1  0.08642700  0.27778000  0.55077600  1
  O  O14  1  0.31316500  0.52245300  0.49793600  1
  O  O15  1  0.68683500  0.47754700  0.50206400  1
  O  O16  1  0.24185000  0.86015800  0.59065300  1
  O  O17  1  0.75815000  0.13984200  0.40934700  1
  O  O18  1  0.87927300  0.94154200  0.54870100  1
  O  O19  1  0.12072700  0.05845800  0.45129900  1
  O  O20  1  0.38956800  0.07663400  0.57727300  1
  O  O21  1  0.61043200  0.92336600  0.42272700  1
  O  O22  1  0.35980000  0.10020200  0.87485300  1
  O  O23  1  0.64020000  0.89979800  0.12514700  1
  O  O24  1  0.72500000  0.26151500  0.68468600  1
  O  O25  1  0.27500000  0.73848500  0.31531400  1
  O  O26  1  0.26262500  0.86386000  0.82324600  1
  O  O27  1  0.73737500  0.13614000  0.17675400  1
  O  O28  1  0.56002800  0.73636100  0.56863600  1
  O  O29  1  0.43997200  0.26363900  0.43136400  1
  O  O30  1  0.64222900  0.40130000  0.89521700  1
  O  O31  1  0.35777100  0.59870000  0.10478300  1
  O  O32  1  0.73016500  0.67964100  0.01871900  1
  O  O33  1  0.26983500  0.32035900  0.98128100  1
  O  O34  1  0.43937400  0.59848000  0.80295000  1
  O  O35  1  0.56062600  0.40152000  0.19705000  1
loop_
_geom_bond_atom_site_label_1
_geom_bond_atom_site_label_2
_geom_bond_distance
_geom_bond_site_symmetry_2
Os0 S0 2.424510 1_555
Os1 S1 2.424510 1_555
Os2 S2 2.352670 1_455
Os3 S3 2.352670 1_655
Os4 S2 2.428961 1_455
Os4 S0 2.471823 1_455
Os5 S3 2.428961 1_655
Os5 S1 2.471823 1_655
Os8 S0 2.414319 1_555
Os9 S1 2.414319 1_555
Os10 S0 2.447225 1_555
Os10 S2 2.473405 1_555
Os11 S1 2.447225 1_555
Os11 S3 2.473405 1_555
C0 O0 1.159812 1_555
C0 Os0 1.919537 1_555
C1 O1 1.159812 1_555
C1 Os1 1.919537 1_555
C2 O2 1.163189 1_655
C2 Os0 1.879217 1_545
C3 O3 1.163189 1_455
C3 Os1 1.879217 1_565
C4 O4 1.162280 1_555
C4 Os0 1.902336 1_545
C5 O5 1.162280 1_555
C5 Os1 1.902336 1_565
C6 O6 1.162588 1_555
C6 Os2 1.909761 1_555
C7 O7 1.162588 1_555
C7 Os3 1.909761 1_555
C8 O8 1.162960 1_555
C8 Os2 1.912245 1_555
C9 O9 1.162960 1_555
C9 Os3 1.912245 1_555
C10 O10 1.164895 1_455
C10 Os2 1.875517 1_555
C11 O11 1.164895 1_655
C11 Os3 1.875517 1_555
C12 O12 1.159379 1_555
C12 Os4 1.894777 1_655
C13 O13 1.159379 1_555
C13 Os5 1.894777 1_455
C14 O14 1.158028 1_555
C14 Os4 1.904223 1_555
C15 O15 1.158028 1_555
C15 Os5 1.904223 1_555
C16 O16 1.162746 1_555
C16 Os4 1.909879 1_555
C17 O17 1.162746 1_555
C17 Os5 1.909879 1_555
C18 O18 1.158834 1_555
C18 Os6 1.952609 1_565
C19 O19 1.158834 1_555
C19 Os7 1.952609 1_545
C20 O20 1.159248 1_555
C20 Os6 1.923575 1_555
C21 O21 1.159248 1_555
C21 Os7 1.923575 1_555
C22 O22 1.156529 1_555
C22 Os6 1.959283 1_555
C23 O23 1.156529 1_555
C23 Os7 1.959283 1_555
C24 O24 1.162891 1_555
C24 Os6 1.908107 1_555
C25 O25 1.162891 1_555
C25 Os7 1.908107 1_555
C26 O26 1.164350 1_555
C26 Os8 1.904077 1_555
C27 O27 1.164350 1_555
C27 Os9 1.904077 1_555
C28 O28 1.164523 1_555
C28 Os8 1.861635 1_555
C29 O29 1.164523 1_555
C29 Os9 1.861635 1_555
C30 O30 1.162495 1_555
C30 Os10 1.897823 1_555
C31 O31 1.162495 1_555
C31 Os11 1.897823 1_555
C32 O32 1.163478 1_556
C32 Os10 1.894507 1_555
C33 O33 1.163478 1_554
C33 Os11 1.894507 1_555
C34 O34 1.187531 1_555
C34 Os8 2.079194 1_555
C34 Os10 2.086098 1_555
C35 O35 1.187531 1_555
C35 Os9 2.079194 1_555
C35 Os11 2.086098 1_555
