# generated using pymatgen
data_YFe3Se2ClO8
_symmetry_space_group_name_H-M   'P 1'
_cell_length_a   6.51620300
_cell_length_b   7.25913000
_cell_length_c   9.67287100
_cell_angle_alpha   90.00000000
_cell_angle_beta   90.00000000
_cell_angle_gamma   90.00000000
_symmetry_Int_Tables_number   1
_chemical_formula_structural   YFe3Se2ClO8
_chemical_formula_sum   'Y2 Fe6 Se4 Cl2 O16'
_cell_volume   457.54580243
_cell_formula_units_Z   2
loop_
 _symmetry_equiv_pos_site_id
 _symmetry_equiv_pos_as_xyz
  1  'x, y, z'
loop_
 _atom_site_type_symbol
 _atom_site_label
 _atom_site_symmetry_multiplicity
 _atom_site_fract_x
 _atom_site_fract_y
 _atom_site_fract_z
 _atom_site_occupancy
  Y  Y0  1  0.00000000  0.22763200  0.00000000  1
  Y  Y1  1  0.50000000  0.77236800  0.50000000  1
  Fe  Fe0  1  0.25000000  0.50000000  0.75000000  1
  Fe  Fe1  1  0.25000000  0.50000000  0.25000000  1
  Fe  Fe2  1  0.75000000  0.50000000  0.75000000  1
  Fe  Fe3  1  0.50000000  0.29853400  0.50000000  1
  Fe  Fe4  1  0.00000000  0.70146600  0.00000000  1
  Fe  Fe5  1  0.75000000  0.50000000  0.25000000  1
  Se  Se0  1  0.50000000  0.08553000  0.81294300  1
  Se  Se1  1  0.00000000  0.91447000  0.68705700  1
  Se  Se2  1  0.50000000  0.08553000  0.18705700  1
  Se  Se3  1  0.00000000  0.91447000  0.31294300  1
  Cl  Cl0  1  0.00000000  0.37196400  0.50000000  1
  Cl  Cl1  1  0.50000000  0.62803600  0.00000000  1
  O  O0  1  0.00000000  0.49114700  0.86346100  1
  O  O1  1  0.00000000  0.92447900  0.86745100  1
  O  O2  1  0.50000000  0.07552100  0.36745100  1
  O  O3  1  0.29197400  0.22863300  0.84131600  1
  O  O4  1  0.20802600  0.77136700  0.34131600  1
  O  O5  1  0.79197400  0.77136700  0.34131600  1
  O  O6  1  0.50000000  0.50885300  0.63653900  1
  O  O7  1  0.70802600  0.22863300  0.84131600  1
  O  O8  1  0.70802600  0.22863300  0.15868400  1
  O  O9  1  0.79197400  0.77136700  0.65868400  1
  O  O10  1  0.00000000  0.49114700  0.13653900  1
  O  O11  1  0.50000000  0.50885300  0.36346100  1
  O  O12  1  0.20802600  0.77136700  0.65868400  1
  O  O13  1  0.29197400  0.22863300  0.15868400  1
  O  O14  1  0.50000000  0.07552100  0.63254900  1
  O  O15  1  0.00000000  0.92447900  0.13254900  1
loop_
_geom_bond_atom_site_label_1
_geom_bond_atom_site_label_2
_geom_bond_distance
_geom_bond_site_symmetry_2
Fe0 O0 1.965306 1_555
Fe0 O6 1.965306 1_555
Fe0 O3 2.176113 1_555
Fe0 O12 2.176113 1_555
Fe1 O11 1.965306 1_555
Fe1 O10 1.965306 1_555
Fe1 O4 2.176113 1_555
Fe1 O13 2.176113 1_555
Fe2 O6 1.965306 1_555
Fe2 O0 1.965306 1_655
Fe2 O9 2.176113 1_555
Fe2 O7 2.176113 1_555
Fe3 O6 2.018719 1_555
Fe3 O11 2.018719 1_555
Fe3 O2 2.065098 1_555
Fe3 O14 2.065098 1_555
Fe4 O0 2.018719 1_554
Fe4 O10 2.018719 1_555
Fe4 O15 2.065098 1_555
Fe4 O1 2.065098 1_554
Fe5 O11 1.965306 1_555
Fe5 O10 1.965306 1_655
Fe5 O5 2.176113 1_555
Fe5 O8 2.176113 1_555
Cl0 Fe5 3.060298 1_455
Cl0 Fe1 3.060298 1_555
Cl0 Fe2 3.060298 1_455
Cl0 Fe0 3.060298 1_555
Cl1 Fe0 3.060298 1_554
Cl1 Fe2 3.060298 1_554
Cl1 Fe1 3.060298 1_555
Cl1 Fe5 3.060298 1_555
O0 Y0 2.324534 1_556
O1 Se1 1.746440 1_555
O1 Y0 2.546883 1_566
O2 Se2 1.746440 1_555
O2 Y1 2.546883 1_545
O3 Se0 1.729717 1_555
O3 Y0 2.444546 1_556
O4 Se3 1.729717 1_555
O4 Y1 2.444546 1_555
O5 Se3 1.729717 1_655
O5 Y1 2.444546 1_555
O6 Y1 2.324534 1_555
O7 Se0 1.729717 1_555
O7 Y0 2.444546 1_656
O8 Se2 1.729717 1_555
O8 Y0 2.444546 1_655
O9 Se1 1.729717 1_655
O9 Y1 2.444546 1_555
O10 Y0 2.324534 1_555
O11 Y1 2.324534 1_555
O12 Se1 1.729717 1_555
O12 Y1 2.444546 1_555
O13 Se2 1.729717 1_555
O13 Y0 2.444546 1_555
O14 Se0 1.746440 1_555
O14 Y1 2.546883 1_545
O15 Se3 1.746440 1_555
O15 Y0 2.546883 1_565
