# generated using pymatgen
data_Mg6CrNi
_symmetry_space_group_name_H-M   'P 1'
_cell_length_a   4.84143800
_cell_length_b   6.03995100
_cell_length_c   10.46164000
_cell_angle_alpha   90.00000000
_cell_angle_beta   90.00000000
_cell_angle_gamma   90.00000000
_symmetry_Int_Tables_number   1
_chemical_formula_structural   Mg6CrNi
_chemical_formula_sum   'Mg12 Cr2 Ni2'
_cell_volume   305.91978207
_cell_formula_units_Z   2
loop_
 _symmetry_equiv_pos_site_id
 _symmetry_equiv_pos_as_xyz
  1  'x, y, z'
loop_
 _atom_site_type_symbol
 _atom_site_label
 _atom_site_symmetry_multiplicity
 _atom_site_fract_x
 _atom_site_fract_y
 _atom_site_fract_z
 _atom_site_occupancy
  Mg  Mg0  1  0.00000000  0.74185000  0.08789300  1
  Mg  Mg1  1  0.00000000  0.25815000  0.08789300  1
  Mg  Mg2  1  0.00000000  0.00000000  0.33340700  1
  Mg  Mg3  1  0.50000000  0.26368700  0.41165300  1
  Mg  Mg4  1  0.50000000  0.73631300  0.41165300  1
  Mg  Mg5  1  0.50000000  0.00000000  0.16550900  1
  Mg  Mg6  1  0.00000000  0.24185000  0.58789300  1
  Mg  Mg7  1  0.00000000  0.75815000  0.58789300  1
  Mg  Mg8  1  0.00000000  0.50000000  0.83340700  1
  Mg  Mg9  1  0.50000000  0.76368700  0.91165300  1
  Mg  Mg10  1  0.50000000  0.23631300  0.91165300  1
  Mg  Mg11  1  0.50000000  0.50000000  0.66550900  1
  Cr  Cr0  1  0.50000000  0.50000000  0.17239800  1
  Cr  Cr1  1  0.50000000  0.00000000  0.67239800  1
  Ni  Ni0  1  0.00000000  0.50000000  0.32959300  1
  Ni  Ni1  1  0.00000000  0.00000000  0.82959300  1
loop_
_geom_bond_atom_site_label_1
_geom_bond_atom_site_label_2
_geom_bond_distance
_geom_bond_site_symmetry_2
Mg0 Ni0 2.920194 1_555
Mg0 Mg1 2.921524 1_555
Mg0 Mg5 2.991714 1_465
Mg0 Mg5 2.991714 1_565
Mg0 Mg2 3.004701 1_565
Mg0 Mg8 3.036756 1_554
Mg0 Mg9 3.045772 1_554
Mg0 Mg9 3.045772 1_454
Mg0 Mg1 3.118427 1_565
Mg0 Ni1 3.119817 1_564
Mg1 Ni0 2.920194 1_555
Mg1 Mg5 2.991714 1_455
Mg1 Mg5 2.991714 1_555
Mg1 Mg2 3.004701 1_555
Mg1 Mg8 3.036756 1_554
Mg1 Mg10 3.045772 1_554
Mg1 Mg10 3.045772 1_454
Mg1 Ni1 3.119817 1_554
Mg2 Mg5 2.990841 1_455
Mg2 Mg5 2.990841 1_555
Mg2 Mg4 3.011065 1_545
Mg2 Mg3 3.011065 1_455
Mg2 Mg3 3.011065 1_555
Mg2 Mg4 3.011065 1_445
Mg2 Ni0 3.020239 1_545
Mg2 Ni0 3.020239 1_555
Mg2 Mg7 3.036756 1_545
Mg2 Mg6 3.036756 1_555
Mg3 Mg4 2.854638 1_555
Mg3 Ni0 2.938386 1_655
Mg3 Ni0 2.938386 1_555
Mg3 Mg5 3.027795 1_555
Mg3 Mg6 3.045772 1_555
Mg3 Mg6 3.045772 1_655
Mg3 Mg4 3.185313 1_545
Mg4 Ni0 2.938386 1_655
Mg4 Ni0 2.938386 1_555
Mg4 Mg5 3.027795 1_565
Mg4 Mg7 3.045772 1_655
Mg4 Mg7 3.045772 1_555
Mg5 Mg9 3.015004 1_544
Mg6 Ni1 2.920194 1_555
Mg6 Mg7 2.921524 1_545
Mg6 Mg8 3.004701 1_555
Mg6 Mg7 3.118427 1_555
Mg6 Ni0 3.119817 1_555
Mg7 Ni1 2.920194 1_565
Mg7 Mg8 3.004701 1_555
Mg7 Ni0 3.119817 1_555
Mg8 Mg9 3.011065 1_455
Mg8 Mg9 3.011065 1_555
Mg8 Ni1 3.020239 1_565
Mg8 Ni1 3.020239 1_555
Mg9 Ni1 2.938386 1_565
Mg9 Ni1 2.938386 1_665
Mg10 Mg9 2.854638 1_545
Mg10 Ni1 2.938386 1_655
Mg10 Ni1 2.938386 1_555
Mg10 Mg8 3.011065 1_555
Mg10 Mg8 3.011065 1_655
Mg10 Mg5 3.015004 1_556
Mg10 Mg11 3.027795 1_555
Mg10 Mg9 3.185313 1_555
Mg11 Mg8 2.990841 1_555
Mg11 Mg8 2.990841 1_655
Mg11 Mg7 2.991714 1_655
Mg11 Mg6 2.991714 1_555
Mg11 Mg7 2.991714 1_555
Mg11 Mg6 2.991714 1_655
Mg11 Mg3 3.015004 1_555
Mg11 Mg4 3.015004 1_555
Mg11 Mg9 3.027795 1_555
Cr0 Mg3 2.881362 1_555
Cr0 Mg4 2.881362 1_555
Cr0 Ni0 2.926486 1_655
Cr0 Ni0 2.926486 1_555
Cr0 Mg0 2.962308 1_555
Cr0 Mg0 2.962308 1_655
Cr0 Mg1 2.962308 1_655
Cr0 Mg1 2.962308 1_555
Cr0 Mg5 3.020835 1_565
Cr0 Mg5 3.020835 1_555
Cr0 Mg9 3.158727 1_554
Cr0 Mg10 3.158727 1_554
Cr1 Mg9 2.881362 1_545
Cr1 Mg10 2.881362 1_555
Cr1 Ni1 2.926486 1_555
Cr1 Ni1 2.926486 1_655
Cr1 Mg7 2.962308 1_645
Cr1 Mg7 2.962308 1_545
Cr1 Mg6 2.962308 1_655
Cr1 Mg6 2.962308 1_555
Cr1 Mg11 3.020835 1_545
Cr1 Mg11 3.020835 1_555
Cr1 Mg4 3.158727 1_545
Cr1 Mg3 3.158727 1_555
