# generated using pymatgen
data_Cr2MoP3
_symmetry_space_group_name_H-M   'P 1'
_cell_length_a   3.12992700
_cell_length_b   5.46004534
_cell_length_c   18.26000951
_cell_angle_alpha   89.91963878
_cell_angle_beta   90.00000000
_cell_angle_gamma   90.00000000
_symmetry_Int_Tables_number   1
_chemical_formula_structural   Cr2MoP3
_chemical_formula_sum   'Cr8 Mo4 P12'
_cell_volume   312.05491662
_cell_formula_units_Z   4
loop_
 _symmetry_equiv_pos_site_id
 _symmetry_equiv_pos_as_xyz
  1  'x, y, z'
loop_
 _atom_site_type_symbol
 _atom_site_label
 _atom_site_symmetry_multiplicity
 _atom_site_fract_x
 _atom_site_fract_y
 _atom_site_fract_z
 _atom_site_occupancy
  Cr  Cr0  1  0.75000000  0.99473500  0.60276200  1
  Cr  Cr1  1  0.75000000  0.99423400  0.93449300  1
  Cr  Cr2  1  0.25000000  0.51070100  0.10139400  1
  Cr  Cr3  1  0.25000000  0.50860600  0.43951100  1
  Cr  Cr4  1  0.25000000  0.50852800  0.76995000  1
  Cr  Cr5  1  0.25000000  0.01182500  0.06104600  1
  Cr  Cr6  1  0.25000000  0.00948800  0.39862200  1
  Cr  Cr7  1  0.25000000  0.01070800  0.73026100  1
  Mo  Mo0  1  0.75000000  0.49316200  0.23054300  1
  Mo  Mo1  1  0.75000000  0.48987200  0.56477000  1
  Mo  Mo2  1  0.75000000  0.49017700  0.89609300  1
  Mo  Mo3  1  0.75000000  0.99328500  0.26932200  1
  P  P0  1  0.75000000  0.31040200  0.02324000  1
  P  P1  1  0.75000000  0.31695300  0.36137300  1
  P  P2  1  0.75000000  0.30971300  0.69162400  1
  P  P3  1  0.75000000  0.81581500  0.13829500  1
  P  P4  1  0.75000000  0.82107200  0.47690600  1
  P  P5  1  0.75000000  0.81908800  0.80825400  1
  P  P6  1  0.25000000  0.67815500  0.31914100  1
  P  P7  1  0.25000000  0.69625000  0.64879200  1
  P  P8  1  0.25000000  0.69595500  0.98037600  1
  P  P9  1  0.25000000  0.17905100  0.18068100  1
  P  P10  1  0.25000000  0.17092500  0.52035100  1
  P  P11  1  0.25000000  0.17129800  0.85220300  1
loop_
_geom_bond_atom_site_label_1
_geom_bond_atom_site_label_2
_geom_bond_distance
_geom_bond_site_symmetry_2
Cr0 P2 2.366098 1_565
Cr0 P10 2.373816 1_665
Cr0 P10 2.373816 1_565
Cr0 P7 2.409934 1_655
Cr0 P7 2.409934 1_555
Cr0 P4 2.487292 1_555
Cr0 Mo1 2.790118 1_565
Cr0 Mo1 2.843473 1_555
Cr1 P0 2.369392 1_566
Cr1 P11 2.374353 1_665
Cr1 P11 2.374353 1_565
Cr1 P8 2.408241 1_555
Cr1 P8 2.408241 1_655
Cr1 P5 2.496859 1_555
Cr1 Mo2 2.796230 1_565
Cr1 Mo2 2.841045 1_555
Cr2 P9 2.316851 1_555
Cr2 P3 2.383616 1_455
Cr2 P3 2.383616 1_555
Cr2 P0 2.384562 1_555
Cr2 P0 2.384562 1_455
Cr2 P8 2.428996 1_554
Cr2 Mo0 2.831792 1_455
Cr2 Mo0 2.831792 1_555
Cr3 P10 2.360250 1_555
Cr3 P1 2.363066 1_555
Cr3 P1 2.363066 1_455
Cr3 P6 2.383760 1_555
Cr3 P4 2.414403 1_455
Cr3 P4 2.414403 1_555
Cr3 Mo1 2.773146 1_555
Cr3 Mo1 2.773146 1_455
Cr4 P11 2.374536 1_555
Cr4 P2 2.382736 1_555
Cr4 P2 2.382736 1_455
Cr4 P5 2.411834 1_555
Cr4 P5 2.411834 1_455
Cr4 P7 2.436941 1_555
Cr4 Mo2 2.786400 1_455
Cr4 Mo2 2.786400 1_555
Cr5 P8 2.269675 1_544
Cr5 P3 2.362193 1_445
Cr5 P3 2.362193 1_545
Cr5 P0 2.362248 1_455
Cr5 P0 2.362248 1_555
Cr5 P9 2.368855 1_555
Cr6 P6 2.320889 1_545
Cr6 P4 2.355145 1_545
Cr6 P4 2.355145 1_445
Cr6 P10 2.392316 1_555
Cr6 P1 2.393076 1_555
Cr6 P1 2.393076 1_455
Cr6 Mo3 2.834067 1_445
Cr6 Mo3 2.834067 1_545
Cr7 P7 2.273351 1_545
Cr7 P5 2.359616 1_445
Cr7 P5 2.359616 1_545
Cr7 P2 2.368322 1_455
Cr7 P2 2.368322 1_555
Cr7 P11 2.394228 1_555
Mo0 P3 2.435700 1_555
Mo0 P6 2.468039 1_555
Mo0 P6 2.468039 1_655
Mo0 P9 2.494774 1_655
Mo0 P9 2.494774 1_555
Mo0 P1 2.574164 1_555
Mo1 P4 2.415811 1_555
Mo1 P7 2.465282 1_655
Mo1 P7 2.465282 1_555
Mo1 P10 2.478637 1_555
Mo1 P10 2.478637 1_655
Mo1 P2 2.515299 1_555
Mo2 P5 2.406178 1_555
Mo2 P8 2.466757 1_555
Mo2 P8 2.466757 1_655
Mo2 P11 2.475222 1_655
Mo2 P11 2.475222 1_555
Mo2 P0 2.519409 1_556
Mo3 P1 2.440643 1_565
Mo3 P9 2.468423 1_665
Mo3 P9 2.468423 1_565
Mo3 P6 2.496560 1_655
Mo3 P6 2.496560 1_555
Mo3 P3 2.582590 1_555
P10 P4 2.594535 1_445
P10 P4 2.594535 1_545
P11 P5 2.606858 1_445
P11 P5 2.606858 1_545
