# generated using pymatgen
data_MgAl4(HO)12
_symmetry_space_group_name_H-M   'P 1'
_cell_length_a   7.55053810
_cell_length_b   7.40955621
_cell_length_c   7.30832192
_cell_angle_alpha   102.21904656
_cell_angle_beta   139.16449386
_cell_angle_gamma   92.69153448
_symmetry_Int_Tables_number   1
_chemical_formula_structural   MgAl4(HO)12
_chemical_formula_sum   'Mg1 Al4 H12 O12'
_cell_volume   247.20101393
_cell_formula_units_Z   1
loop_
 _symmetry_equiv_pos_site_id
 _symmetry_equiv_pos_as_xyz
  1  'x, y, z'
loop_
 _atom_site_type_symbol
 _atom_site_label
 _atom_site_symmetry_multiplicity
 _atom_site_fract_x
 _atom_site_fract_y
 _atom_site_fract_z
 _atom_site_occupancy
  Mg  Mg0  1  0.98878696  0.21908103  0.78232470  1
  Al  Al0  1  0.49046886  0.82290587  0.30349957  1
  Al  Al1  1  0.44006040  0.08380934  0.62790935  1
  Al  Al2  1  0.98334927  0.67335040  0.64001735  1
  Al  Al3  1  0.01291720  0.36878870  0.31279265  1
  H  H0  1  0.95660794  0.94299341  0.49945896  1
  H  H1  1  0.92776794  0.01323140  0.22803292  1
  H  H2  1  0.47357917  0.41527790  0.82332253  1
  H  H3  1  0.48098678  0.45499193  0.20586024  1
  H  H4  1  0.00316410  0.71513648  0.32615800  1
  H  H5  1  0.74120907  0.32028055  0.36708176  1
  H  H6  1  0.44255797  0.17063499  0.29622303  1
  H  H7  1  0.68087628  0.82076158  0.76673055  1
  H  H8  1  0.47328846  0.90986512  0.97217918  1
  H  H9  1  0.38259822  0.25168926  0.08664846  1
  H  H10  1  0.27421426  0.47395695  0.26874620  1
  H  H11  1  0.01243622  0.61062925  0.98593050  1
  O  O0  1  0.90133362  0.92612235  0.58689686  1
  O  O1  1  0.07191691  0.95492627  0.37477611  1
  O  O2  1  0.36167515  0.33494786  0.62020242  1
  O  O3  1  0.58725318  0.59543146  0.34981613  1
  O  O4  1  0.96322823  0.60381338  0.35895055  1
  O  O5  1  0.95175383  0.38382066  0.56211023  1
  O  O6  1  0.52736543  0.10404131  0.44313222  1
  O  O7  1  0.52016131  0.84780026  0.58943564  1
  O  O8  1  0.38482696  0.80742599  0.97008607  1
  O  O9  1  0.71139272  0.15787006  0.02462612  1
  O  O10  1  0.07339418  0.39292236  0.11224297  1
  O  O11  1  0.08451340  0.71601488  0.97520273  1
loop_
_geom_bond_atom_site_label_1
_geom_bond_atom_site_label_2
_geom_bond_distance
_geom_bond_site_symmetry_2
Mg0 O10 2.039163 1_656
Mg0 O0 2.076964 1_545
Mg0 O5 2.083507 1_555
Mg0 O6 2.183528 1_555
Al0 O3 1.863423 1_555
Al0 O8 1.875876 1_554
Al0 O7 1.890823 1_555
Al0 O11 1.902239 1_554
Al0 O0 1.970447 1_555
Al0 O6 2.018348 1_565
Al1 O9 1.771239 1_556
Al1 O1 1.811787 1_545
Al1 O7 1.910864 1_545
Al1 O6 1.924593 1_555
Al1 O2 1.978254 1_555
Al2 O3 1.870131 1_555
Al2 O11 1.871439 1_655
Al2 O4 1.892197 1_555
Al2 O8 1.906000 1_655
Al2 O0 2.023608 1_555
Al2 O5 2.052487 1_555
Al3 O9 1.754508 1_455
Al3 O4 1.814203 1_455
Al3 O2 1.841994 1_555
Al3 O10 1.872092 1_555
Al3 O5 2.176678 1_455
H0 O0 1.015202 1_555
H1 O1 0.997705 1_645
H2 O2 0.976031 1_555
H3 O3 1.007127 1_555
H4 O4 0.999208 1_455
H5 O5 0.998705 1_555
H6 O6 1.009880 1_555
H7 O7 0.972147 1_555
H8 O8 0.976986 1_555
H9 Mg0 1.882689 1_454
H10 O10 0.983553 1_555
H11 O11 0.981140 1_555
