# generated using pymatgen
data_GaSb3Pb4O13
_symmetry_space_group_name_H-M   'P 1'
_cell_length_a   7.47088134
_cell_length_b   7.47088134
_cell_length_c   7.47088096
_cell_angle_alpha   60.59646338
_cell_angle_beta   60.59646338
_cell_angle_gamma   60.59646454
_symmetry_Int_Tables_number   1
_chemical_formula_structural   GaSb3Pb4O13
_chemical_formula_sum   'Ga1 Sb3 Pb4 O13'
_cell_volume   298.82163313
_cell_formula_units_Z   1
loop_
 _symmetry_equiv_pos_site_id
 _symmetry_equiv_pos_as_xyz
  1  'x, y, z'
loop_
 _atom_site_type_symbol
 _atom_site_label
 _atom_site_symmetry_multiplicity
 _atom_site_fract_x
 _atom_site_fract_y
 _atom_site_fract_z
 _atom_site_occupancy
  Ga  Ga0  1  0.49942800  0.49942800  0.49942800  1
  Sb  Sb0  1  0.00095700  0.49976100  0.49976100  1
  Sb  Sb1  1  0.49976100  0.49976100  0.00095700  1
  Sb  Sb2  1  0.49976100  0.00095700  0.49976100  1
  Pb  Pb0  1  0.99842500  0.99842500  0.99842500  1
  Pb  Pb1  1  0.50523100  0.99835400  0.99835400  1
  Pb  Pb2  1  0.99835400  0.99835400  0.50523100  1
  Pb  Pb3  1  0.99835400  0.50523100  0.99835400  1
  O  O0  1  0.82607200  0.42714800  0.42714800  1
  O  O1  1  0.42570600  0.82331000  0.82331000  1
  O  O2  1  0.42714800  0.42714800  0.82607200  1
  O  O3  1  0.82331000  0.82331000  0.42570600  1
  O  O4  1  0.82331000  0.42570600  0.82331000  1
  O  O5  1  0.42714800  0.82607200  0.42714800  1
  O  O6  1  0.17649500  0.57070100  0.57070100  1
  O  O7  1  0.57225800  0.17879800  0.17879800  1
  O  O8  1  0.57070100  0.57070100  0.17649500  1
  O  O9  1  0.17879800  0.17879800  0.57225800  1
  O  O10  1  0.17879800  0.57225800  0.17879800  1
  O  O11  1  0.57070100  0.17649500  0.57070100  1
  O  O12  1  0.12428600  0.12428600  0.12428600  1
loop_
_geom_bond_atom_site_label_1
_geom_bond_atom_site_label_2
_geom_bond_distance
_geom_bond_site_symmetry_2
Ga0 O8 2.035497 1_555
Ga0 O6 2.035497 1_555
Ga0 O11 2.035497 1_555
Ga0 O2 2.058351 1_555
Ga0 O0 2.058351 1_555
Ga0 O5 2.058351 1_555
O0 Sb0 1.994122 1_655
O0 Pb3 2.666988 1_554
O0 Pb2 2.666988 1_545
O1 Sb2 2.041604 1_565
O1 Sb1 2.041604 1_556
O1 Pb1 2.641657 1_555
O1 Pb0 2.663136 1_455
O2 Sb1 1.994122 1_556
O2 Pb3 2.666988 1_455
O2 Pb1 2.666988 1_545
O3 Sb2 2.041604 1_565
O3 Sb0 2.041604 1_655
O3 Pb2 2.641657 1_555
O3 Pb0 2.663136 1_554
O4 Sb0 2.041604 1_655
O4 Sb1 2.041604 1_556
O4 Pb3 2.641657 1_555
O4 Pb0 2.663136 1_545
O5 Sb2 1.994122 1_565
O5 Pb1 2.666988 1_554
O5 Pb2 2.666988 1_455
O6 Sb0 1.980487 1_555
O6 Pb3 2.673518 1_455
O6 Pb2 2.673519 1_455
O7 Sb2 2.027682 1_555
O7 Sb1 2.027682 1_555
O7 Pb1 2.644899 1_544
O7 Pb0 2.669473 1_544
O8 Sb1 1.980487 1_555
O8 Pb1 2.673519 1_554
O8 Pb3 2.673519 1_554
O9 Sb0 2.027682 1_555
O9 Sb2 2.027682 1_555
O9 Pb2 2.644899 1_445
O9 Pb0 2.669473 1_445
O10 Sb0 2.027682 1_555
O10 Sb1 2.027682 1_555
O10 Pb3 2.644899 1_454
O10 Pb0 2.669473 1_454
O11 Sb2 1.980487 1_555
O11 Pb1 2.673518 1_545
O11 Pb2 2.673519 1_545
O12 Pb0 2.292800 1_444
O12 Pb2 2.341114 1_445
O12 Pb3 2.341114 1_454
O12 Pb1 2.341114 1_544
