# generated using pymatgen
data_Mg2Cu2O5
_symmetry_space_group_name_H-M   'P 1'
_cell_length_a   7.82467798
_cell_length_b   7.82467798
_cell_length_c   7.82467798
_cell_angle_alpha   141.38751937
_cell_angle_beta   140.80299271
_cell_angle_gamma   56.19541888
_symmetry_Int_Tables_number   1
_chemical_formula_structural   Mg2Cu2O5
_chemical_formula_sum   'Mg4 Cu4 O10'
_cell_volume   187.46626573
_cell_formula_units_Z   2
loop_
 _symmetry_equiv_pos_site_id
 _symmetry_equiv_pos_as_xyz
  1  'x, y, z'
loop_
 _atom_site_type_symbol
 _atom_site_label
 _atom_site_symmetry_multiplicity
 _atom_site_fract_x
 _atom_site_fract_y
 _atom_site_fract_z
 _atom_site_occupancy
  Mg  Mg0  1  0.41338200  0.87971500  0.53063600  1
  Mg  Mg1  1  0.65092100  0.12028500  0.53366700  1
  Mg  Mg2  1  0.91338200  0.38274600  0.53366700  1
  Mg  Mg3  1  0.15092100  0.61725400  0.53063600  1
  Cu  Cu0  1  0.98028400  0.00000000  0.98028400  1
  Cu  Cu1  1  0.48028400  0.50000000  0.98028400  1
  Cu  Cu2  1  0.80519100  0.77636800  0.08155900  1
  Cu  Cu3  1  0.30519100  0.22363200  0.02882300  1
  O  O0  1  0.78076800  0.77783200  0.47322000  1
  O  O1  1  0.69538800  0.22216800  0.00293600  1
  O  O2  1  0.28076800  0.80754800  0.00293600  1
  O  O3  1  0.19538800  0.19245200  0.47322000  1
  O  O4  1  0.78753800  0.73953200  0.79777700  1
  O  O5  1  0.05824500  0.26046800  0.04800600  1
  O  O6  1  0.28753800  0.48976100  0.04800600  1
  O  O7  1  0.55824500  0.51023900  0.79777700  1
  O  O8  1  0.16428200  0.86671700  0.53100000  1
  O  O9  1  0.66428200  0.13328300  0.29756500  1
loop_
_geom_bond_atom_site_label_1
_geom_bond_atom_site_label_2
_geom_bond_distance
_geom_bond_site_symmetry_2
Mg0 O8 2.009748 1_555
Mg0 O6 2.028099 1_555
Mg0 O1 2.042299 1_566
Mg0 O4 2.160623 1_555
Mg0 O3 2.232766 1_565
Mg1 O9 2.009742 1_555
Mg1 O7 2.028099 1_555
Mg1 O0 2.042299 1_545
Mg1 O5 2.160623 1_656
Mg1 O2 2.232766 1_545
Mg2 O9 2.009742 1_555
Mg2 O4 2.028099 1_555
Mg2 O3 2.042299 1_655
Mg2 O6 2.160623 1_656
Mg2 O1 2.232766 1_555
Mg3 O8 2.009736 1_555
Mg3 O5 2.028099 1_555
Mg3 O2 2.042299 1_556
Mg3 O7 2.160623 1_555
Mg3 O0 2.232766 1_455
Cu0 O3 1.912761 1_656
Cu0 O2 1.912761 1_646
Cu0 O1 1.960011 1_556
Cu0 O0 1.960011 1_545
Cu0 O4 2.000327 1_545
Cu0 O5 2.000327 1_656
Cu1 O1 1.912761 1_556
Cu1 O0 1.912761 1_556
Cu1 O2 1.960011 1_556
Cu1 O3 1.960011 1_555
Cu1 O6 2.000327 1_556
Cu1 O7 2.000327 1_555
Cu2 O7 1.897761 1_554
Cu2 O4 1.897761 1_554
Cu2 O8 1.942049 1_655
Cu2 O9 1.989283 1_565
Cu3 O6 1.897761 1_555
Cu3 O5 1.897761 1_555
Cu3 O9 1.942046 1_555
Cu3 O8 1.989280 1_544
