# generated using pymatgen
data_CaBeAsO5
_symmetry_space_group_name_H-M   'P 1'
_cell_length_a   4.98399908
_cell_length_b   7.93128700
_cell_length_c   10.20059960
_cell_angle_alpha   90.00000000
_cell_angle_beta   90.00318536
_cell_angle_gamma   90.00000000
_symmetry_Int_Tables_number   1
_chemical_formula_structural   CaBeAsO5
_chemical_formula_sum   'Ca4 Be4 As4 O20'
_cell_volume   403.22487794
_cell_formula_units_Z   4
loop_
 _symmetry_equiv_pos_site_id
 _symmetry_equiv_pos_as_xyz
  1  'x, y, z'
loop_
 _atom_site_type_symbol
 _atom_site_label
 _atom_site_symmetry_multiplicity
 _atom_site_fract_x
 _atom_site_fract_y
 _atom_site_fract_z
 _atom_site_occupancy
  Ca  Ca0  1  0.99586700  0.38473500  0.82789100  1
  Ca  Ca1  1  0.00413300  0.88473500  0.67210900  1
  Ca  Ca2  1  0.00413300  0.61526500  0.17210900  1
  Ca  Ca3  1  0.99586700  0.11526500  0.32789100  1
  Be  Be0  1  0.55621000  0.08409200  0.83838700  1
  Be  Be1  1  0.44379000  0.58409200  0.66161300  1
  Be  Be2  1  0.44379000  0.91590800  0.16161300  1
  Be  Be3  1  0.55621000  0.41590800  0.33838700  1
  As  As0  1  0.47451900  0.22520100  0.57965600  1
  As  As1  1  0.52548100  0.72520100  0.92034400  1
  As  As2  1  0.52548100  0.77479900  0.42034400  1
  As  As3  1  0.47451900  0.27479900  0.07965600  1
  O  O0  1  0.23656500  0.08428800  0.53324900  1
  O  O1  1  0.76343500  0.58428800  0.96675100  1
  O  O2  1  0.76343500  0.91571200  0.46675100  1
  O  O3  1  0.23656500  0.41571200  0.03324900  1
  O  O4  1  0.67154000  0.21093200  0.95115600  1
  O  O5  1  0.32846000  0.71093200  0.54884400  1
  O  O6  1  0.32846000  0.78906800  0.04884400  1
  O  O7  1  0.67154000  0.28906800  0.45115600  1
  O  O8  1  0.69337000  0.15210900  0.69951200  1
  O  O9  1  0.30663000  0.65210900  0.80048800  1
  O  O10  1  0.30663000  0.84789100  0.30048800  1
  O  O11  1  0.69337000  0.34789100  0.19951200  1
  O  O12  1  0.31221800  0.39751300  0.64607900  1
  O  O13  1  0.68778200  0.89751300  0.85392100  1
  O  O14  1  0.68778200  0.60248700  0.35392100  1
  O  O15  1  0.31221800  0.10248700  0.14607900  1
  O  O16  1  0.23733700  0.09584500  0.81179600  1
  O  O17  1  0.76266300  0.59584500  0.68820400  1
  O  O18  1  0.76266300  0.90415500  0.18820400  1
  O  O19  1  0.23733700  0.40415500  0.31179600  1
loop_
_geom_bond_atom_site_label_1
_geom_bond_atom_site_label_2
_geom_bond_distance
_geom_bond_site_symmetry_2
Ca0 O1 2.419399 1_555
Ca0 O3 2.426375 1_656
Ca0 O12 2.436404 1_655
Ca0 O4 2.468670 1_555
Ca0 O17 2.486880 1_555
Ca0 O16 2.593313 1_655
Ca0 O9 2.640857 1_655
Ca0 O8 2.718784 1_555
Ca1 O0 2.419399 1_565
Ca1 O2 2.426375 1_455
Ca1 O13 2.436404 1_455
Ca1 O5 2.468670 1_555
Ca1 O16 2.486880 1_565
Ca1 O17 2.593313 1_455
Ca1 O8 2.640857 1_465
Ca1 O9 2.718784 1_555
Ca2 O3 2.419399 1_555
Ca2 O1 2.426375 1_454
Ca2 O14 2.436404 1_455
Ca2 O6 2.468670 1_555
Ca2 O19 2.486880 1_555
Ca2 O18 2.593313 1_455
Ca2 O11 2.640857 1_455
Ca2 O10 2.718784 1_555
Ca3 O2 2.419399 1_545
Ca3 O0 2.426375 1_655
Ca3 O15 2.436404 1_655
Ca3 O7 2.468670 1_555
Ca3 O18 2.486880 1_545
Ca3 O19 2.593313 1_655
Ca3 O10 2.640857 1_645
Ca3 O11 2.718784 1_555
Be0 O16 1.614921 1_555
Be0 O13 1.626331 1_545
Be0 O4 1.632663 1_555
Be0 O8 1.662896 1_555
Be1 O17 1.614921 1_555
Be1 O12 1.626331 1_555
Be1 O5 1.632663 1_555
Be1 O9 1.662896 1_555
Be2 O18 1.614921 1_555
Be2 O15 1.626331 1_565
Be2 O6 1.632663 1_555
Be2 O10 1.662896 1_555
Be3 O19 1.614921 1_555
Be3 O14 1.626331 1_555
Be3 O7 1.632663 1_555
Be3 O11 1.662896 1_555
As0 O0 1.696941 1_555
As0 O7 1.714381 1_555
As0 O12 1.726621 1_555
As0 O8 1.737936 1_555
As1 O1 1.696941 1_555
As1 O6 1.714381 1_556
As1 O13 1.726621 1_555
As1 O9 1.737936 1_555
As2 O2 1.696941 1_555
As2 O5 1.714381 1_555
As2 O14 1.726621 1_555
As2 O10 1.737936 1_555
As3 O3 1.696941 1_555
As3 O4 1.714381 1_554
As3 O15 1.726621 1_555
As3 O11 1.737936 1_555
