# generated using pymatgen
data_Ca19Mg2(PO4)14
_symmetry_space_group_name_H-M   'P 1'
_cell_length_a   13.70093927
_cell_length_b   13.70093926
_cell_length_c   13.70093888
_cell_angle_alpha   44.31596252
_cell_angle_beta   44.31596252
_cell_angle_gamma   44.31596380
_symmetry_Int_Tables_number   1
_chemical_formula_structural   Ca19Mg2(PO4)14
_chemical_formula_sum   'Ca19 Mg2 P14 O56'
_cell_volume   1140.84932773
_cell_formula_units_Z   1
loop_
 _symmetry_equiv_pos_site_id
 _symmetry_equiv_pos_as_xyz
  1  'x, y, z'
loop_
 _atom_site_type_symbol
 _atom_site_label
 _atom_site_symmetry_multiplicity
 _atom_site_fract_x
 _atom_site_fract_y
 _atom_site_fract_z
 _atom_site_occupancy
  Ca  Ca0  1  0.01691365  0.04534789  0.45601935  1
  Ca  Ca1  1  0.04534789  0.45601935  0.01691365  1
  Ca  Ca2  1  0.45601935  0.01691365  0.04534789  1
  Ca  Ca3  1  0.53640007  0.93720602  0.55542808  1
  Ca  Ca4  1  0.93720602  0.55542808  0.53640007  1
  Ca  Ca5  1  0.55542808  0.53640007  0.93720602  1
  Ca  Ca6  1  0.05574073  0.65537192  0.09175650  1
  Ca  Ca7  1  0.65537192  0.09175650  0.05574073  1
  Ca  Ca8  1  0.09175650  0.05574073  0.65537192  1
  Ca  Ca9  1  0.56459256  0.59436241  0.15014694  1
  Ca  Ca10  1  0.59436241  0.15014694  0.56459256  1
  Ca  Ca11  1  0.15014694  0.56459256  0.59436241  1
  Ca  Ca12  1  0.93581961  0.34104543  0.92547744  1
  Ca  Ca13  1  0.34104543  0.92547744  0.93581961  1
  Ca  Ca14  1  0.92547744  0.93581961  0.34104543  1
  Ca  Ca15  1  0.43774749  0.42557690  0.83867562  1
  Ca  Ca16  1  0.42557690  0.83867562  0.43774749  1
  Ca  Ca17  1  0.83867562  0.43774749  0.42557690  1
  Ca  Ca18  1  0.30995613  0.30995613  0.30995613  1
  Mg  Mg0  1  0.49967254  0.49967254  0.49967254  1
  Mg  Mg1  1  0.99858002  0.99858002  0.99858002  1
  P  P0  1  0.23433135  0.23433135  0.23433135  1
  P  P1  1  0.73278478  0.73278478  0.73278478  1
  P  P2  1  0.19126743  0.67409324  0.22884149  1
  P  P3  1  0.67409324  0.22884149  0.19126743  1
  P  P4  1  0.22884149  0.19126743  0.67409324  1
  P  P5  1  0.68960750  0.72429137  0.18160198  1
  P  P6  1  0.72429137  0.18160198  0.68960750  1
  P  P7  1  0.18160198  0.68960750  0.72429137  1
  P  P8  1  0.27624668  0.81275476  0.31739551  1
  P  P9  1  0.81275476  0.31739551  0.27624668  1
  P  P10  1  0.31739551  0.27624668  0.81275476  1
  P  P11  1  0.77418063  0.82037609  0.31228130  1
  P  P12  1  0.82037609  0.31228130  0.77418063  1
  P  P13  1  0.31228130  0.77418063  0.82037609  1
  O  O0  1  0.10946137  0.66501227  0.38872202  1
  O  O1  1  0.66501227  0.38872202  0.10946137  1
  O  O2  1  0.38872202  0.10946137  0.66501227  1
  O  O3  1  0.61333657  0.88761150  0.16439740  1
  O  O4  1  0.88761150  0.16439740  0.61333657  1
  O  O5  1  0.16439740  0.61333657  0.88761150  1
  O  O6  1  0.32893868  0.86839582  0.14783294  1
  O  O7  1  0.86839582  0.14783294  0.32893868  1
  O  O8  1  0.14783294  0.32893868  0.86839582  1
  O  O9  1  0.82525344  0.65094694  0.37106440  1
  O  O10  1  0.65094694  0.37106440  0.82525344  1
  O  O11  1  0.37106440  0.82525344  0.65094694  1
  O  O12  1  0.36501647  0.63654922  0.38588660  1
  O  O13  1  0.63654922  0.38588660  0.36501647  1
  O  O14  1  0.38588660  0.36501647  0.63654922  1
  O  O15  1  0.86345688  0.88617282  0.13555547  1
  O  O16  1  0.88617282  0.13555547  0.86345688  1
  O  O17  1  0.13555547  0.86345688  0.88617282  1
  O  O18  1  0.12211405  0.84739369  0.12687291  1
  O  O19  1  0.84739369  0.12687291  0.12211405  1
  O  O20  1  0.12687291  0.12211405  0.84739369  1
  O  O21  1  0.62082041  0.62759717  0.35806667  1
  O  O22  1  0.62759717  0.35806667  0.62082041  1
  O  O23  1  0.35806667  0.62082041  0.62759717  1
  O  O24  1  0.19371835  0.19371835  0.19371835  1
  O  O25  1  0.69088361  0.69088361  0.69088361  1
  O  O26  1  0.36534042  0.61589927  0.15457602  1
  O  O27  1  0.61589927  0.15457602  0.36534042  1
  O  O28  1  0.15457602  0.36534042  0.61589927  1
  O  O29  1  0.86422520  0.64634182  0.12706105  1
  O  O30  1  0.64634182  0.12706105  0.86422520  1
  O  O31  1  0.12706105  0.86422520  0.64634182  1
  O  O32  1  0.38843800  0.25190283  0.11202687  1
  O  O33  1  0.25190283  0.11202687  0.38843800  1
  O  O34  1  0.11202687  0.38843800  0.25190283  1
  O  O35  1  0.89080641  0.60616745  0.73699906  1
  O  O36  1  0.60616745  0.73699906  0.89080641  1
  O  O37  1  0.73699906  0.89080641  0.60616745  1
  O  O38  1  0.31055576  0.89015929  0.32616705  1
  O  O39  1  0.89015929  0.32616705  0.31055576  1
  O  O40  1  0.32616705  0.31055576  0.89015929  1
  O  O41  1  0.81282579  0.82961068  0.38556854  1
  O  O42  1  0.82961068  0.38556854  0.81282579  1
  O  O43  1  0.38556854  0.81282579  0.82961068  1
  O  O44  1  0.15257925  0.57430622  0.25213385  1
  O  O45  1  0.57430622  0.25213385  0.15257925  1
  O  O46  1  0.25213385  0.15257925  0.57430622  1
  O  O47  1  0.64143534  0.74044588  0.09780018  1
  O  O48  1  0.74044588  0.09780018  0.64143534  1
  O  O49  1  0.09780018  0.64143534  0.74044588  1
  O  O50  1  0.10320684  0.85221837  0.41183960  1
  O  O51  1  0.85221837  0.41183960  0.10320684  1
  O  O52  1  0.41183960  0.10320684  0.85221837  1
  O  O53  1  0.60102184  0.91883000  0.35234405  1
  O  O54  1  0.91883000  0.35234405  0.60102184  1
  O  O55  1  0.35234405  0.60102184  0.91883000  1
loop_
_geom_bond_atom_site_label_1
_geom_bond_atom_site_label_2
_geom_bond_distance
_geom_bond_site_symmetry_2
Ca0 O50 2.357320 1_545
Ca0 O4 2.424123 1_455
Ca0 O39 2.491897 1_455
Ca0 O31 2.499500 1_545
Ca0 O48 2.503017 1_455
Ca0 O7 2.574187 1_455
Ca0 O38 2.607979 1_545
Ca0 O24 2.655268 1_555
Ca1 O51 2.357320 1_455
Ca1 O5 2.424123 1_554
Ca1 O40 2.491897 1_554
Ca1 O29 2.499500 1_455
Ca1 O49 2.503016 1_554
Ca1 O8 2.574187 1_554
Ca1 O39 2.607979 1_455
Ca1 O24 2.655269 1_555
Ca2 O52 2.357320 1_554
Ca2 O3 2.424123 1_545
Ca2 O38 2.491897 1_545
Ca2 O30 2.499500 1_554
Ca2 O47 2.503017 1_545
Ca2 O6 2.574187 1_545
Ca2 O40 2.607979 1_554
Ca2 O24 2.655269 1_555
Ca3 O53 2.397386 1_555
Ca3 O25 2.397979 1_555
Ca3 O2 2.410015 1_565
Ca3 O43 2.460924 1_555
Ca3 O41 2.498009 1_555
Ca3 O27 2.514376 1_565
Ca3 O11 2.655961 1_555
Ca3 O46 2.673538 1_565
Ca3 O37 2.835934 1_555
Ca4 O54 2.397386 1_555
Ca4 O25 2.397979 1_555
Ca4 O0 2.410015 1_655
Ca4 O41 2.460924 1_555
Ca4 O42 2.498009 1_555
Ca4 O28 2.514376 1_655
Ca4 O9 2.655961 1_555
Ca4 O44 2.673538 1_655
Ca4 O35 2.835934 1_555
Ca5 O55 2.397386 1_555
Ca5 O25 2.397979 1_555
Ca5 O1 2.410015 1_556
Ca5 O42 2.460924 1_555
Ca5 O43 2.498009 1_555
Ca5 O26 2.514376 1_556
Ca5 O10 2.655961 1_555
Ca5 O45 2.673538 1_556
Ca5 O36 2.835934 1_555
Ca6 O5 2.343234 1_554
Ca6 O34 2.384693 1_555
Ca6 O29 2.386844 1_455
Ca6 O17 2.412442 1_554
Ca6 O15 2.414943 1_455
Ca6 O44 2.528422 1_555
Ca6 O55 2.664312 1_554
Ca6 O9 2.696149 1_455
Ca7 O3 2.343234 1_545
Ca7 O32 2.384693 1_555
Ca7 O30 2.386844 1_554
Ca7 O15 2.412442 1_545
Ca7 O16 2.414943 1_554
Ca7 O45 2.528422 1_555
Ca7 O53 2.664312 1_545
Ca7 O10 2.696149 1_554
Ca8 O4 2.343234 1_455
Ca8 O33 2.384693 1_555
Ca8 O31 2.386844 1_545
Ca8 O16 2.412442 1_455
Ca8 O17 2.414943 1_545
Ca8 O46 2.528422 1_555
Ca8 O54 2.664312 1_455
Ca8 O11 2.696149 1_545
Ca9 O47 2.347223 1_555
Ca9 O36 2.351355 1_554
Ca9 O1 2.396798 1_555
Ca9 O13 2.426482 1_555
Ca9 O12 2.452475 1_555
Ca9 O26 2.485795 1_555
Ca9 O51 2.601802 1_555
Ca9 O6 2.674170 1_555
Ca10 O48 2.347223 1_555
Ca10 O37 2.351355 1_545
Ca10 O2 2.396798 1_555
Ca10 O14 2.426482 1_555
Ca10 O13 2.452475 1_555
Ca10 O27 2.485795 1_555
Ca10 O52 2.601802 1_555
Ca10 O7 2.674170 1_555
Ca11 O49 2.347223 1_555
Ca11 O35 2.351355 1_455
Ca11 O0 2.396798 1_555
Ca11 O12 2.426482 1_555
Ca11 O14 2.452475 1_555
Ca11 O28 2.485795 1_555
Ca11 O50 2.601802 1_555
Ca11 O8 2.674170 1_555
Ca12 O8 2.306987 1_655
Ca12 O42 2.338418 1_555
Ca12 O35 2.427678 1_555
Ca12 O51 2.445615 1_556
Ca12 O1 2.459995 1_556
Ca12 O20 2.518489 1_655
Ca12 O19 2.537772 1_556
Ca12 O28 2.880963 1_655
Ca13 O6 2.306987 1_556
Ca13 O43 2.338418 1_555
Ca13 O36 2.427678 1_555
Ca13 O52 2.445615 1_565
Ca13 O2 2.459995 1_565
Ca13 O18 2.518489 1_556
Ca13 O20 2.537772 1_565
Ca13 O26 2.880963 1_556
Ca14 O7 2.306987 1_565
Ca14 O41 2.338418 1_555
Ca14 O37 2.427678 1_555
Ca14 O50 2.445615 1_655
Ca14 O0 2.459996 1_655
Ca14 O19 2.518489 1_565
Ca14 O18 2.537772 1_655
Ca14 O27 2.880963 1_565
Ca15 O10 2.330238 1_555
Ca15 O40 2.373143 1_555
Ca15 O22 2.434812 1_555
Ca15 O23 2.445337 1_555
Ca15 O32 2.464131 1_556
Ca15 O5 2.486274 1_555
Ca15 O55 2.503403 1_555
Ca15 O30 2.770238 1_555
Ca16 O11 2.330238 1_555
Ca16 O38 2.373143 1_555
Ca16 O23 2.434812 1_555
Ca16 O21 2.445337 1_555
Ca16 O33 2.464131 1_565
Ca16 O3 2.486274 1_555
Ca16 O53 2.503403 1_555
Ca16 O31 2.770238 1_555
Ca17 O9 2.330238 1_555
Ca17 O39 2.373143 1_555
Ca17 O21 2.434812 1_555
Ca17 O22 2.445337 1_555
Ca17 O34 2.464131 1_655
Ca17 O4 2.486274 1_555
Ca17 O54 2.503403 1_555
Ca17 O29 2.770238 1_555
Ca18 O46 2.357492 1_555
Ca18 O45 2.357493 1_555
Ca18 O44 2.357493 1_555
Ca18 O32 2.613961 1_555
Ca18 O34 2.613961 1_555
Ca18 O33 2.613961 1_555
Mg0 O23 2.068779 1_555
Mg0 O22 2.068779 1_555
Mg0 O21 2.068779 1_555
Mg0 O13 2.081373 1_555
Mg0 O14 2.081373 1_555
Mg0 O12 2.081373 1_555
Mg1 O20 2.067626 1_665
Mg1 O18 2.067626 1_656
Mg1 O19 2.067626 1_566
Mg1 O16 2.072074 1_565
Mg1 O15 2.072074 1_556
Mg1 O17 2.072074 1_655
O0 P2 1.538270 1_555
O1 P3 1.538270 1_555
O2 P4 1.538270 1_555
O3 P5 1.551191 1_555
O4 P6 1.551191 1_555
O5 P7 1.551191 1_555
O6 P8 1.533831 1_555
O7 P9 1.533831 1_555
O8 P10 1.533831 1_555
O9 P11 1.527605 1_555
O10 P12 1.527605 1_555
O11 P13 1.527605 1_555
O12 P8 1.541987 1_555
O13 P9 1.541987 1_555
O14 P10 1.541987 1_555
O15 P11 1.545248 1_555
O16 P12 1.545248 1_555
O17 P13 1.545248 1_555
O18 P2 1.554107 1_555
O19 P3 1.554108 1_555
O20 P4 1.554107 1_555
O21 P5 1.559251 1_555
O22 P6 1.559251 1_555
O23 P7 1.559251 1_555
O24 P0 1.502686 1_555
O25 P1 1.550348 1_555
O26 P2 1.525206 1_555
O27 P3 1.525206 1_555
O28 P4 1.525206 1_555
O29 P5 1.533013 1_555
O30 P6 1.533013 1_555
O31 P7 1.533013 1_555
O32 P0 1.552767 1_555
O33 P0 1.552767 1_555
O34 P0 1.552767 1_555
O35 P1 1.536593 1_555
O36 P1 1.536593 1_555
O37 P1 1.536593 1_555
O38 P8 1.528623 1_555
O39 P9 1.528623 1_555
O40 P10 1.528623 1_555
O41 P11 1.530693 1_555
O42 P12 1.530693 1_555
O43 P13 1.530693 1_555
O44 P2 1.556470 1_555
O45 P3 1.556470 1_555
O46 P4 1.556470 1_555
O47 P5 1.521374 1_555
O48 P6 1.521374 1_555
O49 P7 1.521374 1_555
O50 P8 1.537633 1_555
O51 P9 1.537633 1_555
O52 P10 1.537633 1_555
O53 P11 1.538141 1_555
O54 P12 1.538140 1_555
O55 P13 1.538141 1_555
