# generated using pymatgen
data_Ta7Fe6
_symmetry_space_group_name_H-M   'P 1'
_cell_length_a   4.93865912
_cell_length_b   4.93865900
_cell_length_c   9.45788625
_cell_angle_alpha   74.86543655
_cell_angle_beta   74.86543747
_cell_angle_gamma   59.99999408
_symmetry_Int_Tables_number   1
_chemical_formula_structural   Ta7Fe6
_chemical_formula_sum   'Ta7 Fe6'
_cell_volume   190.48087038
_cell_formula_units_Z   1
loop_
 _symmetry_equiv_pos_site_id
 _symmetry_equiv_pos_as_xyz
  1  'x, y, z'
loop_
 _atom_site_type_symbol
 _atom_site_label
 _atom_site_symmetry_multiplicity
 _atom_site_fract_x
 _atom_site_fract_y
 _atom_site_fract_z
 _atom_site_occupancy
  Ta  Ta0  1  0.00000000  0.00000000  0.00000000  1
  Ta  Ta1  1  0.83312600  0.83312600  0.50062100  1
  Ta  Ta2  1  0.16687400  0.16687400  0.49937900  1
  Ta  Ta3  1  0.65241400  0.65241400  0.04275900  1
  Ta  Ta4  1  0.34758600  0.34758600  0.95724100  1
  Ta  Ta5  1  0.54909300  0.54909300  0.35272100  1
  Ta  Ta6  1  0.45090700  0.45090700  0.64727900  1
  Fe  Fe0  1  0.90812800  0.90812800  0.76577700  1
  Fe  Fe1  1  0.41796600  0.90812800  0.76577700  1
  Fe  Fe2  1  0.90812800  0.41796600  0.76577700  1
  Fe  Fe3  1  0.09187200  0.09187200  0.23422300  1
  Fe  Fe4  1  0.58203400  0.09187200  0.23422300  1
  Fe  Fe5  1  0.09187200  0.58203400  0.23422300  1
loop_
_geom_bond_atom_site_label_1
_geom_bond_atom_site_label_2
_geom_bond_distance
_geom_bond_site_symmetry_2
Ta0 Ta3 2.877288 1_445
Ta0 Ta4 2.877288 1_554
Ta0 Ta3 2.877292 1_455
Ta0 Ta4 2.877292 1_544
Ta0 Ta3 2.877292 1_545
Ta0 Ta4 2.877292 1_454
Ta1 Ta2 2.851355 1_655
Ta1 Ta2 2.851355 1_565
Ta1 Ta2 2.851364 1_665
Ta1 Ta6 3.143121 1_555
Ta1 Ta6 3.143125 1_565
Ta1 Ta6 3.143125 1_655
Ta1 Ta5 3.147850 1_555
Ta1 Ta5 3.147854 1_565
Ta1 Ta5 3.147854 1_655
Ta2 Ta5 3.143121 1_555
Ta2 Ta5 3.143125 1_545
Ta2 Ta5 3.143125 1_455
Ta2 Ta6 3.147850 1_555
Ta2 Ta6 3.147854 1_545
Ta2 Ta6 3.147854 1_455
Ta3 Ta5 2.795189 1_555
Ta3 Ta4 2.953782 1_564
Ta3 Ta4 2.953783 1_654
Ta3 Ta4 2.953791 1_554
Ta4 Ta6 2.795189 1_555
Ta5 Ta6 2.656278 1_555
Fe0 Fe2 2.420743 1_555
Fe0 Fe1 2.420743 1_555
Fe0 Fe2 2.517916 1_565
Fe0 Fe1 2.517916 1_655
Fe0 Ta0 2.564106 1_666
Fe0 Ta6 2.690775 1_565
Fe0 Ta6 2.690775 1_655
Fe0 Ta1 2.769632 1_555
Fe0 Ta2 2.807941 1_665
Fe0 Ta3 2.862206 1_556
Fe0 Ta4 3.013220 1_655
Fe0 Ta4 3.013220 1_565
Fe1 Fe2 2.420743 1_555
Fe1 Fe2 2.517916 1_465
Fe1 Ta0 2.564104 1_566
Fe1 Ta6 2.690773 1_555
Fe1 Ta6 2.690778 1_565
Fe1 Ta1 2.769632 1_555
Fe1 Ta2 2.807936 1_565
Fe1 Ta3 2.862210 1_556
Fe1 Ta4 3.013220 1_555
Fe1 Ta4 3.013220 1_565
Fe2 Ta0 2.564103 1_656
Fe2 Ta6 2.690773 1_555
Fe2 Ta6 2.690778 1_655
Fe2 Ta1 2.769632 1_555
Fe2 Ta2 2.807936 1_655
Fe2 Ta3 2.862210 1_556
Fe2 Ta4 3.013220 1_555
Fe2 Ta4 3.013220 1_655
Fe3 Fe5 2.420743 1_555
Fe3 Fe4 2.420743 1_555
Fe3 Fe5 2.517916 1_545
Fe3 Fe4 2.517916 1_455
Fe3 Ta0 2.564106 1_555
Fe3 Ta5 2.690775 1_545
Fe3 Ta5 2.690775 1_455
Fe3 Ta2 2.769632 1_555
Fe3 Ta1 2.807941 1_445
Fe3 Ta4 2.862206 1_554
Fe3 Ta3 3.013220 1_455
Fe3 Ta3 3.013220 1_545
Fe4 Fe5 2.420743 1_555
Fe4 Fe5 2.517916 1_645
Fe4 Ta0 2.564104 1_655
Fe4 Ta5 2.690773 1_555
Fe4 Ta5 2.690778 1_545
Fe4 Ta2 2.769632 1_555
Fe4 Ta1 2.807936 1_545
Fe4 Ta4 2.862210 1_554
Fe4 Ta3 3.013220 1_555
Fe4 Ta3 3.013220 1_545
Fe5 Ta0 2.564103 1_565
Fe5 Ta5 2.690773 1_555
Fe5 Ta5 2.690778 1_455
Fe5 Ta2 2.769632 1_555
Fe5 Ta1 2.807936 1_455
Fe5 Ta4 2.862210 1_554
Fe5 Ta3 3.013220 1_555
Fe5 Ta3 3.013220 1_455
