# generated using pymatgen
data_Sm9Ga5Se21
_symmetry_space_group_name_H-M   'P 1'
_cell_length_a   12.18956293
_cell_length_b   12.18974397
_cell_length_c   12.18955129
_cell_angle_alpha   95.10227174
_cell_angle_beta   84.90150884
_cell_angle_gamma   84.90019652
_symmetry_Int_Tables_number   1
_chemical_formula_structural   Sm9Ga5Se21
_chemical_formula_sum   'Sm18 Ga10 Se42'
_cell_volume   1788.32926479
_cell_formula_units_Z   2
loop_
 _symmetry_equiv_pos_site_id
 _symmetry_equiv_pos_as_xyz
  1  'x, y, z'
loop_
 _atom_site_type_symbol
 _atom_site_label
 _atom_site_symmetry_multiplicity
 _atom_site_fract_x
 _atom_site_fract_y
 _atom_site_fract_z
 _atom_site_occupancy
  Sm  Sm0  1  0.25863738  0.11247801  0.88024598  1
  Sm  Sm1  1  0.91866848  0.45623525  0.22632255  1
  Sm  Sm2  1  0.60220450  0.77420880  0.55088640  1
  Sm  Sm3  1  0.44911517  0.39779583  0.77421360  1
  Sm  Sm4  1  0.11975006  0.74135753  0.11248175  1
  Sm  Sm5  1  0.77367757  0.08132816  0.45623564  1
  Sm  Sm6  1  0.54375932  0.22632173  0.08132542  1
  Sm  Sm7  1  0.22579601  0.55088751  0.39779678  1
  Sm  Sm8  1  0.88752030  0.88024718  0.74136360  1
  Sm  Sm9  1  0.41790171  0.21066040  0.43744118  1
  Sm  Sm10  1  0.07119377  0.55357916  0.78288768  1
  Sm  Sm11  1  0.75091421  0.87309010  0.10372314  1
  Sm  Sm12  1  0.21711131  0.92880807  0.55358144  1
  Sm  Sm13  1  0.89626571  0.24909475  0.87309045  1
  Sm  Sm14  1  0.56255836  0.58210016  0.21065805  1
  Sm  Sm15  1  0.12690462  0.10373028  0.24909225  1
  Sm  Sm16  1  0.78934386  0.43743924  0.58209867  1
  Sm  Sm17  1  0.44641231  0.78289754  0.92881554  1
  Ga  Ga0  1  0.94979803  0.72114781  0.38801315  1
  Ga  Ga1  1  0.61200318  0.05020874  0.72115209  1
  Ga  Ga2  1  0.27885288  0.38799752  0.05020614  1
  Ga  Ga3  1  0.44854630  0.88432763  0.22365305  1
  Ga  Ga4  1  0.11567199  0.22365898  0.55145782  1
  Ga  Ga5  1  0.77633914  0.55146050  0.88432018  1
  Ga  Ga6  1  0.14799410  0.85200440  0.85200827  1
  Ga  Ga7  1  0.85360824  0.14639207  0.14637436  1
  Ga  Ga8  1  0.35418005  0.64582176  0.64582537  1
  Ga  Ga9  1  0.64776683  0.35223334  0.35223647  1
  Se  Se0  1  0.69365045  0.55842291  0.40576708  1
  Se  Se1  1  0.34076296  0.89621798  0.75554133  1
  Se  Se2  1  0.01297417  0.23857761  0.08961959  1
  Se  Se3  1  0.91036925  0.98702619  0.23857254  1
  Se  Se4  1  0.59423723  0.30636303  0.55842571  1
  Se  Se5  1  0.24445732  0.65923434  0.89622094  1
  Se  Se6  1  0.10378852  0.75553893  0.65924213  1
  Se  Se7  1  0.76141136  0.08962129  0.98700670  1
  Se  Se8  1  0.44158192  0.40576985  0.30634845  1
  Se  Se9  1  0.61998555  0.14411231  0.28524884  1
  Se  Se10  1  0.27514897  0.47254147  0.61784083  1
  Se  Se11  1  0.95980917  0.78819043  0.94334946  1
  Se  Se12  1  0.38216481  0.72484178  0.47254042  1
  Se  Se13  1  0.05664343  0.04019334  0.78818493  1
  Se  Se14  1  0.71474538  0.38001211  0.14410525  1
  Se  Se15  1  0.21181459  0.94335247  0.04019654  1
  Se  Se16  1  0.85589039  0.28525666  0.38002001  1
  Se  Se17  1  0.52745586  0.61784857  0.72485769  1
  Se  Se18  1  0.98704854  0.53867033  0.44860623  1
  Se  Se19  1  0.64485227  0.86825686  0.78254649  1
  Se  Se20  1  0.30696781  0.20165513  0.10674230  1
  Se  Se21  1  0.89325460  0.69303044  0.20165502  1
  Se  Se22  1  0.55139748  0.01294772  0.53866594  1
  Se  Se23  1  0.21745626  0.35514950  0.86824938  1
  Se  Se24  1  0.13174998  0.78254420  0.35515488  1
  Se  Se25  1  0.79834803  0.10674207  0.69303501  1
  Se  Se26  1  0.46133121  0.44859902  0.01295032  1
  Se  Se27  1  0.52343834  0.96694396  0.06345412  1
  Se  Se28  1  0.18823993  0.29936234  0.38579988  1
  Se  Se29  1  0.84418854  0.63155278  0.71864606  1
  Se  Se30  1  0.61419986  0.81175846  0.29936953  1
  Se  Se31  1  0.28135823  0.15579880  0.63155378  1
  Se  Se32  1  0.93654896  0.47657027  0.96694380  1
  Se  Se33  1  0.36844587  0.71864902  0.15580276  1
  Se  Se34  1  0.03305249  0.06345065  0.47656608  1
  Se  Se35  1  0.70063138  0.38579899  0.81175954  1
  Se  Se36  1  0.82297886  0.84776655  0.51171196  1
  Se  Se37  1  0.48829116  0.17701258  0.84776463  1
  Se  Se38  1  0.15223588  0.51170803  0.17702358  1
  Se  Se39  1  0.65242852  0.67830986  0.01085587  1
  Se  Se40  1  0.32168995  0.01085374  0.34757026  1
  Se  Se41  1  0.98914512  0.34756899  0.67831114  1
loop_
_geom_bond_atom_site_label_1
_geom_bond_atom_site_label_2
_geom_bond_distance
_geom_bond_site_symmetry_2
Ga0 Se36 2.406886 1_555
Ga0 Se24 2.414582 1_655
Ga0 Se18 2.423165 1_555
Ga0 Se21 2.436100 1_555
Ga1 Se37 2.406828 1_555
Ga1 Se19 2.414598 1_545
Ga1 Se22 2.423251 1_555
Ga1 Se25 2.435946 1_555
Ga2 Se38 2.406936 1_555
Ga2 Se23 2.414573 1_554
Ga2 Se26 2.423188 1_555
Ga2 Se20 2.435970 1_555
Ga3 Se40 2.407894 1_565
Ga3 Se27 2.420168 1_555
Ga3 Se30 2.422932 1_555
Ga3 Se33 2.431681 1_555
Ga4 Se41 2.407835 1_455
Ga4 Se34 2.420205 1_555
Ga4 Se28 2.422948 1_555
Ga4 Se31 2.431779 1_555
Ga5 Se39 2.407869 1_556
Ga5 Se32 2.420259 1_555
Ga5 Se35 2.422913 1_555
Ga5 Se29 2.431650 1_555
Ga6 Se6 2.653403 1_555
Ga6 Se1 2.653557 1_555
Ga6 Se5 2.653558 1_555
Ga6 Se11 2.669090 1_455
Ga6 Se15 2.669095 1_556
Ga6 Se13 2.669230 1_565
Ga7 Se2 2.408848 1_655
Ga7 Se7 2.408914 1_554
Ga7 Se3 2.408972 1_545
Ga8 Se17 2.407820 1_555
Ga8 Se10 2.407901 1_555
Ga8 Se12 2.407922 1_555
Ga9 Se9 2.655358 1_555
Ga9 Se16 2.655363 1_555
Ga9 Se14 2.655473 1_555
Ga9 Se8 2.660575 1_555
Ga9 Se4 2.660583 1_555
Ga9 Se0 2.660608 1_555
Se0 Sm16 2.976422 1_555
Se0 Sm14 3.001433 1_555
Se0 Sm2 3.096967 1_555
Se0 Sm1 3.420682 1_555
Se1 Sm17 2.951923 1_555
Se1 Sm0 2.968125 1_565
Se1 Sm12 3.035970 1_555
Se2 Sm15 3.008597 1_555
Se2 Sm1 3.077097 1_455
Se2 Sm13 3.114776 1_454
Se3 Sm11 3.008401 1_555
Se3 Sm5 3.077088 1_565
Se3 Sm15 3.114849 1_665
Se4 Sm9 2.976433 1_555
Se4 Sm16 3.001310 1_555
Se4 Sm3 3.096980 1_555
Se4 Sm5 3.420803 1_555
Se5 Sm10 2.951859 1_555
Se5 Sm4 2.968148 1_556
Se5 Sm17 3.036017 1_555
Se6 Sm12 2.951999 1_555
Se6 Sm8 2.968235 1_455
Se6 Sm10 3.036039 1_555
Se7 Sm13 3.008610 1_555
Se7 Sm6 3.077093 1_556
Se7 Sm11 3.114944 1_546
Se8 Sm14 2.976386 1_555
Se8 Sm9 3.001554 1_555
Se8 Sm7 3.096991 1_555
Se8 Sm6 3.420674 1_555
Se9 Sm9 2.955067 1_555
Se9 Sm6 2.955417 1_555
Se9 Sm5 3.026950 1_555
Se10 Sm7 3.018054 1_555
Se10 Sm10 3.086272 1_555
Se10 Sm3 3.105492 1_555
Se11 Sm8 2.966300 1_555
Se11 Sm4 3.017140 1_656
Se11 Sm11 3.108595 1_556
Se11 Sm10 3.419164 1_655
Se12 Sm2 3.017995 1_555
Se12 Sm12 3.086417 1_555
Se12 Sm7 3.105334 1_555
Se13 Sm0 2.966333 1_555
Se13 Sm8 3.017082 1_445
Se13 Sm13 3.108688 1_455
Se13 Sm12 3.419143 1_545
Se14 Sm14 2.955075 1_555
Se14 Sm1 2.955387 1_555
Se14 Sm6 3.026908 1_555
Se15 Sm4 2.966467 1_555
Se15 Sm0 3.017237 1_564
Se15 Sm15 3.108607 1_565
Se15 Sm17 3.419017 1_554
Se16 Sm16 2.954901 1_555
Se16 Sm5 2.955494 1_555
Se16 Sm1 3.026992 1_555
Se17 Sm3 3.018175 1_555
Se17 Sm17 3.086275 1_555
Se17 Sm2 3.105531 1_555
Se18 Sm7 2.940797 1_655
Se18 Sm1 3.018632 1_555
Se18 Sm16 3.188599 1_555
Se19 Sm8 2.974764 1_555
Se19 Sm2 3.057715 1_555
Se19 Sm17 3.181751 1_555
Se20 Sm6 2.920537 1_555
Se20 Sm0 3.003393 1_554
Se20 Sm15 3.067663 1_555
Se21 Sm1 2.920627 1_555
Se21 Sm4 3.003444 1_655
Se21 Sm11 3.067592 1_555
Se22 Sm2 2.940730 1_545
Se22 Sm5 3.018670 1_555
Se22 Sm9 3.188641 1_555
Se23 Sm0 2.974851 1_555
Se23 Sm3 3.057739 1_555
Se23 Sm10 3.181614 1_555
Se24 Sm4 2.974807 1_555
Se24 Sm7 3.057757 1_555
Se24 Sm12 3.181482 1_555
Se25 Sm5 2.920608 1_555
Se25 Sm8 3.003461 1_545
Se25 Sm13 3.067445 1_555
Se26 Sm3 2.940611 1_554
Se26 Sm6 3.018631 1_555
Se26 Sm14 3.188525 1_555
Se27 Sm17 2.932866 1_554
Se27 Sm11 3.002703 1_555
Se27 Sm6 3.183046 1_565
Se28 Sm15 2.975616 1_555
Se28 Sm9 3.049355 1_555
Se28 Sm7 3.132598 1_555
Se29 Sm16 2.931671 1_555
Se29 Sm10 3.037000 1_655
Se29 Sm8 3.115629 1_555
Se30 Sm11 2.975875 1_555
Se30 Sm14 3.049340 1_555
Se30 Sm2 3.132462 1_555
Se31 Sm9 2.931805 1_555
Se31 Sm12 3.036856 1_545
Se31 Sm0 3.115564 1_555
Se32 Sm10 2.933008 1_655
Se32 Sm13 3.002730 1_555
Se32 Sm1 3.183062 1_556
Se33 Sm14 2.931772 1_555
Se33 Sm17 3.036864 1_554
Se33 Sm4 3.115568 1_555
Se34 Sm12 2.933007 1_545
Se34 Sm15 3.002750 1_555
Se34 Sm5 3.182989 1_455
Se35 Sm13 2.975653 1_555
Se35 Sm16 3.049426 1_555
Se35 Sm3 3.132413 1_555
Se36 Sm2 2.924209 1_555
Se36 Sm8 2.976868 1_555
Se36 Sm5 3.005772 1_565
Se37 Sm3 2.924327 1_555
Se37 Sm0 2.976916 1_555
Se37 Sm6 3.005638 1_556
Se38 Sm7 2.924153 1_555
Se38 Sm4 2.976953 1_555
Se38 Sm1 3.005779 1_455
Se39 Sm11 2.937731 1_555
Se39 Sm14 2.961310 1_555
Se39 Sm17 3.005951 1_554
Se40 Sm15 2.937797 1_555
Se40 Sm9 2.961283 1_555
Se40 Sm12 3.005946 1_545
Se41 Sm13 2.937793 1_555
Se41 Sm16 2.961251 1_555
Se41 Sm10 3.005852 1_655
