# generated using pymatgen
data_Li5Mn2CoO8
_symmetry_space_group_name_H-M   'P 1'
_cell_length_a   5.71450222
_cell_length_b   10.04828538
_cell_length_c   5.87317867
_cell_angle_alpha   104.68476243
_cell_angle_beta   119.11436702
_cell_angle_gamma   73.45949347
_symmetry_Int_Tables_number   1
_chemical_formula_structural   Li5Mn2CoO8
_chemical_formula_sum   'Li10 Mn4 Co2 O16'
_cell_volume   279.76602138
_cell_formula_units_Z   2
loop_
 _symmetry_equiv_pos_site_id
 _symmetry_equiv_pos_as_xyz
  1  'x, y, z'
loop_
 _atom_site_type_symbol
 _atom_site_label
 _atom_site_symmetry_multiplicity
 _atom_site_fract_x
 _atom_site_fract_y
 _atom_site_fract_z
 _atom_site_occupancy
  Li  Li0  1  0.25008000  0.75047900  0.75066400  1
  Li  Li1  1  0.74985100  0.24952700  0.24929900  1
  Li  Li2  1  0.25003500  0.25005900  0.25007500  1
  Li  Li3  1  0.75000400  0.74993300  0.74988700  1
  Li  Li4  1  0.99996900  0.99999300  0.49994400  1
  Li  Li5  1  0.50006500  0.50001900  0.00008700  1
  Li  Li6  1  0.24990900  0.74979000  0.24983200  1
  Li  Li7  1  0.75008700  0.25023800  0.75016900  1
  Li  Li8  1  0.24987000  0.25020800  0.75019200  1
  Li  Li9  1  0.75014500  0.74976400  0.24985100  1
  Mn  Mn0  1  0.99990400  0.00003200  0.99991000  1
  Mn  Mn1  1  0.49999200  0.49997100  0.50006600  1
  Mn  Mn2  1  0.50001100  0.99996100  0.00007700  1
  Mn  Mn3  1  0.99983600  0.50002300  0.50000800  1
  Co  Co0  1  0.99997700  0.50006600  0.00008400  1
  Co  Co1  1  0.49999000  0.99993000  0.49993900  1
  O  O0  1  0.86416200  0.88512300  0.11305900  1
  O  O1  1  0.36437800  0.38486100  0.61333700  1
  O  O2  1  0.13593900  0.11479800  0.88678500  1
  O  O3  1  0.63565300  0.61523800  0.38676600  1
  O  O4  1  0.35872900  0.87915100  0.09606600  1
  O  O5  1  0.85783400  0.37902800  0.59473000  1
  O  O6  1  0.64154700  0.12079900  0.90384100  1
  O  O7  1  0.14194600  0.62099300  0.40536600  1
  O  O8  1  0.86286000  0.89465900  0.64972400  1
  O  O9  1  0.36067100  0.39498900  0.14817800  1
  O  O10  1  0.39240600  0.89466900  0.64961300  1
  O  O11  1  0.89244500  0.39495500  0.14825900  1
  O  O12  1  0.13731900  0.10530500  0.35024200  1
  O  O13  1  0.63917600  0.60508500  0.85185800  1
  O  O14  1  0.60776900  0.10532000  0.35011000  1
  O  O15  1  0.10744200  0.60503400  0.85198200  1
loop_
_geom_bond_atom_site_label_1
_geom_bond_atom_site_label_2
_geom_bond_distance
_geom_bond_site_symmetry_2
Li0 O4 2.018428 1_556
Li0 O7 2.021887 1_555
Li0 O8 2.163402 1_455
Li0 O10 2.165541 1_555
Li0 O13 2.176282 1_555
Li0 O15 2.178438 1_555
Li1 O6 2.018922 1_554
Li1 O5 2.022498 1_555
Li1 O14 2.163828 1_555
Li1 O12 2.164580 1_655
Li1 O9 2.176947 1_555
Li1 O11 2.177097 1_555
Li2 O14 2.052083 1_555
Li2 O11 2.052165 1_455
Li2 O12 2.052479 1_555
Li2 O9 2.052553 1_555
Li2 O1 2.120313 1_555
Li2 O2 2.122604 1_554
Li3 O10 2.051533 1_555
Li3 O15 2.051593 1_655
Li3 O8 2.052743 1_555
Li3 O13 2.052821 1_555
Li3 O3 2.119231 1_555
Li3 O0 2.121786 1_556
Li4 O14 2.029773 1_565
Li4 O8 2.030505 1_555
Li4 O10 2.030745 1_655
Li4 O12 2.031022 1_665
Li4 O2 2.135441 1_665
Li4 O0 2.135879 1_555
Li5 O11 2.029455 1_555
Li5 O13 2.030201 1_554
Li5 O15 2.030331 1_554
Li5 O9 2.030535 1_555
Li5 O3 2.136287 1_555
Li5 O1 2.136370 1_554
Li6 O3 2.112593 1_555
Li6 O0 2.116030 1_455
Li6 O7 2.119537 1_555
Li6 O4 2.119860 1_555
Li6 O15 2.310484 1_554
Li6 O10 2.318802 1_555
Li7 O1 2.112750 1_555
Li7 O2 2.116878 1_655
Li7 O5 2.118242 1_555
Li7 O6 2.119012 1_555
Li7 O11 2.311233 1_556
Li7 O14 2.320064 1_555
Li8 O1 2.114766 1_555
Li8 O2 2.117750 1_555
Li8 O5 2.117937 1_455
Li8 O6 2.118301 1_555
Li8 O9 2.311105 1_556
Li8 O12 2.319568 1_555
Li9 O3 2.113897 1_555
Li9 O7 2.116847 1_655
Li9 O4 2.117256 1_555
Li9 O0 2.118467 1_555
Li9 O13 2.310635 1_554
Li9 O8 2.319172 1_555
Mn0 O8 1.940391 1_545
Mn0 O12 1.940711 1_656
Mn0 O2 1.943479 1_655
Mn0 O0 1.943486 1_546
Mn0 O6 1.947400 1_555
Mn0 O4 1.949784 1_646
Mn1 O1 1.945046 1_555
Mn1 O5 1.946486 1_555
Mn1 O3 1.946614 1_555
Mn1 O9 1.946691 1_555
Mn1 O13 1.946762 1_555
Mn1 O7 1.947643 1_555
Mn2 O14 1.939632 1_565
Mn2 O10 1.941366 1_554
Mn2 O2 1.943692 1_564
Mn2 O0 1.944080 1_555
Mn2 O4 1.947105 1_555
Mn2 O6 1.949341 1_564
Mn3 O3 1.945596 1_555
Mn3 O11 1.946406 1_555
Mn3 O7 1.946759 1_655
Mn3 O5 1.946815 1_555
Mn3 O1 1.946887 1_655
Mn3 O15 1.947159 1_655
Co0 O15 1.897364 1_654
Co0 O9 1.897815 1_655
Co0 O13 1.898089 1_554
Co0 O11 1.899057 1_555
Co0 O7 2.239687 1_655
Co0 O5 2.240423 1_554
Co1 O10 1.907087 1_555
Co1 O12 1.907537 1_565
Co1 O8 1.907998 1_555
Co1 O14 1.909552 1_565
Co1 O4 2.232932 1_555
Co1 O6 2.233400 1_565
