# generated using pymatgen
data_DyAl3
_symmetry_space_group_name_H-M   'P 1'
_cell_length_a   7.84544926
_cell_length_b   7.84544926
_cell_length_c   7.84544884
_cell_angle_alpha   46.30302002
_cell_angle_beta   46.30302002
_cell_angle_gamma   46.30302206
_symmetry_Int_Tables_number   1
_chemical_formula_structural   DyAl3
_chemical_formula_sum   'Dy3 Al9'
_cell_volume   230.39507156
_cell_formula_units_Z   3
loop_
 _symmetry_equiv_pos_site_id
 _symmetry_equiv_pos_as_xyz
  1  'x, y, z'
loop_
 _atom_site_type_symbol
 _atom_site_label
 _atom_site_symmetry_multiplicity
 _atom_site_fract_x
 _atom_site_fract_y
 _atom_site_fract_z
 _atom_site_occupancy
  Dy  Dy0  1  0.00000000  -0.00000000  0.00000000  1
  Dy  Dy1  1  0.78236128  0.78236128  0.78236128  1
  Dy  Dy2  1  0.21763872  0.21763872  0.21763872  1
  Al  Al0  1  0.50000000  0.50000000  0.00000000  1
  Al  Al1  1  0.00000000  0.50000000  0.50000000  1
  Al  Al2  1  0.50000000  -0.00000000  0.50000000  1
  Al  Al3  1  0.70196402  0.26477353  0.70196402  1
  Al  Al4  1  0.70196402  0.70196402  0.26477353  1
  Al  Al5  1  0.26477353  0.70196402  0.70196402  1
  Al  Al6  1  0.29803598  0.73522647  0.29803598  1
  Al  Al7  1  0.29803598  0.29803598  0.73522647  1
  Al  Al8  1  0.73522647  0.29803598  0.29803598  1
loop_
_geom_bond_atom_site_label_1
_geom_bond_atom_site_label_2
_geom_bond_distance
_geom_bond_site_symmetry_2
Al0 Al3 2.861206 1_554
Al0 Al5 2.861206 1_554
Al0 Al8 2.861206 1_555
Al0 Al6 2.861206 1_555
Al0 Dy2 3.009672 1_555
Al0 Dy1 3.009672 1_554
Al0 Al2 3.084547 1_564
Al0 Al1 3.084547 1_555
Al0 Al2 3.084547 1_555
Al0 Al1 3.084547 1_654
Al0 Dy0 3.084548 1_655
Al0 Dy0 3.084548 1_565
Al1 Al4 2.861206 1_455
Al1 Al7 2.861206 1_555
Al1 Al3 2.861206 1_455
Al1 Al6 2.861206 1_555
Al1 Dy2 3.009672 1_555
Al1 Dy1 3.009672 1_455
Al1 Dy0 3.084547 1_556
Al1 Dy0 3.084547 1_565
Al1 Al2 3.084548 1_555
Al1 Al2 3.084548 1_465
Al2 Al4 2.861206 1_545
Al2 Al7 2.861206 1_555
Al2 Al5 2.861206 1_545
Al2 Al8 2.861206 1_555
Al2 Dy2 3.009672 1_555
Al2 Dy1 3.009672 1_545
Al2 Dy0 3.084547 1_556
Al2 Dy0 3.084547 1_655
Al3 Al4 2.697069 1_555
Al3 Al5 2.697070 1_555
Al3 Al8 2.826231 1_555
Al3 Al7 2.826231 1_555
Al3 Dy1 3.012114 1_545
Al3 Dy0 3.062955 1_656
Al3 Dy2 3.094617 1_556
Al3 Dy2 3.094617 1_655
Al4 Al5 2.697069 1_555
Al4 Al6 2.826231 1_555
Al4 Al8 2.826231 1_555
Al4 Dy1 3.012114 1_554
Al4 Dy0 3.062955 1_665
Al4 Dy2 3.094617 1_655
Al4 Dy2 3.094617 1_565
Al5 Al6 2.826231 1_555
Al5 Al7 2.826231 1_555
Al5 Dy1 3.012114 1_455
Al5 Dy0 3.062955 1_566
Al5 Dy2 3.094617 1_556
Al5 Dy2 3.094617 1_565
Al6 Al7 2.697069 1_555
Al6 Al8 2.697070 1_555
Al6 Dy2 3.012114 1_565
Al6 Dy0 3.062955 1_565
Al6 Dy1 3.094617 1_554
Al6 Dy1 3.094617 1_455
Al7 Al8 2.697069 1_555
Al7 Dy2 3.012114 1_556
Al7 Dy0 3.062955 1_556
Al7 Dy1 3.094617 1_455
Al7 Dy1 3.094617 1_545
Al8 Dy2 3.012114 1_655
Al8 Dy0 3.062955 1_655
Al8 Dy1 3.094617 1_554
Al8 Dy1 3.094617 1_545
