# generated using pymatgen
data_CdH8C2S2(N2Cl)2
_symmetry_space_group_name_H-M   'P 1'
_cell_length_a   13.21779300
_cell_length_b   6.13702900
_cell_length_c   7.23919100
_cell_angle_alpha   90.00000000
_cell_angle_beta   90.00000000
_cell_angle_gamma   90.00000000
_symmetry_Int_Tables_number   1
_chemical_formula_structural   CdH8C2S2(N2Cl)2
_chemical_formula_sum   'Cd2 H16 C4 S4 N8 Cl4'
_cell_volume   587.22854320
_cell_formula_units_Z   2
loop_
 _symmetry_equiv_pos_site_id
 _symmetry_equiv_pos_as_xyz
  1  'x, y, z'
loop_
 _atom_site_type_symbol
 _atom_site_label
 _atom_site_symmetry_multiplicity
 _atom_site_fract_x
 _atom_site_fract_y
 _atom_site_fract_z
 _atom_site_occupancy
  Cd  Cd0  1  0.50000000  0.27915600  0.49063300  1
  Cd  Cd1  1  0.00000000  0.72084400  0.99063300  1
  H  H0  1  0.08987800  0.38611600  0.56690300  1
  H  H1  1  0.91012200  0.38611600  0.56690300  1
  H  H2  1  0.41012200  0.61388400  0.06690300  1
  H  H3  1  0.58987800  0.61388400  0.06690300  1
  H  H4  1  0.12628900  0.11124700  0.57505900  1
  H  H5  1  0.87371100  0.11124700  0.57505900  1
  H  H6  1  0.37371100  0.88875300  0.07505900  1
  H  H7  1  0.62628900  0.88875300  0.07505900  1
  H  H8  1  0.20665800  0.65207000  0.55321100  1
  H  H9  1  0.79334200  0.65207000  0.55321100  1
  H  H10  1  0.29334200  0.34793000  0.05321100  1
  H  H11  1  0.70665800  0.34793000  0.05321100  1
  H  H12  1  0.33672800  0.60010000  0.57594700  1
  H  H13  1  0.66327200  0.60010000  0.57594700  1
  H  H14  1  0.16327200  0.39990000  0.07594700  1
  H  H15  1  0.83672800  0.39990000  0.07594700  1
  C  C0  1  0.24286600  0.33065800  0.57550100  1
  C  C1  1  0.75713400  0.33065800  0.57550100  1
  C  C2  1  0.25713400  0.66934200  0.07550100  1
  C  C3  1  0.74286600  0.66934200  0.07550100  1
  S  S0  1  0.33194700  0.12821500  0.60369500  1
  S  S1  1  0.66805300  0.12821500  0.60369500  1
  S  S2  1  0.16805300  0.87178500  0.10369500  1
  S  S3  1  0.83194700  0.87178500  0.10369500  1
  N  N0  1  0.14544400  0.27076900  0.56664900  1
  N  N1  1  0.85455600  0.27076900  0.56664900  1
  N  N2  1  0.35455600  0.72923100  0.06664900  1
  N  N3  1  0.64544400  0.72923100  0.06664900  1
  N  N4  1  0.26409100  0.54238100  0.56482700  1
  N  N5  1  0.73590900  0.54238100  0.56482700  1
  N  N6  1  0.23590900  0.45761900  0.06482700  1
  N  N7  1  0.76409100  0.45761900  0.06482700  1
  Cl  Cl0  1  0.50000000  0.25798500  0.13288600  1
  Cl  Cl1  1  0.00000000  0.74201500  0.63288600  1
  Cl  Cl2  1  0.50000000  0.68275600  0.57231600  1
  Cl  Cl3  1  0.00000000  0.31724400  0.07231600  1
loop_
_geom_bond_atom_site_label_1
_geom_bond_atom_site_label_2
_geom_bond_distance
_geom_bond_site_symmetry_2
Cd0 S1 2.542070 1_555
Cd0 S0 2.542070 1_555
Cd0 Cl2 2.546511 1_555
Cd0 Cl0 2.593056 1_555
Cd1 S2 2.542070 1_556
Cd1 S3 2.542070 1_456
Cd1 Cl3 2.546511 1_556
Cd1 Cl1 2.593056 1_555
H0 N0 1.020069 1_555
H1 N1 1.020069 1_555
H2 N2 1.020069 1_555
H3 N3 1.020069 1_555
H4 N0 1.013032 1_555
H5 N1 1.013032 1_555
H6 N2 1.013032 1_555
H7 N3 1.013032 1_555
H8 N4 1.018092 1_555
H9 N5 1.018092 1_555
H10 N6 1.018092 1_555
H11 N7 1.018092 1_555
H12 N4 1.026522 1_555
H13 N5 1.026522 1_555
H14 N6 1.026522 1_555
H15 N7 1.026522 1_555
C0 N4 1.331536 1_555
C0 N0 1.340662 1_555
C0 S0 1.723836 1_555
C1 N5 1.331536 1_555
C1 N1 1.340662 1_555
C1 S1 1.723836 1_555
C2 N6 1.331536 1_555
C2 N2 1.340662 1_555
C2 S2 1.723836 1_555
C3 N7 1.331536 1_555
C3 N3 1.340662 1_555
C3 S3 1.723836 1_555
