# generated using pymatgen
data_NaBOF2
_symmetry_space_group_name_H-M   'P 1'
_cell_length_a   6.91740247
_cell_length_b   6.91740247
_cell_length_c   9.44267219
_cell_angle_alpha   69.68491202
_cell_angle_beta   69.68491202
_cell_angle_gamma   60.34978040
_symmetry_Int_Tables_number   1
_chemical_formula_structural   NaBOF2
_chemical_formula_sum   'Na6 B6 O6 F12'
_cell_volume   359.61607865
_cell_formula_units_Z   6
loop_
 _symmetry_equiv_pos_site_id
 _symmetry_equiv_pos_as_xyz
  1  'x, y, z'
loop_
 _atom_site_type_symbol
 _atom_site_label
 _atom_site_symmetry_multiplicity
 _atom_site_fract_x
 _atom_site_fract_y
 _atom_site_fract_z
 _atom_site_occupancy
  Na  Na0  1  0.00000000  0.50000000  0.00000000  1
  Na  Na1  1  0.50000000  0.00000000  0.50000000  1
  Na  Na2  1  0.13138900  0.68230100  0.49815100  1
  Na  Na3  1  0.31769900  0.86861100  0.00184900  1
  Na  Na4  1  0.86861100  0.31769900  0.50184900  1
  Na  Na5  1  0.68230100  0.13138900  0.99815100  1
  B  B0  1  0.78919300  0.21080700  0.25000000  1
  B  B1  1  0.21080700  0.78919300  0.75000000  1
  B  B2  1  0.37072200  0.42075100  0.24563600  1
  B  B3  1  0.57924900  0.62927800  0.25436400  1
  B  B4  1  0.62927800  0.57924900  0.75436400  1
  B  B5  1  0.42075100  0.37072200  0.74563600  1
  O  O0  1  0.58155800  0.21831700  0.24462500  1
  O  O1  1  0.78168300  0.41844200  0.25537500  1
  O  O2  1  0.41844200  0.78168300  0.75537500  1
  O  O3  1  0.21831700  0.58155800  0.74462500  1
  O  O4  1  0.37747700  0.62252300  0.25000000  1
  O  O5  1  0.62252300  0.37747700  0.75000000  1
  F  F0  1  0.19952700  0.37325500  0.38238900  1
  F  F1  1  0.62674500  0.80047300  0.11761100  1
  F  F2  1  0.80047300  0.62674500  0.61761100  1
  F  F3  1  0.37325500  0.19952700  0.88238900  1
  F  F4  1  0.87307600  0.03419000  0.38498700  1
  F  F5  1  0.96581000  0.12692400  0.11501300  1
  F  F6  1  0.12692400  0.96581000  0.61501300  1
  F  F7  1  0.03419000  0.87307600  0.88498700  1
  F  F8  1  0.28221900  0.46573600  0.11229600  1
  F  F9  1  0.53426400  0.71778100  0.38770400  1
  F  F10  1  0.71778100  0.53426400  0.88770400  1
  F  F11  1  0.46573600  0.28221900  0.61229600  1
loop_
_geom_bond_atom_site_label_1
_geom_bond_atom_site_label_2
_geom_bond_distance
_geom_bond_site_symmetry_2
Na0 O1 2.404905 1_455
Na0 O3 2.404905 1_554
Na1 O0 2.404905 1_555
Na1 O2 2.404905 1_545
Na2 O3 2.386388 1_555
Na2 O4 2.401260 1_555
Na3 O2 2.386388 1_554
Na3 O4 2.401260 1_555
Na4 O1 2.386388 1_555
Na4 O5 2.401260 1_555
Na5 O0 2.386388 1_556
Na5 O5 2.401260 1_555
B0 O1 1.429399 1_555
B0 O0 1.429399 1_555
B0 F5 1.478130 1_555
B0 F4 1.478130 1_555
B1 O3 1.429399 1_555
B1 O2 1.429399 1_555
B1 F6 1.478130 1_555
B1 F7 1.478130 1_555
B2 O4 1.434492 1_555
B2 O0 1.437704 1_555
B2 F8 1.460008 1_555
B2 F0 1.485382 1_555
B3 O4 1.434492 1_555
B3 O1 1.437704 1_555
B3 F9 1.460008 1_555
B3 F1 1.485382 1_555
B4 O5 1.434492 1_555
B4 O2 1.437704 1_555
B4 F10 1.460008 1_555
B4 F2 1.485382 1_555
B5 O5 1.434492 1_555
B5 O3 1.437704 1_555
B5 F11 1.460008 1_555
B5 F3 1.485382 1_555
F0 Na4 2.331617 1_455
F0 Na2 2.501023 1_555
F0 Na1 2.553822 1_555
F1 Na5 2.331617 1_564
F1 Na3 2.501023 1_555
F1 Na0 2.553822 1_655
F2 Na2 2.331617 1_655
F2 Na4 2.501023 1_555
F2 Na1 2.553822 1_565
F3 Na3 2.331617 1_546
F3 Na5 2.501023 1_555
F3 Na0 2.553822 1_556
F4 Na2 2.340111 1_645
F4 Na1 2.524859 1_555
F4 Na4 2.546334 1_555
F5 Na3 2.340111 1_645
F5 Na0 2.524859 1_655
F5 Na5 2.546334 1_554
F6 Na4 2.340111 1_465
F6 Na1 2.524859 1_565
F6 Na2 2.546334 1_555
F7 Na5 2.340111 1_465
F7 Na0 2.524859 1_556
F7 Na3 2.546334 1_556
F8 Na0 2.407658 1_555
F8 Na3 2.719429 1_555
F8 Na5 2.738020 1_554
F9 Na1 2.407658 1_565
F9 Na2 2.719429 1_555
F9 Na4 2.738020 1_555
F10 Na0 2.407658 1_656
F10 Na5 2.719429 1_555
F10 Na3 2.738020 1_556
F11 Na1 2.407658 1_555
F11 Na4 2.719429 1_555
F11 Na2 2.738020 1_555
