# generated using pymatgen
data_KEuDyBiO6
_symmetry_space_group_name_H-M   'P 1'
_cell_length_a   8.69060515
_cell_length_b   8.63274886
_cell_length_c   8.62422272
_cell_angle_alpha   90.00000000
_cell_angle_beta   90.00000000
_cell_angle_gamma   90.00000000
_symmetry_Int_Tables_number   1
_chemical_formula_structural   KEuDyBiO6
_chemical_formula_sum   'K4 Eu4 Dy4 Bi4 O24'
_cell_volume   647.02206142
_cell_formula_units_Z   4
loop_
 _symmetry_equiv_pos_site_id
 _symmetry_equiv_pos_as_xyz
  1  'x, y, z'
loop_
 _atom_site_type_symbol
 _atom_site_label
 _atom_site_symmetry_multiplicity
 _atom_site_fract_x
 _atom_site_fract_y
 _atom_site_fract_z
 _atom_site_occupancy
  K  K0  1  -0.00000000  0.50000000  0.50000000  1
  K  K1  1  0.50000000  -0.00000000  0.50000000  1
  K  K2  1  0.50000000  -0.00000000  -0.00000000  1
  K  K3  1  -0.00000000  0.50000000  -0.00000000  1
  Eu  Eu0  1  0.50000000  0.50000000  -0.00000000  1
  Eu  Eu1  1  -0.00000000  -0.00000000  0.50000000  1
  Eu  Eu2  1  -0.00000000  -0.00000000  -0.00000000  1
  Eu  Eu3  1  0.50000000  0.50000000  0.50000000  1
  Dy  Dy0  1  0.25000000  0.25000000  0.25000000  1
  Dy  Dy1  1  0.75000000  0.75000000  0.25000000  1
  Dy  Dy2  1  0.75000000  0.25000000  0.75000000  1
  Dy  Dy3  1  0.25000000  0.75000000  0.75000000  1
  Bi  Bi0  1  0.75000000  0.75000000  0.75000000  1
  Bi  Bi1  1  0.25000000  0.25000000  0.75000000  1
  Bi  Bi2  1  0.25000000  0.75000000  0.25000000  1
  Bi  Bi3  1  0.75000000  0.25000000  0.25000000  1
  O  O0  1  0.99320522  0.20022314  0.29085506  1
  O  O1  1  0.00679478  0.79977686  0.29085506  1
  O  O2  1  0.00679478  0.20022314  0.70914494  1
  O  O3  1  0.99320522  0.79977686  0.70914494  1
  O  O4  1  0.28735635  0.99221276  0.20297351  1
  O  O5  1  0.28735635  0.00778724  0.79702649  1
  O  O6  1  0.71264365  0.00778724  0.20297351  1
  O  O7  1  0.71264365  0.99221276  0.79702649  1
  O  O8  1  0.20349053  0.28902630  0.99242497  1
  O  O9  1  0.79650947  0.28902630  0.00757503  1
  O  O10  1  0.20349053  0.71097370  0.00757503  1
  O  O11  1  0.79650947  0.71097370  0.99242497  1
  O  O12  1  0.50679478  0.29977686  0.20914494  1
  O  O13  1  0.49320522  0.70022314  0.20914494  1
  O  O14  1  0.49320522  0.29977686  0.79085506  1
  O  O15  1  0.50679478  0.70022314  0.79085506  1
  O  O16  1  0.21264365  0.50778724  0.29702649  1
  O  O17  1  0.21264365  0.49221276  0.70297351  1
  O  O18  1  0.78735635  0.49221276  0.29702649  1
  O  O19  1  0.78735635  0.50778724  0.70297351  1
  O  O20  1  0.29650947  0.21097370  0.50757503  1
  O  O21  1  0.70349053  0.21097370  0.49242497  1
  O  O22  1  0.29650947  0.78902630  0.49242497  1
  O  O23  1  0.70349053  0.78902630  0.50757503  1
loop_
_geom_bond_atom_site_label_1
_geom_bond_atom_site_label_2
_geom_bond_distance
_geom_bond_site_symmetry_2
K0 O19 2.546339 1_455
K0 O18 2.546339 1_455
K0 O16 2.546339 1_555
K0 O17 2.546339 1_555
K0 O3 3.155009 1_455
K0 O2 3.155009 1_555
K0 O1 3.155009 1_555
K0 O0 3.155009 1_455
K1 O21 2.539444 1_555
K1 O23 2.539444 1_545
K1 O20 2.539444 1_555
K1 O22 2.539444 1_545
K1 O5 3.159358 1_555
K1 O6 3.159358 1_555
K1 O7 3.159358 1_545
K1 O4 3.159358 1_545
K2 O7 2.546339 1_544
K2 O6 2.546339 1_555
K2 O5 2.546339 1_554
K2 O4 2.546339 1_545
K2 O14 3.155009 1_554
K2 O15 3.155009 1_544
K2 O12 3.155009 1_555
K2 O13 3.155009 1_545
K3 O9 2.539444 1_455
K3 O10 2.539444 1_555
K3 O11 2.539444 1_454
K3 O8 2.539444 1_554
K3 O18 3.159358 1_455
K3 O16 3.159358 1_555
K3 O17 3.159358 1_554
K3 O19 3.159358 1_454
Eu0 O15 2.498899 1_554
Eu0 O14 2.498899 1_554
Eu0 O13 2.498899 1_555
Eu0 O12 2.498899 1_555
Eu1 O3 2.498899 1_445
Eu1 O1 2.498899 1_545
Eu1 O2 2.498899 1_555
Eu1 O0 2.498899 1_455
Eu2 O1 3.046831 1_545
Eu2 O0 3.046831 1_455
Eu2 O3 3.046831 1_444
Eu2 O2 3.046831 1_554
Eu2 O4 3.050449 1_545
Eu2 O5 3.050449 1_554
Eu2 O7 3.050449 1_444
Eu2 O6 3.050449 1_455
Eu2 O11 3.058952 1_444
Eu2 O10 3.058952 1_545
Eu2 O8 3.058952 1_554
Eu2 O9 3.058952 1_455
Eu3 O13 3.046831 1_555
Eu3 O15 3.046831 1_555
Eu3 O12 3.046831 1_555
Eu3 O14 3.046831 1_555
Eu3 O16 3.050449 1_555
Eu3 O17 3.050449 1_555
Eu3 O18 3.050449 1_555
Eu3 O19 3.050449 1_555
Eu3 O23 3.058952 1_555
Eu3 O22 3.058952 1_555
Eu3 O20 3.058952 1_555
Eu3 O21 3.058952 1_555
Dy0 O20 2.282855 1_555
Dy0 O8 2.282855 1_554
Dy0 O4 2.285245 1_545
Dy0 O16 2.285245 1_555
Dy0 O12 2.299846 1_555
Dy0 O0 2.299846 1_455
Dy1 O11 2.282855 1_554
Dy1 O23 2.282855 1_555
Dy1 O18 2.285245 1_555
Dy1 O6 2.285245 1_565
Dy1 O1 2.299846 1_655
Dy1 O13 2.299846 1_555
Dy2 O9 2.282855 1_556
Dy2 O21 2.282855 1_555
Dy2 O19 2.285245 1_555
Dy2 O7 2.285245 1_545
Dy2 O2 2.299846 1_655
Dy2 O14 2.299846 1_555
Dy3 O10 2.282855 1_556
Dy3 O22 2.282855 1_555
Dy3 O17 2.285245 1_555
Dy3 O5 2.285245 1_565
Dy3 O15 2.299846 1_555
Dy3 O3 2.299846 1_455
Bi0 O7 2.154531 1_555
Bi0 O19 2.154531 1_555
Bi0 O23 2.155926 1_555
Bi0 O11 2.155926 1_555
Bi0 O15 2.185430 1_555
Bi0 O3 2.185430 1_555
Bi1 O5 2.154531 1_555
Bi1 O17 2.154531 1_555
Bi1 O20 2.155926 1_555
Bi1 O8 2.155926 1_555
Bi1 O14 2.185430 1_555
Bi1 O2 2.185430 1_555
Bi2 O16 2.154531 1_555
Bi2 O4 2.154531 1_555
Bi2 O10 2.155926 1_555
Bi2 O22 2.155926 1_555
Bi2 O13 2.185430 1_555
Bi2 O1 2.185430 1_555
Bi3 O18 2.154531 1_555
Bi3 O6 2.154531 1_555
Bi3 O9 2.155926 1_555
Bi3 O21 2.155926 1_555
Bi3 O12 2.185430 1_555
Bi3 O0 2.185430 1_555
