# generated using pymatgen
data_HoAlPt
_symmetry_space_group_name_H-M   'P 1'
_cell_length_a   4.38386548
_cell_length_b   6.85664692
_cell_length_c   7.70093394
_cell_angle_alpha   90.00000000
_cell_angle_beta   90.00000000
_cell_angle_gamma   90.00000000
_symmetry_Int_Tables_number   1
_chemical_formula_structural   HoAlPt
_chemical_formula_sum   'Ho4 Al4 Pt4'
_cell_volume   231.47942955
_cell_formula_units_Z   4
loop_
 _symmetry_equiv_pos_site_id
 _symmetry_equiv_pos_as_xyz
  1  'x, y, z'
loop_
 _atom_site_type_symbol
 _atom_site_label
 _atom_site_symmetry_multiplicity
 _atom_site_fract_x
 _atom_site_fract_y
 _atom_site_fract_z
 _atom_site_occupancy
  Ho  Ho0  1  0.75000000  0.47117153  0.81889340  1
  Ho  Ho1  1  0.75000000  0.97117153  0.68110660  1
  Ho  Ho2  1  0.25000000  0.52882847  0.18110660  1
  Ho  Ho3  1  0.25000000  0.02882847  0.31889340  1
  Al  Al0  1  0.75000000  0.35647796  0.43634994  1
  Al  Al1  1  0.75000000  0.85647796  0.06365006  1
  Al  Al2  1  0.25000000  0.64352204  0.56365006  1
  Al  Al3  1  0.25000000  0.14352204  0.93634994  1
  Pt  Pt0  1  0.75000000  0.22822328  0.11740241  1
  Pt  Pt1  1  0.75000000  0.72822328  0.38259759  1
  Pt  Pt2  1  0.25000000  0.77177672  0.88259759  1
  Pt  Pt3  1  0.25000000  0.27177672  0.61740241  1
loop_
_geom_bond_atom_site_label_1
_geom_bond_atom_site_label_2
_geom_bond_distance
_geom_bond_site_symmetry_2
Ho0 Pt0 2.838908 1_556
Ho0 Pt3 3.013540 1_555
Ho0 Pt3 3.013540 1_655
Ho0 Pt2 3.048533 1_555
Ho0 Pt2 3.048533 1_655
Ho1 Pt1 2.838908 1_555
Ho1 Pt2 3.013540 1_555
Ho1 Pt2 3.013540 1_655
Ho1 Pt3 3.048533 1_565
Ho1 Pt3 3.048533 1_665
Ho2 Pt2 2.838908 1_554
Ho2 Pt1 3.013540 1_455
Ho2 Pt1 3.013540 1_555
Ho2 Pt0 3.048533 1_455
Ho2 Pt0 3.048533 1_555
Ho3 Pt3 2.838908 1_555
Ho3 Pt0 3.013540 1_455
Ho3 Pt0 3.013540 1_555
Ho3 Pt1 3.048533 1_545
Ho3 Pt1 3.048533 1_445
Al0 Pt1 2.582320 1_555
Al0 Pt0 2.608875 1_555
Al0 Pt3 2.661927 1_555
Al0 Pt3 2.661927 1_655
Al0 Ho0 3.049101 1_555
Al0 Ho2 3.172495 1_655
Al0 Ho2 3.172495 1_555
Al0 Ho1 3.245361 1_545
Al0 Ho3 3.266472 1_555
Al0 Ho3 3.266472 1_655
Al1 Pt0 2.582320 1_565
Al1 Pt1 2.608875 1_555
Al1 Pt2 2.661927 1_554
Al1 Pt2 2.661927 1_654
Al1 Ho1 3.049101 1_554
Al1 Ho3 3.172495 1_665
Al1 Ho3 3.172495 1_565
Al1 Ho0 3.245361 1_554
Al1 Ho2 3.266472 1_555
Al1 Ho2 3.266472 1_655
Al2 Pt3 2.582320 1_555
Al2 Pt2 2.608875 1_555
Al2 Pt1 2.661927 1_555
Al2 Pt1 2.661927 1_455
Al2 Ho2 3.049101 1_555
Al2 Ho0 3.172495 1_455
Al2 Ho0 3.172495 1_555
Al2 Ho3 3.245361 1_565
Al2 Ho1 3.266472 1_555
Al2 Ho1 3.266472 1_455
Al3 Pt2 2.582320 1_545
Al3 Pt3 2.608875 1_555
Al3 Pt0 2.661927 1_556
Al3 Pt0 2.661927 1_456
Al3 Ho3 3.049101 1_556
Al3 Ho1 3.172495 1_445
Al3 Ho1 3.172495 1_545
Al3 Ho2 3.245361 1_556
Al3 Ho0 3.266472 1_555
Al3 Ho0 3.266472 1_455
