# generated using pymatgen
data_H2CBrCl
_symmetry_space_group_name_H-M   'P 1'
_cell_length_a   4.68129500
_cell_length_b   8.78568900
_cell_length_c   10.57854700
_cell_angle_alpha   90.00000000
_cell_angle_beta   90.00000000
_cell_angle_gamma   90.00000000
_symmetry_Int_Tables_number   1
_chemical_formula_structural   H2CBrCl
_chemical_formula_sum   'H8 C4 Br4 Cl4'
_cell_volume   435.07873346
_cell_formula_units_Z   4
loop_
 _symmetry_equiv_pos_site_id
 _symmetry_equiv_pos_as_xyz
  1  'x, y, z'
loop_
 _atom_site_type_symbol
 _atom_site_label
 _atom_site_symmetry_multiplicity
 _atom_site_fract_x
 _atom_site_fract_y
 _atom_site_fract_z
 _atom_site_occupancy
  H  H0  1  0.83492100  0.79003800  0.54443600  1
  H  H1  1  0.66507900  0.20996200  0.04443600  1
  H  H2  1  0.33492100  0.20996200  0.95556400  1
  H  H3  1  0.16507900  0.79003800  0.45556400  1
  H  H4  1  0.16629100  0.70631300  0.95560100  1
  H  H5  1  0.33370900  0.29368700  0.45560100  1
  H  H6  1  0.66629100  0.29368700  0.54439900  1
  H  H7  1  0.83370900  0.70631300  0.04439900  1
  C  C0  1  0.00000000  0.72034800  0.50000000  1
  C  C1  1  0.50000000  0.27965200  0.00000000  1
  C  C2  1  0.00000000  0.77525100  0.00000000  1
  C  C3  1  0.50000000  0.22474900  0.50000000  1
  Br  Br0  1  0.81961000  0.89692800  0.86878600  1
  Br  Br1  1  0.68039000  0.10307200  0.36878600  1
  Br  Br2  1  0.31961000  0.10307200  0.63121400  1
  Br  Br3  1  0.18039000  0.89692800  0.13121400  1
  Cl  Cl0  1  0.16450800  0.60811700  0.61917300  1
  Cl  Cl1  1  0.33549200  0.39188300  0.11917300  1
  Cl  Cl2  1  0.66450800  0.39188300  0.88082700  1
  Cl  Cl3  1  0.83549200  0.60811700  0.38082700  1
loop_
_geom_bond_atom_site_label_1
_geom_bond_atom_site_label_2
_geom_bond_distance
_geom_bond_site_symmetry_2
C0 H3 1.092263 1_555
C0 H0 1.092263 1_455
C0 Cl0 1.776127 1_555
C0 Cl3 1.776127 1_455
C1 H1 1.092263 1_555
C1 H2 1.092263 1_554
C1 Cl2 1.776127 1_554
C1 Cl1 1.776127 1_555
C2 H7 1.092440 1_455
C2 H4 1.092440 1_554
C3 H6 1.092440 1_555
C3 H5 1.092440 1_555
Br0 C2 1.944890 1_656
Br1 C3 1.944890 1_555
Br2 C3 1.944890 1_555
Br3 C2 1.944890 1_555
