# generated using pymatgen
data_CuH24C9S3IN6
_symmetry_space_group_name_H-M   'P 1'
_cell_length_a   8.23002600
_cell_length_b   10.59495847
_cell_length_c   13.21288825
_cell_angle_alpha   69.45749509
_cell_angle_beta   80.46082610
_cell_angle_gamma   83.11889527
_symmetry_Int_Tables_number   1
_chemical_formula_structural   CuH24C9S3IN6
_chemical_formula_sum   'Cu2 H48 C18 S6 I2 N12'
_cell_volume   1061.56838640
_cell_formula_units_Z   2
loop_
 _symmetry_equiv_pos_site_id
 _symmetry_equiv_pos_as_xyz
  1  'x, y, z'
loop_
 _atom_site_type_symbol
 _atom_site_label
 _atom_site_symmetry_multiplicity
 _atom_site_fract_x
 _atom_site_fract_y
 _atom_site_fract_z
 _atom_site_occupancy
  Cu  Cu0  1  0.84150500  0.60322500  0.46144900  1
  Cu  Cu1  1  0.15849500  0.39677500  0.53855100  1
  H  H0  1  0.99124000  0.38889000  0.73435700  1
  H  H1  1  0.00876000  0.61111000  0.26564300  1
  H  H2  1  0.92566200  0.68550800  0.80221800  1
  H  H3  1  0.07433800  0.31449200  0.19778200  1
  H  H4  1  0.56500600  0.69043400  0.36646500  1
  H  H5  1  0.43499400  0.30956600  0.63353500  1
  H  H6  1  0.56373200  0.98561300  0.13922200  1
  H  H7  1  0.43626800  0.01438700  0.86077800  1
  H  H8  1  0.71552700  0.82808200  0.50677000  1
  H  H9  1  0.28447300  0.17191800  0.49323000  1
  H  H10  1  0.49781900  0.76401000  0.76766100  1
  H  H11  1  0.50218100  0.23599000  0.23233900  1
  H  H12  1  0.79018700  0.50736700  0.88795700  1
  H  H13  1  0.20981300  0.49263300  0.11204300  1
  H  H14  1  0.86321900  0.33626400  0.90943700  1
  H  H15  1  0.13678100  0.66373600  0.09056300  1
  H  H16  1  0.99281200  0.44940200  0.92439100  1
  H  H17  1  0.00718800  0.55059800  0.07560900  1
  H  H18  1  0.00301000  0.86466600  0.58359000  1
  H  H19  1  0.99699000  0.13533400  0.41641000  1
  H  H20  1  0.99019700  0.89566800  0.70975800  1
  H  H21  1  0.00980300  0.10433200  0.29024200  1
  H  H22  1  0.17986700  0.83041700  0.65336600  1
  H  H23  1  0.82013300  0.16958300  0.34663400  1
  H  H24  1  0.43107200  0.78895700  0.16506400  1
  H  H25  1  0.56892800  0.21104300  0.83493600  1
  H  H26  1  0.32239600  0.71575200  0.29801700  1
  H  H27  1  0.67760400  0.28424800  0.70198300  1
  H  H28  1  0.33939100  0.89375600  0.24262400  1
  H  H29  1  0.66060900  0.10624400  0.75737600  1
  H  H30  1  0.92579000  0.99249500  0.12147600  1
  H  H31  1  0.07421000  0.00750500  0.87852400  1
  H  H32  1  0.79043400  0.08265100  0.02318900  1
  H  H33  1  0.20956600  0.91734900  0.97681100  1
  H  H34  1  0.80096600  0.13555200  0.13608100  1
  H  H35  1  0.19903400  0.86444800  0.86391900  1
  H  H36  1  0.66971300  0.92294400  0.69063000  1
  H  H37  1  0.33028700  0.07705600  0.30937000  1
  H  H38  1  0.68613200  0.02319700  0.55018800  1
  H  H39  1  0.31386800  0.97680300  0.44981200  1
  H  H40  1  0.48945300  0.97380100  0.62343400  1
  H  H41  1  0.51054700  0.02619900  0.37656600  1
  H  H42  1  0.51964200  0.48440700  0.83049900  1
  H  H43  1  0.48035800  0.51559300  0.16950100  1
  H  H44  1  0.36879100  0.58629800  0.88571000  1
  H  H45  1  0.63120900  0.41370200  0.11429000  1
  H  H46  1  0.32816800  0.53472800  0.77772000  1
  H  H47  1  0.67183200  0.46527200  0.22228000  1
  C  C0  1  0.01016100  0.58832800  0.69196500  1
  C  C1  1  0.98983900  0.41167200  0.30803500  1
  C  C2  1  0.89949500  0.44041600  0.87678400  1
  C  C3  1  0.10050500  0.55958400  0.12321600  1
  C  C4  1  0.04457000  0.82854000  0.66426500  1
  C  C5  1  0.95543000  0.17146000  0.33573500  1
  C  C6  1  0.68540200  0.84823100  0.25808400  1
  C  C7  1  0.31459800  0.15176900  0.74191600  1
  C  C8  1  0.40408100  0.79503800  0.24783600  1
  C  C9  1  0.59591900  0.20496200  0.75216400  1
  C  C10  1  0.80522600  0.04732400  0.10989300  1
  C  C11  1  0.19477400  0.95267600  0.89010700  1
  C  C12  1  0.58415400  0.70227300  0.63847300  1
  C  C13  1  0.41584600  0.29772700  0.36152700  1
  C  C14  1  0.62153200  0.94074000  0.61338400  1
  C  C15  1  0.37846800  0.05926000  0.38661600  1
  C  C16  1  0.42342700  0.56702800  0.81064500  1
  C  C17  1  0.57657300  0.43297200  0.18935500  1
  S  S0  1  0.08911900  0.60549100  0.55846300  1
  S  S1  1  0.91088100  0.39450900  0.44153700  1
  S  S2  1  0.86332200  0.80614700  0.32021800  1
  S  S3  1  0.13667800  0.19385300  0.67978200  1
  S  S4  1  0.61800700  0.56832600  0.59217600  1
  S  S5  1  0.38199300  0.43167400  0.40782400  1
  I  I0  1  0.69090400  0.79258600  0.93500600  1
  I  I1  1  0.30909600  0.20741400  0.06499400  1
  N  N0  1  0.96408500  0.46809000  0.76246800  1
  N  N1  1  0.03591500  0.53191000  0.23753200  1
  N  N2  1  0.99223200  0.69400900  0.72757500  1
  N  N3  1  0.00776800  0.30599100  0.27242500  1
  N  N4  1  0.55439400  0.77260300  0.29790900  1
  N  N5  1  0.44560600  0.22739700  0.70209100  1
  N  N6  1  0.67351100  0.95917400  0.17007400  1
  N  N7  1  0.32648900  0.04082600  0.82992600  1
  N  N8  1  0.64856200  0.82206200  0.58027900  1
  N  N9  1  0.35143800  0.17793800  0.41972100  1
  N  N10  1  0.49014400  0.69189700  0.73441900  1
  N  N11  1  0.50985600  0.30810300  0.26558100  1
loop_
_geom_bond_atom_site_label_1
_geom_bond_atom_site_label_2
_geom_bond_distance
_geom_bond_site_symmetry_2
Cu0 S4 2.272728 1_555
Cu0 S2 2.302733 1_555
Cu0 S1 2.311105 1_555
Cu0 S0 2.587608 1_655
Cu1 S5 2.272728 1_555
Cu1 S3 2.302733 1_555
Cu1 S0 2.311105 1_555
Cu1 S1 2.587608 1_455
H0 N0 1.018976 1_555
H1 N1 1.018976 1_555
H2 N2 1.025357 1_555
H3 N3 1.025357 1_555
H4 N4 1.020105 1_555
H5 N5 1.020105 1_555
H6 N6 1.020888 1_555
H7 N7 1.020888 1_555
H8 N8 1.019163 1_555
H9 N9 1.019163 1_555
H10 N10 1.018296 1_555
H11 N11 1.018296 1_555
C0 N0 1.341743 1_455
C0 N2 1.343122 1_455
C0 S0 1.729200 1_555
C1 N1 1.341743 1_655
C1 N3 1.343122 1_655
C1 S1 1.729200 1_555
C2 H14 1.093199 1_555
C2 H12 1.100373 1_555
C2 H16 1.101922 1_555
C2 N0 1.452723 1_555
C3 H15 1.093199 1_555
C3 H13 1.100373 1_555
C3 H17 1.101922 1_555
C3 N1 1.452723 1_555
C4 H20 1.096360 1_455
C4 H18 1.096759 1_555
C4 H22 1.100527 1_555
C4 N2 1.451835 1_455
C5 H21 1.096360 1_655
C5 H19 1.096759 1_555
C5 H23 1.100527 1_555
C5 N3 1.451835 1_655
C6 N6 1.339538 1_555
C6 N4 1.343321 1_555
C6 S2 1.732637 1_555
C7 N7 1.339538 1_555
C7 N5 1.343321 1_555
C7 S3 1.732637 1_555
C8 H26 1.092664 1_555
C8 H28 1.100136 1_555
C8 H24 1.102307 1_555
C8 N4 1.454318 1_555
C9 H27 1.092664 1_555
C9 H29 1.100136 1_555
C9 H25 1.102307 1_555
C9 N5 1.454318 1_555
C10 H30 1.093275 1_545
C10 H32 1.096228 1_555
C10 H34 1.099946 1_555
C10 N6 1.454423 1_545
C11 H31 1.093275 1_565
C11 H33 1.096228 1_555
C11 H35 1.099946 1_555
C11 N7 1.454423 1_565
C12 N10 1.347333 1_555
C12 N8 1.350636 1_555
C12 S4 1.709932 1_555
C13 N11 1.347333 1_555
C13 N9 1.350636 1_555
C13 S5 1.709932 1_555
C14 H38 1.093307 1_565
C14 H40 1.102494 1_555
C14 H36 1.102574 1_555
C14 N8 1.452087 1_555
C15 H39 1.093307 1_545
C15 H41 1.102494 1_555
C15 H37 1.102574 1_555
C15 N9 1.452087 1_555
C16 H44 1.095394 1_555
C16 H46 1.096727 1_555
C16 H42 1.097137 1_555
C16 N10 1.456640 1_555
C17 H45 1.095394 1_555
C17 H47 1.096727 1_555
C17 H43 1.097137 1_555
C17 N11 1.456640 1_555
