# generated using pymatgen
data_Cs10P4PdSe16
_symmetry_space_group_name_H-M   'P 1'
_cell_length_a   11.94830588
_cell_length_b   14.27525111
_cell_length_c   14.27525111
_cell_angle_alpha   90.00000000
_cell_angle_beta   90.00000000
_cell_angle_gamma   90.00000000
_symmetry_Int_Tables_number   1
_chemical_formula_structural   Cs10P4PdSe16
_chemical_formula_sum   'Cs20 P8 Pd2 Se32'
_cell_volume   2434.85915882
_cell_formula_units_Z   2
loop_
 _symmetry_equiv_pos_site_id
 _symmetry_equiv_pos_as_xyz
  1  'x, y, z'
loop_
 _atom_site_type_symbol
 _atom_site_label
 _atom_site_symmetry_multiplicity
 _atom_site_fract_x
 _atom_site_fract_y
 _atom_site_fract_z
 _atom_site_occupancy
  Cs  Cs0  1  0.75000000  0.50000000  0.35355729  1
  Cs  Cs1  1  0.75000000  0.50000000  0.64644271  1
  Cs  Cs2  1  0.25000000  0.35355729  0.50000000  1
  Cs  Cs3  1  0.25000000  0.64644271  0.50000000  1
  Cs  Cs4  1  0.55221746  0.00000000  0.50000000  1
  Cs  Cs5  1  0.94778254  0.00000000  0.50000000  1
  Cs  Cs6  1  0.44778254  0.50000000  -0.00000000  1
  Cs  Cs7  1  0.05221746  0.50000000  -0.00000000  1
  Cs  Cs8  1  0.49819601  0.25805197  0.25948449  1
  Cs  Cs9  1  0.49819601  0.74194803  0.74051551  1
  Cs  Cs10  1  0.00180399  0.25805197  0.74051551  1
  Cs  Cs11  1  0.00180399  0.74194803  0.25948449  1
  Cs  Cs12  1  0.50180399  0.25948449  0.74194803  1
  Cs  Cs13  1  0.50180399  0.74051551  0.25805197  1
  Cs  Cs14  1  0.99819601  0.74051551  0.74194803  1
  Cs  Cs15  1  0.99819601  0.25948449  0.25805197  1
  Cs  Cs16  1  0.75000000  0.00000000  0.15846793  1
  Cs  Cs17  1  0.75000000  0.00000000  0.84153207  1
  Cs  Cs18  1  0.25000000  0.15846793  -0.00000000  1
  Cs  Cs19  1  0.25000000  0.84153207  -0.00000000  1
  P  P0  1  0.75000000  0.26369851  -0.00000000  1
  P  P1  1  0.75000000  0.73630149  -0.00000000  1
  P  P2  1  0.25000000  0.00000000  0.73630149  1
  P  P3  1  0.25000000  0.00000000  0.26369851  1
  P  P4  1  0.75000000  0.24127859  0.50000000  1
  P  P5  1  0.75000000  0.75872141  0.50000000  1
  P  P6  1  0.25000000  0.50000000  0.75872141  1
  P  P7  1  0.25000000  0.50000000  0.24127859  1
  Pd  Pd0  1  0.75000000  0.50000000  -0.00000000  1
  Pd  Pd1  1  0.25000000  0.00000000  0.50000000  1
  Se  Se0  1  0.74835834  0.37155735  0.11752651  1
  Se  Se1  1  0.74835834  0.62844265  0.88247349  1
  Se  Se2  1  0.75164166  0.37155735  0.88247349  1
  Se  Se3  1  0.75164166  0.62844265  0.11752651  1
  Se  Se4  1  0.25164166  0.11752651  0.62844265  1
  Se  Se5  1  0.25164166  0.88247349  0.37155735  1
  Se  Se6  1  0.24835834  0.88247349  0.62844265  1
  Se  Se7  1  0.24835834  0.11752651  0.37155735  1
  Se  Se8  1  0.59810240  0.17850418  0.99909300  1
  Se  Se9  1  0.59810240  0.82149582  0.00090700  1
  Se  Se10  1  0.90189760  0.17850418  0.00090700  1
  Se  Se11  1  0.90189760  0.82149582  0.99909300  1
  Se  Se12  1  0.40189760  0.99909300  0.82149582  1
  Se  Se13  1  0.40189760  0.00090700  0.17850418  1
  Se  Se14  1  0.09810240  0.00090700  0.82149582  1
  Se  Se15  1  0.09810240  0.99909300  0.17850418  1
  Se  Se16  1  0.74956089  0.15106242  0.37106814  1
  Se  Se17  1  0.74956089  0.84893758  0.62893186  1
  Se  Se18  1  0.75043911  0.15106242  0.62893186  1
  Se  Se19  1  0.75043911  0.84893758  0.37106814  1
  Se  Se20  1  0.25043911  0.37106814  0.84893758  1
  Se  Se21  1  0.25043911  0.62893186  0.15106242  1
  Se  Se22  1  0.24956089  0.62893186  0.84893758  1
  Se  Se23  1  0.24956089  0.37106814  0.15106242  1
  Se  Se24  1  0.59676769  0.32949740  0.50014440  1
  Se  Se25  1  0.59676769  0.67050260  0.49985560  1
  Se  Se26  1  0.90323231  0.32949740  0.49985560  1
  Se  Se27  1  0.90323231  0.67050260  0.50014440  1
  Se  Se28  1  0.40323231  0.50014440  0.67050260  1
  Se  Se29  1  0.40323231  0.49985560  0.32949740  1
  Se  Se30  1  0.09676769  0.49985560  0.67050260  1
  Se  Se31  1  0.09676769  0.50014440  0.32949740  1
loop_
_geom_bond_atom_site_label_1
_geom_bond_atom_site_label_2
_geom_bond_distance
_geom_bond_site_symmetry_2
Cs0 Se25 3.692949 1_555
Cs0 Se26 3.692949 1_555
Cs0 Se27 3.695282 1_555
Cs0 Se24 3.695282 1_555
Cs0 Se3 3.836032 1_555
Cs0 Se0 3.836032 1_555
Cs0 Se29 4.157498 1_555
Cs0 Se31 4.157498 1_655
Cs1 Se27 3.692949 1_555
Cs1 Se24 3.692949 1_555
Cs1 Se25 3.695282 1_555
Cs1 Se26 3.695282 1_555
Cs1 Se2 3.836032 1_555
Cs1 Se1 3.836032 1_555
Cs1 Se30 4.157498 1_655
Cs1 Se28 4.157498 1_555
Cs2 Se30 3.692949 1_555
Cs2 Se29 3.692949 1_555
Cs2 Se28 3.695282 1_555
Cs2 Se31 3.695282 1_555
Cs2 Se7 3.836032 1_555
Cs2 Se4 3.836032 1_555
Cs2 Se24 4.157498 1_555
Cs2 Se26 4.157498 1_455
Cs3 Se28 3.692949 1_555
Cs3 Se31 3.692949 1_555
Cs3 Se30 3.695282 1_555
Cs3 Se29 3.695282 1_555
Cs3 Se5 3.836032 1_555
Cs3 Se6 3.836032 1_555
Cs3 Se25 4.157498 1_555
Cs3 Se27 4.157498 1_455
Cs4 Pd1 3.610987 1_555
Cs4 Se16 3.687499 1_555
Cs4 Se17 3.687499 1_545
Cs4 Se18 3.694217 1_555
Cs4 Se19 3.694217 1_545
Cs5 Pd1 3.610987 1_655
Cs5 Se18 3.687499 1_555
Cs5 Se19 3.687499 1_545
Cs5 Se17 3.694217 1_545
Cs5 Se16 3.694217 1_555
Cs6 Pd0 3.610987 1_555
Cs6 Se21 3.687499 1_555
Cs6 Se20 3.687499 1_554
Cs6 Se23 3.694217 1_555
Cs6 Se22 3.694217 1_554
Cs7 Pd0 3.610987 1_455
Cs7 Se23 3.687499 1_555
Cs7 Se22 3.687499 1_554
Cs7 Se20 3.694217 1_554
Cs7 Se21 3.694217 1_555
Cs8 Se23 3.718044 1_555
Cs8 Se16 3.726963 1_555
Cs8 Se29 3.768464 1_555
Cs8 Se24 3.772248 1_555
Cs8 Se7 3.936344 1_555
Cs8 Se0 3.958067 1_555
Cs8 Se13 4.016851 1_555
Cs8 Se8 4.065918 1_554
Cs9 Se22 3.718044 1_555
Cs9 Se17 3.726963 1_555
Cs9 Se28 3.768464 1_555
Cs9 Se25 3.772248 1_555
Cs9 Se6 3.936344 1_555
Cs9 Se1 3.958067 1_555
Cs9 Se12 4.016851 1_555
Cs9 Se9 4.065918 1_556
Cs10 Se20 3.718044 1_555
Cs10 Se18 3.726963 1_455
Cs10 Se30 3.768464 1_555
Cs10 Se26 3.772248 1_455
Cs10 Se4 3.936344 1_555
Cs10 Se2 3.958067 1_455
Cs10 Se14 4.016851 1_555
Cs10 Se10 4.065918 1_456
Cs11 Se21 3.718044 1_555
Cs11 Se19 3.726963 1_455
Cs11 Se31 3.768464 1_555
Cs11 Se27 3.772248 1_455
Cs11 Se5 3.936344 1_555
Cs11 Se3 3.958067 1_455
Cs11 Se15 4.016851 1_555
Cs11 Se11 4.065918 1_454
Cs12 Se18 3.718044 1_555
Cs12 Se20 3.726963 1_555
Cs12 Se24 3.768464 1_555
Cs12 Se28 3.772248 1_555
Cs12 Se2 3.936344 1_555
Cs12 Se4 3.958067 1_555
Cs12 Se8 4.016851 1_555
Cs12 Se12 4.065918 1_545
Cs13 Se19 3.718044 1_555
Cs13 Se21 3.726963 1_555
Cs13 Se25 3.768464 1_555
Cs13 Se29 3.772248 1_555
Cs13 Se3 3.936344 1_555
Cs13 Se5 3.958067 1_555
Cs13 Se9 4.016851 1_555
Cs13 Se13 4.065918 1_565
Cs14 Se17 3.718044 1_555
Cs14 Se22 3.726963 1_655
Cs14 Se27 3.768464 1_555
Cs14 Se30 3.772248 1_655
Cs14 Se1 3.936344 1_555
Cs14 Se6 3.958067 1_655
Cs14 Se11 4.016851 1_555
Cs14 Se14 4.065918 1_665
Cs15 Se16 3.718044 1_555
Cs15 Se23 3.726963 1_655
Cs15 Se26 3.768464 1_555
Cs15 Se31 3.772248 1_655
Cs15 Se0 3.936344 1_555
Cs15 Se7 3.958067 1_655
Cs15 Se10 4.016851 1_555
Cs15 Se15 4.065918 1_645
Cs16 Se19 3.723046 1_545
Cs16 Se16 3.723046 1_555
Cs16 Se10 3.853078 1_555
Cs16 Se9 3.853078 1_545
Cs16 Se11 3.868252 1_544
Cs16 Se8 3.868252 1_554
Cs16 Se15 4.169077 1_645
Cs16 Se13 4.169077 1_555
Cs17 Se18 3.723046 1_555
Cs17 Se17 3.723046 1_545
Cs17 Se11 3.853078 1_545
Cs17 Se8 3.853078 1_555
Cs17 Se10 3.868252 1_556
Cs17 Se9 3.868252 1_546
Cs17 Se14 4.169077 1_655
Cs17 Se12 4.169077 1_545
Cs18 Se23 3.723046 1_555
Cs18 Se20 3.723046 1_554
Cs18 Se13 3.853078 1_555
Cs18 Se14 3.853078 1_554
Cs18 Se12 3.868252 1_544
Cs18 Se15 3.868252 1_545
Cs18 Se8 4.169077 1_554
Cs18 Se10 4.169077 1_455
Cs19 Se21 3.723046 1_555
Cs19 Se22 3.723046 1_554
Cs19 Se12 3.853078 1_554
Cs19 Se15 3.853078 1_555
Cs19 Se13 3.868252 1_565
Cs19 Se14 3.868252 1_564
Cs19 Se9 4.169077 1_555
Cs19 Se11 4.169077 1_454
P0 Se10 2.184758 1_555
P0 Se8 2.184758 1_554
P0 Se0 2.277245 1_555
P0 Se2 2.277245 1_554
P1 Se11 2.184758 1_554
P1 Se9 2.184758 1_555
P1 Se3 2.277245 1_555
P1 Se1 2.277245 1_554
P2 Se12 2.184758 1_545
P2 Se14 2.184758 1_555
P2 Se4 2.277245 1_555
P2 Se6 2.277245 1_545
P3 Se13 2.184758 1_555
P3 Se15 2.184758 1_545
P3 Se7 2.277245 1_555
P3 Se5 2.277245 1_545
P4 Se26 2.222167 1_555
P4 Se24 2.222167 1_555
P4 Se16 2.246369 1_555
P4 Se18 2.246369 1_555
P5 Se27 2.222167 1_555
P5 Se25 2.222167 1_555
P5 Se19 2.246369 1_555
P5 Se17 2.246369 1_555
P6 Se28 2.222167 1_555
P6 Se30 2.222167 1_555
P6 Se20 2.246369 1_555
P6 Se22 2.246369 1_555
P7 Se29 2.222167 1_555
P7 Se31 2.222167 1_555
P7 Se21 2.246369 1_555
P7 Se23 2.246369 1_555
Pd0 Se3 2.485365 1_555
Pd0 Se0 2.485365 1_555
Pd0 Se1 2.485365 1_554
Pd0 Se2 2.485365 1_554
Pd1 Se5 2.485365 1_545
Pd1 Se6 2.485365 1_545
Pd1 Se7 2.485365 1_555
Pd1 Se4 2.485365 1_555
