# generated using pymatgen
data_Ag6Ge(S2Cl)2
_symmetry_space_group_name_H-M   'P 1'
_cell_length_a   6.48524600
_cell_length_b   7.71024300
_cell_length_c   23.24928900
_cell_angle_alpha   90.00000000
_cell_angle_beta   90.00000000
_cell_angle_gamma   90.00000000
_symmetry_Int_Tables_number   1
_chemical_formula_structural   Ag6Ge(S2Cl)2
_chemical_formula_sum   'Ag24 Ge4 S16 Cl8'
_cell_volume   1162.53007286
_cell_formula_units_Z   4
loop_
 _symmetry_equiv_pos_site_id
 _symmetry_equiv_pos_as_xyz
  1  'x, y, z'
loop_
 _atom_site_type_symbol
 _atom_site_label
 _atom_site_symmetry_multiplicity
 _atom_site_fract_x
 _atom_site_fract_y
 _atom_site_fract_z
 _atom_site_occupancy
  Ag  Ag0  1  0.44047400  0.25000000  0.64506200  1
  Ag  Ag1  1  0.55952600  0.75000000  0.35493800  1
  Ag  Ag2  1  0.05952600  0.75000000  0.14506200  1
  Ag  Ag3  1  0.94047400  0.25000000  0.85493800  1
  Ag  Ag4  1  0.09813400  0.03860000  0.28095300  1
  Ag  Ag5  1  0.90186600  0.96140000  0.71904700  1
  Ag  Ag6  1  0.40186600  0.96140000  0.78095300  1
  Ag  Ag7  1  0.90186600  0.53860000  0.71904700  1
  Ag  Ag8  1  0.59813400  0.03860000  0.21904700  1
  Ag  Ag9  1  0.09813400  0.46140000  0.28095300  1
  Ag  Ag10  1  0.59813400  0.46140000  0.21904700  1
  Ag  Ag11  1  0.40186600  0.53860000  0.78095300  1
  Ag  Ag12  1  0.00000000  0.00000000  0.00000000  1
  Ag  Ag13  1  0.50000000  0.00000000  0.50000000  1
  Ag  Ag14  1  0.00000000  0.50000000  0.00000000  1
  Ag  Ag15  1  0.50000000  0.50000000  0.50000000  1
  Ag  Ag16  1  0.00870200  0.05840900  0.42971400  1
  Ag  Ag17  1  0.99129800  0.94159100  0.57028600  1
  Ag  Ag18  1  0.49129800  0.94159100  0.92971400  1
  Ag  Ag19  1  0.99129800  0.55840900  0.57028600  1
  Ag  Ag20  1  0.50870200  0.05840900  0.07028600  1
  Ag  Ag21  1  0.00870200  0.44159100  0.42971400  1
  Ag  Ag22  1  0.50870200  0.44159100  0.07028600  1
  Ag  Ag23  1  0.49129800  0.55840900  0.92971400  1
  Ge  Ge0  1  0.01193700  0.25000000  0.13095500  1
  Ge  Ge1  1  0.98806300  0.75000000  0.86904500  1
  Ge  Ge2  1  0.48806300  0.75000000  0.63095500  1
  Ge  Ge3  1  0.51193700  0.25000000  0.36904500  1
  S  S0  1  0.32190300  0.00634100  0.37264900  1
  S  S1  1  0.67809700  0.99365900  0.62735100  1
  S  S2  1  0.17809700  0.99365900  0.87264900  1
  S  S3  1  0.67809700  0.50634100  0.62735100  1
  S  S4  1  0.82190300  0.00634100  0.12735100  1
  S  S5  1  0.32190300  0.49365900  0.37264900  1
  S  S6  1  0.82190300  0.49365900  0.12735100  1
  S  S7  1  0.17809700  0.50634100  0.87264900  1
  S  S8  1  0.22737100  0.25000000  0.20560600  1
  S  S9  1  0.77262900  0.75000000  0.79439400  1
  S  S10  1  0.27262900  0.75000000  0.70560600  1
  S  S11  1  0.72737100  0.25000000  0.29439400  1
  S  S12  1  0.19574800  0.25000000  0.04634200  1
  S  S13  1  0.80425200  0.75000000  0.95365800  1
  S  S14  1  0.30425200  0.75000000  0.54634200  1
  S  S15  1  0.69574800  0.25000000  0.45365800  1
  Cl  Cl0  1  0.16862400  0.25000000  0.54308900  1
  Cl  Cl1  1  0.83137600  0.75000000  0.45691100  1
  Cl  Cl2  1  0.33137600  0.75000000  0.04308900  1
  Cl  Cl3  1  0.66862400  0.25000000  0.95691100  1
  Cl  Cl4  1  0.12533400  0.25000000  0.71120100  1
  Cl  Cl5  1  0.87466600  0.75000000  0.28879900  1
  Cl  Cl6  1  0.37466600  0.75000000  0.21120100  1
  Cl  Cl7  1  0.62533400  0.25000000  0.78879900  1
loop_
_geom_bond_atom_site_label_1
_geom_bond_atom_site_label_2
_geom_bond_distance
_geom_bond_site_symmetry_2
Ag0 S3 2.539828 1_555
Ag0 S1 2.539828 1_545
Ag0 Cl4 2.557622 1_555
Ag0 Cl0 2.954473 1_555
Ag1 S0 2.539828 1_565
Ag1 S5 2.539828 1_555
Ag1 Cl5 2.557622 1_555
Ag1 Cl1 2.954473 1_555
Ag2 S4 2.539828 1_465
Ag2 S6 2.539828 1_455
Ag2 Cl6 2.557622 1_555
Ag2 Cl2 2.954473 1_555
Ag3 S7 2.539828 1_655
Ag3 S2 2.539828 1_645
Ag3 Cl7 2.557622 1_555
Ag3 Cl3 2.954473 1_555
Ag4 S8 2.535324 1_555
Ag4 S0 2.590886 1_555
Ag4 Cl5 2.661765 1_445
Ag4 S11 2.921634 1_455
Ag5 S9 2.535324 1_555
Ag5 S1 2.590886 1_555
Ag5 Cl4 2.661765 1_665
Ag5 S10 2.921634 1_655
Ag6 S10 2.535324 1_555
Ag6 S2 2.590886 1_555
Ag6 Cl7 2.661765 1_565
Ag6 S9 2.921634 1_555
Ag7 S9 2.535324 1_555
Ag7 S3 2.590886 1_555
Ag7 Cl4 2.661765 1_655
Ag7 S10 2.921634 1_655
Ag8 S11 2.535324 1_555
Ag8 S4 2.590886 1_555
Ag8 Cl6 2.661765 1_545
Ag8 S8 2.921634 1_555
Ag9 S8 2.535324 1_555
Ag9 S5 2.590886 1_555
Ag9 Cl5 2.661765 1_455
Ag9 S11 2.921634 1_455
Ag10 S11 2.535324 1_555
Ag10 S6 2.590886 1_555
Ag10 Cl6 2.661765 1_555
Ag10 S8 2.921634 1_555
Ag11 S10 2.535324 1_555
Ag11 S7 2.590886 1_555
Ag11 Cl7 2.661765 1_555
Ag11 S9 2.921634 1_555
Ag12 S12 2.547133 1_555
Ag12 S13 2.547133 1_444
Ag12 Cl2 3.055734 1_545
Ag12 Cl3 3.055734 1_454
Ag12 S2 3.178503 1_544
Ag12 S4 3.178503 1_455
Ag13 S15 2.547133 1_555
Ag13 S14 2.547133 1_545
Ag13 Cl0 3.055734 1_555
Ag13 Cl1 3.055734 1_545
Ag13 S0 3.178503 1_555
Ag13 S1 3.178503 1_545
Ag14 S12 2.547133 1_555
Ag14 S13 2.547133 1_454
Ag14 Cl2 3.055734 1_555
Ag14 Cl3 3.055734 1_454
Ag14 S7 3.178503 1_554
Ag14 S6 3.178503 1_455
Ag15 S15 2.547133 1_555
Ag15 S14 2.547133 1_555
Ag15 Cl0 3.055734 1_555
Ag15 Cl1 3.055734 1_555
Ag15 S3 3.178503 1_555
Ag15 S5 3.178503 1_555
Ag16 S0 2.459079 1_555
Ag16 S15 2.571238 1_455
Ag16 Cl1 2.716021 1_445
Ag17 S1 2.459079 1_555
Ag17 S14 2.571238 1_655
Ag17 Cl0 2.716021 1_665
Ag18 S2 2.459079 1_555
Ag18 S13 2.571238 1_555
Ag18 Cl3 2.716021 1_565
Ag19 S3 2.459079 1_555
Ag19 S14 2.571238 1_655
Ag19 Cl0 2.716021 1_655
Ag20 S4 2.459079 1_555
Ag20 S12 2.571238 1_555
Ag20 Cl2 2.716021 1_545
Ag21 S5 2.459079 1_555
Ag21 S15 2.571238 1_455
Ag21 Cl1 2.716021 1_455
Ag22 S6 2.459079 1_555
Ag22 S12 2.571238 1_555
Ag22 Cl2 2.716021 1_555
Ag23 S7 2.459079 1_555
Ag23 S13 2.571238 1_555
Ag23 Cl3 2.716021 1_555
Ge0 S8 2.228061 1_555
Ge0 S6 2.248394 1_455
Ge0 S4 2.248394 1_455
Ge0 S12 2.300185 1_555
Ge1 S9 2.228061 1_555
Ge1 S2 2.248394 1_655
Ge1 S7 2.248394 1_655
Ge1 S13 2.300185 1_555
Ge2 S10 2.228061 1_555
Ge2 S1 2.248394 1_555
Ge2 S3 2.248394 1_555
Ge2 S14 2.300185 1_555
Ge3 S11 2.228061 1_555
Ge3 S5 2.248394 1_555
Ge3 S0 2.248394 1_555
Ge3 S15 2.300185 1_555
