# generated using pymatgen
data_CeNi5
_symmetry_space_group_name_H-M   'P 1'
_cell_length_a   4.84125093
_cell_length_b   4.84125591
_cell_length_c   3.95419173
_cell_angle_alpha   90.00000000
_cell_angle_beta   90.00000000
_cell_angle_gamma   119.99852893
_symmetry_Int_Tables_number   1
_chemical_formula_structural   CeNi5
_chemical_formula_sum   'Ce1 Ni5'
_cell_volume   80.26208299
_cell_formula_units_Z   1
loop_
 _symmetry_equiv_pos_site_id
 _symmetry_equiv_pos_as_xyz
  1  'x, y, z'
loop_
 _atom_site_type_symbol
 _atom_site_label
 _atom_site_symmetry_multiplicity
 _atom_site_fract_x
 _atom_site_fract_y
 _atom_site_fract_z
 _atom_site_occupancy
  Ce  Ce0  1  0.00000000  -0.00000000  0.00000000  1
  Ni  Ni0  1  0.00000000  0.50000000  0.50000000  1
  Ni  Ni1  1  0.33333081  0.66666719  0.00000000  1
  Ni  Ni2  1  0.66666919  0.33333281  -0.00000000  1
  Ni  Ni3  1  0.50000000  -0.00000000  0.50000000  1
  Ni  Ni4  1  0.50000000  0.50000000  0.50000000  1
loop_
_geom_bond_atom_site_label_1
_geom_bond_atom_site_label_2
_geom_bond_distance
_geom_bond_site_symmetry_2
Ce0 Ni2 2.795065 1_455
Ce0 Ni1 2.795065 1_545
Ce0 Ni2 2.795144 1_445
Ce0 Ni1 2.795144 1_555
Ce0 Ni1 2.795150 1_445
Ce0 Ni2 2.795150 1_555
Ce0 Ni3 3.125434 1_554
Ce0 Ni3 3.125434 1_454
Ce0 Ni3 3.125434 1_555
Ce0 Ni3 3.125434 1_455
Ce0 Ni0 3.125436 1_554
Ce0 Ni0 3.125436 1_555
Ce0 Ni0 3.125436 1_544
Ce0 Ni0 3.125436 1_545
Ce0 Ni4 3.125476 1_555
Ce0 Ni4 3.125476 1_554
Ce0 Ni4 3.125476 1_444
Ce0 Ni4 3.125476 1_445
Ni0 Ni4 2.420625 1_555
Ni0 Ni4 2.420625 1_455
Ni0 Ni3 2.420681 1_455
Ni0 Ni3 2.420681 1_565
Ni0 Ni2 2.421173 1_456
Ni0 Ni1 2.421173 1_555
Ni0 Ni2 2.421173 1_455
Ni0 Ni1 2.421173 1_556
Ni1 Ni4 2.421169 1_554
Ni1 Ni4 2.421169 1_555
Ni1 Ni3 2.421179 1_565
Ni1 Ni3 2.421179 1_564
Ni1 Ni2 2.795104 1_555
Ni1 Ni2 2.795118 1_455
Ni1 Ni2 2.795137 1_565
Ni2 Ni4 2.421169 1_554
Ni2 Ni4 2.421169 1_555
Ni2 Ni3 2.421179 1_555
Ni2 Ni3 2.421179 1_554
Ni3 Ni4 2.420628 1_545
Ni3 Ni4 2.420628 1_555
