# generated using pymatgen
data_DyGe2Ir
_symmetry_space_group_name_H-M   'P 1'
_cell_length_a   9.40432549
_cell_length_b   9.40432549
_cell_length_c   9.40432549
_cell_angle_alpha   153.85530106
_cell_angle_beta   123.98275366
_cell_angle_gamma   62.83030572
_symmetry_Int_Tables_number   1
_chemical_formula_structural   DyGe2Ir
_chemical_formula_sum   'Dy4 Ge8 Ir4'
_cell_volume   301.57197668
_cell_formula_units_Z   4
loop_
 _symmetry_equiv_pos_site_id
 _symmetry_equiv_pos_as_xyz
  1  'x, y, z'
loop_
 _atom_site_type_symbol
 _atom_site_label
 _atom_site_symmetry_multiplicity
 _atom_site_fract_x
 _atom_site_fract_y
 _atom_site_fract_z
 _atom_site_occupancy
  Dy  Dy0  1  0.73828980  -0.00000000  0.73828980  1
  Dy  Dy1  1  0.26171020  -0.00000000  0.26171020  1
  Dy  Dy2  1  0.29447361  0.79447361  0.50000000  1
  Dy  Dy3  1  0.70552639  0.20552639  0.50000000  1
  Ge  Ge0  1  0.92279740  0.42279740  0.50000000  1
  Ge  Ge1  1  0.07720260  0.57720260  0.50000000  1
  Ge  Ge2  1  0.42325518  0.42325518  0.00000000  1
  Ge  Ge3  1  0.57674482  0.57674482  0.00000000  1
  Ge  Ge4  1  0.35452673  0.20118437  0.15334236  1
  Ge  Ge5  1  0.64547327  0.79881563  0.84665764  1
  Ge  Ge6  1  0.04784101  0.20118437  0.84665764  1
  Ge  Ge7  1  0.95215899  0.79881563  0.15334236  1
  Ir  Ir0  1  0.60606033  0.35468123  0.25138110  1
  Ir  Ir1  1  0.39393967  0.64531877  0.74861890  1
  Ir  Ir2  1  0.10330013  0.35468123  0.74861890  1
  Ir  Ir3  1  0.89669987  0.64531877  0.25138110  1
loop_
_geom_bond_atom_site_label_1
_geom_bond_atom_site_label_2
_geom_bond_distance
_geom_bond_site_symmetry_2
Dy0 Ir3 3.158929 1_556
Dy0 Ir3 3.158929 1_545
Dy0 Ir0 3.158937 1_545
Dy0 Ir0 3.158943 1_556
Dy0 Ge2 3.236025 1_545
Dy0 Ge3 3.236025 1_545
Dy0 Ge2 3.236025 1_556
Dy0 Ge3 3.236025 1_556
Dy0 Ge6 3.368179 1_655
Dy0 Ge5 3.368188 1_545
Dy0 Ge1 3.376920 1_645
Dy0 Ge0 3.376920 1_545
Dy0 Ge1 3.376920 1_656
Dy0 Ge0 3.376920 1_556
Dy1 Ir2 3.158929 1_555
Dy1 Ir2 3.158929 1_544
Dy1 Ir1 3.158937 1_555
Dy1 Ir1 3.158943 1_544
Dy1 Ge2 3.236025 1_556
Dy1 Ge3 3.236025 1_556
Dy1 Ge2 3.236025 1_545
Dy1 Ge3 3.236025 1_545
Dy1 Ge7 3.368179 1_445
Dy1 Ge4 3.368188 1_555
Dy1 Ge1 3.376920 1_555
Dy1 Ge1 3.376920 1_544
Dy1 Ge0 3.376920 1_455
Dy1 Ge0 3.376920 1_444
Dy2 Ge4 2.932786 1_566
Dy2 Ge4 2.932786 1_555
Dy2 Ge6 2.932791 1_554
Dy2 Ge6 2.932794 1_565
Dy2 Ge2 2.966068 1_566
Dy2 Ge2 2.966068 1_555
Dy2 Ge7 3.062686 1_455
Dy2 Ge5 3.062690 1_555
Dy2 Ir0 3.223096 1_555
Dy2 Ir0 3.223101 1_566
Dy2 Ir2 3.223109 1_554
Dy2 Ir2 3.223109 1_565
Dy2 Ir1 3.248726 1_555
Dy2 Ir3 3.248732 1_455
Dy2 Ge1 3.487536 1_555
Dy3 Ge5 2.932786 1_544
Dy3 Ge5 2.932786 1_555
Dy3 Ge7 2.932791 1_556
Dy3 Ge7 2.932794 1_545
Dy3 Ge3 2.966068 1_545
Dy3 Ge3 2.966068 1_556
Dy3 Ge6 3.062686 1_655
Dy3 Ge4 3.062690 1_555
Dy3 Ir1 3.223096 1_555
Dy3 Ir1 3.223101 1_544
Dy3 Ir3 3.223109 1_545
Dy3 Ir3 3.223109 1_556
Dy3 Ir0 3.248726 1_555
Dy3 Ir2 3.248732 1_655
Dy3 Ge0 3.487536 1_555
Ge0 Ir2 2.453098 1_655
Ge0 Ir0 2.453113 1_555
Ge1 Ir3 2.453098 1_455
Ge1 Ir1 2.453113 1_555
Ge2 Ge3 2.463746 1_555
Ge2 Ir0 2.478216 1_555
Ge2 Ir2 2.478217 1_554
Ge3 Ir1 2.478216 1_554
Ge3 Ir3 2.478217 1_555
Ge4 Ir1 2.456982 1_555
Ge4 Ir1 2.456990 1_544
Ge4 Ir0 2.611584 1_555
Ge4 Ge6 2.708836 1_554
Ge5 Ir0 2.456982 1_555
Ge5 Ir0 2.456990 1_566
Ge5 Ir1 2.611584 1_555
Ge5 Ge7 2.708836 1_556
Ge6 Ir3 2.456983 1_456
Ge6 Ir3 2.456986 1_445
Ge6 Ir2 2.611609 1_555
Ge7 Ir2 2.456983 1_654
Ge7 Ir2 2.456986 1_665
Ge7 Ir3 2.611609 1_555
