# generated using pymatgen
data_FeRe3
_symmetry_space_group_name_H-M   'P 1'
_cell_length_a   5.40429596
_cell_length_b   5.40430510
_cell_length_c   4.40422398
_cell_angle_alpha   90.00000000
_cell_angle_beta   90.00000000
_cell_angle_gamma   120.00000172
_symmetry_Int_Tables_number   1
_chemical_formula_structural   FeRe3
_chemical_formula_sum   'Fe2 Re6'
_cell_volume   111.39841336
_cell_formula_units_Z   2
loop_
 _symmetry_equiv_pos_site_id
 _symmetry_equiv_pos_as_xyz
  1  'x, y, z'
loop_
 _atom_site_type_symbol
 _atom_site_label
 _atom_site_symmetry_multiplicity
 _atom_site_fract_x
 _atom_site_fract_y
 _atom_site_fract_z
 _atom_site_occupancy
  Fe  Fe0  1  0.33332953  0.66667341  0.75000000  1
  Fe  Fe1  1  0.66665918  0.33331724  0.25000000  1
  Re  Re0  1  0.16697595  0.33395210  0.25000000  1
  Re  Re1  1  0.66604252  0.83303297  0.25000000  1
  Re  Re2  1  0.16699053  0.83303197  0.25000000  1
  Re  Re3  1  0.83303163  0.66605278  0.75000000  1
  Re  Re4  1  0.33395040  0.16696721  0.75000000  1
  Re  Re5  1  0.83302126  0.16697433  0.75000000  1
loop_
_geom_bond_atom_site_label_1
_geom_bond_atom_site_label_2
_geom_bond_distance
_geom_bond_site_symmetry_2
Fe0 Re2 2.697016 1_555
Fe0 Re2 2.697016 1_556
Fe0 Re1 2.697057 1_556
Fe0 Re1 2.697057 1_555
Fe0 Re0 2.697081 1_555
Fe0 Re0 2.697081 1_556
Fe0 Re4 2.702064 1_565
Fe0 Re3 2.702082 1_455
Fe0 Re5 2.702132 1_565
Fe0 Re5 2.702172 1_455
Fe0 Re3 2.702217 1_555
Fe0 Re4 2.702244 1_555
Fe1 Re5 2.697036 1_554
Fe1 Re5 2.697036 1_555
Fe1 Re4 2.697045 1_555
Fe1 Re4 2.697045 1_554
Fe1 Re3 2.697119 1_555
Fe1 Re3 2.697119 1_554
Fe1 Re1 2.702024 1_545
Fe1 Re2 2.702027 1_545
Fe1 Re0 2.702146 1_655
Fe1 Re0 2.702153 1_555
Fe1 Re2 2.702276 1_655
Fe1 Re1 2.702284 1_555
Re0 Re2 2.697140 1_555
Re0 Re1 2.697144 1_555
Re0 Re5 2.700416 1_455
Re0 Re5 2.700416 1_454
Re0 Re4 2.700430 1_554
Re0 Re4 2.700430 1_555
Re0 Re1 2.707156 1_445
Re0 Re2 2.707165 1_545
Re1 Re2 2.697022 1_555
Re1 Re5 2.700382 1_565
Re1 Re5 2.700382 1_564
Re1 Re3 2.700456 1_554
Re1 Re3 2.700456 1_555
Re1 Re2 2.707274 1_655
Re2 Re4 2.700365 1_565
Re2 Re4 2.700365 1_564
Re2 Re3 2.700428 1_455
Re2 Re3 2.700428 1_454
Re3 Re5 2.697144 1_555
Re3 Re4 2.697197 1_555
Re3 Re4 2.707104 1_665
Re3 Re5 2.707161 1_565
Re4 Re5 2.697107 1_555
Re4 Re5 2.707189 1_455
