# generated using pymatgen
data_SrLi2Ti6O14
_symmetry_space_group_name_H-M   'P 1'
_cell_length_a   10.09266650
_cell_length_b   10.09266650
_cell_length_c   11.56144200
_cell_angle_alpha   90.00000000
_cell_angle_beta   90.00000000
_cell_angle_gamma   112.01224979
_symmetry_Int_Tables_number   1
_chemical_formula_structural   SrLi2Ti6O14
_chemical_formula_sum   'Sr4 Li8 Ti24 O56'
_cell_volume   1091.82286342
_cell_formula_units_Z   4
loop_
 _symmetry_equiv_pos_site_id
 _symmetry_equiv_pos_as_xyz
  1  'x, y, z'
loop_
 _atom_site_type_symbol
 _atom_site_label
 _atom_site_symmetry_multiplicity
 _atom_site_fract_x
 _atom_site_fract_y
 _atom_site_fract_z
 _atom_site_occupancy
  Sr  Sr0  1  0.35336000  0.35336000  0.12105900  1
  Sr  Sr1  1  0.64664000  0.64664000  0.87894100  1
  Sr  Sr2  1  0.85336000  0.85336000  0.37894100  1
  Sr  Sr3  1  0.14664000  0.14664000  0.62105900  1
  Li  Li0  1  0.05855700  0.43098900  0.12167100  1
  Li  Li1  1  0.44144300  0.06901100  0.62167100  1
  Li  Li2  1  0.93098900  0.55855700  0.37832900  1
  Li  Li3  1  0.56901100  0.94144300  0.87832900  1
  Li  Li4  1  0.94144300  0.56901100  0.87832900  1
  Li  Li5  1  0.55855700  0.93098900  0.37832900  1
  Li  Li6  1  0.06901100  0.44144300  0.62167100  1
  Li  Li7  1  0.43098900  0.05855700  0.12167100  1
  Ti  Ti0  1  0.49100500  0.27587700  0.38505200  1
  Ti  Ti1  1  0.00899500  0.22412300  0.88505200  1
  Ti  Ti2  1  0.77587700  0.99100500  0.11494800  1
  Ti  Ti3  1  0.72412300  0.50899500  0.61494800  1
  Ti  Ti4  1  0.50899500  0.72412300  0.61494800  1
  Ti  Ti5  1  0.24303200  0.74303200  0.25000000  1
  Ti  Ti6  1  0.99100500  0.77587700  0.11494800  1
  Ti  Ti7  1  0.22412300  0.00899500  0.88505200  1
  Ti  Ti8  1  0.27587700  0.49100500  0.38505200  1
  Ti  Ti9  1  0.23499100  0.01763400  0.35955900  1
  Ti  Ti10  1  0.26500900  0.48236600  0.85955900  1
  Ti  Ti11  1  0.51763400  0.73499100  0.14044100  1
  Ti  Ti12  1  0.98236600  0.76500900  0.64044100  1
  Ti  Ti13  1  0.76500900  0.98236600  0.64044100  1
  Ti  Ti14  1  0.25696800  0.75696800  0.75000000  1
  Ti  Ti15  1  0.48236600  0.26500900  0.85955900  1
  Ti  Ti16  1  0.01763400  0.23499100  0.35955900  1
  Ti  Ti17  1  0.76059300  0.23940700  0.50000000  1
  Ti  Ti18  1  0.73940700  0.26059300  0.00000000  1
  Ti  Ti19  1  0.23940700  0.76059300  0.50000000  1
  Ti  Ti20  1  0.26059300  0.73940700  0.00000000  1
  Ti  Ti21  1  0.74303100  0.24303100  0.25000000  1
  Ti  Ti22  1  0.75696800  0.25696800  0.75000000  1
  Ti  Ti23  1  0.73499100  0.51763400  0.14044100  1
  O  O0  1  0.35496100  0.13939500  0.75892300  1
  O  O1  1  0.59011200  0.59011200  0.63377500  1
  O  O2  1  0.90988800  0.90988800  0.13377500  1
  O  O3  1  0.09011200  0.09011200  0.86622500  1
  O  O4  1  0.40988800  0.40988800  0.36622500  1
  O  O5  1  0.35540700  0.13987100  0.48284300  1
  O  O6  1  0.14459300  0.36012900  0.98284300  1
  O  O7  1  0.63987100  0.85540700  0.01715700  1
  O  O8  1  0.86012900  0.64459300  0.51715700  1
  O  O9  1  0.64459300  0.86012900  0.51715700  1
  O  O10  1  0.85540700  0.63987100  0.01715700  1
  O  O11  1  0.36012900  0.14459300  0.98284300  1
  O  O12  1  0.13987100  0.35540700  0.48284300  1
  O  O13  1  0.91639000  0.91639000  0.62286500  1
  O  O14  1  0.58361000  0.58361000  0.12286500  1
  O  O15  1  0.41639000  0.41639000  0.87713500  1
  O  O16  1  0.08361000  0.08361000  0.37713500  1
  O  O17  1  0.36060500  0.14503900  0.25892300  1
  O  O18  1  0.13939500  0.35496100  0.75892300  1
  O  O19  1  0.64503900  0.86060500  0.24107700  1
  O  O20  1  0.85496100  0.63939500  0.74107700  1
  O  O21  1  0.63939500  0.85496100  0.74107700  1
  O  O22  1  0.37116400  0.62883600  0.00000000  1
  O  O23  1  0.14503900  0.36060500  0.25892300  1
  O  O24  1  0.36736800  0.63263200  0.50000000  1
  O  O25  1  0.13263200  0.86736800  0.00000000  1
  O  O26  1  0.63263200  0.36736800  0.50000000  1
  O  O27  1  0.86736800  0.13263200  0.00000000  1
  O  O28  1  0.14606500  0.62072200  0.37823200  1
  O  O29  1  0.35393500  0.87927800  0.87823200  1
  O  O30  1  0.12072200  0.64606500  0.12176800  1
  O  O31  1  0.37927800  0.85393500  0.62176800  1
  O  O32  1  0.85393500  0.37927800  0.62176800  1
  O  O33  1  0.64606500  0.12072200  0.12176800  1
  O  O34  1  0.87927800  0.35393500  0.87823200  1
  O  O35  1  0.62072200  0.14606500  0.37823200  1
  O  O36  1  0.36337800  0.62786800  0.25000000  1
  O  O37  1  0.13662200  0.87213200  0.75000000  1
  O  O38  1  0.12786800  0.86337800  0.25000000  1
  O  O39  1  0.37213200  0.63662200  0.75000000  1
  O  O40  1  0.63662200  0.37213200  0.75000000  1
  O  O41  1  0.86337800  0.12786800  0.25000000  1
  O  O42  1  0.87213200  0.13662200  0.75000000  1
  O  O43  1  0.62786800  0.36337800  0.25000000  1
  O  O44  1  0.88046300  0.34810700  0.37186100  1
  O  O45  1  0.61953700  0.15189300  0.87186100  1
  O  O46  1  0.84810700  0.38046300  0.12813900  1
  O  O47  1  0.65189300  0.11953700  0.62813900  1
  O  O48  1  0.11953700  0.65189300  0.62813900  1
  O  O49  1  0.38046300  0.84810700  0.12813900  1
  O  O50  1  0.15189300  0.61953700  0.87186100  1
  O  O51  1  0.34810700  0.88046300  0.37186100  1
  O  O52  1  0.87116400  0.12883600  0.50000000  1
  O  O53  1  0.62883600  0.37116400  0.00000000  1
  O  O54  1  0.12883600  0.87116400  0.50000000  1
  O  O55  1  0.86060500  0.64503900  0.24107700  1
loop_
_geom_bond_atom_site_label_1
_geom_bond_atom_site_label_2
_geom_bond_distance
_geom_bond_site_symmetry_2
Li0 O46 1.991256 1_455
Li0 O30 2.021049 1_555
Li0 O23 2.061375 1_555
Li0 O6 2.075371 1_554
Li1 O47 1.991256 1_555
Li1 O31 2.021049 1_545
Li1 O0 2.061375 1_555
Li1 O5 2.075371 1_555
Li2 O44 1.991256 1_555
Li2 O28 2.021049 1_655
Li2 O55 2.061375 1_555
Li2 O8 2.075371 1_555
Li3 O45 1.991256 1_565
Li3 O29 2.021049 1_555
Li3 O21 2.061375 1_555
Li3 O7 2.075371 1_556
Li4 O50 1.991256 1_655
Li4 O34 2.021049 1_555
Li4 O20 2.061375 1_555
Li4 O10 2.075371 1_556
Li5 O51 1.991256 1_555
Li5 O35 2.021049 1_565
Li5 O19 2.061375 1_555
Li5 O9 2.075371 1_555
Li6 O48 1.991256 1_555
Li6 O32 2.021049 1_455
Li6 O18 2.061375 1_555
Li6 O12 2.075371 1_555
Li7 O49 1.991256 1_545
Li7 O33 2.021049 1_555
Li7 O17 2.061375 1_555
Li7 O11 2.075371 1_554
O0 Ti15 1.841852 1_555
O0 Ti7 2.073526 1_555
O0 Sr3 2.661146 1_555
O1 Ti3 1.837662 1_555
O1 Ti4 1.837662 1_555
O1 Sr1 2.905379 1_555
O2 Ti6 1.837662 1_555
O2 Ti2 1.837662 1_555
O2 Sr2 2.905379 1_555
O3 Ti7 1.837662 1_555
O3 Ti1 1.837662 1_555
O3 Sr3 2.905379 1_555
O4 Ti0 1.837662 1_555
O4 Ti8 1.837662 1_555
O4 Sr0 2.905379 1_555
O5 Ti0 1.904523 1_555
O5 Ti9 1.976534 1_555
O5 Sr3 2.665636 1_555
O6 Ti1 1.904523 1_555
O6 Ti10 1.976534 1_555
O6 Sr0 2.665636 1_556
O7 Ti2 1.904523 1_555
O7 Ti11 1.976534 1_555
O7 Sr1 2.665636 1_554
O8 Ti3 1.904523 1_555
O8 Ti12 1.976534 1_555
O8 Sr2 2.665636 1_555
O9 Ti4 1.904523 1_555
O9 Ti13 1.976534 1_555
O9 Sr2 2.665636 1_555
O10 Ti6 1.904523 1_555
O10 Ti23 1.976534 1_555
O10 Sr1 2.665636 1_554
O11 Ti7 1.904523 1_555
O11 Ti15 1.976534 1_555
O11 Sr0 2.665636 1_556
O12 Ti8 1.904523 1_555
O12 Ti16 1.976534 1_555
O12 Sr3 2.665636 1_555
O13 Ti13 1.892507 1_555
O13 Ti12 1.892507 1_555
O13 Sr3 2.598618 1_665
O13 Sr2 2.908443 1_555
O14 Ti23 1.892507 1_555
O14 Ti11 1.892507 1_555
O14 Sr0 2.598618 1_555
O14 Sr1 2.908443 1_554
O15 Ti15 1.892507 1_555
O15 Ti10 1.892507 1_555
O15 Sr1 2.598618 1_555
O15 Sr0 2.908443 1_556
O16 Ti9 1.892507 1_555
O16 Ti16 1.892507 1_555
O16 Sr2 2.598618 1_445
O16 Sr3 2.908443 1_555
O17 Ti9 1.841852 1_555
O17 Ti0 2.073526 1_555
O17 Sr0 2.661146 1_555
O18 Ti10 1.841852 1_555
O18 Ti1 2.073526 1_555
O18 Sr3 2.661146 1_555
O19 Ti11 1.841852 1_555
O19 Ti2 2.073526 1_555
O19 Sr2 2.661146 1_555
O20 Ti12 1.841852 1_555
O20 Ti3 2.073526 1_555
O20 Sr1 2.661146 1_555
O21 Ti13 1.841852 1_555
O21 Ti4 2.073526 1_555
O21 Sr1 2.661146 1_555
O22 Ti20 1.850473 1_555
O22 Ti11 2.186854 1_555
O22 Ti10 2.186854 1_554
O22 Sr0 3.057240 1_555
O22 Sr1 3.057240 1_554
O23 Ti16 1.841852 1_555
O23 Ti8 2.073526 1_555
O23 Sr0 2.661146 1_555
O24 Ti4 1.916393 1_555
O24 Ti8 1.916393 1_555
O24 Ti19 2.141505 1_555
O25 Ti6 1.916393 1_455
O25 Ti7 1.916393 1_564
O25 Ti20 2.141505 1_555
O26 Ti3 1.916393 1_555
O26 Ti0 1.916393 1_555
O26 Ti17 2.141505 1_555
O27 Ti2 1.916393 1_545
O27 Ti1 1.916393 1_654
O27 Ti18 2.141505 1_555
O28 Ti5 1.942665 1_555
O28 Ti19 1.966049 1_555
O28 Ti8 2.173119 1_555
O29 Ti14 1.942665 1_555
O29 Ti20 1.966049 1_556
O29 Ti7 2.173119 1_565
O30 Ti5 1.942665 1_555
O30 Ti20 1.966049 1_555
O30 Ti6 2.173119 1_455
O31 Ti14 1.942665 1_555
O31 Ti19 1.966049 1_555
O31 Ti4 2.173119 1_555
O32 Ti22 1.942665 1_555
O32 Ti17 1.966049 1_555
O32 Ti3 2.173119 1_555
O33 Ti21 1.942658 1_555
O33 Ti18 1.966049 1_555
O33 Ti2 2.173119 1_545
O34 Ti22 1.942665 1_555
O34 Ti18 1.966049 1_556
O34 Ti1 2.173119 1_655
O35 Ti21 1.942658 1_555
O35 Ti17 1.966049 1_555
O35 Ti0 2.173119 1_555
O36 Ti5 1.970918 1_555
O36 Ti11 1.983779 1_555
O36 Ti8 2.052184 1_555
O36 Sr0 3.114214 1_555
O37 Ti14 1.970918 1_555
O37 Ti12 1.983779 1_455
O37 Ti7 2.052184 1_565
O37 Sr3 3.114214 1_565
O38 Ti5 1.970918 1_555
O38 Ti9 1.983779 1_565
O38 Ti6 2.052184 1_455
O38 Sr2 3.114214 1_455
O39 Ti14 1.970918 1_555
O39 Ti10 1.983779 1_555
O39 Ti4 2.052184 1_555
O39 Sr1 3.114214 1_555
O40 Ti22 1.970918 1_555
O40 Ti15 1.983779 1_555
O40 Ti3 2.052184 1_555
O40 Sr1 3.114214 1_555
O41 Ti21 1.970918 1_555
O41 Ti16 1.983779 1_655
O41 Ti2 2.052184 1_545
O41 Sr2 3.114214 1_545
O42 Ti22 1.970918 1_555
O42 Ti13 1.983779 1_545
O42 Ti1 2.052184 1_655
O42 Sr3 3.114214 1_655
O43 Ti21 1.970918 1_555
O43 Ti23 1.983779 1_555
O43 Ti0 2.052184 1_555
O43 Sr0 3.114214 1_555
O44 Ti17 1.966480 1_555
O44 Ti21 1.982648 1_555
O44 Ti16 2.103560 1_655
O45 Ti18 1.966480 1_556
O45 Ti22 1.982640 1_555
O45 Ti15 2.103560 1_555
O46 Ti18 1.966480 1_555
O46 Ti21 1.982648 1_555
O46 Ti23 2.103560 1_555
O47 Ti17 1.966480 1_555
O47 Ti22 1.982640 1_555
O47 Ti13 2.103560 1_545
O48 Ti19 1.966480 1_555
O48 Ti14 1.982640 1_555
O48 Ti12 2.103560 1_455
O49 Ti20 1.966480 1_555
O49 Ti5 1.982640 1_555
O49 Ti11 2.103560 1_555
O50 Ti20 1.966480 1_556
O50 Ti14 1.982640 1_555
O50 Ti10 2.103560 1_555
O51 Ti19 1.966480 1_555
O51 Ti5 1.982640 1_555
O51 Ti9 2.103560 1_565
O52 Ti17 1.850473 1_555
O52 Ti13 2.186854 1_545
O52 Ti16 2.186854 1_655
O52 Sr2 3.057240 1_545
O52 Sr3 3.057240 1_655
O53 Ti18 1.850473 1_555
O53 Ti23 2.186854 1_555
O53 Ti15 2.186854 1_554
O53 Sr0 3.057240 1_555
O53 Sr1 3.057240 1_554
O54 Ti19 1.850473 1_555
O54 Ti12 2.186854 1_455
O54 Ti9 2.186854 1_565
O54 Sr2 3.057240 1_455
O54 Sr3 3.057240 1_565
O55 Ti23 1.841852 1_555
O55 Ti6 2.073526 1_555
O55 Sr2 2.661146 1_555
