# generated using pymatgen
data_Y6Ti4Al43
_symmetry_space_group_name_H-M   'P 1'
_cell_length_a   11.10800654
_cell_length_b   11.10800654
_cell_length_c   17.81060000
_cell_angle_alpha   90.00000000
_cell_angle_beta   90.00000000
_cell_angle_gamma   120.00000319
_symmetry_Int_Tables_number   1
_chemical_formula_structural   Y6Ti4Al43
_chemical_formula_sum   'Y12 Ti8 Al86'
_cell_volume   1903.18681840
_cell_formula_units_Z   2
loop_
 _symmetry_equiv_pos_site_id
 _symmetry_equiv_pos_as_xyz
  1  'x, y, z'
loop_
 _atom_site_type_symbol
 _atom_site_label
 _atom_site_symmetry_multiplicity
 _atom_site_fract_x
 _atom_site_fract_y
 _atom_site_fract_z
 _atom_site_occupancy
  Y  Y0  1  0.53063200  0.00000000  0.59654800  1
  Y  Y1  1  0.46936800  0.00000000  0.40345200  1
  Y  Y2  1  0.00000000  0.53063200  0.59654800  1
  Y  Y3  1  0.46936800  0.00000000  0.09654800  1
  Y  Y4  1  0.00000000  0.53063200  0.90345200  1
  Y  Y5  1  0.00000000  0.46936800  0.40345200  1
  Y  Y6  1  0.53063200  0.00000000  0.90345200  1
  Y  Y7  1  0.00000000  0.46936800  0.09654800  1
  Y  Y8  1  0.46936800  0.46936800  0.59654800  1
  Y  Y9  1  0.53063200  0.53063200  0.40345200  1
  Y  Y10  1  0.53063200  0.53063200  0.09654800  1
  Y  Y11  1  0.46936800  0.46936800  0.90345200  1
  Ti  Ti0  1  0.00000000  0.00000000  0.50000000  1
  Ti  Ti1  1  0.00000000  0.00000000  0.00000000  1
  Ti  Ti2  1  0.72804200  0.00000000  0.75000000  1
  Ti  Ti3  1  0.27195800  0.00000000  0.25000000  1
  Ti  Ti4  1  0.00000000  0.72804200  0.75000000  1
  Ti  Ti5  1  0.00000000  0.27195800  0.25000000  1
  Ti  Ti6  1  0.27195800  0.27195800  0.75000000  1
  Ti  Ti7  1  0.72804200  0.72804200  0.25000000  1
  Al  Al0  1  0.14995300  0.59744000  0.75000000  1
  Al  Al1  1  0.85004700  0.40256000  0.25000000  1
  Al  Al2  1  0.40256000  0.55251200  0.75000000  1
  Al  Al3  1  0.59744000  0.14995300  0.75000000  1
  Al  Al4  1  0.59744000  0.44748800  0.25000000  1
  Al  Al5  1  0.40256000  0.85004700  0.25000000  1
  Al  Al6  1  0.44748800  0.85004700  0.75000000  1
  Al  Al7  1  0.55251200  0.40256000  0.75000000  1
  Al  Al8  1  0.55251200  0.14995300  0.25000000  1
  Al  Al9  1  0.44748800  0.59744000  0.25000000  1
  Al  Al10  1  0.85004700  0.44748800  0.75000000  1
  Al  Al11  1  0.14995300  0.55251200  0.25000000  1
  Al  Al12  1  0.15717600  0.00000000  0.11590000  1
  Al  Al13  1  0.84282400  0.00000000  0.88410000  1
  Al  Al14  1  0.00000000  0.15717600  0.11590000  1
  Al  Al15  1  0.84282400  0.00000000  0.61590000  1
  Al  Al16  1  0.00000000  0.15717600  0.38410000  1
  Al  Al17  1  0.00000000  0.84282400  0.88410000  1
  Al  Al18  1  0.15717600  0.00000000  0.38410000  1
  Al  Al19  1  0.00000000  0.84282400  0.61590000  1
  Al  Al20  1  0.84282400  0.84282400  0.11590000  1
  Al  Al21  1  0.15717600  0.15717600  0.88410000  1
  Al  Al22  1  0.15717600  0.15717600  0.61590000  1
  Al  Al23  1  0.84282400  0.84282400  0.38410000  1
  Al  Al24  1  0.24737500  0.49475100  0.50000000  1
  Al  Al25  1  0.75262500  0.50524900  0.50000000  1
  Al  Al26  1  0.50524900  0.75262500  0.50000000  1
  Al  Al27  1  0.75262500  0.50524900  0.00000000  1
  Al  Al28  1  0.49475100  0.24737500  0.00000000  1
  Al  Al29  1  0.49475100  0.24737500  0.50000000  1
  Al  Al30  1  0.24737500  0.49475100  0.00000000  1
  Al  Al31  1  0.50524900  0.75262500  0.00000000  1
  Al  Al32  1  0.24737500  0.75262500  0.50000000  1
  Al  Al33  1  0.75262500  0.24737500  0.50000000  1
  Al  Al34  1  0.75262500  0.24737500  0.00000000  1
  Al  Al35  1  0.24737500  0.75262500  0.00000000  1
  Al  Al36  1  0.14643100  0.00000000  0.75000000  1
  Al  Al37  1  0.85356900  0.00000000  0.25000000  1
  Al  Al38  1  0.00000000  0.14643100  0.75000000  1
  Al  Al39  1  0.00000000  0.85356900  0.25000000  1
  Al  Al40  1  0.85356900  0.85356900  0.75000000  1
  Al  Al41  1  0.14643100  0.14643100  0.25000000  1
  Al  Al42  1  0.33333300  0.66666700  0.62621100  1
  Al  Al43  1  0.66666700  0.33333300  0.37378900  1
  Al  Al44  1  0.66666700  0.33333300  0.12621100  1
  Al  Al45  1  0.66666700  0.33333300  0.87378900  1
  Al  Al46  1  0.33333300  0.66666700  0.87378900  1
  Al  Al47  1  0.33333300  0.66666700  0.12621100  1
  Al  Al48  1  0.33333300  0.66666700  0.37378900  1
  Al  Al49  1  0.66666700  0.33333300  0.62621100  1
  Al  Al50  1  0.25383800  0.00000000  0.52923500  1
  Al  Al51  1  0.74616200  0.00000000  0.47076500  1
  Al  Al52  1  0.00000000  0.25383800  0.52923500  1
  Al  Al53  1  0.74616200  0.00000000  0.02923500  1
  Al  Al54  1  0.00000000  0.25383800  0.97076500  1
  Al  Al55  1  0.00000000  0.74616200  0.47076500  1
  Al  Al56  1  0.25383800  0.00000000  0.97076500  1
  Al  Al57  1  0.00000000  0.74616200  0.02923500  1
  Al  Al58  1  0.74616200  0.74616200  0.52923500  1
  Al  Al59  1  0.25383800  0.25383800  0.47076500  1
  Al  Al60  1  0.25383800  0.25383800  0.02923500  1
  Al  Al61  1  0.74616200  0.74616200  0.97076500  1
  Al  Al62  1  0.15815400  0.39315600  0.66484400  1
  Al  Al63  1  0.84184600  0.60684400  0.33515600  1
  Al  Al64  1  0.60684400  0.76499800  0.66484400  1
  Al  Al65  1  0.84184600  0.60684400  0.16484400  1
  Al  Al66  1  0.39315600  0.15815400  0.83515600  1
  Al  Al67  1  0.39315600  0.23500200  0.33515600  1
  Al  Al68  1  0.15815400  0.39315600  0.83515600  1
  Al  Al69  1  0.60684400  0.84184600  0.16484400  1
  Al  Al70  1  0.23500200  0.84184600  0.66484400  1
  Al  Al71  1  0.39315600  0.23500200  0.16484400  1
  Al  Al72  1  0.76499800  0.60684400  0.83515600  1
  Al  Al73  1  0.76499800  0.15815400  0.33515600  1
  Al  Al74  1  0.60684400  0.76499800  0.83515600  1
  Al  Al75  1  0.23500200  0.39315600  0.16484400  1
  Al  Al76  1  0.60684400  0.84184600  0.33515600  1
  Al  Al77  1  0.39315600  0.15815400  0.66484400  1
  Al  Al78  1  0.76499800  0.15815400  0.16484400  1
  Al  Al79  1  0.23500200  0.39315600  0.33515600  1
  Al  Al80  1  0.23500200  0.84184600  0.83515600  1
  Al  Al81  1  0.76499800  0.60684400  0.66484400  1
  Al  Al82  1  0.84184600  0.23500200  0.83515600  1
  Al  Al83  1  0.15815400  0.76499800  0.16484400  1
  Al  Al84  1  0.15815400  0.76499800  0.33515600  1
  Al  Al85  1  0.84184600  0.23500200  0.66484400  1
loop_
_geom_bond_atom_site_label_1
_geom_bond_atom_site_label_2
_geom_bond_distance
_geom_bond_site_symmetry_2
Y0 Y1 3.505838 1_555
Y2 Y5 3.505838 1_555
Y3 Y6 3.505838 1_554
Y4 Y7 3.505838 1_556
Y8 Y9 3.505838 1_555
Y10 Y11 3.505838 1_554
Ti2 Y0 3.504025 1_555
Ti2 Y6 3.504025 1_555
Ti3 Y1 3.504025 1_555
Ti3 Y3 3.504025 1_555
Ti4 Y4 3.504025 1_555
Ti4 Y2 3.504025 1_555
Ti5 Y5 3.504025 1_555
Ti5 Y7 3.504025 1_555
Ti6 Y8 3.504025 1_555
Ti6 Y11 3.504025 1_555
Ti7 Y9 3.504025 1_555
Ti7 Y10 3.504025 1_555
Al0 Ti4 2.701027 1_555
Al0 Al68 2.768491 1_555
Al0 Al62 2.768491 1_555
Al0 Al70 2.828163 1_555
Al0 Al80 2.828163 1_555
Al0 Al46 2.834642 1_555
Al0 Al42 2.834642 1_555
Al0 Al10 2.885040 1_455
Al0 Y2 3.091728 1_555
Al0 Y4 3.091728 1_555
Al1 Ti5 2.701027 1_655
Al1 Al65 2.768491 1_555
Al1 Al63 2.768491 1_555
Al1 Al73 2.828163 1_555
Al1 Al78 2.828163 1_555
Al1 Al43 2.834642 1_555
Al1 Al44 2.834642 1_555
Al1 Al11 2.885040 1_655
Al1 Y5 3.091728 1_655
Al1 Y7 3.091728 1_655
Al2 Ti6 2.701017 1_555
Al2 Al64 2.768496 1_555
Al2 Al74 2.768496 1_555
Al2 Al68 2.828161 1_555
Al2 Al62 2.828161 1_555
Al2 Al42 2.834655 1_555
Al2 Al46 2.834655 1_555
Al2 Al7 2.885021 1_555
Al2 Y11 3.091723 1_555
Al2 Y8 3.091723 1_555
Al3 Ti2 2.701027 1_555
Al3 Al77 2.768491 1_555
Al3 Al66 2.768491 1_555
Al3 Al82 2.828163 1_555
Al3 Al85 2.828163 1_555
Al3 Al49 2.834642 1_555
Al3 Al45 2.834642 1_555
Al3 Al6 2.885040 1_545
Al3 Y0 3.091728 1_555
Al3 Y6 3.091728 1_555
Al4 Ti7 2.701017 1_555
Al4 Al67 2.768496 1_555
Al4 Al71 2.768496 1_555
Al4 Al65 2.828161 1_555
Al4 Al63 2.828161 1_555
Al4 Al43 2.834655 1_555
Al4 Al44 2.834655 1_555
Al4 Al9 2.885021 1_555
Al4 Y9 3.091723 1_555
Al4 Y10 3.091723 1_555
Al5 Ti3 2.701027 1_565
Al5 Al69 2.768491 1_555
Al5 Al76 2.768491 1_555
Al5 Al84 2.828163 1_555
Al5 Al83 2.828163 1_555
Al5 Al8 2.885040 1_565
Al5 Y1 3.091728 1_565
Al5 Y3 3.091728 1_565
Al6 Ti2 2.701017 1_565
Al6 Al70 2.768501 1_555
Al6 Al80 2.768501 1_555
Al6 Al74 2.828154 1_555
Al6 Al64 2.828154 1_555
Al6 Y0 3.091728 1_565
Al6 Y6 3.091728 1_565
Al7 Ti6 2.701017 1_555
Al7 Al81 2.768496 1_555
Al7 Al72 2.768496 1_555
Al7 Al77 2.828161 1_555
Al7 Y11 3.091723 1_555
Al7 Y8 3.091723 1_555
Al8 Ti3 2.701017 1_555
Al8 Y1 3.091728 1_555
Al8 Y3 3.091728 1_555
Al9 Ti7 2.701017 1_555
Al9 Y9 3.091723 1_555
Al9 Y10 3.091723 1_555
Al10 Ti4 2.701017 1_655
Al10 Al85 2.768501 1_555
Al10 Al82 2.768501 1_555
Al10 Al72 2.828154 1_555
Al10 Al81 2.828154 1_555
Al10 Al49 2.834644 1_555
Al10 Al45 2.834644 1_555
Al10 Y4 3.091728 1_655
Al10 Y2 3.091728 1_655
Al11 Ti5 2.701017 1_555
Al11 Al84 2.768501 1_555
Al11 Al83 2.768501 1_555
Al11 Al75 2.828154 1_555
Al11 Al79 2.828154 1_555
Al11 Al48 2.834644 1_555
Al11 Al47 2.834644 1_555
Al11 Y5 3.091728 1_555
Al11 Y7 3.091728 1_555
Al12 Ti1 2.703577 1_555
Al12 Ti3 2.707413 1_555
Al12 Al71 2.757278 1_555
Al12 Al83 2.757278 1_545
Al12 Al56 2.799072 1_554
Al12 Al57 2.908312 1_545
Al12 Al60 2.908312 1_555
Al12 Al39 2.925497 1_545
Al12 Al41 2.925497 1_555
Al12 Al20 3.024008 1_445
Al12 Al14 3.024008 1_555
Al12 Y3 3.484917 1_555
Al13 Ti1 2.703577 1_656
Al13 Ti2 2.707413 1_555
Al13 Al74 2.757278 1_545
Al13 Al82 2.757278 1_555
Al13 Al53 2.799072 1_556
Al13 Al54 2.908312 1_655
Al13 Al61 2.908312 1_545
Al13 Al38 2.925497 1_655
Al13 Al40 2.925497 1_545
Al13 Al21 3.024008 1_655
Al13 Al17 3.024008 1_645
Al13 Y6 3.484917 1_555
Al14 Ti1 2.703577 1_555
Al14 Ti5 2.707413 1_555
Al14 Al75 2.757278 1_555
Al14 Al78 2.757278 1_455
Al14 Al54 2.799072 1_554
Al14 Al53 2.908312 1_455
Al14 Al60 2.908312 1_555
Al14 Al37 2.925497 1_455
Al14 Al41 2.925497 1_555
Al14 Al20 3.024008 1_445
Al14 Y7 3.484917 1_555
Al15 Ti0 2.703577 1_655
Al15 Ti2 2.707413 1_555
Al15 Al64 2.757278 1_545
Al15 Al85 2.757278 1_555
Al15 Al51 2.799072 1_555
Al15 Al52 2.908312 1_655
Al15 Al58 2.908312 1_545
Al15 Al38 2.925497 1_655
Al15 Al40 2.925497 1_545
Al15 Al22 3.024008 1_655
Al15 Al19 3.024008 1_645
Al15 Y0 3.484917 1_555
Al16 Ti0 2.703577 1_555
Al16 Ti5 2.707413 1_555
Al16 Al79 2.757278 1_555
Al16 Al73 2.757278 1_455
Al16 Al52 2.799072 1_555
Al16 Al51 2.908312 1_455
Al16 Al59 2.908312 1_555
Al16 Al37 2.925497 1_455
Al16 Al41 2.925497 1_555
Al16 Al23 3.024008 1_445
Al16 Al18 3.024008 1_555
Al16 Y5 3.484917 1_555
Al17 Ti1 2.703577 1_566
Al17 Ti4 2.707413 1_555
Al17 Al72 2.757278 1_455
Al17 Al80 2.757278 1_555
Al17 Al57 2.799072 1_556
Al17 Al56 2.908312 1_565
Al17 Al61 2.908312 1_455
Al17 Al36 2.925497 1_565
Al17 Al40 2.925497 1_455
Al17 Al21 3.024008 1_565
Al17 Y4 3.484917 1_555
Al18 Ti0 2.703577 1_555
Al18 Ti3 2.707413 1_555
Al18 Al67 2.757278 1_555
Al18 Al84 2.757278 1_545
Al18 Al50 2.799072 1_555
Al18 Al55 2.908312 1_545
Al18 Al59 2.908312 1_555
Al18 Al39 2.925497 1_545
Al18 Al41 2.925497 1_555
Al18 Al23 3.024008 1_445
Al18 Y1 3.484917 1_555
Al19 Ti0 2.703577 1_565
Al19 Ti4 2.707413 1_555
Al19 Al81 2.757278 1_455
Al19 Al70 2.757278 1_555
Al19 Al55 2.799072 1_555
Al19 Al50 2.908312 1_565
Al19 Al58 2.908312 1_455
Al19 Al36 2.925497 1_565
Al19 Al40 2.925497 1_455
Al19 Al22 3.024008 1_565
Al19 Y2 3.484917 1_555
Al20 Ti1 2.703577 1_665
Al20 Ti7 2.707413 1_555
Al20 Al69 2.757278 1_555
Al20 Al65 2.757278 1_555
Al20 Al61 2.799072 1_554
Al20 Al53 2.908312 1_565
Al20 Al57 2.908312 1_655
Al20 Al39 2.925497 1_655
Al20 Al37 2.925497 1_565
Al20 Y10 3.484917 1_555
Al21 Ti1 2.703577 1_556
Al21 Ti6 2.707413 1_555
Al21 Al66 2.757278 1_555
Al21 Al68 2.757278 1_555
Al21 Al60 2.799072 1_556
Al21 Al56 2.908312 1_555
Al21 Al54 2.908312 1_555
Al21 Al36 2.925497 1_555
Al21 Al38 2.925497 1_555
Al21 Y11 3.484917 1_555
Al22 Ti0 2.703577 1_555
Al22 Ti6 2.707413 1_555
Al22 Al62 2.757278 1_555
Al22 Al77 2.757278 1_555
Al22 Al59 2.799072 1_555
Al22 Al50 2.908312 1_555
Al22 Al52 2.908312 1_555
Al22 Al36 2.925497 1_555
Al22 Al38 2.925497 1_555
Al22 Y8 3.484917 1_555
Al23 Ti0 2.703577 1_665
Al23 Ti7 2.707413 1_555
Al23 Al76 2.757278 1_555
Al23 Al63 2.757278 1_555
Al23 Al58 2.799072 1_555
Al23 Al51 2.908312 1_565
Al23 Al55 2.908312 1_655
Al23 Al39 2.925497 1_655
Al23 Al37 2.925497 1_565
Al23 Y9 3.484917 1_555
Al24 Al52 2.762187 1_555
Al24 Al59 2.762192 1_555
Al24 Al42 2.790713 1_555
Al24 Al48 2.790713 1_555
Al24 Al26 2.864466 1_555
Al24 Al32 2.864466 1_555
Al24 Al62 3.123660 1_555
Al24 Al79 3.123662 1_555
Al24 Y5 3.132462 1_555
Al24 Y8 3.132472 1_555
Al24 Y2 3.429525 1_555
Al24 Y9 3.429535 1_555
Al25 Al55 2.762187 1_655
Al25 Al58 2.762192 1_555
Al25 Al49 2.790713 1_555
Al25 Al43 2.790713 1_555
Al25 Al29 2.864466 1_555
Al25 Al33 2.864466 1_555
Al25 Al63 3.123660 1_555
Al25 Al81 3.123662 1_555
Al25 Y2 3.132462 1_655
Al25 Y9 3.132472 1_555
Al25 Y5 3.429525 1_655
Al25 Y8 3.429535 1_555
Al26 Al51 2.762187 1_565
Al26 Al58 2.762192 1_555
Al26 Al42 2.790713 1_555
Al26 Al48 2.790713 1_555
Al26 Al32 2.864466 1_555
Al26 Al76 3.123660 1_555
Al26 Al64 3.123662 1_555
Al26 Y0 3.132462 1_565
Al26 Y9 3.132472 1_555
Al26 Y1 3.429525 1_565
Al26 Y8 3.429535 1_555
Al27 Al57 2.762187 1_655
Al27 Al61 2.762192 1_554
Al27 Al45 2.790713 1_554
Al27 Al44 2.790713 1_555
Al27 Al28 2.864466 1_555
Al27 Al34 2.864466 1_555
Al27 Al65 3.123660 1_555
Al27 Al72 3.123662 1_554
Al27 Y4 3.132462 1_654
Al27 Y10 3.132472 1_555
Al27 Y7 3.429525 1_655
Al27 Y11 3.429535 1_554
Al28 Al56 2.762187 1_554
Al28 Al60 2.762192 1_555
Al28 Al45 2.790713 1_554
Al28 Al44 2.790713 1_555
Al28 Al34 2.864466 1_555
Al28 Al66 3.123660 1_554
Al28 Al71 3.123662 1_555
Al28 Y3 3.132462 1_555
Al28 Y11 3.132472 1_554
Al28 Y6 3.429525 1_554
Al28 Y10 3.429535 1_555
Al29 Al50 2.762187 1_555
Al29 Al59 2.762192 1_555
Al29 Al49 2.790713 1_555
Al29 Al43 2.790713 1_555
Al29 Al33 2.864466 1_555
Al29 Al77 3.123660 1_555
Al29 Al67 3.123662 1_555
Al29 Y1 3.132462 1_555
Al29 Y8 3.132472 1_555
Al29 Y0 3.429525 1_555
Al29 Y9 3.429535 1_555
Al30 Al54 2.762187 1_554
Al30 Al60 2.762192 1_555
Al30 Al46 2.790713 1_554
Al30 Al47 2.790713 1_555
Al30 Al31 2.864466 1_555
Al30 Al35 2.864466 1_555
Al30 Al68 3.123660 1_554
Al30 Al75 3.123662 1_555
Al30 Y7 3.132462 1_555
Al30 Y11 3.132472 1_554
Al30 Y4 3.429525 1_554
Al30 Y10 3.429535 1_555
Al31 Al53 2.762187 1_565
Al31 Al61 2.762192 1_554
Al31 Al46 2.790713 1_554
Al31 Al47 2.790713 1_555
Al31 Al35 2.864466 1_555
Al31 Al69 3.123660 1_555
Al31 Al74 3.123662 1_554
Al31 Y6 3.132462 1_564
Al31 Y10 3.132472 1_555
Al31 Y3 3.429525 1_565
Al31 Y11 3.429535 1_554
Al32 Al50 2.762181 1_565
Al32 Al55 2.762181 1_555
Al32 Al42 2.790713 1_555
Al32 Al48 2.790713 1_555
Al32 Al84 3.123658 1_555
Al32 Al70 3.123658 1_555
Al32 Y2 3.132466 1_555
Al32 Y1 3.132466 1_565
Al32 Y0 3.429531 1_565
Al32 Y5 3.429531 1_555
Al33 Al51 2.762181 1_555
Al33 Al52 2.762181 1_655
Al33 Al49 2.790713 1_555
Al33 Al43 2.790713 1_555
Al33 Al85 3.123658 1_555
Al33 Al73 3.123658 1_555
Al33 Y0 3.132466 1_555
Al33 Y5 3.132466 1_655
Al33 Y2 3.429531 1_655
Al33 Y1 3.429531 1_555
Al34 Al53 2.762181 1_555
Al34 Al54 2.762181 1_654
Al34 Al44 2.790713 1_555
Al34 Al45 2.790713 1_554
Al34 Al82 3.123658 1_554
Al34 Al78 3.123658 1_555
Al34 Y6 3.132466 1_554
Al34 Y7 3.132466 1_655
Al34 Y4 3.429531 1_654
Al34 Y3 3.429531 1_555
Al35 Al57 2.762181 1_555
Al35 Al56 2.762181 1_564
Al35 Al47 2.790713 1_555
Al35 Al46 2.790713 1_554
Al35 Al80 3.123658 1_554
Al35 Al83 3.123658 1_555
Al35 Y4 3.132466 1_554
Al35 Y3 3.132466 1_565
Al35 Y7 3.429531 1_555
Al35 Y6 3.429531 1_564
Al36 Ti4 2.618761 1_545
Al36 Ti6 2.618761 1_555
Al36 Al40 2.817278 1_445
Al36 Al38 2.817279 1_555
Al36 Al66 2.843050 1_555
Al36 Al77 2.843050 1_555
Al36 Al80 2.843050 1_545
Al36 Al70 2.843050 1_545
Al37 Ti5 2.618761 1_655
Al37 Ti7 2.618761 1_545
Al37 Al41 2.817278 1_655
Al37 Al39 2.817279 1_645
Al37 Al69 2.843050 1_545
Al37 Al76 2.843050 1_545
Al37 Al78 2.843050 1_555
Al37 Al73 2.843050 1_555
Al38 Ti2 2.618761 1_455
Al38 Ti6 2.618761 1_555
Al38 Al40 2.817278 1_445
Al38 Al62 2.843050 1_555
Al38 Al68 2.843050 1_555
Al38 Al82 2.843050 1_455
Al38 Al85 2.843050 1_455
Al39 Ti3 2.618761 1_565
Al39 Ti7 2.618761 1_455
Al39 Al41 2.817278 1_565
Al39 Al65 2.843050 1_455
Al39 Al63 2.843050 1_455
Al39 Al83 2.843050 1_555
Al39 Al84 2.843050 1_555
Al40 Ti2 2.618761 1_565
Al40 Ti4 2.618761 1_655
Al40 Al64 2.843050 1_555
Al40 Al81 2.843050 1_555
Al40 Al72 2.843050 1_555
Al40 Al74 2.843050 1_555
Al41 Ti5 2.618761 1_555
Al41 Ti3 2.618761 1_555
Al41 Al75 2.843050 1_555
Al41 Al79 2.843050 1_555
Al41 Al67 2.843050 1_555
Al41 Al71 2.843050 1_555
Al42 Al70 2.752888 1_555
Al42 Al62 2.752896 1_555
Al42 Al64 2.752898 1_555
Al42 Al6 2.834644 1_555
Al42 Y2 3.267597 1_555
Al42 Y0 3.267598 1_565
Al42 Y8 3.267607 1_555
Al43 Al73 2.752888 1_555
Al43 Al63 2.752896 1_555
Al43 Al67 2.752898 1_555
Al43 Al8 2.834644 1_555
Al43 Y5 3.267597 1_655
Al43 Y1 3.267598 1_555
Al43 Y9 3.267607 1_555
Al44 Al78 2.752888 1_555
Al44 Al65 2.752896 1_555
Al44 Al71 2.752898 1_555
Al44 Al8 2.834644 1_555
Al44 Y7 3.267597 1_655
Al44 Y3 3.267598 1_555
Al44 Y10 3.267607 1_555
Al45 Al82 2.752888 1_555
Al45 Al66 2.752896 1_555
Al45 Al72 2.752898 1_555
Al45 Al7 2.834655 1_555
Al45 Y6 3.267597 1_555
Al45 Y4 3.267598 1_655
Al45 Y11 3.267607 1_555
Al46 Al80 2.752888 1_555
Al46 Al68 2.752896 1_555
Al46 Al74 2.752898 1_555
Al46 Al6 2.834644 1_555
Al46 Y4 3.267597 1_555
Al46 Y6 3.267598 1_565
Al46 Y11 3.267607 1_555
Al47 Al83 2.752888 1_555
Al47 Al69 2.752896 1_555
Al47 Al75 2.752898 1_555
Al47 Al5 2.834642 1_555
Al47 Al9 2.834655 1_555
Al47 Y3 3.267597 1_565
Al47 Y7 3.267598 1_555
Al47 Y10 3.267607 1_555
Al48 Al84 2.752888 1_555
Al48 Al76 2.752896 1_555
Al48 Al79 2.752898 1_555
Al48 Al5 2.834642 1_555
Al48 Al9 2.834655 1_555
Al48 Y1 3.267597 1_565
Al48 Y5 3.267598 1_555
Al48 Y9 3.267607 1_555
Al49 Al85 2.752888 1_555
Al49 Al77 2.752896 1_555
Al49 Al81 2.752898 1_555
Al49 Al7 2.834655 1_555
Al49 Y0 3.267597 1_555
Al49 Y2 3.267598 1_655
Al49 Y8 3.267607 1_555
Al50 Ti0 2.867308 1_555
Al50 Al77 2.931899 1_555
Al50 Al70 2.931899 1_545
Al50 Al55 3.005798 1_545
Al50 Al59 3.005798 1_555
Al50 Y1 3.278806 1_555
Al50 Y0 3.300102 1_555
Al51 Ti0 2.867308 1_655
Al51 Al76 2.931899 1_545
Al51 Al73 2.931899 1_555
Al51 Al52 3.005798 1_655
Al51 Al58 3.005798 1_545
Al51 Y0 3.278806 1_555
Al51 Y1 3.300102 1_555
Al52 Ti0 2.867308 1_555
Al52 Al62 2.931899 1_555
Al52 Al85 2.931899 1_455
Al52 Al59 3.005798 1_555
Al52 Y5 3.278806 1_555
Al52 Y2 3.300102 1_555
Al53 Ti1 2.867308 1_655
Al53 Al69 2.931899 1_545
Al53 Al78 2.931899 1_555
Al53 Al54 3.005798 1_654
Al53 Al61 3.005798 1_544
Al53 Y6 3.278806 1_554
Al53 Y3 3.300102 1_555
Al54 Ti1 2.867308 1_556
Al54 Al68 2.931899 1_555
Al54 Al82 2.931899 1_455
Al54 Al60 3.005798 1_556
Al54 Y7 3.278806 1_556
Al54 Y4 3.300102 1_555
Al55 Ti0 2.867308 1_565
Al55 Al63 2.931899 1_455
Al55 Al84 2.931899 1_555
Al55 Al58 3.005798 1_455
Al55 Y2 3.278806 1_555
Al55 Y5 3.300102 1_555
Al56 Ti1 2.867308 1_556
Al56 Al66 2.931899 1_555
Al56 Al80 2.931899 1_545
Al56 Al57 3.005798 1_546
Al56 Al60 3.005798 1_556
Al56 Y3 3.278806 1_556
Al56 Y6 3.300102 1_555
Al57 Ti1 2.867308 1_565
Al57 Al65 2.931899 1_455
Al57 Al83 2.931899 1_555
Al57 Al61 3.005798 1_454
Al57 Y4 3.278806 1_554
Al57 Y7 3.300102 1_555
Al58 Ti0 2.867308 1_665
Al58 Al81 2.931899 1_555
Al58 Al64 2.931899 1_555
Al58 Y9 3.278806 1_555
Al58 Y8 3.300102 1_555
Al59 Ti0 2.867308 1_555
Al59 Al79 2.931899 1_555
Al59 Al67 2.931899 1_555
Al59 Y8 3.278806 1_555
Al59 Y9 3.300102 1_555
Al60 Ti1 2.867308 1_555
Al60 Al71 2.931899 1_555
Al60 Al75 2.931899 1_555
Al60 Y11 3.278806 1_554
Al60 Y10 3.300102 1_555
Al61 Ti1 2.867308 1_666
Al61 Al72 2.931899 1_555
Al61 Al74 2.931899 1_555
Al61 Y10 3.278806 1_556
Al61 Y11 3.300102 1_555
Al62 Ti6 2.722620 1_555
Al62 Al68 3.033359 1_555
Al62 Al85 3.042825 1_455
Al62 Y2 3.095255 1_555
Al62 Y8 3.349681 1_555
Al63 Ti7 2.722620 1_555
Al63 Al65 3.033359 1_555
Al63 Al84 3.042825 1_655
Al63 Y5 3.095255 1_655
Al63 Y9 3.349681 1_555
Al64 Ti2 2.722620 1_565
Al64 Al74 3.033359 1_555
Al64 Al81 3.042825 1_555
Al64 Y8 3.095255 1_555
Al64 Y0 3.349681 1_565
Al65 Ti7 2.722620 1_555
Al65 Al83 3.042825 1_655
Al65 Y7 3.095255 1_655
Al65 Y10 3.349681 1_555
Al66 Ti6 2.722620 1_555
Al66 Al7 2.828161 1_555
Al66 Al77 3.033359 1_555
Al66 Al80 3.042825 1_545
Al66 Y6 3.095255 1_555
Al66 Y11 3.349681 1_555
Al67 Ti3 2.722620 1_555
Al67 Al8 2.828154 1_555
Al67 Al71 3.033359 1_555
Al67 Al79 3.042825 1_555
Al67 Y9 3.095255 1_555
Al67 Y1 3.349681 1_555
Al68 Ti6 2.722620 1_555
Al68 Al82 3.042825 1_455
Al68 Y4 3.095255 1_555
Al68 Y11 3.349681 1_555
Al69 Ti7 2.722620 1_555
Al69 Al9 2.828161 1_555
Al69 Al76 3.033359 1_555
Al69 Al78 3.042825 1_565
Al69 Y3 3.095255 1_565
Al69 Y10 3.349681 1_555
Al70 Ti4 2.722620 1_555
Al70 Al80 3.033359 1_555
Al70 Al77 3.042825 1_565
Al70 Y0 3.095255 1_565
Al70 Y2 3.349681 1_555
Al71 Ti3 2.722620 1_555
Al71 Al8 2.828154 1_555
Al71 Al75 3.042825 1_555
Al71 Y10 3.095255 1_555
Al71 Y3 3.349681 1_555
Al72 Ti4 2.722620 1_655
Al72 Al81 3.033359 1_555
Al72 Al74 3.042825 1_555
Al72 Y11 3.095255 1_555
Al72 Y4 3.349681 1_655
Al73 Ti5 2.722620 1_655
Al73 Al8 2.768501 1_555
Al73 Al78 3.033359 1_555
Al73 Al76 3.042825 1_545
Al73 Y1 3.095255 1_555
Al73 Y5 3.349681 1_655
Al74 Ti2 2.722620 1_565
Al74 Y11 3.095255 1_555
Al74 Y6 3.349681 1_565
Al75 Ti5 2.722620 1_555
Al75 Al9 2.768496 1_555
Al75 Al79 3.033359 1_555
Al75 Y10 3.095255 1_555
Al75 Y7 3.349681 1_555
Al76 Ti7 2.722620 1_555
Al76 Al9 2.828161 1_555
Al76 Y1 3.095255 1_565
Al76 Y9 3.349681 1_555
Al77 Ti6 2.722620 1_555
Al77 Y0 3.095255 1_555
Al77 Y8 3.349681 1_555
Al78 Ti5 2.722620 1_655
Al78 Al8 2.768501 1_555
Al78 Y3 3.095255 1_555
Al78 Y7 3.349681 1_655
Al79 Ti5 2.722620 1_555
Al79 Al9 2.768496 1_555
Al79 Y9 3.095255 1_555
Al79 Y5 3.349681 1_555
Al80 Ti4 2.722620 1_555
Al80 Y6 3.095255 1_565
Al80 Y4 3.349681 1_555
Al81 Ti4 2.722620 1_655
Al81 Y8 3.095255 1_555
Al81 Y2 3.349681 1_655
Al82 Ti2 2.722620 1_555
Al82 Al85 3.033359 1_555
Al82 Y4 3.095255 1_655
Al82 Y6 3.349681 1_555
Al83 Ti3 2.722620 1_565
Al83 Al84 3.033359 1_555
Al83 Y7 3.095255 1_555
Al83 Y3 3.349681 1_565
Al84 Ti3 2.722620 1_565
Al84 Y5 3.095255 1_555
Al84 Y1 3.349681 1_565
Al85 Ti2 2.722620 1_555
Al85 Y2 3.095255 1_655
Al85 Y0 3.349681 1_555
