# generated using pymatgen
data_TaMo
_symmetry_space_group_name_H-M   'P 1'
_cell_length_a   5.66295048
_cell_length_b   5.66295048
_cell_length_c   8.91997793
_cell_angle_alpha   90.00000000
_cell_angle_beta   90.00000000
_cell_angle_gamma   110.70791169
_symmetry_Int_Tables_number   1
_chemical_formula_structural   TaMo
_chemical_formula_sum   'Ta8 Mo8'
_cell_volume   267.57433252
_cell_formula_units_Z   8
loop_
 _symmetry_equiv_pos_site_id
 _symmetry_equiv_pos_as_xyz
  1  'x, y, z'
loop_
 _atom_site_type_symbol
 _atom_site_label
 _atom_site_symmetry_multiplicity
 _atom_site_fract_x
 _atom_site_fract_y
 _atom_site_fract_z
 _atom_site_occupancy
  Ta  Ta0_0  1  0.25000000  0.25000000  0.25000000  1
  Ta  Ta0_1  1  0.25000000  0.25000000  0.75000000  1
  Ta  Ta0_2  1  0.25000000  0.75000000  0.25000000  1
  Ta  Ta0_3  1  0.25000000  0.75000000  0.75000000  1
  Ta  Ta0_4  1  0.75000000  0.25000000  0.25000000  1
  Ta  Ta0_5  1  0.75000000  0.25000000  0.75000000  1
  Ta  Ta0_6  1  0.75000000  0.75000000  0.25000000  1
  Ta  Ta0_7  1  0.75000000  0.75000000  0.75000000  1
  Mo  Mo0_0  1  0.00000000  0.00000000  0.00000000  1
  Mo  Mo0_1  1  0.00000000  0.00000000  0.50000000  1
  Mo  Mo0_2  1  0.00000000  0.50000000  0.00000000  1
  Mo  Mo0_3  1  0.00000000  0.50000000  0.50000000  1
  Mo  Mo0_4  1  0.50000000  0.00000000  0.00000000  1
  Mo  Mo0_5  1  0.50000000  0.00000000  0.50000000  1
  Mo  Mo0_6  1  0.50000000  0.50000000  0.00000000  1
  Mo  Mo0_7  1  0.50000000  0.50000000  0.50000000  1
loop_
_geom_bond_atom_site_label_1
_geom_bond_atom_site_label_2
_geom_bond_distance
_geom_bond_site_symmetry_2
Ta0_0 Ta0_4 2.831475 1_455
Ta0_0 Ta0_4 2.831475 1_555
Ta0_0 Ta0_2 2.831475 1_555
Ta0_0 Ta0_2 2.831475 1_545
Ta0_1 Ta0_5 2.831475 1_455
Ta0_1 Ta0_3 2.831475 1_555
Ta0_1 Ta0_3 2.831475 1_545
Ta0_1 Ta0_5 2.831475 1_555
Ta0_2 Ta0_6 2.831475 1_455
Ta0_2 Ta0_6 2.831475 1_555
Ta0_3 Ta0_7 2.831475 1_455
Ta0_3 Ta0_7 2.831475 1_555
Ta0_4 Ta0_6 2.831475 1_545
Ta0_4 Ta0_6 2.831475 1_555
Ta0_5 Ta0_7 2.831475 1_545
Ta0_5 Ta0_7 2.831475 1_555
Mo0_0 Ta0_7 2.750279 1_444
Mo0_0 Ta0_6 2.750279 1_445
Mo0_0 Ta0_1 2.750279 1_554
Mo0_0 Ta0_0 2.750279 1_555
Mo0_0 Mo0_4 2.831475 1_555
Mo0_0 Mo0_4 2.831475 1_455
Mo0_0 Mo0_2 2.831475 1_545
Mo0_0 Mo0_2 2.831475 1_555
Mo0_1 Ta0_6 2.750279 1_445
Mo0_1 Ta0_7 2.750279 1_445
Mo0_1 Ta0_0 2.750279 1_555
Mo0_1 Ta0_1 2.750279 1_555
Mo0_1 Mo0_3 2.831475 1_545
Mo0_1 Mo0_3 2.831475 1_555
Mo0_1 Mo0_5 2.831475 1_555
Mo0_1 Mo0_5 2.831475 1_455
Mo0_2 Ta0_5 2.750279 1_454
Mo0_2 Ta0_2 2.750279 1_555
Mo0_2 Ta0_3 2.750279 1_554
Mo0_2 Ta0_4 2.750279 1_455
Mo0_2 Mo0_6 2.831475 1_555
Mo0_2 Mo0_6 2.831475 1_455
Mo0_3 Ta0_5 2.750279 1_455
Mo0_3 Ta0_2 2.750279 1_555
Mo0_3 Ta0_4 2.750279 1_455
Mo0_3 Ta0_3 2.750279 1_555
Mo0_3 Mo0_7 2.831475 1_455
Mo0_3 Mo0_7 2.831475 1_555
Mo0_4 Ta0_5 2.750279 1_554
Mo0_4 Ta0_2 2.750279 1_545
Mo0_4 Ta0_4 2.750279 1_555
Mo0_4 Ta0_3 2.750279 1_544
Mo0_4 Mo0_6 2.831475 1_555
Mo0_4 Mo0_6 2.831475 1_545
Mo0_5 Ta0_5 2.750279 1_555
Mo0_5 Ta0_2 2.750279 1_545
Mo0_5 Ta0_4 2.750279 1_555
Mo0_5 Ta0_3 2.750279 1_545
Mo0_5 Mo0_7 2.831475 1_545
Mo0_5 Mo0_7 2.831475 1_555
Mo0_6 Ta0_1 2.750279 1_554
Mo0_6 Ta0_6 2.750279 1_555
Mo0_6 Ta0_0 2.750279 1_555
Mo0_6 Ta0_7 2.750279 1_554
Mo0_7 Ta0_0 2.750279 1_555
Mo0_7 Ta0_1 2.750279 1_555
Mo0_7 Ta0_6 2.750279 1_555
Mo0_7 Ta0_7 2.750279 1_555
