# generated using pymatgen
data_HoNiGe
_symmetry_space_group_name_H-M   'P 1'
_cell_length_a   5.50220923
_cell_length_b   5.50220923
_cell_length_c   6.84097273
_cell_angle_alpha   51.78237209
_cell_angle_beta   51.78237209
_cell_angle_gamma   44.14651623
_symmetry_Int_Tables_number   1
_chemical_formula_structural   HoNiGe
_chemical_formula_sum   'Ho2 Ni2 Ge2'
_cell_volume   107.39814340
_cell_formula_units_Z   2
loop_
 _symmetry_equiv_pos_site_id
 _symmetry_equiv_pos_as_xyz
  1  'x, y, z'
loop_
 _atom_site_type_symbol
 _atom_site_label
 _atom_site_symmetry_multiplicity
 _atom_site_fract_x
 _atom_site_fract_y
 _atom_site_fract_z
 _atom_site_occupancy
  Ho  Ho0  1  0.45174900  0.45174900  0.80777000  1
  Ho  Ho1  1  0.54825100  0.54825100  0.19223000  1
  Ni  Ni0  1  0.17008800  0.17008800  0.77911300  1
  Ni  Ni1  1  0.82991200  0.82991200  0.22088700  1
  Ge  Ge0  1  0.82986700  0.82986700  0.60654700  1
  Ge  Ge1  1  0.17013300  0.17013300  0.39345300  1
loop_
_geom_bond_atom_site_label_1
_geom_bond_atom_site_label_2
_geom_bond_distance
_geom_bond_site_symmetry_2
Ho0 Ni0 2.947649 1_655
Ho0 Ni0 2.947649 1_565
Ho0 Ni0 3.006752 1_555
Ho0 Ni1 3.019563 1_546
Ho0 Ni1 3.019563 1_456
Ho0 Ni1 3.212291 1_555
Ho1 Ni1 2.947649 1_455
Ho1 Ni1 2.947649 1_545
Ho1 Ni1 3.006752 1_555
Ho1 Ni0 3.019563 1_564
Ho1 Ni0 3.019563 1_654
Ho1 Ni0 3.212291 1_555
Ni0 Ni1 2.677671 1_446
Ge0 Ni0 2.399095 1_565
Ge0 Ni0 2.399095 1_655
Ge0 Ni1 2.637983 1_555
Ge0 Ge1 2.722502 1_665
Ge0 Ho1 2.973331 1_565
Ge0 Ho1 2.973331 1_655
Ge0 Ho1 2.989599 1_556
Ge0 Ho0 3.110709 1_555
Ge0 Ho0 3.162207 1_565
Ge0 Ho0 3.162207 1_655
Ge1 Ni1 2.399095 1_455
Ge1 Ni1 2.399095 1_545
Ge1 Ni0 2.637983 1_555
Ge1 Ho0 2.973331 1_455
Ge1 Ho0 2.973331 1_545
Ge1 Ho0 2.989599 1_554
Ge1 Ho1 3.110709 1_555
Ge1 Ho1 3.162207 1_545
Ge1 Ho1 3.162207 1_455
