# generated using pymatgen
data_Te4MoW3Se4
_symmetry_space_group_name_H-M   'P 1'
_cell_length_a   3.43880433
_cell_length_b   3.43880433
_cell_length_c   39.14759200
_cell_angle_alpha   90.00000000
_cell_angle_beta   90.00000000
_cell_angle_gamma   120.00000629
_symmetry_Int_Tables_number   1
_chemical_formula_structural   Te4MoW3Se4
_chemical_formula_sum   'Te4 Mo1 W3 Se4'
_cell_volume   400.91341329
_cell_formula_units_Z   1
loop_
 _symmetry_equiv_pos_site_id
 _symmetry_equiv_pos_as_xyz
  1  'x, y, z'
loop_
 _atom_site_type_symbol
 _atom_site_label
 _atom_site_symmetry_multiplicity
 _atom_site_fract_x
 _atom_site_fract_y
 _atom_site_fract_z
 _atom_site_occupancy
  Te  Te0  1  0.00000000  0.00000000  0.32941800  1
  Te  Te1  1  0.00000000  0.00000000  0.70516900  1
  Te  Te2  1  0.00000000  0.00000000  0.23416300  1
  Te  Te3  1  0.00000000  0.00000000  0.60991900  1
  Mo  Mo0  1  0.00000000  0.00000000  0.09393200  1
  W  W0  1  0.00000000  0.00000000  0.46965000  1
  W  W1  1  0.33333300  0.66666700  0.28180500  1
  W  W2  1  0.33333300  0.66666700  0.65753000  1
  Se  Se0  1  0.33333300  0.66666700  0.05216100  1
  Se  Se1  1  0.33333300  0.66666700  0.42776600  1
  Se  Se2  1  0.33333300  0.66666700  0.13568100  1
  Se  Se3  1  0.33333300  0.66666700  0.51155500  1
loop_
_geom_bond_atom_site_label_1
_geom_bond_atom_site_label_2
_geom_bond_distance
_geom_bond_site_symmetry_2
Te0 W1 2.723240 1_545
Te0 W1 2.723242 1_555
Te0 W1 2.723242 1_445
Te1 W2 2.723937 1_545
Te1 W2 2.723939 1_445
Te1 W2 2.723939 1_555
Te2 W1 2.724017 1_545
Te2 W1 2.724019 1_555
Te2 W1 2.724019 1_445
Te3 W2 2.723186 1_545
Te3 W2 2.723188 1_555
Te3 W2 2.723188 1_445
Mo0 Se2 2.571567 1_545
Mo0 Se2 2.571569 1_445
Mo0 Se2 2.571569 1_555
Mo0 Se0 2.572115 1_545
Mo0 Se0 2.572117 1_555
Mo0 Se0 2.572117 1_445
Se1 W0 2.574929 1_565
Se1 W0 2.574932 1_555
Se1 W0 2.574932 1_665
Se3 W0 2.575453 1_565
Se3 W0 2.575455 1_555
Se3 W0 2.575455 1_665
