# generated using pymatgen
data_CaCu2(GeO3)4
_symmetry_space_group_name_H-M   'P 1'
_cell_length_a   5.47996693
_cell_length_b   6.75071142
_cell_length_c   6.75071155
_cell_angle_alpha   83.57652468
_cell_angle_beta   77.65025636
_cell_angle_gamma   77.65024898
_symmetry_Int_Tables_number   1
_chemical_formula_structural   CaCu2(GeO3)4
_chemical_formula_sum   'Ca1 Cu2 Ge4 O12'
_cell_volume   237.73683413
_cell_formula_units_Z   1
loop_
 _symmetry_equiv_pos_site_id
 _symmetry_equiv_pos_as_xyz
  1  'x, y, z'
loop_
 _atom_site_type_symbol
 _atom_site_label
 _atom_site_symmetry_multiplicity
 _atom_site_fract_x
 _atom_site_fract_y
 _atom_site_fract_z
 _atom_site_occupancy
  Ca  Ca0  1  0.75000000  0.30793600  0.69206400  1
  Cu  Cu0  1  0.75000000  0.90391000  0.09609000  1
  Cu  Cu1  1  0.25000000  0.08975700  0.91024300  1
  Ge  Ge0  1  0.77833900  0.38808200  0.19543300  1
  Ge  Ge1  1  0.72166100  0.80456700  0.61191800  1
  Ge  Ge2  1  0.21098500  0.61789000  0.81050400  1
  Ge  Ge3  1  0.28901500  0.18949600  0.38211000  1
  O  O0  1  0.53019700  0.32300700  0.39800900  1
  O  O1  1  0.96980300  0.60199100  0.67699300  1
  O  O2  1  0.48974000  0.65336300  0.62467000  1
  O  O3  1  0.01026000  0.37533000  0.34663700  1
  O  O4  1  0.17016400  0.09545800  0.63106700  1
  O  O5  1  0.32983600  0.36893400  0.90454200  1
  O  O6  1  0.80624600  0.92244400  0.37134800  1
  O  O7  1  0.69375400  0.62865300  0.07755600  1
  O  O8  1  0.87351700  0.19452900  0.01641400  1
  O  O9  1  0.62648300  0.98358600  0.80547100  1
  O  O10  1  0.11351900  0.82365900  0.97178700  1
  O  O11  1  0.38648100  0.02821300  0.17634100  1
loop_
_geom_bond_atom_site_label_1
_geom_bond_atom_site_label_2
_geom_bond_distance
_geom_bond_site_symmetry_2
Ca0 O4 2.417086 1_655
Ca0 O5 2.417087 1_555
Ca0 O8 2.424006 1_556
Ca0 O9 2.424006 1_545
Ca0 O2 2.509241 1_555
Ca0 O3 2.509242 1_655
Ca0 O0 2.515339 1_555
Ca0 O1 2.515339 1_555
Cu0 O7 1.969011 1_555
Cu0 O6 1.969017 1_555
Cu0 O11 1.972568 1_565
Cu0 O10 1.972568 1_654
Cu0 O9 2.184637 1_554
Cu0 O8 2.184637 1_565
Cu1 O4 2.018417 1_555
Cu1 O5 2.018424 1_555
Cu1 O9 2.031529 1_545
Cu1 O8 2.031529 1_456
Cu1 O11 2.057583 1_556
Cu1 O10 2.057583 1_545
Ge0 O7 1.741307 1_555
Ge0 O3 1.775669 1_655
Ge0 O8 1.797765 1_555
Ge0 O0 1.799408 1_555
Ge1 O6 1.741301 1_555
Ge1 O2 1.775670 1_555
Ge1 O9 1.797765 1_555
Ge1 O1 1.799408 1_555
Ge2 O5 1.766813 1_555
Ge2 O1 1.778352 1_455
Ge2 O10 1.781167 1_555
Ge2 O2 1.798369 1_555
Ge3 O4 1.766819 1_555
Ge3 O0 1.778352 1_555
Ge3 O11 1.781167 1_555
Ge3 O3 1.798369 1_555
