# generated using pymatgen
data_Sr2La3Fe4CuO15
_symmetry_space_group_name_H-M   'P 1'
_cell_length_a   5.53878318
_cell_length_b   5.53843041
_cell_length_c   22.79415025
_cell_angle_alpha   83.00315185
_cell_angle_beta   83.00612063
_cell_angle_gamma   59.96939351
_symmetry_Int_Tables_number   1
_chemical_formula_structural   Sr2La3Fe4CuO15
_chemical_formula_sum   'Sr4 La6 Fe8 Cu2 O30'
_cell_volume   599.35610134
_cell_formula_units_Z   2
loop_
 _symmetry_equiv_pos_site_id
 _symmetry_equiv_pos_as_xyz
  1  'x, y, z'
loop_
 _atom_site_type_symbol
 _atom_site_label
 _atom_site_symmetry_multiplicity
 _atom_site_fract_x
 _atom_site_fract_y
 _atom_site_fract_z
 _atom_site_occupancy
  Sr  Sr0  1  0.50039300  0.50039500  0.49878000  1
  Sr  Sr1  1  0.00040600  0.00040900  0.99874100  1
  Sr  Sr2  1  0.59960600  0.59960600  0.20120200  1
  Sr  Sr3  1  0.09957900  0.09957800  0.70128200  1
  La  La0  1  0.30000000  0.30000000  0.09999700  1
  La  La1  1  0.79999600  0.79999900  0.60000400  1
  La  La2  1  0.89907200  0.89906300  0.30278700  1
  La  La3  1  0.39904700  0.39903600  0.80285100  1
  La  La4  1  0.20093700  0.20094800  0.39719700  1
  La  La5  1  0.70094700  0.70096100  0.89717300  1
  Fe  Fe0  1  0.85009400  0.85011800  0.44970900  1
  Fe  Fe1  1  0.35011900  0.35012800  0.94969700  1
  Fe  Fe2  1  0.24991000  0.24988100  0.25025500  1
  Fe  Fe3  1  0.74989700  0.74988500  0.75034300  1
  Fe  Fe4  1  0.65008900  0.65008300  0.04972200  1
  Fe  Fe5  1  0.15009100  0.15008100  0.54974200  1
  Fe  Fe6  1  0.94992000  0.94992500  0.15026000  1
  Fe  Fe7  1  0.44989900  0.44990900  0.65027300  1
  Cu  Cu0  1  0.04998900  0.04998900  0.85000900  1
  Cu  Cu1  1  0.55002600  0.55002600  0.34998800  1
  O  O0  1  0.29998500  0.80000700  0.09998500  1
  O  O1  1  0.80000800  0.29998200  0.60001600  1
  O  O2  1  0.80000200  0.80000200  0.09998300  1
  O  O3  1  0.29998900  0.29998900  0.60001900  1
  O  O4  1  0.80000500  0.29998800  0.09998500  1
  O  O5  1  0.29998300  0.80000500  0.60001600  1
  O  O6  1  0.19025100  0.70571300  0.39809900  1
  O  O7  1  0.69008900  0.20577400  0.89813400  1
  O  O8  1  0.90979500  0.39425400  0.30186200  1
  O  O9  1  0.40987800  0.89419900  0.80190200  1
  O  O10  1  0.39421900  0.39424300  0.30192800  1
  O  O11  1  0.89416700  0.89419300  0.80197500  1
  O  O12  1  0.70577800  0.70575200  0.39803200  1
  O  O13  1  0.20584300  0.20581600  0.89806500  1
  O  O14  1  0.70573900  0.19021200  0.39811100  1
  O  O15  1  0.20579900  0.69005300  0.89814400  1
  O  O16  1  0.39422700  0.90983400  0.30185100  1
  O  O17  1  0.89417400  0.40991400  0.80189200  1
  O  O18  1  0.59972100  0.10055400  0.19914800  1
  O  O19  1  0.09977800  0.60050700  0.69918000  1
  O  O20  1  0.00025500  0.49948400  0.00082900  1
  O  O21  1  0.50027400  0.99946500  0.50084200  1
  O  O22  1  0.10058200  0.10056800  0.19912500  1
  O  O23  1  0.60052300  0.60051000  0.69915100  1
  O  O24  1  0.49946600  0.49947900  0.00085500  1
  O  O25  1  0.99944200  0.99945600  0.50086500  1
  O  O26  1  0.10057400  0.59969100  0.19915400  1
  O  O27  1  0.60052300  0.09975400  0.69918500  1
  O  O28  1  0.49946800  0.00027900  0.00082300  1
  O  O29  1  0.99944700  0.50030200  0.50083500  1
loop_
_geom_bond_atom_site_label_1
_geom_bond_atom_site_label_2
_geom_bond_distance
_geom_bond_site_symmetry_2
La0 O22 2.747877 1_555
La0 O24 2.748373 1_555
La0 O18 2.748448 1_555
La0 O26 2.748544 1_555
La0 O20 2.748843 1_555
La0 O28 2.748956 1_555
La0 O2 2.768022 1_455
La0 O2 2.768022 1_545
La0 O0 2.769179 1_555
La0 O0 2.769251 1_545
La0 O4 2.769353 1_555
La0 O4 2.769430 1_455
La1 O25 2.748207 1_555
La1 O23 2.748503 1_555
La1 O21 2.748663 1_555
La1 O29 2.748793 1_555
La1 O19 2.749101 1_655
La1 O27 2.749186 1_565
La1 O3 2.768014 1_565
La1 O3 2.768030 1_655
La1 O1 2.769188 1_565
La1 O1 2.769243 1_555
La1 O5 2.769370 1_655
La1 O5 2.769414 1_555
La2 O12 2.649684 1_555
La2 O6 2.650587 1_655
La2 O14 2.650795 1_565
La2 O10 2.768433 1_655
La2 O10 2.768620 1_565
La2 O8 2.769223 1_555
La2 O16 2.769505 1_555
La2 O8 2.770265 1_565
La2 O16 2.770348 1_655
La2 O18 2.834571 1_565
La2 O26 2.834578 1_655
La2 O22 2.834877 1_665
La3 O13 2.648666 1_555
La3 O7 2.649645 1_555
La3 O15 2.649828 1_555
La3 O11 2.768430 1_545
La3 O11 2.768639 1_455
La3 O9 2.769158 1_545
La3 O17 2.769440 1_455
La3 O9 2.770355 1_555
La3 O17 2.770438 1_555
La3 O19 2.834974 1_555
La3 O27 2.834978 1_555
La3 O23 2.835340 1_555
La4 O10 2.650000 1_555
La4 O8 2.650926 1_455
La4 O16 2.651121 1_545
La4 O12 2.768414 1_455
La4 O12 2.768624 1_545
La4 O6 2.769012 1_555
La4 O14 2.769296 1_555
La4 O6 2.770464 1_545
La4 O14 2.770544 1_455
La4 O29 2.834627 1_455
La4 O21 2.834650 1_545
La4 O25 2.834902 1_445
La5 O11 2.648482 1_555
La5 O9 2.649490 1_555
La5 O17 2.649681 1_555
La5 O13 2.768424 1_565
La5 O13 2.768656 1_655
La5 O7 2.768988 1_565
La5 O15 2.769278 1_655
La5 O7 2.770534 1_555
La5 O15 2.770608 1_555
La5 O28 2.834763 1_566
La5 O20 2.834786 1_656
La5 O24 2.835072 1_556
Fe0 O14 1.937095 1_565
Fe0 O6 1.937650 1_655
Fe0 O12 1.940161 1_555
Fe0 O29 1.968897 1_555
Fe0 O21 1.969167 1_555
Fe0 O25 1.970465 1_555
Fe1 O15 1.935894 1_555
Fe1 O7 1.936356 1_555
Fe1 O13 1.939074 1_555
Fe1 O28 1.969025 1_556
Fe1 O20 1.969326 1_556
Fe1 O24 1.970543 1_556
Fe2 O16 1.936890 1_545
Fe2 O8 1.937452 1_455
Fe2 O10 1.940054 1_555
Fe2 O26 1.968576 1_555
Fe2 O18 1.968822 1_555
Fe2 O22 1.969878 1_555
Fe3 O17 1.936021 1_555
Fe3 O9 1.936495 1_555
Fe3 O11 1.939036 1_555
Fe3 O27 1.969485 1_565
Fe3 O19 1.969762 1_655
Fe3 O23 1.971279 1_555
Fe4 O20 1.944292 1_655
Fe4 O28 1.944309 1_565
Fe4 O24 1.944646 1_555
Fe4 O4 1.959766 1_555
Fe4 O0 1.959971 1_555
Fe4 O2 1.960843 1_555
Fe5 O21 1.944439 1_545
Fe5 O29 1.944500 1_455
Fe5 O25 1.944986 1_445
Fe5 O5 1.959821 1_545
Fe5 O1 1.960019 1_455
Fe5 O3 1.960992 1_555
Fe6 O18 1.944365 1_565
Fe6 O26 1.944402 1_655
Fe6 O22 1.944924 1_665
Fe6 O4 1.959782 1_565
Fe6 O0 1.959960 1_655
Fe6 O2 1.961129 1_555
Fe7 O19 1.944275 1_555
Fe7 O27 1.944297 1_555
Fe7 O23 1.944808 1_555
Fe7 O5 1.959699 1_555
Fe7 O1 1.959920 1_555
Fe7 O3 1.960726 1_555
Cu0 O11 1.973296 1_445
Cu0 O13 1.973881 1_555
Cu0 O9 1.974092 1_545
Cu0 O17 1.974174 1_455
Cu0 O7 1.974336 1_455
Cu0 O15 1.974417 1_545
Cu1 O12 1.972886 1_555
Cu1 O10 1.973576 1_555
Cu1 O6 1.973680 1_555
Cu1 O14 1.973796 1_555
Cu1 O8 1.973822 1_555
Cu1 O16 1.973927 1_555
O0 Sr2 2.788159 1_555
O0 Sr1 2.788568 1_564
O1 Sr0 2.788512 1_555
O1 Sr3 2.788973 1_655
O2 Sr2 2.787928 1_555
O2 Sr1 2.788363 1_664
O3 Sr0 2.788310 1_555
O3 Sr3 2.788740 1_555
O4 Sr2 2.788216 1_555
O4 Sr1 2.788633 1_654
O5 Sr0 2.788563 1_555
O5 Sr3 2.789044 1_565
O6 Sr0 2.807090 1_555
O7 Sr1 2.806162 1_655
O8 Sr2 2.806819 1_555
O9 Sr3 2.806361 1_565
O10 Sr2 2.807495 1_555
O11 Sr3 2.807087 1_665
O12 Sr0 2.807833 1_555
O13 Sr1 2.806941 1_555
O14 Sr0 2.807039 1_555
O15 Sr1 2.806144 1_565
O16 Sr2 2.806782 1_555
O17 Sr3 2.806337 1_655
O18 Sr2 2.769470 1_545
O18 Sr2 2.769739 1_555
O19 Sr3 2.769483 1_555
O19 Sr3 2.769762 1_565
O20 Sr1 2.769361 1_564
O20 Sr1 2.769873 1_554
O21 Sr0 2.769363 1_565
O21 Sr0 2.769852 1_555
O22 Sr2 2.768379 1_545
O22 Sr2 2.768462 1_455
O23 Sr3 2.768405 1_655
O23 Sr3 2.768477 1_565
O24 Sr1 2.768404 1_564
O24 Sr1 2.768465 1_654
O25 Sr0 2.768387 1_565
O25 Sr0 2.768459 1_655
O26 Sr2 2.769692 1_455
O26 Sr2 2.769866 1_555
O27 Sr3 2.769693 1_555
O27 Sr3 2.769901 1_655
O28 Sr1 2.769569 1_654
O28 Sr1 2.770014 1_554
O29 Sr0 2.769575 1_655
O29 Sr0 2.769987 1_555
