# generated using pymatgen
data_CaCo3P3O13
_symmetry_space_group_name_H-M   'P 1'
_cell_length_a   6.36167300
_cell_length_b   7.52329400
_cell_length_c   10.22107236
_cell_angle_alpha   79.94076565
_cell_angle_beta   90.00000000
_cell_angle_gamma   90.00000000
_symmetry_Int_Tables_number   1
_chemical_formula_structural   CaCo3P3O13
_chemical_formula_sum   'Ca2 Co6 P6 O26'
_cell_volume   481.66810506
_cell_formula_units_Z   2
loop_
 _symmetry_equiv_pos_site_id
 _symmetry_equiv_pos_as_xyz
  1  'x, y, z'
loop_
 _atom_site_type_symbol
 _atom_site_label
 _atom_site_symmetry_multiplicity
 _atom_site_fract_x
 _atom_site_fract_y
 _atom_site_fract_z
 _atom_site_occupancy
  Ca  Ca0  1  0.75000000  0.33797400  0.19531300  1
  Ca  Ca1  1  0.25000000  0.66202600  0.80468700  1
  Co  Co0  1  0.25000000  0.65108300  0.19829900  1
  Co  Co1  1  0.75000000  0.34891700  0.80170100  1
  Co  Co2  1  0.25000000  0.20935800  0.43863700  1
  Co  Co3  1  0.50000000  0.00000000  0.00000000  1
  Co  Co4  1  0.75000000  0.79064200  0.56136300  1
  Co  Co5  1  0.00000000  0.00000000  0.00000000  1
  P  P0  1  0.25000000  0.78424000  0.48550300  1
  P  P1  1  0.75000000  0.21576000  0.51449700  1
  P  P2  1  0.25000000  0.25931800  0.76370400  1
  P  P3  1  0.75000000  0.74068200  0.23629600  1
  P  P4  1  0.75000000  0.68583600  0.88533400  1
  P  P5  1  0.25000000  0.31416400  0.11466600  1
  O  O0  1  0.75000000  0.64082800  0.74202300  1
  O  O1  1  0.55980400  0.24731400  0.41847800  1
  O  O2  1  0.25000000  0.21320000  0.62364400  1
  O  O3  1  0.54762500  0.79372100  0.90438000  1
  O  O4  1  0.75000000  0.34512600  0.61435400  1
  O  O5  1  0.75000000  0.12326000  0.91125600  1
  O  O6  1  0.25000000  0.65487400  0.38564600  1
  O  O7  1  0.04762500  0.20627900  0.09562000  1
  O  O8  1  0.25000000  0.98050000  0.40376300  1
  O  O9  1  0.75000000  0.01950000  0.59623700  1
  O  O10  1  0.06070100  0.37782100  0.79033400  1
  O  O11  1  0.25000000  0.87674000  0.08874400  1
  O  O12  1  0.56070100  0.62217900  0.20966600  1
  O  O13  1  0.75000000  0.49226700  0.96755000  1
  O  O14  1  0.75000000  0.78680000  0.37635600  1
  O  O15  1  0.45237500  0.20627900  0.09562000  1
  O  O16  1  0.94019600  0.24731400  0.41847800  1
  O  O17  1  0.44019600  0.75268600  0.58152200  1
  O  O18  1  0.43929900  0.37782100  0.79033400  1
  O  O19  1  0.25000000  0.35917200  0.25797700  1
  O  O20  1  0.75000000  0.92116700  0.13364200  1
  O  O21  1  0.25000000  0.07883300  0.86635800  1
  O  O22  1  0.93929900  0.62217900  0.20966600  1
  O  O23  1  0.95237500  0.79372100  0.90438000  1
  O  O24  1  0.05980400  0.75268600  0.58152200  1
  O  O25  1  0.25000000  0.50773300  0.03245000  1
loop_
_geom_bond_atom_site_label_1
_geom_bond_atom_site_label_2
_geom_bond_distance
_geom_bond_site_symmetry_2
Ca0 O13 2.413076 1_554
Ca0 O7 2.440811 1_655
Ca0 O15 2.440811 1_555
Ca0 O12 2.480535 1_555
Ca0 O22 2.480535 1_555
Ca0 O16 2.566834 1_555
Ca0 O1 2.566834 1_555
Ca1 O25 2.413076 1_556
Ca1 O3 2.440811 1_555
Ca1 O23 2.440811 1_455
Ca1 O10 2.480535 1_555
Ca1 O18 2.480535 1_555
Ca1 O17 2.566834 1_555
Ca1 O24 2.566834 1_555
Co0 O11 1.863311 1_555
Co0 O6 1.920074 1_555
Co0 O12 1.989678 1_555
Co0 O22 1.989678 1_455
Co0 O25 2.162238 1_555
Co0 O19 2.174191 1_555
Co1 O5 1.863311 1_555
Co1 O4 1.920074 1_555
Co1 O10 1.989678 1_655
Co1 O18 1.989678 1_555
Co1 O13 2.162238 1_555
Co1 O0 2.174191 1_555
Co2 O8 1.818221 1_545
Co2 O2 1.896232 1_555
Co2 O19 1.988218 1_555
Co2 O1 1.996942 1_555
Co2 O16 1.996942 1_455
Co3 O11 1.979463 1_545
Co3 O5 1.979463 1_554
Co3 O3 1.996300 1_544
Co3 O15 1.996300 1_555
Co3 O20 2.112826 1_545
Co3 O21 2.112826 1_554
Co4 O9 1.818221 1_565
Co4 O14 1.896232 1_555
Co4 O0 1.988218 1_555
Co4 O24 1.996942 1_655
Co4 O17 1.996942 1_555
Co5 O11 1.979463 1_545
Co5 O5 1.979463 1_454
Co5 O23 1.996300 1_444
Co5 O7 1.996300 1_555
Co5 O20 2.112826 1_445
Co5 O21 2.112826 1_554
O0 P4 1.559980 1_555
O1 P1 1.549891 1_555
O2 P2 1.530773 1_555
O3 P4 1.552218 1_555
O4 P1 1.528385 1_555
O6 P0 1.528385 1_555
O7 P5 1.552218 1_555
O8 P0 1.564351 1_555
O9 P1 1.564351 1_555
O10 P2 1.550460 1_555
O12 P3 1.550460 1_555
O13 P4 1.549002 1_555
O14 P3 1.530773 1_555
O15 P5 1.552218 1_555
O16 P1 1.549891 1_555
O17 P0 1.549891 1_555
O18 P2 1.550460 1_555
O19 P5 1.559980 1_555
O20 P3 1.564268 1_555
O21 P2 1.564268 1_555
O22 P3 1.550460 1_555
O23 P4 1.552218 1_555
O24 P0 1.549891 1_555
O25 P5 1.549002 1_555
