# generated using pymatgen
data_Eu(HoSe2)2
_symmetry_space_group_name_H-M   'P 1'
_cell_length_a   4.11254700
_cell_length_b   12.52011700
_cell_length_c   14.86455900
_cell_angle_alpha   90.00000000
_cell_angle_beta   90.00000000
_cell_angle_gamma   90.00000000
_symmetry_Int_Tables_number   1
_chemical_formula_structural   Eu(HoSe2)2
_chemical_formula_sum   'Eu4 Ho8 Se16'
_cell_volume   765.36974532
_cell_formula_units_Z   4
loop_
 _symmetry_equiv_pos_site_id
 _symmetry_equiv_pos_as_xyz
  1  'x, y, z'
loop_
 _atom_site_type_symbol
 _atom_site_label
 _atom_site_symmetry_multiplicity
 _atom_site_fract_x
 _atom_site_fract_y
 _atom_site_fract_z
 _atom_site_occupancy
  Eu  Eu0  1  0.75000000  0.74123400  0.16471900  1
  Eu  Eu1  1  0.75000000  0.24123400  0.33528100  1
  Eu  Eu2  1  0.25000000  0.25876600  0.83528100  1
  Eu  Eu3  1  0.25000000  0.75876600  0.66471900  1
  Ho  Ho0  1  0.75000000  0.08215700  0.59815900  1
  Ho  Ho1  1  0.75000000  0.58215700  0.90184100  1
  Ho  Ho2  1  0.25000000  0.91784300  0.40184100  1
  Ho  Ho3  1  0.25000000  0.41784300  0.09815900  1
  Ho  Ho4  1  0.75000000  0.06462700  0.11047300  1
  Ho  Ho5  1  0.75000000  0.56462700  0.38952700  1
  Ho  Ho6  1  0.25000000  0.93537300  0.88952700  1
  Ho  Ho7  1  0.25000000  0.43537400  0.61047300  1
  Se  Se0  1  0.75000000  0.29343100  0.67478200  1
  Se  Se1  1  0.75000000  0.79343100  0.82521800  1
  Se  Se2  1  0.25000000  0.70656900  0.32521800  1
  Se  Se3  1  0.25000000  0.20656900  0.17478200  1
  Se  Se4  1  0.75000000  0.36849200  0.96978100  1
  Se  Se5  1  0.75000000  0.86849200  0.53021900  1
  Se  Se6  1  0.25000000  0.63150800  0.03021900  1
  Se  Se7  1  0.25000000  0.13150800  0.46978100  1
  Se  Se8  1  0.75000000  0.97475600  0.28430800  1
  Se  Se9  1  0.75000000  0.47475600  0.21569200  1
  Se  Se10  1  0.25000000  0.02524400  0.71569200  1
  Se  Se11  1  0.25000000  0.52524400  0.78430800  1
  Se  Se12  1  0.75000000  0.09014600  0.92135000  1
  Se  Se13  1  0.75000000  0.59014600  0.57865000  1
  Se  Se14  1  0.25000000  0.90985400  0.07865000  1
  Se  Se15  1  0.25000000  0.40985400  0.42135000  1
loop_
_geom_bond_atom_site_label_1
_geom_bond_atom_site_label_2
_geom_bond_distance
_geom_bond_site_symmetry_2
Eu0 Se2 3.179373 1_655
Eu0 Se2 3.179373 1_555
Eu0 Se6 3.180043 1_555
Eu0 Se6 3.180043 1_655
Eu0 Se14 3.212785 1_655
Eu0 Se14 3.212785 1_555
Eu0 Se9 3.421291 1_555
Eu0 Se8 3.421718 1_555
Eu1 Se3 3.179373 1_555
Eu1 Se3 3.179373 1_655
Eu1 Se7 3.180043 1_655
Eu1 Se7 3.180043 1_555
Eu1 Se15 3.212785 1_555
Eu1 Se15 3.212785 1_655
Eu1 Se8 3.421291 1_545
Eu1 Se9 3.421718 1_555
Eu2 Se0 3.179373 1_455
Eu2 Se0 3.179373 1_555
Eu2 Se4 3.180043 1_555
Eu2 Se4 3.180043 1_455
Eu2 Se12 3.212785 1_455
Eu2 Se12 3.212785 1_555
Eu2 Se11 3.421291 1_555
Eu2 Se10 3.421718 1_555
Eu3 Se1 3.179373 1_555
Eu3 Se1 3.179373 1_455
Eu3 Se5 3.180043 1_455
Eu3 Se5 3.180043 1_555
Eu3 Se13 3.212785 1_555
Eu3 Se13 3.212785 1_455
Eu3 Se10 3.421291 1_565
Eu3 Se11 3.421718 1_555
Ho0 Se10 2.790748 1_655
Ho0 Se10 2.790748 1_555
Ho0 Se5 2.859390 1_545
Ho0 Se7 2.872556 1_655
Ho0 Se7 2.872556 1_555
Ho0 Se0 2.879965 1_555
Ho1 Se11 2.790748 1_655
Ho1 Se11 2.790748 1_555
Ho1 Se4 2.859390 1_555
Ho1 Se6 2.872556 1_656
Ho1 Se6 2.872556 1_556
Ho1 Se1 2.879965 1_555
Ho2 Se8 2.790748 1_455
Ho2 Se8 2.790748 1_555
Ho2 Se7 2.859390 1_565
Ho2 Se5 2.872556 1_455
Ho2 Se5 2.872556 1_555
Ho2 Se2 2.879965 1_555
Ho3 Se9 2.790748 1_455
Ho3 Se9 2.790748 1_555
Ho3 Se6 2.859390 1_555
Ho3 Se4 2.872556 1_554
Ho3 Se4 2.872556 1_454
Ho3 Se3 2.879965 1_555
Ho4 Se8 2.818336 1_545
Ho4 Se12 2.829328 1_554
Ho4 Se14 2.864786 1_645
Ho4 Se14 2.864786 1_545
Ho4 Se3 2.881015 1_655
Ho4 Se3 2.881015 1_555
Ho5 Se9 2.818336 1_555
Ho5 Se13 2.829328 1_555
Ho5 Se15 2.864786 1_655
Ho5 Se15 2.864786 1_555
Ho5 Se2 2.881015 1_655
Ho5 Se2 2.881015 1_555
Ho6 Se10 2.818336 1_565
Ho6 Se14 2.829328 1_556
Ho6 Se12 2.864786 1_565
Ho6 Se12 2.864786 1_465
Ho6 Se1 2.881015 1_555
Ho6 Se1 2.881015 1_455
Ho7 Se11 2.818331 1_555
Ho7 Se15 2.829329 1_555
Ho7 Se13 2.864778 1_555
Ho7 Se13 2.864778 1_455
Ho7 Se0 2.881022 1_455
Ho7 Se0 2.881022 1_555
