# generated using pymatgen
data_Ga3Te3Cl
_symmetry_space_group_name_H-M   'P 1'
_cell_length_a   4.11480966
_cell_length_b   10.96321157
_cell_length_c   19.20803090
_cell_angle_alpha   90.00000000
_cell_angle_beta   90.00000000
_cell_angle_gamma   90.00000000
_symmetry_Int_Tables_number   1
_chemical_formula_structural   Ga3Te3Cl
_chemical_formula_sum   'Ga12 Te12 Cl4'
_cell_volume   866.50364054
_cell_formula_units_Z   4
loop_
 _symmetry_equiv_pos_site_id
 _symmetry_equiv_pos_as_xyz
  1  'x, y, z'
loop_
 _atom_site_type_symbol
 _atom_site_label
 _atom_site_symmetry_multiplicity
 _atom_site_fract_x
 _atom_site_fract_y
 _atom_site_fract_z
 _atom_site_occupancy
  Ga  Ga0  1  0.75000000  0.82287186  0.50551782  1
  Ga  Ga1  1  0.25000000  0.17712814  0.49448218  1
  Ga  Ga2  1  0.25000000  0.67712814  0.00551782  1
  Ga  Ga3  1  0.75000000  0.32287186  0.99448218  1
  Ga  Ga4  1  0.75000000  0.94018652  0.39812811  1
  Ga  Ga5  1  0.25000000  0.05981348  0.60187189  1
  Ga  Ga6  1  0.25000000  0.55981348  0.89812811  1
  Ga  Ga7  1  0.75000000  0.44018652  0.10187189  1
  Ga  Ga8  1  0.75000000  0.84704888  0.86304855  1
  Ga  Ga9  1  0.25000000  0.15295112  0.13695145  1
  Ga  Ga10  1  0.25000000  0.65295112  0.36304855  1
  Ga  Ga11  1  0.75000000  0.34704888  0.63695145  1
  Te  Te0  1  0.75000000  0.76329353  0.30207047  1
  Te  Te1  1  0.25000000  0.23670647  0.69792953  1
  Te  Te2  1  0.25000000  0.73670647  0.80207047  1
  Te  Te3  1  0.75000000  0.26329353  0.19792953  1
  Te  Te4  1  0.75000000  0.83470748  0.00059301  1
  Te  Te5  1  0.25000000  0.16529252  0.99940699  1
  Te  Te6  1  0.25000000  0.66529252  0.50059301  1
  Te  Te7  1  0.75000000  0.33470748  0.49940699  1
  Te  Te8  1  0.75000000  0.91408741  0.63330882  1
  Te  Te9  1  0.25000000  0.08591259  0.36669118  1
  Te  Te10  1  0.25000000  0.58591259  0.13330882  1
  Te  Te11  1  0.75000000  0.41408741  0.86669118  1
  Cl  Cl0  1  0.75000000  0.53940345  0.66799326  1
  Cl  Cl1  1  0.25000000  0.46059655  0.33200674  1
  Cl  Cl2  1  0.25000000  0.96059655  0.16799326  1
  Cl  Cl3  1  0.75000000  0.03940345  0.83200674  1
loop_
_geom_bond_atom_site_label_1
_geom_bond_atom_site_label_2
_geom_bond_distance
_geom_bond_site_symmetry_2
Ga0 Ga4 2.430861 1_555
Ga0 Te8 2.650501 1_555
Ga0 Te6 2.688193 1_555
Ga0 Te6 2.688193 1_655
Ga1 Ga5 2.430861 1_555
Ga1 Te9 2.650501 1_555
Ga1 Te7 2.688193 1_555
Ga1 Te7 2.688193 1_455
Ga2 Ga6 2.430861 1_554
Ga2 Te10 2.650501 1_555
Ga2 Te4 2.688193 1_455
Ga2 Te4 2.688193 1_555
Ga3 Ga7 2.430861 1_556
Ga3 Te11 2.650501 1_555
Ga3 Te5 2.688193 1_655
Ga3 Te5 2.688193 1_555
Ga4 Te9 2.673939 1_665
Ga4 Te9 2.673939 1_565
Ga4 Te0 2.676800 1_555
Ga5 Te8 2.673939 1_445
Ga5 Te8 2.673939 1_545
Ga5 Te1 2.676800 1_555
Ga6 Te11 2.673939 1_455
Ga6 Te11 2.673939 1_555
Ga6 Te2 2.676800 1_555
Ga7 Te10 2.673939 1_555
Ga7 Te10 2.673939 1_655
Ga7 Te3 2.676800 1_555
Ga8 Te4 2.645421 1_556
Ga8 Te2 2.658604 1_655
Ga8 Te2 2.658604 1_555
Ga9 Te5 2.645421 1_554
Ga9 Te3 2.658604 1_555
Ga9 Te3 2.658604 1_455
Ga10 Te6 2.645421 1_555
Ga10 Te0 2.658604 1_555
Ga10 Te0 2.658604 1_455
Ga11 Te7 2.645421 1_555
Ga11 Te1 2.658604 1_555
Ga11 Te1 2.658604 1_655
Cl0 Ga11 2.191496 1_555
Cl1 Ga10 2.191496 1_555
Cl2 Ga9 2.191496 1_565
Cl3 Ga8 2.191496 1_545
