# generated using pymatgen
data_Sr2V2GaO7
_symmetry_space_group_name_H-M   'P 1'
_cell_length_a   11.80875361
_cell_length_b   11.80875361
_cell_length_c   11.80875361
_cell_angle_alpha   153.40783410
_cell_angle_beta   152.99409979
_cell_angle_gamma   38.26311319
_symmetry_Int_Tables_number   1
_chemical_formula_structural   Sr2V2GaO7
_chemical_formula_sum   'Sr4 V4 Ga2 O14'
_cell_volume   334.17357725
_cell_formula_units_Z   2
loop_
 _symmetry_equiv_pos_site_id
 _symmetry_equiv_pos_as_xyz
  1  'x, y, z'
loop_
 _atom_site_type_symbol
 _atom_site_label
 _atom_site_symmetry_multiplicity
 _atom_site_fract_x
 _atom_site_fract_y
 _atom_site_fract_z
 _atom_site_occupancy
  Sr  Sr0  1  0.36595300  0.85533700  0.51594200  1
  Sr  Sr1  1  0.63404700  0.14998800  0.48938400  1
  Sr  Sr2  1  0.83939500  0.35533700  0.48938400  1
  Sr  Sr3  1  0.16060500  0.64998800  0.51594200  1
  V  V0  1  0.56957600  0.57480800  0.00645900  1
  V  V1  1  0.93165000  0.93688300  0.00645900  1
  V  V2  1  0.06835000  0.07480800  0.00523300  1
  V  V3  1  0.43042400  0.43688300  0.00523300  1
  Ga  Ga0  1  0.82726600  0.70369300  0.03095800  1
  Ga  Ga1  1  0.17273400  0.20369300  0.87642700  1
  O  O0  1  0.66864500  0.67131600  0.47845900  1
  O  O1  1  0.86305600  0.35558700  0.71864300  1
  O  O2  1  0.69285700  0.17131600  0.00267100  1
  O  O3  1  0.20628500  0.19083300  0.05162400  1
  O  O4  1  0.83730200  0.84235700  0.53142300  1
  O  O5  1  0.81093400  0.34235700  0.00505500  1
  O  O6  1  0.13694400  0.85558700  0.49253100  1
  O  O7  1  0.30714300  0.30981400  0.47845900  1
  O  O8  1  0.33135500  0.80981400  0.00267100  1
  O  O9  1  0.63920900  0.69083300  0.98454800  1
  O  O10  1  0.79371500  0.84533900  0.98454800  1
  O  O11  1  0.36079100  0.34533900  0.05162400  1
  O  O12  1  0.16269800  0.69412100  0.00505500  1
  O  O13  1  0.18906600  0.19412100  0.53142300  1
loop_
_geom_bond_atom_site_label_1
_geom_bond_atom_site_label_2
_geom_bond_distance
_geom_bond_site_symmetry_2
Ga0 O10 1.861983 1_554
Ga0 O9 1.862003 1_554
Ga0 O6 1.896597 1_655
Ga0 O1 1.901054 1_554
Ga1 O3 1.861994 1_556
Ga1 O11 1.861994 1_556
Ga1 O1 1.896594 1_455
Ga1 O6 1.901056 1_545
O0 V3 1.831762 1_555
O0 V1 2.043339 1_556
O0 Sr2 2.566648 1_555
O0 Sr0 2.568270 1_555
O1 Sr2 2.458955 1_555
O1 Sr1 2.458965 1_555
O2 V1 1.831762 1_545
O2 V3 2.043339 1_555
O2 Sr0 2.566648 1_544
O2 Sr2 2.568270 1_555
O3 V2 2.324348 1_555
O3 Sr1 2.564050 1_555
O3 Sr3 2.694785 1_555
O3 Sr3 2.858660 1_544
O3 Sr1 3.069493 1_454
O4 V2 1.837261 1_666
O4 V0 2.034970 1_555
O4 Sr1 2.571750 1_565
O4 Sr3 2.578998 1_655
O5 V0 1.837257 1_555
O5 V2 2.034974 1_655
O5 Sr3 2.571753 1_655
O5 Sr1 2.578995 1_554
O6 Sr0 2.458955 1_555
O6 Sr3 2.458966 1_555
O7 V2 1.831762 1_555
O7 V0 2.043339 1_556
O7 Sr1 2.566643 1_555
O7 Sr3 2.568259 1_555
O8 V0 1.831766 1_555
O8 V2 2.043335 1_565
O8 Sr3 2.566641 1_554
O8 Sr1 2.568262 1_565
O9 V0 2.324348 1_556
O9 Sr3 2.564045 1_555
O9 Sr1 2.694786 1_566
O9 Sr1 2.858660 1_555
O9 Sr3 3.069499 1_656
O10 V1 2.324337 1_556
O10 Sr0 2.564045 1_555
O10 Sr2 2.694786 1_566
O10 Sr2 2.858655 1_555
O10 Sr0 3.069494 1_656
O11 V3 2.324337 1_555
O11 Sr2 2.564045 1_555
O11 Sr0 2.694786 1_555
O11 Sr0 2.858655 1_544
O11 Sr2 3.069494 1_454
O12 V1 1.837260 1_455
O12 V3 2.034970 1_555
O12 Sr0 2.571760 1_555
O12 Sr2 2.579002 1_454
O13 V3 1.837260 1_556
O13 V1 2.034970 1_445
O13 Sr2 2.571760 1_455
O13 Sr0 2.579002 1_545
