# generated using pymatgen
data_NaRuN2
_symmetry_space_group_name_H-M   'P 1'
_cell_length_a   5.52692800
_cell_length_b   11.08040000
_cell_length_c   15.27951600
_cell_angle_alpha   90.00000000
_cell_angle_beta   90.00000000
_cell_angle_gamma   90.00000000
_symmetry_Int_Tables_number   1
_chemical_formula_structural   NaRuN2
_chemical_formula_sum   'Na16 Ru16 N32'
_cell_volume   935.72631517
_cell_formula_units_Z   16
loop_
 _symmetry_equiv_pos_site_id
 _symmetry_equiv_pos_as_xyz
  1  'x, y, z'
loop_
 _atom_site_type_symbol
 _atom_site_label
 _atom_site_symmetry_multiplicity
 _atom_site_fract_x
 _atom_site_fract_y
 _atom_site_fract_z
 _atom_site_occupancy
  Na  Na0  1  0.27711800  0.00059800  0.44537200  1
  Na  Na1  1  0.77711800  0.49940200  0.55462800  1
  Na  Na2  1  0.72288200  0.50059800  0.05462800  1
  Na  Na3  1  0.22288200  0.99940200  0.94537200  1
  Na  Na4  1  0.72288200  0.99940200  0.55462800  1
  Na  Na5  1  0.22288200  0.50059800  0.44537200  1
  Na  Na6  1  0.27711800  0.49940200  0.94537200  1
  Na  Na7  1  0.77711800  0.00059800  0.05462800  1
  Na  Na8  1  0.24679600  0.27241700  0.31677800  1
  Na  Na9  1  0.74679600  0.22758300  0.68322200  1
  Na  Na10  1  0.75320400  0.77241700  0.18322200  1
  Na  Na11  1  0.25320400  0.72758300  0.81677800  1
  Na  Na12  1  0.75320400  0.72758300  0.68322200  1
  Na  Na13  1  0.25320400  0.77241700  0.31677800  1
  Na  Na14  1  0.24679600  0.22758300  0.81677800  1
  Na  Na15  1  0.74679600  0.27241700  0.18322200  1
  Ru  Ru0  1  0.78069300  0.01611600  0.30889400  1
  Ru  Ru1  1  0.28069300  0.48388400  0.69110600  1
  Ru  Ru2  1  0.21930700  0.51611600  0.19110600  1
  Ru  Ru3  1  0.71930700  0.98388400  0.80889400  1
  Ru  Ru4  1  0.21930700  0.98388400  0.69110600  1
  Ru  Ru5  1  0.71930700  0.51611600  0.30889400  1
  Ru  Ru6  1  0.78069300  0.48388400  0.80889400  1
  Ru  Ru7  1  0.28069300  0.01611600  0.19110600  1
  Ru  Ru8  1  0.73465100  0.27092400  0.43324200  1
  Ru  Ru9  1  0.23465100  0.22907600  0.56675800  1
  Ru  Ru10  1  0.26534900  0.77092400  0.06675800  1
  Ru  Ru11  1  0.76534900  0.72907600  0.93324200  1
  Ru  Ru12  1  0.26534900  0.72907600  0.56675800  1
  Ru  Ru13  1  0.76534900  0.77092400  0.43324200  1
  Ru  Ru14  1  0.73465100  0.22907600  0.93324200  1
  Ru  Ru15  1  0.23465100  0.27092400  0.06675800  1
  N  N0  1  0.00505700  0.31695300  0.50266200  1
  N  N1  1  0.50505700  0.18304700  0.49733800  1
  N  N2  1  0.99494300  0.81695300  0.99733800  1
  N  N3  1  0.49494300  0.68304700  0.00266200  1
  N  N4  1  0.99494300  0.68304700  0.49733800  1
  N  N5  1  0.49494300  0.81695300  0.50266200  1
  N  N6  1  0.00505700  0.18304700  0.00266200  1
  N  N7  1  0.50505700  0.31695300  0.99733800  1
  N  N8  1  0.59398300  0.41782700  0.39887700  1
  N  N9  1  0.09398300  0.08217300  0.60112300  1
  N  N10  1  0.40601700  0.91782700  0.10112300  1
  N  N11  1  0.90601700  0.58217300  0.89887700  1
  N  N12  1  0.40601700  0.58217300  0.60112300  1
  N  N13  1  0.90601700  0.91782700  0.39887700  1
  N  N14  1  0.59398300  0.08217300  0.89887700  1
  N  N15  1  0.09398300  0.41782700  0.10112300  1
  N  N16  1  0.81649100  0.18164700  0.33228200  1
  N  N17  1  0.31649100  0.31835300  0.66771800  1
  N  N18  1  0.18350900  0.68164700  0.16771800  1
  N  N19  1  0.68350900  0.81835300  0.83228200  1
  N  N20  1  0.18350900  0.81835300  0.66771800  1
  N  N21  1  0.68350900  0.68164700  0.33228200  1
  N  N22  1  0.81649100  0.31835300  0.83228200  1
  N  N23  1  0.31649100  0.18164700  0.16771800  1
  N  N24  1  0.54974000  0.47800900  0.20527700  1
  N  N25  1  0.04974000  0.02199100  0.79472300  1
  N  N26  1  0.45026000  0.97800900  0.29472300  1
  N  N27  1  0.95026000  0.52199100  0.70527700  1
  N  N28  1  0.45026000  0.52199100  0.79472300  1
  N  N29  1  0.95026000  0.97800900  0.20527700  1
  N  N30  1  0.54974000  0.02199100  0.70527700  1
  N  N31  1  0.04974000  0.47800900  0.29472300  1
loop_
_geom_bond_atom_site_label_1
_geom_bond_atom_site_label_2
_geom_bond_distance
_geom_bond_site_symmetry_2
N0 Ru9 1.875496 1_555
N0 Ru8 1.902311 1_455
N0 Na1 2.510869 1_455
N0 Na5 2.521170 1_555
N1 Ru8 1.875496 1_555
N1 Ru9 1.902311 1_555
N1 Na0 2.510869 1_555
N1 Na4 2.521170 1_545
N2 Ru11 1.875496 1_555
N2 Ru10 1.902311 1_656
N2 Na3 2.510869 1_655
N2 Na7 2.521170 1_566
N3 Ru10 1.875496 1_555
N3 Ru11 1.902311 1_554
N3 Na2 2.510869 1_555
N3 Na6 2.521170 1_554
N4 Ru13 1.875496 1_555
N4 Ru12 1.902311 1_655
N4 Na5 2.510869 1_655
N4 Na1 2.521170 1_555
N5 Ru12 1.875496 1_555
N5 Ru13 1.902311 1_555
N5 Na4 2.510869 1_555
N5 Na0 2.521170 1_565
N6 Ru15 1.875496 1_555
N6 Ru14 1.902311 1_454
N6 Na7 2.510869 1_455
N6 Na3 2.521170 1_544
N7 Ru14 1.875496 1_555
N7 Ru15 1.902311 1_556
N7 Na6 2.510869 1_555
N7 Na2 2.521170 1_556
N8 Ru8 1.878751 1_555
N8 Ru5 1.885792 1_555
N8 Na5 2.356403 1_555
N8 Na1 2.739516 1_555
N8 Na8 2.802082 1_555
N9 Ru9 1.878751 1_555
N9 Ru4 1.885792 1_545
N9 Na4 2.356403 1_445
N9 Na0 2.739516 1_555
N9 Na9 2.802082 1_455
N10 Ru10 1.878751 1_555
N10 Ru7 1.885792 1_565
N10 Na7 2.356403 1_565
N10 Na3 2.739516 1_554
N10 Na10 2.802082 1_555
N11 Ru11 1.878751 1_555
N11 Ru6 1.885792 1_555
N11 Na6 2.356403 1_655
N11 Na2 2.739516 1_556
N11 Na11 2.802082 1_655
N12 Ru12 1.878751 1_555
N12 Ru1 1.885792 1_555
N12 Na1 2.356403 1_555
N12 Na5 2.739516 1_555
N12 Na12 2.802082 1_555
N13 Ru13 1.878751 1_555
N13 Ru0 1.885792 1_565
N13 Na0 2.356403 1_665
N13 Na4 2.739516 1_555
N13 Na13 2.802082 1_655
N14 Ru14 1.878751 1_555
N14 Ru3 1.885792 1_545
N14 Na3 2.356403 1_545
N14 Na7 2.739516 1_556
N14 Na14 2.802082 1_555
N15 Ru15 1.878751 1_555
N15 Ru2 1.885792 1_555
N15 Na2 2.356403 1_455
N15 Na6 2.739516 1_554
N15 Na15 2.802082 1_455
N16 Ru0 1.879084 1_555
N16 Ru8 1.887548 1_555
N16 Na15 2.519375 1_555
N16 Na8 2.593035 1_655
N17 Ru1 1.879084 1_555
N17 Ru9 1.887548 1_555
N17 Na14 2.519375 1_555
N17 Na9 2.593035 1_555
N18 Ru2 1.879084 1_555
N18 Ru10 1.887548 1_555
N18 Na13 2.519375 1_555
N18 Na10 2.593035 1_455
N19 Ru3 1.879084 1_555
N19 Ru11 1.887548 1_555
N19 Na12 2.519375 1_555
N19 Na11 2.593035 1_555
N20 Ru4 1.879084 1_555
N20 Ru12 1.887548 1_555
N20 Na11 2.519375 1_555
N20 Na12 2.593035 1_455
N21 Ru5 1.879084 1_555
N21 Ru13 1.887548 1_555
N21 Na10 2.519375 1_555
N21 Na13 2.593035 1_555
N22 Ru6 1.879084 1_555
N22 Ru14 1.887548 1_555
N22 Na9 2.519375 1_555
N22 Na14 2.593035 1_655
N23 Ru7 1.879084 1_555
N23 Ru15 1.887548 1_555
N23 Na8 2.519375 1_555
N23 Na15 2.593035 1_555
N24 Ru2 1.886920 1_555
N24 Ru5 1.887639 1_555
N24 Na2 2.505369 1_555
N24 Na15 2.547392 1_555
N25 Ru3 1.886920 1_445
N25 Ru4 1.887639 1_545
N25 Na3 2.505369 1_545
N25 Na14 2.547392 1_555
N26 Ru0 1.886920 1_565
N26 Ru7 1.887639 1_565
N26 Na0 2.505369 1_565
N26 Na13 2.547392 1_555
N27 Ru1 1.886920 1_655
N27 Ru6 1.887639 1_555
N27 Na1 2.505369 1_555
N27 Na12 2.547392 1_555
N28 Ru6 1.886920 1_555
N28 Ru1 1.887639 1_555
N28 Na6 2.505369 1_555
N28 Na11 2.547392 1_555
N29 Ru7 1.886920 1_665
N29 Ru0 1.887639 1_565
N29 Na7 2.505369 1_565
N29 Na10 2.547392 1_555
N30 Ru4 1.886920 1_545
N30 Ru3 1.887639 1_545
N30 Na4 2.505369 1_545
N30 Na9 2.547392 1_555
N31 Ru5 1.886920 1_455
N31 Ru2 1.887639 1_555
N31 Na5 2.505369 1_555
N31 Na8 2.547392 1_555
