# generated using pymatgen
data_PuTe3
_symmetry_space_group_name_H-M   'P 1'
_cell_length_a   13.26023421
_cell_length_b   13.26023421
_cell_length_c   4.37381008
_cell_angle_alpha   90.00000000
_cell_angle_beta   90.00000000
_cell_angle_gamma   160.96808356
_symmetry_Int_Tables_number   1
_chemical_formula_structural   PuTe3
_chemical_formula_sum   'Pu2 Te6'
_cell_volume   250.78767392
_cell_formula_units_Z   2
loop_
 _symmetry_equiv_pos_site_id
 _symmetry_equiv_pos_as_xyz
  1  'x, y, z'
loop_
 _atom_site_type_symbol
 _atom_site_label
 _atom_site_symmetry_multiplicity
 _atom_site_fract_x
 _atom_site_fract_y
 _atom_site_fract_z
 _atom_site_occupancy
  Pu  Pu0  1  0.17084701  0.82915299  0.75000000  1
  Pu  Pu1  1  0.82915299  0.17084701  0.25000000  1
  Te  Te0  1  0.92545891  0.07454109  0.75000000  1
  Te  Te1  1  0.07454109  0.92545891  0.25000000  1
  Te  Te2  1  0.57521193  0.42478807  0.75000000  1
  Te  Te3  1  0.42478807  0.57521193  0.25000000  1
  Te  Te4  1  0.29617678  0.70382322  0.75000000  1
  Te  Te5  1  0.70382322  0.29617678  0.25000000  1
loop_
_geom_bond_atom_site_label_1
_geom_bond_atom_site_label_2
_geom_bond_distance
_geom_bond_site_symmetry_2
Pu0 Te5 3.214385 1_455
Pu0 Te5 3.214385 1_456
Pu0 Te5 3.214385 1_566
Pu0 Te5 3.214385 1_565
Pu0 Te4 3.278067 1_555
Pu0 Te2 3.326068 1_565
Pu0 Te2 3.326068 1_455
Pu0 Te1 3.335802 1_556
Pu0 Te1 3.335802 1_555
Pu1 Te4 3.214385 1_544
Pu1 Te4 3.214385 1_545
Pu1 Te4 3.214385 1_655
Pu1 Te4 3.214385 1_654
Pu1 Te5 3.278067 1_555
Pu1 Te3 3.326068 1_655
Pu1 Te3 3.326068 1_545
Pu1 Te0 3.335802 1_554
Pu1 Te0 3.335802 1_555
Te0 Te3 3.096556 1_545
Te0 Te3 3.096556 1_546
Te0 Te3 3.096556 1_655
Te0 Te3 3.096556 1_656
Te1 Te2 3.096556 1_455
Te1 Te2 3.096556 1_454
Te1 Te2 3.096556 1_564
Te1 Te2 3.096556 1_565
