# generated using pymatgen
data_Tm(BIr)4
_symmetry_space_group_name_H-M   'P 1'
_cell_length_a   5.37350030
_cell_length_b   5.37350030
_cell_length_c   7.40866325
_cell_angle_alpha   90.00000000
_cell_angle_beta   90.00000000
_cell_angle_gamma   90.00000000
_symmetry_Int_Tables_number   1
_chemical_formula_structural   Tm(BIr)4
_chemical_formula_sum   'Tm2 B8 Ir8'
_cell_volume   213.92148757
_cell_formula_units_Z   2
loop_
 _symmetry_equiv_pos_site_id
 _symmetry_equiv_pos_as_xyz
  1  'x, y, z'
loop_
 _atom_site_type_symbol
 _atom_site_label
 _atom_site_symmetry_multiplicity
 _atom_site_fract_x
 _atom_site_fract_y
 _atom_site_fract_z
 _atom_site_occupancy
  Tm  Tm0  1  -0.00000000  0.00000000  0.00000000  1
  Tm  Tm1  1  0.50000000  0.50000000  0.50000000  1
  B  B0  1  0.82710594  0.50000000  0.15332048  1
  B  B1  1  0.17289406  0.50000000  0.15332048  1
  B  B2  1  -0.00000000  0.32710594  0.65332048  1
  B  B3  1  -0.00000000  0.67289406  0.65332048  1
  B  B4  1  0.67289406  0.00000000  0.34667952  1
  B  B5  1  0.32710594  0.00000000  0.34667952  1
  B  B6  1  0.50000000  0.17289406  0.84667952  1
  B  B7  1  0.50000000  0.82710594  0.84667952  1
  Ir  Ir0  1  0.25116465  0.50000000  0.85493000  1
  Ir  Ir1  1  0.74883535  0.50000000  0.85493000  1
  Ir  Ir2  1  -0.00000000  0.75116465  0.35493000  1
  Ir  Ir3  1  -0.00000000  0.24883535  0.35493000  1
  Ir  Ir4  1  0.24883535  0.00000000  0.64507000  1
  Ir  Ir5  1  0.75116465  0.00000000  0.64507000  1
  Ir  Ir6  1  0.50000000  0.74883535  0.14507000  1
  Ir  Ir7  1  0.50000000  0.25116465  0.14507000  1
loop_
_geom_bond_atom_site_label_1
_geom_bond_atom_site_label_2
_geom_bond_distance
_geom_bond_site_symmetry_2
B0 B1 1.858093 1_655
B0 Ir6 2.209330 1_555
B0 Ir7 2.209330 1_555
B0 Ir3 2.217126 1_655
B0 Ir2 2.217126 1_655
B0 Ir1 2.250328 1_554
B0 Tm0 3.061376 1_665
B0 Tm0 3.061376 1_655
B0 Tm1 3.112293 1_555
B1 Ir6 2.209330 1_555
B1 Ir7 2.209330 1_555
B1 Ir3 2.217126 1_555
B1 Ir2 2.217126 1_555
B1 Ir0 2.250328 1_554
B1 Tm0 3.061376 1_555
B1 Tm0 3.061376 1_565
B1 Tm1 3.112293 1_555
B2 B3 1.858093 1_555
B2 Ir5 2.209330 1_455
B2 Ir4 2.209330 1_555
B2 Ir1 2.217126 1_455
B2 Ir0 2.217126 1_555
B2 Ir3 2.250328 1_555
B2 Tm1 3.061376 1_455
B2 Tm1 3.061376 1_555
B2 Tm0 3.112293 1_556
B3 Ir5 2.209330 1_465
B3 Ir4 2.209330 1_565
B3 Ir1 2.217126 1_455
B3 Ir0 2.217126 1_555
B3 Ir2 2.250328 1_555
B3 Tm1 3.061376 1_455
B3 Tm1 3.061376 1_555
B3 Tm0 3.112293 1_566
B4 B5 1.858093 1_555
B4 Ir3 2.209330 1_655
B4 Ir2 2.209330 1_645
B4 Ir6 2.217126 1_545
B4 Ir7 2.217126 1_555
B4 Ir5 2.250328 1_555
B4 Tm1 3.061376 1_545
B4 Tm1 3.061376 1_555
B4 Tm0 3.112293 1_655
B5 Ir3 2.209330 1_555
B5 Ir2 2.209330 1_545
B5 Ir6 2.217126 1_545
B5 Ir7 2.217126 1_555
B5 Ir4 2.250328 1_555
B5 Tm1 3.061376 1_545
B5 Tm1 3.061376 1_555
B5 Tm0 3.112293 1_555
B6 B7 1.858093 1_545
B6 Ir0 2.209330 1_555
B6 Ir1 2.209330 1_555
B6 Ir4 2.217126 1_555
B6 Ir5 2.217126 1_555
B6 Ir7 2.250328 1_556
B6 Tm0 3.061376 1_556
B6 Tm0 3.061376 1_656
B6 Tm1 3.112293 1_555
B7 Ir0 2.209330 1_555
B7 Ir1 2.209330 1_555
B7 Ir5 2.217126 1_565
B7 Ir4 2.217126 1_565
B7 Ir6 2.250328 1_556
B7 Tm0 3.061376 1_566
B7 Tm0 3.061376 1_666
B7 Tm1 3.112293 1_555
Ir0 Tm1 2.949992 1_555
Ir0 Tm0 3.193004 1_556
Ir0 Tm0 3.193004 1_566
Ir1 Tm1 2.949992 1_555
Ir1 Tm0 3.193004 1_656
Ir1 Tm0 3.193004 1_666
Ir2 Tm0 2.949992 1_565
Ir2 Tm1 3.193004 1_455
Ir2 Tm1 3.193004 1_555
Ir3 Tm0 2.949992 1_555
Ir3 Tm1 3.193004 1_455
Ir3 Tm1 3.193004 1_555
Ir4 Tm0 2.949992 1_556
Ir4 Tm1 3.193004 1_555
Ir4 Tm1 3.193004 1_545
Ir5 Tm0 2.949992 1_656
Ir5 Tm1 3.193004 1_555
Ir5 Tm1 3.193004 1_545
Ir6 Tm1 2.949992 1_555
Ir6 Tm0 3.193004 1_665
Ir6 Tm0 3.193004 1_565
Ir7 Tm1 2.949992 1_555
Ir7 Tm0 3.193004 1_555
Ir7 Tm0 3.193004 1_655
