# generated using pymatgen
data_AlCrN2
_symmetry_space_group_name_H-M   'P 1'
_cell_length_a   5.44514800
_cell_length_b   6.52457600
_cell_length_c   4.98109900
_cell_angle_alpha   90.00000000
_cell_angle_beta   90.00000000
_cell_angle_gamma   90.00000000
_symmetry_Int_Tables_number   1
_chemical_formula_structural   AlCrN2
_chemical_formula_sum   'Al4 Cr4 N8'
_cell_volume   176.96490863
_cell_formula_units_Z   4
loop_
 _symmetry_equiv_pos_site_id
 _symmetry_equiv_pos_as_xyz
  1  'x, y, z'
loop_
 _atom_site_type_symbol
 _atom_site_label
 _atom_site_symmetry_multiplicity
 _atom_site_fract_x
 _atom_site_fract_y
 _atom_site_fract_z
 _atom_site_occupancy
  Al  Al0  1  0.58030000  0.37486400  0.00066600  1
  Al  Al1  1  0.41970000  0.62513600  0.50066600  1
  Al  Al2  1  0.91970000  0.87486400  0.50066600  1
  Al  Al3  1  0.08030000  0.12513600  0.00066600  1
  Cr  Cr0  1  0.57463700  0.87479700  0.99470900  1
  Cr  Cr1  1  0.42536300  0.12520300  0.49470900  1
  Cr  Cr2  1  0.92536300  0.37479700  0.49470900  1
  Cr  Cr3  1  0.07463700  0.62520300  0.99470900  1
  N  N0  1  0.57817500  0.38396900  0.38387700  1
  N  N1  1  0.42182500  0.61603100  0.88387700  1
  N  N2  1  0.92182500  0.88396900  0.88387700  1
  N  N3  1  0.07817500  0.11603100  0.38387700  1
  N  N4  1  0.58713600  0.86537900  0.39075000  1
  N  N5  1  0.41286400  0.13462100  0.89075000  1
  N  N6  1  0.91286400  0.36537900  0.89075000  1
  N  N7  1  0.08713600  0.63462100  0.39075000  1
loop_
_geom_bond_atom_site_label_1
_geom_bond_atom_site_label_2
_geom_bond_distance
_geom_bond_site_symmetry_2
Al0 N1 1.886529 1_554
Al0 N6 1.892829 1_554
Al0 N5 1.894198 1_554
Al0 N0 1.909771 1_555
Al1 N0 1.886529 1_555
Al1 N7 1.892829 1_555
Al1 N4 1.894198 1_555
Al1 N1 1.909771 1_555
Al2 N3 1.886529 1_665
Al2 N4 1.892829 1_555
Al2 N7 1.894198 1_655
Al2 N2 1.909771 1_555
Al3 N2 1.886529 1_444
Al3 N5 1.892829 1_554
Al3 N6 1.894198 1_454
Al3 N3 1.909771 1_555
Cr0 N1 1.961537 1_555
Cr0 N2 1.970358 1_555
Cr0 N4 1.974849 1_556
Cr0 N5 1.979378 1_565
Cr1 N0 1.961537 1_555
Cr1 N3 1.970358 1_555
Cr1 N5 1.974849 1_555
Cr1 N4 1.979378 1_545
Cr2 N3 1.961537 1_655
Cr2 N0 1.970358 1_555
Cr2 N6 1.974849 1_555
Cr2 N7 1.979378 1_655
Cr3 N2 1.961537 1_455
Cr3 N1 1.970358 1_555
Cr3 N7 1.974849 1_556
Cr3 N6 1.979378 1_455
