# generated using pymatgen
data_FeS4Br4N5
_symmetry_space_group_name_H-M   'P 1'
_cell_length_a   9.70787834
_cell_length_b   9.70787834
_cell_length_c   12.57779153
_cell_angle_alpha   89.72117414
_cell_angle_beta   89.72117414
_cell_angle_gamma   140.02113959
_symmetry_Int_Tables_number   1
_chemical_formula_structural   FeS4Br4N5
_chemical_formula_sum   'Fe2 S8 Br8 N10'
_cell_volume   761.52733368
_cell_formula_units_Z   2
loop_
 _symmetry_equiv_pos_site_id
 _symmetry_equiv_pos_as_xyz
  1  'x, y, z'
loop_
 _atom_site_type_symbol
 _atom_site_label
 _atom_site_symmetry_multiplicity
 _atom_site_fract_x
 _atom_site_fract_y
 _atom_site_fract_z
 _atom_site_occupancy
  Fe  Fe0  1  0.95005300  0.54774600  0.80507900  1
  Fe  Fe1  1  0.54774600  0.95005300  0.30507900  1
  S  S0  1  0.26000400  0.37364100  0.10785000  1
  S  S1  1  0.37364100  0.26000400  0.60785000  1
  S  S2  1  0.61087700  0.47409100  0.09556400  1
  S  S3  1  0.47409100  0.61087700  0.59556400  1
  S  S4  1  0.36411600  0.30011800  0.27719600  1
  S  S5  1  0.30011800  0.36411600  0.77719600  1
  S  S6  1  0.21432500  0.05866200  0.09808600  1
  S  S7  1  0.05866200  0.21432500  0.59808600  1
  Br  Br0  1  0.14131300  0.58774100  0.93633200  1
  Br  Br1  1  0.58774100  0.14131300  0.43633200  1
  Br  Br2  1  0.10670900  0.63857700  0.64049900  1
  Br  Br3  1  0.63857700  0.10670900  0.14049900  1
  Br  Br4  1  0.60850800  0.19862600  0.81205700  1
  Br  Br5  1  0.19862600  0.60850800  0.31205700  1
  Br  Br6  1  0.93388700  0.76915000  0.83350400  1
  Br  Br7  1  0.76915000  0.93388700  0.33350400  1
  N  N0  1  0.71958400  0.94585400  0.91481800  1
  N  N1  1  0.94585400  0.71958400  0.41481800  1
  N  N2  1  0.50234300  0.53664500  0.06139400  1
  N  N3  1  0.53664500  0.50234300  0.56139400  1
  N  N4  1  0.60250800  0.46477500  0.22551100  1
  N  N5  1  0.46477500  0.60250800  0.72551100  1
  N  N6  1  0.22206300  0.06680100  0.22784300  1
  N  N7  1  0.06680100  0.22206300  0.72784300  1
  N  N8  1  0.12134100  0.13794200  0.06396700  1
  N  N9  1  0.13794200  0.12134100  0.56396700  1
loop_
_geom_bond_atom_site_label_1
_geom_bond_atom_site_label_2
_geom_bond_distance
_geom_bond_site_symmetry_2
Br0 Fe0 2.292338 1_455
Br1 Fe1 2.292338 1_545
Br2 Fe0 2.296061 1_455
Br3 Fe1 2.296061 1_545
Br4 Fe0 2.293518 1_555
Br5 Fe1 2.293518 1_555
Br6 Fe0 2.301327 1_555
Br7 Fe1 2.301327 1_555
N2 S2 1.626681 1_555
N2 S0 1.628616 1_555
N3 S3 1.626681 1_555
N3 S1 1.628616 1_555
N4 S4 1.624632 1_555
N4 S2 1.634687 1_555
N5 S5 1.624632 1_555
N5 S3 1.634687 1_555
N6 S4 1.628607 1_555
N6 S6 1.633660 1_555
N7 S5 1.628607 1_555
N7 S7 1.633660 1_555
N8 S0 1.628288 1_555
N8 S6 1.629914 1_555
N9 S1 1.628288 1_555
N9 S7 1.629914 1_555
