# generated using pymatgen
data_Bi19(S9I)3
_symmetry_space_group_name_H-M   'P 1'
_cell_length_a   16.27389772
_cell_length_b   16.27389772
_cell_length_c   16.27389777
_cell_angle_alpha   114.00550813
_cell_angle_beta   114.00550813
_cell_angle_gamma   114.00550724
_symmetry_Int_Tables_number   1
_chemical_formula_structural   Bi19(S9I)3
_chemical_formula_sum   'Bi38 S54 I6'
_cell_volume   2617.46338507
_cell_formula_units_Z   2
loop_
 _symmetry_equiv_pos_site_id
 _symmetry_equiv_pos_as_xyz
  1  'x, y, z'
loop_
 _atom_site_type_symbol
 _atom_site_label
 _atom_site_symmetry_multiplicity
 _atom_site_fract_x
 _atom_site_fract_y
 _atom_site_fract_z
 _atom_site_occupancy
  Bi  Bi0  1  0.96425000  0.01526200  0.25914600  1
  Bi  Bi1  1  0.29836200  0.35732500  0.58961100  1
  Bi  Bi2  1  0.63983600  0.69322400  0.93401000  1
  Bi  Bi3  1  0.69322400  0.93401000  0.63983600  1
  Bi  Bi4  1  0.01526200  0.25914600  0.96425000  1
  Bi  Bi5  1  0.35732500  0.58961100  0.29836200  1
  Bi  Bi6  1  0.58961100  0.29836200  0.35732500  1
  Bi  Bi7  1  0.93401000  0.63983600  0.69322400  1
  Bi  Bi8  1  0.25914600  0.96425000  0.01526200  1
  Bi  Bi9  1  0.37117600  0.31837800  0.07693000  1
  Bi  Bi10  1  0.69512200  0.64420800  0.40162900  1
  Bi  Bi11  1  0.03161500  0.97274800  0.74079400  1
  Bi  Bi12  1  0.64420800  0.40162900  0.69512200  1
  Bi  Bi13  1  0.97274800  0.74079400  0.03161500  1
  Bi  Bi14  1  0.31837800  0.07693000  0.37117600  1
  Bi  Bi15  1  0.74079400  0.03161500  0.97274800  1
  Bi  Bi16  1  0.07693000  0.37117600  0.31837800  1
  Bi  Bi17  1  0.40162900  0.69512200  0.64420800  1
  Bi  Bi18  1  0.15579100  0.15579100  0.15579100  1
  Bi  Bi19  1  0.65150600  0.65150600  0.65150600  1
  Bi  Bi20  1  0.16191900  0.04168200  0.55385600  1
  Bi  Bi21  1  0.82807600  0.70707600  0.21968000  1
  Bi  Bi22  1  0.49158800  0.37161200  0.88203300  1
  Bi  Bi23  1  0.37161200  0.88203300  0.49158800  1
  Bi  Bi24  1  0.04168200  0.55385600  0.16191900  1
  Bi  Bi25  1  0.70707600  0.21968000  0.82807600  1
  Bi  Bi26  1  0.21968000  0.82807600  0.70707600  1
  Bi  Bi27  1  0.88203300  0.49158800  0.37161200  1
  Bi  Bi28  1  0.55385600  0.16191900  0.04168200  1
  Bi  Bi29  1  0.50575500  0.62698600  0.11446200  1
  Bi  Bi30  1  0.17376400  0.29347700  0.78248300  1
  Bi  Bi31  1  0.84308800  0.96378900  0.45291200  1
  Bi  Bi32  1  0.29347700  0.78248300  0.17376400  1
  Bi  Bi33  1  0.96378900  0.45291200  0.84308800  1
  Bi  Bi34  1  0.62698600  0.11446200  0.50575500  1
  Bi  Bi35  1  0.45291200  0.84308800  0.96378900  1
  Bi  Bi36  1  0.11446200  0.50575500  0.62698600  1
  Bi  Bi37  1  0.78248300  0.17376400  0.29347700  1
  S  S0  1  0.53680900  0.51638300  0.70241000  1
  S  S1  1  0.86970000  0.85187800  0.03437300  1
  S  S2  1  0.20023000  0.18105400  0.36196900  1
  S  S3  1  0.85187800  0.03437300  0.86970000  1
  S  S4  1  0.18105400  0.36196900  0.20023000  1
  S  S5  1  0.51638300  0.70241000  0.53680900  1
  S  S6  1  0.36196900  0.20023000  0.18105400  1
  S  S7  1  0.70241000  0.53680900  0.51638300  1
  S  S8  1  0.03437300  0.86970000  0.85187800  1
  S  S9  1  0.79393300  0.81361800  0.63398700  1
  S  S10  1  0.13285400  0.15308200  0.96760000  1
  S  S11  1  0.46684900  0.48493200  0.30268000  1
  S  S12  1  0.48493200  0.30268000  0.46684900  1
  S  S13  1  0.81361800  0.63398700  0.79393300  1
  S  S14  1  0.15308200  0.96760000  0.13285400  1
  S  S15  1  0.96760000  0.13285400  0.15308200  1
  S  S16  1  0.30268000  0.46684900  0.48493200  1
  S  S17  1  0.63398700  0.79393300  0.81361800  1
  S  S18  1  0.07799600  0.14647900  0.53290000  1
  S  S19  1  0.40613900  0.47531600  0.86253200  1
  S  S20  1  0.74327200  0.81098000  0.19808000  1
  S  S21  1  0.81098000  0.19808000  0.74327200  1
  S  S22  1  0.14647900  0.53290000  0.07799600  1
  S  S23  1  0.47531600  0.86253200  0.40613900  1
  S  S24  1  0.86253200  0.40613900  0.47531600  1
  S  S25  1  0.19808000  0.74327200  0.81098000  1
  S  S26  1  0.53290000  0.07799600  0.14647900  1
  S  S27  1  0.25667700  0.18788700  0.80266300  1
  S  S28  1  0.59005100  0.52239500  0.13529800  1
  S  S29  1  0.92675300  0.85846800  0.47128500  1
  S  S30  1  0.52239500  0.13529800  0.59005100  1
  S  S31  1  0.85846800  0.47128500  0.92675300  1
  S  S32  1  0.18788700  0.80266300  0.25667700  1
  S  S33  1  0.47128500  0.92675300  0.85846800  1
  S  S34  1  0.80266300  0.25667700  0.18788700  1
  S  S35  1  0.13529800  0.59005100  0.52239500  1
  S  S36  1  0.37151500  0.24224200  0.63492900  1
  S  S37  1  0.70574200  0.57494700  0.97156200  1
  S  S38  1  0.04025600  0.90775800  0.30516600  1
  S  S39  1  0.57494700  0.97156200  0.70574200  1
  S  S40  1  0.90775800  0.30516600  0.04025600  1
  S  S41  1  0.24224200  0.63492900  0.37151500  1
  S  S42  1  0.30516600  0.04025600  0.90775800  1
  S  S43  1  0.63492900  0.37151500  0.24224200  1
  S  S44  1  0.97156200  0.70574200  0.57494700  1
  S  S45  1  0.95956100  0.08891700  0.69681600  1
  S  S46  1  0.29524700  0.42682100  0.03075800  1
  S  S47  1  0.62843800  0.76071400  0.36333800  1
  S  S48  1  0.76071400  0.36333800  0.62843800  1
  S  S49  1  0.08891700  0.69681600  0.95956100  1
  S  S50  1  0.42682100  0.03075800  0.29524700  1
  S  S51  1  0.03075800  0.29524700  0.42682100  1
  S  S52  1  0.36333800  0.62843800  0.76071400  1
  S  S53  1  0.69681600  0.95956100  0.08891700  1
  I  I0  1  0.91791400  0.25104200  0.58432200  1
  I  I1  1  0.25104200  0.58432200  0.91791400  1
  I  I2  1  0.58432200  0.91791400  0.25104200  1
  I  I3  1  0.41915400  0.08597300  0.75269300  1
  I  I4  1  0.75269300  0.41915400  0.08597300  1
  I  I5  1  0.08597300  0.75269300  0.41915400  1
loop_
_geom_bond_atom_site_label_1
_geom_bond_atom_site_label_2
_geom_bond_distance
_geom_bond_site_symmetry_2
Bi0 S1 2.644953 1_545
Bi0 S38 2.687882 1_645
Bi0 S2 2.737706 1_655
Bi0 S15 3.053484 1_555
Bi0 S20 3.106238 1_545
Bi0 S18 3.188616 1_655
Bi1 S0 2.700600 1_555
Bi1 S2 2.704738 1_555
Bi1 S36 2.773499 1_555
Bi1 S16 2.924017 1_555
Bi1 S18 3.194463 1_555
Bi1 S19 3.236101 1_555
Bi2 S1 2.658279 1_556
Bi2 S37 2.707826 1_555
Bi2 S0 2.721346 1_555
Bi2 S17 3.020210 1_555
Bi2 S20 3.124532 1_556
Bi2 S19 3.234710 1_555
Bi3 S3 2.658279 1_565
Bi3 S39 2.707826 1_555
Bi3 S5 2.721346 1_555
Bi3 S9 3.020210 1_555
Bi3 S21 3.124532 1_565
Bi3 S23 3.234710 1_555
Bi4 S3 2.644953 1_455
Bi4 S40 2.687882 1_456
Bi4 S4 2.737706 1_556
Bi4 S10 3.053484 1_555
Bi4 S21 3.106238 1_455
Bi4 S22 3.188616 1_556
Bi5 S5 2.700600 1_555
Bi5 S4 2.704738 1_555
Bi5 S41 2.773499 1_555
Bi5 S11 2.924017 1_555
Bi5 S22 3.194463 1_555
Bi5 S23 3.236101 1_555
Bi6 S7 2.700600 1_555
Bi6 S6 2.704738 1_555
Bi6 S43 2.773499 1_555
Bi6 S12 2.924017 1_555
Bi6 S26 3.194463 1_555
Bi6 S24 3.236101 1_555
Bi7 S8 2.658279 1_655
Bi7 S44 2.707826 1_555
Bi7 S7 2.721346 1_555
Bi7 S13 3.020210 1_555
Bi7 S25 3.124532 1_655
Bi7 S24 3.234710 1_555
Bi8 S8 2.644953 1_554
Bi8 S42 2.687882 1_564
Bi8 S6 2.737706 1_565
Bi8 S14 3.053484 1_555
Bi8 S25 3.106238 1_554
Bi8 S26 3.188616 1_565
Bi9 S11 2.660430 1_555
Bi9 S46 2.702545 1_555
Bi9 S10 2.728790 1_554
Bi9 S6 3.035421 1_555
Bi9 S28 3.109958 1_555
Bi9 S27 3.194507 1_554
Bi10 S11 2.648392 1_555
Bi10 S47 2.691849 1_555
Bi10 S9 2.729176 1_555
Bi10 S7 3.033252 1_555
Bi10 S28 3.140098 1_555
Bi10 S29 3.203947 1_555
Bi11 S10 2.693533 1_565
Bi11 S9 2.721413 1_455
Bi11 S45 2.771834 1_465
Bi11 S8 2.923054 1_555
Bi11 S29 3.209132 1_455
Bi11 S27 3.222451 1_565
Bi12 S12 2.648392 1_555
Bi12 S48 2.691849 1_555
Bi12 S13 2.729176 1_555
Bi12 S0 3.033252 1_555
Bi12 S30 3.140098 1_555
Bi12 S31 3.203947 1_555
Bi13 S14 2.693533 1_655
Bi13 S13 2.721413 1_554
Bi13 S49 2.771834 1_654
Bi13 S1 2.923054 1_555
Bi13 S31 3.209132 1_554
Bi13 S32 3.222451 1_655
Bi14 S12 2.660430 1_555
Bi14 S50 2.702545 1_555
Bi14 S14 2.728790 1_545
Bi14 S2 3.035421 1_555
Bi14 S30 3.109957 1_555
Bi14 S32 3.194507 1_545
Bi15 S15 2.693533 1_556
Bi15 S17 2.721413 1_545
Bi15 S53 2.771834 1_546
Bi15 S3 2.923054 1_555
Bi15 S33 3.209132 1_545
Bi15 S34 3.222451 1_556
Bi16 S16 2.660430 1_555
Bi16 S51 2.702545 1_555
Bi16 S15 2.728790 1_455
Bi16 S4 3.035421 1_555
Bi16 S35 3.109957 1_555
Bi16 S34 3.194507 1_455
Bi17 S16 2.648392 1_555
Bi17 S52 2.691849 1_555
Bi17 S17 2.729176 1_555
Bi17 S5 3.033252 1_555
Bi17 S35 3.140098 1_555
Bi17 S33 3.203947 1_555
Bi18 S14 2.909880 1_545
Bi18 S15 2.909880 1_455
Bi18 S10 2.909880 1_554
Bi18 S4 2.934540 1_555
Bi18 S6 2.934540 1_555
Bi18 S2 2.934540 1_555
Bi19 S5 2.899394 1_555
Bi19 S7 2.899394 1_555
Bi19 S0 2.899394 1_555
Bi19 S13 2.930532 1_555
Bi19 S17 2.930532 1_555
Bi19 S9 2.930532 1_555
Bi20 S18 2.622901 1_555
Bi20 S36 2.793650 1_555
Bi20 S38 2.800334 1_545
Bi20 S27 2.920546 1_555
Bi20 S29 2.934874 1_445
Bi20 I5 3.623365 1_545
Bi20 I3 3.624942 1_555
Bi21 S20 2.622040 1_555
Bi21 S38 2.782735 1_655
Bi21 S37 2.793393 1_554
Bi21 S29 2.938918 1_555
Bi21 S28 2.960530 1_555
Bi21 I4 3.612486 1_555
Bi21 I5 3.622491 1_655
Bi22 S19 2.620859 1_555
Bi22 S37 2.789447 1_555
Bi22 S36 2.791504 1_555
Bi22 S27 2.960156 1_555
Bi22 S28 2.962204 1_556
Bi22 I3 3.604150 1_555
Bi22 I4 3.664768 1_556
Bi23 S23 2.620859 1_555
Bi23 S39 2.789447 1_555
Bi23 S41 2.791504 1_555
Bi23 S32 2.960156 1_555
Bi23 S30 2.962204 1_565
Bi23 I5 3.604150 1_555
Bi23 I3 3.664768 1_565
Bi24 S22 2.622901 1_555
Bi24 S41 2.793650 1_555
Bi24 S40 2.800334 1_455
Bi24 S32 2.920546 1_555
Bi24 S31 2.934874 1_454
Bi24 I4 3.623365 1_455
Bi24 I5 3.624942 1_555
Bi25 S21 2.622040 1_555
Bi25 S40 2.782735 1_556
Bi25 S39 2.793393 1_545
Bi25 S31 2.938918 1_555
Bi25 S30 2.960530 1_555
Bi25 I3 3.612486 1_555
Bi25 I4 3.622491 1_556
Bi26 S25 2.622040 1_555
Bi26 S42 2.782735 1_565
Bi26 S44 2.793393 1_455
Bi26 S33 2.938918 1_555
Bi26 S35 2.960530 1_555
Bi26 I5 3.612486 1_555
Bi26 I3 3.622491 1_565
Bi27 S24 2.620859 1_555
Bi27 S44 2.789447 1_555
Bi27 S43 2.791504 1_555
Bi27 S34 2.960156 1_555
Bi27 S35 2.962204 1_655
Bi27 I4 3.604150 1_555
Bi27 I5 3.664768 1_655
Bi28 S26 2.622901 1_555
Bi28 S43 2.793650 1_555
Bi28 S42 2.800334 1_554
Bi28 S34 2.920546 1_555
Bi28 S33 2.934874 1_544
Bi28 I3 3.623365 1_554
Bi28 I4 3.624943 1_555
Bi29 S28 2.623932 1_555
Bi29 S46 2.777677 1_555
Bi29 S47 2.799965 1_555
Bi29 S19 2.938031 1_554
Bi29 S20 2.957395 1_555
Bi29 I1 3.599851 1_554
Bi29 I2 3.631918 1_555
Bi30 S27 2.620386 1_555
Bi30 S46 2.796158 1_556
Bi30 S45 2.829301 1_455
Bi30 S19 2.916267 1_555
Bi30 S18 2.925596 1_555
Bi30 I0 3.624385 1_455
Bi30 I1 3.640848 1_555
Bi31 S29 2.620212 1_555
Bi31 S45 2.766933 1_565
Bi31 S47 2.791628 1_555
Bi31 S18 2.949991 1_665
Bi31 S20 2.976946 1_555
Bi31 I0 3.608961 1_565
Bi31 I2 3.643298 1_555
Bi32 S32 2.620386 1_555
Bi32 S50 2.796158 1_565
Bi32 S49 2.829301 1_554
Bi32 S23 2.916267 1_555
Bi32 S22 2.925596 1_555
Bi32 I1 3.624385 1_554
Bi32 I2 3.640848 1_555
Bi33 S31 2.620212 1_555
Bi33 S49 2.766933 1_655
Bi33 S48 2.791628 1_555
Bi33 S22 2.949991 1_656
Bi33 S21 2.976947 1_555
Bi33 I1 3.608961 1_655
Bi33 I0 3.643298 1_555
Bi34 S30 2.623932 1_555
Bi34 S50 2.777677 1_555
Bi34 S48 2.799965 1_555
Bi34 S23 2.938031 1_545
Bi34 S21 2.957395 1_555
Bi34 I2 3.599851 1_545
Bi34 I0 3.631918 1_555
Bi35 S33 2.620212 1_555
Bi35 S53 2.766933 1_556
Bi35 S52 2.791628 1_555
Bi35 S26 2.949991 1_566
Bi35 S25 2.976946 1_555
Bi35 I2 3.608961 1_556
Bi35 I1 3.643298 1_555
Bi36 S35 2.623932 1_555
Bi36 S51 2.777677 1_555
Bi36 S52 2.799965 1_555
Bi36 S24 2.938031 1_455
Bi36 S25 2.957395 1_555
Bi36 I0 3.599851 1_455
Bi36 I1 3.631918 1_555
Bi37 S34 2.620386 1_555
Bi37 S51 2.796158 1_655
Bi37 S53 2.829301 1_545
Bi37 S24 2.916267 1_555
Bi37 S26 2.925596 1_555
Bi37 I2 3.624385 1_545
Bi37 I0 3.640848 1_555
