# generated using pymatgen
data_Na3P2H19O16
_symmetry_space_group_name_H-M   'P 1'
_cell_length_a   6.17360800
_cell_length_b   31.77280900
_cell_length_c   8.60744241
_cell_angle_alpha   90.00000000
_cell_angle_beta   113.77614746
_cell_angle_gamma   90.00000000
_symmetry_Int_Tables_number   1
_chemical_formula_structural   Na3P2H19O16
_chemical_formula_sum   'Na12 P8 H76 O64'
_cell_volume   1545.07809379
_cell_formula_units_Z   4
loop_
 _symmetry_equiv_pos_site_id
 _symmetry_equiv_pos_as_xyz
  1  'x, y, z'
loop_
 _atom_site_type_symbol
 _atom_site_label
 _atom_site_symmetry_multiplicity
 _atom_site_fract_x
 _atom_site_fract_y
 _atom_site_fract_z
 _atom_site_occupancy
  Na  Na0  1  0.23716400  0.24145900  0.37964700  1
  Na  Na1  1  0.23716400  0.25854100  0.87964700  1
  Na  Na2  1  0.76283600  0.75854100  0.62035300  1
  Na  Na3  1  0.76283600  0.74145900  0.12035300  1
  Na  Na4  1  0.51088100  0.33366100  0.33274000  1
  Na  Na5  1  0.51088100  0.16633900  0.83274000  1
  Na  Na6  1  0.48911900  0.66633900  0.66726000  1
  Na  Na7  1  0.48911900  0.83366100  0.16726000  1
  Na  Na8  1  0.19714800  0.51731400  0.90716000  1
  Na  Na9  1  0.19714800  0.98268600  0.40716000  1
  Na  Na10  1  0.80285200  0.48268600  0.09284000  1
  Na  Na11  1  0.80285200  0.01731400  0.59284000  1
  P  P0  1  0.98400200  0.10875100  0.09860100  1
  P  P1  1  0.98400200  0.39124900  0.59860100  1
  P  P2  1  0.01599800  0.89124900  0.90139900  1
  P  P3  1  0.01599800  0.60875100  0.40139900  1
  P  P4  1  0.77766100  0.16386400  0.28367900  1
  P  P5  1  0.77766100  0.33613600  0.78367900  1
  P  P6  1  0.22233900  0.83613600  0.71632100  1
  P  P7  1  0.22233900  0.66386400  0.21632100  1
  H  H0  1  0.37022800  0.11875600  0.15578600  1
  H  H1  1  0.37022800  0.38124400  0.65578600  1
  H  H2  1  0.62977200  0.88124400  0.84421400  1
  H  H3  1  0.62977200  0.61875600  0.34421400  1
  H  H4  1  0.35104700  0.30456600  0.62547800  1
  H  H5  1  0.35104700  0.19543400  0.12547800  1
  H  H6  1  0.64895300  0.69543400  0.37452200  1
  H  H7  1  0.64895300  0.80456600  0.87452200  1
  H  H8  1  0.08306400  0.29863300  0.57888800  1
  H  H9  1  0.08306400  0.20136700  0.07888800  1
  H  H10  1  0.91693600  0.70136700  0.42111200  1
  H  H11  1  0.91693600  0.79863300  0.92111200  1
  H  H12  1  0.55370800  0.16711000  0.50254400  1
  H  H13  1  0.55370800  0.33289000  0.00254400  1
  H  H14  1  0.44629200  0.83289000  0.49745600  1
  H  H15  1  0.44629200  0.66711000  0.99745600  1
  H  H16  1  0.29166200  0.15572600  0.46724700  1
  H  H17  1  0.29166200  0.34427400  0.96724700  1
  H  H18  1  0.70833800  0.84427400  0.53275300  1
  H  H19  1  0.70833800  0.65572600  0.03275300  1
  H  H20  1  0.04570300  0.32709900  0.32831400  1
  H  H21  1  0.04570300  0.17290100  0.82831400  1
  H  H22  1  0.95429700  0.67290100  0.67168600  1
  H  H23  1  0.95429700  0.82709900  0.17168600  1
  H  H24  1  0.00436700  0.32049000  0.13969500  1
  H  H25  1  0.00436700  0.17951000  0.63969500  1
  H  H26  1  0.99563300  0.67951000  0.86030500  1
  H  H27  1  0.99563300  0.82049000  0.36030500  1
  H  H28  1  0.73103300  0.26846200  0.55915900  1
  H  H29  1  0.73103300  0.23153800  0.05915900  1
  H  H30  1  0.26896700  0.73153800  0.44084100  1
  H  H31  1  0.26896700  0.76846200  0.94084100  1
  H  H32  1  0.72468400  0.24459100  0.39212700  1
  H  H33  1  0.72468400  0.25540900  0.89212700  1
  H  H34  1  0.27531600  0.75540900  0.60787300  1
  H  H35  1  0.27531600  0.74459100  0.10787300  1
  H  H36  1  0.25329400  0.41276300  0.26134900  1
  H  H37  1  0.25329400  0.08723700  0.76134900  1
  H  H38  1  0.74670600  0.58723700  0.73865100  1
  H  H39  1  0.74670600  0.91276300  0.23865100  1
  H  H40  1  0.53133400  0.41924000  0.38245200  1
  H  H41  1  0.53133400  0.08076000  0.88245200  1
  H  H42  1  0.46866600  0.58076000  0.61754800  1
  H  H43  1  0.46866600  0.91924000  0.11754800  1
  H  H44  1  0.81258200  0.46222500  0.73641700  1
  H  H45  1  0.81258200  0.03777500  0.23641700  1
  H  H46  1  0.18741800  0.53777500  0.26358300  1
  H  H47  1  0.18741800  0.96222500  0.76358300  1
  H  H48  1  0.63427900  0.49506200  0.75301800  1
  H  H49  1  0.63427900  0.00493800  0.25301800  1
  H  H50  1  0.36572100  0.50493800  0.24698200  1
  H  H51  1  0.36572100  0.99506200  0.74698200  1
  H  H52  1  0.09466700  0.60150500  0.73039700  1
  H  H53  1  0.09466700  0.89849500  0.23039700  1
  H  H54  1  0.90533300  0.39849500  0.26960300  1
  H  H55  1  0.90533300  0.10150500  0.76960300  1
  H  H56  1  0.11488100  0.60720500  0.91497700  1
  H  H57  1  0.11488100  0.89279500  0.41497700  1
  H  H58  1  0.88511900  0.39279500  0.08502300  1
  H  H59  1  0.88511900  0.10720500  0.58502300  1
  H  H60  1  0.62466700  0.56808600  0.10516300  1
  H  H61  1  0.62466700  0.93191400  0.60516300  1
  H  H62  1  0.37533300  0.43191400  0.89483700  1
  H  H63  1  0.37533300  0.06808600  0.39483700  1
  H  H64  1  0.58618200  0.56523000  0.91145400  1
  H  H65  1  0.58618200  0.93477000  0.41145400  1
  H  H66  1  0.41381800  0.43477000  0.08854600  1
  H  H67  1  0.41381800  0.06523000  0.58854600  1
  H  H68  1  0.77006000  0.52522200  0.38754700  1
  H  H69  1  0.77006000  0.97477800  0.88754700  1
  H  H70  1  0.22994000  0.47477800  0.61245300  1
  H  H71  1  0.22994000  0.02522200  0.11245300  1
  H  H72  1  0.77636300  0.47658500  0.43403400  1
  H  H73  1  0.77636300  0.02341500  0.93403400  1
  H  H74  1  0.22363700  0.52341500  0.56596600  1
  H  H75  1  0.22363700  0.97658500  0.06596600  1
  O  O0  1  0.91407300  0.13881600  0.94948100  1
  O  O1  1  0.91407300  0.36118400  0.44948100  1
  O  O2  1  0.08592700  0.86118400  0.05051900  1
  O  O3  1  0.08592700  0.63881600  0.55051900  1
  O  O4  1  0.83698200  0.06892000  0.06923100  1
  O  O5  1  0.83698200  0.43108000  0.56923100  1
  O  O6  1  0.16301800  0.93108000  0.93076900  1
  O  O7  1  0.16301800  0.56892000  0.43076900  1
  O  O8  1  0.25589200  0.09562400  0.16484800  1
  O  O9  1  0.25589200  0.40437600  0.66484800  1
  O  O10  1  0.74410800  0.90437600  0.83515200  1
  O  O11  1  0.74410800  0.59562400  0.33515200  1
  O  O12  1  0.98296000  0.13293300  0.26433100  1
  O  O13  1  0.98296000  0.36706700  0.76433100  1
  O  O14  1  0.01704000  0.86706700  0.73566900  1
  O  O15  1  0.01704000  0.63293300  0.23566900  1
  O  O16  1  0.85454800  0.20894900  0.27143200  1
  O  O17  1  0.85454800  0.29105100  0.77143200  1
  O  O18  1  0.14545200  0.79105100  0.72856800  1
  O  O19  1  0.14545200  0.70894900  0.22856800  1
  O  O20  1  0.53923200  0.15256900  0.13860400  1
  O  O21  1  0.53923200  0.34743100  0.63860400  1
  O  O22  1  0.46076800  0.84743100  0.86139600  1
  O  O23  1  0.46076800  0.65256900  0.36139600  1
  O  O24  1  0.79185400  0.15228800  0.46022400  1
  O  O25  1  0.79185400  0.34771200  0.96022400  1
  O  O26  1  0.20814600  0.84771200  0.53977600  1
  O  O27  1  0.20814600  0.65228800  0.03977600  1
  O  O28  1  0.22993400  0.28262300  0.61382100  1
  O  O29  1  0.22993400  0.21737700  0.11382100  1
  O  O30  1  0.77006600  0.71737700  0.38617900  1
  O  O31  1  0.77006600  0.78262300  0.88617900  1
  O  O32  1  0.41861100  0.17513800  0.53222000  1
  O  O33  1  0.41861100  0.32486200  0.03222000  1
  O  O34  1  0.58138900  0.82486200  0.46778000  1
  O  O35  1  0.58138900  0.67513800  0.96778000  1
  O  O36  1  0.10775800  0.31141600  0.25644500  1
  O  O37  1  0.10775800  0.18858400  0.75644500  1
  O  O38  1  0.89224200  0.68858400  0.74355500  1
  O  O39  1  0.89224200  0.81141600  0.24355500  1
  O  O40  1  0.63820800  0.26420100  0.43594700  1
  O  O41  1  0.63820800  0.23579900  0.93594700  1
  O  O42  1  0.36179200  0.73579900  0.56405300  1
  O  O43  1  0.36179200  0.76420100  0.06405300  1
  O  O44  1  0.41868600  0.40808000  0.27291100  1
  O  O45  1  0.41868600  0.09192000  0.77291100  1
  O  O46  1  0.58131400  0.59192000  0.72708900  1
  O  O47  1  0.58131400  0.90808000  0.22708900  1
  O  O48  1  0.79877200  0.48501400  0.81043000  1
  O  O49  1  0.79877200  0.01498600  0.31043000  1
  O  O50  1  0.20122800  0.51498600  0.18957000  1
  O  O51  1  0.20122800  0.98501400  0.68957000  1
  O  O52  1  0.05888700  0.58687400  0.81846200  1
  O  O53  1  0.05888700  0.91312600  0.31846200  1
  O  O54  1  0.94111300  0.41312600  0.18153800  1
  O  O55  1  0.94111300  0.08687400  0.68153800  1
  O  O56  1  0.59241500  0.54847600  0.01117300  1
  O  O57  1  0.59241500  0.95152400  0.51117300  1
  O  O58  1  0.40758500  0.45152400  0.98882700  1
  O  O59  1  0.40758500  0.04847600  0.48882700  1
  O  O60  1  0.71112900  0.49751500  0.34102300  1
  O  O61  1  0.71112900  0.00248500  0.84102300  1
  O  O62  1  0.28887100  0.50248500  0.65897700  1
  O  O63  1  0.28887100  0.99751500  0.15897700  1
loop_
_geom_bond_atom_site_label_1
_geom_bond_atom_site_label_2
_geom_bond_distance
_geom_bond_site_symmetry_2
Na0 O16 2.395848 1_455
Na0 O29 2.395918 1_555
Na0 O28 2.418249 1_555
Na0 O40 2.433009 1_555
Na0 O36 2.453613 1_555
Na0 O32 2.496717 1_555
Na1 O17 2.395848 1_455
Na1 O28 2.395918 1_555
Na1 O29 2.418249 1_556
Na1 O41 2.433009 1_555
Na1 O37 2.453613 1_555
Na1 O33 2.496717 1_556
Na2 O18 2.395848 1_655
Na2 O31 2.395918 1_555
Na2 O30 2.418249 1_555
Na2 O42 2.433009 1_555
Na2 O38 2.453613 1_555
Na2 O34 2.496717 1_555
Na3 O19 2.395848 1_655
Na3 O30 2.395918 1_555
Na3 O31 2.418249 1_554
Na3 O43 2.433009 1_555
Na3 O39 2.453613 1_555
Na3 O35 2.496717 1_554
Na4 O40 2.390520 1_555
Na4 O36 2.409714 1_555
Na4 O33 2.430142 1_555
Na4 O44 2.437966 1_555
Na4 O1 2.439980 1_555
Na4 O21 2.604159 1_555
Na5 O41 2.390520 1_555
Na5 O37 2.409714 1_555
Na5 O32 2.430142 1_555
Na5 O45 2.437966 1_555
Na5 O0 2.439980 1_555
Na5 O20 2.604159 1_556
Na6 O42 2.390520 1_555
Na6 O38 2.409714 1_555
Na6 O35 2.430142 1_555
Na6 O46 2.437966 1_555
Na6 O3 2.439980 1_555
Na6 O23 2.604159 1_555
Na7 O43 2.390520 1_555
Na7 O39 2.409714 1_555
Na7 O34 2.430142 1_555
Na7 O47 2.437966 1_555
Na7 O2 2.439980 1_555
Na7 O22 2.604159 1_554
Na8 O52 2.381305 1_555
Na8 O58 2.411444 1_555
Na8 O50 2.421912 1_556
Na8 O56 2.444371 1_556
Na8 O62 2.466063 1_555
Na8 O48 2.478718 1_455
Na9 O53 2.381305 1_555
Na9 O59 2.411444 1_565
Na9 O51 2.421912 1_555
Na9 O57 2.444371 1_555
Na9 O63 2.466063 1_555
Na9 O49 2.478718 1_465
Na10 O54 2.381305 1_555
Na10 O56 2.411444 1_555
Na10 O48 2.421912 1_554
Na10 O58 2.444371 1_554
Na10 O60 2.466063 1_555
Na10 O50 2.478718 1_655
Na11 O55 2.381305 1_555
Na11 O57 2.411444 1_545
Na11 O49 2.421912 1_555
Na11 O59 2.444371 1_555
Na11 O61 2.466063 1_555
Na11 O51 2.478718 1_645
H0 O8 1.043506 1_555
H0 O20 1.545670 1_555
H1 O9 1.043506 1_555
H1 O21 1.545670 1_555
H2 O10 1.043506 1_555
H2 O22 1.545670 1_555
H3 O11 1.043506 1_555
H3 O23 1.545670 1_555
H4 O28 0.997352 1_555
H5 O29 0.997352 1_555
H6 O30 0.997352 1_555
H7 O31 0.997352 1_555
H8 O28 0.975434 1_555
H9 O29 0.975434 1_555
H10 O30 0.975434 1_555
H11 O31 0.975434 1_555
H12 O32 0.998852 1_555
H13 O33 0.998852 1_555
H14 O34 0.998852 1_555
H15 O35 0.998852 1_555
H16 O32 0.976726 1_555
H17 O33 0.976726 1_556
H18 O34 0.976726 1_555
H19 O35 0.976726 1_554
H20 O36 0.984293 1_555
H21 O37 0.984293 1_555
H22 O38 0.984293 1_555
H23 O39 0.984293 1_555
H24 O36 0.991562 1_555
H25 O37 0.991562 1_555
H26 O38 0.991562 1_555
H27 O39 0.991562 1_555
H28 O40 0.990669 1_555
H29 O41 0.990669 1_554
H30 O42 0.990669 1_555
H31 O43 0.990669 1_556
H32 O40 0.988865 1_555
H33 O41 0.988865 1_555
H34 O42 0.988865 1_555
H35 O43 0.988865 1_555
H36 O44 0.996334 1_555
H37 O45 0.996334 1_555
H38 O46 0.996334 1_555
H39 O47 0.996334 1_555
H40 O44 0.984710 1_555
H41 O45 0.984710 1_555
H42 O46 0.984710 1_555
H43 O47 0.984710 1_555
H44 O48 0.990551 1_555
H45 O49 0.990551 1_555
H46 O50 0.990551 1_555
H47 O51 0.990551 1_555
H48 O48 0.986282 1_555
H49 O49 0.986282 1_555
H50 O50 0.986282 1_555
H51 O51 0.986282 1_555
H52 O52 0.987164 1_555
H53 O53 0.987164 1_555
H54 O54 0.987164 1_555
H55 O55 0.987164 1_555
H56 O52 0.997678 1_555
H57 O53 0.997678 1_555
H58 O54 0.997678 1_555
H59 O55 0.997678 1_555
H60 O56 0.975946 1_555
H61 O57 0.975946 1_555
H62 O58 0.975946 1_555
H63 O59 0.975946 1_555
H64 O56 0.997466 1_556
H65 O57 0.997466 1_555
H66 O58 0.997466 1_554
H67 O59 0.997466 1_555
H68 O60 0.974797 1_555
H69 O61 0.974797 1_565
H70 O62 0.974797 1_555
H71 O63 0.974797 1_545
H72 O60 0.992666 1_555
H73 O61 0.992666 1_555
H74 O62 0.992666 1_555
H75 O63 0.992666 1_555
O0 P0 1.516428 1_556
O1 P1 1.516428 1_555
O2 P2 1.516428 1_554
O3 P3 1.516428 1_555
O4 P0 1.517995 1_555
O5 P1 1.517995 1_555
O6 P2 1.517995 1_555
O7 P3 1.517995 1_555
O8 P0 1.595257 1_455
O9 P1 1.595257 1_455
O10 P2 1.595257 1_655
O11 P3 1.595257 1_655
O12 P0 1.622562 1_555
O12 P4 1.664377 1_555
O13 P1 1.622562 1_555
O13 P5 1.664377 1_555
O14 P2 1.622562 1_555
O14 P6 1.664377 1_555
O15 P3 1.622562 1_555
O15 P7 1.664377 1_555
O16 P4 1.526028 1_555
O17 P5 1.526028 1_555
O18 P6 1.526028 1_555
O19 P7 1.526028 1_555
O20 P4 1.540355 1_555
O21 P5 1.540355 1_555
O22 P6 1.540355 1_555
O23 P7 1.540355 1_555
O24 P4 1.531267 1_555
O25 P5 1.531267 1_555
O26 P6 1.531267 1_555
O27 P7 1.531267 1_555
