# generated using pymatgen
data_Na2CoAuF6
_symmetry_space_group_name_H-M   'P 1'
_cell_length_a   5.95460900
_cell_length_b   5.95460868
_cell_length_c   5.95460918
_cell_angle_alpha   60.00000111
_cell_angle_beta   59.99999545
_cell_angle_gamma   59.99999264
_symmetry_Int_Tables_number   1
_chemical_formula_structural   Na2CoAuF6
_chemical_formula_sum   'Na2 Co1 Au1 F6'
_cell_volume   149.29480802
_cell_formula_units_Z   1
loop_
 _symmetry_equiv_pos_site_id
 _symmetry_equiv_pos_as_xyz
  1  'x, y, z'
loop_
 _atom_site_type_symbol
 _atom_site_label
 _atom_site_symmetry_multiplicity
 _atom_site_fract_x
 _atom_site_fract_y
 _atom_site_fract_z
 _atom_site_occupancy
  Na  Na0  1  0.25000000  0.25000000  0.25000000  1
  Na  Na1  1  0.75000000  0.75000000  0.75000000  1
  Co  Co0  1  0.00000000  0.00000000  0.00000000  1
  Au  Au0  1  0.50000000  0.50000000  0.50000000  1
  F  F0  1  0.22420300  0.77579700  0.22420300  1
  F  F1  1  0.77579700  0.77579700  0.22420300  1
  F  F2  1  0.77579700  0.22420300  0.77579700  1
  F  F3  1  0.77579700  0.22420300  0.22420300  1
  F  F4  1  0.22420300  0.77579700  0.77579700  1
  F  F5  1  0.22420300  0.22420300  0.77579700  1
loop_
_geom_bond_atom_site_label_1
_geom_bond_atom_site_label_2
_geom_bond_distance
_geom_bond_site_symmetry_2
Co0 F3 1.888033 1_455
Co0 F4 1.888033 1_544
Co0 F0 1.888033 1_545
Co0 F5 1.888033 1_554
Co0 F2 1.888033 1_454
Co0 F1 1.888033 1_445
Au0 F4 2.322511 1_555
Au0 F3 2.322511 1_555
Au0 F1 2.322511 1_555
Au0 F2 2.322511 1_555
Au0 F5 2.322511 1_555
Au0 F0 2.322511 1_555
F0 Na0 2.985219 1_555
F0 Na1 2.985219 1_554
F0 Na0 2.985219 1_565
F0 Na1 2.985219 1_455
F1 Na0 2.985219 1_565
F1 Na0 2.985219 1_655
F1 Na1 2.985219 1_554
F1 Na1 2.985219 1_555
F2 Na1 2.985219 1_555
F2 Na0 2.985219 1_556
F2 Na1 2.985219 1_545
F2 Na0 2.985219 1_655
F3 Na0 2.985219 1_555
F3 Na1 2.985219 1_554
F3 Na0 2.985219 1_655
F3 Na1 2.985219 1_545
F4 Na1 2.985219 1_555
F4 Na0 2.985219 1_556
F4 Na1 2.985219 1_455
F4 Na0 2.985219 1_565
F5 Na1 2.985219 1_545
F5 Na1 2.985219 1_455
F5 Na0 2.985219 1_556
F5 Na0 2.985219 1_555
