# generated using pymatgen
data_Ca3Ga2(SiO4)3
_symmetry_space_group_name_H-M   'P 1'
_cell_length_a   10.50072949
_cell_length_b   10.50072949
_cell_length_c   10.50072949
_cell_angle_alpha   109.47122063
_cell_angle_beta   109.47122063
_cell_angle_gamma   109.47122063
_symmetry_Int_Tables_number   1
_chemical_formula_structural   Ca3Ga2(SiO4)3
_chemical_formula_sum   'Ca12 Ga8 Si12 O48'
_cell_volume   891.32589092
_cell_formula_units_Z   4
loop_
 _symmetry_equiv_pos_site_id
 _symmetry_equiv_pos_as_xyz
  1  'x, y, z'
loop_
 _atom_site_type_symbol
 _atom_site_label
 _atom_site_symmetry_multiplicity
 _atom_site_fract_x
 _atom_site_fract_y
 _atom_site_fract_z
 _atom_site_occupancy
  Ca  Ca0  1  0.62500000  0.25000000  0.87500000  1
  Ca  Ca1  1  0.87500000  0.75000000  0.62500000  1
  Ca  Ca2  1  0.75000000  0.62500000  0.87500000  1
  Ca  Ca3  1  0.25000000  0.87500000  0.62500000  1
  Ca  Ca4  1  0.62500000  0.87500000  0.75000000  1
  Ca  Ca5  1  0.12500000  0.37500000  0.75000000  1
  Ca  Ca6  1  0.37500000  0.75000000  0.12500000  1
  Ca  Ca7  1  0.12500000  0.25000000  0.37500000  1
  Ca  Ca8  1  0.25000000  0.37500000  0.12500000  1
  Ca  Ca9  1  0.75000000  0.12500000  0.37500000  1
  Ca  Ca10  1  0.87500000  0.62500000  0.25000000  1
  Ca  Ca11  1  0.37500000  0.12500000  0.25000000  1
  Ga  Ga0  1  0.50000000  0.50000000  0.50000000  1
  Ga  Ga1  1  0.50000000  0.00000000  0.50000000  1
  Ga  Ga2  1  0.00000000  0.50000000  0.50000000  1
  Ga  Ga3  1  0.00000000  0.00000000  0.50000000  1
  Ga  Ga4  1  0.00000000  0.50000000  0.00000000  1
  Ga  Ga5  1  0.50000000  0.00000000  0.00000000  1
  Ga  Ga6  1  0.00000000  0.00000000  0.00000000  1
  Ga  Ga7  1  0.50000000  0.50000000  0.00000000  1
  Si  Si0  1  0.12500000  0.87500000  0.25000000  1
  Si  Si1  1  0.75000000  0.37500000  0.62500000  1
  Si  Si2  1  0.62500000  0.37500000  0.25000000  1
  Si  Si3  1  0.62500000  0.75000000  0.37500000  1
  Si  Si4  1  0.37500000  0.62500000  0.75000000  1
  Si  Si5  1  0.12500000  0.75000000  0.87500000  1
  Si  Si6  1  0.87500000  0.25000000  0.12500000  1
  Si  Si7  1  0.75000000  0.87500000  0.12500000  1
  Si  Si8  1  0.37500000  0.25000000  0.62500000  1
  Si  Si9  1  0.25000000  0.62500000  0.37500000  1
  Si  Si10  1  0.87500000  0.12500000  0.75000000  1
  Si  Si11  1  0.25000000  0.12500000  0.87500000  1
  O  O0  1  0.69318100  0.08621300  0.70229400  1
  O  O1  1  0.10696800  0.99088700  0.69318100  1
  O  O2  1  0.70229400  0.50911300  0.61608100  1
  O  O3  1  0.61608100  0.70229400  0.50911300  1
  O  O4  1  0.88391900  0.39303200  0.08621300  1
  O  O5  1  0.08621300  0.88391900  0.39303200  1
  O  O6  1  0.99088700  0.69318100  0.10696800  1
  O  O7  1  0.41378700  0.10696800  0.61608100  1
  O  O8  1  0.39303200  0.80681900  0.50911300  1
  O  O9  1  0.99088700  0.79770600  0.88391900  1
  O  O10  1  0.10696800  0.61608100  0.41378700  1
  O  O11  1  0.50911300  0.39303200  0.80681900  1
  O  O12  1  0.79770600  0.88391900  0.99088700  1
  O  O13  1  0.70229400  0.69318100  0.08621300  1
  O  O14  1  0.08621300  0.70229400  0.69318100  1
  O  O15  1  0.61608100  0.41378700  0.10696800  1
  O  O16  1  0.79770600  0.41378700  0.80681900  1
  O  O17  1  0.80681900  0.50911300  0.39303200  1
  O  O18  1  0.80681900  0.79770600  0.41378700  1
  O  O19  1  0.88391900  0.99088700  0.79770600  1
  O  O20  1  0.41378700  0.80681900  0.79770600  1
  O  O21  1  0.39303200  0.08621300  0.88391900  1
  O  O22  1  0.69318100  0.10696800  0.99088700  1
  O  O23  1  0.50911300  0.61608100  0.70229400  1
  O  O24  1  0.30681900  0.91378700  0.29770600  1
  O  O25  1  0.89303200  0.00911300  0.30681900  1
  O  O26  1  0.29770600  0.49088700  0.38391900  1
  O  O27  1  0.38391900  0.29770600  0.49088700  1
  O  O28  1  0.11608100  0.60696800  0.91378700  1
  O  O29  1  0.91378700  0.11608100  0.60696800  1
  O  O30  1  0.00911300  0.30681900  0.89303200  1
  O  O31  1  0.58621300  0.89303200  0.38391900  1
  O  O32  1  0.60696800  0.19318100  0.49088700  1
  O  O33  1  0.00911300  0.20229400  0.11608100  1
  O  O34  1  0.89303200  0.38391900  0.58621300  1
  O  O35  1  0.49088700  0.60696800  0.19318100  1
  O  O36  1  0.20229400  0.11608100  0.00911300  1
  O  O37  1  0.29770600  0.30681900  0.91378700  1
  O  O38  1  0.91378700  0.29770600  0.30681900  1
  O  O39  1  0.38391900  0.58621300  0.89303200  1
  O  O40  1  0.20229400  0.58621300  0.19318100  1
  O  O41  1  0.19318100  0.49088700  0.60696800  1
  O  O42  1  0.19318100  0.20229400  0.58621300  1
  O  O43  1  0.11608100  0.00911300  0.20229400  1
  O  O44  1  0.58621300  0.19318100  0.20229400  1
  O  O45  1  0.60696800  0.91378700  0.11608100  1
  O  O46  1  0.30681900  0.89303200  0.00911300  1
  O  O47  1  0.49088700  0.38391900  0.29770600  1
loop_
_geom_bond_atom_site_label_1
_geom_bond_atom_site_label_2
_geom_bond_distance
_geom_bond_site_symmetry_2
Ca0 O22 2.367229 1_555
Ca0 O11 2.367229 1_555
Ca0 O7 2.367229 1_555
Ca0 O4 2.367229 1_556
Ca0 O15 2.523217 1_556
Ca0 O21 2.523217 1_555
Ca0 O16 2.523217 1_555
Ca0 O0 2.523217 1_555
Ca1 O9 2.367229 1_555
Ca1 O18 2.367229 1_555
Ca1 O3 2.367229 1_555
Ca1 O14 2.367229 1_655
Ca1 O19 2.523217 1_555
Ca1 O17 2.523217 1_555
Ca1 O2 2.523217 1_555
Ca1 O1 2.523217 1_655
Ca2 O2 2.367229 1_555
Ca2 O16 2.367229 1_555
Ca2 O12 2.367229 1_555
Ca2 O13 2.367229 1_556
Ca2 O23 2.523217 1_555
Ca2 O6 2.523217 1_556
Ca2 O11 2.523217 1_555
Ca2 O9 2.523217 1_555
Ca3 O8 2.367229 1_555
Ca3 O10 2.367229 1_555
Ca3 O1 2.367229 1_555
Ca3 O21 2.367229 1_565
Ca3 O7 2.523217 1_565
Ca3 O5 2.523217 1_555
Ca3 O14 2.523217 1_555
Ca3 O20 2.523217 1_555
Ca4 O20 2.367229 1_555
Ca4 O19 2.367229 1_555
Ca4 O23 2.367229 1_555
Ca4 O0 2.367229 1_565
Ca4 O22 2.523217 1_565
Ca4 O12 2.523217 1_555
Ca4 O8 2.523217 1_555
Ca4 O3 2.523217 1_555
Ca5 O29 2.367229 1_455
Ca5 O39 2.367229 1_555
Ca5 O41 2.367229 1_555
Ca5 O30 2.367229 1_555
Ca5 O42 2.523217 1_555
Ca5 O34 2.523217 1_455
Ca5 O28 2.523217 1_555
Ca5 O37 2.523217 1_555
Ca6 O31 2.367229 1_555
Ca6 O28 2.367229 1_554
Ca6 O35 2.367229 1_555
Ca6 O46 2.367229 1_555
Ca6 O39 2.523217 1_554
Ca6 O40 2.523217 1_555
Ca6 O45 2.523217 1_555
Ca6 O24 2.523217 1_555
Ca7 O38 2.367229 1_455
Ca7 O33 2.367229 1_555
Ca7 O27 2.367229 1_555
Ca7 O42 2.367229 1_555
Ca7 O43 2.523217 1_555
Ca7 O25 2.523217 1_455
Ca7 O41 2.523217 1_555
Ca7 O26 2.523217 1_555
Ca8 O36 2.367229 1_555
Ca8 O37 2.367229 1_554
Ca8 O40 2.367229 1_555
Ca8 O26 2.367229 1_555
Ca8 O35 2.523217 1_555
Ca8 O33 2.523217 1_555
Ca8 O30 2.523217 1_554
Ca8 O47 2.523217 1_555
Ca9 O45 2.367229 1_545
Ca9 O34 2.367229 1_555
Ca9 O32 2.367229 1_555
Ca9 O25 2.367229 1_555
Ca9 O44 2.523217 1_555
Ca9 O29 2.523217 1_555
Ca9 O31 2.523217 1_545
Ca9 O38 2.523217 1_555
Ca10 O17 2.367229 1_555
Ca10 O15 2.367229 1_555
Ca10 O6 2.367229 1_555
Ca10 O5 2.367229 1_655
Ca10 O10 2.523217 1_655
Ca10 O4 2.523217 1_555
Ca10 O13 2.523217 1_555
Ca10 O18 2.523217 1_555
Ca11 O24 2.367229 1_545
Ca11 O43 2.367229 1_555
Ca11 O47 2.367229 1_555
Ca11 O44 2.367229 1_555
Ca11 O32 2.523217 1_555
Ca11 O36 2.523217 1_555
Ca11 O46 2.523217 1_545
Ca11 O27 2.523217 1_555
Ga0 O2 2.016891 1_555
Ga0 O3 2.016891 1_555
Ga0 O23 2.016891 1_555
Ga0 O26 2.016891 1_555
Ga0 O27 2.016891 1_555
Ga0 O47 2.016891 1_555
Ga1 O31 2.016891 1_545
Ga1 O0 2.016891 1_555
Ga1 O32 2.016891 1_555
Ga1 O7 2.016891 1_555
Ga1 O24 2.016891 1_545
Ga1 O8 2.016891 1_545
Ga2 O10 2.016891 1_555
Ga2 O34 2.016891 1_455
Ga2 O41 2.016891 1_555
Ga2 O38 2.016891 1_455
Ga2 O14 2.016891 1_555
Ga2 O17 2.016891 1_455
Ga3 O29 2.016891 1_455
Ga3 O25 2.016891 1_455
Ga3 O5 2.016891 1_545
Ga3 O42 2.016891 1_555
Ga3 O1 2.016891 1_545
Ga3 O18 2.016891 1_445
Ga4 O28 2.016891 1_554
Ga4 O30 2.016891 1_554
Ga4 O4 2.016891 1_455
Ga4 O16 2.016891 1_454
Ga4 O40 2.016891 1_555
Ga4 O6 2.016891 1_455
Ga5 O45 2.016891 1_545
Ga5 O46 2.016891 1_545
Ga5 O44 2.016891 1_555
Ga5 O21 2.016891 1_554
Ga5 O20 2.016891 1_544
Ga5 O22 2.016891 1_554
Ga6 O12 2.016891 1_444
Ga6 O9 2.016891 1_444
Ga6 O19 2.016891 1_444
Ga6 O36 2.016891 1_555
Ga6 O43 2.016891 1_555
Ga6 O33 2.016891 1_555
Ga7 O39 2.016891 1_554
Ga7 O35 2.016891 1_555
Ga7 O13 2.016891 1_555
Ga7 O37 2.016891 1_554
Ga7 O15 2.016891 1_555
Ga7 O11 2.016891 1_554
O0 Si10 1.664318 1_555
O1 Si11 1.664318 1_565
O2 Si1 1.664318 1_555
O3 Si3 1.664318 1_555
O4 Si6 1.664318 1_555
O5 Si0 1.664318 1_555
O6 Si0 1.664318 1_655
O7 Si8 1.664318 1_555
O8 Si9 1.664318 1_555
O9 Si5 1.664318 1_655
O10 Si9 1.664318 1_555
O11 Si8 1.664318 1_555
O12 Si7 1.664318 1_556
O13 Si7 1.664318 1_555
O14 Si5 1.664318 1_555
O15 Si2 1.664318 1_555
O16 Si1 1.664318 1_555
O17 Si2 1.664318 1_555
O18 Si3 1.664318 1_555
O19 Si10 1.664318 1_565
O20 Si4 1.664318 1_555
O21 Si11 1.664318 1_555
O22 Si6 1.664318 1_556
O23 Si4 1.664318 1_555
O24 Si0 1.664318 1_555
O25 Si7 1.664318 1_545
O26 Si9 1.664318 1_555
O27 Si8 1.664318 1_555
O28 Si5 1.664318 1_555
O29 Si10 1.664318 1_555
O30 Si10 1.664318 1_455
O31 Si3 1.664318 1_555
O32 Si1 1.664318 1_555
O33 Si6 1.664318 1_455
O34 Si1 1.664318 1_555
O35 Si3 1.664318 1_555
O36 Si11 1.664318 1_554
O37 Si11 1.664318 1_555
O38 Si6 1.664318 1_555
O39 Si4 1.664318 1_555
O40 Si9 1.664318 1_555
O41 Si4 1.664318 1_555
O42 Si8 1.664318 1_555
O43 Si0 1.664318 1_545
O44 Si2 1.664318 1_555
O45 Si7 1.664318 1_555
O46 Si5 1.664318 1_554
O47 Si2 1.664318 1_555
