# generated using pymatgen
data_CeH(SeO3)2
_symmetry_space_group_name_H-M   'P 1'
_cell_length_a   7.15360200
_cell_length_b   8.48306518
_cell_length_c   19.60025354
_cell_angle_alpha   90.00000000
_cell_angle_beta   90.00000000
_cell_angle_gamma   90.00000000
_symmetry_Int_Tables_number   1
_chemical_formula_structural   CeH(SeO3)2
_chemical_formula_sum   'Ce8 H8 Se16 O48'
_cell_volume   1189.43103788
_cell_formula_units_Z   8
loop_
 _symmetry_equiv_pos_site_id
 _symmetry_equiv_pos_as_xyz
  1  'x, y, z'
loop_
 _atom_site_type_symbol
 _atom_site_label
 _atom_site_symmetry_multiplicity
 _atom_site_fract_x
 _atom_site_fract_y
 _atom_site_fract_z
 _atom_site_occupancy
  Ce  Ce0  1  0.41445840  0.84590810  0.06470228  1
  Ce  Ce1  1  0.58554160  0.15409190  0.56470228  1
  Ce  Ce2  1  0.41445840  0.65409190  0.56470228  1
  Ce  Ce3  1  0.58554160  0.34590810  0.06470228  1
  Ce  Ce4  1  0.91237805  0.94525792  0.15241171  1
  Ce  Ce5  1  0.08762195  0.05474208  0.65241171  1
  Ce  Ce6  1  0.91237805  0.55474208  0.65241171  1
  Ce  Ce7  1  0.08762195  0.44525792  0.15241171  1
  H  H0  1  0.71947090  0.58005100  0.85542959  1
  H  H1  1  0.28052910  0.41994900  0.35542959  1
  H  H2  1  0.71947090  0.91994900  0.35542959  1
  H  H3  1  0.28052910  0.08005100  0.85542959  1
  H  H4  1  0.21353190  0.17971728  0.35779466  1
  H  H5  1  0.78646810  0.82028272  0.85779466  1
  H  H6  1  0.21353190  0.32028272  0.85779466  1
  H  H7  1  0.78646810  0.67971728  0.35779466  1
  Se  Se0  1  0.42854771  0.09383688  0.20334704  1
  Se  Se1  1  0.57145229  0.90616312  0.70334704  1
  Se  Se2  1  0.42854771  0.40616312  0.70334704  1
  Se  Se3  1  0.57145229  0.59383688  0.20334704  1
  Se  Se4  1  0.43755349  0.62500267  0.91776463  1
  Se  Se5  1  0.56244651  0.37499733  0.41776463  1
  Se  Se6  1  0.43755349  0.87499733  0.41776463  1
  Se  Se7  1  0.56244651  0.12500267  0.91776463  1
  Se  Se8  1  0.93206980  0.69335073  0.01455533  1
  Se  Se9  1  0.06793020  0.30664927  0.51455533  1
  Se  Se10  1  0.93206980  0.80664927  0.51455533  1
  Se  Se11  1  0.06793020  0.19335073  0.01455533  1
  Se  Se12  1  0.92428728  0.17283562  0.30211261  1
  Se  Se13  1  0.07571272  0.82716438  0.80211261  1
  Se  Se14  1  0.92428728  0.32716438  0.80211261  1
  Se  Se15  1  0.07571272  0.67283562  0.30211261  1
  O  O0  1  0.63630405  0.78222788  0.18373273  1
  O  O1  1  0.36369595  0.21777212  0.68373273  1
  O  O2  1  0.63630405  0.71777212  0.68373273  1
  O  O3  1  0.36369595  0.28222788  0.18373273  1
  O  O4  1  0.40508280  0.57637836  0.13772501  1
  O  O5  1  0.59491720  0.42362164  0.63772501  1
  O  O6  1  0.40508280  0.92362164  0.63772501  1
  O  O7  1  0.59491720  0.07637836  0.13772501  1
  O  O8  1  0.26182000  0.96969515  0.16840431  1
  O  O9  1  0.73818000  0.03030485  0.66840431  1
  O  O10  1  0.26182000  0.53030485  0.66840431  1
  O  O11  1  0.73818000  0.46969515  0.16840431  1
  O  O12  1  0.36485929  0.81242718  0.92776420  1
  O  O13  1  0.63514071  0.18757282  0.42776420  1
  O  O14  1  0.36485929  0.68757282  0.42776420  1
  O  O15  1  0.63514071  0.31242718  0.92776420  1
  O  O16  1  0.47085864  0.58229916  0.00209034  1
  O  O17  1  0.52914136  0.41770084  0.50209034  1
  O  O18  1  0.47085864  0.91770084  0.50209034  1
  O  O19  1  0.52914136  0.08229916  0.00209034  1
  O  O20  1  0.67752425  0.66331731  0.88974768  1
  O  O21  1  0.32247575  0.33668269  0.38974768  1
  O  O22  1  0.67752425  0.83668269  0.38974768  1
  O  O23  1  0.32247575  0.16331731  0.88974768  1
  O  O24  1  0.76401475  0.81746685  0.04853421  1
  O  O25  1  0.23598525  0.18253315  0.54853421  1
  O  O26  1  0.76401475  0.68253315  0.54853421  1
  O  O27  1  0.23598525  0.31746685  0.04853421  1
  O  O28  1  0.09553917  0.71133341  0.08146720  1
  O  O29  1  0.90446083  0.28866659  0.58146720  1
  O  O30  1  0.09553917  0.78866659  0.58146720  1
  O  O31  1  0.90446083  0.21133341  0.08146720  1
  O  O32  1  0.86435885  0.50557270  0.03391797  1
  O  O33  1  0.13564115  0.49442730  0.53391797  1
  O  O34  1  0.86435885  0.99442730  0.53391797  1
  O  O35  1  0.13564115  0.00557270  0.03391797  1
  O  O36  1  0.81718382  0.99732560  0.28899167  1
  O  O37  1  0.18281618  0.00267440  0.78899167  1
  O  O38  1  0.81718382  0.50267440  0.78899167  1
  O  O39  1  0.18281618  0.49732560  0.28899167  1
  O  O40  1  0.98301825  0.20861236  0.21913831  1
  O  O41  1  0.01698175  0.79138764  0.71913831  1
  O  O42  1  0.98301825  0.29138764  0.71913831  1
  O  O43  1  0.01698175  0.70861236  0.21913831  1
  O  O44  1  0.13763454  0.09115097  0.33720654  1
  O  O45  1  0.86236546  0.90884903  0.83720654  1
  O  O46  1  0.13763454  0.40884903  0.83720654  1
  O  O47  1  0.86236546  0.59115097  0.33720654  1
loop_
_geom_bond_atom_site_label_1
_geom_bond_atom_site_label_2
_geom_bond_distance
_geom_bond_site_symmetry_2
Ce0 O35 2.485319 1_565
Ce0 O19 2.490061 1_565
Ce0 O24 2.532108 1_555
Ce0 O8 2.535031 1_555
Ce0 O28 2.572182 1_555
Ce0 O16 2.582532 1_555
Ce0 O4 2.698299 1_555
Ce0 O12 2.722229 1_554
Ce0 O7 2.745435 1_565
Ce0 O0 2.872871 1_555
Ce1 O34 2.485319 1_545
Ce1 O18 2.490061 1_545
Ce1 O25 2.532108 1_555
Ce1 O9 2.535031 1_555
Ce1 O29 2.572182 1_555
Ce1 O17 2.582532 1_555
Ce1 O5 2.698299 1_555
Ce1 O13 2.722229 1_555
Ce1 O6 2.745435 1_545
Ce1 O1 2.872871 1_555
Ce2 O33 2.485319 1_555
Ce2 O17 2.490061 1_555
Ce2 O26 2.532108 1_555
Ce2 O10 2.535031 1_555
Ce2 O30 2.572182 1_555
Ce2 O18 2.582532 1_555
Ce2 O6 2.698299 1_555
Ce2 O14 2.722229 1_555
Ce2 O5 2.745435 1_555
Ce2 O2 2.872871 1_555
Ce3 O32 2.485319 1_555
Ce3 O16 2.490061 1_555
Ce3 O27 2.532108 1_555
Ce3 O11 2.535031 1_555
Ce3 O31 2.572182 1_555
Ce3 O19 2.582532 1_555
Ce3 O7 2.698299 1_555
Ce3 O15 2.722229 1_554
Ce3 O4 2.745435 1_555
Ce3 O3 2.872871 1_555
Ce4 O0 2.487945 1_555
Ce4 O43 2.510062 1_655
Ce4 O8 2.527860 1_655
Ce4 O24 2.539096 1_555
Ce4 O7 2.545088 1_565
Ce4 O40 2.637583 1_565
Ce4 O31 2.651687 1_565
Ce4 O28 2.754667 1_655
Ce4 O36 2.797350 1_555
Ce4 O35 2.864729 1_665
Ce5 O1 2.487945 1_555
Ce5 O42 2.510062 1_455
Ce5 O9 2.527860 1_455
Ce5 O25 2.539096 1_555
Ce5 O6 2.545088 1_545
Ce5 O41 2.637583 1_545
Ce5 O30 2.651687 1_545
Ce5 O29 2.754667 1_455
Ce5 O37 2.797350 1_555
Ce5 O34 2.864729 1_445
Ce6 O2 2.487945 1_555
Ce6 O41 2.510062 1_655
Ce6 O10 2.527860 1_655
Ce6 O26 2.539096 1_555
Ce6 O5 2.545088 1_555
Ce6 O42 2.637583 1_555
Ce6 O29 2.651687 1_555
Ce6 O30 2.754667 1_655
Ce6 O38 2.797350 1_555
Ce6 O33 2.864729 1_655
Ce7 O3 2.487945 1_555
Ce7 O40 2.510062 1_455
Ce7 O11 2.527860 1_455
Ce7 O27 2.539096 1_555
Ce7 O4 2.545088 1_555
Ce7 O43 2.637583 1_555
Ce7 O28 2.651687 1_555
Ce7 O31 2.754667 1_455
Ce7 O39 2.797350 1_555
Ce7 O32 2.864729 1_455
H0 O20 1.020503 1_555
H0 O38 1.617150 1_555
H1 O21 1.020503 1_555
H1 O39 1.617150 1_555
H2 O22 1.020503 1_555
H2 O36 1.617150 1_555
H3 O23 1.020503 1_555
H3 O37 1.617150 1_555
H4 O44 1.010987 1_555
H4 O21 1.665121 1_555
H5 O45 1.010987 1_555
H5 O20 1.665121 1_555
H6 O46 1.010987 1_555
H6 O23 1.665121 1_555
H7 O47 1.010987 1_555
H7 O22 1.665121 1_555
O0 Se3 1.707938 1_555
O1 Se2 1.707938 1_555
O2 Se1 1.707938 1_555
O3 Se0 1.707938 1_555
O4 Se3 1.758608 1_555
O5 Se2 1.758608 1_555
O6 Se1 1.758608 1_555
O7 Se0 1.758608 1_555
O8 Se0 1.732234 1_565
O9 Se1 1.732234 1_545
O10 Se2 1.732234 1_555
O11 Se3 1.732234 1_555
O12 Se4 1.684260 1_555
O13 Se5 1.684260 1_555
O14 Se6 1.684260 1_555
O15 Se7 1.684260 1_555
O16 Se4 1.708730 1_554
O17 Se5 1.708730 1_555
O18 Se6 1.708730 1_555
O19 Se7 1.708730 1_554
O20 Se4 1.831421 1_555
O21 Se5 1.831421 1_555
O22 Se6 1.831421 1_555
O23 Se7 1.831421 1_555
O24 Se8 1.731300 1_555
O25 Se9 1.731300 1_555
O26 Se10 1.731300 1_555
O27 Se11 1.731300 1_555
O28 Se8 1.763735 1_455
O29 Se9 1.763735 1_655
O30 Se10 1.763735 1_455
O31 Se11 1.763735 1_655
O32 Se8 1.707656 1_555
O33 Se9 1.707656 1_555
O34 Se10 1.707656 1_555
O35 Se11 1.707656 1_555
O36 Se12 1.694071 1_565
O37 Se13 1.694071 1_545
O38 Se14 1.694071 1_555
O39 Se15 1.694071 1_555
O40 Se12 1.706908 1_555
O41 Se13 1.706908 1_555
O42 Se14 1.706908 1_555
O43 Se15 1.706908 1_555
O44 Se12 1.811792 1_455
O45 Se13 1.811792 1_655
O46 Se14 1.811792 1_455
O47 Se15 1.811792 1_655
