# generated using pymatgen
data_U3Al3NiRu2
_symmetry_space_group_name_H-M   'P 1'
_cell_length_a   6.89975962
_cell_length_b   6.89975962
_cell_length_c   3.94527700
_cell_angle_alpha   90.00000000
_cell_angle_beta   90.00000000
_cell_angle_gamma   119.99999635
_symmetry_Int_Tables_number   1
_chemical_formula_structural   U3Al3NiRu2
_chemical_formula_sum   'U3 Al3 Ni1 Ru2'
_cell_volume   162.65824027
_cell_formula_units_Z   1
loop_
 _symmetry_equiv_pos_site_id
 _symmetry_equiv_pos_as_xyz
  1  'x, y, z'
loop_
 _atom_site_type_symbol
 _atom_site_label
 _atom_site_symmetry_multiplicity
 _atom_site_fract_x
 _atom_site_fract_y
 _atom_site_fract_z
 _atom_site_occupancy
  U  U0  1  0.00000000  0.41819600  0.50000000  1
  U  U1  1  0.58180400  0.58180400  0.50000000  1
  U  U2  1  0.41819600  0.00000000  0.50000000  1
  Al  Al0  1  0.00000000  0.76591500  0.00000000  1
  Al  Al1  1  0.23408500  0.23408500  0.00000000  1
  Al  Al2  1  0.76591500  0.00000000  0.00000000  1
  Ni  Ni0  1  0.00000000  0.00000000  0.50000000  1
  Ru  Ru0  1  0.33333300  0.66666700  0.00000000  1
  Ru  Ru1  1  0.66666700  0.33333300  0.00000000  1
loop_
_geom_bond_atom_site_label_1
_geom_bond_atom_site_label_2
_geom_bond_distance
_geom_bond_site_symmetry_2
Al0 Ni0 2.549500 1_565
Al0 Ni0 2.549500 1_564
Al0 Ru0 2.708045 1_555
Al0 Ru1 2.708050 1_455
Al0 Al2 2.797488 1_465
Al0 Al1 2.797488 1_565
Al0 U0 3.106019 1_554
Al0 U0 3.106019 1_555
Al0 U1 3.188323 1_454
Al0 U1 3.188323 1_455
Al0 U2 3.188323 1_564
Al0 U2 3.188323 1_565
Al1 Ni0 2.549500 1_554
Al1 Ni0 2.549500 1_555
Al1 Ru0 2.708052 1_555
Al1 Ru1 2.708052 1_555
Al1 Al2 2.797488 1_455
Al1 U1 3.106019 1_555
Al1 U1 3.106019 1_554
Al1 U0 3.188322 1_554
Al1 U2 3.188322 1_554
Al1 U2 3.188322 1_555
Al1 U0 3.188322 1_555
Al2 Ni0 2.549500 1_655
Al2 Ni0 2.549500 1_654
Al2 Ru1 2.708045 1_555
Al2 Ru0 2.708050 1_545
Al2 U2 3.106019 1_555
Al2 U2 3.106019 1_554
Al2 U1 3.188323 1_544
Al2 U1 3.188323 1_545
Al2 U0 3.188323 1_655
Al2 U0 3.188323 1_654
Ni0 U0 2.885452 1_555
Ni0 U2 2.885452 1_555
Ni0 U1 2.885452 1_445
Ru0 U2 2.859562 1_564
Ru0 U2 2.859562 1_565
Ru0 U0 2.859563 1_555
Ru0 U0 2.859563 1_554
Ru0 U1 2.859567 1_555
Ru0 U1 2.859567 1_554
Ru1 U0 2.859562 1_655
Ru1 U0 2.859562 1_654
Ru1 U2 2.859563 1_555
Ru1 U2 2.859563 1_554
Ru1 U1 2.859567 1_555
Ru1 U1 2.859567 1_554
