# generated using pymatgen
data_Mn4Nb2Si5
_symmetry_space_group_name_H-M   'P 1'
_cell_length_a   9.44466272
_cell_length_b   9.44466272
_cell_length_c   9.44466272
_cell_angle_alpha   148.47056962
_cell_angle_beta   134.57989571
_cell_angle_gamma   56.33921816
_symmetry_Int_Tables_number   1
_chemical_formula_structural   Mn4Nb2Si5
_chemical_formula_sum   'Mn8 Nb4 Si10'
_cell_volume   311.60312368
_cell_formula_units_Z   2
loop_
 _symmetry_equiv_pos_site_id
 _symmetry_equiv_pos_as_xyz
  1  'x, y, z'
loop_
 _atom_site_type_symbol
 _atom_site_label
 _atom_site_symmetry_multiplicity
 _atom_site_fract_x
 _atom_site_fract_y
 _atom_site_fract_z
 _atom_site_occupancy
  Mn  Mn0  1  0.02584700  0.64720400  0.37864300  1
  Mn  Mn1  1  0.68561600  0.43593200  0.24968400  1
  Mn  Mn2  1  0.73144000  0.85279600  0.87864300  1
  Mn  Mn3  1  0.26856000  0.14720400  0.12135700  1
  Mn  Mn4  1  0.18624800  0.93593200  0.25031600  1
  Mn  Mn5  1  0.81375200  0.06406800  0.74968400  1
  Mn  Mn6  1  0.31438400  0.56406800  0.75031600  1
  Mn  Mn7  1  0.97415300  0.35279600  0.62135700  1
  Nb  Nb0  1  0.68672400  0.93672400  0.25000000  1
  Nb  Nb1  1  0.68672400  0.43672400  0.75000000  1
  Nb  Nb2  1  0.31327600  0.06327600  0.75000000  1
  Nb  Nb3  1  0.31327600  0.56327600  0.25000000  1
  Si  Si0  1  0.65766700  0.55814700  0.09952000  1
  Si  Si1  1  0.01505200  0.20456900  0.81048300  1
  Si  Si2  1  0.39408500  0.70456900  0.68951700  1
  Si  Si3  1  0.60591500  0.29543100  0.31048300  1
  Si  Si4  1  0.00000000  0.25000000  0.25000000  1
  Si  Si5  1  0.00000000  0.75000000  0.75000000  1
  Si  Si6  1  0.98494800  0.79543100  0.18951700  1
  Si  Si7  1  0.45862700  0.05814700  0.40048000  1
  Si  Si8  1  0.34233300  0.44185300  0.90048000  1
  Si  Si9  1  0.54137300  0.94185300  0.59952000  1
loop_
_geom_bond_atom_site_label_1
_geom_bond_atom_site_label_2
_geom_bond_distance
_geom_bond_site_symmetry_2
Mn0 Si2 2.460091 1_555
Mn0 Si0 2.518444 1_455
Mn0 Si1 2.782786 1_554
Mn0 Si1 2.782786 1_565
Mn0 Si6 2.827470 1_455
Mn0 Si4 2.904801 1_555
Mn0 Si5 2.904801 1_555
Mn1 Si0 2.311041 1_555
Mn1 Si3 2.381251 1_555
Mn1 Si5 2.473160 1_655
Mn1 Si4 2.473160 1_655
Mn1 Si8 2.548500 1_554
Mn1 Si9 2.791642 1_544
Mn1 Si9 2.791642 1_555
Mn2 Si6 2.460097 1_556
Mn2 Si9 2.518442 1_555
Mn2 Si3 2.782786 1_555
Mn2 Si3 2.782786 1_566
Mn2 Si2 2.827488 1_555
Mn2 Si5 2.904792 1_655
Mn2 Si4 2.904794 1_666
Mn3 Si1 2.460097 1_554
Mn3 Si7 2.518442 1_555
Mn3 Si2 2.782786 1_544
Mn3 Si2 2.782786 1_555
Mn3 Si3 2.827488 1_555
Mn3 Si4 2.904792 1_555
Mn3 Si5 2.904794 1_544
Mn4 Si7 2.311041 1_565
Mn4 Si6 2.381259 1_455
Mn4 Si5 2.473160 1_554
Mn4 Si4 2.473160 1_565
Mn4 Si9 2.548500 1_555
Mn4 Si8 2.791642 1_565
Mn4 Si8 2.791642 1_554
Mn5 Si9 2.311041 1_545
Mn5 Si1 2.381259 1_655
Mn5 Si5 2.473160 1_645
Mn5 Si4 2.473160 1_656
Mn5 Si7 2.548500 1_555
Mn5 Si0 2.791642 1_545
Mn5 Si0 2.791642 1_556
Mn6 Si8 2.311041 1_555
Mn6 Si2 2.381251 1_555
Mn6 Si4 2.473160 1_555
Mn6 Si5 2.473160 1_555
Mn6 Si0 2.548500 1_556
Mn6 Si7 2.791642 1_566
Mn6 Si7 2.791642 1_555
Mn7 Si3 2.460091 1_555
Mn7 Si8 2.518444 1_655
Mn7 Si6 2.782786 1_556
Mn7 Si6 2.782786 1_545
Mn7 Si1 2.827470 1_655
Mn7 Si4 2.904801 1_655
Mn7 Si5 2.904801 1_655
Nb0 Si7 2.599412 1_565
Nb0 Si0 2.599412 1_555
Nb0 Si6 2.613993 1_555
Nb0 Si3 2.613995 1_565
Nb0 Si1 2.619363 1_665
Nb0 Si2 2.619364 1_554
Nb1 Si7 2.599412 1_555
Nb1 Si0 2.599412 1_556
Nb1 Si6 2.613993 1_556
Nb1 Si3 2.613998 1_555
Nb1 Si1 2.619363 1_655
Nb1 Si2 2.619367 1_555
Nb2 Si9 2.599412 1_545
Nb2 Si8 2.599412 1_555
Nb2 Si1 2.613993 1_555
Nb2 Si2 2.613995 1_545
Nb2 Si6 2.619363 1_445
Nb2 Si3 2.619364 1_556
Nb3 Si9 2.599412 1_555
Nb3 Si8 2.599412 1_554
Nb3 Si1 2.613993 1_554
Nb3 Si2 2.613998 1_555
Nb3 Si6 2.619363 1_455
Nb3 Si3 2.619367 1_555
Si0 Si8 2.420125 1_554
Si4 Si5 2.565998 1_544
Si4 Si5 2.565998 1_555
Si7 Si9 2.420125 1_545
