# generated using pymatgen
data_LiTmF2
_symmetry_space_group_name_H-M   'P 1'
_cell_length_a   7.79043216
_cell_length_b   7.79043216
_cell_length_c   7.79043216
_cell_angle_alpha   132.05842860
_cell_angle_beta   132.05842860
_cell_angle_gamma   70.13676092
_symmetry_Int_Tables_number   1
_chemical_formula_structural   LiTmF2
_chemical_formula_sum   'Li4 Tm4 F8'
_cell_volume   255.49179710
_cell_formula_units_Z   4
loop_
 _symmetry_equiv_pos_site_id
 _symmetry_equiv_pos_as_xyz
  1  'x, y, z'
loop_
 _atom_site_type_symbol
 _atom_site_label
 _atom_site_symmetry_multiplicity
 _atom_site_fract_x
 _atom_site_fract_y
 _atom_site_fract_z
 _atom_site_occupancy
  Li  Li0  1  0.37500000  0.12500000  0.25000000  1
  Li  Li1  1  0.87500000  0.12500000  0.75000000  1
  Li  Li2  1  0.87500000  0.12500000  0.25000000  1
  Li  Li3  1  0.87500000  0.62500000  0.75000000  1
  Tm  Tm0  1  0.87500000  0.62500000  0.25000000  1
  Tm  Tm1  1  0.37500000  0.62500000  0.75000000  1
  Tm  Tm2  1  0.37500000  0.62500000  0.25000000  1
  Tm  Tm3  1  0.37500000  0.12500000  0.75000000  1
  F  F0  1  0.19294900  0.45390400  0.26095500  1
  F  F1  1  0.19294900  0.93199400  0.73904500  1
  F  F2  1  0.20390400  0.44294900  0.76095500  1
  F  F3  1  0.55705100  0.79609600  0.23904500  1
  F  F4  1  0.68199400  0.44294900  0.23904500  1
  F  F5  1  0.55705100  0.31800600  0.76095500  1
  F  F6  1  0.54609600  0.80705100  0.73904500  1
  F  F7  1  0.06800600  0.80705100  0.26095500  1
loop_
_geom_bond_atom_site_label_1
_geom_bond_atom_site_label_2
_geom_bond_distance
_geom_bond_site_symmetry_2
F0 Tm2 2.322627 1_555
F0 Tm0 2.354754 1_455
F0 Tm1 2.354754 1_555
F0 Li1 2.446186 1_454
F0 Li0 2.446186 1_555
F1 Tm3 2.322627 1_565
F1 Tm0 2.354754 1_455
F1 Tm1 2.354754 1_555
F1 Li1 2.446186 1_465
F1 Li0 2.446186 1_566
F2 Tm1 2.322627 1_555
F2 Tm3 2.354754 1_555
F2 Tm2 2.354754 1_556
F2 Li2 2.446186 1_455
F2 Li3 2.446186 1_455
F3 Tm2 2.322627 1_555
F3 Tm1 2.354754 1_554
F3 Tm0 2.354754 1_555
F3 Li1 2.446186 1_565
F3 Li0 2.446186 1_565
F4 Tm0 2.322627 1_555
F4 Tm3 2.354754 1_554
F4 Tm2 2.354754 1_555
F4 Li2 2.446186 1_555
F4 Li3 2.446186 1_555
F5 Tm3 2.322627 1_555
F5 Tm1 2.354754 1_555
F5 Tm0 2.354754 1_556
F5 Li0 2.446186 1_555
F5 Li1 2.446186 1_555
F6 Tm1 2.322627 1_555
F6 Tm3 2.354754 1_565
F6 Tm2 2.354754 1_555
F6 Li3 2.446186 1_555
F6 Li2 2.446186 1_566
F7 Tm0 2.322627 1_455
F7 Tm3 2.354754 1_565
F7 Tm2 2.354754 1_555
F7 Li3 2.446186 1_454
F7 Li2 2.446186 1_465
