# generated using pymatgen
data_P3Pd7
_symmetry_space_group_name_H-M   'P 1'
_cell_length_a   7.32295482
_cell_length_b   7.32295511
_cell_length_c   7.32295341
_cell_angle_alpha   110.00069469
_cell_angle_beta   110.00071223
_cell_angle_gamma   110.00070272
_symmetry_Int_Tables_number   1
_chemical_formula_structural   P3Pd7
_chemical_formula_sum   'P6 Pd14'
_cell_volume   296.22504038
_cell_formula_units_Z   2
loop_
 _symmetry_equiv_pos_site_id
 _symmetry_equiv_pos_as_xyz
  1  'x, y, z'
loop_
 _atom_site_type_symbol
 _atom_site_label
 _atom_site_symmetry_multiplicity
 _atom_site_fract_x
 _atom_site_fract_y
 _atom_site_fract_z
 _atom_site_occupancy
  P  P0  1  0.49926327  0.12237236  0.29944286  1
  P  P1  1  0.29944286  0.49926327  0.12237236  1
  P  P2  1  0.12237236  0.29944286  0.49926327  1
  P  P3  1  0.92566725  0.75259745  0.54892511  1
  P  P4  1  0.54892511  0.92566725  0.75259745  1
  P  P5  1  0.75259745  0.54892511  0.92566725  1
  Pd  Pd0  1  0.10290671  0.18012920  0.74739214  1
  Pd  Pd1  1  0.74739214  0.10290671  0.18012920  1
  Pd  Pd2  1  0.18012920  0.74739214  0.10290671  1
  Pd  Pd3  1  0.30038160  0.94813756  0.87179971  1
  Pd  Pd4  1  0.87179971  0.30038160  0.94813756  1
  Pd  Pd5  1  0.94813756  0.87179971  0.30038160  1
  Pd  Pd6  1  0.61221871  0.43766814  0.16914792  1
  Pd  Pd7  1  0.16914792  0.61221871  0.43766814  1
  Pd  Pd8  1  0.43766814  0.16914792  0.61221871  1
  Pd  Pd9  1  0.87726106  0.43924317  0.61328411  1
  Pd  Pd10  1  0.61328411  0.87726106  0.43924317  1
  Pd  Pd11  1  0.43924317  0.61328411  0.87726106  1
  Pd  Pd12  1  0.22452640  0.22452640  0.22452640  1
  Pd  Pd13  1  0.82663729  0.82663729  0.82663729  1
loop_
_geom_bond_atom_site_label_1
_geom_bond_atom_site_label_2
_geom_bond_distance
_geom_bond_site_symmetry_2
P0 Pd1 2.294197 1_555
P0 Pd12 2.337415 1_555
P0 Pd2 2.383091 1_545
P0 Pd8 2.417155 1_555
P0 Pd9 2.436152 1_555
P0 Pd3 2.536074 1_544
P0 Pd10 2.581577 1_545
P0 Pd6 2.768761 1_555
P1 Pd2 2.294197 1_555
P1 Pd12 2.337415 1_555
P1 Pd0 2.383091 1_554
P1 Pd6 2.417155 1_555
P1 Pd10 2.436153 1_555
P1 Pd4 2.536074 1_454
P1 Pd11 2.581577 1_554
P1 Pd7 2.768761 1_555
P2 Pd0 2.294197 1_555
P2 Pd12 2.337415 1_555
P2 Pd1 2.383091 1_455
P2 Pd7 2.417155 1_555
P2 Pd11 2.436152 1_555
P2 Pd5 2.536075 1_445
P2 Pd9 2.581578 1_455
P2 Pd8 2.768761 1_555
P3 Pd5 2.301119 1_555
P3 Pd13 2.340781 1_555
P3 Pd3 2.393409 1_655
P3 Pd9 2.431252 1_555
P3 Pd6 2.438523 1_555
P3 Pd0 2.532991 1_665
P3 Pd7 2.564026 1_655
P3 Pd10 2.717489 1_555
P4 Pd3 2.301119 1_555
P4 Pd13 2.340781 1_555
P4 Pd4 2.393409 1_565
P4 Pd10 2.431252 1_555
P4 Pd7 2.438523 1_555
P4 Pd1 2.532990 1_566
P4 Pd8 2.564026 1_565
P4 Pd11 2.717489 1_555
P5 Pd4 2.301119 1_555
P5 Pd13 2.340781 1_555
P5 Pd5 2.393409 1_556
P5 Pd11 2.431252 1_555
P5 Pd8 2.438523 1_555
P5 Pd2 2.532991 1_656
P5 Pd6 2.564026 1_556
P5 Pd9 2.717489 1_555
