# generated using pymatgen
data_CaBiSbO5
_symmetry_space_group_name_H-M   'P 1'
_cell_length_a   12.20180000
_cell_length_b   5.94312800
_cell_length_c   8.57510356
_cell_angle_alpha   70.40316292
_cell_angle_beta   90.00000000
_cell_angle_gamma   90.00000000
_symmetry_Int_Tables_number   1
_chemical_formula_structural   CaBiSbO5
_chemical_formula_sum   'Ca4 Bi4 Sb4 O20'
_cell_volume   585.82012309
_cell_formula_units_Z   4
loop_
 _symmetry_equiv_pos_site_id
 _symmetry_equiv_pos_as_xyz
  1  'x, y, z'
loop_
 _atom_site_type_symbol
 _atom_site_label
 _atom_site_symmetry_multiplicity
 _atom_site_fract_x
 _atom_site_fract_y
 _atom_site_fract_z
 _atom_site_occupancy
  Ca  Ca0  1  0.08587000  0.55056800  0.81661800  1
  Ca  Ca1  1  0.91413000  0.44943200  0.18338200  1
  Ca  Ca2  1  0.58587000  0.44943200  0.68338200  1
  Ca  Ca3  1  0.41413000  0.55056800  0.31661800  1
  Bi  Bi0  1  0.90742000  0.03315800  0.84252800  1
  Bi  Bi1  1  0.09258000  0.96684200  0.15747200  1
  Bi  Bi2  1  0.59258000  0.03315800  0.34252800  1
  Bi  Bi3  1  0.40742000  0.96684200  0.65747200  1
  Sb  Sb0  1  0.35587100  0.16205400  0.03183600  1
  Sb  Sb1  1  0.64412900  0.83794600  0.96816400  1
  Sb  Sb2  1  0.85587100  0.83794600  0.46816400  1
  Sb  Sb3  1  0.14412900  0.16205400  0.53183600  1
  O  O0  1  0.93133700  0.78273900  0.67303600  1
  O  O1  1  0.05530700  0.27044300  0.67614500  1
  O  O2  1  0.81080800  0.16016500  0.36776100  1
  O  O3  1  0.47606400  0.77310900  0.48687400  1
  O  O4  1  0.71236100  0.69788100  0.50223700  1
  O  O5  1  0.78763900  0.69788100  0.00223700  1
  O  O6  1  0.44469300  0.27044300  0.17614500  1
  O  O7  1  0.55530700  0.72955700  0.82385500  1
  O  O8  1  0.52393600  0.22689100  0.51312600  1
  O  O9  1  0.43133700  0.21726100  0.82696400  1
  O  O10  1  0.28763900  0.30211900  0.49776300  1
  O  O11  1  0.06866300  0.21726100  0.32696400  1
  O  O12  1  0.56866300  0.78273900  0.17303600  1
  O  O13  1  0.21236100  0.30211900  0.99776300  1
  O  O14  1  0.97606400  0.22689100  0.01312600  1
  O  O15  1  0.02393600  0.77310900  0.98687400  1
  O  O16  1  0.18919200  0.83983500  0.63223900  1
  O  O17  1  0.94469300  0.72955700  0.32385500  1
  O  O18  1  0.31080800  0.83983500  0.13223900  1
  O  O19  1  0.68919200  0.16016500  0.86776100  1
loop_
_geom_bond_atom_site_label_1
_geom_bond_atom_site_label_2
_geom_bond_distance
_geom_bond_site_symmetry_2
Ca0 O16 2.285030 1_555
Ca0 O13 2.331671 1_555
Ca0 O1 2.388912 1_555
Ca0 O15 2.397310 1_555
Ca0 O0 2.415708 1_455
Ca0 O14 2.482071 1_456
Ca1 O2 2.285030 1_555
Ca1 O5 2.331671 1_555
Ca1 O17 2.388912 1_555
Ca1 O14 2.397310 1_555
Ca1 O11 2.415708 1_655
Ca1 O15 2.482071 1_654
Ca2 O19 2.285030 1_555
Ca2 O4 2.331671 1_555
Ca2 O7 2.388912 1_555
Ca2 O8 2.397310 1_555
Ca2 O9 2.415708 1_555
Ca2 O3 2.482071 1_555
Ca3 O18 2.285030 1_555
Ca3 O10 2.331671 1_555
Ca3 O6 2.388912 1_555
Ca3 O3 2.397310 1_555
Ca3 O12 2.415708 1_555
Ca3 O8 2.482071 1_555
Bi0 O15 2.158401 1_645
Bi0 O14 2.301552 1_556
Bi0 O0 2.421469 1_545
Bi0 O1 2.435331 1_655
Bi0 O5 2.480239 1_546
Bi0 O19 2.795800 1_555
Bi1 O14 2.158401 1_465
Bi1 O15 2.301552 1_554
Bi1 O11 2.421469 1_565
Bi1 O17 2.435331 1_455
Bi1 O13 2.480239 1_564
Bi1 O18 2.795800 1_555
Bi2 O3 2.158401 1_545
Bi2 O8 2.301552 1_555
Bi2 O12 2.421469 1_545
Bi2 O6 2.435331 1_555
Bi2 O4 2.480239 1_545
Bi2 O2 2.795800 1_555
Bi3 O8 2.158401 1_565
Bi3 O3 2.301552 1_555
Bi3 O9 2.421469 1_565
Bi3 O7 2.435331 1_555
Bi3 O10 2.480239 1_565
Bi3 O16 2.795800 1_555
O0 Sb2 1.911870 1_555
O1 Sb3 1.911960 1_555
O2 Sb2 1.898633 1_545
O4 Sb2 1.918706 1_555
O5 Sb1 1.918706 1_554
O6 Sb0 1.911960 1_555
O7 Sb1 1.911960 1_555
O9 Sb0 1.911870 1_556
O10 Sb3 1.918706 1_555
O11 Sb3 1.911870 1_555
O12 Sb1 1.911870 1_554
O13 Sb0 1.918706 1_556
O16 Sb3 1.898633 1_565
O17 Sb2 1.911960 1_555
O18 Sb0 1.898633 1_565
O19 Sb1 1.898633 1_545
