# generated using pymatgen
data_RbBaVSe4
_symmetry_space_group_name_H-M   'P 1'
_cell_length_a   7.12231348
_cell_length_b   10.19323725
_cell_length_c   12.52719025
_cell_angle_alpha   90.00000000
_cell_angle_beta   90.00000000
_cell_angle_gamma   90.00000000
_symmetry_Int_Tables_number   1
_chemical_formula_structural   RbBaVSe4
_chemical_formula_sum   'Rb4 Ba4 V4 Se16'
_cell_volume   909.46688575
_cell_formula_units_Z   4
loop_
 _symmetry_equiv_pos_site_id
 _symmetry_equiv_pos_as_xyz
  1  'x, y, z'
loop_
 _atom_site_type_symbol
 _atom_site_label
 _atom_site_symmetry_multiplicity
 _atom_site_fract_x
 _atom_site_fract_y
 _atom_site_fract_z
 _atom_site_occupancy
  Rb  Rb0  1  0.25000000  0.36063823  0.08445592  1
  Rb  Rb1  1  0.75000000  0.63936177  0.91554408  1
  Rb  Rb2  1  0.75000000  0.86063823  0.41554408  1
  Rb  Rb3  1  0.25000000  0.13936177  0.58445592  1
  Ba  Ba0  1  0.25000000  0.60401943  0.64788819  1
  Ba  Ba1  1  0.75000000  0.39598057  0.35211181  1
  Ba  Ba2  1  0.75000000  0.10401943  0.85211181  1
  Ba  Ba3  1  0.25000000  0.89598057  0.14788819  1
  V  V0  1  0.25000000  0.61398423  0.33046003  1
  V  V1  1  0.75000000  0.38601577  0.66953997  1
  V  V2  1  0.75000000  0.11398423  0.16953997  1
  V  V3  1  0.25000000  0.88601577  0.83046003  1
  Se  Se0  1  0.25000000  0.07523784  0.92647043  1
  Se  Se1  1  0.75000000  0.92476216  0.07352957  1
  Se  Se2  1  0.75000000  0.57523784  0.57352957  1
  Se  Se3  1  0.25000000  0.42476216  0.42647043  1
  Se  Se4  1  0.25000000  0.79811668  0.43467231  1
  Se  Se5  1  0.75000000  0.20188332  0.56532769  1
  Se  Se6  1  0.75000000  0.29811668  0.06532769  1
  Se  Se7  1  0.25000000  0.70188332  0.93467231  1
  Se  Se8  1  0.00401337  0.12298368  0.27841294  1
  Se  Se9  1  0.50401337  0.87701632  0.72158706  1
  Se  Se10  1  0.99598663  0.62298368  0.22158706  1
  Se  Se11  1  0.49598663  0.37701632  0.77841294  1
  Se  Se12  1  0.99598663  0.87701632  0.72158706  1
  Se  Se13  1  0.49598663  0.12298368  0.27841294  1
  Se  Se14  1  0.00401337  0.37701632  0.77841294  1
  Se  Se15  1  0.50401337  0.62298368  0.22158706  1
loop_
_geom_bond_atom_site_label_1
_geom_bond_atom_site_label_2
_geom_bond_distance
_geom_bond_site_symmetry_2
Rb0 Se0 3.518532 1_554
Rb0 Se6 3.625659 1_555
Rb0 Se6 3.625659 1_455
Rb0 Se15 3.657214 1_555
Rb0 Se10 3.657214 1_455
Rb0 Se13 3.852461 1_555
Rb0 Se8 3.852461 1_555
Rb0 Se7 3.952210 1_554
Rb1 Se1 3.518532 1_556
Rb1 Se7 3.625659 1_555
Rb1 Se7 3.625659 1_655
Rb1 Se14 3.657214 1_655
Rb1 Se11 3.657214 1_555
Rb1 Se12 3.852461 1_555
Rb1 Se9 3.852461 1_555
Rb1 Se6 3.952210 1_556
Rb2 Se2 3.518532 1_555
Rb2 Se4 3.625659 1_655
Rb2 Se4 3.625659 1_555
Rb2 Se8 3.657214 1_665
Rb2 Se13 3.657214 1_565
Rb2 Se10 3.852461 1_555
Rb2 Se15 3.852461 1_555
Rb2 Se5 3.952210 1_565
Rb3 Se3 3.518532 1_555
Rb3 Se5 3.625659 1_455
Rb3 Se5 3.625659 1_555
Rb3 Se9 3.657214 1_545
Rb3 Se12 3.657214 1_445
Rb3 Se11 3.852461 1_555
Rb3 Se14 3.852461 1_555
Rb3 Se4 3.952210 1_545
Ba0 Se3 3.321498 1_555
Ba0 Se4 3.323943 1_555
Ba0 Se11 3.331243 1_555
Ba0 Se14 3.331243 1_555
Ba0 Se9 3.445139 1_555
Ba0 Se12 3.445139 1_455
Ba0 Se2 3.692642 1_455
Ba0 Se2 3.692642 1_555
Ba0 Se7 3.728522 1_555
Ba1 Se2 3.321498 1_555
Ba1 Se5 3.323943 1_555
Ba1 Se10 3.331243 1_555
Ba1 Se15 3.331243 1_555
Ba1 Se8 3.445139 1_655
Ba1 Se13 3.445139 1_555
Ba1 Se3 3.692642 1_555
Ba1 Se3 3.692642 1_655
Ba1 Se6 3.728522 1_555
Ba2 Se1 3.321498 1_546
Ba2 Se6 3.323943 1_556
Ba2 Se12 3.331243 1_545
Ba2 Se9 3.331243 1_545
Ba2 Se14 3.445139 1_655
Ba2 Se11 3.445139 1_555
Ba2 Se0 3.692642 1_555
Ba2 Se0 3.692642 1_655
Ba2 Se5 3.728522 1_555
Ba3 Se0 3.321498 1_564
Ba3 Se7 3.323943 1_554
Ba3 Se13 3.331243 1_565
Ba3 Se8 3.331243 1_565
Ba3 Se15 3.445139 1_555
Ba3 Se10 3.445139 1_455
Ba3 Se1 3.692642 1_555
Ba3 Se1 3.692642 1_455
Ba3 Se4 3.728522 1_555
Se0 V3 2.273059 1_545
Se1 V2 2.273059 1_565
Se2 V1 2.273059 1_555
Se3 V0 2.273059 1_555
Se4 V0 2.286279 1_555
Se5 V1 2.286279 1_555
Se6 V2 2.286279 1_555
Se7 V3 2.286279 1_555
Se8 V2 2.267517 1_455
Se9 V3 2.267517 1_555
Se10 V0 2.267517 1_655
Se11 V1 2.267517 1_555
Se12 V3 2.267517 1_655
Se13 V2 2.267517 1_555
Se14 V1 2.267517 1_455
Se15 V0 2.267517 1_555
