# generated using pymatgen
data_VCr3As4
_symmetry_space_group_name_H-M   'P 1'
_cell_length_a   3.53457500
_cell_length_b   5.64176922
_cell_length_c   6.27291463
_cell_angle_alpha   89.87711822
_cell_angle_beta   90.00000000
_cell_angle_gamma   90.00000000
_symmetry_Int_Tables_number   1
_chemical_formula_structural   VCr3As4
_chemical_formula_sum   'V1 Cr3 As4'
_cell_volume   125.08951164
_cell_formula_units_Z   1
loop_
 _symmetry_equiv_pos_site_id
 _symmetry_equiv_pos_as_xyz
  1  'x, y, z'
loop_
 _atom_site_type_symbol
 _atom_site_label
 _atom_site_symmetry_multiplicity
 _atom_site_fract_x
 _atom_site_fract_y
 _atom_site_fract_z
 _atom_site_occupancy
  V  V0  1  0.75000000  0.49407100  0.70557900  1
  Cr  Cr0  1  0.75000000  0.99451900  0.78544500  1
  Cr  Cr1  1  0.25000000  0.50507100  0.30349800  1
  Cr  Cr2  1  0.25000000  0.00674200  0.20877000  1
  As  As0  1  0.75000000  0.29802600  0.07981800  1
  As  As1  1  0.75000000  0.79242000  0.41474400  1
  As  As2  1  0.25000000  0.70747400  0.92493200  1
  As  As3  1  0.25000000  0.20167800  0.57721400  1
loop_
_geom_bond_atom_site_label_1
_geom_bond_atom_site_label_2
_geom_bond_distance
_geom_bond_site_symmetry_2
As0 Cr0 2.520999 1_544
As0 Cr1 2.542352 1_655
As0 Cr1 2.542352 1_555
As0 Cr2 2.544121 1_655
As0 Cr2 2.544121 1_555
As0 V0 2.592927 1_554
As1 V0 2.479600 1_555
As1 Cr1 2.498656 1_555
As1 Cr1 2.498656 1_655
As1 Cr2 2.499614 1_665
As1 Cr2 2.499614 1_565
As1 Cr0 2.592063 1_555
As2 Cr2 2.456368 1_566
As2 V0 2.544265 1_555
As2 V0 2.544265 1_455
As2 Cr0 2.550574 1_555
As2 Cr0 2.550574 1_455
As2 Cr1 2.632791 1_556
As3 Cr1 2.421838 1_555
As3 Cr0 2.487753 1_545
As3 Cr0 2.487753 1_445
As3 V0 2.549238 1_555
As3 V0 2.549238 1_455
As3 Cr2 2.561670 1_555
