# generated using pymatgen
data_In2AgS3Cl
_symmetry_space_group_name_H-M   'P 1'
_cell_length_a   7.75260552
_cell_length_b   7.75260552
_cell_length_c   7.75260610
_cell_angle_alpha   61.06252948
_cell_angle_beta   61.06252948
_cell_angle_gamma   61.06252687
_symmetry_Int_Tables_number   1
_chemical_formula_structural   In2AgS3Cl
_chemical_formula_sum   'In4 Ag2 S6 Cl2'
_cell_volume   337.36145869
_cell_formula_units_Z   2
loop_
 _symmetry_equiv_pos_site_id
 _symmetry_equiv_pos_as_xyz
  1  'x, y, z'
loop_
 _atom_site_type_symbol
 _atom_site_label
 _atom_site_symmetry_multiplicity
 _atom_site_fract_x
 _atom_site_fract_y
 _atom_site_fract_z
 _atom_site_occupancy
  In  In0  1  0.50000000  0.50000000  0.50000000  1
  In  In1  1  0.50000000  0.00000000  0.50000000  1
  In  In2  1  0.00000000  0.50000000  0.50000000  1
  In  In3  1  0.50000000  0.50000000  0.00000000  1
  Ag  Ag0  1  0.08571300  0.08571300  0.08571300  1
  Ag  Ag1  1  0.91428700  0.91428700  0.91428700  1
  S  S0  1  0.74136900  0.28924800  0.74136900  1
  S  S1  1  0.28924800  0.74136900  0.74136900  1
  S  S2  1  0.74136900  0.74136900  0.28924800  1
  S  S3  1  0.25863100  0.71075200  0.25863100  1
  S  S4  1  0.71075200  0.25863100  0.25863100  1
  S  S5  1  0.25863100  0.25863100  0.71075200  1
  Cl  Cl0  1  0.75346500  0.75346500  0.75346500  1
  Cl  Cl1  1  0.24653500  0.24653500  0.24653500  1
loop_
_geom_bond_atom_site_label_1
_geom_bond_atom_site_label_2
_geom_bond_distance
_geom_bond_site_symmetry_2
In0 S2 2.672787 1_555
In0 S5 2.672787 1_555
In0 S0 2.672787 1_555
In0 S1 2.672787 1_555
In0 S3 2.672787 1_555
In0 S4 2.672787 1_555
In1 S5 2.602338 1_555
In1 S2 2.602338 1_545
In1 S4 2.602338 1_555
In1 S1 2.602338 1_545
In2 S5 2.602338 1_555
In2 S2 2.602338 1_455
In2 S3 2.602338 1_555
In2 S0 2.602338 1_455
In3 S3 2.602338 1_555
In3 S4 2.602338 1_555
In3 S1 2.602338 1_554
In3 S0 2.602338 1_554
Ag0 S3 2.498269 1_545
Ag0 S4 2.498269 1_455
Ag0 S5 2.498269 1_554
Ag0 Cl1 3.029244 1_555
Ag1 S0 2.498269 1_565
Ag1 S1 2.498269 1_655
Ag1 S2 2.498269 1_556
Ag1 Cl0 3.029244 1_555
Cl0 In2 2.800591 1_655
Cl0 In1 2.800591 1_565
Cl0 In3 2.800591 1_556
Cl1 In2 2.800591 1_555
Cl1 In1 2.800591 1_555
Cl1 In3 2.800591 1_555
