# generated using pymatgen
data_Ho5Zr3(Ni4As3)4
_symmetry_space_group_name_H-M   'P 1'
_cell_length_a   12.77977182
_cell_length_b   12.77977182
_cell_length_c   3.89944400
_cell_angle_alpha   90.00000000
_cell_angle_beta   90.00000000
_cell_angle_gamma   119.99999907
_symmetry_Int_Tables_number   1
_chemical_formula_structural   Ho5Zr3(Ni4As3)4
_chemical_formula_sum   'Ho5 Zr3 Ni16 As12'
_cell_volume   551.54318531
_cell_formula_units_Z   1
loop_
 _symmetry_equiv_pos_site_id
 _symmetry_equiv_pos_as_xyz
  1  'x, y, z'
loop_
 _atom_site_type_symbol
 _atom_site_label
 _atom_site_symmetry_multiplicity
 _atom_site_fract_x
 _atom_site_fract_y
 _atom_site_fract_z
 _atom_site_occupancy
  Ho  Ho0  1  0.00000000  0.18091900  0.50000000  1
  Ho  Ho1  1  0.81908100  0.81908100  0.50000000  1
  Ho  Ho2  1  0.18091900  0.00000000  0.50000000  1
  Ho  Ho3  1  0.66666700  0.33333300  0.00000000  1
  Ho  Ho4  1  0.33333300  0.66666700  0.00000000  1
  Zr  Zr0  1  0.00000000  0.56257100  0.00000000  1
  Zr  Zr1  1  0.43742900  0.43742900  0.00000000  1
  Zr  Zr2  1  0.56257100  0.00000000  0.00000000  1
  Ni  Ni0  1  0.00000000  0.72359700  0.50000000  1
  Ni  Ni1  1  0.27640300  0.27640300  0.50000000  1
  Ni  Ni2  1  0.72359700  0.00000000  0.50000000  1
  Ni  Ni3  1  0.80827200  0.18203200  0.00000000  1
  Ni  Ni4  1  0.81796800  0.62624000  0.00000000  1
  Ni  Ni5  1  0.37376000  0.19172800  0.00000000  1
  Ni  Ni6  1  0.18203200  0.80827200  0.00000000  1
  Ni  Ni7  1  0.62624000  0.81796800  0.00000000  1
  Ni  Ni8  1  0.19172800  0.37376000  0.00000000  1
  Ni  Ni9  1  0.87905500  0.36014400  0.50000000  1
  Ni  Ni10  1  0.63985600  0.51891100  0.50000000  1
  Ni  Ni11  1  0.48108900  0.12094500  0.50000000  1
  Ni  Ni12  1  0.36014400  0.87905500  0.50000000  1
  Ni  Ni13  1  0.51891100  0.63985600  0.50000000  1
  Ni  Ni14  1  0.12094500  0.48108900  0.50000000  1
  Ni  Ni15  1  0.00000000  0.00000000  0.00000000  1
  As  As0  1  0.00000000  0.82263300  0.00000000  1
  As  As1  1  0.17736700  0.17736700  0.00000000  1
  As  As2  1  0.82263300  0.00000000  0.00000000  1
  As  As3  1  0.69182300  0.17275900  0.50000000  1
  As  As4  1  0.82724100  0.51906300  0.50000000  1
  As  As5  1  0.48093700  0.30817700  0.50000000  1
  As  As6  1  0.17275900  0.69182300  0.50000000  1
  As  As7  1  0.51906300  0.82724100  0.50000000  1
  As  As8  1  0.30817700  0.48093700  0.50000000  1
  As  As9  1  0.00000000  0.35397000  0.00000000  1
  As  As10  1  0.64603000  0.64603000  0.00000000  1
  As  As11  1  0.35397000  0.00000000  0.00000000  1
loop_
_geom_bond_atom_site_label_1
_geom_bond_atom_site_label_2
_geom_bond_distance
_geom_bond_site_symmetry_2
Ho0 Ni15 3.024440 1_555
Ho0 Ni15 3.024440 1_556
Ho0 Ni1 3.107450 1_555
Ho0 Ni2 3.107450 1_455
Ho0 Ni3 3.136901 1_455
Ho0 Ni3 3.136901 1_456
Ho0 Ni8 3.136901 1_555
Ho0 Ni8 3.136901 1_556
Ho0 Ni9 3.342971 1_455
Ho0 Ni14 3.342971 1_555
Ho1 Ni15 3.024440 1_665
Ho1 Ni15 3.024440 1_666
Ho1 Ni0 3.107449 1_655
Ho1 Ni2 3.107449 1_565
Ho1 Ni7 3.136901 1_556
Ho1 Ni4 3.136901 1_556
Ho1 Ni7 3.136901 1_555
Ho1 Ni4 3.136901 1_555
Ho1 Ni13 3.342971 1_555
Ho1 Ni10 3.342971 1_555
Ho2 Ni15 3.024440 1_555
Ho2 Ni15 3.024440 1_556
Ho2 Ni1 3.107450 1_555
Ho2 Ni0 3.107450 1_545
Ho2 Ni6 3.136901 1_545
Ho2 Ni6 3.136901 1_546
Ho2 Ni5 3.136901 1_555
Ho2 Ni5 3.136901 1_556
Ho2 Ni12 3.342971 1_545
Ho2 Ni11 3.342971 1_555
Ho3 Ni9 3.218084 1_555
Ho3 Ni9 3.218084 1_554
Ho3 Ni11 3.218088 1_555
Ho3 Ni11 3.218088 1_554
Ho3 Ni10 3.218094 1_554
Ho3 Ni10 3.218094 1_555
Ho3 Ni3 3.242360 1_555
Ho3 Ni4 3.242371 1_555
Ho3 Ni5 3.242372 1_555
Ho4 Ni12 3.218084 1_555
Ho4 Ni12 3.218084 1_554
Ho4 Ni14 3.218088 1_555
Ho4 Ni14 3.218088 1_554
Ho4 Ni13 3.218094 1_555
Ho4 Ni13 3.218094 1_554
Ho4 Ni6 3.242360 1_555
Ho4 Ni7 3.242371 1_555
Ho4 Ni8 3.242372 1_555
Ni0 Zr0 2.834831 1_556
Ni0 Zr0 2.834831 1_555
Ni1 Zr1 2.834831 1_556
Ni1 Zr1 2.834831 1_555
Ni2 Zr2 2.834831 1_555
Ni2 Zr2 2.834831 1_556
Ni3 Zr2 2.822542 1_555
Ni4 Zr0 2.822542 1_655
Ni5 Zr1 2.822542 1_555
Ni6 Zr0 2.822542 1_555
Ni7 Zr2 2.822542 1_565
Ni8 Zr1 2.822542 1_555
Ni9 Zr0 2.980657 1_655
Ni9 Zr0 2.980657 1_656
Ni10 Zr1 2.980657 1_555
Ni10 Zr1 2.980657 1_556
Ni11 Zr2 2.980657 1_555
Ni11 Zr2 2.980657 1_556
Ni12 Zr2 2.980657 1_565
Ni12 Zr2 2.980657 1_566
Ni13 Zr1 2.980657 1_555
Ni13 Zr1 2.980657 1_556
Ni14 Zr0 2.980657 1_556
Ni14 Zr0 2.980657 1_555
As0 Ni15 2.266710 1_565
As0 Ni0 2.324501 1_555
As0 Ni0 2.324501 1_554
As0 Ni6 2.423311 1_555
As0 Ni4 2.423311 1_455
As0 Ho1 3.007382 1_455
As0 Ho1 3.007382 1_454
As0 Ho2 3.007382 1_564
As0 Ho2 3.007382 1_565
As1 Ni15 2.266710 1_555
As1 Ni1 2.324501 1_555
As1 Ni1 2.324501 1_554
As1 Ni5 2.423311 1_555
As1 Ni8 2.423311 1_555
As1 Ho2 3.007382 1_554
As1 Ho0 3.007382 1_555
As1 Ho0 3.007382 1_554
As1 Ho2 3.007382 1_555
As2 Ni15 2.266710 1_655
As2 Ni2 2.324501 1_555
As2 Ni2 2.324501 1_554
As2 Ni3 2.423311 1_555
As2 Ni7 2.423311 1_545
As2 Ho1 3.007382 1_545
As2 Ho1 3.007382 1_544
As2 Ho0 3.007382 1_654
As2 Ho0 3.007382 1_655
As3 Ni9 2.393761 1_555
As3 Ni3 2.419465 1_555
As3 Ni3 2.419465 1_556
As3 Ni11 2.430662 1_555
As3 Ni2 2.436366 1_555
As3 Zr2 2.785223 1_555
As3 Zr2 2.785223 1_556
As3 Ho3 2.962365 1_555
As3 Ho3 2.962365 1_556
As4 Ni10 2.393767 1_555
As4 Ni4 2.419473 1_556
As4 Ni4 2.419473 1_555
As4 Ni9 2.430650 1_555
As4 Ni0 2.436374 1_655
As4 Zr0 2.785220 1_655
As4 Zr0 2.785220 1_656
As4 Ho3 2.962365 1_555
As4 Ho3 2.962365 1_556
As5 Ni11 2.393754 1_555
As5 Ni5 2.419469 1_555
As5 Ni5 2.419469 1_556
As5 Ni10 2.430659 1_555
As5 Ni1 2.436378 1_555
As5 Zr1 2.785229 1_556
As5 Zr1 2.785229 1_555
As5 Ho3 2.962365 1_555
As5 Ho3 2.962365 1_556
As6 Ni12 2.393761 1_555
As6 Ni6 2.419465 1_556
As6 Ni6 2.419465 1_555
As6 Ni14 2.430662 1_555
As6 Ni0 2.436366 1_555
As6 Zr0 2.785223 1_556
As6 Zr0 2.785223 1_555
As6 Ho4 2.962365 1_555
As6 Ho4 2.962365 1_556
As7 Ni13 2.393767 1_555
As7 Ni7 2.419473 1_556
As7 Ni7 2.419473 1_555
As7 Ni12 2.430650 1_555
As7 Ni2 2.436374 1_565
As7 Zr2 2.785220 1_565
As7 Zr2 2.785220 1_566
As7 Ho4 2.962365 1_556
As7 Ho4 2.962365 1_555
As8 Ni14 2.393754 1_555
As8 Ni8 2.419469 1_555
As8 Ni8 2.419469 1_556
As8 Ni13 2.430659 1_555
As8 Ni1 2.436378 1_555
As8 Zr1 2.785229 1_556
As8 Zr1 2.785229 1_555
As8 Ho4 2.962365 1_556
As8 Ho4 2.962365 1_555
As9 Ni8 2.334084 1_555
As9 Ni3 2.334084 1_455
As9 Ni9 2.513688 1_455
As9 Ni9 2.513688 1_454
As9 Ni14 2.513688 1_555
As9 Ni14 2.513688 1_554
As9 Zr0 2.665873 1_555
As9 Ho0 2.948284 1_555
As9 Ho0 2.948284 1_554
As10 Ni7 2.334084 1_555
As10 Ni4 2.334084 1_555
As10 Ni13 2.513688 1_555
As10 Ni10 2.513688 1_555
As10 Ni13 2.513688 1_554
As10 Ni10 2.513688 1_554
As10 Zr1 2.665873 1_555
As10 Ho1 2.948284 1_555
As10 Ho1 2.948284 1_554
As11 Ni5 2.334084 1_555
As11 Ni6 2.334084 1_545
As11 Ni12 2.513688 1_544
As11 Ni12 2.513688 1_545
As11 Ni11 2.513688 1_555
As11 Ni11 2.513688 1_554
As11 Zr2 2.665873 1_555
As11 Ho2 2.948284 1_554
As11 Ho2 2.948284 1_555
