# generated using pymatgen
data_Ca(FeO2)2
_symmetry_space_group_name_H-M   'P 1'
_cell_length_a   6.28335384
_cell_length_b   6.28335384
_cell_length_c   15.45060300
_cell_angle_alpha   90.00000000
_cell_angle_beta   90.00000000
_cell_angle_gamma   119.99999831
_symmetry_Int_Tables_number   1
_chemical_formula_structural   Ca(FeO2)2
_chemical_formula_sum   'Ca6 Fe12 O24'
_cell_volume   528.27384241
_cell_formula_units_Z   6
loop_
 _symmetry_equiv_pos_site_id
 _symmetry_equiv_pos_as_xyz
  1  'x, y, z'
loop_
 _atom_site_type_symbol
 _atom_site_label
 _atom_site_symmetry_multiplicity
 _atom_site_fract_x
 _atom_site_fract_y
 _atom_site_fract_z
 _atom_site_occupancy
  Ca  Ca0  1  0.33333300  0.66666700  0.04332700  1
  Ca  Ca1  1  0.66666700  0.33333300  0.37906100  1
  Ca  Ca2  1  0.66666700  0.33333300  0.00213200  1
  Ca  Ca3  1  0.00000000  0.00000000  0.71181800  1
  Ca  Ca4  1  0.33333300  0.66666700  0.28590800  1
  Ca  Ca5  1  0.66666700  0.33333300  0.62715800  1
  Fe  Fe0  1  0.83057900  0.66115900  0.16932100  1
  Fe  Fe1  1  0.83057900  0.16942100  0.16932100  1
  Fe  Fe2  1  0.16590300  0.33180700  0.49958300  1
  Fe  Fe3  1  0.33884100  0.16942100  0.16932100  1
  Fe  Fe4  1  0.00000000  0.00000000  0.33337300  1
  Fe  Fe5  1  0.16590300  0.83409700  0.49958300  1
  Fe  Fe6  1  0.49482400  0.98964800  0.83003400  1
  Fe  Fe7  1  0.66819300  0.83409700  0.49958300  1
  Fe  Fe8  1  0.01035200  0.50517600  0.83003400  1
  Fe  Fe9  1  0.33333300  0.66666700  0.66152700  1
  Fe  Fe10  1  0.49482400  0.50517600  0.83003400  1
  Fe  Fe11  1  0.00000000  0.00000000  0.95258400  1
  O  O0  1  0.51487700  0.48512300  0.10268100  1
  O  O1  1  0.66666700  0.33333300  0.23785700  1
  O  O2  1  0.97024600  0.48512300  0.10268100  1
  O  O3  1  0.51487700  0.02975400  0.10268100  1
  O  O4  1  0.13916000  0.27832000  0.24536300  1
  O  O5  1  0.85740200  0.14259800  0.42461400  1
  O  O6  1  0.72168000  0.86084000  0.24536300  1
  O  O7  1  0.00000000  0.00000000  0.07961100  1
  O  O8  1  0.28519600  0.14259800  0.42461400  1
  O  O9  1  0.00000000  0.00000000  0.56827400  1
  O  O10  1  0.13916000  0.86084000  0.24536300  1
  O  O11  1  0.85740200  0.71480400  0.42461400  1
  O  O12  1  0.47723700  0.95447500  0.57702100  1
  O  O13  1  0.19258200  0.80741800  0.75319700  1
  O  O14  1  0.04552500  0.52276300  0.57702100  1
  O  O15  1  0.33333300  0.66666700  0.43231800  1
  O  O16  1  0.33333300  0.66666700  0.89754600  1
  O  O17  1  0.61483600  0.80741800  0.75319700  1
  O  O18  1  0.47723700  0.52276300  0.57702100  1
  O  O19  1  0.19258200  0.38516400  0.75319700  1
  O  O20  1  0.83301800  0.66603600  0.90314700  1
  O  O21  1  0.66666700  0.33333300  0.77263000  1
  O  O22  1  0.33396400  0.16698200  0.90314700  1
  O  O23  1  0.83301800  0.16698200  0.90314700  1
loop_
_geom_bond_atom_site_label_1
_geom_bond_atom_site_label_2
_geom_bond_distance
_geom_bond_site_symmetry_2
Ca0 O2 2.178209 1_455
Ca0 O3 2.178209 1_565
Ca0 O0 2.178214 1_555
Ca0 O16 2.252404 1_554
Ca1 O1 2.181687 1_555
Ca1 O5 2.191860 1_555
Ca1 O11 2.191865 1_555
Ca1 O8 2.191865 1_555
Ca2 O3 2.267685 1_555
Ca2 O2 2.267685 1_555
Ca2 O0 2.267689 1_555
Ca2 O23 2.369935 1_554
Ca2 O20 2.369939 1_554
Ca2 O22 2.369939 1_554
Ca3 O13 2.191229 1_545
Ca3 O19 2.191229 1_555
Ca3 O17 2.191229 1_445
Ca3 O9 2.217841 1_555
Ca4 O10 2.204100 1_555
Ca4 O4 2.204105 1_555
Ca4 O6 2.204105 1_555
Ca4 O15 2.262123 1_555
Ca5 O14 2.202308 1_655
Ca5 O12 2.202308 1_545
Ca5 O18 2.202318 1_555
Ca5 O21 2.247630 1_555
Fe0 O0 2.006089 1_555
Fe0 O2 2.006093 1_555
Fe0 O6 2.069123 1_555
Fe0 O10 2.069127 1_655
Fe0 O1 2.074498 1_555
Fe0 O7 2.306700 1_665
Fe1 O3 2.006088 1_555
Fe1 O2 2.006088 1_555
Fe1 O6 2.069128 1_545
Fe1 O4 2.069128 1_655
Fe1 O1 2.074489 1_555
Fe1 O7 2.306705 1_655
Fe2 O5 2.051354 1_455
Fe2 O8 2.051358 1_555
Fe2 O14 2.085856 1_555
Fe2 O18 2.085856 1_555
Fe2 O9 2.094368 1_555
Fe2 O15 2.097704 1_555
Fe3 O0 2.006089 1_555
Fe3 O3 2.006093 1_555
Fe3 O4 2.069123 1_555
Fe3 O10 2.069127 1_545
Fe3 O1 2.074498 1_555
Fe3 O7 2.306700 1_555
Fe4 O10 2.035377 1_545
Fe4 O6 2.035377 1_445
Fe4 O4 2.035377 1_555
Fe4 O5 2.096604 1_455
Fe4 O8 2.096604 1_555
Fe4 O11 2.096604 1_445
Fe5 O8 2.051353 1_565
Fe5 O11 2.051353 1_455
Fe5 O14 2.085856 1_555
Fe5 O12 2.085856 1_555
Fe5 O9 2.094363 1_565
Fe5 O15 2.097704 1_555
Fe6 O17 2.037772 1_555
Fe6 O13 2.037772 1_555
Fe6 O16 2.043751 1_555
Fe6 O21 2.069831 1_565
Fe6 O22 2.159968 1_565
Fe6 O23 2.159968 1_565
Fe7 O5 2.051354 1_565
Fe7 O11 2.051358 1_555
Fe7 O12 2.085856 1_555
Fe7 O18 2.085856 1_555
Fe7 O9 2.094368 1_665
Fe7 O15 2.097704 1_555
Fe8 O19 2.037772 1_555
Fe8 O13 2.037772 1_555
Fe8 O16 2.043751 1_555
Fe8 O21 2.069831 1_455
Fe8 O20 2.159968 1_455
Fe8 O23 2.159968 1_455
Fe9 O18 2.038995 1_555
Fe9 O12 2.038995 1_555
Fe9 O14 2.038995 1_555
Fe9 O13 2.086263 1_555
Fe9 O17 2.086267 1_555
Fe9 O19 2.086267 1_555
Fe10 O17 2.037772 1_555
Fe10 O19 2.037772 1_555
Fe10 O16 2.043756 1_555
Fe10 O21 2.069836 1_555
Fe10 O22 2.159968 1_555
Fe10 O20 2.159968 1_555
Fe11 O7 1.962644 1_556
Fe11 O23 1.971280 1_455
Fe11 O22 1.971280 1_555
Fe11 O20 1.971280 1_445
