# generated using pymatgen
data_V2(CN2)3
_symmetry_space_group_name_H-M   'P 1'
_cell_length_a   10.02300106
_cell_length_b   5.52328121
_cell_length_c   28.58390792
_cell_angle_alpha   90.00000223
_cell_angle_beta   161.41942540
_cell_angle_gamma   74.00638286
_symmetry_Int_Tables_number   1
_chemical_formula_structural   V2(CN2)3
_chemical_formula_sum   'V4 C6 N12'
_cell_volume   253.24963008
_cell_formula_units_Z   2
loop_
 _symmetry_equiv_pos_site_id
 _symmetry_equiv_pos_as_xyz
  1  'x, y, z'
loop_
 _atom_site_type_symbol
 _atom_site_label
 _atom_site_symmetry_multiplicity
 _atom_site_fract_x
 _atom_site_fract_y
 _atom_site_fract_z
 _atom_site_occupancy
  V  V0  1  0.97009000  0.01187700  0.15666800  1
  V  V1  1  0.97009000  0.01803400  0.65666800  1
  V  V2  1  0.02988300  0.98820300  0.84333400  1
  V  V3  1  0.02988300  0.98191400  0.34333400  1
  C  C0  1  0.94301500  0.69482300  0.06191300  1
  C  C1  1  0.00010400  0.68414800  0.75005600  1
  C  C2  1  0.05694400  0.63784700  0.43809200  1
  C  C3  1  0.94301500  0.36216200  0.56191300  1
  C  C4  1  0.05694400  0.30521000  0.93809200  1
  C  C5  1  0.00010400  0.31574700  0.25005600  1
  N  N0  1  0.85555300  0.77181900  0.07518200  1
  N  N1  1  0.16700700  0.60580600  0.84749900  1
  N  N2  1  0.99599300  0.62802300  0.46001000  1
  N  N3  1  0.85555300  0.37263000  0.57518200  1
  N  N4  1  0.99599300  0.37598400  0.96001000  1
  N  N5  1  0.16700700  0.22718600  0.34749900  1
  N  N6  1  0.14453200  0.22821900  0.92486900  1
  N  N7  1  0.83303200  0.39423400  0.15251600  1
  N  N8  1  0.00384600  0.37210900  0.53996100  1
  N  N9  1  0.14453200  0.62724900  0.42486900  1
  N  N10  1  0.00384600  0.62404400  0.03996100  1
  N  N11  1  0.83303200  0.77273400  0.65251600  1
loop_
_geom_bond_atom_site_label_1
_geom_bond_atom_site_label_2
_geom_bond_distance
_geom_bond_site_symmetry_2
C0 N10 1.229723 1_655
C0 N0 1.232100 1_555
C1 N1 1.229465 1_555
C1 N11 1.230655 1_455
C2 N2 1.229840 1_455
C2 N9 1.231950 1_555
C3 N8 1.229722 1_655
C3 N3 1.232098 1_555
C4 N4 1.229839 1_455
C4 N6 1.231951 1_555
C5 N5 1.229465 1_555
C5 N7 1.230655 1_455
N0 V0 2.066584 1_565
N0 V2 2.100743 1_554
N1 V0 2.060764 1_556
N1 V2 2.110500 1_555
N2 V0 2.091475 1_465
N2 V2 2.120812 1_745
N3 V1 2.066589 1_555
N3 V3 2.100738 1_555
N4 V1 2.091478 1_465
N4 V3 2.120812 1_746
N5 V1 2.060769 1_555
N5 V3 2.110495 1_545
N6 V2 2.066864 1_545
N6 V0 2.100785 1_556
N7 V2 2.060700 1_554
N7 V0 2.110314 1_555
N8 V2 2.091872 1_645
N8 V0 2.120878 1_365
N9 V3 2.066864 1_555
N9 V1 2.100782 1_555
N10 V3 2.091870 1_645
N10 V1 2.120874 1_364
N11 V3 2.060699 1_555
N11 V1 2.110318 1_565
