# generated using pymatgen
data_YSb(PbO3)2
_symmetry_space_group_name_H-M   'P 1'
_cell_length_a   5.88498030
_cell_length_b   5.88498030
_cell_length_c   6.00629743
_cell_angle_alpha   60.16432658
_cell_angle_beta   60.16432658
_cell_angle_gamma   60.30068080
_symmetry_Int_Tables_number   1
_chemical_formula_structural   YSb(PbO3)2
_chemical_formula_sum   'Y1 Sb1 Pb2 O6'
_cell_volume   147.78766498
_cell_formula_units_Z   1
loop_
 _symmetry_equiv_pos_site_id
 _symmetry_equiv_pos_as_xyz
  1  'x, y, z'
loop_
 _atom_site_type_symbol
 _atom_site_label
 _atom_site_symmetry_multiplicity
 _atom_site_fract_x
 _atom_site_fract_y
 _atom_site_fract_z
 _atom_site_occupancy
  Y  Y0  1  0.00000000  0.00000000  0.00000000  1
  Sb  Sb0  1  0.50000000  0.50000000  0.50000000  1
  Pb  Pb0  1  0.75402500  0.75402500  0.72718000  1
  Pb  Pb1  1  0.24597500  0.24597500  0.27282000  1
  O  O0  1  0.30601300  0.78664200  0.68506300  1
  O  O1  1  0.78664200  0.30601300  0.68506300  1
  O  O2  1  0.69398700  0.21335800  0.31493700  1
  O  O3  1  0.21335800  0.69398700  0.31493700  1
  O  O4  1  0.26606700  0.26606700  0.80893900  1
  O  O5  1  0.73393300  0.73393300  0.19106100  1
loop_
_geom_bond_atom_site_label_1
_geom_bond_atom_site_label_2
_geom_bond_distance
_geom_bond_site_symmetry_2
O0 Sb0 2.019709 1_555
O0 Y0 2.265163 1_566
O0 Pb1 2.612849 1_565
O0 Pb0 2.676946 1_555
O1 Sb0 2.019709 1_555
O1 Y0 2.265163 1_656
O1 Pb1 2.612849 1_655
O1 Pb0 2.676946 1_555
O2 Sb0 2.019709 1_555
O2 Y0 2.265163 1_655
O2 Pb0 2.612849 1_545
O2 Pb1 2.676946 1_555
O3 Sb0 2.019709 1_555
O3 Y0 2.265163 1_565
O3 Pb0 2.612849 1_455
O3 Pb1 2.676946 1_555
O4 Sb0 2.006997 1_555
O4 Y0 2.252536 1_556
O4 Pb1 2.673790 1_556
O5 Sb0 2.006997 1_555
O5 Y0 2.252536 1_665
O5 Pb0 2.673790 1_554
