# generated using pymatgen
data_CsUCuS3
_symmetry_space_group_name_H-M   'P 1'
_cell_length_a   8.00505814
_cell_length_b   8.00505814
_cell_length_c   10.32876300
_cell_angle_alpha   90.00000000
_cell_angle_beta   90.00000000
_cell_angle_gamma   151.06300532
_symmetry_Int_Tables_number   1
_chemical_formula_structural   CsUCuS3
_chemical_formula_sum   'Cs2 U2 Cu2 S6'
_cell_volume   320.24756885
_cell_formula_units_Z   2
loop_
 _symmetry_equiv_pos_site_id
 _symmetry_equiv_pos_as_xyz
  1  'x, y, z'
loop_
 _atom_site_type_symbol
 _atom_site_label
 _atom_site_symmetry_multiplicity
 _atom_site_fract_x
 _atom_site_fract_y
 _atom_site_fract_z
 _atom_site_occupancy
  Cs  Cs0  1  0.74052500  0.25947500  0.25000000  1
  Cs  Cs1  1  0.25947500  0.74052500  0.75000000  1
  U  U0  1  0.00000000  0.00000000  0.50000000  1
  U  U1  1  0.00000000  0.00000000  0.00000000  1
  Cu  Cu0  1  0.53378600  0.46621400  0.75000000  1
  Cu  Cu1  1  0.46621400  0.53378600  0.25000000  1
  S  S0  1  0.61185800  0.38814200  0.55915300  1
  S  S1  1  0.38814200  0.61185800  0.44084700  1
  S  S2  1  0.38814200  0.61185800  0.05915300  1
  S  S3  1  0.94818800  0.05181200  0.75000000  1
  S  S4  1  0.05181200  0.94818800  0.25000000  1
  S  S5  1  0.61185800  0.38814200  0.94084700  1
loop_
_geom_bond_atom_site_label_1
_geom_bond_atom_site_label_2
_geom_bond_distance
_geom_bond_site_symmetry_2
Cs0 S4 3.543827 1_545
Cs0 S4 3.543827 1_655
Cs0 S1 3.622525 1_545
Cs0 S1 3.622525 1_655
Cs0 S2 3.622525 1_545
Cs0 S2 3.622525 1_655
Cs0 S0 3.764959 1_555
Cs0 S5 3.764959 1_554
Cs1 S3 3.543827 1_455
Cs1 S3 3.543827 1_565
Cs1 S0 3.622525 1_565
Cs1 S5 3.622525 1_455
Cs1 S5 3.622525 1_565
Cs1 S0 3.622525 1_455
Cs1 S1 3.764959 1_555
Cs1 S2 3.764959 1_556
Cu0 S5 2.313117 1_555
Cu0 S0 2.313117 1_555
Cu0 S3 2.400215 1_455
Cu0 S3 2.400215 1_565
Cu1 S2 2.313117 1_555
Cu1 S1 2.313117 1_555
Cu1 S4 2.400215 1_545
Cu1 S4 2.400215 1_655
S0 U0 2.716698 1_555
S0 U0 2.716698 1_665
S1 U0 2.716698 1_555
S1 U0 2.716698 1_665
S2 U1 2.716698 1_665
S2 U1 2.716698 1_555
S3 U1 2.704229 1_656
S3 U0 2.704229 1_655
S4 U0 2.704229 1_565
S4 U1 2.704229 1_565
S5 U1 2.716698 1_666
S5 U1 2.716698 1_556
