# generated using pymatgen
data_Na2BiO3
_symmetry_space_group_name_H-M   'P 1'
_cell_length_a   11.43821336
_cell_length_b   10.89115864
_cell_length_c   5.98098972
_cell_angle_alpha   79.58262878
_cell_angle_beta   69.46827007
_cell_angle_gamma   30.94910115
_symmetry_Int_Tables_number   1
_chemical_formula_structural   Na2BiO3
_chemical_formula_sum   'Na8 Bi4 O12'
_cell_volume   347.52653380
_cell_formula_units_Z   4
loop_
 _symmetry_equiv_pos_site_id
 _symmetry_equiv_pos_as_xyz
  1  'x, y, z'
loop_
 _atom_site_type_symbol
 _atom_site_label
 _atom_site_symmetry_multiplicity
 _atom_site_fract_x
 _atom_site_fract_y
 _atom_site_fract_z
 _atom_site_occupancy
  Na  Na0  1  0.99659800  0.99659800  0.50340200  1
  Na  Na1  1  0.42102000  0.42102000  0.57898000  1
  Na  Na2  1  0.82898000  0.82898000  0.67102000  1
  Na  Na3  1  0.25340200  0.25340200  0.74659800  1
  Na  Na4  1  0.74659800  0.74659800  0.25340200  1
  Na  Na5  1  0.67102000  0.67102000  0.82898000  1
  Na  Na6  1  0.57898000  0.57898000  0.42102000  1
  Na  Na7  1  0.50340200  0.50340200  0.99659800  1
  Bi  Bi0  1  0.91608900  0.91608900  0.08391100  1
  Bi  Bi1  1  0.33391100  0.33391100  0.16608900  1
  Bi  Bi2  1  0.16608900  0.16608900  0.33391100  1
  Bi  Bi3  1  0.08391100  0.08391100  0.91608900  1
  O  O0  1  0.15225200  0.66666900  0.31132400  1
  O  O1  1  0.66666900  0.15225200  0.86975500  1
  O  O2  1  0.09774800  0.58333100  0.93867600  1
  O  O3  1  0.58333100  0.09774800  0.38024500  1
  O  O4  1  0.02855800  0.47144200  0.47144200  1
  O  O5  1  0.47144200  0.02855800  0.02855800  1
  O  O6  1  0.38024500  0.93867600  0.58333100  1
  O  O7  1  0.93867600  0.38024500  0.09774800  1
  O  O8  1  0.86975500  0.31132400  0.66666900  1
  O  O9  1  0.31132400  0.86975500  0.15225200  1
  O  O10  1  0.22144200  0.77855800  0.77855800  1
  O  O11  1  0.77855800  0.22144200  0.22144200  1
loop_
_geom_bond_atom_site_label_1
_geom_bond_atom_site_label_2
_geom_bond_distance
_geom_bond_site_symmetry_2
Na0 O10 2.458012 1_655
Na0 O11 2.458012 1_565
Na0 O1 2.546810 1_565
Na0 O0 2.546810 1_655
Na0 O8 2.548402 1_565
Na0 O9 2.548402 1_655
Na1 O2 2.451404 1_555
Na1 O3 2.451404 1_555
Na1 O10 2.514268 1_555
Na1 O11 2.514268 1_555
Na1 O1 2.639516 1_555
Na1 O0 2.639516 1_555
Na2 O1 2.451404 1_565
Na2 O0 2.451404 1_655
Na2 O4 2.514268 1_655
Na2 O5 2.514268 1_566
Na2 O2 2.639516 1_655
Na2 O3 2.639516 1_565
Na3 O4 2.458012 1_555
Na3 O5 2.458012 1_556
Na3 O3 2.546810 1_555
Na3 O2 2.546810 1_555
Na3 O6 2.548402 1_545
Na3 O7 2.548402 1_456
Na4 O5 2.458012 1_565
Na4 O4 2.458012 1_655
Na4 O6 2.546810 1_555
Na4 O7 2.546810 1_555
Na4 O3 2.548402 1_565
Na4 O2 2.548402 1_654
Na5 O8 2.451404 1_555
Na5 O9 2.451404 1_556
Na5 O4 2.514268 1_655
Na5 O5 2.514268 1_566
Na5 O6 2.639516 1_555
Na5 O7 2.639516 1_556
Na6 O6 2.451404 1_555
Na6 O7 2.451404 1_555
Na6 O10 2.514268 1_555
Na6 O11 2.514268 1_555
Na6 O8 2.639516 1_555
Na6 O9 2.639516 1_555
Na7 O11 2.458012 1_556
Na7 O10 2.458012 1_555
Na7 O8 2.546810 1_555
Na7 O9 2.546810 1_556
Na7 O1 2.548402 1_555
Na7 O0 2.548402 1_556
Bi0 O2 2.272040 1_654
Bi0 O3 2.272040 1_565
Bi0 O0 2.276141 1_655
Bi0 O1 2.276141 1_564
Bi0 O11 2.306367 1_565
Bi0 O10 2.306367 1_654
Bi1 O0 2.272040 1_555
Bi1 O1 2.272040 1_554
Bi1 O2 2.276141 1_554
Bi1 O3 2.276141 1_555
Bi1 O5 2.306367 1_555
Bi1 O4 2.306367 1_555
Bi2 O8 2.272040 1_455
Bi2 O9 2.272040 1_545
Bi2 O7 2.276141 1_455
Bi2 O6 2.276141 1_545
Bi2 O5 2.306367 1_555
Bi2 O4 2.306367 1_555
Bi3 O7 2.272040 1_456
Bi3 O6 2.272040 1_545
Bi3 O9 2.276141 1_546
Bi3 O8 2.276141 1_455
Bi3 O11 2.306367 1_456
Bi3 O10 2.306367 1_545
