# generated using pymatgen
data_Ca8Mn6Al2O23
_symmetry_space_group_name_H-M   'P 1'
_cell_length_a   7.52989500
_cell_length_b   7.52989500
_cell_length_c   7.72749700
_cell_angle_alpha   90.00000000
_cell_angle_beta   90.00000000
_cell_angle_gamma   90.00000000
_symmetry_Int_Tables_number   1
_chemical_formula_structural   Ca8Mn6Al2O23
_chemical_formula_sum   'Ca8 Mn6 Al2 O23'
_cell_volume   438.14381524
_cell_formula_units_Z   1
loop_
 _symmetry_equiv_pos_site_id
 _symmetry_equiv_pos_as_xyz
  1  'x, y, z'
loop_
 _atom_site_type_symbol
 _atom_site_label
 _atom_site_symmetry_multiplicity
 _atom_site_fract_x
 _atom_site_fract_y
 _atom_site_fract_z
 _atom_site_occupancy
  Ca  Ca0  1  0.25883700  0.25883700  0.25000000  1
  Ca  Ca1  1  0.25537200  0.25537200  0.75000000  1
  Ca  Ca2  1  0.25883700  0.74116300  0.25000000  1
  Ca  Ca3  1  0.25537200  0.74462800  0.75000000  1
  Ca  Ca4  1  0.74116300  0.25883700  0.25000000  1
  Ca  Ca5  1  0.74462800  0.25537200  0.75000000  1
  Ca  Ca6  1  0.74116300  0.74116300  0.25000000  1
  Ca  Ca7  1  0.74462800  0.74462800  0.75000000  1
  Mn  Mn0  1  0.00000000  0.50000000  0.00476900  1
  Mn  Mn1  1  0.00000000  0.50000000  0.49523100  1
  Mn  Mn2  1  0.50000000  0.00000000  0.00476900  1
  Mn  Mn3  1  0.50000000  0.00000000  0.49523100  1
  Mn  Mn4  1  0.50000000  0.50000000  0.99935100  1
  Mn  Mn5  1  0.50000000  0.50000000  0.50064900  1
  Al  Al0  1  0.00000000  0.00000000  0.97580400  1
  Al  Al1  1  0.00000000  0.00000000  0.52419600  1
  O  O0  1  0.00000000  0.00000000  0.75000000  1
  O  O1  1  0.00000000  0.50000000  0.25000000  1
  O  O2  1  0.00000000  0.50000000  0.75000000  1
  O  O3  1  0.50000000  0.00000000  0.25000000  1
  O  O4  1  0.50000000  0.00000000  0.75000000  1
  O  O5  1  0.50000000  0.50000000  0.25000000  1
  O  O6  1  0.50000000  0.50000000  0.75000000  1
  O  O7  1  0.24193200  0.00000000  0.02093200  1
  O  O8  1  0.24193200  0.00000000  0.47906800  1
  O  O9  1  0.24999800  0.50000000  0.99874100  1
  O  O10  1  0.24999800  0.50000000  0.50125900  1
  O  O11  1  0.75806800  0.00000000  0.02093200  1
  O  O12  1  0.75806800  0.00000000  0.47906800  1
  O  O13  1  0.75000200  0.50000000  0.99874100  1
  O  O14  1  0.75000200  0.50000000  0.50125900  1
  O  O15  1  0.00000000  0.24193200  0.02093200  1
  O  O16  1  0.00000000  0.24193200  0.47906800  1
  O  O17  1  0.00000000  0.75806800  0.02093200  1
  O  O18  1  0.00000000  0.75806800  0.47906800  1
  O  O19  1  0.50000000  0.24999800  0.99874100  1
  O  O20  1  0.50000000  0.24999800  0.50125900  1
  O  O21  1  0.50000000  0.75000200  0.99874100  1
  O  O22  1  0.50000000  0.75000200  0.50125900  1
loop_
_geom_bond_atom_site_label_1
_geom_bond_atom_site_label_2
_geom_bond_distance
_geom_bond_site_symmetry_2
Ca0 O5 2.568116 1_555
Ca0 O15 2.635943 1_555
Ca0 O8 2.635943 1_555
Ca0 O7 2.635943 1_555
Ca0 O16 2.635943 1_555
Ca0 O20 2.659297 1_555
Ca0 O9 2.659297 1_554
Ca0 O19 2.659297 1_554
Ca0 O10 2.659297 1_555
Ca0 O1 2.663883 1_555
Ca0 O3 2.663883 1_555
Ca1 O6 2.605014 1_555
Ca1 O10 2.662579 1_555
Ca1 O19 2.662579 1_555
Ca1 O9 2.662579 1_555
Ca1 O20 2.662579 1_555
Ca1 O2 2.662834 1_555
Ca1 O4 2.662834 1_555
Ca1 O0 2.719426 1_555
Ca1 O7 2.844495 1_556
Ca1 O15 2.844495 1_556
Ca1 O8 2.844495 1_555
Ca1 O16 2.844495 1_555
Ca2 O5 2.568116 1_555
Ca2 O18 2.635943 1_555
Ca2 O17 2.635943 1_555
Ca2 O7 2.635943 1_565
Ca2 O8 2.635943 1_565
Ca2 O10 2.659297 1_555
Ca2 O21 2.659297 1_554
Ca2 O9 2.659297 1_554
Ca2 O22 2.659297 1_555
Ca2 O1 2.663883 1_555
Ca2 O3 2.663883 1_565
Ca3 O6 2.605014 1_555
Ca3 O21 2.662579 1_555
Ca3 O22 2.662579 1_555
Ca3 O10 2.662579 1_555
Ca3 O9 2.662579 1_555
Ca3 O2 2.662834 1_555
Ca3 O4 2.662834 1_565
Ca3 O0 2.719426 1_565
Ca3 O17 2.844495 1_556
Ca3 O18 2.844495 1_555
Ca3 O7 2.844495 1_566
Ca3 O8 2.844495 1_565
Ca4 O5 2.568116 1_555
Ca4 O12 2.635943 1_555
Ca4 O11 2.635943 1_555
Ca4 O15 2.635943 1_655
Ca4 O16 2.635943 1_655
Ca4 O20 2.659297 1_555
Ca4 O14 2.659297 1_555
Ca4 O19 2.659297 1_554
Ca4 O13 2.659297 1_554
Ca4 O1 2.663883 1_655
Ca4 O3 2.663883 1_555
Ca5 O6 2.605014 1_555
Ca5 O19 2.662579 1_555
Ca5 O20 2.662579 1_555
Ca5 O14 2.662579 1_555
Ca5 O13 2.662579 1_555
Ca5 O4 2.662834 1_555
Ca5 O2 2.662834 1_655
Ca5 O0 2.719426 1_655
Ca5 O11 2.844495 1_556
Ca5 O12 2.844495 1_555
Ca5 O15 2.844495 1_656
Ca5 O16 2.844495 1_655
Ca6 O5 2.568116 1_555
Ca6 O11 2.635943 1_565
Ca6 O17 2.635943 1_655
Ca6 O18 2.635943 1_655
Ca6 O12 2.635943 1_565
Ca6 O21 2.659297 1_554
Ca6 O14 2.659297 1_555
Ca6 O13 2.659297 1_554
Ca6 O22 2.659297 1_555
Ca6 O1 2.663883 1_655
Ca6 O3 2.663883 1_565
Ca7 O6 2.605014 1_555
Ca7 O22 2.662579 1_555
Ca7 O21 2.662579 1_555
Ca7 O14 2.662579 1_555
Ca7 O13 2.662579 1_555
Ca7 O4 2.662834 1_565
Ca7 O2 2.662834 1_655
Ca7 O0 2.719426 1_665
Ca7 O17 2.844495 1_656
Ca7 O11 2.844495 1_566
Ca7 O18 2.844495 1_655
Ca7 O12 2.844495 1_565
Mn0 O9 1.883035 1_554
Mn0 O13 1.883035 1_454
Mn0 O1 1.895022 1_555
Mn0 O17 1.947235 1_555
Mn0 O15 1.947235 1_555
Mn0 O2 1.968727 1_554
Mn1 O10 1.883035 1_555
Mn1 O14 1.883035 1_455
Mn1 O1 1.895022 1_555
Mn1 O18 1.947235 1_555
Mn1 O16 1.947235 1_555
Mn1 O2 1.968727 1_555
Mn2 O19 1.883035 1_554
Mn2 O21 1.883035 1_544
Mn2 O3 1.895022 1_555
Mn2 O11 1.947235 1_555
Mn2 O7 1.947235 1_555
Mn2 O4 1.968727 1_554
Mn3 O20 1.883035 1_555
Mn3 O22 1.883035 1_545
Mn3 O3 1.895022 1_555
Mn3 O12 1.947235 1_555
Mn3 O8 1.947235 1_555
Mn3 O4 1.968727 1_555
Mn4 O21 1.882495 1_555
Mn4 O13 1.882495 1_555
Mn4 O9 1.882495 1_555
Mn4 O19 1.882495 1_555
Mn4 O6 1.926859 1_555
Mn4 O5 1.936889 1_556
Mn5 O14 1.882495 1_555
Mn5 O22 1.882495 1_555
Mn5 O10 1.882495 1_555
Mn5 O20 1.882495 1_555
Mn5 O6 1.926859 1_555
Mn5 O5 1.936889 1_555
Al0 O0 1.744900 1_555
Al0 O7 1.854800 1_556
Al0 O15 1.854800 1_556
Al0 O17 1.854800 1_546
Al0 O11 1.854800 1_456
Al1 O0 1.744900 1_555
Al1 O8 1.854800 1_555
Al1 O16 1.854800 1_555
Al1 O18 1.854800 1_545
Al1 O12 1.854800 1_455
