# generated using pymatgen
data_AgB2
_symmetry_space_group_name_H-M   'P 1'
_cell_length_a   6.05360773
_cell_length_b   6.05360773
_cell_length_c   8.12784400
_cell_angle_alpha   90.00000000
_cell_angle_beta   90.00000000
_cell_angle_gamma   119.99999704
_symmetry_Int_Tables_number   1
_chemical_formula_structural   AgB2
_chemical_formula_sum   'Ag8 B16'
_cell_volume   257.94941963
_cell_formula_units_Z   8
loop_
 _symmetry_equiv_pos_site_id
 _symmetry_equiv_pos_as_xyz
  1  'x, y, z'
loop_
 _atom_site_type_symbol
 _atom_site_label
 _atom_site_symmetry_multiplicity
 _atom_site_fract_x
 _atom_site_fract_y
 _atom_site_fract_z
 _atom_site_occupancy
  Ag  Ag0_0  1  0.00000000  0.00000000  0.00000000  1
  Ag  Ag0_1  1  0.00000000  0.00000000  0.50000000  1
  Ag  Ag0_2  1  0.00000000  0.50000000  0.00000000  1
  Ag  Ag0_3  1  0.00000000  0.50000000  0.50000000  1
  Ag  Ag0_4  1  0.50000000  0.00000000  0.00000000  1
  Ag  Ag0_5  1  0.50000000  0.00000000  0.50000000  1
  Ag  Ag0_6  1  0.50000000  0.50000000  0.00000000  1
  Ag  Ag0_7  1  0.50000000  0.50000000  0.50000000  1
  B  B0_0  1  0.33333350  0.16666650  0.25000000  1
  B  B0_1  1  0.33333350  0.16666650  0.75000000  1
  B  B0_2  1  0.33333350  0.66666650  0.25000000  1
  B  B0_3  1  0.33333350  0.66666650  0.75000000  1
  B  B0_4  1  0.83333350  0.16666650  0.25000000  1
  B  B0_5  1  0.83333350  0.16666650  0.75000000  1
  B  B0_6  1  0.83333350  0.66666650  0.25000000  1
  B  B0_7  1  0.83333350  0.66666650  0.75000000  1
  B  B1_0  1  0.16666650  0.33333350  0.25000000  1
  B  B1_1  1  0.16666650  0.33333350  0.75000000  1
  B  B1_2  1  0.16666650  0.83333350  0.25000000  1
  B  B1_3  1  0.16666650  0.83333350  0.75000000  1
  B  B1_4  1  0.66666650  0.33333350  0.25000000  1
  B  B1_5  1  0.66666650  0.33333350  0.75000000  1
  B  B1_6  1  0.66666650  0.83333350  0.25000000  1
  B  B1_7  1  0.66666650  0.83333350  0.75000000  1
loop_
_geom_bond_atom_site_label_1
_geom_bond_atom_site_label_2
_geom_bond_distance
_geom_bond_site_symmetry_2
Ag0_0 B0_5 2.680057 1_454
Ag0_0 B1_3 2.680057 1_544
Ag0_0 B0_4 2.680057 1_455
Ag0_0 B1_2 2.680057 1_545
Ag0_0 B1_6 2.680059 1_445
Ag0_0 B0_7 2.680059 1_444
Ag0_0 B0_0 2.680059 1_555
Ag0_0 B1_7 2.680059 1_444
Ag0_0 B0_6 2.680059 1_445
Ag0_0 B0_1 2.680059 1_554
Ag0_0 B1_1 2.680059 1_554
Ag0_0 B1_0 2.680059 1_555
Ag0_0 Ag0_4 3.026804 1_555
Ag0_0 Ag0_4 3.026804 1_455
Ag0_0 Ag0_2 3.026804 1_555
Ag0_0 Ag0_2 3.026804 1_545
Ag0_0 Ag0_6 3.026804 1_555
Ag0_0 Ag0_6 3.026804 1_445
Ag0_1 B0_5 2.680057 1_455
Ag0_1 B0_4 2.680057 1_455
Ag0_1 B1_3 2.680057 1_545
Ag0_1 B1_2 2.680057 1_545
Ag0_1 B1_6 2.680059 1_445
Ag0_1 B1_7 2.680059 1_445
Ag0_1 B0_0 2.680059 1_555
Ag0_1 B1_1 2.680059 1_555
Ag0_1 B0_6 2.680059 1_445
Ag0_1 B0_1 2.680059 1_555
Ag0_1 B0_7 2.680059 1_445
Ag0_1 B1_0 2.680059 1_555
Ag0_1 Ag0_5 3.026804 1_555
Ag0_1 Ag0_5 3.026804 1_455
Ag0_1 Ag0_3 3.026804 1_545
Ag0_1 Ag0_3 3.026804 1_555
Ag0_1 Ag0_7 3.026804 1_555
Ag0_1 Ag0_7 3.026804 1_445
Ag0_2 B0_7 2.680057 1_454
Ag0_2 B0_6 2.680057 1_455
Ag0_2 B1_1 2.680057 1_554
Ag0_2 B1_0 2.680057 1_555
Ag0_2 B0_2 2.680059 1_555
Ag0_2 B0_3 2.680059 1_554
Ag0_2 B1_5 2.680059 1_454
Ag0_2 B1_2 2.680059 1_555
Ag0_2 B0_5 2.680059 1_454
Ag0_2 B0_4 2.680059 1_455
Ag0_2 B1_3 2.680059 1_554
Ag0_2 B1_4 2.680059 1_455
Ag0_2 Ag0_6 3.026804 1_555
Ag0_2 Ag0_6 3.026804 1_455
Ag0_2 Ag0_4 3.026804 1_565
Ag0_2 Ag0_4 3.026804 1_455
Ag0_3 B1_1 2.680057 1_555
Ag0_3 B0_7 2.680057 1_455
Ag0_3 B0_6 2.680057 1_455
Ag0_3 B1_0 2.680057 1_555
Ag0_3 B0_2 2.680059 1_555
Ag0_3 B0_3 2.680059 1_555
Ag0_3 B1_2 2.680059 1_555
Ag0_3 B0_5 2.680059 1_455
Ag0_3 B0_4 2.680059 1_455
Ag0_3 B1_4 2.680059 1_455
Ag0_3 B1_3 2.680059 1_555
Ag0_3 B1_5 2.680059 1_455
Ag0_3 Ag0_7 3.026804 1_555
Ag0_3 Ag0_7 3.026804 1_455
Ag0_3 Ag0_5 3.026804 1_565
Ag0_3 Ag0_5 3.026804 1_455
Ag0_4 B1_7 2.680057 1_544
Ag0_4 B0_0 2.680057 1_555
Ag0_4 B1_6 2.680057 1_545
Ag0_4 B0_1 2.680057 1_554
Ag0_4 B1_5 2.680059 1_554
Ag0_4 B1_4 2.680059 1_555
Ag0_4 B0_3 2.680059 1_544
Ag0_4 B0_5 2.680059 1_554
Ag0_4 B0_4 2.680059 1_555
Ag0_4 B0_2 2.680059 1_545
Ag0_4 B1_3 2.680059 1_544
Ag0_4 B1_2 2.680059 1_545
Ag0_4 Ag0_6 3.026804 1_545
Ag0_4 Ag0_6 3.026804 1_555
Ag0_5 B0_0 2.680057 1_555
Ag0_5 B1_7 2.680057 1_545
Ag0_5 B1_6 2.680057 1_545
Ag0_5 B0_1 2.680057 1_555
Ag0_5 B1_5 2.680059 1_555
Ag0_5 B1_4 2.680059 1_555
Ag0_5 B0_4 2.680059 1_555
Ag0_5 B0_3 2.680059 1_545
Ag0_5 B0_2 2.680059 1_545
Ag0_5 B1_3 2.680059 1_545
Ag0_5 B0_5 2.680059 1_555
Ag0_5 B1_2 2.680059 1_545
Ag0_5 Ag0_7 3.026804 1_545
Ag0_5 Ag0_7 3.026804 1_555
Ag0_6 B1_4 2.680057 1_555
Ag0_6 B1_5 2.680057 1_554
Ag0_6 B0_3 2.680057 1_554
Ag0_6 B0_2 2.680057 1_555
Ag0_6 B0_6 2.680059 1_555
Ag0_6 B0_0 2.680059 1_555
Ag0_6 B1_7 2.680059 1_554
Ag0_6 B0_1 2.680059 1_554
Ag0_6 B1_1 2.680059 1_554
Ag0_6 B1_0 2.680059 1_555
Ag0_6 B1_6 2.680059 1_555
Ag0_6 B0_7 2.680059 1_554
Ag0_7 B1_4 2.680057 1_555
Ag0_7 B1_5 2.680057 1_555
Ag0_7 B0_3 2.680057 1_555
Ag0_7 B0_2 2.680057 1_555
Ag0_7 B0_6 2.680059 1_555
Ag0_7 B0_0 2.680059 1_555
Ag0_7 B0_1 2.680059 1_555
Ag0_7 B0_7 2.680059 1_555
Ag0_7 B1_7 2.680059 1_555
Ag0_7 B1_0 2.680059 1_555
Ag0_7 B1_1 2.680059 1_555
Ag0_7 B1_6 2.680059 1_555
B0_0 B1_4 1.747524 1_555
B0_0 B1_2 1.747524 1_545
B0_0 B1_0 1.747529 1_555
B0_1 B1_5 1.747524 1_555
B0_1 B1_3 1.747524 1_545
B0_1 B1_1 1.747529 1_555
B0_2 B1_0 1.747524 1_555
B0_2 B1_6 1.747524 1_555
B0_2 B1_2 1.747529 1_555
B0_3 B1_1 1.747524 1_555
B0_3 B1_7 1.747524 1_555
B0_3 B1_3 1.747529 1_555
B0_4 B1_6 1.747524 1_545
B0_4 B1_0 1.747524 1_655
B0_4 B1_4 1.747529 1_555
B0_5 B1_7 1.747524 1_545
B0_5 B1_1 1.747524 1_655
B0_5 B1_5 1.747529 1_555
B0_6 B1_2 1.747524 1_655
B0_6 B1_4 1.747524 1_555
B0_6 B1_6 1.747529 1_555
B0_7 B1_3 1.747524 1_655
B0_7 B1_5 1.747524 1_555
B0_7 B1_7 1.747529 1_555
