# generated using pymatgen
data_ZnSnO3
_symmetry_space_group_name_H-M   'P 1'
_cell_length_a   5.38052800
_cell_length_b   5.40772400
_cell_length_c   7.94017600
_cell_angle_alpha   90.00000000
_cell_angle_beta   90.00000000
_cell_angle_gamma   90.00000000
_symmetry_Int_Tables_number   1
_chemical_formula_structural   ZnSnO3
_chemical_formula_sum   'Zn4 Sn4 O12'
_cell_volume   231.03061953
_cell_formula_units_Z   4
loop_
 _symmetry_equiv_pos_site_id
 _symmetry_equiv_pos_as_xyz
  1  'x, y, z'
loop_
 _atom_site_type_symbol
 _atom_site_label
 _atom_site_symmetry_multiplicity
 _atom_site_fract_x
 _atom_site_fract_y
 _atom_site_fract_z
 _atom_site_occupancy
  Zn  Zn0  1  0.00583400  0.03004400  0.75000000  1
  Zn  Zn1  1  0.50583400  0.46995600  0.25000000  1
  Zn  Zn2  1  0.49416600  0.53004400  0.75000000  1
  Zn  Zn3  1  0.99416600  0.96995600  0.25000000  1
  Sn  Sn0  1  0.50000000  0.00000000  0.50000000  1
  Sn  Sn1  1  0.00000000  0.50000000  0.50000000  1
  Sn  Sn2  1  0.00000000  0.50000000  0.00000000  1
  Sn  Sn3  1  0.50000000  0.00000000  0.00000000  1
  O  O0  1  0.87161300  0.59503600  0.25000000  1
  O  O1  1  0.37161300  0.90496400  0.75000000  1
  O  O2  1  0.62838700  0.09503600  0.25000000  1
  O  O3  1  0.12838700  0.40496400  0.75000000  1
  O  O4  1  0.67005500  0.32543400  0.92858100  1
  O  O5  1  0.17005500  0.17456600  0.07141900  1
  O  O6  1  0.82994500  0.82543400  0.57141900  1
  O  O7  1  0.32994500  0.67456600  0.42858100  1
  O  O8  1  0.67005500  0.32543400  0.57141900  1
  O  O9  1  0.17005500  0.17456600  0.42858100  1
  O  O10  1  0.32994500  0.67456600  0.07141900  1
  O  O11  1  0.82994500  0.82543400  0.92858100  1
loop_
_geom_bond_atom_site_label_1
_geom_bond_atom_site_label_2
_geom_bond_distance
_geom_bond_site_symmetry_2
O0 Zn1 2.081074 1_555
O0 Zn3 2.131999 1_555
O0 Sn1 2.163727 1_655
O0 Sn2 2.163727 1_655
O1 Zn0 2.081074 1_565
O1 Zn2 2.131999 1_555
O1 Sn3 2.163727 1_566
O1 Sn0 2.163727 1_565
O2 Zn3 2.081074 1_545
O2 Zn1 2.131999 1_555
O2 Sn0 2.163727 1_555
O2 Sn3 2.163727 1_555
O3 Zn2 2.081074 1_555
O3 Zn0 2.131999 1_555
O3 Sn1 2.163727 1_555
O3 Sn2 2.163727 1_556
O4 Zn2 2.032372 1_555
O4 Sn3 2.062977 1_556
O4 Sn2 2.089100 1_656
O5 Zn3 2.032372 1_445
O5 Sn2 2.062977 1_555
O5 Sn3 2.089100 1_555
O6 Zn0 2.032372 1_665
O6 Sn1 2.062977 1_655
O6 Sn0 2.089100 1_565
O7 Zn1 2.032372 1_555
O7 Sn0 2.062977 1_565
O7 Sn1 2.089100 1_555
O8 Zn2 2.032372 1_555
O8 Sn0 2.062977 1_555
O8 Sn1 2.089100 1_655
O9 Zn3 2.032372 1_445
O9 Sn1 2.062977 1_555
O9 Sn0 2.089100 1_555
O10 Zn1 2.032372 1_555
O10 Sn3 2.062977 1_565
O10 Sn2 2.089100 1_555
O11 Zn0 2.032372 1_665
O11 Sn2 2.062977 1_656
O11 Sn3 2.089100 1_566
