# generated using pymatgen
data_Na4Ca7MnSi12(HO9)4
_symmetry_space_group_name_H-M   'P 1'
_cell_length_a   7.07898600
_cell_length_b   9.49647981
_cell_length_c   11.81272878
_cell_angle_alpha   82.41060667
_cell_angle_beta   86.87868214
_cell_angle_gamma   85.20437716
_symmetry_Int_Tables_number   1
_chemical_formula_structural   Na4Ca7MnSi12(HO9)4
_chemical_formula_sum   'Na4 Ca7 Mn1 Si12 H4 O36'
_cell_volume   783.64606394
_cell_formula_units_Z   1
loop_
 _symmetry_equiv_pos_site_id
 _symmetry_equiv_pos_as_xyz
  1  'x, y, z'
loop_
 _atom_site_type_symbol
 _atom_site_label
 _atom_site_symmetry_multiplicity
 _atom_site_fract_x
 _atom_site_fract_y
 _atom_site_fract_z
 _atom_site_occupancy
  Na  Na0  1  0.34082600  0.59948700  0.84849600  1
  Na  Na1  1  0.34222700  0.09843500  0.35060800  1
  Na  Na2  1  0.65785300  0.40170900  0.14963600  1
  Na  Na3  1  0.65748100  0.90152600  0.64918500  1
  Ca  Ca0  1  0.14203900  0.27818300  0.86919400  1
  Ca  Ca1  1  0.14239600  0.77459700  0.37348800  1
  Ca  Ca2  1  0.85781100  0.72299500  0.12878500  1
  Ca  Ca3  1  0.85925900  0.22458500  0.62909000  1
  Ca  Ca4  1  0.14063900  0.03383200  0.11843800  1
  Ca  Ca5  1  0.86021100  0.46666000  0.38336900  1
  Ca  Ca6  1  0.85957500  0.96556900  0.88128000  1
  Mn  Mn0  1  0.14482100  0.53526300  0.61940600  1
  Si  Si0  1  0.14391100  0.40706300  0.14356800  1
  Si  Si1  1  0.14449100  0.90332000  0.64403000  1
  Si  Si2  1  0.85659100  0.59381000  0.85336400  1
  Si  Si3  1  0.85589100  0.09336300  0.35697600  1
  Si  Si4  1  0.33626600  0.68885700  0.09148400  1
  Si  Si5  1  0.33528300  0.18939000  0.59133700  1
  Si  Si6  1  0.66474600  0.31113200  0.90808200  1
  Si  Si7  1  0.66373700  0.81096100  0.40829600  1
  Si  Si8  1  0.34632000  0.41752000  0.37257900  1
  Si  Si9  1  0.34697700  0.91732600  0.87000500  1
  Si  Si10  1  0.65096600  0.58315700  0.62975700  1
  Si  Si11  1  0.65335200  0.08295700  0.12997300  1
  H  H0  1  0.53275100  0.59514900  0.23794300  1
  H  H1  1  0.53273200  0.09538000  0.73757400  1
  H  H2  1  0.46507300  0.40480500  0.76152500  1
  H  H3  1  0.46663600  0.90463200  0.26234200  1
  O  O0  1  0.17372400  0.77315500  0.16337400  1
  O  O1  1  0.17396700  0.27815700  0.66109000  1
  O  O2  1  0.82669800  0.22545900  0.83684100  1
  O  O3  1  0.82651800  0.72632500  0.33684200  1
  O  O4  1  0.26914500  0.53297500  0.06582500  1
  O  O5  1  0.26708200  0.03224500  0.56706500  1
  O  O6  1  0.73603000  0.46601100  0.93263300  1
  O  O7  1  0.73093000  0.96682900  0.43387100  1
  O  O8  1  0.54145700  0.65509600  0.15431200  1
  O  O9  1  0.54054700  0.15555100  0.65432200  1
  O  O10  1  0.45927500  0.34605300  0.84513800  1
  O  O11  1  0.45820900  0.84460500  0.34571100  1
  O  O12  1  0.38653200  0.77309100  0.96420000  1
  O  O13  1  0.38807600  0.27095200  0.46357000  1
  O  O14  1  0.61335800  0.22744800  0.03559400  1
  O  O15  1  0.61320200  0.72730600  0.53548800  1
  O  O16  1  0.54270600  0.48995200  0.33496500  1
  O  O17  1  0.54397000  0.98923000  0.83421600  1
  O  O18  1  0.45087900  0.51187700  0.66273200  1
  O  O19  1  0.45633600  0.01105900  0.16585100  1
  O  O20  1  0.17860700  0.52144600  0.42596700  1
  O  O21  1  0.17782800  0.02364300  0.91774800  1
  O  O22  1  0.82536900  0.47878800  0.58413100  1
  O  O23  1  0.82211500  0.97691300  0.08164200  1
  O  O24  1  0.05501500  0.52047600  0.80261300  1
  O  O25  1  0.05516100  0.01737000  0.31237900  1
  O  O26  1  0.94458200  0.48234600  0.18875200  1
  O  O27  1  0.94496900  0.98031500  0.68748800  1
  O  O28  1  0.27489200  0.35041700  0.25860200  1
  O  O29  1  0.27796300  0.84725500  0.75751400  1
  O  O30  1  0.71547700  0.65250000  0.74397600  1
  O  O31  1  0.72308200  0.15221100  0.24301100  1
  O  O32  1  0.12662500  0.27941000  0.06814000  1
  O  O33  1  0.12800000  0.77089600  0.57245900  1
  O  O34  1  0.87720400  0.71957000  0.93028600  1
  O  O35  1  0.87360800  0.22140400  0.43184000  1
loop_
_geom_bond_atom_site_label_1
_geom_bond_atom_site_label_2
_geom_bond_distance
_geom_bond_site_symmetry_2
Na0 O12 2.328797 1_555
Na0 O24 2.330447 1_555
Na0 O29 2.469494 1_555
Na0 O10 2.486198 1_555
Na0 O18 2.510407 1_555
Na0 O4 2.594341 1_556
Na0 O30 2.917912 1_555
Na1 O13 2.298588 1_555
Na1 O25 2.319373 1_555
Na1 O11 2.487702 1_545
Na1 O19 2.505703 1_555
Na1 O28 2.512634 1_555
Na1 O5 2.588300 1_555
Na1 O31 2.971639 1_555
Na2 O14 2.318369 1_555
Na2 O26 2.318465 1_555
Na2 O8 2.484112 1_555
Na2 O31 2.495175 1_555
Na2 O16 2.517041 1_555
Na2 O6 2.595901 1_554
Na3 O27 2.313133 1_555
Na3 O15 2.314929 1_555
Na3 O30 2.490630 1_555
Na3 O9 2.491507 1_565
Na3 O17 2.508872 1_555
Na3 O7 2.572411 1_555
Na3 O29 2.967136 1_555
Ca0 O32 2.348209 1_556
Ca0 O24 2.372786 1_555
Ca0 O10 2.379814 1_555
Ca0 O2 2.389608 1_455
Ca0 O21 2.404867 1_555
Ca0 O1 2.456390 1_555
Ca1 O33 2.342787 1_555
Ca1 O25 2.364023 1_565
Ca1 O11 2.378811 1_555
Ca1 O3 2.393091 1_455
Ca1 O20 2.397924 1_555
Ca1 O0 2.481596 1_555
Ca2 O26 2.342399 1_555
Ca2 O34 2.345720 1_554
Ca2 O8 2.374541 1_555
Ca2 O0 2.392513 1_655
Ca2 O23 2.397335 1_555
Ca2 O3 2.459783 1_555
Ca3 O35 2.330819 1_555
Ca3 O27 2.369093 1_545
Ca3 O1 2.386813 1_655
Ca3 O9 2.394021 1_555
Ca3 O22 2.396989 1_555
Ca3 O2 2.453425 1_555
Ca4 O19 2.319128 1_555
Ca4 O32 2.324521 1_555
Ca4 O25 2.325808 1_555
Ca4 O21 2.384793 1_554
Ca4 O23 2.436786 1_445
Ca4 O0 2.456478 1_545
Ca5 O35 2.319078 1_555
Ca5 O26 2.332168 1_555
Ca5 O16 2.334748 1_555
Ca5 O22 2.387893 1_555
Ca5 O20 2.448018 1_655
Ca5 O3 2.448996 1_555
Ca6 O17 2.317194 1_555
Ca6 O27 2.324716 1_555
Ca6 O34 2.325956 1_555
Ca6 O23 2.382854 1_556
Ca6 O21 2.437523 1_665
Ca6 O2 2.448672 1_565
Mn0 O24 2.211866 1_555
Mn0 O33 2.227960 1_555
Mn0 O18 2.239555 1_555
Mn0 O20 2.304403 1_555
Mn0 O1 2.419858 1_555
Mn0 O22 2.437133 1_455
H0 O8 1.074491 1_555
H0 O16 1.418130 1_555
H0 Na2 2.319602 1_555
H1 O9 1.071279 1_555
H1 O17 1.420656 1_545
H1 Na3 2.322617 1_545
H2 O10 1.068820 1_555
H2 O18 1.445047 1_555
H2 Na0 2.319167 1_555
H3 O11 1.072087 1_555
H3 O19 1.420712 1_565
H3 Na1 2.320749 1_565
O0 Si4 1.614041 1_555
O1 Si5 1.616676 1_555
O2 Si6 1.613794 1_555
O3 Si7 1.613916 1_555
O4 Si4 1.661573 1_555
O4 Si0 1.690439 1_555
O5 Si5 1.670597 1_555
O5 Si1 1.695993 1_545
O6 Si6 1.659736 1_555
O6 Si2 1.692361 1_555
O7 Si7 1.661324 1_555
O7 Si3 1.689206 1_565
O8 Si4 1.655346 1_555
O9 Si5 1.656723 1_555
O10 Si6 1.658453 1_555
O11 Si7 1.656045 1_555
O12 Si4 1.642819 1_556
O12 Si9 1.661286 1_555
O13 Si5 1.641858 1_555
O13 Si8 1.658505 1_555
O14 Si6 1.644747 1_554
O14 Si11 1.664705 1_555
O15 Si7 1.640197 1_555
O15 Si10 1.659516 1_555
O16 Si8 1.617141 1_555
O17 Si9 1.615058 1_555
O18 Si10 1.626881 1_555
O19 Si11 1.615343 1_555
O20 Si8 1.633478 1_555
O21 Si9 1.626634 1_545
O22 Si10 1.631291 1_555
O23 Si11 1.625964 1_565
O24 Si2 1.634759 1_455
O25 Si3 1.624035 1_455
O26 Si0 1.623933 1_655
O27 Si1 1.624988 1_655
O28 Si8 1.682001 1_555
O28 Si0 1.690071 1_555
O29 Si9 1.675075 1_555
O29 Si1 1.684811 1_555
O30 Si10 1.677709 1_555
O30 Si2 1.683887 1_555
O31 Si11 1.678453 1_555
O31 Si3 1.691097 1_555
O32 Si0 1.612582 1_555
O33 Si1 1.620497 1_555
O34 Si2 1.613529 1_555
O35 Si3 1.611808 1_555
