# generated using pymatgen
data_Yb2(SO4)3
_symmetry_space_group_name_H-M   'P 1'
_cell_length_a   13.44995736
_cell_length_b   13.44995736
_cell_length_c   13.44995667
_cell_angle_alpha   87.59211742
_cell_angle_beta   87.59211742
_cell_angle_gamma   87.59211297
_symmetry_Int_Tables_number   1
_chemical_formula_structural   Yb2(SO4)3
_chemical_formula_sum   'Yb16 S24 O96'
_cell_volume   2426.84566217
_cell_formula_units_Z   8
loop_
 _symmetry_equiv_pos_site_id
 _symmetry_equiv_pos_as_xyz
  1  'x, y, z'
loop_
 _atom_site_type_symbol
 _atom_site_label
 _atom_site_symmetry_multiplicity
 _atom_site_fract_x
 _atom_site_fract_y
 _atom_site_fract_z
 _atom_site_occupancy
  Yb  Yb0  1  0.64978300  0.64978300  0.64978300  1
  Yb  Yb1  1  0.14978300  0.14978300  0.14978300  1
  Yb  Yb2  1  0.13644200  0.13806200  0.65056900  1
  Yb  Yb3  1  0.65056900  0.13644200  0.13806200  1
  Yb  Yb4  1  0.13806200  0.65056900  0.13644200  1
  Yb  Yb5  1  0.15056900  0.63806200  0.63644200  1
  Yb  Yb6  1  0.63644200  0.15056900  0.63806200  1
  Yb  Yb7  1  0.63806200  0.63644200  0.15056900  1
  Yb  Yb8  1  0.36591000  0.36591000  0.36591000  1
  Yb  Yb9  1  0.86591000  0.86591000  0.86591000  1
  Yb  Yb10  1  0.85865000  0.84772000  0.36711800  1
  Yb  Yb11  1  0.36711800  0.85865000  0.84772000  1
  Yb  Yb12  1  0.84772000  0.36711800  0.85865000  1
  Yb  Yb13  1  0.86711800  0.34772000  0.35865000  1
  Yb  Yb14  1  0.35865000  0.86711800  0.34772000  1
  Yb  Yb15  1  0.34772000  0.35865000  0.86711800  1
  S  S0  1  0.76468300  0.61722300  0.89728600  1
  S  S1  1  0.89728600  0.76468300  0.61722300  1
  S  S2  1  0.61722300  0.89728600  0.76468300  1
  S  S3  1  0.39728600  0.11722300  0.26468300  1
  S  S4  1  0.26468300  0.39728600  0.11722300  1
  S  S5  1  0.11722300  0.26468300  0.39728600  1
  S  S6  1  0.24827000  0.10339500  0.89915500  1
  S  S7  1  0.89915500  0.24827000  0.10339500  1
  S  S8  1  0.10339500  0.89915500  0.24827000  1
  S  S9  1  0.39915500  0.60339500  0.74827000  1
  S  S10  1  0.74827000  0.39915500  0.60339500  1
  S  S11  1  0.60339500  0.74827000  0.39915500  1
  S  S12  1  0.75948200  0.10255100  0.39120000  1
  S  S13  1  0.39120000  0.75948200  0.10255100  1
  S  S14  1  0.10255100  0.39120000  0.75948200  1
  S  S15  1  0.89120000  0.60255100  0.25948200  1
  S  S16  1  0.25948200  0.89120000  0.60255100  1
  S  S17  1  0.60255100  0.25948200  0.89120000  1
  S  S18  1  0.25267600  0.61807100  0.37791400  1
  S  S19  1  0.37791400  0.25267600  0.61807100  1
  S  S20  1  0.61807100  0.37791400  0.25267600  1
  S  S21  1  0.87791400  0.11807100  0.75267600  1
  S  S22  1  0.75267600  0.87791400  0.11807100  1
  S  S23  1  0.11807100  0.75267600  0.87791400  1
  O  O0  1  0.70203400  0.61152100  0.80992900  1
  O  O1  1  0.80992900  0.70203400  0.61152100  1
  O  O2  1  0.61152100  0.80992900  0.70203400  1
  O  O3  1  0.30992900  0.11152100  0.20203400  1
  O  O4  1  0.20203400  0.30992900  0.11152100  1
  O  O5  1  0.11152100  0.20203400  0.30992900  1
  O  O6  1  0.18326400  0.10513700  0.81247900  1
  O  O7  1  0.81247900  0.18326400  0.10513700  1
  O  O8  1  0.10513700  0.81247900  0.18326400  1
  O  O9  1  0.31247900  0.60513700  0.68326400  1
  O  O10  1  0.68326400  0.31247900  0.60513700  1
  O  O11  1  0.60513700  0.68326400  0.31247900  1
  O  O12  1  0.70424800  0.10405600  0.29803500  1
  O  O13  1  0.29803500  0.70424800  0.10405600  1
  O  O14  1  0.10405600  0.29803500  0.70424800  1
  O  O15  1  0.79803500  0.60405600  0.20424800  1
  O  O16  1  0.20424800  0.79803500  0.60405600  1
  O  O17  1  0.60405600  0.20424800  0.79803500  1
  O  O18  1  0.17795300  0.62812500  0.29963300  1
  O  O19  1  0.29963300  0.17795300  0.62812500  1
  O  O20  1  0.62812500  0.29963300  0.17795300  1
  O  O21  1  0.79963300  0.12812500  0.67795300  1
  O  O22  1  0.67795300  0.79963300  0.12812500  1
  O  O23  1  0.12812500  0.67795300  0.79963300  1
  O  O24  1  0.33310800  0.37888600  0.20071300  1
  O  O25  1  0.20071300  0.33310800  0.37888600  1
  O  O26  1  0.37888600  0.20071300  0.33310800  1
  O  O27  1  0.70071300  0.87888600  0.83310800  1
  O  O28  1  0.83310800  0.70071300  0.87888600  1
  O  O29  1  0.87888600  0.83310800  0.70071300  1
  O  O30  1  0.81305700  0.87292500  0.20717600  1
  O  O31  1  0.20717600  0.81305700  0.87292500  1
  O  O32  1  0.87292500  0.20717600  0.81305700  1
  O  O33  1  0.70717600  0.37292500  0.31305700  1
  O  O34  1  0.31305700  0.70717600  0.37292500  1
  O  O35  1  0.37292500  0.31305700  0.70717600  1
  O  O36  1  0.33115900  0.88567800  0.68344000  1
  O  O37  1  0.68344000  0.33115900  0.88567800  1
  O  O38  1  0.88567800  0.68344000  0.33115900  1
  O  O39  1  0.18344000  0.38567800  0.83115900  1
  O  O40  1  0.83115900  0.18344000  0.38567800  1
  O  O41  1  0.38567800  0.83115900  0.18344000  1
  O  O42  1  0.80137200  0.39865900  0.69746300  1
  O  O43  1  0.69746300  0.80137200  0.39865900  1
  O  O44  1  0.39865900  0.69746300  0.80137200  1
  O  O45  1  0.19746300  0.89865900  0.30137200  1
  O  O46  1  0.30137200  0.19746300  0.89865900  1
  O  O47  1  0.89865900  0.30137200  0.19746300  1
  O  O48  1  0.59100400  0.68722700  0.49231200  1
  O  O49  1  0.49231200  0.59100400  0.68722700  1
  O  O50  1  0.68722700  0.49231200  0.59100400  1
  O  O51  1  0.99231200  0.18722700  0.09100400  1
  O  O52  1  0.09100400  0.99231200  0.18722700  1
  O  O53  1  0.18722700  0.09100400  0.99231200  1
  O  O54  1  0.13477400  0.20153300  0.48805100  1
  O  O55  1  0.48805100  0.13477400  0.20153300  1
  O  O56  1  0.20153300  0.48805100  0.13477400  1
  O  O57  1  0.98805100  0.70153300  0.63477400  1
  O  O58  1  0.63477400  0.98805100  0.70153300  1
  O  O59  1  0.70153300  0.63477400  0.98805100  1
  O  O60  1  0.61698400  0.18827100  0.97660500  1
  O  O61  1  0.97660500  0.61698400  0.18827100  1
  O  O62  1  0.18827100  0.97660500  0.61698400  1
  O  O63  1  0.47660500  0.68827100  0.11698400  1
  O  O64  1  0.11698400  0.47660500  0.68827100  1
  O  O65  1  0.68827100  0.11698400  0.47660500  1
  O  O66  1  0.10714100  0.70082900  0.97650700  1
  O  O67  1  0.97650700  0.10714100  0.70082900  1
  O  O68  1  0.70082900  0.97650700  0.10714100  1
  O  O69  1  0.47650700  0.20082900  0.60714100  1
  O  O70  1  0.60714100  0.47650700  0.20082900  1
  O  O71  1  0.20082900  0.60714100  0.47650700  1
  O  O72  1  0.35849800  0.31886500  0.52987500  1
  O  O73  1  0.52987500  0.35849800  0.31886500  1
  O  O74  1  0.31886500  0.52987500  0.35849800  1
  O  O75  1  0.02987500  0.81886500  0.85849800  1
  O  O76  1  0.85849800  0.02987500  0.81886500  1
  O  O77  1  0.81886500  0.85849800  0.02987500  1
  O  O78  1  0.91220700  0.82592200  0.52444600  1
  O  O79  1  0.52444600  0.91220700  0.82592200  1
  O  O80  1  0.82592200  0.52444600  0.91220700  1
  O  O81  1  0.02444600  0.32592200  0.41220700  1
  O  O82  1  0.41220700  0.02444600  0.32592200  1
  O  O83  1  0.32592200  0.41220700  0.02444600  1
  O  O84  1  0.40359800  0.81504100  0.00595400  1
  O  O85  1  0.00595400  0.40359800  0.81504100  1
  O  O86  1  0.81504100  0.00595400  0.40359800  1
  O  O87  1  0.50595400  0.31504100  0.90359800  1
  O  O88  1  0.90359800  0.50595400  0.31504100  1
  O  O89  1  0.31504100  0.90359800  0.50595400  1
  O  O90  1  0.89096200  0.32198700  0.01857900  1
  O  O91  1  0.01857900  0.89096200  0.32198700  1
  O  O92  1  0.32198700  0.01857900  0.89096200  1
  O  O93  1  0.51857900  0.82198700  0.39096200  1
  O  O94  1  0.39096200  0.51857900  0.82198700  1
  O  O95  1  0.82198700  0.39096200  0.51857900  1
loop_
_geom_bond_atom_site_label_1
_geom_bond_atom_site_label_2
_geom_bond_distance
_geom_bond_site_symmetry_2
O0 S0 1.480741 1_555
O0 Yb0 2.324203 1_555
O1 S1 1.480741 1_555
O1 Yb0 2.324203 1_555
O2 S2 1.480741 1_555
O2 Yb0 2.324203 1_555
O3 S3 1.480741 1_555
O3 Yb1 2.324203 1_555
O4 S4 1.480741 1_555
O4 Yb1 2.324203 1_555
O5 S5 1.480741 1_555
O5 Yb1 2.324203 1_555
O6 S6 1.485157 1_555
O6 Yb2 2.312091 1_555
O7 S7 1.485157 1_555
O7 Yb3 2.312092 1_555
O8 S8 1.485157 1_555
O8 Yb4 2.312092 1_555
O9 S9 1.485157 1_555
O9 Yb5 2.312092 1_555
O10 S10 1.485157 1_555
O10 Yb6 2.312092 1_555
O11 S11 1.485157 1_555
O11 Yb7 2.312091 1_555
O12 S12 1.482329 1_555
O12 Yb3 2.316432 1_555
O13 S13 1.482329 1_555
O13 Yb4 2.316432 1_555
O14 S14 1.482329 1_555
O14 Yb2 2.316432 1_555
O15 S15 1.482329 1_555
O15 Yb7 2.316432 1_555
O16 S16 1.482329 1_555
O16 Yb5 2.316432 1_555
O17 S17 1.482329 1_555
O17 Yb6 2.316432 1_555
O18 S18 1.484059 1_555
O18 Yb4 2.286110 1_555
O19 S19 1.484059 1_555
O19 Yb2 2.286110 1_555
O20 S20 1.484059 1_555
O20 Yb3 2.286110 1_555
O21 S21 1.484059 1_555
O21 Yb6 2.286110 1_555
O22 S22 1.484059 1_555
O22 Yb7 2.286110 1_555
O23 S23 1.484059 1_555
O23 Yb5 2.286110 1_555
O24 S4 1.487803 1_555
O24 Yb8 2.281496 1_555
O25 S5 1.487803 1_555
O25 Yb8 2.281496 1_555
O26 S3 1.487803 1_555
O26 Yb8 2.281496 1_555
O27 S2 1.487803 1_555
O27 Yb9 2.281496 1_555
O28 S0 1.487803 1_555
O28 Yb9 2.281496 1_555
O29 S1 1.487803 1_555
O29 Yb9 2.281496 1_555
O30 S22 1.473361 1_555
O30 Yb10 2.269534 1_555
O31 S23 1.473361 1_555
O31 Yb11 2.269534 1_555
O32 S21 1.473361 1_555
O32 Yb12 2.269534 1_555
O33 S20 1.473361 1_555
O33 Yb13 2.269534 1_555
O34 S18 1.473361 1_555
O34 Yb14 2.269534 1_555
O35 S19 1.473361 1_555
O35 Yb15 2.269534 1_555
O36 S16 1.481176 1_555
O36 Yb11 2.292541 1_555
O37 S17 1.481176 1_555
O37 Yb12 2.292541 1_555
O38 S15 1.481176 1_555
O38 Yb10 2.292541 1_555
O39 S14 1.481176 1_555
O39 Yb15 2.292541 1_555
O40 S12 1.481176 1_555
O40 Yb13 2.292541 1_555
O41 S13 1.481176 1_555
O41 Yb14 2.292541 1_555
O42 S10 1.478422 1_555
O42 Yb12 2.298406 1_555
O43 S11 1.478422 1_555
O43 Yb10 2.298406 1_555
O44 S9 1.478422 1_555
O44 Yb11 2.298406 1_555
O45 S8 1.478422 1_555
O45 Yb14 2.298406 1_555
O46 S6 1.478422 1_555
O46 Yb15 2.298406 1_555
O47 S7 1.478422 1_555
O47 Yb13 2.298406 1_555
O48 S11 1.476236 1_555
O48 Yb0 2.319932 1_555
O49 S9 1.476236 1_555
O49 Yb0 2.319933 1_555
O50 S10 1.476236 1_555
O50 Yb0 2.319933 1_555
O51 S7 1.476236 1_555
O51 Yb1 2.319933 1_655
O52 S8 1.476236 1_555
O52 Yb1 2.319933 1_565
O53 S6 1.476236 1_555
O53 Yb1 2.319932 1_556
O54 S5 1.479089 1_555
O54 Yb2 2.313650 1_555
O55 S3 1.479089 1_555
O55 Yb3 2.313650 1_555
O56 S4 1.479089 1_555
O56 Yb4 2.313650 1_555
O57 S1 1.479089 1_555
O57 Yb5 2.313650 1_655
O58 S2 1.479089 1_555
O58 Yb6 2.313650 1_565
O59 S0 1.479089 1_555
O59 Yb7 2.313650 1_556
O60 S17 1.478242 1_555
O60 Yb3 2.309667 1_556
O61 S15 1.478243 1_555
O61 Yb4 2.309667 1_655
O62 S16 1.478242 1_555
O62 Yb2 2.309667 1_565
O63 S13 1.478242 1_555
O63 Yb7 2.309667 1_555
O64 S14 1.478243 1_555
O64 Yb5 2.309667 1_555
O65 S12 1.478242 1_555
O65 Yb6 2.309667 1_555
O66 S23 1.476785 1_555
O66 Yb4 2.277412 1_556
O67 S21 1.476785 1_555
O67 Yb2 2.277412 1_655
O68 S22 1.476785 1_555
O68 Yb3 2.277412 1_565
O69 S19 1.476785 1_555
O69 Yb6 2.277412 1_555
O70 S20 1.476785 1_555
O70 Yb7 2.277412 1_555
O71 S18 1.476785 1_555
O71 Yb5 2.277412 1_555
O72 S19 1.478388 1_555
O72 Yb8 2.267892 1_555
O73 S20 1.478388 1_555
O73 Yb8 2.267892 1_555
O74 S18 1.478388 1_555
O74 Yb8 2.267892 1_555
O75 S23 1.478388 1_555
O75 Yb9 2.267892 1_455
O76 S21 1.478388 1_555
O76 Yb9 2.267892 1_545
O77 S22 1.478388 1_555
O77 Yb9 2.267892 1_554
O78 S1 1.477261 1_555
O78 Yb10 2.267319 1_555
O79 S2 1.477261 1_555
O79 Yb11 2.267320 1_555
O80 S0 1.477261 1_555
O80 Yb12 2.267319 1_555
O81 S5 1.477261 1_555
O81 Yb13 2.267319 1_455
O82 S3 1.477261 1_555
O82 Yb14 2.267320 1_545
O83 S4 1.477261 1_555
O83 Yb15 2.267319 1_554
O84 S13 1.478137 1_555
O84 Yb11 2.252299 1_554
O85 S14 1.478137 1_555
O85 Yb12 2.252299 1_455
O86 S12 1.478137 1_555
O86 Yb10 2.252299 1_545
O87 S17 1.478137 1_555
O87 Yb15 2.252299 1_555
O88 S15 1.478137 1_555
O88 Yb13 2.252299 1_555
O89 S16 1.478137 1_555
O89 Yb14 2.252299 1_555
O90 S7 1.484217 1_555
O90 Yb12 2.302049 1_554
O91 S8 1.484217 1_555
O91 Yb10 2.302050 1_455
O92 S6 1.484217 1_555
O92 Yb11 2.302049 1_545
O93 S11 1.484217 1_555
O93 Yb14 2.302049 1_555
O94 S9 1.484217 1_555
O94 Yb15 2.302050 1_555
O95 S10 1.484217 1_555
O95 Yb13 2.302049 1_555
