# generated using pymatgen
data_Al2PO8
_symmetry_space_group_name_H-M   'P 1'
_cell_length_a   7.77573500
_cell_length_b   7.98833100
_cell_length_c   10.03074100
_cell_angle_alpha   90.00000000
_cell_angle_beta   90.00000000
_cell_angle_gamma   90.00000000
_symmetry_Int_Tables_number   1
_chemical_formula_structural   Al2PO8
_chemical_formula_sum   'Al8 P4 O32'
_cell_volume   623.06093115
_cell_formula_units_Z   4
loop_
 _symmetry_equiv_pos_site_id
 _symmetry_equiv_pos_as_xyz
  1  'x, y, z'
loop_
 _atom_site_type_symbol
 _atom_site_label
 _atom_site_symmetry_multiplicity
 _atom_site_fract_x
 _atom_site_fract_y
 _atom_site_fract_z
 _atom_site_occupancy
  Al  Al0  1  0.96647000  0.50471600  0.70179900  1
  Al  Al1  1  0.03353000  0.00471600  0.29820100  1
  Al  Al2  1  0.46647000  0.00471600  0.79820100  1
  Al  Al3  1  0.53353000  0.50471600  0.20179900  1
  Al  Al4  1  0.84729400  0.87675600  0.85408600  1
  Al  Al5  1  0.15270600  0.37675600  0.14591400  1
  Al  Al6  1  0.34729400  0.37675600  0.64591400  1
  Al  Al7  1  0.65270600  0.87675600  0.35408600  1
  P  P0  1  0.81337000  0.52187900  0.98312400  1
  P  P1  1  0.18663000  0.02187900  0.01687600  1
  P  P2  1  0.31337000  0.02187900  0.51687600  1
  P  P3  1  0.68663000  0.52187900  0.48312400  1
  O  O0  1  0.79131100  0.71446700  0.97769000  1
  O  O1  1  0.20868900  0.21446700  0.02231000  1
  O  O2  1  0.29131100  0.21446700  0.52231000  1
  O  O3  1  0.70868900  0.71446700  0.47769000  1
  O  O4  1  0.66127500  0.44835900  0.06121000  1
  O  O5  1  0.33872500  0.94835900  0.93879000  1
  O  O6  1  0.16127500  0.94835900  0.43879000  1
  O  O7  1  0.83872500  0.44835900  0.56121000  1
  O  O8  1  0.81853500  0.44745600  0.84013800  1
  O  O9  1  0.18146500  0.94745600  0.15986200  1
  O  O10  1  0.31853500  0.94745600  0.65986200  1
  O  O11  1  0.68146500  0.44745600  0.34013800  1
  O  O12  1  0.98465700  0.47970600  0.05070500  1
  O  O13  1  0.01534300  0.97970600  0.94929500  1
  O  O14  1  0.48465700  0.97970600  0.44929500  1
  O  O15  1  0.51534300  0.47970600  0.55070500  1
  O  O16  1  0.96401900  0.71651000  0.76039300  1
  O  O17  1  0.03598100  0.21651000  0.23960700  1
  O  O18  1  0.46401900  0.21651000  0.73960700  1
  O  O19  1  0.53598100  0.71651000  0.26039300  1
  O  O20  1  0.67285800  0.04024000  0.90127400  1
  O  O21  1  0.32714200  0.54024000  0.09872600  1
  O  O22  1  0.17285800  0.54024000  0.59872600  1
  O  O23  1  0.82714200  0.04024000  0.40127400  1
  O  O24  1  0.63724400  0.85629800  0.75531100  1
  O  O25  1  0.36275600  0.35629800  0.24468900  1
  O  O26  1  0.13724400  0.35629800  0.74468900  1
  O  O27  1  0.86275600  0.85629800  0.25531100  1
  O  O28  1  0.86589600  0.02801300  0.70779000  1
  O  O29  1  0.13410400  0.52801300  0.29221000  1
  O  O30  1  0.36589600  0.52801300  0.79221000  1
  O  O31  1  0.63410400  0.02801300  0.20779000  1
loop_
_geom_bond_atom_site_label_1
_geom_bond_atom_site_label_2
_geom_bond_distance
_geom_bond_site_symmetry_2
Al0 O7 1.782707 1_555
Al0 O16 1.791162 1_555
Al0 O26 1.831411 1_655
Al0 O8 1.859563 1_555
Al0 O22 1.930005 1_655
Al1 O6 1.782707 1_545
Al1 O17 1.791162 1_555
Al1 O27 1.831411 1_445
Al1 O9 1.859563 1_545
Al1 O23 1.930005 1_455
Al2 O5 1.782707 1_545
Al2 O18 1.791162 1_555
Al2 O24 1.831411 1_545
Al2 O10 1.859563 1_545
Al2 O20 1.930005 1_555
Al3 O4 1.782707 1_555
Al3 O19 1.791162 1_555
Al3 O25 1.831411 1_555
Al3 O11 1.859563 1_555
Al3 O21 1.930005 1_555
Al4 O13 1.815454 1_655
Al4 O16 1.829118 1_555
Al4 O0 1.845914 1_555
Al4 O28 1.906389 1_565
Al4 O24 1.917293 1_555
Al4 O20 1.941473 1_565
Al5 O12 1.815454 1_455
Al5 O17 1.829118 1_555
Al5 O1 1.845914 1_555
Al5 O29 1.906389 1_555
Al5 O25 1.917293 1_555
Al5 O21 1.941473 1_555
Al6 O15 1.815454 1_555
Al6 O18 1.829118 1_555
Al6 O2 1.845914 1_555
Al6 O30 1.906389 1_555
Al6 O26 1.917293 1_555
Al6 O22 1.941473 1_555
Al7 O14 1.815454 1_555
Al7 O19 1.829118 1_555
Al7 O3 1.845914 1_555
Al7 O31 1.906389 1_565
Al7 O27 1.917293 1_555
Al7 O23 1.941473 1_565
O0 P0 1.548948 1_555
O1 P1 1.548948 1_555
O2 P2 1.548948 1_555
O3 P3 1.548948 1_555
O4 P0 1.535279 1_554
O5 P1 1.535279 1_566
O6 P2 1.535279 1_565
O7 P3 1.535279 1_555
O8 P0 1.553110 1_555
O9 P1 1.553110 1_565
O10 P2 1.553110 1_565
O11 P3 1.553110 1_555
O12 P0 1.531972 1_554
O13 P1 1.531972 1_566
O14 P2 1.531972 1_565
O15 P3 1.531972 1_555
