# generated using pymatgen
data_Li5Al(Co2O5)2
_symmetry_space_group_name_H-M   'P 1'
_cell_length_a   24.23631640
_cell_length_b   24.23631640
_cell_length_c   24.23631637
_cell_angle_alpha   6.86808492
_cell_angle_beta   6.86808492
_cell_angle_gamma   6.86808722
_symmetry_Int_Tables_number   1
_chemical_formula_structural   Li5Al(Co2O5)2
_chemical_formula_sum   'Li5 Al1 Co4 O10'
_cell_volume   176.52052621
_cell_formula_units_Z   1
loop_
 _symmetry_equiv_pos_site_id
 _symmetry_equiv_pos_as_xyz
  1  'x, y, z'
loop_
 _atom_site_type_symbol
 _atom_site_label
 _atom_site_symmetry_multiplicity
 _atom_site_fract_x
 _atom_site_fract_y
 _atom_site_fract_z
 _atom_site_occupancy
  Li  Li0  1  0.39999000  0.39999000  0.39999000  1
  Li  Li1  1  0.60001000  0.60001000  0.60001000  1
  Li  Li2  1  0.00000000  0.00000000  0.00000000  1
  Li  Li3  1  0.80044800  0.80044800  0.80044800  1
  Li  Li4  1  0.19955200  0.19955200  0.19955200  1
  Al  Al0  1  0.50000000  0.50000000  0.50000000  1
  Co  Co0  1  0.89992100  0.89992100  0.89992100  1
  Co  Co1  1  0.30001200  0.30001200  0.30001200  1
  Co  Co2  1  0.69998800  0.69998800  0.69998800  1
  Co  Co3  1  0.10007900  0.10007900  0.10007900  1
  O  O0  1  0.75093500  0.75093500  0.75093500  1
  O  O1  1  0.95132900  0.95132900  0.95132900  1
  O  O2  1  0.35120300  0.35120300  0.35120300  1
  O  O3  1  0.15260300  0.15260300  0.15260300  1
  O  O4  1  0.55085500  0.55085500  0.55085500  1
  O  O5  1  0.44914500  0.44914500  0.44914500  1
  O  O6  1  0.64879700  0.64879700  0.64879700  1
  O  O7  1  0.04867100  0.04867100  0.04867100  1
  O  O8  1  0.84739700  0.84739700  0.84739700  1
  O  O9  1  0.24906500  0.24906500  0.24906500  1
loop_
_geom_bond_atom_site_label_1
_geom_bond_atom_site_label_2
_geom_bond_distance
_geom_bond_site_symmetry_2
Li0 O0 2.107600 1_554
Li0 O0 2.107600 1_545
Li0 O0 2.107600 1_455
Li0 O7 2.124152 1_556
Li0 O7 2.124153 1_565
Li0 O7 2.124153 1_655
Li1 O9 2.107600 1_556
Li1 O9 2.107600 1_655
Li1 O9 2.107600 1_565
Li1 O1 2.124152 1_554
Li1 O1 2.124153 1_545
Li1 O1 2.124153 1_455
Li2 O2 2.118995 1_554
Li2 O6 2.118995 1_445
Li2 O2 2.118995 1_545
Li2 O2 2.118995 1_455
Li2 O6 2.118995 1_544
Li2 O6 2.118995 1_454
Li3 O5 2.123440 1_556
Li3 O5 2.123440 1_655
Li3 O5 2.123440 1_565
Li3 O3 2.161924 1_665
Li3 O3 2.161925 1_656
Li3 O3 2.161925 1_566
Li4 O4 2.123440 1_554
Li4 O4 2.123440 1_545
Li4 O4 2.123440 1_455
Li4 O8 2.161924 1_445
Li4 O8 2.161925 1_454
Li4 O8 2.161925 1_544
Al0 O8 1.962317 1_554
Al0 O3 1.962317 1_556
Al0 O8 1.962318 1_545
Al0 O8 1.962318 1_455
Al0 O3 1.962318 1_565
Al0 O3 1.962318 1_655
Co0 O4 2.027889 1_556
Co0 O4 2.027890 1_565
Co0 O4 2.027890 1_655
Co0 O9 2.031078 1_665
Co0 O9 2.031079 1_656
Co0 O9 2.031079 1_566
Co1 O1 2.012387 1_445
Co1 O1 2.012387 1_454
Co1 O1 2.012387 1_544
Co1 O6 2.016490 1_554
Co1 O6 2.016490 1_545
Co1 O6 2.016490 1_455
Co2 O7 2.012387 1_665
Co2 O7 2.012387 1_566
Co2 O7 2.012387 1_656
Co2 O2 2.016490 1_556
Co2 O2 2.016490 1_565
Co2 O2 2.016490 1_655
Co3 O5 2.027889 1_554
Co3 O5 2.027890 1_545
Co3 O5 2.027890 1_455
Co3 O0 2.031078 1_445
Co3 O0 2.031079 1_544
Co3 O0 2.031079 1_454
