# generated using pymatgen
data_Pr3(SiNi3)2
_symmetry_space_group_name_H-M   'P 1'
_cell_length_a   7.74902211
_cell_length_b   7.74902211
_cell_length_c   7.74902211
_cell_angle_alpha   109.47122063
_cell_angle_beta   109.47122063
_cell_angle_gamma   109.47122063
_symmetry_Int_Tables_number   1
_chemical_formula_structural   Pr3(SiNi3)2
_chemical_formula_sum   'Pr6 Si4 Ni12'
_cell_volume   358.19441422
_cell_formula_units_Z   2
loop_
 _symmetry_equiv_pos_site_id
 _symmetry_equiv_pos_as_xyz
  1  'x, y, z'
loop_
 _atom_site_type_symbol
 _atom_site_label
 _atom_site_symmetry_multiplicity
 _atom_site_fract_x
 _atom_site_fract_y
 _atom_site_fract_z
 _atom_site_occupancy
  Pr  Pr0  1  0.71658900  0.71658900  0.00000000  1
  Pr  Pr1  1  0.28341100  0.00000000  0.28341100  1
  Pr  Pr2  1  0.00000000  0.28341100  0.28341100  1
  Pr  Pr3  1  0.28341100  0.28341100  0.00000000  1
  Pr  Pr4  1  0.71658900  0.00000000  0.71658900  1
  Pr  Pr5  1  0.00000000  0.71658900  0.71658900  1
  Si  Si0  1  0.00000000  0.00000000  0.50000000  1
  Si  Si1  1  0.00000000  0.50000000  0.00000000  1
  Si  Si2  1  0.50000000  0.00000000  0.00000000  1
  Si  Si3  1  0.50000000  0.50000000  0.50000000  1
  Ni  Ni0  1  0.33070800  0.33070800  0.66141600  1
  Ni  Ni1  1  0.66929200  0.00000000  0.33070800  1
  Ni  Ni2  1  0.00000000  0.66929200  0.33070800  1
  Ni  Ni3  1  0.66929200  0.33070800  0.00000000  1
  Ni  Ni4  1  0.33070800  0.66141600  0.33070800  1
  Ni  Ni5  1  0.00000000  0.33070800  0.66929200  1
  Ni  Ni6  1  0.33070800  0.66929200  0.00000000  1
  Ni  Ni7  1  0.33070800  0.00000000  0.66929200  1
  Ni  Ni8  1  0.66141600  0.33070800  0.33070800  1
  Ni  Ni9  1  0.66929200  0.66929200  0.33858400  1
  Ni  Ni10  1  0.66929200  0.33858400  0.66929200  1
  Ni  Ni11  1  0.33858400  0.66929200  0.66929200  1
loop_
_geom_bond_atom_site_label_1
_geom_bond_atom_site_label_2
_geom_bond_distance
_geom_bond_site_symmetry_2
Pr0 Si0 3.177619 1_665
Pr0 Si2 3.177619 1_565
Pr0 Si1 3.177619 1_655
Pr0 Si3 3.177619 1_554
Pr1 Si2 3.177619 1_555
Pr1 Si1 3.177619 1_545
Pr1 Si3 3.177619 1_555
Pr1 Si0 3.177619 1_555
Pr2 Si0 3.177619 1_555
Pr2 Si3 3.177619 1_555
Pr2 Si2 3.177619 1_455
Pr2 Si1 3.177619 1_555
Pr3 Si2 3.177619 1_555
Pr3 Si3 3.177619 1_555
Pr3 Si0 3.177619 1_554
Pr3 Si1 3.177619 1_555
Pr4 Si3 3.177619 1_545
Pr4 Si0 3.177619 1_655
Pr4 Si1 3.177619 1_656
Pr4 Si2 3.177619 1_556
Pr5 Si3 3.177619 1_455
Pr5 Si1 3.177619 1_556
Pr5 Si0 3.177619 1_565
Pr5 Si2 3.177619 1_566
Ni0 Si3 2.459059 1_555
Ni0 Si0 2.459059 1_555
Ni0 Ni11 2.583648 1_555
Ni0 Ni5 2.583648 1_555
Ni0 Ni7 2.583648 1_555
Ni0 Ni10 2.583648 1_555
Ni0 Pr0 2.888773 1_556
Ni0 Pr3 2.888773 1_556
Ni0 Pr1 2.989219 1_555
Ni0 Pr2 2.989219 1_555
Ni1 Si0 2.459059 1_655
Ni1 Si2 2.459059 1_555
Ni1 Ni8 2.583648 1_555
Ni1 Ni9 2.583648 1_545
Ni1 Ni5 2.583648 1_655
Ni1 Ni6 2.583648 1_545
Ni1 Pr4 2.888773 1_555
Ni1 Pr1 2.888773 1_555
Ni1 Pr0 2.989219 1_545
Ni1 Pr2 2.989219 1_655
Ni2 Si1 2.459059 1_555
Ni2 Si0 2.459059 1_565
Ni2 Ni9 2.583648 1_455
Ni2 Ni4 2.583648 1_555
Ni2 Ni3 2.583648 1_455
Ni2 Ni7 2.583648 1_565
Ni2 Pr5 2.888773 1_555
Ni2 Pr2 2.888773 1_555
Ni2 Pr0 2.989219 1_455
Ni2 Pr1 2.989219 1_565
Ni3 Si1 2.459059 1_655
Ni3 Si2 2.459059 1_555
Ni3 Ni8 2.583648 1_555
Ni3 Ni7 2.583648 1_554
Ni3 Pr0 2.888773 1_555
Ni3 Pr3 2.888773 1_555
Ni3 Pr4 2.989219 1_554
Ni3 Pr2 2.989219 1_655
Ni4 Si3 2.459059 1_555
Ni4 Si1 2.459059 1_555
Ni4 Ni9 2.583648 1_555
Ni4 Ni6 2.583648 1_555
Ni4 Pr4 2.888773 1_565
Ni4 Pr1 2.888773 1_565
Ni4 Pr3 2.989219 1_555
Ni4 Pr2 2.989219 1_555
Ni5 Si1 2.459059 1_556
Ni5 Si0 2.459059 1_555
Ni5 Ni6 2.583648 1_556
Ni5 Pr5 2.888773 1_555
Ni5 Pr2 2.888773 1_555
Ni5 Pr4 2.989219 1_455
Ni5 Pr3 2.989219 1_556
Ni6 Si1 2.459059 1_555
Ni6 Si2 2.459059 1_565
Ni6 Pr0 2.888773 1_555
Ni6 Pr3 2.888773 1_555
Ni6 Pr5 2.989219 1_554
Ni6 Pr1 2.989219 1_565
Ni7 Si2 2.459059 1_556
Ni7 Si0 2.459059 1_555
Ni7 Pr4 2.888773 1_555
Ni7 Pr1 2.888773 1_555
Ni7 Pr5 2.989219 1_545
Ni7 Pr3 2.989219 1_556
Ni8 Si3 2.459059 1_555
Ni8 Si2 2.459059 1_555
Ni8 Ni9 2.583648 1_555
Ni8 Pr5 2.888773 1_655
Ni8 Pr2 2.888773 1_655
Ni8 Pr1 2.989219 1_555
Ni8 Pr3 2.989219 1_555
Ni9 Si3 2.459059 1_555
Ni9 Si0 2.459059 1_665
Ni9 Pr0 2.888773 1_555
Ni9 Pr3 2.888773 1_555
Ni9 Pr5 2.989219 1_655
Ni9 Pr4 2.989219 1_565
Ni10 Si3 2.459059 1_555
Ni10 Si1 2.459059 1_656
Ni10 Ni5 2.583648 1_655
Ni10 Ni8 2.583648 1_555
Ni10 Ni3 2.583648 1_556
Ni10 Pr4 2.888773 1_555
Ni10 Pr1 2.888773 1_555
Ni10 Pr5 2.989219 1_655
Ni10 Pr0 2.989219 1_556
Ni11 Si3 2.459059 1_555
Ni11 Si2 2.459059 1_566
Ni11 Ni6 2.583648 1_556
Ni11 Ni7 2.583648 1_565
Ni11 Ni4 2.583648 1_555
Ni11 Pr5 2.888773 1_555
Ni11 Pr2 2.888773 1_555
Ni11 Pr0 2.989219 1_556
Ni11 Pr4 2.989219 1_565
