# generated using pymatgen
data_NaMg15
_symmetry_space_group_name_H-M   'P 1'
_cell_length_a   6.44395052
_cell_length_b   6.44395052
_cell_length_c   10.39245800
_cell_angle_alpha   90.00000000
_cell_angle_beta   90.00000000
_cell_angle_gamma   120.00000533
_symmetry_Int_Tables_number   1
_chemical_formula_structural   NaMg15
_chemical_formula_sum   'Na1 Mg15'
_cell_volume   373.72597219
_cell_formula_units_Z   1
loop_
 _symmetry_equiv_pos_site_id
 _symmetry_equiv_pos_as_xyz
  1  'x, y, z'
loop_
 _atom_site_type_symbol
 _atom_site_label
 _atom_site_symmetry_multiplicity
 _atom_site_fract_x
 _atom_site_fract_y
 _atom_site_fract_z
 _atom_site_occupancy
  Na  Na0  1  0.00000000  0.00000000  0.50000000  1
  Mg  Mg0  1  0.00000000  0.00000000  0.00000000  1
  Mg  Mg1  1  0.00097000  0.50048500  0.50000000  1
  Mg  Mg2  1  0.99994200  0.49997100  0.00000000  1
  Mg  Mg3  1  0.49951500  0.50048500  0.50000000  1
  Mg  Mg4  1  0.50002900  0.49997100  0.00000000  1
  Mg  Mg5  1  0.49951500  0.99903000  0.50000000  1
  Mg  Mg6  1  0.50002900  0.00005800  0.00000000  1
  Mg  Mg7  1  0.16733500  0.33467000  0.24742600  1
  Mg  Mg8  1  0.16733500  0.33467000  0.75257400  1
  Mg  Mg9  1  0.16733500  0.83266500  0.24742600  1
  Mg  Mg10  1  0.16733500  0.83266500  0.75257400  1
  Mg  Mg11  1  0.66533000  0.83266500  0.24742600  1
  Mg  Mg12  1  0.66533000  0.83266500  0.75257400  1
  Mg  Mg13  1  0.66666700  0.33333300  0.25023000  1
  Mg  Mg14  1  0.66666700  0.33333300  0.74977000  1
loop_
_geom_bond_atom_site_label_1
_geom_bond_atom_site_label_2
_geom_bond_distance
_geom_bond_site_symmetry_2
Mg0 Mg7 3.178065 1_555
Mg0 Mg11 3.178065 1_445
Mg0 Mg12 3.178065 1_444
Mg0 Mg8 3.178065 1_554
Mg0 Mg10 3.178065 1_544
Mg0 Mg9 3.178065 1_545
Mg0 Mg4 3.221975 1_555
Mg0 Mg4 3.221975 1_445
Mg0 Mg6 3.221975 1_555
Mg0 Mg2 3.221975 1_445
Mg0 Mg2 3.221975 1_455
Mg0 Mg6 3.221975 1_455
Mg1 Mg13 3.196611 1_455
Mg1 Mg14 3.196611 1_455
Mg1 Mg5 3.212599 1_555
Mg1 Mg3 3.212599 1_555
Mg1 Mg9 3.213470 1_555
Mg1 Mg10 3.213470 1_555
Mg1 Mg8 3.213470 1_555
Mg1 Mg7 3.213470 1_555
Mg1 Na0 3.221980 1_555
Mg1 Na0 3.221980 1_565
Mg1 Mg5 3.231351 1_445
Mg1 Mg3 3.231351 1_455
Mg2 Mg9 3.171604 1_655
Mg2 Mg7 3.171604 1_655
Mg2 Mg8 3.171604 1_654
Mg2 Mg6 3.221414 1_555
Mg2 Mg4 3.221415 1_555
Mg2 Mg6 3.222536 1_665
Mg2 Mg4 3.222536 1_655
Mg3 Mg5 3.212599 1_555
Mg3 Mg7 3.213470 1_555
Mg3 Mg8 3.213470 1_555
Mg3 Na0 3.221980 1_555
Mg3 Na0 3.221980 1_665
Mg3 Mg5 3.231351 1_545
Mg4 Mg7 3.171604 1_555
Mg4 Mg8 3.171604 1_554
Mg4 Mg6 3.221415 1_555
Mg4 Mg6 3.222536 1_565
Mg5 Mg9 3.213470 1_555
Mg5 Na0 3.221980 1_665
Mg5 Na0 3.221980 1_565
Mg6 Mg9 3.171604 1_545
Mg7 Mg9 3.209055 1_555
Mg7 Na0 3.221505 1_555
Mg7 Mg9 3.234895 1_545
Mg8 Na0 3.221505 1_555
Mg9 Na0 3.221505 1_565
Mg10 Mg2 3.171604 1_456
Mg10 Mg6 3.171604 1_566
Mg10 Mg8 3.209055 1_555
Mg10 Mg12 3.209055 1_555
Mg10 Mg5 3.213470 1_555
Mg10 Na0 3.221505 1_565
Mg10 Mg14 3.222115 1_455
Mg10 Mg14 3.222115 1_565
Mg10 Mg8 3.234895 1_565
Mg10 Mg12 3.234895 1_455
Mg11 Mg4 3.171604 1_555
Mg11 Mg6 3.171604 1_565
Mg11 Mg7 3.209055 1_555
Mg11 Mg9 3.209055 1_555
Mg11 Mg3 3.213470 1_555
Mg11 Mg5 3.213470 1_555
Mg11 Na0 3.221505 1_665
Mg11 Mg13 3.222112 1_565
Mg11 Mg13 3.222119 1_555
Mg11 Mg7 3.234895 1_665
Mg11 Mg9 3.234895 1_655
Mg12 Mg4 3.171604 1_556
Mg12 Mg6 3.171604 1_566
Mg12 Mg8 3.209055 1_555
Mg12 Mg3 3.213470 1_555
Mg12 Mg5 3.213470 1_555
Mg12 Na0 3.221505 1_665
Mg12 Mg14 3.222112 1_565
Mg12 Mg14 3.222119 1_555
Mg12 Mg8 3.234895 1_665
Mg13 Mg5 3.196611 1_545
Mg13 Mg3 3.196614 1_555
Mg13 Mg2 3.197153 1_555
Mg13 Mg6 3.197153 1_555
Mg13 Mg4 3.197157 1_555
Mg13 Mg7 3.222112 1_655
Mg13 Mg9 3.222115 1_545
Mg13 Mg9 3.222115 1_655
Mg13 Mg7 3.222119 1_555
Mg14 Mg5 3.196611 1_545
Mg14 Mg3 3.196614 1_555
Mg14 Mg2 3.197153 1_556
Mg14 Mg6 3.197153 1_556
Mg14 Mg4 3.197157 1_556
Mg14 Mg8 3.222112 1_655
Mg14 Mg8 3.222119 1_555
