# generated using pymatgen
data_MnZn4(IO3)10
_symmetry_space_group_name_H-M   'P 1'
_cell_length_a   5.30504100
_cell_length_b   9.57409430
_cell_length_c   27.94536028
_cell_angle_alpha   90.45955205
_cell_angle_beta   90.04647983
_cell_angle_gamma   90.06573332
_symmetry_Int_Tables_number   1
_chemical_formula_structural   MnZn4(IO3)10
_chemical_formula_sum   'Mn2 Zn8 I20 O60'
_cell_volume   1419.32468803
_cell_formula_units_Z   2
loop_
 _symmetry_equiv_pos_site_id
 _symmetry_equiv_pos_as_xyz
  1  'x, y, z'
loop_
 _atom_site_type_symbol
 _atom_site_label
 _atom_site_symmetry_multiplicity
 _atom_site_fract_x
 _atom_site_fract_y
 _atom_site_fract_z
 _atom_site_occupancy
  Mn  Mn0  1  0.84225400  0.25524700  0.65351700  1
  Mn  Mn1  1  0.84310500  0.25528300  0.45300000  1
  Zn  Zn0  1  0.33421700  0.74572500  0.94684400  1
  Zn  Zn1  1  0.33169900  0.74570200  0.74704100  1
  Zn  Zn2  1  0.33056300  0.74558400  0.54674100  1
  Zn  Zn3  1  0.33307400  0.74554000  0.34653400  1
  Zn  Zn4  1  0.33425000  0.74569200  0.14681600  1
  Zn  Zn5  1  0.83480400  0.25454700  0.85334400  1
  Zn  Zn6  1  0.83523000  0.25475000  0.25289700  1
  Zn  Zn7  1  0.83425800  0.25433900  0.05316200  1
  I  I0  1  0.74204800  0.60002000  0.84614300  1
  I  I1  1  0.73960500  0.60432100  0.64625000  1
  I  I2  1  0.73940200  0.60424900  0.44604800  1
  I  I3  1  0.74188600  0.59999800  0.24593600  1
  I  I4  1  0.74158900  0.59988900  0.04600800  1
  I  I5  1  0.24167600  0.40024900  0.95403900  1
  I  I6  1  0.24522300  0.40139500  0.75531500  1
  I  I7  1  0.24796600  0.40265200  0.55410900  1
  I  I8  1  0.24463400  0.40139300  0.35280700  1
  I  I9  1  0.24177100  0.40023500  0.15400700  1
  I  I10  1  0.26409100  0.93281800  0.84770000  1
  I  I11  1  0.26645700  0.93025900  0.64758800  1
  I  I12  1  0.26680500  0.93033800  0.44723900  1
  I  I13  1  0.26427400  0.93296700  0.24733800  1
  I  I14  1  0.26441500  0.93310500  0.04751500  1
  I  I15  1  0.76448000  0.06694700  0.95252800  1
  I  I16  1  0.76237100  0.06430600  0.75345700  1
  I  I17  1  0.75925400  0.06299900  0.55228300  1
  I  I18  1  0.76133400  0.06562000  0.35133100  1
  I  I19  1  0.76435800  0.06699400  0.15246400  1
  O  O0  1  0.55107600  0.72428000  0.88175800  1
  O  O1  1  0.54929900  0.72976100  0.68167300  1
  O  O2  1  0.55011300  0.72979000  0.48151100  1
  O  O3  1  0.55195400  0.72424600  0.28157900  1
  O  O4  1  0.55144500  0.72420100  0.08170700  1
  O  O5  1  0.05139100  0.27568800  0.91832300  1
  O  O6  1  0.05714500  0.27621800  0.71984300  1
  O  O7  1  0.05679500  0.27672400  0.51952800  1
  O  O8  1  0.05096800  0.27616600  0.31804200  1
  O  O9  1  0.05141300  0.27575200  0.11827400  1
  O  O10  1  0.05413500  0.07872400  0.83110300  1
  O  O11  1  0.05791200  0.07602100  0.63076200  1
  O  O12  1  0.05869900  0.07612400  0.43060100  1
  O  O13  1  0.05480600  0.07889800  0.23095900  1
  O  O14  1  0.05441200  0.07885100  0.03107400  1
  O  O15  1  0.55434100  0.92110700  0.96895300  1
  O  O16  1  0.55368600  0.91844700  0.77050300  1
  O  O17  1  0.55384800  0.91620200  0.56985200  1
  O  O18  1  0.55454300  0.91884600  0.36827700  1
  O  O19  1  0.55434200  0.92114200  0.16893200  1
  O  O20  1  0.62386400  0.43347200  0.86983600  1
  O  O21  1  0.61915700  0.43934400  0.67050100  1
  O  O22  1  0.61938500  0.43921600  0.47045800  1
  O  O23  1  0.62404400  0.43339300  0.26979000  1
  O  O24  1  0.62410500  0.43330300  0.06981700  1
  O  O25  1  0.12401700  0.56663900  0.93019100  1
  O  O26  1  0.12519000  0.56637600  0.73062700  1
  O  O27  1  0.12526900  0.56745200  0.52959900  1
  O  O28  1  0.12407400  0.56763800  0.32918300  1
  O  O29  1  0.12405800  0.56660800  0.13018300  1
  O  O30  1  0.11826900  0.80248100  0.80727200  1
  O  O31  1  0.11876400  0.79987000  0.60731900  1
  O  O32  1  0.11939700  0.79973700  0.40702900  1
  O  O33  1  0.11894100  0.80234900  0.20696800  1
  O  O34  1  0.11948900  0.80254300  0.00706500  1
  O  O35  1  0.61960900  0.19738900  0.99293000  1
  O  O36  1  0.61926300  0.19658100  0.79339200  1
  O  O37  1  0.61342300  0.19475500  0.59177500  1
  O  O38  1  0.61382200  0.19577100  0.39118200  1
  O  O39  1  0.61962700  0.19759800  0.19277400  1
  O  O40  1  0.56216500  0.60250700  0.98938300  1
  O  O41  1  0.56238800  0.60239900  0.78948800  1
  O  O42  1  0.56269400  0.60408500  0.58931200  1
  O  O43  1  0.56233400  0.60413200  0.38915600  1
  O  O44  1  0.56206300  0.60243700  0.18933100  1
  O  O45  1  0.06232400  0.39926900  0.81157300  1
  O  O46  1  0.06892200  0.40128200  0.61065800  1
  O  O47  1  0.06892200  0.39951500  0.40967500  1
  O  O48  1  0.06233300  0.39754300  0.21060300  1
  O  O49  1  0.06224800  0.39750700  0.01060900  1
  O  O50  1  0.10631100  0.87849900  0.90333000  1
  O  O51  1  0.10632200  0.87786900  0.70330100  1
  O  O52  1  0.10652900  0.87838100  0.50305800  1
  O  O53  1  0.10646600  0.87898700  0.30308600  1
  O  O54  1  0.10700800  0.87867500  0.10319800  1
  O  O55  1  0.60697800  0.12134400  0.89682000  1
  O  O56  1  0.60264700  0.11741200  0.69790900  1
  O  O57  1  0.60174600  0.11497300  0.49635900  1
  O  O58  1  0.60599200  0.11905700  0.29526800  1
  O  O59  1  0.60692700  0.12126000  0.09673600  1
loop_
_geom_bond_atom_site_label_1
_geom_bond_atom_site_label_2
_geom_bond_distance
_geom_bond_site_symmetry_2
Mn0 O11 2.155425 1_655
Mn0 O21 2.173692 1_555
Mn0 O37 2.182908 1_555
Mn0 O6 2.182998 1_655
Mn0 O46 2.204688 1_655
Mn0 O56 2.218368 1_555
Mn1 O12 2.151879 1_655
Mn1 O22 2.177076 1_555
Mn1 O38 2.183511 1_555
Mn1 O7 2.184863 1_655
Mn1 O47 2.198463 1_655
Mn1 O57 2.221913 1_555
I0 O20 1.841025 1_555
I0 O41 1.847639 1_555
I0 O0 1.848705 1_555
I1 O21 1.837926 1_555
I1 O42 1.846648 1_555
I1 O1 1.851174 1_555
I2 O22 1.839272 1_555
I2 O43 1.845971 1_555
I2 O2 1.849449 1_555
I3 O23 1.842539 1_555
I3 O3 1.846025 1_555
I3 O44 1.846899 1_555
I4 O24 1.841275 1_555
I4 O40 1.846322 1_554
I4 O4 1.847870 1_555
I5 O25 1.841234 1_555
I5 O49 1.846334 1_556
I5 O5 1.847683 1_555
I6 O6 1.841481 1_555
I6 O26 1.842690 1_555
I6 O45 1.848369 1_555
I7 O7 1.841990 1_555
I7 O27 1.844258 1_555
I7 O46 1.844557 1_555
I8 O28 1.843024 1_555
I8 O47 1.843262 1_555
I8 O8 1.847628 1_555
I9 O29 1.840943 1_555
I9 O48 1.846974 1_555
I9 O9 1.847670 1_555
I10 O50 1.844435 1_555
I10 O30 1.845465 1_555
I10 O10 1.849386 1_565
I11 O11 1.845491 1_565
I11 O51 1.846882 1_555
I11 O31 1.847283 1_555
I12 O12 1.842907 1_565
I12 O32 1.847012 1_555
I12 O52 1.848586 1_555
I13 O33 1.845207 1_555
I13 O53 1.846360 1_555
I13 O13 1.846455 1_565
I14 O54 1.845096 1_555
I14 O34 1.845303 1_555
I14 O14 1.847262 1_565
I15 O55 1.845222 1_555
I15 O35 1.845553 1_555
I15 O15 1.846783 1_545
I16 O56 1.843280 1_555
I16 O36 1.845681 1_555
I16 O16 1.846794 1_545
I17 O37 1.840931 1_555
I17 O57 1.843779 1_555
I17 O17 1.847209 1_545
I18 O38 1.840303 1_555
I18 O58 1.845850 1_555
I18 O18 1.846725 1_545
I19 O39 1.844728 1_555
I19 O59 1.845162 1_555
I19 O19 1.846784 1_545
O0 Zn0 2.161446 1_555
O1 Zn1 2.166145 1_555
O2 Zn2 2.168351 1_555
O3 Zn3 2.163982 1_555
O4 Zn4 2.162976 1_555
O5 Zn5 2.156088 1_455
O8 Zn6 2.157831 1_455
O9 Zn7 2.161043 1_455
O10 Zn5 2.136051 1_455
O13 Zn6 2.134581 1_455
O14 Zn7 2.134704 1_455
O15 Zn0 2.131327 1_555
O16 Zn1 2.128129 1_555
O17 Zn2 2.113292 1_555
O18 Zn3 2.116812 1_555
O19 Zn4 2.131801 1_555
O20 Zn5 2.095653 1_555
O23 Zn6 2.096575 1_555
O24 Zn7 2.094706 1_555
O25 Zn0 2.093285 1_555
O26 Zn1 2.083395 1_555
O27 Zn2 2.075080 1_555
O28 Zn3 2.084959 1_555
O29 Zn4 2.093127 1_555
O30 Zn1 2.097718 1_555
O31 Zn2 2.094933 1_555
O32 Zn3 2.098232 1_555
O33 Zn4 2.101067 1_555
O34 Zn0 2.101321 1_554
O35 Zn7 2.099500 1_556
O36 Zn5 2.098309 1_555
O39 Zn6 2.100304 1_555
O40 Zn0 2.187069 1_555
O41 Zn1 2.194257 1_555
O42 Zn2 2.189608 1_555
O43 Zn3 2.181313 1_555
O44 Zn4 2.186530 1_555
O45 Zn5 2.182588 1_455
O48 Zn6 2.177592 1_455
O49 Zn7 2.186432 1_455
O50 Zn0 2.140644 1_555
O51 Zn1 2.133244 1_555
O52 Zn2 2.131959 1_555
O53 Zn3 2.139579 1_555
O54 Zn4 2.141522 1_555
O55 Zn5 2.141722 1_555
O58 Zn6 2.142922 1_555
O59 Zn7 2.141101 1_555
