# generated using pymatgen
data_NaYbN4
_symmetry_space_group_name_H-M   'P 1'
_cell_length_a   7.74589500
_cell_length_b   10.49737100
_cell_length_c   12.68353600
_cell_angle_alpha   90.00000000
_cell_angle_beta   90.00000000
_cell_angle_gamma   90.00000000
_symmetry_Int_Tables_number   1
_chemical_formula_structural   NaYbN4
_chemical_formula_sum   'Na8 Yb8 N32'
_cell_volume   1031.31776290
_cell_formula_units_Z   8
loop_
 _symmetry_equiv_pos_site_id
 _symmetry_equiv_pos_as_xyz
  1  'x, y, z'
loop_
 _atom_site_type_symbol
 _atom_site_label
 _atom_site_symmetry_multiplicity
 _atom_site_fract_x
 _atom_site_fract_y
 _atom_site_fract_z
 _atom_site_occupancy
  Na  Na0  1  0.25000000  0.75000000  0.13762100  1
  Na  Na1  1  0.25000000  0.25000000  0.36237900  1
  Na  Na2  1  0.75000000  0.25000000  0.86237900  1
  Na  Na3  1  0.75000000  0.75000000  0.63762100  1
  Na  Na4  1  0.25000000  0.75000000  0.42041300  1
  Na  Na5  1  0.25000000  0.25000000  0.07958700  1
  Na  Na6  1  0.75000000  0.25000000  0.57958700  1
  Na  Na7  1  0.75000000  0.75000000  0.92041300  1
  Yb  Yb0  1  0.52390900  0.00000000  0.75000000  1
  Yb  Yb1  1  0.97609100  0.50000000  0.75000000  1
  Yb  Yb2  1  0.47609100  0.00000000  0.25000000  1
  Yb  Yb3  1  0.02390900  0.50000000  0.25000000  1
  Yb  Yb4  1  0.25000000  0.75000000  0.84067400  1
  Yb  Yb5  1  0.25000000  0.25000000  0.65932600  1
  Yb  Yb6  1  0.75000000  0.25000000  0.15932600  1
  Yb  Yb7  1  0.75000000  0.75000000  0.34067400  1
  N  N0  1  0.27960300  0.97788800  0.86830500  1
  N  N1  1  0.27960300  0.02211200  0.63169500  1
  N  N2  1  0.22039700  0.52211200  0.86830500  1
  N  N3  1  0.22039700  0.47788800  0.63169500  1
  N  N4  1  0.72039700  0.02211200  0.13169500  1
  N  N5  1  0.72039700  0.97788800  0.36830500  1
  N  N6  1  0.77960300  0.47788800  0.13169500  1
  N  N7  1  0.77960300  0.52211200  0.36830500  1
  N  N8  1  0.44995100  0.74776200  0.98876400  1
  N  N9  1  0.44995100  0.25223800  0.51123600  1
  N  N10  1  0.05004900  0.75223800  0.98876400  1
  N  N11  1  0.05004900  0.24776200  0.51123600  1
  N  N12  1  0.55004900  0.25223800  0.01123600  1
  N  N13  1  0.55004900  0.74776200  0.48876400  1
  N  N14  1  0.94995100  0.24776200  0.01123600  1
  N  N15  1  0.94995100  0.75223800  0.48876400  1
  N  N16  1  0.96636500  0.71784500  0.77775400  1
  N  N17  1  0.96636500  0.28215500  0.72224600  1
  N  N18  1  0.53363500  0.78215500  0.77775400  1
  N  N19  1  0.53363500  0.21784500  0.72224600  1
  N  N20  1  0.03363500  0.28215500  0.22224600  1
  N  N21  1  0.03363500  0.71784500  0.27775400  1
  N  N22  1  0.46636500  0.21784500  0.22224600  1
  N  N23  1  0.46636500  0.78215500  0.27775400  1
  N  N24  1  0.75111700  0.00087300  0.61867700  1
  N  N25  1  0.75111700  0.99912700  0.88132300  1
  N  N26  1  0.74888300  0.49912700  0.61867700  1
  N  N27  1  0.74888300  0.50087300  0.88132300  1
  N  N28  1  0.24888300  0.99912700  0.38132300  1
  N  N29  1  0.24888300  0.00087300  0.11867700  1
  N  N30  1  0.25111700  0.50087300  0.38132300  1
  N  N31  1  0.25111700  0.49912700  0.11867700  1
loop_
_geom_bond_atom_site_label_1
_geom_bond_atom_site_label_2
_geom_bond_distance
_geom_bond_site_symmetry_2
N0 Yb0 2.426214 1_565
N0 Yb4 2.428609 1_555
N1 Yb0 2.426214 1_555
N1 Yb5 2.428609 1_555
N2 Yb1 2.426214 1_455
N2 Yb4 2.428609 1_555
N3 Yb1 2.426214 1_455
N3 Yb5 2.428609 1_555
N4 Yb2 2.426214 1_555
N4 Yb6 2.428609 1_555
N5 Yb2 2.426214 1_565
N5 Yb7 2.428609 1_555
N6 Yb3 2.426214 1_655
N6 Yb6 2.428609 1_555
N7 Yb3 2.426214 1_655
N7 Yb7 2.428609 1_555
N8 Yb4 2.434617 1_555
N8 Na0 2.442130 1_556
N8 Na7 2.480683 1_555
N9 Yb5 2.434617 1_555
N9 Na1 2.442130 1_555
N9 Na6 2.480683 1_555
N10 Yb4 2.434617 1_555
N10 Na0 2.442130 1_556
N10 Na7 2.480683 1_455
N11 Yb5 2.434617 1_555
N11 Na1 2.442130 1_555
N11 Na6 2.480683 1_455
N12 Yb6 2.434617 1_555
N12 Na2 2.442130 1_554
N12 Na5 2.480683 1_555
N13 Yb7 2.434617 1_555
N13 Na3 2.442130 1_555
N13 Na4 2.480683 1_555
N14 Yb6 2.434617 1_555
N14 Na2 2.442130 1_554
N14 Na5 2.480683 1_655
N15 Yb7 2.434617 1_555
N15 Na3 2.442130 1_555
N15 Na4 2.480683 1_655
N16 Yb1 2.314961 1_555
N16 Yb4 2.361706 1_655
N16 Na3 2.466130 1_555
N16 Na7 2.489320 1_555
N17 Yb1 2.314961 1_555
N17 Yb5 2.361706 1_655
N17 Na2 2.466130 1_555
N17 Na6 2.489320 1_555
N18 Yb0 2.314961 1_565
N18 Yb4 2.361706 1_555
N18 Na3 2.466130 1_555
N18 Na7 2.489320 1_555
N19 Yb0 2.314961 1_555
N19 Yb5 2.361706 1_555
N19 Na2 2.466130 1_555
N19 Na6 2.489320 1_555
N20 Yb3 2.314961 1_555
N20 Yb6 2.361706 1_455
N20 Na1 2.466130 1_555
N20 Na5 2.489320 1_555
N21 Yb3 2.314961 1_555
N21 Yb7 2.361706 1_455
N21 Na0 2.466130 1_555
N21 Na4 2.489320 1_555
N22 Yb2 2.314961 1_555
N22 Yb6 2.361706 1_555
N22 Na1 2.466130 1_555
N22 Na5 2.489320 1_555
N23 Yb2 2.314961 1_565
N23 Yb7 2.361706 1_555
N23 Na0 2.466130 1_555
N23 Na4 2.489320 1_555
N24 Yb0 2.423178 1_555
N24 Na3 2.644460 1_545
N24 Na6 2.661776 1_555
N25 Yb0 2.423178 1_565
N25 Na2 2.644460 1_565
N25 Na7 2.661776 1_555
N26 Yb1 2.423178 1_555
N26 Na3 2.644460 1_555
N26 Na6 2.661776 1_555
N27 Yb1 2.423178 1_555
N27 Na2 2.644460 1_555
N27 Na7 2.661776 1_555
N28 Yb2 2.423178 1_565
N28 Na1 2.644460 1_565
N28 Na4 2.661776 1_555
N29 Yb2 2.423178 1_555
N29 Na0 2.644460 1_545
N29 Na5 2.661776 1_555
N30 Yb3 2.423178 1_555
N30 Na1 2.644460 1_555
N30 Na4 2.661776 1_555
N31 Yb3 2.423178 1_555
N31 Na0 2.644460 1_555
N31 Na5 2.661776 1_555
