# generated using pymatgen
data_Mg6NbSi
_symmetry_space_group_name_H-M   'P 1'
_cell_length_a   5.06938300
_cell_length_b   5.74711800
_cell_length_c   10.89245700
_cell_angle_alpha   90.00000000
_cell_angle_beta   90.00000000
_cell_angle_gamma   90.00000000
_symmetry_Int_Tables_number   1
_chemical_formula_structural   Mg6NbSi
_chemical_formula_sum   'Mg12 Nb2 Si2'
_cell_volume   317.34457060
_cell_formula_units_Z   2
loop_
 _symmetry_equiv_pos_site_id
 _symmetry_equiv_pos_as_xyz
  1  'x, y, z'
loop_
 _atom_site_type_symbol
 _atom_site_label
 _atom_site_symmetry_multiplicity
 _atom_site_fract_x
 _atom_site_fract_y
 _atom_site_fract_z
 _atom_site_occupancy
  Mg  Mg0  1  0.50000000  0.25122300  0.42319800  1
  Mg  Mg1  1  0.50000000  0.74877700  0.42319800  1
  Mg  Mg2  1  0.00000000  0.74440400  0.08096100  1
  Mg  Mg3  1  0.00000000  0.25559600  0.08096100  1
  Mg  Mg4  1  0.00000000  0.00000000  0.32209500  1
  Mg  Mg5  1  0.00000000  0.50000000  0.32519400  1
  Mg  Mg6  1  0.50000000  0.75122300  0.92319800  1
  Mg  Mg7  1  0.50000000  0.24877700  0.92319800  1
  Mg  Mg8  1  0.00000000  0.24440400  0.58096100  1
  Mg  Mg9  1  0.00000000  0.75559600  0.58096100  1
  Mg  Mg10  1  0.00000000  0.50000000  0.82209500  1
  Mg  Mg11  1  0.00000000  0.00000000  0.82519400  1
  Nb  Nb0  1  0.50000000  0.50000000  0.17548200  1
  Nb  Nb1  1  0.50000000  0.00000000  0.67548200  1
  Si  Si0  1  0.50000000  0.00000000  0.16890700  1
  Si  Si1  1  0.50000000  0.50000000  0.66890700  1
loop_
_geom_bond_atom_site_label_1
_geom_bond_atom_site_label_2
_geom_bond_distance
_geom_bond_site_symmetry_2
Mg0 Mg1 2.859502 1_555
Mg0 Mg1 2.887616 1_545
Mg0 Si1 3.034332 1_555
Mg0 Nb0 3.053631 1_555
Mg0 Mg8 3.062546 1_555
Mg0 Mg8 3.062546 1_655
Mg0 Mg5 3.099744 1_655
Mg0 Mg5 3.099744 1_555
Mg0 Nb1 3.104198 1_555
Mg0 Mg4 3.118015 1_655
Mg0 Mg4 3.118015 1_555
Mg0 Si0 3.123567 1_555
Mg1 Si1 3.034332 1_555
Mg1 Nb0 3.053631 1_555
Mg1 Mg9 3.062546 1_555
Mg1 Mg9 3.062546 1_655
Mg1 Mg5 3.099744 1_655
Mg1 Mg5 3.099744 1_555
Mg1 Nb1 3.104198 1_565
Mg1 Mg4 3.118015 1_565
Mg1 Mg4 3.118015 1_665
Mg1 Si0 3.123567 1_565
Mg2 Mg3 2.809237 1_555
Mg2 Mg3 2.937881 1_565
Mg2 Mg5 3.008344 1_555
Mg2 Mg4 3.009403 1_565
Mg2 Mg6 3.062546 1_454
Mg2 Mg6 3.062546 1_554
Mg2 Nb0 3.075324 1_455
Mg2 Nb0 3.075324 1_555
Mg2 Si0 3.082225 1_465
Mg2 Si0 3.082225 1_565
Mg3 Mg5 3.008344 1_555
Mg3 Mg4 3.009403 1_555
Mg3 Mg7 3.062546 1_454
Mg3 Mg7 3.062546 1_554
Mg3 Nb0 3.075324 1_455
Mg3 Nb0 3.075324 1_555
Mg3 Si0 3.082225 1_555
Mg3 Si0 3.082225 1_455
Mg4 Mg5 2.873757 1_545
Mg4 Mg5 2.873757 1_555
Mg4 Si0 3.034611 1_555
Mg4 Si0 3.034611 1_455
Mg4 Mg8 3.150173 1_555
Mg4 Mg9 3.150173 1_545
Mg5 Nb0 3.013959 1_455
Mg5 Nb0 3.013959 1_555
Mg5 Mg9 3.149476 1_555
Mg5 Mg8 3.149476 1_555
Mg6 Mg7 2.859502 1_565
Mg6 Mg7 2.887616 1_555
Mg6 Si0 3.034332 1_566
Mg6 Nb1 3.053631 1_565
Mg6 Nb0 3.104198 1_556
Mg6 Si1 3.123567 1_555
Mg7 Si0 3.034332 1_556
Mg7 Nb1 3.053631 1_555
Mg7 Nb0 3.104198 1_556
Mg7 Si1 3.123567 1_555
Mg8 Mg9 2.809237 1_545
Mg8 Mg9 2.937881 1_555
Mg8 Nb1 3.075324 1_555
Mg8 Nb1 3.075324 1_455
Mg8 Si1 3.082225 1_555
Mg8 Si1 3.082225 1_455
Mg9 Nb1 3.075324 1_465
Mg9 Nb1 3.075324 1_565
Mg9 Si1 3.082225 1_455
Mg9 Si1 3.082225 1_555
Mg10 Mg11 2.873757 1_555
Mg10 Mg11 2.873757 1_565
Mg10 Mg9 3.009403 1_555
Mg10 Mg8 3.009403 1_555
Mg10 Si1 3.034611 1_455
Mg10 Si1 3.034611 1_555
Mg10 Mg7 3.118015 1_455
Mg10 Mg7 3.118015 1_555
Mg10 Mg6 3.118015 1_455
Mg10 Mg6 3.118015 1_555
Mg10 Mg2 3.150173 1_556
Mg10 Mg3 3.150173 1_556
Mg11 Mg8 3.008344 1_555
Mg11 Mg9 3.008344 1_545
Mg11 Nb1 3.013959 1_455
Mg11 Nb1 3.013959 1_555
Mg11 Mg6 3.099744 1_445
Mg11 Mg7 3.099744 1_455
Mg11 Mg6 3.099744 1_545
Mg11 Mg7 3.099744 1_555
Mg11 Mg2 3.149476 1_546
Mg11 Mg3 3.149476 1_556
Nb0 Si0 2.874451 1_565
Nb0 Si0 2.874451 1_555
Nb1 Si1 2.874451 1_555
Nb1 Si1 2.874451 1_545
