# generated using pymatgen
data_PNO3
_symmetry_space_group_name_H-M   'P 1'
_cell_length_a   8.06230100
_cell_length_b   9.99505000
_cell_length_c   11.44964500
_cell_angle_alpha   90.00000000
_cell_angle_beta   90.00000000
_cell_angle_gamma   90.00000000
_symmetry_Int_Tables_number   1
_chemical_formula_structural   PNO3
_chemical_formula_sum   'P8 N8 O24'
_cell_volume   922.64790643
_cell_formula_units_Z   8
loop_
 _symmetry_equiv_pos_site_id
 _symmetry_equiv_pos_as_xyz
  1  'x, y, z'
loop_
 _atom_site_type_symbol
 _atom_site_label
 _atom_site_symmetry_multiplicity
 _atom_site_fract_x
 _atom_site_fract_y
 _atom_site_fract_z
 _atom_site_occupancy
  P  P0  1  0.54190400  0.67273500  0.76045800  1
  P  P1  1  0.95809600  0.67273500  0.73954200  1
  P  P2  1  0.04190400  0.82726500  0.23954200  1
  P  P3  1  0.45809600  0.82726500  0.26045800  1
  P  P4  1  0.45809600  0.32726500  0.23954200  1
  P  P5  1  0.04190400  0.32726500  0.26045800  1
  P  P6  1  0.95809600  0.17273500  0.76045800  1
  P  P7  1  0.54190400  0.17273500  0.73954200  1
  N  N0  1  0.76920700  0.91320600  0.48279500  1
  N  N1  1  0.73079300  0.91320600  0.01720500  1
  N  N2  1  0.26920700  0.58679400  0.51720500  1
  N  N3  1  0.23079300  0.58679400  0.98279500  1
  N  N4  1  0.23079300  0.08679400  0.51720500  1
  N  N5  1  0.26920700  0.08679400  0.98279500  1
  N  N6  1  0.73079300  0.41320600  0.48279500  1
  N  N7  1  0.76920700  0.41320600  0.01720500  1
  O  O0  1  0.52871500  0.79983300  0.69285600  1
  O  O1  1  0.97128500  0.79983300  0.80714400  1
  O  O2  1  0.02871500  0.70016700  0.30714400  1
  O  O3  1  0.47128500  0.70016700  0.19285600  1
  O  O4  1  0.47128500  0.20016700  0.30714400  1
  O  O5  1  0.02871500  0.20016700  0.19285600  1
  O  O6  1  0.97128500  0.29983300  0.69285600  1
  O  O7  1  0.52871500  0.29983300  0.80714400  1
  O  O8  1  0.57516600  0.67261600  0.88857000  1
  O  O9  1  0.92483400  0.67261600  0.61143000  1
  O  O10  1  0.07516600  0.82738400  0.11143000  1
  O  O11  1  0.42483400  0.82738400  0.38857000  1
  O  O12  1  0.42483400  0.32738400  0.11143000  1
  O  O13  1  0.07516600  0.32738400  0.38857000  1
  O  O14  1  0.92483400  0.17261600  0.88857000  1
  O  O15  1  0.57516600  0.17261600  0.61143000  1
  O  O16  1  0.52645500  0.54113900  0.69899300  1
  O  O17  1  0.97354500  0.54113900  0.80100700  1
  O  O18  1  0.02645500  0.95886100  0.30100700  1
  O  O19  1  0.47354500  0.95886100  0.19899300  1
  O  O20  1  0.47354500  0.45886100  0.30100700  1
  O  O21  1  0.02645500  0.45886100  0.19899300  1
  O  O22  1  0.97354500  0.04113900  0.69899300  1
  O  O23  1  0.52645500  0.04113900  0.80100700  1
loop_
_geom_bond_atom_site_label_1
_geom_bond_atom_site_label_2
_geom_bond_distance
_geom_bond_site_symmetry_2
O0 P0 1.491376 1_555
O1 P1 1.491376 1_555
O2 P2 1.491376 1_555
O3 P3 1.491376 1_555
O4 P4 1.491376 1_555
O5 P5 1.491376 1_555
O6 P6 1.491376 1_555
O7 P7 1.491376 1_555
O8 P0 1.491149 1_555
O9 P1 1.491149 1_555
O10 P2 1.491149 1_555
O11 P3 1.491149 1_555
O12 P4 1.491149 1_555
O13 P5 1.491149 1_555
O14 P6 1.491149 1_555
O15 P7 1.491149 1_555
O16 P0 1.496936 1_555
O17 P1 1.496936 1_555
O18 P2 1.496936 1_555
O19 P3 1.496936 1_555
O20 P4 1.496936 1_555
O21 P5 1.496936 1_555
O22 P6 1.496936 1_555
O23 P7 1.496936 1_555
