# generated using pymatgen
data_LiV2O4
_symmetry_space_group_name_H-M   'P 1'
_cell_length_a   5.81303488
_cell_length_b   5.81229910
_cell_length_c   5.81072399
_cell_angle_alpha   59.99932284
_cell_angle_beta   59.99190791
_cell_angle_gamma   59.97300504
_symmetry_Int_Tables_number   1
_chemical_formula_structural   LiV2O4
_chemical_formula_sum   'Li2 V4 O8'
_cell_volume   138.78696367
_cell_formula_units_Z   2
loop_
 _symmetry_equiv_pos_site_id
 _symmetry_equiv_pos_as_xyz
  1  'x, y, z'
loop_
 _atom_site_type_symbol
 _atom_site_label
 _atom_site_symmetry_multiplicity
 _atom_site_fract_x
 _atom_site_fract_y
 _atom_site_fract_z
 _atom_site_occupancy
  Li  Li0  1  0.87455343  0.87442178  0.87525153  1
  Li  Li1  1  0.12544686  0.12557974  0.12474561  1
  V  V0  1  0.50000086  0.99999916  0.49999974  1
  V  V1  1  0.99999904  0.50000047  0.49999913  1
  V  V2  1  0.49999985  0.49999969  0.00000086  1
  V  V3  1  0.49999840  0.50000055  0.49999943  1
  O  O0  1  0.26020302  0.26016764  0.25994650  1
  O  O1  1  0.26011464  0.26005803  0.71976263  1
  O  O2  1  0.73979667  0.73983167  0.74005418  1
  O  O3  1  0.73988409  0.73994261  0.28023562  1
  O  O4  1  0.28004964  0.73979866  0.74012277  1
  O  O5  1  0.26004204  0.71998332  0.26010377  1
  O  O6  1  0.71995103  0.26019911  0.25987797  1
  O  O7  1  0.73995543  0.28001856  0.73989524  1
loop_
_geom_bond_atom_site_label_1
_geom_bond_atom_site_label_2
_geom_bond_distance
_geom_bond_site_symmetry_2
Li0 O2 1.919935 1_555
Li0 O3 1.921428 1_556
Li0 O4 1.924114 1_655
Li0 O7 1.924490 1_565
Li1 O0 1.919939 1_555
Li1 O1 1.921423 1_554
Li1 O6 1.924112 1_455
Li1 O5 1.924489 1_545
O0 V1 1.975002 1_455
O0 V2 1.975059 1_555
O0 V0 1.975192 1_545
O1 V0 1.974731 1_545
O1 V1 1.975328 1_455
O1 V3 1.975953 1_555
O2 V1 1.975004 1_555
O2 V2 1.975059 1_556
O2 V0 1.975189 1_555
O3 V0 1.974726 1_555
O3 V1 1.975325 1_555
O3 V3 1.975959 1_555
O4 V2 1.975014 1_556
O4 V3 1.975108 1_555
O4 V0 1.977234 1_555
O5 V3 1.975150 1_555
O5 V2 1.975767 1_555
O5 V1 1.976698 1_455
O6 V2 1.975014 1_555
O6 V3 1.975112 1_555
O6 V0 1.977228 1_545
O7 V3 1.975154 1_555
O7 V2 1.975769 1_556
O7 V1 1.976697 1_555
