# generated using pymatgen
data_Mg16Al12Fe
_symmetry_space_group_name_H-M   'P 1'
_cell_length_a   8.88571625
_cell_length_b   8.88571625
_cell_length_c   8.88571662
_cell_angle_alpha   108.56885578
_cell_angle_beta   108.56885578
_cell_angle_gamma   108.56884970
_symmetry_Int_Tables_number   1
_chemical_formula_structural   Mg16Al12Fe
_chemical_formula_sum   'Mg16 Al12 Fe1'
_cell_volume   557.39014392
_cell_formula_units_Z   1
loop_
 _symmetry_equiv_pos_site_id
 _symmetry_equiv_pos_as_xyz
  1  'x, y, z'
loop_
 _atom_site_type_symbol
 _atom_site_label
 _atom_site_symmetry_multiplicity
 _atom_site_fract_x
 _atom_site_fract_y
 _atom_site_fract_z
 _atom_site_occupancy
  Mg  Mg0  1  0.99622900  0.99622900  0.99622900  1
  Mg  Mg1  1  0.00509200  0.00509200  0.65242100  1
  Mg  Mg2  1  0.31953400  0.31953400  0.72340800  1
  Mg  Mg3  1  0.57579100  0.57579100  0.30195800  1
  Mg  Mg4  1  0.68261000  0.40378000  0.00443700  1
  Mg  Mg5  1  0.57579100  0.30195800  0.57579100  1
  Mg  Mg6  1  0.00443700  0.68261000  0.40378000  1
  Mg  Mg7  1  0.00509200  0.65242100  0.00509200  1
  Mg  Mg8  1  0.40378000  0.00443700  0.68261000  1
  Mg  Mg9  1  0.72340800  0.31953400  0.31953400  1
  Mg  Mg10  1  0.31953400  0.72340800  0.31953400  1
  Mg  Mg11  1  0.00443700  0.40378000  0.68261000  1
  Mg  Mg12  1  0.65242100  0.00509200  0.00509200  1
  Mg  Mg13  1  0.68261000  0.00443700  0.40378000  1
  Mg  Mg14  1  0.30195800  0.57579100  0.57579100  1
  Mg  Mg15  1  0.40378000  0.68261000  0.00443700  1
  Al  Al0  1  0.64633700  0.64633700  0.83643400  1
  Al  Al1  1  0.81246800  0.81246800  0.19318900  1
  Al  Al2  1  0.36641300  0.18713200  0.00848000  1
  Al  Al3  1  0.18713200  0.00848000  0.36641300  1
  Al  Al4  1  0.83643400  0.64633700  0.64633700  1
  Al  Al5  1  0.36641300  0.00848000  0.18713200  1
  Al  Al6  1  0.19318900  0.81246800  0.81246800  1
  Al  Al7  1  0.81246800  0.19318900  0.81246800  1
  Al  Al8  1  0.00848000  0.36641300  0.18713200  1
  Al  Al9  1  0.64633700  0.83643400  0.64633700  1
  Al  Al10  1  0.00848000  0.18713200  0.36641300  1
  Al  Al11  1  0.18713200  0.36641300  0.00848000  1
  Fe  Fe0  1  0.27224000  0.27224000  0.27224000  1
loop_
_geom_bond_atom_site_label_1
_geom_bond_atom_site_label_2
_geom_bond_distance
_geom_bond_site_symmetry_2
Mg0 Mg12 3.106094 1_566
Mg0 Mg7 3.106094 1_656
Mg0 Mg1 3.106094 1_665
Mg1 Mg2 2.965525 1_555
Mg1 Mg13 3.006893 1_455
Mg1 Mg6 3.006893 1_545
Mg2 Mg5 2.987974 1_555
Mg2 Mg4 3.056924 1_556
Mg2 Mg8 3.064686 1_555
Mg3 Mg9 2.987974 1_555
Mg3 Mg4 3.189786 1_555
Mg3 Mg6 3.344022 1_655
Mg4 Mg7 3.006894 1_655
Mg4 Mg9 3.064686 1_555
Mg4 Mg5 3.344022 1_554
Mg5 Mg9 2.987974 1_555
Mg5 Mg8 3.189786 1_555
Mg6 Mg9 3.056925 1_455
Mg10 Mg7 2.965525 1_555
Mg10 Mg3 2.987974 1_555
Mg10 Mg14 2.987974 1_555
Mg10 Mg8 3.056924 1_565
Mg10 Mg13 3.056925 1_565
Mg10 Mg6 3.064686 1_555
Mg10 Mg15 3.064686 1_555
Mg11 Mg7 3.006893 1_556
Mg11 Mg9 3.056924 1_455
Mg11 Mg2 3.064686 1_555
Mg11 Mg14 3.189786 1_555
Mg11 Mg5 3.344022 1_455
Mg12 Mg9 2.965525 1_555
Mg12 Mg8 3.006893 1_554
Mg12 Mg15 3.006894 1_545
Mg13 Mg9 3.064686 1_555
Mg13 Mg5 3.189786 1_555
Mg13 Mg3 3.344022 1_545
Mg14 Mg2 2.987974 1_555
Mg14 Mg6 3.189786 1_555
Mg14 Mg8 3.344022 1_565
Mg14 Mg15 3.344022 1_556
Mg15 Mg2 3.056924 1_554
Mg15 Mg3 3.189786 1_555
Al0 Al1 2.656831 1_556
Al0 Al4 2.742923 1_555
Al0 Al9 2.742923 1_555
Al0 Mg14 2.908736 1_555
Al0 Mg5 2.908736 1_555
Al0 Mg2 2.964498 1_555
Al0 Mg15 3.027023 1_556
Al0 Mg4 3.027023 1_556
Al0 Mg12 3.034286 1_566
Al0 Mg7 3.034286 1_656
Al0 Mg0 3.093385 1_555
Al1 Al3 2.796796 1_665
Al1 Al10 2.796796 1_665
Al1 Mg13 2.887653 1_565
Al1 Mg6 2.887653 1_655
Al1 Mg4 3.090582 1_555
Al1 Mg15 3.090582 1_555
Al1 Mg3 3.090617 1_555
Al1 Mg12 3.099023 1_565
Al1 Mg7 3.099023 1_655
Al1 Mg0 3.215174 1_554
Al2 Al5 2.577782 1_555
Al2 Fe0 2.699688 1_555
Al2 Al6 2.796796 1_544
Al2 Mg4 2.874859 1_555
Al2 Mg9 3.009017 1_555
Al2 Mg8 3.015272 1_554
Al2 Mg3 3.044779 1_555
Al2 Mg2 3.084183 1_554
Al2 Mg0 3.132060 1_444
Al2 Mg1 3.146100 1_554
Al3 Al5 2.586858 1_555
Al3 Fe0 2.699688 1_555
Al3 Mg8 2.874859 1_555
Al3 Mg2 3.009017 1_555
Al3 Mg6 3.015272 1_545
Al3 Mg5 3.044779 1_555
Al3 Mg10 3.084182 1_545
Al3 Mg0 3.132060 1_444
Al3 Mg7 3.146100 1_545
Al4 Al6 2.656831 1_655
Al4 Al9 2.742923 1_555
Al4 Mg3 2.908736 1_555
Al4 Mg5 2.908736 1_555
Al4 Mg9 2.964498 1_555
Al4 Mg11 3.027023 1_655
Al4 Mg6 3.027023 1_655
Al4 Mg7 3.034286 1_656
Al4 Mg1 3.034286 1_665
Al4 Mg0 3.093385 1_555
Al5 Fe0 2.699688 1_555
Al5 Al6 2.796796 1_544
Al5 Mg13 2.874859 1_555
Al5 Mg9 3.009017 1_555
Al5 Mg15 3.015272 1_545
Al5 Mg5 3.044779 1_555
Al5 Mg10 3.084182 1_545
Al5 Mg0 3.132060 1_444
Al5 Mg7 3.146100 1_545
Al6 Mg15 2.887653 1_556
Al6 Mg8 2.887654 1_565
Al6 Mg11 3.090582 1_555
Al6 Mg6 3.090582 1_555
Al6 Mg14 3.090617 1_555
Al6 Mg1 3.099023 1_565
Al6 Mg7 3.099023 1_556
Al6 Mg0 3.215174 1_455
Al7 Al9 2.656831 1_545
Al7 Al8 2.796796 1_656
Al7 Mg4 2.887653 1_556
Al7 Mg11 2.887654 1_655
Al7 Mg8 3.090582 1_555
Al7 Mg13 3.090582 1_555
Al7 Mg5 3.090617 1_555
Al7 Mg1 3.099023 1_655
Al7 Mg12 3.099023 1_556
Al7 Mg0 3.215174 1_545
Al8 Fe0 2.699688 1_555
Al8 Mg6 2.874859 1_555
Al8 Mg10 3.009017 1_555
Al8 Mg4 3.015272 1_455
Al8 Mg14 3.044779 1_555
Al8 Mg9 3.084182 1_455
Al8 Mg0 3.132060 1_444
Al8 Mg12 3.146100 1_455
Al9 Mg3 2.908736 1_555
Al9 Mg14 2.908736 1_555
Al9 Mg10 2.964498 1_555
Al9 Mg8 3.027023 1_565
Al9 Mg13 3.027023 1_565
Al9 Mg12 3.034286 1_566
Al9 Mg1 3.034286 1_665
Al9 Mg0 3.093385 1_555
Al10 Al3 2.577782 1_555
Al10 Al8 2.586858 1_555
Al10 Fe0 2.699688 1_555
Al10 Mg11 2.874859 1_555
Al10 Mg2 3.009017 1_555
Al10 Mg13 3.015272 1_455
Al10 Mg14 3.044779 1_555
Al10 Mg9 3.084182 1_455
Al10 Mg0 3.132060 1_444
Al10 Mg12 3.146100 1_455
Al11 Al8 2.577782 1_555
Al11 Al2 2.586858 1_555
Al11 Fe0 2.699688 1_555
Al11 Al7 2.796796 1_454
Al11 Mg15 2.874859 1_555
Al11 Mg10 3.009017 1_555
Al11 Mg11 3.015272 1_554
Al11 Mg3 3.044779 1_555
Al11 Mg2 3.084183 1_554
Al11 Mg0 3.132060 1_444
Al11 Mg1 3.146100 1_554
Fe0 Mg0 2.559763 1_444
Fe0 Mg5 3.013215 1_555
Fe0 Mg14 3.013215 1_555
Fe0 Mg3 3.013215 1_555
