# generated using pymatgen
data_FeRe(PbO3)2
_symmetry_space_group_name_H-M   'P 1'
_cell_length_a   5.68562389
_cell_length_b   5.68562389
_cell_length_c   5.68562389
_cell_angle_alpha   119.92988942
_cell_angle_beta   119.92988942
_cell_angle_gamma   90.12147804
_symmetry_Int_Tables_number   1
_chemical_formula_structural   FeRe(PbO3)2
_chemical_formula_sum   'Fe1 Re1 Pb2 O6'
_cell_volume   130.10030473
_cell_formula_units_Z   1
loop_
 _symmetry_equiv_pos_site_id
 _symmetry_equiv_pos_as_xyz
  1  'x, y, z'
loop_
 _atom_site_type_symbol
 _atom_site_label
 _atom_site_symmetry_multiplicity
 _atom_site_fract_x
 _atom_site_fract_y
 _atom_site_fract_z
 _atom_site_occupancy
  Fe  Fe0  1  0.50715800  0.50715800  0.00000000  1
  Re  Re0  1  0.00447000  0.00447000  0.00000000  1
  Pb  Pb0  1  0.76928900  0.26928900  0.50000000  1
  Pb  Pb1  1  0.26928900  0.76928900  0.50000000  1
  O  O0  1  0.24365200  0.75433900  0.00000000  1
  O  O1  1  0.75433900  0.24365200  0.00000000  1
  O  O2  1  0.24365200  0.24365200  0.48931300  1
  O  O3  1  0.75433900  0.75433900  0.51068700  1
  O  O4  1  0.75856000  0.75856000  0.00000000  1
  O  O5  1  0.24725200  0.24725200  0.00000000  1
loop_
_geom_bond_atom_site_label_1
_geom_bond_atom_site_label_2
_geom_bond_distance
_geom_bond_site_symmetry_2
Fe0 O4 2.019301 1_555
Fe0 O3 2.056358 1_555
Fe0 O2 2.056358 1_554
Fe0 O1 2.056358 1_555
Fe0 O0 2.056358 1_555
Fe0 O5 2.087606 1_555
O0 Re0 1.969781 1_565
O0 Pb1 2.730453 1_555
O0 Pb0 2.730453 1_454
O1 Re0 1.969781 1_655
O1 Pb0 2.730453 1_555
O1 Pb1 2.730453 1_544
O2 Re0 1.969781 1_555
O2 Pb1 2.730453 1_545
O2 Pb0 2.730453 1_455
O3 Re0 1.969781 1_666
O3 Pb1 2.730453 1_555
O3 Pb0 2.730453 1_555
O4 Re0 1.975188 1_665
O4 Pb0 2.847129 1_554
O4 Pb1 2.847129 1_554
O4 Pb1 2.847129 1_655
O4 Pb0 2.847129 1_565
O5 Re0 1.950063 1_555
O5 Pb0 2.851323 1_555
O5 Pb0 2.851323 1_454
O5 Pb1 2.851323 1_544
O5 Pb1 2.851323 1_555
