# generated using pymatgen
data_Sn(Mo3Se4)2
_symmetry_space_group_name_H-M   'P 1'
_cell_length_a   6.86148826
_cell_length_b   6.86148826
_cell_length_c   6.86148828
_cell_angle_alpha   89.51263082
_cell_angle_beta   89.51263082
_cell_angle_gamma   89.51263416
_symmetry_Int_Tables_number   1
_chemical_formula_structural   Sn(Mo3Se4)2
_chemical_formula_sum   'Sn1 Mo6 Se8'
_cell_volume   323.00415146
_cell_formula_units_Z   1
loop_
 _symmetry_equiv_pos_site_id
 _symmetry_equiv_pos_as_xyz
  1  'x, y, z'
loop_
 _atom_site_type_symbol
 _atom_site_label
 _atom_site_symmetry_multiplicity
 _atom_site_fract_x
 _atom_site_fract_y
 _atom_site_fract_z
 _atom_site_occupancy
  Sn  Sn0  1  0.00000000  0.00000000  0.00000000  1
  Mo  Mo0  1  0.76183200  0.57793300  0.44087300  1
  Mo  Mo1  1  0.44087300  0.76183200  0.57793300  1
  Mo  Mo2  1  0.57793300  0.44087300  0.76183200  1
  Mo  Mo3  1  0.23816800  0.42206700  0.55912700  1
  Mo  Mo4  1  0.55912700  0.23816800  0.42206700  1
  Mo  Mo5  1  0.42206700  0.55912700  0.23816800  1
  Se  Se0  1  0.75992500  0.75992500  0.75992500  1
  Se  Se1  1  0.24007500  0.24007500  0.24007500  1
  Se  Se2  1  0.25271400  0.62240400  0.87706100  1
  Se  Se3  1  0.87706100  0.25271400  0.62240400  1
  Se  Se4  1  0.62240400  0.87706100  0.25271400  1
  Se  Se5  1  0.74728600  0.37759600  0.12293900  1
  Se  Se6  1  0.12293900  0.74728600  0.37759600  1
  Se  Se7  1  0.37759600  0.12293900  0.74728600  1
loop_
_geom_bond_atom_site_label_1
_geom_bond_atom_site_label_2
_geom_bond_distance
_geom_bond_site_symmetry_2
Mo0 Se0 2.529373 1_555
Mo0 Se5 2.591430 1_555
Mo0 Se4 2.595610 1_555
Mo0 Se3 2.663748 1_555
Mo0 Se6 2.774893 1_655
Mo1 Se0 2.529373 1_555
Mo1 Se6 2.591430 1_555
Mo1 Se2 2.595610 1_555
Mo1 Se4 2.663748 1_555
Mo1 Se7 2.774893 1_565
Mo2 Se0 2.529373 1_555
Mo2 Se7 2.591430 1_555
Mo2 Se3 2.595610 1_555
Mo2 Se2 2.663748 1_555
Mo2 Se5 2.774893 1_556
Mo3 Se1 2.529373 1_555
Mo3 Se2 2.591430 1_555
Mo3 Se7 2.595610 1_555
Mo3 Se6 2.663748 1_555
Mo3 Se3 2.774893 1_455
Mo4 Se1 2.529373 1_555
Mo4 Se3 2.591430 1_555
Mo4 Se5 2.595610 1_555
Mo4 Se7 2.663748 1_555
Mo4 Se4 2.774893 1_545
Mo5 Se1 2.529373 1_555
Mo5 Se4 2.591430 1_555
Mo5 Se6 2.595610 1_555
Mo5 Se5 2.663748 1_555
Mo5 Se2 2.774893 1_554
Se0 Sn0 2.877325 1_666
Se1 Sn0 2.877325 1_555
Se2 Sn0 3.219749 1_566
Se3 Sn0 3.219749 1_656
Se4 Sn0 3.219749 1_665
Se5 Sn0 3.219749 1_655
Se6 Sn0 3.219749 1_565
Se7 Sn0 3.219749 1_556
