# generated using pymatgen
data_PmMg2Sc
_symmetry_space_group_name_H-M   'P 1'
_cell_length_a   5.27582782
_cell_length_b   5.27582782
_cell_length_c   5.27582782
_cell_angle_alpha   60.00000000
_cell_angle_beta   60.00000000
_cell_angle_gamma   60.00000000
_symmetry_Int_Tables_number   1
_chemical_formula_structural   PmMg2Sc
_chemical_formula_sum   'Pm1 Mg2 Sc1'
_cell_volume   103.83812651
_cell_formula_units_Z   1
loop_
 _symmetry_equiv_pos_site_id
 _symmetry_equiv_pos_as_xyz
  1  'x, y, z'
loop_
 _atom_site_type_symbol
 _atom_site_label
 _atom_site_symmetry_multiplicity
 _atom_site_fract_x
 _atom_site_fract_y
 _atom_site_fract_z
 _atom_site_occupancy
  Pm  Pm0  1  -0.00000000  -0.00000000  -0.00000000  1
  Mg  Mg0  1  0.25000000  0.25000000  0.25000000  1
  Mg  Mg1  1  0.75000000  0.75000000  0.75000000  1
  Sc  Sc0  1  0.50000000  0.50000000  0.50000000  1
loop_
_geom_bond_atom_site_label_1
_geom_bond_atom_site_label_2
_geom_bond_distance
_geom_bond_site_symmetry_2
Pm0 Sc0 3.730574 1_455
Pm0 Sc0 3.730574 1_544
Pm0 Sc0 3.730574 1_445
Pm0 Sc0 3.730574 1_554
Pm0 Sc0 3.730574 1_454
Pm0 Sc0 3.730574 1_545
Mg0 Sc0 3.230772 1_455
Mg0 Pm0 3.230772 1_655
Mg0 Pm0 3.230772 1_556
Mg0 Sc0 3.230772 1_554
Mg0 Pm0 3.230772 1_555
Mg0 Sc0 3.230772 1_555
Mg0 Sc0 3.230772 1_545
Mg0 Pm0 3.230772 1_565
Mg1 Sc0 3.230772 1_655
Mg1 Pm0 3.230772 1_566
Mg1 Pm0 3.230772 1_656
Mg1 Pm0 3.230772 1_665
Mg1 Sc0 3.230772 1_556
Mg1 Pm0 3.230772 1_666
Mg1 Sc0 3.230772 1_565
Mg1 Sc0 3.230772 1_555
