# generated using pymatgen
data_Cd(GaCl4)2
_symmetry_space_group_name_H-M   'P 1'
_cell_length_a   6.71082672
_cell_length_b   7.12465837
_cell_length_c   13.00437895
_cell_angle_alpha   87.60387204
_cell_angle_beta   90.00000000
_cell_angle_gamma   90.00000000
_symmetry_Int_Tables_number   1
_chemical_formula_structural   Cd(GaCl4)2
_chemical_formula_sum   'Cd2 Ga4 Cl16'
_cell_volume   621.22624930
_cell_formula_units_Z   2
loop_
 _symmetry_equiv_pos_site_id
 _symmetry_equiv_pos_as_xyz
  1  'x, y, z'
loop_
 _atom_site_type_symbol
 _atom_site_label
 _atom_site_symmetry_multiplicity
 _atom_site_fract_x
 _atom_site_fract_y
 _atom_site_fract_z
 _atom_site_occupancy
  Cd  Cd0  1  0.75603351  0.07648683  0.81720491  1
  Cd  Cd1  1  0.24396649  0.07648683  0.31720491  1
  Ga  Ga0  1  0.93463318  0.22791686  0.57768782  1
  Ga  Ga1  1  0.06536682  0.22791686  0.07768782  1
  Ga  Ga2  1  0.57003914  0.63524372  0.77601491  1
  Ga  Ga3  1  0.42996086  0.63524372  0.27601491  1
  Cl  Cl0  1  0.41605849  0.60614038  0.63510323  1
  Cl  Cl1  1  0.58394151  0.60614038  0.13510323  1
  Cl  Cl2  1  0.88097486  0.73470343  0.75769246  1
  Cl  Cl3  1  0.11902514  0.73470343  0.25769246  1
  Cl  Cl4  1  0.93928440  0.48607670  0.49094272  1
  Cl  Cl5  1  0.06071560  0.48607670  0.99094272  1
  Cl  Cl6  1  0.91383313  0.99690329  0.99942685  1
  Cl  Cl7  1  0.08616687  0.99690329  0.49942685  1
  Cl  Cl8  1  0.63174107  0.12716456  0.62017029  1
  Cl  Cl9  1  0.36825893  0.12716456  0.12017029  1
  Cl  Cl10  1  0.56493571  0.37611653  0.87730800  1
  Cl  Cl11  1  0.43506429  0.37611653  0.37730800  1
  Cl  Cl12  1  0.44203996  0.86442783  0.86703282  1
  Cl  Cl13  1  0.55796004  0.86442783  0.36703282  1
  Cl  Cl14  1  0.92746709  0.23622088  0.23361598  1
  Cl  Cl15  1  0.07253291  0.23622088  0.73361598  1
loop_
_geom_bond_atom_site_label_1
_geom_bond_atom_site_label_2
_geom_bond_distance
_geom_bond_site_symmetry_2
Cd0 Cl15 2.623851 1_655
Cd0 Cl6 2.635518 1_545
Cd0 Cl10 2.636708 1_555
Cd0 Cl12 2.657214 1_545
Cd0 Cl8 2.704475 1_555
Cd0 Cl2 2.718311 1_545
Cd1 Cl14 2.623851 1_455
Cd1 Cl7 2.635518 1_545
Cd1 Cl11 2.636708 1_555
Cd1 Cl13 2.657214 1_545
Cd1 Cl9 2.704475 1_555
Cd1 Cl3 2.718311 1_545
Cl0 Ga2 2.121437 1_555
Cl1 Ga3 2.121437 1_555
Cl2 Ga2 2.213333 1_555
Cl3 Ga3 2.213333 1_555
Cl4 Ga0 2.117320 1_555
Cl5 Ga1 2.117320 1_556
Cl6 Ga1 2.217866 1_666
Cl7 Ga0 2.217866 1_465
Cl8 Ga0 2.217886 1_555
Cl9 Ga1 2.217886 1_555
Cl10 Ga2 2.222928 1_555
Cl11 Ga3 2.222928 1_555
Cl12 Ga2 2.228601 1_555
Cl13 Ga3 2.228601 1_555
Cl14 Ga1 2.231973 1_655
Cl15 Ga0 2.231973 1_455
