# generated using pymatgen
data_LiLa4Ni3WO12
_symmetry_space_group_name_H-M   'P 1'
_cell_length_a   5.55631953
_cell_length_b   8.50347100
_cell_length_c   5.53108295
_cell_angle_alpha   90.00000000
_cell_angle_beta   89.37669515
_cell_angle_gamma   90.00000000
_symmetry_Int_Tables_number   1
_chemical_formula_structural   LiLa4Ni3WO12
_chemical_formula_sum   'Li1 La4 Ni3 W1 O12'
_cell_volume   261.31715464
_cell_formula_units_Z   1
loop_
 _symmetry_equiv_pos_site_id
 _symmetry_equiv_pos_as_xyz
  1  'x, y, z'
loop_
 _atom_site_type_symbol
 _atom_site_label
 _atom_site_symmetry_multiplicity
 _atom_site_fract_x
 _atom_site_fract_y
 _atom_site_fract_z
 _atom_site_occupancy
  Li  Li0  1  0.00000000  0.00000000  0.50000000  1
  La  La0  1  0.50000000  0.27865400  0.00000000  1
  La  La1  1  0.00000000  0.69288200  0.50000000  1
  La  La2  1  0.50000000  0.72134600  0.00000000  1
  La  La3  1  0.00000000  0.30711800  0.50000000  1
  Ni  Ni0  1  0.00000000  0.00000000  0.00000000  1
  Ni  Ni1  1  0.50000000  0.50000000  0.50000000  1
  Ni  Ni2  1  0.00000000  0.50000000  0.00000000  1
  W  W0  1  0.50000000  0.00000000  0.50000000  1
  O  O0  1  0.00000000  0.25352500  0.00000000  1
  O  O1  1  0.50000000  0.75505100  0.50000000  1
  O  O2  1  0.25043500  0.50000000  0.25347400  1
  O  O3  1  0.75684000  0.00000000  0.74411700  1
  O  O4  1  0.24793700  0.50000000  0.74415000  1
  O  O5  1  0.75055500  0.00000000  0.25896900  1
  O  O6  1  0.00000000  0.74647500  0.00000000  1
  O  O7  1  0.50000000  0.24494900  0.50000000  1
  O  O8  1  0.74956500  0.50000000  0.74652600  1
  O  O9  1  0.24316000  0.00000000  0.25588300  1
  O  O10  1  0.75206300  0.50000000  0.25585000  1
  O  O11  1  0.24944500  0.00000000  0.74103100  1
loop_
_geom_bond_atom_site_label_1
_geom_bond_atom_site_label_2
_geom_bond_distance
_geom_bond_site_symmetry_2
Li0 O3 1.899694 1_455
Li0 O9 1.899694 1_555
Li0 O5 1.933522 1_455
Li0 O11 1.933522 1_555
La0 O8 2.718237 1_554
La0 O2 2.718237 1_555
La0 O10 2.747715 1_555
La0 O4 2.747715 1_554
La0 O7 2.780353 1_555
La0 O7 2.780353 1_554
La0 O0 2.786365 1_555
La0 O0 2.786365 1_655
La0 O9 3.100062 1_555
La0 O3 3.100062 1_554
La0 O5 3.106102 1_555
La0 O11 3.106102 1_554
La1 O2 2.538585 1_555
La1 O8 2.538585 1_455
La1 O4 2.540092 1_555
La1 O10 2.540092 1_455
La1 Li0 2.611569 1_565
La1 O6 2.802839 1_555
La1 O6 2.802839 1_556
La1 O1 2.828011 1_455
La1 O1 2.828011 1_555
La2 O8 2.718237 1_554
La2 O2 2.718237 1_555
La2 O10 2.747715 1_555
La2 O4 2.747715 1_554
La2 O1 2.780353 1_554
La2 O1 2.780353 1_555
La2 O6 2.786365 1_555
La2 O6 2.786365 1_655
La2 O9 3.100062 1_565
La2 O3 3.100062 1_564
La2 O11 3.106102 1_564
La2 O5 3.106102 1_565
La3 O2 2.538585 1_555
La3 O8 2.538585 1_455
La3 O4 2.540092 1_555
La3 O10 2.540092 1_455
La3 Li0 2.611569 1_555
La3 O0 2.802839 1_555
La3 O0 2.802839 1_556
La3 O7 2.828011 1_555
La3 O7 2.828011 1_455
Ni0 O9 1.967259 1_555
Ni0 O3 1.967259 1_454
Ni0 O5 1.982297 1_455
Ni0 O11 1.982297 1_554
Ni0 O6 2.155842 1_545
Ni0 O0 2.155842 1_555
Ni1 O10 1.934939 1_555
Ni1 O4 1.934939 1_555
Ni1 O8 1.955315 1_555
Ni1 O2 1.955315 1_555
Ni1 O1 2.168819 1_555
Ni1 O7 2.168819 1_555
Ni2 O4 1.964179 1_554
Ni2 O10 1.964179 1_455
Ni2 O2 1.986019 1_555
Ni2 O8 1.986019 1_454
Ni2 O6 2.095893 1_555
Ni2 O0 2.095893 1_555
O1 W0 2.082917 1_565
O3 W0 1.975252 1_555
O5 W0 1.917045 1_555
O7 W0 2.082917 1_555
O9 W0 1.975252 1_555
O11 W0 1.917045 1_555
