# generated using pymatgen
data_PrNiSb2
_symmetry_space_group_name_H-M   'P 1'
_cell_length_a   4.40211054
_cell_length_b   4.40211054
_cell_length_c   9.89320358
_cell_angle_alpha   90.00000000
_cell_angle_beta   90.00000000
_cell_angle_gamma   90.00000000
_symmetry_Int_Tables_number   1
_chemical_formula_structural   PrNiSb2
_chemical_formula_sum   'Pr2 Ni2 Sb4'
_cell_volume   191.71620939
_cell_formula_units_Z   2
loop_
 _symmetry_equiv_pos_site_id
 _symmetry_equiv_pos_as_xyz
  1  'x, y, z'
loop_
 _atom_site_type_symbol
 _atom_site_label
 _atom_site_symmetry_multiplicity
 _atom_site_fract_x
 _atom_site_fract_y
 _atom_site_fract_z
 _atom_site_occupancy
  Pr  Pr0  1  -0.00000000  0.50000000  0.74272295  1
  Pr  Pr1  1  0.50000000  0.00000000  0.25727705  1
  Ni  Ni0  1  0.50000000  0.50000000  0.50000000  1
  Ni  Ni1  1  0.00000000  0.00000000  0.50000000  1
  Sb  Sb0  1  0.50000000  0.50000000  -0.00000000  1
  Sb  Sb1  1  0.00000000  0.00000000  -0.00000000  1
  Sb  Sb2  1  -0.00000000  0.50000000  0.37334911  1
  Sb  Sb3  1  0.50000000  0.00000000  0.62665089  1
loop_
_geom_bond_atom_site_label_1
_geom_bond_atom_site_label_2
_geom_bond_distance
_geom_bond_site_symmetry_2
Pr0 Sb3 3.317821 1_565
Pr0 Sb3 3.317821 1_465
Pr0 Sb3 3.317821 1_455
Pr0 Sb3 3.317821 1_555
Pr0 Sb0 3.364991 1_556
Pr0 Sb1 3.364991 1_556
Pr0 Sb0 3.364991 1_456
Pr0 Sb1 3.364991 1_566
Pr1 Sb2 3.317821 1_645
Pr1 Sb2 3.317821 1_545
Pr1 Sb2 3.317821 1_555
Pr1 Sb2 3.317821 1_655
Pr1 Sb0 3.364991 1_555
Pr1 Sb0 3.364991 1_545
Pr1 Sb1 3.364991 1_655
Pr1 Sb1 3.364991 1_555
Ni0 Sb2 2.532708 1_555
Ni0 Sb3 2.532708 1_555
Ni0 Sb2 2.532708 1_655
Ni0 Sb3 2.532708 1_565
Ni0 Pr1 3.257441 1_565
Ni0 Pr1 3.257441 1_555
Ni0 Pr0 3.257441 1_555
Ni0 Pr0 3.257441 1_655
Ni1 Sb2 2.532708 1_545
Ni1 Sb2 2.532708 1_555
Ni1 Sb3 2.532708 1_555
Ni1 Sb3 2.532708 1_455
Ni1 Pr0 3.257441 1_545
Ni1 Pr1 3.257441 1_555
Ni1 Pr0 3.257441 1_555
Ni1 Pr1 3.257441 1_455
Sb0 Sb1 3.112762 1_665
Sb0 Sb1 3.112762 1_655
Sb0 Sb1 3.112762 1_565
Sb0 Sb1 3.112762 1_555
