# generated using pymatgen
data_MoPd2
_symmetry_space_group_name_H-M   'P 1'
_cell_length_a   5.49414548
_cell_length_b   7.88813902
_cell_length_c   9.52868390
_cell_angle_alpha   114.45104258
_cell_angle_beta   106.75590637
_cell_angle_gamma   90.00000000
_symmetry_Int_Tables_number   1
_chemical_formula_structural   MoPd2
_chemical_formula_sum   'Mo8 Pd16'
_cell_volume   356.57337081
_cell_formula_units_Z   8
loop_
 _symmetry_equiv_pos_site_id
 _symmetry_equiv_pos_as_xyz
  1  'x, y, z'
loop_
 _atom_site_type_symbol
 _atom_site_label
 _atom_site_symmetry_multiplicity
 _atom_site_fract_x
 _atom_site_fract_y
 _atom_site_fract_z
 _atom_site_occupancy
  Mo  Mo0_0  1  0.00000000  0.00000000  0.00000000  1
  Mo  Mo0_1  1  0.00000000  0.00000000  0.50000000  1
  Mo  Mo0_2  1  0.00000000  0.50000000  0.00000000  1
  Mo  Mo0_3  1  0.00000000  0.50000000  0.50000000  1
  Mo  Mo0_4  1  0.50000000  0.00000000  0.00000000  1
  Mo  Mo0_5  1  0.50000000  0.00000000  0.50000000  1
  Mo  Mo0_6  1  0.50000000  0.50000000  0.00000000  1
  Mo  Mo0_7  1  0.50000000  0.50000000  0.50000000  1
  Pd  Pd0_0  1  0.16739819  0.16739819  0.33479688  1
  Pd  Pd0_1  1  0.16739819  0.16739819  0.83479688  1
  Pd  Pd0_2  1  0.16739819  0.66739819  0.33479688  1
  Pd  Pd0_3  1  0.16739819  0.66739819  0.83479688  1
  Pd  Pd0_4  1  0.66739819  0.16739819  0.33479688  1
  Pd  Pd0_5  1  0.66739819  0.16739819  0.83479688  1
  Pd  Pd0_6  1  0.66739819  0.66739819  0.33479688  1
  Pd  Pd0_7  1  0.66739819  0.66739819  0.83479688  1
  Pd  Pd1_0  1  0.33260181  0.33260181  0.16520312  1
  Pd  Pd1_1  1  0.33260181  0.33260181  0.66520312  1
  Pd  Pd1_2  1  0.33260181  0.83260181  0.16520312  1
  Pd  Pd1_3  1  0.33260181  0.83260181  0.66520312  1
  Pd  Pd1_4  1  0.83260181  0.33260181  0.16520312  1
  Pd  Pd1_5  1  0.83260181  0.33260181  0.66520312  1
  Pd  Pd1_6  1  0.83260181  0.83260181  0.16520312  1
  Pd  Pd1_7  1  0.83260181  0.83260181  0.66520312  1
loop_
_geom_bond_atom_site_label_1
_geom_bond_atom_site_label_2
_geom_bond_distance
_geom_bond_site_symmetry_2
Mo0_0 Mo0_4 2.747073 1_455
Mo0_0 Mo0_4 2.747073 1_555
Mo0_0 Pd1_7 2.754581 1_444
Mo0_0 Pd0_0 2.754581 1_555
Mo0_0 Pd1_6 2.760981 1_445
Mo0_0 Pd0_1 2.760981 1_554
Mo0_0 Pd1_2 2.760982 1_545
Mo0_0 Pd0_5 2.760982 1_454
Mo0_0 Pd1_4 2.760983 1_455
Mo0_0 Pd0_3 2.760983 1_544
Mo0_0 Pd0_7 2.760985 1_444
Mo0_0 Pd1_0 2.760985 1_555
Mo0_1 Mo0_5 2.747073 1_555
Mo0_1 Mo0_5 2.747073 1_455
Mo0_1 Pd0_1 2.754581 1_555
Mo0_1 Pd1_6 2.754581 1_445
Mo0_1 Pd1_7 2.760981 1_445
Mo0_1 Pd0_0 2.760981 1_555
Mo0_1 Pd1_3 2.760982 1_545
Mo0_1 Pd0_4 2.760982 1_455
Mo0_1 Pd0_2 2.760983 1_545
Mo0_1 Pd1_5 2.760983 1_455
Mo0_1 Pd1_1 2.760985 1_555
Mo0_1 Pd0_6 2.760985 1_445
Mo0_2 Mo0_6 2.747073 1_455
Mo0_2 Mo0_6 2.747073 1_555
Mo0_2 Pd1_5 2.754581 1_454
Mo0_2 Pd0_2 2.754581 1_555
Mo0_2 Pd1_4 2.760981 1_455
Mo0_2 Pd0_3 2.760981 1_554
Mo0_2 Pd1_0 2.760982 1_555
Mo0_2 Pd0_7 2.760982 1_454
Mo0_2 Pd1_6 2.760983 1_455
Mo0_2 Pd0_1 2.760983 1_554
Mo0_2 Pd0_5 2.760985 1_454
Mo0_2 Pd1_2 2.760985 1_555
Mo0_3 Mo0_7 2.747073 1_555
Mo0_3 Mo0_7 2.747073 1_455
Mo0_3 Pd0_3 2.754581 1_555
Mo0_3 Pd1_4 2.754581 1_455
Mo0_3 Pd1_5 2.760981 1_455
Mo0_3 Pd0_2 2.760981 1_555
Mo0_3 Pd1_1 2.760982 1_555
Mo0_3 Pd0_6 2.760982 1_455
Mo0_3 Pd0_0 2.760983 1_555
Mo0_3 Pd1_7 2.760983 1_455
Mo0_3 Pd0_4 2.760985 1_455
Mo0_3 Pd1_3 2.760985 1_555
Mo0_4 Pd1_3 2.754581 1_544
Mo0_4 Pd0_4 2.754581 1_555
Mo0_4 Pd1_2 2.760981 1_545
Mo0_4 Pd0_5 2.760981 1_554
Mo0_4 Pd1_6 2.760982 1_545
Mo0_4 Pd0_1 2.760982 1_554
Mo0_4 Pd1_0 2.760983 1_555
Mo0_4 Pd0_7 2.760983 1_544
Mo0_4 Pd0_3 2.760985 1_544
Mo0_4 Pd1_4 2.760985 1_555
Mo0_5 Pd1_2 2.754581 1_545
Mo0_5 Pd0_5 2.754581 1_555
Mo0_5 Pd1_3 2.760981 1_545
Mo0_5 Pd0_4 2.760981 1_555
Mo0_5 Pd1_7 2.760982 1_545
Mo0_5 Pd0_0 2.760982 1_555
Mo0_5 Pd1_1 2.760983 1_555
Mo0_5 Pd0_6 2.760983 1_545
Mo0_5 Pd0_2 2.760985 1_545
Mo0_5 Pd1_5 2.760985 1_555
Mo0_6 Pd1_1 2.754581 1_554
Mo0_6 Pd0_6 2.754581 1_555
Mo0_6 Pd1_0 2.760981 1_555
Mo0_6 Pd0_7 2.760981 1_554
Mo0_6 Pd1_4 2.760982 1_555
Mo0_6 Pd0_3 2.760982 1_554
Mo0_6 Pd1_2 2.760983 1_555
Mo0_6 Pd0_5 2.760983 1_554
Mo0_6 Pd0_1 2.760985 1_554
Mo0_6 Pd1_6 2.760985 1_555
Mo0_7 Pd1_0 2.754581 1_555
Mo0_7 Pd0_7 2.754581 1_555
Mo0_7 Pd0_6 2.760981 1_555
Mo0_7 Pd1_1 2.760981 1_555
Mo0_7 Pd1_5 2.760982 1_555
Mo0_7 Pd0_2 2.760982 1_555
Mo0_7 Pd0_4 2.760983 1_555
Mo0_7 Pd1_3 2.760983 1_555
Mo0_7 Pd0_0 2.760985 1_555
Mo0_7 Pd1_7 2.760985 1_555
Pd0_0 Pd1_1 2.718457 1_555
Pd0_0 Pd0_4 2.747073 1_455
Pd0_0 Pd0_4 2.747073 1_555
Pd0_0 Pd1_6 2.778940 1_445
Pd0_0 Pd1_2 2.778943 1_545
Pd0_0 Pd1_4 2.778946 1_455
Pd0_0 Pd1_0 2.778949 1_555
Pd0_1 Pd1_0 2.718457 1_556
Pd0_1 Pd0_5 2.747073 1_555
Pd0_1 Pd0_5 2.747073 1_455
Pd0_1 Pd1_7 2.778940 1_445
Pd0_1 Pd1_3 2.778943 1_545
Pd0_1 Pd1_5 2.778946 1_455
Pd0_1 Pd1_1 2.778949 1_555
Pd0_2 Pd1_3 2.718457 1_555
Pd0_2 Pd0_6 2.747073 1_555
Pd0_2 Pd0_6 2.747073 1_455
Pd0_2 Pd1_4 2.778940 1_455
Pd0_2 Pd1_0 2.778943 1_555
Pd0_2 Pd1_6 2.778946 1_455
Pd0_2 Pd1_2 2.778949 1_555
Pd0_3 Pd1_2 2.718457 1_556
Pd0_3 Pd0_7 2.747073 1_455
Pd0_3 Pd0_7 2.747073 1_555
Pd0_3 Pd1_5 2.778940 1_455
Pd0_3 Pd1_1 2.778943 1_555
Pd0_3 Pd1_7 2.778946 1_455
Pd0_3 Pd1_3 2.778949 1_555
Pd0_4 Pd1_5 2.718457 1_555
Pd0_4 Pd1_2 2.778940 1_545
Pd0_4 Pd1_6 2.778943 1_545
Pd0_4 Pd1_0 2.778946 1_555
Pd0_4 Pd1_4 2.778949 1_555
Pd0_5 Pd1_4 2.718457 1_556
Pd0_5 Pd1_3 2.778940 1_545
Pd0_5 Pd1_7 2.778943 1_545
Pd0_5 Pd1_1 2.778946 1_555
Pd0_5 Pd1_5 2.778949 1_555
Pd0_6 Pd1_7 2.718457 1_555
Pd0_6 Pd1_0 2.778940 1_555
Pd0_6 Pd1_4 2.778943 1_555
Pd0_6 Pd1_2 2.778946 1_555
Pd0_6 Pd1_6 2.778949 1_555
Pd0_7 Pd1_6 2.718457 1_556
Pd0_7 Pd1_1 2.778940 1_555
Pd0_7 Pd1_5 2.778943 1_555
Pd0_7 Pd1_3 2.778946 1_555
Pd0_7 Pd1_7 2.778949 1_555
Pd1_0 Pd1_4 2.747073 1_455
Pd1_0 Pd1_4 2.747073 1_555
Pd1_1 Pd1_5 2.747073 1_455
Pd1_1 Pd1_5 2.747073 1_555
Pd1_2 Pd1_6 2.747073 1_455
Pd1_2 Pd1_6 2.747073 1_555
Pd1_3 Pd1_7 2.747073 1_455
Pd1_3 Pd1_7 2.747073 1_555
