# generated using pymatgen
data_Si
_symmetry_space_group_name_H-M   'P 1'
_cell_length_a   10.17112977
_cell_length_b   10.17112977
_cell_length_c   10.34639782
_cell_angle_alpha   90.00000000
_cell_angle_beta   90.00000000
_cell_angle_gamma   119.99577381
_symmetry_Int_Tables_number   1
_chemical_formula_structural   Si
_chemical_formula_sum   Si40
_cell_volume   926.99349910
_cell_formula_units_Z   40
loop_
 _symmetry_equiv_pos_site_id
 _symmetry_equiv_pos_as_xyz
  1  'x, y, z'
loop_
 _atom_site_type_symbol
 _atom_site_label
 _atom_site_symmetry_multiplicity
 _atom_site_fract_x
 _atom_site_fract_y
 _atom_site_fract_z
 _atom_site_occupancy
  Si  Si0  1  0.29053379  0.08105850  0.68764395  1
  Si  Si1  1  0.70946621  0.91894150  0.68764395  1
  Si  Si2  1  0.91894150  0.70946621  0.31235605  1
  Si  Si3  1  0.08105850  0.29053379  0.31235605  1
  Si  Si4  1  0.70946621  0.91894150  0.31235605  1
  Si  Si5  1  0.29053379  0.08105850  0.31235605  1
  Si  Si6  1  0.08105850  0.29053379  0.68764395  1
  Si  Si7  1  0.91894150  0.70946621  0.68764395  1
  Si  Si8  1  0.11948774  0.49997746  0.81322743  1
  Si  Si9  1  0.88051226  0.50002254  0.81322743  1
  Si  Si10  1  0.50002254  0.88051226  0.18677257  1
  Si  Si11  1  0.49997746  0.11948774  0.18677257  1
  Si  Si12  1  0.88051226  0.50002254  0.18677257  1
  Si  Si13  1  0.11948774  0.49997746  0.18677257  1
  Si  Si14  1  0.49997746  0.11948774  0.81322743  1
  Si  Si15  1  0.50002254  0.88051226  0.81322743  1
  Si  Si16  1  0.11945400  0.11945400  0.81320223  1
  Si  Si17  1  0.88054600  0.88054600  0.81320223  1
  Si  Si18  1  0.88054600  0.88054600  0.18679777  1
  Si  Si19  1  0.11945400  0.11945400  0.18679777  1
  Si  Si20  1  0.36766728  0.63233272  0.50000000  1
  Si  Si21  1  0.63233272  0.36766728  0.50000000  1
  Si  Si22  1  0.29068327  0.70931673  0.68762969  1
  Si  Si23  1  0.70931673  0.29068327  0.68762969  1
  Si  Si24  1  0.29068327  0.70931673  0.31237031  1
  Si  Si25  1  0.70931673  0.29068327  0.31237031  1
  Si  Si26  1  0.16676342  0.83323658  0.61219109  1
  Si  Si27  1  0.83323658  0.16676342  0.61219109  1
  Si  Si28  1  0.16676342  0.83323658  0.38780891  1
  Si  Si29  1  0.83323658  0.16676342  0.38780891  1
  Si  Si30  1  0.36740583  0.23494524  0.50000000  1
  Si  Si31  1  0.63259417  0.76505476  0.50000000  1
  Si  Si32  1  0.76505476  0.63259417  0.50000000  1
  Si  Si33  1  0.23494524  0.36740583  0.50000000  1
  Si  Si34  1  0.25763201  0.25763201  -0.00000000  1
  Si  Si35  1  0.74236799  0.74236799  -0.00000000  1
  Si  Si36  1  0.25770943  0.49997396  -0.00000000  1
  Si  Si37  1  0.74229057  0.50002604  -0.00000000  1
  Si  Si38  1  0.50002604  0.74229057  -0.00000000  1
  Si  Si39  1  0.49997396  0.25770943  -0.00000000  1
loop_
_geom_bond_atom_site_label_1
_geom_bond_atom_site_label_2
_geom_bond_distance
_geom_bond_site_symmetry_2
Si0 Si26 2.318410 1_545
Si0 Si14 2.355120 1_555
Si0 Si16 2.355297 1_555
Si0 Si30 2.367855 1_555
Si1 Si27 2.318410 1_565
Si1 Si15 2.355120 1_555
Si1 Si17 2.355297 1_555
Si1 Si31 2.367855 1_555
Si2 Si28 2.318410 1_655
Si2 Si32 2.367855 1_555
Si3 Si33 2.367855 1_555
Si6 Si8 2.355120 1_555
Si7 Si9 2.355120 1_555
Si8 Si9 2.430880 1_455
Si10 Si4 2.355120 1_555
Si10 Si24 2.355239 1_555
Si10 Si38 2.389724 1_555
Si10 Si11 2.430880 1_565
Si11 Si5 2.355120 1_555
Si11 Si25 2.355239 1_555
Si11 Si39 2.389724 1_555
Si12 Si2 2.355120 1_555
Si12 Si25 2.355239 1_555
Si12 Si37 2.389724 1_555
Si12 Si13 2.430880 1_655
Si13 Si3 2.355120 1_555
Si13 Si24 2.355239 1_555
Si13 Si36 2.389724 1_555
Si14 Si23 2.355239 1_555
Si14 Si39 2.389724 1_556
Si14 Si15 2.430880 1_545
Si15 Si22 2.355239 1_555
Si15 Si38 2.389724 1_556
Si16 Si6 2.355297 1_555
Si16 Si34 2.389716 1_556
Si16 Si17 2.430119 1_445
Si17 Si7 2.355297 1_555
Si17 Si35 2.389716 1_556
Si18 Si4 2.355297 1_555
Si18 Si2 2.355297 1_555
Si18 Si35 2.389716 1_555
Si18 Si19 2.430119 1_665
Si19 Si5 2.355297 1_555
Si19 Si3 2.355297 1_555
Si19 Si34 2.389716 1_555
Si20 Si33 2.333698 1_555
Si20 Si31 2.333698 1_555
Si20 Si24 2.368094 1_555
Si20 Si22 2.368094 1_555
Si21 Si30 2.333698 1_555
Si21 Si32 2.333698 1_555
Si21 Si25 2.368094 1_555
Si21 Si23 2.368094 1_555
Si22 Si26 2.318376 1_555
Si22 Si8 2.355239 1_555
Si23 Si27 2.318376 1_555
Si23 Si9 2.355239 1_555
Si24 Si28 2.318376 1_555
Si25 Si29 2.318376 1_555
Si26 Si7 2.318410 1_455
Si26 Si28 2.321547 1_555
Si27 Si6 2.318410 1_655
Si27 Si29 2.321547 1_555
Si28 Si5 2.318410 1_565
Si29 Si3 2.318410 1_655
Si29 Si4 2.318410 1_545
Si30 Si33 2.333497 1_555
Si30 Si5 2.367855 1_555
Si31 Si32 2.333497 1_555
Si31 Si4 2.367855 1_555
Si32 Si7 2.367855 1_555
Si33 Si6 2.367855 1_555
Si34 Si36 2.464498 1_555
Si34 Si39 2.464498 1_555
Si35 Si38 2.464498 1_555
Si35 Si37 2.464498 1_555
Si36 Si8 2.389724 1_554
Si36 Si38 2.464791 1_555
Si37 Si9 2.389724 1_554
Si37 Si39 2.464791 1_555
