# generated using pymatgen
data_Ho6Zn23
_symmetry_space_group_name_H-M   'P 1'
_cell_length_a   8.84876198
_cell_length_b   8.84876198
_cell_length_c   8.84876198
_cell_angle_alpha   60.00000000
_cell_angle_beta   60.00000000
_cell_angle_gamma   60.00000000
_symmetry_Int_Tables_number   1
_chemical_formula_structural   Ho6Zn23
_chemical_formula_sum   'Ho6 Zn23'
_cell_volume   489.92831725
_cell_formula_units_Z   1
loop_
 _symmetry_equiv_pos_site_id
 _symmetry_equiv_pos_as_xyz
  1  'x, y, z'
loop_
 _atom_site_type_symbol
 _atom_site_label
 _atom_site_symmetry_multiplicity
 _atom_site_fract_x
 _atom_site_fract_y
 _atom_site_fract_z
 _atom_site_occupancy
  Ho  Ho0  1  0.70722771  0.70722771  0.29277229  1
  Ho  Ho1  1  0.29277229  0.70722771  0.29277229  1
  Ho  Ho2  1  0.70722771  0.29277229  0.29277229  1
  Ho  Ho3  1  0.29277229  0.29277229  0.70722771  1
  Ho  Ho4  1  0.70722771  0.29277229  0.70722771  1
  Ho  Ho5  1  0.29277229  0.70722771  0.70722771  1
  Zn  Zn0  1  -0.00000000  0.00000000  0.00000000  1
  Zn  Zn1  1  -0.00000000  0.00000000  0.50000000  1
  Zn  Zn2  1  0.50000000  0.00000000  0.50000000  1
  Zn  Zn3  1  -0.00000000  0.50000000  0.50000000  1
  Zn  Zn4  1  0.50000000  0.50000000  0.00000000  1
  Zn  Zn5  1  -0.00000000  0.50000000  0.00000000  1
  Zn  Zn6  1  0.50000000  0.00000000  0.00000000  1
  Zn  Zn7  1  0.87686587  0.87686587  0.36940038  1
  Zn  Zn8  1  0.87686587  0.36940038  0.87686587  1
  Zn  Zn9  1  0.36940038  0.87686587  0.87686587  1
  Zn  Zn10  1  0.87686587  0.87686587  0.87686587  1
  Zn  Zn11  1  0.12313413  0.12313413  0.63059962  1
  Zn  Zn12  1  0.12313413  0.63059962  0.12313413  1
  Zn  Zn13  1  0.63059962  0.12313413  0.12313413  1
  Zn  Zn14  1  0.12313413  0.12313413  0.12313413  1
  Zn  Zn15  1  0.67202967  0.67202967  0.98391100  1
  Zn  Zn16  1  0.67202967  0.98391100  0.67202967  1
  Zn  Zn17  1  0.98391100  0.67202967  0.67202967  1
  Zn  Zn18  1  0.67202967  0.67202967  0.67202967  1
  Zn  Zn19  1  0.32797033  0.32797033  0.01608900  1
  Zn  Zn20  1  0.32797033  0.01608900  0.32797033  1
  Zn  Zn21  1  0.01608900  0.32797033  0.32797033  1
  Zn  Zn22  1  0.32797033  0.32797033  0.32797033  1
loop_
_geom_bond_atom_site_label_1
_geom_bond_atom_site_label_2
_geom_bond_distance
_geom_bond_site_symmetry_2
Ho0 Zn7 3.042241 1_555
Ho0 Zn10 3.042254 1_554
Ho0 Zn13 3.042256 1_565
Ho0 Zn12 3.042256 1_655
Ho0 Zn15 3.076197 1_554
Ho0 Zn21 3.076197 1_655
Ho0 Zn20 3.076197 1_565
Ho0 Zn18 3.076197 1_555
Ho0 Zn2 3.173968 1_565
Ho0 Zn3 3.173968 1_655
Ho0 Zn6 3.173968 1_565
Ho0 Zn5 3.173968 1_655
Ho1 Zn12 3.042241 1_555
Ho1 Zn14 3.042254 1_565
Ho1 Zn7 3.042256 1_455
Ho1 Zn9 3.042256 1_554
Ho1 Zn20 3.076197 1_565
Ho1 Zn17 3.076197 1_455
Ho1 Zn15 3.076197 1_554
Ho1 Zn22 3.076197 1_555
Ho1 Zn6 3.173968 1_565
Ho1 Zn1 3.173968 1_565
Ho1 Zn4 3.173968 1_555
Ho1 Zn3 3.173968 1_555
Ho2 Zn13 3.042241 1_555
Ho2 Zn14 3.042254 1_655
Ho2 Zn7 3.042256 1_545
Ho2 Zn8 3.042256 1_554
Ho2 Zn21 3.076197 1_655
Ho2 Zn15 3.076197 1_554
Ho2 Zn16 3.076197 1_545
Ho2 Zn22 3.076197 1_555
Ho2 Zn5 3.173968 1_655
Ho2 Zn1 3.173968 1_655
Ho2 Zn4 3.173968 1_555
Ho2 Zn2 3.173968 1_555
Ho3 Zn11 3.042241 1_555
Ho3 Zn14 3.042254 1_556
Ho3 Zn8 3.042256 1_455
Ho3 Zn9 3.042256 1_545
Ho3 Zn19 3.076197 1_556
Ho3 Zn16 3.076197 1_545
Ho3 Zn17 3.076197 1_455
Ho3 Zn22 3.076197 1_555
Ho3 Zn6 3.173968 1_556
Ho3 Zn5 3.173968 1_556
Ho3 Zn2 3.173968 1_555
Ho3 Zn3 3.173968 1_555
Ho4 Zn8 3.042241 1_555
Ho4 Zn10 3.042254 1_545
Ho4 Zn13 3.042256 1_556
Ho4 Zn11 3.042256 1_655
Ho4 Zn16 3.076197 1_545
Ho4 Zn19 3.076197 1_556
Ho4 Zn21 3.076197 1_655
Ho4 Zn18 3.076197 1_555
Ho4 Zn3 3.173968 1_655
Ho4 Zn4 3.173968 1_556
Ho4 Zn6 3.173968 1_556
Ho4 Zn1 3.173968 1_655
Ho5 Zn9 3.042241 1_555
Ho5 Zn10 3.042254 1_455
Ho5 Zn12 3.042256 1_556
Ho5 Zn11 3.042256 1_565
Ho5 Zn17 3.076197 1_455
Ho5 Zn19 3.076197 1_556
Ho5 Zn20 3.076197 1_565
Ho5 Zn18 3.076197 1_555
Ho5 Zn2 3.173968 1_565
Ho5 Zn4 3.173968 1_556
Ho5 Zn5 3.173968 1_556
Ho5 Zn1 3.173968 1_565
Zn0 Zn13 2.668912 1_455
Zn0 Zn11 2.668912 1_554
Zn0 Zn12 2.668912 1_545
Zn0 Zn7 2.668912 1_445
Zn0 Zn8 2.668912 1_454
Zn0 Zn9 2.668912 1_544
Zn0 Zn10 2.668926 1_444
Zn0 Zn14 2.668926 1_555
Zn1 Zn16 2.557061 1_445
Zn1 Zn17 2.557061 1_445
Zn1 Zn20 2.557061 1_555
Zn1 Zn21 2.557061 1_555
Zn1 Zn14 2.723117 1_555
Zn1 Zn10 2.723117 1_445
Zn1 Zn7 2.723131 1_445
Zn1 Zn11 2.723131 1_555
Zn2 Zn22 2.557061 1_555
Zn2 Zn20 2.557061 1_555
Zn2 Zn9 2.723117 1_545
Zn2 Zn7 2.723117 1_545
Zn3 Zn8 2.723117 1_455
Zn3 Zn7 2.723117 1_455
Zn4 Zn8 2.723117 1_554
Zn4 Zn9 2.723117 1_554
Zn5 Zn8 2.723131 1_454
Zn6 Zn9 2.723131 1_544
Zn10 Zn16 2.705448 1_555
Zn10 Zn17 2.705448 1_555
Zn10 Zn15 2.705448 1_555
Zn10 Zn5 2.723117 1_656
Zn10 Zn6 2.723117 1_566
Zn11 Zn22 2.705453 1_555
Zn11 Zn21 2.705463 1_555
Zn11 Zn20 2.705463 1_555
Zn11 Zn2 2.723117 1_555
Zn11 Zn3 2.723117 1_555
Zn12 Zn22 2.705453 1_555
Zn12 Zn21 2.705463 1_555
Zn12 Zn19 2.705463 1_555
Zn12 Zn4 2.723117 1_555
Zn12 Zn3 2.723117 1_555
Zn12 Zn5 2.723131 1_555
Zn13 Zn22 2.705453 1_555
Zn13 Zn19 2.705463 1_555
Zn13 Zn20 2.705463 1_555
Zn13 Zn4 2.723117 1_555
Zn13 Zn2 2.723117 1_555
Zn13 Zn6 2.723131 1_555
Zn14 Zn21 2.705448 1_555
Zn14 Zn19 2.705448 1_555
Zn14 Zn20 2.705448 1_555
Zn14 Zn6 2.723117 1_555
Zn14 Zn5 2.723117 1_555
Zn15 Zn5 2.557061 1_656
Zn15 Zn6 2.557061 1_566
Zn15 Zn4 2.557061 1_556
Zn15 Zn9 2.705463 1_555
Zn15 Zn8 2.705463 1_555
Zn15 Zn16 2.759764 1_555
Zn15 Zn17 2.759764 1_555
Zn15 Zn18 2.759764 1_555
Zn16 Zn6 2.557061 1_566
Zn16 Zn2 2.557061 1_565
Zn16 Zn9 2.705463 1_555
Zn16 Zn7 2.705463 1_555
Zn16 Zn17 2.759764 1_555
Zn16 Zn18 2.759764 1_555
Zn17 Zn5 2.557061 1_656
Zn17 Zn3 2.557061 1_655
Zn17 Zn7 2.705463 1_555
Zn17 Zn8 2.705463 1_555
Zn17 Zn18 2.759764 1_555
Zn18 Zn3 2.557061 1_655
Zn18 Zn4 2.557061 1_556
Zn18 Zn2 2.557061 1_565
Zn18 Zn9 2.705453 1_555
Zn18 Zn7 2.705453 1_555
Zn18 Zn8 2.705453 1_555
Zn19 Zn5 2.557061 1_555
Zn19 Zn6 2.557061 1_555
Zn19 Zn4 2.557061 1_555
Zn19 Zn22 2.759764 1_555
Zn19 Zn20 2.759764 1_555
Zn19 Zn21 2.759764 1_555
Zn20 Zn6 2.557061 1_555
Zn20 Zn22 2.759764 1_555
Zn20 Zn21 2.759764 1_555
Zn21 Zn5 2.557061 1_555
Zn21 Zn3 2.557061 1_555
Zn21 Zn22 2.759764 1_555
Zn22 Zn4 2.557061 1_555
Zn22 Zn3 2.557061 1_555
