# generated using pymatgen
data_Yb3Co4Sn13
_symmetry_space_group_name_H-M   'P 1'
_cell_length_a   9.56891300
_cell_length_b   9.56891300
_cell_length_c   9.56891300
_cell_angle_alpha   90.00000000
_cell_angle_beta   90.00000000
_cell_angle_gamma   90.00000000
_symmetry_Int_Tables_number   1
_chemical_formula_structural   Yb3Co4Sn13
_chemical_formula_sum   'Yb6 Co8 Sn26'
_cell_volume   876.16886856
_cell_formula_units_Z   2
loop_
 _symmetry_equiv_pos_site_id
 _symmetry_equiv_pos_as_xyz
  1  'x, y, z'
loop_
 _atom_site_type_symbol
 _atom_site_label
 _atom_site_symmetry_multiplicity
 _atom_site_fract_x
 _atom_site_fract_y
 _atom_site_fract_z
 _atom_site_occupancy
  Yb  Yb0  1  0.50000000  0.00000000  0.75000000  1
  Yb  Yb1  1  0.00000000  0.25000000  0.50000000  1
  Yb  Yb2  1  0.75000000  0.50000000  0.00000000  1
  Yb  Yb3  1  0.50000000  0.00000000  0.25000000  1
  Yb  Yb4  1  0.00000000  0.75000000  0.50000000  1
  Yb  Yb5  1  0.25000000  0.50000000  0.00000000  1
  Co  Co0  1  0.75000000  0.25000000  0.75000000  1
  Co  Co1  1  0.25000000  0.75000000  0.25000000  1
  Co  Co2  1  0.75000000  0.75000000  0.25000000  1
  Co  Co3  1  0.25000000  0.25000000  0.75000000  1
  Co  Co4  1  0.25000000  0.75000000  0.75000000  1
  Co  Co5  1  0.75000000  0.25000000  0.25000000  1
  Co  Co6  1  0.25000000  0.25000000  0.25000000  1
  Co  Co7  1  0.75000000  0.75000000  0.75000000  1
  Sn  Sn0  1  0.50000000  0.50000000  0.50000000  1
  Sn  Sn1  1  0.00000000  0.00000000  0.00000000  1
  Sn  Sn2  1  0.65730500  0.19623200  0.50000000  1
  Sn  Sn3  1  0.80376800  0.50000000  0.65730500  1
  Sn  Sn4  1  0.50000000  0.34269500  0.80376800  1
  Sn  Sn5  1  0.34269500  0.80376800  0.50000000  1
  Sn  Sn6  1  0.19623200  0.50000000  0.34269500  1
  Sn  Sn7  1  0.50000000  0.65730500  0.19623200  1
  Sn  Sn8  1  0.65730500  0.80376800  0.50000000  1
  Sn  Sn9  1  0.80376800  0.50000000  0.34269500  1
  Sn  Sn10  1  0.34269500  0.19623200  0.50000000  1
  Sn  Sn11  1  0.19623200  0.50000000  0.65730500  1
  Sn  Sn12  1  0.50000000  0.65730500  0.80376800  1
  Sn  Sn13  1  0.50000000  0.34269500  0.19623200  1
  Sn  Sn14  1  0.15730500  0.00000000  0.69623200  1
  Sn  Sn15  1  0.30376800  0.15730500  0.00000000  1
  Sn  Sn16  1  0.00000000  0.30376800  0.84269500  1
  Sn  Sn17  1  0.84269500  0.00000000  0.30376800  1
  Sn  Sn18  1  0.69623200  0.84269500  0.00000000  1
  Sn  Sn19  1  0.00000000  0.69623200  0.15730500  1
  Sn  Sn20  1  0.15730500  0.00000000  0.30376800  1
  Sn  Sn21  1  0.30376800  0.84269500  0.00000000  1
  Sn  Sn22  1  0.84269500  0.00000000  0.69623200  1
  Sn  Sn23  1  0.69623200  0.15730500  0.00000000  1
  Sn  Sn24  1  0.00000000  0.30376800  0.15730500  1
  Sn  Sn25  1  0.00000000  0.69623200  0.84269500  1
loop_
_geom_bond_atom_site_label_1
_geom_bond_atom_site_label_2
_geom_bond_distance
_geom_bond_site_symmetry_2
Co0 Sn23 2.602733 1_556
Co0 Sn16 2.602733 1_655
Co0 Sn3 2.602733 1_555
Co0 Sn22 2.602733 1_555
Co0 Sn4 2.602733 1_555
Co0 Sn2 2.602733 1_555
Co0 Yb0 3.383122 1_555
Co0 Yb1 3.383122 1_655
Co0 Yb2 3.383122 1_556
Co1 Sn21 2.602733 1_555
Co1 Sn7 2.602733 1_555
Co1 Sn19 2.602733 1_555
Co1 Sn6 2.602733 1_555
Co1 Sn20 2.602733 1_565
Co1 Sn5 2.602733 1_555
Co1 Yb3 3.383122 1_565
Co1 Yb4 3.383122 1_555
Co1 Yb5 3.383122 1_555
Co2 Sn8 2.602733 1_555
Co2 Sn9 2.602733 1_555
Co2 Sn18 2.602733 1_555
Co2 Sn7 2.602733 1_555
Co2 Sn19 2.602733 1_655
Co2 Sn17 2.602733 1_565
Co2 Yb3 3.383122 1_565
Co2 Yb4 3.383122 1_655
Co2 Yb2 3.383122 1_555
Co3 Sn15 2.602733 1_556
Co3 Sn16 2.602733 1_555
Co3 Sn4 2.602733 1_555
Co3 Sn10 2.602733 1_555
Co3 Sn14 2.602733 1_555
Co3 Sn11 2.602733 1_555
Co3 Yb0 3.383122 1_555
Co3 Yb1 3.383122 1_555
Co3 Yb5 3.383122 1_556
Co4 Sn12 2.602733 1_555
Co4 Sn21 2.602733 1_556
Co4 Sn25 2.602733 1_555
Co4 Sn14 2.602733 1_565
Co4 Sn5 2.602733 1_555
Co4 Sn11 2.602733 1_555
Co4 Yb4 3.383122 1_555
Co4 Yb0 3.383122 1_565
Co4 Yb5 3.383122 1_556
Co5 Sn9 2.602733 1_555
Co5 Sn24 2.602733 1_655
Co5 Sn13 2.602733 1_555
Co5 Sn17 2.602733 1_555
Co5 Sn2 2.602733 1_555
Co5 Sn23 2.602733 1_555
Co5 Yb3 3.383122 1_555
Co5 Yb1 3.383122 1_655
Co5 Yb2 3.383122 1_555
Co6 Sn15 2.602733 1_555
Co6 Sn13 2.602733 1_555
Co6 Sn20 2.602733 1_555
Co6 Sn6 2.602733 1_555
Co6 Sn10 2.602733 1_555
Co6 Sn24 2.602733 1_555
Co6 Yb1 3.383122 1_555
Co6 Yb5 3.383122 1_555
Co6 Yb3 3.383122 1_555
Co7 Sn8 2.602733 1_555
Co7 Sn12 2.602733 1_555
Co7 Sn22 2.602733 1_565
Co7 Sn25 2.602733 1_655
Co7 Sn3 2.602733 1_555
Co7 Sn18 2.602733 1_556
Co7 Yb0 3.383122 1_565
Co7 Yb4 3.383122 1_655
Co7 Yb2 3.383122 1_556
Sn0 Sn9 3.273350 1_555
Sn0 Sn12 3.273350 1_555
Sn0 Sn13 3.273350 1_555
Sn0 Sn3 3.273350 1_555
Sn0 Sn6 3.273350 1_555
Sn0 Sn10 3.273350 1_555
Sn0 Sn7 3.273350 1_555
Sn0 Sn4 3.273350 1_555
Sn0 Sn5 3.273350 1_555
Sn0 Sn2 3.273350 1_555
Sn0 Sn11 3.273350 1_555
Sn0 Sn8 3.273350 1_555
Sn1 Sn20 3.273350 1_555
Sn1 Sn24 3.273350 1_555
Sn1 Sn15 3.273350 1_555
Sn1 Sn16 3.273350 1_554
Sn1 Sn21 3.273350 1_545
Sn1 Sn25 3.273350 1_544
Sn1 Sn17 3.273350 1_455
Sn1 Sn14 3.273350 1_554
Sn1 Sn19 3.273350 1_545
Sn1 Sn23 3.273350 1_455
Sn1 Sn18 3.273350 1_445
Sn1 Sn22 3.273350 1_454
Sn2 Sn22 3.193544 1_555
Sn2 Yb1 3.319335 1_655
Sn2 Yb0 3.393281 1_555
Sn2 Yb3 3.393281 1_555
Sn3 Sn9 3.010476 1_555
Sn3 Yb2 3.319335 1_556
Sn3 Yb1 3.393281 1_655
Sn3 Yb4 3.393281 1_655
Sn4 Yb0 3.319335 1_555
Sn4 Yb2 3.393281 1_556
Sn4 Yb5 3.393281 1_556
Sn5 Sn8 3.010476 1_555
Sn5 Yb4 3.319335 1_555
Sn5 Yb3 3.393281 1_565
Sn5 Yb0 3.393281 1_565
Sn6 Yb5 3.319335 1_555
Sn6 Yb1 3.393281 1_555
Sn6 Yb4 3.393281 1_555
Sn7 Yb3 3.319335 1_565
Sn7 Yb2 3.393281 1_555
Sn7 Yb5 3.393281 1_555
Sn8 Yb4 3.319335 1_655
Sn8 Yb0 3.393281 1_565
Sn8 Yb3 3.393281 1_565
Sn9 Yb2 3.319335 1_555
Sn9 Yb1 3.393281 1_655
Sn9 Yb4 3.393281 1_655
Sn10 Sn2 3.010476 1_555
Sn10 Sn14 3.193544 1_555
Sn10 Sn20 3.193544 1_555
Sn10 Yb1 3.319335 1_555
Sn10 Yb3 3.393281 1_555
Sn10 Yb0 3.393281 1_555
Sn11 Sn6 3.010476 1_555
Sn11 Sn25 3.193544 1_555
Sn11 Sn16 3.193544 1_555
Sn11 Yb5 3.319335 1_556
Sn11 Yb4 3.393281 1_555
Sn11 Yb1 3.393281 1_555
Sn12 Sn4 3.010476 1_555
Sn12 Sn18 3.193544 1_556
Sn12 Sn21 3.193544 1_556
Sn12 Yb0 3.319335 1_565
Sn12 Yb2 3.393281 1_556
Sn12 Yb5 3.393281 1_556
Sn13 Sn7 3.010476 1_555
Sn13 Sn23 3.193544 1_555
Sn13 Sn15 3.193544 1_555
Sn13 Yb3 3.319335 1_555
Sn13 Yb2 3.393281 1_555
Sn13 Yb5 3.393281 1_555
Sn14 Sn22 3.010476 1_455
Sn14 Sn5 3.193544 1_545
Sn14 Yb0 3.319335 1_555
Sn14 Yb4 3.393281 1_545
Sn14 Yb1 3.393281 1_555
Sn15 Sn21 3.010476 1_545
Sn15 Sn4 3.193544 1_554
Sn15 Yb5 3.319335 1_555
Sn15 Yb3 3.393281 1_555
Sn15 Yb0 3.393281 1_554
Sn16 Sn24 3.010476 1_556
Sn16 Sn3 3.193544 1_455
Sn16 Yb1 3.319335 1_555
Sn16 Yb2 3.393281 1_456
Sn16 Yb5 3.393281 1_556
Sn17 Sn20 3.010476 1_655
Sn17 Sn8 3.193544 1_545
Sn17 Sn2 3.193544 1_555
Sn17 Yb3 3.319335 1_555
Sn17 Yb1 3.393281 1_655
Sn17 Yb4 3.393281 1_645
Sn18 Sn23 3.010476 1_565
Sn18 Sn7 3.193544 1_555
Sn18 Yb2 3.319335 1_555
Sn18 Yb3 3.393281 1_565
Sn18 Yb0 3.393281 1_564
Sn19 Sn25 3.010476 1_554
Sn19 Sn9 3.193544 1_455
Sn19 Sn6 3.193544 1_555
Sn19 Yb4 3.319335 1_555
Sn19 Yb5 3.393281 1_555
Sn19 Yb2 3.393281 1_455
Sn20 Sn5 3.193544 1_545
Sn20 Yb3 3.319335 1_555
Sn20 Yb4 3.393281 1_545
Sn20 Yb1 3.393281 1_555
Sn21 Sn7 3.193544 1_555
Sn21 Yb5 3.319335 1_555
Sn21 Yb0 3.393281 1_564
Sn21 Yb3 3.393281 1_565
Sn22 Sn8 3.193544 1_545
Sn22 Yb0 3.319335 1_555
Sn22 Yb1 3.393281 1_655
Sn22 Yb4 3.393281 1_645
Sn23 Sn4 3.193544 1_554
Sn23 Yb2 3.319335 1_555
Sn23 Yb0 3.393281 1_554
Sn23 Yb3 3.393281 1_555
Sn24 Sn9 3.193544 1_455
Sn24 Sn6 3.193544 1_555
Sn24 Yb1 3.319335 1_555
Sn24 Yb2 3.393281 1_455
Sn24 Yb5 3.393281 1_555
Sn25 Sn3 3.193544 1_455
Sn25 Yb4 3.319335 1_555
Sn25 Yb2 3.393281 1_456
Sn25 Yb5 3.393281 1_556
