# generated using pymatgen
data_Ce3CrS6
_symmetry_space_group_name_H-M   'P 1'
_cell_length_a   3.87768339
_cell_length_b   13.50697973
_cell_length_c   16.11890240
_cell_angle_alpha   90.00000000
_cell_angle_beta   90.00000000
_cell_angle_gamma   90.00000000
_symmetry_Int_Tables_number   1
_chemical_formula_structural   Ce3CrS6
_chemical_formula_sum   'Ce12 Cr4 S24'
_cell_volume   844.24026242
_cell_formula_units_Z   4
loop_
 _symmetry_equiv_pos_site_id
 _symmetry_equiv_pos_as_xyz
  1  'x, y, z'
loop_
 _atom_site_type_symbol
 _atom_site_label
 _atom_site_symmetry_multiplicity
 _atom_site_fract_x
 _atom_site_fract_y
 _atom_site_fract_z
 _atom_site_occupancy
  Ce  Ce0  1  -0.00000000  0.54997114  0.28542760  1
  Ce  Ce1  1  -0.00000000  0.45002886  0.71457240  1
  Ce  Ce2  1  0.50000000  0.95002886  0.78542760  1
  Ce  Ce3  1  0.50000000  0.04997114  0.21457240  1
  Ce  Ce4  1  -0.00000000  0.75797190  0.09819829  1
  Ce  Ce5  1  0.00000000  0.24202810  0.90180171  1
  Ce  Ce6  1  0.50000000  0.74202810  0.59819829  1
  Ce  Ce7  1  0.50000000  0.25797190  0.40180171  1
  Ce  Ce8  1  -0.00000000  0.32011639  0.14753952  1
  Ce  Ce9  1  0.00000000  0.67988361  0.85246048  1
  Ce  Ce10  1  0.50000000  0.17988361  0.64753952  1
  Ce  Ce11  1  0.50000000  0.82011639  0.35246048  1
  Cr  Cr0  1  -0.00000000  -0.00000000  0.50000000  1
  Cr  Cr1  1  0.50000000  0.50000000  0.00000000  1
  Cr  Cr2  1  -0.00000000  -0.00000000  0.00000000  1
  Cr  Cr3  1  0.50000000  0.50000000  0.50000000  1
  S  S0  1  -0.00000000  0.12280013  0.10180094  1
  S  S1  1  0.00000000  0.87719987  0.89819906  1
  S  S2  1  0.50000000  0.37719987  0.60180094  1
  S  S3  1  0.50000000  0.62280013  0.39819906  1
  S  S4  1  -0.00000000  0.18600115  0.28916034  1
  S  S5  1  0.00000000  0.81399885  0.71083966  1
  S  S6  1  0.50000000  0.31399885  0.78916034  1
  S  S7  1  0.50000000  0.68600115  0.21083966  1
  S  S8  1  0.00000000  0.17862194  0.51963150  1
  S  S9  1  -0.00000000  0.82137806  0.48036850  1
  S  S10  1  0.50000000  0.32137806  0.01963150  1
  S  S11  1  0.50000000  0.67862194  0.98036850  1
  S  S12  1  0.00000000  0.52390308  0.09599308  1
  S  S13  1  -0.00000000  0.47609692  0.90400692  1
  S  S14  1  0.50000000  0.97609692  0.59599308  1
  S  S15  1  0.50000000  0.02390308  0.40400692  1
  S  S16  1  0.00000000  0.09979058  0.75289728  1
  S  S17  1  -0.00000000  0.90020942  0.24710272  1
  S  S18  1  0.50000000  0.40020942  0.25289728  1
  S  S19  1  0.50000000  0.59979058  0.74710272  1
  S  S20  1  0.00000000  0.41518584  0.42736885  1
  S  S21  1  -0.00000000  0.58481416  0.57263115  1
  S  S22  1  0.50000000  0.08481416  0.92736885  1
  S  S23  1  0.50000000  0.91518584  0.07263115  1
loop_
_geom_bond_atom_site_label_1
_geom_bond_atom_site_label_2
_geom_bond_distance
_geom_bond_site_symmetry_2
Ce0 S3 2.833901 1_455
Ce0 S3 2.833901 1_555
Ce0 S18 2.850594 1_455
Ce0 S18 2.850594 1_555
Ce0 S20 2.923873 1_555
Ce0 S7 2.929240 1_555
Ce0 S7 2.929240 1_455
Ce0 S12 3.073710 1_555
Ce1 S2 2.833901 1_455
Ce1 S2 2.833901 1_555
Ce1 S19 2.850594 1_555
Ce1 S19 2.850594 1_455
Ce1 S21 2.923873 1_555
Ce1 S6 2.929240 1_555
Ce1 S6 2.929240 1_455
Ce1 S13 3.073710 1_555
Ce2 S1 2.833901 1_655
Ce2 S1 2.833901 1_555
Ce2 S16 2.850594 1_565
Ce2 S16 2.850594 1_665
Ce2 S22 2.923873 1_565
Ce2 S5 2.929240 1_555
Ce2 S5 2.929240 1_655
Ce2 S14 3.073710 1_555
Ce3 S0 2.833901 1_555
Ce3 S0 2.833901 1_655
Ce3 S17 2.850594 1_545
Ce3 S17 2.850594 1_645
Ce3 S23 2.923873 1_545
Ce3 S4 2.929240 1_655
Ce3 S4 2.929240 1_555
Ce3 S15 3.073710 1_555
Ce4 S7 2.828552 1_555
Ce4 S7 2.828552 1_455
Ce4 S23 2.904847 1_555
Ce4 S23 2.904847 1_455
Ce4 S11 2.918066 1_454
Ce4 S11 2.918066 1_554
Ce4 S17 3.074386 1_555
Ce4 S12 3.161763 1_555
Ce5 S6 2.828552 1_455
Ce5 S6 2.828552 1_555
Ce5 S22 2.904847 1_455
Ce5 S22 2.904847 1_555
Ce5 S10 2.918066 1_456
Ce5 S10 2.918066 1_556
Ce5 S16 3.074386 1_555
Ce5 S13 3.161763 1_555
Ce6 S5 2.828552 1_555
Ce6 S5 2.828552 1_655
Ce6 S21 2.904847 1_555
Ce6 S21 2.904847 1_655
Ce6 S9 2.918066 1_655
Ce6 S9 2.918066 1_555
Ce6 S19 3.074386 1_555
Ce6 S14 3.161763 1_555
Ce7 S4 2.828552 1_555
Ce7 S4 2.828552 1_655
Ce7 S20 2.904847 1_555
Ce7 S20 2.904847 1_655
Ce7 S8 2.918066 1_555
Ce7 S8 2.918066 1_655
Ce7 S18 3.074386 1_555
Ce7 S15 3.161763 1_555
Ce8 S0 2.765240 1_555
Ce8 S18 2.795262 1_455
Ce8 S18 2.795262 1_555
Ce8 S10 2.830222 1_455
Ce8 S10 2.830222 1_555
Ce8 S12 2.875211 1_555
Ce8 S4 2.914198 1_555
Ce9 S1 2.765240 1_555
Ce9 S19 2.795262 1_555
Ce9 S19 2.795262 1_455
Ce9 S11 2.830222 1_455
Ce9 S11 2.830222 1_555
Ce9 S13 2.875211 1_555
Ce9 S5 2.914198 1_555
Ce10 S2 2.765240 1_555
Ce10 S16 2.795262 1_555
Ce10 S16 2.795262 1_655
Ce10 S8 2.830222 1_555
Ce10 S8 2.830222 1_655
Ce10 S14 2.875211 1_545
Ce10 S6 2.914198 1_555
Ce11 S3 2.765240 1_555
Ce11 S17 2.795262 1_555
Ce11 S17 2.795262 1_655
Ce11 S9 2.830222 1_555
Ce11 S9 2.830222 1_655
Ce11 S15 2.875211 1_565
Ce11 S7 2.914198 1_555
Cr0 S8 2.433306 1_555
Cr0 S9 2.433306 1_545
Cr0 S15 2.501498 1_555
Cr0 S15 2.501498 1_455
Cr0 S14 2.501498 1_445
Cr0 S14 2.501498 1_545
Cr1 S10 2.433306 1_555
Cr1 S11 2.433306 1_554
Cr1 S13 2.501498 1_554
Cr1 S13 2.501498 1_654
Cr1 S12 2.501498 1_555
Cr1 S12 2.501498 1_655
Cr2 S1 2.333188 1_544
Cr2 S0 2.333188 1_555
Cr2 S23 2.538127 1_545
Cr2 S22 2.538127 1_554
Cr2 S22 2.538127 1_454
Cr2 S23 2.538127 1_445
Cr3 S3 2.333188 1_555
Cr3 S2 2.333188 1_555
Cr3 S21 2.538127 1_655
Cr3 S20 2.538127 1_555
Cr3 S20 2.538127 1_655
Cr3 S21 2.538127 1_555
