# generated using pymatgen
data_V2Cd3O8
_symmetry_space_group_name_H-M   'P 1'
_cell_length_a   5.42020100
_cell_length_b   7.06450200
_cell_length_c   10.05070100
_cell_angle_alpha   90.00000000
_cell_angle_beta   90.00000000
_cell_angle_gamma   90.00000000
_symmetry_Int_Tables_number   1
_chemical_formula_structural   V2Cd3O8
_chemical_formula_sum   'V4 Cd6 O16'
_cell_volume   384.85160109
_cell_formula_units_Z   2
loop_
 _symmetry_equiv_pos_site_id
 _symmetry_equiv_pos_as_xyz
  1  'x, y, z'
loop_
 _atom_site_type_symbol
 _atom_site_label
 _atom_site_symmetry_multiplicity
 _atom_site_fract_x
 _atom_site_fract_y
 _atom_site_fract_z
 _atom_site_occupancy
  V  V0  1  0.74403700  0.50000000  0.68003200  1
  V  V1  1  0.25596300  0.50000000  0.18003200  1
  V  V2  1  0.75873300  0.00000000  0.31841200  1
  V  V3  1  0.24126700  0.00000000  0.81841200  1
  Cd  Cd0  1  0.24998400  0.74012800  0.49841000  1
  Cd  Cd1  1  0.75001600  0.25987200  0.99841000  1
  Cd  Cd2  1  0.24998400  0.25987200  0.49841000  1
  Cd  Cd3  1  0.75001600  0.74012800  0.99841000  1
  Cd  Cd4  1  0.24945500  0.00000000  0.15051000  1
  Cd  Cd5  1  0.75054500  0.00000000  0.65051000  1
  O  O0  1  0.05042200  0.50000000  0.63163600  1
  O  O1  1  0.94957800  0.50000000  0.13163600  1
  O  O2  1  0.43714800  0.00000000  0.36463100  1
  O  O3  1  0.56285200  0.00000000  0.86463100  1
  O  O4  1  0.29594200  0.50000000  0.35321500  1
  O  O5  1  0.70405800  0.50000000  0.85321500  1
  O  O6  1  0.16924800  0.00000000  0.63942200  1
  O  O7  1  0.83075200  0.00000000  0.13942200  1
  O  O8  1  0.39560600  0.70931600  0.12037200  1
  O  O9  1  0.60439400  0.29068400  0.62037200  1
  O  O10  1  0.10009900  0.19089100  0.88558800  1
  O  O11  1  0.89990100  0.80910900  0.38558800  1
  O  O12  1  0.10009900  0.80910900  0.88558800  1
  O  O13  1  0.89990100  0.19089100  0.38558800  1
  O  O14  1  0.39560600  0.29068400  0.12037200  1
  O  O15  1  0.60439400  0.70931600  0.62037200  1
loop_
_geom_bond_atom_site_label_1
_geom_bond_atom_site_label_2
_geom_bond_distance
_geom_bond_site_symmetry_2
Cd0 O4 2.251525 1_555
Cd0 O11 2.263599 1_455
Cd0 O15 2.289130 1_555
Cd0 O6 2.360203 1_565
Cd0 O0 2.416751 1_555
Cd0 O2 2.491470 1_565
Cd1 O5 2.251525 1_555
Cd1 O10 2.263599 1_655
Cd1 O14 2.289130 1_556
Cd1 O7 2.360203 1_556
Cd1 O1 2.416751 1_556
Cd1 O3 2.491470 1_555
Cd2 O4 2.251525 1_555
Cd2 O13 2.263599 1_455
Cd2 O9 2.289130 1_555
Cd2 O6 2.360203 1_555
Cd2 O0 2.416751 1_555
Cd2 O2 2.491470 1_555
Cd3 O5 2.251525 1_555
Cd3 O12 2.263599 1_655
Cd3 O8 2.289130 1_556
Cd3 O7 2.360203 1_566
Cd3 O1 2.416751 1_556
Cd3 O3 2.491470 1_565
Cd4 O14 2.221779 1_555
Cd4 O8 2.221779 1_545
Cd4 O7 2.272189 1_455
Cd4 O2 2.380411 1_555
Cd5 O9 2.221779 1_555
Cd5 O15 2.221779 1_545
Cd5 O6 2.272189 1_655
Cd5 O3 2.380411 1_555
O0 V0 1.730439 1_455
O1 V1 1.730439 1_655
O2 V2 1.803894 1_555
O3 V3 1.803894 1_555
O4 V1 1.754047 1_555
O5 V0 1.754047 1_555
O6 V3 1.840839 1_555
O7 V2 1.840839 1_555
O8 V1 1.766078 1_555
O9 V0 1.766078 1_555
O10 V3 1.691125 1_555
O11 V2 1.691125 1_565
O12 V3 1.691125 1_565
O13 V2 1.691125 1_555
O14 V1 1.766078 1_555
O15 V0 1.766078 1_555
