# generated using pymatgen
data_Ca2Fe2O5
_symmetry_space_group_name_H-M   'P 1'
_cell_length_a   8.42374899
_cell_length_b   8.42374899
_cell_length_c   8.42374899
_cell_angle_alpha   142.06175019
_cell_angle_beta   140.51340706
_cell_angle_gamma   55.91326807
_symmetry_Int_Tables_number   1
_chemical_formula_structural   Ca2Fe2O5
_chemical_formula_sum   'Ca4 Fe4 O10'
_cell_volume   231.90791411
_cell_formula_units_Z   2
loop_
 _symmetry_equiv_pos_site_id
 _symmetry_equiv_pos_as_xyz
  1  'x, y, z'
loop_
 _atom_site_type_symbol
 _atom_site_label
 _atom_site_symmetry_multiplicity
 _atom_site_fract_x
 _atom_site_fract_y
 _atom_site_fract_z
 _atom_site_occupancy
  Ca  Ca0  1  0.92192700  0.39179100  0.52784500  1
  Ca  Ca1  1  0.07807300  0.60591800  0.46986400  1
  Ca  Ca2  1  0.36394600  0.89179100  0.46986400  1
  Ca  Ca3  1  0.63605400  0.10591800  0.52784500  1
  Fe  Fe0  1  0.00000000  0.01014900  0.01014900  1
  Fe  Fe1  1  0.50000000  0.51014900  0.01014900  1
  Fe  Fe2  1  0.68054500  0.70869700  0.88924200  1
  Fe  Fe3  1  0.31945500  0.20869700  0.02815200  1
  O  O0  1  0.26911100  0.27523600  0.51337600  1
  O  O1  1  0.73088900  0.24426500  0.00612600  1
  O  O2  1  0.26186000  0.77523600  0.00612600  1
  O  O3  1  0.73814000  0.74426500  0.51337600  1
  O  O4  1  0.93303500  0.89661700  0.11119200  1
  O  O5  1  0.06696500  0.17815600  0.96358200  1
  O  O6  1  0.28542600  0.39661700  0.96358200  1
  O  O7  1  0.71457400  0.67815600  0.11119200  1
  O  O8  1  0.63113700  0.35316900  0.48430600  1
  O  O9  1  0.36886300  0.85316900  0.72203200  1
loop_
_geom_bond_atom_site_label_1
_geom_bond_atom_site_label_2
_geom_bond_distance
_geom_bond_site_symmetry_2
Ca0 O6 2.325147 1_655
Ca0 O8 2.357747 1_555
Ca0 O1 2.481706 1_555
Ca0 O3 2.520841 1_555
Ca0 O0 2.583590 1_655
Ca0 O4 2.589083 1_545
Ca0 O2 2.626385 1_656
Ca0 O4 3.002436 1_556
Ca1 O7 2.325143 1_455
Ca1 O9 2.357747 1_555
Ca1 O0 2.481714 1_555
Ca1 O2 2.520849 1_556
Ca1 O1 2.583592 1_455
Ca1 O5 2.589084 1_554
Ca1 O3 2.626387 1_455
Ca1 O5 3.002432 1_565
Ca2 O4 2.325146 1_455
Ca2 O9 2.357747 1_555
Ca2 O3 2.481714 1_555
Ca2 O1 2.520841 1_566
Ca2 O2 2.583582 1_555
Ca2 O6 2.589084 1_554
Ca2 O0 2.626387 1_565
Ca2 O6 3.002432 1_565
Ca3 O5 2.325147 1_655
Ca3 O8 2.357747 1_555
Ca3 O2 2.481714 1_545
Ca3 O0 2.520841 1_555
Ca3 O3 2.583590 1_545
Ca3 O7 2.589080 1_545
Ca3 O1 2.626395 1_556
Ca3 O7 3.002434 1_556
Fe0 O2 1.974741 1_545
Fe0 O3 1.974742 1_444
Fe0 O0 2.001270 1_555
Fe0 O1 2.001271 1_455
Fe0 O5 2.141749 1_554
Fe0 O4 2.141757 1_445
Fe1 O0 1.974742 1_554
Fe1 O1 1.974743 1_555
Fe1 O2 2.001269 1_555
Fe1 O3 2.001270 1_555
Fe1 O7 2.141742 1_555
Fe1 O6 2.141749 1_554
Fe2 O4 1.868878 1_556
Fe2 O7 1.868891 1_556
Fe2 O9 1.942293 1_555
Fe2 O8 1.967222 1_555
Fe3 O6 1.868883 1_554
Fe3 O5 1.868883 1_554
Fe3 O8 1.942293 1_555
Fe3 O9 1.967222 1_544
