# generated using pymatgen
data_Cu5Sn2Se7
_symmetry_space_group_name_H-M   'P 1'
_cell_length_a   6.93945807
_cell_length_b   6.93945807
_cell_length_c   8.96235613
_cell_angle_alpha   82.63708378
_cell_angle_beta   82.63708378
_cell_angle_gamma   48.10419451
_symmetry_Int_Tables_number   1
_chemical_formula_structural   Cu5Sn2Se7
_chemical_formula_sum   'Cu5 Sn2 Se7'
_cell_volume   318.08062551
_cell_formula_units_Z   1
loop_
 _symmetry_equiv_pos_site_id
 _symmetry_equiv_pos_as_xyz
  1  'x, y, z'
loop_
 _atom_site_type_symbol
 _atom_site_label
 _atom_site_symmetry_multiplicity
 _atom_site_fract_x
 _atom_site_fract_y
 _atom_site_fract_z
 _atom_site_occupancy
  Cu  Cu0  1  0.73168722  0.26831278  0.50000000  1
  Cu  Cu1  1  0.88694536  0.40476037  0.07428065  1
  Cu  Cu2  1  0.59523963  0.11305464  0.92571935  1
  Cu  Cu3  1  0.44757209  0.97797621  0.35715838  1
  Cu  Cu4  1  0.02202379  0.55242791  0.64284162  1
  Sn  Sn0  1  0.14863693  0.70168388  0.22439950  1
  Sn  Sn1  1  0.29831612  0.85136307  0.77560050  1
  Se  Se0  1  0.35304719  0.35080578  0.44171322  1
  Se  Se1  1  0.64919422  0.64695281  0.55828678  1
  Se  Se2  1  0.51085024  0.48914976  0.00000000  1
  Se  Se3  1  0.04856060  0.11140837  0.29131929  1
  Se  Se4  1  0.88859163  0.95143940  0.70868071  1
  Se  Se5  1  0.74499403  0.80805907  0.13902035  1
  Se  Se6  1  0.19194093  0.25500597  0.86097965  1
loop_
_geom_bond_atom_site_label_1
_geom_bond_atom_site_label_2
_geom_bond_distance
_geom_bond_site_symmetry_2
Cu0 Se0 2.402273 1_555
Cu0 Se1 2.402273 1_555
Cu0 Se4 2.406022 1_545
Cu0 Se3 2.406022 1_655
Cu1 Se3 2.383411 1_655
Cu1 Se5 2.393185 1_555
Cu1 Se6 2.397638 1_654
Cu1 Se2 2.429371 1_555
Cu2 Se4 2.383411 1_545
Cu2 Se6 2.393185 1_555
Cu2 Se5 2.397638 1_546
Cu2 Se2 2.429371 1_556
Cu3 Se3 2.393122 1_565
Cu3 Se1 2.403398 1_555
Cu3 Se5 2.403894 1_555
Cu3 Se0 2.409747 1_565
Cu4 Se4 2.393122 1_455
Cu4 Se0 2.403398 1_555
Cu4 Se6 2.403894 1_555
Cu4 Se1 2.409747 1_455
Se0 Sn0 2.571757 1_555
Se1 Sn1 2.571757 1_555
Se2 Sn1 2.655447 1_554
Se2 Sn0 2.655447 1_555
Se3 Sn0 2.572805 1_545
Se4 Sn1 2.572805 1_655
Se5 Sn0 2.572829 1_655
Se6 Sn1 2.572829 1_545
