# generated using pymatgen
data_Li2CrO3
_symmetry_space_group_name_H-M   'P 1'
_cell_length_a   2.92062181
_cell_length_b   9.76963384
_cell_length_c   7.67853275
_cell_angle_alpha   84.99759008
_cell_angle_beta   78.35833201
_cell_angle_gamma   81.73935702
_symmetry_Int_Tables_number   1
_chemical_formula_structural   Li2CrO3
_chemical_formula_sum   'Li8 Cr4 O12'
_cell_volume   211.97798986
_cell_formula_units_Z   4
loop_
 _symmetry_equiv_pos_site_id
 _symmetry_equiv_pos_as_xyz
  1  'x, y, z'
loop_
 _atom_site_type_symbol
 _atom_site_label
 _atom_site_symmetry_multiplicity
 _atom_site_fract_x
 _atom_site_fract_y
 _atom_site_fract_z
 _atom_site_occupancy
  Li  Li0  1  0.33304800  0.00006300  0.33315100  1
  Li  Li1  1  0.33364700  0.49991300  0.83351900  1
  Li  Li2  1  0.33337500  0.24994600  0.08334100  1
  Li  Li3  1  0.33331700  0.75006000  0.58333500  1
  Li  Li4  1  0.99023600  0.75784000  0.25641200  1
  Li  Li5  1  0.99059100  0.25777100  0.75641800  1
  Li  Li6  1  0.67608000  0.24228100  0.41026100  1
  Li  Li7  1  0.67641400  0.74211500  0.91028800  1
  Cr  Cr0  1  0.98043300  0.50313900  0.51395500  1
  Cr  Cr1  1  0.68613600  0.99692700  0.65285800  1
  Cr  Cr2  1  0.98043700  0.00296600  0.01344200  1
  Cr  Cr3  1  0.68653400  0.49693300  0.15302500  1
  O  O0  1  0.51336300  0.88606000  0.10717300  1
  O  O1  1  0.51396100  0.38623300  0.60754000  1
  O  O2  1  0.15325300  0.61385200  0.05940200  1
  O  O3  1  0.15264700  0.11385700  0.55922600  1
  O  O4  1  0.17223500  0.39214800  0.28738500  1
  O  O5  1  0.17174800  0.89209200  0.78711300  1
  O  O6  1  0.49484000  0.60790400  0.37957900  1
  O  O7  1  0.49439000  0.10787500  0.87922500  1
  O  O8  1  0.81759600  0.88295200  0.47363500  1
  O  O9  1  0.81805900  0.38287800  0.97387200  1
  O  O10  1  0.84872600  0.11704300  0.19266700  1
  O  O11  1  0.84893700  0.61715100  0.69318000  1
loop_
_geom_bond_atom_site_label_1
_geom_bond_atom_site_label_2
_geom_bond_distance
_geom_bond_site_symmetry_2
Li0 O3 2.079926 1_555
Li0 O0 2.080472 1_545
Li0 O10 2.088540 1_555
Li0 O8 2.088857 1_445
Li0 O10 2.099257 1_455
Li0 O8 2.100234 1_545
Li1 O1 2.078676 1_555
Li1 O2 2.079511 1_556
Li1 O9 2.088358 1_455
Li1 O11 2.088921 1_555
Li1 O9 2.099051 1_555
Li1 O11 2.100395 1_455
Li2 O10 2.062191 1_455
Li2 O9 2.062693 1_554
Li2 O10 2.101026 1_555
Li2 O9 2.101628 1_454
Li2 O7 2.120959 1_554
Li2 O4 2.121415 1_555
Li3 O8 2.061982 1_555
Li3 O11 2.062542 1_455
Li3 O8 2.103149 1_455
Li3 O11 2.103567 1_555
Li3 O5 2.118714 1_555
Li3 O6 2.119423 1_555
Li4 O8 2.090300 1_555
Li4 O2 2.093300 1_655
Li4 O0 2.171308 1_555
Li4 O0 2.193103 1_655
Li4 O6 2.216453 1_655
Li4 O6 2.224571 1_555
Li5 O9 2.091690 1_555
Li5 O3 2.093865 1_655
Li5 O1 2.170195 1_555
Li5 O1 2.194143 1_655
Li5 O7 2.213314 1_655
Li5 O7 2.225191 1_555
Li6 O10 2.093342 1_555
Li6 O1 2.094614 1_555
Li6 O3 2.170314 1_655
Li6 O3 2.194255 1_555
Li6 O4 2.213519 1_555
Li6 O4 2.225024 1_655
Li7 O11 2.088698 1_555
Li7 O0 2.092298 1_556
Li7 O2 2.170844 1_656
Li7 O2 2.193114 1_556
Li7 O5 2.216814 1_555
Li7 O5 2.224752 1_655
Cr0 O11 1.792527 1_555
Cr0 O1 1.893628 1_555
Cr0 O6 2.000365 1_655
Cr0 O1 2.011542 1_655
Cr0 O6 2.028026 1_555
Cr0 O4 2.068181 1_655
Cr1 O8 1.792281 1_555
Cr1 O3 1.893935 1_665
Cr1 O5 2.000421 1_555
Cr1 O3 2.011722 1_565
Cr1 O5 2.027750 1_655
Cr1 O7 2.066645 1_565
Cr2 O10 1.792926 1_555
Cr2 O0 1.895115 1_545
Cr2 O7 1.999828 1_654
Cr2 O0 2.010717 1_645
Cr2 O7 2.028761 1_554
Cr2 O5 2.065965 1_644
Cr3 O9 1.792371 1_554
Cr3 O2 1.894293 1_655
Cr3 O4 2.000210 1_555
Cr3 O2 2.011179 1_555
Cr3 O4 2.028252 1_655
Cr3 O6 2.067961 1_555
