# generated using pymatgen
data_Tb3(SbPd2)4
_symmetry_space_group_name_H-M   'P 1'
_cell_length_a   9.40467151
_cell_length_b   9.40467151
_cell_length_c   9.40467151
_cell_angle_alpha   60.00000000
_cell_angle_beta   60.00000000
_cell_angle_gamma   60.00000000
_symmetry_Int_Tables_number   1
_chemical_formula_structural   Tb3(SbPd2)4
_chemical_formula_sum   'Tb6 Sb8 Pd16'
_cell_volume   588.18764130
_cell_formula_units_Z   2
loop_
 _symmetry_equiv_pos_site_id
 _symmetry_equiv_pos_as_xyz
  1  'x, y, z'
loop_
 _atom_site_type_symbol
 _atom_site_label
 _atom_site_symmetry_multiplicity
 _atom_site_fract_x
 _atom_site_fract_y
 _atom_site_fract_z
 _atom_site_occupancy
  Tb  Tb0  1  0.72455300  0.27544700  0.27544700  1
  Tb  Tb1  1  0.27544700  0.72455300  0.72455300  1
  Tb  Tb2  1  0.27544700  0.72455300  0.27544700  1
  Tb  Tb3  1  0.72455300  0.27544700  0.72455300  1
  Tb  Tb4  1  0.27544700  0.27544700  0.72455300  1
  Tb  Tb5  1  0.72455300  0.72455300  0.27544700  1
  Sb  Sb0  1  0.00000000  0.00000000  0.00000000  1
  Sb  Sb1  1  0.50000000  0.00000000  0.00000000  1
  Sb  Sb2  1  0.00000000  0.50000000  0.50000000  1
  Sb  Sb3  1  0.00000000  0.50000000  0.00000000  1
  Sb  Sb4  1  0.50000000  0.00000000  0.50000000  1
  Sb  Sb5  1  0.00000000  0.00000000  0.50000000  1
  Sb  Sb6  1  0.50000000  0.50000000  0.00000000  1
  Sb  Sb7  1  0.50000000  0.50000000  0.50000000  1
  Pd  Pd0  1  0.11861500  0.11861500  0.11861500  1
  Pd  Pd1  1  0.88138500  0.88138500  0.88138500  1
  Pd  Pd2  1  0.11861500  0.11861500  0.64415500  1
  Pd  Pd3  1  0.11861500  0.64415500  0.11861500  1
  Pd  Pd4  1  0.88138500  0.88138500  0.35584500  1
  Pd  Pd5  1  0.88138500  0.35584500  0.88138500  1
  Pd  Pd6  1  0.64415500  0.11861500  0.11861500  1
  Pd  Pd7  1  0.35584500  0.88138500  0.88138500  1
  Pd  Pd8  1  0.33238100  0.33238100  0.33238100  1
  Pd  Pd9  1  0.66761900  0.66761900  0.66761900  1
  Pd  Pd10  1  0.33238100  0.33238100  0.00285600  1
  Pd  Pd11  1  0.33238100  0.00285600  0.33238100  1
  Pd  Pd12  1  0.66761900  0.66761900  0.99714400  1
  Pd  Pd13  1  0.66761900  0.99714400  0.66761900  1
  Pd  Pd14  1  0.00285600  0.33238100  0.33238100  1
  Pd  Pd15  1  0.99714400  0.66761900  0.66761900  1
loop_
_geom_bond_atom_site_label_1
_geom_bond_atom_site_label_2
_geom_bond_distance
_geom_bond_site_symmetry_2
Sb1 Tb5 3.342234 1_545
Sb1 Tb2 3.342234 1_545
Sb1 Tb4 3.342234 1_554
Sb1 Tb3 3.342234 1_554
Sb2 Tb3 3.342234 1_455
Sb2 Tb4 3.342234 1_555
Sb2 Tb5 3.342234 1_455
Sb2 Tb2 3.342234 1_555
Sb3 Tb5 3.342234 1_455
Sb3 Tb0 3.342234 1_455
Sb3 Tb1 3.342234 1_554
Sb3 Tb4 3.342234 1_554
Sb4 Tb1 3.342234 1_545
Sb4 Tb0 3.342234 1_555
Sb4 Tb5 3.342234 1_545
Sb4 Tb4 3.342234 1_555
Sb5 Tb1 3.342234 1_545
Sb5 Tb3 3.342234 1_455
Sb5 Tb0 3.342234 1_455
Sb5 Tb2 3.342234 1_545
Sb6 Tb0 3.342234 1_555
Sb6 Tb1 3.342234 1_554
Sb6 Tb2 3.342234 1_555
Sb6 Tb3 3.342234 1_554
Sb7 Tb5 2.986603 1_555
Sb7 Tb0 2.986603 1_555
Sb7 Tb3 2.986603 1_555
Sb7 Tb4 2.986603 1_555
Sb7 Tb1 2.986603 1_555
Sb7 Tb2 2.986603 1_555
Pd0 Sb0 2.732492 1_555
Pd0 Sb5 2.931892 1_555
Pd0 Sb3 2.931892 1_555
Pd0 Sb1 2.931892 1_555
Pd0 Tb4 3.054284 1_554
Pd0 Tb0 3.054284 1_455
Pd0 Tb2 3.054284 1_545
Pd1 Sb0 2.732492 1_666
Pd1 Sb3 2.931892 1_656
Pd1 Sb1 2.931892 1_566
Pd1 Sb5 2.931892 1_665
Pd1 Tb5 3.054284 1_556
Pd1 Tb1 3.054284 1_655
Pd1 Tb3 3.054284 1_565
Pd2 Sb0 2.732492 1_556
Pd2 Sb4 2.931892 1_555
Pd2 Sb2 2.931892 1_555
Pd2 Sb5 2.931892 1_555
Pd2 Tb4 3.054284 1_555
Pd2 Tb1 3.054284 1_545
Pd2 Tb3 3.054284 1_455
Pd3 Sb0 2.732492 1_565
Pd3 Sb2 2.931892 1_555
Pd3 Sb6 2.931892 1_555
Pd3 Sb3 2.931892 1_555
Pd3 Tb2 3.054284 1_555
Pd3 Tb1 3.054284 1_554
Pd3 Tb5 3.054284 1_455
Pd4 Sb0 2.732492 1_665
Pd4 Sb4 2.931892 1_565
Pd4 Sb2 2.931892 1_655
Pd4 Sb5 2.931892 1_665
Pd4 Tb5 3.054284 1_555
Pd4 Tb0 3.054284 1_565
Pd4 Tb2 3.054284 1_655
Pd5 Sb0 2.732492 1_656
Pd5 Sb6 2.931892 1_556
Pd5 Sb2 2.931892 1_655
Pd5 Sb3 2.931892 1_656
Pd5 Tb3 3.054284 1_555
Pd5 Tb4 3.054284 1_655
Pd5 Tb0 3.054284 1_556
Pd6 Sb0 2.732492 1_655
Pd6 Sb4 2.931892 1_555
Pd6 Sb6 2.931892 1_555
Pd6 Sb1 2.931892 1_555
Pd6 Tb0 3.054284 1_555
Pd6 Tb3 3.054284 1_554
Pd6 Tb5 3.054284 1_545
Pd7 Sb0 2.732492 1_566
Pd7 Sb4 2.931892 1_565
Pd7 Sb6 2.931892 1_556
Pd7 Sb1 2.931892 1_566
Pd7 Tb1 3.054284 1_555
Pd7 Tb4 3.054284 1_565
Pd7 Tb2 3.054284 1_556
Pd8 Sb4 2.714983 1_555
Pd8 Sb2 2.714983 1_555
Pd8 Sb6 2.714983 1_555
Pd8 Tb2 3.242464 1_555
Pd8 Tb0 3.242464 1_555
Pd8 Tb4 3.242464 1_555
Pd9 Sb4 2.714983 1_565
Pd9 Sb2 2.714983 1_655
Pd9 Sb6 2.714983 1_556
Pd9 Tb1 3.242464 1_555
Pd9 Tb3 3.242464 1_555
Pd9 Tb5 3.242464 1_555
Pd10 Sb3 2.714981 1_555
Pd10 Sb1 2.714981 1_555
Pd10 Sb6 2.714989 1_555
Pd10 Tb4 3.242455 1_554
Pd10 Tb3 3.242461 1_554
Pd10 Tb1 3.242461 1_554
Pd11 Sb5 2.714981 1_555
Pd11 Sb1 2.714981 1_555
Pd11 Sb4 2.714989 1_555
Pd11 Tb2 3.242455 1_545
Pd11 Tb5 3.242461 1_545
Pd11 Tb1 3.242461 1_545
Pd12 Sb1 2.714981 1_566
Pd12 Sb3 2.714981 1_656
Pd12 Sb6 2.714989 1_556
Pd12 Tb5 3.242455 1_556
Pd12 Tb2 3.242461 1_556
Pd12 Tb0 3.242461 1_556
Pd13 Sb1 2.714981 1_566
Pd13 Sb5 2.714981 1_665
Pd13 Sb4 2.714989 1_565
Pd13 Tb3 3.242455 1_565
Pd13 Tb4 3.242461 1_565
Pd13 Tb0 3.242461 1_565
Pd14 Sb3 2.714981 1_555
Pd14 Sb5 2.714981 1_555
Pd14 Sb2 2.714989 1_555
Pd14 Tb0 3.242455 1_455
Pd14 Tb3 3.242461 1_455
Pd14 Tb5 3.242461 1_455
Pd15 Sb5 2.714981 1_665
Pd15 Sb3 2.714981 1_656
Pd15 Sb2 2.714989 1_655
Pd15 Tb1 3.242455 1_655
Pd15 Tb4 3.242461 1_655
Pd15 Tb2 3.242461 1_655
