# generated using pymatgen
data_NaSrTbVO6
_symmetry_space_group_name_H-M   'P 1'
_cell_length_a   5.81663280
_cell_length_b   5.81663280
_cell_length_c   5.81663280
_cell_angle_alpha   60.00000000
_cell_angle_beta   60.00000000
_cell_angle_gamma   60.00000000
_symmetry_Int_Tables_number   1
_chemical_formula_structural   NaSrTbVO6
_chemical_formula_sum   'Na1 Sr1 Tb1 V1 O6'
_cell_volume   139.15536254
_cell_formula_units_Z   1
loop_
 _symmetry_equiv_pos_site_id
 _symmetry_equiv_pos_as_xyz
  1  'x, y, z'
loop_
 _atom_site_type_symbol
 _atom_site_label
 _atom_site_symmetry_multiplicity
 _atom_site_fract_x
 _atom_site_fract_y
 _atom_site_fract_z
 _atom_site_occupancy
  Na  Na0  1  0.25000000  0.25000000  0.25000000  1
  Sr  Sr0  1  0.75000000  0.75000000  0.75000000  1
  Tb  Tb0  1  -0.00000000  0.00000000  0.00000000  1
  V  V0  1  0.50000000  0.50000000  0.50000000  1
  O  O0  1  0.72946338  0.27053662  0.27053662  1
  O  O1  1  0.27053662  0.72946338  0.72946338  1
  O  O2  1  0.72946338  0.27053662  0.72946338  1
  O  O3  1  0.27053662  0.72946338  0.27053662  1
  O  O4  1  0.72946338  0.72946338  0.27053662  1
  O  O5  1  0.27053662  0.27053662  0.72946338  1
loop_
_geom_bond_atom_site_label_1
_geom_bond_atom_site_label_2
_geom_bond_distance
_geom_bond_site_symmetry_2
Na0 O1 2.913219 1_554
Na0 O3 2.913219 1_545
Na0 O2 2.913219 1_455
Na0 O2 2.913219 1_554
Na0 O1 2.913219 1_545
Na0 O0 2.913219 1_455
Na0 O0 2.913219 1_555
Na0 O3 2.913219 1_555
Na0 O4 2.913219 1_455
Na0 O5 2.913219 1_555
Na0 O5 2.913219 1_554
Na0 O4 2.913219 1_545
O0 V0 1.887557 1_555
O0 Tb0 2.225424 1_655
O0 Sr0 2.913219 1_554
O0 Sr0 2.913219 1_545
O1 V0 1.887557 1_555
O1 Tb0 2.225424 1_566
O1 Sr0 2.913219 1_455
O1 Sr0 2.913219 1_555
O2 V0 1.887557 1_555
O2 Tb0 2.225424 1_656
O2 Sr0 2.913219 1_555
O2 Sr0 2.913219 1_545
O3 V0 1.887557 1_555
O3 Tb0 2.225424 1_565
O3 Sr0 2.913219 1_455
O3 Sr0 2.913219 1_554
O4 V0 1.887557 1_555
O4 Tb0 2.225424 1_665
O4 Sr0 2.913219 1_554
O4 Sr0 2.913219 1_555
O5 V0 1.887557 1_555
O5 Tb0 2.225424 1_556
O5 Sr0 2.913219 1_545
O5 Sr0 2.913219 1_455
