# generated using pymatgen
data_KNd(FeO3)4
_symmetry_space_group_name_H-M   'P 1'
_cell_length_a   5.41842246
_cell_length_b   5.41842246
_cell_length_c   7.66643061
_cell_angle_alpha   90.00000000
_cell_angle_beta   90.00000000
_cell_angle_gamma   89.55461587
_symmetry_Int_Tables_number   1
_chemical_formula_structural   KNd(FeO3)4
_chemical_formula_sum   'K1 Nd1 Fe4 O12'
_cell_volume   225.07425082
_cell_formula_units_Z   1
loop_
 _symmetry_equiv_pos_site_id
 _symmetry_equiv_pos_as_xyz
  1  'x, y, z'
loop_
 _atom_site_type_symbol
 _atom_site_label
 _atom_site_symmetry_multiplicity
 _atom_site_fract_x
 _atom_site_fract_y
 _atom_site_fract_z
 _atom_site_occupancy
  K  K0  1  0.00468652  0.00468652  0.00000000  1
  Nd  Nd0  1  0.49183484  0.49183484  0.50000000  1
  Fe  Fe0  1  0.50097106  0.99816263  0.75408678  1
  Fe  Fe1  1  0.50097106  0.99816263  0.24591322  1
  Fe  Fe2  1  0.99816263  0.50097106  0.24591322  1
  Fe  Fe3  1  0.99816263  0.50097106  0.75408678  1
  O  O0  1  0.74914462  0.25123071  0.73353196  1
  O  O1  1  0.25123071  0.74914462  0.73353196  1
  O  O2  1  0.25123071  0.74914462  0.26646804  1
  O  O3  1  0.74914462  0.25123071  0.26646804  1
  O  O4  1  0.73139995  0.73139995  0.72267622  1
  O  O5  1  0.27068468  0.27068468  0.75237095  1
  O  O6  1  0.27068468  0.27068468  0.24762905  1
  O  O7  1  0.73139995  0.73139995  0.27732378  1
  O  O8  1  0.50989676  0.98438052  0.00000000  1
  O  O9  1  0.48520638  0.02270768  0.50000000  1
  O  O10  1  0.98438052  0.50989676  0.00000000  1
  O  O11  1  0.02270768  0.48520638  0.50000000  1
loop_
_geom_bond_atom_site_label_1
_geom_bond_atom_site_label_2
_geom_bond_distance
_geom_bond_site_symmetry_2
K0 O8 2.684091 1_445
K0 O10 2.684091 1_445
K0 O8 2.738798 1_545
K0 O10 2.738798 1_455
K0 O6 2.791231 1_555
K0 O5 2.791231 1_554
K0 O3 2.801125 1_455
K0 O0 2.801125 1_454
K0 O2 2.801125 1_545
K0 O1 2.801125 1_544
K0 O4 2.989942 1_444
K0 O7 2.989942 1_445
Nd0 O7 2.512059 1_555
Nd0 O4 2.512059 1_555
Nd0 O9 2.542462 1_555
Nd0 O11 2.542462 1_555
Nd0 O5 2.576332 1_555
Nd0 O6 2.576332 1_555
Nd0 O2 2.611622 1_555
Nd0 O3 2.611622 1_555
Nd0 O1 2.611622 1_555
Nd0 O0 2.611622 1_555
Nd0 O9 2.876438 1_565
Nd0 O11 2.876438 1_655
Fe0 O8 1.887360 1_556
Fe0 O4 1.917840 1_555
Fe0 O1 1.924821 1_555
Fe0 O5 1.925868 1_565
Fe0 O0 1.934428 1_565
Fe0 O9 1.954296 1_565
Fe1 O8 1.887360 1_555
Fe1 O7 1.917840 1_555
Fe1 O2 1.924821 1_555
Fe1 O6 1.925868 1_565
Fe1 O3 1.934428 1_565
Fe1 O9 1.954296 1_565
Fe2 O10 1.887360 1_555
Fe2 O7 1.917840 1_555
Fe2 O3 1.924821 1_555
Fe2 O6 1.925868 1_655
Fe2 O2 1.934428 1_655
Fe2 O11 1.954296 1_655
Fe3 O10 1.887360 1_556
Fe3 O4 1.917840 1_555
Fe3 O0 1.924821 1_555
Fe3 O5 1.925868 1_655
Fe3 O1 1.934428 1_655
Fe3 O11 1.954296 1_655
