# generated using pymatgen
data_Li4MnCo2O7
_symmetry_space_group_name_H-M   'P 1'
_cell_length_a   5.13263525
_cell_length_b   5.13263525
_cell_length_c   18.16132200
_cell_angle_alpha   83.29606595
_cell_angle_beta   83.29606595
_cell_angle_gamma   32.46285728
_symmetry_Int_Tables_number   1
_chemical_formula_structural   Li4MnCo2O7
_chemical_formula_sum   'Li8 Mn2 Co4 O14'
_cell_volume   254.89921608
_cell_formula_units_Z   2
loop_
 _symmetry_equiv_pos_site_id
 _symmetry_equiv_pos_as_xyz
  1  'x, y, z'
loop_
 _atom_site_type_symbol
 _atom_site_label
 _atom_site_symmetry_multiplicity
 _atom_site_fract_x
 _atom_site_fract_y
 _atom_site_fract_z
 _atom_site_occupancy
  Li  Li0  1  0.28241200  0.28241200  0.92393500  1
  Li  Li1  1  0.85781400  0.85781400  0.77529600  1
  Li  Li2  1  0.43530400  0.43530400  0.64232600  1
  Li  Li3  1  0.00350900  0.00350900  0.50326300  1
  Li  Li4  1  0.57298200  0.57298200  0.35952600  1
  Li  Li5  1  0.14007800  0.14007800  0.21938700  1
  Li  Li6  1  0.71649200  0.71649200  0.07536000  1
  Li  Li7  1  0.13992500  0.13992500  0.71264500  1
  Mn  Mn0  1  0.99620300  0.99620300  0.99934100  1
  Mn  Mn1  1  0.56626000  0.56626000  0.84972500  1
  Co  Co0  1  0.71841500  0.71841500  0.58083300  1
  Co  Co1  1  0.28271100  0.28271100  0.43203000  1
  Co  Co2  1  0.85988200  0.85988200  0.28907100  1
  Co  Co3  1  0.43134400  0.43134400  0.14656500  1
  O  O0  1  0.36629300  0.36629300  0.03070200  1
  O  O1  1  0.93964300  0.93964300  0.88956100  1
  O  O2  1  0.50355600  0.50355600  0.76048500  1
  O  O3  1  0.08407000  0.08407000  0.60414700  1
  O  O4  1  0.65068800  0.65068800  0.46149900  1
  O  O5  1  0.22776300  0.22776300  0.31882900  1
  O  O6  1  0.80415300  0.80415300  0.17514700  1
  O  O7  1  0.19429000  0.19429000  0.82729900  1
  O  O8  1  0.78890900  0.78890900  0.67280800  1
  O  O9  1  0.34621900  0.34621900  0.53356300  1
  O  O10  1  0.91760200  0.91760200  0.39201500  1
  O  O11  1  0.49293600  0.49293600  0.25163600  1
  O  O12  1  0.05658700  0.05658700  0.10976800  1
  O  O13  1  0.62396500  0.62396500  0.96323800  1
loop_
_geom_bond_atom_site_label_1
_geom_bond_atom_site_label_2
_geom_bond_distance
_geom_bond_site_symmetry_2
Li0 O7 2.050655 1_555
Li0 O1 2.148081 1_545
Li0 O1 2.148081 1_455
Li0 O13 2.176122 1_455
Li0 O13 2.176122 1_545
Li0 O0 2.198444 1_556
Li1 O2 2.024855 1_655
Li1 O2 2.024855 1_565
Li1 O8 2.057454 1_555
Li1 O7 2.275454 1_565
Li1 O7 2.275454 1_655
Li1 O1 2.316015 1_555
Li2 O8 2.062135 1_455
Li2 O8 2.062135 1_545
Li2 O3 2.107536 1_565
Li2 O3 2.107536 1_655
Li2 O9 2.257081 1_555
Li2 O2 2.325627 1_555
Li3 O3 2.083539 1_555
Li3 O4 2.114304 1_545
Li3 O4 2.114304 1_455
Li3 O9 2.134702 1_545
Li3 O9 2.134702 1_455
Li3 O10 2.283630 1_445
Li4 O4 2.088361 1_555
Li4 O10 2.128847 1_455
Li4 O10 2.128847 1_545
Li4 O5 2.158153 1_655
Li4 O5 2.158153 1_565
Li4 O11 2.199474 1_555
Li5 O11 2.073151 1_545
Li5 O11 2.073151 1_455
Li5 O5 2.094772 1_555
Li5 O6 2.236737 1_455
Li5 O6 2.236737 1_545
Li5 O12 2.244753 1_555
Li6 O6 2.100367 1_555
Li6 O0 2.145876 1_565
Li6 O0 2.145876 1_655
Li6 O12 2.166371 1_565
Li6 O12 2.166371 1_655
Li6 O13 2.330168 1_554
Li7 O2 2.082230 1_545
Li7 O2 2.082230 1_455
Li7 O3 2.109405 1_555
Li7 O8 2.116498 1_455
Li7 O8 2.116498 1_545
Li7 O7 2.212299 1_555
Mn0 O0 1.960805 1_656
Mn0 O0 1.960805 1_566
Mn0 O13 1.968012 1_565
Mn0 O13 1.968012 1_655
Mn0 O1 2.134495 1_555
Mn0 O12 2.160203 1_666
Mn1 O2 1.803395 1_555
Mn1 O7 1.921327 1_565
Mn1 O7 1.921327 1_655
Mn1 O1 1.979774 1_545
Mn1 O1 1.979774 1_455
Mn1 O13 2.204215 1_555
Co0 O8 1.885512 1_555
Co0 O3 1.963286 1_565
Co0 O3 1.963286 1_655
Co0 O9 2.029534 1_655
Co0 O9 2.029534 1_565
Co0 O4 2.344016 1_555
Co1 O4 1.966863 1_455
Co1 O4 1.966863 1_545
Co1 O9 2.018096 1_555
Co1 O10 2.029534 1_455
Co1 O10 2.029534 1_545
Co1 O5 2.188765 1_555
Co2 O5 1.968470 1_655
Co2 O5 1.968470 1_565
Co2 O11 2.005849 1_655
Co2 O11 2.005849 1_565
Co2 O10 2.019326 1_555
Co2 O6 2.204281 1_555
Co3 O6 1.934167 1_545
Co3 O6 1.934167 1_455
Co3 O12 1.956533 1_655
Co3 O12 1.956533 1_565
Co3 O11 2.071604 1_555
Co3 O0 2.273082 1_555
