# generated using pymatgen
data_CaVSi4O11
_symmetry_space_group_name_H-M   'P 1'
_cell_length_a   9.63470500
_cell_length_b   12.43074300
_cell_length_c   9.08216400
_cell_angle_alpha   90.00000000
_cell_angle_beta   90.00000000
_cell_angle_gamma   90.00000000
_symmetry_Int_Tables_number   1
_chemical_formula_structural   CaVSi4O11
_chemical_formula_sum   'Ca4 V4 Si16 O44'
_cell_volume   1087.73937376
_cell_formula_units_Z   4
loop_
 _symmetry_equiv_pos_site_id
 _symmetry_equiv_pos_as_xyz
  1  'x, y, z'
loop_
 _atom_site_type_symbol
 _atom_site_label
 _atom_site_symmetry_multiplicity
 _atom_site_fract_x
 _atom_site_fract_y
 _atom_site_fract_z
 _atom_site_occupancy
  Ca  Ca0  1  0.72026900  0.58514000  0.19883900  1
  Ca  Ca1  1  0.27973100  0.41486000  0.69883900  1
  Ca  Ca2  1  0.77973100  0.08514000  0.69883900  1
  Ca  Ca3  1  0.22026900  0.91486000  0.19883900  1
  V  V0  1  0.47152800  0.48746000  0.99826400  1
  V  V1  1  0.52847200  0.51254000  0.49826400  1
  V  V2  1  0.02847200  0.98746000  0.49826400  1
  V  V3  1  0.97152800  0.01254000  0.99826400  1
  Si  Si0  1  0.75541500  0.33451000  0.03381100  1
  Si  Si1  1  0.24458500  0.66549000  0.53381100  1
  Si  Si2  1  0.74458500  0.83451000  0.53381100  1
  Si  Si3  1  0.25541500  0.16549000  0.03381100  1
  Si  Si4  1  0.52153800  0.24461400  0.53560800  1
  Si  Si5  1  0.47846200  0.75538600  0.03560800  1
  Si  Si6  1  0.97846200  0.74461400  0.03560800  1
  Si  Si7  1  0.02153800  0.25538600  0.53560800  1
  Si  Si8  1  0.51311400  0.24106500  0.87151000  1
  Si  Si9  1  0.48688600  0.75893500  0.37151000  1
  Si  Si10  1  0.98688600  0.74106500  0.37151000  1
  Si  Si11  1  0.01311400  0.25893500  0.87151000  1
  Si  Si12  1  0.23443200  0.66419000  0.87366100  1
  Si  Si13  1  0.76556800  0.33581000  0.37366100  1
  Si  Si14  1  0.26556800  0.16419000  0.37366100  1
  Si  Si15  1  0.73443200  0.83581000  0.87366100  1
  O  O0  1  0.67585700  0.44925000  0.02946400  1
  O  O1  1  0.32414300  0.55075000  0.52946400  1
  O  O2  1  0.82414300  0.94925000  0.52946400  1
  O  O3  1  0.17585700  0.05075000  0.02946400  1
  O  O4  1  0.45676100  0.36365000  0.54183300  1
  O  O5  1  0.54323900  0.63635000  0.04183300  1
  O  O6  1  0.04323900  0.86365000  0.04183300  1
  O  O7  1  0.95676100  0.13635000  0.54183300  1
  O  O8  1  0.44714100  0.36013700  0.86289900  1
  O  O9  1  0.55285900  0.63986300  0.36289900  1
  O  O10  1  0.05285900  0.86013700  0.36289900  1
  O  O11  1  0.94714100  0.13986300  0.86289900  1
  O  O12  1  0.30991600  0.54758900  0.87909700  1
  O  O13  1  0.69008400  0.45241100  0.37909700  1
  O  O14  1  0.19008400  0.04758900  0.37909700  1
  O  O15  1  0.80991600  0.95241100  0.87909700  1
  O  O16  1  0.90538600  0.34308800  0.94811800  1
  O  O17  1  0.09461400  0.65691200  0.44811800  1
  O  O18  1  0.59461400  0.84308800  0.44811800  1
  O  O19  1  0.40538600  0.15691200  0.94811800  1
  O  O20  1  0.08076600  0.66065400  0.95139400  1
  O  O21  1  0.91923400  0.33934600  0.45139400  1
  O  O22  1  0.41923400  0.16065400  0.45139400  1
  O  O23  1  0.58076600  0.83934600  0.95139400  1
  O  O24  1  0.66427800  0.23850100  0.95342400  1
  O  O25  1  0.33572200  0.76149900  0.45342400  1
  O  O26  1  0.83572200  0.73850100  0.45342400  1
  O  O27  1  0.16427800  0.26149900  0.95342400  1
  O  O28  1  0.67708500  0.24221300  0.46312500  1
  O  O29  1  0.32291500  0.75778700  0.96312500  1
  O  O30  1  0.82291500  0.74221300  0.96312500  1
  O  O31  1  0.17708500  0.25778700  0.46312500  1
  O  O32  1  0.21245100  0.70134200  0.70323600  1
  O  O33  1  0.78754900  0.29865800  0.20323600  1
  O  O34  1  0.28754900  0.20134200  0.20323600  1
  O  O35  1  0.71245100  0.79865800  0.70323600  1
  O  O36  1  0.55034500  0.19296900  0.70365500  1
  O  O37  1  0.44965500  0.80703100  0.20365500  1
  O  O38  1  0.94965500  0.69296900  0.20365500  1
  O  O39  1  0.05034500  0.30703100  0.70365500  1
  O  O40  1  0.59410800  0.54752000  0.65616200  1
  O  O41  1  0.40589200  0.45248000  0.15616200  1
  O  O42  1  0.90589200  0.04752000  0.15616200  1
  O  O43  1  0.09410800  0.95248000  0.65616200  1
loop_
_geom_bond_atom_site_label_1
_geom_bond_atom_site_label_2
_geom_bond_distance
_geom_bond_site_symmetry_2
Ca0 O9 2.298802 1_555
Ca0 O5 2.312522 1_555
Ca0 O0 2.324409 1_555
Ca0 O13 2.342439 1_555
Ca0 O38 2.585143 1_555
Ca1 O8 2.298802 1_555
Ca1 O4 2.312522 1_555
Ca1 O1 2.324409 1_555
Ca1 O12 2.342439 1_555
Ca1 O39 2.585143 1_555
Ca2 O11 2.298802 1_555
Ca2 O7 2.312522 1_555
Ca2 O2 2.324409 1_545
Ca2 O15 2.342439 1_545
Ca2 O36 2.585143 1_555
Ca3 O10 2.298802 1_555
Ca3 O6 2.312522 1_555
Ca3 O3 2.324409 1_565
Ca3 O14 2.342439 1_565
Ca3 O37 2.585143 1_555
O0 Si0 1.619707 1_555
O0 V0 2.044867 1_554
O1 Si1 1.619707 1_555
O1 V1 2.044867 1_555
O2 Si2 1.619707 1_555
O2 V2 2.044867 1_655
O3 Si3 1.619707 1_555
O3 V3 2.044867 1_454
O4 Si4 1.606934 1_555
O4 V1 2.014808 1_555
O5 Si5 1.606934 1_555
O5 V0 2.014808 1_554
O6 Si6 1.606934 1_455
O6 V3 2.014808 1_464
O7 Si7 1.606934 1_655
O7 V2 2.014808 1_645
O8 Si8 1.612761 1_555
O8 V0 2.017833 1_555
O9 Si9 1.612761 1_555
O9 V1 2.017833 1_555
O10 Si10 1.612761 1_455
O10 V2 2.017833 1_555
O11 Si11 1.612761 1_655
O11 V3 2.017833 1_555
O12 Si12 1.622412 1_555
O12 V0 2.038271 1_555
O13 Si13 1.622412 1_555
O13 V1 2.038271 1_555
O14 Si14 1.622412 1_555
O14 V2 2.038271 1_545
O15 Si15 1.622412 1_555
O15 V3 2.038271 1_565
O16 Si11 1.629625 1_655
O16 Si0 1.644658 1_556
O17 Si10 1.629625 1_455
O17 Si1 1.644658 1_555
O18 Si9 1.629625 1_555
O18 Si2 1.644658 1_555
O19 Si8 1.629625 1_555
O19 Si3 1.644658 1_556
O20 Si6 1.626595 1_456
O20 Si12 1.640824 1_555
O21 Si7 1.626595 1_655
O21 Si13 1.640824 1_555
O22 Si4 1.626595 1_555
O22 Si14 1.640824 1_555
O23 Si5 1.626595 1_556
O23 Si15 1.640824 1_555
O24 Si8 1.635741 1_555
O24 Si0 1.651788 1_556
O25 Si9 1.635741 1_555
O25 Si1 1.651788 1_555
O26 Si10 1.635741 1_555
O26 Si2 1.651788 1_555
O27 Si11 1.635741 1_555
O27 Si3 1.651788 1_556
O28 Si4 1.637133 1_555
O28 Si13 1.655492 1_555
O29 Si5 1.637133 1_556
O29 Si12 1.655492 1_555
O30 Si6 1.637133 1_556
O30 Si15 1.655492 1_555
O31 Si7 1.637133 1_555
O31 Si14 1.655492 1_555
O32 Si12 1.629081 1_555
O32 Si1 1.631628 1_555
O33 Si13 1.629081 1_555
O33 Si0 1.631628 1_555
O34 Si14 1.629081 1_555
O34 Si3 1.631628 1_555
O35 Si15 1.629081 1_555
O35 Si2 1.631628 1_555
O36 Si8 1.676359 1_555
O36 Si4 1.678856 1_555
O37 Si9 1.676359 1_555
O37 Si5 1.678856 1_555
O38 Si10 1.676359 1_555
O38 Si6 1.678856 1_555
O39 Si11 1.676359 1_555
O39 Si7 1.678856 1_555
O40 V1 1.626499 1_555
O41 V0 1.626499 1_554
O42 V3 1.626499 1_554
O43 V2 1.626499 1_555
