# generated using pymatgen
data_KSm3O6
_symmetry_space_group_name_H-M   'P 1'
_cell_length_a   11.54025447
_cell_length_b   9.39410553
_cell_length_c   30.17617741
_cell_angle_alpha   90.00000000
_cell_angle_beta   90.00000000
_cell_angle_gamma   127.89587951
_symmetry_Int_Tables_number   1
_chemical_formula_structural   KSm3O6
_chemical_formula_sum   'K1 Sm3 O6'
_cell_volume   2581.56248151
_cell_formula_units_Z   1
loop_
 _symmetry_equiv_pos_site_id
 _symmetry_equiv_pos_as_xyz
  1  'x, y, z'
loop_
 _atom_site_type_symbol
 _atom_site_label
 _atom_site_symmetry_multiplicity
 _atom_site_fract_x
 _atom_site_fract_y
 _atom_site_fract_z
 _atom_site_occupancy
  K  K0  1  0.00000000  -0.00000000  -0.00000000  1
  Sm  Sm0  1  0.00000000  -0.00000000  0.50000000  1
  Sm  Sm1  1  0.50000000  0.50000000  -0.00000000  1
  Sm  Sm2  1  0.00000000  0.50000000  -0.00000000  1
  O  O0  1  0.00000000  -0.00000000  0.76940429  1
  O  O1  1  0.00000000  -0.00000000  0.23059571  1
  O  O2  1  0.70324166  0.73905101  -0.00000000  1
  O  O3  1  0.29675834  0.26094899  -0.00000000  1
  O  O4  1  0.96419065  0.26094899  -0.00000000  1
  O  O5  1  0.03580935  0.73905101  -0.00000000  1
loop_
_geom_bond_atom_site_label_1
_geom_bond_atom_site_label_2
_geom_bond_distance
_geom_bond_site_symmetry_2
K0 O5 2.724796 1_545
K0 O4 2.724796 1_455
K0 O3 2.724797 1_555
K0 O2 2.724797 1_445
O2 Sm1 2.018360 1_555
O3 Sm1 2.018360 1_555
O4 Sm2 2.018360 1_655
O5 Sm2 2.018360 1_555
