# generated using pymatgen
data_Ca2Cd3(Cl5O9)2
_symmetry_space_group_name_H-M   'P 1'
_cell_length_a   7.61142500
_cell_length_b   9.79577674
_cell_length_c   10.67546039
_cell_angle_alpha   111.18112387
_cell_angle_beta   90.25293937
_cell_angle_gamma   102.88243547
_symmetry_Int_Tables_number   1
_chemical_formula_structural   Ca2Cd3(Cl5O9)2
_chemical_formula_sum   'Ca2 Cd3 Cl10 O18'
_cell_volume   720.33832992
_cell_formula_units_Z   1
loop_
 _symmetry_equiv_pos_site_id
 _symmetry_equiv_pos_as_xyz
  1  'x, y, z'
loop_
 _atom_site_type_symbol
 _atom_site_label
 _atom_site_symmetry_multiplicity
 _atom_site_fract_x
 _atom_site_fract_y
 _atom_site_fract_z
 _atom_site_occupancy
  Ca  Ca0  1  0.59926400  0.59672100  0.38732700  1
  Ca  Ca1  1  0.40073600  0.40327900  0.61267300  1
  Cd  Cd0  1  0.00000000  0.00000000  0.00000000  1
  Cd  Cd1  1  0.41462800  0.93709600  0.79829400  1
  Cd  Cd2  1  0.58537200  0.06290400  0.20170600  1
  Cl  Cl0  1  0.20557200  0.67660400  0.62342300  1
  Cl  Cl1  1  0.79442800  0.32339600  0.37657700  1
  Cl  Cl2  1  0.67488300  0.76736800  0.74441400  1
  Cl  Cl3  1  0.32511700  0.23263200  0.25558600  1
  Cl  Cl4  1  0.29007100  0.88799200  0.01672900  1
  Cl  Cl5  1  0.70992900  0.11200800  0.98327100  1
  Cl  Cl6  1  0.84944900  0.92799500  0.17809800  1
  Cl  Cl7  1  0.15055100  0.07200500  0.82190200  1
  Cl  Cl8  1  0.39561500  0.88324200  0.32647600  1
  Cl  Cl9  1  0.60438500  0.11675800  0.67352400  1
  O  O0  1  0.90003300  0.80556600  0.48331200  1
  O  O1  1  0.09996700  0.19443400  0.51668800  1
  O  O2  1  0.51887000  0.80331000  0.38842900  1
  O  O3  1  0.48113000  0.19669000  0.61157100  1
  O  O4  1  0.48305800  0.60411900  0.10407600  1
  O  O5  1  0.51694200  0.39588100  0.89592400  1
  O  O6  1  0.37719800  0.39241300  0.38952700  1
  O  O7  1  0.62280200  0.60758700  0.61047300  1
  O  O8  1  0.79434100  0.44989100  0.30904200  1
  O  O9  1  0.20565900  0.55010900  0.69095800  1
  O  O10  1  0.53331700  0.52550900  0.89651900  1
  O  O11  1  0.46668300  0.47449100  0.10348100  1
  O  O12  1  0.88132900  0.92592300  0.47556400  1
  O  O13  1  0.11867100  0.07407700  0.52443600  1
  O  O14  1  0.94090800  0.57259200  0.10426700  1
  O  O15  1  0.05909200  0.42740800  0.89573300  1
  O  O16  1  0.93526700  0.60565000  0.00350400  1
  O  O17  1  0.06473300  0.39435000  0.99649600  1
loop_
_geom_bond_atom_site_label_1
_geom_bond_atom_site_label_2
_geom_bond_distance
_geom_bond_site_symmetry_2
Ca0 O2 2.237179 1_555
Ca0 O8 2.250881 1_555
Ca0 O6 2.321382 1_555
Ca0 O7 2.350050 1_555
Ca0 O0 2.617664 1_555
Ca0 O11 2.906268 1_555
Ca1 O3 2.237179 1_555
Ca1 O9 2.250881 1_555
Ca1 O7 2.321382 1_555
Ca1 O6 2.350050 1_555
Ca1 O1 2.617664 1_555
Ca1 O10 2.906268 1_555
Cd0 Cl6 2.460366 1_445
Cd0 Cl7 2.460366 1_554
Cd0 Cl4 2.707153 1_545
Cd0 Cl5 2.707153 1_454
Cd1 Cl7 2.607361 1_565
Cd1 Cl4 2.682284 1_556
Cd1 Cl0 2.692432 1_555
Cd1 Cl9 2.745016 1_565
Cd1 Cl5 2.772324 1_565
Cd1 Cl2 2.794051 1_555
Cd2 Cl6 2.607361 1_545
Cd2 Cl5 2.682284 1_554
Cd2 Cl1 2.692432 1_555
Cd2 Cl8 2.745016 1_545
Cd2 Cl4 2.772324 1_545
Cd2 Cl3 2.794051 1_555
Cl0 O9 1.643515 1_555
Cl1 O8 1.643515 1_555
Cl2 O7 1.659081 1_555
Cl3 O6 1.659081 1_555
Cl8 O2 1.620773 1_555
Cl9 O3 1.620773 1_555
O0 O12 1.249935 1_555
O1 O13 1.249935 1_555
O10 O5 1.245624 1_555
O11 O4 1.245624 1_555
O12 O13 1.979236 1_665
O14 O16 1.233424 1_555
O15 O17 1.233424 1_555
