# generated using pymatgen
data_Li2TiFeO4
_symmetry_space_group_name_H-M   'P 1'
_cell_length_a   4.30904712
_cell_length_b   7.79759554
_cell_length_c   5.36164050
_cell_angle_alpha   94.46200742
_cell_angle_beta   66.10320881
_cell_angle_gamma   73.94140138
_symmetry_Int_Tables_number   1
_chemical_formula_structural   Li2TiFeO4
_chemical_formula_sum   'Li4 Ti2 Fe2 O8'
_cell_volume   154.54236161
_cell_formula_units_Z   2
loop_
 _symmetry_equiv_pos_site_id
 _symmetry_equiv_pos_as_xyz
  1  'x, y, z'
loop_
 _atom_site_type_symbol
 _atom_site_label
 _atom_site_symmetry_multiplicity
 _atom_site_fract_x
 _atom_site_fract_y
 _atom_site_fract_z
 _atom_site_occupancy
  Li  Li0  1  0.62096200  0.12505100  0.62211400  1
  Li  Li1  1  0.12113000  0.62506300  0.12204000  1
  Li  Li2  1  0.99948100  0.98276700  0.05561200  1
  Li  Li3  1  0.49931100  0.48302900  0.55574300  1
  Ti  Ti0  1  0.29567300  0.26180800  0.24058500  1
  Ti  Ti1  1  0.79604600  0.76176700  0.74076300  1
  Fe  Fe0  1  0.36792900  0.87265600  0.37771200  1
  Fe  Fe1  1  0.86779300  0.37256800  0.87762500  1
  O  O0  1  0.35288800  0.36079400  0.91003400  1
  O  O1  1  0.85287500  0.86089100  0.40998700  1
  O  O2  1  0.13272900  0.14441700  0.55858500  1
  O  O3  1  0.63258800  0.64445300  0.05839600  1
  O  O4  1  0.72711400  0.25229100  0.24423300  1
  O  O5  1  0.22749100  0.75216700  0.74441900  1
  O  O6  1  0.50291800  0.00009600  0.99112700  1
  O  O7  1  0.00307200  0.50018300  0.49102800  1
loop_
_geom_bond_atom_site_label_1
_geom_bond_atom_site_label_2
_geom_bond_distance
_geom_bond_site_symmetry_2
Li0 O0 2.008853 1_555
Li0 O1 2.027531 1_545
Li0 O2 2.141385 1_655
Li0 O6 2.209389 1_555
Li0 O2 2.231076 1_555
Li0 O4 2.260878 1_555
Li1 O1 2.009390 1_455
Li1 O0 2.028069 1_554
Li1 O3 2.139987 1_555
Li1 O7 2.208940 1_555
Li1 O3 2.232688 1_455
Li1 O5 2.259062 1_554
Li2 O4 2.039644 1_565
Li2 O5 2.051860 1_654
Li2 O6 2.098948 1_664
Li2 O1 2.133772 1_555
Li2 O6 2.272191 1_564
Li3 O5 2.036982 1_555
Li3 O4 2.053613 1_555
Li3 O7 2.099521 1_655
Li3 O0 2.135034 1_555
Li3 O7 2.271736 1_555
Fe0 O2 2.038115 1_565
Fe0 O3 2.054147 1_555
Fe0 O1 2.143455 1_555
Fe0 O5 2.180062 1_555
Fe0 O1 2.183579 1_455
Fe0 O6 2.299026 1_564
Fe1 O3 2.038846 1_556
Fe1 O2 2.053058 1_655
Fe1 O0 2.144423 1_655
Fe1 O4 2.178702 1_556
Fe1 O0 2.182726 1_555
Fe1 O7 2.299870 1_655
O0 Ti0 1.939508 1_556
O1 Ti1 1.941350 1_555
O2 Ti0 1.966325 1_555
O3 Ti1 1.964753 1_554
O4 Ti0 1.848107 1_555
O4 Ti0 2.463761 1_655
O5 Ti1 1.847989 1_455
O5 Ti1 2.463925 1_555
O6 Ti1 1.946919 1_545
O6 Ti0 2.085745 1_556
O7 Ti0 1.947089 1_555
O7 Ti1 2.085616 1_455
