# generated using pymatgen
data_Er3FeB7
_symmetry_space_group_name_H-M   'P 1'
_cell_length_a   7.96467168
_cell_length_b   7.96467168
_cell_length_c   9.24431100
_cell_angle_alpha   90.00000000
_cell_angle_beta   90.00000000
_cell_angle_gamma   155.36596953
_symmetry_Int_Tables_number   1
_chemical_formula_structural   Er3FeB7
_chemical_formula_sum   'Er6 Fe2 B14'
_cell_volume   244.43288789
_cell_formula_units_Z   2
loop_
 _symmetry_equiv_pos_site_id
 _symmetry_equiv_pos_as_xyz
  1  'x, y, z'
loop_
 _atom_site_type_symbol
 _atom_site_label
 _atom_site_symmetry_multiplicity
 _atom_site_fract_x
 _atom_site_fract_y
 _atom_site_fract_z
 _atom_site_occupancy
  Er  Er0  1  0.89505300  0.10494700  0.44020700  1
  Er  Er1  1  0.10494700  0.89505300  0.55979300  1
  Er  Er2  1  0.89505300  0.10494700  0.05979300  1
  Er  Er3  1  0.10494700  0.89505300  0.94020700  1
  Er  Er4  1  0.24355400  0.75644600  0.25000000  1
  Er  Er5  1  0.75644600  0.24355400  0.75000000  1
  Fe  Fe0  1  0.05374600  0.94625400  0.25000000  1
  Fe  Fe1  1  0.94625400  0.05374600  0.75000000  1
  B  B0  1  0.72747000  0.27253000  0.46678300  1
  B  B1  1  0.27253000  0.72747000  0.53321700  1
  B  B2  1  0.72747000  0.27253000  0.03321700  1
  B  B3  1  0.27253000  0.72747000  0.96678300  1
  B  B4  1  0.63006200  0.36993800  0.15301600  1
  B  B5  1  0.36993800  0.63006200  0.84698400  1
  B  B6  1  0.63006200  0.36993800  0.34698400  1
  B  B7  1  0.36993800  0.63006200  0.65301600  1
  B  B8  1  0.52108800  0.47891200  0.09839000  1
  B  B9  1  0.47891200  0.52108800  0.90161000  1
  B  B10  1  0.52108800  0.47891200  0.40161000  1
  B  B11  1  0.47891200  0.52108800  0.59839000  1
  B  B12  1  0.45813100  0.54186900  0.25000000  1
  B  B13  1  0.54186900  0.45813100  0.75000000  1
loop_
_geom_bond_atom_site_label_1
_geom_bond_atom_site_label_2
_geom_bond_distance
_geom_bond_site_symmetry_2
B0 B6 1.877368 1_555
B0 B1 1.937942 1_655
B0 B1 1.937942 1_545
B0 Er0 2.619587 1_555
B0 Er4 2.639205 1_545
B0 Er4 2.639205 1_655
B0 Er5 2.656697 1_555
B0 Er1 2.694775 1_545
B0 Er1 2.694775 1_655
B1 B7 1.877368 1_555
B1 Er1 2.619587 1_555
B1 Er5 2.639205 1_455
B1 Er5 2.639205 1_565
B1 Er4 2.656697 1_555
B1 Er0 2.694775 1_565
B1 Er0 2.694775 1_455
B2 B4 1.877368 1_555
B2 B3 1.937942 1_654
B2 B3 1.937942 1_544
B2 Er2 2.619587 1_555
B2 Er4 2.639205 1_545
B2 Er4 2.639205 1_655
B2 Er5 2.656697 1_554
B2 Er3 2.694775 1_544
B2 Er3 2.694775 1_654
B3 B5 1.877368 1_555
B3 Er3 2.619587 1_555
B3 Er5 2.639205 1_455
B3 Er5 2.639205 1_565
B3 Er4 2.656697 1_556
B3 Er2 2.694775 1_456
B3 Er2 2.694775 1_566
B4 B8 1.769513 1_555
B4 B6 1.793101 1_555
B4 Fe0 2.258559 1_655
B4 Fe0 2.258559 1_545
B4 Er4 2.609618 1_655
B4 Er4 2.609618 1_545
B4 Er3 2.628617 1_654
B4 Er3 2.628617 1_544
B5 B9 1.769513 1_555
B5 B7 1.793101 1_555
B5 Fe1 2.258559 1_565
B5 Fe1 2.258559 1_455
B5 Er5 2.609618 1_455
B5 Er5 2.609618 1_565
B5 Er2 2.628617 1_456
B5 Er2 2.628617 1_566
B6 Fe0 2.258559 1_655
B6 Fe0 2.258559 1_545
B6 Er4 2.609618 1_655
B6 Er4 2.609618 1_545
B6 Er1 2.628617 1_655
B6 Er1 2.628617 1_545
B7 Fe1 2.258559 1_565
B7 Fe1 2.258559 1_455
B7 Er5 2.609618 1_455
B7 Er5 2.609618 1_565
B7 Er0 2.628617 1_455
B7 Er0 2.628617 1_565
B8 B9 1.933891 1_554
B8 Fe0 2.260375 1_545
B8 Fe0 2.260375 1_655
B8 Er3 2.593879 1_654
B8 Er3 2.593879 1_544
B8 Er2 2.619401 1_565
B8 Er2 2.619401 1_455
B9 Fe1 2.260375 1_455
B9 Fe1 2.260375 1_565
B9 Er2 2.593879 1_566
B9 Er2 2.593879 1_456
B9 Er3 2.619401 1_655
B9 Er3 2.619401 1_545
B10 B12 1.710045 1_555
B10 B6 1.769513 1_555
B10 B11 1.933891 1_555
B10 Fe0 2.260375 1_545
B10 Fe0 2.260375 1_655
B10 Er1 2.593879 1_655
B10 Er1 2.593879 1_545
B10 Er0 2.619401 1_565
B10 Er0 2.619401 1_455
B11 B13 1.710045 1_555
B11 B7 1.769513 1_555
B11 Fe1 2.260375 1_455
B11 Fe1 2.260375 1_565
B11 Er0 2.593879 1_565
B11 Er0 2.593879 1_455
B11 Er1 2.619401 1_655
B11 Er1 2.619401 1_545
B12 B8 1.710045 1_555
B12 Fe0 2.258521 1_655
B12 Fe0 2.258521 1_545
B12 Er2 2.634785 1_565
B12 Er0 2.634785 1_565
B12 Er2 2.634785 1_455
B12 Er0 2.634785 1_455
B13 B9 1.710045 1_555
B13 Fe1 2.258521 1_565
B13 Fe1 2.258521 1_455
B13 Er1 2.634785 1_545
B13 Er3 2.634785 1_545
B13 Er3 2.634785 1_655
B13 Er1 2.634785 1_655
