# generated using pymatgen
data_Er2MgOs
_symmetry_space_group_name_H-M   'P 1'
_cell_length_a   4.92732059
_cell_length_b   4.92732059
_cell_length_c   4.92732059
_cell_angle_alpha   60.00000000
_cell_angle_beta   60.00000000
_cell_angle_gamma   60.00000000
_symmetry_Int_Tables_number   1
_chemical_formula_structural   Er2MgOs
_chemical_formula_sum   'Er2 Mg1 Os1'
_cell_volume   84.58969546
_cell_formula_units_Z   1
loop_
 _symmetry_equiv_pos_site_id
 _symmetry_equiv_pos_as_xyz
  1  'x, y, z'
loop_
 _atom_site_type_symbol
 _atom_site_label
 _atom_site_symmetry_multiplicity
 _atom_site_fract_x
 _atom_site_fract_y
 _atom_site_fract_z
 _atom_site_occupancy
  Er  Er0  1  0.25000000  0.25000000  0.25000000  1
  Er  Er1  1  0.75000000  0.75000000  0.75000000  1
  Mg  Mg0  1  0.50000000  0.50000000  0.50000000  1
  Os  Os0  1  0.00000000  -0.00000000  0.00000000  1
loop_
_geom_bond_atom_site_label_1
_geom_bond_atom_site_label_2
_geom_bond_distance
_geom_bond_site_symmetry_2
Er0 Mg0 3.017355 1_545
Er0 Os0 3.017355 1_655
Er0 Mg0 3.017355 1_554
Er0 Mg0 3.017355 1_455
Er0 Os0 3.017355 1_555
Er0 Mg0 3.017355 1_555
Er0 Os0 3.017355 1_556
Er0 Os0 3.017355 1_565
Er1 Mg0 3.017355 1_655
Er1 Mg0 3.017355 1_556
Er1 Os0 3.017355 1_656
Er1 Os0 3.017355 1_666
Er1 Os0 3.017355 1_665
Er1 Mg0 3.017355 1_555
Er1 Os0 3.017355 1_566
Er1 Mg0 3.017355 1_565
Mg0 Os0 3.484142 1_665
Mg0 Os0 3.484142 1_556
Mg0 Os0 3.484142 1_565
Mg0 Os0 3.484142 1_566
Mg0 Os0 3.484142 1_655
Mg0 Os0 3.484142 1_656
