# generated using pymatgen
data_SmNb6Cl13O3
_symmetry_space_group_name_H-M   'P 1'
_cell_length_a   9.52587422
_cell_length_b   9.52587422
_cell_length_c   28.21530698
_cell_angle_alpha   99.71845327
_cell_angle_beta   99.71845327
_cell_angle_gamma   90.00000000
_symmetry_Int_Tables_number   1
_chemical_formula_structural   SmNb6Cl13O3
_chemical_formula_sum   'Sm4 Nb24 Cl52 O12'
_cell_volume   2486.29278561
_cell_formula_units_Z   4
loop_
 _symmetry_equiv_pos_site_id
 _symmetry_equiv_pos_as_xyz
  1  'x, y, z'
loop_
 _atom_site_type_symbol
 _atom_site_label
 _atom_site_symmetry_multiplicity
 _atom_site_fract_x
 _atom_site_fract_y
 _atom_site_fract_z
 _atom_site_occupancy
  Sm  Sm0  1  0.09448087  0.09448087  0.18896173  1
  Sm  Sm1  1  0.34448087  0.84448087  0.68896173  1
  Sm  Sm2  1  0.15551913  0.65551913  0.31103827  1
  Sm  Sm3  1  0.90551913  0.90551913  0.81103827  1
  Nb  Nb0  1  0.35479742  0.29725100  0.43209504  1
  Nb  Nb1  1  0.07729763  0.13484404  0.43209504  1
  Nb  Nb2  1  0.38484404  0.10479742  0.93209504  1
  Nb  Nb3  1  0.89520258  0.61515596  0.06790496  1
  Nb  Nb4  1  0.54725100  0.82729763  0.93209504  1
  Nb  Nb5  1  0.17270237  0.45274900  0.06790496  1
  Nb  Nb6  1  0.86515596  0.92270237  0.56790496  1
  Nb  Nb7  1  0.70274900  0.64520258  0.56790496  1
  Nb  Nb8  1  0.17730242  0.74710185  0.12461314  1
  Nb  Nb9  1  0.94731072  0.37751129  0.12461314  1
  Nb  Nb10  1  0.62751129  0.92730242  0.62461314  1
  Nb  Nb11  1  0.07269758  0.37248871  0.37538686  1
  Nb  Nb12  1  0.99710185  0.69731072  0.62461314  1
  Nb  Nb13  1  0.30268928  0.00289815  0.37538686  1
  Nb  Nb14  1  0.62248871  0.05268928  0.87538686  1
  Nb  Nb15  1  0.25289815  0.82269758  0.87538686  1
  Nb  Nb16  1  0.28336468  0.24993640  0.32239096  1
  Nb  Nb17  1  0.03902628  0.07245457  0.32239096  1
  Nb  Nb18  1  0.32245457  0.03336468  0.82239096  1
  Nb  Nb19  1  0.96663532  0.67754543  0.17760904  1
  Nb  Nb20  1  0.49993640  0.78902628  0.82239096  1
  Nb  Nb21  1  0.21097372  0.50006360  0.17760904  1
  Nb  Nb22  1  0.92754543  0.96097372  0.67760904  1
  Nb  Nb23  1  0.75006360  0.71663532  0.67760904  1
  Cl  Cl0  1  0.37162525  0.37500000  0.25000000  1
  Cl  Cl1  1  0.87837475  0.87500000  0.25000000  1
  Cl  Cl2  1  0.12500000  0.12162525  0.75000000  1
  Cl  Cl3  1  0.62500000  0.62837475  0.75000000  1
  Cl  Cl4  1  0.49666110  0.37688271  0.37580288  1
  Cl  Cl5  1  0.87914178  0.99892017  0.37580288  1
  Cl  Cl6  1  0.24892017  0.24666110  0.87580288  1
  Cl  Cl7  1  0.75333890  0.75107983  0.12419712  1
  Cl  Cl8  1  0.62688271  0.62914178  0.87580288  1
  Cl  Cl9  1  0.37085822  0.37311729  0.12419712  1
  Cl  Cl10  1  0.00107983  0.12085822  0.62419712  1
  Cl  Cl11  1  0.62311729  0.50333890  0.62419712  1
  Cl  Cl12  1  0.38108229  0.70956975  0.18925044  1
  Cl  Cl13  1  0.80816816  0.47968069  0.18925044  1
  Cl  Cl14  1  0.72968069  0.13108229  0.68925044  1
  Cl  Cl15  1  0.86891771  0.27031931  0.31074956  1
  Cl  Cl16  1  0.95956975  0.55816816  0.68925044  1
  Cl  Cl17  1  0.44183184  0.04043025  0.31074956  1
  Cl  Cl18  1  0.52031931  0.19183184  0.81074956  1
  Cl  Cl19  1  0.29043025  0.61891771  0.81074956  1
  Cl  Cl20  1  0.05104368  0.22043644  0.06065676  1
  Cl  Cl21  1  0.00961309  0.84022033  0.06065676  1
  Cl  Cl22  1  0.09022033  0.80104368  0.56065676  1
  Cl  Cl23  1  0.19895632  0.90977967  0.43934324  1
  Cl  Cl24  1  0.47043644  0.75961309  0.56065676  1
  Cl  Cl25  1  0.24038691  0.52956356  0.43934324  1
  Cl  Cl26  1  0.15977967  0.99038691  0.93934324  1
  Cl  Cl27  1  0.77956356  0.94895632  0.93934324  1
  Cl  Cl28  1  0.32463919  0.65700132  0.06234663  1
  Cl  Cl29  1  0.73770744  0.40534532  0.06234663  1
  Cl  Cl30  1  0.65534532  0.07463919  0.56234663  1
  Cl  Cl31  1  0.92536081  0.34465468  0.43765337  1
  Cl  Cl32  1  0.90700132  0.48770744  0.56234663  1
  Cl  Cl33  1  0.51229256  0.09299868  0.43765337  1
  Cl  Cl34  1  0.59465468  0.26229256  0.93765337  1
  Cl  Cl35  1  0.34299868  0.67536081  0.93765337  1
  Cl  Cl36  1  0.31925568  0.31925568  0.00000000  1
  Cl  Cl37  1  0.68074432  0.68074432  1.00000000  1
  Cl  Cl38  1  0.93074432  0.06925568  0.50000000  1
  Cl  Cl39  1  0.56925568  0.43074432  0.50000000  1
  Cl  Cl40  1  0.25117090  0.25117090  0.50234180  1
  Cl  Cl41  1  0.50117090  0.00117090  0.00234180  1
  Cl  Cl42  1  0.99882910  0.49882910  0.99765820  1
  Cl  Cl43  1  0.74882910  0.74882910  0.49765820  1
  Cl  Cl44  1  0.41529149  0.74769854  0.36155502  1
  Cl  Cl45  1  0.94626353  0.61385648  0.36155502  1
  Cl  Cl46  1  0.86385648  0.16529149  0.86155502  1
  Cl  Cl47  1  0.83470851  0.13614352  0.13844498  1
  Cl  Cl48  1  0.99769854  0.69626353  0.86155502  1
  Cl  Cl49  1  0.30373647  0.00230146  0.13844498  1
  Cl  Cl50  1  0.38614352  0.05373647  0.63844498  1
  Cl  Cl51  1  0.25230146  0.58470851  0.63844498  1
  O  O0  1  0.10030062  0.32189001  0.17533183  1
  O  O1  1  0.07503120  0.85344182  0.17533183  1
  O  O2  1  0.10344182  0.85030062  0.67533183  1
  O  O3  1  0.14969938  0.89655818  0.32466817  1
  O  O4  1  0.57189001  0.82503120  0.67533183  1
  O  O5  1  0.17496880  0.42810999  0.32466817  1
  O  O6  1  0.14655818  0.92496880  0.82466817  1
  O  O7  1  0.67810999  0.89969938  0.82466817  1
  O  O8  1  0.13495980  0.13495980  0.26991960  1
  O  O9  1  0.38495980  0.88495980  0.76991960  1
  O  O10  1  0.11504020  0.61504020  0.23008040  1
  O  O11  1  0.86504020  0.86504020  0.73008040  1
loop_
_geom_bond_atom_site_label_1
_geom_bond_atom_site_label_2
_geom_bond_distance
_geom_bond_site_symmetry_2
Nb8 O1 2.001100 1_555
Nb9 O0 2.001100 1_655
Nb10 O4 2.001100 1_555
Nb11 O5 2.001100 1_555
Nb12 O2 2.001100 1_655
Nb13 O3 2.001100 1_545
Nb14 O7 2.001100 1_545
Nb15 O6 2.001100 1_555
Nb16 O5 1.984084 1_555
Nb16 O8 2.033691 1_555
Nb17 O3 1.984084 1_545
Nb17 O8 2.033690 1_555
Nb18 O6 1.984084 1_545
Nb18 O9 2.033690 1_545
Nb19 O1 1.984084 1_655
Nb19 O10 2.033690 1_655
Nb20 O7 1.984084 1_555
Nb20 O9 2.033691 1_555
Nb21 O0 1.984084 1_555
Nb21 O10 2.033691 1_555
Nb22 O2 1.984084 1_655
Nb22 O11 2.033690 1_555
Nb23 O4 1.984084 1_555
Nb23 O11 2.033691 1_555
Cl0 Nb16 2.774783 1_555
Cl0 Nb21 2.774783 1_555
Cl1 Nb19 2.774783 1_555
Cl1 Nb17 2.774783 1_665
Cl2 Nb18 2.774783 1_555
Cl2 Nb22 2.774783 1_445
Cl3 Nb23 2.774783 1_555
Cl3 Nb20 2.774783 1_555
Cl4 Nb0 2.460843 1_555
Cl4 Nb16 2.492546 1_555
Cl5 Nb1 2.460843 1_665
Cl5 Nb17 2.492546 1_665
Cl6 Nb2 2.460843 1_555
Cl6 Nb18 2.492546 1_555
Cl7 Nb3 2.460843 1_555
Cl7 Nb19 2.492546 1_555
Cl8 Nb4 2.460843 1_555
Cl8 Nb20 2.492546 1_555
Cl9 Nb5 2.460843 1_555
Cl9 Nb21 2.492546 1_555
Cl10 Nb6 2.460843 1_445
Cl10 Nb22 2.492546 1_445
Cl11 Nb7 2.460843 1_555
Cl11 Nb23 2.492546 1_555
Cl12 Nb8 2.499403 1_555
Cl12 Nb21 2.513089 1_555
Cl13 Nb9 2.499403 1_555
Cl13 Nb19 2.513089 1_555
Cl14 Nb10 2.499403 1_545
Cl14 Nb22 2.513089 1_545
Cl15 Nb11 2.499403 1_655
Cl15 Nb17 2.513089 1_655
Cl16 Nb12 2.499403 1_555
Cl16 Nb23 2.513089 1_555
Cl17 Nb13 2.499403 1_555
Cl17 Nb16 2.513089 1_555
Cl18 Nb14 2.499403 1_555
Cl18 Nb18 2.513089 1_555
Cl19 Nb15 2.499403 1_555
Cl19 Nb20 2.513089 1_555
Cl20 Nb5 2.459544 1_555
Cl20 Nb9 2.482358 1_455
Cl21 Nb3 2.459544 1_455
Cl21 Nb8 2.482358 1_555
Cl22 Nb6 2.459544 1_455
Cl22 Nb12 2.482358 1_455
Cl23 Nb1 2.459544 1_565
Cl23 Nb13 2.482358 1_565
Cl24 Nb7 2.459544 1_555
Cl24 Nb10 2.482358 1_555
Cl25 Nb0 2.459544 1_555
Cl25 Nb11 2.482358 1_555
Cl26 Nb2 2.459544 1_565
Cl26 Nb15 2.482358 1_555
Cl27 Nb4 2.459544 1_555
Cl27 Nb14 2.482358 1_565
Cl28 Nb5 2.466717 1_555
Cl28 Nb8 2.473153 1_555
Cl29 Nb3 2.466717 1_555
Cl29 Nb9 2.473153 1_555
Cl30 Nb6 2.466717 1_545
Cl30 Nb10 2.473153 1_545
Cl31 Nb1 2.466717 1_655
Cl31 Nb11 2.473153 1_655
Cl32 Nb7 2.466717 1_555
Cl32 Nb12 2.473153 1_555
Cl33 Nb0 2.466717 1_555
Cl33 Nb13 2.473153 1_555
Cl34 Nb2 2.466717 1_555
Cl34 Nb14 2.473153 1_555
Cl35 Nb4 2.466717 1_555
Cl35 Nb15 2.473153 1_555
Cl36 Nb2 2.705068 1_554
Cl36 Nb5 2.705068 1_555
Cl37 Nb3 2.705068 1_556
Cl37 Nb4 2.705068 1_555
Cl38 Nb1 2.705068 1_655
Cl38 Nb6 2.705068 1_545
Cl39 Nb7 2.705068 1_555
Cl39 Nb0 2.705068 1_555
Cl40 Nb1 2.459645 1_555
Cl40 Nb0 2.459645 1_555
Cl41 Nb4 2.459645 1_544
Cl41 Nb2 2.459645 1_554
Cl42 Nb5 2.459645 1_656
Cl42 Nb3 2.459645 1_556
Cl43 Nb6 2.459645 1_555
Cl43 Nb7 2.459645 1_555
Cl44 Nb13 2.652100 1_565
Cl44 Sm2 2.704209 1_555
Cl45 Nb11 2.652100 1_655
Cl45 Sm2 2.704208 1_655
Cl46 Nb14 2.652100 1_555
Cl46 Sm3 2.704209 1_545
Cl47 Nb9 2.652100 1_555
Cl47 Sm0 2.704209 1_655
Cl48 Nb15 2.652100 1_655
Cl48 Sm3 2.704208 1_555
Cl49 Nb8 2.652100 1_545
Cl49 Sm0 2.704208 1_555
Cl50 Nb10 2.652100 1_545
Cl50 Sm1 2.704208 1_545
Cl51 Nb12 2.652100 1_455
Cl51 Sm1 2.704209 1_555
O0 Sm0 2.265427 1_555
O1 Sm0 2.265427 1_565
O2 Sm1 2.265427 1_555
O3 Sm2 2.265427 1_555
O4 Sm1 2.265427 1_555
O5 Sm2 2.265427 1_555
O6 Sm3 2.265427 1_455
O7 Sm3 2.265427 1_555
O8 Sm0 2.218205 1_555
O9 Sm1 2.218205 1_555
O10 Sm2 2.218205 1_555
O11 Sm3 2.218205 1_555
