# generated using pymatgen
data_Mg14TiCoO16
_symmetry_space_group_name_H-M   'P 1'
_cell_length_a   8.56609392
_cell_length_b   8.54974856
_cell_length_c   4.26023137
_cell_angle_alpha   90.00000000
_cell_angle_beta   90.00000000
_cell_angle_gamma   90.00000000
_symmetry_Int_Tables_number   1
_chemical_formula_structural   Mg14TiCoO16
_chemical_formula_sum   'Mg14 Ti1 Co1 O16'
_cell_volume   312.01060847
_cell_formula_units_Z   1
loop_
 _symmetry_equiv_pos_site_id
 _symmetry_equiv_pos_as_xyz
  1  'x, y, z'
loop_
 _atom_site_type_symbol
 _atom_site_label
 _atom_site_symmetry_multiplicity
 _atom_site_fract_x
 _atom_site_fract_y
 _atom_site_fract_z
 _atom_site_occupancy
  Mg  Mg0  1  0.50000000  0.00000000  0.00000000  1
  Mg  Mg1  1  0.50000000  0.50000000  0.00000000  1
  Mg  Mg2  1  0.00000000  0.24010740  0.50000000  1
  Mg  Mg3  1  0.00000000  0.75989260  0.50000000  1
  Mg  Mg4  1  0.50000000  0.24779997  0.50000000  1
  Mg  Mg5  1  0.50000000  0.75220003  0.50000000  1
  Mg  Mg6  1  0.24619322  0.00000000  0.50000000  1
  Mg  Mg7  1  0.25264506  0.50000000  0.50000000  1
  Mg  Mg8  1  0.75380678  0.00000000  0.50000000  1
  Mg  Mg9  1  0.74735494  0.50000000  0.50000000  1
  Mg  Mg10  1  0.25040261  0.24304433  0.00000000  1
  Mg  Mg11  1  0.25040261  0.75695567  0.00000000  1
  Mg  Mg12  1  0.74959739  0.24304433  0.00000000  1
  Mg  Mg13  1  0.74959739  0.75695567  0.00000000  1
  Ti  Ti0  1  0.00000000  0.50000000  0.00000000  1
  Co  Co0  1  0.00000000  0.00000000  0.00000000  1
  O  O0  1  0.26244695  0.00000000  0.00000000  1
  O  O1  1  0.24788791  0.50000000  0.00000000  1
  O  O2  1  0.73755305  0.00000000  0.00000000  1
  O  O3  1  0.75211209  0.50000000  0.00000000  1
  O  O4  1  0.24850672  0.25125289  0.50000000  1
  O  O5  1  0.24850672  0.74874711  0.50000000  1
  O  O6  1  0.75149328  0.25125289  0.50000000  1
  O  O7  1  0.75149328  0.74874711  0.50000000  1
  O  O8  1  0.00000000  0.00000000  0.50000000  1
  O  O9  1  0.00000000  0.50000000  0.50000000  1
  O  O10  1  0.50000000  0.00000000  0.50000000  1
  O  O11  1  0.50000000  0.50000000  0.50000000  1
  O  O12  1  0.00000000  0.26608766  0.00000000  1
  O  O13  1  0.00000000  0.73391234  0.00000000  1
  O  O14  1  0.50000000  0.25392471  0.00000000  1
  O  O15  1  0.50000000  0.74607529  0.00000000  1
loop_
_geom_bond_atom_site_label_1
_geom_bond_atom_site_label_2
_geom_bond_distance
_geom_bond_site_symmetry_2
Mg0 O0 2.034902 1_555
Mg0 O2 2.034902 1_555
Mg0 O10 2.130116 1_555
Mg0 O10 2.130116 1_554
Mg0 O14 2.170992 1_555
Mg0 O15 2.170992 1_545
Mg1 O15 2.103882 1_555
Mg1 O14 2.103882 1_555
Mg1 O11 2.130116 1_554
Mg1 O11 2.130116 1_555
Mg1 O3 2.159616 1_555
Mg1 O1 2.159616 1_555
Mg2 O8 2.052858 1_555
Mg2 O6 2.130864 1_455
Mg2 O4 2.130864 1_555
Mg2 O12 2.141666 1_556
Mg2 O12 2.141666 1_555
Mg2 O9 2.222016 1_555
Mg3 O8 2.052858 1_565
Mg3 O7 2.130864 1_455
Mg3 O5 2.130864 1_555
Mg3 O13 2.141666 1_555
Mg3 O13 2.141666 1_556
Mg3 O9 2.222016 1_555
Mg4 O10 2.118627 1_555
Mg4 O14 2.130759 1_556
Mg4 O14 2.130759 1_555
Mg4 O4 2.154517 1_555
Mg4 O6 2.154517 1_555
Mg4 O11 2.156247 1_555
Mg5 O10 2.118627 1_565
Mg5 O15 2.130759 1_556
Mg5 O15 2.130759 1_555
Mg5 O5 2.154517 1_555
Mg5 O7 2.154517 1_555
Mg5 O11 2.156247 1_555
Mg6 O8 2.108914 1_555
Mg6 O0 2.134661 1_555
Mg6 O0 2.134661 1_556
Mg6 O4 2.148240 1_555
Mg6 O5 2.148240 1_545
Mg6 O10 2.174133 1_555
Mg7 O11 2.118866 1_555
Mg7 O4 2.127021 1_555
Mg7 O5 2.127021 1_555
Mg7 O1 2.130505 1_556
Mg7 O1 2.130505 1_555
Mg7 O9 2.164181 1_555
Mg8 O8 2.108914 1_655
Mg8 O2 2.134661 1_555
Mg8 O2 2.134661 1_556
Mg8 O6 2.148240 1_555
Mg8 O7 2.148240 1_545
Mg8 O10 2.174133 1_555
Mg9 O11 2.118866 1_555
Mg9 O6 2.127021 1_555
Mg9 O7 2.127021 1_555
Mg9 O3 2.130505 1_556
Mg9 O3 2.130505 1_555
Mg9 O9 2.164181 1_655
Mg10 O0 2.080528 1_555
Mg10 O4 2.131333 1_554
Mg10 O4 2.131333 1_555
Mg10 O14 2.140097 1_555
Mg10 O12 2.154001 1_555
Mg10 O1 2.197012 1_555
Mg11 O0 2.080528 1_565
Mg11 O5 2.131333 1_555
Mg11 O5 2.131333 1_554
Mg11 O15 2.140097 1_555
Mg11 O13 2.154001 1_555
Mg11 O1 2.197012 1_555
Mg12 O2 2.080528 1_555
Mg12 O6 2.131333 1_555
Mg12 O6 2.131333 1_554
Mg12 O14 2.140097 1_555
Mg12 O12 2.154001 1_655
Mg12 O3 2.197012 1_555
Mg13 O2 2.080528 1_565
Mg13 O7 2.131333 1_555
Mg13 O7 2.131333 1_554
Mg13 O15 2.140097 1_555
Mg13 O13 2.154001 1_655
Mg13 O3 2.197012 1_555
Co0 O8 2.130116 1_554
Co0 O8 2.130116 1_555
Co0 O2 2.248145 1_455
Co0 O0 2.248145 1_555
Co0 O13 2.274983 1_545
Co0 O12 2.274983 1_555
O1 Ti0 2.123431 1_555
O3 Ti0 2.123431 1_655
O9 Ti0 2.130116 1_555
O9 Ti0 2.130116 1_556
O12 Ti0 1.999892 1_555
O13 Ti0 1.999892 1_555
