# generated using pymatgen
data_Ta9As2O25
_symmetry_space_group_name_H-M   'P 1'
_cell_length_a   11.47145814
_cell_length_b   11.47145814
_cell_length_c   11.47145814
_cell_angle_alpha   91.76743896
_cell_angle_beta   91.76743896
_cell_angle_gamma   159.77040253
_symmetry_Int_Tables_number   1
_chemical_formula_structural   Ta9As2O25
_chemical_formula_sum   'Ta9 As2 O25'
_cell_volume   513.87392503
_cell_formula_units_Z   1
loop_
 _symmetry_equiv_pos_site_id
 _symmetry_equiv_pos_as_xyz
  1  'x, y, z'
loop_
 _atom_site_type_symbol
 _atom_site_label
 _atom_site_symmetry_multiplicity
 _atom_site_fract_x
 _atom_site_fract_y
 _atom_site_fract_z
 _atom_site_occupancy
  Ta  Ta0  1  0.00000000  0.00000000  0.00000000  1
  Ta  Ta1  1  0.22296900  0.09708200  0.32005200  1
  Ta  Ta2  1  0.77703100  0.90291800  0.67994800  1
  Ta  Ta3  1  0.90291800  0.22296900  0.12588700  1
  Ta  Ta4  1  0.09708200  0.77703100  0.87411300  1
  Ta  Ta5  1  0.12788600  0.31807400  0.44595900  1
  Ta  Ta6  1  0.87211400  0.68192600  0.55404100  1
  Ta  Ta7  1  0.68192600  0.12788600  0.80981200  1
  Ta  Ta8  1  0.31807400  0.87211400  0.19018800  1
  As  As0  1  0.25000000  0.75000000  0.50000000  1
  As  As1  1  0.75000000  0.25000000  0.50000000  1
  O  O0  1  0.34800500  0.16334300  0.51134800  1
  O  O1  1  0.65199500  0.83665700  0.48865200  1
  O  O2  1  0.83665700  0.34800500  0.18466200  1
  O  O3  1  0.16334300  0.65199500  0.81533800  1
  O  O4  1  0.25332600  0.38895600  0.64228200  1
  O  O5  1  0.74667400  0.61104400  0.35771800  1
  O  O6  1  0.61104400  0.25332600  0.86437000  1
  O  O7  1  0.38895600  0.74667400  0.13563000  1
  O  O8  1  0.18079800  0.21143200  0.39223000  1
  O  O9  1  0.81920200  0.78856800  0.60777000  1
  O  O10  1  0.78856800  0.18079800  0.96936600  1
  O  O11  1  0.21143200  0.81920200  0.03063400  1
  O  O12  1  0.09574800  0.43987500  0.53562300  1
  O  O13  1  0.90425200  0.56012500  0.46437700  1
  O  O14  1  0.56012500  0.09574800  0.65587300  1
  O  O15  1  0.43987500  0.90425200  0.34412700  1
  O  O16  1  0.50000000  0.50000000  0.00000000  1
  O  O17  1  0.11703000  0.04890500  0.16593600  1
  O  O18  1  0.88297000  0.95109500  0.83406400  1
  O  O19  1  0.95109500  0.11703000  0.06812500  1
  O  O20  1  0.04890500  0.88297000  0.93187500  1
  O  O21  1  0.01676200  0.28094800  0.29771000  1
  O  O22  1  0.98323800  0.71905200  0.70229000  1
  O  O23  1  0.71905200  0.01676200  0.73581300  1
  O  O24  1  0.28094800  0.98323800  0.26418700  1
loop_
_geom_bond_atom_site_label_1
_geom_bond_atom_site_label_2
_geom_bond_distance
_geom_bond_site_symmetry_2
As0 O12 2.067651 1_555
As0 O14 2.067651 1_565
As0 O15 2.067651 1_555
As0 O13 2.067651 1_455
As1 O12 2.067651 1_655
As1 O13 2.067651 1_555
As1 O15 2.067651 1_545
As1 O14 2.067651 1_555
O0 Ta6 2.072456 1_555
O0 Ta6 2.072460 1_445
O0 Ta1 2.260007 1_555
O1 Ta5 2.072456 1_555
O1 Ta5 2.072460 1_665
O1 Ta2 2.260007 1_555
O2 Ta8 2.072456 1_655
O2 Ta8 2.072456 1_545
O2 Ta3 2.260018 1_555
O3 Ta7 2.072456 1_455
O3 Ta7 2.072456 1_565
O3 Ta4 2.260018 1_555
O4 Ta2 2.061981 1_445
O4 Ta2 2.061985 1_555
O4 Ta5 2.301128 1_555
O5 Ta1 2.061981 1_665
O5 Ta1 2.061985 1_555
O5 Ta6 2.301128 1_555
O6 Ta4 2.061986 1_655
O6 Ta4 2.061986 1_545
O6 Ta7 2.301117 1_555
O7 Ta3 2.061986 1_455
O7 Ta3 2.061986 1_565
O7 Ta8 2.301117 1_555
O8 Ta5 1.901291 1_555
O8 Ta1 1.946507 1_555
O9 Ta6 1.901291 1_555
O9 Ta2 1.946507 1_555
O10 Ta7 1.901294 1_555
O10 Ta3 1.946512 1_556
O11 Ta8 1.901294 1_555
O11 Ta4 1.946512 1_554
O12 Ta5 2.011860 1_555
O13 Ta6 2.011860 1_555
O14 Ta7 2.011854 1_555
O15 Ta8 2.011854 1_555
O16 Ta0 2.014629 1_665
O16 Ta0 2.014629 1_555
O17 Ta1 1.858685 1_555
O17 Ta0 2.025724 1_555
O18 Ta2 1.858685 1_555
O18 Ta0 2.025724 1_666
O19 Ta3 1.858685 1_555
O19 Ta0 2.025713 1_655
O20 Ta4 1.858685 1_555
O20 Ta0 2.025713 1_566
O21 Ta5 1.871175 1_555
O21 Ta3 2.040411 1_455
O22 Ta6 1.871175 1_555
O22 Ta4 2.040411 1_655
O23 Ta7 1.871190 1_555
O23 Ta2 2.040411 1_545
O24 Ta8 1.871190 1_555
O24 Ta1 2.040411 1_565
