# generated using pymatgen
data_MgMo3O8
_symmetry_space_group_name_H-M   'P 1'
_cell_length_a   6.23001262
_cell_length_b   6.23001262
_cell_length_c   9.42914400
_cell_angle_alpha   90.00000000
_cell_angle_beta   90.00000000
_cell_angle_gamma   119.90676690
_symmetry_Int_Tables_number   1
_chemical_formula_structural   MgMo3O8
_chemical_formula_sum   'Mg2 Mo6 O16'
_cell_volume   317.24004051
_cell_formula_units_Z   2
loop_
 _symmetry_equiv_pos_site_id
 _symmetry_equiv_pos_as_xyz
  1  'x, y, z'
loop_
 _atom_site_type_symbol
 _atom_site_label
 _atom_site_symmetry_multiplicity
 _atom_site_fract_x
 _atom_site_fract_y
 _atom_site_fract_z
 _atom_site_occupancy
  Mg  Mg0  1  0.33674000  0.66326000  0.53162100  1
  Mg  Mg1  1  0.66326000  0.33674000  0.03162100  1
  Mo  Mo0  1  0.16581100  0.83418900  0.23945100  1
  Mo  Mo1  1  0.16455300  0.33862400  0.24510000  1
  Mo  Mo2  1  0.66137600  0.83544700  0.24510000  1
  Mo  Mo3  1  0.83418900  0.16581100  0.73945100  1
  Mo  Mo4  1  0.83544700  0.66137600  0.74510000  1
  Mo  Mo5  1  0.33862400  0.16455300  0.74510000  1
  O  O0  1  0.99405800  0.00594200  0.34792200  1
  O  O1  1  0.00594200  0.99405800  0.84792200  1
  O  O2  1  0.34042400  0.65957600  0.12743400  1
  O  O3  1  0.65957600  0.34042400  0.62743400  1
  O  O4  1  0.47212000  0.52788000  0.36492100  1
  O  O5  1  0.48124900  0.94416600  0.36237100  1
  O  O6  1  0.05583400  0.51875100  0.36237100  1
  O  O7  1  0.52788000  0.47212000  0.86492100  1
  O  O8  1  0.51875100  0.05583400  0.86237100  1
  O  O9  1  0.94416600  0.48124900  0.86237100  1
  O  O10  1  0.16714600  0.83285400  0.64020800  1
  O  O11  1  0.17217000  0.32636500  0.64475000  1
  O  O12  1  0.67363500  0.82783000  0.64475000  1
  O  O13  1  0.83285400  0.16714600  0.14020800  1
  O  O14  1  0.82783000  0.67363500  0.14475000  1
  O  O15  1  0.32636500  0.17217000  0.14475000  1
loop_
_geom_bond_atom_site_label_1
_geom_bond_atom_site_label_2
_geom_bond_distance
_geom_bond_site_symmetry_2
Mg0 O10 2.096241 1_555
Mg0 O11 2.109130 1_555
Mg0 O12 2.109130 1_555
Mg0 O4 2.145399 1_555
Mg0 O5 2.202027 1_555
Mg0 O6 2.202027 1_555
Mg1 O13 2.096241 1_555
Mg1 O14 2.109130 1_555
Mg1 O15 2.109130 1_555
Mg1 O7 2.145399 1_554
Mg1 O8 2.202027 1_554
Mg1 O9 2.202027 1_554
Mo0 O15 2.032561 1_565
Mo0 O14 2.032561 1_455
Mo0 O5 2.081363 1_555
Mo0 O6 2.081363 1_555
Mo0 O0 2.116062 1_465
Mo0 O2 2.159275 1_555
Mo1 O6 1.923211 1_555
Mo1 O15 2.007340 1_555
Mo1 O4 2.021235 1_555
Mo1 O0 2.041726 1_455
Mo1 O13 2.046568 1_455
Mo1 O2 2.060327 1_555
Mo2 O5 1.923211 1_555
Mo2 O14 2.007340 1_555
Mo2 O4 2.021235 1_555
Mo2 O0 2.041726 1_565
Mo2 O13 2.046568 1_565
Mo2 O2 2.060327 1_555
Mo3 O11 2.032561 1_655
Mo3 O12 2.032561 1_545
Mo3 O9 2.081363 1_555
Mo3 O8 2.081363 1_555
Mo3 O1 2.116062 1_645
Mo3 O3 2.159275 1_555
Mo4 O9 1.923211 1_555
Mo4 O12 2.007340 1_555
Mo4 O7 2.021235 1_555
Mo4 O1 2.041726 1_655
Mo4 O10 2.046568 1_655
Mo4 O3 2.060327 1_555
Mo5 O8 1.923211 1_555
Mo5 O11 2.007340 1_555
Mo5 O7 2.021235 1_555
Mo5 O1 2.041726 1_545
Mo5 O10 2.046568 1_545
Mo5 O3 2.060327 1_555
