# generated using pymatgen
data_SrPrNiRuO6
_symmetry_space_group_name_H-M   'P 1'
_cell_length_a   5.65554000
_cell_length_b   5.57753900
_cell_length_c   9.66387544
_cell_angle_alpha   54.82341115
_cell_angle_beta   90.00000000
_cell_angle_gamma   90.00000000
_symmetry_Int_Tables_number   1
_chemical_formula_structural   SrPrNiRuO6
_chemical_formula_sum   'Sr2 Pr2 Ni2 Ru2 O12'
_cell_volume   249.16797157
_cell_formula_units_Z   2
loop_
 _symmetry_equiv_pos_site_id
 _symmetry_equiv_pos_as_xyz
  1  'x, y, z'
loop_
 _atom_site_type_symbol
 _atom_site_label
 _atom_site_symmetry_multiplicity
 _atom_site_fract_x
 _atom_site_fract_y
 _atom_site_fract_z
 _atom_site_occupancy
  Sr  Sr0  1  0.21584200  0.24513000  0.24950900  1
  Sr  Sr1  1  0.78415800  0.24513000  0.74950900  1
  Pr  Pr0  1  0.30232200  0.76131300  0.75165000  1
  Pr  Pr1  1  0.69767800  0.76131300  0.25165000  1
  Ni  Ni0  1  0.75609800  0.50068200  0.00080000  1
  Ni  Ni1  1  0.24390200  0.50068200  0.50080000  1
  Ru  Ru0  1  0.75331700  0.00041500  0.49971600  1
  Ru  Ru1  1  0.24668300  0.00041500  0.99971600  1
  O  O0  1  0.76228100  0.33281500  0.25604100  1
  O  O1  1  0.23771900  0.33281500  0.75604100  1
  O  O2  1  0.72866700  0.68932900  0.74442300  1
  O  O3  1  0.27133300  0.68932900  0.24442300  1
  O  O4  1  0.03845700  0.15167500  0.54433100  1
  O  O5  1  0.96154300  0.15167500  0.04433100  1
  O  O6  1  0.47596200  0.82570800  0.46048100  1
  O  O7  1  0.52403800  0.82570800  0.96048100  1
  O  O8  1  0.94981300  0.75708000  0.45533900  1
  O  O9  1  0.05018700  0.75708000  0.95533900  1
  O  O10  1  0.53529200  0.23585300  0.53771100  1
  O  O11  1  0.46470800  0.23585300  0.03771100  1
loop_
_geom_bond_atom_site_label_1
_geom_bond_atom_site_label_2
_geom_bond_distance
_geom_bond_site_symmetry_2
Ni0 O2 2.065427 1_554
Ni0 O9 2.068951 1_654
Ni0 O0 2.073910 1_555
Ni0 O7 2.084904 1_554
Ni0 O5 2.091104 1_555
Ni0 O11 2.101849 1_555
Ni1 O3 2.065427 1_555
Ni1 O8 2.068951 1_455
Ni1 O1 2.073910 1_555
Ni1 O6 2.084904 1_555
Ni1 O4 2.091104 1_555
Ni1 O10 2.101849 1_555
O0 Ru0 1.988668 1_555
O0 Pr1 2.393819 1_555
O0 Sr0 2.618902 1_655
O1 Ru1 1.988668 1_555
O1 Pr0 2.393819 1_555
O1 Sr1 2.618902 1_455
O2 Ru0 1.973494 1_565
O2 Pr0 2.452004 1_555
O2 Sr1 2.469573 1_555
O3 Ru1 1.973494 1_564
O3 Pr1 2.452004 1_555
O3 Sr0 2.469573 1_555
O4 Ru0 1.979219 1_455
O4 Pr0 2.440367 1_545
O4 Sr1 2.731759 1_455
O4 Sr0 2.772093 1_555
O5 Ru1 1.979219 1_654
O5 Pr1 2.440367 1_545
O5 Sr0 2.731759 1_655
O5 Sr1 2.772093 1_554
O6 Ru0 1.994861 1_565
O6 Sr0 2.509598 1_565
O6 Pr1 2.570851 1_555
O6 Pr0 2.801165 1_555
O7 Ru1 1.994861 1_565
O7 Sr1 2.509598 1_565
O7 Pr0 2.570851 1_555
O7 Pr1 2.801165 1_556
O8 Ru0 1.982810 1_565
O8 Pr1 2.419725 1_555
O8 Sr0 2.718722 1_665
O8 Sr1 2.785657 1_555
O9 Ru1 1.982810 1_565
O9 Pr0 2.419725 1_555
O9 Sr1 2.718722 1_465
O9 Sr0 2.785657 1_556
O10 Ru0 1.983729 1_555
O10 Sr1 2.508989 1_555
O10 Pr0 2.590532 1_545
O10 Pr1 2.782083 1_555
O11 Ru1 1.983729 1_554
O11 Sr0 2.508989 1_555
O11 Pr1 2.590532 1_545
O11 Pr0 2.782083 1_554
