# generated using pymatgen
data_Li4MnCo3O8
_symmetry_space_group_name_H-M   'P 1'
_cell_length_a   5.01484000
_cell_length_b   5.09477858
_cell_length_c   6.03952989
_cell_angle_alpha   91.18280993
_cell_angle_beta   92.03907615
_cell_angle_gamma   107.18031704
_symmetry_Int_Tables_number   1
_chemical_formula_structural   Li4MnCo3O8
_chemical_formula_sum   'Li4 Mn1 Co3 O8'
_cell_volume   147.24998042
_cell_formula_units_Z   1
loop_
 _symmetry_equiv_pos_site_id
 _symmetry_equiv_pos_as_xyz
  1  'x, y, z'
loop_
 _atom_site_type_symbol
 _atom_site_label
 _atom_site_symmetry_multiplicity
 _atom_site_fract_x
 _atom_site_fract_y
 _atom_site_fract_z
 _atom_site_occupancy
  Li  Li0  1  0.00000000  0.50000000  0.00000000  1
  Li  Li1  1  0.50006100  0.50035600  0.24753800  1
  Li  Li2  1  0.00000000  0.50000000  0.50000000  1
  Li  Li3  1  0.49993900  0.49964400  0.75246200  1
  Mn  Mn0  1  0.50000000  0.00000000  0.50000000  1
  Co  Co0  1  0.00090800  0.99976100  0.75310700  1
  Co  Co1  1  0.50000000  0.00000000  0.00000000  1
  Co  Co2  1  0.99909200  0.00023900  0.24689300  1
  O  O0  1  0.24854500  0.77033800  0.77477500  1
  O  O1  1  0.74914700  0.77780200  0.99420200  1
  O  O2  1  0.24861300  0.76982800  0.26619000  1
  O  O3  1  0.75346000  0.77333500  0.49378600  1
  O  O4  1  0.75145500  0.22966200  0.22522500  1
  O  O5  1  0.24654000  0.22666500  0.50621400  1
  O  O6  1  0.75138700  0.23017200  0.73381000  1
  O  O7  1  0.25085300  0.22219800  0.00579800  1
loop_
_geom_bond_atom_site_label_1
_geom_bond_atom_site_label_2
_geom_bond_distance
_geom_bond_site_symmetry_2
Li0 O0 2.117703 1_554
Li0 O4 2.117703 1_455
Li0 O7 2.153530 1_555
Li0 O1 2.153530 1_454
Li0 O2 2.186873 1_555
Li0 O6 2.186873 1_454
Li1 O7 2.107182 1_555
Li1 O3 2.120598 1_555
Li1 O2 2.124625 1_555
Li1 O4 2.130978 1_555
Li1 O1 2.254234 1_554
Li1 O5 2.277153 1_555
Li2 O5 2.117843 1_555
Li2 O3 2.117843 1_455
Li2 O6 2.152017 1_455
Li2 O2 2.152017 1_555
Li2 O0 2.224590 1_555
Li2 O4 2.224590 1_455
Li3 O1 2.107182 1_555
Li3 O5 2.120598 1_555
Li3 O6 2.124625 1_555
Li3 O0 2.130978 1_555
Li3 O7 2.254234 1_556
Li3 O3 2.277153 1_555
Mn0 O3 1.954310 1_545
Mn0 O5 1.954310 1_555
Mn0 O6 1.972329 1_555
Mn0 O2 1.972329 1_545
Mn0 O4 2.251806 1_555
Mn0 O0 2.251806 1_545
Co0 O0 1.943668 1_555
Co0 O6 1.954589 1_465
Co0 O7 2.034156 1_566
Co0 O3 2.065182 1_455
Co0 O1 2.085278 1_455
Co0 O5 2.106610 1_565
Co1 O7 1.918568 1_555
Co1 O1 1.918568 1_544
Co1 O4 1.936513 1_555
Co1 O0 1.936513 1_544
Co1 O2 2.213082 1_545
Co1 O6 2.213082 1_554
Co2 O4 1.943668 1_555
Co2 O2 1.954589 1_645
Co2 O1 2.034156 1_544
Co2 O5 2.065182 1_655
Co2 O7 2.085278 1_655
Co2 O3 2.106610 1_545
