# generated using pymatgen
data_NaTiFeO4
_symmetry_space_group_name_H-M   'P 1'
_cell_length_a   2.99259800
_cell_length_b   9.29817400
_cell_length_c   10.84654300
_cell_angle_alpha   90.00000000
_cell_angle_beta   90.00000000
_cell_angle_gamma   90.00000000
_symmetry_Int_Tables_number   1
_chemical_formula_structural   NaTiFeO4
_chemical_formula_sum   'Na4 Ti4 Fe4 O16'
_cell_volume   301.81261810
_cell_formula_units_Z   4
loop_
 _symmetry_equiv_pos_site_id
 _symmetry_equiv_pos_as_xyz
  1  'x, y, z'
loop_
 _atom_site_type_symbol
 _atom_site_label
 _atom_site_symmetry_multiplicity
 _atom_site_fract_x
 _atom_site_fract_y
 _atom_site_fract_z
 _atom_site_occupancy
  Na  Na0  1  0.50000000  0.25737800  0.90167100  1
  Na  Na1  1  0.50000000  0.75737800  0.09832900  1
  Na  Na2  1  0.00000000  0.74168400  0.59657000  1
  Na  Na3  1  0.00000000  0.24168400  0.40343000  1
  Ti  Ti0  1  0.00000000  0.58369000  0.85265700  1
  Ti  Ti1  1  0.00000000  0.08369000  0.14734300  1
  Ti  Ti2  1  0.00000000  0.56114700  0.36257600  1
  Ti  Ti3  1  0.00000000  0.06114700  0.63742400  1
  Fe  Fe0  1  0.50000000  0.41744200  0.64526200  1
  Fe  Fe1  1  0.50000000  0.91744200  0.35473800  1
  Fe  Fe2  1  0.50000000  0.43457900  0.13754500  1
  Fe  Fe3  1  0.50000000  0.93457900  0.86245500  1
  O  O0  1  0.50000000  0.52623200  0.96317600  1
  O  O1  1  0.50000000  0.02623200  0.03682400  1
  O  O2  1  0.00000000  0.47691400  0.52989000  1
  O  O3  1  0.00000000  0.97691400  0.47011000  1
  O  O4  1  0.50000000  0.19953500  0.60035300  1
  O  O5  1  0.50000000  0.69953500  0.39964700  1
  O  O6  1  0.00000000  0.79018400  0.89981500  1
  O  O7  1  0.00000000  0.29018400  0.10018500  1
  O  O8  1  0.50000000  0.61904000  0.73446200  1
  O  O9  1  0.50000000  0.11904000  0.26553800  1
  O  O10  1  0.00000000  0.39128200  0.77064600  1
  O  O11  1  0.00000000  0.89128200  0.22935400  1
  O  O12  1  0.50000000  0.42482100  0.32672400  1
  O  O13  1  0.50000000  0.92482100  0.67327600  1
  O  O14  1  0.00000000  0.57607300  0.18216800  1
  O  O15  1  0.00000000  0.07607300  0.81783200  1
loop_
_geom_bond_atom_site_label_1
_geom_bond_atom_site_label_2
_geom_bond_distance
_geom_bond_site_symmetry_2
Na0 O10 2.410148 1_655
Na0 O10 2.410148 1_555
Na0 O15 2.430595 1_555
Na0 O15 2.430595 1_655
Na0 O0 2.587335 1_555
Na0 O1 2.601577 1_556
Na0 O7 2.639732 1_656
Na0 O7 2.639732 1_556
Na1 O11 2.410148 1_655
Na1 O11 2.410148 1_555
Na1 O14 2.430595 1_555
Na1 O14 2.430595 1_655
Na1 O1 2.587335 1_565
Na1 O0 2.601577 1_554
Na1 O6 2.639732 1_554
Na1 O6 2.639732 1_654
Na2 O8 2.403397 1_455
Na2 O8 2.403397 1_555
Na2 O13 2.414703 1_555
Na2 O13 2.414703 1_455
Na2 O2 2.565917 1_555
Na2 O3 2.581728 1_555
Na2 O5 2.637180 1_455
Na2 O5 2.637180 1_555
Na3 O9 2.403397 1_455
Na3 O9 2.403397 1_555
Na3 O12 2.414703 1_555
Na3 O12 2.414703 1_455
Na3 O3 2.565917 1_545
Na3 O2 2.581728 1_555
Na3 O4 2.637180 1_455
Na3 O4 2.637180 1_555
Fe0 O2 2.027478 1_555
Fe0 O2 2.027478 1_655
Fe0 O10 2.036573 1_655
Fe0 O10 2.036573 1_555
Fe0 O4 2.083868 1_555
Fe0 O8 2.109456 1_555
Fe1 O3 2.027478 1_555
Fe1 O3 2.027478 1_655
Fe1 O11 2.036573 1_555
Fe1 O11 2.036573 1_655
Fe1 O5 2.083868 1_555
Fe1 O9 2.109456 1_565
Fe2 O14 2.050383 1_655
Fe2 O14 2.050383 1_555
Fe2 O7 2.050785 1_655
Fe2 O7 2.050785 1_555
Fe2 O12 2.053943 1_555
Fe2 O0 2.074433 1_554
Fe3 O15 2.050383 1_665
Fe3 O15 2.050383 1_565
Fe3 O6 2.050785 1_555
Fe3 O6 2.050785 1_655
Fe3 O13 2.053943 1_555
Fe3 O1 2.074433 1_566
O0 Ti0 1.990311 1_555
O0 Ti0 1.990311 1_655
O1 Ti1 1.990311 1_655
O1 Ti1 1.990311 1_555
O2 Ti2 1.976574 1_555
O3 Ti3 1.976574 1_565
O4 Ti3 2.014033 1_655
O4 Ti3 2.014033 1_555
O5 Ti2 2.014033 1_555
O5 Ti2 2.014033 1_655
O6 Ti0 1.986982 1_555
O7 Ti1 1.986982 1_555
O8 Ti0 1.997621 1_555
O8 Ti0 1.997621 1_655
O9 Ti1 1.997621 1_555
O9 Ti1 1.997621 1_655
O10 Ti0 1.997986 1_555
O11 Ti1 1.997986 1_565
O12 Ti2 1.999224 1_555
O12 Ti2 1.999224 1_655
O13 Ti3 1.999224 1_565
O13 Ti3 1.999224 1_665
O14 Ti2 1.961719 1_555
O15 Ti3 1.961719 1_555
