# generated using pymatgen
data_Bi2IBr
_symmetry_space_group_name_H-M   'P 1'
_cell_length_a   7.97353480
_cell_length_b   7.97353480
_cell_length_c   31.13139951
_cell_angle_alpha   83.42594183
_cell_angle_beta   83.42594183
_cell_angle_gamma   31.75368826
_symmetry_Int_Tables_number   1
_chemical_formula_structural   Bi2IBr
_chemical_formula_sum   'Bi12 I6 Br6'
_cell_volume   1034.21175247
_cell_formula_units_Z   6
loop_
 _symmetry_equiv_pos_site_id
 _symmetry_equiv_pos_as_xyz
  1  'x, y, z'
loop_
 _atom_site_type_symbol
 _atom_site_label
 _atom_site_symmetry_multiplicity
 _atom_site_fract_x
 _atom_site_fract_y
 _atom_site_fract_z
 _atom_site_occupancy
  Bi  Bi0  1  0.64255000  0.64255000  0.66180100  1
  Bi  Bi1  1  0.35745000  0.35745000  0.33819900  1
  Bi  Bi2  1  0.65118200  0.65118200  0.76079000  1
  Bi  Bi3  1  0.34881800  0.34881800  0.23921000  1
  Bi  Bi4  1  0.31877000  0.31877000  0.00311900  1
  Bi  Bi5  1  0.68123000  0.68123000  0.99688100  1
  Bi  Bi6  1  0.98032200  0.98032200  0.57289100  1
  Bi  Bi7  1  0.01967800  0.01967800  0.42710900  1
  Bi  Bi8  1  0.00217800  0.00217800  0.67017100  1
  Bi  Bi9  1  0.99782200  0.99782200  0.32982800  1
  Bi  Bi10  1  0.38416500  0.38416500  0.90457000  1
  Bi  Bi11  1  0.61583500  0.61583500  0.09543000  1
  I  I0  1  0.75709600  0.75709600  0.87490900  1
  I  I1  1  0.24290400  0.24290400  0.12509100  1
  I  I2  1  0.29647000  0.29647000  0.74402400  1
  I  I3  1  0.70353000  0.70353000  0.25597600  1
  I  I4  1  0.01902500  0.01902500  0.92625400  1
  I  I5  1  0.98097500  0.98097500  0.07374600  1
  Br  Br0  1  0.35229900  0.35229900  0.59568800  1
  Br  Br1  1  0.64770100  0.64770100  0.40431200  1
  Br  Br2  1  0.02399300  0.02399300  0.78532600  1
  Br  Br3  1  0.97600700  0.97600700  0.21467400  1
  Br  Br4  1  0.60466400  0.60466400  0.54587300  1
  Br  Br5  1  0.39533600  0.39533600  0.45412700  1
loop_
_geom_bond_atom_site_label_1
_geom_bond_atom_site_label_2
_geom_bond_distance
_geom_bond_site_symmetry_2
Bi0 Bi8 3.054254 1_565
Bi0 Bi8 3.054254 1_655
Bi0 Bi2 3.100214 1_555
Bi1 Bi9 3.054254 1_455
Bi1 Bi9 3.054254 1_545
Bi1 Bi3 3.100214 1_555
Bi2 Br2 2.965291 1_565
Bi2 Br2 2.965291 1_655
Bi2 I2 3.117701 1_565
Bi2 I2 3.117701 1_655
Bi3 Br3 2.965291 1_455
Bi3 Br3 2.965291 1_545
Bi3 I3 3.117701 1_455
Bi3 I3 3.117701 1_545
Bi4 Bi5 3.056828 1_454
Bi4 Bi5 3.056828 1_544
Bi6 Br4 2.953191 1_655
Bi6 Br4 2.953191 1_565
Bi6 Br0 2.964159 1_565
Bi6 Br0 2.964159 1_655
Bi6 Bi8 3.086368 1_665
Bi7 Br5 2.953191 1_455
Bi7 Br5 2.953191 1_545
Bi7 Br1 2.964159 1_545
Bi7 Br1 2.964159 1_455
Bi7 Bi9 3.086399 1_445
Bi10 Bi4 3.112233 1_556
Bi10 I4 3.134536 1_565
Bi10 I4 3.134536 1_655
Bi10 I0 3.136584 1_545
Bi10 I0 3.136584 1_455
Bi11 Bi5 3.112233 1_554
Bi11 I5 3.134536 1_455
Bi11 I5 3.134536 1_545
Bi11 I1 3.136584 1_565
Bi11 I1 3.136584 1_655
