# generated using pymatgen
data_Sr2GdBeO5
_symmetry_space_group_name_H-M   'P 1'
_cell_length_a   6.58424200
_cell_length_b   7.34284200
_cell_length_c   9.65076700
_cell_angle_alpha   90.00000000
_cell_angle_beta   90.00000000
_cell_angle_gamma   90.00000000
_symmetry_Int_Tables_number   1
_chemical_formula_structural   Sr2GdBeO5
_chemical_formula_sum   'Sr8 Gd4 Be4 O20'
_cell_volume   466.58610210
_cell_formula_units_Z   4
loop_
 _symmetry_equiv_pos_site_id
 _symmetry_equiv_pos_as_xyz
  1  'x, y, z'
loop_
 _atom_site_type_symbol
 _atom_site_label
 _atom_site_symmetry_multiplicity
 _atom_site_fract_x
 _atom_site_fract_y
 _atom_site_fract_z
 _atom_site_occupancy
  Sr  Sr0  1  0.91203300  0.97635700  0.67358200  1
  Sr  Sr1  1  0.08796700  0.02364300  0.32641800  1
  Sr  Sr2  1  0.41203300  0.02364300  0.82641800  1
  Sr  Sr3  1  0.08796700  0.47635700  0.32641800  1
  Sr  Sr4  1  0.58796700  0.97635700  0.17358200  1
  Sr  Sr5  1  0.91203300  0.52364300  0.67358200  1
  Sr  Sr6  1  0.58796700  0.52364300  0.17358200  1
  Sr  Sr7  1  0.41203300  0.47635700  0.82641800  1
  Gd  Gd0  1  0.41342500  0.75000000  0.52467800  1
  Gd  Gd1  1  0.58657500  0.25000000  0.47532200  1
  Gd  Gd2  1  0.91342500  0.25000000  0.97532200  1
  Gd  Gd3  1  0.08657500  0.75000000  0.02467800  1
  Be  Be0  1  0.68735500  0.75000000  0.89817800  1
  Be  Be1  1  0.31264500  0.25000000  0.10182200  1
  Be  Be2  1  0.18735500  0.25000000  0.60182200  1
  Be  Be3  1  0.81264500  0.75000000  0.39817800  1
  O  O0  1  0.16730300  0.75000000  0.79176100  1
  O  O1  1  0.83269700  0.25000000  0.20823900  1
  O  O2  1  0.66730300  0.25000000  0.70823900  1
  O  O3  1  0.33269700  0.75000000  0.29176100  1
  O  O4  1  0.62295800  0.75000000  0.72894600  1
  O  O5  1  0.37704200  0.25000000  0.27105400  1
  O  O6  1  0.12295800  0.25000000  0.77105400  1
  O  O7  1  0.87704200  0.75000000  0.22894600  1
  O  O8  1  0.81375800  0.93738100  0.93709900  1
  O  O9  1  0.18624200  0.06261900  0.06290100  1
  O  O10  1  0.31375800  0.06261900  0.56290100  1
  O  O11  1  0.18624200  0.43738100  0.06290100  1
  O  O12  1  0.68624200  0.93738100  0.43709900  1
  O  O13  1  0.81375800  0.56261900  0.93709900  1
  O  O14  1  0.68624200  0.56261900  0.43709900  1
  O  O15  1  0.31375800  0.43738100  0.56290100  1
  O  O16  1  0.46941200  0.75000000  0.98855300  1
  O  O17  1  0.53058800  0.25000000  0.01144700  1
  O  O18  1  0.96941200  0.25000000  0.51144700  1
  O  O19  1  0.03058800  0.75000000  0.48855300  1
loop_
_geom_bond_atom_site_label_1
_geom_bond_atom_site_label_2
_geom_bond_distance
_geom_bond_site_symmetry_2
Gd0 O3 2.309817 1_555
Gd0 O4 2.406145 1_555
Gd0 O12 2.415402 1_555
Gd0 O14 2.415402 1_555
Gd0 O10 2.415800 1_565
Gd0 O15 2.415800 1_555
Gd0 O19 2.544687 1_555
Gd0 O0 3.044651 1_555
Gd1 O2 2.309817 1_555
Gd1 O5 2.406145 1_555
Gd1 O15 2.415402 1_555
Gd1 O10 2.415402 1_555
Gd1 O14 2.415800 1_555
Gd1 O12 2.415800 1_545
Gd1 O18 2.544687 1_555
Gd1 O1 3.044651 1_555
Gd2 O1 2.309817 1_556
Gd2 O6 2.406145 1_655
Gd2 O11 2.415402 1_656
Gd2 O9 2.415402 1_656
Gd2 O13 2.415800 1_555
Gd2 O8 2.415800 1_545
Gd2 O17 2.544687 1_556
Gd2 O2 3.044651 1_555
Gd3 O0 2.309817 1_554
Gd3 O7 2.406145 1_455
Gd3 O8 2.415402 1_454
Gd3 O13 2.415402 1_454
Gd3 O9 2.415800 1_565
Gd3 O11 2.415800 1_555
Gd3 O16 2.544687 1_554
Gd3 O3 3.044651 1_555
Be0 O8 1.651328 1_555
Be0 O13 1.651328 1_555
Be0 O16 1.679258 1_555
Be0 O4 1.687360 1_555
Be1 O11 1.651328 1_555
Be1 O9 1.651328 1_555
Be1 O17 1.679258 1_555
Be1 O5 1.687360 1_555
Be2 O15 1.651328 1_555
Be2 O10 1.651328 1_555
Be2 O18 1.679258 1_455
Be2 O6 1.687360 1_555
Be3 O12 1.651328 1_555
Be3 O14 1.651328 1_555
Be3 O19 1.679258 1_655
Be3 O7 1.687360 1_555
O0 Sr2 2.597250 1_565
O0 Sr7 2.597250 1_555
O0 Sr0 2.624561 1_455
O0 Sr5 2.624561 1_455
O1 Sr6 2.597250 1_555
O1 Sr4 2.597250 1_545
O1 Sr3 2.624561 1_655
O1 Sr1 2.624561 1_655
O2 Sr5 2.597250 1_555
O2 Sr0 2.597250 1_545
O2 Sr7 2.624561 1_555
O2 Sr2 2.624561 1_555
O3 Sr1 2.597250 1_565
O3 Sr3 2.597250 1_555
O3 Sr4 2.624561 1_555
O3 Sr6 2.624561 1_555
O4 Sr0 2.582784 1_555
O4 Sr5 2.582784 1_555
O4 Sr2 2.617431 1_565
O4 Sr7 2.617431 1_555
O5 Sr3 2.582784 1_555
O5 Sr1 2.582784 1_555
O5 Sr6 2.617431 1_555
O5 Sr4 2.617431 1_545
O6 Sr7 2.582784 1_555
O6 Sr2 2.582784 1_555
O6 Sr5 2.617431 1_455
O6 Sr0 2.617431 1_445
O7 Sr4 2.582784 1_555
O7 Sr6 2.582784 1_555
O7 Sr1 2.617431 1_665
O7 Sr3 2.617431 1_655
O8 Sr0 2.639729 1_555
O8 Sr4 2.738741 1_556
O8 Sr2 2.922067 1_565
O9 Sr1 2.639729 1_555
O9 Sr2 2.738741 1_554
O9 Sr4 2.922067 1_545
O10 Sr2 2.639729 1_555
O10 Sr1 2.738741 1_555
O10 Sr0 2.922067 1_445
O11 Sr3 2.639729 1_555
O11 Sr7 2.738741 1_554
O11 Sr6 2.922067 1_555
O12 Sr4 2.639729 1_555
O12 Sr0 2.738741 1_555
O12 Sr1 2.922067 1_665
O13 Sr5 2.639729 1_555
O13 Sr6 2.738741 1_556
O13 Sr7 2.922067 1_555
O14 Sr6 2.639729 1_555
O14 Sr5 2.738741 1_555
O14 Sr3 2.922067 1_655
O15 Sr7 2.639729 1_555
O15 Sr3 2.738741 1_555
O15 Sr5 2.922067 1_455
O16 Sr4 2.561355 1_556
O16 Sr6 2.561355 1_556
O16 Sr2 2.574579 1_565
O16 Sr7 2.574579 1_555
O17 Sr7 2.561355 1_554
O17 Sr2 2.561355 1_554
O17 Sr6 2.574579 1_555
O17 Sr4 2.574579 1_545
O18 Sr3 2.561355 1_655
O18 Sr1 2.561355 1_655
O18 Sr5 2.574579 1_555
O18 Sr0 2.574579 1_545
O19 Sr0 2.561355 1_455
O19 Sr5 2.561355 1_455
O19 Sr1 2.574579 1_565
O19 Sr3 2.574579 1_555
