# generated using pymatgen
data_Sr2Ca6Fe3(CoO4)5
_symmetry_space_group_name_H-M   'P 1'
_cell_length_a   10.71883551
_cell_length_b   11.19421988
_cell_length_c   17.15706492
_cell_angle_alpha   108.77988880
_cell_angle_beta   107.97537643
_cell_angle_gamma   90.43221701
_symmetry_Int_Tables_number   1
_chemical_formula_structural   Sr2Ca6Fe3(CoO4)5
_chemical_formula_sum   'Sr8 Ca24 Fe12 Co20 O80'
_cell_volume   1840.81886039
_cell_formula_units_Z   4
loop_
 _symmetry_equiv_pos_site_id
 _symmetry_equiv_pos_as_xyz
  1  'x, y, z'
loop_
 _atom_site_type_symbol
 _atom_site_label
 _atom_site_symmetry_multiplicity
 _atom_site_fract_x
 _atom_site_fract_y
 _atom_site_fract_z
 _atom_site_occupancy
  Sr  Sr0  1  0.30698000  0.56274900  0.60888800  1
  Sr  Sr1  1  0.80656900  0.06346200  0.60863300  1
  Sr  Sr2  1  0.19964900  0.43841400  0.89565400  1
  Sr  Sr3  1  0.05629100  0.29251500  0.60790200  1
  Sr  Sr4  1  0.05546900  0.79597300  0.60947800  1
  Sr  Sr5  1  0.55759800  0.29701900  0.60927100  1
  Sr  Sr6  1  0.45038500  0.20555800  0.89376800  1
  Sr  Sr7  1  0.94454600  0.20193300  0.38529700  1
  Ca  Ca0  1  0.30230000  0.06708400  0.10719000  1
  Ca  Ca1  1  0.30696900  0.06642800  0.60494000  1
  Ca  Ca2  1  0.30588300  0.56767100  0.10891100  1
  Ca  Ca3  1  0.80661400  0.06915200  0.10579700  1
  Ca  Ca4  1  0.80633200  0.56493300  0.10802900  1
  Ca  Ca5  1  0.80291000  0.56652900  0.60690200  1
  Ca  Ca6  1  0.19232100  0.43180000  0.38857100  1
  Ca  Ca7  1  0.19582700  0.93076600  0.38854000  1
  Ca  Ca8  1  0.19663300  0.93240600  0.89786100  1
  Ca  Ca9  1  0.69523400  0.43381300  0.38907900  1
  Ca  Ca10  1  0.70122800  0.43479300  0.89792000  1
  Ca  Ca11  1  0.69539900  0.93059900  0.39037100  1
  Ca  Ca12  1  0.70003500  0.93577400  0.89598600  1
  Ca  Ca13  1  0.05408900  0.29346900  0.10827500  1
  Ca  Ca14  1  0.05099900  0.79107000  0.10674600  1
  Ca  Ca15  1  0.55563500  0.29476200  0.11070200  1
  Ca  Ca16  1  0.55414200  0.78801500  0.10677500  1
  Ca  Ca17  1  0.55687300  0.78997900  0.60670100  1
  Ca  Ca18  1  0.44707600  0.20886700  0.39003700  1
  Ca  Ca19  1  0.44754700  0.70947200  0.38897700  1
  Ca  Ca20  1  0.44982600  0.71232200  0.89709900  1
  Ca  Ca21  1  0.95017700  0.21119300  0.89742100  1
  Ca  Ca22  1  0.94256200  0.70330900  0.38735400  1
  Ca  Ca23  1  0.94882400  0.71186100  0.89744800  1
  Fe  Fe0  1  0.10799500  0.08870600  0.75444900  1
  Fe  Fe1  1  0.10497800  0.59623900  0.75219500  1
  Fe  Fe2  1  0.60362000  0.09022300  0.25019400  1
  Fe  Fe3  1  0.60602600  0.08907200  0.74976000  1
  Fe  Fe4  1  0.61178700  0.59826800  0.75449900  1
  Fe  Fe5  1  0.35449000  0.41037700  0.24929400  1
  Fe  Fe6  1  0.36155300  0.41219000  0.75361400  1
  Fe  Fe7  1  0.35241400  0.90846600  0.24832600  1
  Fe  Fe8  1  0.36004200  0.90803100  0.75156400  1
  Fe  Fe9  1  0.85495400  0.41242400  0.75250800  1
  Fe  Fe10  1  0.85599800  0.90441200  0.24712900  1
  Fe  Fe11  1  0.85448400  0.90602600  0.75367900  1
  Co  Co0  1  0.00641000  0.00035600  0.00101100  1
  Co  Co1  1  0.00225600  0.99662100  0.49474600  1
  Co  Co2  1  0.00640500  0.50122300  0.00277200  1
  Co  Co3  1  0.99954300  0.49799300  0.49572700  1
  Co  Co4  1  0.50921300  0.00143700  0.00433300  1
  Co  Co5  1  0.50425700  0.99932900  0.49511800  1
  Co  Co6  1  0.50875600  0.50135000  0.00297200  1
  Co  Co7  1  0.50494900  0.49484200  0.49268300  1
  Co  Co8  1  0.25723200  0.25185300  0.00465800  1
  Co  Co9  1  0.25323900  0.24646100  0.49515200  1
  Co  Co10  1  0.25792000  0.75270800  0.00462500  1
  Co  Co11  1  0.25525900  0.74835800  0.49649700  1
  Co  Co12  1  0.75780700  0.25173100  0.00213800  1
  Co  Co13  1  0.75196000  0.24907000  0.49475700  1
  Co  Co14  1  0.75716900  0.75081300  0.00178300  1
  Co  Co15  1  0.75202400  0.74626200  0.49565600  1
  Co  Co16  1  0.10855600  0.09272600  0.24604200  1
  Co  Co17  1  0.10626200  0.59466000  0.24895000  1
  Co  Co18  1  0.60841100  0.59377400  0.24826700  1
  Co  Co19  1  0.85576100  0.40812800  0.24773500  1
  O  O0  1  0.12481800  0.11101200  0.48914200  1
  O  O1  1  0.12476800  0.12028700  0.98916900  1
  O  O2  1  0.11537700  0.61230700  0.48369500  1
  O  O3  1  0.12358700  0.62790800  0.99299000  1
  O  O4  1  0.61867500  0.11699300  0.48270800  1
  O  O5  1  0.62953900  0.12190700  0.99232800  1
  O  O6  1  0.61790400  0.61670500  0.48670000  1
  O  O7  1  0.62427300  0.62349900  0.98852500  1
  O  O8  1  0.13637200  0.38327200  0.01918400  1
  O  O9  1  0.13543500  0.37111700  0.50369700  1
  O  O10  1  0.13861500  0.88386100  0.01657400  1
  O  O11  1  0.14177600  0.87057100  0.50563700  1
  O  O12  1  0.64036500  0.38450300  0.01749900  1
  O  O13  1  0.64099500  0.37961800  0.51069000  1
  O  O14  1  0.63398300  0.88582500  0.01394100  1
  O  O15  1  0.63522600  0.86962100  0.50667400  1
  O  O16  1  0.36666900  0.11916400  0.48250700  1
  O  O17  1  0.37894700  0.10912000  0.99379800  1
  O  O18  1  0.36792800  0.62465300  0.48411400  1
  O  O19  1  0.37960300  0.62176600  0.99310100  1
  O  O20  1  0.86426900  0.11510700  0.48241000  1
  O  O21  1  0.87407800  0.11654900  0.98796700  1
  O  O22  1  0.86478600  0.61926800  0.48404600  1
  O  O23  1  0.87376400  0.61579100  0.98740800  1
  O  O24  1  0.38955400  0.38424800  0.01913300  1
  O  O25  1  0.38349700  0.38326800  0.50206500  1
  O  O26  1  0.38871300  0.88086400  0.01622400  1
  O  O27  1  0.39053900  0.88777900  0.50912700  1
  O  O28  1  0.88691500  0.38211900  0.01453700  1
  O  O29  1  0.88116600  0.38489300  0.50659200  1
  O  O30  1  0.88724000  0.88419000  0.01576600  1
  O  O31  1  0.88591100  0.87920200  0.50242100  1
  O  O32  1  0.08807300  0.10357100  0.14039000  1
  O  O33  1  0.08440400  0.08774200  0.63999200  1
  O  O34  1  0.08559600  0.60337700  0.14242000  1
  O  O35  1  0.07835700  0.59367300  0.63804100  1
  O  O36  1  0.59154100  0.10569000  0.14307500  1
  O  O37  1  0.58397900  0.09483200  0.63805700  1
  O  O38  1  0.58879800  0.60206300  0.14164100  1
  O  O39  1  0.58563300  0.59989300  0.64033100  1
  O  O40  1  0.44933900  0.39690200  0.35870500  1
  O  O41  1  0.45007900  0.40491800  0.86378200  1
  O  O42  1  0.44607400  0.89671800  0.35790100  1
  O  O43  1  0.45541700  0.89972500  0.86127900  1
  O  O44  1  0.94155300  0.40532200  0.35670900  1
  O  O45  1  0.94440900  0.39528900  0.85994000  1
  O  O46  1  0.95063300  0.89652700  0.35815700  1
  O  O47  1  0.94918200  0.89565300  0.86255100  1
  O  O48  1  0.33781800  0.28547500  0.14208300  1
  O  O49  1  0.33492100  0.29051600  0.64264900  1
  O  O50  1  0.34028700  0.78700000  0.14100200  1
  O  O51  1  0.33659200  0.79233700  0.63912900  1
  O  O52  1  0.83976400  0.29101100  0.14289100  1
  O  O53  1  0.82743100  0.29714400  0.63759300  1
  O  O54  1  0.83568700  0.78246200  0.13935100  1
  O  O55  1  0.83181600  0.78876300  0.64225100  1
  O  O56  1  0.19161700  0.20868300  0.35230600  1
  O  O57  1  0.19483100  0.20853200  0.86301300  1
  O  O58  1  0.19673600  0.71014900  0.35565200  1
  O  O59  1  0.19842200  0.71361700  0.86229100  1
  O  O60  1  0.68953900  0.21277900  0.36237600  1
  O  O61  1  0.69398800  0.21161500  0.85920100  1
  O  O62  1  0.69404700  0.70947500  0.35440000  1
  O  O63  1  0.70295800  0.71898300  0.86253300  1
  O  O64  1  0.42195600  0.06927800  0.24899500  1
  O  O65  1  0.42211500  0.06571200  0.74422900  1
  O  O66  1  0.42514700  0.56962600  0.24951100  1
  O  O67  1  0.43303100  0.57434200  0.75804300  1
  O  O68  1  0.92427800  0.05902600  0.24065700  1
  O  O69  1  0.92795400  0.06750900  0.75758600  1
  O  O70  1  0.92421800  0.56972500  0.24837800  1
  O  O71  1  0.92387300  0.57304400  0.75274200  1
  O  O72  1  0.17373700  0.43226600  0.24969300  1
  O  O73  1  0.18105900  0.44000700  0.75139900  1
  O  O74  1  0.17235200  0.92949900  0.24809800  1
  O  O75  1  0.18280500  0.93302300  0.75957300  1
  O  O76  1  0.67391300  0.43229700  0.24907500  1
  O  O77  1  0.67857500  0.43906100  0.75884900  1
  O  O78  1  0.67538700  0.93212900  0.25041800  1
  O  O79  1  0.67214400  0.92821300  0.75133600  1
loop_
_geom_bond_atom_site_label_1
_geom_bond_atom_site_label_2
_geom_bond_distance
_geom_bond_site_symmetry_2
Ca0 O48 2.320113 1_555
Ca0 O64 2.366419 1_555
Ca0 O10 2.431284 1_545
Ca0 O17 2.500278 1_554
Ca0 O32 2.536883 1_555
Ca0 O26 2.542804 1_545
Ca0 O1 2.547813 1_554
Ca0 O36 2.967857 1_555
Ca1 O65 2.329476 1_555
Ca1 O49 2.371695 1_555
Ca1 O0 2.503448 1_555
Ca1 O27 2.514611 1_545
Ca1 O11 2.553287 1_545
Ca1 O16 2.606313 1_555
Ca1 O33 2.628989 1_555
Ca1 O37 2.840488 1_555
Ca2 O50 2.336207 1_555
Ca2 O66 2.348625 1_555
Ca2 O8 2.470452 1_555
Ca2 O24 2.497393 1_555
Ca2 O19 2.583732 1_554
Ca2 O3 2.590966 1_554
Ca2 O34 2.601885 1_555
Ca2 O38 2.907207 1_555
Ca3 O68 2.308043 1_555
Ca3 O52 2.351315 1_555
Ca3 O14 2.485882 1_545
Ca3 O30 2.492299 1_545
Ca3 O5 2.493550 1_554
Ca3 O21 2.545292 1_554
Ca3 O36 2.578131 1_555
Ca3 O32 2.886611 1_655
Ca4 O54 2.314923 1_555
Ca4 O70 2.331461 1_555
Ca4 O12 2.424285 1_555
Ca4 O28 2.505055 1_555
Ca4 O38 2.575351 1_555
Ca4 O23 2.608645 1_554
Ca4 O7 2.618608 1_554
Ca4 O34 2.867164 1_655
Ca5 O55 2.356606 1_555
Ca5 O71 2.413717 1_555
Ca5 O13 2.463317 1_555
Ca5 O29 2.542322 1_555
Ca5 O39 2.567515 1_555
Ca5 O6 2.596061 1_555
Ca5 O22 2.624815 1_555
Ca5 O35 2.828994 1_655
Ca6 O72 2.330711 1_555
Ca6 O56 2.370978 1_555
Ca6 O2 2.481808 1_555
Ca6 O9 2.517101 1_555
Ca6 O25 2.553642 1_555
Ca6 O44 2.566796 1_455
Ca6 O18 2.578070 1_555
Ca6 O40 2.960319 1_555
Ca7 O74 2.339503 1_555
Ca7 O58 2.350340 1_555
Ca7 O0 2.494266 1_565
Ca7 O16 2.516079 1_565
Ca7 O46 2.517260 1_455
Ca7 O11 2.531824 1_555
Ca7 O27 2.618957 1_555
Ca7 O42 2.893677 1_555
Ca8 O59 2.327404 1_555
Ca8 O75 2.333417 1_555
Ca8 O1 2.473615 1_565
Ca8 O17 2.510224 1_565
Ca8 O10 2.513923 1_556
Ca8 O47 2.530358 1_455
Ca8 O26 2.624415 1_556
Ca8 O43 3.027230 1_555
Ca9 O76 2.336080 1_555
Ca9 O60 2.363552 1_555
Ca9 O22 2.490997 1_555
Ca9 O6 2.521608 1_555
Ca9 O40 2.527135 1_555
Ca9 O29 2.565946 1_555
Ca9 O13 2.572525 1_555
Ca9 O44 2.860908 1_555
Ca10 O77 2.338901 1_555
Ca10 O61 2.363370 1_555
Ca10 O23 2.463877 1_555
Ca10 O7 2.502526 1_555
Ca10 O12 2.552627 1_556
Ca10 O41 2.566905 1_555
Ca10 O28 2.575221 1_556
Ca10 O45 2.880077 1_555
Ca11 O62 2.349167 1_555
Ca11 O78 2.349598 1_555
Ca11 O20 2.472931 1_565
Ca11 O4 2.498289 1_565
Ca11 O31 2.550239 1_555
Ca11 O42 2.554616 1_555
Ca11 O15 2.555066 1_555
Ca11 O46 2.957854 1_555
Ca12 O63 2.309808 1_555
Ca12 O79 2.379527 1_555
Ca12 O21 2.476997 1_565
Ca12 O5 2.494352 1_565
Ca12 O43 2.501611 1_555
Ca12 O14 2.552740 1_556
Ca12 O30 2.611435 1_556
Ca12 O47 2.908688 1_555
Ca13 O72 2.359643 1_555
Ca13 O32 2.365820 1_555
Ca13 O8 2.435771 1_555
Ca13 O28 2.461293 1_455
Ca13 O52 2.546141 1_455
Ca13 O21 2.599608 1_454
Ca13 O1 2.633466 1_554
Ca13 O48 2.922730 1_555
Ca14 O74 2.361695 1_555
Ca14 O34 2.371989 1_555
Ca14 O30 2.447121 1_455
Ca14 O10 2.504228 1_555
Ca14 O3 2.532601 1_554
Ca14 O54 2.544957 1_455
Ca14 O23 2.570495 1_454
Ca14 O50 2.976101 1_555
Ca15 O76 2.318042 1_555
Ca15 O36 2.360828 1_555
Ca15 O24 2.440234 1_555
Ca15 O12 2.511583 1_555
Ca15 O48 2.561243 1_555
Ca15 O17 2.615465 1_554
Ca15 O5 2.642396 1_554
Ca15 O52 2.925878 1_555
Ca16 O38 2.346294 1_555
Ca16 O78 2.407666 1_555
Ca16 O26 2.450584 1_555
Ca16 O19 2.475010 1_554
Ca16 O14 2.533404 1_555
Ca16 O50 2.536582 1_555
Ca16 O7 2.574745 1_554
Ca16 O54 2.899606 1_555
Ca17 O39 2.376212 1_555
Ca17 O79 2.384398 1_555
Ca17 O15 2.511745 1_555
Ca17 O27 2.558744 1_555
Ca17 O51 2.586041 1_555
Ca17 O6 2.590049 1_555
Ca17 O18 2.599714 1_555
Ca17 O55 2.820268 1_555
Ca18 O40 2.335812 1_555
Ca18 O64 2.350917 1_555
Ca18 O16 2.474838 1_555
Ca18 O4 2.499048 1_555
Ca18 O25 2.526398 1_555
Ca18 O56 2.611880 1_555
Ca18 O13 2.644970 1_555
Ca18 O60 2.784686 1_555
Ca19 O42 2.322265 1_555
Ca19 O66 2.337055 1_555
Ca19 O18 2.477822 1_555
Ca19 O15 2.538889 1_555
Ca19 O6 2.546346 1_555
Ca19 O58 2.570765 1_555
Ca19 O27 2.598752 1_555
Ca19 O62 2.881074 1_555
Ca20 O67 2.338412 1_555
Ca20 O43 2.373419 1_555
Ca20 O19 2.477077 1_555
Ca20 O7 2.483442 1_555
Ca20 O26 2.555029 1_556
Ca20 O59 2.575160 1_555
Ca20 O14 2.584623 1_556
Ca20 O63 2.955969 1_555
Ca21 O45 2.344132 1_555
Ca21 O69 2.357251 1_555
Ca21 O21 2.455608 1_555
Ca21 O1 2.501502 1_655
Ca21 O28 2.558025 1_556
Ca21 O8 2.614503 1_656
Ca21 O61 2.619459 1_555
Ca21 O57 2.858632 1_655
Ca22 O70 2.317472 1_555
Ca22 O46 2.378699 1_555
Ca22 O22 2.485728 1_555
Ca22 O31 2.529481 1_555
Ca22 O2 2.534566 1_655
Ca22 O62 2.553142 1_555
Ca22 O11 2.646193 1_655
Ca22 O58 2.943234 1_655
Ca23 O47 2.320745 1_555
Ca23 O71 2.397931 1_555
Ca23 O23 2.451169 1_555
Ca23 O3 2.490484 1_655
Ca23 O63 2.523894 1_555
Ca23 O30 2.569606 1_556
Ca23 O10 2.619898 1_656
Ca23 O59 2.919740 1_655
Fe0 O57 1.854031 1_555
Fe0 O33 1.897415 1_555
Fe0 O75 1.940137 1_545
Fe0 O69 1.961853 1_455
Fe1 O59 1.874053 1_555
Fe1 O35 1.880657 1_555
Fe1 O73 1.933100 1_555
Fe1 O71 1.959874 1_455
Fe2 O36 1.866220 1_555
Fe2 O60 1.903038 1_555
Fe2 O78 1.935677 1_545
Fe2 O64 1.952529 1_555
Fe3 O61 1.877703 1_555
Fe3 O37 1.879685 1_555
Fe3 O79 1.945318 1_545
Fe3 O65 1.955566 1_555
Fe4 O63 1.861733 1_555
Fe4 O39 1.897330 1_555
Fe4 O77 1.940673 1_555
Fe4 O67 1.954829 1_555
Fe5 O48 1.872898 1_555
Fe5 O40 1.893895 1_555
Fe5 O66 1.930060 1_555
Fe5 O72 1.956556 1_555
Fe6 O41 1.863585 1_555
Fe6 O49 1.884228 1_555
Fe6 O67 1.934393 1_555
Fe6 O73 1.952625 1_555
Fe7 O50 1.869192 1_555
Fe7 O42 1.885676 1_555
Fe7 O64 1.938435 1_565
Fe7 O74 1.945084 1_555
Fe8 O43 1.877101 1_555
Fe8 O51 1.883865 1_555
Fe8 O65 1.936789 1_565
Fe8 O75 1.962316 1_555
Fe9 O45 1.869012 1_555
Fe9 O53 1.906996 1_555
Fe9 O71 1.937029 1_555
Fe9 O77 1.946689 1_555
Fe10 O54 1.857971 1_555
Fe10 O46 1.892726 1_555
Fe10 O68 1.923118 1_565
Fe10 O78 1.978012 1_555
Fe11 O47 1.871929 1_555
Fe11 O55 1.878751 1_555
Fe11 O69 1.939145 1_565
Fe11 O79 1.961765 1_555
Co0 O1 1.939639 1_554
Co0 O21 1.942471 1_454
Co0 O30 1.942482 1_445
Co0 O10 1.948989 1_545
Co0 O47 2.165720 1_444
Co0 O32 2.175650 1_555
Co1 O31 1.867701 1_455
Co1 O0 1.872616 1_565
Co1 O20 2.002192 1_465
Co1 O11 2.071604 1_555
Co1 O46 2.133800 1_455
Co1 O33 2.240823 1_565
Co2 O23 1.936374 1_454
Co2 O28 1.940590 1_455
Co2 O8 1.946381 1_555
Co2 O3 1.968106 1_554
Co2 O34 2.175948 1_555
Co2 O45 2.228243 1_454
Co3 O29 1.876539 1_555
Co3 O2 1.877773 1_655
Co3 O22 1.998919 1_555
Co3 O9 2.047170 1_655
Co3 O44 2.152559 1_555
Co3 O35 2.202740 1_655
Co4 O17 1.856148 1_554
Co4 O14 1.875661 1_545
Co4 O5 1.959871 1_554
Co4 O26 1.960940 1_545
Co4 O36 2.169399 1_555
Co4 O43 2.229384 1_544
Co5 O27 1.858479 1_555
Co5 O4 1.897824 1_565
Co5 O16 2.010247 1_565
Co5 O15 2.040251 1_555
Co5 O42 2.143041 1_555
Co5 O37 2.211814 1_565
Co6 O12 1.945201 1_555
Co6 O19 1.947459 1_554
Co6 O7 1.961221 1_554
Co6 O24 1.963468 1_555
Co6 O38 2.160096 1_555
Co6 O41 2.160259 1_554
Co7 O6 1.865297 1_555
Co7 O25 1.874799 1_555
Co7 O13 1.972950 1_555
Co7 O18 2.080093 1_555
Co7 O40 2.088775 1_555
Co7 O39 2.293985 1_555
Co8 O1 1.933717 1_554
Co8 O24 1.945186 1_555
Co8 O8 1.973974 1_555
Co8 O17 2.068702 1_554
Co8 O48 2.147957 1_555
Co8 O57 2.195793 1_554
Co9 O16 1.883035 1_555
Co9 O9 1.890053 1_555
Co9 O0 1.996169 1_555
Co9 O25 2.014296 1_555
Co9 O56 2.225070 1_555
Co9 O49 2.288273 1_555
Co10 O26 1.917497 1_555
Co10 O3 1.917691 1_554
Co10 O10 1.956837 1_555
Co10 O19 1.972373 1_554
Co10 O50 2.131470 1_555
Co10 O59 2.215452 1_554
Co11 O11 1.838636 1_555
Co11 O18 1.848084 1_555
Co11 O27 2.034591 1_555
Co11 O2 2.040280 1_555
Co11 O58 2.193333 1_555
Co11 O51 2.211780 1_555
Co12 O28 1.917996 1_555
Co12 O5 1.923587 1_554
Co12 O12 1.960601 1_555
Co12 O21 1.969996 1_554
Co12 O52 2.190420 1_555
Co12 O61 2.221401 1_554
Co13 O13 1.895987 1_555
Co13 O20 1.929506 1_555
Co13 O4 1.964386 1_555
Co13 O29 1.966438 1_555
Co13 O60 2.057963 1_555
Co13 O53 2.206890 1_555
Co14 O7 1.916429 1_554
Co14 O30 1.939613 1_555
Co14 O23 1.971291 1_554
Co14 O14 2.017005 1_555
Co14 O54 2.153071 1_555
Co14 O63 2.182755 1_554
Co15 O22 1.874492 1_555
Co15 O15 1.874585 1_555
Co15 O6 1.970378 1_555
Co15 O31 2.010322 1_555
Co15 O62 2.203015 1_555
Co15 O55 2.275843 1_555
Co16 O32 1.801443 1_555
Co16 O56 1.805134 1_555
Co16 O74 1.962899 1_545
Co16 O68 1.976391 1_455
Co17 O34 1.806792 1_555
Co17 O58 1.823375 1_555
Co17 O72 1.963922 1_555
Co17 O70 1.965650 1_455
Co18 O62 1.807691 1_555
Co18 O38 1.808780 1_555
Co18 O76 1.946759 1_555
Co18 O66 1.988438 1_555
Co19 O52 1.808796 1_555
Co19 O44 1.821911 1_555
Co19 O70 1.942419 1_555
Co19 O76 1.976035 1_555
O0 Sr7 2.648847 1_455
O0 Sr3 2.664604 1_555
O2 Sr0 2.683471 1_555
O2 Sr4 2.704654 1_555
O3 Sr2 2.557115 1_555
O4 Sr1 2.692433 1_555
O4 Sr5 2.699035 1_555
O5 Sr6 2.542909 1_555
O8 Sr2 2.656358 1_554
O9 Sr3 2.574495 1_555
O9 Sr0 2.576717 1_555
O9 Sr7 2.607474 1_455
O11 Sr4 2.586665 1_555
O12 Sr6 2.682951 1_554
O13 Sr5 2.538187 1_555
O15 Sr1 2.579638 1_565
O16 Sr5 2.699193 1_555
O17 Sr6 2.586263 1_555
O18 Sr0 2.702102 1_555
O19 Sr2 2.543407 1_555
O20 Sr7 2.525120 1_555
O20 Sr1 2.652179 1_555
O20 Sr3 2.695570 1_655
O22 Sr4 2.684187 1_655
O24 Sr6 2.677274 1_554
O24 Sr2 2.680183 1_554
O25 Sr0 2.578788 1_555
O25 Sr5 2.617232 1_555
O29 Sr3 2.605193 1_655
O29 Sr7 2.671397 1_555
O31 Sr4 2.571369 1_655
O31 Sr1 2.619427 1_565
O33 Sr3 2.523702 1_555
O33 Sr1 2.852527 1_455
O33 Sr4 3.133911 1_545
O35 Sr4 2.465247 1_555
O35 Sr0 2.652013 1_555
O37 Sr5 2.467733 1_555
O37 Sr1 2.590875 1_555
O39 Sr0 2.868347 1_555
O41 Sr6 2.446099 1_555
O41 Sr2 2.904193 1_555
O44 Sr7 2.477045 1_555
O45 Sr2 2.616952 1_655
O49 Sr5 2.626427 1_555
O49 Sr3 2.861167 1_555
O51 Sr0 2.450025 1_555
O51 Sr4 2.899918 1_555
O53 Sr1 2.495091 1_555
O53 Sr3 2.652577 1_655
O53 Sr5 2.780925 1_555
O55 Sr4 2.632113 1_655
O56 Sr7 2.879132 1_455
O57 Sr2 2.447584 1_555
O57 Sr6 2.627459 1_555
O60 Sr7 2.648214 1_555
O61 Sr6 2.855418 1_555
O65 Sr6 2.460083 1_555
O67 Sr0 2.457764 1_555
O68 Sr7 2.422929 1_555
O69 Sr1 2.469466 1_555
O73 Sr2 2.426868 1_555
O73 Sr3 2.427578 1_555
O75 Sr4 2.470509 1_555
O77 Sr5 2.466439 1_555
