# generated using pymatgen
data_YBiTe3
_symmetry_space_group_name_H-M   'P 1'
_cell_length_a   10.84009377
_cell_length_b   10.84009377
_cell_length_c   10.84009355
_cell_angle_alpha   23.45862906
_cell_angle_beta   23.45862906
_cell_angle_gamma   23.45862962
_symmetry_Int_Tables_number   1
_chemical_formula_structural   YBiTe3
_chemical_formula_sum   'Y1 Bi1 Te3'
_cell_volume   177.25846087
_cell_formula_units_Z   1
loop_
 _symmetry_equiv_pos_site_id
 _symmetry_equiv_pos_as_xyz
  1  'x, y, z'
loop_
 _atom_site_type_symbol
 _atom_site_label
 _atom_site_symmetry_multiplicity
 _atom_site_fract_x
 _atom_site_fract_y
 _atom_site_fract_z
 _atom_site_occupancy
  Y  Y0  1  0.60151800  0.60151800  0.60151800  1
  Bi  Bi0  1  0.39927500  0.39927500  0.39927500  1
  Te  Te0  1  0.99631000  0.99631000  0.99631000  1
  Te  Te1  1  0.78638000  0.78638000  0.78638000  1
  Te  Te2  1  0.21651600  0.21651600  0.21651600  1
loop_
_geom_bond_atom_site_label_1
_geom_bond_atom_site_label_2
_geom_bond_distance
_geom_bond_site_symmetry_2
Bi0 Te1 3.060098 1_545
Bi0 Te1 3.060098 1_455
Bi0 Te1 3.060098 1_554
Bi0 Te0 3.364520 1_544
Bi0 Te0 3.364520 1_454
Bi0 Te0 3.364520 1_445
Te0 Y0 3.201461 1_655
Te0 Y0 3.201461 1_565
Te0 Y0 3.201461 1_556
Te2 Y0 3.023676 1_455
Te2 Y0 3.023676 1_545
Te2 Y0 3.023676 1_554
