# generated using pymatgen
data_KBaAsO4
_symmetry_space_group_name_H-M   'P 1'
_cell_length_a   5.99377900
_cell_length_b   7.92419800
_cell_length_c   10.48465900
_cell_angle_alpha   90.00000000
_cell_angle_beta   90.00000000
_cell_angle_gamma   90.00000000
_symmetry_Int_Tables_number   1
_chemical_formula_structural   KBaAsO4
_chemical_formula_sum   'K4 Ba4 As4 O16'
_cell_volume   497.97822695
_cell_formula_units_Z   4
loop_
 _symmetry_equiv_pos_site_id
 _symmetry_equiv_pos_as_xyz
  1  'x, y, z'
loop_
 _atom_site_type_symbol
 _atom_site_label
 _atom_site_symmetry_multiplicity
 _atom_site_fract_x
 _atom_site_fract_y
 _atom_site_fract_z
 _atom_site_occupancy
  K  K0  1  0.25000000  0.83404000  0.41931400  1
  K  K1  1  0.25000000  0.33404000  0.08068600  1
  K  K2  1  0.75000000  0.16596000  0.58068600  1
  K  K3  1  0.75000000  0.66596000  0.91931400  1
  Ba  Ba0  1  0.25000000  0.50462600  0.69835900  1
  Ba  Ba1  1  0.25000000  0.00462600  0.80164100  1
  Ba  Ba2  1  0.75000000  0.49537400  0.30164100  1
  Ba  Ba3  1  0.75000000  0.99537400  0.19835900  1
  As  As0  1  0.25000000  0.27068900  0.41823000  1
  As  As1  1  0.25000000  0.77068900  0.08177000  1
  As  As2  1  0.75000000  0.72931100  0.58177000  1
  As  As3  1  0.75000000  0.22931100  0.91823000  1
  O  O0  1  0.25000000  0.19146800  0.57230400  1
  O  O1  1  0.25000000  0.69146800  0.92769600  1
  O  O2  1  0.75000000  0.80853200  0.42769600  1
  O  O3  1  0.75000000  0.30853200  0.07230400  1
  O  O4  1  0.01314200  0.20309300  0.34030800  1
  O  O5  1  0.48685800  0.70309300  0.15969200  1
  O  O6  1  0.51314200  0.79690700  0.65969200  1
  O  O7  1  0.98685800  0.29690700  0.84030800  1
  O  O8  1  0.98685800  0.79690700  0.65969200  1
  O  O9  1  0.51314200  0.29690700  0.84030800  1
  O  O10  1  0.48685800  0.20309300  0.34030800  1
  O  O11  1  0.01314200  0.70309300  0.15969200  1
  O  O12  1  0.25000000  0.48835400  0.42382000  1
  O  O13  1  0.25000000  0.98835400  0.07618000  1
  O  O14  1  0.75000000  0.51164600  0.57618000  1
  O  O15  1  0.75000000  0.01164600  0.92382000  1
loop_
_geom_bond_atom_site_label_1
_geom_bond_atom_site_label_2
_geom_bond_distance
_geom_bond_site_symmetry_2
K0 O12 2.739692 1_555
K0 O6 2.987643 1_555
K0 O8 2.987643 1_455
K0 O2 3.004984 1_555
K0 O2 3.004984 1_455
K0 O5 3.240639 1_555
K0 O11 3.240639 1_555
K0 O0 3.255006 1_565
K0 O10 3.354705 1_565
K0 O4 3.354705 1_565
K1 O13 2.739692 1_545
K1 O7 2.987643 1_454
K1 O9 2.987643 1_554
K1 O3 3.004984 1_455
K1 O3 3.004984 1_555
K1 O10 3.240639 1_555
K1 O4 3.240639 1_555
K1 O1 3.255006 1_554
K1 O5 3.354705 1_555
K1 O11 3.354705 1_555
K2 O14 2.739692 1_555
K2 O10 2.987643 1_555
K2 O4 2.987643 1_655
K2 O0 3.004984 1_655
K2 O0 3.004984 1_555
K2 O9 3.240639 1_555
K2 O7 3.240639 1_555
K2 O2 3.255006 1_545
K2 O6 3.354705 1_545
K2 O8 3.354705 1_545
K3 O15 2.739692 1_565
K3 O5 2.987643 1_556
K3 O11 2.987643 1_656
K3 O1 3.004984 1_555
K3 O1 3.004984 1_655
K3 O6 3.240639 1_555
K3 O8 3.240639 1_555
K3 O3 3.255006 1_556
K3 O9 3.354705 1_555
K3 O7 3.354705 1_555
Ba0 O9 2.722488 1_555
Ba0 O7 2.722488 1_455
Ba0 O0 2.811532 1_555
Ba0 O1 2.823794 1_555
Ba0 O8 2.831298 1_455
Ba0 O6 2.831298 1_555
Ba0 O12 2.881334 1_555
Ba0 O14 3.259665 1_455
Ba0 O14 3.259665 1_555
Ba1 O8 2.722488 1_445
Ba1 O6 2.722488 1_545
Ba1 O1 2.811532 1_545
Ba1 O0 2.823794 1_555
Ba1 O9 2.831298 1_555
Ba1 O7 2.831298 1_455
Ba1 O13 2.881334 1_546
Ba1 O15 3.259665 1_455
Ba1 O15 3.259665 1_555
Ba2 O5 2.722488 1_555
Ba2 O11 2.722488 1_655
Ba2 O2 2.811532 1_555
Ba2 O3 2.823794 1_555
Ba2 O4 2.831298 1_655
Ba2 O10 2.831298 1_555
Ba2 O14 2.881334 1_555
Ba2 O12 3.259665 1_555
Ba2 O12 3.259665 1_655
Ba3 O10 2.722488 1_565
Ba3 O4 2.722488 1_665
Ba3 O3 2.811532 1_565
Ba3 O2 2.823794 1_555
Ba3 O5 2.831298 1_555
Ba3 O11 2.831298 1_655
Ba3 O15 2.881334 1_564
Ba3 O13 3.259665 1_555
Ba3 O13 3.259665 1_655
As0 O4 1.723327 1_555
As0 O10 1.723327 1_555
As0 O12 1.725816 1_555
As0 O0 1.733103 1_555
As1 O5 1.723327 1_555
As1 O11 1.723327 1_555
As1 O13 1.725816 1_555
As1 O1 1.733103 1_554
As2 O6 1.723327 1_555
As2 O8 1.723327 1_555
As2 O14 1.725816 1_555
As2 O2 1.733103 1_555
As3 O7 1.723327 1_555
As3 O9 1.723327 1_555
As3 O15 1.725816 1_555
As3 O3 1.733103 1_556
