# generated using pymatgen
data_Ce(BRh)4
_symmetry_space_group_name_H-M   'P 1'
_cell_length_a   5.35170600
_cell_length_b   5.35170600
_cell_length_c   7.50748400
_cell_angle_alpha   90.00000000
_cell_angle_beta   90.00000000
_cell_angle_gamma   90.00000000
_symmetry_Int_Tables_number   1
_chemical_formula_structural   Ce(BRh)4
_chemical_formula_sum   'Ce2 B8 Rh8'
_cell_volume   215.02002575
_cell_formula_units_Z   2
loop_
 _symmetry_equiv_pos_site_id
 _symmetry_equiv_pos_as_xyz
  1  'x, y, z'
loop_
 _atom_site_type_symbol
 _atom_site_label
 _atom_site_symmetry_multiplicity
 _atom_site_fract_x
 _atom_site_fract_y
 _atom_site_fract_z
 _atom_site_occupancy
  Ce  Ce0  1  0.00000000  0.00000000  0.00000000  1
  Ce  Ce1  1  0.50000000  0.50000000  0.50000000  1
  B  B0  1  0.83267200  0.50000000  0.15120500  1
  B  B1  1  0.16732800  0.50000000  0.15120500  1
  B  B2  1  0.00000000  0.33267200  0.65120500  1
  B  B3  1  0.00000000  0.66732800  0.65120500  1
  B  B4  1  0.66732800  0.00000000  0.34879500  1
  B  B5  1  0.33267200  0.00000000  0.34879500  1
  B  B6  1  0.50000000  0.16732800  0.84879500  1
  B  B7  1  0.50000000  0.83267200  0.84879500  1
  Rh  Rh0  1  0.24889600  0.50000000  0.85506400  1
  Rh  Rh1  1  0.75110400  0.50000000  0.85506400  1
  Rh  Rh2  1  0.00000000  0.74889600  0.35506400  1
  Rh  Rh3  1  0.00000000  0.25110400  0.35506400  1
  Rh  Rh4  1  0.25110400  0.00000000  0.64493600  1
  Rh  Rh5  1  0.74889600  0.00000000  0.64493600  1
  Rh  Rh6  1  0.50000000  0.75110400  0.14493600  1
  Rh  Rh7  1  0.50000000  0.24889600  0.14493600  1
loop_
_geom_bond_atom_site_label_1
_geom_bond_atom_site_label_2
_geom_bond_distance
_geom_bond_site_symmetry_2
Ce0 Rh5 2.985216 1_454
Ce0 Rh3 2.985216 1_555
Ce0 Rh2 2.985216 1_545
Ce0 Rh4 2.985216 1_554
Ce0 Rh1 3.180949 1_444
Ce0 Rh0 3.180949 1_544
Ce0 Rh1 3.180949 1_454
Ce0 Rh6 3.180949 1_445
Ce0 Rh7 3.180949 1_555
Ce0 Rh6 3.180949 1_545
Ce0 Rh7 3.180949 1_455
Ce0 Rh0 3.180949 1_554
Ce1 Rh7 2.985216 1_555
Ce1 Rh6 2.985216 1_555
Ce1 Rh1 2.985216 1_555
Ce1 Rh0 2.985216 1_555
Ce1 Rh3 3.180949 1_655
Ce1 Rh4 3.180949 1_565
Ce1 Rh2 3.180949 1_655
Ce1 Rh4 3.180949 1_555
Ce1 Rh5 3.180949 1_565
Ce1 Rh5 3.180949 1_555
Ce1 Rh3 3.180949 1_555
Ce1 Rh2 3.180949 1_555
B0 B1 1.790981 1_655
B0 Rh2 2.217771 1_655
B0 Rh3 2.217771 1_655
B0 Rh7 2.231098 1_555
B0 Rh6 2.231098 1_555
B0 Rh1 2.265724 1_554
B0 Ce0 3.041497 1_655
B0 Ce0 3.041497 1_665
B0 Ce1 3.166483 1_555
B1 Rh3 2.217771 1_555
B1 Rh2 2.217771 1_555
B1 Rh7 2.231098 1_555
B1 Rh6 2.231098 1_555
B1 Rh0 2.265724 1_554
B1 Ce0 3.041497 1_565
B1 Ce0 3.041497 1_555
B1 Ce1 3.166483 1_555
B2 B3 1.790981 1_555
B2 Rh0 2.217771 1_555
B2 Rh1 2.217771 1_455
B2 Rh5 2.231098 1_455
B2 Rh4 2.231098 1_555
B2 Rh3 2.265724 1_555
B2 Ce1 3.041497 1_455
B2 Ce1 3.041497 1_555
B2 Ce0 3.166483 1_556
B3 Rh0 2.217771 1_555
B3 Rh1 2.217771 1_455
B3 Rh5 2.231098 1_465
B3 Rh4 2.231098 1_565
B3 Rh2 2.265724 1_555
B3 Ce1 3.041497 1_455
B3 Ce1 3.041497 1_555
B3 Ce0 3.166483 1_566
B4 B5 1.790981 1_555
B4 Rh6 2.217771 1_545
B4 Rh7 2.217771 1_555
B4 Rh3 2.231098 1_655
B4 Rh2 2.231098 1_645
B4 Rh5 2.265724 1_555
B4 Ce1 3.041497 1_545
B4 Ce1 3.041497 1_555
B4 Ce0 3.166483 1_655
B5 Rh7 2.217771 1_555
B5 Rh6 2.217771 1_545
B5 Rh2 2.231098 1_545
B5 Rh3 2.231098 1_555
B5 Rh4 2.265724 1_555
B5 Ce1 3.041497 1_555
B5 Ce1 3.041497 1_545
B5 Ce0 3.166483 1_555
B6 B7 1.790981 1_545
B6 Rh5 2.217771 1_555
B6 Rh4 2.217771 1_555
B6 Rh1 2.231098 1_555
B6 Rh0 2.231098 1_555
B6 Rh7 2.265724 1_556
B6 Ce0 3.041497 1_656
B6 Ce0 3.041497 1_556
B6 Ce1 3.166483 1_555
B7 Rh5 2.217771 1_565
B7 Rh4 2.217771 1_565
B7 Rh1 2.231098 1_555
B7 Rh0 2.231098 1_555
B7 Rh6 2.265724 1_556
B7 Ce0 3.041497 1_666
B7 Ce0 3.041497 1_566
B7 Ce1 3.166483 1_555
