# generated using pymatgen
data_Lu4MnS7
_symmetry_space_group_name_H-M   'P 1'
_cell_length_a   6.44553049
_cell_length_b   6.44553049
_cell_length_c   11.31814391
_cell_angle_alpha   76.02714787
_cell_angle_beta   76.02714787
_cell_angle_gamma   33.57286381
_symmetry_Int_Tables_number   1
_chemical_formula_structural   Lu4MnS7
_chemical_formula_sum   'Lu4 Mn1 S7'
_cell_volume   251.61922293
_cell_formula_units_Z   1
loop_
 _symmetry_equiv_pos_site_id
 _symmetry_equiv_pos_as_xyz
  1  'x, y, z'
loop_
 _atom_site_type_symbol
 _atom_site_label
 _atom_site_symmetry_multiplicity
 _atom_site_fract_x
 _atom_site_fract_y
 _atom_site_fract_z
 _atom_site_occupancy
  Lu  Lu0  1  0.69304600  0.69304600  0.20081600  1
  Lu  Lu1  1  0.30622600  0.30622600  0.80350800  1
  Lu  Lu2  1  0.00001800  0.00001800  0.00363000  1
  Lu  Lu3  1  0.11458000  0.11458000  0.56988700  1
  Mn  Mn0  1  0.88593200  0.88593200  0.42120700  1
  S  S0  1  0.74369600  0.74369600  0.64291600  1
  S  S1  1  0.26308800  0.26308800  0.35388200  1
  S  S2  1  0.33988100  0.33988100  0.05062200  1
  S  S3  1  0.65992800  0.65992800  0.94839400  1
  S  S4  1  0.03532200  0.03532200  0.22122300  1
  S  S5  1  0.96234500  0.96234500  0.78495500  1
  S  S6  1  0.49593800  0.49593800  0.49896100  1
loop_
_geom_bond_atom_site_label_1
_geom_bond_atom_site_label_2
_geom_bond_distance
_geom_bond_site_symmetry_2
Lu0 S4 2.661007 1_565
Lu0 S4 2.661007 1_655
Lu0 S1 2.822967 1_565
Lu0 S1 2.822967 1_655
Lu0 S2 2.843426 1_565
Lu0 S2 2.843426 1_655
Lu0 S3 2.986343 1_554
Lu1 S5 2.649091 1_545
Lu1 S5 2.649091 1_455
Lu1 S3 2.814401 1_545
Lu1 S3 2.814401 1_455
Lu1 S0 2.841124 1_455
Lu1 S0 2.841124 1_545
Lu1 S2 2.929336 1_556
Lu2 S4 2.606961 1_555
Lu2 S5 2.631015 1_444
Lu2 S2 2.669060 1_545
Lu2 S2 2.669060 1_455
Lu2 S3 2.669951 1_454
Lu2 S3 2.669951 1_544
Lu3 S6 2.616588 1_455
Lu3 S6 2.616588 1_545
Lu3 S1 2.660077 1_555
Lu3 S5 2.673635 1_445
Lu3 S0 2.711468 1_545
Lu3 S0 2.711468 1_455
Mn0 S4 2.533281 1_665
Mn0 S6 2.585648 1_565
Mn0 S6 2.585648 1_655
Mn0 S1 2.631948 1_565
Mn0 S1 2.631948 1_655
Mn0 S0 2.675140 1_555
