# generated using pymatgen
data_Ta2O5
_symmetry_space_group_name_H-M   'P 1'
_cell_length_a   3.86888907
_cell_length_b   3.83412609
_cell_length_c   21.21964444
_cell_angle_alpha   84.83366075
_cell_angle_beta   92.31015337
_cell_angle_gamma   89.98917934
_symmetry_Int_Tables_number   1
_chemical_formula_structural   Ta2O5
_chemical_formula_sum   'Ta6 O15'
_cell_volume   313.23229967
_cell_formula_units_Z   3
loop_
 _symmetry_equiv_pos_site_id
 _symmetry_equiv_pos_as_xyz
  1  'x, y, z'
loop_
 _atom_site_type_symbol
 _atom_site_label
 _atom_site_symmetry_multiplicity
 _atom_site_fract_x
 _atom_site_fract_y
 _atom_site_fract_z
 _atom_site_occupancy
  Ta  Ta0  1  0.90768400  0.69574000  0.59756500  1
  Ta  Ta1  1  0.08008900  0.29284500  0.40249800  1
  Ta  Ta2  1  0.97535100  0.04914000  0.90945300  1
  Ta  Ta3  1  0.00991500  0.95804900  0.09049300  1
  Ta  Ta4  1  0.95812500  0.61696000  0.77827400  1
  Ta  Ta5  1  0.03077000  0.39563000  0.22175800  1
  O  O0  1  0.45391600  0.63773900  0.78114100  1
  O  O1  1  0.53301200  0.41738800  0.21905300  1
  O  O2  1  0.90584000  0.20720400  0.57724600  1
  O  O3  1  0.08165000  0.78322800  0.42269600  1
  O  O4  1  0.97254800  0.57100500  0.88370600  1
  O  O5  1  0.01381000  0.45427100  0.11615200  1
  O  O6  1  0.95830300  0.11109900  0.80392800  1
  O  O7  1  0.02765800  0.91487300  0.19601200  1
  O  O8  1  0.92778800  0.64938300  0.68762600  1
  O  O9  1  0.05897100  0.33858500  0.31254000  1
  O  O10  1  0.47686500  0.07837900  0.90793700  1
  O  O11  1  0.50952900  0.98423600  0.09181500  1
  O  O12  1  0.99387200  0.97854000  0.99985000  1
  O  O13  1  0.40542600  0.70588200  0.58214600  1
  O  O14  1  0.58287600  0.28590300  0.41811100  1
loop_
_geom_bond_atom_site_label_1
_geom_bond_atom_site_label_2
_geom_bond_distance
_geom_bond_site_symmetry_2
O0 Ta4 1.918570 1_455
O0 Ta4 1.955958 1_555
O1 Ta5 1.925879 1_655
O1 Ta5 1.947859 1_555
O2 Ta0 1.959513 1_555
O2 Ta0 1.969521 1_545
O3 Ta1 1.962285 1_565
O3 Ta1 1.965647 1_555
O4 Ta2 1.959400 1_565
O4 Ta2 2.026039 1_555
O4 Ta4 2.226723 1_555
O5 Ta3 1.958950 1_555
O5 Ta3 2.025436 1_545
O5 Ta5 2.230244 1_555
O6 Ta4 1.966712 1_555
O6 Ta4 2.017802 1_545
O6 Ta2 2.228700 1_555
O7 Ta5 1.969046 1_565
O7 Ta5 2.016346 1_555
O7 Ta3 2.228548 1_555
O8 Ta0 1.901746 1_555
O8 Ta4 1.915172 1_555
O9 Ta1 1.899572 1_555
O9 Ta5 1.917754 1_555
O10 Ta2 1.930626 1_555
O10 Ta2 1.944952 1_455
O11 Ta3 1.934781 1_555
O11 Ta3 1.939983 1_655
O12 Ta2 1.911353 1_565
O12 Ta3 1.916429 1_656
O13 Ta0 1.957278 1_555
O13 Ta0 1.966074 1_455
O14 Ta1 1.959800 1_555
O14 Ta1 1.964880 1_655
