# generated using pymatgen
data_Rb3LuV2O8
_symmetry_space_group_name_H-M   'P 1'
_cell_length_a   6.02337185
_cell_length_b   6.02337185
_cell_length_c   7.93865200
_cell_angle_alpha   90.00000000
_cell_angle_beta   90.00000000
_cell_angle_gamma   119.99999840
_symmetry_Int_Tables_number   1
_chemical_formula_structural   Rb3LuV2O8
_chemical_formula_sum   'Rb3 Lu1 V2 O8'
_cell_volume   249.43463323
_cell_formula_units_Z   1
loop_
 _symmetry_equiv_pos_site_id
 _symmetry_equiv_pos_as_xyz
  1  'x, y, z'
loop_
 _atom_site_type_symbol
 _atom_site_label
 _atom_site_symmetry_multiplicity
 _atom_site_fract_x
 _atom_site_fract_y
 _atom_site_fract_z
 _atom_site_occupancy
  Rb  Rb0  1  0.33333300  0.66666700  0.70385400  1
  Rb  Rb1  1  0.66666700  0.33333300  0.29614600  1
  Rb  Rb2  1  0.00000000  0.00000000  0.00000000  1
  Lu  Lu0  1  0.00000000  0.00000000  0.50000000  1
  V  V0  1  0.33333300  0.66666700  0.26123900  1
  V  V1  1  0.66666700  0.33333300  0.73876100  1
  O  O0  1  0.33333300  0.66666700  0.04860700  1
  O  O1  1  0.66666700  0.33333300  0.95139300  1
  O  O2  1  0.17303300  0.82696700  0.33553300  1
  O  O3  1  0.82696700  0.17303300  0.66446700  1
  O  O4  1  0.17303300  0.34606600  0.33553300  1
  O  O5  1  0.82696700  0.65393400  0.66446700  1
  O  O6  1  0.65393400  0.82696700  0.33553300  1
  O  O7  1  0.34606600  0.17303300  0.66446700  1
loop_
_geom_bond_atom_site_label_1
_geom_bond_atom_site_label_2
_geom_bond_distance
_geom_bond_site_symmetry_2
Lu0 O2 2.227895 1_545
Lu0 O3 2.227895 1_455
Lu0 O6 2.227895 1_445
Lu0 O7 2.227895 1_555
Lu0 O4 2.227895 1_555
Lu0 O5 2.227895 1_445
O0 V0 1.688011 1_555
O0 Rb0 2.736874 1_554
O0 Rb2 3.498935 1_565
O0 Rb2 3.498940 1_555
O0 Rb2 3.498940 1_665
O1 V1 1.688011 1_555
O1 Rb1 2.736874 1_556
O1 Rb2 3.498935 1_656
O1 Rb2 3.498940 1_556
O1 Rb2 3.498940 1_666
O2 V0 1.773329 1_555
O2 Rb1 3.028602 1_455
O2 Rb1 3.028602 1_565
O2 Rb2 3.217762 1_565
O2 Rb0 3.368450 1_555
O3 V1 1.773329 1_555
O3 Rb0 3.028602 1_545
O3 Rb0 3.028602 1_655
O3 Rb2 3.217762 1_656
O3 Rb1 3.368450 1_555
O4 V0 1.773334 1_555
O4 Rb1 3.028599 1_455
O4 Rb1 3.028605 1_555
O4 Rb2 3.217763 1_555
O4 Rb0 3.368452 1_555
O5 V1 1.773334 1_555
O5 Rb0 3.028599 1_655
O5 Rb0 3.028605 1_555
O5 Rb2 3.217763 1_666
O5 Rb1 3.368452 1_555
O6 V0 1.773334 1_555
O6 Rb1 3.028599 1_565
O6 Rb1 3.028605 1_555
O6 Rb2 3.217763 1_665
O6 Rb0 3.368452 1_555
O7 V1 1.773334 1_555
O7 Rb0 3.028599 1_545
O7 Rb0 3.028605 1_555
O7 Rb2 3.217763 1_556
O7 Rb1 3.368452 1_555
