# generated using pymatgen
data_Mg14ZrMn
_symmetry_space_group_name_H-M   'P 1'
_cell_length_a   6.36967817
_cell_length_b   6.36967765
_cell_length_c   10.11663802
_cell_angle_alpha   90.00000000
_cell_angle_beta   90.00000000
_cell_angle_gamma   120.00000273
_symmetry_Int_Tables_number   1
_chemical_formula_structural   Mg14ZrMn
_chemical_formula_sum   'Mg14 Zr1 Mn1'
_cell_volume   355.46903524
_cell_formula_units_Z   1
loop_
 _symmetry_equiv_pos_site_id
 _symmetry_equiv_pos_as_xyz
  1  'x, y, z'
loop_
 _atom_site_type_symbol
 _atom_site_label
 _atom_site_symmetry_multiplicity
 _atom_site_fract_x
 _atom_site_fract_y
 _atom_site_fract_z
 _atom_site_occupancy
  Mg  Mg0  1  0.16602963  0.83301432  0.12500000  1
  Mg  Mg1  1  0.17248159  0.83624029  0.62500000  1
  Mg  Mg2  1  0.66698568  0.33397037  0.12500000  1
  Mg  Mg3  1  0.66375971  0.32751841  0.62500000  1
  Mg  Mg4  1  0.66698568  0.83301432  0.12500000  1
  Mg  Mg5  1  0.66375971  0.83624029  0.62500000  1
  Mg  Mg6  1  0.32927558  0.17072442  0.37205814  1
  Mg  Mg7  1  0.32927558  0.17072442  0.87794186  1
  Mg  Mg8  1  0.32927558  0.65855217  0.37205814  1
  Mg  Mg9  1  0.32927558  0.65855217  0.87794186  1
  Mg  Mg10  1  0.84144783  0.17072442  0.37205814  1
  Mg  Mg11  1  0.84144783  0.17072442  0.87794186  1
  Mg  Mg12  1  0.83333300  0.66666700  0.37775669  1
  Mg  Mg13  1  0.83333300  0.66666700  0.87224331  1
  Zr  Zr0  1  0.16666700  0.33333300  0.62500000  1
  Mn  Mn0  1  0.16666700  0.33333300  0.12500000  1
loop_
_geom_bond_atom_site_label_1
_geom_bond_atom_site_label_2
_geom_bond_distance
_geom_bond_site_symmetry_2
Mg0 Mg8 3.117477 1_555
Mg0 Mg9 3.117477 1_554
Mg0 Mg6 3.117484 1_565
Mg0 Mg7 3.117484 1_564
Mg0 Mg12 3.147484 1_455
Mg0 Mg13 3.147484 1_454
Mg0 Mg2 3.178749 1_455
Mg0 Mg4 3.178749 1_455
Mg0 Mn0 3.184841 1_565
Mg0 Mn0 3.184841 1_555
Mg0 Mg2 3.190929 1_565
Mg0 Mg4 3.190929 1_555
Mg1 Mg12 3.123527 1_455
Mg1 Mg13 3.123527 1_455
Mg1 Mg3 3.129283 1_565
Mg1 Mg5 3.129284 1_555
Mg1 Mg9 3.155458 1_555
Mg1 Mg8 3.155458 1_555
Mg1 Mg7 3.155465 1_565
Mg1 Mg6 3.155465 1_565
Mg1 Zr0 3.185000 1_555
Mg1 Zr0 3.185000 1_565
Mg1 Mg3 3.240394 1_455
Mg1 Mg5 3.240395 1_455
Mg2 Mg6 3.117484 1_555
Mg2 Mg7 3.117484 1_554
Mg2 Mg4 3.178749 1_555
Mg2 Mn0 3.184841 1_555
Mg2 Mn0 3.184841 1_655
Mg2 Mg4 3.190929 1_545
Mg3 Mg5 3.129283 1_545
Mg3 Mg7 3.155465 1_555
Mg3 Mg6 3.155465 1_555
Mg3 Zr0 3.185001 1_655
Mg3 Zr0 3.185001 1_555
Mg3 Mg5 3.240394 1_555
Mg4 Mg8 3.117483 1_555
Mg4 Mg9 3.117483 1_554
Mg4 Mn0 3.184841 1_665
Mg4 Mn0 3.184841 1_555
Mg5 Mg9 3.155465 1_555
Mg5 Mg8 3.155465 1_555
Mg5 Zr0 3.185000 1_555
Mg5 Zr0 3.185000 1_665
Mg6 Mn0 3.076591 1_555
Mg6 Mg8 3.107306 1_555
Mg6 Zr0 3.125140 1_555
Mg6 Mg8 3.262372 1_545
Mg7 Mn0 3.076591 1_556
Mg7 Mg9 3.107306 1_555
Mg7 Zr0 3.125140 1_555
Mg7 Mg9 3.262372 1_545
Mg8 Mn0 3.076597 1_555
Mg8 Zr0 3.125146 1_555
Mg9 Mn0 3.076597 1_556
Mg9 Zr0 3.125146 1_555
Mg10 Mn0 3.076597 1_655
Mg10 Mg8 3.107306 1_655
Mg10 Mg6 3.107306 1_655
Mg10 Mg2 3.117477 1_555
Mg10 Mg4 3.117483 1_545
Mg10 Zr0 3.125147 1_655
Mg10 Mg3 3.155458 1_555
Mg10 Mg5 3.155465 1_545
Mg10 Mg12 3.185675 1_555
Mg10 Mg12 3.185675 1_545
Mg10 Mg8 3.262372 1_545
Mg10 Mg6 3.262372 1_555
Mg11 Mn0 3.076597 1_656
Mg11 Mg9 3.107306 1_655
Mg11 Mg7 3.107306 1_655
Mg11 Mg2 3.117477 1_556
Mg11 Mg4 3.117483 1_546
Mg11 Zr0 3.125147 1_655
Mg11 Mg3 3.155458 1_555
Mg11 Mg5 3.155465 1_545
Mg11 Mg13 3.185675 1_555
Mg11 Mg13 3.185675 1_545
Mg11 Mg9 3.262372 1_545
Mg11 Mg7 3.262372 1_555
Mg12 Mg5 3.123521 1_555
Mg12 Mg3 3.123527 1_555
Mg12 Mg4 3.147478 1_555
Mg12 Mg2 3.147484 1_555
Mg12 Mg6 3.185675 1_665
Mg12 Mg6 3.185675 1_555
Mg12 Mg8 3.185675 1_655
Mg12 Mg8 3.185675 1_555
Mg13 Mg5 3.123521 1_555
Mg13 Mg3 3.123527 1_555
Mg13 Mg4 3.147478 1_556
Mg13 Mg2 3.147484 1_556
Mg13 Mg7 3.185675 1_665
Mg13 Mg7 3.185675 1_555
Mg13 Mg9 3.185675 1_655
Mg13 Mg9 3.185675 1_555
