# generated using pymatgen
data_Sm5Si3C
_symmetry_space_group_name_H-M   'P 1'
_cell_length_a   8.65838100
_cell_length_b   8.65838084
_cell_length_c   6.60051000
_cell_angle_alpha   90.00000000
_cell_angle_beta   90.00000000
_cell_angle_gamma   119.99999681
_symmetry_Int_Tables_number   1
_chemical_formula_structural   Sm5Si3C
_chemical_formula_sum   'Sm10 Si6 C2'
_cell_volume   428.53028094
_cell_formula_units_Z   2
loop_
 _symmetry_equiv_pos_site_id
 _symmetry_equiv_pos_as_xyz
  1  'x, y, z'
loop_
 _atom_site_type_symbol
 _atom_site_label
 _atom_site_symmetry_multiplicity
 _atom_site_fract_x
 _atom_site_fract_y
 _atom_site_fract_z
 _atom_site_occupancy
  Sm  Sm0  1  0.66666700  0.33333300  0.00000000  1
  Sm  Sm1  1  0.33333300  0.66666700  0.00000000  1
  Sm  Sm2  1  0.33333300  0.66666700  0.50000000  1
  Sm  Sm3  1  0.66666700  0.33333300  0.50000000  1
  Sm  Sm4  1  0.77544200  0.77544200  0.75000000  1
  Sm  Sm5  1  0.22455800  0.00000000  0.75000000  1
  Sm  Sm6  1  0.00000000  0.22455800  0.75000000  1
  Sm  Sm7  1  0.22455800  0.22455800  0.25000000  1
  Sm  Sm8  1  0.77544200  0.00000000  0.25000000  1
  Sm  Sm9  1  0.00000000  0.77544200  0.25000000  1
  Si  Si0  1  0.40763300  0.40763300  0.75000000  1
  Si  Si1  1  0.59236700  0.00000000  0.75000000  1
  Si  Si2  1  0.00000000  0.59236700  0.75000000  1
  Si  Si3  1  0.59236700  0.59236700  0.25000000  1
  Si  Si4  1  0.40763300  0.00000000  0.25000000  1
  Si  Si5  1  0.00000000  0.40763300  0.25000000  1
  C  C0  1  0.00000000  0.00000000  0.00000000  1
  C  C1  1  0.00000000  0.00000000  0.50000000  1
loop_
_geom_bond_atom_site_label_1
_geom_bond_atom_site_label_2
_geom_bond_distance
_geom_bond_site_symmetry_2
Si0 Sm5 3.061858 1_555
Si0 Sm6 3.061858 1_555
Si0 Sm1 3.099974 1_556
Si0 Sm2 3.099974 1_555
Si0 Sm3 3.099974 1_555
Si0 Sm0 3.099974 1_556
Si0 Sm4 3.184631 1_555
Si0 Sm7 3.661192 1_556
Si0 Sm7 3.661192 1_555
Si1 Sm4 3.061857 1_545
Si1 Sm6 3.061858 1_655
Si1 Sm0 3.099967 1_556
Si1 Sm3 3.099967 1_555
Si1 Sm1 3.099969 1_546
Si1 Sm2 3.099969 1_545
Si1 Sm5 3.184630 1_555
Si1 Sm8 3.661192 1_555
Si1 Sm8 3.661192 1_556
Si2 Sm4 3.061857 1_455
Si2 Sm5 3.061858 1_565
Si2 Sm1 3.099967 1_556
Si2 Sm2 3.099967 1_555
Si2 Sm3 3.099969 1_455
Si2 Sm0 3.099969 1_456
Si2 Sm6 3.184630 1_555
Si2 Sm9 3.661192 1_555
Si2 Sm9 3.661192 1_556
Si3 Sm8 3.061858 1_565
Si3 Sm9 3.061858 1_655
Si3 Sm0 3.099974 1_555
Si3 Sm3 3.099974 1_555
Si3 Sm2 3.099974 1_555
Si3 Sm1 3.099974 1_555
Si3 Sm7 3.184631 1_555
Si3 Sm4 3.661192 1_554
Si3 Sm4 3.661192 1_555
Si4 Sm7 3.061857 1_555
Si4 Sm9 3.061858 1_545
Si4 Sm2 3.099967 1_545
Si4 Sm1 3.099967 1_545
Si4 Sm3 3.099969 1_555
Si4 Sm0 3.099969 1_555
Si4 Sm8 3.184630 1_555
Si4 Sm5 3.661192 1_554
Si4 Sm5 3.661192 1_555
Si5 Sm7 3.061857 1_555
Si5 Sm8 3.061858 1_455
Si5 Sm3 3.099967 1_455
Si5 Sm0 3.099967 1_455
Si5 Sm2 3.099969 1_555
Si5 Sm1 3.099969 1_555
Si5 Sm9 3.184630 1_555
Si5 Sm6 3.661192 1_554
Si5 Sm6 3.661192 1_555
C0 Sm6 2.550148 1_554
C0 Sm9 2.550148 1_545
C0 Sm5 2.550148 1_554
C0 Sm8 2.550148 1_455
C0 Sm7 2.550149 1_555
C0 Sm4 2.550149 1_444
C1 Sm6 2.550148 1_555
C1 Sm9 2.550148 1_545
C1 Sm5 2.550148 1_555
C1 Sm8 2.550148 1_455
C1 Sm7 2.550149 1_555
C1 Sm4 2.550149 1_445
