# generated using pymatgen
data_CeNi2N17O24
_symmetry_space_group_name_H-M   'P 1'
_cell_length_a   10.25773665
_cell_length_b   10.25773665
_cell_length_c   10.25773665
_cell_angle_alpha   90.00000000
_cell_angle_beta   90.00000000
_cell_angle_gamma   90.00000000
_symmetry_Int_Tables_number   1
_chemical_formula_structural   CeNi2N17O24
_chemical_formula_sum   'Ce2 Ni4 N34 O48'
_cell_volume   1079.33096140
_cell_formula_units_Z   2
loop_
 _symmetry_equiv_pos_site_id
 _symmetry_equiv_pos_as_xyz
  1  'x, y, z'
loop_
 _atom_site_type_symbol
 _atom_site_label
 _atom_site_symmetry_multiplicity
 _atom_site_fract_x
 _atom_site_fract_y
 _atom_site_fract_z
 _atom_site_occupancy
  Ce  Ce0  1  0.50000000  0.50000000  0.50000000  1
  Ce  Ce1  1  -0.00000000  0.00000000  -0.00000000  1
  Ni  Ni0  1  0.25000000  0.75000000  0.75000000  1
  Ni  Ni1  1  0.75000000  0.75000000  0.25000000  1
  Ni  Ni2  1  0.75000000  0.25000000  0.75000000  1
  Ni  Ni3  1  0.25000000  0.25000000  0.25000000  1
  N  N0  1  0.25727431  0.54891638  0.74809751  1
  N  N1  1  0.74272569  0.54891638  0.25190249  1
  N  N2  1  0.74272569  0.45108362  0.74809751  1
  N  N3  1  0.25727431  0.45108362  0.25190249  1
  N  N4  1  0.74809751  0.25727431  0.54891638  1
  N  N5  1  0.25190249  0.74272569  0.54891638  1
  N  N6  1  0.74809751  0.74272569  0.45108362  1
  N  N7  1  0.25190249  0.25727431  0.45108362  1
  N  N8  1  0.54891638  0.74809751  0.25727431  1
  N  N9  1  0.54891638  0.25190249  0.74272569  1
  N  N10  1  0.45108362  0.74809751  0.74272569  1
  N  N11  1  0.45108362  0.25190249  0.25727431  1
  N  N12  1  0.24272569  0.95108362  0.75190249  1
  N  N13  1  0.75727431  0.95108362  0.24809751  1
  N  N14  1  0.75727431  0.04891638  0.75190249  1
  N  N15  1  0.24272569  0.04891638  0.24809751  1
  N  N16  1  0.75190249  0.24272569  0.95108362  1
  N  N17  1  0.24809751  0.75727431  0.95108362  1
  N  N18  1  0.75190249  0.75727431  0.04891638  1
  N  N19  1  0.24809751  0.24272569  0.04891638  1
  N  N20  1  0.95108362  0.75190249  0.24272569  1
  N  N21  1  0.95108362  0.24809751  0.75727431  1
  N  N22  1  0.04891638  0.75190249  0.75727431  1
  N  N23  1  0.04891638  0.24809751  0.24272569  1
  N  N24  1  0.75000000  0.25000000  0.25000000  1
  N  N25  1  0.25000000  0.25000000  0.75000000  1
  N  N26  1  0.25000000  0.75000000  0.25000000  1
  N  N27  1  0.75000000  0.75000000  0.75000000  1
  N  N28  1  -0.00000000  0.50000000  -0.00000000  1
  N  N29  1  -0.00000000  0.00000000  0.50000000  1
  N  N30  1  0.50000000  0.00000000  -0.00000000  1
  N  N31  1  0.50000000  0.00000000  0.50000000  1
  N  N32  1  0.50000000  0.50000000  -0.00000000  1
  N  N33  1  -0.00000000  0.50000000  0.50000000  1
  O  O0  1  0.27945782  0.49369361  0.64022286  1
  O  O1  1  0.72054218  0.49369361  0.35977714  1
  O  O2  1  0.72054218  0.50630639  0.64022286  1
  O  O3  1  0.27945782  0.50630639  0.35977714  1
  O  O4  1  0.64022286  0.27945782  0.49369361  1
  O  O5  1  0.35977714  0.72054218  0.49369361  1
  O  O6  1  0.64022286  0.72054218  0.50630639  1
  O  O7  1  0.35977714  0.27945782  0.50630639  1
  O  O8  1  0.49369361  0.64022286  0.27945782  1
  O  O9  1  0.49369361  0.35977714  0.72054218  1
  O  O10  1  0.50630639  0.64022286  0.72054218  1
  O  O11  1  0.50630639  0.35977714  0.27945782  1
  O  O12  1  0.22054218  0.00630639  0.85977714  1
  O  O13  1  0.77945782  0.00630639  0.14022286  1
  O  O14  1  0.77945782  0.99369361  0.85977714  1
  O  O15  1  0.22054218  0.99369361  0.14022286  1
  O  O16  1  0.85977714  0.22054218  0.00630639  1
  O  O17  1  0.14022286  0.77945782  0.00630639  1
  O  O18  1  0.85977714  0.77945782  0.99369361  1
  O  O19  1  0.14022286  0.22054218  0.99369361  1
  O  O20  1  0.00630639  0.85977714  0.22054218  1
  O  O21  1  0.00630639  0.14022286  0.77945782  1
  O  O22  1  0.99369361  0.85977714  0.77945782  1
  O  O23  1  0.99369361  0.14022286  0.22054218  1
  O  O24  1  0.24123960  0.48799129  0.84881143  1
  O  O25  1  0.75876040  0.48799129  0.15118857  1
  O  O26  1  0.75876040  0.51200871  0.84881143  1
  O  O27  1  0.24123960  0.51200871  0.15118857  1
  O  O28  1  0.84881143  0.24123960  0.48799129  1
  O  O29  1  0.15118857  0.75876040  0.48799129  1
  O  O30  1  0.84881143  0.75876040  0.51200871  1
  O  O31  1  0.15118857  0.24123960  0.51200871  1
  O  O32  1  0.48799129  0.84881143  0.24123960  1
  O  O33  1  0.48799129  0.15118857  0.75876040  1
  O  O34  1  0.51200871  0.84881143  0.75876040  1
  O  O35  1  0.51200871  0.15118857  0.24123960  1
  O  O36  1  0.25876040  0.01200871  0.65118857  1
  O  O37  1  0.74123960  0.01200871  0.34881143  1
  O  O38  1  0.74123960  0.98799129  0.65118857  1
  O  O39  1  0.25876040  0.98799129  0.34881143  1
  O  O40  1  0.65118857  0.25876040  0.01200871  1
  O  O41  1  0.34881143  0.74123960  0.01200871  1
  O  O42  1  0.65118857  0.74123960  0.98799129  1
  O  O43  1  0.34881143  0.25876040  0.98799129  1
  O  O44  1  0.01200871  0.65118857  0.25876040  1
  O  O45  1  0.01200871  0.34881143  0.74123960  1
  O  O46  1  0.98799129  0.65118857  0.74123960  1
  O  O47  1  0.98799129  0.34881143  0.25876040  1
loop_
_geom_bond_atom_site_label_1
_geom_bond_atom_site_label_2
_geom_bond_distance
_geom_bond_site_symmetry_2
Ce0 O11 2.681590 1_555
Ce0 O5 2.681590 1_555
Ce0 O4 2.681590 1_555
Ce0 O1 2.681590 1_555
Ce0 O9 2.681590 1_555
Ce0 O3 2.681590 1_555
Ce0 O0 2.681590 1_555
Ce0 O7 2.681590 1_555
Ce0 O8 2.681590 1_555
Ce0 O6 2.681590 1_555
Ce0 O10 2.681590 1_555
Ce0 O2 2.681590 1_555
Ce1 O15 2.681590 1_545
Ce1 O18 2.681590 1_444
Ce1 O21 2.681590 1_554
Ce1 O20 2.681590 1_545
Ce1 O13 2.681590 1_455
Ce1 O22 2.681590 1_444
Ce1 O12 2.681590 1_554
Ce1 O14 2.681590 1_444
Ce1 O19 2.681590 1_554
Ce1 O17 2.681590 1_545
Ce1 O16 2.681590 1_455
Ce1 O23 2.681590 1_455
N0 O24 1.218569 1_555
N0 O0 1.263768 1_555
N0 Ni0 2.064104 1_555
N1 O25 1.218569 1_555
N1 O1 1.263768 1_555
N1 Ni1 2.064104 1_555
N2 O26 1.218569 1_555
N2 O2 1.263768 1_555
N2 Ni2 2.064104 1_555
N3 O27 1.218569 1_555
N3 O3 1.263768 1_555
N3 Ni3 2.064104 1_555
N4 O28 1.218569 1_555
N4 O4 1.263768 1_555
N4 Ni2 2.064104 1_555
N5 O29 1.218569 1_555
N5 O5 1.263768 1_555
N5 Ni0 2.064104 1_555
N6 O30 1.218569 1_555
N6 O6 1.263768 1_555
N6 Ni1 2.064104 1_555
N7 O31 1.218569 1_555
N7 O7 1.263768 1_555
N7 Ni3 2.064104 1_555
N8 O32 1.218569 1_555
N8 O8 1.263768 1_555
N8 Ni1 2.064104 1_555
N9 O33 1.218569 1_555
N9 O9 1.263768 1_555
N9 Ni2 2.064104 1_555
N10 O34 1.218569 1_555
N10 O10 1.263768 1_555
N10 Ni0 2.064104 1_555
N11 O35 1.218569 1_555
N11 O11 1.263768 1_555
N11 Ni3 2.064104 1_555
N12 O36 1.218569 1_565
N12 O12 1.263768 1_565
N12 Ni0 2.064104 1_555
N13 O37 1.218569 1_565
N13 O13 1.263768 1_565
N13 Ni1 2.064104 1_555
N14 O38 1.218569 1_545
N14 O14 1.263768 1_545
N14 Ni2 2.064104 1_555
N15 O39 1.218569 1_545
N15 O15 1.263768 1_545
N15 Ni3 2.064104 1_555
N16 O40 1.218569 1_556
N16 O16 1.263768 1_556
N16 Ni2 2.064104 1_555
N17 O41 1.218569 1_556
N17 O17 1.263768 1_556
N17 Ni0 2.064104 1_555
N18 O42 1.218569 1_554
N18 O18 1.263768 1_554
N18 Ni1 2.064104 1_555
N19 O43 1.218569 1_554
N19 O19 1.263768 1_554
N19 Ni3 2.064104 1_555
N20 O44 1.218569 1_655
N20 O20 1.263768 1_655
N20 Ni1 2.064104 1_555
N21 O45 1.218569 1_655
N21 O21 1.263768 1_655
N21 Ni2 2.064104 1_555
N22 O46 1.218569 1_455
N22 O22 1.263768 1_455
N22 Ni0 2.064104 1_555
N23 O47 1.218569 1_455
N23 O23 1.263768 1_455
N23 Ni3 2.064104 1_555
