# generated using pymatgen
data_CsU2(PO4)4
_symmetry_space_group_name_H-M   'P 1'
_cell_length_a   15.28861068
_cell_length_b   15.28861068
_cell_length_c   6.97158805
_cell_angle_alpha   81.57754332
_cell_angle_beta   81.57754332
_cell_angle_gamma   25.03880977
_symmetry_Int_Tables_number   1
_chemical_formula_structural   CsU2(PO4)4
_chemical_formula_sum   'Cs2 U4 P8 O32'
_cell_volume   681.87089102
_cell_formula_units_Z   2
loop_
 _symmetry_equiv_pos_site_id
 _symmetry_equiv_pos_as_xyz
  1  'x, y, z'
loop_
 _atom_site_type_symbol
 _atom_site_label
 _atom_site_symmetry_multiplicity
 _atom_site_fract_x
 _atom_site_fract_y
 _atom_site_fract_z
 _atom_site_occupancy
  Cs  Cs0  1  0.71070600  0.28929400  0.25000000  1
  Cs  Cs1  1  0.28929400  0.71070600  0.75000000  1
  U  U0  1  0.98719800  0.67292400  0.71330400  1
  U  U1  1  0.32707600  0.01280200  0.78669600  1
  U  U2  1  0.01280200  0.32707600  0.28669600  1
  U  U3  1  0.67292400  0.98719800  0.21330400  1
  P  P0  1  0.48489000  0.10541000  0.73635700  1
  P  P1  1  0.89459000  0.51511000  0.76364300  1
  P  P2  1  0.51511000  0.89459000  0.26364300  1
  P  P3  1  0.10541000  0.48489000  0.23635700  1
  P  P4  1  0.11034300  0.72354900  0.33313600  1
  P  P5  1  0.27645100  0.88965700  0.16686400  1
  P  P6  1  0.88965700  0.27645100  0.66686400  1
  P  P7  1  0.72354900  0.11034300  0.83313600  1
  O  O0  1  0.91459700  0.59609500  0.78401800  1
  O  O1  1  0.40390500  0.08540300  0.71598200  1
  O  O2  1  0.08540300  0.40390500  0.21598200  1
  O  O3  1  0.59609500  0.91459700  0.28401800  1
  O  O4  1  0.15758500  0.60405500  0.51872900  1
  O  O5  1  0.39594500  0.84241500  0.98127100  1
  O  O6  1  0.84241500  0.39594500  0.48127100  1
  O  O7  1  0.60405500  0.15758500  0.01872900  1
  O  O8  1  0.00406100  0.63464000  0.06056000  1
  O  O9  1  0.36536000  0.99593900  0.43944000  1
  O  O10  1  0.99593900  0.36536000  0.93944000  1
  O  O11  1  0.63464000  0.00406100  0.56056000  1
  O  O12  1  0.97713500  0.62482200  0.41207600  1
  O  O13  1  0.37517800  0.02286500  0.08792400  1
  O  O14  1  0.02286500  0.37517800  0.58792400  1
  O  O15  1  0.62482200  0.97713500  0.91207600  1
  O  O16  1  0.29598700  0.33618600  0.75275900  1
  O  O17  1  0.66381400  0.70401300  0.74724100  1
  O  O18  1  0.70401300  0.66381400  0.24724100  1
  O  O19  1  0.33618600  0.29598700  0.25275900  1
  O  O20  1  0.88207700  0.88817200  0.77867000  1
  O  O21  1  0.11182800  0.11792300  0.72133000  1
  O  O22  1  0.11792300  0.11182800  0.22133000  1
  O  O23  1  0.88817200  0.88207700  0.27867000  1
  O  O24  1  0.93159100  0.15417600  0.58920400  1
  O  O25  1  0.84582400  0.06840900  0.91079600  1
  O  O26  1  0.06840900  0.84582400  0.41079600  1
  O  O27  1  0.15417600  0.93159100  0.08920400  1
  O  O28  1  0.26675800  0.57331000  0.17595600  1
  O  O29  1  0.42669000  0.73324200  0.32404400  1
  O  O30  1  0.73324200  0.42669000  0.82404400  1
  O  O31  1  0.57331000  0.26675800  0.67595600  1
loop_
_geom_bond_atom_site_label_1
_geom_bond_atom_site_label_2
_geom_bond_distance
_geom_bond_site_symmetry_2
Cs0 O27 3.084580 1_645
Cs0 O26 3.084580 1_645
Cs0 O24 3.087267 1_555
Cs0 O25 3.087267 1_554
Cs0 O28 3.486318 1_555
Cs0 O29 3.486318 1_555
Cs0 O31 3.540348 1_555
Cs0 O30 3.540348 1_554
Cs1 O24 3.084580 1_465
Cs1 O25 3.084580 1_465
Cs1 O27 3.087267 1_556
Cs1 O26 3.087267 1_555
Cs1 O31 3.486318 1_555
Cs1 O30 3.486318 1_555
Cs1 O28 3.540348 1_556
Cs1 O29 3.540348 1_555
O0 P1 1.548310 1_555
O0 U0 2.210734 1_555
O1 P0 1.548310 1_555
O1 U1 2.210734 1_555
O2 P3 1.548310 1_555
O2 U2 2.210734 1_555
O3 P2 1.548310 1_555
O3 U3 2.210734 1_555
O4 P4 1.650350 1_555
O4 U0 2.036610 1_455
O5 P5 1.650350 1_556
O5 U1 2.036610 1_565
O6 P6 1.650350 1_555
O6 U2 2.036610 1_655
O7 P7 1.650350 1_554
O7 U3 2.036610 1_545
O8 P3 1.565484 1_555
O8 U0 2.400883 1_454
O8 U3 2.544086 1_455
O9 P2 1.565484 1_555
O9 U1 2.400883 1_565
O9 U2 2.544086 1_565
O10 P1 1.565484 1_555
O10 U2 2.400883 1_656
O10 U1 2.544086 1_655
O11 P0 1.565484 1_555
O11 U3 2.400883 1_545
O11 U0 2.544086 1_545
O12 P3 1.544357 1_655
O12 U0 2.393061 1_555
O12 U3 2.682030 1_555
O13 P2 1.544357 1_545
O13 U1 2.393061 1_554
O13 U2 2.682030 1_555
O14 P1 1.544357 1_455
O14 U2 2.393061 1_555
O14 U1 2.682030 1_555
O15 P0 1.544357 1_565
O15 U3 2.393061 1_556
O15 U0 2.682030 1_555
O16 P0 1.536098 1_555
O16 U0 2.189078 1_455
O17 P1 1.536098 1_555
O17 U1 2.189078 1_565
O18 P2 1.536098 1_555
O18 U2 2.189078 1_655
O19 P3 1.536098 1_555
O19 U3 2.189078 1_545
O20 P7 1.657263 1_565
O20 U0 2.064298 1_555
O21 P6 1.657263 1_455
O21 U1 2.064298 1_555
O22 P5 1.657263 1_545
O22 U2 2.064298 1_555
O23 P4 1.657263 1_655
O23 U3 2.064298 1_555
O24 P6 1.490616 1_555
O25 P7 1.490616 1_555
O26 P4 1.490616 1_555
O27 P5 1.490616 1_555
O28 P4 1.487209 1_555
O29 P5 1.487209 1_555
O30 P6 1.487209 1_555
O31 P7 1.487209 1_555
