# generated using pymatgen
data_Y2NiGe3
_symmetry_space_group_name_H-M   'P 1'
_cell_length_a   4.04149400
_cell_length_b   4.18714258
_cell_length_c   7.02157029
_cell_angle_alpha   90.00543731
_cell_angle_beta   90.00000000
_cell_angle_gamma   90.00000000
_symmetry_Int_Tables_number   1
_chemical_formula_structural   Y2NiGe3
_chemical_formula_sum   'Y2 Ni1 Ge3'
_cell_volume   118.82119990
_cell_formula_units_Z   1
loop_
 _symmetry_equiv_pos_site_id
 _symmetry_equiv_pos_as_xyz
  1  'x, y, z'
loop_
 _atom_site_type_symbol
 _atom_site_label
 _atom_site_symmetry_multiplicity
 _atom_site_fract_x
 _atom_site_fract_y
 _atom_site_fract_z
 _atom_site_occupancy
  Y  Y0  1  0.00000000  0.99995500  0.00512300  1
  Y  Y1  1  0.00000000  0.49994400  0.49846700  1
  Ni  Ni0  1  0.50000000  0.99997500  0.32227600  1
  Ge  Ge0  1  0.50000000  0.49996200  0.83792100  1
  Ge  Ge1  1  0.50000000  0.50000300  0.18983900  1
  Ge  Ge2  1  0.50000000  0.99996000  0.64637400  1
loop_
_geom_bond_atom_site_label_1
_geom_bond_atom_site_label_2
_geom_bond_distance
_geom_bond_site_symmetry_2
Ni0 Y0 3.007084 1_655
Ni0 Y0 3.007084 1_555
Ni0 Y1 3.161635 1_565
Ni0 Y1 3.161635 1_665
Ni0 Y1 3.161962 1_555
Ni0 Y1 3.161962 1_655
Ge0 Ge1 2.471017 1_556
Ge0 Ge2 2.488265 1_545
Ge0 Ge2 2.488465 1_555
Ge0 Y1 3.124819 1_655
Ge0 Y1 3.124819 1_555
Ge0 Y0 3.137546 1_556
Ge0 Y0 3.137546 1_656
Ge0 Y0 3.137734 1_646
Ge0 Y0 3.137734 1_546
Ge1 Ni0 2.290616 1_555
Ge1 Ni0 2.290992 1_545
Ge1 Y1 2.963029 1_555
Ge1 Y1 2.963029 1_655
Ge1 Y0 3.185645 1_655
Ge1 Y0 3.185645 1_555
Ge1 Y0 3.185747 1_645
Ge1 Y0 3.185747 1_545
Ge2 Ni0 2.275677 1_555
Ge2 Y1 3.089481 1_555
Ge2 Y1 3.089481 1_655
Ge2 Y1 3.089523 1_665
Ge2 Y1 3.089523 1_565
Ge2 Y0 3.229348 1_656
Ge2 Y0 3.229348 1_556
