# generated using pymatgen
data_VBiO5
_symmetry_space_group_name_H-M   'P 1'
_cell_length_a   10.70117300
_cell_length_b   5.46888700
_cell_length_c   8.83869939
_cell_angle_alpha   71.24333085
_cell_angle_beta   90.00000000
_cell_angle_gamma   90.00000000
_symmetry_Int_Tables_number   1
_chemical_formula_structural   VBiO5
_chemical_formula_sum   'V4 Bi4 O20'
_cell_volume   489.80077797
_cell_formula_units_Z   4
loop_
 _symmetry_equiv_pos_site_id
 _symmetry_equiv_pos_as_xyz
  1  'x, y, z'
loop_
 _atom_site_type_symbol
 _atom_site_label
 _atom_site_symmetry_multiplicity
 _atom_site_fract_x
 _atom_site_fract_y
 _atom_site_fract_z
 _atom_site_occupancy
  V  V0  1  0.35054200  0.16540900  0.05294400  1
  V  V1  1  0.64945800  0.83459100  0.94705600  1
  V  V2  1  0.85054200  0.83459100  0.44705600  1
  V  V3  1  0.14945800  0.16540900  0.55294400  1
  Bi  Bi0  1  0.90865900  0.00247700  0.82506000  1
  Bi  Bi1  1  0.09134100  0.99752300  0.17494000  1
  Bi  Bi2  1  0.59134100  0.00247700  0.32506000  1
  Bi  Bi3  1  0.40865900  0.99752300  0.67494000  1
  O  O0  1  0.90780400  0.83138400  0.63646000  1
  O  O1  1  0.03446900  0.27576800  0.66020500  1
  O  O2  1  0.78703200  0.13529100  0.32876800  1
  O  O3  1  0.44526700  0.81375300  0.49047200  1
  O  O4  1  0.71886700  0.65204600  0.46779400  1
  O  O5  1  0.78113300  0.65204600  0.96779400  1
  O  O6  1  0.46553100  0.27576800  0.16020500  1
  O  O7  1  0.53446900  0.72423200  0.83979500  1
  O  O8  1  0.55473300  0.18624700  0.50952800  1
  O  O9  1  0.40780400  0.16861600  0.86354000  1
  O  O10  1  0.28113300  0.34795400  0.53220600  1
  O  O11  1  0.09219600  0.16861600  0.36354000  1
  O  O12  1  0.59219600  0.83138400  0.13646000  1
  O  O13  1  0.21886700  0.34795400  0.03220600  1
  O  O14  1  0.94526700  0.18624700  0.00952800  1
  O  O15  1  0.05473300  0.81375300  0.99047200  1
  O  O16  1  0.21296800  0.86470900  0.67123200  1
  O  O17  1  0.96553100  0.72423200  0.33979500  1
  O  O18  1  0.28703200  0.86470900  0.17123200  1
  O  O19  1  0.71296800  0.13529100  0.82876800  1
loop_
_geom_bond_atom_site_label_1
_geom_bond_atom_site_label_2
_geom_bond_distance
_geom_bond_site_symmetry_2
Bi0 O0 2.158125 1_545
Bi0 O15 2.162368 1_645
Bi0 O1 2.183805 1_655
Bi0 O14 2.208104 1_556
Bi0 O19 2.220205 1_555
Bi0 O5 2.360489 1_545
Bi1 O11 2.158125 1_565
Bi1 O14 2.162368 1_465
Bi1 O17 2.183805 1_455
Bi1 O15 2.208104 1_554
Bi1 O18 2.220205 1_555
Bi1 O13 2.360489 1_565
Bi2 O12 2.158125 1_545
Bi2 O3 2.162368 1_545
Bi2 O6 2.183805 1_555
Bi2 O8 2.208104 1_555
Bi2 O2 2.220205 1_555
Bi2 O4 2.360489 1_545
Bi3 O9 2.158125 1_565
Bi3 O8 2.162368 1_565
Bi3 O7 2.183805 1_555
Bi3 O3 2.208104 1_555
Bi3 O16 2.220205 1_555
Bi3 O10 2.360489 1_565
O0 V2 1.777491 1_555
O1 V3 1.773471 1_555
O2 V2 1.775852 1_545
O4 V2 1.702367 1_555
O5 V1 1.702367 1_555
O6 V0 1.773471 1_555
O7 V1 1.773471 1_555
O9 V0 1.777491 1_556
O10 V3 1.702367 1_555
O11 V3 1.777491 1_555
O12 V1 1.777491 1_554
O13 V0 1.702367 1_555
O16 V3 1.775852 1_565
O17 V2 1.773471 1_555
O18 V0 1.775852 1_565
O19 V1 1.775852 1_545
