# generated using pymatgen
data_LaZnFeSnO6
_symmetry_space_group_name_H-M   'P 1'
_cell_length_a   5.65379700
_cell_length_b   5.44502200
_cell_length_c   9.58988471
_cell_angle_alpha   55.98006022
_cell_angle_beta   90.00000000
_cell_angle_gamma   90.00000000
_symmetry_Int_Tables_number   1
_chemical_formula_structural   LaZnFeSnO6
_chemical_formula_sum   'La2 Zn2 Fe2 Sn2 O12'
_cell_volume   244.69520864
_cell_formula_units_Z   2
loop_
 _symmetry_equiv_pos_site_id
 _symmetry_equiv_pos_as_xyz
  1  'x, y, z'
loop_
 _atom_site_type_symbol
 _atom_site_label
 _atom_site_symmetry_multiplicity
 _atom_site_fract_x
 _atom_site_fract_y
 _atom_site_fract_z
 _atom_site_occupancy
  La  La0  1  0.29083200  0.23641200  0.75060500  1
  La  La1  1  0.70916800  0.23641200  0.25060500  1
  Zn  Zn0  1  0.78157100  0.76651300  0.75584200  1
  Zn  Zn1  1  0.21842900  0.76651300  0.25584200  1
  Fe  Fe0  1  0.75509600  0.99758400  0.00201700  1
  Fe  Fe1  1  0.24490400  0.99758400  0.50201700  1
  Sn  Sn0  1  0.75785700  0.49933400  0.50214700  1
  Sn  Sn1  1  0.24214300  0.49933400  0.00214700  1
  O  O0  1  0.27853700  0.39407900  0.25065100  1
  O  O1  1  0.44205400  0.12338100  0.06398600  1
  O  O2  1  0.44762500  0.75503900  0.43816200  1
  O  O3  1  0.55237500  0.75503900  0.93816200  1
  O  O4  1  0.55794600  0.12338100  0.56398600  1
  O  O5  1  0.72146300  0.39407900  0.75065100  1
  O  O6  1  0.79694000  0.65712200  0.24686800  1
  O  O7  1  0.98342600  0.85021900  0.43039500  1
  O  O8  1  0.96175100  0.22031800  0.05932600  1
  O  O9  1  0.03824900  0.22031800  0.55932600  1
  O  O10  1  0.01657400  0.85021900  0.93039500  1
  O  O11  1  0.20306000  0.65712200  0.74686800  1
loop_
_geom_bond_atom_site_label_1
_geom_bond_atom_site_label_2
_geom_bond_distance
_geom_bond_site_symmetry_2
La0 O11 2.324507 1_555
La0 O9 2.364678 1_555
La0 O10 2.396259 1_545
La0 O5 2.581707 1_555
La0 O3 2.648880 1_545
La0 O4 2.663619 1_555
La0 O1 2.841104 1_556
La0 O2 2.875813 1_555
La1 O6 2.324507 1_555
La1 O8 2.364678 1_555
La1 O7 2.396259 1_545
La1 O0 2.581707 1_555
La1 O2 2.648880 1_545
La1 O1 2.663619 1_555
La1 O4 2.841104 1_555
La1 O3 2.875813 1_554
Fe0 O8 1.970751 1_565
Fe0 O10 1.979345 1_654
Fe0 O6 2.033564 1_555
Fe0 O3 2.082718 1_554
Fe0 O1 2.100069 1_565
Fe0 O5 2.164397 1_564
Fe1 O9 1.970751 1_565
Fe1 O7 1.979345 1_455
Fe1 O11 2.033564 1_555
Fe1 O2 2.082718 1_555
Fe1 O4 2.100069 1_565
Fe1 O0 2.164397 1_565
O0 Zn1 2.084071 1_555
O0 Sn1 2.126452 1_555
O1 Sn1 2.112174 1_555
O1 Zn1 2.181525 1_545
O2 Sn0 2.106080 1_555
O2 Zn1 2.148917 1_555
O3 Sn1 2.106080 1_556
O3 Zn0 2.148917 1_555
O4 Sn0 2.112174 1_555
O4 Zn0 2.181525 1_545
O5 Zn0 2.084071 1_555
O5 Sn0 2.126452 1_555
O6 Sn0 2.103957 1_555
O6 Zn1 2.469474 1_655
O7 Sn0 2.068615 1_555
O7 Zn1 2.372524 1_655
O8 Sn1 2.046884 1_655
O8 Zn1 2.559809 1_645
O9 Sn0 2.046884 1_455
O9 Zn0 2.559809 1_445
O10 Sn1 2.068615 1_556
O10 Zn0 2.372524 1_455
O11 Sn1 2.103957 1_556
O11 Zn0 2.469474 1_455
