# generated using pymatgen
data_BaMgFeF7
_symmetry_space_group_name_H-M   'P 1'
_cell_length_a   9.99494000
_cell_length_b   5.64034800
_cell_length_c   9.70426480
_cell_angle_alpha   86.92441454
_cell_angle_beta   90.00000000
_cell_angle_gamma   90.00000000
_symmetry_Int_Tables_number   1
_chemical_formula_structural   BaMgFeF7
_chemical_formula_sum   'Ba4 Mg4 Fe4 F28'
_cell_volume   546.28934665
_cell_formula_units_Z   4
loop_
 _symmetry_equiv_pos_site_id
 _symmetry_equiv_pos_as_xyz
  1  'x, y, z'
loop_
 _atom_site_type_symbol
 _atom_site_label
 _atom_site_symmetry_multiplicity
 _atom_site_fract_x
 _atom_site_fract_y
 _atom_site_fract_z
 _atom_site_occupancy
  Ba  Ba0  1  0.32186300  0.73647700  0.49899900  1
  Ba  Ba1  1  0.82186300  0.26352300  0.00100100  1
  Ba  Ba2  1  0.67813700  0.26352300  0.50100100  1
  Ba  Ba3  1  0.17813700  0.73647700  0.99899900  1
  Mg  Mg0  1  0.39484400  0.30228600  0.81000900  1
  Mg  Mg1  1  0.89484400  0.69771400  0.68999100  1
  Mg  Mg2  1  0.10515600  0.30228600  0.31000900  1
  Mg  Mg3  1  0.60515600  0.69771400  0.18999100  1
  Fe  Fe0  1  0.60958400  0.80507500  0.81278600  1
  Fe  Fe1  1  0.39041600  0.19492500  0.18721400  1
  Fe  Fe2  1  0.89041600  0.80507500  0.31278600  1
  Fe  Fe3  1  0.10958400  0.19492500  0.68721400  1
  F  F0  1  0.44631300  0.88511100  0.12587800  1
  F  F1  1  0.04921200  0.62726900  0.36887500  1
  F  F2  1  0.71371500  0.52922100  0.75097200  1
  F  F3  1  0.28628500  0.47077900  0.24902800  1
  F  F4  1  0.45797700  0.11099600  0.36708200  1
  F  F5  1  0.81138400  0.74261300  0.49889500  1
  F  F6  1  0.77986400  0.97349500  0.75180200  1
  F  F7  1  0.95797700  0.88900400  0.13291800  1
  F  F8  1  0.45078800  0.62726900  0.86887500  1
  F  F9  1  0.21371500  0.47077900  0.74902800  1
  F  F10  1  0.05368700  0.88511100  0.62587800  1
  F  F11  1  0.55368700  0.11488900  0.87412200  1
  F  F12  1  0.27986400  0.02650500  0.74819800  1
  F  F13  1  0.95862600  0.61276400  0.87267200  1
  F  F14  1  0.54202300  0.88900400  0.63291800  1
  F  F15  1  0.04202300  0.11099600  0.86708200  1
  F  F16  1  0.22013600  0.02650500  0.24819800  1
  F  F17  1  0.94631300  0.11488900  0.37412200  1
  F  F18  1  0.45862600  0.38723600  0.62732800  1
  F  F19  1  0.95078800  0.37273100  0.63112500  1
  F  F20  1  0.04137400  0.38723600  0.12732800  1
  F  F21  1  0.72013600  0.97349500  0.25180200  1
  F  F22  1  0.54137400  0.61276400  0.37267200  1
  F  F23  1  0.31138400  0.25738700  0.00110500  1
  F  F24  1  0.18861600  0.25738700  0.50110500  1
  F  F25  1  0.68861600  0.74261300  0.99889500  1
  F  F26  1  0.54921200  0.37273100  0.13112500  1
  F  F27  1  0.78628500  0.52922100  0.25097200  1
loop_
_geom_bond_atom_site_label_1
_geom_bond_atom_site_label_2
_geom_bond_distance
_geom_bond_site_symmetry_2
Ba0 F22 2.625868 1_555
Ba0 F18 2.652626 1_555
Ba0 F14 2.718669 1_555
Ba0 F4 2.767988 1_565
Ba0 F3 2.940556 1_555
Ba0 F9 2.985177 1_555
Ba0 F24 3.011684 1_555
Ba0 F12 3.020744 1_565
Ba0 F16 3.034167 1_565
Ba0 F1 3.079574 1_555
Ba0 F10 3.084505 1_555
Ba0 F24 3.226926 1_565
Ba1 F20 2.625868 1_655
Ba1 F13 2.652626 1_554
Ba1 F15 2.718669 1_654
Ba1 F7 2.767988 1_545
Ba1 F27 2.940556 1_555
Ba1 F2 2.985177 1_554
Ba1 F25 3.011684 1_554
Ba1 F6 3.020744 1_544
Ba1 F21 3.034167 1_545
Ba1 F26 3.079574 1_555
Ba1 F11 3.084505 1_554
Ba1 F25 3.226926 1_544
Ba2 F18 2.625868 1_555
Ba2 F22 2.652626 1_555
Ba2 F4 2.718669 1_555
Ba2 F14 2.767988 1_545
Ba2 F2 2.940556 1_555
Ba2 F27 2.985177 1_555
Ba2 F5 3.011684 1_555
Ba2 F21 3.020744 1_545
Ba2 F6 3.034167 1_545
Ba2 F19 3.079574 1_555
Ba2 F17 3.084505 1_555
Ba2 F5 3.226926 1_545
Ba3 F13 2.625868 1_455
Ba3 F20 2.652626 1_556
Ba3 F7 2.718669 1_456
Ba3 F15 2.767988 1_565
Ba3 F9 2.940556 1_555
Ba3 F3 2.985177 1_556
Ba3 F23 3.011684 1_556
Ba3 F16 3.020744 1_566
Ba3 F12 3.034167 1_565
Ba3 F8 3.079574 1_555
Ba3 F0 3.084505 1_556
Ba3 F23 3.226926 1_566
F0 Fe1 1.957458 1_565
F0 Mg3 1.988542 1_555
F1 Fe2 1.939726 1_455
F1 Mg2 2.027634 1_555
F2 Fe0 1.990999 1_555
F2 Mg1 2.114352 1_555
F3 Fe1 1.990999 1_555
F3 Mg2 2.114352 1_555
F4 Fe1 1.907391 1_555
F5 Fe2 1.985356 1_555
F5 Mg1 2.036802 1_555
F6 Fe0 2.022103 1_555
F6 Mg1 2.049440 1_555
F7 Fe2 1.907391 1_555
F8 Fe0 1.939726 1_555
F8 Mg0 2.027634 1_555
F9 Fe3 1.990999 1_555
F9 Mg0 2.114352 1_555
F10 Fe3 1.957458 1_565
F10 Mg1 1.988542 1_455
F11 Fe0 1.957458 1_545
F11 Mg0 1.988542 1_555
F12 Fe3 2.022103 1_555
F12 Mg0 2.049440 1_555
F13 Mg1 1.920313 1_555
F14 Fe0 1.907391 1_555
F15 Fe3 1.907391 1_555
F16 Fe1 2.022103 1_555
F16 Mg2 2.049440 1_555
F17 Fe2 1.957458 1_545
F17 Mg2 1.988542 1_655
F18 Mg0 1.920313 1_555
F19 Fe3 1.939726 1_655
F19 Mg1 2.027634 1_555
F20 Mg2 1.920313 1_555
F21 Fe2 2.022103 1_555
F21 Mg3 2.049440 1_555
F22 Mg3 1.920313 1_555
F23 Fe1 1.985356 1_555
F23 Mg0 2.036802 1_554
F24 Fe3 1.985356 1_555
F24 Mg2 2.036802 1_555
F25 Fe0 1.985356 1_555
F25 Mg3 2.036802 1_556
F26 Fe1 1.939726 1_555
F26 Mg3 2.027634 1_555
F27 Fe2 1.990999 1_555
F27 Mg3 2.114352 1_555
