# generated using pymatgen
data_K5Hf3OF17
_symmetry_space_group_name_H-M   'P 1'
_cell_length_a   8.52634600
_cell_length_b   13.42791000
_cell_length_c   15.40928900
_cell_angle_alpha   90.00000000
_cell_angle_beta   90.00000000
_cell_angle_gamma   90.00000000
_symmetry_Int_Tables_number   1
_chemical_formula_structural   K5Hf3OF17
_chemical_formula_sum   'K20 Hf12 O4 F68'
_cell_volume   1764.22501040
_cell_formula_units_Z   4
loop_
 _symmetry_equiv_pos_site_id
 _symmetry_equiv_pos_as_xyz
  1  'x, y, z'
loop_
 _atom_site_type_symbol
 _atom_site_label
 _atom_site_symmetry_multiplicity
 _atom_site_fract_x
 _atom_site_fract_y
 _atom_site_fract_z
 _atom_site_occupancy
  K  K0  1  0.83824600  0.26715500  0.87169900  1
  K  K1  1  0.33824600  0.23284500  0.62830100  1
  K  K2  1  0.16175400  0.73284500  0.37169900  1
  K  K3  1  0.66175400  0.76715500  0.12830100  1
  K  K4  1  0.16175400  0.73284500  0.12830100  1
  K  K5  1  0.66175400  0.76715500  0.37169900  1
  K  K6  1  0.83824600  0.26715500  0.62830100  1
  K  K7  1  0.33824600  0.23284500  0.87169900  1
  K  K8  1  0.59322400  0.09326600  0.43722900  1
  K  K9  1  0.09322400  0.40673400  0.06277100  1
  K  K10  1  0.40677600  0.90673400  0.93722900  1
  K  K11  1  0.90677600  0.59326600  0.56277100  1
  K  K12  1  0.40677600  0.90673400  0.56277100  1
  K  K13  1  0.90677600  0.59326600  0.93722900  1
  K  K14  1  0.59322400  0.09326600  0.06277100  1
  K  K15  1  0.09322400  0.40673400  0.43722900  1
  K  K16  1  0.63676200  0.74000500  0.75000000  1
  K  K17  1  0.13676200  0.75999500  0.75000000  1
  K  K18  1  0.36323800  0.25999500  0.25000000  1
  K  K19  1  0.86323800  0.24000500  0.25000000  1
  Hf  Hf0  1  0.91581400  0.89636700  0.93958300  1
  Hf  Hf1  1  0.41581400  0.60363300  0.56041700  1
  Hf  Hf2  1  0.08418600  0.10363300  0.43958300  1
  Hf  Hf3  1  0.58418600  0.39636700  0.06041700  1
  Hf  Hf4  1  0.08418600  0.10363300  0.06041700  1
  Hf  Hf5  1  0.58418600  0.39636700  0.43958300  1
  Hf  Hf6  1  0.91581400  0.89636700  0.56041700  1
  Hf  Hf7  1  0.41581400  0.60363300  0.93958300  1
  Hf  Hf8  1  0.64903100  0.04818600  0.75000000  1
  Hf  Hf9  1  0.14903100  0.45181400  0.75000000  1
  Hf  Hf10  1  0.35096900  0.95181400  0.25000000  1
  Hf  Hf11  1  0.85096900  0.54818600  0.25000000  1
  O  O0  1  0.82889400  0.92030000  0.25000000  1
  O  O1  1  0.32889400  0.57970000  0.25000000  1
  O  O2  1  0.17110600  0.07970000  0.75000000  1
  O  O3  1  0.67110600  0.42030000  0.75000000  1
  F  F0  1  0.92937500  0.05669700  0.95569900  1
  F  F1  1  0.42937500  0.44330300  0.54430100  1
  F  F2  1  0.07062500  0.94330300  0.45569900  1
  F  F3  1  0.57062500  0.55669700  0.04430100  1
  F  F4  1  0.07062500  0.94330300  0.04430100  1
  F  F5  1  0.57062500  0.55669700  0.45569900  1
  F  F6  1  0.92937500  0.05669700  0.54430100  1
  F  F7  1  0.42937500  0.44330300  0.95569900  1
  F  F8  1  0.93578700  0.77800100  0.02119300  1
  F  F9  1  0.43578700  0.72199900  0.47880700  1
  F  F10  1  0.06421300  0.22199900  0.52119300  1
  F  F11  1  0.56421300  0.27800100  0.97880700  1
  F  F12  1  0.06421300  0.22199900  0.97880700  1
  F  F13  1  0.56421300  0.27800100  0.52119300  1
  F  F14  1  0.93578700  0.77800100  0.47880700  1
  F  F15  1  0.43578700  0.72199900  0.02119300  1
  F  F16  1  0.87463000  0.77667600  0.86201200  1
  F  F17  1  0.37463000  0.72332400  0.63798800  1
  F  F18  1  0.12537000  0.22332400  0.36201200  1
  F  F19  1  0.62537000  0.27667600  0.13798800  1
  F  F20  1  0.12537000  0.22332400  0.13798800  1
  F  F21  1  0.62537000  0.27667600  0.36201200  1
  F  F22  1  0.87463000  0.77667600  0.63798800  1
  F  F23  1  0.37463000  0.72332400  0.86201200  1
  F  F24  1  0.79030000  0.95415500  0.83461700  1
  F  F25  1  0.29030000  0.54584500  0.66538300  1
  F  F26  1  0.20970000  0.04584500  0.33461700  1
  F  F27  1  0.70970000  0.45415500  0.16538300  1
  F  F28  1  0.20970000  0.04584500  0.16538300  1
  F  F29  1  0.70970000  0.45415500  0.33461700  1
  F  F30  1  0.79030000  0.95415500  0.66538300  1
  F  F31  1  0.29030000  0.54584500  0.83461700  1
  F  F32  1  0.70862700  0.91128000  0.00215000  1
  F  F33  1  0.20862700  0.58872000  0.49785000  1
  F  F34  1  0.29137300  0.08872000  0.50215000  1
  F  F35  1  0.79137300  0.41128000  0.99785000  1
  F  F36  1  0.29137300  0.08872000  0.99785000  1
  F  F37  1  0.79137300  0.41128000  0.50215000  1
  F  F38  1  0.70862700  0.91128000  0.49785000  1
  F  F39  1  0.20862700  0.58872000  0.00215000  1
  F  F40  1  0.11987400  0.90125700  0.87577500  1
  F  F41  1  0.61987400  0.59874300  0.62422500  1
  F  F42  1  0.88012600  0.09874300  0.37577500  1
  F  F43  1  0.38012600  0.40125700  0.12422500  1
  F  F44  1  0.88012600  0.09874300  0.12422500  1
  F  F45  1  0.38012600  0.40125700  0.37577500  1
  F  F46  1  0.11987400  0.90125700  0.62422500  1
  F  F47  1  0.61987400  0.59874300  0.87577500  1
  F  F48  1  0.85163900  0.12502500  0.75000000  1
  F  F49  1  0.35163900  0.37497500  0.75000000  1
  F  F50  1  0.14836100  0.87497500  0.25000000  1
  F  F51  1  0.64836100  0.62502500  0.25000000  1
  F  F52  1  0.55474000  0.06828700  0.63033500  1
  F  F53  1  0.05474000  0.43171300  0.86966500  1
  F  F54  1  0.44526000  0.93171300  0.13033500  1
  F  F55  1  0.94526000  0.56828700  0.36966500  1
  F  F56  1  0.44526000  0.93171300  0.36966500  1
  F  F57  1  0.94526000  0.56828700  0.13033500  1
  F  F58  1  0.55474000  0.06828700  0.86966500  1
  F  F59  1  0.05474000  0.43171300  0.63033500  1
  F  F60  1  0.50397600  0.92733700  0.75000000  1
  F  F61  1  0.00397600  0.57266300  0.75000000  1
  F  F62  1  0.49602400  0.07266300  0.25000000  1
  F  F63  1  0.99602400  0.42733700  0.25000000  1
  F  F64  1  0.56738500  0.19254900  0.75000000  1
  F  F65  1  0.06738500  0.30745100  0.75000000  1
  F  F66  1  0.43261500  0.80745100  0.25000000  1
  F  F67  1  0.93261500  0.69254900  0.25000000  1
loop_
_geom_bond_atom_site_label_1
_geom_bond_atom_site_label_2
_geom_bond_distance
_geom_bond_site_symmetry_2
K0 O3 3.126736 1_555
K1 O2 3.126736 1_555
K2 O1 3.126736 1_555
K3 O0 3.126736 1_555
K4 O1 3.126736 1_555
K5 O0 3.126736 1_555
K6 O3 3.126736 1_555
K7 O2 3.126736 1_555
F0 Hf0 2.170255 1_545
F0 Hf4 2.177922 1_656
F0 K0 3.203979 1_555
F1 Hf1 2.170255 1_555
F1 Hf5 2.177922 1_555
F1 K1 3.203979 1_555
F2 Hf2 2.170255 1_565
F2 Hf6 2.177922 1_455
F2 K2 3.203979 1_555
F3 Hf3 2.170255 1_555
F3 Hf7 2.177922 1_554
F3 K3 3.203979 1_555
F4 Hf4 2.170255 1_565
F4 Hf0 2.177922 1_454
F4 K4 3.203979 1_555
F5 Hf5 2.170255 1_555
F5 Hf1 2.177922 1_555
F5 K5 3.203979 1_555
F6 Hf6 2.170255 1_545
F6 Hf2 2.177922 1_655
F6 K6 3.203979 1_555
F7 Hf7 2.170255 1_555
F7 Hf3 2.177922 1_556
F7 K7 3.203979 1_555
F8 Hf0 2.033877 1_554
F8 K4 2.608398 1_655
F8 K13 2.808660 1_554
F8 K3 2.864342 1_555
F9 Hf1 2.033877 1_555
F9 K5 2.608398 1_555
F9 K12 2.808660 1_555
F9 K2 2.864342 1_555
F10 Hf2 2.033877 1_555
F10 K6 2.608398 1_455
F10 K15 2.808660 1_555
F10 K1 2.864342 1_555
F11 Hf3 2.033877 1_556
F11 K7 2.608398 1_555
F11 K14 2.808660 1_556
F11 K0 2.864342 1_555
F12 Hf4 2.033877 1_556
F12 K0 2.608398 1_455
F12 K9 2.808660 1_556
F12 K7 2.864342 1_555
F13 Hf5 2.033877 1_555
F13 K1 2.608398 1_555
F13 K8 2.808660 1_555
F13 K6 2.864342 1_555
F14 Hf6 2.033877 1_555
F14 K2 2.608398 1_655
F14 K11 2.808660 1_555
F14 K5 2.864342 1_555
F15 Hf7 2.033877 1_554
F15 K3 2.608398 1_555
F15 K10 2.808660 1_554
F15 K4 2.864342 1_555
F16 Hf0 2.033512 1_555
F16 K16 2.708322 1_555
F16 K13 2.735680 1_555
F16 K17 2.832788 1_655
F17 Hf1 2.033512 1_555
F17 K17 2.708322 1_555
F17 K12 2.735680 1_555
F17 K16 2.832788 1_555
F18 Hf2 2.033512 1_555
F18 K18 2.708322 1_555
F18 K15 2.735680 1_555
F18 K19 2.832788 1_455
F19 Hf3 2.033512 1_555
F19 K19 2.708322 1_555
F19 K14 2.735680 1_555
F19 K18 2.832788 1_555
F20 Hf4 2.033512 1_555
F20 K18 2.708322 1_555
F20 K9 2.735680 1_555
F20 K19 2.832788 1_455
F21 Hf5 2.033512 1_555
F21 K19 2.708322 1_555
F21 K8 2.735680 1_555
F21 K18 2.832788 1_555
F22 Hf6 2.033512 1_555
F22 K16 2.708322 1_555
F22 K11 2.735680 1_555
F22 K17 2.832788 1_655
F23 Hf7 2.033512 1_555
F23 K17 2.708322 1_555
F23 K10 2.735680 1_555
F23 K16 2.832788 1_555
F24 Hf0 2.088913 1_555
F24 Hf8 2.178353 1_565
F25 Hf1 2.088913 1_555
F25 Hf9 2.178353 1_555
F26 Hf2 2.088913 1_555
F26 Hf10 2.178353 1_545
F27 Hf3 2.088913 1_555
F27 Hf11 2.178353 1_555
F28 Hf4 2.088913 1_555
F28 Hf10 2.178353 1_545
F29 Hf5 2.088913 1_555
F29 Hf11 2.178353 1_555
F30 Hf6 2.088913 1_555
F30 Hf8 2.178353 1_565
F31 Hf7 2.088913 1_555
F31 Hf9 2.178353 1_555
F32 Hf0 2.022451 1_554
F32 K10 2.761948 1_554
F32 K3 2.771974 1_555
F32 K14 2.795069 1_565
F33 Hf1 2.022451 1_555
F33 K11 2.761948 1_455
F33 K2 2.771974 1_555
F33 K15 2.795069 1_555
F34 Hf2 2.022451 1_555
F34 K8 2.761948 1_555
F34 K1 2.771974 1_555
F34 K12 2.795069 1_545
F35 Hf3 2.022451 1_556
F35 K9 2.761948 1_656
F35 K0 2.771974 1_555
F35 K13 2.795069 1_555
F36 Hf4 2.022451 1_556
F36 K14 2.761948 1_556
F36 K7 2.771974 1_555
F36 K10 2.795069 1_545
F37 Hf5 2.022451 1_555
F37 K15 2.761948 1_655
F37 K6 2.771974 1_555
F37 K11 2.795069 1_555
F38 Hf6 2.022451 1_555
F38 K12 2.761948 1_555
F38 K5 2.771974 1_555
F38 K8 2.795069 1_565
F39 Hf7 2.022451 1_554
F39 K13 2.761948 1_454
F39 K4 2.771974 1_555
F39 K9 2.795069 1_555
F40 Hf0 1.999567 1_455
F40 K10 2.624151 1_555
F40 K17 2.715701 1_555
F41 Hf1 1.999567 1_555
F41 K11 2.624151 1_555
F41 K16 2.715701 1_555
F42 Hf2 1.999567 1_655
F42 K8 2.624151 1_555
F42 K19 2.715701 1_555
F43 Hf3 1.999567 1_555
F43 K9 2.624151 1_555
F43 K18 2.715701 1_555
F44 Hf4 1.999567 1_655
F44 K14 2.624151 1_555
F44 K19 2.715701 1_555
F45 Hf5 1.999567 1_555
F45 K15 2.624151 1_555
F45 K18 2.715701 1_555
F46 Hf6 1.999567 1_455
F46 K12 2.624151 1_555
F46 K17 2.715701 1_555
F47 Hf7 1.999567 1_555
F47 K13 2.624151 1_555
F47 K16 2.715701 1_555
F48 Hf8 2.012178 1_555
F48 K0 2.678092 1_555
F48 K6 2.678092 1_555
F49 Hf9 2.012178 1_555
F49 K7 2.678092 1_555
F49 K1 2.678092 1_555
F50 Hf10 2.012178 1_555
F50 K4 2.678092 1_555
F50 K2 2.678092 1_555
F51 Hf11 2.012178 1_555
F51 K5 2.678092 1_555
F51 K3 2.678092 1_555
F52 Hf8 2.029621 1_555
F52 K12 2.716887 1_545
F52 K1 2.879406 1_555
F52 K8 3.012395 1_555
F53 Hf9 2.029621 1_555
F53 K13 2.716887 1_455
F53 K0 2.879406 1_455
F53 K9 3.012395 1_556
F54 Hf10 2.029621 1_555
F54 K14 2.716887 1_565
F54 K3 2.879406 1_555
F54 K10 3.012395 1_554
F55 Hf11 2.029621 1_555
F55 K15 2.716887 1_655
F55 K2 2.879406 1_655
F55 K11 3.012395 1_555
F56 Hf10 2.029621 1_555
F56 K8 2.716887 1_565
F56 K5 2.879406 1_555
F56 K12 3.012395 1_555
F57 Hf11 2.029621 1_555
F57 K9 2.716887 1_655
F57 K4 2.879406 1_655
F57 K13 3.012395 1_554
F58 Hf8 2.029621 1_555
F58 K10 2.716887 1_545
F58 K7 2.879406 1_555
F58 K14 3.012395 1_556
F59 Hf9 2.029621 1_555
F59 K11 2.716887 1_455
F59 K6 2.879406 1_455
F59 K15 3.012395 1_555
F60 Hf8 2.040334 1_565
F60 K16 2.758524 1_555
F60 K10 3.014463 1_555
F60 K12 3.014463 1_555
F61 Hf9 2.040334 1_555
F61 K17 2.758524 1_555
F61 K13 3.014463 1_455
F61 K11 3.014463 1_455
F62 Hf10 2.040334 1_545
F62 K18 2.758524 1_555
F62 K8 3.014463 1_555
F62 K14 3.014463 1_555
F63 Hf11 2.040334 1_555
F63 K19 2.758524 1_555
F63 K15 3.014463 1_655
F63 K9 3.014463 1_655
F64 Hf8 2.059702 1_555
F64 K1 2.761617 1_555
F64 K7 2.761617 1_555
F64 K0 3.139096 1_555
F64 K6 3.139096 1_555
F65 Hf9 2.059702 1_555
F65 K6 2.761617 1_455
F65 K0 2.761617 1_455
F65 K1 3.139096 1_555
F65 K7 3.139096 1_555
F66 Hf10 2.059702 1_555
F66 K5 2.761617 1_555
F66 K3 2.761617 1_555
F66 K4 3.139096 1_555
F66 K2 3.139096 1_555
F67 Hf11 2.059702 1_555
F67 K4 2.761617 1_655
F67 K2 2.761617 1_655
F67 K5 3.139096 1_555
F67 K3 3.139096 1_555
