# generated using pymatgen
data_Ba2Zn2TeP2O11
_symmetry_space_group_name_H-M   'P 1'
_cell_length_a   16.40250200
_cell_length_b   7.13335900
_cell_length_c   9.94596140
_cell_angle_alpha   74.06385274
_cell_angle_beta   90.00000000
_cell_angle_gamma   90.00000000
_symmetry_Int_Tables_number   1
_chemical_formula_structural   Ba2Zn2TeP2O11
_chemical_formula_sum   'Ba8 Zn8 Te4 P8 O44'
_cell_volume   1119.00255649
_cell_formula_units_Z   4
loop_
 _symmetry_equiv_pos_site_id
 _symmetry_equiv_pos_as_xyz
  1  'x, y, z'
loop_
 _atom_site_type_symbol
 _atom_site_label
 _atom_site_symmetry_multiplicity
 _atom_site_fract_x
 _atom_site_fract_y
 _atom_site_fract_z
 _atom_site_occupancy
  Ba  Ba0  1  0.40615600  0.74268300  0.53552300  1
  Ba  Ba1  1  0.90615600  0.25731700  0.96447700  1
  Ba  Ba2  1  0.59384400  0.25731700  0.46447700  1
  Ba  Ba3  1  0.09384400  0.74268300  0.03552300  1
  Ba  Ba4  1  0.25924300  0.27713800  0.38569000  1
  Ba  Ba5  1  0.75924300  0.72286200  0.11431000  1
  Ba  Ba6  1  0.74075700  0.72286200  0.61431000  1
  Ba  Ba7  1  0.24075700  0.27713800  0.88569000  1
  Zn  Zn0  1  0.45623800  0.56907700  0.19997900  1
  Zn  Zn1  1  0.95623800  0.43092300  0.30002100  1
  Zn  Zn2  1  0.54376200  0.43092300  0.80002100  1
  Zn  Zn3  1  0.04376200  0.56907700  0.69997900  1
  Zn  Zn4  1  0.14400800  0.81727000  0.41737200  1
  Zn  Zn5  1  0.64400800  0.18273000  0.08262800  1
  Zn  Zn6  1  0.85599200  0.18273000  0.58262800  1
  Zn  Zn7  1  0.35599200  0.81727000  0.91737200  1
  Te  Te0  1  0.55538100  0.83096300  0.88844800  1
  Te  Te1  1  0.05538100  0.16903700  0.61155200  1
  Te  Te2  1  0.44461900  0.16903700  0.11155200  1
  Te  Te3  1  0.94461900  0.83096300  0.38844800  1
  P  P0  1  0.28649400  0.79517300  0.22588000  1
  P  P1  1  0.78649400  0.20482700  0.27412000  1
  P  P2  1  0.71350600  0.20482700  0.77412000  1
  P  P3  1  0.21350600  0.79517300  0.72588000  1
  P  P4  1  0.60085600  0.77414100  0.33683200  1
  P  P5  1  0.10085600  0.22585900  0.16316800  1
  P  P6  1  0.39914400  0.22585900  0.66316800  1
  P  P7  1  0.89914400  0.77414100  0.83683200  1
  O  O0  1  0.20026200  0.71228700  0.28096000  1
  O  O1  1  0.70026200  0.28771300  0.21904000  1
  O  O2  1  0.79973800  0.28771300  0.71904000  1
  O  O3  1  0.29973800  0.71228700  0.78096000  1
  O  O4  1  0.34684300  0.61954500  0.27435600  1
  O  O5  1  0.84684300  0.38045500  0.22564400  1
  O  O6  1  0.65315700  0.38045500  0.72564400  1
  O  O7  1  0.15315700  0.61954500  0.77435600  1
  O  O8  1  0.67312500  0.62852600  0.37492400  1
  O  O9  1  0.17312500  0.37147400  0.12507600  1
  O  O10  1  0.32687500  0.37147400  0.62507600  1
  O  O11  1  0.82687500  0.62852600  0.87492400  1
  O  O12  1  0.52034600  0.65097800  0.34407300  1
  O  O13  1  0.02034600  0.34902200  0.15592700  1
  O  O14  1  0.47965400  0.34902200  0.65592700  1
  O  O15  1  0.97965400  0.65097800  0.84407300  1
  O  O16  1  0.59319500  0.89327000  0.44365100  1
  O  O17  1  0.09319500  0.10673000  0.05634900  1
  O  O18  1  0.40680500  0.10673000  0.55634900  1
  O  O19  1  0.90680500  0.89327000  0.94365100  1
  O  O20  1  0.31227700  0.95947600  0.28976500  1
  O  O21  1  0.81227700  0.04052400  0.21023500  1
  O  O22  1  0.68772300  0.04052400  0.71023500  1
  O  O23  1  0.18772300  0.95947600  0.78976500  1
  O  O24  1  0.61244700  0.90569400  0.18381700  1
  O  O25  1  0.11244700  0.09430600  0.31618300  1
  O  O26  1  0.38755300  0.09430600  0.81618300  1
  O  O27  1  0.88755300  0.90569400  0.68381700  1
  O  O28  1  0.28154200  0.86619900  0.06318300  1
  O  O29  1  0.78154200  0.13380100  0.43681700  1
  O  O30  1  0.71845800  0.13380100  0.93681700  1
  O  O31  1  0.21845800  0.86619900  0.56318300  1
  O  O32  1  0.46172200  0.74325700  0.01185700  1
  O  O33  1  0.96172200  0.25674300  0.48814300  1
  O  O34  1  0.53827800  0.25674300  0.98814300  1
  O  O35  1  0.03827800  0.74325700  0.51185700  1
  O  O36  1  0.51797100  0.71104800  0.75018600  1
  O  O37  1  0.01797100  0.28895200  0.74981400  1
  O  O38  1  0.48202900  0.28895200  0.24981400  1
  O  O39  1  0.98202900  0.71104800  0.25018600  1
  O  O40  1  0.63167100  0.64194700  0.96787500  1
  O  O41  1  0.13167100  0.35805300  0.53212500  1
  O  O42  1  0.36832900  0.35805300  0.03212500  1
  O  O43  1  0.86832900  0.64194700  0.46787500  1
loop_
_geom_bond_atom_site_label_1
_geom_bond_atom_site_label_2
_geom_bond_distance
_geom_bond_site_symmetry_2
Ba0 O18 2.661235 1_565
Ba0 O36 2.776406 1_555
Ba0 O10 2.863735 1_555
Ba0 O12 2.871565 1_555
Ba0 O20 2.943052 1_555
Ba0 O3 2.960103 1_555
Ba0 O14 2.987704 1_555
Ba0 O4 3.117419 1_555
Ba0 O31 3.234748 1_555
Ba0 O16 3.295739 1_555
Ba1 O19 2.661235 1_545
Ba1 O37 2.776406 1_655
Ba1 O11 2.863735 1_555
Ba1 O13 2.871565 1_656
Ba1 O21 2.943052 1_556
Ba1 O2 2.960103 1_555
Ba1 O15 2.987704 1_555
Ba1 O5 3.117419 1_556
Ba1 O30 3.234748 1_555
Ba1 O17 3.295739 1_656
Ba2 O16 2.661235 1_545
Ba2 O38 2.776406 1_555
Ba2 O8 2.863735 1_555
Ba2 O14 2.871565 1_555
Ba2 O22 2.943052 1_555
Ba2 O1 2.960103 1_555
Ba2 O12 2.987704 1_555
Ba2 O6 3.117419 1_555
Ba2 O29 3.234748 1_555
Ba2 O18 3.295739 1_555
Ba3 O17 2.661235 1_565
Ba3 O39 2.776406 1_455
Ba3 O9 2.863735 1_555
Ba3 O15 2.871565 1_454
Ba3 O23 2.943052 1_554
Ba3 O0 2.960103 1_555
Ba3 O13 2.987704 1_555
Ba3 O7 3.117419 1_554
Ba3 O28 3.234748 1_555
Ba3 O19 3.295739 1_454
Ba4 O41 2.700842 1_555
Ba4 O4 2.787720 1_555
Ba4 O20 2.826459 1_545
Ba4 O9 2.865145 1_555
Ba4 O10 2.869160 1_555
Ba4 O25 2.910598 1_555
Ba4 O18 3.013959 1_555
Ba4 O31 3.052085 1_545
Ba4 O0 3.143358 1_555
Ba5 O40 2.700842 1_554
Ba5 O5 2.787720 1_555
Ba5 O21 2.826459 1_565
Ba5 O8 2.865145 1_555
Ba5 O11 2.869160 1_554
Ba5 O24 2.910598 1_555
Ba5 O19 3.013959 1_554
Ba5 O30 3.052085 1_564
Ba5 O1 3.143358 1_555
Ba6 O43 2.700842 1_555
Ba6 O6 2.787720 1_555
Ba6 O22 2.826459 1_565
Ba6 O11 2.865145 1_555
Ba6 O8 2.869160 1_555
Ba6 O27 2.910598 1_555
Ba6 O16 3.013959 1_555
Ba6 O29 3.052085 1_565
Ba6 O2 3.143358 1_555
Ba7 O42 2.700842 1_556
Ba7 O7 2.787720 1_555
Ba7 O23 2.826459 1_545
Ba7 O10 2.865145 1_555
Ba7 O9 2.869160 1_556
Ba7 O26 2.910598 1_555
Ba7 O17 3.013959 1_556
Ba7 O28 3.052085 1_546
Ba7 O3 3.143358 1_555
O0 P0 1.572391 1_555
O0 Zn4 1.952157 1_555
O1 P1 1.572391 1_555
O1 Zn5 1.952157 1_555
O2 P2 1.572391 1_555
O2 Zn6 1.952157 1_555
O3 P3 1.572391 1_555
O3 Zn7 1.952157 1_555
O4 P0 1.565301 1_555
O4 Zn0 2.010666 1_555
O5 P1 1.565301 1_555
O5 Zn1 2.010666 1_555
O6 P2 1.565301 1_555
O6 Zn2 2.010666 1_555
O7 P3 1.565301 1_555
O7 Zn3 2.010666 1_555
O8 P4 1.552913 1_555
O9 P5 1.552913 1_555
O10 P6 1.552913 1_555
O11 P7 1.552913 1_555
O12 P4 1.576773 1_555
O12 Zn0 1.990164 1_555
O13 P5 1.576773 1_555
O13 Zn1 1.990164 1_455
O14 P6 1.576773 1_555
O14 Zn2 1.990164 1_555
O15 P7 1.576773 1_555
O15 Zn3 1.990164 1_655
O16 P4 1.537023 1_555
O17 P5 1.537023 1_555
O18 P6 1.537023 1_555
O19 P7 1.537023 1_555
O20 P0 1.537915 1_555
O21 P1 1.537915 1_555
O22 P2 1.537915 1_555
O23 P3 1.537915 1_555
O24 P4 1.564815 1_555
O24 Zn5 2.023381 1_565
O25 P5 1.564815 1_555
O25 Zn4 2.023381 1_545
O26 P6 1.564815 1_555
O26 Zn7 2.023381 1_545
O27 P7 1.564815 1_555
O27 Zn6 2.023381 1_565
O28 P0 1.559355 1_555
O28 Zn7 1.998547 1_554
O29 P1 1.559355 1_555
O29 Zn6 1.998547 1_555
O30 P2 1.559355 1_555
O30 Zn5 1.998547 1_556
O31 P3 1.559355 1_555
O31 Zn4 1.998547 1_555
O32 Zn0 1.943222 1_555
O32 Te0 1.958656 1_554
O32 Zn7 1.974079 1_554
O33 Zn1 1.943222 1_555
O33 Te1 1.958656 1_655
O33 Zn6 1.974079 1_555
O34 Zn2 1.943222 1_555
O34 Te2 1.958656 1_556
O34 Zn5 1.974079 1_556
O35 Zn3 1.943222 1_555
O35 Te3 1.958656 1_455
O35 Zn4 1.974079 1_555
O36 Te0 1.909242 1_555
O36 Zn2 1.968168 1_555
O37 Te1 1.909242 1_555
O37 Zn3 1.968168 1_555
O38 Te2 1.909242 1_555
O38 Zn0 1.968168 1_555
O39 Te3 1.909242 1_555
O39 Zn1 1.968168 1_555
O40 Te0 1.850134 1_555
O41 Te1 1.850134 1_555
O42 Te2 1.850134 1_555
O43 Te3 1.850134 1_555
