# generated using pymatgen
data_Nb3V3Ge2
_symmetry_space_group_name_H-M   'P 1'
_cell_length_a   4.99568486
_cell_length_b   4.99568486
_cell_length_c   4.99568486
_cell_angle_alpha   89.95246239
_cell_angle_beta   90.04753761
_cell_angle_gamma   90.04753761
_symmetry_Int_Tables_number   1
_chemical_formula_structural   Nb3V3Ge2
_chemical_formula_sum   'Nb3 V3 Ge2'
_cell_volume   124.67651501
_cell_formula_units_Z   1
loop_
 _symmetry_equiv_pos_site_id
 _symmetry_equiv_pos_as_xyz
  1  'x, y, z'
loop_
 _atom_site_type_symbol
 _atom_site_label
 _atom_site_symmetry_multiplicity
 _atom_site_fract_x
 _atom_site_fract_y
 _atom_site_fract_z
 _atom_site_occupancy
  Nb  Nb0  1  0.50123100  0.75000000  0.00123100  1
  Nb  Nb1  1  0.25000000  0.00123100  0.49876900  1
  Nb  Nb2  1  0.99876900  0.49876900  0.75000000  1
  V  V0  1  0.49967000  0.25000000  0.99967000  1
  V  V1  1  0.75000000  0.99967000  0.50033000  1
  V  V2  1  0.00033000  0.50033000  0.25000000  1
  Ge  Ge0  1  0.50316500  0.49683500  0.49683500  1
  Ge  Ge1  1  0.99683500  0.00316500  0.00316500  1
loop_
_geom_bond_atom_site_label_1
_geom_bond_atom_site_label_2
_geom_bond_distance
_geom_bond_site_symmetry_2
Nb0 V0 2.497867 1_564
Nb0 V0 2.497867 1_554
Nb1 V1 2.497867 1_545
Nb1 V1 2.497867 1_445
Nb2 V2 2.497867 1_655
Nb2 V2 2.497867 1_656
Ge0 V0 2.773897 1_554
Ge0 V1 2.773897 1_545
Ge0 V2 2.773897 1_655
Ge0 Nb2 2.779283 1_555
Ge0 Nb1 2.779283 1_555
Ge0 Nb0 2.779283 1_555
Ge0 V2 2.797487 1_555
Ge0 V0 2.797487 1_555
Ge0 V1 2.797487 1_555
Ge0 Nb1 2.820355 1_565
Ge0 Nb0 2.820355 1_556
Ge0 Nb2 2.820355 1_455
Ge1 V0 2.773897 1_554
Ge1 V1 2.773897 1_545
Ge1 V2 2.773897 1_655
Ge1 Nb0 2.779283 1_545
Ge1 Nb2 2.779283 1_554
Ge1 Nb1 2.779283 1_655
Ge1 V1 2.797487 1_544
Ge1 V2 2.797487 1_645
Ge1 V0 2.797487 1_654
Ge1 Nb2 2.820355 1_544
Ge1 Nb0 2.820355 1_645
Ge1 Nb1 2.820355 1_654
