# generated using pymatgen
data_Zr5Si6H36C12(Br10O3)2
_symmetry_space_group_name_H-M   'P 1'
_cell_length_a   10.25671248
_cell_length_b   14.18643618
_cell_length_c   23.75082536
_cell_angle_alpha   90.00000000
_cell_angle_beta   90.00000000
_cell_angle_gamma   96.98359606
_symmetry_Int_Tables_number   1
_chemical_formula_structural   Zr5Si6H36C12(Br10O3)2
_chemical_formula_sum   'Zr10 Si12 H72 C24 Br40 O12'
_cell_volume   3430.25301816
_cell_formula_units_Z   2
loop_
 _symmetry_equiv_pos_site_id
 _symmetry_equiv_pos_as_xyz
  1  'x, y, z'
loop_
 _atom_site_type_symbol
 _atom_site_label
 _atom_site_symmetry_multiplicity
 _atom_site_fract_x
 _atom_site_fract_y
 _atom_site_fract_z
 _atom_site_occupancy
  Zr  Zr0  1  0.50000000  0.00000000  0.50000000  1
  Zr  Zr1  1  0.50000000  0.50000000  0.00000000  1
  Zr  Zr2  1  0.83887739  0.09985459  0.81032104  1
  Zr  Zr3  1  0.16112261  0.40014541  0.31032104  1
  Zr  Zr4  1  0.16112261  0.90014541  0.18967896  1
  Zr  Zr5  1  0.83887739  0.59985459  0.68967896  1
  Zr  Zr6  1  0.09118986  0.95041432  0.86666382  1
  Zr  Zr7  1  0.90881014  0.54958568  0.36666382  1
  Zr  Zr8  1  0.90881014  0.04958568  0.13333618  1
  Zr  Zr9  1  0.09118986  0.45041432  0.63333618  1
  Si  Si0  1  0.64812992  0.15661881  0.41836177  1
  Si  Si1  1  0.35187008  0.34338119  0.91836177  1
  Si  Si2  1  0.35187008  0.84338119  0.58163823  1
  Si  Si3  1  0.64812992  0.65661881  0.08163823  1
  Si  Si4  1  0.48625279  0.22781719  0.52572419  1
  Si  Si5  1  0.51374721  0.27218281  0.02572419  1
  Si  Si6  1  0.51374721  0.77218281  0.47427581  1
  Si  Si7  1  0.48625279  0.72781719  0.97427581  1
  Si  Si8  1  0.33631710  0.06580942  0.61092412  1
  Si  Si9  1  0.66368290  0.43419058  0.11092412  1
  Si  Si10  1  0.66368290  0.93419058  0.38907588  1
  Si  Si11  1  0.33631710  0.56580942  0.88907588  1
  H  H0  1  0.56963924  0.28121893  0.36087847  1
  H  H1  1  0.43036076  0.21878107  0.86087847  1
  H  H2  1  0.43036076  0.71878107  0.63912153  1
  H  H3  1  0.56963924  0.78121893  0.13912153  1
  H  H4  1  0.61911789  0.18912586  0.31855832  1
  H  H5  1  0.38088211  0.31087414  0.81855832  1
  H  H6  1  0.38088211  0.81087414  0.68144168  1
  H  H7  1  0.61911789  0.68912586  0.18144168  1
  H  H8  1  0.46355207  0.17213510  0.35349218  1
  H  H9  1  0.53644793  0.32786490  0.85349218  1
  H  H10  1  0.53644793  0.82786490  0.64650782  1
  H  H11  1  0.46355207  0.67213510  0.14650782  1
  H  H12  1  0.85987707  0.17145386  0.46857201  1
  H  H13  1  0.14012293  0.32854614  0.96857201  1
  H  H14  1  0.14012293  0.82854614  0.53142799  1
  H  H15  1  0.85987707  0.67145386  0.03142799  1
  H  H16  1  0.88189341  0.18125077  0.39405770  1
  H  H17  1  0.11810659  0.31874923  0.89405770  1
  H  H18  1  0.11810659  0.81874923  0.60594230  1
  H  H19  1  0.88189341  0.68125077  0.10594230  1
  H  H20  1  0.83638405  0.27855415  0.43245459  1
  H  H21  1  0.16361595  0.22144585  0.93245459  1
  H  H22  1  0.16361595  0.72144585  0.56754541  1
  H  H23  1  0.83638405  0.77855415  0.06754541  1
  H  H24  1  0.31339229  0.33282394  0.51808670  1
  H  H25  1  0.68660771  0.16717606  0.01808670  1
  H  H26  1  0.68660771  0.66717606  0.48191330  1
  H  H27  1  0.31339229  0.83282394  0.98191330  1
  H  H28  1  0.42577625  0.34953490  0.46136188  1
  H  H29  1  0.57422375  0.15046510  0.96136188  1
  H  H30  1  0.57422375  0.65046510  0.53863812  1
  H  H31  1  0.42577625  0.84953490  0.03863812  1
  H  H32  1  0.30247039  0.24937131  0.46142955  1
  H  H33  1  0.69752961  0.25062869  0.96142955  1
  H  H34  1  0.69752961  0.75062869  0.53857045  1
  H  H35  1  0.30247039  0.74937131  0.03857045  1
  H  H36  1  0.66814063  0.25132696  0.59488371  1
  H  H37  1  0.33185937  0.24867304  0.09488371  1
  H  H38  1  0.33185937  0.74867304  0.40511629  1
  H  H39  1  0.66814063  0.75132696  0.90511629  1
  H  H40  1  0.67216539  0.34981505  0.54797022  1
  H  H41  1  0.32783461  0.15018495  0.04797022  1
  H  H42  1  0.32783461  0.65018495  0.45202978  1
  H  H43  1  0.67216539  0.84981505  0.95202978  1
  H  H44  1  0.55554668  0.33676721  0.60302937  1
  H  H45  1  0.44445332  0.16323279  0.10302937  1
  H  H46  1  0.44445332  0.66323279  0.39697063  1
  H  H47  1  0.55554668  0.83676721  0.89697063  1
  H  H48  1  0.11131393  0.05307725  0.57042053  1
  H  H49  1  0.88868607  0.44692275  0.07042053  1
  H  H50  1  0.88868607  0.94692275  0.42957947  1
  H  H51  1  0.11131393  0.55307725  0.92957947  1
  H  H52  1  0.11208608  0.00519151  0.63993591  1
  H  H53  1  0.88791392  0.49480849  0.13993591  1
  H  H54  1  0.88791392  0.99480849  0.36006409  1
  H  H55  1  0.11208608  0.50519151  0.86006409  1
  H  H56  1  0.12834518  0.12941294  0.63042510  1
  H  H57  1  0.87165482  0.37058706  0.13042510  1
  H  H58  1  0.87165482  0.87058706  0.36957490  1
  H  H59  1  0.12834518  0.62941294  0.86957490  1
  H  H60  1  0.40037792  0.16264859  0.69387736  1
  H  H61  1  0.59962208  0.33735141  0.19387736  1
  H  H62  1  0.59962208  0.83735141  0.30612264  1
  H  H63  1  0.40037792  0.66264859  0.80612264  1
  H  H64  1  0.37397930  0.04094768  0.71179129  1
  H  H65  1  0.62602070  0.45905232  0.21179129  1
  H  H66  1  0.62602070  0.95905232  0.28820871  1
  H  H67  1  0.37397930  0.54094768  0.78820871  1
  H  H68  1  0.52366959  0.08816441  0.67805309  1
  H  H69  1  0.47633041  0.41183559  0.17805309  1
  H  H70  1  0.47633041  0.91183559  0.32194691  1
  H  H71  1  0.52366959  0.58816441  0.82194691  1
  C  C0  1  0.56637456  0.20371663  0.35730930  1
  C  C1  1  0.43362544  0.29628337  0.85730930  1
  C  C2  1  0.43362544  0.79628337  0.64269070  1
  C  C3  1  0.56637456  0.70371663  0.14269070  1
  C  C4  1  0.82241516  0.20039605  0.42977571  1
  C  C5  1  0.17758484  0.29960395  0.92977571  1
  C  C6  1  0.17758484  0.79960395  0.57022429  1
  C  C7  1  0.82241516  0.70039605  0.07022429  1
  C  C8  1  0.37070569  0.29534635  0.48821842  1
  C  C9  1  0.62929431  0.20465365  0.98821842  1
  C  C10  1  0.62929431  0.70465365  0.51178158  1
  C  C11  1  0.37070569  0.79534635  0.01178158  1
  C  C12  1  0.60675554  0.29697740  0.57207927  1
  C  C13  1  0.39324446  0.20302260  0.07207927  1
  C  C14  1  0.39324446  0.70302260  0.42792073  1
  C  C15  1  0.60675554  0.79697740  0.92792073  1
  C  C16  1  0.15569893  0.06321604  0.61248064  1
  C  C17  1  0.84430107  0.43678396  0.11248064  1
  C  C18  1  0.84430107  0.93678396  0.38751936  1
  C  C19  1  0.15569893  0.56321604  0.88751936  1
  C  C20  1  0.41723212  0.09138968  0.67960940  1
  C  C21  1  0.58276788  0.40861032  0.17960940  1
  C  C22  1  0.58276788  0.90861032  0.32039060  1
  C  C23  1  0.41723212  0.59138968  0.82039060  1
  Br  Br0  1  0.71087756  0.00552002  0.55837643  1
  Br  Br1  1  0.28912244  0.49447998  0.05837643  1
  Br  Br2  1  0.28912244  0.99447998  0.44162357  1
  Br  Br3  1  0.71087756  0.50552002  0.94162357  1
  Br  Br4  1  0.59762411  0.04657634  0.82863703  1
  Br  Br5  1  0.40237589  0.45342366  0.32863703  1
  Br  Br6  1  0.40237589  0.95342366  0.17136297  1
  Br  Br7  1  0.59762411  0.54657634  0.67136297  1
  Br  Br8  1  0.84428323  0.27157190  0.84235508  1
  Br  Br9  1  0.15571677  0.22842810  0.34235508  1
  Br  Br10  1  0.15571677  0.72842810  0.15764492  1
  Br  Br11  1  0.84428323  0.77157190  0.65764492  1
  Br  Br12  1  0.82583709  0.12681475  0.70510942  1
  Br  Br13  1  0.17416291  0.37318525  0.20510942  1
  Br  Br14  1  0.17416291  0.87318525  0.29489058  1
  Br  Br15  1  0.82583709  0.62681475  0.79489058  1
  Br  Br16  1  0.91173279  0.05252334  0.91912290  1
  Br  Br17  1  0.08826721  0.44747666  0.41912290  1
  Br  Br18  1  0.08826721  0.94747666  0.08087710  1
  Br  Br19  1  0.91173279  0.55252334  0.58087710  1
  Br  Br20  1  0.87772677  0.91064113  0.79642381  1
  Br  Br21  1  0.12227323  0.58935887  0.29642381  1
  Br  Br22  1  0.12227323  0.08935887  0.20357619  1
  Br  Br23  1  0.87772677  0.41064113  0.70357619  1
  Br  Br24  1  0.11463994  0.11392665  0.80020232  1
  Br  Br25  1  0.88536006  0.38607335  0.30020232  1
  Br  Br26  1  0.88536006  0.88607335  0.19979768  1
  Br  Br27  1  0.11463994  0.61392665  0.69979768  1
  Br  Br28  1  0.01758263  0.80763296  0.92857737  1
  Br  Br29  1  0.98241737  0.69236704  0.42857737  1
  Br  Br30  1  0.98241737  0.19236704  0.07142263  1
  Br  Br31  1  0.01758263  0.30763296  0.57142263  1
  Br  Br32  1  0.27621351  0.02843365  0.93001473  1
  Br  Br33  1  0.72378649  0.47156635  0.43001473  1
  Br  Br34  1  0.72378649  0.97156635  0.06998527  1
  Br  Br35  1  0.27621351  0.52843365  0.56998527  1
  Br  Br36  1  0.23631450  0.86695172  0.80018685  1
  Br  Br37  1  0.76368550  0.63304828  0.30018685  1
  Br  Br38  1  0.76368550  0.13304828  0.19981315  1
  Br  Br39  1  0.23631450  0.36695172  0.69981315  1
  O  O0  1  0.62252852  0.03622342  0.41872954  1
  O  O1  1  0.37747148  0.46377658  0.91872954  1
  O  O2  1  0.37747148  0.96377658  0.58127046  1
  O  O3  1  0.62252852  0.53622342  0.08127046  1
  O  O4  1  0.55912252  0.15950542  0.47847452  1
  O  O5  1  0.44087748  0.34049458  0.97847452  1
  O  O6  1  0.44087748  0.84049458  0.52152548  1
  O  O7  1  0.55912252  0.65950542  0.02152548  1
  O  O8  1  0.41212760  0.13005989  0.55818661  1
  O  O9  1  0.58787240  0.36994011  0.05818661  1
  O  O10  1  0.58787240  0.86994011  0.44181339  1
  O  O11  1  0.41212760  0.63005989  0.94181339  1
loop_
_geom_bond_atom_site_label_1
_geom_bond_atom_site_label_2
_geom_bond_distance
_geom_bond_site_symmetry_2
C0 H8 1.098306 1_555
C0 H0 1.099188 1_555
C0 H4 1.099911 1_555
C0 Si0 1.840775 1_555
C1 H9 1.098306 1_555
C1 H1 1.099188 1_555
C1 H5 1.099911 1_555
C1 Si1 1.840775 1_555
C2 H10 1.098306 1_555
C2 H2 1.099188 1_555
C2 H6 1.099911 1_555
C2 Si2 1.840775 1_555
C3 H11 1.098306 1_555
C3 H3 1.099188 1_555
C3 H7 1.099911 1_555
C3 Si3 1.840775 1_555
C4 H12 1.097106 1_555
C4 H16 1.098130 1_555
C4 H20 1.102429 1_555
C4 Si0 1.839759 1_555
C5 H13 1.097106 1_555
C5 H17 1.098130 1_555
C5 H21 1.102429 1_555
C5 Si1 1.839759 1_555
C6 H14 1.097106 1_555
C6 H18 1.098130 1_555
C6 H22 1.102429 1_555
C6 Si2 1.839759 1_555
C7 H15 1.097106 1_555
C7 H19 1.098130 1_555
C7 H23 1.102429 1_555
C7 Si3 1.839759 1_555
C8 H24 1.098856 1_555
C8 H32 1.099561 1_555
C8 H28 1.100588 1_555
C8 Si4 1.841711 1_555
C9 H25 1.098856 1_556
C9 H33 1.099561 1_555
C9 H29 1.100588 1_555
C9 Si5 1.841711 1_556
C10 H26 1.098856 1_555
C10 H34 1.099561 1_555
C10 H30 1.100588 1_555
C10 Si6 1.841711 1_555
C11 H27 1.098856 1_554
C11 H35 1.099561 1_555
C11 H31 1.100588 1_555
C11 Si7 1.841711 1_554
C12 H44 1.098616 1_555
C12 H36 1.099238 1_555
C12 H40 1.103429 1_555
C12 Si4 1.845939 1_555
C13 H45 1.098616 1_555
C13 H37 1.099238 1_555
C13 H41 1.103429 1_555
C13 Si5 1.845939 1_555
C14 H46 1.098616 1_555
C14 H38 1.099238 1_555
C14 H42 1.103429 1_555
C14 Si6 1.845939 1_555
C15 H47 1.098616 1_555
C15 H39 1.099238 1_555
C15 H43 1.103429 1_555
C15 Si7 1.845939 1_555
C16 H56 1.098331 1_555
C16 H48 1.099972 1_555
C16 H52 1.101530 1_555
C16 Si8 1.848806 1_555
C17 H57 1.098331 1_555
C17 H49 1.099972 1_555
C17 H53 1.101530 1_555
C17 Si9 1.848806 1_555
C18 H58 1.098331 1_555
C18 H50 1.099972 1_555
C18 H54 1.101530 1_555
C18 Si10 1.848806 1_555
C19 H59 1.098331 1_555
C19 H51 1.099972 1_555
C19 H55 1.101530 1_555
C19 Si11 1.848806 1_555
C20 H68 1.098823 1_555
C20 H60 1.099616 1_555
C20 H64 1.102683 1_555
C20 Si8 1.846204 1_555
C21 H69 1.098823 1_555
C21 H61 1.099616 1_555
C21 H65 1.102683 1_555
C21 Si9 1.846204 1_555
C22 H70 1.098823 1_555
C22 H62 1.099616 1_555
C22 H66 1.102683 1_555
C22 Si10 1.846204 1_555
C23 H71 1.098823 1_555
C23 H63 1.099616 1_555
C23 H67 1.102683 1_555
C23 Si11 1.846204 1_555
Br0 Zr0 2.562319 1_555
Br1 Zr1 2.562319 1_555
Br2 Zr0 2.562319 1_565
Br3 Zr1 2.562319 1_556
Br4 Zr2 2.535489 1_555
Br5 Zr3 2.535489 1_555
Br6 Zr4 2.535489 1_555
Br7 Zr5 2.535489 1_555
Br8 Zr2 2.546266 1_555
Br9 Zr3 2.546266 1_555
Br10 Zr4 2.546266 1_555
Br11 Zr5 2.546266 1_555
Br12 Zr2 2.533955 1_555
Br13 Zr3 2.533955 1_555
Br14 Zr4 2.533955 1_555
Br15 Zr5 2.533955 1_555
Br16 Zr6 2.772550 1_645
Br16 Zr2 2.794461 1_555
Br17 Zr7 2.772550 1_455
Br17 Zr3 2.794461 1_555
Br18 Zr8 2.772550 1_465
Br18 Zr4 2.794461 1_555
Br19 Zr9 2.772550 1_655
Br19 Zr5 2.794461 1_555
Br20 Zr6 2.755839 1_655
Br20 Zr2 2.780844 1_565
Br21 Zr7 2.755839 1_455
Br21 Zr3 2.780844 1_555
Br22 Zr8 2.755839 1_455
Br22 Zr4 2.780844 1_545
Br23 Zr9 2.755839 1_655
Br23 Zr5 2.780844 1_555
Br24 Zr6 2.791899 1_545
Br24 Zr2 2.821391 1_455
Br25 Zr7 2.791899 1_555
Br25 Zr3 2.821391 1_655
Br26 Zr8 2.791899 1_565
Br26 Zr4 2.821391 1_655
Br27 Zr9 2.791899 1_555
Br27 Zr5 2.821391 1_455
Br28 Zr6 2.542315 1_555
Br29 Zr7 2.542315 1_555
Br30 Zr8 2.542315 1_555
Br31 Zr9 2.542315 1_555
Br32 Zr6 2.565074 1_545
Br33 Zr7 2.565074 1_555
Br34 Zr8 2.565074 1_565
Br35 Zr9 2.565074 1_555
Br36 Zr6 2.557152 1_555
Br37 Zr7 2.557152 1_555
Br38 Zr8 2.557152 1_555
Br39 Zr9 2.557152 1_555
O0 Si0 1.696222 1_555
O0 Si10 1.708214 1_545
O0 Zr0 2.326425 1_555
O1 Si1 1.696222 1_555
O1 Si11 1.708214 1_555
O1 Zr1 2.326425 1_556
O2 Si2 1.696222 1_555
O2 Si8 1.708214 1_565
O2 Zr0 2.326425 1_565
O3 Si3 1.696222 1_555
O3 Si9 1.708214 1_555
O3 Zr1 2.326425 1_555
O4 Si0 1.697823 1_555
O4 Si4 1.712680 1_555
O4 Zr0 2.327177 1_555
O5 Si1 1.697823 1_555
O5 Si5 1.712680 1_556
O5 Zr1 2.327177 1_556
O6 Si2 1.697823 1_555
O6 Si6 1.712680 1_555
O6 Zr0 2.327177 1_565
O7 Si3 1.697823 1_555
O7 Si7 1.712680 1_554
O7 Zr1 2.327177 1_555
O8 Si8 1.682847 1_555
O8 Si4 1.685046 1_555
O8 Zr0 2.555563 1_555
O9 Si9 1.682847 1_555
O9 Si5 1.685046 1_555
O9 Zr1 2.555563 1_555
O10 Si10 1.682847 1_555
O10 Si6 1.685046 1_555
O10 Zr0 2.555563 1_565
O11 Si11 1.682847 1_555
O11 Si7 1.685046 1_555
O11 Zr1 2.555563 1_556
