# generated using pymatgen
data_Ba3HoIrRuO9
_symmetry_space_group_name_H-M   'P 1'
_cell_length_a   5.94502416
_cell_length_b   5.94502416
_cell_length_c   14.66923600
_cell_angle_alpha   90.00000000
_cell_angle_beta   90.00000000
_cell_angle_gamma   120.00000183
_symmetry_Int_Tables_number   1
_chemical_formula_structural   Ba3HoIrRuO9
_chemical_formula_sum   'Ba6 Ho2 Ir2 Ru2 O18'
_cell_volume   448.99899376
_cell_formula_units_Z   2
loop_
 _symmetry_equiv_pos_site_id
 _symmetry_equiv_pos_as_xyz
  1  'x, y, z'
loop_
 _atom_site_type_symbol
 _atom_site_label
 _atom_site_symmetry_multiplicity
 _atom_site_fract_x
 _atom_site_fract_y
 _atom_site_fract_z
 _atom_site_occupancy
  Ba  Ba0  1  0.00000000  0.00000000  0.75006800  1
  Ba  Ba1  1  0.00000000  0.00000000  0.25006800  1
  Ba  Ba2  1  0.66666700  0.33333300  0.40718800  1
  Ba  Ba3  1  0.33333300  0.66666700  0.59459200  1
  Ba  Ba4  1  0.33333300  0.66666700  0.90718800  1
  Ba  Ba5  1  0.66666700  0.33333300  0.09459200  1
  Ho  Ho0  1  0.00000000  0.00000000  0.50123800  1
  Ho  Ho1  1  0.00000000  0.00000000  0.00123800  1
  Ir  Ir0  1  0.66666700  0.33333300  0.66448500  1
  Ir  Ir1  1  0.33333300  0.66666700  0.16448500  1
  Ru  Ru0  1  0.33333300  0.66666700  0.33688900  1
  Ru  Ru1  1  0.66666700  0.33333300  0.83688900  1
  O  O0  1  0.82428600  0.64857200  0.91181100  1
  O  O1  1  0.82428600  0.17571400  0.91181100  1
  O  O2  1  0.35142800  0.17571400  0.91181100  1
  O  O3  1  0.17543800  0.35087600  0.08587000  1
  O  O4  1  0.17543800  0.82456200  0.08587000  1
  O  O5  1  0.64912400  0.82456200  0.08587000  1
  O  O6  1  0.17571400  0.35142800  0.41181100  1
  O  O7  1  0.17571400  0.82428600  0.41181100  1
  O  O8  1  0.64857200  0.82428600  0.41181100  1
  O  O9  1  0.82456200  0.64912400  0.58587000  1
  O  O10  1  0.82456200  0.17543800  0.58587000  1
  O  O11  1  0.35087600  0.17543800  0.58587000  1
  O  O12  1  0.51014400  0.02028800  0.75084100  1
  O  O13  1  0.51014400  0.48985600  0.75084100  1
  O  O14  1  0.97971200  0.48985600  0.75084100  1
  O  O15  1  0.48985600  0.97971200  0.25084100  1
  O  O16  1  0.48985600  0.51014400  0.25084100  1
  O  O17  1  0.02028800  0.51014400  0.25084100  1
loop_
_geom_bond_atom_site_label_1
_geom_bond_atom_site_label_2
_geom_bond_distance
_geom_bond_site_symmetry_2
Ba0 O13 2.974368 1_445
Ba0 O13 2.974368 1_555
Ba0 O14 2.974368 1_445
Ba0 O12 2.974368 1_555
Ba0 O12 2.974368 1_455
Ba0 O14 2.974368 1_455
Ba0 O0 2.983818 1_445
Ba0 O2 2.983818 1_555
Ba0 O1 2.983818 1_455
Ba0 O11 3.010827 1_555
Ba0 O9 3.010827 1_445
Ba0 O10 3.010827 1_455
Ba1 O16 2.974368 1_445
Ba1 O16 2.974368 1_555
Ba1 O15 2.974368 1_445
Ba1 O17 2.974368 1_555
Ba1 O17 2.974368 1_545
Ba1 O15 2.974368 1_545
Ba1 O6 2.983818 1_555
Ba1 O8 2.983818 1_445
Ba1 O7 2.983818 1_545
Ba1 O5 3.010827 1_445
Ba1 O3 3.010827 1_555
Ba1 O4 3.010827 1_545
Ba2 O15 2.928277 1_545
Ba2 O17 2.928277 1_655
Ba2 O16 2.928280 1_555
Ba2 O6 2.974742 1_655
Ba2 O8 2.974742 1_545
Ba2 O7 2.974745 1_655
Ba2 O7 2.974745 1_545
Ba2 O8 2.974748 1_555
Ba2 O6 2.974748 1_555
Ba2 O10 3.084433 1_555
Ba2 O11 3.084436 1_555
Ba2 O9 3.084436 1_555
Ba3 O14 2.927151 1_455
Ba3 O12 2.927151 1_565
Ba3 O13 2.927154 1_555
Ba3 O9 2.976632 1_455
Ba3 O11 2.976632 1_565
Ba3 O10 2.976635 1_565
Ba3 O10 2.976635 1_455
Ba3 O9 2.976638 1_555
Ba3 O11 2.976638 1_555
Ba3 O7 3.134218 1_555
Ba3 O8 3.134221 1_555
Ba3 O6 3.134221 1_555
Ba4 O14 2.928277 1_455
Ba4 O12 2.928277 1_565
Ba4 O13 2.928280 1_555
Ba4 O2 2.974742 1_565
Ba4 O0 2.974742 1_455
Ba4 O1 2.974745 1_455
Ba4 O1 2.974745 1_565
Ba4 O0 2.974748 1_555
Ba4 O2 2.974748 1_555
Ba4 O4 3.084433 1_556
Ba4 O3 3.084436 1_556
Ba4 O5 3.084436 1_556
Ba5 O15 2.927151 1_545
Ba5 O17 2.927151 1_655
Ba5 O16 2.927154 1_555
Ba5 O3 2.976632 1_655
Ba5 O5 2.976632 1_545
Ba5 O4 2.976635 1_655
Ba5 O4 2.976635 1_545
Ba5 O5 2.976638 1_555
Ba5 O3 2.976638 1_555
Ba5 O1 3.134218 1_554
Ba5 O2 3.134221 1_554
Ba5 O0 3.134221 1_554
Ho0 O11 2.191970 1_555
Ho0 O9 2.191970 1_445
Ho0 O10 2.191970 1_455
Ho0 O8 2.234861 1_445
Ho0 O6 2.234861 1_555
Ho0 O7 2.234861 1_545
Ho1 O5 2.191970 1_445
Ho1 O3 2.191970 1_555
Ho1 O4 2.191970 1_545
Ho1 O2 2.234861 1_554
Ho1 O0 2.234861 1_444
Ho1 O1 2.234861 1_454
Ir0 O10 1.993323 1_555
Ir0 O11 1.993327 1_555
Ir0 O9 1.993327 1_555
Ir0 O12 2.049971 1_555
Ir0 O14 2.049971 1_555
Ir0 O13 2.049975 1_555
Ir1 O4 1.993323 1_555
Ir1 O3 1.993327 1_555
Ir1 O5 1.993327 1_555
Ir1 O17 2.049971 1_555
Ir1 O15 2.049971 1_555
Ir1 O16 2.049975 1_555
O0 Ru1 1.960129 1_555
O1 Ru1 1.960125 1_555
O2 Ru1 1.960129 1_555
O6 Ru0 1.960129 1_555
O7 Ru0 1.960125 1_555
O8 Ru0 1.960129 1_555
O12 Ru1 2.047182 1_555
O13 Ru1 2.047186 1_555
O14 Ru1 2.047182 1_555
O15 Ru0 2.047182 1_555
O16 Ru0 2.047186 1_555
O17 Ru0 2.047182 1_555
