# generated using pymatgen
data_CeNiPt
_symmetry_space_group_name_H-M   'P 1'
_cell_length_a   4.20065000
_cell_length_b   6.97695500
_cell_length_c   7.74945400
_cell_angle_alpha   90.00000000
_cell_angle_beta   90.00000000
_cell_angle_gamma   90.00000000
_symmetry_Int_Tables_number   1
_chemical_formula_structural   CeNiPt
_chemical_formula_sum   'Ce4 Ni4 Pt4'
_cell_volume   227.11902963
_cell_formula_units_Z   4
loop_
 _symmetry_equiv_pos_site_id
 _symmetry_equiv_pos_as_xyz
  1  'x, y, z'
loop_
 _atom_site_type_symbol
 _atom_site_label
 _atom_site_symmetry_multiplicity
 _atom_site_fract_x
 _atom_site_fract_y
 _atom_site_fract_z
 _atom_site_occupancy
  Ce  Ce0  1  0.25000000  0.99973000  0.28812400  1
  Ce  Ce1  1  0.25000000  0.49973000  0.21187600  1
  Ce  Ce2  1  0.75000000  0.00027000  0.71187600  1
  Ce  Ce3  1  0.75000000  0.50027000  0.78812400  1
  Ni  Ni0  1  0.25000000  0.18885900  0.90807800  1
  Ni  Ni1  1  0.25000000  0.68885900  0.59192200  1
  Ni  Ni2  1  0.75000000  0.81114100  0.09192200  1
  Ni  Ni3  1  0.75000000  0.31114100  0.40807800  1
  Pt  Pt0  1  0.25000000  0.27973800  0.58970000  1
  Pt  Pt1  1  0.25000000  0.77973800  0.91030000  1
  Pt  Pt2  1  0.75000000  0.72026200  0.41030000  1
  Pt  Pt3  1  0.75000000  0.22026200  0.08970000  1
loop_
_geom_bond_atom_site_label_1
_geom_bond_atom_site_label_2
_geom_bond_distance
_geom_bond_site_symmetry_2
Ce0 Ni2 2.907650 1_455
Ce0 Ni2 2.907650 1_555
Ce0 Pt2 3.018220 1_555
Ce0 Pt2 3.018220 1_455
Ce0 Pt3 3.023778 1_565
Ce0 Pt3 3.023778 1_465
Ce0 Pt0 3.046041 1_565
Ce0 Ni3 3.161662 1_565
Ce0 Ni3 3.161662 1_465
Ce0 Ni1 3.201070 1_555
Ce0 Ni0 3.227243 1_564
Ce0 Pt1 3.305845 1_554
Ce0 Ce1 3.538165 1_565
Ce0 Ce1 3.538165 1_555
Ce1 Ni3 2.907650 1_455
Ce1 Ni3 2.907650 1_555
Ce1 Pt3 3.018220 1_455
Ce1 Pt3 3.018220 1_555
Ce1 Pt2 3.023778 1_555
Ce1 Pt2 3.023778 1_455
Ce1 Pt1 3.046041 1_554
Ce1 Ni2 3.161662 1_455
Ce1 Ni2 3.161662 1_555
Ce1 Ni0 3.201070 1_554
Ce1 Ni1 3.227243 1_555
Ce1 Pt0 3.305845 1_555
Ce2 Ni0 2.907650 1_555
Ce2 Ni0 2.907650 1_655
Ce2 Pt0 3.018220 1_655
Ce2 Pt0 3.018220 1_555
Ce2 Pt1 3.023778 1_545
Ce2 Pt1 3.023778 1_645
Ce2 Pt2 3.046041 1_545
Ce2 Ni1 3.161662 1_545
Ce2 Ni1 3.161662 1_645
Ce2 Ni3 3.201070 1_555
Ce2 Ni2 3.227243 1_546
Ce2 Pt3 3.305845 1_556
Ce2 Ce3 3.538165 1_545
Ce2 Ce3 3.538165 1_555
Ce3 Ni1 2.907650 1_655
Ce3 Ni1 2.907650 1_555
Ce3 Pt1 3.018220 1_555
Ce3 Pt1 3.018220 1_655
Ce3 Pt0 3.023778 1_555
Ce3 Pt0 3.023778 1_655
Ce3 Pt3 3.046041 1_556
Ce3 Ni0 3.161662 1_655
Ce3 Ni0 3.161662 1_555
Ce3 Ni2 3.201070 1_556
Ce3 Ni3 3.227243 1_555
Ce3 Pt2 3.305845 1_555
Ni0 Pt3 2.537783 1_556
Ni0 Pt3 2.537783 1_456
Ni0 Pt0 2.547426 1_555
Ni0 Pt1 2.854471 1_545
Ni1 Pt2 2.537783 1_555
Ni1 Pt2 2.537783 1_455
Ni1 Pt1 2.547426 1_555
Ni1 Pt0 2.854471 1_555
Ni2 Pt1 2.537783 1_654
Ni2 Pt1 2.537783 1_554
Ni2 Pt2 2.547426 1_555
Ni2 Pt3 2.854471 1_565
Ni3 Pt0 2.537783 1_555
Ni3 Pt0 2.537783 1_655
Ni3 Pt3 2.547426 1_555
Ni3 Pt2 2.854471 1_555
