# generated using pymatgen
data_MgVSF5
_symmetry_space_group_name_H-M   'P 1'
_cell_length_a   5.61330800
_cell_length_b   6.30817604
_cell_length_c   7.46667081
_cell_angle_alpha   105.50738177
_cell_angle_beta   102.22469449
_cell_angle_gamma   99.99893684
_symmetry_Int_Tables_number   1
_chemical_formula_structural   MgVSF5
_chemical_formula_sum   'Mg2 V2 S2 F10'
_cell_volume   241.43483757
_cell_formula_units_Z   2
loop_
 _symmetry_equiv_pos_site_id
 _symmetry_equiv_pos_as_xyz
  1  'x, y, z'
loop_
 _atom_site_type_symbol
 _atom_site_label
 _atom_site_symmetry_multiplicity
 _atom_site_fract_x
 _atom_site_fract_y
 _atom_site_fract_z
 _atom_site_occupancy
  Mg  Mg0  1  0.41327700  0.60141400  0.68824200  1
  Mg  Mg1  1  0.61263000  0.44731400  0.23189000  1
  V  V0  1  0.52319900  0.94873100  0.45005500  1
  V  V1  1  0.96676900  0.40162000  0.94597100  1
  S  S0  1  0.90860600  0.05888700  0.69824400  1
  S  S1  1  0.09561800  0.01458600  0.35935200  1
  F  F0  1  0.25572900  0.33213400  0.08860700  1
  F  F1  1  0.56798200  0.63222100  0.47523700  1
  F  F2  1  0.96804700  0.64165000  0.22779500  1
  F  F3  1  0.18799100  0.31325500  0.46908300  1
  F  F4  1  0.61639600  0.22126800  0.38987800  1
  F  F5  1  0.72670400  0.23994400  0.04384300  1
  F  F6  1  0.38579400  0.90010400  0.66228300  1
  F  F7  1  0.18593600  0.58987700  0.84705300  1
  F  F8  1  0.52811900  0.77481300  0.20889700  1
  F  F9  1  0.68743100  0.51517600  0.82732800  1
loop_
_geom_bond_atom_site_label_1
_geom_bond_atom_site_label_2
_geom_bond_distance
_geom_bond_site_symmetry_2
S0 V1 2.358606 1_555
S0 V0 2.385142 1_545
S1 V0 2.490028 1_545
F0 V1 1.929324 1_454
F0 Mg1 1.963992 1_555
F1 Mg1 1.971268 1_555
F1 Mg0 2.003238 1_555
F1 V0 2.107126 1_555
F2 Mg1 2.163476 1_555
F2 S1 2.212142 1_665
F2 V1 2.237592 1_554
F3 S1 1.773481 1_555
F3 Mg0 2.077505 1_555
F4 V0 1.905661 1_545
F4 Mg1 2.079585 1_555
F5 V1 1.930913 1_554
F5 Mg1 1.944779 1_555
F6 Mg0 1.973601 1_555
F6 V0 1.973684 1_555
F7 Mg0 1.922147 1_555
F7 V1 1.953408 1_455
F8 V0 1.849856 1_555
F8 Mg1 2.240099 1_555
F9 Mg0 1.912770 1_555
F9 V1 1.974251 1_555
