# generated using pymatgen
data_PRhO10
_symmetry_space_group_name_H-M   'P 1'
_cell_length_a   6.14091259
_cell_length_b   6.14091259
_cell_length_c   24.71920296
_cell_angle_alpha   80.47703068
_cell_angle_beta   80.47703068
_cell_angle_gamma   65.94672601
_symmetry_Int_Tables_number   1
_chemical_formula_structural   PRhO10
_chemical_formula_sum   'P4 Rh4 O40'
_cell_volume   834.51992825
_cell_formula_units_Z   4
loop_
 _symmetry_equiv_pos_site_id
 _symmetry_equiv_pos_as_xyz
  1  'x, y, z'
loop_
 _atom_site_type_symbol
 _atom_site_label
 _atom_site_symmetry_multiplicity
 _atom_site_fract_x
 _atom_site_fract_y
 _atom_site_fract_z
 _atom_site_occupancy
  P  P0  1  0.80888800  0.93020200  0.37982900  1
  P  P1  1  0.06979800  0.19111200  0.12017100  1
  P  P2  1  0.19111200  0.06979800  0.62017100  1
  P  P3  1  0.93020200  0.80888800  0.87982900  1
  Rh  Rh0  1  0.44279100  0.55720900  0.25000000  1
  Rh  Rh1  1  0.55720900  0.44279100  0.75000000  1
  Rh  Rh2  1  0.50000000  0.50000000  0.50000000  1
  Rh  Rh3  1  0.50000000  0.50000000  0.00000000  1
  O  O0  1  0.39018600  0.85118400  0.27807400  1
  O  O1  1  0.14881600  0.60981400  0.22192600  1
  O  O2  1  0.60981400  0.14881600  0.72192600  1
  O  O3  1  0.85118400  0.39018600  0.77807400  1
  O  O4  1  0.73951400  0.50417100  0.27707300  1
  O  O5  1  0.49582900  0.26048600  0.22292700  1
  O  O6  1  0.26048600  0.49582900  0.72292700  1
  O  O7  1  0.50417100  0.73951400  0.77707300  1
  O  O8  1  0.28894000  0.39998500  0.30801600  1
  O  O9  1  0.60001500  0.71106000  0.19198400  1
  O  O10  1  0.71106000  0.60001500  0.69198400  1
  O  O11  1  0.39998500  0.28894000  0.80801600  1
  O  O12  1  0.59186200  0.36363300  0.57289900  1
  O  O13  1  0.63636700  0.40813800  0.92710100  1
  O  O14  1  0.40813800  0.63636700  0.42710100  1
  O  O15  1  0.36363300  0.59186200  0.07289900  1
  O  O16  1  0.81232300  0.38930400  0.45806300  1
  O  O17  1  0.61069600  0.18767700  0.04193700  1
  O  O18  1  0.18767700  0.61069600  0.54193700  1
  O  O19  1  0.38930400  0.81232300  0.95806300  1
  O  O20  1  0.35432600  0.30105700  0.48188500  1
  O  O21  1  0.69894300  0.64567400  0.01811500  1
  O  O22  1  0.64567400  0.69894300  0.51811500  1
  O  O23  1  0.30105700  0.35432600  0.98188500  1
  O  O24  1  0.85143300  0.67209100  0.37056000  1
  O  O25  1  0.32790900  0.14856700  0.12944000  1
  O  O26  1  0.14856700  0.32790900  0.62944000  1
  O  O27  1  0.67209100  0.85143300  0.87056000  1
  O  O28  1  0.91940000  0.93524600  0.43074500  1
  O  O29  1  0.06475400  0.08060000  0.06925500  1
  O  O30  1  0.08060000  0.06475400  0.56925500  1
  O  O31  1  0.93524600  0.91940000  0.93074500  1
  O  O32  1  0.53445800  0.06746800  0.38839800  1
  O  O33  1  0.93253200  0.46554200  0.11160200  1
  O  O34  1  0.46554200  0.93253200  0.61160200  1
  O  O35  1  0.06746800  0.53445800  0.88839800  1
  O  O36  1  0.92679100  0.03817100  0.32871800  1
  O  O37  1  0.96182900  0.07320900  0.17128200  1
  O  O38  1  0.07320900  0.96182900  0.67128200  1
  O  O39  1  0.03817100  0.92679100  0.82871800  1
loop_
_geom_bond_atom_site_label_1
_geom_bond_atom_site_label_2
_geom_bond_distance
_geom_bond_site_symmetry_2
O0 Rh0 1.926117 1_555
O1 Rh0 1.926117 1_555
O2 Rh1 1.926117 1_555
O3 Rh1 1.926117 1_555
O4 Rh0 1.929185 1_555
O5 Rh0 1.929185 1_555
O6 Rh1 1.929185 1_555
O7 Rh1 1.929185 1_555
O8 Rh0 1.928364 1_555
O9 Rh0 1.928364 1_555
O10 Rh1 1.928364 1_555
O11 Rh1 1.928364 1_555
O12 Rh2 1.928386 1_555
O13 Rh3 1.928386 1_556
O14 Rh2 1.928386 1_555
O15 Rh3 1.928386 1_555
O16 Rh2 1.930739 1_555
O17 Rh3 1.930739 1_555
O18 Rh2 1.930739 1_555
O19 Rh3 1.930739 1_556
O20 Rh2 1.922955 1_555
O21 Rh3 1.922955 1_555
O22 Rh2 1.922955 1_555
O23 Rh3 1.922955 1_556
O24 P0 1.547864 1_555
O25 P1 1.547864 1_555
O26 P2 1.547864 1_555
O27 P3 1.547864 1_555
O28 P0 1.535662 1_555
O29 P1 1.535662 1_555
O30 P2 1.535662 1_555
O31 P3 1.535662 1_555
O32 P0 1.542220 1_545
O33 P1 1.542220 1_655
O34 P2 1.542220 1_565
O35 P3 1.542220 1_455
O36 P0 1.539979 1_545
O37 P1 1.539979 1_655
O38 P2 1.539979 1_565
O39 P3 1.539979 1_455
