# generated using pymatgen
data_In3SnAu4
_symmetry_space_group_name_H-M   'P 1'
_cell_length_a   3.76944421
_cell_length_b   4.23977971
_cell_length_c   10.68374302
_cell_angle_alpha   90.00000000
_cell_angle_beta   90.00000000
_cell_angle_gamma   90.00000000
_symmetry_Int_Tables_number   1
_chemical_formula_structural   In3SnAu4
_chemical_formula_sum   'In3 Sn1 Au4'
_cell_volume   170.74344719
_cell_formula_units_Z   1
loop_
 _symmetry_equiv_pos_site_id
 _symmetry_equiv_pos_as_xyz
  1  'x, y, z'
loop_
 _atom_site_type_symbol
 _atom_site_label
 _atom_site_symmetry_multiplicity
 _atom_site_fract_x
 _atom_site_fract_y
 _atom_site_fract_z
 _atom_site_occupancy
  In  In0  1  -0.00000000  0.50000000  0.85602886  1
  In  In1  1  -0.00000000  0.00000000  0.14162285  1
  In  In2  1  0.50000000  -0.00000000  0.64619674  1
  Sn  Sn0  1  0.50000000  0.50000000  0.35458091  1
  Au  Au0  1  0.50000000  0.50000000  0.09252875  1
  Au  Au1  1  -0.00000000  0.50000000  0.59422180  1
  Au  Au2  1  -0.00000000  0.00000000  0.40616325  1
  Au  Au3  1  0.50000000  -0.00000000  0.90865784  1
loop_
_geom_bond_atom_site_label_1
_geom_bond_atom_site_label_2
_geom_bond_distance
_geom_bond_site_symmetry_2
Au0 Sn0 2.799698 1_555
Au0 In1 2.884652 1_555
Au0 In1 2.884652 1_565
Au0 In1 2.884652 1_655
Au0 In1 2.884652 1_665
Au0 Au3 2.890141 1_564
Au0 Au3 2.890141 1_554
Au0 In0 3.152207 1_554
Au0 In0 3.152207 1_654
Au1 In0 2.797079 1_555
Au1 In2 2.890407 1_555
Au1 In2 2.890407 1_565
Au1 In2 2.890407 1_465
Au1 In2 2.890407 1_455
Au1 Au2 2.920735 1_565
Au1 Au2 2.920735 1_555
Au1 Sn0 3.179169 1_555
Au1 Sn0 3.179169 1_455
Au2 In1 2.826282 1_555
Au2 Sn0 2.889604 1_555
Au2 Sn0 2.889604 1_545
Au2 Sn0 2.889604 1_445
Au2 Sn0 2.889604 1_455
Au2 In2 3.182548 1_555
Au2 In2 3.182548 1_455
Au3 In2 2.804067 1_555
Au3 In0 2.891758 1_545
Au3 In0 2.891758 1_555
Au3 In0 2.891758 1_655
Au3 In0 2.891758 1_645
Au3 In1 3.122017 1_656
Au3 In1 3.122017 1_556
