# generated using pymatgen
data_Sr3Mg
_symmetry_space_group_name_H-M   'P 1'
_cell_length_a   15.16286486
_cell_length_b   15.16286486
_cell_length_c   15.16286486
_cell_angle_alpha   146.90963289
_cell_angle_beta   127.74586651
_cell_angle_gamma   63.25819241
_symmetry_Int_Tables_number   1
_chemical_formula_structural   Sr3Mg
_chemical_formula_sum   'Sr24 Mg8'
_cell_volume   1488.93562626
_cell_formula_units_Z   8
loop_
 _symmetry_equiv_pos_site_id
 _symmetry_equiv_pos_as_xyz
  1  'x, y, z'
loop_
 _atom_site_type_symbol
 _atom_site_label
 _atom_site_symmetry_multiplicity
 _atom_site_fract_x
 _atom_site_fract_y
 _atom_site_fract_z
 _atom_site_occupancy
  Sr  Sr0_0  1  0.45253800  0.25000000  0.20253800  1
  Sr  Sr0_1  1  0.45253800  0.25000000  0.70253800  1
  Sr  Sr0_2  1  0.45253800  0.75000000  0.20253800  1
  Sr  Sr0_3  1  0.45253800  0.75000000  0.70253800  1
  Sr  Sr0_4  1  0.95253800  0.25000000  0.20253800  1
  Sr  Sr0_5  1  0.95253800  0.25000000  0.70253800  1
  Sr  Sr0_6  1  0.95253800  0.75000000  0.20253800  1
  Sr  Sr0_7  1  0.95253800  0.75000000  0.70253800  1
  Sr  Sr1_0  1  0.11698450  0.14239250  0.47459200  1
  Sr  Sr1_1  1  0.11698450  0.14239250  0.97459200  1
  Sr  Sr1_2  1  0.11698450  0.64239250  0.47459200  1
  Sr  Sr1_3  1  0.11698450  0.64239250  0.97459200  1
  Sr  Sr1_4  1  0.61698450  0.14239250  0.47459200  1
  Sr  Sr1_5  1  0.61698450  0.14239250  0.97459200  1
  Sr  Sr1_6  1  0.61698450  0.64239250  0.47459200  1
  Sr  Sr1_7  1  0.61698450  0.64239250  0.97459200  1
  Sr  Sr2_0  1  0.33219950  0.35760750  0.47459200  1
  Sr  Sr2_1  1  0.33219950  0.35760750  0.97459200  1
  Sr  Sr2_2  1  0.33219950  0.85760750  0.47459200  1
  Sr  Sr2_3  1  0.33219950  0.85760750  0.97459200  1
  Sr  Sr2_4  1  0.83219950  0.35760750  0.47459200  1
  Sr  Sr2_5  1  0.83219950  0.35760750  0.97459200  1
  Sr  Sr2_6  1  0.83219950  0.85760750  0.47459200  1
  Sr  Sr2_7  1  0.83219950  0.85760750  0.97459200  1
  Mg  Mg0_0  1  0.18161100  0.00000000  0.18161100  1
  Mg  Mg0_1  1  0.18161100  0.00000000  0.68161100  1
  Mg  Mg0_2  1  0.18161100  0.50000000  0.18161100  1
  Mg  Mg0_3  1  0.18161100  0.50000000  0.68161100  1
  Mg  Mg0_4  1  0.68161100  0.00000000  0.18161100  1
  Mg  Mg0_5  1  0.68161100  0.00000000  0.68161100  1
  Mg  Mg0_6  1  0.68161100  0.50000000  0.18161100  1
  Mg  Mg0_7  1  0.68161100  0.50000000  0.68161100  1
loop_
_geom_bond_atom_site_label_1
_geom_bond_atom_site_label_2
_geom_bond_distance
_geom_bond_site_symmetry_2
Sr0_0 Sr2_1 4.121492 1_554
Sr0_0 Sr1_1 4.121492 1_554
Sr0_0 Sr1_6 4.273913 1_555
Sr0_0 Sr2_0 4.273913 1_555
Sr0_0 Sr1_5 4.273913 1_554
Sr0_0 Sr2_3 4.273913 1_544
Sr0_0 Sr0_3 4.317950 1_555
Sr0_0 Sr0_3 4.317950 1_544
Sr0_1 Sr2_0 4.121492 1_555
Sr0_1 Sr1_0 4.121492 1_555
Sr0_1 Sr2_1 4.273913 1_555
Sr0_1 Sr1_7 4.273913 1_555
Sr0_1 Sr1_4 4.273913 1_555
Sr0_1 Sr2_2 4.273913 1_545
Sr0_1 Sr0_2 4.317950 1_556
Sr0_1 Sr0_2 4.317950 1_545
Sr0_2 Sr2_3 4.121492 1_554
Sr0_2 Sr1_3 4.121492 1_554
Sr0_2 Sr2_2 4.273913 1_555
Sr0_2 Sr1_4 4.273913 1_565
Sr0_2 Sr1_7 4.273913 1_554
Sr0_2 Sr2_1 4.273913 1_554
Sr0_3 Sr2_2 4.121492 1_555
Sr0_3 Sr1_2 4.121492 1_555
Sr0_3 Sr2_3 4.273913 1_555
Sr0_3 Sr1_6 4.273913 1_555
Sr0_3 Sr1_5 4.273913 1_565
Sr0_3 Sr2_0 4.273913 1_555
Sr0_4 Sr2_5 4.121492 1_554
Sr0_4 Sr1_5 4.121492 1_554
Sr0_4 Sr1_2 4.273913 1_655
Sr0_4 Sr2_4 4.273913 1_555
Sr0_4 Sr1_1 4.273913 1_654
Sr0_4 Sr2_7 4.273913 1_544
Sr0_4 Sr0_7 4.317950 1_544
Sr0_4 Sr0_7 4.317950 1_555
Sr0_5 Sr2_4 4.121492 1_555
Sr0_5 Sr1_4 4.121492 1_555
Sr0_5 Sr1_3 4.273913 1_655
Sr0_5 Sr2_5 4.273913 1_555
Sr0_5 Sr1_0 4.273913 1_655
Sr0_5 Sr2_6 4.273913 1_545
Sr0_5 Sr0_6 4.317950 1_556
Sr0_5 Sr0_6 4.317950 1_545
Sr0_6 Sr2_7 4.121492 1_554
Sr0_6 Sr1_7 4.121492 1_554
Sr0_6 Sr2_6 4.273913 1_555
Sr0_6 Sr1_3 4.273913 1_654
Sr0_6 Sr2_5 4.273913 1_554
Sr0_6 Sr1_0 4.273913 1_665
Sr0_7 Sr2_6 4.121492 1_555
Sr0_7 Sr1_6 4.121492 1_555
Sr0_7 Sr1_2 4.273913 1_655
Sr0_7 Sr2_7 4.273913 1_555
Sr0_7 Sr2_4 4.273913 1_555
Sr0_7 Sr1_1 4.273913 1_665
Sr1_0 Sr2_4 4.076036 1_455
Sr1_0 Sr2_7 4.076036 1_444
Sr1_0 Sr2_1 4.076036 1_555
Sr1_0 Sr2_2 4.076036 1_545
Sr1_0 Sr1_3 4.317950 1_544
Sr1_0 Sr1_3 4.317950 1_555
Sr1_1 Sr2_5 4.076036 1_455
Sr1_1 Sr2_6 4.076036 1_445
Sr1_1 Sr2_0 4.076036 1_556
Sr1_1 Sr2_3 4.076036 1_545
Sr1_1 Sr1_2 4.317950 1_545
Sr1_1 Sr1_2 4.317950 1_556
Sr1_2 Sr2_6 4.076036 1_455
Sr1_2 Sr2_5 4.076036 1_454
Sr1_2 Sr2_3 4.076036 1_555
Sr1_2 Sr2_0 4.076036 1_555
Sr1_3 Sr2_7 4.076036 1_455
Sr1_3 Sr2_4 4.076036 1_455
Sr1_3 Sr2_2 4.076036 1_556
Sr1_3 Sr2_1 4.076036 1_555
Sr1_4 Sr2_0 4.076036 1_555
Sr1_4 Sr2_3 4.076036 1_544
Sr1_4 Sr2_5 4.076036 1_555
Sr1_4 Sr2_6 4.076036 1_545
Sr1_4 Sr1_7 4.317950 1_555
Sr1_4 Sr1_7 4.317950 1_544
Sr1_5 Sr2_1 4.076036 1_555
Sr1_5 Sr2_2 4.076036 1_545
Sr1_5 Sr2_4 4.076036 1_556
Sr1_5 Sr2_7 4.076036 1_545
Sr1_5 Sr1_6 4.317950 1_556
Sr1_5 Sr1_6 4.317950 1_545
Sr1_6 Sr2_2 4.076036 1_555
Sr1_6 Sr2_1 4.076036 1_554
Sr1_6 Sr2_7 4.076036 1_555
Sr1_6 Sr2_4 4.076036 1_555
Sr1_7 Sr2_3 4.076036 1_555
Sr1_7 Sr2_0 4.076036 1_555
Sr1_7 Sr2_6 4.076036 1_556
Sr1_7 Sr2_5 4.076036 1_555
Sr2_0 Sr2_3 4.317950 1_555
Sr2_0 Sr2_3 4.317950 1_544
Sr2_1 Sr2_2 4.317950 1_556
Sr2_1 Sr2_2 4.317950 1_545
Sr2_4 Sr2_7 4.317950 1_544
Sr2_4 Sr2_7 4.317950 1_555
Sr2_5 Sr2_6 4.317950 1_556
Sr2_5 Sr2_6 4.317950 1_545
Mg0_0 Sr2_0 3.565246 1_555
Mg0_0 Sr1_0 3.565246 1_555
Mg0_0 Sr1_3 3.565246 1_544
Mg0_0 Sr2_3 3.565246 1_544
Mg0_0 Sr0_7 3.744246 1_444
Mg0_0 Sr0_4 3.744246 1_455
Mg0_1 Sr2_1 3.565246 1_555
Mg0_1 Sr1_1 3.565246 1_555
Mg0_1 Sr2_2 3.565246 1_545
Mg0_1 Sr1_2 3.565246 1_545
Mg0_1 Sr0_6 3.744246 1_445
Mg0_1 Sr0_5 3.744246 1_455
Mg0_2 Sr2_2 3.565246 1_555
Mg0_2 Sr1_1 3.565246 1_554
Mg0_2 Sr1_2 3.565246 1_555
Mg0_2 Sr2_1 3.565246 1_554
Mg0_2 Sr0_6 3.744246 1_455
Mg0_2 Sr0_5 3.744246 1_454
Mg0_3 Sr2_3 3.565246 1_555
Mg0_3 Sr1_0 3.565246 1_555
Mg0_3 Sr1_3 3.565246 1_555
Mg0_3 Sr2_0 3.565246 1_555
Mg0_3 Sr0_7 3.744246 1_455
Mg0_3 Sr0_4 3.744246 1_455
Mg0_4 Sr2_4 3.565246 1_555
Mg0_4 Sr1_4 3.565246 1_555
Mg0_4 Sr2_7 3.565246 1_544
Mg0_4 Sr1_7 3.565246 1_544
Mg0_4 Sr0_3 3.744246 1_544
Mg0_4 Sr0_0 3.744246 1_555
Mg0_5 Sr2_5 3.565246 1_555
Mg0_5 Sr1_5 3.565246 1_555
Mg0_5 Sr2_6 3.565246 1_545
Mg0_5 Sr1_6 3.565246 1_545
Mg0_5 Sr0_2 3.744246 1_545
Mg0_5 Sr0_1 3.744246 1_555
Mg0_6 Sr2_6 3.565246 1_555
Mg0_6 Sr1_5 3.565246 1_554
Mg0_6 Sr1_6 3.565246 1_555
Mg0_6 Sr2_5 3.565246 1_554
Mg0_6 Sr0_1 3.744246 1_554
Mg0_6 Sr0_2 3.744246 1_555
Mg0_7 Sr2_7 3.565246 1_555
Mg0_7 Sr1_4 3.565246 1_555
Mg0_7 Sr1_7 3.565246 1_555
Mg0_7 Sr2_4 3.565246 1_555
Mg0_7 Sr0_3 3.744246 1_555
Mg0_7 Sr0_0 3.744246 1_555
