# generated using pymatgen
data_K4CaV6O16
_symmetry_space_group_name_H-M   'P 1'
_cell_length_a   6.23852533
_cell_length_b   9.01464694
_cell_length_c   9.01464694
_cell_angle_alpha   91.20913603
_cell_angle_beta   84.01713255
_cell_angle_gamma   95.98286745
_symmetry_Int_Tables_number   1
_chemical_formula_structural   K4CaV6O16
_chemical_formula_sum   'K4 Ca1 V6 O16'
_cell_volume   501.43204043
_cell_formula_units_Z   1
loop_
 _symmetry_equiv_pos_site_id
 _symmetry_equiv_pos_as_xyz
  1  'x, y, z'
loop_
 _atom_site_type_symbol
 _atom_site_label
 _atom_site_symmetry_multiplicity
 _atom_site_fract_x
 _atom_site_fract_y
 _atom_site_fract_z
 _atom_site_occupancy
  K  K0  1  0.18408200  0.62635600  0.22565500  1
  K  K1  1  0.29401800  0.80109600  0.69890400  1
  K  K2  1  0.18002300  0.15162200  0.34837800  1
  K  K3  1  0.18408200  0.27434500  0.87364400  1
  Ca  Ca0  1  0.81813400  0.84540500  0.65459500  1
  V  V0  1  0.63110800  0.86926900  0.35392400  1
  V  V1  1  0.62518800  0.36089900  0.13910100  1
  V  V2  1  0.63110800  0.14607600  0.63073100  1
  V  V3  1  0.67346800  0.62492300  0.87507700  1
  V  V4  1  0.63020500  0.00444000  0.98810300  1
  V  V5  1  0.63020500  0.51189700  0.49556000  1
  O  O0  1  0.89826900  0.53950200  0.46180200  1
  O  O1  1  0.89826900  0.03819800  0.96049800  1
  O  O2  1  0.52646000  0.48811400  0.01188600  1
  O  O3  1  0.52714300  0.00151200  0.49848800  1
  O  O4  1  0.94492800  0.67404400  0.82595600  1
  O  O5  1  0.89952500  0.11418200  0.62301300  1
  O  O6  1  0.89952500  0.87698700  0.38581800  1
  O  O7  1  0.89732200  0.37681200  0.12318800  1
  O  O8  1  0.57859100  0.61394200  0.68548800  1
  O  O9  1  0.51129900  0.40516200  0.31756200  1
  O  O10  1  0.51129900  0.18243800  0.09483800  1
  O  O11  1  0.54453500  0.90136400  0.17858300  1
  O  O12  1  0.50789000  0.08087800  0.80967700  1
  O  O13  1  0.57859100  0.81451200  0.88605800  1
  O  O14  1  0.54453500  0.32141700  0.59863600  1
  O  O15  1  0.50789000  0.69032300  0.41912200  1
loop_
_geom_bond_atom_site_label_1
_geom_bond_atom_site_label_2
_geom_bond_distance
_geom_bond_site_symmetry_2
K0 O0 2.704082 1_455
K0 O15 2.811419 1_555
K0 O7 2.920949 1_455
K0 O2 3.069895 1_555
K0 O11 3.172694 1_555
K0 O9 3.178104 1_555
K0 O6 3.241108 1_455
K1 O4 2.526227 1_455
K1 O13 2.565889 1_555
K1 O8 2.565889 1_555
K1 O3 2.772291 1_565
K1 O12 2.934023 1_565
K1 O15 2.934023 1_555
K2 O5 2.883461 1_455
K2 O6 2.883461 1_445
K2 O9 2.914549 1_555
K2 O10 2.914549 1_555
K2 O3 3.106560 1_555
K3 O1 2.704082 1_455
K3 O12 2.811419 1_555
K3 O7 2.920949 1_456
K3 O2 3.069895 1_556
K3 O14 3.172694 1_555
K3 O10 3.178104 1_556
K3 O5 3.241108 1_455
Ca0 O5 2.439667 1_565
Ca0 O6 2.439667 1_555
Ca0 O13 2.439723 1_555
Ca0 O8 2.439723 1_555
Ca0 O4 2.451206 1_555
O0 V5 1.661793 1_555
O1 V4 1.661793 1_555
O2 V1 1.832932 1_555
O2 V3 1.864324 1_554
O3 V0 1.859988 1_545
O3 V2 1.859988 1_555
O4 V3 1.719232 1_555
O5 V2 1.722433 1_555
O6 V0 1.722433 1_555
O7 V1 1.680096 1_555
O8 V3 1.863493 1_555
O8 V5 1.939497 1_555
O9 V1 1.745242 1_555
O9 V5 2.021123 1_555
O10 V1 1.745242 1_555
O10 V4 2.021123 1_554
O11 V0 1.761719 1_555
O11 V4 1.967235 1_564
O12 V2 1.796071 1_555
O12 V4 2.014055 1_555
O13 V3 1.863493 1_555
O13 V4 1.939497 1_565
O14 V2 1.761719 1_555
O14 V5 1.967235 1_555
O15 V0 1.796071 1_555
O15 V5 2.014055 1_555
