# generated using pymatgen
data_Ba2PIO4
_symmetry_space_group_name_H-M   'P 1'
_cell_length_a   9.30990756
_cell_length_b   8.92118466
_cell_length_c   9.48566964
_cell_angle_alpha   68.26820004
_cell_angle_beta   90.00000000
_cell_angle_gamma   90.00000000
_symmetry_Int_Tables_number   1
_chemical_formula_structural   Ba2PIO4
_chemical_formula_sum   'Ba8 P4 I4 O16'
_cell_volume   731.84242062
_cell_formula_units_Z   4
loop_
 _symmetry_equiv_pos_site_id
 _symmetry_equiv_pos_as_xyz
  1  'x, y, z'
loop_
 _atom_site_type_symbol
 _atom_site_label
 _atom_site_symmetry_multiplicity
 _atom_site_fract_x
 _atom_site_fract_y
 _atom_site_fract_z
 _atom_site_occupancy
  Ba  Ba0  1  0.30789949  0.45906912  0.15939788  1
  Ba  Ba1  1  0.80789949  0.04093088  0.84060212  1
  Ba  Ba2  1  0.69210051  0.54093088  0.84060212  1
  Ba  Ba3  1  0.19210051  0.95906912  0.15939788  1
  Ba  Ba4  1  0.32890413  0.95219780  0.75006002  1
  Ba  Ba5  1  0.82890413  0.54780220  0.24993998  1
  Ba  Ba6  1  0.67109587  0.04780220  0.24993998  1
  Ba  Ba7  1  0.17109587  0.45219780  0.75006002  1
  P  P0  1  0.05670347  0.73822488  0.96166225  1
  P  P1  1  0.55670347  0.76177512  0.03833775  1
  P  P2  1  0.94329653  0.26177512  0.03833775  1
  P  P3  1  0.44329653  0.23822488  0.96166225  1
  I  I0  1  0.92059477  0.75615399  0.50277495  1
  I  I1  1  0.42059477  0.74384601  0.49722505  1
  I  I2  1  0.07940523  0.24384601  0.49722505  1
  I  I3  1  0.57940523  0.25615399  0.50277495  1
  O  O0  1  0.08508331  0.66713047  0.13543244  1
  O  O1  1  0.58508331  0.83286953  0.86456756  1
  O  O2  1  0.91491669  0.33286953  0.86456756  1
  O  O3  1  0.41491669  0.16713047  0.13543244  1
  O  O4  1  0.10038942  0.29348473  0.06670481  1
  O  O5  1  0.60038942  0.20651527  0.93329519  1
  O  O6  1  0.89961058  0.70651527  0.93329519  1
  O  O7  1  0.39961058  0.79348473  0.06670481  1
  O  O8  1  0.66641122  0.83360761  0.11738558  1
  O  O9  1  0.16641122  0.66639239  0.88261442  1
  O  O10  1  0.33358878  0.16639239  0.88261442  1
  O  O11  1  0.83358878  0.33360761  0.11738558  1
  O  O12  1  0.41726902  0.42256226  0.90422327  1
  O  O13  1  0.91726902  0.07743774  0.09577673  1
  O  O14  1  0.58273098  0.57743774  0.09577673  1
  O  O15  1  0.08273098  0.92256226  0.90422327  1
loop_
_geom_bond_atom_site_label_1
_geom_bond_atom_site_label_2
_geom_bond_distance
_geom_bond_site_symmetry_2
Ba0 O0 2.736356 1_555
Ba0 O14 2.748474 1_555
Ba0 O12 2.754168 1_554
Ba0 O4 2.765737 1_555
Ba0 O3 2.875043 1_555
Ba0 O9 2.907434 1_554
Ba0 O7 2.908636 1_555
Ba0 I2 3.731545 1_555
Ba0 I3 3.988608 1_555
Ba1 O1 2.736356 1_545
Ba1 O15 2.748474 1_645
Ba1 O13 2.754168 1_556
Ba1 O5 2.765737 1_555
Ba1 O2 2.875043 1_555
Ba1 O8 2.907434 1_546
Ba1 O6 2.908636 1_545
Ba1 I3 3.731545 1_555
Ba1 I2 3.988608 1_655
Ba2 O2 2.736356 1_555
Ba2 O12 2.748474 1_555
Ba2 O14 2.754168 1_556
Ba2 O6 2.765737 1_555
Ba2 O1 2.875043 1_555
Ba2 O11 2.907434 1_556
Ba2 O5 2.908636 1_555
Ba2 I0 3.731545 1_555
Ba2 I1 3.988608 1_555
Ba3 O3 2.736356 1_565
Ba3 O13 2.748474 1_465
Ba3 O15 2.754168 1_554
Ba3 O7 2.765737 1_555
Ba3 O0 2.875043 1_555
Ba3 O10 2.907434 1_564
Ba3 O4 2.908636 1_565
Ba3 I1 3.731545 1_555
Ba3 I0 3.988608 1_455
Ba4 O10 2.648307 1_565
Ba4 O1 2.673020 1_555
Ba4 O15 2.678547 1_555
Ba4 O9 2.827813 1_555
Ba4 O7 2.882768 1_556
Ba4 I1 3.638221 1_555
Ba4 I2 3.646375 1_565
Ba4 I3 3.685631 1_565
Ba5 O11 2.648307 1_555
Ba5 O0 2.673020 1_655
Ba5 O14 2.678547 1_555
Ba5 O8 2.827813 1_555
Ba5 O6 2.882768 1_554
Ba5 I0 3.638221 1_555
Ba5 I3 3.646375 1_555
Ba5 I2 3.685631 1_655
Ba6 O8 2.648307 1_545
Ba6 O3 2.673020 1_555
Ba6 O13 2.678547 1_555
Ba6 O11 2.827813 1_555
Ba6 O5 2.882768 1_554
Ba6 I3 3.638221 1_555
Ba6 I0 3.646375 1_545
Ba6 I1 3.685631 1_545
Ba7 O9 2.648307 1_555
Ba7 O2 2.673020 1_455
Ba7 O12 2.678547 1_555
Ba7 O10 2.827813 1_555
Ba7 O4 2.882768 1_556
Ba7 I2 3.638221 1_555
Ba7 I1 3.646375 1_555
Ba7 I0 3.685631 1_455
O0 P0 1.553988 1_554
O1 P1 1.553988 1_556
O2 P2 1.553988 1_556
O3 P3 1.553988 1_554
O4 P2 1.532241 1_455
O5 P3 1.532241 1_555
O6 P0 1.532241 1_655
O7 P1 1.532241 1_555
O8 P1 1.540104 1_555
O9 P0 1.540104 1_555
O10 P3 1.540104 1_555
O11 P2 1.540104 1_555
O12 P3 1.548052 1_555
O13 P2 1.548052 1_555
O14 P1 1.548052 1_555
O15 P0 1.548052 1_555
