# generated using pymatgen
data_Dy2CoGe6
_symmetry_space_group_name_H-M   'P 1'
_cell_length_a   4.06575300
_cell_length_b   4.00299400
_cell_length_c   10.88791024
_cell_angle_alpha   100.59278441
_cell_angle_beta   90.00000000
_cell_angle_gamma   90.00000000
_symmetry_Int_Tables_number   1
_chemical_formula_structural   Dy2CoGe6
_chemical_formula_sum   'Dy2 Co1 Ge6'
_cell_volume   174.18295259
_cell_formula_units_Z   1
loop_
 _symmetry_equiv_pos_site_id
 _symmetry_equiv_pos_as_xyz
  1  'x, y, z'
loop_
 _atom_site_type_symbol
 _atom_site_label
 _atom_site_symmetry_multiplicity
 _atom_site_fract_x
 _atom_site_fract_y
 _atom_site_fract_z
 _atom_site_occupancy
  Dy  Dy0  1  0.50000000  0.22214400  0.44428700  1
  Dy  Dy1  1  0.50000000  0.88654000  0.77307900  1
  Co  Co0  1  0.00000000  0.44521800  0.89043500  1
  Ge  Ge0  1  0.50000000  0.49988600  0.99977200  1
  Ge  Ge1  1  0.50000000  0.61711800  0.23423600  1
  Ge  Ge2  1  0.00000000  0.00097300  0.00194700  1
  Ge  Ge3  1  0.00000000  0.11882300  0.23764600  1
  Ge  Ge4  1  0.00000000  0.33884400  0.67768900  1
  Ge  Ge5  1  0.00000000  0.76345400  0.52690900  1
loop_
_geom_bond_atom_site_label_1
_geom_bond_atom_site_label_2
_geom_bond_distance
_geom_bond_site_symmetry_2
Dy0 Ge5 2.986714 1_655
Dy0 Ge5 2.986714 1_555
Dy0 Ge5 2.986719 1_545
Dy0 Ge5 2.986719 1_645
Dy0 Ge3 3.003919 1_655
Dy0 Ge3 3.003919 1_555
Dy0 Ge1 3.009930 1_555
Dy0 Ge1 3.009932 1_545
Dy0 Ge4 3.220614 1_555
Dy0 Ge4 3.220614 1_655
Dy1 Ge4 3.029983 1_565
Dy1 Ge4 3.029983 1_665
Dy1 Ge4 3.029988 1_655
Dy1 Ge4 3.029988 1_555
Dy1 Ge0 3.145185 1_565
Dy1 Ge0 3.145188 1_555
Dy1 Ge2 3.183125 1_666
Dy1 Ge2 3.183125 1_566
Dy1 Ge5 3.327718 1_655
Dy1 Ge5 3.327718 1_555
Co0 Ge4 2.276885 1_555
Co0 Ge2 2.330296 1_566
Co0 Ge2 2.330303 1_556
Co0 Ge0 2.345607 1_555
Co0 Ge0 2.345607 1_455
Co0 Dy1 3.117063 1_445
Co0 Dy1 3.117063 1_545
Co0 Dy1 3.117063 1_455
Co0 Dy1 3.117063 1_555
Ge0 Ge1 2.509319 1_556
Ge0 Ge2 2.852913 1_666
Ge0 Ge2 2.852913 1_566
Ge0 Ge2 2.852916 1_556
Ge0 Ge2 2.852916 1_656
Ge1 Ge3 2.853053 1_565
Ge1 Ge3 2.853053 1_665
Ge1 Ge3 2.853053 1_555
Ge1 Ge3 2.853053 1_655
Ge2 Ge3 2.522536 1_555
Ge4 Ge5 2.570997 1_545
Ge4 Ge5 2.570997 1_555
