# generated using pymatgen
data_ZnNiBiO5
_symmetry_space_group_name_H-M   'P 1'
_cell_length_a   10.45852200
_cell_length_b   5.36202000
_cell_length_c   8.36845675
_cell_angle_alpha   69.71966505
_cell_angle_beta   90.00000000
_cell_angle_gamma   90.00000000
_symmetry_Int_Tables_number   1
_chemical_formula_structural   ZnNiBiO5
_chemical_formula_sum   'Zn4 Ni4 Bi4 O20'
_cell_volume   440.20061116
_cell_formula_units_Z   4
loop_
 _symmetry_equiv_pos_site_id
 _symmetry_equiv_pos_as_xyz
  1  'x, y, z'
loop_
 _atom_site_type_symbol
 _atom_site_label
 _atom_site_symmetry_multiplicity
 _atom_site_fract_x
 _atom_site_fract_y
 _atom_site_fract_z
 _atom_site_occupancy
  Zn  Zn0  1  0.09128400  0.53029600  0.82715500  1
  Zn  Zn1  1  0.90871600  0.46970400  0.17284500  1
  Zn  Zn2  1  0.59128400  0.46970400  0.67284500  1
  Zn  Zn3  1  0.40871600  0.53029600  0.32715500  1
  Ni  Ni0  1  0.38523700  0.12849300  0.05688800  1
  Ni  Ni1  1  0.61476300  0.87150700  0.94311200  1
  Ni  Ni2  1  0.88523600  0.87150700  0.44311200  1
  Ni  Ni3  1  0.11476300  0.12849300  0.55688800  1
  Bi  Bi0  1  0.89597200  0.02340500  0.84269700  1
  Bi  Bi1  1  0.10402800  0.97659500  0.15730300  1
  Bi  Bi2  1  0.60402800  0.02340500  0.34269700  1
  Bi  Bi3  1  0.39597200  0.97659500  0.65730300  1
  O  O0  1  0.95572600  0.84627100  0.65768900  1
  O  O1  1  0.03124000  0.30625900  0.68155800  1
  O  O2  1  0.79287800  0.17938900  0.31045000  1
  O  O3  1  0.45574200  0.75324000  0.49492000  1
  O  O4  1  0.71968000  0.70705700  0.50663800  1
  O  O5  1  0.78032000  0.70705700  0.00663800  1
  O  O6  1  0.46876000  0.30625900  0.18155800  1
  O  O7  1  0.53124000  0.69374100  0.81844200  1
  O  O8  1  0.54425800  0.24676000  0.50508000  1
  O  O9  1  0.45572600  0.15372900  0.84231100  1
  O  O10  1  0.28032000  0.29294300  0.49336200  1
  O  O11  1  0.04427400  0.15372900  0.34231100  1
  O  O12  1  0.54427400  0.84627100  0.15768900  1
  O  O13  1  0.21968000  0.29294300  0.99336200  1
  O  O14  1  0.95574200  0.24676000  0.00508000  1
  O  O15  1  0.04425800  0.75324000  0.99492000  1
  O  O16  1  0.20712200  0.82061100  0.68955000  1
  O  O17  1  0.96876000  0.69374100  0.31844200  1
  O  O18  1  0.29287800  0.82061100  0.18955000  1
  O  O19  1  0.70712200  0.17938900  0.81045000  1
loop_
_geom_bond_atom_site_label_1
_geom_bond_atom_site_label_2
_geom_bond_distance
_geom_bond_site_symmetry_2
Ni0 O6 1.857272 1_555
Ni0 O9 1.902054 1_554
Ni0 O18 1.902730 1_545
Ni0 O13 1.932155 1_554
Ni0 O12 2.209798 1_545
Ni1 O7 1.857272 1_555
Ni1 O12 1.902054 1_556
Ni1 O19 1.902730 1_565
Ni1 O5 1.932155 1_556
Ni1 O9 2.209798 1_565
Ni2 O17 1.857277 1_555
Ni2 O0 1.902058 1_555
Ni2 O2 1.902725 1_565
Ni2 O4 1.932145 1_555
Ni2 O11 2.209806 1_665
Ni3 O1 1.857272 1_555
Ni3 O11 1.902054 1_555
Ni3 O16 1.902730 1_545
Ni3 O10 1.932155 1_555
Ni3 O0 2.209798 1_445
Bi0 O19 2.125298 1_555
Bi0 O5 2.146921 1_546
Bi0 O1 2.168476 1_655
Bi0 O0 2.170040 1_545
Bi0 O14 2.190863 1_556
Bi0 O15 2.201627 1_645
Bi1 O18 2.125298 1_555
Bi1 O13 2.146921 1_564
Bi1 O17 2.168476 1_455
Bi1 O11 2.170040 1_565
Bi1 O15 2.190863 1_554
Bi1 O14 2.201627 1_465
Bi2 O2 2.125298 1_555
Bi2 O4 2.146921 1_545
Bi2 O6 2.168476 1_555
Bi2 O12 2.170040 1_545
Bi2 O8 2.190863 1_555
Bi2 O3 2.201627 1_545
Bi3 O16 2.125298 1_555
Bi3 O10 2.146921 1_565
Bi3 O7 2.168476 1_555
Bi3 O9 2.170040 1_565
Bi3 O3 2.190863 1_555
Bi3 O8 2.201627 1_565
O0 Zn0 2.286057 1_655
O1 Zn0 2.082466 1_555
O2 Zn1 1.993575 1_555
O3 Zn3 2.192127 1_555
O3 Zn2 2.229042 1_555
O4 Zn2 2.032338 1_555
O5 Zn1 2.032338 1_555
O6 Zn3 2.082466 1_555
O7 Zn2 2.082466 1_555
O8 Zn2 2.192127 1_555
O8 Zn3 2.229042 1_555
O9 Zn2 2.286057 1_555
O10 Zn3 2.032338 1_555
O11 Zn1 2.286057 1_455
O12 Zn3 2.286057 1_555
O13 Zn0 2.032338 1_555
O14 Zn1 2.192127 1_555
O14 Zn0 2.229042 1_654
O15 Zn0 2.192127 1_555
O15 Zn1 2.229042 1_456
O16 Zn0 1.993575 1_555
O17 Zn1 2.082466 1_555
O18 Zn3 1.993575 1_555
O19 Zn2 1.993575 1_555
