# generated using pymatgen
data_AlRe
_symmetry_space_group_name_H-M   'P 1'
_cell_length_a   3.08529935
_cell_length_b   3.08529935
_cell_length_c   5.93925562
_cell_angle_alpha   90.00000000
_cell_angle_beta   90.00000000
_cell_angle_gamma   90.00000000
_symmetry_Int_Tables_number   1
_chemical_formula_structural   AlRe
_chemical_formula_sum   'Al2 Re2'
_cell_volume   56.53620234
_cell_formula_units_Z   2
loop_
 _symmetry_equiv_pos_site_id
 _symmetry_equiv_pos_as_xyz
  1  'x, y, z'
loop_
 _atom_site_type_symbol
 _atom_site_label
 _atom_site_symmetry_multiplicity
 _atom_site_fract_x
 _atom_site_fract_y
 _atom_site_fract_z
 _atom_site_occupancy
  Al  Al0  1  -0.00000000  0.00000000  0.49716654  1
  Al  Al1  1  0.50000000  0.50000000  0.75283346  1
  Re  Re0  1  0.00000000  -0.00000000  0.99015551  1
  Re  Re1  1  0.50000000  0.50000000  0.25984449  1
loop_
_geom_bond_atom_site_label_1
_geom_bond_atom_site_label_2
_geom_bond_distance
_geom_bond_site_symmetry_2
Al0 Re1 2.597359 1_455
Al0 Re1 2.597359 1_445
Al0 Re1 2.597359 1_545
Al0 Re1 2.597359 1_555
Al1 Re0 2.597359 1_565
Al1 Re0 2.597359 1_555
Al1 Re0 2.597359 1_665
Al1 Re0 2.597359 1_655
