# generated using pymatgen
data_Te2MoWSeS
_symmetry_space_group_name_H-M   'P 1'
_cell_length_a   3.39479773
_cell_length_b   3.39479773
_cell_length_c   38.81735500
_cell_angle_alpha   90.00000000
_cell_angle_beta   90.00000000
_cell_angle_gamma   119.99999479
_symmetry_Int_Tables_number   1
_chemical_formula_structural   Te2MoWSeS
_chemical_formula_sum   'Te4 Mo2 W2 Se2 S2'
_cell_volume   387.42210885
_cell_formula_units_Z   2
loop_
 _symmetry_equiv_pos_site_id
 _symmetry_equiv_pos_as_xyz
  1  'x, y, z'
loop_
 _atom_site_type_symbol
 _atom_site_label
 _atom_site_symmetry_multiplicity
 _atom_site_fract_x
 _atom_site_fract_y
 _atom_site_fract_z
 _atom_site_occupancy
  Te  Te0  1  0.00000000  0.00000000  0.33032800  1
  Te  Te1  1  0.00000000  0.00000000  0.70578000  1
  Te  Te2  1  0.00000000  0.00000000  0.23327300  1
  Te  Te3  1  0.00000000  0.00000000  0.60928000  1
  Mo  Mo0  1  0.00000000  0.00000000  0.09389400  1
  Mo  Mo1  1  0.33333300  0.66666700  0.65755100  1
  W  W0  1  0.00000000  0.00000000  0.46968200  1
  W  W1  1  0.33333300  0.66666700  0.28179900  1
  Se  Se0  1  0.33333300  0.66666700  0.05144800  1
  Se  Se1  1  0.33333300  0.66666700  0.13639000  1
  S  S0  1  0.33333300  0.66666700  0.43089000  1
  S  S1  1  0.33333300  0.66666700  0.50843200  1
loop_
_geom_bond_atom_site_label_1
_geom_bond_atom_site_label_2
_geom_bond_distance
_geom_bond_site_symmetry_2
Te0 W1 2.718478 1_545
Te0 W1 2.718480 1_555
Te0 W1 2.718480 1_445
Te2 W1 2.718397 1_545
Te2 W1 2.718399 1_445
Te2 W1 2.718399 1_555
Mo0 Se0 2.560520 1_545
Mo0 Se0 2.560523 1_445
Mo0 Se0 2.560523 1_555
Mo0 Se1 2.561770 1_545
Mo0 Se1 2.561772 1_555
Mo0 Se1 2.561772 1_445
Mo1 Te1 2.710421 1_565
Mo1 Te1 2.710424 1_665
Mo1 Te1 2.710424 1_555
Mo1 Te3 2.711548 1_565
Mo1 Te3 2.711550 1_555
Mo1 Te3 2.711550 1_665
S0 W0 2.471636 1_565
S0 W0 2.471639 1_665
S0 W0 2.471639 1_555
S1 W0 2.470643 1_565
S1 W0 2.470646 1_665
S1 W0 2.470646 1_555
