# generated using pymatgen
data_ZrCuGe
_symmetry_space_group_name_H-M   'P 1'
_cell_length_a   6.55913780
_cell_length_b   3.99348886
_cell_length_c   7.37538153
_cell_angle_alpha   90.00000000
_cell_angle_beta   90.00000000
_cell_angle_gamma   90.00000000
_symmetry_Int_Tables_number   1
_chemical_formula_structural   ZrCuGe
_chemical_formula_sum   'Zr4 Cu4 Ge4'
_cell_volume   193.18959129
_cell_formula_units_Z   4
loop_
 _symmetry_equiv_pos_site_id
 _symmetry_equiv_pos_as_xyz
  1  'x, y, z'
loop_
 _atom_site_type_symbol
 _atom_site_label
 _atom_site_symmetry_multiplicity
 _atom_site_fract_x
 _atom_site_fract_y
 _atom_site_fract_z
 _atom_site_occupancy
  Zr  Zr0  1  0.00884355  0.25000000  0.80378429  1
  Zr  Zr1  1  0.50884355  0.25000000  0.69621571  1
  Zr  Zr2  1  0.99115645  0.75000000  0.19621571  1
  Zr  Zr3  1  0.49115645  0.75000000  0.30378429  1
  Cu  Cu0  1  0.17364373  0.25000000  0.42140320  1
  Cu  Cu1  1  0.67364373  0.25000000  0.07859680  1
  Cu  Cu2  1  0.82635627  0.75000000  0.57859680  1
  Cu  Cu3  1  0.32635627  0.75000000  0.92140320  1
  Ge  Ge0  1  0.77882622  0.25000000  0.40093005  1
  Ge  Ge1  1  0.27882622  0.25000000  0.09906995  1
  Ge  Ge2  1  0.22117378  0.75000000  0.59906995  1
  Ge  Ge3  1  0.72117378  0.75000000  0.90093005  1
loop_
_geom_bond_atom_site_label_1
_geom_bond_atom_site_label_2
_geom_bond_distance
_geom_bond_site_symmetry_2
Cu0 Ge2 2.408573 1_545
Cu0 Ge2 2.408573 1_555
Cu0 Ge1 2.475414 1_555
Cu0 Ge0 2.594061 1_455
Cu0 Zr2 2.859738 1_445
Cu0 Zr2 2.859738 1_455
Cu0 Zr1 2.990326 1_555
Cu0 Zr3 3.012770 1_545
Cu0 Zr3 3.012770 1_555
Cu0 Zr0 3.020267 1_555
Cu1 Ge3 2.408573 1_544
Cu1 Ge3 2.408573 1_554
Cu1 Ge0 2.475414 1_555
Cu1 Ge1 2.594061 1_555
Cu1 Zr3 2.859738 1_555
Cu1 Zr3 2.859738 1_545
Cu1 Zr0 2.990326 1_654
Cu1 Zr2 3.012770 1_555
Cu1 Zr2 3.012770 1_545
Cu1 Zr1 3.020267 1_554
Cu2 Ge0 2.408573 1_565
Cu2 Ge0 2.408573 1_555
Cu2 Ge3 2.475414 1_555
Cu2 Ge2 2.594061 1_655
Cu2 Zr0 2.859738 1_665
Cu2 Zr0 2.859738 1_655
Cu2 Zr3 2.990326 1_555
Cu2 Zr1 3.012770 1_555
Cu2 Zr1 3.012770 1_565
Cu2 Zr2 3.020267 1_555
Cu3 Ge1 2.408573 1_566
Cu3 Ge1 2.408573 1_556
Cu3 Ge2 2.475414 1_555
Cu3 Ge3 2.594061 1_555
Cu3 Zr1 2.859738 1_565
Cu3 Zr1 2.859738 1_555
Cu3 Zr2 2.990326 1_456
Cu3 Zr0 3.012770 1_555
Cu3 Zr0 3.012770 1_565
Cu3 Zr3 3.020267 1_556
Ge0 Zr1 2.806943 1_555
Ge0 Zr3 2.839120 1_555
Ge0 Zr3 2.839120 1_545
Ge0 Zr2 2.864655 1_555
Ge0 Zr2 2.864655 1_545
Ge1 Zr0 2.806943 1_554
Ge1 Zr2 2.839120 1_445
Ge1 Zr2 2.839120 1_455
Ge1 Zr3 2.864655 1_545
Ge1 Zr3 2.864655 1_555
Ge2 Zr3 2.806943 1_555
Ge2 Zr1 2.839120 1_565
Ge2 Zr1 2.839120 1_555
Ge2 Zr0 2.864655 1_555
Ge2 Zr0 2.864655 1_565
Ge3 Zr2 2.806943 1_556
Ge3 Zr0 2.839120 1_655
Ge3 Zr0 2.839120 1_665
Ge3 Zr1 2.864655 1_565
Ge3 Zr1 2.864655 1_555
