# generated using pymatgen
data_Pr2RuO5
_symmetry_space_group_name_H-M   'P 1'
_cell_length_a   3.99426800
_cell_length_b   10.75286800
_cell_length_c   11.68942900
_cell_angle_alpha   90.00000000
_cell_angle_beta   90.00000000
_cell_angle_gamma   90.00000000
_symmetry_Int_Tables_number   1
_chemical_formula_structural   Pr2RuO5
_chemical_formula_sum   'Pr8 Ru4 O20'
_cell_volume   502.05906504
_cell_formula_units_Z   4
loop_
 _symmetry_equiv_pos_site_id
 _symmetry_equiv_pos_as_xyz
  1  'x, y, z'
loop_
 _atom_site_type_symbol
 _atom_site_label
 _atom_site_symmetry_multiplicity
 _atom_site_fract_x
 _atom_site_fract_y
 _atom_site_fract_z
 _atom_site_occupancy
  Pr  Pr0  1  0.25000000  0.59935900  0.22727900  1
  Pr  Pr1  1  0.75000000  0.40064100  0.77272100  1
  Pr  Pr2  1  0.75000000  0.90064100  0.72727900  1
  Pr  Pr3  1  0.25000000  0.09935900  0.27272100  1
  Pr  Pr4  1  0.25000000  0.63408900  0.56401000  1
  Pr  Pr5  1  0.75000000  0.36591100  0.43599000  1
  Pr  Pr6  1  0.75000000  0.86591100  0.06401000  1
  Pr  Pr7  1  0.25000000  0.13408900  0.93599000  1
  Ru  Ru0  1  0.25000000  0.69291900  0.88050300  1
  Ru  Ru1  1  0.75000000  0.30708100  0.11949700  1
  Ru  Ru2  1  0.75000000  0.80708100  0.38050300  1
  Ru  Ru3  1  0.25000000  0.19291900  0.61949700  1
  O  O0  1  0.25000000  0.98956200  0.09767200  1
  O  O1  1  0.75000000  0.01043800  0.90232800  1
  O  O2  1  0.75000000  0.51043800  0.59767200  1
  O  O3  1  0.25000000  0.48956200  0.40232800  1
  O  O4  1  0.25000000  0.71984300  0.04159600  1
  O  O5  1  0.75000000  0.28015700  0.95840400  1
  O  O6  1  0.75000000  0.78015700  0.54159600  1
  O  O7  1  0.25000000  0.21984300  0.45840400  1
  O  O8  1  0.25000000  0.77423600  0.72694200  1
  O  O9  1  0.75000000  0.22576400  0.27305800  1
  O  O10  1  0.75000000  0.72576400  0.22694200  1
  O  O11  1  0.25000000  0.27423600  0.77305800  1
  O  O12  1  0.25000000  0.53476500  0.80636700  1
  O  O13  1  0.75000000  0.46523500  0.19363300  1
  O  O14  1  0.75000000  0.96523500  0.30636700  1
  O  O15  1  0.25000000  0.03476500  0.69363300  1
  O  O16  1  0.25000000  0.76209200  0.38278600  1
  O  O17  1  0.75000000  0.23790800  0.61721400  1
  O  O18  1  0.75000000  0.73790800  0.88278600  1
  O  O19  1  0.25000000  0.26209200  0.11721400  1
loop_
_geom_bond_atom_site_label_1
_geom_bond_atom_site_label_2
_geom_bond_distance
_geom_bond_site_symmetry_2
O0 Pr3 2.362397 1_565
O0 Pr6 2.431300 1_555
O0 Pr6 2.431300 1_455
O0 Pr7 2.446866 1_564
O1 Pr2 2.362397 1_545
O1 Pr7 2.431300 1_655
O1 Pr7 2.431300 1_555
O1 Pr6 2.446866 1_546
O2 Pr1 2.362397 1_555
O2 Pr4 2.431300 1_555
O2 Pr4 2.431300 1_655
O2 Pr5 2.446866 1_555
O3 Pr0 2.362397 1_555
O3 Pr5 2.431300 1_455
O3 Pr5 2.431300 1_555
O3 Pr4 2.446866 1_555
O4 Ru0 1.905210 1_554
O4 Pr0 2.527774 1_555
O4 Pr6 2.554238 1_555
O4 Pr6 2.554238 1_455
O5 Ru1 1.905210 1_556
O5 Pr1 2.527774 1_555
O5 Pr7 2.554238 1_655
O5 Pr7 2.554238 1_555
O6 Ru2 1.905210 1_555
O6 Pr2 2.527774 1_555
O6 Pr4 2.554238 1_555
O6 Pr4 2.554238 1_655
O7 Ru3 1.905210 1_555
O7 Pr3 2.527774 1_555
O7 Pr5 2.554238 1_455
O7 Pr5 2.554238 1_555
O8 Ru0 1.996680 1_555
O8 Pr2 2.415787 1_555
O8 Pr2 2.415787 1_455
O8 Pr4 2.428668 1_555
O9 Ru1 1.996680 1_555
O9 Pr3 2.415787 1_655
O9 Pr3 2.415787 1_555
O9 Pr5 2.428668 1_555
O10 Ru2 1.996680 1_555
O10 Pr0 2.415787 1_555
O10 Pr0 2.415787 1_655
O10 Pr6 2.428668 1_555
O11 Ru3 1.996680 1_555
O11 Pr1 2.415787 1_555
O11 Pr1 2.415787 1_455
O11 Pr7 2.428668 1_555
O12 Ru0 1.908685 1_555
O12 Pr1 2.494639 1_555
O12 Pr1 2.494639 1_455
O12 Pr4 3.027645 1_555
O13 Ru1 1.908685 1_555
O13 Pr0 2.494639 1_555
O13 Pr0 2.494639 1_655
O13 Pr5 3.027645 1_555
O14 Ru2 1.908685 1_555
O14 Pr3 2.494639 1_565
O14 Pr3 2.494639 1_665
O14 Pr6 3.027645 1_555
O15 Ru3 1.908685 1_555
O15 Pr2 2.494639 1_545
O15 Pr2 2.494639 1_445
O15 Pr7 3.027645 1_555
O16 Ru2 2.055062 1_555
O16 Ru2 2.055062 1_455
O16 Pr0 2.523156 1_555
O16 Pr4 2.526285 1_555
O17 Ru3 2.055062 1_655
O17 Ru3 2.055062 1_555
O17 Pr1 2.523156 1_555
O17 Pr5 2.526285 1_555
O18 Ru0 2.055062 1_555
O18 Ru0 2.055062 1_655
O18 Pr2 2.523156 1_555
O18 Pr6 2.526285 1_556
O19 Ru1 2.055062 1_555
O19 Ru1 2.055062 1_455
O19 Pr3 2.523156 1_555
O19 Pr7 2.526285 1_554
