# generated using pymatgen
data_Al2(WO4)3
_symmetry_space_group_name_H-M   'P 1'
_cell_length_a   9.31313600
_cell_length_b   9.21372900
_cell_length_c   12.90492797
_cell_angle_alpha   89.94044401
_cell_angle_beta   90.00000000
_cell_angle_gamma   90.00000000
_symmetry_Int_Tables_number   1
_chemical_formula_structural   Al2(WO4)3
_chemical_formula_sum   'Al8 W12 O48'
_cell_volume   1107.35463972
_cell_formula_units_Z   4
loop_
 _symmetry_equiv_pos_site_id
 _symmetry_equiv_pos_as_xyz
  1  'x, y, z'
loop_
 _atom_site_type_symbol
 _atom_site_label
 _atom_site_symmetry_multiplicity
 _atom_site_fract_x
 _atom_site_fract_y
 _atom_site_fract_z
 _atom_site_occupancy
  Al  Al0  1  0.46763000  0.00470600  0.13484300  1
  Al  Al1  1  0.46851300  0.49540900  0.87167400  1
  Al  Al2  1  0.53604100  0.50623700  0.37153300  1
  Al  Al3  1  0.52999000  0.99586400  0.63630900  1
  Al  Al4  1  0.96851300  0.50459100  0.12832600  1
  Al  Al5  1  0.02999000  0.00413600  0.36369100  1
  Al  Al6  1  0.03604100  0.49376300  0.62846700  1
  Al  Al7  1  0.96763000  0.99529400  0.86515700  1
  W  W0  1  0.37999600  0.14728400  0.39843000  1
  W  W1  1  0.38612100  0.64014700  0.60920200  1
  W  W2  1  0.87999600  0.85271600  0.60157000  1
  W  W3  1  0.25005500  0.22337100  0.75167800  1
  W  W4  1  0.11792200  0.64091800  0.88976900  1
  W  W5  1  0.11924900  0.14520600  0.10072000  1
  W  W6  1  0.75005500  0.77662900  0.24832200  1
  W  W7  1  0.61924900  0.85479400  0.89928000  1
  W  W8  1  0.88612100  0.35985300  0.39079800  1
  W  W9  1  0.75029200  0.27191400  0.75055700  1
  W  W10  1  0.25029200  0.72808600  0.24944300  1
  W  W11  1  0.61792200  0.35908200  0.11023100  1
  O  O0  1  0.34390200  0.33418000  0.84610200  1
  O  O1  1  0.49982800  0.56925800  0.50741200  1
  O  O2  1  0.93528900  0.44087100  0.26798100  1
  O  O3  1  0.99982800  0.43074200  0.49258800  1
  O  O4  1  0.83506500  0.15317900  0.84436000  1
  O  O5  1  0.37484500  0.10362600  0.68957600  1
  O  O6  1  0.80588000  0.39441900  0.08466200  1
  O  O7  1  0.07028900  0.55597600  0.76856100  1
  O  O8  1  0.15404800  0.84057600  0.34074400  1
  O  O9  1  0.88091300  0.37883400  0.67943200  1
  O  O10  1  0.43528900  0.55912900  0.73201900  1
  O  O11  1  0.90617500  0.16541500  0.38108200  1
  O  O12  1  0.08656600  0.33902900  0.10235400  1
  O  O13  1  0.61539500  0.88297900  0.18268000  1
  O  O14  1  0.01347700  0.05630300  0.00148300  1
  O  O15  1  0.98096700  0.93634300  0.49739300  1
  O  O16  1  0.50575100  0.43142500  0.00783100  1
  O  O17  1  0.66580600  0.66525200  0.34691900  1
  O  O18  1  0.68835700  0.88391300  0.58681600  1
  O  O19  1  0.30588000  0.60558100  0.91533800  1
  O  O20  1  0.06949100  0.06940400  0.22416200  1
  O  O21  1  0.33506500  0.84682100  0.15564000  1
  O  O22  1  0.09354800  0.83497000  0.87770800  1
  O  O23  1  0.87484500  0.89637400  0.31042400  1
  O  O24  1  0.91553400  0.65927500  0.60628300  1
  O  O25  1  0.81149400  0.88283000  0.91405300  1
  O  O26  1  0.59354800  0.16503000  0.12229200  1
  O  O27  1  0.69867300  0.39605100  0.41671700  1
  O  O28  1  0.93346700  0.93592900  0.72197500  1
  O  O29  1  0.18835700  0.11608700  0.41318400  1
  O  O30  1  0.00575100  0.56857500  0.99216900  1
  O  O31  1  0.40617500  0.83458500  0.61891800  1
  O  O32  1  0.11539500  0.11702100  0.81732000  1
  O  O33  1  0.51347700  0.94369700  0.99851700  1
  O  O34  1  0.56949100  0.93059600  0.77583800  1
  O  O35  1  0.65404800  0.15942400  0.65925600  1
  O  O36  1  0.57028900  0.44402400  0.23143900  1
  O  O37  1  0.31149400  0.11717000  0.08594700  1
  O  O38  1  0.58656600  0.66097100  0.89764600  1
  O  O39  1  0.48096700  0.06365700  0.50260700  1
  O  O40  1  0.38091300  0.62116600  0.32056800  1
  O  O41  1  0.43346700  0.06407100  0.27802500  1
  O  O42  1  0.16580600  0.33474800  0.65308100  1
  O  O43  1  0.41553400  0.34072500  0.39371700  1
  O  O44  1  0.12753100  0.61248400  0.17898200  1
  O  O45  1  0.62753100  0.38751600  0.82101800  1
  O  O46  1  0.19867300  0.60394900  0.58328300  1
  O  O47  1  0.84390200  0.66582000  0.15389800  1
loop_
_geom_bond_atom_site_label_1
_geom_bond_atom_site_label_2
_geom_bond_distance
_geom_bond_site_symmetry_2
Al0 O13 1.879191 1_545
Al0 O26 1.892884 1_555
Al0 O37 1.893407 1_555
Al0 O33 1.896155 1_544
Al0 O21 1.926558 1_545
Al0 O41 1.953638 1_555
Al1 O16 1.884954 1_556
Al1 O45 1.900040 1_555
Al1 O19 1.908717 1_555
Al1 O38 1.910276 1_555
Al1 O0 1.914027 1_555
Al1 O10 1.919970 1_555
Al2 O1 1.878248 1_555
Al2 O40 1.907795 1_555
Al2 O27 1.914029 1_555
Al2 O43 1.914726 1_555
Al2 O36 1.923792 1_555
Al2 O17 1.925364 1_555
Al3 O5 1.883474 1_565
Al3 O39 1.890349 1_565
Al3 O31 1.894427 1_555
Al3 O18 1.910127 1_555
Al3 O35 1.922118 1_565
Al3 O34 1.933112 1_555
Al4 O30 1.884954 1_654
Al4 O44 1.900040 1_655
Al4 O6 1.908717 1_555
Al4 O12 1.910276 1_655
Al4 O47 1.914027 1_555
Al4 O2 1.919970 1_555
Al5 O23 1.883474 1_445
Al5 O15 1.890349 1_445
Al5 O11 1.894427 1_455
Al5 O29 1.910127 1_555
Al5 O8 1.922118 1_545
Al5 O20 1.933112 1_555
Al6 O3 1.878248 1_455
Al6 O9 1.907795 1_455
Al6 O46 1.914029 1_555
Al6 O24 1.914726 1_455
Al6 O7 1.923792 1_555
Al6 O42 1.925364 1_555
Al7 O32 1.879191 1_665
Al7 O22 1.892884 1_655
Al7 O25 1.893407 1_555
Al7 O14 1.896155 1_666
Al7 O4 1.926558 1_565
Al7 O28 1.953638 1_555
O0 W3 1.814848 1_555
O1 W1 1.809788 1_555
O2 W8 1.810110 1_555
O3 W8 1.809788 1_555
O4 W9 1.811834 1_555
O5 W3 1.792222 1_555
O6 W11 1.810755 1_555
O7 W4 1.805135 1_555
O8 W10 1.807877 1_555
O9 W9 1.814092 1_555
O10 W1 1.810110 1_555
O11 W8 1.805696 1_555
O12 W5 1.811731 1_555
O13 W6 1.802446 1_555
O14 W5 1.812062 1_555
O15 W2 1.811964 1_555
O16 W11 1.811090 1_555
O17 W6 1.812448 1_555
O18 W2 1.817726 1_555
O19 W4 1.810755 1_555
O20 W5 1.799417 1_555
O21 W10 1.811834 1_555
O22 W4 1.808843 1_555
O23 W6 1.792222 1_555
O24 W2 1.813740 1_555
O25 W7 1.818989 1_555
O26 W11 1.808843 1_555
O27 W8 1.808567 1_555
O28 W2 1.803509 1_555
O29 W0 1.817726 1_555
O30 W4 1.811090 1_555
O31 W1 1.805696 1_555
O32 W3 1.802446 1_555
O33 W7 1.812062 1_555
O34 W7 1.799417 1_555
O35 W9 1.807877 1_555
O36 W11 1.805135 1_555
O37 W5 1.818989 1_555
O38 W7 1.811731 1_555
O39 W0 1.811964 1_555
O40 W10 1.814092 1_555
O41 W0 1.803509 1_555
O42 W3 1.812448 1_555
O43 W0 1.813740 1_555
O44 W10 1.808434 1_555
O45 W9 1.808434 1_555
O46 W1 1.808567 1_555
O47 W6 1.814848 1_555
