# generated using pymatgen
data_Cs2Zr2Mn(MoO4)6
_symmetry_space_group_name_H-M   'P 1'
_cell_length_a   8.95801700
_cell_length_b   8.97076037
_cell_length_c   8.97799926
_cell_angle_alpha   100.09099372
_cell_angle_beta   100.27959367
_cell_angle_gamma   100.11928867
_symmetry_Int_Tables_number   1
_chemical_formula_structural   Cs2Zr2Mn(MoO4)6
_chemical_formula_sum   'Cs2 Zr2 Mn1 Mo6 O24'
_cell_volume   682.77476102
_cell_formula_units_Z   1
loop_
 _symmetry_equiv_pos_site_id
 _symmetry_equiv_pos_as_xyz
  1  'x, y, z'
loop_
 _atom_site_type_symbol
 _atom_site_label
 _atom_site_symmetry_multiplicity
 _atom_site_fract_x
 _atom_site_fract_y
 _atom_site_fract_z
 _atom_site_occupancy
  Cs  Cs0  1  0.66677700  0.66803100  0.66804500  1
  Cs  Cs1  1  0.33322300  0.33196900  0.33195500  1
  Zr  Zr0  1  0.00000000  0.00000000  0.50000000  1
  Zr  Zr1  1  0.00000000  0.50000000  0.00000000  1
  Mn  Mn0  1  0.50000000  0.00000000  0.00000000  1
  Mo  Mo0  1  0.69951600  0.15496300  0.71277900  1
  Mo  Mo1  1  0.15654300  0.71220300  0.70015800  1
  Mo  Mo2  1  0.71139800  0.70013900  0.15522900  1
  Mo  Mo3  1  0.30048400  0.84503700  0.28722100  1
  Mo  Mo4  1  0.84345700  0.28779700  0.29984200  1
  Mo  Mo5  1  0.28860200  0.29986100  0.84477100  1
  O  O0  1  0.81100200  0.05834800  0.58718300  1
  O  O1  1  0.05860300  0.58707200  0.81127000  1
  O  O2  1  0.58857800  0.80542100  0.06056300  1
  O  O3  1  0.18899800  0.94165200  0.41281700  1
  O  O4  1  0.94139700  0.41292800  0.18873000  1
  O  O5  1  0.41142200  0.19457900  0.93943700  1
  O  O6  1  0.64225500  0.02412500  0.83017600  1
  O  O7  1  0.02201500  0.83531700  0.64011800  1
  O  O8  1  0.83498800  0.64006900  0.02149600  1
  O  O9  1  0.35774500  0.97587500  0.16982400  1
  O  O10  1  0.97798500  0.16468300  0.35988200  1
  O  O11  1  0.16501200  0.35993100  0.97850400  1
  O  O12  1  0.53678600  0.19692000  0.60358500  1
  O  O13  1  0.19841300  0.60337200  0.53762300  1
  O  O14  1  0.60240400  0.53801000  0.19734300  1
  O  O15  1  0.46321400  0.80308000  0.39641500  1
  O  O16  1  0.80158700  0.39662800  0.46237700  1
  O  O17  1  0.39759600  0.46199000  0.80265700  1
  O  O18  1  0.82270300  0.33319900  0.83910000  1
  O  O19  1  0.32935700  0.83368400  0.81752300  1
  O  O20  1  0.83890000  0.82325900  0.33344500  1
  O  O21  1  0.17729700  0.66680100  0.16090000  1
  O  O22  1  0.67064300  0.16631600  0.18247700  1
  O  O23  1  0.16110000  0.17674100  0.66655500  1
loop_
_geom_bond_atom_site_label_1
_geom_bond_atom_site_label_2
_geom_bond_distance
_geom_bond_site_symmetry_2
Cs0 O17 3.308802 1_555
Cs0 O15 3.311288 1_555
Cs0 O16 3.324043 1_555
Cs0 O6 3.332079 1_565
Cs0 O8 3.332923 1_556
Cs0 O7 3.343652 1_655
Cs1 O14 3.308802 1_555
Cs1 O12 3.311288 1_555
Cs1 O13 3.324043 1_555
Cs1 O9 3.332079 1_545
Cs1 O11 3.332923 1_554
Cs1 O10 3.343652 1_455
Mn0 O2 2.153465 1_545
Mn0 O5 2.153465 1_554
Mn0 O19 2.166771 1_544
Mn0 O22 2.166771 1_555
Mn0 O9 2.169687 1_545
Mn0 O6 2.169687 1_554
Mo0 O12 1.743502 1_555
Mo0 O6 1.779472 1_555
Mo0 O18 1.832580 1_555
Mo0 O0 1.839475 1_555
Mo1 O13 1.745851 1_555
Mo1 O19 1.765510 1_555
Mo1 O1 1.839462 1_555
Mo1 O7 1.845822 1_555
Mo2 O14 1.742715 1_555
Mo2 O2 1.771309 1_555
Mo2 O20 1.835674 1_555
Mo2 O8 1.847975 1_555
Mo3 O15 1.743502 1_555
Mo3 O9 1.779472 1_555
Mo3 O21 1.832580 1_555
Mo3 O3 1.839475 1_555
Mo4 O16 1.745851 1_555
Mo4 O22 1.765510 1_555
Mo4 O4 1.839462 1_555
Mo4 O10 1.845822 1_555
Mo5 O17 1.742715 1_555
Mo5 O5 1.771309 1_555
Mo5 O23 1.835674 1_555
Mo5 O11 1.847975 1_555
O0 Zr0 2.096151 1_655
O1 Zr1 2.096171 1_556
O3 Zr0 2.096151 1_565
O4 Zr1 2.096171 1_655
O7 Zr0 2.114000 1_565
O8 Zr1 2.114387 1_655
O10 Zr0 2.114000 1_655
O11 Zr1 2.114387 1_556
O18 Zr1 2.106381 1_656
O20 Zr0 2.104152 1_665
O21 Zr1 2.106381 1_555
O23 Zr0 2.104152 1_555
