# generated using pymatgen
data_Yb2GaNi2
_symmetry_space_group_name_H-M   'P 1'
_cell_length_a   4.12306574
_cell_length_b   5.24308341
_cell_length_c   5.20814048
_cell_angle_alpha   120.22219085
_cell_angle_beta   113.31768465
_cell_angle_gamma   90.00000000
_symmetry_Int_Tables_number   1
_chemical_formula_structural   Yb2GaNi2
_chemical_formula_sum   'Yb2 Ga1 Ni2'
_cell_volume   86.47660245
_cell_formula_units_Z   1
loop_
 _symmetry_equiv_pos_site_id
 _symmetry_equiv_pos_as_xyz
  1  'x, y, z'
loop_
 _atom_site_type_symbol
 _atom_site_label
 _atom_site_symmetry_multiplicity
 _atom_site_fract_x
 _atom_site_fract_y
 _atom_site_fract_z
 _atom_site_occupancy
  Yb  Yb0  1  0.79856469  0.29856469  0.59712938  1
  Yb  Yb1  1  0.20143531  0.70143531  0.40287062  1
  Ga  Ga0  1  0.00000000  0.00000000  0.00000000  1
  Ni  Ni0  1  0.50000000  0.26713326  0.00000000  1
  Ni  Ni1  1  0.50000000  0.73286674  0.00000000  1
loop_
_geom_bond_atom_site_label_1
_geom_bond_atom_site_label_2
_geom_bond_distance
_geom_bond_site_symmetry_2
Yb0 Yb1 3.223199 1_656
Yb0 Yb1 3.424364 1_655
Yb0 Yb1 3.424364 1_555
Yb0 Yb1 3.424364 1_645
Yb0 Yb1 3.424364 1_545
Ga0 Ni0 2.492309 1_555
Ga0 Ni0 2.492309 1_455
Ga0 Ni1 2.492309 1_545
Ga0 Ni1 2.492309 1_445
Ga0 Yb1 3.077293 1_555
Ga0 Yb0 3.077293 1_444
Ga0 Yb0 3.077293 1_454
Ga0 Yb1 3.077293 1_545
Ga0 Yb0 3.155276 1_455
Ga0 Yb1 3.155276 1_544
Ga0 Yb0 3.155276 1_555
Ga0 Yb1 3.155276 1_444
Ni0 Ni1 2.441879 1_555
Ni0 Yb0 2.769031 1_555
Ni0 Yb1 2.769031 1_544
Ni0 Ni1 2.801204 1_545
Ni0 Yb1 2.887536 1_655
Ni0 Yb0 2.887536 1_454
Ni0 Yb1 2.887536 1_555
Ni0 Yb0 2.887536 1_554
Ni1 Yb1 2.769031 1_554
Ni1 Yb0 2.769031 1_565
Ni1 Yb0 2.887536 1_454
Ni1 Yb1 2.887536 1_655
Ni1 Yb0 2.887536 1_554
Ni1 Yb1 2.887536 1_555
