# generated using pymatgen
data_AlV2O4
_symmetry_space_group_name_H-M   'P 1'
_cell_length_a   5.89281210
_cell_length_b   5.98038153
_cell_length_c   10.41105493
_cell_angle_alpha   71.95306971
_cell_angle_beta   90.00546046
_cell_angle_gamma   119.49213004
_symmetry_Int_Tables_number   1
_chemical_formula_structural   AlV2O4
_chemical_formula_sum   'Al4 V8 O16'
_cell_volume   298.45184942
_cell_formula_units_Z   4
loop_
 _symmetry_equiv_pos_site_id
 _symmetry_equiv_pos_as_xyz
  1  'x, y, z'
loop_
 _atom_site_type_symbol
 _atom_site_label
 _atom_site_symmetry_multiplicity
 _atom_site_fract_x
 _atom_site_fract_y
 _atom_site_fract_z
 _atom_site_occupancy
  Al  Al0  1  0.68934000  0.37876600  0.93606800  1
  Al  Al1  1  0.18265800  0.36542300  0.44299200  1
  Al  Al2  1  0.81734800  0.63463200  0.55734400  1
  Al  Al3  1  0.31134700  0.62257500  0.06414000  1
  V  V0  1  0.75425000  0.50861400  0.24861700  1
  V  V1  1  0.24468200  0.48953800  0.75245600  1
  V  V2  1  0.73983200  0.00167200  0.25047600  1
  V  V3  1  0.26068400  0.99791200  0.74936700  1
  V  V4  1  0.26184600  0.00178200  0.25049100  1
  V  V5  1  0.73751200  0.99793000  0.74939200  1
  V  V6  1  0.50023200  0.00059000  0.49959500  1
  V  V7  1  0.00065700  0.00140600  0.99941900  1
  O  O0  1  0.88032800  0.76055000  0.37222200  1
  O  O1  1  0.36867500  0.73716400  0.87846900  1
  O  O2  1  0.63105600  0.26234600  0.12156200  1
  O  O3  1  0.11951100  0.23904000  0.62819000  1
  O  O4  1  0.86451400  0.24227000  0.87616200  1
  O  O5  1  0.37168300  0.24369000  0.38017600  1
  O  O6  1  0.12842800  0.75484400  0.62027100  1
  O  O7  1  0.62374600  0.75865000  0.12327500  1
  O  O8  1  0.63057700  0.26094900  0.61678600  1
  O  O9  1  0.12396200  0.24788400  0.12701600  1
  O  O10  1  0.37777300  0.24227800  0.87615800  1
  O  O11  1  0.87195200  0.24363600  0.38023500  1
  O  O12  1  0.62642600  0.75486600  0.62028800  1
  O  O13  1  0.13500000  0.75870500  0.12327300  1
  O  O14  1  0.87664100  0.75328000  0.87267900  1
  O  O15  1  0.36933700  0.73900700  0.38288300  1
loop_
_geom_bond_atom_site_label_1
_geom_bond_atom_site_label_2
_geom_bond_distance
_geom_bond_site_symmetry_2
Al0 O2 1.806598 1_556
Al0 O10 1.807172 1_555
Al0 O4 1.807245 1_555
Al0 O14 1.822216 1_555
Al1 O3 1.802113 1_555
Al1 O11 1.814189 1_455
Al1 O5 1.814389 1_555
Al1 O15 1.818584 1_555
Al2 O0 1.801408 1_555
Al2 O6 1.816710 1_655
Al2 O12 1.816825 1_555
Al2 O8 1.819339 1_555
Al3 O13 1.807020 1_555
Al3 O7 1.807038 1_555
Al3 O1 1.808804 1_554
Al3 O9 1.823191 1_555
O0 V2 2.101002 1_565
O0 V4 2.101459 1_665
O0 V0 2.139397 1_555
O1 V3 2.078812 1_555
O1 V5 2.080061 1_555
O1 V1 2.141560 1_555
O2 V2 2.080820 1_555
O2 V4 2.080869 1_555
O2 V0 2.144757 1_555
O3 V5 2.101412 1_445
O3 V3 2.101644 1_545
O3 V1 2.138862 1_555
O4 V7 2.087488 1_655
O4 V1 2.103074 1_655
O4 V5 2.134294 1_545
O5 V6 2.048765 1_555
O5 V0 2.146563 1_555
O5 V4 2.150095 1_555
O6 V6 2.055427 1_565
O6 V1 2.144237 1_555
O6 V3 2.149818 1_555
O7 V7 2.090292 1_664
O7 V0 2.110283 1_555
O7 V2 2.132470 1_565
O8 V5 2.099410 1_545
O8 V3 2.100027 1_545
O8 V6 2.121859 1_555
O9 V4 2.117513 1_555
O9 V2 2.119034 1_455
O9 V7 2.150333 1_554
O10 V7 2.088927 1_555
O10 V1 2.102860 1_555
O10 V3 2.134596 1_545
O11 V6 2.049784 1_555
O11 V0 2.146285 1_555
O11 V2 2.151004 1_555
O12 V6 2.055018 1_565
O12 V1 2.145901 1_555
O12 V5 2.149799 1_555
O13 V7 2.089894 1_564
O13 V0 2.112149 1_455
O13 V4 2.132852 1_565
O14 V5 2.116043 1_555
O14 V3 2.118256 1_655
O14 V7 2.149953 1_665
O15 V4 2.099645 1_565
O15 V2 2.101560 1_565
O15 V6 2.123241 1_565
