# generated using pymatgen
data_Li2CoSi3O8
_symmetry_space_group_name_H-M   'P 1'
_cell_length_a   6.68727838
_cell_length_b   13.09857953
_cell_length_c   8.64714800
_cell_angle_alpha   89.99893416
_cell_angle_beta   90.00350545
_cell_angle_gamma   106.24469114
_symmetry_Int_Tables_number   1
_chemical_formula_structural   Li2CoSi3O8
_chemical_formula_sum   'Li8 Co4 Si12 O32'
_cell_volume   727.19688277
_cell_formula_units_Z   4
loop_
 _symmetry_equiv_pos_site_id
 _symmetry_equiv_pos_as_xyz
  1  'x, y, z'
loop_
 _atom_site_type_symbol
 _atom_site_label
 _atom_site_symmetry_multiplicity
 _atom_site_fract_x
 _atom_site_fract_y
 _atom_site_fract_z
 _atom_site_occupancy
  Li  Li0  1  0.25867000  0.44009300  0.30264900  1
  Li  Li1  1  0.25844200  0.94001700  0.30272400  1
  Li  Li2  1  0.74153800  0.05996100  0.80272000  1
  Li  Li3  1  0.74134400  0.55991800  0.80267200  1
  Li  Li4  1  0.50351400  0.25813500  0.76590300  1
  Li  Li5  1  0.50338000  0.75815700  0.76592000  1
  Li  Li6  1  0.49663800  0.24184400  0.26591600  1
  Li  Li7  1  0.49646000  0.74184500  0.26589500  1
  Co  Co0  1  0.38638100  0.52058400  0.99907100  1
  Co  Co1  1  0.61391300  0.47942400  0.49922500  1
  Co  Co2  1  0.38627400  0.02068800  0.99921000  1
  Co  Co3  1  0.61349800  0.97931200  0.49910900  1
  Si  Si0  1  0.03450600  0.19904700  0.52814900  1
  Si  Si1  1  0.03458000  0.69914600  0.52819400  1
  Si  Si2  1  0.96538500  0.30084900  0.02821100  1
  Si  Si3  1  0.96559400  0.80096800  0.02813100  1
  Si  Si4  1  0.09046700  0.12684600  0.19543700  1
  Si  Si5  1  0.09060200  0.62684200  0.19552900  1
  Si  Si6  1  0.90950300  0.37314700  0.69553800  1
  Si  Si7  1  0.90953400  0.87315800  0.69548000  1
  Si  Si8  1  0.28617600  0.06806900  0.66191900  1
  Si  Si9  1  0.28622300  0.56810900  0.66189700  1
  Si  Si10  1  0.71377200  0.43188700  0.16189000  1
  Si  Si11  1  0.71381500  0.93192400  0.16187100  1
  O  O0  1  0.07139100  0.48851900  0.73895800  1
  O  O1  1  0.07133200  0.98852800  0.73900800  1
  O  O2  1  0.92872300  0.01144900  0.23888600  1
  O  O3  1  0.92863100  0.51147900  0.23884400  1
  O  O4  1  0.98684400  0.18043000  0.05657800  1
  O  O5  1  0.98710300  0.68054900  0.05668800  1
  O  O6  1  0.01291700  0.31945000  0.55666000  1
  O  O7  1  0.01321400  0.81959000  0.55659500  1
  O  O8  1  0.11531000  0.20532300  0.34721300  1
  O  O9  1  0.11554200  0.70535900  0.34728400  1
  O  O10  1  0.88441800  0.29465200  0.84727900  1
  O  O11  1  0.88478100  0.79467800  0.84721200  1
  O  O12  1  0.17371400  0.39200100  0.06829300  1
  O  O13  1  0.17385700  0.89218000  0.06829200  1
  O  O14  1  0.82629600  0.10782700  0.56834200  1
  O  O15  1  0.82614600  0.60804300  0.56838600  1
  O  O16  1  0.23441700  0.18540000  0.63413200  1
  O  O17  1  0.23431400  0.68539900  0.63424400  1
  O  O18  1  0.76560800  0.31458700  0.13419400  1
  O  O19  1  0.76569300  0.81464100  0.13410100  1
  O  O20  1  0.32178100  0.11833900  0.15653600  1
  O  O21  1  0.32186400  0.61824300  0.15670700  1
  O  O22  1  0.67821900  0.38177000  0.65660400  1
  O  O23  1  0.67812800  0.88161000  0.65682200  1
  O  O24  1  0.35107800  0.02133100  0.50303600  1
  O  O25  1  0.35099400  0.52130700  0.50306400  1
  O  O26  1  0.64882400  0.47861400  0.00304200  1
  O  O27  1  0.64884600  0.97875900  0.00313000  1
  O  O28  1  0.46388400  0.09765000  0.79682700  1
  O  O29  1  0.46386200  0.59770700  0.79689500  1
  O  O30  1  0.53600700  0.40237100  0.29672300  1
  O  O31  1  0.53604900  0.90224300  0.29676300  1
loop_
_geom_bond_atom_site_label_1
_geom_bond_atom_site_label_2
_geom_bond_distance
_geom_bond_site_symmetry_2
Li0 O25 2.036826 1_555
Li0 O30 2.049177 1_555
Li0 O12 2.150816 1_555
Li0 O21 2.581608 1_555
Li1 O24 2.036970 1_565
Li1 O31 2.051277 1_555
Li1 O13 2.150255 1_555
Li1 O20 2.584495 1_565
Li2 O27 2.037139 1_546
Li2 O28 2.051012 1_555
Li2 O14 2.150151 1_555
Li2 O23 2.583570 1_545
Li3 O26 2.037247 1_556
Li3 O29 2.050516 1_555
Li3 O15 2.150197 1_555
Li3 O22 2.582176 1_555
Li4 O22 1.955077 1_555
Li4 O28 2.061304 1_555
Li4 O16 2.117758 1_555
Li4 O10 2.555457 1_555
Li5 O23 1.952767 1_555
Li5 O29 2.061027 1_555
Li5 O17 2.117230 1_555
Li5 O11 2.558391 1_555
Li6 O20 1.954623 1_555
Li6 O30 2.061994 1_555
Li6 O18 2.117037 1_555
Li6 O8 2.558023 1_555
Li7 O21 1.954021 1_555
Li7 O31 2.060169 1_555
Li7 O19 2.118792 1_555
Li7 O9 2.555694 1_555
Co0 O12 1.969138 1_556
Co0 O26 1.980737 1_556
Co0 O21 1.997359 1_556
Co0 O29 2.013091 1_555
Co1 O15 1.967852 1_555
Co1 O25 1.983192 1_555
Co1 O22 1.995171 1_555
Co1 O30 2.015459 1_555
Co2 O13 1.967321 1_546
Co2 O27 1.981279 1_546
Co2 O20 1.995393 1_556
Co2 O28 2.013843 1_555
Co3 O14 1.968975 1_565
Co3 O24 1.980924 1_565
Co3 O23 1.998438 1_555
Co3 O31 2.014017 1_555
O0 Si6 1.637490 1_455
O0 Si9 1.660409 1_555
O1 Si7 1.637443 1_455
O1 Si8 1.660314 1_565
O2 Si4 1.637419 1_655
O2 Si11 1.660216 1_545
O3 Si5 1.637437 1_655
O3 Si10 1.660117 1_555
O4 Si4 1.639072 1_655
O4 Si2 1.641741 1_555
O5 Si5 1.639390 1_655
O5 Si3 1.642106 1_555
O6 Si6 1.639325 1_455
O6 Si0 1.642042 1_555
O7 Si7 1.639411 1_455
O7 Si1 1.641897 1_555
O8 Si4 1.646574 1_555
O8 Si0 1.649819 1_555
O9 Si5 1.646694 1_555
O9 Si1 1.649973 1_555
O10 Si6 1.646340 1_555
O10 Si2 1.650112 1_556
O11 Si7 1.646324 1_555
O11 Si3 1.649631 1_556
O12 Si2 1.598713 1_455
O13 Si3 1.598964 1_455
O14 Si0 1.598870 1_655
O15 Si1 1.599089 1_655
O16 Si0 1.671100 1_555
O16 Si8 1.684369 1_555
O17 Si1 1.670870 1_555
O17 Si9 1.684145 1_555
O18 Si2 1.670845 1_555
O18 Si10 1.684114 1_555
O19 Si3 1.671189 1_555
O19 Si11 1.684119 1_555
O20 Si4 1.617050 1_555
O21 Si5 1.616974 1_555
O22 Si6 1.617385 1_555
O23 Si7 1.616932 1_555
O24 Si8 1.612291 1_555
O25 Si9 1.611976 1_555
O26 Si10 1.612019 1_555
O27 Si11 1.611928 1_555
O28 Si8 1.632635 1_555
O29 Si9 1.632894 1_555
O30 Si10 1.632490 1_555
O31 Si11 1.632931 1_555
