# generated using pymatgen
data_Zr6PI14
_symmetry_space_group_name_H-M   'P 1'
_cell_length_a   10.98340470
_cell_length_b   10.98340538
_cell_length_c   13.26124300
_cell_angle_alpha   90.00000000
_cell_angle_beta   90.00000000
_cell_angle_gamma   95.13368863
_symmetry_Int_Tables_number   1
_chemical_formula_structural   Zr6PI14
_chemical_formula_sum   'Zr12 P2 I28'
_cell_volume   1593.35523273
_cell_formula_units_Z   2
loop_
 _symmetry_equiv_pos_site_id
 _symmetry_equiv_pos_as_xyz
  1  'x, y, z'
loop_
 _atom_site_type_symbol
 _atom_site_label
 _atom_site_symmetry_multiplicity
 _atom_site_fract_x
 _atom_site_fract_y
 _atom_site_fract_z
 _atom_site_occupancy
  Zr  Zr0  1  0.95512900  0.17589900  0.11334300  1
  Zr  Zr1  1  0.04487100  0.82410100  0.88665700  1
  Zr  Zr2  1  0.54487100  0.32410100  0.61334300  1
  Zr  Zr3  1  0.67589900  0.45512900  0.38665700  1
  Zr  Zr4  1  0.45512900  0.67589900  0.38665700  1
  Zr  Zr5  1  0.32410100  0.54487100  0.61334300  1
  Zr  Zr6  1  0.82410100  0.04487100  0.88665700  1
  Zr  Zr7  1  0.17589900  0.95512900  0.11334300  1
  Zr  Zr8  1  0.36155200  0.36155200  0.39799400  1
  Zr  Zr9  1  0.63844800  0.63844800  0.60200600  1
  Zr  Zr10  1  0.13844800  0.13844800  0.89799400  1
  Zr  Zr11  1  0.86155200  0.86155200  0.10200600  1
  P  P0  1  0.00000000  0.00000000  0.00000000  1
  P  P1  1  0.50000000  0.50000000  0.50000000  1
  I  I0  1  0.28469900  0.53613800  0.25403400  1
  I  I1  1  0.71530100  0.46386200  0.74596600  1
  I  I2  1  0.21530100  0.96386200  0.75403400  1
  I  I3  1  0.03613800  0.78469900  0.24596600  1
  I  I4  1  0.78469900  0.03613800  0.24596600  1
  I  I5  1  0.96386200  0.21530100  0.75403400  1
  I  I6  1  0.46386200  0.71530100  0.74596600  1
  I  I7  1  0.53613800  0.28469900  0.25403400  1
  I  I8  1  0.11511700  0.36219400  0.00912400  1
  I  I9  1  0.88488300  0.63780600  0.99087600  1
  I  I10  1  0.38488300  0.13780600  0.50912400  1
  I  I11  1  0.86219400  0.61511700  0.49087600  1
  I  I12  1  0.61511700  0.86219400  0.49087600  1
  I  I13  1  0.13780600  0.38488300  0.50912400  1
  I  I14  1  0.63780600  0.88488300  0.99087600  1
  I  I15  1  0.36219400  0.11511700  0.00912400  1
  I  I16  1  0.90002700  0.40002700  0.25000000  1
  I  I17  1  0.09997300  0.59997300  0.75000000  1
  I  I18  1  0.59997300  0.09997300  0.75000000  1
  I  I19  1  0.40002700  0.90002700  0.25000000  1
  I  I20  1  0.74978800  0.25021200  0.00000000  1
  I  I21  1  0.25021200  0.74978800  0.00000000  1
  I  I22  1  0.75021200  0.24978800  0.50000000  1
  I  I23  1  0.24978800  0.75021200  0.50000000  1
  I  I24  1  0.15109200  0.15109200  0.26333900  1
  I  I25  1  0.84890800  0.84890800  0.73666100  1
  I  I26  1  0.34890800  0.34890800  0.76333900  1
  I  I27  1  0.65109200  0.65109200  0.23666100  1
loop_
_geom_bond_atom_site_label_1
_geom_bond_atom_site_label_2
_geom_bond_distance
_geom_bond_site_symmetry_2
P0 Zr11 2.457782 1_445
P0 Zr10 2.457782 1_554
P0 Zr7 2.530812 1_545
P0 Zr6 2.530812 1_454
P0 Zr0 2.530812 1_455
P0 Zr1 2.530812 1_544
P1 Zr8 2.457782 1_555
P1 Zr9 2.457782 1_555
P1 Zr5 2.530812 1_555
P1 Zr3 2.530812 1_555
P1 Zr2 2.530812 1_555
P1 Zr4 2.530812 1_555
I0 Zr8 2.885099 1_555
I0 Zr4 2.905056 1_555
I1 Zr9 2.885099 1_555
I1 Zr2 2.905056 1_555
I2 Zr10 2.885099 1_565
I2 Zr1 2.905056 1_555
I3 Zr11 2.885099 1_455
I3 Zr7 2.905056 1_555
I4 Zr11 2.885099 1_545
I4 Zr0 2.905056 1_555
I5 Zr10 2.885099 1_655
I5 Zr6 2.905056 1_555
I6 Zr9 2.885099 1_555
I6 Zr5 2.905056 1_555
I7 Zr8 2.885099 1_555
I7 Zr3 2.905056 1_555
I8 Zr10 2.896462 1_554
I8 Zr0 2.922535 1_455
I9 Zr11 2.896462 1_556
I9 Zr1 2.922535 1_655
I10 Zr8 2.896462 1_555
I10 Zr2 2.922535 1_555
I11 Zr9 2.896462 1_555
I11 Zr3 2.922535 1_555
I12 Zr9 2.896462 1_555
I12 Zr4 2.922535 1_555
I13 Zr8 2.896462 1_555
I13 Zr5 2.922535 1_555
I14 Zr11 2.896462 1_556
I14 Zr6 2.922535 1_565
I15 Zr10 2.896462 1_554
I15 Zr7 2.922535 1_545
I16 Zr3 3.158643 1_555
I16 Zr0 3.158643 1_555
I17 Zr5 3.158643 1_555
I17 Zr1 3.158643 1_555
I18 Zr6 3.158643 1_555
I18 Zr2 3.158643 1_555
I19 Zr7 3.158643 1_555
I19 Zr4 3.158643 1_555
I20 Zr0 2.888152 1_555
I20 Zr6 2.888152 1_554
I21 Zr1 2.888152 1_554
I21 Zr7 2.888152 1_555
I22 Zr2 2.888152 1_555
I22 Zr3 2.888152 1_555
I23 Zr4 2.888152 1_555
I23 Zr5 2.888152 1_555
I24 Zr0 2.961150 1_455
I24 Zr7 2.961150 1_545
I24 Zr8 3.594321 1_555
I25 Zr1 2.961150 1_655
I25 Zr6 2.961150 1_565
I25 Zr9 3.594321 1_555
I26 Zr2 2.961150 1_555
I26 Zr5 2.961150 1_555
I26 Zr10 3.594321 1_555
I27 Zr4 2.961150 1_555
I27 Zr3 2.961150 1_555
I27 Zr11 3.594321 1_555
