# generated using pymatgen
data_V5Ni(PO4)6
_symmetry_space_group_name_H-M   'P 1'
_cell_length_a   8.49982260
_cell_length_b   8.61823509
_cell_length_c   8.61823591
_cell_angle_alpha   60.00000196
_cell_angle_beta   59.53807818
_cell_angle_gamma   59.53808101
_symmetry_Int_Tables_number   1
_chemical_formula_structural   V5Ni(PO4)6
_chemical_formula_sum   'V5 Ni1 P6 O24'
_cell_volume   443.26539016
_cell_formula_units_Z   1
loop_
 _symmetry_equiv_pos_site_id
 _symmetry_equiv_pos_as_xyz
  1  'x, y, z'
loop_
 _atom_site_type_symbol
 _atom_site_label
 _atom_site_symmetry_multiplicity
 _atom_site_fract_x
 _atom_site_fract_y
 _atom_site_fract_z
 _atom_site_occupancy
  V  V0  1  0.99450500  0.00183200  0.00183200  1
  V  V1  1  0.06925400  0.64358200  0.64358200  1
  V  V2  1  0.49755200  0.50081600  0.50081600  1
  V  V3  1  0.42699700  0.85766800  0.85766800  1
  V  V4  1  0.93014300  0.35661900  0.35661900  1
  Ni  Ni0  1  0.56903800  0.14365400  0.14365400  1
  P  P0  1  0.25179600  0.24863400  0.54412600  1
  P  P1  1  0.25179600  0.95544300  0.24863400  1
  P  P2  1  0.25179600  0.54412600  0.95544300  1
  P  P3  1  0.75062400  0.45558600  0.04422800  1
  P  P4  1  0.75062400  0.04422800  0.74956200  1
  P  P5  1  0.75062400  0.74956200  0.45558600  1
  O  O0  1  0.06894800  0.11308900  0.31724300  1
  O  O1  1  0.06894800  0.50072000  0.11308900  1
  O  O2  1  0.06894800  0.31724300  0.50072000  1
  O  O3  1  0.21648300  0.09367200  0.74997200  1
  O  O4  1  0.43781100  0.18185300  0.39541800  1
  O  O5  1  0.26860500  0.40895800  0.56993200  1
  O  O6  1  0.21648300  0.93987400  0.09367200  1
  O  O7  1  0.26860500  0.75250600  0.40895800  1
  O  O8  1  0.56754400  0.61273400  0.00402000  1
  O  O9  1  0.26860500  0.56993200  0.75250600  1
  O  O10  1  0.78802400  0.25599700  0.05306100  1
  O  O11  1  0.56754400  0.00402000  0.81570400  1
  O  O12  1  0.43781100  0.98491800  0.18185300  1
  O  O13  1  0.21648300  0.74997200  0.93987400  1
  O  O14  1  0.72452700  0.43794300  0.24585600  1
  O  O15  1  0.43781100  0.39541800  0.98491800  1
  O  O16  1  0.72452700  0.24585600  0.59167400  1
  O  O17  1  0.78802400  0.05306100  0.90291800  1
  O  O18  1  0.72452700  0.59167400  0.43794300  1
  O  O19  1  0.56754400  0.81570400  0.61273400  1
  O  O20  1  0.78802400  0.90291800  0.25599700  1
  O  O21  1  0.92980900  0.67250900  0.50935000  1
  O  O22  1  0.92980900  0.50935000  0.88833300  1
  O  O23  1  0.92980900  0.88833300  0.67250900  1
loop_
_geom_bond_atom_site_label_1
_geom_bond_atom_site_label_2
_geom_bond_distance
_geom_bond_site_symmetry_2
Ni0 O12 1.987078 1_545
Ni0 O4 1.987078 1_555
Ni0 O15 1.987078 1_554
Ni0 O10 2.146955 1_555
Ni0 O17 2.146955 1_554
Ni0 O20 2.146955 1_545
O0 P1 1.530218 1_545
O0 V4 1.925531 1_455
O1 P2 1.530215 1_554
O1 V4 1.925531 1_455
O2 P0 1.530213 1_555
O2 V4 1.925531 1_455
O3 P0 1.586870 1_555
O3 V3 2.075112 1_545
O3 V0 2.131089 1_456
O4 P0 1.494655 1_555
O5 P0 1.587032 1_555
O5 V1 2.020316 1_555
O5 V2 2.164173 1_555
O6 P1 1.586859 1_555
O6 V3 2.075111 1_554
O6 V0 2.131089 1_465
O7 P1 1.587022 1_555
O7 V1 2.020319 1_555
O7 V2 2.164176 1_555
O8 P3 1.521985 1_555
O8 V3 1.944820 1_554
O9 P2 1.587015 1_555
O9 V1 2.020322 1_555
O9 V2 2.164179 1_555
O10 P3 1.550735 1_555
O10 V0 2.087281 1_555
O11 P4 1.521980 1_555
O11 V3 1.944824 1_545
O12 P1 1.494659 1_555
O13 P2 1.586876 1_555
O13 V3 2.075111 1_555
O13 V0 2.131089 1_466
O14 P3 1.571944 1_555
O14 V4 2.058507 1_555
O14 V2 2.162460 1_555
O15 P2 1.494657 1_555
O16 P4 1.571944 1_555
O16 V4 2.058507 1_555
O16 V2 2.162461 1_555
O17 P4 1.550735 1_555
O17 V0 2.087287 1_556
O18 P5 1.571944 1_555
O18 V4 2.058507 1_555
O18 V2 2.162460 1_555
O19 P5 1.521990 1_555
O19 V3 1.944817 1_555
O20 P5 1.550735 1_555
O20 V0 2.087283 1_565
O21 P5 1.535475 1_555
O21 V1 1.899350 1_655
O22 P3 1.535473 1_556
O22 V1 1.899354 1_655
O23 P4 1.535470 1_565
O23 V1 1.899357 1_655
