# generated using pymatgen
data_FeH8SO8
_symmetry_space_group_name_H-M   'P 1'
_cell_length_a   13.74660800
_cell_length_b   6.08962800
_cell_length_c   9.94699093
_cell_angle_alpha   53.24363308
_cell_angle_beta   90.00000000
_cell_angle_gamma   90.00000000
_symmetry_Int_Tables_number   1
_chemical_formula_structural   FeH8SO8
_chemical_formula_sum   'Fe4 H32 S4 O32'
_cell_volume   667.13250408
_cell_formula_units_Z   4
loop_
 _symmetry_equiv_pos_site_id
 _symmetry_equiv_pos_as_xyz
  1  'x, y, z'
loop_
 _atom_site_type_symbol
 _atom_site_label
 _atom_site_symmetry_multiplicity
 _atom_site_fract_x
 _atom_site_fract_y
 _atom_site_fract_z
 _atom_site_occupancy
  Fe  Fe0  1  0.60272700  0.15764600  0.27987600  1
  Fe  Fe1  1  0.89727300  0.15764600  0.77987600  1
  Fe  Fe2  1  0.39727300  0.84235400  0.72012400  1
  Fe  Fe3  1  0.10272700  0.84235400  0.22012400  1
  H  H0  1  0.57624100  0.12032500  0.01763500  1
  H  H1  1  0.92375900  0.12032500  0.51763500  1
  H  H2  1  0.42375900  0.87967500  0.98236500  1
  H  H3  1  0.07624100  0.87967500  0.48236500  1
  H  H4  1  0.51584300  0.87622400  0.17473000  1
  H  H5  1  0.98415700  0.87622400  0.67473000  1
  H  H6  1  0.48415700  0.12377600  0.82527000  1
  H  H7  1  0.01584300  0.12377600  0.32527000  1
  H  H8  1  0.69456400  0.43443000  0.38249000  1
  H  H9  1  0.80543600  0.43443000  0.88249000  1
  H  H10  1  0.30543600  0.56557000  0.61751000  1
  H  H11  1  0.19456400  0.56557000  0.11751000  1
  H  H12  1  0.59280700  0.34533700  0.47734400  1
  H  H13  1  0.90719300  0.34533700  0.97734400  1
  H  H14  1  0.40719300  0.65466300  0.52265600  1
  H  H15  1  0.09280700  0.65466300  0.02265600  1
  H  H16  1  0.67607100  0.67487600  0.04472500  1
  H  H17  1  0.82392900  0.67487600  0.54472500  1
  H  H18  1  0.32392900  0.32512400  0.95527500  1
  H  H19  1  0.17607100  0.32512400  0.45527500  1
  H  H20  1  0.59739200  0.63411500  0.94191600  1
  H  H21  1  0.90260800  0.63411500  0.44191600  1
  H  H22  1  0.40260800  0.36588500  0.05808400  1
  H  H23  1  0.09739200  0.36588500  0.55808400  1
  H  H24  1  0.75647700  0.94028300  0.22413900  1
  H  H25  1  0.74352300  0.94028300  0.72413900  1
  H  H26  1  0.24352300  0.05971700  0.77586100  1
  H  H27  1  0.25647700  0.05971700  0.27586100  1
  H  H28  1  0.69440100  0.14071400  0.75897400  1
  H  H29  1  0.80559900  0.14071400  0.25897400  1
  H  H30  1  0.30559900  0.85928600  0.24102600  1
  H  H31  1  0.19440100  0.85928600  0.74102600  1
  S  S0  1  0.61027000  0.62152100  0.67898900  1
  S  S1  1  0.88973000  0.62152100  0.17898900  1
  S  S2  1  0.38973000  0.37847900  0.32101100  1
  S  S3  1  0.11027000  0.37847900  0.82101100  1
  O  O0  1  0.55005400  0.73667900  0.74951900  1
  O  O1  1  0.94994600  0.73667900  0.24951900  1
  O  O2  1  0.44994600  0.26332100  0.25048100  1
  O  O3  1  0.05005400  0.26332100  0.75048100  1
  O  O4  1  0.57808500  0.74622300  0.50384000  1
  O  O5  1  0.92191500  0.74622300  0.00384000  1
  O  O6  1  0.42191500  0.25377700  0.49616000  1
  O  O7  1  0.07808500  0.25377700  0.99616000  1
  O  O8  1  0.59432900  0.31706100  0.78210500  1
  O  O9  1  0.90567100  0.31706100  0.28210500  1
  O  O10  1  0.40567100  0.68293900  0.21789500  1
  O  O11  1  0.09432900  0.68293900  0.71789500  1
  O  O12  1  0.71402600  0.67695400  0.68767700  1
  O  O13  1  0.78597400  0.67695400  0.18767700  1
  O  O14  1  0.28597400  0.32304600  0.31232300  1
  O  O15  1  0.21402600  0.32304600  0.81232300  1
  O  O16  1  0.57074000  0.00398000  0.14035400  1
  O  O17  1  0.92926000  0.00398000  0.64035400  1
  O  O18  1  0.42926000  0.99602000  0.85964600  1
  O  O19  1  0.07074000  0.99602000  0.35964600  1
  O  O20  1  0.64235700  0.29796500  0.42786700  1
  O  O21  1  0.85764300  0.29796500  0.92786700  1
  O  O22  1  0.35764300  0.70203500  0.57213300  1
  O  O23  1  0.14235700  0.70203500  0.07213300  1
  O  O24  1  0.62241900  0.56009200  0.05548100  1
  O  O25  1  0.87758100  0.56009200  0.55548100  1
  O  O26  1  0.37758100  0.43990800  0.94451900  1
  O  O27  1  0.12241900  0.43990800  0.44451900  1
  O  O28  1  0.74719900  0.03059100  0.27902800  1
  O  O29  1  0.75280100  0.03059100  0.77902800  1
  O  O30  1  0.25280100  0.96940900  0.72097200  1
  O  O31  1  0.24719900  0.96940900  0.22097200  1
loop_
_geom_bond_atom_site_label_1
_geom_bond_atom_site_label_2
_geom_bond_distance
_geom_bond_site_symmetry_2
Fe0 O24 2.124763 1_555
Fe0 O16 2.132924 1_555
Fe0 O28 2.133241 1_555
Fe0 O4 2.162111 1_545
Fe0 O2 2.164565 1_555
Fe0 O20 2.167801 1_555
Fe1 O25 2.124763 1_555
Fe1 O17 2.132924 1_555
Fe1 O29 2.133241 1_555
Fe1 O5 2.162111 1_546
Fe1 O3 2.164565 1_655
Fe1 O21 2.167801 1_555
Fe2 O26 2.124763 1_555
Fe2 O18 2.132924 1_555
Fe2 O30 2.133241 1_555
Fe2 O6 2.162111 1_565
Fe2 O0 2.164565 1_555
Fe2 O22 2.167801 1_555
Fe3 O27 2.124763 1_555
Fe3 O19 2.132924 1_555
Fe3 O31 2.133241 1_555
Fe3 O7 2.162111 1_564
Fe3 O1 2.164565 1_455
Fe3 O23 2.167801 1_555
H0 O16 0.981162 1_555
H1 O17 0.981162 1_555
H2 O18 0.981162 1_555
H3 O19 0.981162 1_555
H4 O16 0.986557 1_565
H5 O17 0.986557 1_565
H6 O18 0.986557 1_545
H7 O19 0.986557 1_545
H8 O20 0.980027 1_555
H9 O21 0.980027 1_555
H10 O22 0.980027 1_555
H11 O23 0.980027 1_555
H12 O20 0.979441 1_555
H13 O21 0.979441 1_555
H14 O22 0.979441 1_555
H15 O23 0.979441 1_555
H16 O24 0.976978 1_555
H17 O25 0.976978 1_555
H18 O26 0.976978 1_555
H19 O27 0.976978 1_555
H20 O24 0.994077 1_556
H20 O0 1.745139 1_555
H21 O25 0.994077 1_555
H21 O1 1.745139 1_555
H22 O26 0.994077 1_554
H22 O2 1.745139 1_555
H23 O27 0.994077 1_555
H23 O3 1.745139 1_555
H24 O28 0.988005 1_565
H25 O29 0.988005 1_565
H26 O30 0.988005 1_545
H27 O31 0.988005 1_545
H28 O29 0.986862 1_555
H29 O28 0.986862 1_555
H30 O31 0.986862 1_555
H31 O30 0.986862 1_555
O0 S0 1.502658 1_555
O1 S1 1.502658 1_555
O2 S2 1.502658 1_555
O3 S3 1.502658 1_555
O4 S0 1.491403 1_555
O5 S1 1.491403 1_555
O6 S2 1.491403 1_555
O7 S3 1.491403 1_555
O8 S0 1.503853 1_555
O9 S1 1.503853 1_555
O10 S2 1.503853 1_555
O11 S3 1.503853 1_555
O12 S0 1.480083 1_555
O13 S1 1.480083 1_555
O14 S2 1.480083 1_555
O15 S3 1.480083 1_555
