# generated using pymatgen
data_CaV2O4
_symmetry_space_group_name_H-M   'P 1'
_cell_length_a   6.30176056
_cell_length_b   6.30176056
_cell_length_c   15.47552296
_cell_angle_alpha   89.87511084
_cell_angle_beta   89.87511084
_cell_angle_gamma   59.88871945
_symmetry_Int_Tables_number   1
_chemical_formula_structural   CaV2O4
_chemical_formula_sum   'Ca6 V12 O24'
_cell_volume   531.63100863
_cell_formula_units_Z   6
loop_
 _symmetry_equiv_pos_site_id
 _symmetry_equiv_pos_as_xyz
  1  'x, y, z'
loop_
 _atom_site_type_symbol
 _atom_site_label
 _atom_site_symmetry_multiplicity
 _atom_site_fract_x
 _atom_site_fract_y
 _atom_site_fract_z
 _atom_site_occupancy
  Ca  Ca0  1  0.83333800  0.83333800  0.04481800  1
  Ca  Ca1  1  0.50064100  0.50064100  0.37752800  1
  Ca  Ca2  1  0.49959900  0.49959900  0.00070100  1
  Ca  Ca3  1  0.16644200  0.16644200  0.71021900  1
  Ca  Ca4  1  0.83302600  0.83302600  0.28755600  1
  Ca  Ca5  1  0.50018300  0.50018300  0.62585300  1
  V  V0  1  0.33559900  0.82975900  0.16964600  1
  V  V1  1  0.33486400  0.33486400  0.16992900  1
  V  V2  1  0.99972600  0.50053100  0.49950300  1
  V  V3  1  0.82975900  0.33559900  0.16964600  1
  V  V4  1  0.16657400  0.16657400  0.33489800  1
  V  V5  1  0.00101700  0.00101700  0.49933800  1
  V  V6  1  0.66868700  0.15883600  0.83107400  1
  V  V7  1  0.50053100  0.99972600  0.49950300  1
  V  V8  1  0.15883600  0.66868700  0.83107400  1
  V  V9  1  0.83383600  0.83383600  0.66302800  1
  V  V10  1  0.67050400  0.67050400  0.83112700  1
  V  V11  1  0.16669100  0.16669100  0.95554300  1
  O  O0  1  0.65066600  0.65066600  0.10378100  1
  O  O1  1  0.49979200  0.49979200  0.23814400  1
  O  O2  1  0.19791100  0.65152400  0.10388600  1
  O  O3  1  0.65152400  0.19791100  0.10388600  1
  O  O4  1  0.02859900  0.44485600  0.24484500  1
  O  O5  1  0.30783100  0.30783100  0.41991500  1
  O  O6  1  0.44485600  0.02859900  0.24484500  1
  O  O7  1  0.16697300  0.16697300  0.08076200  1
  O  O8  1  0.87788400  0.31287600  0.42730900  1
  O  O9  1  0.17323200  0.17323200  0.56681700  1
  O  O10  1  0.02781000  0.02781000  0.24571800  1
  O  O11  1  0.31287600  0.87788400  0.42730900  1
  O  O12  1  0.69322100  0.12294500  0.57525600  1
  O  O13  1  0.97442300  0.97442300  0.75175800  1
  O  O14  1  0.12294500  0.69322100  0.57525600  1
  O  O15  1  0.82744800  0.82744800  0.43237600  1
  O  O16  1  0.83456400  0.83456400  0.89773300  1
  O  O17  1  0.55047000  0.96903600  0.75421200  1
  O  O18  1  0.69108800  0.69108800  0.57934100  1
  O  O19  1  0.96903600  0.55047000  0.75421200  1
  O  O20  1  0.32948700  0.83238700  0.90332700  1
  O  O21  1  0.49904700  0.49904700  0.76999000  1
  O  O22  1  0.83238700  0.32948700  0.90332700  1
  O  O23  1  0.33373300  0.33373300  0.90385900  1
loop_
_geom_bond_atom_site_label_1
_geom_bond_atom_site_label_2
_geom_bond_distance
_geom_bond_site_symmetry_2
Ca0 O2 2.188620 1_655
Ca0 O3 2.188620 1_565
Ca0 O0 2.191665 1_555
Ca0 O16 2.276223 1_554
Ca1 O1 2.157084 1_555
Ca1 O11 2.196981 1_555
Ca1 O8 2.196981 1_555
Ca1 O5 2.203925 1_555
Ca2 O2 2.290870 1_555
Ca2 O3 2.290870 1_555
Ca2 O0 2.297792 1_555
Ca2 O23 2.353934 1_554
Ca2 O22 2.357026 1_554
Ca2 O20 2.357026 1_554
Ca3 O13 2.191826 1_445
Ca3 O19 2.202390 1_455
Ca3 O17 2.202390 1_545
Ca3 O9 2.220273 1_555
Ca4 O4 2.217677 1_655
Ca4 O6 2.217677 1_565
Ca4 O10 2.222045 1_665
Ca4 O15 2.241840 1_555
Ca5 O12 2.201514 1_555
Ca5 O14 2.201514 1_555
Ca5 O18 2.203933 1_555
Ca5 O21 2.230599 1_555
O0 V0 2.000667 1_555
O0 V3 2.000667 1_555
O1 V0 2.086743 1_555
O1 V3 2.086743 1_555
O1 V1 2.090044 1_555
O2 V0 2.009169 1_555
O2 V1 2.009592 1_555
O3 V3 2.009169 1_555
O3 V1 2.009592 1_555
O4 V1 2.049630 1_555
O4 V4 2.058697 1_555
O4 V3 2.067353 1_455
O5 V4 2.030047 1_555
O5 V2 2.095675 1_455
O5 V7 2.095675 1_545
O6 V1 2.049630 1_555
O6 V4 2.058697 1_555
O6 V0 2.067353 1_545
O7 V11 1.937840 1_554
O7 V0 2.294551 1_545
O7 V3 2.294551 1_455
O7 V1 2.297560 1_555
O8 V2 2.038812 1_555
O8 V5 2.042308 1_655
O8 V4 2.125182 1_655
O9 V2 2.065834 1_455
O9 V7 2.065834 1_545
O9 V5 2.153532 1_555
O10 V4 2.052271 1_555
O10 V3 2.067182 1_455
O10 V0 2.067182 1_545
O11 V7 2.038812 1_555
O11 V5 2.042308 1_565
O11 V4 2.125182 1_565
O12 V5 2.057086 1_655
O12 V9 2.079460 1_545
O12 V7 2.099524 1_545
O13 V9 2.062393 1_555
O13 V6 2.078125 1_565
O13 V8 2.078125 1_655
O14 V5 2.057086 1_565
O14 V9 2.079460 1_455
O14 V2 2.099524 1_455
O15 V7 2.062398 1_555
O15 V2 2.062398 1_555
O15 V5 2.162613 1_665
O16 V6 2.045708 1_565
O16 V8 2.045708 1_655
O16 V10 2.069299 1_555
O17 V10 2.023494 1_555
O17 V6 2.074741 1_565
O17 V9 2.091322 1_555
O18 V9 2.029238 1_555
O18 V2 2.098570 1_555
O18 V7 2.098570 1_555
O19 V10 2.023494 1_555
O19 V8 2.074741 1_655
O19 V9 2.091322 1_555
O20 V11 1.994724 1_565
O20 V8 2.143439 1_555
O20 V10 2.168454 1_555
O21 V8 2.080577 1_555
O21 V6 2.080577 1_555
O21 V10 2.100074 1_555
O22 V11 1.994724 1_655
O22 V6 2.143439 1_555
O22 V10 2.168454 1_555
O23 V11 1.990074 1_555
O23 V8 2.144706 1_555
O23 V6 2.144706 1_555
