# generated using pymatgen
data_Sr2SiS4
_symmetry_space_group_name_H-M   'P 1'
_cell_length_a   6.60873921
_cell_length_b   6.65954238
_cell_length_c   8.26228177
_cell_angle_alpha   90.00000000
_cell_angle_beta   108.21568915
_cell_angle_gamma   90.00000000
_symmetry_Int_Tables_number   1
_chemical_formula_structural   Sr2SiS4
_chemical_formula_sum   'Sr4 Si2 S8'
_cell_volume   345.40984662
_cell_formula_units_Z   2
loop_
 _symmetry_equiv_pos_site_id
 _symmetry_equiv_pos_as_xyz
  1  'x, y, z'
loop_
 _atom_site_type_symbol
 _atom_site_label
 _atom_site_symmetry_multiplicity
 _atom_site_fract_x
 _atom_site_fract_y
 _atom_site_fract_z
 _atom_site_occupancy
  Sr  Sr0  1  0.28367120  0.75000000  0.95180912  1
  Sr  Sr1  1  0.71632880  0.25000000  0.04819088  1
  Sr  Sr2  1  0.22482990  0.75000000  0.42926377  1
  Sr  Sr3  1  0.77517010  0.25000000  0.57073623  1
  Si  Si0  1  0.72130103  0.75000000  0.79684620  1
  Si  Si1  1  0.27869897  0.25000000  0.20315380  1
  S  S0  1  0.88645343  0.75000000  0.06157594  1
  S  S1  1  0.11354657  0.25000000  0.93842406  1
  S  S2  1  0.91690048  0.75000000  0.63566798  1
  S  S3  1  0.08309952  0.25000000  0.36433202  1
  S  S4  1  0.51038414  0.50196672  0.73724820  1
  S  S5  1  0.48961586  0.00196672  0.26275180  1
  S  S6  1  0.48961586  0.49803328  0.26275180  1
  S  S7  1  0.51038414  -0.00196672  0.73724820  1
loop_
_geom_bond_atom_site_label_1
_geom_bond_atom_site_label_2
_geom_bond_distance
_geom_bond_site_symmetry_2
S0 Si0 2.117287 1_554
S0 Sr0 3.033504 1_654
S0 Sr2 3.159523 1_655
S0 Sr1 3.505131 1_565
S0 Sr1 3.505131 1_555
S1 Si1 2.117287 1_556
S1 Sr1 3.033504 1_456
S1 Sr3 3.159523 1_455
S1 Sr0 3.505131 1_545
S1 Sr0 3.505131 1_555
S2 Si0 2.126179 1_555
S2 Sr0 2.956309 1_655
S2 Sr2 3.036333 1_655
S2 Sr3 3.455193 1_555
S2 Sr3 3.455193 1_565
S3 Si1 2.126179 1_555
S3 Sr1 2.956309 1_455
S3 Sr3 3.036333 1_455
S3 Sr2 3.455193 1_545
S3 Sr2 3.455193 1_555
S4 Si0 2.117712 1_555
S4 Sr1 3.013675 1_556
S4 Sr3 3.045594 1_555
S4 Sr2 3.124541 1_555
S4 Sr0 3.126744 1_555
S5 Si1 2.117712 1_555
S5 Sr0 3.013675 1_544
S5 Sr2 3.045594 1_545
S5 Sr3 3.124541 1_555
S5 Sr1 3.126744 1_555
S6 Si1 2.117712 1_555
S6 Sr0 3.013675 1_554
S6 Sr2 3.045594 1_555
S6 Sr3 3.124541 1_555
S6 Sr1 3.126744 1_555
S7 Si0 2.117712 1_545
S7 Sr1 3.013675 1_556
S7 Sr3 3.045594 1_555
S7 Sr2 3.124541 1_545
S7 Sr0 3.126744 1_545
