# generated using pymatgen
data_MoW3(SeS3)2
_symmetry_space_group_name_H-M   'P 1'
_cell_length_a   3.22158436
_cell_length_b   3.22158436
_cell_length_c   36.37825500
_cell_angle_alpha   90.00000000
_cell_angle_beta   90.00000000
_cell_angle_gamma   120.00000739
_symmetry_Int_Tables_number   1
_chemical_formula_structural   MoW3(SeS3)2
_chemical_formula_sum   'Mo1 W3 Se2 S6'
_cell_volume   326.97268879
_cell_formula_units_Z   1
loop_
 _symmetry_equiv_pos_site_id
 _symmetry_equiv_pos_as_xyz
  1  'x, y, z'
loop_
 _atom_site_type_symbol
 _atom_site_label
 _atom_site_symmetry_multiplicity
 _atom_site_fract_x
 _atom_site_fract_y
 _atom_site_fract_z
 _atom_site_occupancy
  Mo  Mo0  1  0.66666700  0.33333300  0.28179900  1
  W  W0  1  0.33333300  0.66666700  0.09391700  1
  W  W1  1  0.33333300  0.66666700  0.46965600  1
  W  W2  1  0.66666700  0.33333300  0.65755300  1
  Se  Se0  1  0.33333300  0.66666700  0.70487400  1
  Se  Se1  1  0.33333300  0.66666700  0.61024000  1
  S  S0  1  0.33333300  0.66666700  0.32457800  1
  S  S1  1  0.66666700  0.33333300  0.05097700  1
  S  S2  1  0.66666700  0.33333300  0.42672500  1
  S  S3  1  0.66666700  0.33333300  0.13685700  1
  S  S4  1  0.66666700  0.33333300  0.51257200  1
  S  S5  1  0.33333300  0.66666700  0.23900000  1
loop_
_geom_bond_atom_site_label_1
_geom_bond_atom_site_label_2
_geom_bond_distance
_geom_bond_site_symmetry_2
Mo0 S0 2.425153 1_545
Mo0 S0 2.425153 1_655
Mo0 S0 2.425157 1_555
Mo0 S5 2.425620 1_655
Mo0 S5 2.425620 1_545
Mo0 S5 2.425624 1_555
Se0 W2 2.534351 1_455
Se0 W2 2.534351 1_565
Se0 W2 2.534356 1_555
Se1 W2 2.534154 1_455
Se1 W2 2.534154 1_565
Se1 W2 2.534158 1_555
S1 W0 2.428915 1_655
S1 W0 2.428915 1_545
S1 W0 2.428920 1_555
S2 W1 2.428705 1_545
S2 W1 2.428705 1_655
S2 W1 2.428709 1_555
S3 W0 2.428915 1_545
S3 W0 2.428915 1_655
S3 W0 2.428920 1_555
S4 W1 2.428354 1_545
S4 W1 2.428354 1_655
S4 W1 2.428358 1_555
