# generated using pymatgen
data_YVO3
_symmetry_space_group_name_H-M   'P 1'
_cell_length_a   6.14666025
_cell_length_b   6.14666025
_cell_length_c   12.05651300
_cell_angle_alpha   90.00000000
_cell_angle_beta   90.00000000
_cell_angle_gamma   120.00000272
_symmetry_Int_Tables_number   1
_chemical_formula_structural   YVO3
_chemical_formula_sum   'Y6 V6 O18'
_cell_volume   394.48523802
_cell_formula_units_Z   6
loop_
 _symmetry_equiv_pos_site_id
 _symmetry_equiv_pos_as_xyz
  1  'x, y, z'
loop_
 _atom_site_type_symbol
 _atom_site_label
 _atom_site_symmetry_multiplicity
 _atom_site_fract_x
 _atom_site_fract_y
 _atom_site_fract_z
 _atom_site_occupancy
  Y  Y0  1  0.66666700  0.33333300  0.22949900  1
  Y  Y1  1  0.33333300  0.66666700  0.72949900  1
  Y  Y2  1  0.66666700  0.33333300  0.72949900  1
  Y  Y3  1  0.33333300  0.66666700  0.22949900  1
  Y  Y4  1  0.00000000  0.00000000  0.77307400  1
  Y  Y5  1  0.00000000  0.00000000  0.27307400  1
  V  V0  1  0.66445300  0.00000000  0.49750200  1
  V  V1  1  0.66445300  0.66445300  0.99750200  1
  V  V2  1  0.00000000  0.33554700  0.99750200  1
  V  V3  1  0.00000000  0.66445300  0.49750200  1
  V  V4  1  0.33554700  0.33554700  0.49750200  1
  V  V5  1  0.33554700  0.00000000  0.99750200  1
  O  O0  1  0.66666700  0.33333300  0.02474400  1
  O  O1  1  0.33333300  0.66666700  0.52474400  1
  O  O2  1  0.66666700  0.33333300  0.52474400  1
  O  O3  1  0.33333300  0.66666700  0.02474400  1
  O  O4  1  0.00000000  0.00000000  0.98199500  1
  O  O5  1  0.00000000  0.00000000  0.48199500  1
  O  O6  1  0.36009100  0.00000000  0.83876400  1
  O  O7  1  0.36009100  0.36009100  0.33876400  1
  O  O8  1  0.00000000  0.63990900  0.33876400  1
  O  O9  1  0.00000000  0.36009100  0.83876400  1
  O  O10  1  0.63990900  0.63990900  0.83876400  1
  O  O11  1  0.63990900  0.00000000  0.33876400  1
  O  O12  1  0.30739100  0.00000000  0.16754900  1
  O  O13  1  0.30739100  0.30739100  0.66754900  1
  O  O14  1  0.00000000  0.69260900  0.66754900  1
  O  O15  1  0.00000000  0.30739100  0.16754900  1
  O  O16  1  0.69260900  0.69260900  0.16754900  1
  O  O17  1  0.69260900  0.00000000  0.66754900  1
loop_
_geom_bond_atom_site_label_1
_geom_bond_atom_site_label_2
_geom_bond_distance
_geom_bond_site_symmetry_2
O0 V2 2.068358 1_654
O0 V5 2.068361 1_554
O0 V1 2.068364 1_554
O0 Y0 2.468631 1_555
O1 V3 2.068358 1_555
O1 V0 2.068361 1_565
O1 V4 2.068364 1_555
O1 Y1 2.468631 1_555
O2 V0 2.068358 1_555
O2 V3 2.068361 1_655
O2 V4 2.068364 1_555
O2 Y2 2.468631 1_555
O3 V5 2.068358 1_564
O3 V2 2.068361 1_554
O3 V1 2.068364 1_554
O3 Y3 2.468631 1_555
O4 V1 2.070950 1_445
O4 V5 2.070950 1_555
O4 V2 2.070950 1_555
O4 Y4 2.518859 1_555
O5 V4 2.070950 1_555
O5 V0 2.070950 1_455
O5 V3 2.070950 1_545
O5 Y5 2.518859 1_555
O6 V5 1.919764 1_555
O6 Y4 2.350787 1_555
O6 Y1 2.371375 1_545
O6 Y2 2.371377 1_555
O7 V4 1.919764 1_555
O7 Y5 2.350787 1_555
O7 Y3 2.371380 1_555
O7 Y0 2.371380 1_555
O8 V3 1.919764 1_555
O8 Y5 2.350787 1_565
O8 Y3 2.371375 1_555
O8 Y0 2.371377 1_455
O9 V2 1.919764 1_555
O9 Y4 2.350787 1_555
O9 Y2 2.371375 1_455
O9 Y1 2.371377 1_555
O10 V1 1.919764 1_555
O10 Y4 2.350787 1_665
O10 Y1 2.371380 1_555
O10 Y2 2.371380 1_555
O11 V0 1.919764 1_555
O11 Y5 2.350787 1_655
O11 Y0 2.371375 1_555
O11 Y3 2.371377 1_545
O12 V5 2.057466 1_554
O12 Y3 2.260072 1_545
O12 Y0 2.260075 1_555
O12 Y5 2.277848 1_555
O13 V4 2.057466 1_555
O13 Y1 2.260078 1_555
O13 Y2 2.260078 1_555
O13 Y4 2.277848 1_555
O14 V3 2.057466 1_555
O14 Y1 2.260072 1_555
O14 Y2 2.260075 1_455
O14 Y4 2.277848 1_565
O15 V2 2.057466 1_554
O15 Y0 2.260072 1_455
O15 Y3 2.260075 1_555
O15 Y5 2.277848 1_555
O16 V1 2.057466 1_554
O16 Y3 2.260078 1_555
O16 Y0 2.260078 1_555
O16 Y5 2.277848 1_665
O17 V0 2.057466 1_555
O17 Y2 2.260072 1_555
O17 Y1 2.260075 1_545
O17 Y4 2.277848 1_655
