# generated using pymatgen
data_Sm2(GePt)3
_symmetry_space_group_name_H-M   'P 1'
_cell_length_a   5.65296800
_cell_length_b   5.65296800
_cell_length_c   43.44481200
_cell_angle_alpha   90.00000000
_cell_angle_beta   90.00000000
_cell_angle_gamma   90.00000000
_symmetry_Int_Tables_number   1
_chemical_formula_structural   Sm2(GePt)3
_chemical_formula_sum   'Sm16 Ge24 Pt24'
_cell_volume   1388.32446326
_cell_formula_units_Z   8
loop_
 _symmetry_equiv_pos_site_id
 _symmetry_equiv_pos_as_xyz
  1  'x, y, z'
loop_
 _atom_site_type_symbol
 _atom_site_label
 _atom_site_symmetry_multiplicity
 _atom_site_fract_x
 _atom_site_fract_y
 _atom_site_fract_z
 _atom_site_occupancy
  Sm  Sm0_0  1  0.25000000  0.25000000  0.37931650  1
  Sm  Sm0_1  1  0.25000000  0.25000000  0.87931650  1
  Sm  Sm0_2  1  0.25000000  0.75000000  0.37931650  1
  Sm  Sm0_3  1  0.25000000  0.75000000  0.87931650  1
  Sm  Sm0_4  1  0.75000000  0.25000000  0.37931650  1
  Sm  Sm0_5  1  0.75000000  0.25000000  0.87931650  1
  Sm  Sm0_6  1  0.75000000  0.75000000  0.37931650  1
  Sm  Sm0_7  1  0.75000000  0.75000000  0.87931650  1
  Sm  Sm1_0  1  0.25000000  0.25000000  0.12068350  1
  Sm  Sm1_1  1  0.25000000  0.25000000  0.62068350  1
  Sm  Sm1_2  1  0.25000000  0.75000000  0.12068350  1
  Sm  Sm1_3  1  0.25000000  0.75000000  0.62068350  1
  Sm  Sm1_4  1  0.75000000  0.25000000  0.12068350  1
  Sm  Sm1_5  1  0.75000000  0.25000000  0.62068350  1
  Sm  Sm1_6  1  0.75000000  0.75000000  0.12068350  1
  Sm  Sm1_7  1  0.75000000  0.75000000  0.62068350  1
  Ge  Ge0_0  1  0.25000000  0.25000000  0.19367150  1
  Ge  Ge0_1  1  0.25000000  0.25000000  0.69367150  1
  Ge  Ge0_2  1  0.25000000  0.75000000  0.19367150  1
  Ge  Ge0_3  1  0.25000000  0.75000000  0.69367150  1
  Ge  Ge0_4  1  0.75000000  0.25000000  0.19367150  1
  Ge  Ge0_5  1  0.75000000  0.25000000  0.69367150  1
  Ge  Ge0_6  1  0.75000000  0.75000000  0.19367150  1
  Ge  Ge0_7  1  0.75000000  0.75000000  0.69367150  1
  Ge  Ge1_0  1  0.25000000  0.25000000  0.30632850  1
  Ge  Ge1_1  1  0.25000000  0.25000000  0.80632850  1
  Ge  Ge1_2  1  0.25000000  0.75000000  0.30632850  1
  Ge  Ge1_3  1  0.25000000  0.75000000  0.80632850  1
  Ge  Ge1_4  1  0.75000000  0.25000000  0.30632850  1
  Ge  Ge1_5  1  0.75000000  0.25000000  0.80632850  1
  Ge  Ge1_6  1  0.75000000  0.75000000  0.30632850  1
  Ge  Ge1_7  1  0.75000000  0.75000000  0.80632850  1
  Ge  Ge2_0  1  0.25000000  0.25000000  0.00000000  1
  Ge  Ge2_1  1  0.25000000  0.25000000  0.50000000  1
  Ge  Ge2_2  1  0.25000000  0.75000000  0.00000000  1
  Ge  Ge2_3  1  0.25000000  0.75000000  0.50000000  1
  Ge  Ge2_4  1  0.75000000  0.25000000  0.00000000  1
  Ge  Ge2_5  1  0.75000000  0.25000000  0.50000000  1
  Ge  Ge2_6  1  0.75000000  0.75000000  0.00000000  1
  Ge  Ge2_7  1  0.75000000  0.75000000  0.50000000  1
  Pt  Pt0_0  1  0.25000000  0.25000000  0.25000000  1
  Pt  Pt0_1  1  0.25000000  0.25000000  0.75000000  1
  Pt  Pt0_2  1  0.25000000  0.75000000  0.25000000  1
  Pt  Pt0_3  1  0.25000000  0.75000000  0.75000000  1
  Pt  Pt0_4  1  0.75000000  0.25000000  0.25000000  1
  Pt  Pt0_5  1  0.75000000  0.25000000  0.75000000  1
  Pt  Pt0_6  1  0.75000000  0.75000000  0.25000000  1
  Pt  Pt0_7  1  0.75000000  0.75000000  0.75000000  1
  Pt  Pt1_0  1  0.25000000  0.25000000  0.05734800  1
  Pt  Pt1_1  1  0.25000000  0.25000000  0.55734800  1
  Pt  Pt1_2  1  0.25000000  0.75000000  0.05734800  1
  Pt  Pt1_3  1  0.25000000  0.75000000  0.55734800  1
  Pt  Pt1_4  1  0.75000000  0.25000000  0.05734800  1
  Pt  Pt1_5  1  0.75000000  0.25000000  0.55734800  1
  Pt  Pt1_6  1  0.75000000  0.75000000  0.05734800  1
  Pt  Pt1_7  1  0.75000000  0.75000000  0.55734800  1
  Pt  Pt2_0  1  0.25000000  0.25000000  0.44265200  1
  Pt  Pt2_1  1  0.25000000  0.25000000  0.94265200  1
  Pt  Pt2_2  1  0.25000000  0.75000000  0.44265200  1
  Pt  Pt2_3  1  0.25000000  0.75000000  0.94265200  1
  Pt  Pt2_4  1  0.75000000  0.25000000  0.44265200  1
  Pt  Pt2_5  1  0.75000000  0.25000000  0.94265200  1
  Pt  Pt2_6  1  0.75000000  0.75000000  0.44265200  1
  Pt  Pt2_7  1  0.75000000  0.75000000  0.94265200  1
loop_
_geom_bond_atom_site_label_1
_geom_bond_atom_site_label_2
_geom_bond_distance
_geom_bond_site_symmetry_2
Sm0_0 Sm0_2 2.826484 1_545
Sm0_0 Sm0_4 2.826484 1_555
Sm0_0 Sm0_4 2.826484 1_455
Sm0_0 Sm0_2 2.826484 1_555
Sm0_1 Sm0_3 2.826484 1_545
Sm0_1 Sm0_3 2.826484 1_555
Sm0_1 Sm0_5 2.826484 1_455
Sm0_1 Sm0_5 2.826484 1_555
Sm0_2 Sm0_6 2.826484 1_455
Sm0_2 Sm0_6 2.826484 1_555
Sm0_3 Sm0_7 2.826484 1_555
Sm0_3 Sm0_7 2.826484 1_455
Sm0_4 Sm0_6 2.826484 1_545
Sm0_4 Sm0_6 2.826484 1_555
Sm0_5 Sm0_7 2.826484 1_555
Sm0_5 Sm0_7 2.826484 1_545
Sm1_0 Sm1_2 2.826484 1_555
Sm1_0 Sm1_2 2.826484 1_545
Sm1_0 Sm1_4 2.826484 1_455
Sm1_0 Sm1_4 2.826484 1_555
Sm1_1 Sm1_3 2.826484 1_545
Sm1_1 Sm1_5 2.826484 1_555
Sm1_1 Sm1_3 2.826484 1_555
Sm1_1 Sm1_5 2.826484 1_455
Sm1_2 Sm1_6 2.826484 1_455
Sm1_2 Sm1_6 2.826484 1_555
Sm1_3 Sm1_7 2.826484 1_455
Sm1_3 Sm1_7 2.826484 1_555
Sm1_4 Sm1_6 2.826484 1_545
Sm1_4 Sm1_6 2.826484 1_555
Sm1_5 Sm1_7 2.826484 1_545
Sm1_5 Sm1_7 2.826484 1_555
Ge0_0 Pt0_0 2.447181 1_555
Ge0_0 Ge0_2 2.826484 1_555
Ge0_0 Ge0_2 2.826484 1_545
Ge0_0 Ge0_4 2.826484 1_555
Ge0_0 Ge0_4 2.826484 1_455
Ge0_0 Sm1_0 3.170950 1_555
Ge0_1 Pt0_1 2.447181 1_555
Ge0_1 Ge0_5 2.826484 1_555
Ge0_1 Ge0_3 2.826484 1_545
Ge0_1 Ge0_5 2.826484 1_455
Ge0_1 Ge0_3 2.826484 1_555
Ge0_1 Sm1_1 3.170950 1_555
Ge0_2 Pt0_2 2.447181 1_555
Ge0_2 Ge0_6 2.826484 1_455
Ge0_2 Ge0_6 2.826484 1_555
Ge0_2 Sm1_2 3.170950 1_555
Ge0_3 Pt0_3 2.447181 1_555
Ge0_3 Ge0_7 2.826484 1_555
Ge0_3 Ge0_7 2.826484 1_455
Ge0_3 Sm1_3 3.170950 1_555
Ge0_4 Pt0_4 2.447181 1_555
Ge0_4 Ge0_6 2.826484 1_545
Ge0_4 Ge0_6 2.826484 1_555
Ge0_4 Sm1_4 3.170950 1_555
Ge0_5 Pt0_5 2.447181 1_555
Ge0_5 Ge0_7 2.826484 1_555
Ge0_5 Ge0_7 2.826484 1_545
Ge0_5 Sm1_5 3.170950 1_555
Ge0_6 Pt0_6 2.447181 1_555
Ge0_6 Sm1_6 3.170950 1_555
Ge0_7 Pt0_7 2.447181 1_555
Ge0_7 Sm1_7 3.170950 1_555
Ge1_0 Pt0_0 2.447181 1_555
Ge1_0 Ge1_4 2.826484 1_455
Ge1_0 Ge1_4 2.826484 1_555
Ge1_0 Ge1_2 2.826484 1_545
Ge1_0 Ge1_2 2.826484 1_555
Ge1_0 Sm0_0 3.170950 1_555
Ge1_1 Pt0_1 2.447181 1_555
Ge1_1 Ge1_3 2.826484 1_555
Ge1_1 Ge1_5 2.826484 1_455
Ge1_1 Ge1_3 2.826484 1_545
Ge1_1 Ge1_5 2.826484 1_555
Ge1_1 Sm0_1 3.170950 1_555
Ge1_2 Pt0_2 2.447181 1_555
Ge1_2 Ge1_6 2.826484 1_455
Ge1_2 Ge1_6 2.826484 1_555
Ge1_2 Sm0_2 3.170950 1_555
Ge1_3 Pt0_3 2.447181 1_555
Ge1_3 Ge1_7 2.826484 1_455
Ge1_3 Ge1_7 2.826484 1_555
Ge1_3 Sm0_3 3.170950 1_555
Ge1_4 Pt0_4 2.447181 1_555
Ge1_4 Ge1_6 2.826484 1_545
Ge1_4 Ge1_6 2.826484 1_555
Ge1_4 Sm0_4 3.170950 1_555
Ge1_5 Pt0_5 2.447181 1_555
Ge1_5 Ge1_7 2.826484 1_555
Ge1_5 Ge1_7 2.826484 1_545
Ge1_5 Sm0_5 3.170950 1_555
Ge1_6 Pt0_6 2.447181 1_555
Ge1_6 Sm0_6 3.170950 1_555
Ge1_7 Pt0_7 2.447181 1_555
Ge1_7 Sm0_7 3.170950 1_555
Ge2_0 Pt2_1 2.491473 1_554
Ge2_0 Pt1_0 2.491473 1_555
Ge2_0 Ge2_4 2.826484 1_555
Ge2_0 Ge2_2 2.826484 1_545
Ge2_0 Ge2_2 2.826484 1_555
Ge2_0 Ge2_4 2.826484 1_455
Ge2_1 Pt1_1 2.491473 1_555
Ge2_1 Pt2_0 2.491473 1_555
Ge2_1 Ge2_3 2.826484 1_545
Ge2_1 Ge2_5 2.826484 1_455
Ge2_1 Ge2_5 2.826484 1_555
Ge2_1 Ge2_3 2.826484 1_555
Ge2_2 Pt2_3 2.491473 1_554
Ge2_2 Pt1_2 2.491473 1_555
Ge2_2 Ge2_6 2.826484 1_455
Ge2_2 Ge2_6 2.826484 1_555
Ge2_3 Pt1_3 2.491473 1_555
Ge2_3 Pt2_2 2.491473 1_555
Ge2_3 Ge2_7 2.826484 1_555
Ge2_3 Ge2_7 2.826484 1_455
Ge2_4 Pt2_5 2.491473 1_554
Ge2_4 Pt1_4 2.491473 1_555
Ge2_4 Ge2_6 2.826484 1_545
Ge2_4 Ge2_6 2.826484 1_555
Ge2_5 Pt1_5 2.491473 1_555
Ge2_5 Pt2_4 2.491473 1_555
Ge2_5 Ge2_7 2.826484 1_555
Ge2_5 Ge2_7 2.826484 1_545
Ge2_6 Pt2_7 2.491473 1_554
Ge2_6 Pt1_6 2.491473 1_555
Ge2_7 Pt1_7 2.491473 1_555
Ge2_7 Pt2_6 2.491473 1_555
Pt1_0 Sm1_0 2.751599 1_555
Pt1_1 Sm1_1 2.751599 1_555
Pt1_2 Sm1_2 2.751599 1_555
Pt1_3 Sm1_3 2.751599 1_555
Pt1_4 Sm1_4 2.751599 1_555
Pt1_5 Sm1_5 2.751599 1_555
Pt1_6 Sm1_6 2.751599 1_555
Pt1_7 Sm1_7 2.751599 1_555
Pt2_0 Sm0_0 2.751599 1_555
Pt2_1 Sm0_1 2.751599 1_555
Pt2_2 Sm0_2 2.751599 1_555
Pt2_3 Sm0_3 2.751599 1_555
Pt2_4 Sm0_4 2.751599 1_555
Pt2_5 Sm0_5 2.751599 1_555
Pt2_6 Sm0_6 2.751599 1_555
Pt2_7 Sm0_7 2.751599 1_555
