# generated using pymatgen
data_MgAl4Tl4O12
_symmetry_space_group_name_H-M   'P 1'
_cell_length_a   5.89332584
_cell_length_b   6.14794264
_cell_length_c   7.86882500
_cell_angle_alpha   90.00000000
_cell_angle_beta   90.00000000
_cell_angle_gamma   111.96384425
_symmetry_Int_Tables_number   1
_chemical_formula_structural   MgAl4Tl4O12
_chemical_formula_sum   'Mg1 Al4 Tl4 O12'
_cell_volume   264.40924302
_cell_formula_units_Z   1
loop_
 _symmetry_equiv_pos_site_id
 _symmetry_equiv_pos_as_xyz
  1  'x, y, z'
loop_
 _atom_site_type_symbol
 _atom_site_label
 _atom_site_symmetry_multiplicity
 _atom_site_fract_x
 _atom_site_fract_y
 _atom_site_fract_z
 _atom_site_occupancy
  Mg  Mg0  1  0.29548600  0.72788300  0.75000000  1
  Al  Al0  1  0.99041500  0.50607800  0.03981300  1
  Al  Al1  1  0.99041500  0.50607800  0.46018700  1
  Al  Al2  1  0.42882100  0.04929600  0.01890600  1
  Al  Al3  1  0.42882100  0.04929600  0.48109400  1
  Tl  Tl0  1  0.93032700  0.09918400  0.75000000  1
  Tl  Tl1  1  0.57710500  0.47644300  0.75000000  1
  Tl  Tl2  1  0.49120600  0.51447700  0.25000000  1
  Tl  Tl3  1  0.95052900  0.02478300  0.25000000  1
  O  O0  1  0.10446100  0.44021700  0.25000000  1
  O  O1  1  0.21687200  0.18205700  0.54901500  1
  O  O2  1  0.21687200  0.18205700  0.95098500  1
  O  O3  1  0.28830400  0.73659900  0.00126400  1
  O  O4  1  0.28830400  0.73659900  0.49873600  1
  O  O5  1  0.36379600  0.09628500  0.25000000  1
  O  O6  1  0.54000500  0.04646600  0.75000000  1
  O  O7  1  0.75620400  0.20424400  0.04488100  1
  O  O8  1  0.75620400  0.20424400  0.45511900  1
  O  O9  1  0.79904900  0.68009000  0.07277700  1
  O  O10  1  0.79904900  0.68009000  0.42722300  1
  O  O11  1  0.97525500  0.48253600  0.75000000  1
loop_
_geom_bond_atom_site_label_1
_geom_bond_atom_site_label_2
_geom_bond_distance
_geom_bond_site_symmetry_2
Mg0 O11 1.925464 1_455
Mg0 O6 1.949741 1_565
Mg0 O3 1.978760 1_556
Mg0 O4 1.978760 1_555
Mg0 Tl1 2.657687 1_555
Al0 O3 1.822466 1_655
Al0 O9 1.840165 1_555
Al0 O7 1.853173 1_555
Al0 O0 1.885398 1_655
Al0 O11 2.284706 1_554
Al1 O4 1.822466 1_655
Al1 O10 1.840165 1_555
Al1 O8 1.853173 1_555
Al1 O0 1.885398 1_655
Al1 O11 2.284706 1_555
Al2 O3 1.791632 1_545
Al2 O2 1.809611 1_554
Al2 O7 1.815729 1_555
Al2 O5 1.902587 1_555
Al2 O6 2.217098 1_554
Al3 O4 1.791632 1_545
Al3 O1 1.809611 1_555
Al3 O8 1.815729 1_555
Al3 O5 1.902587 1_555
Al3 O6 2.217098 1_555
O0 Tl2 2.150550 1_555
O0 Tl3 2.369179 1_455
O1 Tl0 2.229101 1_455
O1 Tl1 2.722061 1_555
O2 Tl0 2.229101 1_455
O2 Tl1 2.722061 1_555
O5 Tl3 2.307403 1_455
O5 Tl2 2.393711 1_555
O6 Tl0 2.199705 1_555
O6 Tl1 2.569710 1_555
O7 Tl3 2.465596 1_555
O8 Tl3 2.465596 1_555
O9 Tl2 2.211567 1_555
O9 Tl3 2.411915 1_565
O10 Tl2 2.211567 1_555
O10 Tl3 2.411915 1_565
O11 Tl0 2.271109 1_555
O11 Tl1 2.332676 1_555
