# generated using pymatgen
data_Er2Co3Cu
_symmetry_space_group_name_H-M   'P 1'
_cell_length_a   4.94601770
_cell_length_b   4.94601770
_cell_length_c   5.21784480
_cell_angle_alpha   89.99890800
_cell_angle_beta   61.73277556
_cell_angle_gamma   120.02433684
_symmetry_Int_Tables_number   1
_chemical_formula_structural   Er2Co3Cu
_chemical_formula_sum   'Er2 Co3 Cu1'
_cell_volume   92.51732106
_cell_formula_units_Z   1
loop_
 _symmetry_equiv_pos_site_id
 _symmetry_equiv_pos_as_xyz
  1  'x, y, z'
loop_
 _atom_site_type_symbol
 _atom_site_label
 _atom_site_symmetry_multiplicity
 _atom_site_fract_x
 _atom_site_fract_y
 _atom_site_fract_z
 _atom_site_occupancy
  Er  Er0  1  0.51515604  0.75761777  0.72722619  1
  Er  Er1  1  0.98484396  0.99238223  0.02277381  1
  Co  Co0  1  0.25000000  0.37500000  0.37500000  1
  Co  Co1  1  0.25000000  0.87500000  0.37500000  1
  Co  Co2  1  0.75000000  0.37500000  0.37500000  1
  Cu  Cu0  1  0.75000000  0.37500000  0.87500000  1
loop_
_geom_bond_atom_site_label_1
_geom_bond_atom_site_label_2
_geom_bond_distance
_geom_bond_site_symmetry_2
Er0 Er1 3.077084 1_555
Er0 Er1 3.133206 1_556
Er0 Er1 3.133206 1_446
Er0 Er1 3.134154 1_456
Co0 Co2 2.473009 1_455
Co0 Co1 2.473009 1_555
Co0 Co2 2.473009 1_555
Co0 Co1 2.473009 1_545
Co0 Cu0 2.609832 1_455
Co0 Cu0 2.609832 1_554
Co0 Er1 2.911767 1_445
Co0 Er0 2.911767 1_555
Co0 Er0 2.911767 1_445
Co0 Er1 2.911767 1_555
Co0 Er1 3.169078 1_446
Co0 Er0 3.169078 1_554
Co1 Co2 2.472099 1_565
Co1 Co2 2.472099 1_455
Co1 Cu0 2.608922 1_564
Co1 Cu0 2.608922 1_455
Co1 Er1 2.911980 1_455
Co1 Er0 2.911980 1_555
Co1 Er0 2.913098 1_455
Co1 Er1 2.913098 1_555
Co1 Er1 3.169351 1_456
Co1 Er0 3.169351 1_554
Co2 Cu0 2.608922 1_555
Co2 Cu0 2.608922 1_554
Co2 Er1 2.911980 1_555
Co2 Er0 2.911980 1_545
Co2 Er1 2.913098 1_545
Co2 Er0 2.913098 1_555
Co2 Er1 3.169351 1_446
Co2 Er0 3.169351 1_654
Cu0 Er1 2.926945 1_556
Cu0 Er0 2.926945 1_545
Cu0 Er0 2.926945 1_655
Cu0 Er1 2.926945 1_446
Cu0 Er0 2.927974 1_555
Cu0 Er1 2.927974 1_546
