# generated using pymatgen
data_Sn21H14(Cl4O5)4
_symmetry_space_group_name_H-M   'P 1'
_cell_length_a   16.05612549
_cell_length_b   16.05612549
_cell_length_c   16.05612604
_cell_angle_alpha   37.24357601
_cell_angle_beta   37.24357601
_cell_angle_gamma   37.24357512
_symmetry_Int_Tables_number   1
_chemical_formula_structural   Sn21H14(Cl4O5)4
_chemical_formula_sum   'Sn21 H14 Cl16 O20'
_cell_volume   1359.04202198
_cell_formula_units_Z   1
loop_
 _symmetry_equiv_pos_site_id
 _symmetry_equiv_pos_as_xyz
  1  'x, y, z'
loop_
 _atom_site_type_symbol
 _atom_site_label
 _atom_site_symmetry_multiplicity
 _atom_site_fract_x
 _atom_site_fract_y
 _atom_site_fract_z
 _atom_site_occupancy
  Sn  Sn0  1  0.69574700  0.69574700  0.69574700  1
  Sn  Sn1  1  0.30425300  0.30425300  0.30425300  1
  Sn  Sn2  1  0.93134100  0.93134100  0.93134100  1
  Sn  Sn3  1  0.06865900  0.06865900  0.06865900  1
  Sn  Sn4  1  0.41102400  0.41102400  0.41102400  1
  Sn  Sn5  1  0.58897600  0.58897600  0.58897600  1
  Sn  Sn6  1  0.00000000  0.26587400  0.73412600  1
  Sn  Sn7  1  0.26587400  0.73412600  0.00000000  1
  Sn  Sn8  1  0.73412600  0.00000000  0.26587400  1
  Sn  Sn9  1  0.76729200  0.50037000  0.01700300  1
  Sn  Sn10  1  0.50037000  0.01700300  0.76729200  1
  Sn  Sn11  1  0.01700300  0.76729200  0.50037000  1
  Sn  Sn12  1  0.23270800  0.98299700  0.49963000  1
  Sn  Sn13  1  0.49963000  0.23270800  0.98299700  1
  Sn  Sn14  1  0.98299700  0.49963000  0.23270800  1
  Sn  Sn15  1  0.31283200  0.91087400  0.16858100  1
  Sn  Sn16  1  0.91087400  0.16858100  0.31283200  1
  Sn  Sn17  1  0.16858100  0.31283200  0.91087400  1
  Sn  Sn18  1  0.68716800  0.83141900  0.08912600  1
  Sn  Sn19  1  0.08912600  0.68716800  0.83141900  1
  Sn  Sn20  1  0.83141900  0.08912600  0.68716800  1
  H  H0  1  0.82413700  0.82413700  0.82413700  1
  H  H1  1  0.17586300  0.17586300  0.17586300  1
  H  H2  1  0.46104300  0.15306000  0.43369500  1
  H  H3  1  0.15306000  0.43369500  0.46104300  1
  H  H4  1  0.43369500  0.46104300  0.15306000  1
  H  H5  1  0.53895700  0.56630500  0.84694000  1
  H  H6  1  0.84694000  0.53895700  0.56630500  1
  H  H7  1  0.56630500  0.84694000  0.53895700  1
  H  H8  1  0.47887800  0.30132800  0.60294300  1
  H  H9  1  0.30132800  0.60294300  0.47887800  1
  H  H10  1  0.60294300  0.47887800  0.30132800  1
  H  H11  1  0.52112200  0.39705700  0.69867200  1
  H  H12  1  0.69867200  0.52112200  0.39705700  1
  H  H13  1  0.39705700  0.69867200  0.52112200  1
  Cl  Cl0  1  0.50000000  0.50000000  0.50000000  1
  Cl  Cl1  1  0.50000000  0.12507600  0.87492400  1
  Cl  Cl2  1  0.12507600  0.87492400  0.50000000  1
  Cl  Cl3  1  0.87492400  0.50000000  0.12507600  1
  Cl  Cl4  1  0.04672900  0.70309300  0.37336800  1
  Cl  Cl5  1  0.70309300  0.37336800  0.04672900  1
  Cl  Cl6  1  0.37336800  0.04672900  0.70309300  1
  Cl  Cl7  1  0.95327100  0.62663200  0.29690700  1
  Cl  Cl8  1  0.29690700  0.95327100  0.62663200  1
  Cl  Cl9  1  0.62663200  0.29690700  0.95327100  1
  Cl  Cl10  1  0.39224200  0.74776400  0.05617000  1
  Cl  Cl11  1  0.74776400  0.05617000  0.39224200  1
  Cl  Cl12  1  0.05617000  0.39224200  0.74776400  1
  Cl  Cl13  1  0.60775800  0.94383000  0.25223600  1
  Cl  Cl14  1  0.25223600  0.60775800  0.94383000  1
  Cl  Cl15  1  0.94383000  0.25223600  0.60775800  1
  O  O0  1  0.84585500  0.84585500  0.84585500  1
  O  O1  1  0.15414500  0.15414500  0.15414500  1
  O  O2  1  0.91615000  0.72816900  0.04360400  1
  O  O3  1  0.72816900  0.04360400  0.91615000  1
  O  O4  1  0.04360400  0.91615000  0.72816900  1
  O  O5  1  0.08385000  0.95639600  0.27183100  1
  O  O6  1  0.27183100  0.08385000  0.95639600  1
  O  O7  1  0.95639600  0.27183100  0.08385000  1
  O  O8  1  0.43696300  0.26642200  0.61706600  1
  O  O9  1  0.26642200  0.61706600  0.43696300  1
  O  O10  1  0.61706600  0.43696300  0.26642200  1
  O  O11  1  0.56303700  0.38293400  0.73357800  1
  O  O12  1  0.73357800  0.56303700  0.38293400  1
  O  O13  1  0.38293400  0.73357800  0.56303700  1
  O  O14  1  0.66557000  0.82816700  0.49984200  1
  O  O15  1  0.82816700  0.49984200  0.66557000  1
  O  O16  1  0.49984200  0.66557000  0.82816700  1
  O  O17  1  0.33443000  0.50015800  0.17183300  1
  O  O18  1  0.17183300  0.33443000  0.50015800  1
  O  O19  1  0.50015800  0.17183300  0.33443000  1
loop_
_geom_bond_atom_site_label_1
_geom_bond_atom_site_label_2
_geom_bond_distance
_geom_bond_site_symmetry_2
H0 O0 0.972412 1_555
H1 O1 0.972412 1_555
H2 O19 0.984049 1_555
H3 O18 0.984049 1_555
H4 O17 0.984049 1_555
H5 O16 0.984049 1_555
H6 O15 0.984049 1_555
H7 O14 0.984049 1_555
H8 O8 0.986741 1_555
H9 O9 0.986741 1_555
H10 O10 0.986741 1_555
H11 O11 0.986741 1_555
H12 O12 0.986741 1_555
H13 O13 0.986741 1_555
Cl4 Sn11 2.542089 1_555
Cl5 Sn9 2.542089 1_555
Cl6 Sn10 2.542089 1_555
Cl7 Sn14 2.542089 1_555
Cl8 Sn12 2.542089 1_555
Cl9 Sn13 2.542089 1_555
Cl10 Sn7 2.985518 1_555
Cl11 Sn8 2.985518 1_555
Cl12 Sn6 2.985517 1_555
Cl13 Sn8 2.985517 1_565
Cl14 Sn7 2.985518 1_556
Cl15 Sn6 2.985518 1_655
O0 Sn19 2.335809 1_655
O0 Sn20 2.335809 1_565
O0 Sn18 2.335809 1_556
O1 Sn15 2.335809 1_545
O1 Sn16 2.335809 1_455
O1 Sn17 2.335809 1_554
O2 Sn18 2.178601 1_555
O2 Sn14 2.239432 1_555
O2 Sn2 2.270493 1_554
O2 Sn19 2.312730 1_654
O3 Sn20 2.178601 1_555
O3 Sn13 2.239432 1_555
O3 Sn2 2.270493 1_545
O3 Sn18 2.312730 1_546
O4 Sn19 2.178601 1_555
O4 Sn12 2.239432 1_555
O4 Sn2 2.270493 1_455
O4 Sn20 2.312730 1_465
O5 Sn15 2.178601 1_555
O5 Sn11 2.239432 1_555
O5 Sn3 2.270493 1_565
O5 Sn16 2.312730 1_465
O6 Sn17 2.178601 1_555
O6 Sn10 2.239432 1_555
O6 Sn3 2.270493 1_556
O6 Sn15 2.312730 1_546
O7 Sn16 2.178601 1_555
O7 Sn9 2.239432 1_555
O7 Sn3 2.270493 1_655
O7 Sn17 2.312730 1_654
O8 Sn10 2.220632 1_555
O8 Sn4 2.221144 1_555
O9 Sn11 2.220632 1_555
O9 Sn4 2.221144 1_555
O10 Sn9 2.220632 1_555
O10 Sn4 2.221144 1_555
O11 Sn13 2.220632 1_555
O11 Sn5 2.221144 1_555
O12 Sn14 2.220632 1_555
O12 Sn5 2.221144 1_555
O13 Sn12 2.220632 1_555
O13 Sn5 2.221144 1_555
O14 Sn8 2.164660 1_565
O14 Sn0 2.188103 1_555
O15 Sn6 2.164660 1_655
O15 Sn0 2.188103 1_555
O16 Sn7 2.164660 1_556
O16 Sn0 2.188103 1_555
O17 Sn7 2.164660 1_555
O17 Sn1 2.188103 1_555
O18 Sn6 2.164660 1_555
O18 Sn1 2.188103 1_555
O19 Sn8 2.164660 1_555
O19 Sn1 2.188103 1_555
