# generated using pymatgen
data_BaLaCoIrO6
_symmetry_space_group_name_H-M   'P 1'
_cell_length_a   5.67200500
_cell_length_b   5.69645295
_cell_length_c   5.69768744
_cell_angle_alpha   90.68666722
_cell_angle_beta   119.01444553
_cell_angle_gamma   119.71117472
_symmetry_Int_Tables_number   1
_chemical_formula_structural   BaLaCoIrO6
_chemical_formula_sum   'Ba1 La1 Co1 Ir1 O6'
_cell_volume   131.88035979
_cell_formula_units_Z   1
loop_
 _symmetry_equiv_pos_site_id
 _symmetry_equiv_pos_as_xyz
  1  'x, y, z'
loop_
 _atom_site_type_symbol
 _atom_site_label
 _atom_site_symmetry_multiplicity
 _atom_site_fract_x
 _atom_site_fract_y
 _atom_site_fract_z
 _atom_site_occupancy
  Ba  Ba0  1  0.99905400  0.75155700  0.74959100  1
  La  La0  1  0.98909900  0.25202500  0.23646700  1
  Co  Co0  1  0.49852900  0.00394700  0.50142700  1
  Ir  Ir0  1  0.50165100  0.49988400  0.00200100  1
  O  O0  1  0.53563100  0.73578800  0.29152700  1
  O  O1  1  0.41343500  0.25901800  0.66467900  1
  O  O2  1  0.01314700  0.28282600  0.79950400  1
  O  O3  1  0.98810200  0.68627300  0.22346200  1
  O  O4  1  0.51696300  0.22338200  0.21094400  1
  O  O5  1  0.54438900  0.80529900  0.82039800  1
loop_
_geom_bond_atom_site_label_1
_geom_bond_atom_site_label_2
_geom_bond_distance
_geom_bond_site_symmetry_2
Ba0 O0 2.614264 1_555
Ba0 O4 2.697527 1_666
Ba0 O2 2.724783 1_655
Ba0 O3 2.756058 1_556
Ba0 O5 2.769816 1_655
Ba0 O1 2.882685 1_555
Ba0 O1 2.918275 1_665
Ba0 O5 2.948880 1_555
Ba0 O3 2.982987 1_555
Ba0 O2 2.993923 1_665
Ba0 O4 3.071025 1_555
Ba0 O0 3.156993 1_656
La0 O1 2.439951 1_655
La0 O3 2.478394 1_555
La0 O5 2.479951 1_544
La0 O4 2.531355 1_555
La0 O2 2.562043 1_654
La0 O0 2.805365 1_655
La0 O0 2.944325 1_545
La0 O2 3.143091 1_655
La0 O3 3.219881 1_545
Co0 O1 2.075483 1_555
Co0 O0 2.080145 1_545
Co0 O4 2.097769 1_555
Co0 O3 2.110675 1_445
Co0 O2 2.111418 1_655
Co0 O5 2.129218 1_545
Ir0 O0 1.986447 1_555
Ir0 O4 1.996481 1_555
Ir0 O2 2.001492 1_554
Ir0 O3 2.004764 1_555
Ir0 O5 2.006154 1_554
Ir0 O1 2.037219 1_554
