# generated using pymatgen
data_Ca20Si3Ge9O44
_symmetry_space_group_name_H-M   'P 1'
_cell_length_a   7.01949952
_cell_length_b   13.62135502
_cell_length_c   12.53445101
_cell_angle_alpha   64.77673551
_cell_angle_beta   92.28420985
_cell_angle_gamma   79.31438136
_symmetry_Int_Tables_number   1
_chemical_formula_structural   Ca20Si3Ge9O44
_chemical_formula_sum   'Ca20 Si3 Ge9 O44'
_cell_volume   1055.84309980
_cell_formula_units_Z   1
loop_
 _symmetry_equiv_pos_site_id
 _symmetry_equiv_pos_as_xyz
  1  'x, y, z'
loop_
 _atom_site_type_symbol
 _atom_site_label
 _atom_site_symmetry_multiplicity
 _atom_site_fract_x
 _atom_site_fract_y
 _atom_site_fract_z
 _atom_site_occupancy
  Ca  Ca0  1  0.01799400  0.13218900  0.11423900  1
  Ca  Ca1  1  0.01579500  0.63231400  0.61645000  1
  Ca  Ca2  1  0.98413500  0.86763500  0.88359000  1
  Ca  Ca3  1  0.98515200  0.36895500  0.38373800  1
  Ca  Ca4  1  0.29564900  0.85206900  0.14782100  1
  Ca  Ca5  1  0.29547100  0.35241000  0.64786800  1
  Ca  Ca6  1  0.70428600  0.64786500  0.35212500  1
  Ca  Ca7  1  0.70450700  0.14778300  0.85239800  1
  Ca  Ca8  1  0.68180600  0.41136500  0.08820000  1
  Ca  Ca9  1  0.68198900  0.90760800  0.59224100  1
  Ca  Ca10  1  0.31682500  0.59160900  0.90855000  1
  Ca  Ca11  1  0.32157000  0.08996200  0.40922800  1
  Ca  Ca12  1  0.91785400  0.39204200  0.84992500  1
  Ca  Ca13  1  0.91775700  0.89156200  0.34951900  1
  Ca  Ca14  1  0.54186100  0.57999600  0.66205100  1
  Ca  Ca15  1  0.54230700  0.07936200  0.16166500  1
  Ca  Ca16  1  0.08193400  0.60817700  0.14965500  1
  Ca  Ca17  1  0.08331300  0.10794100  0.65171600  1
  Ca  Ca18  1  0.45655600  0.42165200  0.33793000  1
  Ca  Ca19  1  0.45818300  0.91969200  0.83819300  1
  Si  Si0  1  0.18955000  0.32592100  0.13657500  1
  Si  Si1  1  0.18927800  0.82593400  0.63647700  1
  Si  Si2  1  0.81062500  0.67409500  0.86358800  1
  Ge  Ge0  1  0.81129900  0.17362500  0.36218500  1
  Ge  Ge1  1  0.43625900  0.35243700  0.91595100  1
  Ge  Ge2  1  0.43648500  0.85228300  0.41598800  1
  Ge  Ge3  1  0.56339700  0.64767400  0.08410500  1
  Ge  Ge4  1  0.56010300  0.14690600  0.58701100  1
  Ge  Ge5  1  0.20803700  0.11246700  0.90453600  1
  Ge  Ge6  1  0.20773300  0.61269500  0.40485300  1
  Ge  Ge7  1  0.79221000  0.88724700  0.09499900  1
  Ge  Ge8  1  0.79217500  0.38749000  0.59536700  1
  O  O0  1  0.34481500  0.38493700  0.03983900  1
  O  O1  1  0.34499100  0.88478300  0.54007000  1
  O  O2  1  0.65506200  0.61517100  0.95993300  1
  O  O3  1  0.64543100  0.10997300  0.46495200  1
  O  O4  1  0.63297900  0.33155400  0.69864600  1
  O  O5  1  0.63299200  0.83158700  0.19848700  1
  O  O6  1  0.36696800  0.66831000  0.30152000  1
  O  O7  1  0.36703600  0.16847100  0.80128500  1
  O  O8  1  0.28185000  0.68990900  0.70681800  1
  O  O9  1  0.28231300  0.18986800  0.20705800  1
  O  O10  1  0.98304500  0.33910300  0.05761800  1
  O  O11  1  0.98287400  0.83972800  0.55718100  1
  O  O12  1  0.71470300  0.31931300  0.28875700  1
  O  O13  1  0.71805800  0.80995200  0.79342200  1
  O  O14  1  0.01696000  0.66058100  0.94259600  1
  O  O15  1  0.03006700  0.16159900  0.44673700  1
  O  O16  1  0.23217200  0.39850800  0.80994600  1
  O  O17  1  0.23252300  0.89834000  0.30993500  1
  O  O18  1  0.58827500  0.22046200  0.98782400  1
  O  O19  1  0.58856900  0.72032500  0.48813000  1
  O  O20  1  0.76762200  0.60184800  0.18991100  1
  O  O21  1  0.76760300  0.10181200  0.69036100  1
  O  O22  1  0.41151500  0.77964600  0.01199600  1
  O  O23  1  0.41198700  0.27985600  0.51241300  1
  O  O24  1  0.83650900  0.61310300  0.77662700  1
  O  O25  1  0.83690800  0.10712000  0.27022100  1
  O  O26  1  0.16349900  0.38707100  0.22327800  1
  O  O27  1  0.16328000  0.88664600  0.72361800  1
  O  O28  1  0.14433300  0.50987600  0.36463600  1
  O  O29  1  0.14484000  0.00919900  0.86518200  1
  O  O30  1  0.85519200  0.49059500  0.63552300  1
  O  O31  1  0.85561500  0.99019200  0.13452600  1
  O  O32  1  0.57893600  0.45523400  0.87587800  1
  O  O33  1  0.57926600  0.95478800  0.37597400  1
  O  O34  1  0.41997800  0.54551300  0.12331900  1
  O  O35  1  0.41863900  0.04386600  0.62736500  1
  O  O36  1  0.29909800  0.54699000  0.55965100  1
  O  O37  1  0.29941400  0.04686000  0.05931600  1
  O  O38  1  0.98758200  0.20294200  0.90332700  1
  O  O39  1  0.98725800  0.70268700  0.40388900  1
  O  O40  1  0.70085700  0.45332000  0.44063500  1
  O  O41  1  0.70079500  0.95296800  0.94019800  1
  O  O42  1  0.01276800  0.79697200  0.09615400  1
  O  O43  1  0.01272600  0.29745800  0.59651000  1
loop_
_geom_bond_atom_site_label_1
_geom_bond_atom_site_label_2
_geom_bond_distance
_geom_bond_site_symmetry_2
Ca0 O25 2.311935 1_455
Ca0 O31 2.350835 1_445
Ca0 O37 2.380357 1_555
Ca0 O38 2.381296 1_454
Ca0 O10 2.555857 1_455
Ca0 O9 2.561421 1_555
Ca1 O30 2.343017 1_455
Ca1 O24 2.357761 1_455
Ca1 O39 2.401499 1_455
Ca1 O36 2.402774 1_555
Ca1 O8 2.553122 1_555
Ca1 O11 2.557875 1_455
Ca2 O29 2.343567 1_665
Ca2 O27 2.355475 1_655
Ca2 O42 2.401162 1_656
Ca2 O41 2.401744 1_555
Ca2 O13 2.552633 1_555
Ca2 O14 2.553839 1_655
Ca3 O28 2.327115 1_655
Ca3 O26 2.359168 1_655
Ca3 O40 2.402740 1_555
Ca3 O43 2.402906 1_655
Ca3 O15 2.539604 1_655
Ca3 O12 2.541771 1_555
Ca4 O5 2.360635 1_555
Ca4 O6 2.361332 1_555
Ca4 O22 2.403626 1_555
Ca4 O17 2.404665 1_555
Ca4 O42 2.406235 1_555
Ca4 O37 2.406471 1_565
Ca5 O4 2.361085 1_555
Ca5 O7 2.361702 1_555
Ca5 O23 2.401959 1_555
Ca5 O43 2.402831 1_555
Ca5 O16 2.403052 1_555
Ca5 O36 2.403666 1_555
Ca6 O6 2.360420 1_555
Ca6 O5 2.360724 1_555
Ca6 O40 2.402877 1_555
Ca6 O20 2.404092 1_555
Ca6 O39 2.405072 1_555
Ca6 O19 2.405674 1_555
Ca7 O4 2.361654 1_555
Ca7 O7 2.362001 1_555
Ca7 O21 2.401298 1_555
Ca7 O18 2.402158 1_555
Ca7 O38 2.404514 1_555
Ca7 O41 2.406772 1_545
Ca8 O12 2.259410 1_555
Ca8 O10 2.280669 1_555
Ca8 O32 2.508510 1_554
Ca8 O2 2.511086 1_554
Ca8 O34 2.532830 1_555
Ca8 O0 2.545612 1_555
Ca9 O13 2.271077 1_555
Ca9 O11 2.281436 1_555
Ca9 O3 2.483217 1_565
Ca9 O1 2.538281 1_555
Ca9 O33 2.543398 1_555
Ca9 O35 2.558292 1_565
Ca10 O14 2.274936 1_555
Ca10 O8 2.278140 1_555
Ca10 O34 2.529994 1_556
Ca10 O32 2.538622 1_555
Ca10 O2 2.547895 1_555
Ca10 O0 2.548035 1_556
Ca11 O15 2.255532 1_555
Ca11 O9 2.283766 1_555
Ca11 O3 2.448618 1_555
Ca11 O33 2.512994 1_545
Ca11 O1 2.535603 1_545
Ca11 O35 2.562058 1_555
Ca12 O16 2.291169 1_655
Ca12 O38 2.315000 1_555
Ca12 O10 2.385236 1_556
Ca12 O30 2.414495 1_555
Ca12 O32 2.459163 1_555
Ca12 O24 2.683259 1_555
Ca13 O17 2.293597 1_655
Ca13 O39 2.309786 1_555
Ca13 O11 2.387847 1_555
Ca13 O31 2.420860 1_555
Ca13 O33 2.458571 1_555
Ca13 O25 2.604029 1_565
Ca14 O19 2.291615 1_555
Ca14 O36 2.314093 1_555
Ca14 O8 2.381563 1_555
Ca14 O30 2.416847 1_555
Ca14 O32 2.457158 1_555
Ca14 O24 2.684171 1_555
Ca15 O18 2.294076 1_554
Ca15 O37 2.310503 1_555
Ca15 O9 2.390438 1_555
Ca15 O31 2.418461 1_545
Ca15 O33 2.461473 1_545
Ca15 O25 2.602884 1_555
Ca16 O20 2.291737 1_455
Ca16 O42 2.310841 1_555
Ca16 O14 2.378957 1_554
Ca16 O28 2.420583 1_555
Ca16 O34 2.453504 1_555
Ca16 O26 2.683234 1_555
Ca17 O21 2.296200 1_455
Ca17 O43 2.316081 1_555
Ca17 O15 2.344534 1_555
Ca17 O29 2.404175 1_555
Ca17 O35 2.432666 1_555
Ca17 O27 2.688935 1_545
Ca18 O23 2.299990 1_555
Ca18 O40 2.314251 1_555
Ca18 O12 2.343345 1_555
Ca18 O28 2.405029 1_555
Ca18 O34 2.462692 1_555
Ca18 O26 2.686909 1_555
Ca19 O22 2.288878 1_556
Ca19 O41 2.312377 1_555
Ca19 O13 2.379578 1_555
Ca19 O29 2.419737 1_565
Ca19 O35 2.424710 1_565
Ca19 O27 2.685113 1_555
Ge0 O25 1.740066 1_555
Ge0 O15 1.771228 1_655
Ge0 O12 1.771877 1_555
Ge0 O3 1.818973 1_555
Ge1 O18 1.735974 1_555
Ge1 O16 1.736610 1_555
Ge1 O32 1.782333 1_555
Ge1 O0 1.891926 1_556
Ge2 O19 1.736187 1_555
Ge2 O17 1.736342 1_555
Ge2 O33 1.779821 1_555
Ge2 O1 1.894313 1_555
Ge3 O22 1.735728 1_555
Ge3 O20 1.736268 1_555
Ge3 O34 1.779769 1_555
Ge3 O2 1.895782 1_554
Ge4 O23 1.736639 1_555
Ge4 O21 1.736838 1_555
Ge4 O35 1.778669 1_555
Ge4 O3 1.889408 1_555
Ge5 O7 1.758401 1_555
Ge5 O37 1.784522 1_556
Ge5 O38 1.785695 1_455
Ge5 O29 1.795586 1_555
Ge6 O6 1.758976 1_555
Ge6 O39 1.783331 1_455
Ge6 O36 1.784659 1_555
Ge6 O28 1.796844 1_555
Ge7 O5 1.760154 1_555
Ge7 O41 1.784763 1_554
Ge7 O42 1.785015 1_655
Ge7 O31 1.793280 1_555
Ge8 O4 1.759413 1_555
Ge8 O43 1.783293 1_655
Ge8 O40 1.783827 1_555
Ge8 O30 1.799043 1_555
O0 Si0 1.704052 1_555
O1 Si1 1.703570 1_555
O2 Si2 1.702651 1_555
O8 Si1 1.657760 1_555
O9 Si0 1.658363 1_555
O10 Si0 1.658496 1_655
O11 Si1 1.657548 1_655
O13 Si2 1.655794 1_555
O14 Si2 1.656447 1_455
O24 Si2 1.625722 1_555
O26 Si0 1.624559 1_555
O27 Si1 1.624815 1_555
