# generated using pymatgen
data_Zr3N2O3
_symmetry_space_group_name_H-M   'P 1'
_cell_length_a   4.05276810
_cell_length_b   5.67636031
_cell_length_c   10.66017241
_cell_angle_alpha   90.36221571
_cell_angle_beta   89.99973358
_cell_angle_gamma   110.91809884
_symmetry_Int_Tables_number   1
_chemical_formula_structural   Zr3N2O3
_chemical_formula_sum   'Zr6 N4 O6'
_cell_volume   229.06858221
_cell_formula_units_Z   2
loop_
 _symmetry_equiv_pos_site_id
 _symmetry_equiv_pos_as_xyz
  1  'x, y, z'
loop_
 _atom_site_type_symbol
 _atom_site_label
 _atom_site_symmetry_multiplicity
 _atom_site_fract_x
 _atom_site_fract_y
 _atom_site_fract_z
 _atom_site_occupancy
  Zr  Zr0  1  0.14418273  0.28854008  0.56588550  1
  Zr  Zr1  1  0.14653354  0.29299232  0.93665547  1
  Zr  Zr2  1  0.19158739  0.38312633  0.24824936  1
  Zr  Zr3  1  0.80909278  0.61813624  0.75614694  1
  Zr  Zr4  1  0.85886559  0.71770133  0.05986388  1
  Zr  Zr5  1  0.86158975  0.72337376  0.43695757  1
  N  N0  1  0.29745413  0.59496399  0.42652814  1
  N  N1  1  0.30187811  0.60362999  0.08183705  1
  N  N2  1  0.23744425  0.47487575  0.74430670  1
  N  N3  1  0.70379221  0.40753178  0.92532625  1
  O  O0  1  0.04601650  0.09192652  0.11612291  1
  O  O1  1  0.04197177  0.08402130  0.38144653  1
  O  O2  1  0.95356486  0.90703121  0.61188679  1
  O  O3  1  0.95640125  0.91281826  0.88472285  1
  O  O4  1  0.69470903  0.38955161  0.57165566  1
  O  O5  1  0.75491610  0.50977653  0.25241038  1
loop_
_geom_bond_atom_site_label_1
_geom_bond_atom_site_label_2
_geom_bond_distance
_geom_bond_site_symmetry_2
N0 Zr5 2.140062 1_555
N0 Zr5 2.140657 1_455
N0 Zr2 2.201036 1_555
N0 Zr0 2.208925 1_555
N1 Zr4 2.127892 1_555
N1 Zr4 2.128323 1_455
N1 Zr2 2.131204 1_555
N1 Zr1 2.252469 1_554
N2 Zr0 2.137362 1_555
N2 Zr3 2.167421 1_455
N2 Zr3 2.167489 1_555
N2 Zr1 2.271836 1_555
N3 Zr1 2.119041 1_555
N3 Zr1 2.119186 1_655
N3 Zr3 2.127618 1_555
N3 Zr4 2.174784 1_556
O0 Zr4 2.068998 1_445
O0 Zr2 2.082880 1_555
O0 Zr1 2.196435 1_554
O1 Zr5 2.005530 1_445
O1 Zr2 2.135829 1_555
O1 Zr0 2.238937 1_555
O2 Zr0 2.084665 1_665
O2 Zr5 2.097878 1_555
O2 Zr3 2.177890 1_555
O3 Zr3 2.071474 1_555
O3 Zr1 2.086799 1_665
O3 Zr4 2.140622 1_556
O4 Zr0 2.096710 1_655
O4 Zr0 2.096820 1_555
O4 Zr5 2.286730 1_555
O4 Zr3 2.303184 1_555
O5 Zr2 2.135105 1_555
O5 Zr2 2.135140 1_655
O5 Zr5 2.263359 1_555
O5 Zr4 2.336480 1_555
