# generated using pymatgen
data_TbZn(BO2)5
_symmetry_space_group_name_H-M   'P 1'
_cell_length_a   7.68610300
_cell_length_b   8.65764300
_cell_length_c   12.42638481
_cell_angle_alpha   49.26558459
_cell_angle_beta   90.00000000
_cell_angle_gamma   90.00000000
_symmetry_Int_Tables_number   1
_chemical_formula_structural   TbZn(BO2)5
_chemical_formula_sum   'Tb4 Zn4 B20 O40'
_cell_volume   626.57393342
_cell_formula_units_Z   4
loop_
 _symmetry_equiv_pos_site_id
 _symmetry_equiv_pos_as_xyz
  1  'x, y, z'
loop_
 _atom_site_type_symbol
 _atom_site_label
 _atom_site_symmetry_multiplicity
 _atom_site_fract_x
 _atom_site_fract_y
 _atom_site_fract_z
 _atom_site_occupancy
  Tb  Tb0  1  0.18359200  0.94498600  0.24117700  1
  Tb  Tb1  1  0.68359200  0.05501400  0.25882300  1
  Tb  Tb2  1  0.81640800  0.05501400  0.75882300  1
  Tb  Tb3  1  0.31640800  0.94498600  0.74117700  1
  Zn  Zn0  1  0.40952900  0.48120800  0.12684500  1
  Zn  Zn1  1  0.90952900  0.51879200  0.37315500  1
  Zn  Zn2  1  0.59047100  0.51879200  0.87315500  1
  Zn  Zn3  1  0.09047100  0.48120800  0.62684500  1
  B  B0  1  0.57369800  0.66301300  0.25442300  1
  B  B1  1  0.18668300  0.52250300  0.91226600  1
  B  B2  1  0.68668300  0.47749700  0.58773400  1
  B  B3  1  0.81331700  0.47749700  0.08773400  1
  B  B4  1  0.31331700  0.52250300  0.41226600  1
  B  B5  1  0.89705900  0.84995200  0.49102400  1
  B  B6  1  0.39705900  0.15004800  0.00897600  1
  B  B7  1  0.10294100  0.15004800  0.50897600  1
  B  B8  1  0.60294100  0.84995200  0.99102400  1
  B  B9  1  0.07369800  0.33698700  0.24557700  1
  B  B10  1  0.42630200  0.33698700  0.74557700  1
  B  B11  1  0.92630200  0.66301300  0.75442300  1
  B  B12  1  0.32466400  0.08577400  0.39691300  1
  B  B13  1  0.82466400  0.91422600  0.10308700  1
  B  B14  1  0.67533600  0.91422600  0.60308700  1
  B  B15  1  0.17533600  0.08577400  0.89691300  1
  B  B16  1  0.53076700  0.27951000  0.44281500  1
  B  B17  1  0.03076700  0.72049000  0.05718500  1
  B  B18  1  0.46923300  0.72049000  0.55718500  1
  B  B19  1  0.96923300  0.27951000  0.94281500  1
  O  O0  1  0.20290700  0.18747700  0.27513000  1
  O  O1  1  0.65382200  0.42228200  0.06993500  1
  O  O2  1  0.15382200  0.57771800  0.43006500  1
  O  O3  1  0.34617800  0.57771800  0.93006500  1
  O  O4  1  0.84617800  0.42228200  0.56993500  1
  O  O5  1  0.44459000  0.11467500  0.12793100  1
  O  O6  1  0.94459000  0.88532500  0.37206900  1
  O  O7  1  0.55541000  0.88532500  0.87206900  1
  O  O8  1  0.70290700  0.81252300  0.22487000  1
  O  O9  1  0.05541000  0.11467500  0.62793100  1
  O  O10  1  0.29709300  0.18747700  0.77513000  1
  O  O11  1  0.79709300  0.81252300  0.72487000  1
  O  O12  1  0.53210600  0.69596700  0.12225200  1
  O  O13  1  0.03210600  0.30403300  0.37774800  1
  O  O14  1  0.46789400  0.30403300  0.87774800  1
  O  O15  1  0.96789400  0.69596700  0.62225200  1
  O  O16  1  0.40848700  0.68743000  0.30170400  1
  O  O17  1  0.90848700  0.31257000  0.19829600  1
  O  O18  1  0.59151300  0.31257000  0.69829600  1
  O  O19  1  0.09151300  0.68743000  0.80170400  1
  O  O20  1  0.64719200  0.45698100  0.36062400  1
  O  O21  1  0.14719200  0.54301900  0.13937600  1
  O  O22  1  0.35280800  0.54301900  0.63937600  1
  O  O23  1  0.85280800  0.45698100  0.86062400  1
  O  O24  1  0.46840600  0.23558600  0.34990300  1
  O  O25  1  0.96840600  0.76441400  0.15009700  1
  O  O26  1  0.53159400  0.76441400  0.65009700  1
  O  O27  1  0.03159400  0.23558600  0.84990300  1
  O  O28  1  0.39228800  0.90483400  0.42117500  1
  O  O29  1  0.89228800  0.09516600  0.07882500  1
  O  O30  1  0.60771200  0.09516600  0.57882500  1
  O  O31  1  0.12486500  0.32781300  0.99069800  1
  O  O32  1  0.23261600  0.02486900  0.52314300  1
  O  O33  1  0.73261600  0.97513100  0.97685700  1
  O  O34  1  0.76738400  0.97513100  0.47685700  1
  O  O35  1  0.26738400  0.02486900  0.02314300  1
  O  O36  1  0.37513500  0.32781300  0.49069800  1
  O  O37  1  0.87513500  0.67218700  0.00930200  1
  O  O38  1  0.62486500  0.67218700  0.50930200  1
  O  O39  1  0.10771200  0.90483400  0.92117500  1
loop_
_geom_bond_atom_site_label_1
_geom_bond_atom_site_label_2
_geom_bond_distance
_geom_bond_site_symmetry_2
B0 O16 1.471204 1_555
B0 O20 1.473168 1_555
B0 O8 1.475206 1_555
B0 O12 1.506500 1_555
B1 O31 1.368481 1_555
B1 O19 1.378836 1_555
B1 O3 1.385006 1_555
B2 O38 1.368481 1_555
B2 O18 1.378836 1_555
B2 O4 1.385006 1_555
B3 O37 1.368481 1_555
B3 O17 1.378836 1_555
B3 O1 1.385006 1_555
B4 O36 1.368481 1_555
B4 O16 1.378836 1_555
B4 O2 1.385006 1_555
B5 O6 1.349616 1_555
B5 O15 1.376813 1_555
B5 O34 1.396395 1_555
B6 O5 1.349616 1_555
B6 O14 1.376813 1_554
B6 O35 1.396395 1_555
B7 O9 1.349616 1_555
B7 O13 1.376813 1_555
B7 O32 1.396395 1_555
B8 O7 1.349616 1_555
B8 O12 1.376813 1_556
B8 O33 1.396395 1_555
B9 O17 1.471204 1_455
B9 O21 1.473168 1_555
B9 O0 1.475206 1_555
B9 O13 1.506500 1_555
B10 O18 1.471204 1_555
B10 O22 1.473168 1_555
B10 O10 1.475206 1_555
B10 O14 1.506500 1_555
B11 O19 1.471204 1_655
B11 O23 1.473168 1_555
B11 O11 1.475206 1_555
B11 O15 1.506500 1_555
B12 O32 1.469549 1_555
B12 O28 1.482779 1_545
B12 O0 1.483976 1_555
B12 O24 1.501759 1_555
B13 O33 1.469549 1_554
B13 O29 1.482779 1_565
B13 O8 1.483976 1_555
B13 O25 1.501759 1_555
B14 O34 1.469549 1_555
B14 O30 1.482779 1_565
B14 O11 1.483976 1_555
B14 O26 1.501759 1_555
B15 O35 1.469549 1_556
B15 O39 1.482779 1_545
B15 O10 1.483976 1_555
B15 O27 1.501759 1_555
B16 O20 1.468539 1_555
B16 O30 1.494330 1_555
B16 O24 1.510091 1_555
B16 O36 1.511481 1_555
B17 O21 1.468539 1_555
B17 O39 1.494330 1_554
B17 O25 1.510091 1_455
B17 O37 1.511481 1_455
B18 O22 1.468539 1_555
B18 O28 1.494330 1_555
B18 O26 1.510091 1_555
B18 O38 1.511481 1_555
B19 O23 1.468539 1_555
B19 O29 1.494330 1_556
B19 O27 1.510091 1_655
B19 O31 1.511481 1_655
O0 Tb0 2.400740 1_545
O0 Zn0 2.503762 1_555
O1 Zn2 2.061077 1_554
O1 Zn0 2.181018 1_555
O1 Tb1 2.435484 1_555
O2 Zn3 2.061077 1_555
O2 Zn1 2.181018 1_455
O2 Tb0 2.435484 1_555
O3 Zn0 2.061077 1_556
O3 Zn2 2.181018 1_555
O3 Tb3 2.435484 1_555
O4 Zn1 2.061077 1_555
O4 Zn3 2.181018 1_655
O4 Tb2 2.435484 1_555
O5 Tb1 2.278251 1_555
O5 Tb0 2.337671 1_545
O6 Tb0 2.278251 1_655
O6 Tb1 2.337671 1_565
O7 Tb3 2.278251 1_555
O7 Tb2 2.337671 1_565
O8 Tb1 2.400740 1_565
O8 Zn1 2.503762 1_555
O9 Tb2 2.278251 1_455
O9 Tb3 2.337671 1_545
O10 Tb3 2.400740 1_545
O10 Zn3 2.503762 1_555
O11 Tb2 2.400740 1_565
O11 Zn2 2.503762 1_555
O12 Zn0 2.051685 1_555
O13 Zn1 2.051685 1_455
O14 Zn2 2.051685 1_555
O15 Zn3 2.051685 1_655
O16 Tb0 2.517330 1_555
O17 Tb1 2.517330 1_555
O18 Tb2 2.517330 1_555
O19 Tb3 2.517330 1_555
O20 Zn1 2.117791 1_555
O21 Zn0 2.117791 1_555
O22 Zn3 2.117791 1_555
O23 Zn2 2.117791 1_555
O24 Zn0 2.171883 1_555
O24 Tb1 2.961366 1_555
O25 Zn1 2.171883 1_555
O25 Tb0 2.961366 1_655
O26 Zn2 2.171883 1_555
O26 Tb3 2.961366 1_555
O27 Zn3 2.171883 1_555
O27 Tb2 2.961366 1_455
O28 Tb0 2.584960 1_555
O28 Tb1 2.711143 1_565
O29 Tb1 2.584960 1_555
O29 Tb0 2.711143 1_645
O30 Tb2 2.584960 1_555
O30 Tb3 2.711143 1_545
O31 Tb0 2.722703 1_546
O32 Tb3 2.405886 1_545
O33 Tb2 2.405886 1_565
O34 Tb1 2.405886 1_565
O35 Tb0 2.405886 1_545
O36 Tb3 2.722703 1_545
O37 Tb2 2.722703 1_564
O38 Tb1 2.722703 1_565
O39 Tb3 2.584960 1_555
O39 Tb2 2.711143 1_465
