# generated using pymatgen
data_Er3(CuSn)4
_symmetry_space_group_name_H-M   'P 1'
_cell_length_a   4.40259022
_cell_length_b   6.89759761
_cell_length_c   8.30699910
_cell_angle_alpha   113.74270371
_cell_angle_beta   105.36652610
_cell_angle_gamma   90.00000000
_symmetry_Int_Tables_number   1
_chemical_formula_structural   Er3(CuSn)4
_chemical_formula_sum   'Er3 Cu4 Sn4'
_cell_volume   221.02273151
_cell_formula_units_Z   1
loop_
 _symmetry_equiv_pos_site_id
 _symmetry_equiv_pos_as_xyz
  1  'x, y, z'
loop_
 _atom_site_type_symbol
 _atom_site_label
 _atom_site_symmetry_multiplicity
 _atom_site_fract_x
 _atom_site_fract_y
 _atom_site_fract_z
 _atom_site_occupancy
  Er  Er0  1  0.00000000  -0.00000000  0.00000000  1
  Er  Er1  1  0.86923116  0.35546246  0.73846132  1
  Er  Er2  1  0.13076884  0.64453754  0.26153868  1
  Cu  Cu0  1  0.65802887  0.97849262  0.31605574  1
  Cu  Cu1  1  0.34197113  0.02150738  0.68394426  1
  Cu  Cu2  1  0.68381800  0.37712678  0.36763701  1
  Cu  Cu3  1  0.31618200  0.62287322  0.63236299  1
  Sn  Sn0  1  0.78248493  0.80060280  0.56496987  1
  Sn  Sn1  1  0.21751507  0.19939720  0.43503013  1
  Sn  Sn2  1  0.48972686  0.69266481  0.97945271  1
  Sn  Sn3  1  0.51027314  0.30733519  0.02054729  1
loop_
_geom_bond_atom_site_label_1
_geom_bond_atom_site_label_2
_geom_bond_distance
_geom_bond_site_symmetry_2
Er0 Sn3 3.012520 1_555
Er0 Sn2 3.012520 1_444
Er0 Sn3 3.012523 1_455
Er0 Sn2 3.012523 1_544
Er0 Sn0 3.167288 1_444
Er0 Sn1 3.167288 1_555
Er1 Sn1 3.118784 1_655
Er1 Sn1 3.118787 1_555
Er1 Sn2 3.198783 1_555
Er1 Sn2 3.198783 1_655
Er1 Sn3 3.269204 1_656
Er1 Sn3 3.269210 1_556
Er1 Sn0 3.483825 1_545
Er2 Sn0 3.118784 1_455
Er2 Sn0 3.118787 1_555
Er2 Sn3 3.198783 1_555
Er2 Sn3 3.198783 1_455
Er2 Sn2 3.269204 1_454
Er2 Sn2 3.269210 1_554
Er2 Sn1 3.483825 1_565
Cu0 Sn2 2.591764 1_554
Cu0 Cu2 2.604299 1_565
Cu0 Sn1 2.619715 1_665
Cu0 Sn1 2.619723 1_565
Cu0 Sn0 2.742970 1_555
Cu0 Er2 3.082593 1_655
Cu0 Er2 3.082603 1_555
Cu0 Er1 3.295729 1_565
Cu0 Er0 3.404468 1_665
Cu0 Er0 3.404474 1_565
Cu1 Sn3 2.591764 1_556
Cu1 Cu3 2.604299 1_545
Cu1 Sn0 2.619715 1_445
Cu1 Sn0 2.619723 1_545
Cu1 Sn1 2.742970 1_555
Cu1 Er1 3.082593 1_455
Cu1 Er1 3.082603 1_555
Cu1 Er2 3.295729 1_545
Cu1 Er0 3.404468 1_556
Cu1 Er0 3.404474 1_656
Cu2 Sn3 2.616017 1_555
Cu2 Sn0 2.678572 1_555
Cu2 Sn1 2.681902 1_555
Cu2 Sn1 2.681906 1_655
Cu2 Er1 3.035747 1_555
Cu2 Er2 3.206115 1_555
Cu2 Er2 3.206115 1_655
Cu3 Sn2 2.616017 1_555
Cu3 Sn1 2.678572 1_555
Cu3 Sn0 2.681902 1_555
Cu3 Sn0 2.681906 1_455
Cu3 Er2 3.035747 1_555
Cu3 Er1 3.206115 1_555
Cu3 Er1 3.206115 1_455
Sn2 Sn3 2.811252 1_556
