# generated using pymatgen
data_Y3Co13B2
_symmetry_space_group_name_H-M   'P 1'
_cell_length_a   4.98098495
_cell_length_b   4.97859540
_cell_length_c   10.83259300
_cell_angle_alpha   89.99954392
_cell_angle_beta   90.00121700
_cell_angle_gamma   119.88087764
_symmetry_Int_Tables_number   1
_chemical_formula_structural   Y3Co13B2
_chemical_formula_sum   'Y3 Co13 B2'
_cell_volume   232.91914009
_cell_formula_units_Z   1
loop_
 _symmetry_equiv_pos_site_id
 _symmetry_equiv_pos_as_xyz
  1  'x, y, z'
loop_
 _atom_site_type_symbol
 _atom_site_label
 _atom_site_symmetry_multiplicity
 _atom_site_fract_x
 _atom_site_fract_y
 _atom_site_fract_z
 _atom_site_occupancy
  Y  Y0  1  0.99998400  0.99999100  0.32362600  1
  Y  Y1  1  0.00000800  0.00000300  0.67672100  1
  Y  Y2  1  0.99999200  0.00000200  0.99959300  1
  Co  Co0  1  0.49998600  0.99998800  0.13550100  1
  Co  Co1  1  0.49999400  0.50000400  0.13557300  1
  Co  Co2  1  0.00000100  0.50000600  0.13571400  1
  Co  Co3  1  0.49998300  0.99997900  0.86427200  1
  Co  Co4  1  0.49998700  0.50001300  0.86419300  1
  Co  Co5  1  0.00002200  0.50001700  0.86419500  1
  Co  Co6  1  0.33391400  0.66709100  0.31801400  1
  Co  Co7  1  0.66605000  0.33291900  0.31819600  1
  Co  Co8  1  0.66621400  0.33294000  0.68200300  1
  Co  Co9  1  0.33378500  0.66704900  0.68222400  1
  Co  Co10  1  0.49981900  0.99964100  0.50022400  1
  Co  Co11  1  0.49982300  0.50017400  0.50023600  1
  Co  Co12  1  0.00036600  0.50018300  0.50024300  1
  B  B0  1  0.33343700  0.66655700  0.99972900  1
  B  B1  1  0.66653500  0.33344400  0.99974500  1
loop_
_geom_bond_atom_site_label_1
_geom_bond_atom_site_label_2
_geom_bond_distance
_geom_bond_site_symmetry_2
Co0 Co6 2.444171 1_555
Co0 Co7 2.445845 1_565
Co0 Y2 2.893078 1_464
Co0 Y2 2.893123 1_564
Co0 Y0 3.217951 1_555
Co0 Y0 3.218045 1_455
Co1 Co6 2.442924 1_555
Co1 Co7 2.444415 1_555
Co1 Y2 2.896834 1_454
Co1 Y2 2.896850 1_564
Co1 Y0 3.220447 1_555
Co1 Y0 3.220578 1_445
Co2 Co6 2.445271 1_555
Co2 Co7 2.447006 1_455
Co2 Y2 2.893240 1_464
Co2 Y2 2.893256 1_454
Co2 Y0 3.215600 1_455
Co2 Y0 3.215625 1_445
Co3 Co9 2.440175 1_555
Co3 Co8 2.442196 1_565
Co3 Y2 2.889833 1_565
Co3 Y2 2.889907 1_465
Co3 Y1 3.213981 1_565
Co3 Y1 3.214148 1_665
Co4 Co9 2.438931 1_555
Co4 Co8 2.441062 1_555
Co4 Y2 2.893623 1_565
Co4 Y2 2.893682 1_455
Co4 Y1 3.216493 1_555
Co4 Y1 3.216577 1_665
Co5 Co9 2.442058 1_555
Co5 Co8 2.444059 1_455
Co5 Y2 2.889254 1_455
Co5 Y2 2.889274 1_465
Co5 Y1 3.212572 1_565
Co5 Y1 3.212651 1_555
Co6 Y0 2.874707 1_455
Co6 Y0 2.877286 1_555
Co6 Y0 2.880363 1_445
Co7 Y0 2.874801 1_545
Co7 Y0 2.877231 1_445
Co7 Y0 2.880201 1_555
Co8 Y1 2.874206 1_655
Co8 Y1 2.877800 1_555
Co8 Y1 2.880128 1_665
Co9 Y1 2.874252 1_565
Co9 Y1 2.877925 1_665
Co9 Y1 2.880103 1_555
Co10 Co8 2.438760 1_565
Co10 Co9 2.438903 1_555
Co10 Co6 2.440628 1_555
Co10 Co7 2.440892 1_565
Co10 Co11 2.486654 1_555
Co10 Co12 2.491661 1_555
Co10 Co11 2.491941 1_565
Co10 Co12 2.497093 1_665
Co10 Y1 3.139742 1_565
Co10 Y1 3.139747 1_665
Co10 Y0 3.140406 1_555
Co10 Y0 3.140415 1_455
Co11 Co8 2.438146 1_555
Co11 Co9 2.438312 1_555
Co11 Co6 2.440102 1_555
Co11 Co7 2.440211 1_555
Co11 Co12 2.487810 1_555
Co11 Co12 2.493175 1_655
Co11 Y1 3.142739 1_555
Co11 Y1 3.142756 1_665
Co11 Y0 3.143549 1_555
Co11 Y0 3.143594 1_445
Co12 Co8 2.441206 1_455
Co12 Co9 2.441222 1_555
Co12 Co6 2.443767 1_555
Co12 Co7 2.444086 1_455
Co12 Y1 3.138665 1_555
Co12 Y1 3.138677 1_565
Co12 Y0 3.139570 1_455
Co12 Y0 3.139607 1_445
B0 Co4 2.053480 1_555
B0 Co3 2.055414 1_555
B0 Co1 2.055881 1_556
B0 Co5 2.056447 1_555
B0 Co0 2.057872 1_556
B0 Co2 2.060043 1_556
B0 Y2 2.874319 1_465
B0 Y2 2.877366 1_455
B0 Y2 2.878743 1_565
B1 Co4 2.053639 1_555
B1 Co3 2.055661 1_545
B1 Co1 2.055764 1_556
B1 Co5 2.056830 1_655
B1 Co0 2.057830 1_546
B1 Co2 2.059968 1_656
B1 Y2 2.874358 1_555
B1 Y2 2.877379 1_565
B1 Y2 2.878691 1_455
