# generated using pymatgen
data_CaMn3P3O13
_symmetry_space_group_name_H-M   'P 1'
_cell_length_a   6.26460000
_cell_length_b   7.77863700
_cell_length_c   10.37630303
_cell_angle_alpha   80.54912940
_cell_angle_beta   90.00000000
_cell_angle_gamma   90.00000000
_symmetry_Int_Tables_number   1
_chemical_formula_structural   CaMn3P3O13
_chemical_formula_sum   'Ca2 Mn6 P6 O26'
_cell_volume   498.77461711
_cell_formula_units_Z   2
loop_
 _symmetry_equiv_pos_site_id
 _symmetry_equiv_pos_as_xyz
  1  'x, y, z'
loop_
 _atom_site_type_symbol
 _atom_site_label
 _atom_site_symmetry_multiplicity
 _atom_site_fract_x
 _atom_site_fract_y
 _atom_site_fract_z
 _atom_site_occupancy
  Ca  Ca0  1  0.75000000  0.34491700  0.19276100  1
  Ca  Ca1  1  0.25000000  0.65508300  0.80723900  1
  Mn  Mn0  1  0.25000000  0.65129900  0.20603200  1
  Mn  Mn1  1  0.75000000  0.34870100  0.79396800  1
  Mn  Mn2  1  0.25000000  0.22875700  0.43521800  1
  Mn  Mn3  1  0.50000000  0.00000000  0.00000000  1
  Mn  Mn4  1  0.75000000  0.77124300  0.56478200  1
  Mn  Mn5  1  0.00000000  0.00000000  0.00000000  1
  P  P0  1  0.25000000  0.78962900  0.48494200  1
  P  P1  1  0.75000000  0.21037100  0.51505800  1
  P  P2  1  0.25000000  0.25767300  0.75984600  1
  P  P3  1  0.75000000  0.74232700  0.24015400  1
  P  P4  1  0.75000000  0.68381900  0.88566300  1
  P  P5  1  0.25000000  0.31618100  0.11433700  1
  O  O0  1  0.75000000  0.63994500  0.74287300  1
  O  O1  1  0.55916500  0.25009000  0.41584400  1
  O  O2  1  0.25000000  0.21155700  0.62368300  1
  O  O3  1  0.54502200  0.78838300  0.90308000  1
  O  O4  1  0.75000000  0.34874400  0.60625800  1
  O  O5  1  0.75000000  0.11759400  0.91365000  1
  O  O6  1  0.25000000  0.65125600  0.39374200  1
  O  O7  1  0.04502200  0.21161700  0.09692000  1
  O  O8  1  0.25000000  0.97353000  0.40965900  1
  O  O9  1  0.75000000  0.02647000  0.59034100  1
  O  O10  1  0.05867100  0.37592000  0.78682300  1
  O  O11  1  0.25000000  0.88240600  0.08635000  1
  O  O12  1  0.55867100  0.62408000  0.21317700  1
  O  O13  1  0.75000000  0.49820700  0.96555700  1
  O  O14  1  0.75000000  0.78844300  0.37631700  1
  O  O15  1  0.45497800  0.21161700  0.09692000  1
  O  O16  1  0.94083500  0.25009000  0.41584400  1
  O  O17  1  0.44083500  0.74991000  0.58415600  1
  O  O18  1  0.44132900  0.37592000  0.78682300  1
  O  O19  1  0.25000000  0.36005500  0.25712700  1
  O  O20  1  0.75000000  0.91128400  0.13790200  1
  O  O21  1  0.25000000  0.08871600  0.86209800  1
  O  O22  1  0.94132900  0.62408000  0.21317700  1
  O  O23  1  0.95497800  0.78838300  0.90308000  1
  O  O24  1  0.05916500  0.74991000  0.58415600  1
  O  O25  1  0.25000000  0.50179300  0.03444300  1
loop_
_geom_bond_atom_site_label_1
_geom_bond_atom_site_label_2
_geom_bond_distance
_geom_bond_site_symmetry_2
Ca0 O7 2.412175 1_655
Ca0 O15 2.412175 1_555
Ca0 O13 2.461015 1_554
Ca0 O12 2.519531 1_555
Ca0 O22 2.519531 1_555
Ca0 O16 2.602073 1_555
Ca0 O1 2.602073 1_555
Ca1 O3 2.412175 1_555
Ca1 O23 2.412175 1_455
Ca1 O25 2.461015 1_556
Ca1 O18 2.519531 1_555
Ca1 O10 2.519531 1_555
Ca1 O17 2.602073 1_555
Ca1 O24 2.602073 1_555
Mn0 O12 1.945345 1_555
Mn0 O22 1.945345 1_455
Mn0 O6 1.947681 1_555
Mn0 O11 2.010166 1_555
Mn0 O19 2.240323 1_555
Mn0 O25 2.280896 1_555
Mn1 O10 1.945345 1_655
Mn1 O18 1.945345 1_555
Mn1 O4 1.947681 1_555
Mn1 O5 2.010166 1_555
Mn1 O0 2.240323 1_555
Mn1 O13 2.280896 1_555
Mn2 O2 1.938100 1_555
Mn2 O16 1.951453 1_455
Mn2 O1 1.951453 1_555
Mn2 O19 1.959112 1_555
Mn2 O8 2.045663 1_545
Mn3 O5 1.955298 1_554
Mn3 O11 1.955298 1_545
Mn3 O3 2.084272 1_544
Mn3 O15 2.084272 1_555
Mn3 O20 2.156914 1_545
Mn3 O21 2.156914 1_554
Mn4 O14 1.938100 1_555
Mn4 O24 1.951453 1_655
Mn4 O17 1.951453 1_555
Mn4 O0 1.959112 1_555
Mn4 O9 2.045663 1_565
Mn5 O5 1.955298 1_454
Mn5 O11 1.955298 1_545
Mn5 O23 2.084272 1_444
Mn5 O7 2.084272 1_555
Mn5 O20 2.156914 1_445
Mn5 O21 2.156914 1_554
O0 P4 1.574091 1_555
O1 P1 1.574818 1_555
O2 P2 1.513711 1_555
O3 P4 1.546423 1_555
O4 P1 1.545496 1_555
O6 P0 1.545496 1_555
O7 P5 1.546423 1_555
O8 P0 1.513130 1_555
O9 P1 1.513130 1_555
O10 P2 1.563837 1_555
O12 P3 1.563837 1_555
O13 P4 1.542322 1_555
O14 P3 1.513711 1_555
O15 P5 1.546423 1_555
O16 P1 1.574818 1_555
O17 P0 1.574818 1_555
O18 P2 1.563837 1_555
O19 P5 1.574091 1_555
O20 P3 1.547595 1_555
O21 P2 1.547595 1_555
O22 P3 1.563837 1_555
O23 P4 1.546423 1_555
O24 P0 1.574818 1_555
O25 P5 1.542322 1_555
