# generated using pymatgen
data_RbCeSe2O13
_symmetry_space_group_name_H-M   'P 1'
_cell_length_a   9.22346900
_cell_length_b   6.67902000
_cell_length_c   19.87359489
_cell_angle_alpha   87.00464106
_cell_angle_beta   90.00000000
_cell_angle_gamma   90.00000000
_symmetry_Int_Tables_number   1
_chemical_formula_structural   RbCeSe2O13
_chemical_formula_sum   'Rb4 Ce4 Se8 O52'
_cell_volume   1222.61499384
_cell_formula_units_Z   4
loop_
 _symmetry_equiv_pos_site_id
 _symmetry_equiv_pos_as_xyz
  1  'x, y, z'
loop_
 _atom_site_type_symbol
 _atom_site_label
 _atom_site_symmetry_multiplicity
 _atom_site_fract_x
 _atom_site_fract_y
 _atom_site_fract_z
 _atom_site_occupancy
  Rb  Rb0  1  0.49390400  0.81173500  0.86235400  1
  Rb  Rb1  1  0.99390400  0.18826500  0.63764600  1
  Rb  Rb2  1  0.50609600  0.18826500  0.13764600  1
  Rb  Rb3  1  0.00609600  0.81173500  0.36235400  1
  Ce  Ce0  1  0.39577900  0.25712400  0.36889000  1
  Ce  Ce1  1  0.89577900  0.74287600  0.13111000  1
  Ce  Ce2  1  0.60422100  0.74287600  0.63111000  1
  Ce  Ce3  1  0.10422100  0.25712400  0.86889000  1
  Se  Se0  1  0.24525100  0.60621100  0.22423700  1
  Se  Se1  1  0.74525100  0.39378900  0.27576300  1
  Se  Se2  1  0.75474900  0.39378900  0.77576300  1
  Se  Se3  1  0.25474900  0.60621100  0.72423700  1
  Se  Se4  1  0.27663000  0.85983100  0.51399800  1
  Se  Se5  1  0.77663000  0.14016900  0.98600200  1
  Se  Se6  1  0.72337000  0.14016900  0.48600200  1
  Se  Se7  1  0.22337000  0.85983100  0.01399800  1
  O  O0  1  0.13394000  0.79224200  0.72145600  1
  O  O1  1  0.63394000  0.20775800  0.77854400  1
  O  O2  1  0.86606000  0.20775800  0.27854400  1
  O  O3  1  0.36606000  0.79224200  0.22145600  1
  O  O4  1  0.42802000  0.69596600  0.71678000  1
  O  O5  1  0.92802000  0.30403400  0.78322000  1
  O  O6  1  0.57198000  0.30403400  0.28322000  1
  O  O7  1  0.07198000  0.69596600  0.21678000  1
  O  O8  1  0.25085200  0.49647600  0.80409500  1
  O  O9  1  0.75085200  0.50352400  0.69590500  1
  O  O10  1  0.74914800  0.50352400  0.19590500  1
  O  O11  1  0.24914800  0.49647600  0.30409500  1
  O  O12  1  0.22641400  0.44474200  0.66636000  1
  O  O13  1  0.72641400  0.55525800  0.83364000  1
  O  O14  1  0.77358600  0.55525800  0.33364000  1
  O  O15  1  0.27358600  0.44474200  0.16636000  1
  O  O16  1  0.35104200  0.68104700  0.00380300  1
  O  O17  1  0.85104200  0.31895300  0.49619700  1
  O  O18  1  0.64895800  0.31895300  0.99619700  1
  O  O19  1  0.14895800  0.68104700  0.50380300  1
  O  O20  1  0.21884200  0.02763700  0.56468100  1
  O  O21  1  0.71884200  0.97236300  0.93531900  1
  O  O22  1  0.78115800  0.97236300  0.43531900  1
  O  O23  1  0.28115800  0.02763700  0.06468100  1
  O  O24  1  0.43344200  0.75689900  0.54255800  1
  O  O25  1  0.93344200  0.24310100  0.95744200  1
  O  O26  1  0.56655800  0.24310100  0.45744200  1
  O  O27  1  0.06655800  0.75689900  0.04255800  1
  O  O28  1  0.19263000  0.96748400  0.93531100  1
  O  O29  1  0.69263000  0.03251600  0.56468900  1
  O  O30  1  0.80737000  0.03251600  0.06468900  1
  O  O31  1  0.30737000  0.96748400  0.43531100  1
  O  O32  1  0.52621800  0.04899500  0.66617700  1
  O  O33  1  0.02621800  0.95100500  0.83382300  1
  O  O34  1  0.47378200  0.95100500  0.33382300  1
  O  O35  1  0.97378200  0.04899500  0.16617700  1
  O  O36  1  0.25090500  0.41647500  0.96661900  1
  O  O37  1  0.75090500  0.58352500  0.53338100  1
  O  O38  1  0.74909500  0.58352500  0.03338100  1
  O  O39  1  0.24909500  0.41647500  0.46661900  1
  O  O40  1  0.08868200  0.57063700  0.90842700  1
  O  O41  1  0.58868200  0.42936300  0.59157300  1
  O  O42  1  0.91131800  0.42936300  0.09157300  1
  O  O43  1  0.41131800  0.57063700  0.40842700  1
  O  O44  1  0.23197800  0.08565700  0.79274500  1
  O  O45  1  0.73197800  0.91434300  0.70725500  1
  O  O46  1  0.76802200  0.91434300  0.20725500  1
  O  O47  1  0.26802200  0.08565700  0.29274500  1
  O  O48  1  0.35762300  0.20024000  0.88597300  1
  O  O49  1  0.85762300  0.79976000  0.61402700  1
  O  O50  1  0.64237700  0.79976000  0.11402700  1
  O  O51  1  0.14237700  0.20024000  0.38597300  1
loop_
_geom_bond_atom_site_label_1
_geom_bond_atom_site_label_2
_geom_bond_distance
_geom_bond_site_symmetry_2
Ce0 O47 2.274031 1_555
Ce0 O43 2.279156 1_555
Ce0 O34 2.309221 1_545
Ce0 O26 2.360039 1_555
Ce0 O6 2.362708 1_555
Ce0 O51 2.389319 1_555
Ce0 O11 2.414085 1_555
Ce0 O31 2.425461 1_545
Ce0 O39 2.636563 1_555
Ce1 O46 2.274031 1_555
Ce1 O42 2.279156 1_555
Ce1 O35 2.309221 1_565
Ce1 O27 2.360039 1_655
Ce1 O7 2.362708 1_655
Ce1 O50 2.389319 1_555
Ce1 O10 2.414085 1_555
Ce1 O30 2.425461 1_565
Ce1 O38 2.636563 1_555
Ce2 O45 2.274031 1_555
Ce2 O41 2.279156 1_555
Ce2 O32 2.309221 1_565
Ce2 O24 2.360039 1_555
Ce2 O4 2.362708 1_555
Ce2 O49 2.389319 1_555
Ce2 O9 2.414085 1_555
Ce2 O29 2.425461 1_565
Ce2 O37 2.636563 1_555
Ce3 O44 2.274031 1_555
Ce3 O40 2.279156 1_555
Ce3 O33 2.309221 1_545
Ce3 O25 2.360039 1_455
Ce3 O5 2.362708 1_455
Ce3 O48 2.389319 1_555
Ce3 O8 2.414085 1_555
Ce3 O28 2.425461 1_545
Ce3 O36 2.636563 1_555
O0 Se3 1.667726 1_555
O0 Rb1 3.313360 1_465
O1 Se2 1.667726 1_555
O1 Rb0 3.313360 1_545
O2 Se1 1.667726 1_555
O2 Rb3 3.313360 1_645
O3 Se0 1.667726 1_555
O3 Rb2 3.313360 1_565
O4 Se3 1.710603 1_555
O4 Rb0 3.093678 1_555
O5 Se2 1.710603 1_555
O5 Rb1 3.093678 1_555
O6 Se1 1.710603 1_555
O6 Rb2 3.093678 1_555
O7 Se0 1.710603 1_555
O7 Rb3 3.093678 1_555
O8 Se3 1.713382 1_555
O8 Rb0 3.324839 1_555
O9 Se2 1.713382 1_555
O9 Rb1 3.324839 1_555
O10 Se1 1.713382 1_555
O10 Rb2 3.324839 1_555
O11 Se0 1.713382 1_555
O11 Rb3 3.324839 1_555
O12 Se3 1.638299 1_555
O12 Rb1 2.821580 1_455
O13 Se2 1.638299 1_555
O13 Rb0 2.821580 1_555
O14 Se1 1.638299 1_555
O14 Rb3 2.821580 1_655
O15 Se0 1.638299 1_555
O15 Rb2 2.821580 1_555
O16 Se7 1.696734 1_555
O16 Rb0 3.184970 1_554
O17 Se6 1.696734 1_555
O17 Rb1 3.184970 1_555
O18 Se5 1.696734 1_555
O18 Rb2 3.184970 1_556
O19 Se4 1.696734 1_555
O19 Rb3 3.184970 1_555
O20 Se4 1.634865 1_545
O20 Rb1 2.778616 1_455
O21 Se5 1.634865 1_565
O21 Rb0 2.778616 1_555
O22 Se6 1.634865 1_565
O22 Rb3 2.778616 1_655
O23 Se7 1.634865 1_545
O23 Rb2 2.778616 1_555
O24 Se4 1.686992 1_555
O25 Se5 1.686992 1_555
O26 Se6 1.686992 1_555
O27 Se7 1.686992 1_555
O28 Se7 1.710355 1_556
O28 Rb0 3.326213 1_555
O29 Se6 1.710355 1_555
O29 Rb1 3.326213 1_555
O30 Se5 1.710355 1_554
O30 Rb2 3.326213 1_555
O31 Se4 1.710355 1_555
O31 Rb3 3.326213 1_555
O44 Rb0 3.291326 1_545
O45 Rb1 3.291326 1_565
O46 Rb2 3.291326 1_565
O47 Rb3 3.291326 1_545
O48 Rb0 2.942922 1_545
O49 Rb1 2.942922 1_565
O50 Rb2 2.942922 1_565
O51 Rb3 2.942922 1_545
