# generated using pymatgen
data_Mg3Si4
_symmetry_space_group_name_H-M   'P 1'
_cell_length_a   4.13355400
_cell_length_b   7.79156097
_cell_length_c   8.53726517
_cell_angle_alpha   105.45332126
_cell_angle_beta   102.35306855
_cell_angle_gamma   89.38834795
_symmetry_Int_Tables_number   1
_chemical_formula_structural   Mg3Si4
_chemical_formula_sum   'Mg6 Si8'
_cell_volume   258.56865398
_cell_formula_units_Z   2
loop_
 _symmetry_equiv_pos_site_id
 _symmetry_equiv_pos_as_xyz
  1  'x, y, z'
loop_
 _atom_site_type_symbol
 _atom_site_label
 _atom_site_symmetry_multiplicity
 _atom_site_fract_x
 _atom_site_fract_y
 _atom_site_fract_z
 _atom_site_occupancy
  Mg  Mg0  1  0.19427500  0.32000100  0.46439800  1
  Mg  Mg1  1  0.56820800  0.12828900  0.18351100  1
  Mg  Mg2  1  0.51406300  0.69997800  0.05561300  1
  Mg  Mg3  1  0.99823100  0.35293700  0.04697100  1
  Mg  Mg4  1  0.68032800  0.91171300  0.48273700  1
  Mg  Mg5  1  0.77832400  0.59955000  0.71188000  1
  Si  Si0  1  0.13108300  0.66577900  0.32412500  1
  Si  Si1  1  0.62719300  0.48803800  0.30985600  1
  Si  Si2  1  0.80142800  0.24038900  0.67733900  1
  Si  Si3  1  0.35803000  0.37301800  0.81679400  1
  Si  Si4  1  0.09498400  0.94629100  0.25245600  1
  Si  Si5  1  0.50318400  0.06108800  0.83406300  1
  Si  Si6  1  0.23576500  0.78691900  0.64389200  1
  Si  Si7  1  0.01501300  0.92590000  0.94969400  1
loop_
_geom_bond_atom_site_label_1
_geom_bond_atom_site_label_2
_geom_bond_distance
_geom_bond_site_symmetry_2
Mg0 Si3 2.855214 1_555
Mg0 Si2 2.865677 1_455
Mg0 Si1 2.912269 1_455
Mg0 Si2 2.933225 1_555
Mg0 Si1 2.939040 1_555
Mg0 Si4 2.970014 1_545
Mg0 Si0 3.214232 1_555
Mg1 Si4 2.632323 1_645
Mg1 Si4 2.679605 1_545
Mg1 Si1 2.714887 1_555
Mg1 Si5 2.841502 1_554
Mg1 Si7 2.854232 1_544
Mg1 Si7 3.117711 1_644
Mg2 Si3 2.786992 1_554
Mg2 Si7 2.853811 1_554
Mg2 Si4 2.987715 1_655
Mg2 Si4 2.993990 1_555
Mg2 Si1 3.019301 1_555
Mg2 Si0 3.104882 1_655
Mg2 Si0 3.117573 1_555
Mg2 Si7 3.151404 1_654
Mg3 Si3 2.741757 1_654
Mg3 Si0 2.870676 1_655
Mg3 Si1 2.945611 1_555
Mg3 Si3 2.969672 1_554
Mg3 Si2 2.971704 1_554
Mg3 Si5 2.994555 1_554
Mg3 Si1 3.034324 1_655
Mg3 Si7 3.211309 1_644
Mg4 Si2 2.640674 1_565
Mg4 Si6 2.724576 1_655
Mg4 Si4 2.832828 1_555
Mg4 Si6 2.836903 1_555
Mg4 Si0 2.838066 1_555
Mg4 Si0 2.932166 1_655
Mg4 Si4 2.934167 1_655
Mg4 Si5 3.154067 1_565
Mg4 Si1 3.225549 1_555
Mg5 Si6 2.650215 1_655
Mg5 Si6 2.706027 1_555
Mg5 Si2 2.737488 1_555
Mg5 Si7 2.827898 1_655
Mg5 Si3 2.917118 1_555
Mg5 Si3 3.081143 1_655
Mg5 Si1 3.229565 1_555
Si0 Si4 2.416655 1_555
Si0 Si1 2.468692 1_555
Si0 Si1 2.476720 1_455
Si0 Si6 2.580857 1_555
Si2 Si3 2.449869 1_655
Si2 Si3 2.466189 1_555
Si2 Si5 2.645829 1_555
Si3 Si5 2.531927 1_555
Si4 Si7 2.496435 1_554
Si5 Si6 2.419803 1_545
Si5 Si7 2.484552 1_645
Si5 Si7 2.758200 1_545
Si6 Si7 2.883177 1_555
