# generated using pymatgen
data_Sr2Pr2MgFe2(RuO6)2
_symmetry_space_group_name_H-M   'P 1'
_cell_length_a   5.72772092
_cell_length_b   5.51502322
_cell_length_c   9.00958179
_cell_angle_alpha   90.35826485
_cell_angle_beta   82.42821724
_cell_angle_gamma   88.63840773
_symmetry_Int_Tables_number   1
_chemical_formula_structural   Sr2Pr2MgFe2(RuO6)2
_chemical_formula_sum   'Sr2 Pr2 Mg1 Fe2 Ru2 O12'
_cell_volume   282.02544883
_cell_formula_units_Z   1
loop_
 _symmetry_equiv_pos_site_id
 _symmetry_equiv_pos_as_xyz
  1  'x, y, z'
loop_
 _atom_site_type_symbol
 _atom_site_label
 _atom_site_symmetry_multiplicity
 _atom_site_fract_x
 _atom_site_fract_y
 _atom_site_fract_z
 _atom_site_occupancy
  Sr  Sr0  1  0.39611000  0.47086200  0.67259600  1
  Sr  Sr1  1  0.97649500  0.02503600  0.25341400  1
  Pr  Pr0  1  0.91739800  0.98823000  0.70214600  1
  Pr  Pr1  1  0.46455400  0.46883600  0.26407500  1
  Mg  Mg0  1  0.70762200  0.48073800  0.90344600  1
  Fe  Fe0  1  0.10018700  0.52802100  0.03896700  1
  Fe  Fe1  1  0.46691600  0.97748500  0.45525300  1
  Ru  Ru0  1  0.95671500  0.50369300  0.49062400  1
  Ru  Ru1  1  0.55632000  0.99806200  0.01857000  1
  O  O0  1  0.94467800  0.42617000  0.71864000  1
  O  O1  1  0.55800300  0.15167600  0.81757400  1
  O  O2  1  0.02970200  0.57742000  0.26663000  1
  O  O3  1  0.53475700  0.89035000  0.24513600  1
  O  O4  1  0.21481600  0.23419800  0.46109900  1
  O  O5  1  0.75678800  0.28847500  0.08015500  1
  O  O6  1  0.86971400  0.79919300  0.95252700  1
  O  O7  1  0.20886300  0.75355500  0.51948600  1
  O  O8  1  0.69768300  0.77035100  0.54360900  1
  O  O9  1  0.40607700  0.68321500  0.94406300  1
  O  O10  1  0.28478400  0.21961400  0.08652500  1
  O  O11  1  0.68991200  0.26482000  0.45713400  1
loop_
_geom_bond_atom_site_label_1
_geom_bond_atom_site_label_2
_geom_bond_distance
_geom_bond_site_symmetry_2
Mg0 O5 1.965551 1_556
Mg0 O0 2.021137 1_555
Mg0 O9 2.024999 1_555
Mg0 O6 2.077983 1_555
Mg0 O1 2.203973 1_555
Fe0 O2 2.052797 1_555
Fe0 O9 2.054013 1_554
Fe0 O10 2.058525 1_555
Fe0 O6 2.185724 1_454
Fe0 O5 2.385153 1_455
Fe1 O3 1.936882 1_555
Fe1 O8 1.975509 1_555
Fe1 O7 1.978635 1_555
Fe1 O4 1.993511 1_565
Fe1 O11 2.060189 1_565
O0 Ru0 2.093531 1_555
O0 Pr0 2.428887 1_545
O0 Sr0 2.582141 1_655
O1 Ru1 2.003025 1_546
O1 Pr0 2.338259 1_545
O1 Sr0 2.436201 1_555
O2 Ru0 2.051535 1_455
O2 Sr1 2.485676 1_465
O2 Pr1 2.544920 1_555
O3 Ru1 2.118278 1_555
O3 Pr1 2.371950 1_555
O3 Sr1 2.664082 1_565
O4 Ru0 2.062092 1_455
O4 Pr1 2.513798 1_555
O4 Sr0 2.639609 1_555
O4 Sr1 2.723260 1_455
O4 Pr0 2.937730 1_445
O5 Ru1 2.106110 1_545
O5 Pr1 2.388775 1_555
O5 Sr1 2.567160 1_555
O6 Ru1 2.096638 1_556
O6 Pr0 2.476051 1_555
O7 Ru0 2.059458 1_455
O7 Sr0 2.412704 1_555
O7 Pr0 2.513364 1_455
O8 Ru0 2.071896 1_555
O8 Pr0 2.364721 1_555
O8 Sr0 2.587050 1_555
O9 Ru1 2.101161 1_556
O9 Sr0 2.713101 1_555
O10 Ru1 1.983958 1_545
O10 Sr1 2.437400 1_455
O10 Pr1 2.445833 1_555
O11 Ru0 2.091433 1_555
O11 Pr1 2.550429 1_555
O11 Sr1 2.623835 1_555
O11 Sr0 2.629085 1_555
