# generated using pymatgen
data_La3MnW(SO2)3
_symmetry_space_group_name_H-M   'P 1'
_cell_length_a   9.54705582
_cell_length_b   9.54548740
_cell_length_c   5.63565826
_cell_angle_alpha   90.50613694
_cell_angle_beta   89.20963652
_cell_angle_gamma   120.03121032
_symmetry_Int_Tables_number   1
_chemical_formula_structural   La3MnW(SO2)3
_chemical_formula_sum   'La6 Mn2 W2 S6 O12'
_cell_volume   444.59418789
_cell_formula_units_Z   2
loop_
 _symmetry_equiv_pos_site_id
 _symmetry_equiv_pos_as_xyz
  1  'x, y, z'
loop_
 _atom_site_type_symbol
 _atom_site_label
 _atom_site_symmetry_multiplicity
 _atom_site_fract_x
 _atom_site_fract_y
 _atom_site_fract_z
 _atom_site_occupancy
  La  La0  1  0.67916600  0.59205500  0.25012800  1
  La  La1  1  0.32083200  0.40794200  0.74986200  1
  La  La2  1  0.59214000  0.91294500  0.74960800  1
  La  La3  1  0.08713600  0.67921500  0.75045700  1
  La  La4  1  0.91286400  0.32078200  0.24954700  1
  La  La5  1  0.40785900  0.08705800  0.25038500  1
  Mn  Mn0  1  0.99999800  0.00000500  0.00000000  1
  Mn  Mn1  1  0.00000200  0.00000100  0.50000200  1
  W  W0  1  0.33313500  0.66662400  0.25009900  1
  W  W1  1  0.66686100  0.33337300  0.74991100  1
  S  S0  1  0.76903000  0.95498400  0.23731000  1
  S  S1  1  0.23096900  0.04501300  0.76269200  1
  S  S2  1  0.04501500  0.81438100  0.25958500  1
  S  S3  1  0.18534000  0.23024100  0.25295400  1
  S  S4  1  0.81466400  0.76976200  0.74704700  1
  S  S5  1  0.95498400  0.18561400  0.74041700  1
  O  O0  1  0.47194100  0.63173000  0.02471600  1
  O  O1  1  0.52867000  0.36690300  0.52590400  1
  O  O2  1  0.36714900  0.83850000  0.02589700  1
  O  O3  1  0.16110600  0.52821400  0.02546700  1
  O  O4  1  0.83958400  0.47173000  0.52521800  1
  O  O5  1  0.63225900  0.16020200  0.52474600  1
  O  O6  1  0.52806000  0.36827200  0.97528400  1
  O  O7  1  0.47133600  0.63309900  0.47409800  1
  O  O8  1  0.63284600  0.16149900  0.97410300  1
  O  O9  1  0.83889700  0.47178800  0.97453500  1
  O  O10  1  0.16041700  0.52827200  0.47478500  1
  O  O11  1  0.36774100  0.83979600  0.47525400  1
loop_
_geom_bond_atom_site_label_1
_geom_bond_atom_site_label_2
_geom_bond_distance
_geom_bond_site_symmetry_2
La0 O6 2.441721 1_554
La0 O1 2.450593 1_555
La0 O7 2.526632 1_555
La0 O0 2.549317 1_555
La0 O9 2.776899 1_554
La0 O4 2.815294 1_555
La0 S2 3.047928 1_655
La0 S0 3.125798 1_555
La0 S4 3.195788 1_555
La0 S4 3.221264 1_554
La1 O0 2.441789 1_556
La1 O7 2.450589 1_555
La1 O1 2.526639 1_555
La1 O6 2.549344 1_555
La1 O3 2.776933 1_556
La1 O10 2.815264 1_555
La1 S5 3.047921 1_455
La1 S1 3.125803 1_555
La1 S3 3.195707 1_555
La1 S3 3.221292 1_556
La2 O2 2.437784 1_556
La2 O11 2.458221 1_555
La2 O8 2.533459 1_565
La2 O5 2.541202 1_565
La2 O7 2.787296 1_555
La2 O0 2.804896 1_556
La2 S4 3.047399 1_555
La2 S5 3.122451 1_565
La2 S0 3.161902 1_556
La2 S0 3.249030 1_555
La3 O10 2.432804 1_555
La3 O3 2.463103 1_556
La3 O9 2.529124 1_455
La3 O4 2.544133 1_455
La3 O11 2.783688 1_555
La3 O2 2.805748 1_556
La3 S1 3.046566 1_565
La3 S4 3.125115 1_455
La3 S2 3.176849 1_555
La3 S2 3.237469 1_556
La4 O4 2.432830 1_555
La4 O9 2.463128 1_554
La4 O3 2.529160 1_655
La4 O10 2.544150 1_655
La4 O5 2.783675 1_555
La4 O8 2.805793 1_554
La4 S0 3.046565 1_545
La4 S3 3.125112 1_655
La4 S5 3.176845 1_555
La4 S5 3.237484 1_554
La5 O8 2.437737 1_554
La5 O5 2.458261 1_555
La5 O2 2.533460 1_545
La5 O11 2.541266 1_545
La5 O1 2.787313 1_555
La5 O6 2.804865 1_554
La5 S3 3.047355 1_555
La5 S2 3.122473 1_545
La5 S1 3.161849 1_554
La5 S1 3.249068 1_555
Mn0 S0 2.411619 1_545
Mn0 S1 2.411670 1_654
Mn0 S3 2.472849 1_655
Mn0 S4 2.472860 1_544
Mn0 S5 2.507808 1_554
Mn0 S2 2.507944 1_645
Mn1 S5 2.421435 1_455
Mn1 S2 2.421470 1_545
Mn1 S4 2.448066 1_445
Mn1 S3 2.448081 1_555
Mn1 S1 2.523698 1_555
Mn1 S0 2.523730 1_445
O0 W0 1.966806 1_555
O1 W1 1.978005 1_555
O2 W0 1.971213 1_555
O3 W0 1.975204 1_555
O4 W1 1.964428 1_555
O5 W1 1.969698 1_555
O6 W1 1.966759 1_555
O7 W0 1.978024 1_555
O8 W1 1.971160 1_555
O9 W1 1.975221 1_555
O10 W0 1.964366 1_555
O11 W0 1.969660 1_555
