# generated using pymatgen
data_Sr4Ir
_symmetry_space_group_name_H-M   'P 1'
_cell_length_a   8.83339434
_cell_length_b   8.83339434
_cell_length_c   8.83339434
_cell_angle_alpha   60.00000000
_cell_angle_beta   60.00000000
_cell_angle_gamma   60.00000000
_symmetry_Int_Tables_number   1
_chemical_formula_structural   Sr4Ir
_chemical_formula_sum   'Sr8 Ir2'
_cell_volume   487.38017360
_cell_formula_units_Z   2
loop_
 _symmetry_equiv_pos_site_id
 _symmetry_equiv_pos_as_xyz
  1  'x, y, z'
loop_
 _atom_site_type_symbol
 _atom_site_label
 _atom_site_symmetry_multiplicity
 _atom_site_fract_x
 _atom_site_fract_y
 _atom_site_fract_z
 _atom_site_occupancy
  Sr  Sr0  1  0.62320536  0.62320536  0.62320536  1
  Sr  Sr1  1  0.13038292  0.62320536  0.62320536  1
  Sr  Sr2  1  0.62320536  0.13038292  0.62320536  1
  Sr  Sr3  1  0.61961708  0.12679464  0.12679464  1
  Sr  Sr4  1  0.12679464  0.12679464  0.12679464  1
  Sr  Sr5  1  0.62320536  0.62320536  0.13038292  1
  Sr  Sr6  1  0.12679464  0.61961708  0.12679464  1
  Sr  Sr7  1  0.12679464  0.12679464  0.61961708  1
  Ir  Ir0  1  0.00000000  -0.00000000  -0.00000000  1
  Ir  Ir1  1  0.75000000  0.75000000  0.75000000  1
loop_
_geom_bond_atom_site_label_1
_geom_bond_atom_site_label_2
_geom_bond_distance
_geom_bond_site_symmetry_2
Ir0 Sr3 2.743488 1_455
Ir0 Sr7 2.743488 1_554
Ir0 Sr6 2.743488 1_545
Ir0 Sr4 2.743495 1_555
Ir1 Sr1 2.743488 1_655
Ir1 Sr2 2.743488 1_565
Ir1 Sr5 2.743488 1_556
Ir1 Sr0 2.743495 1_555
