# generated using pymatgen
data_NaSr3Be3B3O9F4
_symmetry_space_group_name_H-M   'P 1'
_cell_length_a   6.76163682
_cell_length_b   6.76163682
_cell_length_c   6.76163698
_cell_angle_alpha   103.68584915
_cell_angle_beta   103.68584915
_cell_angle_gamma   103.68584761
_symmetry_Int_Tables_number   1
_chemical_formula_structural   NaSr3Be3B3O9F4
_chemical_formula_sum   'Na1 Sr3 Be3 B3 O9 F4'
_cell_volume   277.46519881
_cell_formula_units_Z   1
loop_
 _symmetry_equiv_pos_site_id
 _symmetry_equiv_pos_as_xyz
  1  'x, y, z'
loop_
 _atom_site_type_symbol
 _atom_site_label
 _atom_site_symmetry_multiplicity
 _atom_site_fract_x
 _atom_site_fract_y
 _atom_site_fract_z
 _atom_site_occupancy
  Na  Na0  1  0.28304400  0.28304400  0.28304400  1
  Sr  Sr0  1  0.48252600  0.87626000  0.48252600  1
  Sr  Sr1  1  0.48252600  0.48252600  0.87626000  1
  Sr  Sr2  1  0.87626000  0.48252600  0.48252600  1
  Be  Be0  1  0.06941800  0.79434400  0.06941800  1
  Be  Be1  1  0.06941800  0.06941800  0.79434400  1
  Be  Be2  1  0.79434400  0.06941800  0.06941800  1
  B  B0  1  0.93403300  0.39727800  0.93403300  1
  B  B1  1  0.93403300  0.93403300  0.39727800  1
  B  B2  1  0.39727800  0.93403300  0.93403300  1
  O  O0  1  0.31056700  0.83664100  0.06512900  1
  O  O1  1  0.06512900  0.31056700  0.83664100  1
  O  O2  1  0.83664100  0.06512900  0.31056700  1
  O  O3  1  0.06512900  0.83664100  0.31056700  1
  O  O4  1  0.31056700  0.06512900  0.83664100  1
  O  O5  1  0.83664100  0.31056700  0.06512900  1
  O  O6  1  0.89790600  0.58255900  0.89790600  1
  O  O7  1  0.89790600  0.89790600  0.58255900  1
  O  O8  1  0.58255900  0.89790600  0.89790600  1
  F  F0  1  0.54574100  0.26322900  0.54574100  1
  F  F1  1  0.54574100  0.54574100  0.26322900  1
  F  F2  1  0.26322900  0.54574100  0.54574100  1
  F  F3  1  0.99863600  0.99863600  0.99863600  1
loop_
_geom_bond_atom_site_label_1
_geom_bond_atom_site_label_2
_geom_bond_distance
_geom_bond_site_symmetry_2
Be0 O6 1.591349 1_454
Be0 O0 1.595932 1_555
Be0 O3 1.595932 1_555
Be0 F3 1.698096 1_454
Be1 O7 1.591349 1_445
Be1 O1 1.595932 1_555
Be1 O4 1.595932 1_555
Be1 F3 1.698096 1_445
Be2 O8 1.591349 1_544
Be2 O5 1.595932 1_555
Be2 O2 1.595932 1_555
Be2 F3 1.698096 1_544
B0 O1 1.379353 1_655
B0 O5 1.379353 1_556
B0 O6 1.396513 1_555
B1 O3 1.379353 1_655
B1 O2 1.379353 1_565
B1 O7 1.396513 1_555
B2 O4 1.379353 1_565
B2 O0 1.379353 1_556
B2 O8 1.396513 1_555
O0 Sr0 2.707587 1_555
O0 Sr1 3.047793 1_554
O1 Sr1 2.707587 1_555
O1 Sr2 3.047793 1_455
O2 Sr2 2.707587 1_555
O2 Sr0 3.047793 1_545
O3 Sr0 2.707587 1_555
O3 Sr2 3.047793 1_455
O4 Sr1 2.707587 1_555
O4 Sr0 3.047793 1_545
O5 Sr2 2.707587 1_555
O5 Sr1 3.047793 1_554
O6 Sr1 2.688329 1_555
O6 Sr2 2.688329 1_555
O7 Sr0 2.688329 1_555
O7 Sr2 2.688329 1_555
O8 Sr1 2.688329 1_555
O8 Sr0 2.688329 1_555
F0 Na0 2.249535 1_555
F0 Sr0 2.463087 1_545
F0 Sr1 2.561212 1_555
F0 Sr2 2.561212 1_555
F1 Na0 2.249535 1_555
F1 Sr1 2.463087 1_554
F1 Sr2 2.561212 1_555
F1 Sr0 2.561212 1_555
F2 Na0 2.249535 1_555
F2 Sr2 2.463087 1_455
F2 Sr1 2.561212 1_555
F2 Sr0 2.561212 1_555
F3 Na0 2.417568 1_666
