# generated using pymatgen
data_Mn2Nb2Zn2O9
_symmetry_space_group_name_H-M   'P 1'
_cell_length_a   5.32157959
_cell_length_b   5.32157959
_cell_length_c   14.57756000
_cell_angle_alpha   90.00000000
_cell_angle_beta   90.00000000
_cell_angle_gamma   119.99999496
_symmetry_Int_Tables_number   1
_chemical_formula_structural   Mn2Nb2Zn2O9
_chemical_formula_sum   'Mn4 Nb4 Zn4 O18'
_cell_volume   357.51693287
_cell_formula_units_Z   2
loop_
 _symmetry_equiv_pos_site_id
 _symmetry_equiv_pos_as_xyz
  1  'x, y, z'
loop_
 _atom_site_type_symbol
 _atom_site_label
 _atom_site_symmetry_multiplicity
 _atom_site_fract_x
 _atom_site_fract_y
 _atom_site_fract_z
 _atom_site_occupancy
  Mn  Mn0  1  0.33333300  0.66666700  0.01759600  1
  Mn  Mn1  1  0.33333300  0.66666700  0.51759600  1
  Mn  Mn2  1  0.66666700  0.33333300  0.98240400  1
  Mn  Mn3  1  0.66666700  0.33333300  0.48240400  1
  Nb  Nb0  1  0.00000000  0.00000000  0.64397500  1
  Nb  Nb1  1  0.00000000  0.00000000  0.14397500  1
  Nb  Nb2  1  0.00000000  0.00000000  0.85602500  1
  Nb  Nb3  1  0.00000000  0.00000000  0.35602500  1
  Zn  Zn0  1  0.66666700  0.33333300  0.71024400  1
  Zn  Zn1  1  0.33333300  0.66666700  0.29791600  1
  Zn  Zn2  1  0.33333300  0.66666700  0.79791600  1
  Zn  Zn3  1  0.66666700  0.33333300  0.21024400  1
  O  O0  1  0.68886200  0.66321100  0.58829100  1
  O  O1  1  0.00000000  0.71344800  0.75000000  1
  O  O2  1  0.66321100  0.97434800  0.41170900  1
  O  O3  1  0.31113800  0.33678900  0.41170900  1
  O  O4  1  0.97434800  0.31113800  0.58829100  1
  O  O5  1  0.71344800  0.71344800  0.25000000  1
  O  O6  1  0.02565200  0.33678900  0.91170900  1
  O  O7  1  0.33678900  0.02565200  0.58829100  1
  O  O8  1  0.33678900  0.31113800  0.08829100  1
  O  O9  1  0.02565200  0.68886200  0.41170900  1
  O  O10  1  0.66321100  0.68886200  0.91170900  1
  O  O11  1  0.68886200  0.02565200  0.08829100  1
  O  O12  1  0.71344800  0.00000000  0.75000000  1
  O  O13  1  0.28655200  0.28655200  0.75000000  1
  O  O14  1  0.28655200  0.00000000  0.25000000  1
  O  O15  1  0.97434800  0.66321100  0.08829100  1
  O  O16  1  0.00000000  0.28655200  0.25000000  1
  O  O17  1  0.31113800  0.97434800  0.91170900  1
loop_
_geom_bond_atom_site_label_1
_geom_bond_atom_site_label_2
_geom_bond_distance
_geom_bond_site_symmetry_2
Mn0 O8 2.162582 1_555
Mn0 O15 2.162582 1_455
Mn0 O11 2.162582 1_565
Mn0 O17 2.295838 1_554
Mn0 O6 2.295843 1_554
Mn0 O10 2.295846 1_554
Mn1 O0 2.162582 1_555
Mn1 O7 2.162582 1_565
Mn1 O4 2.162582 1_455
Mn1 O9 2.295838 1_555
Mn1 O2 2.295843 1_555
Mn1 O3 2.295846 1_555
Mn2 O10 2.162582 1_555
Mn2 O6 2.162582 1_655
Mn2 O17 2.162582 1_545
Mn2 O11 2.295838 1_556
Mn2 O15 2.295843 1_556
Mn2 O8 2.295846 1_556
Mn3 O3 2.162582 1_555
Mn3 O2 2.162582 1_545
Mn3 O9 2.162582 1_655
Mn3 O4 2.295838 1_555
Mn3 O7 2.295843 1_555
Mn3 O0 2.295846 1_555
Nb0 O7 1.909202 1_555
Nb0 O0 1.909204 1_445
Nb0 O4 1.909207 1_455
Nb0 O1 2.171217 1_545
Nb0 O12 2.171217 1_455
Nb0 O13 2.171217 1_555
Nb1 O15 1.909202 1_445
Nb1 O8 1.909204 1_555
Nb1 O11 1.909207 1_455
Nb1 O16 2.171217 1_555
Nb1 O14 2.171217 1_555
Nb1 O5 2.171217 1_445
Nb2 O6 1.909202 1_555
Nb2 O10 1.909204 1_445
Nb2 O17 1.909207 1_545
Nb2 O12 2.171217 1_455
Nb2 O1 2.171217 1_545
Nb2 O13 2.171217 1_555
Nb3 O2 1.909202 1_445
Nb3 O3 1.909204 1_555
Nb3 O9 1.909207 1_545
Nb3 O14 2.171217 1_555
Nb3 O16 2.171217 1_555
Nb3 O5 2.171217 1_445
O0 Zn0 2.459427 1_555
O1 Zn0 1.996505 1_455
O1 Zn2 2.034219 1_555
O2 Zn1 2.374862 1_555
O3 Zn1 2.374866 1_555
O4 Zn0 2.459420 1_555
O5 Zn3 1.996507 1_555
O5 Zn1 2.034224 1_555
O6 Zn2 2.374862 1_555
O7 Zn0 2.459424 1_555
O8 Zn3 2.459427 1_555
O9 Zn1 2.374858 1_555
O10 Zn2 2.374866 1_555
O11 Zn3 2.459420 1_555
O12 Zn0 1.996502 1_555
O12 Zn2 2.034222 1_545
O13 Zn0 1.996507 1_555
O13 Zn2 2.034224 1_555
O14 Zn3 1.996505 1_555
O14 Zn1 2.034219 1_545
O15 Zn3 2.459424 1_555
O16 Zn3 1.996502 1_455
O16 Zn1 2.034222 1_555
O17 Zn2 2.374858 1_555
