# generated using pymatgen
data_Pr3AlNiS7
_symmetry_space_group_name_H-M   'P 1'
_cell_length_a   10.03421517
_cell_length_b   10.03421517
_cell_length_c   6.05686600
_cell_angle_alpha   90.00000000
_cell_angle_beta   90.00000000
_cell_angle_gamma   119.99999450
_symmetry_Int_Tables_number   1
_chemical_formula_structural   Pr3AlNiS7
_chemical_formula_sum   'Pr6 Al2 Ni2 S14'
_cell_volume   528.13559678
_cell_formula_units_Z   2
loop_
 _symmetry_equiv_pos_site_id
 _symmetry_equiv_pos_as_xyz
  1  'x, y, z'
loop_
 _atom_site_type_symbol
 _atom_site_label
 _atom_site_symmetry_multiplicity
 _atom_site_fract_x
 _atom_site_fract_y
 _atom_site_fract_z
 _atom_site_occupancy
  Pr  Pr0  1  0.76926300  0.14151500  0.24247700  1
  Pr  Pr1  1  0.37225200  0.23073700  0.24247700  1
  Pr  Pr2  1  0.85848500  0.62774800  0.24247700  1
  Pr  Pr3  1  0.23073700  0.85848500  0.74247700  1
  Pr  Pr4  1  0.62774800  0.76926300  0.74247700  1
  Pr  Pr5  1  0.14151500  0.37225200  0.74247700  1
  Al  Al0  1  0.66666700  0.33333300  0.66581300  1
  Al  Al1  1  0.33333300  0.66666700  0.16581300  1
  Ni  Ni0  1  0.00000000  0.00000000  0.01906300  1
  Ni  Ni1  1  0.00000000  0.00000000  0.51906300  1
  S  S0  1  0.86101700  0.08725700  0.78742300  1
  S  S1  1  0.22624100  0.13898300  0.78742300  1
  S  S2  1  0.91274300  0.77375900  0.78742300  1
  S  S3  1  0.13898300  0.91274300  0.28742300  1
  S  S4  1  0.77375900  0.86101700  0.28742300  1
  S  S5  1  0.08725700  0.22624100  0.28742300  1
  S  S6  1  0.90266200  0.42065400  0.51902000  1
  S  S7  1  0.51799200  0.09733800  0.51902000  1
  S  S8  1  0.57934600  0.48200800  0.51902000  1
  S  S9  1  0.09733800  0.57934600  0.01902000  1
  S  S10  1  0.48200800  0.90266200  0.01902000  1
  S  S11  1  0.42065400  0.51799200  0.01902000  1
  S  S12  1  0.66666700  0.33333300  0.03242500  1
  S  S13  1  0.33333300  0.66666700  0.53242500  1
loop_
_geom_bond_atom_site_label_1
_geom_bond_atom_site_label_2
_geom_bond_distance
_geom_bond_site_symmetry_2
Pr0 S4 2.850433 1_545
Pr0 S7 2.870786 1_555
Pr0 S5 2.874980 1_655
Pr0 S12 2.892153 1_555
Pr0 S6 2.948450 1_555
Pr0 S10 2.995982 1_545
Pr0 S0 3.040059 1_554
Pr0 S0 3.541144 1_555
Pr1 S5 2.850443 1_555
Pr1 S8 2.870786 1_555
Pr1 S3 2.874983 1_545
Pr1 S12 2.892161 1_555
Pr1 S7 2.948450 1_555
Pr1 S11 2.995982 1_555
Pr1 S1 3.040056 1_554
Pr1 S1 3.541141 1_555
Pr2 S3 2.850438 1_655
Pr2 S6 2.870786 1_555
Pr2 S4 2.874990 1_555
Pr2 S12 2.892160 1_555
Pr2 S8 2.948450 1_555
Pr2 S9 2.995982 1_655
Pr2 S2 3.040055 1_554
Pr2 S2 3.541141 1_555
Pr3 S1 2.850433 1_565
Pr3 S10 2.870786 1_556
Pr3 S2 2.874980 1_455
Pr3 S13 2.892153 1_555
Pr3 S9 2.948450 1_556
Pr3 S7 2.995982 1_565
Pr3 S3 3.040059 1_555
Pr3 S3 3.541144 1_556
Pr4 S2 2.850443 1_555
Pr4 S11 2.870786 1_556
Pr4 S0 2.874983 1_565
Pr4 S13 2.892161 1_555
Pr4 S10 2.948450 1_556
Pr4 S8 2.995982 1_555
Pr4 S4 3.040056 1_555
Pr4 S4 3.541141 1_556
Pr5 S0 2.850438 1_455
Pr5 S9 2.870786 1_556
Pr5 S1 2.874990 1_555
Pr5 S13 2.892160 1_555
Pr5 S11 2.948450 1_556
Pr5 S6 2.995982 1_455
Pr5 S5 3.040055 1_555
Pr5 S5 3.541141 1_556
Al0 S12 2.220520 1_556
Al0 S6 2.256305 1_555
Al0 S7 2.256307 1_555
Al0 S8 2.256314 1_555
Al1 S13 2.220520 1_555
Al1 S9 2.256305 1_555
Al1 S10 2.256307 1_555
Al1 S11 2.256314 1_555
Ni0 S0 2.429186 1_454
Ni0 S1 2.429193 1_554
Ni0 S2 2.429194 1_444
Ni0 S3 2.564078 1_545
Ni0 S4 2.564084 1_445
Ni0 S5 2.564085 1_555
Ni1 S3 2.429186 1_545
Ni1 S4 2.429193 1_445
Ni1 S5 2.429194 1_555
Ni1 S0 2.564078 1_455
Ni1 S1 2.564084 1_555
Ni1 S2 2.564085 1_445
