# generated using pymatgen
data_LiCd4(TcO3)4
_symmetry_space_group_name_H-M   'P 1'
_cell_length_a   5.52414711
_cell_length_b   5.60889313
_cell_length_c   7.94369997
_cell_angle_alpha   91.11645934
_cell_angle_beta   87.95478350
_cell_angle_gamma   89.97848792
_symmetry_Int_Tables_number   1
_chemical_formula_structural   LiCd4(TcO3)4
_chemical_formula_sum   'Li1 Cd4 Tc4 O12'
_cell_volume   245.92675715
_cell_formula_units_Z   1
loop_
 _symmetry_equiv_pos_site_id
 _symmetry_equiv_pos_as_xyz
  1  'x, y, z'
loop_
 _atom_site_type_symbol
 _atom_site_label
 _atom_site_symmetry_multiplicity
 _atom_site_fract_x
 _atom_site_fract_y
 _atom_site_fract_z
 _atom_site_occupancy
  Li  Li0  1  0.12824300  0.89941400  0.43480100  1
  Cd  Cd0  1  0.51005700  0.55018700  0.25975500  1
  Cd  Cd1  1  0.96914500  0.08112200  0.20237700  1
  Cd  Cd2  1  0.48990700  0.45448600  0.75323300  1
  Cd  Cd3  1  0.01016600  0.94953500  0.76574300  1
  Tc  Tc0  1  0.99472300  0.50927900  0.99855300  1
  Tc  Tc1  1  0.52730000  0.99789200  0.50694500  1
  Tc  Tc2  1  0.00436800  0.47842500  0.50344700  1
  Tc  Tc3  1  0.48997000  0.00276500  0.00214300  1
  O  O0  1  0.78775100  0.80213700  0.05518000  1
  O  O1  1  0.71122200  0.28867300  0.44936100  1
  O  O2  1  0.20559900  0.18484800  0.56211500  1
  O  O3  1  0.29145800  0.71009300  0.93853100  1
  O  O4  1  0.19449900  0.20541900  0.94476600  1
  O  O5  1  0.31422900  0.68712300  0.55267000  1
  O  O6  1  0.81363300  0.78543100  0.44305700  1
  O  O7  1  0.68591600  0.30916900  0.05692600  1
  O  O8  1  0.38429300  0.96264300  0.25709700  1
  O  O9  1  0.10750700  0.46468400  0.24723300  1
  O  O10  1  0.61044000  0.03793600  0.75442400  1
  O  O11  1  0.89457100  0.53755400  0.75331000  1
loop_
_geom_bond_atom_site_label_1
_geom_bond_atom_site_label_2
_geom_bond_distance
_geom_bond_site_symmetry_2
Li0 O6 1.851442 1_455
Li0 O5 1.860448 1_555
Li0 O2 1.933078 1_565
Li0 O8 1.999131 1_555
Cd0 O7 2.273688 1_555
Cd0 O9 2.280277 1_555
Cd0 O8 2.415941 1_555
Cd0 O1 2.420603 1_555
Cd0 O6 2.602805 1_555
Cd0 O0 2.627609 1_555
Cd0 O5 2.631420 1_555
Cd1 O0 2.198506 1_545
Cd1 O9 2.308747 1_655
Cd1 Li0 2.325615 1_645
Cd1 O7 2.367310 1_555
Cd1 O8 2.443608 1_645
Cd1 O4 2.469392 1_654
Cd1 O1 2.635300 1_555
Cd1 O6 2.674201 1_545
Cd2 O11 2.283652 1_555
Cd2 O3 2.285882 1_555
Cd2 O5 2.318007 1_555
Cd2 O10 2.429459 1_555
Cd2 O4 2.614733 1_555
Cd2 O2 2.672321 1_555
Cd2 O1 2.808456 1_555
Cd2 O7 2.814082 1_556
Cd3 O4 2.268055 1_565
Cd3 O10 2.268243 1_465
Cd3 O2 2.341719 1_565
Cd3 O11 2.398715 1_455
Cd3 O3 2.514901 1_555
Cd3 O0 2.711571 1_456
O0 Tc0 2.034903 1_554
O0 Tc3 2.053372 1_565
O1 Tc1 1.974512 1_545
O1 Tc2 1.993203 1_655
O2 Tc2 2.056661 1_555
O2 Tc1 2.091634 1_545
O3 Tc0 2.037036 1_455
O3 Tc3 2.039905 1_566
O4 Tc3 2.058106 1_556
O4 Tc0 2.059546 1_455
O5 Tc2 2.117671 1_555
O5 Tc1 2.133386 1_555
O6 Tc1 2.024174 1_555
O6 Tc2 2.091022 1_655
O7 Tc3 2.078572 1_555
O7 Tc0 2.085695 1_554
O8 Tc3 2.103963 1_565
O8 Tc1 2.167722 1_555
O9 Tc2 2.093810 1_555
O9 Tc0 2.111891 1_454
O10 Tc1 2.042904 1_545
O10 Tc3 2.067803 1_556
O11 Tc0 2.053140 1_555
O11 Tc2 2.075023 1_655
