# generated using pymatgen
data_HfMn2
_symmetry_space_group_name_H-M   'P 1'
_cell_length_a   4.94414902
_cell_length_b   4.94414902
_cell_length_c   16.13879700
_cell_angle_alpha   90.00000000
_cell_angle_beta   90.00000000
_cell_angle_gamma   119.91389927
_symmetry_Int_Tables_number   1
_chemical_formula_structural   HfMn2
_chemical_formula_sum   'Hf8 Mn16'
_cell_volume   341.94876470
_cell_formula_units_Z   8
loop_
 _symmetry_equiv_pos_site_id
 _symmetry_equiv_pos_as_xyz
  1  'x, y, z'
loop_
 _atom_site_type_symbol
 _atom_site_label
 _atom_site_symmetry_multiplicity
 _atom_site_fract_x
 _atom_site_fract_y
 _atom_site_fract_z
 _atom_site_occupancy
  Hf  Hf0  1  0.99994600  0.00005400  0.59363200  1
  Hf  Hf1  1  0.00005400  0.99994600  0.40636800  1
  Hf  Hf2  1  0.00005400  0.99994600  0.09363200  1
  Hf  Hf3  1  0.99994600  0.00005400  0.90636800  1
  Hf  Hf4  1  0.66664200  0.33335800  0.34415400  1
  Hf  Hf5  1  0.33335800  0.66664200  0.65584600  1
  Hf  Hf6  1  0.33335800  0.66664200  0.84415400  1
  Hf  Hf7  1  0.66664200  0.33335800  0.15584600  1
  Mn  Mn0  1  0.66669700  0.33330300  0.62459800  1
  Mn  Mn1  1  0.33330300  0.66669700  0.37540200  1
  Mn  Mn2  1  0.33330300  0.66669700  0.12459800  1
  Mn  Mn3  1  0.66669700  0.33330300  0.87540200  1
  Mn  Mn4  1  0.50000000  0.00000000  0.50000000  1
  Mn  Mn5  1  0.50000000  0.50000000  0.50000000  1
  Mn  Mn6  1  0.00000000  0.50000000  0.50000000  1
  Mn  Mn7  1  0.50000000  0.00000000  0.00000000  1
  Mn  Mn8  1  0.50000000  0.50000000  0.00000000  1
  Mn  Mn9  1  0.00000000  0.50000000  0.00000000  1
  Mn  Mn10  1  0.83650800  0.67322300  0.75000000  1
  Mn  Mn11  1  0.83641000  0.16359000  0.75000000  1
  Mn  Mn12  1  0.32677700  0.16349200  0.75000000  1
  Mn  Mn13  1  0.16349200  0.32677700  0.25000000  1
  Mn  Mn14  1  0.16359000  0.83641000  0.25000000  1
  Mn  Mn15  1  0.67322300  0.83650800  0.25000000  1
loop_
_geom_bond_atom_site_label_1
_geom_bond_atom_site_label_2
_geom_bond_distance
_geom_bond_site_symmetry_2
Hf0 Mn11 2.885837 1_555
Hf0 Mn10 2.886220 1_545
Hf0 Mn12 2.886220 1_655
Hf0 Mn0 2.895991 1_555
Hf0 Mn6 2.897002 1_655
Hf0 Mn4 2.897002 1_555
Hf0 Mn6 2.897685 1_645
Hf0 Mn4 2.897685 1_655
Hf0 Mn5 2.900088 1_655
Hf0 Mn5 2.900088 1_545
Hf0 Mn0 2.900718 1_655
Hf0 Mn0 2.900718 1_545
Hf0 Hf1 3.022216 1_645
Hf0 Hf5 3.025410 1_645
Hf0 Hf5 3.027963 1_655
Hf0 Hf5 3.027963 1_545
Hf1 Mn14 2.885837 1_555
Hf1 Mn13 2.886220 1_565
Hf1 Mn15 2.886220 1_455
Hf1 Mn1 2.895991 1_555
Hf1 Mn6 2.897002 1_555
Hf1 Mn4 2.897002 1_565
Hf1 Mn6 2.897685 1_565
Hf1 Mn4 2.897685 1_465
Hf1 Mn5 2.900088 1_565
Hf1 Mn5 2.900088 1_455
Hf1 Mn1 2.900718 1_565
Hf1 Mn1 2.900718 1_455
Hf1 Hf4 3.025410 1_465
Hf1 Hf4 3.027963 1_455
Hf1 Hf4 3.027963 1_565
Hf2 Mn14 2.885837 1_555
Hf2 Mn13 2.886220 1_565
Hf2 Mn15 2.886220 1_455
Hf2 Mn2 2.895991 1_555
Hf2 Mn7 2.897002 1_565
Hf2 Mn9 2.897002 1_555
Hf2 Mn9 2.897685 1_565
Hf2 Mn7 2.897685 1_465
Hf2 Mn8 2.900088 1_565
Hf2 Mn8 2.900088 1_455
Hf2 Mn2 2.900718 1_565
Hf2 Mn2 2.900718 1_455
Hf2 Hf3 3.022216 1_464
Hf2 Hf7 3.025410 1_465
Hf2 Hf7 3.027963 1_565
Hf2 Hf7 3.027963 1_455
Hf3 Mn11 2.885837 1_555
Hf3 Mn12 2.886220 1_655
Hf3 Mn10 2.886220 1_545
Hf3 Mn3 2.895991 1_555
Hf3 Mn9 2.897002 1_656
Hf3 Mn7 2.897002 1_556
Hf3 Mn9 2.897685 1_646
Hf3 Mn7 2.897685 1_656
Hf3 Mn8 2.900088 1_656
Hf3 Mn8 2.900088 1_546
Hf3 Mn3 2.900718 1_655
Hf3 Mn3 2.900718 1_545
Hf3 Hf6 3.025410 1_645
Hf3 Hf6 3.027963 1_655
Hf3 Hf6 3.027963 1_545
Hf4 Mn5 2.891495 1_555
Hf4 Mn6 2.892569 1_655
Hf4 Mn4 2.892569 1_555
Hf4 Mn1 2.897539 1_555
Hf4 Mn1 2.901126 1_655
Hf4 Mn1 2.901126 1_545
Hf4 Mn15 2.901328 1_555
Hf4 Mn13 2.901328 1_555
Hf4 Mn13 2.902439 1_655
Hf4 Mn15 2.902439 1_545
Hf4 Mn14 2.904604 1_545
Hf4 Mn14 2.904604 1_655
Hf4 Hf7 3.039065 1_555
Hf5 Mn5 2.891495 1_555
Hf5 Mn6 2.892569 1_555
Hf5 Mn4 2.892569 1_565
Hf5 Mn0 2.897539 1_555
Hf5 Mn0 2.901126 1_565
Hf5 Mn0 2.901126 1_455
Hf5 Mn10 2.901328 1_555
Hf5 Mn12 2.901328 1_555
Hf5 Mn12 2.902439 1_565
Hf5 Mn10 2.902439 1_455
Hf5 Mn11 2.904604 1_455
Hf5 Mn11 2.904604 1_565
Hf5 Hf6 3.039065 1_555
Hf6 Mn8 2.891495 1_556
Hf6 Mn9 2.892569 1_556
Hf6 Mn7 2.892569 1_566
Hf6 Mn3 2.897539 1_555
Hf6 Mn3 2.901126 1_565
Hf6 Mn3 2.901126 1_455
Hf6 Mn10 2.901328 1_555
Hf6 Mn12 2.901328 1_555
Hf6 Mn12 2.902439 1_565
Hf6 Mn10 2.902439 1_455
Hf6 Mn11 2.904604 1_455
Hf6 Mn11 2.904604 1_565
Hf7 Mn8 2.891495 1_555
Hf7 Mn7 2.892569 1_555
Hf7 Mn9 2.892569 1_655
Hf7 Mn2 2.897539 1_555
Hf7 Mn2 2.901126 1_655
Hf7 Mn2 2.901126 1_545
Hf7 Mn15 2.901328 1_555
Hf7 Mn13 2.901328 1_555
Hf7 Mn13 2.902439 1_655
Hf7 Mn15 2.902439 1_545
Hf7 Mn14 2.904604 1_545
Hf7 Mn14 2.904604 1_655
Mn0 Mn5 2.465682 1_555
Mn0 Mn4 2.466532 1_555
Mn0 Mn6 2.466532 1_655
Mn0 Mn11 2.491241 1_555
Mn0 Mn12 2.493580 1_555
Mn0 Mn10 2.493580 1_555
Mn1 Mn5 2.465682 1_555
Mn1 Mn6 2.466532 1_555
Mn1 Mn4 2.466532 1_565
Mn1 Mn14 2.491241 1_555
Mn1 Mn13 2.493580 1_555
Mn1 Mn15 2.493580 1_555
Mn2 Mn8 2.465682 1_555
Mn2 Mn9 2.466532 1_555
Mn2 Mn7 2.466532 1_565
Mn3 Mn8 2.465682 1_556
Mn3 Mn7 2.466532 1_556
Mn3 Mn9 2.466532 1_656
Mn4 Mn5 2.472075 1_555
Mn4 Mn5 2.472075 1_545
Mn4 Mn6 2.475291 1_655
Mn4 Mn6 2.475291 1_545
Mn5 Mn6 2.472075 1_655
Mn5 Mn6 2.472075 1_555
Mn7 Mn8 2.472075 1_555
Mn7 Mn8 2.472075 1_545
Mn7 Mn9 2.475291 1_545
Mn7 Mn9 2.475291 1_655
Mn8 Mn9 2.472075 1_555
Mn8 Mn9 2.472075 1_655
Mn10 Mn11 2.424689 1_565
Mn10 Mn12 2.427117 1_665
Mn10 Mn3 2.493580 1_555
Mn10 Mn11 2.519460 1_555
Mn10 Mn12 2.523465 1_555
Mn11 Mn12 2.424689 1_655
Mn11 Mn3 2.491241 1_555
Mn11 Mn12 2.519460 1_555
Mn12 Mn3 2.493580 1_555
Mn13 Mn14 2.424689 1_545
Mn13 Mn15 2.427117 1_445
Mn13 Mn2 2.493580 1_555
Mn13 Mn14 2.519460 1_555
Mn13 Mn15 2.523465 1_555
Mn14 Mn15 2.424689 1_455
Mn14 Mn2 2.491241 1_555
Mn14 Mn15 2.519460 1_555
Mn15 Mn2 2.493580 1_555
