# generated using pymatgen
data_AlB7Pd15
_symmetry_space_group_name_H-M   'P 1'
_cell_length_a   14.40383813
_cell_length_b   14.40383813
_cell_length_c   14.40383813
_cell_angle_alpha   109.47122063
_cell_angle_beta   109.47122063
_cell_angle_gamma   109.47122063
_symmetry_Int_Tables_number   1
_chemical_formula_structural   AlB7Pd15
_chemical_formula_sum   'Al8 B56 Pd120'
_cell_volume   2300.45003718
_cell_formula_units_Z   8
loop_
 _symmetry_equiv_pos_site_id
 _symmetry_equiv_pos_as_xyz
  1  'x, y, z'
loop_
 _atom_site_type_symbol
 _atom_site_label
 _atom_site_symmetry_multiplicity
 _atom_site_fract_x
 _atom_site_fract_y
 _atom_site_fract_z
 _atom_site_occupancy
  Al  Al0  1  0.00000000  0.50000000  -0.00000000  1
  Al  Al1  1  0.50000000  0.00000000  -0.00000000  1
  Al  Al2  1  0.00000000  0.00000000  0.50000000  1
  Al  Al3  1  0.50000000  0.50000000  0.50000000  1
  Al  Al4  1  0.00000000  0.50000000  0.50000000  1
  Al  Al5  1  0.50000000  0.00000000  0.50000000  1
  Al  Al6  1  0.50000000  0.50000000  0.00000000  1
  Al  Al7  1  0.00000000  0.00000000  0.00000000  1
  B  B0  1  0.00000000  0.50000000  0.75000000  1
  B  B1  1  0.50000000  0.75000000  0.00000000  1
  B  B2  1  0.75000000  0.00000000  0.50000000  1
  B  B3  1  0.75000000  0.75000000  0.75000000  1
  B  B4  1  0.00000000  0.50000000  0.25000000  1
  B  B5  1  0.50000000  0.25000000  -0.00000000  1
  B  B6  1  0.25000000  0.00000000  0.50000000  1
  B  B7  1  0.25000000  0.25000000  0.25000000  1
  B  B8  1  0.25000000  0.48701754  0.73701754  1
  B  B9  1  0.75000000  0.01298246  0.76298246  1
  B  B10  1  0.73701754  0.25000000  0.48701754  1
  B  B11  1  0.76298246  0.75000000  0.01298246  1
  B  B12  1  0.48701754  0.73701754  0.25000000  1
  B  B13  1  0.01298246  0.76298246  0.75000000  1
  B  B14  1  0.75000000  0.51298246  0.26298246  1
  B  B15  1  0.25000000  0.98701754  0.23701754  1
  B  B16  1  0.26298246  0.75000000  0.51298246  1
  B  B17  1  0.23701754  0.25000000  0.98701754  1
  B  B18  1  0.51298246  0.26298246  0.75000000  1
  B  B19  1  0.98701754  0.23701754  0.25000000  1
  B  B20  1  0.98701754  0.75000000  0.23701754  1
  B  B21  1  0.51298246  0.25000000  0.26298246  1
  B  B22  1  0.75000000  0.23701754  0.98701754  1
  B  B23  1  0.25000000  0.26298246  0.51298246  1
  B  B24  1  0.23701754  0.98701754  0.75000000  1
  B  B25  1  0.26298246  0.51298246  0.25000000  1
  B  B26  1  0.01298246  0.25000000  0.76298246  1
  B  B27  1  0.48701754  0.75000000  0.73701754  1
  B  B28  1  0.25000000  0.76298246  0.01298246  1
  B  B29  1  0.75000000  0.73701754  0.48701754  1
  B  B30  1  0.76298246  0.01298246  0.25000000  1
  B  B31  1  0.73701754  0.48701754  0.75000000  1
  B  B32  1  0.01202211  0.00601106  0.25601106  1
  B  B33  1  0.48797789  0.24398894  0.49398894  1
  B  B34  1  0.75000000  0.49398894  0.00601106  1
  B  B35  1  0.75000000  0.25601106  0.24398894  1
  B  B36  1  0.25601106  0.01202211  0.00601106  1
  B  B37  1  0.49398894  0.48797789  0.24398894  1
  B  B38  1  0.00601106  0.75000000  0.49398894  1
  B  B39  1  0.24398894  0.75000000  0.25601106  1
  B  B40  1  0.00601106  0.25601106  0.01202211  1
  B  B41  1  0.24398894  0.49398894  0.48797789  1
  B  B42  1  0.49398894  0.00601106  0.75000000  1
  B  B43  1  0.25601106  0.24398894  0.75000000  1
  B  B44  1  0.98797789  0.99398894  0.74398894  1
  B  B45  1  0.51202211  0.75601106  0.50601106  1
  B  B46  1  0.25000000  0.50601106  0.99398894  1
  B  B47  1  0.25000000  0.74398894  0.75601106  1
  B  B48  1  0.74398894  0.98797789  0.99398894  1
  B  B49  1  0.50601106  0.51202211  0.75601106  1
  B  B50  1  0.99398894  0.25000000  0.50601106  1
  B  B51  1  0.75601106  0.25000000  0.74398894  1
  B  B52  1  0.99398894  0.74398894  0.98797789  1
  B  B53  1  0.75601106  0.50601106  0.51202211  1
  B  B54  1  0.50601106  0.99398894  0.25000000  1
  B  B55  1  0.74398894  0.75601106  0.25000000  1
  Pd  Pd0  1  0.76120128  0.38060064  0.63060064  1
  Pd  Pd1  1  0.73879872  0.86939936  0.11939936  1
  Pd  Pd2  1  0.75000000  0.11939936  0.38060064  1
  Pd  Pd3  1  0.75000000  0.63060064  0.86939936  1
  Pd  Pd4  1  0.63060064  0.76120128  0.38060064  1
  Pd  Pd5  1  0.11939936  0.73879872  0.86939936  1
  Pd  Pd6  1  0.38060064  0.75000000  0.11939936  1
  Pd  Pd7  1  0.86939936  0.75000000  0.63060064  1
  Pd  Pd8  1  0.38060064  0.63060064  0.76120128  1
  Pd  Pd9  1  0.86939936  0.11939936  0.73879872  1
  Pd  Pd10  1  0.11939936  0.38060064  0.75000000  1
  Pd  Pd11  1  0.63060064  0.86939936  0.75000000  1
  Pd  Pd12  1  0.23879872  0.61939936  0.36939936  1
  Pd  Pd13  1  0.26120128  0.13060064  0.88060064  1
  Pd  Pd14  1  0.25000000  0.88060064  0.61939936  1
  Pd  Pd15  1  0.25000000  0.36939936  0.13060064  1
  Pd  Pd16  1  0.36939936  0.23879872  0.61939936  1
  Pd  Pd17  1  0.88060064  0.26120128  0.13060064  1
  Pd  Pd18  1  0.61939936  0.25000000  0.88060064  1
  Pd  Pd19  1  0.13060064  0.25000000  0.36939936  1
  Pd  Pd20  1  0.61939936  0.36939936  0.23879872  1
  Pd  Pd21  1  0.13060064  0.88060064  0.26120128  1
  Pd  Pd22  1  0.88060064  0.61939936  0.25000000  1
  Pd  Pd23  1  0.36939936  0.13060064  0.25000000  1
  Pd  Pd24  1  0.93022135  0.57650474  0.85217261  1
  Pd  Pd25  1  0.56977865  0.92195126  0.14628339  1
  Pd  Pd26  1  0.77566787  0.92349526  0.35371661  1
  Pd  Pd27  1  0.72433213  0.57804874  0.64782739  1
  Pd  Pd28  1  0.85217261  0.93022135  0.57650474  1
  Pd  Pd29  1  0.14628339  0.56977865  0.92195126  1
  Pd  Pd30  1  0.35371661  0.77566787  0.92349526  1
  Pd  Pd31  1  0.64782739  0.72433213  0.57804874  1
  Pd  Pd32  1  0.57650474  0.85217261  0.93022135  1
  Pd  Pd33  1  0.92195126  0.14628339  0.56977865  1
  Pd  Pd34  1  0.92349526  0.35371661  0.77566787  1
  Pd  Pd35  1  0.57804874  0.64782739  0.72433213  1
  Pd  Pd36  1  0.06977865  0.42349526  0.14782739  1
  Pd  Pd37  1  0.43022135  0.07804874  0.85371661  1
  Pd  Pd38  1  0.22433213  0.07650474  0.64628339  1
  Pd  Pd39  1  0.27566787  0.42195126  0.35217261  1
  Pd  Pd40  1  0.14782739  0.06977865  0.42349526  1
  Pd  Pd41  1  0.85371661  0.43022135  0.07804874  1
  Pd  Pd42  1  0.64628339  0.22433213  0.07650474  1
  Pd  Pd43  1  0.35217261  0.27566787  0.42195126  1
  Pd  Pd44  1  0.42349526  0.14782739  0.06977865  1
  Pd  Pd45  1  0.07804874  0.85371661  0.43022135  1
  Pd  Pd46  1  0.07650474  0.64628339  0.22433213  1
  Pd  Pd47  1  0.42195126  0.35217261  0.27566787  1
  Pd  Pd48  1  0.07650474  0.43022135  0.35217261  1
  Pd  Pd49  1  0.42195126  0.06977865  0.64628339  1
  Pd  Pd50  1  0.42349526  0.27566787  0.85371661  1
  Pd  Pd51  1  0.07804874  0.22433213  0.14782739  1
  Pd  Pd52  1  0.43022135  0.35217261  0.07650474  1
  Pd  Pd53  1  0.06977865  0.64628339  0.42195126  1
  Pd  Pd54  1  0.27566787  0.85371661  0.42349526  1
  Pd  Pd55  1  0.22433213  0.14782739  0.07804874  1
  Pd  Pd56  1  0.35217261  0.07650474  0.43022135  1
  Pd  Pd57  1  0.64628339  0.42195126  0.06977865  1
  Pd  Pd58  1  0.85371661  0.42349526  0.27566787  1
  Pd  Pd59  1  0.14782739  0.07804874  0.22433213  1
  Pd  Pd60  1  0.92349526  0.56977865  0.64782739  1
  Pd  Pd61  1  0.57804874  0.93022135  0.35371661  1
  Pd  Pd62  1  0.57650474  0.72433213  0.14628339  1
  Pd  Pd63  1  0.92195126  0.77566787  0.85217261  1
  Pd  Pd64  1  0.56977865  0.64782739  0.92349526  1
  Pd  Pd65  1  0.93022135  0.35371661  0.57804874  1
  Pd  Pd66  1  0.72433213  0.14628339  0.57650474  1
  Pd  Pd67  1  0.77566787  0.85217261  0.92195126  1
  Pd  Pd68  1  0.64782739  0.92349526  0.56977865  1
  Pd  Pd69  1  0.35371661  0.57804874  0.93022135  1
  Pd  Pd70  1  0.14628339  0.57650474  0.72433213  1
  Pd  Pd71  1  0.85217261  0.92195126  0.77566787  1
  Pd  Pd72  1  0.09284510  0.73061171  0.64742388  1
  Pd  Pd73  1  0.40715490  0.55457877  0.13776660  1
  Pd  Pd74  1  0.41681217  0.76938829  0.36223340  1
  Pd  Pd75  1  0.08318783  0.94542123  0.85257612  1
  Pd  Pd76  1  0.64742388  0.09284510  0.73061171  1
  Pd  Pd77  1  0.13776660  0.40715490  0.55457877  1
  Pd  Pd78  1  0.36223340  0.41681217  0.76938829  1
  Pd  Pd79  1  0.85257612  0.08318783  0.94542123  1
  Pd  Pd80  1  0.73061171  0.64742388  0.09284510  1
  Pd  Pd81  1  0.55457877  0.13776660  0.40715490  1
  Pd  Pd82  1  0.76938829  0.36223340  0.41681217  1
  Pd  Pd83  1  0.94542123  0.85257612  0.08318783  1
  Pd  Pd84  1  0.90715490  0.26938829  0.35257612  1
  Pd  Pd85  1  0.59284510  0.44542123  0.86223340  1
  Pd  Pd86  1  0.58318783  0.23061171  0.63776660  1
  Pd  Pd87  1  0.91681217  0.05457877  0.14742388  1
  Pd  Pd88  1  0.35257612  0.90715490  0.26938829  1
  Pd  Pd89  1  0.86223340  0.59284510  0.44542123  1
  Pd  Pd90  1  0.63776660  0.58318783  0.23061171  1
  Pd  Pd91  1  0.14742388  0.91681217  0.05457877  1
  Pd  Pd92  1  0.26938829  0.35257612  0.90715490  1
  Pd  Pd93  1  0.44542123  0.86223340  0.59284510  1
  Pd  Pd94  1  0.23061171  0.63776660  0.58318783  1
  Pd  Pd95  1  0.05457877  0.14742388  0.91681217  1
  Pd  Pd96  1  0.23061171  0.59284510  0.14742388  1
  Pd  Pd97  1  0.05457877  0.90715490  0.63776660  1
  Pd  Pd98  1  0.26938829  0.91681217  0.86223340  1
  Pd  Pd99  1  0.44542123  0.58318783  0.35257612  1
  Pd  Pd100  1  0.59284510  0.14742388  0.23061171  1
  Pd  Pd101  1  0.90715490  0.63776660  0.05457877  1
  Pd  Pd102  1  0.91681217  0.86223340  0.26938829  1
  Pd  Pd103  1  0.58318783  0.35257612  0.44542123  1
  Pd  Pd104  1  0.14742388  0.23061171  0.59284510  1
  Pd  Pd105  1  0.63776660  0.05457877  0.90715490  1
  Pd  Pd106  1  0.86223340  0.26938829  0.91681217  1
  Pd  Pd107  1  0.35257612  0.44542123  0.58318783  1
  Pd  Pd108  1  0.76938829  0.40715490  0.85257612  1
  Pd  Pd109  1  0.94542123  0.09284510  0.36223340  1
  Pd  Pd110  1  0.73061171  0.08318783  0.13776660  1
  Pd  Pd111  1  0.55457877  0.41681217  0.64742388  1
  Pd  Pd112  1  0.40715490  0.85257612  0.76938829  1
  Pd  Pd113  1  0.09284510  0.36223340  0.94542123  1
  Pd  Pd114  1  0.08318783  0.13776660  0.73061171  1
  Pd  Pd115  1  0.41681217  0.64742388  0.55457877  1
  Pd  Pd116  1  0.85257612  0.76938829  0.40715490  1
  Pd  Pd117  1  0.36223340  0.94542123  0.09284510  1
  Pd  Pd118  1  0.13776660  0.73061171  0.08318783  1
  Pd  Pd119  1  0.64742388  0.55457877  0.41681217  1
loop_
_geom_bond_atom_site_label_1
_geom_bond_atom_site_label_2
_geom_bond_distance
_geom_bond_site_symmetry_2
Al0 Pd24 2.763014 1_454
Al0 Pd34 2.763014 1_454
Al0 Pd29 2.763014 1_554
Al0 Pd41 2.763014 1_455
Al0 Pd46 2.763014 1_555
Al0 Pd36 2.763014 1_555
Al0 Pd101 2.788231 1_455
Al0 Pd113 2.788231 1_554
Al0 Pd118 2.788231 1_555
Al0 Pd106 2.788231 1_454
Al0 Pd108 2.788231 1_454
Al0 Pd96 2.788231 1_555
Al1 Pd32 2.763014 1_544
Al1 Pd30 2.763014 1_544
Al1 Pd25 2.763014 1_545
Al1 Pd44 2.763014 1_555
Al1 Pd42 2.763014 1_555
Al1 Pd37 2.763014 1_554
Al1 Pd105 2.788231 1_554
Al1 Pd117 2.788231 1_545
Al1 Pd110 2.788231 1_555
Al1 Pd98 2.788231 1_544
Al1 Pd112 2.788231 1_544
Al1 Pd100 2.788231 1_555
Al2 Pd28 2.763014 1_445
Al2 Pd33 2.763014 1_455
Al2 Pd38 2.763014 1_555
Al2 Pd45 2.763014 1_545
Al2 Pd40 2.763014 1_555
Al2 Pd26 2.763014 1_445
Al2 Pd97 2.788231 1_545
Al2 Pd109 2.788231 1_455
Al2 Pd114 2.788231 1_555
Al2 Pd102 2.788231 1_445
Al2 Pd116 2.788231 1_445
Al2 Pd104 2.788231 1_555
Al3 Pd31 2.763014 1_555
Al3 Pd35 2.763014 1_555
Al3 Pd27 2.763014 1_555
Al3 Pd39 2.763014 1_555
Al3 Pd43 2.763014 1_555
Al3 Pd47 2.763014 1_555
Al3 Pd107 2.788231 1_555
Al3 Pd99 2.788231 1_555
Al3 Pd103 2.788231 1_555
Al3 Pd119 2.788231 1_555
Al3 Pd111 2.788231 1_555
Al3 Pd115 2.788231 1_555
Al4 Pd60 2.763014 1_455
Al4 Pd70 2.763014 1_555
Al4 Pd48 2.763014 1_555
Al4 Pd58 2.763014 1_455
Al4 Pd53 2.763014 1_555
Al4 Pd65 2.763014 1_455
Al4 Pd77 2.788231 1_555
Al4 Pd89 2.788231 1_455
Al4 Pd82 2.788231 1_455
Al4 Pd94 2.788231 1_555
Al4 Pd84 2.788231 1_455
Al4 Pd72 2.788231 1_555
Al5 Pd68 2.763014 1_545
Al5 Pd66 2.763014 1_555
Al5 Pd54 2.763014 1_545
Al5 Pd49 2.763014 1_555
Al5 Pd56 2.763014 1_555
Al5 Pd61 2.763014 1_545
Al5 Pd81 2.788231 1_555
Al5 Pd93 2.788231 1_545
Al5 Pd86 2.788231 1_555
Al5 Pd74 2.788231 1_545
Al5 Pd88 2.788231 1_545
Al5 Pd76 2.788231 1_555
Al6 Pd50 2.763014 1_554
Al6 Pd52 2.763014 1_555
Al6 Pd64 2.763014 1_554
Al6 Pd57 2.763014 1_555
Al6 Pd62 2.763014 1_555
Al6 Pd69 2.763014 1_554
Al6 Pd73 2.788231 1_555
Al6 Pd85 2.788231 1_554
Al6 Pd78 2.788231 1_554
Al6 Pd90 2.788231 1_555
Al6 Pd92 2.788231 1_554
Al6 Pd80 2.788231 1_555
Al7 Pd71 2.763014 1_444
Al7 Pd67 2.763014 1_444
Al7 Pd55 2.763014 1_555
Al7 Pd59 2.763014 1_555
Al7 Pd63 2.763014 1_444
Al7 Pd51 2.763014 1_555
Al7 Pd95 2.788231 1_554
Al7 Pd83 2.788231 1_445
Al7 Pd91 2.788231 1_545
Al7 Pd79 2.788231 1_454
Al7 Pd87 2.788231 1_455
Al7 Pd75 2.788231 1_544
B0 Pd24 2.243583 1_455
B0 Pd65 2.243583 1_455
B0 Pd70 2.243583 1_555
B0 Pd29 2.243583 1_555
B0 Pd34 2.243583 1_455
B0 Pd60 2.243583 1_455
B1 Pd32 2.243583 1_554
B1 Pd69 2.243583 1_554
B1 Pd62 2.243583 1_555
B1 Pd30 2.243583 1_554
B1 Pd25 2.243583 1_555
B1 Pd64 2.243583 1_554
B2 Pd28 2.243583 1_545
B2 Pd61 2.243583 1_545
B2 Pd66 2.243583 1_555
B2 Pd33 2.243583 1_555
B2 Pd26 2.243583 1_545
B2 Pd68 2.243583 1_545
B3 Pd27 2.243583 1_555
B3 Pd31 2.243583 1_555
B3 Pd35 2.243583 1_555
B3 Pd67 2.243583 1_555
B3 Pd63 2.243583 1_555
B3 Pd71 2.243583 1_555
B4 Pd36 2.243583 1_555
B4 Pd41 2.243583 1_455
B4 Pd53 2.243583 1_555
B4 Pd58 2.243583 1_455
B4 Pd48 2.243583 1_555
B4 Pd46 2.243583 1_555
B5 Pd42 2.243583 1_555
B5 Pd50 2.243583 1_554
B5 Pd52 2.243583 1_555
B5 Pd37 2.243583 1_554
B5 Pd57 2.243583 1_555
B5 Pd44 2.243583 1_555
B6 Pd40 2.243583 1_555
B6 Pd49 2.243583 1_555
B6 Pd38 2.243583 1_555
B6 Pd54 2.243583 1_545
B6 Pd45 2.243583 1_545
B6 Pd56 2.243583 1_555
B7 Pd55 2.243583 1_555
B7 Pd39 2.243583 1_555
B7 Pd43 2.243583 1_555
B7 Pd51 2.243583 1_555
B7 Pd47 2.243583 1_555
B7 Pd59 2.243583 1_555
B8 Pd8 2.103927 1_555
B8 Pd10 2.103927 1_555
B8 Pd78 2.180597 1_555
B8 Pd77 2.180597 1_555
B8 Pd70 2.277138 1_555
B8 Pd69 2.277138 1_555
B9 Pd11 2.103927 1_545
B9 Pd9 2.103927 1_555
B9 Pd76 2.180597 1_555
B9 Pd79 2.180597 1_555
B9 Pd71 2.277138 1_545
B9 Pd68 2.277138 1_545
B10 Pd0 2.103927 1_555
B10 Pd2 2.103927 1_555
B10 Pd82 2.180597 1_555
B10 Pd81 2.180597 1_555
B10 Pd66 2.277138 1_555
B10 Pd65 2.277138 1_555
B11 Pd3 2.103927 1_554
B11 Pd1 2.103927 1_555
B11 Pd80 2.180597 1_555
B11 Pd83 2.180597 1_555
B11 Pd67 2.277138 1_554
B11 Pd64 2.277138 1_554
B12 Pd6 2.103927 1_555
B12 Pd4 2.103927 1_555
B12 Pd74 2.180597 1_555
B12 Pd73 2.180597 1_555
B12 Pd62 2.277138 1_555
B12 Pd61 2.277138 1_555
B13 Pd7 2.103927 1_455
B13 Pd5 2.103927 1_555
B13 Pd72 2.180597 1_555
B13 Pd75 2.180597 1_555
B13 Pd63 2.277138 1_455
B13 Pd60 2.277138 1_455
B14 Pd20 2.103927 1_555
B14 Pd22 2.103927 1_555
B14 Pd90 2.180597 1_555
B14 Pd89 2.180597 1_555
B14 Pd57 2.277138 1_555
B14 Pd58 2.277138 1_555
B15 Pd23 2.103927 1_565
B15 Pd21 2.103927 1_555
B15 Pd88 2.180597 1_555
B15 Pd91 2.180597 1_555
B15 Pd56 2.277138 1_565
B15 Pd59 2.277138 1_565
B16 Pd12 2.103927 1_555
B16 Pd14 2.103927 1_555
B16 Pd94 2.180597 1_555
B16 Pd93 2.180597 1_555
B16 Pd53 2.277138 1_555
B16 Pd54 2.277138 1_555
B17 Pd13 2.103927 1_555
B17 Pd15 2.103927 1_556
B17 Pd92 2.180597 1_555
B17 Pd95 2.180597 1_555
B17 Pd52 2.277138 1_556
B17 Pd55 2.277138 1_556
B18 Pd16 2.103927 1_555
B18 Pd18 2.103927 1_555
B18 Pd86 2.180597 1_555
B18 Pd85 2.180597 1_555
B18 Pd49 2.277138 1_555
B18 Pd50 2.277138 1_555
B19 Pd19 2.103927 1_655
B19 Pd17 2.103927 1_555
B19 Pd84 2.180597 1_555
B19 Pd87 2.180597 1_555
B19 Pd48 2.277138 1_655
B19 Pd51 2.277138 1_655
B20 Pd22 2.103927 1_555
B20 Pd21 2.103927 1_655
B20 Pd102 2.180597 1_555
B20 Pd101 2.180597 1_555
B20 Pd45 2.277138 1_655
B20 Pd46 2.277138 1_655
B21 Pd23 2.103927 1_555
B21 Pd20 2.103927 1_555
B21 Pd100 2.180597 1_555
B21 Pd103 2.180597 1_555
B21 Pd47 2.277138 1_555
B21 Pd44 2.277138 1_555
B22 Pd18 2.103927 1_555
B22 Pd17 2.103927 1_556
B22 Pd106 2.180597 1_555
B22 Pd105 2.180597 1_555
B22 Pd41 2.277138 1_556
B22 Pd42 2.277138 1_556
B23 Pd19 2.103927 1_555
B23 Pd16 2.103927 1_555
B23 Pd104 2.180597 1_555
B23 Pd107 2.180597 1_555
B23 Pd40 2.277138 1_555
B23 Pd43 2.277138 1_555
B24 Pd14 2.103927 1_555
B24 Pd13 2.103927 1_565
B24 Pd98 2.180597 1_555
B24 Pd97 2.180597 1_555
B24 Pd37 2.277138 1_565
B24 Pd38 2.277138 1_565
B25 Pd15 2.103927 1_555
B25 Pd12 2.103927 1_555
B25 Pd96 2.180597 1_555
B25 Pd99 2.180597 1_555
B25 Pd39 2.277138 1_555
B25 Pd36 2.277138 1_555
B26 Pd10 2.103927 1_555
B26 Pd9 2.103927 1_455
B26 Pd114 2.180597 1_555
B26 Pd113 2.180597 1_555
B26 Pd34 2.277138 1_455
B26 Pd33 2.277138 1_455
B27 Pd8 2.103927 1_555
B27 Pd11 2.103927 1_555
B27 Pd112 2.180597 1_555
B27 Pd115 2.180597 1_555
B27 Pd35 2.277138 1_555
B27 Pd32 2.277138 1_555
B28 Pd5 2.103927 1_554
B28 Pd6 2.103927 1_555
B28 Pd118 2.180597 1_555
B28 Pd117 2.180597 1_555
B28 Pd30 2.277138 1_554
B28 Pd29 2.277138 1_554
B29 Pd4 2.103927 1_555
B29 Pd7 2.103927 1_555
B29 Pd116 2.180597 1_555
B29 Pd119 2.180597 1_555
B29 Pd31 2.277138 1_555
B29 Pd28 2.277138 1_555
B30 Pd1 2.103927 1_545
B30 Pd2 2.103927 1_555
B30 Pd110 2.180597 1_555
B30 Pd109 2.180597 1_555
B30 Pd26 2.277138 1_545
B30 Pd25 2.277138 1_545
B31 Pd0 2.103927 1_555
B31 Pd3 2.103927 1_555
B31 Pd108 2.180597 1_555
B31 Pd111 2.180597 1_555
B31 Pd27 2.277138 1_555
B31 Pd24 2.277138 1_555
B32 Pd40 2.160743 1_555
B32 Pd59 2.160743 1_555
B32 Pd87 2.180704 1_455
B32 Pd102 2.180704 1_445
B32 Pd109 2.308288 1_455
B32 Pd83 2.308288 1_445
B33 Pd56 2.160743 1_555
B33 Pd43 2.160743 1_555
B33 Pd103 2.180704 1_555
B33 Pd86 2.180704 1_555
B33 Pd81 2.308288 1_555
B33 Pd111 2.308288 1_555
B34 Pd41 2.160743 1_555
B34 Pd57 2.160743 1_555
B34 Pd101 2.180704 1_555
B34 Pd85 2.180704 1_554
B34 Pd108 2.308288 1_554
B34 Pd80 2.308288 1_555
B35 Pd58 2.160743 1_555
B35 Pd42 2.160743 1_555
B35 Pd100 2.180704 1_555
B35 Pd84 2.180704 1_555
B35 Pd82 2.308288 1_555
B35 Pd110 2.308288 1_555
B36 Pd44 2.160743 1_555
B36 Pd55 2.160743 1_555
B36 Pd91 2.180704 1_545
B36 Pd98 2.180704 1_544
B36 Pd117 2.308288 1_545
B36 Pd75 2.308288 1_544
B37 Pd52 2.160743 1_555
B37 Pd47 2.160743 1_555
B37 Pd99 2.180704 1_555
B37 Pd90 2.180704 1_555
B37 Pd73 2.308288 1_555
B37 Pd119 2.308288 1_555
B38 Pd45 2.160743 1_555
B38 Pd53 2.160743 1_555
B38 Pd97 2.180704 1_555
B38 Pd89 2.180704 1_455
B38 Pd116 2.308288 1_455
B38 Pd72 2.308288 1_555
B39 Pd54 2.160743 1_555
B39 Pd46 2.160743 1_555
B39 Pd88 2.180704 1_555
B39 Pd96 2.180704 1_555
B39 Pd74 2.308288 1_555
B39 Pd118 2.308288 1_555
B40 Pd36 2.160743 1_555
B40 Pd51 2.160743 1_555
B40 Pd95 2.180704 1_554
B40 Pd106 2.180704 1_454
B40 Pd113 2.308288 1_554
B40 Pd79 2.308288 1_454
B41 Pd48 2.160743 1_555
B41 Pd39 2.160743 1_555
B41 Pd107 2.180704 1_555
B41 Pd94 2.180704 1_555
B41 Pd77 2.308288 1_555
B41 Pd115 2.308288 1_555
B42 Pd49 2.160743 1_555
B42 Pd37 2.160743 1_555
B42 Pd105 2.180704 1_555
B42 Pd93 2.180704 1_545
B42 Pd112 2.308288 1_545
B42 Pd76 2.308288 1_555
B43 Pd50 2.160743 1_555
B43 Pd38 2.160743 1_555
B43 Pd92 2.180704 1_555
B43 Pd104 2.180704 1_555
B43 Pd78 2.308288 1_555
B43 Pd114 2.308288 1_555
B44 Pd28 2.160743 1_555
B44 Pd71 2.160743 1_555
B44 Pd75 2.180704 1_655
B44 Pd114 2.180704 1_665
B44 Pd97 2.308288 1_655
B44 Pd95 2.308288 1_665
B45 Pd68 2.160743 1_555
B45 Pd31 2.160743 1_555
B45 Pd115 2.180704 1_555
B45 Pd74 2.180704 1_555
B45 Pd93 2.308288 1_555
B45 Pd99 2.308288 1_555
B46 Pd69 2.160743 1_555
B46 Pd29 2.160743 1_555
B46 Pd73 2.180704 1_556
B46 Pd113 2.180704 1_555
B46 Pd92 2.308288 1_555
B46 Pd96 2.308288 1_556
B47 Pd30 2.160743 1_555
B47 Pd70 2.160743 1_555
B47 Pd72 2.180704 1_555
B47 Pd112 2.180704 1_555
B47 Pd98 2.308288 1_555
B47 Pd94 2.308288 1_555
B48 Pd32 2.160743 1_555
B48 Pd67 2.160743 1_555
B48 Pd79 2.180704 1_565
B48 Pd110 2.180704 1_566
B48 Pd105 2.308288 1_565
B48 Pd87 2.308288 1_566
B49 Pd64 2.160743 1_555
B49 Pd35 2.160743 1_555
B49 Pd111 2.180704 1_555
B49 Pd78 2.180704 1_555
B49 Pd85 2.308288 1_555
B49 Pd107 2.308288 1_555
B50 Pd65 2.160743 1_555
B50 Pd33 2.160743 1_555
B50 Pd77 2.180704 1_655
B50 Pd109 2.180704 1_555
B50 Pd84 2.308288 1_555
B50 Pd104 2.308288 1_655
B51 Pd34 2.160743 1_555
B51 Pd66 2.160743 1_555
B51 Pd76 2.180704 1_555
B51 Pd108 2.180704 1_555
B51 Pd106 2.308288 1_555
B51 Pd86 2.308288 1_555
B52 Pd24 2.160743 1_555
B52 Pd63 2.160743 1_555
B52 Pd83 2.180704 1_556
B52 Pd118 2.180704 1_656
B52 Pd101 2.308288 1_556
B52 Pd91 2.308288 1_656
B53 Pd60 2.160743 1_555
B53 Pd27 2.160743 1_555
B53 Pd119 2.180704 1_555
B53 Pd82 2.180704 1_555
B53 Pd89 2.308288 1_555
B53 Pd103 2.308288 1_555
B54 Pd61 2.160743 1_555
B54 Pd25 2.160743 1_555
B54 Pd81 2.180704 1_565
B54 Pd117 2.180704 1_555
B54 Pd88 2.308288 1_555
B54 Pd100 2.308288 1_565
B55 Pd26 2.160743 1_555
B55 Pd62 2.160743 1_555
B55 Pd80 2.180704 1_555
B55 Pd116 2.180704 1_555
B55 Pd102 2.308288 1_555
B55 Pd90 2.308288 1_555
