# generated using pymatgen
data_PW6Cl17
_symmetry_space_group_name_H-M   'P 1'
_cell_length_a   10.30554528
_cell_length_b   10.30554528
_cell_length_c   10.30554528
_cell_angle_alpha   141.07613079
_cell_angle_beta   119.15386580
_cell_angle_gamma   74.62484090
_symmetry_Int_Tables_number   1
_chemical_formula_structural   PW6Cl17
_chemical_formula_sum   'P1 W6 Cl17'
_cell_volume   587.46753868
_cell_formula_units_Z   1
loop_
 _symmetry_equiv_pos_site_id
 _symmetry_equiv_pos_as_xyz
  1  'x, y, z'
loop_
 _atom_site_type_symbol
 _atom_site_label
 _atom_site_symmetry_multiplicity
 _atom_site_fract_x
 _atom_site_fract_y
 _atom_site_fract_z
 _atom_site_occupancy
  P  P0  1  0.81776400  0.50000000  0.31776400  1
  W  W0  1  0.62126300  0.29759000  0.91885300  1
  W  W1  1  0.62126300  0.70241000  0.32367300  1
  W  W2  1  0.62141800  0.35905100  0.26236700  1
  W  W3  1  0.90331600  0.64094900  0.26236700  1
  W  W4  1  0.93517300  0.42082100  0.51435200  1
  W  W5  1  0.09353000  0.57917900  0.51435200  1
  Cl  Cl0  1  0.46586100  0.00000000  0.46586100  1
  Cl  Cl1  1  0.76149900  0.00000000  0.76149900  1
  Cl  Cl2  1  0.43111000  0.50000000  0.93111000  1
  Cl  Cl3  1  0.44792500  0.11547700  0.85328900  1
  Cl  Cl4  1  0.73781300  0.88452300  0.33244800  1
  Cl  Cl5  1  0.44792500  0.59463500  0.33244800  1
  Cl  Cl6  1  0.73781300  0.40536500  0.85328900  1
  Cl  Cl7  1  0.76360100  0.07973400  0.14804000  1
  Cl  Cl8  1  0.06830600  0.92026600  0.68386700  1
  Cl  Cl9  1  0.76360100  0.61556100  0.68386700  1
  Cl  Cl10  1  0.06830600  0.38443900  0.14804000  1
  Cl  Cl11  1  0.13439000  0.74425800  0.87864800  1
  Cl  Cl12  1  0.13439000  0.25574200  0.39013200  1
  Cl  Cl13  1  0.47939500  0.21678300  0.26261200  1
  Cl  Cl14  1  0.04582900  0.78321700  0.26261200  1
  Cl  Cl15  1  0.01718500  0.32887900  0.68830500  1
  Cl  Cl16  1  0.35942600  0.67112100  0.68830500  1
loop_
_geom_bond_atom_site_label_1
_geom_bond_atom_site_label_2
_geom_bond_distance
_geom_bond_site_symmetry_2
P0 W2 2.381801 1_555
P0 W3 2.381801 1_555
P0 W5 2.427875 1_655
P0 W4 2.427883 1_555
P0 W1 2.477548 1_555
P0 W0 2.477548 1_554
Cl0 W0 2.609032 1_555
Cl0 W1 2.609032 1_545
Cl1 W1 2.513690 1_545
Cl1 W0 2.513690 1_555
Cl2 W0 2.422988 1_555
Cl2 W1 2.422988 1_556
Cl3 W0 2.408017 1_555
Cl3 W2 2.416756 1_556
Cl4 W1 2.408024 1_555
Cl4 W3 2.416750 1_555
Cl5 W1 2.408024 1_555
Cl5 W2 2.416750 1_555
Cl6 W0 2.408033 1_555
Cl6 W3 2.416757 1_556
Cl7 W4 2.424562 1_555
Cl7 W2 2.447338 1_555
Cl8 W5 2.424562 1_555
Cl8 W3 2.447338 1_455
Cl9 W4 2.424562 1_555
Cl9 W2 2.447338 1_555
Cl10 W5 2.424567 1_555
Cl10 W3 2.447338 1_455
Cl11 W5 2.463312 1_555
Cl11 W4 2.463316 1_455
Cl12 W4 2.463316 1_455
Cl12 W5 2.463316 1_555
Cl13 W2 2.332182 1_555
Cl14 W3 2.332182 1_455
Cl15 W4 2.359635 1_455
Cl16 W5 2.359646 1_555
