# generated using pymatgen
data_Sr2YFe3O8
_symmetry_space_group_name_H-M   'P 1'
_cell_length_a   3.90931000
_cell_length_b   3.90931000
_cell_length_c   11.94872600
_cell_angle_alpha   90.00000000
_cell_angle_beta   90.00000000
_cell_angle_gamma   90.00000000
_symmetry_Int_Tables_number   1
_chemical_formula_structural   Sr2YFe3O8
_chemical_formula_sum   'Sr2 Y1 Fe3 O8'
_cell_volume   182.60885071
_cell_formula_units_Z   1
loop_
 _symmetry_equiv_pos_site_id
 _symmetry_equiv_pos_as_xyz
  1  'x, y, z'
loop_
 _atom_site_type_symbol
 _atom_site_label
 _atom_site_symmetry_multiplicity
 _atom_site_fract_x
 _atom_site_fract_y
 _atom_site_fract_z
 _atom_site_occupancy
  Sr  Sr0  1  0.50000000  0.50000000  0.15132400  1
  Sr  Sr1  1  0.50000000  0.50000000  0.84867600  1
  Y  Y0  1  0.50000000  0.50000000  0.50000000  1
  Fe  Fe0  1  0.00000000  0.00000000  0.33603700  1
  Fe  Fe1  1  0.00000000  0.00000000  0.66396300  1
  Fe  Fe2  1  0.00000000  0.00000000  0.00000000  1
  O  O0  1  0.00000000  0.00000000  0.18007200  1
  O  O1  1  0.00000000  0.00000000  0.81992800  1
  O  O2  1  0.00000000  0.50000000  0.38207600  1
  O  O3  1  0.00000000  0.50000000  0.61792400  1
  O  O4  1  0.50000000  0.00000000  0.38207600  1
  O  O5  1  0.50000000  0.00000000  0.61792400  1
  O  O6  1  0.00000000  0.50000000  0.00000000  1
  O  O7  1  0.50000000  0.00000000  0.00000000  1
loop_
_geom_bond_atom_site_label_1
_geom_bond_atom_site_label_2
_geom_bond_distance
_geom_bond_site_symmetry_2
Fe0 O0 1.863583 1_555
Fe0 O2 2.030590 1_555
Fe0 O4 2.030590 1_455
Fe0 O2 2.030590 1_545
Fe0 O4 2.030590 1_555
Fe1 O1 1.863583 1_555
Fe1 O5 2.030590 1_555
Fe1 O5 2.030590 1_455
Fe1 O3 2.030590 1_545
Fe1 O3 2.030590 1_555
Fe2 O6 1.954655 1_545
Fe2 O7 1.954655 1_555
Fe2 O7 1.954655 1_455
Fe2 O6 1.954655 1_555
Fe2 O0 2.151631 1_555
Fe2 O1 2.151631 1_554
O0 Sr0 2.785560 1_445
O0 Sr0 2.785560 1_545
O0 Sr0 2.785560 1_455
O0 Sr0 2.785560 1_555
O1 Sr1 2.785560 1_545
O1 Sr1 2.785560 1_455
O1 Sr1 2.785560 1_555
O1 Sr1 2.785560 1_445
O2 Y0 2.409580 1_455
O2 Y0 2.409580 1_555
O3 Y0 2.409580 1_555
O3 Y0 2.409580 1_455
O4 Y0 2.409580 1_545
O4 Y0 2.409580 1_555
O5 Y0 2.409580 1_545
O5 Y0 2.409580 1_555
O6 Sr0 2.662707 1_455
O6 Sr0 2.662707 1_555
O6 Sr1 2.662707 1_454
O6 Sr1 2.662707 1_554
O7 Sr0 2.662707 1_545
O7 Sr0 2.662707 1_555
O7 Sr1 2.662707 1_554
O7 Sr1 2.662707 1_544
