# generated using pymatgen
data_Tb4CdNi
_symmetry_space_group_name_H-M   'P 1'
_cell_length_a   9.53594905
_cell_length_b   9.53592937
_cell_length_c   9.53594814
_cell_angle_alpha   60.00259155
_cell_angle_beta   60.00266300
_cell_angle_gamma   60.00260948
_symmetry_Int_Tables_number   1
_chemical_formula_structural   Tb4CdNi
_chemical_formula_sum   'Tb16 Cd4 Ni4'
_cell_volume   613.19928563
_cell_formula_units_Z   4
loop_
 _symmetry_equiv_pos_site_id
 _symmetry_equiv_pos_as_xyz
  1  'x, y, z'
loop_
 _atom_site_type_symbol
 _atom_site_label
 _atom_site_symmetry_multiplicity
 _atom_site_fract_x
 _atom_site_fract_y
 _atom_site_fract_z
 _atom_site_occupancy
  Tb  Tb0  1  0.34861775  0.34862669  0.34861528  1
  Tb  Tb1  1  0.34861127  0.34862057  0.95414695  1
  Tb  Tb2  1  0.34861691  0.95414132  0.34861448  1
  Tb  Tb3  1  0.95414565  0.34862159  0.34861022  1
  Tb  Tb4  1  0.81087081  0.18913372  0.18914085  1
  Tb  Tb5  1  0.18914014  0.81085219  0.81087372  1
  Tb  Tb6  1  0.18913598  0.81086225  0.18913724  1
  Tb  Tb7  1  0.81086114  0.18913739  0.81086447  1
  Tb  Tb8  1  0.18913979  0.18913425  0.81087268  1
  Tb  Tb9  1  0.81087193  0.81085368  0.18914064  1
  Tb  Tb10  1  0.93680071  0.56320785  0.56319770  1
  Tb  Tb11  1  0.56319765  0.93679427  0.93680249  1
  Tb  Tb12  1  0.56320748  0.93679296  0.56320606  1
  Tb  Tb13  1  0.93680180  0.56319776  0.93680330  1
  Tb  Tb14  1  0.56319787  0.56320614  0.93680232  1
  Tb  Tb15  1  0.93680100  0.93679441  0.56319783  1
  Cd  Cd0  1  0.58056841  0.58056552  0.58056854  1
  Cd  Cd1  1  0.58057349  0.58057022  0.25828589  1
  Cd  Cd2  1  0.58056867  0.25829575  0.58056957  1
  Cd  Cd3  1  0.25828743  0.58057041  0.58057264  1
  Ni  Ni0  1  0.14241251  0.14241662  0.14241128  1
  Ni  Ni1  1  0.14241761  0.14242159  0.57273865  1
  Ni  Ni2  1  0.14241167  0.57276149  0.14241137  1
  Ni  Ni3  1  0.57274234  0.14242035  0.14241685  1
loop_
_geom_bond_atom_site_label_1
_geom_bond_atom_site_label_2
_geom_bond_distance
_geom_bond_site_symmetry_2
Tb0 Tb14 3.451436 1_554
Tb0 Tb10 3.451471 1_455
Tb0 Tb12 3.451602 1_545
Tb1 Tb13 3.451351 1_455
Tb1 Tb14 3.451371 1_555
Tb1 Tb11 3.451486 1_545
Tb10 Tb3 3.451383 1_555
Tb10 Tb15 3.562497 1_555
Tb10 Tb13 3.562641 1_555
Tb10 Tb12 3.562664 1_555
Tb10 Tb14 3.562809 1_555
Tb10 Tb9 3.573071 1_555
Tb10 Tb6 3.573148 1_655
Tb10 Tb7 3.573224 1_555
Tb10 Tb8 3.573303 1_655
Tb11 Tb2 3.451384 1_556
Tb11 Tb14 3.562510 1_555
Tb11 Tb12 3.562556 1_555
Tb11 Tb13 3.562771 1_555
Tb11 Tb15 3.562812 1_555
Tb11 Tb8 3.573085 1_565
Tb11 Tb6 3.573127 1_556
Tb11 Tb7 3.573128 1_565
Tb11 Tb9 3.573169 1_556
Tb12 Tb2 3.451437 1_555
Tb12 Tb15 3.562536 1_555
Tb12 Tb14 3.562686 1_555
Tb12 Tb9 3.573190 1_555
Tb12 Tb5 3.573212 1_555
Tb12 Tb4 3.573232 1_565
Tb12 Tb8 3.573259 1_565
Tb13 Tb3 3.451330 1_556
Tb13 Tb14 3.562633 1_555
Tb13 Tb15 3.562776 1_555
Tb13 Tb5 3.573045 1_655
Tb13 Tb9 3.573048 1_556
Tb13 Tb8 3.573130 1_655
Tb13 Tb4 3.573135 1_556
Tb14 Tb5 3.573076 1_555
Tb14 Tb6 3.573160 1_556
Tb14 Tb7 3.573204 1_555
Tb14 Tb4 3.573287 1_556
Tb15 Tb2 3.451416 1_655
Tb15 Tb3 3.451493 1_565
Tb15 Tb4 3.573079 1_565
Tb15 Tb6 3.573120 1_655
Tb15 Tb7 3.573147 1_565
Tb15 Tb5 3.573184 1_655
Cd0 Cd2 3.073136 1_555
Cd0 Cd3 3.073212 1_555
Cd0 Cd1 3.073224 1_555
Cd0 Tb12 3.239884 1_555
Cd0 Tb10 3.239916 1_555
Cd0 Tb14 3.239924 1_555
Cd0 Tb3 3.407285 1_555
Cd0 Tb1 3.407287 1_555
Cd0 Tb2 3.407289 1_555
Cd0 Tb7 3.465169 1_555
Cd0 Tb9 3.465184 1_555
Cd0 Tb5 3.465188 1_555
Cd1 Cd2 3.073354 1_555
Cd1 Cd3 3.073430 1_555
Cd1 Tb14 3.239755 1_554
Cd1 Tb11 3.239894 1_554
Cd1 Tb13 3.239921 1_554
Cd1 Tb0 3.407102 1_555
Cd1 Tb3 3.407192 1_555
Cd1 Tb2 3.407197 1_555
Cd1 Tb9 3.465026 1_555
Cd1 Tb4 3.465126 1_555
Cd1 Tb6 3.465153 1_555
Cd2 Cd3 3.073344 1_555
Cd2 Tb12 3.239854 1_545
Cd2 Tb15 3.240017 1_545
Cd2 Tb11 3.240019 1_545
Cd2 Tb0 3.407147 1_555
Cd2 Tb1 3.407238 1_555
Cd2 Tb3 3.407239 1_555
Cd2 Tb7 3.465018 1_555
Cd2 Tb8 3.465135 1_555
Cd2 Tb4 3.465136 1_555
Cd3 Tb10 3.239774 1_455
Cd3 Tb15 3.239908 1_455
Cd3 Tb13 3.239946 1_455
Cd3 Tb0 3.407114 1_555
Cd3 Tb2 3.407198 1_555
Cd3 Tb1 3.407206 1_555
Cd3 Tb5 3.465026 1_555
Cd3 Tb8 3.465132 1_555
Cd3 Tb6 3.465146 1_555
Ni0 Tb1 2.786103 1_554
Ni0 Tb3 2.786110 1_455
Ni0 Tb2 2.786132 1_545
Ni0 Tb8 2.788161 1_554
Ni0 Tb4 2.788184 1_455
Ni0 Tb6 2.788286 1_545
Ni0 Tb13 3.449578 1_454
Ni0 Tb11 3.449640 1_544
Ni0 Tb15 3.449654 1_445
Ni1 Tb3 2.786093 1_455
Ni1 Tb2 2.786117 1_545
Ni1 Tb0 2.786130 1_555
Ni1 Tb8 2.788403 1_555
Ni1 Tb7 2.788443 1_455
Ni1 Tb5 2.788544 1_545
Ni1 Tb15 3.449481 1_445
Ni1 Tb10 3.449631 1_455
Ni1 Tb12 3.449690 1_545
Ni2 Tb1 2.786132 1_554
Ni2 Tb3 2.786134 1_455
Ni2 Tb0 2.786167 1_555
Ni2 Tb6 2.788185 1_555
Ni2 Tb5 2.788213 1_554
Ni2 Tb9 2.788232 1_455
Ni2 Tb13 3.449400 1_454
Ni2 Tb14 3.449602 1_554
Ni2 Tb10 3.449608 1_455
Ni3 Tb1 2.786098 1_554
Ni3 Tb2 2.786117 1_545
Ni3 Tb0 2.786128 1_555
Ni3 Tb4 2.788367 1_555
Ni3 Tb7 2.788395 1_554
Ni3 Tb9 2.788511 1_545
Ni3 Tb11 3.449476 1_544
Ni3 Tb14 3.449617 1_554
Ni3 Tb12 3.449677 1_545
