# generated using pymatgen
data_Tb(CrFe5)2
_symmetry_space_group_name_H-M   'P 1'
_cell_length_a   4.67352900
_cell_length_b   6.39143003
_cell_length_c   6.39143003
_cell_angle_alpha   97.30040848
_cell_angle_beta   111.44507276
_cell_angle_gamma   68.55492724
_symmetry_Int_Tables_number   1
_chemical_formula_structural   Tb(CrFe5)2
_chemical_formula_sum   'Tb1 Cr2 Fe10'
_cell_volume   165.39095986
_cell_formula_units_Z   1
loop_
 _symmetry_equiv_pos_site_id
 _symmetry_equiv_pos_as_xyz
  1  'x, y, z'
loop_
 _atom_site_type_symbol
 _atom_site_label
 _atom_site_symmetry_multiplicity
 _atom_site_fract_x
 _atom_site_fract_y
 _atom_site_fract_z
 _atom_site_occupancy
  Tb  Tb0  1  0.00000000  0.00000000  0.00000000  1
  Cr  Cr0  1  0.00000000  0.36809600  0.36809600  1
  Cr  Cr1  1  0.00000000  0.63190400  0.63190400  1
  Fe  Fe0  1  0.72564700  0.77435300  0.22564700  1
  Fe  Fe1  1  0.27435300  0.22564700  0.77435300  1
  Fe  Fe2  1  0.50000000  0.77130200  0.77130200  1
  Fe  Fe3  1  0.50000000  0.22869800  0.22869800  1
  Fe  Fe4  1  0.50000000  0.00000000  0.50000000  1
  Fe  Fe5  1  0.00000000  0.00000000  0.50000000  1
  Fe  Fe6  1  0.50000000  0.50000000  0.00000000  1
  Fe  Fe7  1  0.00000000  0.50000000  0.00000000  1
  Fe  Fe8  1  0.64030200  0.35969800  0.64030200  1
  Fe  Fe9  1  0.35969800  0.64030200  0.35969800  1
loop_
_geom_bond_atom_site_label_1
_geom_bond_atom_site_label_2
_geom_bond_distance
_geom_bond_site_symmetry_2
Cr0 Cr1 2.227872 1_555
Cr0 Fe0 2.554964 1_455
Cr0 Fe1 2.554964 1_555
Cr0 Fe4 2.598042 1_555
Cr0 Fe6 2.598042 1_455
Cr0 Fe7 2.598042 1_555
Cr0 Fe5 2.598042 1_555
Cr0 Fe3 2.616548 1_455
Cr0 Fe3 2.616548 1_555
Cr0 Fe9 2.843235 1_455
Cr0 Fe8 2.843235 1_555
Cr0 Fe8 2.843235 1_455
Cr0 Fe9 2.843235 1_555
Cr0 Tb0 3.108590 1_555
Cr1 Fe0 2.554964 1_455
Cr1 Fe1 2.554964 1_555
Cr1 Fe6 2.598042 1_556
Cr1 Fe4 2.598042 1_465
Cr1 Fe5 2.598042 1_565
Cr1 Fe7 2.598042 1_556
Cr1 Fe2 2.616548 1_555
Cr1 Fe2 2.616548 1_455
Cr1 Fe9 2.843235 1_455
Cr1 Fe8 2.843235 1_555
Cr1 Fe8 2.843235 1_455
Cr1 Fe9 2.843235 1_555
Cr1 Tb0 3.108590 1_566
Fe0 Fe7 2.421612 1_655
Fe0 Fe5 2.421612 1_665
Fe0 Fe6 2.421612 1_555
Fe0 Fe4 2.421612 1_565
Fe0 Fe9 2.592811 1_655
Fe0 Fe9 2.592812 1_555
Fe0 Fe2 2.703071 1_554
Fe0 Fe3 2.703071 1_565
Fe0 Tb0 3.006141 1_565
Fe0 Tb0 3.006141 1_665
Fe1 Fe5 2.421612 1_555
Fe1 Fe7 2.421612 1_556
Fe1 Fe6 2.421612 1_556
Fe1 Fe4 2.421612 1_555
Fe1 Fe8 2.592811 1_455
Fe1 Fe8 2.592812 1_555
Fe1 Fe2 2.703071 1_545
Fe1 Fe3 2.703071 1_556
Fe1 Tb0 3.006141 1_656
Fe1 Tb0 3.006141 1_556
Fe2 Fe7 2.405727 1_656
Fe2 Fe5 2.405727 1_565
Fe2 Fe6 2.405728 1_556
Fe2 Fe4 2.405728 1_565
Fe2 Fe8 2.575282 1_555
Fe2 Fe9 2.575282 1_555
Fe2 Tb0 3.031608 1_566
Fe2 Tb0 3.031608 1_666
Fe3 Fe5 2.405727 1_655
Fe3 Fe7 2.405727 1_555
Fe3 Fe6 2.405728 1_555
Fe3 Fe4 2.405728 1_555
Fe3 Fe8 2.575282 1_555
Fe3 Fe9 2.575282 1_555
Fe3 Tb0 3.031608 1_555
Fe3 Tb0 3.031608 1_655
Fe4 Fe5 2.336765 1_655
Fe4 Fe5 2.336765 1_555
Fe4 Fe9 2.582209 1_545
Fe4 Fe8 2.582209 1_555
Fe4 Tb0 3.195715 1_656
Fe4 Tb0 3.195715 1_555
Fe5 Fe9 2.582208 1_545
Fe5 Fe8 2.582208 1_455
Fe5 Tb0 3.195715 1_555
Fe5 Tb0 3.195715 1_556
Fe6 Fe7 2.336765 1_555
Fe6 Fe7 2.336765 1_655
Fe6 Fe8 2.582209 1_554
Fe6 Fe9 2.582209 1_555
Fe6 Tb0 3.195715 1_565
Fe6 Tb0 3.195715 1_655
Fe7 Fe8 2.582208 1_454
Fe7 Fe9 2.582208 1_555
Fe7 Tb0 3.195715 1_555
Fe7 Tb0 3.195715 1_565
Fe8 Fe9 2.351735 1_555
Fe8 Tb0 3.014620 1_656
Fe9 Tb0 3.014620 1_565
