# generated using pymatgen
data_BaZn2(AsO4)2
_symmetry_space_group_name_H-M   'P 1'
_cell_length_a   10.19962400
_cell_length_b   8.96503000
_cell_length_c   9.58739320
_cell_angle_alpha   88.58146770
_cell_angle_beta   90.00000000
_cell_angle_gamma   90.00000000
_symmetry_Int_Tables_number   1
_chemical_formula_structural   BaZn2(AsO4)2
_chemical_formula_sum   'Ba4 Zn8 As8 O32'
_cell_volume   876.40194364
_cell_formula_units_Z   4
loop_
 _symmetry_equiv_pos_site_id
 _symmetry_equiv_pos_as_xyz
  1  'x, y, z'
loop_
 _atom_site_type_symbol
 _atom_site_label
 _atom_site_symmetry_multiplicity
 _atom_site_fract_x
 _atom_site_fract_y
 _atom_site_fract_z
 _atom_site_occupancy
  Ba  Ba0  1  0.91593400  0.25067600  0.60899700  1
  Ba  Ba1  1  0.41593400  0.74932400  0.89100300  1
  Ba  Ba2  1  0.08406600  0.74932400  0.39100300  1
  Ba  Ba3  1  0.58406600  0.25067600  0.10899700  1
  Zn  Zn0  1  0.68565500  0.57954200  0.44172600  1
  Zn  Zn1  1  0.18565500  0.42045800  0.05827400  1
  Zn  Zn2  1  0.31434500  0.42045800  0.55827400  1
  Zn  Zn3  1  0.81434500  0.57954200  0.94172600  1
  Zn  Zn4  1  0.92340100  0.07198600  0.21683600  1
  Zn  Zn5  1  0.42340100  0.92801400  0.28316400  1
  Zn  Zn6  1  0.07659900  0.92801400  0.78316400  1
  Zn  Zn7  1  0.57659900  0.07198600  0.71683600  1
  As  As0  1  0.41338800  0.55950300  0.25816100  1
  As  As1  1  0.91338800  0.44049700  0.24183900  1
  As  As2  1  0.58661200  0.44049700  0.74183900  1
  As  As3  1  0.08661200  0.55950300  0.75816100  1
  As  As4  1  0.20119600  0.05256300  0.06820800  1
  As  As5  1  0.70119600  0.94743700  0.43179200  1
  As  As6  1  0.79880400  0.94743700  0.93179200  1
  As  As7  1  0.29880400  0.05256300  0.56820800  1
  O  O0  1  0.41988500  0.73639700  0.18271900  1
  O  O1  1  0.91988500  0.26360300  0.31728100  1
  O  O2  1  0.58011500  0.26360300  0.81728100  1
  O  O3  1  0.08011500  0.73639700  0.68271900  1
  O  O4  1  0.64291500  0.78108000  0.49679700  1
  O  O5  1  0.14291500  0.21892000  0.00320300  1
  O  O6  1  0.35708500  0.21892000  0.50320300  1
  O  O7  1  0.85708500  0.78108000  0.99679700  1
  O  O8  1  0.69684300  0.43912600  0.60680300  1
  O  O9  1  0.19684300  0.56087400  0.89319700  1
  O  O10  1  0.30315700  0.56087400  0.39319700  1
  O  O11  1  0.80315700  0.43912600  0.10680300  1
  O  O12  1  0.69763000  0.07968400  0.55970400  1
  O  O13  1  0.19763000  0.92031600  0.94029600  1
  O  O14  1  0.30237000  0.92031600  0.44029600  1
  O  O15  1  0.80237000  0.07968400  0.05970400  1
  O  O16  1  0.86914900  0.55581500  0.37616800  1
  O  O17  1  0.36914900  0.44418500  0.12383200  1
  O  O18  1  0.13085100  0.44418500  0.62383200  1
  O  O19  1  0.63085100  0.55581500  0.87616800  1
  O  O20  1  0.89890400  0.01207400  0.79731200  1
  O  O21  1  0.39890400  0.98792600  0.70268800  1
  O  O22  1  0.10109600  0.98792600  0.20268800  1
  O  O23  1  0.60109600  0.01207400  0.29731200  1
  O  O24  1  0.93661800  0.48827300  0.80782100  1
  O  O25  1  0.43661800  0.51172700  0.69217900  1
  O  O26  1  0.06338200  0.51172700  0.19217900  1
  O  O27  1  0.56338200  0.48827300  0.30782100  1
  O  O28  1  0.63777000  0.93847000  0.87641300  1
  O  O29  1  0.13777000  0.06153000  0.62358700  1
  O  O30  1  0.36223000  0.06153000  0.12358700  1
  O  O31  1  0.86223000  0.93847000  0.37641300  1
loop_
_geom_bond_atom_site_label_1
_geom_bond_atom_site_label_2
_geom_bond_distance
_geom_bond_site_symmetry_2
Ba0 O12 2.750813 1_555
Ba0 O20 2.770243 1_555
Ba0 O1 2.796618 1_555
Ba0 O8 2.801178 1_555
Ba0 O18 2.801287 1_655
Ba0 O29 2.828918 1_655
Ba0 O24 2.901091 1_555
Ba1 O13 2.750813 1_555
Ba1 O21 2.770243 1_555
Ba1 O0 2.796618 1_556
Ba1 O9 2.801178 1_555
Ba1 O19 2.801287 1_555
Ba1 O28 2.828918 1_555
Ba1 O25 2.901091 1_555
Ba2 O14 2.750813 1_555
Ba2 O22 2.770243 1_555
Ba2 O3 2.796618 1_555
Ba2 O10 2.801178 1_555
Ba2 O16 2.801287 1_455
Ba2 O31 2.828918 1_455
Ba2 O26 2.901091 1_555
Ba3 O15 2.750813 1_555
Ba3 O23 2.770243 1_555
Ba3 O2 2.796618 1_554
Ba3 O11 2.801178 1_555
Ba3 O17 2.801287 1_555
Ba3 O30 2.828918 1_555
Ba3 O27 2.901091 1_555
As0 O10 1.714970 1_555
As0 O27 1.720451 1_555
As0 O0 1.727919 1_555
As0 O17 1.731162 1_555
As1 O11 1.714970 1_555
As1 O26 1.720451 1_655
As1 O1 1.727919 1_555
As1 O16 1.731162 1_555
As2 O8 1.714970 1_555
As2 O25 1.720451 1_555
As2 O2 1.727919 1_555
As2 O19 1.731162 1_555
As3 O9 1.714970 1_555
As3 O24 1.720451 1_455
As3 O3 1.727919 1_555
As3 O18 1.731162 1_555
As4 O5 1.708806 1_555
As4 O13 1.727098 1_544
As4 O30 1.728651 1_555
As4 O22 1.733069 1_545
As5 O4 1.708806 1_555
As5 O12 1.727098 1_565
As5 O31 1.728651 1_555
As5 O23 1.733069 1_565
As6 O7 1.708806 1_555
As6 O15 1.727098 1_566
As6 O28 1.728651 1_555
As6 O20 1.733069 1_565
As7 O6 1.708806 1_555
As7 O14 1.727098 1_545
As7 O29 1.728651 1_555
As7 O21 1.733069 1_545
O0 Zn5 1.990374 1_555
O1 Zn4 1.990374 1_555
O2 Zn7 1.990374 1_555
O3 Zn6 1.990374 1_555
O4 Zn0 1.944362 1_555
O5 Zn1 1.944362 1_555
O6 Zn2 1.944362 1_555
O7 Zn3 1.944362 1_555
O8 Zn0 2.000962 1_555
O9 Zn1 2.000962 1_556
O10 Zn2 2.000962 1_555
O11 Zn3 2.000962 1_554
O12 Zn7 1.947571 1_555
O13 Zn6 1.947571 1_555
O14 Zn5 1.947571 1_555
O15 Zn4 1.947571 1_555
O16 Zn0 1.987383 1_555
O17 Zn1 1.987383 1_555
O18 Zn2 1.987383 1_555
O19 Zn3 1.987383 1_555
O20 Zn6 1.968819 1_645
O21 Zn7 1.968819 1_565
O22 Zn4 1.968819 1_465
O23 Zn5 1.968819 1_545
O24 Zn3 1.981162 1_555
O25 Zn2 1.981162 1_555
O26 Zn1 1.981162 1_555
O27 Zn0 1.981162 1_555
O28 Zn7 2.017929 1_565
O29 Zn6 2.017929 1_545
O30 Zn5 2.017929 1_545
O31 Zn4 2.017929 1_565
