# generated using pymatgen
data_Ca3Mg2(AsO4)3
_symmetry_space_group_name_H-M   'P 1'
_cell_length_a   10.91443132
_cell_length_b   10.91443132
_cell_length_c   10.91443132
_cell_angle_alpha   109.47122063
_cell_angle_beta   109.47122063
_cell_angle_gamma   109.47122063
_symmetry_Int_Tables_number   1
_chemical_formula_structural   Ca3Mg2(AsO4)3
_chemical_formula_sum   'Ca12 Mg8 As12 O48'
_cell_volume   1000.87869825
_cell_formula_units_Z   4
loop_
 _symmetry_equiv_pos_site_id
 _symmetry_equiv_pos_as_xyz
  1  'x, y, z'
loop_
 _atom_site_type_symbol
 _atom_site_label
 _atom_site_symmetry_multiplicity
 _atom_site_fract_x
 _atom_site_fract_y
 _atom_site_fract_z
 _atom_site_occupancy
  Ca  Ca0  1  0.87500000  0.62500000  0.75000000  1
  Ca  Ca1  1  0.12500000  0.37500000  0.25000000  1
  Ca  Ca2  1  0.62500000  0.87500000  0.25000000  1
  Ca  Ca3  1  0.62500000  0.75000000  0.87500000  1
  Ca  Ca4  1  0.87500000  0.25000000  0.62500000  1
  Ca  Ca5  1  0.37500000  0.12500000  0.75000000  1
  Ca  Ca6  1  0.37500000  0.25000000  0.12500000  1
  Ca  Ca7  1  0.12500000  0.75000000  0.37500000  1
  Ca  Ca8  1  0.75000000  0.87500000  0.62500000  1
  Ca  Ca9  1  0.25000000  0.12500000  0.37500000  1
  Ca  Ca10  1  0.25000000  0.62500000  0.87500000  1
  Ca  Ca11  1  0.75000000  0.37500000  0.12500000  1
  Mg  Mg0  1  0.00000000  0.00000000  0.00000000  1
  Mg  Mg1  1  0.50000000  0.00000000  0.50000000  1
  Mg  Mg2  1  0.50000000  0.50000000  0.00000000  1
  Mg  Mg3  1  0.00000000  0.00000000  0.50000000  1
  Mg  Mg4  1  0.00000000  0.50000000  0.50000000  1
  Mg  Mg5  1  0.50000000  0.50000000  0.50000000  1
  Mg  Mg6  1  0.50000000  0.00000000  0.00000000  1
  Mg  Mg7  1  0.00000000  0.50000000  0.00000000  1
  As  As0  1  0.62500000  0.37500000  0.75000000  1
  As  As1  1  0.37500000  0.62500000  0.25000000  1
  As  As2  1  0.87500000  0.12500000  0.25000000  1
  As  As3  1  0.37500000  0.75000000  0.62500000  1
  As  As4  1  0.62500000  0.25000000  0.37500000  1
  As  As5  1  0.12500000  0.87500000  0.75000000  1
  As  As6  1  0.12500000  0.25000000  0.87500000  1
  As  As7  1  0.87500000  0.75000000  0.12500000  1
  As  As8  1  0.75000000  0.62500000  0.37500000  1
  As  As9  1  0.25000000  0.37500000  0.62500000  1
  As  As10  1  0.25000000  0.87500000  0.12500000  1
  As  As11  1  0.75000000  0.12500000  0.87500000  1
  O  O0  1  0.70807934  0.62084413  0.51717803  1
  O  O1  1  0.29192066  0.37915587  0.48282197  1
  O  O2  1  0.79192066  0.80909869  0.41276479  1
  O  O3  1  0.39633390  0.87915587  0.08723521  1
  O  O4  1  0.62084413  0.51717803  0.70807934  1
  O  O5  1  0.70807934  0.08723521  0.69090131  1
  O  O6  1  0.20807934  0.19090131  0.58723521  1
  O  O7  1  0.60366610  0.12084413  0.91276479  1
  O  O8  1  0.37915587  0.48282197  0.29192066  1
  O  O9  1  0.29192066  0.91276479  0.30909869  1
  O  O10  1  0.10366610  0.69090131  0.98282197  1
  O  O11  1  0.80909869  0.41276479  0.79192066  1
  O  O12  1  0.79192066  0.98282197  0.87915587  1
  O  O13  1  0.89633390  0.30909869  0.01717803  1
  O  O14  1  0.19090131  0.58723521  0.20807934  1
  O  O15  1  0.20807934  0.01717803  0.12084413  1
  O  O16  1  0.87915587  0.08723521  0.39633390  1
  O  O17  1  0.39633390  0.51717803  0.80909869  1
  O  O18  1  0.12084413  0.91276479  0.60366610  1
  O  O19  1  0.60366610  0.48282197  0.19090131  1
  O  O20  1  0.69090131  0.98282197  0.10366610  1
  O  O21  1  0.10366610  0.41276479  0.62084413  1
  O  O22  1  0.30909869  0.01717803  0.89633390  1
  O  O23  1  0.89633390  0.58723521  0.37915587  1
  O  O24  1  0.51717803  0.70807934  0.62084413  1
  O  O25  1  0.62084413  0.10366610  0.41276479  1
  O  O26  1  0.48282197  0.29192066  0.37915587  1
  O  O27  1  0.37915587  0.89633390  0.58723521  1
  O  O28  1  0.08723521  0.39633390  0.87915587  1
  O  O29  1  0.87915587  0.79192066  0.98282197  1
  O  O30  1  0.91276479  0.60366610  0.12084413  1
  O  O31  1  0.12084413  0.20807934  0.01717803  1
  O  O32  1  0.98282197  0.10366610  0.69090131  1
  O  O33  1  0.69090131  0.70807934  0.08723521  1
  O  O34  1  0.01717803  0.89633390  0.30909869  1
  O  O35  1  0.30909869  0.29192066  0.91276479  1
  O  O36  1  0.41276479  0.79192066  0.80909869  1
  O  O37  1  0.80909869  0.39633390  0.51717803  1
  O  O38  1  0.58723521  0.20807934  0.19090131  1
  O  O39  1  0.19090131  0.60366610  0.48282197  1
  O  O40  1  0.08723521  0.69090131  0.70807934  1
  O  O41  1  0.91276479  0.30909869  0.29192066  1
  O  O42  1  0.98282197  0.87915587  0.79192066  1
  O  O43  1  0.01717803  0.12084413  0.20807934  1
  O  O44  1  0.41276479  0.62084413  0.10366610  1
  O  O45  1  0.58723521  0.37915587  0.89633390  1
  O  O46  1  0.51717803  0.80909869  0.39633390  1
  O  O47  1  0.48282197  0.19090131  0.60366610  1
loop_
_geom_bond_atom_site_label_1
_geom_bond_atom_site_label_2
_geom_bond_distance
_geom_bond_site_symmetry_2
Ca0 O4 2.430584 1_555
Ca0 O40 2.430584 1_655
Ca0 O42 2.430584 1_555
Ca0 O11 2.430584 1_555
Ca0 O0 2.561285 1_555
Ca0 O29 2.561285 1_555
Ca0 O10 2.561285 1_655
Ca0 O37 2.561285 1_555
Ca1 O43 2.430584 1_555
Ca1 O14 2.430584 1_555
Ca1 O8 2.430584 1_555
Ca1 O41 2.430584 1_455
Ca1 O39 2.561285 1_555
Ca1 O31 2.561285 1_555
Ca1 O1 2.561285 1_555
Ca1 O13 2.561285 1_455
Ca2 O46 2.430584 1_555
Ca2 O44 2.430584 1_555
Ca2 O20 2.430584 1_555
Ca2 O16 2.430584 1_565
Ca2 O33 2.561285 1_555
Ca2 O2 2.561285 1_555
Ca2 O25 2.561285 1_565
Ca2 O3 2.561285 1_555
Ca3 O33 2.430584 1_556
Ca3 O24 2.430584 1_555
Ca3 O36 2.430584 1_555
Ca3 O29 2.430584 1_555
Ca3 O4 2.561285 1_555
Ca3 O12 2.561285 1_555
Ca3 O20 2.561285 1_556
Ca3 O17 2.561285 1_555
Ca4 O37 2.430584 1_555
Ca4 O25 2.430584 1_555
Ca4 O32 2.430584 1_555
Ca4 O28 2.430584 1_655
Ca4 O5 2.561285 1_555
Ca4 O11 2.561285 1_555
Ca4 O21 2.561285 1_655
Ca4 O16 2.561285 1_555
Ca5 O22 2.430584 1_555
Ca5 O47 2.430584 1_555
Ca5 O18 2.430584 1_545
Ca5 O45 2.430584 1_555
Ca5 O35 2.561285 1_555
Ca5 O7 2.561285 1_555
Ca5 O6 2.561285 1_555
Ca5 O27 2.561285 1_545
Ca6 O38 2.430584 1_555
Ca6 O26 2.430584 1_555
Ca6 O31 2.430584 1_555
Ca6 O35 2.430584 1_554
Ca6 O8 2.561285 1_555
Ca6 O15 2.561285 1_555
Ca6 O19 2.561285 1_555
Ca6 O22 2.561285 1_554
Ca7 O34 2.430584 1_555
Ca7 O30 2.430584 1_455
Ca7 O27 2.430584 1_555
Ca7 O39 2.430584 1_555
Ca7 O14 2.561285 1_555
Ca7 O18 2.561285 1_555
Ca7 O9 2.561285 1_555
Ca7 O23 2.561285 1_455
Ca8 O0 2.430584 1_555
Ca8 O5 2.430584 1_565
Ca8 O12 2.430584 1_555
Ca8 O2 2.430584 1_555
Ca8 O24 2.561285 1_555
Ca8 O42 2.561285 1_555
Ca8 O32 2.561285 1_565
Ca8 O46 2.561285 1_555
Ca9 O6 2.430584 1_555
Ca9 O9 2.430584 1_545
Ca9 O1 2.430584 1_555
Ca9 O15 2.430584 1_555
Ca9 O43 2.561285 1_555
Ca9 O47 2.561285 1_555
Ca9 O26 2.561285 1_555
Ca9 O34 2.561285 1_545
Ca10 O17 2.430584 1_555
Ca10 O21 2.430584 1_555
Ca10 O10 2.430584 1_555
Ca10 O3 2.430584 1_556
Ca10 O40 2.561285 1_555
Ca10 O36 2.561285 1_555
Ca10 O44 2.561285 1_556
Ca10 O28 2.561285 1_555
Ca11 O13 2.430584 1_555
Ca11 O19 2.430584 1_555
Ca11 O7 2.430584 1_554
Ca11 O23 2.430584 1_555
Ca11 O41 2.561285 1_555
Ca11 O38 2.561285 1_555
Ca11 O30 2.561285 1_555
Ca11 O45 2.561285 1_554
Mg0 O29 2.118219 1_444
Mg0 O12 2.118219 1_444
Mg0 O42 2.118219 1_444
Mg0 O15 2.118219 1_555
Mg0 O31 2.118219 1_555
Mg0 O43 2.118219 1_555
Mg1 O47 2.118219 1_555
Mg1 O25 2.118219 1_555
Mg1 O9 2.118219 1_545
Mg1 O5 2.118219 1_555
Mg1 O46 2.118219 1_545
Mg1 O27 2.118219 1_545
Mg2 O35 2.118219 1_554
Mg2 O44 2.118219 1_555
Mg2 O19 2.118219 1_555
Mg2 O33 2.118219 1_555
Mg2 O17 2.118219 1_554
Mg2 O45 2.118219 1_554
Mg3 O2 2.118219 1_445
Mg3 O32 2.118219 1_455
Mg3 O6 2.118219 1_555
Mg3 O18 2.118219 1_545
Mg3 O34 2.118219 1_545
Mg3 O16 2.118219 1_455
Mg4 O41 2.118219 1_455
Mg4 O40 2.118219 1_555
Mg4 O39 2.118219 1_555
Mg4 O21 2.118219 1_555
Mg4 O37 2.118219 1_455
Mg4 O23 2.118219 1_455
Mg5 O24 2.118219 1_555
Mg5 O0 2.118219 1_555
Mg5 O26 2.118219 1_555
Mg5 O4 2.118219 1_555
Mg5 O1 2.118219 1_555
Mg5 O8 2.118219 1_555
Mg6 O36 2.118219 1_544
Mg6 O20 2.118219 1_545
Mg6 O38 2.118219 1_555
Mg6 O7 2.118219 1_554
Mg6 O22 2.118219 1_554
Mg6 O3 2.118219 1_545
Mg7 O10 2.118219 1_554
Mg7 O11 2.118219 1_454
Mg7 O30 2.118219 1_455
Mg7 O14 2.118219 1_555
Mg7 O13 2.118219 1_455
Mg7 O28 2.118219 1_554
As0 O45 1.768018 1_555
As0 O11 1.768018 1_555
As0 O4 1.768018 1_555
As0 O47 1.768018 1_555
As1 O46 1.768018 1_555
As1 O8 1.768018 1_555
As1 O44 1.768018 1_555
As1 O14 1.768018 1_555
As2 O16 1.768018 1_555
As2 O43 1.768018 1_655
As2 O20 1.768018 1_545
As2 O41 1.768018 1_555
As3 O27 1.768018 1_555
As3 O39 1.768018 1_555
As3 O24 1.768018 1_555
As3 O36 1.768018 1_555
As4 O37 1.768018 1_555
As4 O38 1.768018 1_555
As4 O25 1.768018 1_555
As4 O26 1.768018 1_555
As5 O22 1.768018 1_565
As5 O42 1.768018 1_455
As5 O18 1.768018 1_555
As5 O40 1.768018 1_555
As6 O28 1.768018 1_555
As6 O31 1.768018 1_556
As6 O32 1.768018 1_455
As6 O35 1.768018 1_555
As7 O34 1.768018 1_655
As7 O29 1.768018 1_554
As7 O33 1.768018 1_555
As7 O30 1.768018 1_555
As8 O23 1.768018 1_555
As8 O2 1.768018 1_555
As8 O19 1.768018 1_555
As8 O0 1.768018 1_555
As9 O17 1.768018 1_555
As9 O21 1.768018 1_555
As9 O6 1.768018 1_555
As9 O1 1.768018 1_555
As10 O3 1.768018 1_555
As10 O15 1.768018 1_565
As10 O10 1.768018 1_554
As10 O9 1.768018 1_555
As11 O13 1.768018 1_556
As11 O12 1.768018 1_545
As11 O5 1.768018 1_555
As11 O7 1.768018 1_555
