# generated using pymatgen
data_Ca2LaSbO6
_symmetry_space_group_name_H-M   'P 1'
_cell_length_a   6.05890879
_cell_length_b   6.05890879
_cell_length_c   6.05890879
_cell_angle_alpha   60.00000000
_cell_angle_beta   60.00000000
_cell_angle_gamma   60.00000000
_symmetry_Int_Tables_number   1
_chemical_formula_structural   Ca2LaSbO6
_chemical_formula_sum   'Ca2 La1 Sb1 O6'
_cell_volume   157.27809701
_cell_formula_units_Z   1
loop_
 _symmetry_equiv_pos_site_id
 _symmetry_equiv_pos_as_xyz
  1  'x, y, z'
loop_
 _atom_site_type_symbol
 _atom_site_label
 _atom_site_symmetry_multiplicity
 _atom_site_fract_x
 _atom_site_fract_y
 _atom_site_fract_z
 _atom_site_occupancy
  Ca  Ca0  1  0.25000000  0.25000000  0.25000000  1
  Ca  Ca1  1  0.75000000  0.75000000  0.75000000  1
  La  La0  1  0.00000000  0.00000000  0.00000000  1
  Sb  Sb0  1  0.50000000  0.50000000  0.50000000  1
  O  O0  1  0.73173654  0.26826346  0.26826346  1
  O  O1  1  0.26826346  0.73173654  0.73173654  1
  O  O2  1  0.73173654  0.26826346  0.73173654  1
  O  O3  1  0.26826346  0.73173654  0.26826346  1
  O  O4  1  0.73173654  0.73173654  0.26826346  1
  O  O5  1  0.26826346  0.26826346  0.73173654  1
loop_
_geom_bond_atom_site_label_1
_geom_bond_atom_site_label_2
_geom_bond_distance
_geom_bond_site_symmetry_2
Ca0 O4 3.033494 1_455
Ca0 O1 3.033494 1_554
Ca0 O0 3.033494 1_555
Ca0 O3 3.033494 1_545
Ca0 O2 3.033494 1_455
Ca0 O5 3.033494 1_554
Ca0 O2 3.033494 1_554
Ca0 O5 3.033494 1_555
Ca0 O4 3.033494 1_545
Ca0 O1 3.033494 1_545
Ca0 O0 3.033494 1_455
Ca0 O3 3.033494 1_555
Ca1 O2 3.033494 1_565
Ca1 O3 3.033494 1_556
Ca1 O4 3.033494 1_555
Ca1 O1 3.033494 1_555
Ca1 O4 3.033494 1_556
Ca1 O0 3.033494 1_565
Ca1 O3 3.033494 1_655
Ca1 O5 3.033494 1_565
Ca1 O1 3.033494 1_655
Ca1 O5 3.033494 1_655
Ca1 O0 3.033494 1_556
Ca1 O2 3.033494 1_555
La0 O5 2.298640 1_554
La0 O1 2.298640 1_544
La0 O0 2.298640 1_455
La0 O3 2.298640 1_545
La0 O2 2.298640 1_454
La0 O4 2.298640 1_445
O0 Sb0 1.985656 1_555
O1 Sb0 1.985656 1_555
O2 Sb0 1.985656 1_555
O3 Sb0 1.985656 1_555
O4 Sb0 1.985656 1_555
O5 Sb0 1.985656 1_555
