# generated using pymatgen
data_Tb12FeCoBi4
_symmetry_space_group_name_H-M   'P 1'
_cell_length_a   4.15851500
_cell_length_b   8.38195865
_cell_length_c   14.66204534
_cell_angle_alpha   89.62222342
_cell_angle_beta   90.00000000
_cell_angle_gamma   90.00000000
_symmetry_Int_Tables_number   1
_chemical_formula_structural   Tb12FeCoBi4
_chemical_formula_sum   'Tb12 Fe1 Co1 Bi4'
_cell_volume   511.05648574
_cell_formula_units_Z   1
loop_
 _symmetry_equiv_pos_site_id
 _symmetry_equiv_pos_as_xyz
  1  'x, y, z'
loop_
 _atom_site_type_symbol
 _atom_site_label
 _atom_site_symmetry_multiplicity
 _atom_site_fract_x
 _atom_site_fract_y
 _atom_site_fract_z
 _atom_site_occupancy
  Tb  Tb0  1  0.50000000  0.19074000  0.19510900  1
  Tb  Tb1  1  0.50000000  0.68948100  0.69376100  1
  Tb  Tb2  1  0.00000000  0.87883600  0.10977700  1
  Tb  Tb3  1  0.00000000  0.37634800  0.60938100  1
  Tb  Tb4  1  0.00000000  0.71870900  0.49458200  1
  Tb  Tb5  1  0.00000000  0.21983800  0.99477000  1
  Tb  Tb6  1  0.00000000  0.37147200  0.37632800  1
  Tb  Tb7  1  0.00000000  0.87640600  0.87812600  1
  Tb  Tb8  1  0.50000000  0.69059900  0.29685100  1
  Tb  Tb9  1  0.50000000  0.19084200  0.79509800  1
  Tb  Tb10  1  0.50000000  0.59818200  0.99587800  1
  Tb  Tb11  1  0.50000000  0.09635900  0.49702800  1
  Fe  Fe0  1  0.50000000  0.48064400  0.48903300  1
  Co  Co0  1  0.50000000  0.97625400  0.98869200  1
  Bi  Bi0  1  0.00000000  0.99056100  0.32987700  1
  Bi  Bi1  1  0.00000000  0.49316500  0.82957900  1
  Bi  Bi2  1  0.00000000  0.49067000  0.16225700  1
  Bi  Bi3  1  0.00000000  0.98846300  0.66224400  1
loop_
_geom_bond_atom_site_label_1
_geom_bond_atom_site_label_2
_geom_bond_distance
_geom_bond_site_symmetry_2
Tb0 Tb2 3.573054 1_645
Tb0 Tb2 3.573054 1_545
Tb0 Tb5 3.605766 1_654
Tb0 Tb5 3.605766 1_554
Tb0 Tb6 3.705556 1_555
Tb0 Tb6 3.705556 1_655
Tb1 Tb3 3.575701 1_655
Tb1 Tb3 3.575701 1_555
Tb1 Tb4 3.592000 1_555
Tb1 Tb4 3.592000 1_655
Tb1 Tb7 3.760470 1_655
Tb1 Tb7 3.760470 1_555
Tb2 Tb5 3.309006 1_564
Tb2 Tb7 3.396673 1_554
Tb2 Tb8 3.778771 1_455
Tb2 Tb8 3.778771 1_555
Tb3 Tb4 3.317281 1_555
Tb3 Tb6 3.417548 1_555
Tb3 Tb9 3.754981 1_555
Tb3 Tb9 3.754981 1_455
Tb4 Tb6 3.397636 1_555
Tb4 Tb8 3.576710 1_455
Tb4 Tb8 3.576710 1_555
Tb5 Tb7 3.358030 1_545
Tb5 Tb9 3.600362 1_555
Tb5 Tb9 3.600362 1_455
Tb6 Tb8 3.577046 1_555
Tb6 Tb8 3.577046 1_455
Tb7 Tb9 3.565011 1_465
Tb7 Tb9 3.565011 1_565
Tb10 Tb7 3.562230 1_655
Tb10 Tb7 3.562230 1_555
Tb10 Tb2 3.563414 1_556
Tb10 Tb2 3.563414 1_656
Tb10 Tb5 3.792251 1_555
Tb10 Tb5 3.792251 1_655
Tb11 Tb3 3.549043 1_655
Tb11 Tb3 3.549043 1_555
Tb11 Tb6 3.566362 1_555
Tb11 Tb6 3.566362 1_655
Tb11 Tb4 3.787631 1_545
Tb11 Tb4 3.787631 1_645
Fe0 Tb6 2.812708 1_555
Fe0 Tb6 2.812708 1_655
Fe0 Tb3 2.860216 1_555
Fe0 Tb3 2.860216 1_655
Fe0 Tb4 2.883383 1_555
Fe0 Tb4 2.883383 1_655
Fe0 Tb11 3.222421 1_555
Fe0 Tb8 3.312328 1_555
Fe0 Tb1 3.484796 1_555
Co0 Tb7 2.769419 1_655
Co0 Tb7 2.769419 1_555
Co0 Tb2 2.850059 1_556
Co0 Tb2 2.850059 1_656
Co0 Tb5 2.915859 1_665
Co0 Tb5 2.915859 1_565
Co0 Tb10 3.170041 1_555
Co0 Tb9 3.350354 1_565
Co0 Tb0 3.530376 1_566
Bi0 Tb6 3.269002 1_565
Bi0 Tb8 3.300817 1_455
Bi0 Tb8 3.300817 1_555
Bi0 Tb4 3.309304 1_555
Bi0 Tb0 3.316533 1_565
Bi0 Tb0 3.316533 1_465
Bi0 Tb11 3.338364 1_465
Bi0 Tb11 3.338364 1_565
Bi0 Tb2 3.366172 1_555
Bi1 Tb7 3.294806 1_555
Bi1 Tb1 3.309587 1_455
Bi1 Tb1 3.309587 1_555
Bi1 Tb9 3.319225 1_555
Bi1 Tb9 3.319225 1_455
Bi1 Tb5 3.322928 1_555
Bi1 Tb10 3.327413 1_455
Bi1 Tb10 3.327413 1_555
Bi1 Tb3 3.379939 1_555
Bi2 Tb6 3.287617 1_555
Bi2 Tb0 3.295384 1_455
Bi2 Tb0 3.295384 1_555
Bi2 Tb10 3.325261 1_554
Bi2 Tb10 3.325261 1_454
Bi2 Tb8 3.327103 1_455
Bi2 Tb8 3.327103 1_555
Bi2 Tb2 3.338401 1_555
Bi2 Tb5 3.355198 1_554
Bi3 Tb1 3.286623 1_455
Bi3 Tb1 3.286623 1_555
Bi3 Tb7 3.295746 1_555
Bi3 Tb11 3.313664 1_565
Bi3 Tb11 3.313664 1_465
Bi3 Tb9 3.322467 1_565
Bi3 Tb9 3.322467 1_465
Bi3 Tb3 3.337372 1_565
Bi3 Tb4 3.350940 1_555
