# generated using pymatgen
data_CaMgPd
_symmetry_space_group_name_H-M   'P 1'
_cell_length_a   4.32171243
_cell_length_b   7.32590839
_cell_length_c   8.48621522
_cell_angle_alpha   90.00000000
_cell_angle_beta   90.00000000
_cell_angle_gamma   90.00000000
_symmetry_Int_Tables_number   1
_chemical_formula_structural   CaMgPd
_chemical_formula_sum   'Ca4 Mg4 Pd4'
_cell_volume   268.67755687
_cell_formula_units_Z   4
loop_
 _symmetry_equiv_pos_site_id
 _symmetry_equiv_pos_as_xyz
  1  'x, y, z'
loop_
 _atom_site_type_symbol
 _atom_site_label
 _atom_site_symmetry_multiplicity
 _atom_site_fract_x
 _atom_site_fract_y
 _atom_site_fract_z
 _atom_site_occupancy
  Ca  Ca0  1  0.25000000  0.02976979  0.32418405  1
  Ca  Ca1  1  0.25000000  0.52976979  0.17581595  1
  Ca  Ca2  1  0.75000000  0.97023021  0.67581595  1
  Ca  Ca3  1  0.75000000  0.47023021  0.82418405  1
  Mg  Mg0  1  0.25000000  0.13905308  0.93902259  1
  Mg  Mg1  1  0.25000000  0.63905308  0.56097741  1
  Mg  Mg2  1  0.75000000  0.86094692  0.06097741  1
  Mg  Mg3  1  0.75000000  0.36094692  0.43902259  1
  Pd  Pd0  1  0.25000000  0.27143942  0.62507019  1
  Pd  Pd1  1  0.25000000  0.77143942  0.87492981  1
  Pd  Pd2  1  0.75000000  0.72856058  0.37492981  1
  Pd  Pd3  1  0.75000000  0.22856058  0.12507019  1
loop_
_geom_bond_atom_site_label_1
_geom_bond_atom_site_label_2
_geom_bond_distance
_geom_bond_site_symmetry_2
Ca0 Pd3 3.105695 1_455
Ca0 Pd3 3.105695 1_555
Ca0 Pd0 3.107131 1_555
Ca0 Pd2 3.118328 1_545
Ca0 Pd2 3.118328 1_445
Ca1 Pd2 3.105695 1_555
Ca1 Pd2 3.105695 1_455
Ca1 Pd1 3.107131 1_554
Ca1 Pd3 3.118328 1_555
Ca1 Pd3 3.118328 1_455
Ca2 Pd1 3.105695 1_655
Ca2 Pd1 3.105695 1_555
Ca2 Pd2 3.107131 1_555
Ca2 Pd0 3.118328 1_565
Ca2 Pd0 3.118328 1_665
Ca3 Pd0 3.105695 1_555
Ca3 Pd0 3.105695 1_655
Ca3 Pd3 3.107131 1_556
Ca3 Pd1 3.118328 1_555
Ca3 Pd1 3.118328 1_655
Mg0 Pd1 2.747479 1_545
Mg0 Pd3 2.755360 1_556
Mg0 Pd3 2.755360 1_456
Mg0 Pd0 2.835301 1_555
Mg1 Pd0 2.747479 1_555
Mg1 Pd2 2.755360 1_555
Mg1 Pd2 2.755360 1_455
Mg1 Pd1 2.835301 1_555
Mg2 Pd3 2.747479 1_565
Mg2 Pd1 2.755360 1_654
Mg2 Pd1 2.755360 1_554
Mg2 Pd2 2.835301 1_555
Mg3 Pd2 2.747479 1_555
Mg3 Pd0 2.755360 1_555
Mg3 Pd0 2.755360 1_655
Mg3 Pd3 2.835301 1_555
