# generated using pymatgen
data_SrLa3Mn2Cr2O12
_symmetry_space_group_name_H-M   'P 1'
_cell_length_a   5.54123344
_cell_length_b   5.54160821
_cell_length_c   9.62257052
_cell_angle_alpha   74.78493108
_cell_angle_beta   91.53574926
_cell_angle_gamma   60.14701467
_symmetry_Int_Tables_number   1
_chemical_formula_structural   SrLa3Mn2Cr2O12
_chemical_formula_sum   'Sr1 La3 Mn2 Cr2 O12'
_cell_volume   242.87634380
_cell_formula_units_Z   1
loop_
 _symmetry_equiv_pos_site_id
 _symmetry_equiv_pos_as_xyz
  1  'x, y, z'
loop_
 _atom_site_type_symbol
 _atom_site_label
 _atom_site_symmetry_multiplicity
 _atom_site_fract_x
 _atom_site_fract_y
 _atom_site_fract_z
 _atom_site_occupancy
  Sr  Sr0  1  0.87072200  0.25429600  0.62501200  1
  La  La0  1  0.37765700  0.24733800  0.12499700  1
  La  La1  1  0.12703800  0.74718900  0.37802800  1
  La  La2  1  0.62473200  0.75101900  0.87197200  1
  Mn  Mn0  1  0.25066600  0.49964100  0.74981800  1
  Mn  Mn1  1  0.50053900  0.99916600  0.50017300  1
  Cr  Cr0  1  0.74768300  0.50299700  0.25004600  1
  Cr  Cr1  1  0.99697600  0.00229400  0.99997200  1
  O  O0  1  0.80726000  0.81768800  0.12500200  1
  O  O1  1  0.32801400  0.79721700  0.62490000  1
  O  O2  1  0.16457200  0.25224800  0.34358400  1
  O  O3  1  0.64318400  0.25702900  0.84513000  1
  O  O4  1  0.64794800  0.70191500  0.40488100  1
  O  O5  1  0.15410800  0.67907800  0.90642200  1
  O  O6  1  0.33701700  0.74901300  0.16041400  1
  O  O7  1  0.84807800  0.74920500  0.65671200  1
  O  O8  1  0.84053700  0.32335200  0.08961600  1
  O  O9  1  0.34412500  0.30863400  0.59325100  1
  O  O10  1  0.69298600  0.18496900  0.36885000  1
  O  O11  1  0.19615900  0.17571100  0.88121800  1
loop_
_geom_bond_atom_site_label_1
_geom_bond_atom_site_label_2
_geom_bond_distance
_geom_bond_site_symmetry_2
La0 O0 2.386016 1_545
La0 O2 2.439315 1_555
La0 O5 2.439445 1_554
La0 O11 2.726061 1_554
La0 O10 2.726151 1_555
La0 O6 2.788168 1_555
La0 O8 2.788190 1_455
La0 O8 2.814138 1_555
La0 O6 2.814624 1_545
La1 O10 2.396941 1_465
La1 O6 2.422807 1_555
La1 O9 2.440613 1_555
La1 O1 2.733412 1_555
La1 O2 2.754782 1_555
La1 O4 2.768849 1_555
La1 O0 2.792997 1_455
La1 O4 2.800579 1_455
La1 O2 2.843048 1_565
La2 O11 2.396571 1_565
La2 O8 2.423196 1_556
La2 O7 2.440952 1_555
La2 O1 2.733711 1_555
La2 O5 2.754614 1_655
La2 O3 2.768566 1_555
La2 O0 2.792831 1_556
La2 O3 2.801230 1_565
La2 O5 2.842825 1_555
Mn0 O3 1.927205 1_555
Mn0 O5 1.961111 1_555
Mn0 O7 1.965443 1_455
Mn0 O9 1.997871 1_555
Mn0 O1 2.009670 1_555
Mn0 O11 2.069106 1_555
Mn1 O4 1.927399 1_555
Mn1 O2 1.960681 1_565
Mn1 O9 1.965326 1_565
Mn1 O7 1.997498 1_555
Mn1 O1 2.007102 1_555
Mn1 O10 2.068002 1_565
Cr0 O6 1.992464 1_555
Cr0 O8 1.994557 1_555
Cr0 O10 1.999403 1_555
Cr0 O4 2.009994 1_555
Cr0 O0 2.022624 1_555
Cr0 O2 2.028258 1_655
Cr1 O8 1.992789 1_556
Cr1 O6 1.994414 1_646
Cr1 O11 1.998675 1_655
Cr1 O3 2.010075 1_555
Cr1 O0 2.022775 1_546
Cr1 O5 2.027892 1_645
O1 Sr0 2.539396 1_465
O1 Sr0 3.014335 1_555
O3 Sr0 2.493447 1_555
O4 Sr0 2.493436 1_555
O7 Sr0 2.780138 1_555
O7 Sr0 2.801220 1_565
O9 Sr0 2.779913 1_555
O9 Sr0 2.801163 1_455
O10 Sr0 2.817289 1_555
O11 Sr0 2.817082 1_455
