# generated using pymatgen
data_SrCa2Cu2(BiO4)2
_symmetry_space_group_name_H-M   'P 1'
_cell_length_a   15.85086115
_cell_length_b   15.85086115
_cell_length_c   5.25962000
_cell_angle_alpha   90.00000000
_cell_angle_beta   90.00000000
_cell_angle_gamma   160.00662257
_symmetry_Int_Tables_number   1
_chemical_formula_structural   SrCa2Cu2(BiO4)2
_chemical_formula_sum   'Sr2 Ca4 Cu4 Bi4 O16'
_cell_volume   451.82872001
_cell_formula_units_Z   2
loop_
 _symmetry_equiv_pos_site_id
 _symmetry_equiv_pos_as_xyz
  1  'x, y, z'
loop_
 _atom_site_type_symbol
 _atom_site_label
 _atom_site_symmetry_multiplicity
 _atom_site_fract_x
 _atom_site_fract_y
 _atom_site_fract_z
 _atom_site_occupancy
  Sr  Sr0  1  0.50000000  0.00000000  0.50000000  1
  Sr  Sr1  1  0.00000000  0.50000000  0.00000000  1
  Ca  Ca0  1  0.62335000  0.90798400  0.50000000  1
  Ca  Ca1  1  0.37665000  0.09201600  0.50000000  1
  Ca  Ca2  1  0.09201600  0.37665000  0.00000000  1
  Ca  Ca3  1  0.90798400  0.62335000  0.00000000  1
  Cu  Cu0  1  0.06005200  0.44426200  0.50000000  1
  Cu  Cu1  1  0.93994800  0.55573800  0.50000000  1
  Cu  Cu2  1  0.55573800  0.93994800  0.00000000  1
  Cu  Cu3  1  0.44426200  0.06005200  0.00000000  1
  Bi  Bi0  1  0.17036900  0.26844200  0.50000000  1
  Bi  Bi1  1  0.82963100  0.73155800  0.50000000  1
  Bi  Bi2  1  0.73155800  0.82963100  0.00000000  1
  Bi  Bi3  1  0.26844200  0.17036900  0.00000000  1
  O  O0  1  0.10917300  0.33864700  0.50000000  1
  O  O1  1  0.89082700  0.66135300  0.50000000  1
  O  O2  1  0.66135300  0.89082700  0.00000000  1
  O  O3  1  0.33864700  0.10917300  0.00000000  1
  O  O4  1  0.68991600  0.31008400  0.75000000  1
  O  O5  1  0.31008400  0.68991600  0.25000000  1
  O  O6  1  0.31008400  0.68991600  0.75000000  1
  O  O7  1  0.68991600  0.31008400  0.25000000  1
  O  O8  1  0.77899300  0.87423000  0.50000000  1
  O  O9  1  0.22100700  0.12577000  0.50000000  1
  O  O10  1  0.12577000  0.22100700  0.00000000  1
  O  O11  1  0.87423000  0.77899300  0.00000000  1
  O  O12  1  0.80661300  0.19338700  0.75000000  1
  O  O13  1  0.19338700  0.80661300  0.25000000  1
  O  O14  1  0.19338700  0.80661300  0.75000000  1
  O  O15  1  0.80661300  0.19338700  0.25000000  1
loop_
_geom_bond_atom_site_label_1
_geom_bond_atom_site_label_2
_geom_bond_distance
_geom_bond_site_symmetry_2
Ca0 O15 2.436013 1_565
Ca0 O12 2.436013 1_565
Ca0 O5 2.464712 1_555
Ca0 O6 2.464712 1_555
Ca0 O0 2.664729 1_665
Ca0 O2 2.767781 1_555
Ca0 O2 2.767781 1_556
Ca0 O8 2.975489 1_555
Ca0 O0 3.103218 1_555
Ca1 O13 2.436013 1_545
Ca1 O14 2.436013 1_545
Ca1 O7 2.464712 1_555
Ca1 O4 2.464712 1_555
Ca1 O1 2.664729 1_445
Ca1 O3 2.767781 1_556
Ca1 O3 2.767781 1_555
Ca1 O9 2.975489 1_555
Ca1 O1 3.103218 1_555
Ca2 O12 2.436013 1_454
Ca2 O15 2.436013 1_455
Ca2 O5 2.464712 1_555
Ca2 O6 2.464712 1_554
Ca2 O2 2.664729 1_445
Ca2 O0 2.767781 1_555
Ca2 O0 2.767781 1_554
Ca2 O10 2.975489 1_555
Ca2 O2 3.103218 1_555
Ca3 O14 2.436013 1_654
Ca3 O13 2.436013 1_655
Ca3 O7 2.464712 1_555
Ca3 O4 2.464712 1_554
Ca3 O3 2.664729 1_665
Ca3 O1 2.767781 1_555
Ca3 O1 2.767781 1_554
Ca3 O11 2.975489 1_555
Ca3 O3 3.103218 1_555
Cu0 O6 1.895761 1_555
Cu0 O5 1.895761 1_555
Cu0 O15 1.912110 1_455
Cu0 O12 1.912110 1_455
Cu0 O0 2.420458 1_555
Cu1 O4 1.895761 1_555
Cu1 O7 1.895761 1_555
Cu1 O13 1.912110 1_655
Cu1 O14 1.912110 1_655
Cu1 O1 2.420458 1_555
Cu2 O5 1.895761 1_555
Cu2 O6 1.895761 1_554
Cu2 O15 1.912110 1_565
Cu2 O12 1.912110 1_564
Cu2 O2 2.420458 1_555
Cu3 O7 1.895761 1_555
Cu3 O4 1.895761 1_554
Cu3 O14 1.912110 1_544
Cu3 O13 1.912110 1_545
Cu3 O3 2.420458 1_555
Bi0 O0 2.051347 1_555
Bi0 O8 2.162054 1_445
Bi0 O10 2.642346 1_556
Bi0 O10 2.642346 1_555
Bi1 O1 2.051347 1_555
Bi1 O9 2.162054 1_665
Bi1 O11 2.642346 1_556
Bi1 O11 2.642346 1_555
Bi2 O2 2.051347 1_555
Bi2 O10 2.162054 1_665
Bi2 O8 2.642346 1_555
Bi2 O8 2.642346 1_554
Bi3 O3 2.051347 1_555
Bi3 O11 2.162054 1_445
Bi3 O9 2.642346 1_555
Bi3 O9 2.642346 1_554
O4 Sr0 2.672184 1_555
O4 Sr1 2.672184 1_656
O5 Sr1 2.672184 1_555
O5 Sr0 2.672184 1_565
O6 Sr1 2.672184 1_556
O6 Sr0 2.672184 1_565
O7 Sr0 2.672184 1_555
O7 Sr1 2.672184 1_655
O12 Sr0 2.597259 1_555
O12 Sr1 2.597259 1_656
O13 Sr1 2.597259 1_555
O13 Sr0 2.597259 1_565
O14 Sr1 2.597259 1_556
O14 Sr0 2.597259 1_565
O15 Sr0 2.597259 1_555
O15 Sr1 2.597259 1_655
