# generated using pymatgen
data_KAgSe
_symmetry_space_group_name_H-M   'P 1'
_cell_length_a   4.51645146
_cell_length_b   4.51645146
_cell_length_c   7.69821290
_cell_angle_alpha   90.00000000
_cell_angle_beta   90.00000000
_cell_angle_gamma   90.00000000
_symmetry_Int_Tables_number   1
_chemical_formula_structural   KAgSe
_chemical_formula_sum   'K2 Ag2 Se2'
_cell_volume   157.03071632
_cell_formula_units_Z   2
loop_
 _symmetry_equiv_pos_site_id
 _symmetry_equiv_pos_as_xyz
  1  'x, y, z'
loop_
 _atom_site_type_symbol
 _atom_site_label
 _atom_site_symmetry_multiplicity
 _atom_site_fract_x
 _atom_site_fract_y
 _atom_site_fract_z
 _atom_site_occupancy
  K  K0  1  0.75000000  0.75000000  0.33713702  1
  K  K1  1  0.25000000  0.25000000  0.66286298  1
  Ag  Ag0  1  0.75000000  0.25000000  -0.00000000  1
  Ag  Ag1  1  0.25000000  0.75000000  -0.00000000  1
  Se  Se0  1  0.25000000  0.25000000  0.21701423  1
  Se  Se1  1  0.75000000  0.75000000  0.78298577  1
loop_
_geom_bond_atom_site_label_1
_geom_bond_atom_site_label_2
_geom_bond_distance
_geom_bond_site_symmetry_2
K0 Se0 3.324800 1_555
K0 Se0 3.324800 1_565
K0 Se0 3.324800 1_655
K0 Se0 3.324800 1_665
K0 Se1 3.432239 1_555
K1 Se1 3.324800 1_455
K1 Se1 3.324800 1_555
K1 Se1 3.324800 1_445
K1 Se1 3.324800 1_545
K1 Se0 3.432239 1_555
Ag0 Se1 2.809014 1_554
Ag0 Se0 2.809014 1_555
Ag0 Se1 2.809014 1_544
Ag0 Se0 2.809014 1_655
Ag0 K1 3.440267 1_554
Ag0 K0 3.440267 1_555
Ag0 K0 3.440267 1_545
Ag0 K1 3.440267 1_654
Ag1 Se1 2.809014 1_554
Ag1 Se1 2.809014 1_454
Ag1 Se0 2.809014 1_555
Ag1 Se0 2.809014 1_565
Ag1 K1 3.440267 1_554
Ag1 K0 3.440267 1_555
Ag1 K1 3.440267 1_564
Ag1 K0 3.440267 1_455
