# generated using pymatgen
data_Mg6TiC
_symmetry_space_group_name_H-M   'P 1'
_cell_length_a   14.25024850
_cell_length_b   14.25024850
_cell_length_c   6.42904600
_cell_angle_alpha   90.00000000
_cell_angle_beta   90.00000000
_cell_angle_gamma   94.38015528
_symmetry_Int_Tables_number   1
_chemical_formula_structural   Mg6TiC
_chemical_formula_sum   'Mg48 Ti8 C8'
_cell_volume   1301.73053799
_cell_formula_units_Z   8
loop_
 _symmetry_equiv_pos_site_id
 _symmetry_equiv_pos_as_xyz
  1  'x, y, z'
loop_
 _atom_site_type_symbol
 _atom_site_label
 _atom_site_symmetry_multiplicity
 _atom_site_fract_x
 _atom_site_fract_y
 _atom_site_fract_z
 _atom_site_occupancy
  Mg  Mg0_0  1  0.38739400  0.26948250  0.00000000  1
  Mg  Mg0_1  1  0.38739400  0.26948250  0.50000000  1
  Mg  Mg0_2  1  0.38739400  0.76948250  0.00000000  1
  Mg  Mg0_3  1  0.38739400  0.76948250  0.50000000  1
  Mg  Mg0_4  1  0.88739400  0.26948250  0.00000000  1
  Mg  Mg0_5  1  0.88739400  0.26948250  0.50000000  1
  Mg  Mg0_6  1  0.88739400  0.76948250  0.00000000  1
  Mg  Mg0_7  1  0.88739400  0.76948250  0.50000000  1
  Mg  Mg1_0  1  0.23051750  0.11260600  0.00000000  1
  Mg  Mg1_1  1  0.23051750  0.11260600  0.50000000  1
  Mg  Mg1_2  1  0.23051750  0.61260600  0.00000000  1
  Mg  Mg1_3  1  0.23051750  0.61260600  0.50000000  1
  Mg  Mg1_4  1  0.73051750  0.11260600  0.00000000  1
  Mg  Mg1_5  1  0.73051750  0.11260600  0.50000000  1
  Mg  Mg1_6  1  0.73051750  0.61260600  0.00000000  1
  Mg  Mg1_7  1  0.73051750  0.61260600  0.50000000  1
  Mg  Mg2_0  1  0.17223250  0.32776750  0.00000000  1
  Mg  Mg2_1  1  0.17223250  0.32776750  0.50000000  1
  Mg  Mg2_2  1  0.17223250  0.82776750  0.00000000  1
  Mg  Mg2_3  1  0.17223250  0.82776750  0.50000000  1
  Mg  Mg2_4  1  0.67223250  0.32776750  0.00000000  1
  Mg  Mg2_5  1  0.67223250  0.32776750  0.50000000  1
  Mg  Mg2_6  1  0.67223250  0.82776750  0.00000000  1
  Mg  Mg2_7  1  0.67223250  0.82776750  0.50000000  1
  Mg  Mg3_0  1  0.31331600  0.44168850  0.25000000  1
  Mg  Mg3_1  1  0.31331600  0.44168850  0.75000000  1
  Mg  Mg3_2  1  0.31331600  0.94168850  0.25000000  1
  Mg  Mg3_3  1  0.31331600  0.94168850  0.75000000  1
  Mg  Mg3_4  1  0.81331600  0.44168850  0.25000000  1
  Mg  Mg3_5  1  0.81331600  0.44168850  0.75000000  1
  Mg  Mg3_6  1  0.81331600  0.94168850  0.25000000  1
  Mg  Mg3_7  1  0.81331600  0.94168850  0.75000000  1
  Mg  Mg4_0  1  0.05831150  0.18668400  0.25000000  1
  Mg  Mg4_1  1  0.05831150  0.18668400  0.75000000  1
  Mg  Mg4_2  1  0.05831150  0.68668400  0.25000000  1
  Mg  Mg4_3  1  0.05831150  0.68668400  0.75000000  1
  Mg  Mg4_4  1  0.55831150  0.18668400  0.25000000  1
  Mg  Mg4_5  1  0.55831150  0.18668400  0.75000000  1
  Mg  Mg4_6  1  0.55831150  0.68668400  0.25000000  1
  Mg  Mg4_7  1  0.55831150  0.68668400  0.75000000  1
  Mg  Mg5_0  1  0.04883000  0.45117000  0.25000000  1
  Mg  Mg5_1  1  0.04883000  0.45117000  0.75000000  1
  Mg  Mg5_2  1  0.04883000  0.95117000  0.25000000  1
  Mg  Mg5_3  1  0.04883000  0.95117000  0.75000000  1
  Mg  Mg5_4  1  0.54883000  0.45117000  0.25000000  1
  Mg  Mg5_5  1  0.54883000  0.45117000  0.75000000  1
  Mg  Mg5_6  1  0.54883000  0.95117000  0.25000000  1
  Mg  Mg5_7  1  0.54883000  0.95117000  0.75000000  1
  Ti  Ti0_0  1  0.42403500  0.07596500  0.00000000  1
  Ti  Ti0_1  1  0.42403500  0.07596500  0.50000000  1
  Ti  Ti0_2  1  0.42403500  0.57596500  0.00000000  1
  Ti  Ti0_3  1  0.42403500  0.57596500  0.50000000  1
  Ti  Ti0_4  1  0.92403500  0.07596500  0.00000000  1
  Ti  Ti0_5  1  0.92403500  0.07596500  0.50000000  1
  Ti  Ti0_6  1  0.92403500  0.57596500  0.00000000  1
  Ti  Ti0_7  1  0.92403500  0.57596500  0.50000000  1
  C  C0_0  1  0.36536400  0.13463600  0.25000000  1
  C  C0_1  1  0.36536400  0.13463600  0.75000000  1
  C  C0_2  1  0.36536400  0.63463600  0.25000000  1
  C  C0_3  1  0.36536400  0.63463600  0.75000000  1
  C  C0_4  1  0.86536400  0.13463600  0.25000000  1
  C  C0_5  1  0.86536400  0.13463600  0.75000000  1
  C  C0_6  1  0.86536400  0.63463600  0.25000000  1
  C  C0_7  1  0.86536400  0.63463600  0.75000000  1
loop_
_geom_bond_atom_site_label_1
_geom_bond_atom_site_label_2
_geom_bond_distance
_geom_bond_site_symmetry_2
Mg0_0 Mg3_0 3.180463 1_555
Mg0_0 Mg3_1 3.180463 1_554
Mg0_0 Mg4_5 3.216620 1_554
Mg0_0 Mg4_4 3.216620 1_555
Mg0_0 Mg2_0 3.237259 1_555
Mg0_1 Mg3_0 3.180463 1_555
Mg0_1 Mg3_1 3.180463 1_555
Mg0_1 Mg4_4 3.216620 1_555
Mg0_1 Mg4_5 3.216620 1_555
Mg0_1 Mg2_1 3.237259 1_555
Mg0_2 Mg3_2 3.180463 1_555
Mg0_2 Mg3_3 3.180463 1_554
Mg0_2 Mg4_6 3.216620 1_555
Mg0_2 Mg4_7 3.216620 1_554
Mg0_2 Mg2_2 3.237259 1_555
Mg0_3 Mg3_2 3.180463 1_555
Mg0_3 Mg3_3 3.180463 1_555
Mg0_3 Mg4_6 3.216620 1_555
Mg0_3 Mg4_7 3.216620 1_555
Mg0_3 Mg2_3 3.237259 1_555
Mg0_4 Mg3_5 3.180463 1_554
Mg0_4 Mg3_4 3.180463 1_555
Mg0_4 Mg4_0 3.216620 1_655
Mg0_4 Mg4_1 3.216620 1_654
Mg0_4 Mg2_4 3.237259 1_555
Mg0_5 Mg3_5 3.180463 1_555
Mg0_5 Mg3_4 3.180463 1_555
Mg0_5 Mg4_0 3.216620 1_655
Mg0_5 Mg4_1 3.216620 1_655
Mg0_5 Mg2_5 3.237259 1_555
Mg0_6 Mg3_7 3.180463 1_554
Mg0_6 Mg3_6 3.180463 1_555
Mg0_6 Mg4_2 3.216620 1_655
Mg0_6 Mg4_3 3.216620 1_654
Mg0_6 Mg2_6 3.237259 1_555
Mg0_7 Mg3_7 3.180463 1_555
Mg0_7 Mg3_6 3.180463 1_555
Mg0_7 Mg4_2 3.216620 1_655
Mg0_7 Mg4_3 3.216620 1_655
Mg0_7 Mg2_7 3.237259 1_555
Mg1_0 Mg4_1 3.180463 1_554
Mg1_0 Mg4_0 3.180463 1_555
Mg1_0 Mg3_2 3.216620 1_545
Mg1_0 Mg3_3 3.216620 1_544
Mg1_0 Mg2_0 3.237259 1_555
Mg1_1 Mg4_0 3.180463 1_555
Mg1_1 Mg4_1 3.180463 1_555
Mg1_1 Mg3_2 3.216620 1_545
Mg1_1 Mg3_3 3.216620 1_545
Mg1_1 Mg2_1 3.237259 1_555
Mg1_2 Mg4_2 3.180463 1_555
Mg1_2 Mg4_3 3.180463 1_554
Mg1_2 Mg3_1 3.216620 1_554
Mg1_2 Mg3_0 3.216620 1_555
Mg1_2 Mg2_2 3.237259 1_555
Mg1_3 Mg4_2 3.180463 1_555
Mg1_3 Mg4_3 3.180463 1_555
Mg1_3 Mg3_1 3.216620 1_555
Mg1_3 Mg3_0 3.216620 1_555
Mg1_3 Mg2_3 3.237259 1_555
Mg1_4 Mg4_5 3.180463 1_554
Mg1_4 Mg4_4 3.180463 1_555
Mg1_4 Mg3_6 3.216620 1_545
Mg1_4 Mg3_7 3.216620 1_544
Mg1_4 Mg2_4 3.237259 1_555
Mg1_5 Mg4_5 3.180463 1_555
Mg1_5 Mg4_4 3.180463 1_555
Mg1_5 Mg3_6 3.216620 1_545
Mg1_5 Mg3_7 3.216620 1_545
Mg1_5 Mg2_5 3.237259 1_555
Mg1_6 Mg4_7 3.180463 1_554
Mg1_6 Mg4_6 3.180463 1_555
Mg1_6 Mg3_4 3.216620 1_555
Mg1_6 Mg3_5 3.216620 1_554
Mg1_6 Mg2_6 3.237259 1_555
Mg1_7 Mg4_6 3.180463 1_555
Mg1_7 Mg4_7 3.180463 1_555
Mg1_7 Mg3_4 3.216620 1_555
Mg1_7 Mg3_5 3.216620 1_555
Mg1_7 Mg2_7 3.237259 1_555
Mg2_0 Mg3_0 2.960101 1_555
Mg2_0 Mg3_1 2.960101 1_554
Mg2_0 Mg4_1 2.960101 1_554
Mg2_0 Mg4_0 2.960101 1_555
Mg2_0 Mg5_0 3.039803 1_555
Mg2_0 Mg5_1 3.039803 1_554
Mg2_0 Mg2_1 3.214523 1_554
Mg2_0 Mg2_1 3.214523 1_555
Mg2_1 Mg3_0 2.960101 1_555
Mg2_1 Mg3_1 2.960101 1_555
Mg2_1 Mg4_1 2.960101 1_555
Mg2_1 Mg4_0 2.960101 1_555
Mg2_1 Mg5_0 3.039803 1_555
Mg2_1 Mg5_1 3.039803 1_555
Mg2_2 Mg3_3 2.960101 1_554
Mg2_2 Mg3_2 2.960101 1_555
Mg2_2 Mg4_2 2.960101 1_555
Mg2_2 Mg4_3 2.960101 1_554
Mg2_2 Mg5_3 3.039803 1_554
Mg2_2 Mg5_2 3.039803 1_555
Mg2_2 Mg2_3 3.214523 1_554
Mg2_2 Mg2_3 3.214523 1_555
Mg2_3 Mg3_3 2.960101 1_555
Mg2_3 Mg3_2 2.960101 1_555
Mg2_3 Mg4_2 2.960101 1_555
Mg2_3 Mg4_3 2.960101 1_555
Mg2_3 Mg5_2 3.039803 1_555
Mg2_3 Mg5_3 3.039803 1_555
Mg2_4 Mg3_5 2.960101 1_554
Mg2_4 Mg3_4 2.960101 1_555
Mg2_4 Mg4_5 2.960101 1_554
Mg2_4 Mg4_4 2.960101 1_555
Mg2_4 Mg5_4 3.039803 1_555
Mg2_4 Mg5_5 3.039803 1_554
Mg2_4 Mg2_5 3.214523 1_554
Mg2_4 Mg2_5 3.214523 1_555
Mg2_5 Mg3_5 2.960101 1_555
Mg2_5 Mg3_4 2.960101 1_555
Mg2_5 Mg4_4 2.960101 1_555
Mg2_5 Mg4_5 2.960101 1_555
Mg2_5 Mg5_5 3.039803 1_555
Mg2_5 Mg5_4 3.039803 1_555
Mg2_6 Mg4_6 2.960101 1_555
Mg2_6 Mg4_7 2.960101 1_554
Mg2_6 Mg3_6 2.960101 1_555
Mg2_6 Mg3_7 2.960101 1_554
Mg2_6 Mg5_7 3.039803 1_554
Mg2_6 Mg5_6 3.039803 1_555
Mg2_6 Mg2_7 3.214523 1_555
Mg2_6 Mg2_7 3.214523 1_554
Mg2_7 Mg4_6 2.960101 1_555
Mg2_7 Mg4_7 2.960101 1_555
Mg2_7 Mg3_7 2.960101 1_555
Mg2_7 Mg3_6 2.960101 1_555
Mg2_7 Mg5_6 3.039803 1_555
Mg2_7 Mg5_7 3.039803 1_555
Mg3_0 Ti0_2 2.876263 1_555
Mg3_0 Ti0_3 2.876263 1_555
Mg3_0 Mg3_1 3.214523 1_555
Mg3_0 Mg3_1 3.214523 1_554
Mg3_0 Mg5_4 3.348525 1_555
Mg3_1 Ti0_2 2.876263 1_556
Mg3_1 Ti0_3 2.876263 1_555
Mg3_1 Mg5_5 3.348525 1_555
Mg3_2 Ti0_0 2.876263 1_565
Mg3_2 Ti0_1 2.876263 1_565
Mg3_2 Mg3_3 3.214523 1_554
Mg3_2 Mg3_3 3.214523 1_555
Mg3_2 Mg5_6 3.348525 1_555
Mg3_3 Ti0_0 2.876263 1_566
Mg3_3 Ti0_1 2.876263 1_565
Mg3_3 Mg5_7 3.348525 1_555
Mg3_4 Ti0_6 2.876263 1_555
Mg3_4 Ti0_7 2.876263 1_555
Mg3_4 Mg3_5 3.214523 1_555
Mg3_4 Mg3_5 3.214523 1_554
Mg3_4 Mg5_0 3.348525 1_655
Mg3_5 Ti0_7 2.876263 1_555
Mg3_5 Ti0_6 2.876263 1_556
Mg3_5 Mg5_1 3.348525 1_655
Mg3_6 Ti0_5 2.876263 1_565
Mg3_6 Ti0_4 2.876263 1_565
Mg3_6 Mg3_7 3.214523 1_555
Mg3_6 Mg3_7 3.214523 1_554
Mg3_6 Mg5_2 3.348525 1_655
Mg3_7 Ti0_4 2.876263 1_566
Mg3_7 Ti0_5 2.876263 1_565
Mg3_7 Mg5_3 3.348525 1_655
Mg4_0 Ti0_5 2.876263 1_455
Mg4_0 Ti0_4 2.876263 1_455
Mg4_0 Mg4_1 3.214523 1_555
Mg4_0 Mg4_1 3.214523 1_554
Mg4_0 Mg5_2 3.348525 1_545
Mg4_1 Ti0_4 2.876263 1_456
Mg4_1 Ti0_5 2.876263 1_455
Mg4_1 Mg5_3 3.348525 1_545
Mg4_2 Ti0_6 2.876263 1_455
Mg4_2 Ti0_7 2.876263 1_455
Mg4_2 Mg4_3 3.214523 1_555
Mg4_2 Mg4_3 3.214523 1_554
Mg4_2 Mg5_0 3.348525 1_555
Mg4_3 Ti0_6 2.876263 1_456
Mg4_3 Ti0_7 2.876263 1_455
Mg4_3 Mg5_1 3.348525 1_555
Mg4_4 Ti0_0 2.876263 1_555
Mg4_4 Ti0_1 2.876263 1_555
Mg4_4 Mg4_5 3.214523 1_554
Mg4_4 Mg4_5 3.214523 1_555
Mg4_4 Mg5_6 3.348525 1_545
Mg4_5 Ti0_0 2.876263 1_556
Mg4_5 Ti0_1 2.876263 1_555
Mg4_5 Mg5_7 3.348525 1_545
Mg4_6 Ti0_2 2.876263 1_555
Mg4_6 Ti0_3 2.876263 1_555
Mg4_6 Mg4_7 3.214523 1_555
Mg4_6 Mg4_7 3.214523 1_554
Mg4_6 Mg5_4 3.348525 1_555
Mg4_7 Ti0_2 2.876263 1_556
Mg4_7 Ti0_3 2.876263 1_555
Mg4_7 Mg5_5 3.348525 1_555
Mg5_0 Ti0_7 3.064554 1_455
Mg5_0 Ti0_6 3.064554 1_455
Mg5_0 Mg5_1 3.214523 1_555
Mg5_0 Mg5_1 3.214523 1_554
Mg5_1 Ti0_7 3.064554 1_455
Mg5_1 Ti0_6 3.064554 1_456
Mg5_2 Ti0_5 3.064554 1_465
Mg5_2 Ti0_4 3.064554 1_465
Mg5_2 Mg5_3 3.214523 1_554
Mg5_2 Mg5_3 3.214523 1_555
Mg5_3 Ti0_4 3.064554 1_466
Mg5_3 Ti0_5 3.064554 1_465
Mg5_4 Ti0_2 3.064554 1_555
Mg5_4 Ti0_3 3.064554 1_555
Mg5_4 Mg5_5 3.214523 1_554
Mg5_4 Mg5_5 3.214523 1_555
Mg5_5 Ti0_2 3.064554 1_556
Mg5_5 Ti0_3 3.064554 1_555
Mg5_6 Ti0_0 3.064554 1_565
Mg5_6 Ti0_1 3.064554 1_565
Mg5_6 Mg5_7 3.214523 1_555
Mg5_6 Mg5_7 3.214523 1_554
Mg5_7 Ti0_1 3.064554 1_565
Mg5_7 Ti0_0 3.064554 1_566
C0_0 Ti0_1 2.021908 1_555
C0_0 Ti0_0 2.021908 1_555
C0_0 Mg1_0 2.506438 1_555
C0_0 Mg1_1 2.506438 1_555
C0_0 Mg0_1 2.506438 1_555
C0_0 Mg0_0 2.506438 1_555
C0_0 Mg4_4 2.792604 1_555
C0_0 Mg3_2 2.792604 1_545
C0_1 Ti0_1 2.021908 1_555
C0_1 Ti0_0 2.021908 1_556
C0_1 Mg1_0 2.506438 1_556
C0_1 Mg1_1 2.506438 1_555
C0_1 Mg0_1 2.506438 1_555
C0_1 Mg0_0 2.506438 1_556
C0_1 Mg4_5 2.792604 1_555
C0_1 Mg3_3 2.792604 1_545
C0_2 Ti0_3 2.021908 1_555
C0_2 Ti0_2 2.021908 1_555
C0_2 Mg0_3 2.506438 1_555
C0_2 Mg0_2 2.506438 1_555
C0_2 Mg1_3 2.506438 1_555
C0_2 Mg1_2 2.506438 1_555
C0_2 Mg3_0 2.792604 1_555
C0_2 Mg4_6 2.792604 1_555
C0_3 Ti0_2 2.021908 1_556
C0_3 Ti0_3 2.021908 1_555
C0_3 Mg0_2 2.506438 1_556
C0_3 Mg0_3 2.506438 1_555
C0_3 Mg1_3 2.506438 1_555
C0_3 Mg1_2 2.506438 1_556
C0_3 Mg3_1 2.792604 1_555
C0_3 Mg4_7 2.792604 1_555
C0_4 Ti0_4 2.021908 1_555
C0_4 Ti0_5 2.021908 1_555
C0_4 Mg0_5 2.506438 1_555
C0_4 Mg0_4 2.506438 1_555
C0_4 Mg1_4 2.506438 1_555
C0_4 Mg1_5 2.506438 1_555
C0_4 Mg3_6 2.792604 1_545
C0_4 Mg4_0 2.792604 1_655
C0_5 Ti0_4 2.021908 1_556
C0_5 Ti0_5 2.021908 1_555
C0_5 Mg0_5 2.506438 1_555
C0_5 Mg0_4 2.506438 1_556
C0_5 Mg1_4 2.506438 1_556
C0_5 Mg1_5 2.506438 1_555
C0_5 Mg3_7 2.792604 1_545
C0_5 Mg4_1 2.792604 1_655
C0_6 Ti0_6 2.021908 1_555
C0_6 Ti0_7 2.021908 1_555
C0_6 Mg1_6 2.506438 1_555
C0_6 Mg1_7 2.506438 1_555
C0_6 Mg0_6 2.506438 1_555
C0_6 Mg0_7 2.506438 1_555
C0_6 Mg4_2 2.792604 1_655
C0_6 Mg3_4 2.792604 1_555
C0_7 Ti0_7 2.021908 1_555
C0_7 Ti0_6 2.021908 1_556
C0_7 Mg1_7 2.506438 1_555
C0_7 Mg1_6 2.506438 1_556
C0_7 Mg0_6 2.506438 1_556
C0_7 Mg0_7 2.506438 1_555
C0_7 Mg4_3 2.792604 1_655
C0_7 Mg3_5 2.792604 1_555
