# generated using pymatgen
data_Ho2H16S3O20
_symmetry_space_group_name_H-M   'P 1'
_cell_length_a   6.69950900
_cell_length_b   7.67212663
_cell_length_c   18.36402729
_cell_angle_alpha   101.57689538
_cell_angle_beta   90.00000000
_cell_angle_gamma   115.88801569
_symmetry_Int_Tables_number   1
_chemical_formula_structural   Ho2H16S3O20
_chemical_formula_sum   'Ho4 H32 S6 O40'
_cell_volume   827.78325916
_cell_formula_units_Z   2
loop_
 _symmetry_equiv_pos_site_id
 _symmetry_equiv_pos_as_xyz
  1  'x, y, z'
loop_
 _atom_site_type_symbol
 _atom_site_label
 _atom_site_symmetry_multiplicity
 _atom_site_fract_x
 _atom_site_fract_y
 _atom_site_fract_z
 _atom_site_occupancy
  Ho  Ho0  1  0.31548200  0.66713000  0.60810100  1
  Ho  Ho1  1  0.64835100  0.33287000  0.89189900  1
  Ho  Ho2  1  0.68451800  0.33287000  0.39189900  1
  Ho  Ho3  1  0.35164900  0.66713000  0.10810100  1
  H  H0  1  0.04066500  0.25976700  0.51055000  1
  H  H1  1  0.78089800  0.74023300  0.98945000  1
  H  H2  1  0.95933500  0.74023300  0.48945000  1
  H  H3  1  0.21910200  0.25976700  0.01055000  1
  H  H4  1  0.29233400  0.29522300  0.51873200  1
  H  H5  1  0.99711100  0.70477700  0.98126800  1
  H  H6  1  0.70766600  0.70477700  0.48126800  1
  H  H7  1  0.00288900  0.29522300  0.01873200  1
  H  H8  1  0.33452500  0.01058300  0.54435300  1
  H  H9  1  0.32394200  0.98941700  0.95564700  1
  H  H10  1  0.66547500  0.98941700  0.45564700  1
  H  H11  1  0.67605800  0.01058300  0.04435300  1
  H  H12  1  0.16953400  0.98082000  0.60763800  1
  H  H13  1  0.18871400  0.01918000  0.89236200  1
  H  H14  1  0.83046600  0.01918000  0.39236200  1
  H  H15  1  0.81128600  0.98082000  0.10763800  1
  H  H16  1  0.26483000  0.55332400  0.75594500  1
  H  H17  1  0.71150600  0.44667600  0.74405500  1
  H  H18  1  0.73517000  0.44667600  0.24405500  1
  H  H19  1  0.28849400  0.55332400  0.25594500  1
  H  H20  1  0.23342800  0.35660600  0.69697900  1
  H  H21  1  0.87682200  0.64339400  0.80302100  1
  H  H22  1  0.76657200  0.64339400  0.30302100  1
  H  H23  1  0.12317800  0.35660600  0.19697900  1
  H  H24  1  0.79379400  0.98198900  0.65639100  1
  H  H25  1  0.81180500  0.01801100  0.84360900  1
  H  H26  1  0.20620600  0.01801100  0.34360900  1
  H  H27  1  0.18819500  0.98198900  0.15639100  1
  H  H28  1  0.65508000  0.10070100  0.64511600  1
  H  H29  1  0.55437900  0.89929900  0.85488400  1
  H  H30  1  0.34492000  0.89929900  0.35488400  1
  H  H31  1  0.44562100  0.10070100  0.14511600  1
  S  S0  1  0.30568100  0.55959400  0.40978000  1
  S  S1  1  0.74608700  0.44040600  0.09022000  1
  S  S2  1  0.69431900  0.44040600  0.59022000  1
  S  S3  1  0.25391300  0.55959400  0.90978000  1
  S  S4  1  0.18624900  0.00000000  0.75000000  1
  S  S5  1  0.81375100  0.00000000  0.25000000  1
  O  O0  1  0.36321300  0.67397300  0.35078600  1
  O  O1  1  0.68924000  0.32602700  0.14921400  1
  O  O2  1  0.63678700  0.32602700  0.64921400  1
  O  O3  1  0.31076000  0.67397300  0.85078600  1
  O  O4  1  0.42712300  0.69963700  0.48371100  1
  O  O5  1  0.72748600  0.30036300  0.01628900  1
  O  O6  1  0.57287700  0.30036300  0.51628900  1
  O  O7  1  0.27251400  0.69963700  0.98371100  1
  O  O8  1  0.37601900  0.39835300  0.39389300  1
  O  O9  1  0.97766600  0.60164700  0.10610700  1
  O  O10  1  0.62398100  0.60164700  0.60610700  1
  O  O11  1  0.02233400  0.39835300  0.89389300  1
  O  O12  1  0.06380100  0.47239500  0.41769200  1
  O  O13  1  0.59140600  0.52760500  0.08230800  1
  O  O14  1  0.93619900  0.52760500  0.58230800  1
  O  O15  1  0.40859400  0.47239500  0.91769200  1
  O  O16  1  0.23106000  0.83189400  0.71267900  1
  O  O17  1  0.39916600  0.16810600  0.78732100  1
  O  O18  1  0.76894000  0.16810600  0.28732100  1
  O  O19  1  0.60083400  0.83189400  0.21267900  1
  O  O20  1  0.02690900  0.93470100  0.80710600  1
  O  O21  1  0.09220800  0.06529900  0.69289400  1
  O  O22  1  0.97309100  0.06529900  0.19289400  1
  O  O23  1  0.90779200  0.93470100  0.30710600  1
  O  O24  1  0.17905700  0.32543900  0.54484900  1
  O  O25  1  0.85361800  0.67456100  0.95515100  1
  O  O26  1  0.82094300  0.67456100  0.45515100  1
  O  O27  1  0.14638200  0.32543900  0.04484900  1
  O  O28  1  0.21663800  0.90843900  0.56488100  1
  O  O29  1  0.30819900  0.09156100  0.93511900  1
  O  O30  1  0.78336200  0.09156100  0.43511900  1
  O  O31  1  0.69180100  0.90843900  0.06488100  1
  O  O32  1  0.26023100  0.49521900  0.70232500  1
  O  O33  1  0.76501200  0.50478100  0.79767500  1
  O  O34  1  0.73976900  0.50478100  0.29767500  1
  O  O35  1  0.23498800  0.49521900  0.20232500  1
  O  O36  1  0.65007800  0.96702800  0.63537100  1
  O  O37  1  0.68305000  0.03297200  0.86462900  1
  O  O38  1  0.34992200  0.03297200  0.36462900  1
  O  O39  1  0.31695000  0.96702800  0.13537100  1
loop_
_geom_bond_atom_site_label_1
_geom_bond_atom_site_label_2
_geom_bond_distance
_geom_bond_site_symmetry_2
Ho0 O14 2.290905 1_455
Ho0 O16 2.292590 1_555
Ho0 O32 2.315231 1_555
Ho0 O10 2.329097 1_555
Ho0 O36 2.367138 1_555
Ho0 O24 2.396333 1_555
Ho0 O4 2.430106 1_555
Ho0 O28 2.481190 1_555
Ho1 O15 2.290899 1_555
Ho1 O17 2.292587 1_555
Ho1 O33 2.315231 1_555
Ho1 O11 2.329104 1_655
Ho1 O37 2.367142 1_555
Ho1 O25 2.396333 1_555
Ho1 O5 2.430108 1_556
Ho1 O29 2.481185 1_555
Ho2 O12 2.290905 1_655
Ho2 O18 2.292590 1_555
Ho2 O34 2.315231 1_555
Ho2 O8 2.329097 1_555
Ho2 O38 2.367138 1_555
Ho2 O26 2.396333 1_555
Ho2 O6 2.430106 1_555
Ho2 O30 2.481190 1_555
Ho3 O13 2.290899 1_555
Ho3 O19 2.292587 1_555
Ho3 O35 2.315231 1_555
Ho3 O9 2.329104 1_455
Ho3 O39 2.367142 1_555
Ho3 O27 2.396333 1_555
Ho3 O7 2.430108 1_554
Ho3 O31 2.481185 1_555
H0 O24 0.987379 1_555
H1 O25 0.987379 1_555
H2 O26 0.987379 1_555
H3 O27 0.987379 1_555
H4 O24 0.984226 1_555
H5 O25 0.984226 1_555
H6 O26 0.984226 1_555
H7 O27 0.984226 1_555
H8 O28 0.978830 1_545
H9 O29 0.978830 1_565
H10 O30 0.978830 1_565
H11 O31 0.978830 1_545
H12 O28 1.001253 1_555
H13 O29 1.001253 1_555
H14 O30 1.001253 1_555
H15 O31 1.001253 1_555
H16 O32 0.990501 1_555
H17 O33 0.990501 1_555
H18 O34 0.990501 1_555
H19 O35 0.990501 1_555
H20 O32 0.981919 1_555
H21 O33 0.981919 1_555
H22 O34 0.981919 1_555
H23 O35 0.981919 1_555
H24 O36 0.987384 1_555
H25 O37 0.987384 1_555
H26 O38 0.987384 1_555
H27 O39 0.987384 1_555
H28 O36 0.990576 1_545
H29 O37 0.990576 1_565
H30 O38 0.990576 1_565
H31 O39 0.990576 1_545
O0 S0 1.475983 1_555
O1 S1 1.475983 1_555
O2 S2 1.475983 1_555
O3 S3 1.475983 1_555
O4 S0 1.520130 1_555
O5 S1 1.520130 1_555
O6 S2 1.520130 1_555
O7 S3 1.520130 1_555
O8 S0 1.483805 1_555
O9 S1 1.483805 1_555
O10 S2 1.483805 1_555
O11 S3 1.483805 1_555
O12 S0 1.478840 1_555
O13 S1 1.478840 1_555
O14 S2 1.478840 1_555
O15 S3 1.478840 1_555
O16 S4 1.485457 1_565
O17 S4 1.485456 1_555
O18 S5 1.485457 1_555
O19 S5 1.485456 1_565
O20 S4 1.494714 1_565
O21 S4 1.494714 1_555
O22 S5 1.494714 1_555
O23 S5 1.494714 1_565
