# generated using pymatgen
data_Fe3B11HO20
_symmetry_space_group_name_H-M   'P 1'
_cell_length_a   7.76838100
_cell_length_b   8.30819900
_cell_length_c   17.89477700
_cell_angle_alpha   90.00000000
_cell_angle_beta   90.00000000
_cell_angle_gamma   90.00000000
_symmetry_Int_Tables_number   1
_chemical_formula_structural   Fe3B11HO20
_chemical_formula_sum   'Fe12 B44 H4 O80'
_cell_volume   1154.95137010
_cell_formula_units_Z   4
loop_
 _symmetry_equiv_pos_site_id
 _symmetry_equiv_pos_as_xyz
  1  'x, y, z'
loop_
 _atom_site_type_symbol
 _atom_site_label
 _atom_site_symmetry_multiplicity
 _atom_site_fract_x
 _atom_site_fract_y
 _atom_site_fract_z
 _atom_site_occupancy
  Fe  Fe0  1  0.00000000  0.67210500  0.83993600  1
  Fe  Fe1  1  0.50000000  0.32789500  0.33993600  1
  Fe  Fe2  1  0.50000000  0.95955800  0.20296800  1
  Fe  Fe3  1  0.00000000  0.04044200  0.70296800  1
  Fe  Fe4  1  0.50000000  0.84243800  0.75704800  1
  Fe  Fe5  1  0.00000000  0.15756200  0.25704800  1
  Fe  Fe6  1  0.50000000  0.23074600  0.62793700  1
  Fe  Fe7  1  0.00000000  0.76925400  0.12793700  1
  Fe  Fe8  1  0.00000000  0.26680900  0.96015300  1
  Fe  Fe9  1  0.50000000  0.73319100  0.46015300  1
  Fe  Fe10  1  0.50000000  0.44784600  0.89797600  1
  Fe  Fe11  1  0.00000000  0.55215400  0.39797600  1
  B  B0  1  0.66568600  0.79076100  0.91186000  1
  B  B1  1  0.33431400  0.79076100  0.91186000  1
  B  B2  1  0.83431400  0.20923900  0.41186000  1
  B  B3  1  0.16568600  0.20923900  0.41186000  1
  B  B4  1  0.82611100  0.01544800  0.84586300  1
  B  B5  1  0.17388900  0.01544800  0.84586300  1
  B  B6  1  0.67388900  0.98455200  0.34586300  1
  B  B7  1  0.32611100  0.98455200  0.34586300  1
  B  B8  1  0.83054900  0.60284700  0.99937700  1
  B  B9  1  0.16945100  0.60284700  0.99937700  1
  B  B10  1  0.66945100  0.39715300  0.49937700  1
  B  B11  1  0.33054900  0.39715300  0.49937700  1
  B  B12  1  0.66287800  0.08538200  0.96226000  1
  B  B13  1  0.33712200  0.08538200  0.96226000  1
  B  B14  1  0.83712200  0.91461800  0.46226000  1
  B  B15  1  0.16287800  0.91461800  0.46226000  1
  B  B16  1  0.66764400  0.35211700  0.03850100  1
  B  B17  1  0.33235600  0.35211700  0.03850100  1
  B  B18  1  0.83235600  0.64788300  0.53850100  1
  B  B19  1  0.16764400  0.64788300  0.53850100  1
  B  B20  1  0.83521100  0.14689700  0.55798600  1
  B  B21  1  0.16478900  0.14689700  0.55798600  1
  B  B22  1  0.66478900  0.85310300  0.05798600  1
  B  B23  1  0.33521100  0.85310300  0.05798600  1
  B  B24  1  0.83255700  0.10332900  0.09525300  1
  B  B25  1  0.16744300  0.10332900  0.09525300  1
  B  B26  1  0.66744300  0.89667100  0.59525300  1
  B  B27  1  0.33255700  0.89667100  0.59525300  1
  B  B28  1  0.66649300  0.49957300  0.74846100  1
  B  B29  1  0.33350700  0.49957300  0.74846100  1
  B  B30  1  0.83350700  0.50042700  0.24846100  1
  B  B31  1  0.16649300  0.50042700  0.24846100  1
  B  B32  1  0.83152000  0.71089900  0.68355500  1
  B  B33  1  0.16848000  0.71089900  0.68355500  1
  B  B34  1  0.66848000  0.28910100  0.18355500  1
  B  B35  1  0.33152000  0.28910100  0.18355500  1
  B  B36  1  0.66155500  0.58673400  0.13321900  1
  B  B37  1  0.33844500  0.58673400  0.13321900  1
  B  B38  1  0.83844500  0.41326600  0.63321900  1
  B  B39  1  0.16155500  0.41326600  0.63321900  1
  B  B40  1  0.66640200  0.23077800  0.77126300  1
  B  B41  1  0.33359800  0.23077800  0.77126300  1
  B  B42  1  0.83359800  0.76922200  0.27126300  1
  B  B43  1  0.16640200  0.76922200  0.27126300  1
  H  H0  1  0.89478600  0.36659700  0.83070100  1
  H  H1  1  0.10521400  0.36659700  0.83070100  1
  H  H2  1  0.60521400  0.63340300  0.33070100  1
  H  H3  1  0.39478600  0.63340300  0.33070100  1
  O  O0  1  0.80447400  0.67675400  0.92594800  1
  O  O1  1  0.19552600  0.67675400  0.92594800  1
  O  O2  1  0.69552600  0.32324600  0.42594800  1
  O  O3  1  0.30447400  0.32324600  0.42594800  1
  O  O4  1  0.69881400  0.87761900  0.27623400  1
  O  O5  1  0.30118600  0.87761900  0.27623400  1
  O  O6  1  0.80118600  0.12238100  0.77623400  1
  O  O7  1  0.19881400  0.12238100  0.77623400  1
  O  O8  1  0.69691600  0.82920600  0.67048200  1
  O  O9  1  0.30308400  0.82920600  0.67048200  1
  O  O10  1  0.80308400  0.17079400  0.17048200  1
  O  O11  1  0.19691600  0.17079400  0.17048200  1
  O  O12  1  0.50000000  0.57871300  0.74515900  1
  O  O13  1  0.00000000  0.42128700  0.24515900  1
  O  O14  1  0.50000000  0.20898300  0.18615900  1
  O  O15  1  0.00000000  0.79101700  0.68615900  1
  O  O16  1  0.00000000  0.94190800  0.83702400  1
  O  O17  1  0.50000000  0.05809200  0.33702400  1
  O  O18  1  0.50000000  0.89255700  0.09198600  1
  O  O19  1  0.00000000  0.10744300  0.59198600  1
  O  O20  1  0.80415900  0.61567200  0.75109900  1
  O  O21  1  0.19584100  0.61567200  0.75109900  1
  O  O22  1  0.69584100  0.38432800  0.25109900  1
  O  O23  1  0.30415900  0.38432800  0.25109900  1
  O  O24  1  0.50000000  0.39463100  0.00786800  1
  O  O25  1  0.00000000  0.60536900  0.50786800  1
  O  O26  1  0.80709700  0.11692900  0.91261800  1
  O  O27  1  0.19290300  0.11692900  0.91261800  1
  O  O28  1  0.69290300  0.88307100  0.41261800  1
  O  O29  1  0.30709700  0.88307100  0.41261800  1
  O  O30  1  0.00000000  0.14473700  0.06504200  1
  O  O31  1  0.50000000  0.85526300  0.56504200  1
  O  O32  1  0.80057700  0.42937700  0.99483300  1
  O  O33  1  0.19942300  0.42937700  0.99483300  1
  O  O34  1  0.69942300  0.57062300  0.49483300  1
  O  O35  1  0.30057700  0.57062300  0.49483300  1
  O  O36  1  0.50000000  0.70417900  0.90828100  1
  O  O37  1  0.00000000  0.29582100  0.40828100  1
  O  O38  1  0.69327000  0.88783300  0.84474500  1
  O  O39  1  0.30673000  0.88783300  0.84474500  1
  O  O40  1  0.80673000  0.11216700  0.34474500  1
  O  O41  1  0.19327000  0.11216700  0.34474500  1
  O  O42  1  0.67346700  0.37977600  0.81264200  1
  O  O43  1  0.32653300  0.37977600  0.81264200  1
  O  O44  1  0.82653300  0.62022400  0.31264200  1
  O  O45  1  0.17346700  0.62022400  0.31264200  1
  O  O46  1  0.69508900  0.37368200  0.68613900  1
  O  O47  1  0.30491100  0.37368200  0.68613900  1
  O  O48  1  0.80491100  0.62631800  0.18613900  1
  O  O49  1  0.19508900  0.62631800  0.18613900  1
  O  O50  1  0.50000000  0.35890100  0.53011000  1
  O  O51  1  0.00000000  0.64109900  0.03011000  1
  O  O52  1  0.69640000  0.07137100  0.59898100  1
  O  O53  1  0.30360000  0.07137100  0.59898100  1
  O  O54  1  0.80360000  0.92862900  0.09898100  1
  O  O55  1  0.19640000  0.92862900  0.09898100  1
  O  O56  1  0.66686000  0.90721900  0.97919300  1
  O  O57  1  0.33314000  0.90721900  0.97919300  1
  O  O58  1  0.83314000  0.09278100  0.47919300  1
  O  O59  1  0.16686000  0.09278100  0.47919300  1
  O  O60  1  0.69785900  0.17251600  0.03869900  1
  O  O61  1  0.30214100  0.17251600  0.03869900  1
  O  O62  1  0.80214100  0.82748400  0.53869900  1
  O  O63  1  0.19785900  0.82748400  0.53869900  1
  O  O64  1  0.67663500  0.40898100  0.11764800  1
  O  O65  1  0.32336500  0.40898100  0.11764800  1
  O  O66  1  0.82336500  0.59101900  0.61764800  1
  O  O67  1  0.17663500  0.59101900  0.61764800  1
  O  O68  1  0.69801900  0.67221500  0.05789300  1
  O  O69  1  0.30198100  0.67221500  0.05789300  1
  O  O70  1  0.80198100  0.32778500  0.55789300  1
  O  O71  1  0.19801900  0.32778500  0.55789300  1
  O  O72  1  0.50000000  0.13405100  0.93213600  1
  O  O73  1  0.00000000  0.86594900  0.43213600  1
  O  O74  1  0.50000000  0.16352700  0.75349800  1
  O  O75  1  0.00000000  0.83647300  0.25349800  1
  O  O76  1  0.00000000  0.40475700  0.85632600  1
  O  O77  1  0.50000000  0.59524300  0.35632600  1
  O  O78  1  0.50000000  0.62988900  0.16390500  1
  O  O79  1  0.00000000  0.37011100  0.66390500  1
loop_
_geom_bond_atom_site_label_1
_geom_bond_atom_site_label_2
_geom_bond_distance
_geom_bond_site_symmetry_2
Fe0 O0 2.162786 1_455
Fe0 O1 2.162786 1_555
Fe0 O76 2.240461 1_555
Fe0 O16 2.242183 1_555
Fe0 O20 2.249798 1_455
Fe0 O21 2.249798 1_555
Fe1 O3 2.162786 1_555
Fe1 O2 2.162786 1_555
Fe1 O77 2.240461 1_555
Fe1 O17 2.242183 1_555
Fe1 O23 2.249798 1_555
Fe1 O22 2.249798 1_555
Fe2 O18 2.062536 1_555
Fe2 O14 2.093989 1_565
Fe2 O5 2.137226 1_555
Fe2 O4 2.137226 1_555
Fe3 O19 2.062536 1_555
Fe3 O15 2.093989 1_545
Fe3 O7 2.137226 1_555
Fe3 O6 2.137226 1_455
Fe4 O8 2.179856 1_555
Fe4 O9 2.179856 1_555
Fe4 O12 2.201384 1_555
Fe4 O39 2.204357 1_555
Fe4 O38 2.204357 1_555
Fe4 O74 2.668428 1_565
Fe5 O11 2.179856 1_555
Fe5 O10 2.179856 1_455
Fe5 O13 2.201384 1_555
Fe5 O41 2.204357 1_555
Fe5 O40 2.204357 1_455
Fe5 O75 2.668428 1_545
Fe6 O50 2.048960 1_555
Fe6 O53 2.085563 1_555
Fe6 O52 2.085563 1_555
Fe6 O46 2.189022 1_555
Fe6 O47 2.189022 1_555
Fe6 O74 2.315250 1_555
Fe7 O51 2.048960 1_555
Fe7 O54 2.085563 1_455
Fe7 O55 2.085563 1_555
Fe7 O48 2.189022 1_455
Fe7 O49 2.189022 1_555
Fe7 O75 2.315250 1_555
Fe8 O26 2.125984 1_455
Fe8 O27 2.125984 1_555
Fe8 O30 2.133447 1_556
Fe8 O33 2.146947 1_555
Fe8 O32 2.146947 1_455
Fe8 O76 2.183017 1_555
Fe9 O29 2.125984 1_555
Fe9 O28 2.125984 1_555
Fe9 O31 2.133447 1_555
Fe9 O34 2.146947 1_555
Fe9 O35 2.146947 1_555
Fe9 O77 2.183017 1_555
Fe10 O24 2.015581 1_556
Fe10 O42 2.113664 1_555
Fe10 O43 2.113664 1_555
Fe10 O36 2.137634 1_555
Fe11 O25 2.015581 1_555
Fe11 O44 2.113664 1_455
Fe11 O45 2.113664 1_555
Fe11 O37 2.137634 1_555
B0 O0 1.457105 1_555
B0 O38 1.462453 1_555
B0 O36 1.475876 1_555
B0 O56 1.545333 1_555
B1 O1 1.457105 1_555
B1 O39 1.462453 1_555
B1 O36 1.475876 1_555
B1 O57 1.545333 1_555
B2 O2 1.457105 1_555
B2 O40 1.462453 1_555
B2 O37 1.475876 1_655
B2 O58 1.545333 1_555
B3 O3 1.457105 1_555
B3 O41 1.462453 1_555
B3 O37 1.475876 1_555
B3 O59 1.545333 1_555
B4 O26 1.469579 1_555
B4 O38 1.479687 1_545
B4 O16 1.490999 1_645
B4 O6 1.542494 1_555
B5 O27 1.469579 1_555
B5 O39 1.479687 1_545
B5 O16 1.490999 1_545
B5 O7 1.542494 1_555
B6 O28 1.469579 1_555
B6 O40 1.479687 1_565
B6 O17 1.490999 1_565
B6 O4 1.542494 1_555
B7 O29 1.469579 1_555
B7 O41 1.479687 1_565
B7 O17 1.490999 1_565
B7 O5 1.542494 1_555
B8 O51 1.461595 1_656
B8 O32 1.462172 1_555
B8 O0 1.464463 1_555
B8 O68 1.577527 1_556
B9 O51 1.461595 1_556
B9 O33 1.462172 1_555
B9 O1 1.464463 1_555
B9 O69 1.577527 1_556
B10 O50 1.461595 1_555
B10 O34 1.462172 1_555
B10 O2 1.464463 1_555
B10 O70 1.577527 1_555
B11 O50 1.461595 1_555
B11 O35 1.462172 1_555
B11 O3 1.464463 1_555
B11 O71 1.577527 1_555
B12 O72 1.433551 1_555
B12 O26 1.453620 1_555
B12 O56 1.511227 1_545
B12 O60 1.571290 1_556
B13 O72 1.433551 1_555
B13 O27 1.453620 1_555
B13 O57 1.511227 1_545
B13 O61 1.571290 1_556
B14 O73 1.433551 1_655
B14 O28 1.453620 1_555
B14 O58 1.511227 1_565
B14 O62 1.571290 1_555
B15 O73 1.433551 1_555
B15 O29 1.453620 1_555
B15 O59 1.511227 1_565
B15 O63 1.571290 1_555
B16 O32 1.445362 1_554
B16 O24 1.456467 1_555
B16 O64 1.494668 1_555
B16 O60 1.510513 1_555
B17 O33 1.445362 1_554
B17 O24 1.456467 1_555
B17 O65 1.494668 1_555
B17 O61 1.510513 1_555
B18 O34 1.445362 1_555
B18 O25 1.456467 1_655
B18 O66 1.494668 1_555
B18 O62 1.510513 1_555
B19 O35 1.445362 1_555
B19 O25 1.456467 1_555
B19 O67 1.494668 1_555
B19 O63 1.510513 1_555
B20 O52 1.447312 1_555
B20 O19 1.454783 1_655
B20 O58 1.480019 1_555
B20 O70 1.524864 1_555
B21 O53 1.447312 1_555
B21 O19 1.454783 1_555
B21 O59 1.480019 1_555
B21 O71 1.524864 1_555
B22 O54 1.447312 1_555
B22 O18 1.454783 1_555
B22 O56 1.480019 1_554
B22 O68 1.524864 1_555
B23 O55 1.447312 1_555
B23 O18 1.454783 1_555
B23 O57 1.480019 1_554
B23 O69 1.524864 1_555
B24 O30 1.450035 1_655
B24 O54 1.470285 1_545
B24 O10 1.476099 1_555
B24 O60 1.565096 1_555
B25 O30 1.450035 1_555
B25 O55 1.470285 1_545
B25 O11 1.476099 1_555
B25 O61 1.565096 1_555
B26 O31 1.450035 1_555
B26 O52 1.470285 1_565
B26 O8 1.476099 1_555
B26 O62 1.565096 1_555
B27 O31 1.450035 1_555
B27 O53 1.470285 1_565
B27 O9 1.476099 1_555
B27 O63 1.565096 1_555
B28 O20 1.440950 1_555
B28 O12 1.452118 1_555
B28 O42 1.520728 1_555
B28 O46 1.545014 1_555
B29 O21 1.440950 1_555
B29 O12 1.452118 1_555
B29 O43 1.520728 1_555
B29 O47 1.545014 1_555
B30 O22 1.440950 1_555
B30 O13 1.452118 1_655
B30 O44 1.520728 1_555
B30 O48 1.545014 1_555
B31 O23 1.440950 1_555
B31 O13 1.452118 1_555
B31 O45 1.520728 1_555
B31 O49 1.545014 1_555
B32 O8 1.454046 1_555
B32 O20 1.460150 1_555
B32 O15 1.469097 1_655
B32 O66 1.544981 1_555
B33 O9 1.454046 1_555
B33 O21 1.460150 1_555
B33 O15 1.469097 1_555
B33 O67 1.544981 1_555
B34 O10 1.454046 1_555
B34 O22 1.460150 1_555
B34 O14 1.469097 1_555
B34 O64 1.544981 1_555
B35 O11 1.454046 1_555
B35 O23 1.460150 1_555
B35 O14 1.469097 1_555
B35 O65 1.544981 1_555
B36 O78 1.416037 1_555
B36 O48 1.498383 1_555
B36 O64 1.507423 1_555
B36 O68 1.549697 1_555
B37 O78 1.416037 1_555
B37 O49 1.498383 1_555
B37 O65 1.507423 1_555
B37 O69 1.549697 1_555
B38 O79 1.416037 1_655
B38 O46 1.498383 1_555
B38 O66 1.507423 1_555
B38 O70 1.549697 1_555
B39 O79 1.416037 1_555
B39 O47 1.498383 1_555
B39 O67 1.507423 1_555
B39 O71 1.549697 1_555
B40 O6 1.383938 1_555
B40 O42 1.443508 1_555
B40 O74 1.443694 1_555
B40 O46 1.944132 1_555
B41 O7 1.383938 1_555
B41 O43 1.443508 1_555
B41 O74 1.443694 1_555
B41 O47 1.944132 1_555
B42 O4 1.383938 1_555
B42 O44 1.443508 1_555
B42 O75 1.443694 1_655
B42 O48 1.944132 1_555
B43 O5 1.383938 1_555
B43 O45 1.443508 1_555
B43 O75 1.443694 1_555
B43 O49 1.944132 1_555
H0 O76 0.989361 1_655
H0 O42 1.752821 1_555
H1 O76 0.989361 1_555
H1 O43 1.752821 1_555
H2 O77 0.989361 1_555
H2 O44 1.752821 1_555
H3 O77 0.989361 1_555
H3 O45 1.752821 1_555
