# generated using pymatgen
data_BaSr3Lu2(BiO6)2
_symmetry_space_group_name_H-M   'P 1'
_cell_length_a   6.01238430
_cell_length_b   5.97353162
_cell_length_c   8.46232478
_cell_angle_alpha   89.92438017
_cell_angle_beta   89.97272981
_cell_angle_gamma   90.04222933
_symmetry_Int_Tables_number   1
_chemical_formula_structural   BaSr3Lu2(BiO6)2
_chemical_formula_sum   'Ba1 Sr3 Lu2 Bi2 O12'
_cell_volume   303.92543170
_cell_formula_units_Z   1
loop_
 _symmetry_equiv_pos_site_id
 _symmetry_equiv_pos_as_xyz
  1  'x, y, z'
loop_
 _atom_site_type_symbol
 _atom_site_label
 _atom_site_symmetry_multiplicity
 _atom_site_fract_x
 _atom_site_fract_y
 _atom_site_fract_z
 _atom_site_occupancy
  Ba  Ba0  1  0.52219700  0.00654400  0.75024700  1
  Sr  Sr0  1  0.03403100  0.49100300  0.74969100  1
  Sr  Sr1  1  0.46436900  0.99320000  0.24978600  1
  Sr  Sr2  1  0.96932400  0.50448600  0.25067500  1
  Lu  Lu0  1  0.50030300  0.49950700  0.00277600  1
  Lu  Lu1  1  0.99833400  0.00028900  0.49778300  1
  Bi  Bi0  1  0.50055400  0.49975800  0.49687200  1
  Bi  Bi1  1  0.99867000  0.00034000  0.00274200  1
  O  O0  1  0.71094700  0.78310400  0.45350900  1
  O  O1  1  0.79258000  0.28664000  0.96000700  1
  O  O2  1  0.27989200  0.22458500  0.53122800  1
  O  O3  1  0.21399900  0.72051200  0.04426500  1
  O  O4  1  0.21857300  0.71210800  0.45542200  1
  O  O5  1  0.27664300  0.21712700  0.96724100  1
  O  O6  1  0.78861800  0.29682900  0.53978600  1
  O  O7  1  0.71545900  0.79182300  0.04701800  1
  O  O8  1  0.47551300  0.55792600  0.74639600  1
  O  O9  1  0.02157400  0.08107500  0.24749100  1
  O  O10  1  0.52623200  0.41524000  0.25275700  1
  O  O11  1  0.99218800  0.91790000  0.75431000  1
loop_
_geom_bond_atom_site_label_1
_geom_bond_atom_site_label_2
_geom_bond_distance
_geom_bond_site_symmetry_2
Ba0 O5 2.672112 1_555
Ba0 O2 2.693125 1_555
Ba0 O8 2.694529 1_545
Ba0 O11 2.875548 1_545
Ba0 O1 2.932508 1_555
Ba0 O6 2.954599 1_555
Ba0 O7 3.049393 1_546
Ba0 O0 3.063218 1_545
Ba0 O11 3.230087 1_445
Ba0 O8 3.305961 1_555
Lu0 O5 2.177709 1_554
Lu0 O10 2.179520 1_555
Lu0 O3 2.198466 1_555
Lu0 O1 2.199958 1_554
Lu0 O8 2.202139 1_554
Lu0 O7 2.204881 1_555
Lu1 O9 2.176114 1_655
Lu1 O2 2.176942 1_655
Lu1 O0 2.192643 1_545
Lu1 O4 2.202240 1_645
Lu1 O6 2.204211 1_555
Lu1 O11 2.225555 1_545
Bi0 O2 2.131140 1_555
Bi0 O10 2.132778 1_555
Bi0 O0 2.143447 1_555
Bi0 O6 2.145577 1_555
Bi0 O8 2.145640 1_555
Bi0 O4 2.146845 1_555
Bi1 O9 2.131667 1_655
Bi1 O5 2.134413 1_654
Bi1 O7 2.141572 1_545
Bi1 O1 2.143107 1_554
Bi1 O3 2.143771 1_645
Bi1 O11 2.160216 1_544
O0 Sr1 2.597012 1_555
O0 Sr2 2.852763 1_555
O1 Sr0 2.598932 1_655
O1 Sr2 2.980234 1_556
O2 Sr0 2.853801 1_555
O2 Sr1 2.970076 1_545
O3 Sr2 2.620898 1_455
O3 Sr1 2.819656 1_555
O3 Sr0 3.045283 1_554
O4 Sr2 2.606024 1_455
O4 Sr1 2.831555 1_555
O4 Sr0 3.027070 1_555
O5 Sr0 2.862094 1_555
O5 Sr1 2.962492 1_546
O6 Sr0 2.585174 1_655
O6 Sr2 2.948256 1_555
O7 Sr1 2.583800 1_555
O7 Sr2 2.871321 1_555
O8 Sr0 2.684129 1_555
O9 Sr2 2.549100 1_455
O9 Sr1 2.713964 1_545
O10 Sr1 2.548246 1_545
O10 Sr2 2.716517 1_555
O11 Sr0 2.562994 1_655
