# generated using pymatgen
data_YTh9MgO20
_symmetry_space_group_name_H-M   'P 1'
_cell_length_a   7.99574670
_cell_length_b   19.97798755
_cell_length_c   10.55913930
_cell_angle_alpha   19.07571163
_cell_angle_beta   55.61044816
_cell_angle_gamma   60.15904913
_symmetry_Int_Tables_number   1
_chemical_formula_structural   YTh9MgO20
_chemical_formula_sum   'Y1 Th9 Mg1 O20'
_cell_volume   450.77805620
_cell_formula_units_Z   1
loop_
 _symmetry_equiv_pos_site_id
 _symmetry_equiv_pos_as_xyz
  1  'x, y, z'
loop_
 _atom_site_type_symbol
 _atom_site_label
 _atom_site_symmetry_multiplicity
 _atom_site_fract_x
 _atom_site_fract_y
 _atom_site_fract_z
 _atom_site_occupancy
  Y  Y0  1  0.99574871  0.00481525  0.99398793  1
  Th  Th0  1  0.01006930  0.17302499  0.04650966  1
  Th  Th1  1  0.50402373  0.00182523  0.99400641  1
  Th  Th2  1  0.99337828  0.40397665  0.99379283  1
  Th  Th3  1  0.50055085  0.19746177  0.00283456  1
  Th  Th4  1  0.01440626  0.60197675  0.96791313  1
  Th  Th5  1  0.49364298  0.39278788  0.01476373  1
  Th  Th6  1  0.00984506  0.81924824  0.97796240  1
  Th  Th7  1  0.49534492  0.60201215  0.99901268  1
  Th  Th8  1  0.48916103  0.80233641  0.00439999  1
  Mg  Mg0  1  0.80164905  0.51356426  0.44760036  1
  O  O0  1  0.12096154  0.14521142  0.25932626  1
  O  O1  1  0.12211207  0.34810863  0.25340455  1
  O  O2  1  0.62845489  0.13553115  0.27734456  1
  O  O3  1  0.37458501  0.05179160  0.74784746  1
  O  O4  1  0.11887400  0.54336515  0.26645905  1
  O  O5  1  0.61979581  0.35280624  0.24616937  1
  O  O6  1  0.37313075  0.24533277  0.75989110  1
  O  O7  1  0.12089651  0.75921058  0.23893097  1
  O  O8  1  0.87298348  0.05776387  0.73910662  1
  O  O9  1  0.12374079  0.94987416  0.24812869  1
  O  O10  1  0.62608915  0.55004713  0.24603323  1
  O  O11  1  0.35031048  0.44618649  0.76599149  1
  O  O12  1  0.87153019  0.26486166  0.73313874  1
  O  O13  1  0.37400499  0.65033886  0.74726503  1
  O  O14  1  0.62731839  0.75621917  0.24121701  1
  O  O15  1  0.62193270  0.95068721  0.25358742  1
  O  O16  1  0.87438635  0.45182787  0.74021695  1
  O  O17  1  0.37049530  0.85034645  0.75416858  1
  O  O18  1  0.87266050  0.65044863  0.74565484  1
  O  O19  1  0.87791696  0.82701141  0.79333440  1
loop_
_geom_bond_atom_site_label_1
_geom_bond_atom_site_label_2
_geom_bond_distance
_geom_bond_site_symmetry_2
Mg0 O4 2.077615 1_655
Mg0 O19 2.140609 1_554
Mg0 O12 2.216742 1_555
Mg0 O16 2.349276 1_555
Mg0 O10 2.540919 1_555
Mg0 O14 2.632652 1_555
Mg0 O2 2.710913 1_556
O0 Th6 2.348714 1_545
O0 Th0 2.354771 1_555
O0 Th3 2.481957 1_555
O0 Th2 2.492447 1_454
O1 Th4 2.288855 1_554
O1 Y0 2.409659 1_455
O1 Th5 2.429540 1_555
O1 Th2 2.465915 1_454
O2 Th8 2.369302 1_546
O2 Th5 2.488307 1_555
O2 Th0 2.496931 1_655
O2 Th3 2.507829 1_555
O3 Th5 2.385211 1_555
O3 Th8 2.399123 1_546
O3 Th1 2.435150 1_555
O3 Y0 2.477186 1_455
O4 Th7 2.462103 1_554
O4 Th0 2.542231 1_556
O4 Th6 2.626763 1_554
O4 Th4 2.651489 1_554
O5 Th5 2.432933 1_555
O5 Th1 2.433662 1_555
O5 Th2 2.442695 1_554
O5 Th7 2.456005 1_554
O6 Th0 2.378738 1_556
O6 Th3 2.424601 1_556
O6 Th1 2.448870 1_555
O6 Th7 2.475617 1_554
O7 Th6 2.297214 1_554
O7 Th8 2.408308 1_555
O7 Y0 2.411670 1_464
O7 Th2 2.456893 1_455
O8 Th6 2.340216 1_645
O8 Th1 2.412943 1_555
O8 Th2 2.425221 1_554
O8 Y0 2.428068 1_555
O9 Th0 2.333854 1_565
O9 Th4 2.351465 1_555
O9 Y0 2.422867 1_464
O9 Th1 2.486523 1_564
O10 Th7 2.419880 1_554
O10 Th3 2.462138 1_556
O10 Th8 2.543411 1_555
O10 Th4 2.547078 1_654
O11 Th2 2.334153 1_455
O11 Th8 2.480131 1_555
O11 Th5 2.497773 1_556
O11 Th3 2.520493 1_556
O12 Th3 2.430270 1_556
O12 Th0 2.486978 1_656
O12 Th4 2.514129 1_654
O12 Y0 2.543809 1_555
O13 Th4 2.360352 1_555
O13 Th1 2.450944 1_564
O13 Th5 2.459912 1_556
O13 Th7 2.463693 1_555
O14 Th1 2.396855 1_564
O14 Th8 2.464733 1_555
O14 Th6 2.505997 1_654
O14 Th5 2.517928 1_556
O15 Th3 2.392825 1_565
O15 Th7 2.425388 1_555
O15 Y0 2.444490 1_564
O15 Th1 2.472437 1_564
O16 Th2 2.474411 1_555
O16 Th5 2.490796 1_556
O16 Th6 2.495563 1_654
O16 Th0 2.561435 1_656
O17 Th6 2.365562 1_555
O17 Th8 2.436735 1_556
O17 Th3 2.445045 1_565
O17 Th7 2.456955 1_555
O18 Th4 2.312301 1_655
O18 Th2 2.404874 1_555
O18 Y0 2.446393 1_564
O18 Th7 2.467791 1_555
O19 Th0 2.430375 1_665
O19 Th8 2.548485 1_556
O19 Th4 2.554582 1_655
O19 Th6 2.554629 1_655
