# generated using pymatgen
data_KSm2Cl7
_symmetry_space_group_name_H-M   'P 1'
_cell_length_a   12.84053452
_cell_length_b   7.05147382
_cell_length_c   12.93152541
_cell_angle_alpha   92.17266884
_cell_angle_beta   90.00000000
_cell_angle_gamma   90.00000000
_symmetry_Int_Tables_number   1
_chemical_formula_structural   KSm2Cl7
_chemical_formula_sum   'K4 Sm8 Cl28'
_cell_volume   1170.03926818
_cell_formula_units_Z   4
loop_
 _symmetry_equiv_pos_site_id
 _symmetry_equiv_pos_as_xyz
  1  'x, y, z'
loop_
 _atom_site_type_symbol
 _atom_site_label
 _atom_site_symmetry_multiplicity
 _atom_site_fract_x
 _atom_site_fract_y
 _atom_site_fract_z
 _atom_site_occupancy
  K  K0  1  0.21787094  0.80578431  0.03229627  1
  K  K1  1  0.78212906  0.19421569  0.96770373  1
  K  K2  1  0.71787094  0.19421569  0.46770373  1
  K  K3  1  0.28212906  0.80578431  0.53229627  1
  Sm  Sm0  1  0.53580817  0.78514488  0.23854394  1
  Sm  Sm1  1  0.46419183  0.21485512  0.76145606  1
  Sm  Sm2  1  0.03580817  0.21485512  0.26145606  1
  Sm  Sm3  1  0.96419183  0.78514488  0.73854394  1
  Sm  Sm4  1  0.83995414  0.71097608  0.24192560  1
  Sm  Sm5  1  0.16004586  0.28902392  0.75807440  1
  Sm  Sm6  1  0.33995414  0.28902392  0.25807440  1
  Sm  Sm7  1  0.66004586  0.71097608  0.74192560  1
  Cl  Cl0  1  0.98103804  0.91475506  0.12766231  1
  Cl  Cl1  1  0.01896196  0.08524494  0.87233769  1
  Cl  Cl2  1  0.48103804  0.08524494  0.37233769  1
  Cl  Cl3  1  0.51896196  0.91475506  0.62766231  1
  Cl  Cl4  1  0.68598639  0.74925579  0.39455307  1
  Cl  Cl5  1  0.31401361  0.25074421  0.60544693  1
  Cl  Cl6  1  0.18598639  0.25074421  0.10544693  1
  Cl  Cl7  1  0.81401361  0.74925579  0.89455307  1
  Cl  Cl8  1  0.67130227  0.51220427  0.16240161  1
  Cl  Cl9  1  0.32869773  0.48779573  0.83759839  1
  Cl  Cl10  1  0.17130227  0.48779573  0.33759839  1
  Cl  Cl11  1  0.82869773  0.51220427  0.66240161  1
  Cl  Cl12  1  0.92857622  0.96763536  0.38238559  1
  Cl  Cl13  1  0.07142378  0.03236464  0.61761441  1
  Cl  Cl14  1  0.42857622  0.03236464  0.11761441  1
  Cl  Cl15  1  0.57142378  0.96763536  0.88238559  1
  Cl  Cl16  1  0.93443135  0.42909576  0.12000797  1
  Cl  Cl17  1  0.06556865  0.57090424  0.87999203  1
  Cl  Cl18  1  0.43443135  0.57090424  0.37999203  1
  Cl  Cl19  1  0.56556865  0.42909576  0.62000797  1
  Cl  Cl20  1  0.70803711  0.99687733  0.17685705  1
  Cl  Cl21  1  0.29196289  0.00312267  0.82314295  1
  Cl  Cl22  1  0.20803711  0.00312267  0.32314295  1
  Cl  Cl23  1  0.79196289  0.99687733  0.67685705  1
  Cl  Cl24  1  0.90439434  0.44877711  0.37916650  1
  Cl  Cl25  1  0.09560566  0.55122289  0.62083350  1
  Cl  Cl26  1  0.40439434  0.55122289  0.12083350  1
  Cl  Cl27  1  0.59560566  0.44877711  0.87916650  1
loop_
_geom_bond_atom_site_label_1
_geom_bond_atom_site_label_2
_geom_bond_distance
_geom_bond_site_symmetry_2
Cl0 Sm2 2.772818 1_665
Cl0 Sm4 2.773257 1_555
Cl0 K0 3.359687 1_655
Cl1 Sm3 2.772818 1_445
Cl1 Sm5 2.773257 1_555
Cl1 K1 3.359687 1_455
Cl2 Sm0 2.772818 1_545
Cl2 Sm6 2.773257 1_555
Cl2 K2 3.359687 1_555
Cl3 Sm1 2.772818 1_565
Cl3 Sm7 2.773257 1_555
Cl3 K3 3.359687 1_555
Cl4 Sm4 2.799397 1_555
Cl4 Sm0 2.809165 1_555
Cl4 K2 3.268345 1_565
Cl5 Sm5 2.799397 1_555
Cl5 Sm1 2.809165 1_555
Cl5 K3 3.268345 1_545
Cl6 Sm6 2.799397 1_555
Cl6 Sm2 2.809165 1_555
Cl6 K0 3.268345 1_545
Cl7 Sm7 2.799397 1_555
Cl7 Sm3 2.809165 1_555
Cl7 K1 3.268345 1_565
Cl8 Sm0 2.748999 1_555
Cl8 Sm4 2.757275 1_555
Cl8 K1 3.600550 1_554
Cl9 Sm1 2.748999 1_555
Cl9 Sm5 2.757275 1_555
Cl9 K0 3.600550 1_556
Cl10 Sm2 2.748999 1_555
Cl10 Sm6 2.757275 1_555
Cl10 K3 3.600550 1_555
Cl11 Sm3 2.748999 1_555
Cl11 Sm7 2.757275 1_555
Cl11 K2 3.600550 1_555
Cl12 Sm2 2.754459 1_665
Cl12 Sm4 2.760495 1_555
Cl12 K2 3.310049 1_565
Cl13 Sm3 2.754459 1_445
Cl13 Sm5 2.760495 1_555
Cl13 K3 3.310049 1_545
Cl14 Sm0 2.754459 1_545
Cl14 Sm6 2.760495 1_555
Cl14 K0 3.310049 1_545
Cl15 Sm1 2.754459 1_565
Cl15 Sm7 2.760495 1_555
Cl15 K1 3.310049 1_565
Cl16 Sm2 2.744455 1_655
Cl16 Sm4 2.769575 1_555
Cl16 K1 3.193651 1_554
Cl17 Sm3 2.744455 1_455
Cl17 Sm5 2.769575 1_555
Cl17 K0 3.193651 1_556
Cl18 Sm0 2.744455 1_555
Cl18 Sm6 2.769575 1_555
Cl18 K3 3.193651 1_555
Cl19 Sm1 2.744455 1_555
Cl19 Sm7 2.769575 1_555
Cl19 K2 3.193651 1_555
Cl20 Sm4 2.787515 1_555
Cl20 Sm0 2.801169 1_555
Cl20 K1 3.231421 1_564
Cl21 Sm5 2.787515 1_555
Cl21 Sm1 2.801169 1_555
Cl21 K0 3.231421 1_546
Cl22 Sm6 2.787515 1_555
Cl22 Sm2 2.801169 1_555
Cl22 K3 3.231421 1_545
Cl23 Sm7 2.787515 1_555
Cl23 Sm3 2.801169 1_555
Cl23 K2 3.231421 1_565
Cl24 Sm4 2.738893 1_555
Cl24 Sm2 2.773964 1_655
Cl24 K2 3.228797 1_555
Cl25 Sm5 2.738893 1_555
Cl25 Sm3 2.773964 1_455
Cl25 K3 3.228797 1_555
Cl26 Sm6 2.738893 1_555
Cl26 Sm0 2.773964 1_555
Cl26 K0 3.228797 1_555
Cl27 Sm7 2.738893 1_555
Cl27 Sm1 2.773964 1_555
Cl27 K1 3.228797 1_555
