# generated using pymatgen
data_HfCd
_symmetry_space_group_name_H-M   'P 1'
_cell_length_a   6.09452740
_cell_length_b   6.09452740
_cell_length_c   18.32492752
_cell_angle_alpha   90.00000000
_cell_angle_beta   90.00000000
_cell_angle_gamma   90.00000000
_symmetry_Int_Tables_number   1
_chemical_formula_structural   HfCd
_chemical_formula_sum   'Hf16 Cd16'
_cell_volume   680.64762486
_cell_formula_units_Z   16
loop_
 _symmetry_equiv_pos_site_id
 _symmetry_equiv_pos_as_xyz
  1  'x, y, z'
loop_
 _atom_site_type_symbol
 _atom_site_label
 _atom_site_symmetry_multiplicity
 _atom_site_fract_x
 _atom_site_fract_y
 _atom_site_fract_z
 _atom_site_occupancy
  Hf  Hf0_0  1  0.37500000  0.37500000  0.44082083  1
  Hf  Hf0_1  1  0.37500000  0.37500000  0.94082084  1
  Hf  Hf0_2  1  0.37500000  0.87500000  0.44082083  1
  Hf  Hf0_3  1  0.37500000  0.87500000  0.94082084  1
  Hf  Hf0_4  1  0.87500000  0.37500000  0.44082083  1
  Hf  Hf0_5  1  0.87500000  0.37500000  0.94082084  1
  Hf  Hf0_6  1  0.87500000  0.87500000  0.44082083  1
  Hf  Hf0_7  1  0.87500000  0.87500000  0.94082084  1
  Hf  Hf1_0  1  0.12500000  0.12500000  0.05917916  1
  Hf  Hf1_1  1  0.12500000  0.12500000  0.55917916  1
  Hf  Hf1_2  1  0.12500000  0.62500000  0.05917916  1
  Hf  Hf1_3  1  0.12500000  0.62500000  0.55917916  1
  Hf  Hf1_4  1  0.62500000  0.12500000  0.05917916  1
  Hf  Hf1_5  1  0.62500000  0.12500000  0.55917916  1
  Hf  Hf1_6  1  0.62500000  0.62500000  0.05917916  1
  Hf  Hf1_7  1  0.62500000  0.62500000  0.55917916  1
  Cd  Cd0_0  1  0.37500000  0.37500000  0.18873717  1
  Cd  Cd0_1  1  0.37500000  0.37500000  0.68873716  1
  Cd  Cd0_2  1  0.37500000  0.87500000  0.18873717  1
  Cd  Cd0_3  1  0.37500000  0.87500000  0.68873716  1
  Cd  Cd0_4  1  0.87500000  0.37500000  0.18873717  1
  Cd  Cd0_5  1  0.87500000  0.37500000  0.68873716  1
  Cd  Cd0_6  1  0.87500000  0.87500000  0.18873717  1
  Cd  Cd0_7  1  0.87500000  0.87500000  0.68873716  1
  Cd  Cd1_0  1  0.12500000  0.12500000  0.31126283  1
  Cd  Cd1_1  1  0.12500000  0.12500000  0.81126283  1
  Cd  Cd1_2  1  0.12500000  0.62500000  0.31126283  1
  Cd  Cd1_3  1  0.12500000  0.62500000  0.81126283  1
  Cd  Cd1_4  1  0.62500000  0.12500000  0.31126283  1
  Cd  Cd1_5  1  0.62500000  0.12500000  0.81126283  1
  Cd  Cd1_6  1  0.62500000  0.62500000  0.31126283  1
  Cd  Cd1_7  1  0.62500000  0.62500000  0.81126283  1
loop_
_geom_bond_atom_site_label_1
_geom_bond_atom_site_label_2
_geom_bond_distance
_geom_bond_site_symmetry_2
Hf0_0 Hf0_4 3.047264 1_455
Hf0_0 Hf0_2 3.047264 1_545
Hf0_0 Hf0_2 3.047264 1_555
Hf0_0 Hf0_4 3.047264 1_555
Hf0_0 Hf1_1 3.057298 1_555
Hf0_0 Hf1_5 3.057298 1_555
Hf0_0 Hf1_3 3.057298 1_555
Hf0_0 Hf1_7 3.057298 1_555
Hf0_1 Hf0_3 3.047264 1_545
Hf0_1 Hf0_5 3.047264 1_455
Hf0_1 Hf0_3 3.047264 1_555
Hf0_1 Hf0_5 3.047264 1_555
Hf0_1 Hf1_0 3.057298 1_556
Hf0_1 Hf1_2 3.057298 1_556
Hf0_1 Hf1_4 3.057298 1_556
Hf0_1 Hf1_6 3.057298 1_556
Hf0_2 Hf0_6 3.047264 1_455
Hf0_2 Hf0_6 3.047264 1_555
Hf0_2 Hf1_1 3.057298 1_565
Hf0_2 Hf1_3 3.057298 1_555
Hf0_2 Hf1_5 3.057298 1_565
Hf0_2 Hf1_7 3.057298 1_555
Hf0_3 Hf0_7 3.047264 1_455
Hf0_3 Hf0_7 3.047264 1_555
Hf0_3 Hf1_2 3.057298 1_556
Hf0_3 Hf1_0 3.057298 1_566
Hf0_3 Hf1_4 3.057298 1_566
Hf0_3 Hf1_6 3.057298 1_556
Hf0_4 Hf0_6 3.047264 1_545
Hf0_4 Hf0_6 3.047264 1_555
Hf0_4 Hf1_5 3.057298 1_555
Hf0_4 Hf1_1 3.057298 1_655
Hf0_4 Hf1_7 3.057298 1_555
Hf0_4 Hf1_3 3.057298 1_655
Hf0_5 Hf0_7 3.047264 1_545
Hf0_5 Hf0_7 3.047264 1_555
Hf0_5 Hf1_4 3.057298 1_556
Hf0_5 Hf1_0 3.057298 1_656
Hf0_5 Hf1_2 3.057298 1_656
Hf0_5 Hf1_6 3.057298 1_556
Hf0_6 Hf1_1 3.057298 1_665
Hf0_6 Hf1_7 3.057298 1_555
Hf0_6 Hf1_3 3.057298 1_655
Hf0_6 Hf1_5 3.057298 1_565
Hf0_7 Hf1_0 3.057298 1_666
Hf0_7 Hf1_4 3.057298 1_566
Hf0_7 Hf1_2 3.057298 1_656
Hf0_7 Hf1_6 3.057298 1_556
Hf1_0 Hf1_2 3.047264 1_545
Hf1_0 Hf1_4 3.047264 1_555
Hf1_0 Hf1_2 3.047264 1_555
Hf1_0 Hf1_4 3.047264 1_455
Hf1_1 Hf1_3 3.047264 1_545
Hf1_1 Hf1_5 3.047264 1_455
Hf1_1 Hf1_5 3.047264 1_555
Hf1_1 Hf1_3 3.047264 1_555
Hf1_2 Hf1_6 3.047264 1_455
Hf1_2 Hf1_6 3.047264 1_555
Hf1_3 Hf1_7 3.047264 1_455
Hf1_3 Hf1_7 3.047264 1_555
Hf1_4 Hf1_6 3.047264 1_545
Hf1_4 Hf1_6 3.047264 1_555
Hf1_5 Hf1_7 3.047264 1_555
Hf1_5 Hf1_7 3.047264 1_545
Cd0_0 Cd0_2 3.047264 1_545
Cd0_0 Cd0_4 3.047264 1_455
Cd0_0 Cd0_4 3.047264 1_555
Cd0_0 Cd0_2 3.047264 1_555
Cd0_0 Cd1_0 3.111939 1_555
Cd0_0 Cd1_2 3.111939 1_555
Cd0_0 Cd1_4 3.111939 1_555
Cd0_0 Cd1_6 3.111939 1_555
Cd0_0 Hf1_0 3.206159 1_555
Cd0_0 Hf1_6 3.206159 1_555
Cd0_0 Hf1_4 3.206159 1_555
Cd0_0 Hf1_2 3.206159 1_555
Cd0_1 Cd0_3 3.047264 1_545
Cd0_1 Cd0_5 3.047264 1_455
Cd0_1 Cd0_3 3.047264 1_555
Cd0_1 Cd0_5 3.047264 1_555
Cd0_1 Cd1_1 3.111939 1_555
Cd0_1 Cd1_5 3.111939 1_555
Cd0_1 Cd1_3 3.111939 1_555
Cd0_1 Cd1_7 3.111939 1_555
Cd0_1 Hf1_1 3.206159 1_555
Cd0_1 Hf1_3 3.206159 1_555
Cd0_1 Hf1_5 3.206159 1_555
Cd0_1 Hf1_7 3.206159 1_555
Cd0_2 Cd0_6 3.047264 1_455
Cd0_2 Cd0_6 3.047264 1_555
Cd0_2 Cd1_4 3.111939 1_565
Cd0_2 Cd1_2 3.111939 1_555
Cd0_2 Cd1_0 3.111939 1_565
Cd0_2 Cd1_6 3.111939 1_555
Cd0_2 Hf1_2 3.206159 1_555
Cd0_2 Hf1_0 3.206159 1_565
Cd0_2 Hf1_6 3.206159 1_555
Cd0_2 Hf1_4 3.206159 1_565
Cd0_3 Cd0_7 3.047264 1_455
Cd0_3 Cd0_7 3.047264 1_555
Cd0_3 Cd1_3 3.111939 1_555
Cd0_3 Cd1_1 3.111939 1_565
Cd0_3 Cd1_5 3.111939 1_565
Cd0_3 Cd1_7 3.111939 1_555
Cd0_3 Hf1_1 3.206159 1_565
Cd0_3 Hf1_3 3.206159 1_555
Cd0_3 Hf1_5 3.206159 1_565
Cd0_3 Hf1_7 3.206159 1_555
Cd0_4 Cd0_6 3.047264 1_545
Cd0_4 Cd0_6 3.047264 1_555
Cd0_4 Cd1_2 3.111939 1_655
Cd0_4 Cd1_4 3.111939 1_555
Cd0_4 Cd1_6 3.111939 1_555
Cd0_4 Cd1_0 3.111939 1_655
Cd0_4 Hf1_0 3.206159 1_655
Cd0_4 Hf1_4 3.206159 1_555
Cd0_4 Hf1_6 3.206159 1_555
Cd0_4 Hf1_2 3.206159 1_655
Cd0_5 Cd0_7 3.047264 1_545
Cd0_5 Cd0_7 3.047264 1_555
Cd0_5 Cd1_5 3.111939 1_555
Cd0_5 Cd1_1 3.111939 1_655
Cd0_5 Cd1_7 3.111939 1_555
Cd0_5 Cd1_3 3.111939 1_655
Cd0_5 Hf1_1 3.206159 1_655
Cd0_5 Hf1_5 3.206159 1_555
Cd0_5 Hf1_7 3.206159 1_555
Cd0_5 Hf1_3 3.206159 1_655
Cd0_6 Cd1_4 3.111939 1_565
Cd0_6 Cd1_2 3.111939 1_655
Cd0_6 Cd1_6 3.111939 1_555
Cd0_6 Cd1_0 3.111939 1_665
Cd0_6 Hf1_6 3.206159 1_555
Cd0_6 Hf1_0 3.206159 1_665
Cd0_6 Hf1_2 3.206159 1_655
Cd0_6 Hf1_4 3.206159 1_565
Cd0_7 Cd1_3 3.111939 1_655
Cd0_7 Cd1_1 3.111939 1_665
Cd0_7 Cd1_5 3.111939 1_565
Cd0_7 Cd1_7 3.111939 1_555
Cd0_7 Hf1_5 3.206159 1_565
Cd0_7 Hf1_1 3.206159 1_665
Cd0_7 Hf1_7 3.206159 1_555
Cd0_7 Hf1_3 3.206159 1_655
Cd1_0 Cd1_2 3.047264 1_555
Cd1_0 Cd1_4 3.047264 1_455
Cd1_0 Cd1_2 3.047264 1_545
Cd1_0 Cd1_4 3.047264 1_555
Cd1_0 Hf0_0 3.206159 1_555
Cd1_0 Hf0_4 3.206159 1_455
Cd1_0 Hf0_2 3.206159 1_545
Cd1_0 Hf0_6 3.206159 1_445
Cd1_1 Cd1_5 3.047264 1_555
Cd1_1 Cd1_3 3.047264 1_555
Cd1_1 Cd1_5 3.047264 1_455
Cd1_1 Cd1_3 3.047264 1_545
Cd1_1 Hf0_1 3.206159 1_555
Cd1_1 Hf0_5 3.206159 1_455
Cd1_1 Hf0_3 3.206159 1_545
Cd1_1 Hf0_7 3.206159 1_445
Cd1_2 Cd1_6 3.047264 1_455
Cd1_2 Cd1_6 3.047264 1_555
Cd1_2 Hf0_2 3.206159 1_555
Cd1_2 Hf0_6 3.206159 1_455
Cd1_2 Hf0_0 3.206159 1_555
Cd1_2 Hf0_4 3.206159 1_455
Cd1_3 Cd1_7 3.047264 1_455
Cd1_3 Cd1_7 3.047264 1_555
Cd1_3 Hf0_3 3.206159 1_555
Cd1_3 Hf0_1 3.206159 1_555
Cd1_3 Hf0_7 3.206159 1_455
Cd1_3 Hf0_5 3.206159 1_455
Cd1_4 Cd1_6 3.047264 1_545
Cd1_4 Cd1_6 3.047264 1_555
Cd1_4 Hf0_4 3.206159 1_555
Cd1_4 Hf0_6 3.206159 1_545
Cd1_4 Hf0_0 3.206159 1_555
Cd1_4 Hf0_2 3.206159 1_545
Cd1_5 Cd1_7 3.047264 1_545
Cd1_5 Cd1_7 3.047264 1_555
Cd1_5 Hf0_5 3.206159 1_555
Cd1_5 Hf0_7 3.206159 1_545
Cd1_5 Hf0_1 3.206159 1_555
Cd1_5 Hf0_3 3.206159 1_545
Cd1_6 Hf0_2 3.206159 1_555
Cd1_6 Hf0_0 3.206159 1_555
Cd1_6 Hf0_4 3.206159 1_555
Cd1_6 Hf0_6 3.206159 1_555
Cd1_7 Hf0_7 3.206159 1_555
Cd1_7 Hf0_3 3.206159 1_555
Cd1_7 Hf0_1 3.206159 1_555
Cd1_7 Hf0_5 3.206159 1_555
