# generated using pymatgen
data_Zr6Ga2Fe
_symmetry_space_group_name_H-M   'P 1'
_cell_length_a   7.84660408
_cell_length_b   7.84660741
_cell_length_c   3.35401696
_cell_angle_alpha   90.00000000
_cell_angle_beta   90.00000000
_cell_angle_gamma   120.00002249
_symmetry_Int_Tables_number   1
_chemical_formula_structural   Zr6Ga2Fe
_chemical_formula_sum   'Zr6 Ga2 Fe1'
_cell_volume   178.83785475
_cell_formula_units_Z   1
loop_
 _symmetry_equiv_pos_site_id
 _symmetry_equiv_pos_as_xyz
  1  'x, y, z'
loop_
 _atom_site_type_symbol
 _atom_site_label
 _atom_site_symmetry_multiplicity
 _atom_site_fract_x
 _atom_site_fract_y
 _atom_site_fract_z
 _atom_site_occupancy
  Zr  Zr0  1  0.24939128  0.00000100  0.50000000  1
  Zr  Zr1  1  -0.00000000  0.24938928  0.50000000  1
  Zr  Zr2  1  0.75060872  0.75060972  0.50000000  1
  Zr  Zr3  1  0.59746103  0.99999900  0.00000000  1
  Zr  Zr4  1  -0.00000000  0.59746203  0.00000000  1
  Zr  Zr5  1  0.40253897  0.40253897  -0.00000000  1
  Ga  Ga0  1  0.33333400  0.66666800  0.50000000  1
  Ga  Ga1  1  0.66666600  0.33333200  0.50000000  1
  Fe  Fe0  1  -0.00000000  -0.00000000  0.00000000  1
loop_
_geom_bond_atom_site_label_1
_geom_bond_atom_site_label_2
_geom_bond_distance
_geom_bond_site_symmetry_2
Ga0 Zr3 2.920254 1_555
Ga0 Zr3 2.920254 1_556
Ga0 Zr4 2.920268 1_555
Ga0 Zr4 2.920268 1_556
Ga0 Zr5 2.920271 1_556
Ga0 Zr5 2.920271 1_555
Ga0 Zr2 2.999596 1_555
Ga0 Zr0 2.999603 1_565
Ga0 Zr1 2.999619 1_555
Ga1 Zr3 2.920265 1_545
Ga1 Zr3 2.920265 1_546
Ga1 Zr5 2.920267 1_556
Ga1 Zr5 2.920267 1_555
Ga1 Zr4 2.920272 1_656
Ga1 Zr4 2.920272 1_655
Ga1 Zr0 2.999590 1_555
Ga1 Zr1 2.999609 1_655
Ga1 Zr2 2.999618 1_555
Fe0 Zr1 2.577141 1_555
Fe0 Zr1 2.577141 1_554
Fe0 Zr2 2.577149 1_445
Fe0 Zr2 2.577149 1_444
Fe0 Zr0 2.577150 1_555
Fe0 Zr0 2.577150 1_554
Fe0 Zr4 3.158557 1_545
Fe0 Zr3 3.158560 1_445
Fe0 Zr5 3.158564 1_555
