# generated using pymatgen
data_GdCo2Ni2B
_symmetry_space_group_name_H-M   'P 1'
_cell_length_a   5.03061943
_cell_length_b   5.03061943
_cell_length_c   6.84239300
_cell_angle_alpha   90.00000000
_cell_angle_beta   90.00000000
_cell_angle_gamma   120.12730939
_symmetry_Int_Tables_number   1
_chemical_formula_structural   GdCo2Ni2B
_chemical_formula_sum   'Gd2 Co4 Ni4 B2'
_cell_volume   149.76937126
_cell_formula_units_Z   2
loop_
 _symmetry_equiv_pos_site_id
 _symmetry_equiv_pos_as_xyz
  1  'x, y, z'
loop_
 _atom_site_type_symbol
 _atom_site_label
 _atom_site_symmetry_multiplicity
 _atom_site_fract_x
 _atom_site_fract_y
 _atom_site_fract_z
 _atom_site_occupancy
  Gd  Gd0  1  0.00000000  0.00000000  0.00261800  1
  Gd  Gd1  1  0.00000000  0.00000000  0.49901300  1
  Co  Co0  1  0.50000000  0.50000000  0.70657000  1
  Co  Co1  1  0.50000000  0.00000000  0.29052800  1
  Co  Co2  1  0.00000000  0.50000000  0.29052800  1
  Co  Co3  1  0.50000000  0.50000000  0.29284600  1
  Ni  Ni0  1  0.66422300  0.33577700  0.00136900  1
  Ni  Ni1  1  0.33577700  0.66422300  0.00136900  1
  Ni  Ni2  1  0.50000000  0.00000000  0.70922300  1
  Ni  Ni3  1  0.00000000  0.50000000  0.70922300  1
  B  B0  1  0.66560300  0.33439700  0.49810000  1
  B  B1  1  0.33439700  0.66560300  0.49810000  1
loop_
_geom_bond_atom_site_label_1
_geom_bond_atom_site_label_2
_geom_bond_distance
_geom_bond_site_symmetry_2
Gd0 Ni1 2.890101 1_445
Gd0 Ni0 2.890101 1_445
Gd0 Ni0 2.890101 1_555
Gd0 Ni1 2.890101 1_555
Gd0 Ni0 2.927609 1_455
Gd0 Ni1 2.927609 1_545
Gd1 Ni2 2.897517 1_455
Gd1 Ni3 2.897517 1_555
Gd1 Ni2 2.897517 1_555
Gd1 Ni3 2.897517 1_545
Co0 Ni1 2.473657 1_556
Co0 Ni0 2.473657 1_556
Co0 Gd1 2.884333 1_555
Co0 Gd1 2.884333 1_665
Co1 Ni1 2.459584 1_545
Co1 Ni0 2.459584 1_555
Co1 Gd1 2.891676 1_655
Co1 Gd1 2.891676 1_555
Co2 Ni0 2.459584 1_455
Co2 Ni1 2.459584 1_555
Co2 Gd1 2.891676 1_555
Co2 Gd1 2.891676 1_565
Co3 Ni0 2.455157 1_555
Co3 Ni1 2.455157 1_555
Co3 Gd1 2.879662 1_555
Co3 Gd1 2.879662 1_665
Ni0 Ni2 2.476055 1_554
Ni0 Ni3 2.476055 1_654
Ni1 Ni2 2.476055 1_564
Ni1 Ni3 2.476055 1_554
B0 Co3 2.014245 1_555
B0 Co0 2.029650 1_555
B0 Co1 2.033299 1_555
B0 Co2 2.033299 1_655
B0 Ni2 2.050345 1_555
B0 Ni3 2.050345 1_655
B0 Gd1 2.896075 1_665
B0 Gd1 2.896075 1_555
B0 Gd1 2.915571 1_655
B1 Co3 2.014245 1_555
B1 Co0 2.029650 1_555
B1 Co2 2.033299 1_555
B1 Co1 2.033299 1_565
B1 Ni2 2.050345 1_565
B1 Ni3 2.050345 1_555
B1 Gd1 2.896075 1_555
B1 Gd1 2.896075 1_665
B1 Gd1 2.915571 1_565
