# generated using pymatgen
data_SnH4(Cl2O)2
_symmetry_space_group_name_H-M   'P 1'
_cell_length_a   9.71556700
_cell_length_b   7.81917300
_cell_length_c   11.57053000
_cell_angle_alpha   90.00000000
_cell_angle_beta   90.00000000
_cell_angle_gamma   90.00000000
_symmetry_Int_Tables_number   1
_chemical_formula_structural   SnH4(Cl2O)2
_chemical_formula_sum   'Sn4 H16 Cl16 O8'
_cell_volume   878.98654223
_cell_formula_units_Z   4
loop_
 _symmetry_equiv_pos_site_id
 _symmetry_equiv_pos_as_xyz
  1  'x, y, z'
loop_
 _atom_site_type_symbol
 _atom_site_label
 _atom_site_symmetry_multiplicity
 _atom_site_fract_x
 _atom_site_fract_y
 _atom_site_fract_z
 _atom_site_occupancy
  Sn  Sn0  1  0.00000000  0.92589300  0.75000000  1
  Sn  Sn1  1  0.50000000  0.57410700  0.25000000  1
  Sn  Sn2  1  0.00000000  0.07410700  0.25000000  1
  Sn  Sn3  1  0.50000000  0.42589300  0.75000000  1
  H  H0  1  0.97897600  0.18295200  0.57156600  1
  H  H1  1  0.52102400  0.31704800  0.07156600  1
  H  H2  1  0.47897600  0.31704800  0.42843400  1
  H  H3  1  0.02102400  0.18295200  0.92843400  1
  H  H4  1  0.02102400  0.81704800  0.42843400  1
  H  H5  1  0.47897600  0.68295200  0.92843400  1
  H  H6  1  0.52102400  0.68295200  0.57156600  1
  H  H7  1  0.97897600  0.81704800  0.07156600  1
  H  H8  1  0.83094900  0.17196300  0.63465700  1
  H  H9  1  0.66905100  0.32803700  0.13465700  1
  H  H10  1  0.33094900  0.32803700  0.36534300  1
  H  H11  1  0.16905100  0.17196300  0.86534300  1
  H  H12  1  0.16905100  0.82803700  0.36534300  1
  H  H13  1  0.33094900  0.67196300  0.86534300  1
  H  H14  1  0.66905100  0.67196300  0.63465700  1
  H  H15  1  0.83094900  0.82803700  0.13465700  1
  Cl  Cl0  1  0.08500800  0.72364100  0.89478400  1
  Cl  Cl1  1  0.41499200  0.77635900  0.39478400  1
  Cl  Cl2  1  0.58500800  0.77635900  0.10521600  1
  Cl  Cl3  1  0.91499200  0.72364100  0.60521600  1
  Cl  Cl4  1  0.91499200  0.27635900  0.10521600  1
  Cl  Cl5  1  0.58500800  0.22364100  0.60521600  1
  Cl  Cl6  1  0.41499200  0.22364100  0.89478400  1
  Cl  Cl7  1  0.08500800  0.27635900  0.39478400  1
  Cl  Cl8  1  0.21479800  0.96720600  0.65758800  1
  Cl  Cl9  1  0.28520200  0.53279400  0.15758800  1
  Cl  Cl10  1  0.71479800  0.53279400  0.34241200  1
  Cl  Cl11  1  0.78520200  0.96720600  0.84241200  1
  Cl  Cl12  1  0.78520200  0.03279400  0.34241200  1
  Cl  Cl13  1  0.71479800  0.46720600  0.84241200  1
  Cl  Cl14  1  0.28520200  0.46720600  0.65758800  1
  Cl  Cl15  1  0.21479800  0.03279400  0.15758800  1
  O  O0  1  0.93028400  0.14923300  0.64238400  1
  O  O1  1  0.56971600  0.35076700  0.14238400  1
  O  O2  1  0.43028400  0.35076700  0.35761600  1
  O  O3  1  0.06971600  0.14923300  0.85761600  1
  O  O4  1  0.06971600  0.85076700  0.35761600  1
  O  O5  1  0.43028400  0.64923300  0.85761600  1
  O  O6  1  0.56971600  0.64923300  0.64238400  1
  O  O7  1  0.93028400  0.85076700  0.14238400  1
loop_
_geom_bond_atom_site_label_1
_geom_bond_atom_site_label_2
_geom_bond_distance
_geom_bond_site_symmetry_2
H0 O0 0.982206 1_555
H1 O1 0.982206 1_555
H2 O2 0.982206 1_555
H3 O3 0.982206 1_555
H4 O4 0.982206 1_555
H5 O5 0.982206 1_555
H6 O6 0.982206 1_555
H7 O7 0.982206 1_555
H8 O0 0.985389 1_555
H9 O1 0.985389 1_555
H10 O2 0.985389 1_555
H11 O3 0.985389 1_555
H12 O4 0.985389 1_555
H13 O5 0.985389 1_555
H14 O6 0.985389 1_555
H15 O7 0.985389 1_555
Cl0 Sn0 2.447338 1_555
Cl1 Sn1 2.447338 1_555
Cl2 Sn1 2.447338 1_555
Cl3 Sn0 2.447338 1_655
Cl4 Sn2 2.447338 1_655
Cl5 Sn3 2.447338 1_555
Cl6 Sn3 2.447338 1_555
Cl7 Sn2 2.447338 1_555
Cl8 Sn0 2.367012 1_555
Cl9 Sn1 2.367012 1_555
Cl10 Sn1 2.367012 1_555
Cl11 Sn0 2.367012 1_655
Cl12 Sn2 2.367012 1_655
Cl13 Sn3 2.367012 1_555
Cl14 Sn3 2.367012 1_555
Cl15 Sn2 2.367012 1_555
O0 Sn0 2.249204 1_645
O1 Sn1 2.249204 1_555
O2 Sn1 2.249204 1_555
O3 Sn0 2.249204 1_545
O4 Sn2 2.249204 1_565
O5 Sn3 2.249204 1_555
O6 Sn3 2.249204 1_555
O7 Sn2 2.249204 1_665
