# generated using pymatgen
data_NaHo9(Si3O13)2
_symmetry_space_group_name_H-M   'P 1'
_cell_length_a   9.41753564
_cell_length_b   9.41753564
_cell_length_c   6.77180200
_cell_angle_alpha   90.00000000
_cell_angle_beta   90.00000000
_cell_angle_gamma   119.99999746
_symmetry_Int_Tables_number   1
_chemical_formula_structural   NaHo9(Si3O13)2
_chemical_formula_sum   'Na1 Ho9 Si6 O26'
_cell_volume   520.12704807
_cell_formula_units_Z   1
loop_
 _symmetry_equiv_pos_site_id
 _symmetry_equiv_pos_as_xyz
  1  'x, y, z'
loop_
 _atom_site_type_symbol
 _atom_site_label
 _atom_site_symmetry_multiplicity
 _atom_site_fract_x
 _atom_site_fract_y
 _atom_site_fract_z
 _atom_site_occupancy
  Na  Na0  1  0.00000000  0.00000000  0.50366000  1
  Ho  Ho0  1  0.10098400  0.66942200  0.25104300  1
  Ho  Ho1  1  0.56843900  0.89901600  0.25104300  1
  Ho  Ho2  1  0.33057800  0.43156100  0.25104300  1
  Ho  Ho3  1  0.56974500  0.66903900  0.74933900  1
  Ho  Ho4  1  0.09929400  0.43025500  0.74933900  1
  Ho  Ho5  1  0.33096100  0.90070600  0.74933900  1
  Ho  Ho6  1  0.66666700  0.33333300  0.00242200  1
  Ho  Ho7  1  0.66666700  0.33333300  0.49858900  1
  Ho  Ho8  1  0.00000000  0.00000000  0.99718000  1
  Si  Si0  1  0.96030000  0.26503600  0.25052100  1
  Si  Si1  1  0.30473600  0.03970000  0.25052100  1
  Si  Si2  1  0.73496400  0.69526400  0.25052100  1
  Si  Si3  1  0.70471000  0.06411400  0.75264500  1
  Si  Si4  1  0.35940400  0.29529000  0.75264500  1
  Si  Si5  1  0.93588600  0.64059600  0.75264500  1
  O  O0  1  0.33333300  0.66666700  0.24653100  1
  O  O1  1  0.33333300  0.66666700  0.74941200  1
  O  O2  1  0.83857700  0.34367900  0.25122900  1
  O  O3  1  0.50510200  0.16142300  0.25122900  1
  O  O4  1  0.65632100  0.49489800  0.25122900  1
  O  O5  1  0.81751000  0.98116000  0.76179400  1
  O  O6  1  0.16365000  0.18249000  0.76179400  1
  O  O7  1  0.01884000  0.83635000  0.76179400  1
  O  O8  1  0.80310300  0.26786600  0.75003400  1
  O  O9  1  0.46476300  0.19689700  0.75003400  1
  O  O10  1  0.73213400  0.53523700  0.75003400  1
  O  O11  1  0.85542700  0.06569600  0.23660300  1
  O  O12  1  0.21026900  0.14457300  0.23660300  1
  O  O13  1  0.93430400  0.78973100  0.23660300  1
  O  O14  1  0.08522300  0.33074400  0.05879000  1
  O  O15  1  0.24552100  0.91477700  0.05879000  1
  O  O16  1  0.66925600  0.75447900  0.05879000  1
  O  O17  1  0.58254200  0.00807800  0.55838300  1
  O  O18  1  0.42553600  0.41745800  0.55838300  1
  O  O19  1  0.99192200  0.57446400  0.55838300  1
  O  O20  1  0.57759700  0.00893700  0.94260400  1
  O  O21  1  0.43134000  0.42240300  0.94260400  1
  O  O22  1  0.99106300  0.56866000  0.94260400  1
  O  O23  1  0.08765200  0.33959800  0.43774300  1
  O  O24  1  0.25194600  0.91234800  0.43774300  1
  O  O25  1  0.66040200  0.74805400  0.43774300  1
loop_
_geom_bond_atom_site_label_1
_geom_bond_atom_site_label_2
_geom_bond_distance
_geom_bond_site_symmetry_2
Na0 O7 2.394948 1_545
Na0 O5 2.394948 1_445
Na0 O6 2.394948 1_555
Na0 O11 2.519803 1_455
Na0 O13 2.519803 1_445
Na0 O12 2.519803 1_555
Na0 O24 2.910153 1_545
Na0 O23 2.910153 1_555
Na0 O25 2.910153 1_445
Ho0 O0 2.201454 1_555
Ho0 O19 2.295153 1_455
Ho0 O22 2.313520 1_454
Ho0 O13 2.352827 1_455
Ho0 O24 2.366647 1_555
Ho0 O15 2.396166 1_555
Ho0 O2 2.817224 1_455
Ho1 O0 2.201464 1_555
Ho1 O17 2.295154 1_565
Ho1 O20 2.313522 1_564
Ho1 O11 2.352820 1_565
Ho1 O25 2.366641 1_555
Ho1 O16 2.396160 1_555
Ho1 O3 2.817230 1_565
Ho2 O0 2.201473 1_555
Ho2 O18 2.295150 1_555
Ho2 O21 2.313518 1_554
Ho2 O12 2.352819 1_555
Ho2 O23 2.366648 1_555
Ho2 O14 2.396167 1_555
Ho2 O4 2.817221 1_555
Ho3 O1 2.215334 1_555
Ho3 O25 2.258254 1_555
Ho3 O16 2.272205 1_556
Ho3 O21 2.404004 1_555
Ho3 O10 2.419434 1_555
Ho3 O18 2.431528 1_555
Ho3 O5 2.689437 1_555
Ho4 O1 2.215329 1_555
Ho4 O23 2.258254 1_555
Ho4 O14 2.272205 1_556
Ho4 O22 2.404004 1_455
Ho4 O8 2.419434 1_455
Ho4 O19 2.431528 1_455
Ho4 O6 2.689437 1_555
Ho5 O1 2.215324 1_555
Ho5 O24 2.258254 1_555
Ho5 O15 2.272205 1_556
Ho5 O20 2.404004 1_565
Ho5 O9 2.419434 1_565
Ho5 O17 2.431528 1_565
Ho5 O7 2.689437 1_555
Ho6 O2 2.304692 1_555
Ho6 O3 2.304694 1_555
Ho6 O4 2.304698 1_555
Ho6 O8 2.396736 1_554
Ho6 O9 2.396741 1_554
Ho6 O10 2.396742 1_554
Ho6 O20 2.763728 1_554
Ho6 O22 2.763730 1_554
Ho6 O21 2.763737 1_554
Ho7 O2 2.297538 1_555
Ho7 O3 2.297541 1_555
Ho7 O4 2.297544 1_555
Ho7 O8 2.392187 1_555
Ho7 O9 2.392192 1_555
Ho7 O10 2.392193 1_555
Ho7 O17 2.783426 1_555
Ho7 O19 2.783428 1_555
Ho7 O18 2.783435 1_555
Ho8 O7 2.284941 1_545
Ho8 O5 2.284941 1_445
Ho8 O6 2.284941 1_555
Ho8 O11 2.389055 1_456
Ho8 O13 2.389055 1_446
Ho8 O12 2.389055 1_556
O2 Si0 1.646699 1_555
O3 Si1 1.646699 1_555
O4 Si2 1.646699 1_555
O5 Si3 1.603906 1_565
O6 Si4 1.603906 1_555
O7 Si5 1.603906 1_455
O8 Si3 1.662183 1_555
O9 Si4 1.662183 1_555
O10 Si5 1.662183 1_555
O11 Si0 1.629249 1_555
O12 Si1 1.629249 1_555
O13 Si2 1.629249 1_555
O14 Si0 1.650679 1_455
O15 Si1 1.650679 1_565
O16 Si2 1.650679 1_555
O17 Si3 1.650935 1_555
O18 Si4 1.650935 1_555
O19 Si5 1.650935 1_555
O20 Si3 1.654005 1_555
O21 Si4 1.654005 1_555
O22 Si5 1.654005 1_555
O23 Si0 1.642169 1_455
O24 Si1 1.642169 1_565
O25 Si2 1.642169 1_555
