# generated using pymatgen
data_Fe2B7
_symmetry_space_group_name_H-M   'P 1'
_cell_length_a   2.88855400
_cell_length_b   10.61792700
_cell_length_c   16.86003500
_cell_angle_alpha   90.00000000
_cell_angle_beta   90.00000000
_cell_angle_gamma   90.00000000
_symmetry_Int_Tables_number   1
_chemical_formula_structural   Fe2B7
_chemical_formula_sum   'Fe16 B56'
_cell_volume   517.10495332
_cell_formula_units_Z   8
loop_
 _symmetry_equiv_pos_site_id
 _symmetry_equiv_pos_as_xyz
  1  'x, y, z'
loop_
 _atom_site_type_symbol
 _atom_site_label
 _atom_site_symmetry_multiplicity
 _atom_site_fract_x
 _atom_site_fract_y
 _atom_site_fract_z
 _atom_site_occupancy
  Fe  Fe0  1  0.50000000  0.96792000  0.27853900  1
  Fe  Fe1  1  0.50000000  0.03208000  0.72146100  1
  Fe  Fe2  1  0.50000000  0.53208000  0.77853900  1
  Fe  Fe3  1  0.50000000  0.46792000  0.22146100  1
  Fe  Fe4  1  0.00000000  0.68019600  0.37887900  1
  Fe  Fe5  1  0.00000000  0.31980400  0.62112100  1
  Fe  Fe6  1  0.00000000  0.81980400  0.87887900  1
  Fe  Fe7  1  0.00000000  0.18019600  0.12112100  1
  Fe  Fe8  1  0.50000000  0.60672600  0.03360300  1
  Fe  Fe9  1  0.50000000  0.39327400  0.96639700  1
  Fe  Fe10  1  0.50000000  0.89327400  0.53360300  1
  Fe  Fe11  1  0.50000000  0.10672600  0.46639700  1
  Fe  Fe12  1  0.00000000  0.76567200  0.11350100  1
  Fe  Fe13  1  0.00000000  0.23432800  0.88649900  1
  Fe  Fe14  1  0.00000000  0.73432800  0.61350100  1
  Fe  Fe15  1  0.00000000  0.26567200  0.38649900  1
  B  B0  1  0.00000000  0.55184800  0.13175000  1
  B  B1  1  0.00000000  0.44815200  0.86825000  1
  B  B2  1  0.00000000  0.94815200  0.63175000  1
  B  B3  1  0.00000000  0.05184800  0.36825000  1
  B  B4  1  0.00000000  0.96099800  0.45266800  1
  B  B5  1  0.00000000  0.03900200  0.54733200  1
  B  B6  1  0.00000000  0.53900200  0.95266800  1
  B  B7  1  0.00000000  0.46099800  0.04733200  1
  B  B8  1  0.00000000  0.89169000  0.19702100  1
  B  B9  1  0.00000000  0.10831000  0.80297900  1
  B  B10  1  0.00000000  0.60831000  0.69702100  1
  B  B11  1  0.00000000  0.39169000  0.30297900  1
  B  B12  1  0.00000000  0.87517600  0.35933000  1
  B  B13  1  0.00000000  0.12482400  0.64067000  1
  B  B14  1  0.00000000  0.62482400  0.85933000  1
  B  B15  1  0.00000000  0.37517600  0.14067000  1
  B  B16  1  0.50000000  0.90245100  0.05534200  1
  B  B17  1  0.50000000  0.09754900  0.94465800  1
  B  B18  1  0.50000000  0.59754900  0.55534200  1
  B  B19  1  0.50000000  0.40245100  0.44465800  1
  B  B20  1  0.00000000  0.54416700  0.29916000  1
  B  B21  1  0.00000000  0.45583300  0.70084000  1
  B  B22  1  0.00000000  0.95583300  0.79916000  1
  B  B23  1  0.00000000  0.04416700  0.20084000  1
  B  B24  1  0.50000000  0.78747700  0.20979500  1
  B  B25  1  0.50000000  0.21252300  0.79020500  1
  B  B26  1  0.50000000  0.71252300  0.70979500  1
  B  B27  1  0.50000000  0.28747700  0.29020500  1
  B  B28  1  0.00000000  0.80481400  0.46687400  1
  B  B29  1  0.00000000  0.19518600  0.53312600  1
  B  B30  1  0.00000000  0.69518600  0.96687400  1
  B  B31  1  0.00000000  0.30481400  0.03312600  1
  B  B32  1  0.00000000  0.97584000  0.10097100  1
  B  B33  1  0.00000000  0.02416000  0.89902900  1
  B  B34  1  0.00000000  0.52416000  0.60097100  1
  B  B35  1  0.00000000  0.47584000  0.39902900  1
  B  B36  1  0.50000000  0.55858800  0.44595500  1
  B  B37  1  0.50000000  0.44141200  0.55404500  1
  B  B38  1  0.50000000  0.94141200  0.94595500  1
  B  B39  1  0.50000000  0.05858800  0.05404500  1
  B  B40  1  0.50000000  0.71242900  0.48174500  1
  B  B41  1  0.50000000  0.28757100  0.51825500  1
  B  B42  1  0.50000000  0.78757100  0.98174500  1
  B  B43  1  0.50000000  0.21242900  0.01825500  1
  B  B44  1  0.50000000  0.63832500  0.16029200  1
  B  B45  1  0.50000000  0.36167500  0.83970800  1
  B  B46  1  0.50000000  0.86167500  0.66029200  1
  B  B47  1  0.50000000  0.13832500  0.33970800  1
  B  B48  1  0.50000000  0.64373000  0.28054200  1
  B  B49  1  0.50000000  0.35627000  0.71945800  1
  B  B50  1  0.50000000  0.85627000  0.78054200  1
  B  B51  1  0.50000000  0.14373000  0.21945800  1
  B  B52  1  0.50000000  0.79220500  0.32042400  1
  B  B53  1  0.50000000  0.20779500  0.67957600  1
  B  B54  1  0.50000000  0.70779500  0.82042400  1
  B  B55  1  0.50000000  0.29220500  0.17957600  1
loop_
_geom_bond_atom_site_label_1
_geom_bond_atom_site_label_2
_geom_bond_distance
_geom_bond_site_symmetry_2
B0 B7 1.719385 1_555
B0 B44 1.777811 1_455
B0 B44 1.777811 1_555
B0 B15 1.881909 1_555
B0 Fe8 2.272378 1_455
B0 Fe8 2.272378 1_555
B0 Fe3 2.273283 1_555
B0 Fe3 2.273283 1_455
B0 Fe12 2.291121 1_555
B1 B6 1.719385 1_555
B1 B45 1.777811 1_455
B1 B45 1.777811 1_555
B1 B14 1.881909 1_555
B1 Fe9 2.272378 1_455
B1 Fe9 2.272378 1_555
B1 Fe2 2.273283 1_455
B1 Fe2 2.273283 1_555
B1 Fe13 2.291121 1_555
B2 B5 1.719385 1_565
B2 B46 1.777811 1_455
B2 B46 1.777811 1_555
B2 Fe10 2.272378 1_455
B2 Fe10 2.272378 1_555
B2 Fe1 2.273283 1_465
B2 Fe1 2.273283 1_565
B2 Fe14 2.291121 1_555
B3 B4 1.719385 1_545
B3 B47 1.777811 1_455
B3 B47 1.777811 1_555
B3 Fe11 2.272378 1_455
B3 Fe11 2.272378 1_555
B3 Fe0 2.273283 1_445
B3 Fe0 2.273283 1_545
B3 Fe15 2.291121 1_555
B4 B5 1.798144 1_565
B4 Fe10 2.113071 1_555
B4 Fe10 2.113071 1_455
B4 Fe11 2.129259 1_565
B4 Fe11 2.129259 1_465
B5 Fe11 2.113071 1_555
B5 Fe11 2.113071 1_455
B5 Fe10 2.129259 1_445
B5 Fe10 2.129259 1_545
B6 B7 1.798144 1_556
B6 Fe8 2.113071 1_556
B6 Fe8 2.113071 1_456
B6 Fe9 2.129259 1_455
B6 Fe9 2.129259 1_555
B7 Fe9 2.113071 1_554
B7 Fe9 2.113071 1_454
B7 Fe8 2.129259 1_555
B7 Fe8 2.129259 1_455
B8 Fe12 1.942489 1_555
B8 Fe0 2.151752 1_555
B8 Fe0 2.151752 1_455
B9 Fe13 1.942489 1_555
B9 Fe1 2.151752 1_555
B9 Fe1 2.151752 1_455
B10 B21 1.620270 1_555
B10 B26 1.832135 1_455
B10 B26 1.832135 1_555
B10 B34 1.849545 1_555
B10 Fe14 1.942489 1_555
B10 Fe2 2.151752 1_455
B10 Fe2 2.151752 1_555
B11 B20 1.620270 1_555
B11 B27 1.832135 1_455
B11 B27 1.832135 1_555
B11 B35 1.849545 1_555
B11 Fe15 1.942489 1_555
B11 Fe3 2.151752 1_455
B11 Fe3 2.151752 1_555
B12 B52 1.814481 1_455
B12 B52 1.814481 1_555
B12 B4 1.818476 1_555
B12 B3 1.881909 1_565
B12 B28 1.961080 1_555
B12 Fe4 2.096356 1_555
B12 Fe0 2.216098 1_555
B12 Fe0 2.216098 1_455
B13 B53 1.814481 1_455
B13 B53 1.814481 1_555
B13 B5 1.818476 1_555
B13 B2 1.881909 1_545
B13 B29 1.961080 1_555
B13 Fe5 2.096356 1_555
B13 Fe1 2.216098 1_455
B13 Fe1 2.216098 1_555
B14 B54 1.814481 1_555
B14 B54 1.814481 1_455
B14 B6 1.818476 1_555
B14 B30 1.961080 1_555
B14 Fe6 2.096356 1_555
B14 Fe2 2.216098 1_455
B14 Fe2 2.216098 1_555
B15 B55 1.814481 1_455
B15 B55 1.814481 1_555
B15 B7 1.818476 1_555
B15 B31 1.961080 1_555
B15 Fe7 2.096356 1_555
B15 Fe3 2.216098 1_455
B15 Fe3 2.216098 1_555
B16 B39 1.657995 1_565
B16 B42 1.739996 1_554
B16 B32 1.812452 1_655
B16 B32 1.812452 1_555
B16 B38 1.890096 1_554
B16 Fe12 2.270824 1_655
B16 Fe12 2.270824 1_555
B17 B38 1.657995 1_545
B17 B43 1.739996 1_556
B17 B33 1.812452 1_655
B17 B33 1.812452 1_555
B17 B39 1.890096 1_556
B17 Fe13 2.270824 1_655
B17 Fe13 2.270824 1_555
B18 B37 1.657995 1_555
B18 B40 1.739996 1_555
B18 B34 1.812452 1_555
B18 B34 1.812452 1_655
B18 B36 1.890096 1_555
B18 Fe14 2.270824 1_555
B18 Fe14 2.270824 1_655
B19 B36 1.657995 1_555
B19 B41 1.739996 1_555
B19 B35 1.812452 1_555
B19 B35 1.812452 1_655
B19 B37 1.890096 1_555
B19 Fe15 2.270824 1_655
B19 Fe15 2.270824 1_555
B20 B48 1.817152 1_455
B20 B48 1.817152 1_555
B20 B35 1.833440 1_555
B20 Fe4 1.972979 1_555
B20 Fe3 2.111276 1_455
B20 Fe3 2.111276 1_555
B21 B49 1.817152 1_455
B21 B49 1.817152 1_555
B21 B34 1.833440 1_555
B21 Fe5 1.972979 1_555
B21 Fe2 2.111276 1_455
B21 Fe2 2.111276 1_555
B22 B9 1.620270 1_565
B22 B50 1.817152 1_555
B22 B50 1.817152 1_455
B22 B33 1.833440 1_565
B22 Fe6 1.972979 1_555
B22 Fe1 2.111276 1_465
B22 Fe1 2.111276 1_565
B23 B8 1.620270 1_545
B23 B51 1.817152 1_555
B23 B51 1.817152 1_455
B23 B32 1.833440 1_545
B23 Fe7 1.972979 1_555
B23 Fe0 2.111276 1_445
B23 Fe0 2.111276 1_545
B24 B44 1.790154 1_555
B24 B8 1.832135 1_655
B24 B8 1.832135 1_555
B24 B52 1.865884 1_555
B24 B48 1.937096 1_555
B24 Fe12 2.185259 1_655
B24 Fe12 2.185259 1_555
B24 Fe0 2.239226 1_555
B25 B45 1.790154 1_555
B25 B9 1.832135 1_555
B25 B9 1.832135 1_655
B25 B53 1.865884 1_555
B25 B49 1.937096 1_555
B25 Fe13 2.185259 1_655
B25 Fe13 2.185259 1_555
B25 Fe1 2.239226 1_555
B26 B46 1.790154 1_555
B26 B54 1.865884 1_555
B26 B50 1.937096 1_555
B26 Fe14 2.185259 1_555
B26 Fe14 2.185259 1_655
B26 Fe2 2.239226 1_555
B27 B47 1.790154 1_555
B27 B55 1.865884 1_555
B27 B51 1.937096 1_555
B27 Fe15 2.185259 1_655
B27 Fe15 2.185259 1_555
B27 Fe3 2.239226 1_555
B28 B4 1.675557 1_555
B28 B40 1.763813 1_455
B28 B40 1.763813 1_555
B28 Fe4 1.987934 1_555
B28 Fe10 2.057643 1_455
B28 Fe10 2.057643 1_555
B28 Fe14 2.582941 1_555
B29 B5 1.675557 1_555
B29 B41 1.763813 1_555
B29 B41 1.763813 1_455
B29 Fe5 1.987934 1_555
B29 Fe11 2.057643 1_555
B29 Fe11 2.057643 1_455
B29 Fe15 2.582941 1_555
B30 B6 1.675557 1_555
B30 B42 1.763813 1_455
B30 B42 1.763813 1_555
B30 Fe6 1.987934 1_555
B30 Fe8 2.057643 1_556
B30 Fe8 2.057643 1_456
B30 Fe12 2.582941 1_556
B31 B7 1.675557 1_555
B31 B43 1.763813 1_555
B31 B43 1.763813 1_455
B31 Fe7 1.987934 1_555
B31 Fe9 2.057643 1_554
B31 Fe9 2.057643 1_454
B31 Fe13 2.582941 1_554
B32 B8 1.849545 1_555
B32 B39 1.866508 1_465
B32 B39 1.866508 1_565
B32 Fe7 2.196272 1_565
B32 Fe12 2.241526 1_555
B33 B9 1.849545 1_555
B33 B38 1.866508 1_545
B33 B38 1.866508 1_445
B33 Fe6 2.196272 1_545
B33 Fe13 2.241526 1_555
B34 B37 1.866508 1_455
B34 B37 1.866508 1_555
B34 Fe5 2.196272 1_555
B34 Fe14 2.241526 1_555
B35 B36 1.866508 1_455
B35 B36 1.866508 1_555
B35 Fe4 2.196272 1_555
B35 Fe15 2.241526 1_555
B36 B40 1.741364 1_555
B36 Fe4 2.243243 1_555
B36 Fe4 2.243243 1_655
B37 B41 1.741364 1_555
B37 Fe5 2.243243 1_555
B37 Fe5 2.243243 1_655
B38 B42 1.741364 1_555
B38 Fe6 2.243243 1_555
B38 Fe6 2.243243 1_655
B39 B43 1.741364 1_555
B39 Fe7 2.243243 1_555
B39 Fe7 2.243243 1_655
B40 Fe10 2.109885 1_555
B40 Fe4 2.282751 1_555
B40 Fe4 2.282751 1_655
B41 Fe11 2.109885 1_555
B41 Fe5 2.282751 1_555
B41 Fe5 2.282751 1_655
B42 Fe8 2.109885 1_556
B42 Fe6 2.282751 1_555
B42 Fe6 2.282751 1_655
B43 Fe9 2.109885 1_554
B43 Fe7 2.282751 1_655
B43 Fe7 2.282751 1_555
B44 B48 2.028231 1_555
B44 Fe3 2.082629 1_555
B44 Fe12 2.129938 1_655
B44 Fe12 2.129938 1_555
B44 Fe8 2.162172 1_555
B45 B49 2.028231 1_555
B45 Fe2 2.082629 1_555
B45 Fe13 2.129938 1_655
B45 Fe13 2.129938 1_555
B45 Fe9 2.162172 1_555
B46 B50 2.028231 1_555
B46 Fe1 2.082629 1_565
B46 Fe14 2.129938 1_555
B46 Fe14 2.129938 1_655
B46 Fe10 2.162172 1_555
B47 B51 2.028231 1_555
B47 Fe0 2.082629 1_545
B47 Fe15 2.129938 1_655
B47 Fe15 2.129938 1_555
B47 Fe11 2.162172 1_555
B48 B52 1.713908 1_555
B48 Fe3 2.115878 1_555
B48 Fe4 2.232645 1_655
B48 Fe4 2.232645 1_555
B49 B53 1.713908 1_555
B49 Fe2 2.115878 1_555
B49 Fe5 2.232645 1_555
B49 Fe5 2.232645 1_655
B50 B54 1.713908 1_555
B50 Fe1 2.115878 1_565
B50 Fe6 2.232645 1_555
B50 Fe6 2.232645 1_655
B51 B55 1.713908 1_555
B51 Fe0 2.115878 1_545
B51 Fe7 2.232645 1_555
B51 Fe7 2.232645 1_655
B52 Fe0 1.994903 1_555
B52 Fe4 2.114638 1_655
B52 Fe4 2.114638 1_555
B53 Fe1 1.994903 1_555
B53 Fe5 2.114638 1_555
B53 Fe5 2.114638 1_655
B54 Fe2 1.994903 1_555
B54 Fe6 2.114638 1_655
B54 Fe6 2.114638 1_555
B55 Fe3 1.994903 1_555
B55 Fe7 2.114638 1_655
B55 Fe7 2.114638 1_555
