# generated using pymatgen
data_Dy2ZnS4
_symmetry_space_group_name_H-M   'P 1'
_cell_length_a   6.29953435
_cell_length_b   7.87213415
_cell_length_c   13.48453345
_cell_angle_alpha   90.00000000
_cell_angle_beta   90.00000000
_cell_angle_gamma   90.00000000
_symmetry_Int_Tables_number   1
_chemical_formula_structural   Dy2ZnS4
_chemical_formula_sum   'Dy8 Zn4 S16'
_cell_volume   668.70852479
_cell_formula_units_Z   4
loop_
 _symmetry_equiv_pos_site_id
 _symmetry_equiv_pos_as_xyz
  1  'x, y, z'
loop_
 _atom_site_type_symbol
 _atom_site_label
 _atom_site_symmetry_multiplicity
 _atom_site_fract_x
 _atom_site_fract_y
 _atom_site_fract_z
 _atom_site_occupancy
  Dy  Dy0  1  0.00000000  0.50000000  -0.00000000  1
  Dy  Dy1  1  0.50000000  0.00000000  0.50000000  1
  Dy  Dy2  1  0.00000000  0.00000000  -0.00000000  1
  Dy  Dy3  1  0.50000000  0.50000000  0.50000000  1
  Dy  Dy4  1  0.99415954  0.75000000  0.26635313  1
  Dy  Dy5  1  0.50584046  0.75000000  0.76635313  1
  Dy  Dy6  1  0.00584046  0.25000000  0.73364687  1
  Dy  Dy7  1  0.49415954  0.25000000  0.23364687  1
  Zn  Zn0  1  0.41059269  0.75000000  0.09203356  1
  Zn  Zn1  1  0.08940731  0.75000000  0.59203356  1
  Zn  Zn2  1  0.58940731  0.25000000  0.90796644  1
  Zn  Zn3  1  0.91059269  0.25000000  0.40796644  1
  S  S0  1  0.77314363  0.75000000  0.09015641  1
  S  S1  1  0.72685637  0.75000000  0.59015641  1
  S  S2  1  0.22685637  0.25000000  0.90984359  1
  S  S3  1  0.27314363  0.25000000  0.40984359  1
  S  S4  1  0.24189745  0.75000000  0.43095807  1
  S  S5  1  0.25810255  0.75000000  0.93095807  1
  S  S6  1  0.75810255  0.25000000  0.56904193  1
  S  S7  1  0.74189745  0.25000000  0.06904193  1
  S  S8  1  0.74495903  0.48489332  0.33175859  1
  S  S9  1  0.75504097  0.01510668  0.83175859  1
  S  S10  1  0.25504097  0.98489332  0.66824141  1
  S  S11  1  0.24495903  0.51510668  0.16824141  1
  S  S12  1  0.25504097  0.51510668  0.66824141  1
  S  S13  1  0.24495903  0.98489332  0.16824141  1
  S  S14  1  0.74495903  0.01510668  0.33175859  1
  S  S15  1  0.75504097  0.48489332  0.83175859  1
loop_
_geom_bond_atom_site_label_1
_geom_bond_atom_site_label_2
_geom_bond_distance
_geom_bond_site_symmetry_2
Dy0 S7 2.717269 1_455
Dy0 S5 2.717269 1_554
Dy0 S2 2.719085 1_554
Dy0 S0 2.719085 1_455
Dy0 S11 2.746305 1_555
Dy0 S15 2.746305 1_454
Dy1 S4 2.717269 1_545
Dy1 S6 2.717269 1_555
Dy1 S1 2.719085 1_545
Dy1 S3 2.719085 1_555
Dy1 S14 2.746305 1_555
Dy1 S10 2.746305 1_545
Dy2 S5 2.717269 1_544
Dy2 S7 2.717269 1_455
Dy2 S2 2.719085 1_554
Dy2 S0 2.719085 1_445
Dy2 S13 2.746305 1_545
Dy2 S9 2.746305 1_454
Dy3 S4 2.717269 1_555
Dy3 S6 2.717269 1_555
Dy3 S3 2.719085 1_555
Dy3 S1 2.719085 1_555
Dy3 S8 2.746305 1_555
Dy3 S12 2.746305 1_555
Dy4 S4 2.713355 1_655
Dy4 S0 2.753822 1_555
Dy4 S14 2.756385 1_565
Dy4 S8 2.756385 1_555
Dy4 S13 2.768694 1_655
Dy4 S11 2.768694 1_655
Dy5 S5 2.713355 1_555
Dy5 S1 2.753822 1_555
Dy5 S15 2.756385 1_555
Dy5 S9 2.756385 1_565
Dy5 S12 2.768694 1_555
Dy5 S10 2.768694 1_555
Dy6 S6 2.713355 1_455
Dy6 S2 2.753822 1_555
Dy6 S10 2.756385 1_545
Dy6 S12 2.756385 1_555
Dy6 S9 2.768694 1_455
Dy6 S15 2.768694 1_455
Dy7 S7 2.713355 1_555
Dy7 S3 2.753822 1_555
Dy7 S13 2.756385 1_545
Dy7 S11 2.756385 1_555
Dy7 S14 2.768694 1_555
Dy7 S8 2.768694 1_555
S0 Zn0 2.284042 1_555
S1 Zn1 2.284042 1_655
S2 Zn2 2.284042 1_555
S3 Zn3 2.284042 1_455
S4 Zn1 2.374972 1_555
S5 Zn0 2.374972 1_556
S6 Zn3 2.374972 1_555
S7 Zn2 2.374972 1_554
S8 Zn3 2.358802 1_555
S9 Zn2 2.358802 1_555
S10 Zn1 2.358802 1_555
S11 Zn0 2.358802 1_555
S12 Zn1 2.358802 1_555
S13 Zn0 2.358802 1_555
S14 Zn3 2.358802 1_555
S15 Zn2 2.358802 1_555
