# generated using pymatgen
data_Yb3Y3Al10O24
_symmetry_space_group_name_H-M   'P 1'
_cell_length_a   10.49205712
_cell_length_b   10.49205712
_cell_length_c   10.49205712
_cell_angle_alpha   109.47122063
_cell_angle_beta   109.47122063
_cell_angle_gamma   109.47122063
_symmetry_Int_Tables_number   1
_chemical_formula_structural   Yb3Y3Al10O24
_chemical_formula_sum   'Yb6 Y6 Al20 O48'
_cell_volume   889.11932046
_cell_formula_units_Z   2
loop_
 _symmetry_equiv_pos_site_id
 _symmetry_equiv_pos_as_xyz
  1  'x, y, z'
loop_
 _atom_site_type_symbol
 _atom_site_label
 _atom_site_symmetry_multiplicity
 _atom_site_fract_x
 _atom_site_fract_y
 _atom_site_fract_z
 _atom_site_occupancy
  Yb  Yb0  1  0.87500000  0.62500000  0.25000000  1
  Yb  Yb1  1  0.62500000  0.87500000  0.75000000  1
  Yb  Yb2  1  0.62500000  0.25000000  0.87500000  1
  Yb  Yb3  1  0.87500000  0.75000000  0.62500000  1
  Yb  Yb4  1  0.25000000  0.87500000  0.62500000  1
  Yb  Yb5  1  0.75000000  0.62500000  0.87500000  1
  Y  Y0  1  0.12500000  0.37500000  0.75000000  1
  Y  Y1  1  0.37500000  0.12500000  0.25000000  1
  Y  Y2  1  0.37500000  0.75000000  0.12500000  1
  Y  Y3  1  0.12500000  0.25000000  0.37500000  1
  Y  Y4  1  0.75000000  0.12500000  0.37500000  1
  Y  Y5  1  0.25000000  0.37500000  0.12500000  1
  Al  Al0  1  0.37543000  0.62543000  0.75000000  1
  Al  Al1  1  0.12457000  0.87457000  0.25000000  1
  Al  Al2  1  0.62543000  0.75000000  0.37543000  1
  Al  Al3  1  0.87457000  0.25000000  0.12457000  1
  Al  Al4  1  0.75000000  0.37543000  0.62543000  1
  Al  Al5  1  0.25000000  0.12457000  0.87457000  1
  Al  Al6  1  0.62543000  0.37543000  0.25000000  1
  Al  Al7  1  0.87457000  0.12457000  0.75000000  1
  Al  Al8  1  0.37543000  0.25000000  0.62543000  1
  Al  Al9  1  0.12457000  0.75000000  0.87457000  1
  Al  Al10  1  0.25000000  0.62543000  0.37543000  1
  Al  Al11  1  0.75000000  0.87457000  0.12457000  1
  Al  Al12  1  0.99820100  0.50000000  0.00000000  1
  Al  Al13  1  0.00000000  0.99820100  0.50000000  1
  Al  Al14  1  0.50000000  0.00000000  0.99820100  1
  Al  Al15  1  0.50179900  0.50179900  0.50179900  1
  Al  Al16  1  0.50179900  0.50000000  0.00000000  1
  Al  Al17  1  0.50000000  0.00000000  0.50179900  1
  Al  Al18  1  0.00000000  0.50179900  0.50000000  1
  Al  Al19  1  0.99820100  0.99820100  0.99820100  1
  O  O0  1  0.38157900  0.58115500  0.90173300  1
  O  O1  1  0.17942100  0.47984600  0.59826700  1
  O  O2  1  0.32057900  0.91884500  0.30042400  1
  O  O3  1  0.11842100  0.02015400  0.19957600  1
  O  O4  1  0.58115500  0.90173300  0.38157900  1
  O  O5  1  0.47984600  0.59826700  0.17942100  1
  O  O6  1  0.91884500  0.30042400  0.32057900  1
  O  O7  1  0.02015400  0.19957600  0.11842100  1
  O  O8  1  0.90173300  0.38157900  0.58115500  1
  O  O9  1  0.59826700  0.17942100  0.47984600  1
  O  O10  1  0.30042400  0.32057900  0.91884500  1
  O  O11  1  0.19957600  0.11842100  0.02015400  1
  O  O12  1  0.61391300  0.41617900  0.09649200  1
  O  O13  1  0.81968700  0.51742100  0.40350800  1
  O  O14  1  0.68031300  0.08382100  0.69773500  1
  O  O15  1  0.88608700  0.98257900  0.80226500  1
  O  O16  1  0.41617900  0.09649200  0.61391300  1
  O  O17  1  0.51742100  0.40350800  0.81968700  1
  O  O18  1  0.08382100  0.69773500  0.68031300  1
  O  O19  1  0.98257900  0.80226500  0.88608700  1
  O  O20  1  0.09649200  0.61391300  0.41617900  1
  O  O21  1  0.40350800  0.81968700  0.51742100  1
  O  O22  1  0.69773500  0.68031300  0.08382100  1
  O  O23  1  0.80226500  0.88608700  0.98257900  1
  O  O24  1  0.88608700  0.40350800  0.08382100  1
  O  O25  1  0.68031300  0.09649200  0.98257900  1
  O  O26  1  0.81968700  0.80226500  0.41617900  1
  O  O27  1  0.61391300  0.69773500  0.51742100  1
  O  O28  1  0.08382100  0.88608700  0.40350800  1
  O  O29  1  0.98257900  0.68031300  0.09649200  1
  O  O30  1  0.41617900  0.81968700  0.80226500  1
  O  O31  1  0.51742100  0.61391300  0.69773500  1
  O  O32  1  0.40350800  0.08382100  0.88608700  1
  O  O33  1  0.09649200  0.98257900  0.68031300  1
  O  O34  1  0.80226500  0.41617900  0.81968700  1
  O  O35  1  0.69773500  0.51742100  0.61391300  1
  O  O36  1  0.11842100  0.59826700  0.91884500  1
  O  O37  1  0.32057900  0.90173300  0.02015400  1
  O  O38  1  0.17942100  0.19957600  0.58115500  1
  O  O39  1  0.38157900  0.30042400  0.47984600  1
  O  O40  1  0.91884500  0.11842100  0.59826700  1
  O  O41  1  0.02015400  0.32057900  0.90173300  1
  O  O42  1  0.58115500  0.17942100  0.19957600  1
  O  O43  1  0.47984600  0.38157900  0.30042400  1
  O  O44  1  0.59826700  0.91884500  0.11842100  1
  O  O45  1  0.90173300  0.02015400  0.32057900  1
  O  O46  1  0.19957600  0.58115500  0.17942100  1
  O  O47  1  0.30042400  0.47984600  0.38157900  1
loop_
_geom_bond_atom_site_label_1
_geom_bond_atom_site_label_2
_geom_bond_distance
_geom_bond_site_symmetry_2
Al0 O31 1.776292 1_555
Al0 O30 1.776300 1_555
Al0 O0 1.788554 1_555
Al0 O1 1.788560 1_555
Al1 O28 1.776298 1_555
Al1 O29 1.776298 1_455
Al1 O3 1.788554 1_565
Al1 O2 1.788564 1_555
Al2 O27 1.776292 1_555
Al2 O26 1.776300 1_555
Al2 O4 1.788554 1_555
Al2 O5 1.788560 1_555
Al3 O24 1.776298 1_555
Al3 O25 1.776298 1_554
Al3 O7 1.788554 1_655
Al3 O6 1.788564 1_555
Al4 O35 1.776292 1_555
Al4 O34 1.776300 1_555
Al4 O8 1.788554 1_555
Al4 O9 1.788560 1_555
Al5 O32 1.776298 1_555
Al5 O33 1.776298 1_545
Al5 O11 1.788554 1_556
Al5 O10 1.788564 1_555
Al6 O13 1.776298 1_555
Al6 O12 1.776298 1_555
Al6 O43 1.788554 1_555
Al6 O42 1.788564 1_555
Al7 O15 1.776292 1_545
Al7 O14 1.776300 1_555
Al7 O40 1.788554 1_555
Al7 O41 1.788560 1_655
Al8 O17 1.776298 1_555
Al8 O16 1.776298 1_555
Al8 O39 1.788554 1_555
Al8 O38 1.788564 1_555
Al9 O19 1.776292 1_455
Al9 O18 1.776300 1_555
Al9 O36 1.788554 1_555
Al9 O37 1.788560 1_556
Al10 O21 1.776298 1_555
Al10 O20 1.776298 1_555
Al10 O47 1.788554 1_555
Al10 O46 1.788564 1_555
Al11 O23 1.776292 1_554
Al11 O22 1.776300 1_555
Al11 O44 1.788554 1_555
Al11 O45 1.788560 1_565
Al12 O29 1.916092 1_555
Al12 O24 1.916092 1_555
Al12 O34 1.916098 1_554
Al12 O41 1.952768 1_654
Al12 O46 1.952772 1_655
Al12 O36 1.952777 1_654
Al13 O33 1.916092 1_555
Al13 O28 1.916092 1_555
Al13 O26 1.916098 1_455
Al13 O45 1.952768 1_465
Al13 O38 1.952772 1_565
Al13 O40 1.952777 1_465
Al14 O25 1.916092 1_555
Al14 O32 1.916092 1_555
Al14 O30 1.916098 1_545
Al14 O37 1.952768 1_546
Al14 O42 1.952772 1_556
Al14 O44 1.952777 1_546
Al15 O31 1.916101 1_555
Al15 O27 1.916101 1_555
Al15 O35 1.916101 1_555
Al15 O43 1.952777 1_555
Al15 O39 1.952777 1_555
Al15 O47 1.952777 1_555
Al16 O12 1.916092 1_555
Al16 O17 1.916092 1_554
Al16 O22 1.916098 1_555
Al16 O5 1.952768 1_555
Al16 O10 1.952772 1_554
Al16 O0 1.952777 1_554
Al17 O21 1.916092 1_545
Al17 O16 1.916092 1_555
Al17 O14 1.916098 1_555
Al17 O9 1.952768 1_555
Al17 O2 1.952772 1_545
Al17 O4 1.952777 1_545
Al18 O13 1.916092 1_455
Al18 O20 1.916092 1_555
Al18 O18 1.916098 1_555
Al18 O1 1.952768 1_555
Al18 O6 1.952772 1_455
Al18 O8 1.952777 1_455
Al19 O15 1.916101 1_555
Al19 O19 1.916101 1_555
Al19 O23 1.916101 1_555
Al19 O7 1.952777 1_666
Al19 O3 1.952777 1_666
Al19 O11 1.952777 1_666
O0 Y0 2.329241 1_555
O0 Y2 2.460341 1_556
O1 Y0 2.329238 1_555
O1 Y3 2.460346 1_555
O2 Y1 2.329241 1_565
O2 Y2 2.460334 1_555
O3 Y1 2.329241 1_555
O3 Y3 2.460341 1_555
O4 Y2 2.329241 1_555
O4 Y4 2.460341 1_565
O5 Y2 2.329238 1_555
O5 Y5 2.460346 1_555
O6 Y3 2.329241 1_655
O6 Y4 2.460334 1_555
O7 Y3 2.329241 1_555
O7 Y5 2.460341 1_555
O8 Y4 2.329241 1_555
O8 Y0 2.460341 1_655
O9 Y4 2.329238 1_555
O9 Y1 2.460346 1_555
O10 Y5 2.329241 1_556
O10 Y0 2.460334 1_555
O11 Y5 2.329241 1_555
O11 Y1 2.460341 1_555
O12 Yb0 2.367130 1_555
O12 Yb2 2.463384 1_554
O13 Yb0 2.367130 1_555
O13 Yb3 2.463384 1_555
O14 Yb1 2.367124 1_545
O14 Yb2 2.463378 1_555
O15 Yb1 2.367134 1_555
O15 Yb3 2.463380 1_555
O16 Yb2 2.367130 1_555
O16 Yb4 2.463384 1_545
O17 Yb2 2.367130 1_555
O17 Yb5 2.463384 1_555
O18 Yb3 2.367124 1_455
O18 Yb4 2.463378 1_555
O19 Yb3 2.367134 1_555
O19 Yb5 2.463380 1_555
O20 Yb4 2.367130 1_555
O20 Yb0 2.463384 1_455
O21 Yb4 2.367130 1_555
O21 Yb1 2.463384 1_555
O22 Yb5 2.367124 1_554
O22 Yb0 2.463378 1_555
O23 Yb5 2.367134 1_555
O23 Yb1 2.463380 1_555
O24 Yb2 2.367130 1_554
O24 Yb0 2.463384 1_555
O25 Yb2 2.367130 1_555
O25 Yb1 2.463384 1_545
O26 Yb3 2.367124 1_555
O26 Yb0 2.463378 1_555
O27 Yb3 2.367134 1_555
O27 Yb1 2.463380 1_555
O28 Yb0 2.367130 1_455
O28 Yb4 2.463384 1_555
O29 Yb0 2.367130 1_555
O29 Yb5 2.463384 1_554
O30 Yb1 2.367124 1_555
O30 Yb4 2.463378 1_555
O31 Yb1 2.367134 1_555
O31 Yb5 2.463380 1_555
O32 Yb4 2.367130 1_545
O32 Yb2 2.463384 1_555
O33 Yb4 2.367130 1_555
O33 Yb3 2.463384 1_455
O34 Yb5 2.367124 1_555
O34 Yb2 2.463378 1_555
O35 Yb5 2.367134 1_555
O35 Yb3 2.463380 1_555
O36 Y2 2.329241 1_556
O36 Y0 2.460341 1_555
O37 Y2 2.329238 1_555
O37 Y1 2.460346 1_565
O38 Y3 2.329241 1_555
O38 Y0 2.460334 1_555
O39 Y3 2.329241 1_555
O39 Y1 2.460341 1_555
O40 Y0 2.329241 1_655
O40 Y4 2.460341 1_555
O41 Y0 2.329238 1_555
O41 Y5 2.460346 1_556
O42 Y1 2.329241 1_555
O42 Y4 2.460334 1_555
O43 Y1 2.329241 1_555
O43 Y5 2.460341 1_555
O44 Y4 2.329241 1_565
O44 Y2 2.460341 1_555
O45 Y4 2.329238 1_555
O45 Y3 2.460346 1_655
O46 Y5 2.329241 1_555
O46 Y2 2.460334 1_555
O47 Y5 2.329241 1_555
O47 Y3 2.460341 1_555
