# generated using pymatgen
data_Dy2CI3
_symmetry_space_group_name_H-M   'P 1'
_cell_length_a   13.79170506
_cell_length_b   8.45055146
_cell_length_c   16.76442949
_cell_angle_alpha   59.95811703
_cell_angle_beta   90.00000000
_cell_angle_gamma   90.00000000
_symmetry_Int_Tables_number   1
_chemical_formula_structural   Dy2CI3
_chemical_formula_sum   'Dy16 C8 I24'
_cell_volume   1691.37137814
_cell_formula_units_Z   8
loop_
 _symmetry_equiv_pos_site_id
 _symmetry_equiv_pos_as_xyz
  1  'x, y, z'
loop_
 _atom_site_type_symbol
 _atom_site_label
 _atom_site_symmetry_multiplicity
 _atom_site_fract_x
 _atom_site_fract_y
 _atom_site_fract_z
 _atom_site_occupancy
  Dy  Dy0  1  0.59754697  0.14179993  0.57341071  1
  Dy  Dy1  1  0.40866353  0.27943102  0.43143930  1
  Dy  Dy2  1  0.09754697  0.85820007  0.92658929  1
  Dy  Dy3  1  0.90866353  0.72056898  0.06856070  1
  Dy  Dy4  1  0.40245303  0.85820007  0.42658929  1
  Dy  Dy5  1  0.59133647  0.72056898  0.56856070  1
  Dy  Dy6  1  0.90245303  0.14179993  0.07341071  1
  Dy  Dy7  1  0.09133647  0.27943102  0.93143930  1
  Dy  Dy8  1  0.60262161  0.62207159  0.37678809  1
  Dy  Dy9  1  0.39737839  0.37792841  0.62321191  1
  Dy  Dy10  1  0.10262161  0.37792841  0.12321191  1
  Dy  Dy11  1  0.89737839  0.62207159  0.87678809  1
  Dy  Dy12  1  0.36855164  0.84308687  0.65786863  1
  Dy  Dy13  1  0.63144836  0.15691313  0.34213137  1
  Dy  Dy14  1  0.86855164  0.15691313  0.84213137  1
  Dy  Dy15  1  0.13144836  0.84308687  0.15786863  1
  C  C0  1  0.46811996  0.96204576  0.53823195  1
  C  C1  1  0.53188004  0.03795424  0.46176805  1
  C  C2  1  0.96811996  0.03795424  0.96176805  1
  C  C3  1  0.03188004  0.96204576  0.03823195  1
  C  C4  1  0.51803600  0.41096090  0.51350379  1
  C  C5  1  0.01803600  0.58903910  0.98649621  1
  C  C6  1  0.48196400  0.58903910  0.48649621  1
  C  C7  1  0.98196400  0.41096090  0.01350379  1
  I  I0  1  0.76247287  0.32733219  0.42596371  1
  I  I1  1  0.23978304  0.18674627  0.57194898  1
  I  I2  1  0.26247287  0.67266781  0.07403629  1
  I  I3  1  0.73978304  0.81325373  0.92805102  1
  I  I4  1  0.23752713  0.67266781  0.57403629  1
  I  I5  1  0.76021696  0.81325373  0.42805102  1
  I  I6  1  0.73752713  0.32733219  0.92596371  1
  I  I7  1  0.26021696  0.18674627  0.07194898  1
  I  I8  1  0.72656258  0.33421584  0.66718189  1
  I  I9  1  0.27343742  0.66578416  0.33281811  1
  I  I10  1  0.22656258  0.66578416  0.83281811  1
  I  I11  1  0.77343742  0.33421584  0.16718189  1
  I  I12  1  0.48445656  0.99580849  0.75993031  1
  I  I13  1  0.51279627  0.51323031  0.24310261  1
  I  I14  1  0.98445656  0.00419151  0.74006969  1
  I  I15  1  0.01279627  0.48676969  0.25689739  1
  I  I16  1  0.51554344  0.00419151  0.24006969  1
  I  I17  1  0.48720373  0.48676969  0.75689739  1
  I  I18  1  0.01554344  0.99580849  0.25993031  1
  I  I19  1  0.98720373  0.51323031  0.74310261  1
  I  I20  1  0.73952267  0.81701655  0.67742213  1
  I  I21  1  0.26047733  0.18298345  0.32257787  1
  I  I22  1  0.23952267  0.18298345  0.82257787  1
  I  I23  1  0.76047733  0.81701655  0.17742213  1
loop_
_geom_bond_atom_site_label_1
_geom_bond_atom_site_label_2
_geom_bond_distance
_geom_bond_site_symmetry_2
Dy0 I20 3.100902 1_545
Dy0 I0 3.140334 1_555
Dy0 I12 3.141599 1_545
Dy0 I8 3.292512 1_555
Dy1 I21 3.108231 1_555
Dy1 I13 3.112718 1_555
Dy1 I1 3.120863 1_555
Dy1 I9 3.386220 1_555
Dy2 I22 3.100902 1_565
Dy2 I2 3.140334 1_556
Dy2 I14 3.141599 1_465
Dy2 I10 3.292512 1_555
Dy3 I23 3.108231 1_555
Dy3 I15 3.112718 1_655
Dy3 I3 3.120863 1_554
Dy3 I11 3.386220 1_555
Dy4 I21 3.100902 1_565
Dy4 I4 3.140334 1_555
Dy4 I16 3.141599 1_565
Dy4 I9 3.292512 1_555
Dy5 I20 3.108231 1_555
Dy5 I17 3.112718 1_555
Dy5 I5 3.120863 1_555
Dy5 I8 3.386220 1_555
Dy6 I23 3.100902 1_545
Dy6 I6 3.140334 1_554
Dy6 I18 3.141599 1_645
Dy6 I11 3.292512 1_555
Dy7 I22 3.108231 1_555
Dy7 I19 3.112718 1_455
Dy7 I7 3.120863 1_556
Dy7 I10 3.386220 1_555
Dy8 I5 3.076204 1_555
Dy8 I13 3.076926 1_555
Dy8 I0 3.112505 1_555
Dy8 I16 3.116455 1_565
Dy8 I23 3.620962 1_555
Dy9 I1 3.076204 1_555
Dy9 I17 3.076926 1_555
Dy9 I4 3.112505 1_555
Dy9 I12 3.116455 1_545
Dy9 I22 3.620962 1_555
Dy10 I7 3.076204 1_555
Dy10 I15 3.076926 1_555
Dy10 I2 3.112505 1_555
Dy10 I18 3.116455 1_545
Dy10 I21 3.620962 1_555
Dy11 I3 3.076204 1_555
Dy11 I19 3.076926 1_555
Dy11 I6 3.112505 1_555
Dy11 I14 3.116455 1_565
Dy11 I20 3.620962 1_555
Dy12 I4 3.056322 1_555
Dy12 I12 3.059317 1_555
Dy12 I1 3.078018 1_565
Dy12 I17 3.081456 1_555
Dy12 I10 3.206529 1_555
Dy13 I0 3.056322 1_555
Dy13 I16 3.059317 1_555
Dy13 I5 3.078018 1_545
Dy13 I13 3.081456 1_555
Dy13 I11 3.206529 1_555
Dy14 I6 3.056322 1_555
Dy14 I14 3.059317 1_555
Dy14 I3 3.078018 1_545
Dy14 I19 3.081456 1_555
Dy14 I8 3.206529 1_555
Dy15 I2 3.056322 1_555
Dy15 I18 3.059317 1_555
Dy15 I7 3.078018 1_565
Dy15 I15 3.081456 1_555
Dy15 I9 3.206529 1_555
C0 C1 1.415851 1_565
C0 Dy12 2.213622 1_555
C0 Dy1 2.502668 1_565
C0 Dy5 2.504317 1_555
C0 Dy4 2.595733 1_555
C0 Dy0 2.595864 1_565
C1 Dy13 2.213622 1_555
C1 Dy5 2.502668 1_545
C1 Dy1 2.504317 1_555
C1 Dy0 2.595733 1_555
C1 Dy4 2.595864 1_545
C2 C3 1.415851 1_646
C2 Dy14 2.213622 1_555
C2 Dy3 2.502668 1_546
C2 Dy7 2.504317 1_655
C2 Dy6 2.595733 1_556
C2 Dy2 2.595864 1_645
C3 Dy15 2.213622 1_555
C3 Dy7 2.502668 1_564
C3 Dy3 2.504317 1_455
C3 Dy2 2.595733 1_554
C3 Dy6 2.595864 1_465
C4 C6 1.426494 1_555
C4 Dy0 2.257768 1_555
C4 Dy8 2.388015 1_555
C4 Dy9 2.390743 1_555
C4 Dy1 2.633368 1_555
C5 C7 1.426494 1_456
C5 Dy2 2.257768 1_555
C5 Dy10 2.388015 1_556
C5 Dy11 2.390743 1_455
C5 Dy3 2.633368 1_456
C6 Dy4 2.257768 1_555
C6 Dy9 2.388015 1_555
C6 Dy8 2.390743 1_555
C6 Dy5 2.633368 1_555
C7 Dy6 2.257768 1_555
C7 Dy11 2.388015 1_554
C7 Dy10 2.390743 1_655
C7 Dy7 2.633368 1_654
