# generated using pymatgen
data_Eu3Rh
_symmetry_space_group_name_H-M   'P 1'
_cell_length_a   6.62482554
_cell_length_b   7.71748340
_cell_length_c   9.73646281
_cell_angle_alpha   90.00236195
_cell_angle_beta   90.00102014
_cell_angle_gamma   90.00093895
_symmetry_Int_Tables_number   1
_chemical_formula_structural   Eu3Rh
_chemical_formula_sum   'Eu12 Rh4'
_cell_volume   497.79595010
_cell_formula_units_Z   4
loop_
 _symmetry_equiv_pos_site_id
 _symmetry_equiv_pos_as_xyz
  1  'x, y, z'
loop_
 _atom_site_type_symbol
 _atom_site_label
 _atom_site_symmetry_multiplicity
 _atom_site_fract_x
 _atom_site_fract_y
 _atom_site_fract_z
 _atom_site_occupancy
  Eu  Eu0  1  0.33752235  0.67124025  0.06727604  1
  Eu  Eu1  1  0.16252620  0.17122537  0.43271500  1
  Eu  Eu2  1  0.66252832  0.32878682  0.56722694  1
  Eu  Eu3  1  0.83753233  0.82875091  0.93278558  1
  Eu  Eu4  1  0.66247386  0.32876379  0.93277831  1
  Eu  Eu5  1  0.83747705  0.82878792  0.56722708  1
  Eu  Eu6  1  0.33747610  0.67121591  0.43271506  1
  Eu  Eu7  1  0.16246405  0.17125650  0.06727509  1
  Eu  Eu8  1  0.85977828  0.54281228  0.25001564  1
  Eu  Eu9  1  0.64022125  0.04281649  0.25000972  1
  Eu  Eu10  1  0.14022659  0.45717760  0.74998416  1
  Eu  Eu11  1  0.35978304  0.95718928  0.74999015  1
  Rh  Rh0  1  0.04290502  0.88039723  0.24994314  1
  Rh  Rh1  1  0.45709317  0.38039566  0.24994406  1
  Rh  Rh2  1  0.95708755  0.11959481  0.75006256  1
  Rh  Rh3  1  0.54290483  0.61958620  0.75004947  1
loop_
_geom_bond_atom_site_label_1
_geom_bond_atom_site_label_2
_geom_bond_distance
_geom_bond_site_symmetry_2
Eu0 Rh1 2.971397 1_555
Eu0 Rh0 3.094862 1_555
Eu0 Rh3 3.398547 1_554
Eu1 Rh0 2.971865 1_545
Eu1 Rh1 3.095330 1_555
Eu1 Rh2 3.399770 1_455
Eu2 Rh3 2.972033 1_555
Eu2 Rh2 3.095740 1_555
Eu2 Rh1 3.399130 1_555
Eu3 Rh2 2.971683 1_565
Eu3 Rh3 3.095249 1_555
Eu3 Rh0 3.397854 1_656
Eu4 Rh3 2.971619 1_555
Eu4 Rh2 3.095168 1_555
Eu4 Rh1 3.397984 1_556
Eu5 Rh2 2.972093 1_565
Eu5 Rh3 3.095766 1_555
Eu5 Rh0 3.399160 1_655
Eu6 Rh1 2.971843 1_555
Eu6 Rh0 3.095390 1_555
Eu6 Rh3 3.399588 1_555
Eu7 Rh0 2.971459 1_545
Eu7 Rh1 3.094777 1_555
Eu7 Rh2 3.398365 1_454
Eu8 Rh0 2.873905 1_655
Eu8 Rh1 2.947498 1_555
Eu9 Rh1 2.873904 1_555
Eu9 Rh0 2.947536 1_645
Eu10 Rh2 2.873924 1_455
Eu10 Rh3 2.947430 1_555
Eu11 Rh3 2.874054 1_555
Eu11 Rh2 2.947561 1_465
