# generated using pymatgen
data_CsMg6Al
_symmetry_space_group_name_H-M   'P 1'
_cell_length_a   9.39602727
_cell_length_b   6.08551474
_cell_length_c   5.12105500
_cell_angle_alpha   90.00000000
_cell_angle_beta   90.00000000
_cell_angle_gamma   108.89498359
_symmetry_Int_Tables_number   1
_chemical_formula_structural   CsMg6Al
_chemical_formula_sum   'Cs1 Mg6 Al1'
_cell_volume   277.04120388
_cell_formula_units_Z   1
loop_
 _symmetry_equiv_pos_site_id
 _symmetry_equiv_pos_as_xyz
  1  'x, y, z'
loop_
 _atom_site_type_symbol
 _atom_site_label
 _atom_site_symmetry_multiplicity
 _atom_site_fract_x
 _atom_site_fract_y
 _atom_site_fract_z
 _atom_site_occupancy
  Cs  Cs0  1  0.07976900  0.78988400  0.25000000  1
  Mg  Mg0  1  0.63759400  0.31436000  0.25000000  1
  Mg  Mg1  1  0.63759400  0.82323300  0.25000000  1
  Mg  Mg2  1  0.40777400  0.20538400  0.75000000  1
  Mg  Mg3  1  0.40777400  0.70239200  0.75000000  1
  Mg  Mg4  1  0.74320100  0.12160100  0.75000000  1
  Mg  Mg5  1  0.71747400  0.60873800  0.75000000  1
  Al  Al0  1  0.36882000  0.43441000  0.25000000  1
loop_
_geom_bond_atom_site_label_1
_geom_bond_atom_site_label_2
_geom_bond_distance
_geom_bond_site_symmetry_2
Cs0 Mg5 4.114510 1_454
Cs0 Mg5 4.114510 1_455
Cs0 Mg3 4.171444 1_554
Cs0 Mg3 4.171444 1_555
Cs0 Mg2 4.171451 1_565
Cs0 Mg2 4.171451 1_564
Cs0 Mg0 4.224774 1_455
Cs0 Mg1 4.224775 1_455
Mg0 Mg1 2.988761 1_545
Mg0 Mg5 3.075395 1_555
Mg0 Mg5 3.075395 1_554
Mg0 Mg1 3.096754 1_555
Mg0 Mg4 3.109796 1_555
Mg0 Mg4 3.109796 1_554
Mg0 Mg2 3.275911 1_555
Mg0 Mg2 3.275911 1_554
Mg1 Mg5 3.075386 1_554
Mg1 Mg5 3.075386 1_555
Mg1 Mg4 3.109802 1_564
Mg1 Mg4 3.109802 1_565
Mg1 Mg3 3.275910 1_555
Mg1 Mg3 3.275910 1_554
Mg2 Mg3 3.024550 1_555
Mg2 Mg3 3.060965 1_545
Mg2 Mg5 3.141142 1_555
Mg2 Mg4 3.351688 1_555
Mg3 Mg5 3.141142 1_555
Mg3 Mg4 3.351685 1_565
Mg4 Mg5 3.051337 1_545
Mg4 Mg5 3.051344 1_555
Al0 Mg1 2.847161 1_555
Al0 Mg0 2.847165 1_555
Al0 Mg2 2.993856 1_554
Al0 Mg2 2.993856 1_555
Al0 Mg3 2.993862 1_554
Al0 Mg3 2.993862 1_555
Al0 Cs0 3.982599 1_555
Al0 Cs0 3.982603 1_545
