# generated using pymatgen
data_CaLa2Co2Sb2(PbO6)2
_symmetry_space_group_name_H-M   'P 1'
_cell_length_a   6.18561425
_cell_length_b   6.15547296
_cell_length_c   9.07372400
_cell_angle_alpha   99.28122677
_cell_angle_beta   79.93771254
_cell_angle_gamma   101.52459963
_symmetry_Int_Tables_number   1
_chemical_formula_structural   CaLa2Co2Sb2(PbO6)2
_chemical_formula_sum   'Ca1 La2 Co2 Sb2 Pb2 O12'
_cell_volume   330.44131587
_cell_formula_units_Z   1
loop_
 _symmetry_equiv_pos_site_id
 _symmetry_equiv_pos_as_xyz
  1  'x, y, z'
loop_
 _atom_site_type_symbol
 _atom_site_label
 _atom_site_symmetry_multiplicity
 _atom_site_fract_x
 _atom_site_fract_y
 _atom_site_fract_z
 _atom_site_occupancy
  Ca  Ca0  1  0.38185700  0.65505600  0.15290700  1
  La  La0  1  0.45783800  0.45000000  0.73689800  1
  La  La1  1  0.04052700  0.02880900  0.34718100  1
  Co  Co0  1  0.99004000  0.52214200  0.52236600  1
  Co  Co1  1  0.43306300  0.01346100  0.93747100  1
  Sb  Sb0  1  0.94084600  0.54989300  0.95156000  1
  Sb  Sb1  1  0.50085800  0.95492900  0.52280400  1
  Pb  Pb0  1  0.63441100  0.30157000  0.26558800  1
  Pb  Pb1  1  0.90022900  0.99297200  0.76193200  1
  O  O0  1  0.65068500  0.93820700  0.29907600  1
  O  O1  1  0.05978900  0.55466600  0.73154700  1
  O  O2  1  0.35921800  0.02847400  0.73595600  1
  O  O3  1  0.99216400  0.38839400  0.31067100  1
  O  O4  1  0.23786500  0.75965300  0.44292000  1
  O  O5  1  0.60681600  0.76044700  0.90825900  1
  O  O6  1  0.76825300  0.19547100  0.57458400  1
  O  O7  1  0.20096500  0.41052700  0.96526400  1
  O  O8  1  0.37028300  0.22012900  0.48070200  1
  O  O9  1  0.69995200  0.27717400  0.92347300  1
  O  O10  1  0.67364700  0.72585200  0.55951400  1
  O  O11  1  0.25545400  0.95967400  0.12766000  1
loop_
_geom_bond_atom_site_label_1
_geom_bond_atom_site_label_2
_geom_bond_distance
_geom_bond_site_symmetry_2
Ca0 O11 2.228599 1_555
Ca0 O7 2.362756 1_554
Ca0 O5 2.511848 1_554
Ca0 O0 2.535534 1_555
Ca0 O4 2.645041 1_555
Ca0 O3 2.919783 1_455
Ca0 Pb0 3.294577 1_555
La0 O7 2.394797 1_555
La0 O5 2.399417 1_555
La0 O2 2.542997 1_555
La0 O10 2.545748 1_555
La0 O8 2.602340 1_555
La0 O1 2.676840 1_555
La0 O6 2.789300 1_555
La0 O9 2.888617 1_555
La1 O11 2.223377 1_545
La1 O3 2.373644 1_455
La1 O0 2.463407 1_445
La1 O8 2.541404 1_555
La1 O4 2.575358 1_545
La1 O6 2.634338 1_455
La1 O10 3.206207 1_445
Co0 O3 1.962926 1_555
Co0 O1 1.989444 1_655
Co0 O4 2.016258 1_655
Co0 O6 2.264476 1_555
Co0 O10 2.475858 1_555
Co1 O11 1.916026 1_546
Co1 O2 1.980856 1_555
Co1 O5 2.021653 1_545
Co1 O9 2.073398 1_555
O0 Sb1 2.074579 1_555
O0 Pb0 2.329172 1_565
O1 Sb0 2.006133 1_455
O2 Sb1 1.999289 1_545
O2 Pb1 2.774676 1_445
O3 Pb0 2.263454 1_555
O4 Sb1 1.991557 1_555
O5 Pb1 2.416286 1_555
O6 Sb1 2.053628 1_545
O6 Pb1 2.585530 1_545
O7 Sb0 1.999029 1_455
O8 Sb1 2.073390 1_545
O8 Pb0 2.367373 1_555
O9 Sb0 2.024489 1_555
O9 Pb1 2.479503 1_545
O10 Sb1 2.029712 1_555
O10 Pb1 2.654408 1_555
