# generated using pymatgen
data_Ce2Co3Ge5
_symmetry_space_group_name_H-M   'P 1'
_cell_length_a   5.87404403
_cell_length_b   8.15469384
_cell_length_c   8.15467555
_cell_angle_alpha   73.15552886
_cell_angle_beta   68.88261123
_cell_angle_gamma   68.88249290
_symmetry_Int_Tables_number   1
_chemical_formula_structural   Ce2Co3Ge5
_chemical_formula_sum   'Ce4 Co6 Ge10'
_cell_volume   334.12122795
_cell_formula_units_Z   2
loop_
 _symmetry_equiv_pos_site_id
 _symmetry_equiv_pos_as_xyz
  1  'x, y, z'
loop_
 _atom_site_type_symbol
 _atom_site_label
 _atom_site_symmetry_multiplicity
 _atom_site_fract_x
 _atom_site_fract_y
 _atom_site_fract_z
 _atom_site_occupancy
  Ce  Ce0  1  0.36655298  0.39476976  0.87192968  1
  Ce  Ce1  1  0.63265619  0.60474709  0.13021392  1
  Ce  Ce2  1  0.86734062  0.86976988  0.39527639  1
  Ce  Ce3  1  0.13345231  0.12805173  0.60523191  1
  Co  Co0  1  0.24999561  0.00161136  -0.00161439  1
  Co  Co1  1  0.75000089  0.00160111  0.99840010  1
  Co  Co2  1  0.13713523  0.47388715  0.25194261  1
  Co  Co3  1  0.86397657  0.52549505  0.74632190  1
  Co  Co4  1  0.63602174  0.25368760  0.47451188  1
  Co  Co5  1  0.36286492  0.74804671  0.52612145  1
  Ge  Ge0  1  0.24999061  0.49973548  0.50029366  1
  Ge  Ge1  1  0.74997812  0.49948344  0.50055150  1
  Ge  Ge2  1  0.01437820  0.23556059  0.23680808  1
  Ge  Ge3  1  0.48563086  0.76315133  0.76445145  1
  Ge  Ge4  1  0.98680927  0.76292839  0.76461000  1
  Ge  Ge5  1  0.51321044  0.23540684  0.23703709  1
  Ge  Ge6  1  0.09970302  0.74543826  0.05529200  1
  Ge  Ge7  1  0.89958812  0.25630437  0.94437120  1
  Ge  Ge8  1  0.60040142  0.05562866  0.74371162  1
  Ge  Ge9  1  0.40031287  0.94469520  0.25453793  1
loop_
_geom_bond_atom_site_label_1
_geom_bond_atom_site_label_2
_geom_bond_distance
_geom_bond_site_symmetry_2
Ce0 Ge8 2.920992 1_555
Ce0 Co2 3.059163 1_556
Ce0 Ge4 3.132629 1_455
Ce0 Ge7 3.134551 1_455
Ce0 Ge7 3.134684 1_555
Ce0 Ge3 3.134982 1_555
Ce0 Ge1 3.153672 1_555
Ce0 Ge0 3.155205 1_555
Ce0 Ge2 3.174844 1_556
Ce0 Ge5 3.177193 1_556
Ce0 Co3 3.190308 1_555
Ce0 Co3 3.190485 1_455
Ce0 Ge6 3.229469 1_556
Ce0 Co0 3.311802 1_556
Ce0 Co1 3.312147 1_555
Ce0 Co4 3.388849 1_555
Ce0 Co5 3.397475 1_555
Ce1 Ge9 2.912222 1_555
Ce1 Co3 3.088498 1_554
Ce1 Ge6 3.141671 1_655
Ce1 Ge2 3.141748 1_655
Ce1 Ge6 3.142302 1_555
Ce1 Ge5 3.143908 1_555
Ce1 Ge0 3.145596 1_555
Ce1 Ge1 3.146915 1_555
Ce1 Ge4 3.180558 1_554
Ce1 Ge3 3.182790 1_554
Ce1 Co2 3.183164 1_655
Ce1 Co2 3.184124 1_555
Ce1 Ge7 3.225232 1_554
Ce1 Co1 3.340826 1_564
Ce1 Co0 3.341396 1_565
Ce1 Co4 3.379311 1_555
Ce1 Co5 3.386089 1_555
Ce2 Ge6 2.912509 1_655
Ce2 Co4 3.088647 1_565
Ce2 Ge3 3.141709 1_555
Ce2 Ge9 3.141796 1_555
Ce2 Ge9 3.142404 1_655
Ce2 Ge4 3.143898 1_555
Ce2 Ge0 3.145332 1_655
Ce2 Ge1 3.146627 1_555
Ce2 Ge5 3.180826 1_565
Ce2 Ge2 3.183062 1_665
Ce2 Co5 3.183137 1_555
Ce2 Co5 3.184072 1_655
Ce2 Ge8 3.225251 1_565
Ce2 Co1 3.340972 1_564
Ce2 Co0 3.341551 1_665
Ce2 Co3 3.379131 1_555
Ce2 Co2 3.386039 1_655
Ce3 Ge7 2.921106 1_455
Ce3 Co5 3.059088 1_545
Ce3 Ge5 3.132928 1_555
Ce3 Ge8 3.134567 1_555
Ce3 Ge8 3.134702 1_455
Ce3 Ge2 3.135274 1_555
Ce3 Ge1 3.154010 1_455
Ce3 Ge0 3.155541 1_555
Ce3 Ge3 3.174988 1_545
Ce3 Ge4 3.177286 1_445
Ce3 Co4 3.190292 1_455
Ce3 Co4 3.190584 1_555
Ce3 Ge9 3.229617 1_545
Ce3 Co0 3.311726 1_556
Ce3 Co1 3.312111 1_455
Ce3 Co3 3.389065 1_455
Ce3 Co2 3.397666 1_555
Co0 Ge8 2.405548 1_554
Co0 Ge7 2.405624 1_454
Co0 Ge9 2.414564 1_545
Co0 Ge6 2.414657 1_545
Co1 Ge8 2.405336 1_555
Co1 Ge7 2.405409 1_555
Co1 Ge9 2.414738 1_546
Co1 Ge6 2.414860 1_646
Co2 Ge6 2.317064 1_555
Co2 Ge5 2.350474 1_555
Co2 Ge2 2.350583 1_555
Co2 Ge0 2.429176 1_555
Co2 Ge1 2.430342 1_455
Co3 Ge7 2.308405 1_555
Co3 Ge3 2.354289 1_555
Co3 Ge4 2.354403 1_555
Co3 Ge1 2.413688 1_555
Co3 Ge0 2.415319 1_655
Co4 Ge8 2.308493 1_555
Co4 Ge2 2.354525 1_655
Co4 Ge5 2.354616 1_555
Co4 Ge1 2.413839 1_555
Co4 Ge0 2.415460 1_555
Co5 Ge9 2.317245 1_555
Co5 Ge4 2.350446 1_455
Co5 Ge3 2.350539 1_555
Co5 Ge0 2.428866 1_555
Co5 Ge1 2.429993 1_555
Ge2 Ge9 2.636103 1_545
Ge2 Ge7 2.648182 1_454
Ge3 Ge6 2.635951 1_556
Ge3 Ge8 2.648455 1_565
Ge4 Ge6 2.635822 1_656
Ge4 Ge8 2.649023 1_565
Ge5 Ge9 2.636050 1_545
Ge5 Ge7 2.648764 1_554
