# generated using pymatgen
data_LiLuGe
_symmetry_space_group_name_H-M   'P 1'
_cell_length_a   6.88510476
_cell_length_b   6.88510476
_cell_length_c   4.15059238
_cell_angle_alpha   90.00000000
_cell_angle_beta   90.00000000
_cell_angle_gamma   120.00000657
_symmetry_Int_Tables_number   1
_chemical_formula_structural   LiLuGe
_chemical_formula_sum   'Li3 Lu3 Ge3'
_cell_volume   170.39694065
_cell_formula_units_Z   3
loop_
 _symmetry_equiv_pos_site_id
 _symmetry_equiv_pos_as_xyz
  1  'x, y, z'
loop_
 _atom_site_type_symbol
 _atom_site_label
 _atom_site_symmetry_multiplicity
 _atom_site_fract_x
 _atom_site_fract_y
 _atom_site_fract_z
 _atom_site_occupancy
  Li  Li0  1  0.23274388  -0.00000000  0.50000000  1
  Li  Li1  1  -0.00000000  0.23274388  0.50000000  1
  Li  Li2  1  0.76725612  0.76725612  0.50000000  1
  Lu  Lu0  1  0.57334502  0.00000000  0.00000000  1
  Lu  Lu1  1  0.00000000  0.57334502  -0.00000000  1
  Lu  Lu2  1  0.42665498  0.42665498  -0.00000000  1
  Ge  Ge0  1  0.33333300  0.66666700  0.50000000  1
  Ge  Ge1  1  0.66666700  0.33333300  0.50000000  1
  Ge  Ge2  1  0.00000000  -0.00000000  0.00000000  1
loop_
_geom_bond_atom_site_label_1
_geom_bond_atom_site_label_2
_geom_bond_distance
_geom_bond_site_symmetry_2
Ge0 Li0 2.708558 1_565
Ge0 Li1 2.708562 1_555
Ge0 Li2 2.708565 1_555
Ge0 Lu1 2.917575 1_555
Ge0 Lu1 2.917575 1_556
Ge0 Lu0 2.917576 1_565
Ge0 Lu0 2.917576 1_566
Ge0 Lu2 2.917580 1_556
Ge0 Lu2 2.917580 1_555
Ge1 Li1 2.708558 1_655
Ge1 Li0 2.708562 1_555
Ge1 Li2 2.708565 1_555
Ge1 Lu0 2.917575 1_555
Ge1 Lu0 2.917575 1_556
Ge1 Lu1 2.917576 1_656
Ge1 Lu1 2.917576 1_655
Ge1 Lu2 2.917580 1_556
Ge1 Lu2 2.917580 1_555
Ge2 Li2 2.621975 1_444
Ge2 Li2 2.621975 1_445
Ge2 Li1 2.621975 1_554
Ge2 Li0 2.621975 1_555
Ge2 Li1 2.621975 1_555
Ge2 Li0 2.621975 1_554
Ge2 Lu2 2.937564 1_555
Ge2 Lu0 2.937564 1_455
Ge2 Lu1 2.937564 1_545
