# generated using pymatgen
data_YAlN2
_symmetry_space_group_name_H-M   'P 1'
_cell_length_a   5.11796300
_cell_length_b   10.13063800
_cell_length_c   16.12095600
_cell_angle_alpha   90.00000000
_cell_angle_beta   90.00000000
_cell_angle_gamma   90.00000000
_symmetry_Int_Tables_number   1
_chemical_formula_structural   YAlN2
_chemical_formula_sum   'Y16 Al16 N32'
_cell_volume   835.84304177
_cell_formula_units_Z   16
loop_
 _symmetry_equiv_pos_site_id
 _symmetry_equiv_pos_as_xyz
  1  'x, y, z'
loop_
 _atom_site_type_symbol
 _atom_site_label
 _atom_site_symmetry_multiplicity
 _atom_site_fract_x
 _atom_site_fract_y
 _atom_site_fract_z
 _atom_site_occupancy
  Y  Y0  1  0.73720900  0.99599700  0.43684600  1
  Y  Y1  1  0.23720900  0.50400300  0.56315400  1
  Y  Y2  1  0.26279100  0.49599700  0.06315400  1
  Y  Y3  1  0.76279100  0.00400300  0.93684600  1
  Y  Y4  1  0.26279100  0.00400300  0.56315400  1
  Y  Y5  1  0.76279100  0.49599700  0.43684600  1
  Y  Y6  1  0.73720900  0.50400300  0.93684600  1
  Y  Y7  1  0.23720900  0.99599700  0.06315400  1
  Y  Y8  1  0.79749600  0.25740000  0.31200600  1
  Y  Y9  1  0.29749600  0.24260000  0.68799400  1
  Y  Y10  1  0.20250400  0.75740000  0.18799400  1
  Y  Y11  1  0.70250400  0.74260000  0.81200600  1
  Y  Y12  1  0.20250400  0.74260000  0.68799400  1
  Y  Y13  1  0.70250400  0.75740000  0.31200600  1
  Y  Y14  1  0.79749600  0.24260000  0.81200600  1
  Y  Y15  1  0.29749600  0.25740000  0.18799400  1
  Al  Al0  1  0.70248900  0.02164500  0.18789100  1
  Al  Al1  1  0.20248900  0.47835500  0.81210900  1
  Al  Al2  1  0.29751100  0.52164500  0.31210900  1
  Al  Al3  1  0.79751100  0.97835500  0.68789100  1
  Al  Al4  1  0.29751100  0.97835500  0.81210900  1
  Al  Al5  1  0.79751100  0.52164500  0.18789100  1
  Al  Al6  1  0.70248900  0.47835500  0.68789100  1
  Al  Al7  1  0.20248900  0.02164500  0.31210900  1
  Al  Al8  1  0.80587500  0.27509300  0.06272800  1
  Al  Al9  1  0.30587500  0.22490700  0.93727200  1
  Al  Al10  1  0.19412500  0.77509300  0.43727200  1
  Al  Al11  1  0.69412500  0.72490700  0.56272800  1
  Al  Al12  1  0.19412500  0.72490700  0.93727200  1
  Al  Al13  1  0.69412500  0.77509300  0.06272800  1
  Al  Al14  1  0.80587500  0.22490700  0.56272800  1
  Al  Al15  1  0.30587500  0.27509300  0.43727200  1
  N  N0  1  0.66569400  0.48577000  0.29714600  1
  N  N1  1  0.16569400  0.01423000  0.70285400  1
  N  N2  1  0.33430600  0.98577000  0.20285400  1
  N  N3  1  0.83430600  0.51423000  0.79714600  1
  N  N4  1  0.33430600  0.51423000  0.70285400  1
  N  N5  1  0.83430600  0.98577000  0.29714600  1
  N  N6  1  0.66569400  0.01423000  0.79714600  1
  N  N7  1  0.16569400  0.48577000  0.20285400  1
  N  N8  1  0.67877400  0.26243600  0.45164900  1
  N  N9  1  0.17877400  0.23756400  0.54835100  1
  N  N10  1  0.32122600  0.76243600  0.04835100  1
  N  N11  1  0.82122600  0.73756400  0.95164900  1
  N  N12  1  0.32122600  0.73756400  0.54835100  1
  N  N13  1  0.82122600  0.76243600  0.45164900  1
  N  N14  1  0.67877400  0.23756400  0.95164900  1
  N  N15  1  0.17877400  0.26243600  0.04835100  1
  N  N16  1  0.71369300  0.45907100  0.07826500  1
  N  N17  1  0.21369300  0.04092900  0.92173500  1
  N  N18  1  0.28630700  0.95907100  0.42173500  1
  N  N19  1  0.78630700  0.54092900  0.57826500  1
  N  N20  1  0.28630700  0.54092900  0.92173500  1
  N  N21  1  0.78630700  0.95907100  0.07826500  1
  N  N22  1  0.71369300  0.04092900  0.57826500  1
  N  N23  1  0.21369300  0.45907100  0.42173500  1
  N  N24  1  0.73904200  0.20888200  0.17294900  1
  N  N25  1  0.23904200  0.29111800  0.82705100  1
  N  N26  1  0.26095800  0.70888200  0.32705100  1
  N  N27  1  0.76095800  0.79111800  0.67294900  1
  N  N28  1  0.26095800  0.79111800  0.82705100  1
  N  N29  1  0.76095800  0.70888200  0.17294900  1
  N  N30  1  0.73904200  0.29111800  0.67294900  1
  N  N31  1  0.23904200  0.20888200  0.32705100  1
loop_
_geom_bond_atom_site_label_1
_geom_bond_atom_site_label_2
_geom_bond_distance
_geom_bond_site_symmetry_2
Al0 N5 1.920775 1_545
Al0 N24 1.921194 1_555
Al0 N21 1.925911 1_545
Al0 N2 1.934176 1_545
Al1 N4 1.920775 1_555
Al1 N25 1.921194 1_555
Al1 N20 1.925911 1_555
Al1 N3 1.934176 1_455
Al2 N7 1.920775 1_555
Al2 N26 1.921194 1_555
Al2 N23 1.925911 1_555
Al2 N0 1.934176 1_555
Al3 N6 1.920775 1_565
Al3 N27 1.921194 1_555
Al3 N22 1.925911 1_565
Al3 N1 1.934176 1_665
Al4 N1 1.920775 1_565
Al4 N28 1.921194 1_555
Al4 N17 1.925911 1_565
Al4 N6 1.934176 1_565
Al5 N0 1.920775 1_555
Al5 N29 1.921194 1_555
Al5 N16 1.925911 1_555
Al5 N7 1.934176 1_655
Al6 N3 1.920775 1_555
Al6 N30 1.921194 1_555
Al6 N19 1.925911 1_555
Al6 N4 1.934176 1_555
Al7 N2 1.920775 1_545
Al7 N31 1.921194 1_555
Al7 N18 1.925911 1_545
Al7 N5 1.934176 1_445
Al8 N15 1.926776 1_655
Al8 N24 1.929812 1_555
Al8 N16 1.938845 1_555
Al8 N14 1.942756 1_554
Al9 N14 1.926776 1_555
Al9 N25 1.929812 1_555
Al9 N17 1.938845 1_555
Al9 N15 1.942756 1_556
Al10 N13 1.926776 1_455
Al10 N26 1.929812 1_555
Al10 N18 1.938845 1_555
Al10 N12 1.942756 1_555
Al11 N12 1.926776 1_555
Al11 N27 1.929812 1_555
Al11 N19 1.938845 1_555
Al11 N13 1.942756 1_555
Al12 N11 1.926776 1_455
Al12 N28 1.929812 1_555
Al12 N20 1.938845 1_555
Al12 N10 1.942756 1_556
Al13 N10 1.926776 1_555
Al13 N29 1.929812 1_555
Al13 N21 1.938845 1_555
Al13 N11 1.942756 1_554
Al14 N9 1.926776 1_655
Al14 N30 1.929812 1_555
Al14 N22 1.938845 1_555
Al14 N8 1.942756 1_555
Al15 N8 1.926776 1_555
Al15 N31 1.929812 1_555
Al15 N23 1.938845 1_555
Al15 N9 1.942756 1_555
N0 Y5 2.308598 1_555
N0 Y8 2.421746 1_555
N0 Y13 2.768610 1_555
N1 Y4 2.308598 1_555
N1 Y9 2.421746 1_555
N1 Y12 2.768610 1_545
N2 Y7 2.308598 1_555
N2 Y10 2.421746 1_555
N2 Y15 2.768610 1_565
N3 Y6 2.308598 1_555
N3 Y11 2.421746 1_555
N3 Y14 2.768610 1_555
N4 Y1 2.308598 1_555
N4 Y12 2.421746 1_555
N4 Y9 2.768610 1_555
N5 Y0 2.308598 1_555
N5 Y13 2.421746 1_555
N5 Y8 2.768610 1_565
N6 Y3 2.308598 1_555
N6 Y14 2.421746 1_555
N6 Y11 2.768610 1_545
N7 Y2 2.308598 1_555
N7 Y15 2.421746 1_555
N7 Y10 2.768610 1_555
N8 Y8 2.332296 1_555
N8 Y5 2.416687 1_555
N8 Y0 2.726180 1_545
N9 Y9 2.332296 1_555
N9 Y4 2.416687 1_555
N9 Y1 2.726180 1_555
N10 Y10 2.332296 1_555
N10 Y7 2.416687 1_555
N10 Y2 2.726180 1_555
N11 Y11 2.332296 1_555
N11 Y6 2.416687 1_555
N11 Y3 2.726180 1_565
N12 Y12 2.332296 1_555
N12 Y1 2.416687 1_555
N12 Y4 2.726180 1_565
N13 Y13 2.332296 1_555
N13 Y0 2.416687 1_555
N13 Y5 2.726180 1_555
N14 Y14 2.332296 1_555
N14 Y3 2.416687 1_555
N14 Y6 2.726180 1_555
N15 Y15 2.332296 1_555
N15 Y2 2.416687 1_555
N15 Y7 2.726180 1_545
N16 Y6 2.327921 1_554
N16 Y2 2.350481 1_555
N16 Y2 2.845498 1_655
N17 Y7 2.327921 1_546
N17 Y3 2.350481 1_455
N17 Y3 2.845498 1_555
N18 Y4 2.327921 1_565
N18 Y0 2.350481 1_555
N18 Y0 2.845498 1_455
N19 Y5 2.327921 1_555
N19 Y1 2.350481 1_655
N19 Y1 2.845498 1_555
N20 Y2 2.327921 1_556
N20 Y6 2.350481 1_555
N20 Y6 2.845498 1_455
N21 Y3 2.327921 1_564
N21 Y7 2.350481 1_655
N21 Y7 2.845498 1_555
N22 Y0 2.327921 1_545
N22 Y4 2.350481 1_555
N22 Y4 2.845498 1_655
N23 Y1 2.327921 1_555
N23 Y5 2.350481 1_455
N23 Y5 2.845498 1_555
N24 Y8 2.314401 1_555
N24 Y15 2.325335 1_555
N24 Y15 2.910227 1_655
N25 Y9 2.314401 1_555
N25 Y14 2.325335 1_455
N25 Y14 2.910227 1_555
N26 Y10 2.314401 1_555
N26 Y13 2.325335 1_555
N26 Y13 2.910227 1_455
N27 Y11 2.314401 1_555
N27 Y12 2.325335 1_655
N27 Y12 2.910227 1_555
N28 Y12 2.314401 1_555
N28 Y11 2.325335 1_555
N28 Y11 2.910227 1_455
N29 Y13 2.314401 1_555
N29 Y10 2.325335 1_655
N29 Y10 2.910227 1_555
N30 Y14 2.314401 1_555
N30 Y9 2.325335 1_555
N30 Y9 2.910227 1_655
N31 Y15 2.314401 1_555
N31 Y8 2.325335 1_455
N31 Y8 2.910227 1_555
