# generated using pymatgen
data_NaTmGeO4
_symmetry_space_group_name_H-M   'P 1'
_cell_length_a   5.30137200
_cell_length_b   6.42753800
_cell_length_c   11.39271700
_cell_angle_alpha   90.00000000
_cell_angle_beta   90.00000000
_cell_angle_gamma   90.00000000
_symmetry_Int_Tables_number   1
_chemical_formula_structural   NaTmGeO4
_chemical_formula_sum   'Na4 Tm4 Ge4 O16'
_cell_volume   388.20421125
_cell_formula_units_Z   4
loop_
 _symmetry_equiv_pos_site_id
 _symmetry_equiv_pos_as_xyz
  1  'x, y, z'
loop_
 _atom_site_type_symbol
 _atom_site_label
 _atom_site_symmetry_multiplicity
 _atom_site_fract_x
 _atom_site_fract_y
 _atom_site_fract_z
 _atom_site_occupancy
  Na  Na0  1  0.50000000  0.00000000  0.00000000  1
  Na  Na1  1  0.00000000  0.00000000  0.50000000  1
  Na  Na2  1  0.50000000  0.50000000  0.00000000  1
  Na  Na3  1  0.00000000  0.50000000  0.50000000  1
  Tm  Tm0  1  0.99382800  0.75000000  0.77687100  1
  Tm  Tm1  1  0.49382800  0.25000000  0.72312900  1
  Tm  Tm2  1  0.00617200  0.25000000  0.22312900  1
  Tm  Tm3  1  0.50617200  0.75000000  0.27687100  1
  Ge  Ge0  1  0.94869100  0.75000000  0.09862700  1
  Ge  Ge1  1  0.44869100  0.25000000  0.40137300  1
  Ge  Ge2  1  0.05130900  0.25000000  0.90137300  1
  Ge  Ge3  1  0.55130900  0.75000000  0.59862700  1
  O  O0  1  0.83125300  0.75000000  0.95380100  1
  O  O1  1  0.33125300  0.25000000  0.54619900  1
  O  O2  1  0.16874700  0.25000000  0.04619900  1
  O  O3  1  0.66874700  0.75000000  0.45380100  1
  O  O4  1  0.20737500  0.04074800  0.82359900  1
  O  O5  1  0.70737500  0.95925200  0.67640100  1
  O  O6  1  0.79262500  0.54074800  0.17640100  1
  O  O7  1  0.29262500  0.45925200  0.32359900  1
  O  O8  1  0.79262500  0.95925200  0.17640100  1
  O  O9  1  0.29262500  0.04074800  0.32359900  1
  O  O10  1  0.20737500  0.45925200  0.82359900  1
  O  O11  1  0.70737500  0.54074800  0.67640100  1
  O  O12  1  0.22341600  0.75000000  0.61236500  1
  O  O13  1  0.72341600  0.25000000  0.88763500  1
  O  O14  1  0.77658400  0.25000000  0.38763500  1
  O  O15  1  0.27658400  0.75000000  0.11236500  1
loop_
_geom_bond_atom_site_label_1
_geom_bond_atom_site_label_2
_geom_bond_distance
_geom_bond_site_symmetry_2
Na0 O15 2.371429 1_545
Na0 O13 2.371429 1_554
Na0 O0 2.437822 1_544
Na0 O2 2.437822 1_555
Na0 O8 2.552256 1_545
Na0 O4 2.552256 1_554
Na1 O14 2.371429 1_455
Na1 O12 2.371429 1_545
Na1 O1 2.437822 1_555
Na1 O3 2.437822 1_445
Na1 O9 2.552256 1_555
Na1 O5 2.552256 1_445
Na2 O15 2.371429 1_555
Na2 O13 2.371429 1_554
Na2 O2 2.437822 1_555
Na2 O0 2.437822 1_554
Na2 O10 2.552256 1_554
Na2 O6 2.552256 1_555
Na3 O14 2.371429 1_455
Na3 O12 2.371429 1_555
Na3 O1 2.437822 1_555
Na3 O3 2.437822 1_455
Na3 O7 2.552256 1_555
Na3 O11 2.552256 1_455
Ge0 O15 1.745315 1_655
Ge0 O0 1.763514 1_554
Ge0 O8 1.810687 1_555
Ge0 O6 1.810687 1_555
Ge1 O14 1.745315 1_555
Ge1 O1 1.763514 1_555
Ge1 O7 1.810687 1_555
Ge1 O9 1.810687 1_555
Ge2 O13 1.745315 1_455
Ge2 O2 1.763514 1_556
Ge2 O4 1.810687 1_555
Ge2 O10 1.810687 1_555
Ge3 O12 1.745315 1_555
Ge3 O3 1.763514 1_555
Ge3 O5 1.810687 1_555
Ge3 O11 1.810687 1_555
O0 Tm0 2.192241 1_555
O1 Tm1 2.192241 1_555
O2 Tm2 2.192241 1_555
O3 Tm3 2.192241 1_555
O4 Tm0 2.248873 1_445
O4 Tm1 2.329218 1_555
O5 Tm1 2.248873 1_565
O5 Tm0 2.329218 1_555
O6 Tm2 2.248873 1_655
O6 Tm3 2.329218 1_555
O7 Tm3 2.248873 1_555
O7 Tm2 2.329218 1_555
O8 Tm2 2.248873 1_665
O8 Tm3 2.329218 1_555
O9 Tm3 2.248873 1_545
O9 Tm2 2.329218 1_555
O10 Tm0 2.248873 1_455
O10 Tm1 2.329218 1_555
O11 Tm1 2.248873 1_555
O11 Tm0 2.329218 1_555
O12 Tm0 2.234709 1_455
O13 Tm1 2.234709 1_555
O14 Tm2 2.234709 1_655
O15 Tm3 2.234709 1_555
