# generated using pymatgen
data_LaCo5H4
_symmetry_space_group_name_H-M   'P 1'
_cell_length_a   5.22630354
_cell_length_b   5.22630354
_cell_length_c   4.04160300
_cell_angle_alpha   90.00000000
_cell_angle_beta   90.00000000
_cell_angle_gamma   117.18133633
_symmetry_Int_Tables_number   1
_chemical_formula_structural   LaCo5H4
_chemical_formula_sum   'La1 Co5 H4'
_cell_volume   98.20208431
_cell_formula_units_Z   1
loop_
 _symmetry_equiv_pos_site_id
 _symmetry_equiv_pos_as_xyz
  1  'x, y, z'
loop_
 _atom_site_type_symbol
 _atom_site_label
 _atom_site_symmetry_multiplicity
 _atom_site_fract_x
 _atom_site_fract_y
 _atom_site_fract_z
 _atom_site_occupancy
  La  La0  1  0.50000000  0.50000000  0.50000000  1
  Co  Co0  1  0.86547700  0.13452300  0.50000000  1
  Co  Co1  1  0.13452300  0.86547700  0.50000000  1
  Co  Co2  1  0.00000000  0.50000000  0.00000000  1
  Co  Co3  1  0.50000000  0.00000000  0.00000000  1
  Co  Co4  1  0.00000000  0.00000000  0.00000000  1
  H  H0  1  0.64709100  0.35290900  0.00000000  1
  H  H1  1  0.35290900  0.64709100  0.00000000  1
  H  H2  1  0.00000000  0.50000000  0.50000000  1
  H  H3  1  0.50000000  0.00000000  0.50000000  1
loop_
_geom_bond_atom_site_label_1
_geom_bond_atom_site_label_2
_geom_bond_distance
_geom_bond_site_symmetry_2
Co0 H3 1.707585 1_555
Co0 H2 1.707585 1_655
Co0 Co4 2.350279 1_655
Co0 Co4 2.350279 1_656
Co1 H2 1.707585 1_555
Co1 H3 1.707585 1_565
Co1 Co4 2.350279 1_566
Co1 Co4 2.350279 1_565
Co2 H1 1.642381 1_555
Co2 H0 1.642381 1_455
Co2 H2 2.020802 1_554
Co2 H2 2.020802 1_555
Co2 Co4 2.613152 1_555
Co2 Co4 2.613152 1_565
Co3 H0 1.642381 1_555
Co3 H1 1.642381 1_545
Co3 H3 2.020802 1_555
Co3 H3 2.020802 1_554
Co3 Co4 2.613152 1_555
Co3 Co4 2.613152 1_655
H0 La0 2.409457 1_555
H0 La0 2.409457 1_554
H1 La0 2.409457 1_555
H1 La0 2.409457 1_554
H2 La0 2.613152 1_555
H2 La0 2.613152 1_455
H3 La0 2.613152 1_545
H3 La0 2.613152 1_555
