# generated using pymatgen
data_CaNb2Te4Cl10O
_symmetry_space_group_name_H-M   'P 1'
_cell_length_a   7.35300294
_cell_length_b   8.62646947
_cell_length_c   9.66468791
_cell_angle_alpha   82.66725533
_cell_angle_beta   86.89846908
_cell_angle_gamma   81.14166213
_symmetry_Int_Tables_number   1
_chemical_formula_structural   CaNb2Te4Cl10O
_chemical_formula_sum   'Ca1 Nb2 Te4 Cl10 O1'
_cell_volume   600.39817338
_cell_formula_units_Z   1
loop_
 _symmetry_equiv_pos_site_id
 _symmetry_equiv_pos_as_xyz
  1  'x, y, z'
loop_
 _atom_site_type_symbol
 _atom_site_label
 _atom_site_symmetry_multiplicity
 _atom_site_fract_x
 _atom_site_fract_y
 _atom_site_fract_z
 _atom_site_occupancy
  Ca  Ca0  1  0.44241400  0.74890600  0.29114300  1
  Nb  Nb0  1  0.53992300  0.62342200  0.64298000  1
  Nb  Nb1  1  0.48521200  0.33488500  0.38071900  1
  Te  Te0  1  0.04144300  0.96252600  0.19649000  1
  Te  Te1  1  0.11062600  0.18318100  0.97610800  1
  Te  Te2  1  0.84538300  0.81792500  0.01958800  1
  Te  Te3  1  0.82505000  0.09667700  0.83901300  1
  Cl  Cl0  1  0.44498000  0.14273500  0.21776000  1
  Cl  Cl1  1  0.37359100  0.47657700  0.80732500  1
  Cl  Cl2  1  0.77547600  0.20007300  0.43789900  1
  Cl  Cl3  1  0.21034900  0.51496600  0.28595100  1
  Cl  Cl4  1  0.63940500  0.49272200  0.18075900  1
  Cl  Cl5  1  0.31314700  0.20671400  0.55272800  1
  Cl  Cl6  1  0.82774900  0.48331600  0.71345000  1
  Cl  Cl7  1  0.71022500  0.78822200  0.45989300  1
  Cl  Cl8  1  0.25967200  0.79422300  0.54554400  1
  Cl  Cl9  1  0.54691500  0.82514300  0.79639000  1
  O  O0  1  0.51584700  0.50064400  0.49197100  1
loop_
_geom_bond_atom_site_label_1
_geom_bond_atom_site_label_2
_geom_bond_distance
_geom_bond_site_symmetry_2
Ca0 O0 2.709529 1_555
Ca0 Cl7 2.710562 1_555
Ca0 Cl4 2.751157 1_555
Ca0 Cl8 2.780227 1_555
Ca0 Cl3 2.842983 1_555
Ca0 Te0 3.333712 1_555
Ca0 Cl0 3.383579 1_565
Nb0 O0 1.939951 1_555
Nb1 O0 1.941483 1_555
Te0 Te1 2.750389 1_564
Te0 Te2 2.814663 1_455
Te1 Te3 2.785284 1_455
Te2 Te3 2.774288 1_564
Cl0 Nb1 2.486636 1_555
Cl1 Nb0 2.318765 1_555
Cl2 Nb1 2.326429 1_555
Cl3 Nb1 2.491385 1_555
Cl4 Nb1 2.537867 1_555
Cl5 Nb1 2.306701 1_555
Cl6 Nb0 2.358340 1_555
Cl7 Nb0 2.527168 1_555
Cl8 Nb0 2.494963 1_555
Cl9 Nb0 2.433804 1_555
Cl9 Te2 3.147931 1_556
