# generated using pymatgen
data_Ba3Gd(BO2)9
_symmetry_space_group_name_H-M   'P 1'
_cell_length_a   7.29566815
_cell_length_b   7.29566815
_cell_length_c   17.69982100
_cell_angle_alpha   90.00000000
_cell_angle_beta   90.00000000
_cell_angle_gamma   120.00000137
_symmetry_Int_Tables_number   1
_chemical_formula_structural   Ba3Gd(BO2)9
_chemical_formula_sum   'Ba6 Gd2 B18 O36'
_cell_volume   815.88630457
_cell_formula_units_Z   2
loop_
 _symmetry_equiv_pos_site_id
 _symmetry_equiv_pos_as_xyz
  1  'x, y, z'
loop_
 _atom_site_type_symbol
 _atom_site_label
 _atom_site_symmetry_multiplicity
 _atom_site_fract_x
 _atom_site_fract_y
 _atom_site_fract_z
 _atom_site_occupancy
  Ba  Ba0  1  0.66666700  0.33333300  0.86799900  1
  Ba  Ba1  1  0.33333300  0.66666700  0.13200100  1
  Ba  Ba2  1  0.33333300  0.66666700  0.36799900  1
  Ba  Ba3  1  0.66666700  0.33333300  0.63200100  1
  Ba  Ba4  1  0.00000000  0.00000000  0.75000000  1
  Ba  Ba5  1  0.00000000  0.00000000  0.25000000  1
  Gd  Gd0  1  0.00000000  0.00000000  0.00000000  1
  Gd  Gd1  1  0.00000000  0.00000000  0.50000000  1
  B  B0  1  0.54917700  0.83475800  0.91783600  1
  B  B1  1  0.45082300  0.16524200  0.08216400  1
  B  B2  1  0.28558100  0.45082300  0.91783600  1
  B  B3  1  0.45082300  0.16524200  0.41783600  1
  B  B4  1  0.71441900  0.54917700  0.08216400  1
  B  B5  1  0.54917700  0.83475800  0.58216400  1
  B  B6  1  0.16524200  0.71441900  0.91783600  1
  B  B7  1  0.71441900  0.54917700  0.41783600  1
  B  B8  1  0.83475800  0.28558100  0.08216400  1
  B  B9  1  0.28558100  0.45082300  0.58216400  1
  B  B10  1  0.83475800  0.28558100  0.41783600  1
  B  B11  1  0.16524200  0.71441900  0.58216400  1
  B  B12  1  0.50449600  0.62220300  0.75000000  1
  B  B13  1  0.49550400  0.37779700  0.25000000  1
  B  B14  1  0.11770700  0.49550400  0.75000000  1
  B  B15  1  0.88229300  0.50449600  0.25000000  1
  B  B16  1  0.37779700  0.88229300  0.75000000  1
  B  B17  1  0.62220300  0.11770700  0.25000000  1
  O  O0  1  0.54124200  0.83242100  0.75000000  1
  O  O1  1  0.45875800  0.16757900  0.25000000  1
  O  O2  1  0.29117900  0.45875800  0.75000000  1
  O  O3  1  0.70882100  0.54124200  0.25000000  1
  O  O4  1  0.16757900  0.70882100  0.75000000  1
  O  O5  1  0.83242100  0.29117900  0.25000000  1
  O  O6  1  0.92032300  0.33273300  0.75000000  1
  O  O7  1  0.07967700  0.66726700  0.25000000  1
  O  O8  1  0.41241000  0.07967700  0.75000000  1
  O  O9  1  0.58759000  0.92032300  0.25000000  1
  O  O10  1  0.66726700  0.58759000  0.75000000  1
  O  O11  1  0.33273300  0.41241000  0.25000000  1
  O  O12  1  0.74828600  0.99547300  0.91810500  1
  O  O13  1  0.25171400  0.00452700  0.08189500  1
  O  O14  1  0.24718700  0.25171400  0.91810500  1
  O  O15  1  0.25171400  0.00452700  0.41810500  1
  O  O16  1  0.75281300  0.74828600  0.08189500  1
  O  O17  1  0.74828600  0.99547300  0.58189500  1
  O  O18  1  0.00452700  0.75281300  0.91810500  1
  O  O19  1  0.75281300  0.74828600  0.41810500  1
  O  O20  1  0.99547300  0.24718700  0.08189500  1
  O  O21  1  0.24718700  0.25171400  0.58189500  1
  O  O22  1  0.99547300  0.24718700  0.41810500  1
  O  O23  1  0.00452700  0.75281300  0.58189500  1
  O  O24  1  0.49653900  0.62068400  0.91836100  1
  O  O25  1  0.50346100  0.37931600  0.08163900  1
  O  O26  1  0.12414500  0.50346100  0.91836100  1
  O  O27  1  0.50346100  0.37931600  0.41836100  1
  O  O28  1  0.87585500  0.49653900  0.08163900  1
  O  O29  1  0.49653900  0.62068400  0.58163900  1
  O  O30  1  0.37931600  0.87585500  0.91836100  1
  O  O31  1  0.87585500  0.49653900  0.41836100  1
  O  O32  1  0.62068400  0.12414500  0.08163900  1
  O  O33  1  0.12414500  0.50346100  0.58163900  1
  O  O34  1  0.62068400  0.12414500  0.41836100  1
  O  O35  1  0.37931600  0.87585500  0.58163900  1
loop_
_geom_bond_atom_site_label_1
_geom_bond_atom_site_label_2
_geom_bond_distance
_geom_bond_site_symmetry_2
Ba0 O6 2.791933 1_555
Ba0 O8 2.791936 1_555
Ba0 O10 2.791938 1_555
Ba0 O12 2.946979 1_545
Ba0 O18 2.946984 1_655
Ba0 O14 2.946986 1_555
Ba0 O26 3.054858 1_655
Ba0 O30 3.054859 1_545
Ba0 O24 3.054864 1_555
Ba1 O7 2.791933 1_555
Ba1 O9 2.791936 1_555
Ba1 O11 2.791938 1_555
Ba1 O13 2.946979 1_565
Ba1 O20 2.946984 1_455
Ba1 O16 2.946986 1_555
Ba1 O28 3.054858 1_455
Ba1 O32 3.054859 1_565
Ba1 O25 3.054864 1_555
Ba2 O7 2.791933 1_555
Ba2 O9 2.791936 1_555
Ba2 O11 2.791938 1_555
Ba2 O15 2.946979 1_565
Ba2 O22 2.946984 1_455
Ba2 O19 2.946986 1_555
Ba2 O31 3.054858 1_455
Ba2 O34 3.054859 1_565
Ba2 O27 3.054864 1_555
Ba3 O6 2.791933 1_555
Ba3 O8 2.791936 1_555
Ba3 O10 2.791938 1_555
Ba3 O17 2.946979 1_545
Ba3 O23 2.946984 1_655
Ba3 O21 2.946986 1_555
Ba3 O33 3.054858 1_655
Ba3 O35 3.054859 1_545
Ba3 O29 3.054864 1_555
Ba4 O10 2.764383 1_445
Ba4 O8 2.764383 1_555
Ba4 O6 2.764383 1_455
Ba4 O2 2.933398 1_555
Ba4 O0 2.933398 1_445
Ba4 O4 2.933398 1_545
Ba5 O11 2.764383 1_555
Ba5 O9 2.764383 1_445
Ba5 O7 2.764383 1_545
Ba5 O3 2.933398 1_445
Ba5 O1 2.933398 1_555
Ba5 O5 2.933398 1_455
Gd0 O16 2.326803 1_445
Gd0 O14 2.326803 1_554
Gd0 O12 2.326803 1_444
Gd0 O13 2.326803 1_555
Gd0 O18 2.326803 1_544
Gd0 O20 2.326803 1_455
Gd1 O21 2.326803 1_555
Gd1 O19 2.326803 1_445
Gd1 O17 2.326803 1_445
Gd1 O15 2.326803 1_555
Gd1 O23 2.326803 1_545
Gd1 O22 2.326803 1_455
B0 O12 1.334815 1_555
B0 O24 1.409625 1_555
B0 O30 1.413254 1_555
B1 O13 1.334815 1_555
B1 O25 1.409625 1_555
B1 O32 1.413254 1_555
B2 O14 1.334815 1_555
B2 O26 1.409625 1_555
B2 O24 1.413254 1_555
B3 O15 1.334815 1_555
B3 O27 1.409625 1_555
B3 O34 1.413254 1_555
B4 O16 1.334815 1_555
B4 O28 1.409625 1_555
B4 O25 1.413254 1_555
B5 O17 1.334815 1_555
B5 O29 1.409625 1_555
B5 O35 1.413254 1_555
B6 O18 1.334815 1_555
B6 O30 1.409625 1_555
B6 O26 1.413254 1_555
B7 O19 1.334815 1_555
B7 O31 1.409625 1_555
B7 O27 1.413254 1_555
B8 O20 1.334815 1_555
B8 O32 1.409625 1_555
B8 O28 1.413254 1_555
B9 O21 1.334815 1_555
B9 O33 1.409625 1_555
B9 O29 1.413254 1_555
B10 O22 1.334815 1_555
B10 O34 1.409625 1_555
B10 O31 1.413254 1_555
B11 O23 1.334815 1_555
B11 O35 1.409625 1_555
B11 O33 1.413254 1_555
B12 O10 1.331863 1_555
B12 O2 1.410025 1_555
B12 O0 1.418763 1_555
B13 O11 1.331863 1_555
B13 O3 1.410025 1_555
B13 O1 1.418763 1_555
B14 O6 1.331863 1_455
B14 O4 1.410025 1_555
B14 O2 1.418763 1_555
B15 O7 1.331863 1_655
B15 O5 1.410025 1_555
B15 O3 1.418763 1_555
B16 O8 1.331863 1_565
B16 O0 1.410025 1_555
B16 O4 1.418763 1_555
B17 O9 1.331863 1_545
B17 O1 1.410025 1_555
B17 O5 1.418763 1_555
