# generated using pymatgen
data_BaSr3Pd2(OF)4
_symmetry_space_group_name_H-M   'P 1'
_cell_length_a   4.12893200
_cell_length_b   4.12893200
_cell_length_c   13.30505600
_cell_angle_alpha   90.00000000
_cell_angle_beta   90.00000000
_cell_angle_gamma   90.00000000
_symmetry_Int_Tables_number   1
_chemical_formula_structural   BaSr3Pd2(OF)4
_chemical_formula_sum   'Ba1 Sr3 Pd2 O4 F4'
_cell_volume   226.82565192
_cell_formula_units_Z   1
loop_
 _symmetry_equiv_pos_site_id
 _symmetry_equiv_pos_as_xyz
  1  'x, y, z'
loop_
 _atom_site_type_symbol
 _atom_site_label
 _atom_site_symmetry_multiplicity
 _atom_site_fract_x
 _atom_site_fract_y
 _atom_site_fract_z
 _atom_site_occupancy
  Ba  Ba0  1  0.50000000  0.50000000  0.13618600  1
  Sr  Sr0  1  0.00000000  0.00000000  0.63846600  1
  Sr  Sr1  1  0.00000000  0.00000000  0.37079200  1
  Sr  Sr2  1  0.50000000  0.50000000  0.85767200  1
  Pd  Pd0  1  0.00000000  0.00000000  0.00394000  1
  Pd  Pd1  1  0.50000000  0.50000000  0.50117700  1
  O  O0  1  0.50000000  0.00000000  0.98297100  1
  O  O1  1  0.00000000  0.50000000  0.50515100  1
  O  O2  1  0.00000000  0.50000000  0.98297100  1
  O  O3  1  0.50000000  0.00000000  0.50515100  1
  F  F0  1  0.00000000  0.50000000  0.26200400  1
  F  F1  1  0.50000000  0.00000000  0.74575800  1
  F  F2  1  0.50000000  0.00000000  0.26200400  1
  F  F3  1  0.00000000  0.50000000  0.74575800  1
loop_
_geom_bond_atom_site_label_1
_geom_bond_atom_site_label_2
_geom_bond_distance
_geom_bond_site_symmetry_2
Ba0 F2 2.657884 1_555
Ba0 F0 2.657884 1_555
Ba0 F2 2.657884 1_565
Ba0 F0 2.657884 1_655
Ba0 O2 2.901317 1_554
Ba0 O0 2.901317 1_554
Ba0 O0 2.901317 1_564
Ba0 O2 2.901317 1_654
O0 Pd0 2.083232 1_556
O0 Pd0 2.083232 1_656
O0 Sr2 2.653540 1_555
O0 Sr2 2.653540 1_545
O1 Pd1 2.065143 1_455
O1 Pd1 2.065143 1_555
O1 Sr0 2.721811 1_555
O1 Sr0 2.721811 1_565
O1 Sr1 2.730884 1_555
O1 Sr1 2.730884 1_565
O2 Pd0 2.083232 1_566
O2 Pd0 2.083232 1_556
O2 Sr2 2.653540 1_455
O2 Sr2 2.653540 1_555
O3 Pd1 2.065143 1_555
O3 Pd1 2.065143 1_545
O3 Sr0 2.721811 1_655
O3 Sr0 2.721811 1_555
O3 Sr1 2.730884 1_555
O3 Sr1 2.730884 1_655
F0 Sr1 2.521324 1_565
F0 Sr1 2.521324 1_555
F1 Sr0 2.509950 1_655
F1 Sr0 2.509950 1_555
F1 Sr2 2.545429 1_545
F1 Sr2 2.545429 1_555
F2 Sr1 2.521324 1_655
F2 Sr1 2.521324 1_555
F3 Sr0 2.509950 1_565
F3 Sr0 2.509950 1_555
F3 Sr2 2.545429 1_555
F3 Sr2 2.545429 1_455
