# generated using pymatgen
data_Na2LaCeTi4O12
_symmetry_space_group_name_H-M   'P 1'
_cell_length_a   5.48135287
_cell_length_b   5.48135287
_cell_length_c   9.52092910
_cell_angle_alpha   73.15876502
_cell_angle_beta   73.15876502
_cell_angle_gamma   60.22055709
_symmetry_Int_Tables_number   1
_chemical_formula_structural   Na2LaCeTi4O12
_chemical_formula_sum   'Na2 La1 Ce1 Ti4 O12'
_cell_volume   233.94407629
_cell_formula_units_Z   1
loop_
 _symmetry_equiv_pos_site_id
 _symmetry_equiv_pos_as_xyz
  1  'x, y, z'
loop_
 _atom_site_type_symbol
 _atom_site_label
 _atom_site_symmetry_multiplicity
 _atom_site_fract_x
 _atom_site_fract_y
 _atom_site_fract_z
 _atom_site_occupancy
  Na  Na0  1  0.37486300  0.12479800  0.75122800  1
  Na  Na1  1  0.87520200  0.62513700  0.24877200  1
  La  La0  1  0.62472600  0.37527400  0.00000000  1
  Ce  Ce0  1  0.12591600  0.87408400  0.50000000  1
  Ti  Ti0  1  0.25218100  0.99961900  0.12556100  1
  Ti  Ti1  1  0.75117000  0.50383100  0.62335300  1
  Ti  Ti2  1  0.00038100  0.74781900  0.87443900  1
  Ti  Ti3  1  0.49616900  0.24883000  0.37664700  1
  O  O0  1  0.43242300  0.06628300  0.25154400  1
  O  O1  1  0.93371700  0.56757700  0.74845600  1
  O  O2  1  0.59898800  0.90263000  0.97215800  1
  O  O3  1  0.09283300  0.40573600  0.46988000  1
  O  O4  1  0.09737000  0.40101200  0.02784200  1
  O  O5  1  0.59426400  0.90716700  0.53012000  1
  O  O6  1  0.90966200  0.09090000  0.28580100  1
  O  O7  1  0.40696100  0.59264100  0.78112100  1
  O  O8  1  0.40735900  0.59303900  0.21887900  1
  O  O9  1  0.90910000  0.09033800  0.71419900  1
  O  O10  1  0.06486800  0.93513200  0.00000000  1
  O  O11  1  0.55184700  0.44815300  0.50000000  1
loop_
_geom_bond_atom_site_label_1
_geom_bond_atom_site_label_2
_geom_bond_distance
_geom_bond_site_symmetry_2
Na0 O5 2.421595 1_545
Na0 O1 2.430751 1_455
Na0 O2 2.437985 1_545
Na0 O10 2.752082 1_546
Na0 O7 2.754681 1_555
Na0 O9 2.761539 1_555
Na0 O7 2.767433 1_545
Na0 O11 2.776828 1_555
Na0 O9 2.777944 1_455
Na1 O3 2.421595 1_655
Na1 O0 2.430751 1_565
Na1 O4 2.437985 1_655
Na1 O10 2.752082 1_655
Na1 O8 2.754681 1_555
Na1 O6 2.761539 1_555
Na1 O8 2.767433 1_655
Na1 O11 2.776828 1_555
Na1 O6 2.777944 1_565
La0 O8 2.403558 1_555
La0 O7 2.403558 1_554
La0 O10 2.420612 1_645
La0 O4 2.754035 1_655
La0 O2 2.754035 1_544
La0 O4 2.760157 1_555
La0 O2 2.760157 1_554
La0 O1 2.770486 1_554
La0 O0 2.770486 1_555
Ce0 O11 2.342457 1_555
Ce0 O9 2.360838 1_465
Ce0 O6 2.360838 1_465
Ce0 O0 2.745823 1_565
Ce0 O1 2.745823 1_455
Ce0 O5 2.761281 1_555
Ce0 O3 2.761281 1_555
Ce0 O5 2.761972 1_455
Ce0 O3 2.761972 1_565
O0 Ti3 1.954750 1_555
O0 Ti0 1.961526 1_545
O1 Ti1 1.954750 1_555
O1 Ti2 1.961526 1_655
O2 Ti2 1.960423 1_655
O2 Ti0 1.966408 1_556
O3 Ti1 1.949583 1_455
O3 Ti3 1.957521 1_555
O4 Ti0 1.960423 1_545
O4 Ti2 1.966408 1_554
O5 Ti3 1.949583 1_565
O5 Ti1 1.957521 1_555
O6 Ti0 1.988034 1_645
O6 Ti3 1.995874 1_555
O7 Ti2 1.971592 1_555
O7 Ti1 1.980461 1_555
O8 Ti0 1.971592 1_555
O8 Ti3 1.980461 1_555
O9 Ti2 1.988034 1_645
O9 Ti1 1.995874 1_555
O10 Ti0 1.981111 1_555
O10 Ti2 1.981111 1_554
O11 Ti1 1.987091 1_555
O11 Ti3 1.987091 1_555
