# generated using pymatgen
data_GdInPt4
_symmetry_space_group_name_H-M   'P 1'
_cell_length_a   5.38292945
_cell_length_b   5.38292945
_cell_length_c   5.38292945
_cell_angle_alpha   60.00000000
_cell_angle_beta   60.00000000
_cell_angle_gamma   60.00000000
_symmetry_Int_Tables_number   1
_chemical_formula_structural   GdInPt4
_chemical_formula_sum   'Gd1 In1 Pt4'
_cell_volume   110.29125204
_cell_formula_units_Z   1
loop_
 _symmetry_equiv_pos_site_id
 _symmetry_equiv_pos_as_xyz
  1  'x, y, z'
loop_
 _atom_site_type_symbol
 _atom_site_label
 _atom_site_symmetry_multiplicity
 _atom_site_fract_x
 _atom_site_fract_y
 _atom_site_fract_z
 _atom_site_occupancy
  Gd  Gd0  1  -0.00000000  -0.00000000  -0.00000000  1
  In  In0  1  0.25000000  0.25000000  0.25000000  1
  Pt  Pt0  1  0.62451641  0.62451641  0.12644976  1
  Pt  Pt1  1  0.62451641  0.12644976  0.62451641  1
  Pt  Pt2  1  0.12644976  0.62451641  0.62451641  1
  Pt  Pt3  1  0.62451641  0.62451641  0.62451641  1
loop_
_geom_bond_atom_site_label_1
_geom_bond_atom_site_label_2
_geom_bond_distance
_geom_bond_site_symmetry_2
Gd0 Pt1 3.157136 1_455
Gd0 Pt2 3.157136 1_545
Gd0 Pt2 3.157136 1_554
Gd0 Pt0 3.157136 1_455
Gd0 Pt1 3.157136 1_554
Gd0 Pt0 3.157136 1_545
Gd0 Pt3 3.157138 1_454
Gd0 Pt3 3.157138 1_445
Gd0 Pt3 3.157138 1_544
Gd0 Pt2 3.157141 1_544
Gd0 Pt0 3.157141 1_445
Gd0 Pt1 3.157141 1_454
Gd0 In0 3.296358 1_545
Gd0 In0 3.296358 1_554
Gd0 In0 3.296358 1_455
Gd0 In0 3.296358 1_555
In0 Pt1 3.154916 1_555
In0 Pt0 3.154916 1_555
In0 Pt2 3.154916 1_555
In0 Pt3 3.154918 1_545
In0 Pt3 3.154918 1_554
In0 Pt3 3.154918 1_455
In0 Pt0 3.154921 1_455
In0 Pt1 3.154921 1_554
In0 Pt1 3.154921 1_455
In0 Pt0 3.154921 1_545
In0 Pt2 3.154921 1_545
In0 Pt2 3.154921 1_554
Pt0 Pt3 2.681058 1_555
Pt0 Pt1 2.681058 1_555
Pt0 Pt2 2.681058 1_555
Pt0 Pt3 2.701872 1_554
Pt0 Pt1 2.701872 1_564
Pt0 Pt2 2.701872 1_654
Pt1 Pt3 2.681058 1_555
Pt1 Pt2 2.681058 1_555
Pt1 Pt3 2.701872 1_545
Pt1 Pt2 2.701872 1_645
Pt2 Pt3 2.681058 1_555
Pt2 Pt3 2.701872 1_455
