# generated using pymatgen
data_Ho(CuS)2
_symmetry_space_group_name_H-M   'P 1'
_cell_length_a   3.94949748
_cell_length_b   3.94949748
_cell_length_c   6.29648700
_cell_angle_alpha   90.00000000
_cell_angle_beta   90.00000000
_cell_angle_gamma   119.99999129
_symmetry_Int_Tables_number   1
_chemical_formula_structural   Ho(CuS)2
_chemical_formula_sum   'Ho1 Cu2 S2'
_cell_volume   85.05750963
_cell_formula_units_Z   1
loop_
 _symmetry_equiv_pos_site_id
 _symmetry_equiv_pos_as_xyz
  1  'x, y, z'
loop_
 _atom_site_type_symbol
 _atom_site_label
 _atom_site_symmetry_multiplicity
 _atom_site_fract_x
 _atom_site_fract_y
 _atom_site_fract_z
 _atom_site_occupancy
  Ho  Ho0  1  0.00000000  0.00000000  0.00000000  1
  Cu  Cu0  1  0.66666700  0.33333300  0.65924700  1
  Cu  Cu1  1  0.33333300  0.66666700  0.34075300  1
  S  S0  1  0.66666700  0.33333300  0.26401100  1
  S  S1  1  0.33333300  0.66666700  0.73598900  1
loop_
_geom_bond_atom_site_label_1
_geom_bond_atom_site_label_2
_geom_bond_distance
_geom_bond_site_symmetry_2
Ho0 S0 2.821857 1_455
Ho0 S1 2.821857 1_544
Ho0 S0 2.821860 1_555
Ho0 S1 2.821860 1_554
Ho0 S0 2.821860 1_445
Ho0 S1 2.821860 1_444
Cu0 S1 2.330877 1_545
Cu0 S1 2.330877 1_655
Cu0 S1 2.330883 1_555
Cu0 S0 2.488598 1_555
Cu1 S0 2.330877 1_455
Cu1 S0 2.330877 1_565
Cu1 S0 2.330883 1_555
Cu1 S1 2.488598 1_555
