# generated using pymatgen
data_Al2CoP3NO14
_symmetry_space_group_name_H-M   'P 1'
_cell_length_a   8.33208477
_cell_length_b   8.33208477
_cell_length_c   8.93467767
_cell_angle_alpha   74.73854451
_cell_angle_beta   74.73854451
_cell_angle_gamma   76.86171621
_symmetry_Int_Tables_number   1
_chemical_formula_structural   Al2CoP3NO14
_chemical_formula_sum   'Al4 Co2 P6 N2 O28'
_cell_volume   568.91955764
_cell_formula_units_Z   2
loop_
 _symmetry_equiv_pos_site_id
 _symmetry_equiv_pos_as_xyz
  1  'x, y, z'
loop_
 _atom_site_type_symbol
 _atom_site_label
 _atom_site_symmetry_multiplicity
 _atom_site_fract_x
 _atom_site_fract_y
 _atom_site_fract_z
 _atom_site_occupancy
  Al  Al0  1  0.24681300  0.40145800  0.57491900  1
  Al  Al1  1  0.59854200  0.75318700  0.92508100  1
  Al  Al2  1  0.75318700  0.59854200  0.42508100  1
  Al  Al3  1  0.40145800  0.24681300  0.07491900  1
  Co  Co0  1  0.21501500  0.78498500  0.75000000  1
  Co  Co1  1  0.78498500  0.21501500  0.25000000  1
  P  P0  1  0.34001500  0.08064900  0.83209600  1
  P  P1  1  0.91935100  0.65998500  0.66790400  1
  P  P2  1  0.65998500  0.91935100  0.16790400  1
  P  P3  1  0.08064900  0.34001500  0.33209600  1
  P  P4  1  0.49131100  0.50868900  0.75000000  1
  P  P5  1  0.50868900  0.49131100  0.25000000  1
  N  N0  1  0.13927600  0.86072400  0.25000000  1
  N  N1  1  0.86072400  0.13927600  0.75000000  1
  O  O0  1  0.36242000  0.21141500  0.67339900  1
  O  O1  1  0.78858500  0.63758000  0.82660100  1
  O  O2  1  0.63758000  0.78858500  0.32660100  1
  O  O3  1  0.21141500  0.36242000  0.17339900  1
  O  O4  1  0.50755000  0.96179900  0.84148700  1
  O  O5  1  0.03820100  0.49245000  0.65851300  1
  O  O6  1  0.49245000  0.03820100  0.15851300  1
  O  O7  1  0.96179900  0.50755000  0.34148700  1
  O  O8  1  0.27522300  0.16767700  0.97207800  1
  O  O9  1  0.83232300  0.72477700  0.52792200  1
  O  O10  1  0.72477700  0.83232300  0.02792200  1
  O  O11  1  0.16767700  0.27522300  0.47207800  1
  O  O12  1  0.32070200  0.53255300  0.69718400  1
  O  O13  1  0.46744700  0.67929800  0.80281600  1
  O  O14  1  0.67929800  0.46744700  0.30281600  1
  O  O15  1  0.53255300  0.32070200  0.19718400  1
  O  O16  1  0.63950700  0.48683900  0.60979700  1
  O  O17  1  0.51316100  0.36049300  0.89020300  1
  O  O18  1  0.36049300  0.51316100  0.39020300  1
  O  O19  1  0.48683900  0.63950700  0.10979700  1
  O  O20  1  0.20338500  0.97786300  0.83053800  1
  O  O21  1  0.02213700  0.79661500  0.66946200  1
  O  O22  1  0.79661500  0.02213700  0.16946200  1
  O  O23  1  0.97786300  0.20338500  0.33053800  1
  O  O24  1  0.30489300  0.89413400  0.53783900  1
  O  O25  1  0.10586600  0.69510700  0.96216100  1
  O  O26  1  0.69510700  0.10586600  0.46216100  1
  O  O27  1  0.89413400  0.30489300  0.03783900  1
loop_
_geom_bond_atom_site_label_1
_geom_bond_atom_site_label_2
_geom_bond_distance
_geom_bond_site_symmetry_2
Al0 O5 1.780298 1_555
Al0 O0 1.796857 1_555
Al0 O18 1.804528 1_555
Al0 O11 1.878392 1_555
Al0 O12 2.013305 1_555
Al1 O4 1.780298 1_555
Al1 O1 1.796857 1_555
Al1 O19 1.804528 1_556
Al1 O10 1.878392 1_556
Al1 O13 2.013305 1_555
Al2 O7 1.780298 1_555
Al2 O2 1.796857 1_555
Al2 O16 1.804528 1_555
Al2 O9 1.878392 1_555
Al2 O14 2.013305 1_555
Al3 O6 1.780298 1_555
Al3 O3 1.796857 1_555
Al3 O17 1.804528 1_554
Al3 O8 1.878392 1_554
Al3 O15 2.013305 1_555
Co0 O21 1.900308 1_555
Co0 O20 1.900308 1_555
Co0 O25 1.906799 1_555
Co0 O24 1.906799 1_555
Co0 O12 2.209909 1_555
Co0 O13 2.209909 1_555
Co1 O22 1.900308 1_555
Co1 O23 1.900308 1_555
Co1 O26 1.906799 1_555
Co1 O27 1.906799 1_555
Co1 O15 2.209909 1_555
Co1 O14 2.209909 1_555
O0 P0 1.540211 1_555
O1 P1 1.540211 1_555
O2 P2 1.540211 1_555
O3 P3 1.540211 1_555
O4 P0 1.525043 1_565
O5 P1 1.525043 1_455
O6 P2 1.525043 1_545
O7 P3 1.525043 1_655
O8 P0 1.524962 1_555
O9 P1 1.524962 1_555
O10 P2 1.524962 1_555
O11 P3 1.524962 1_555
O12 P4 1.567871 1_555
O13 P4 1.567871 1_555
O14 P5 1.567871 1_555
O15 P5 1.567871 1_555
O16 P4 1.526623 1_555
O17 P4 1.526623 1_555
O18 P5 1.526623 1_555
O19 P5 1.526623 1_555
O20 P0 1.577173 1_565
O21 P1 1.577173 1_455
O22 P2 1.577173 1_545
O23 P3 1.577173 1_655
