# generated using pymatgen
data_CaMg14Zn
_symmetry_space_group_name_H-M   'P 1'
_cell_length_a   6.42930935
_cell_length_b   6.42930882
_cell_length_c   10.41757510
_cell_angle_alpha   90.00000000
_cell_angle_beta   90.00000000
_cell_angle_gamma   120.00000278
_symmetry_Int_Tables_number   1
_chemical_formula_structural   CaMg14Zn
_chemical_formula_sum   'Ca1 Mg14 Zn1'
_cell_volume   372.92875285
_cell_formula_units_Z   1
loop_
 _symmetry_equiv_pos_site_id
 _symmetry_equiv_pos_as_xyz
  1  'x, y, z'
loop_
 _atom_site_type_symbol
 _atom_site_label
 _atom_site_symmetry_multiplicity
 _atom_site_fract_x
 _atom_site_fract_y
 _atom_site_fract_z
 _atom_site_occupancy
  Ca  Ca0  1  0.16666700  0.33333300  0.12500000  1
  Mg  Mg0  1  0.17593263  0.83796582  0.12500000  1
  Mg  Mg1  1  0.16353973  0.83176936  0.62500000  1
  Mg  Mg2  1  0.66203418  0.32406737  0.12500000  1
  Mg  Mg3  1  0.66823064  0.33646027  0.62500000  1
  Mg  Mg4  1  0.66203418  0.83796582  0.12500000  1
  Mg  Mg5  1  0.66823064  0.83176936  0.62500000  1
  Mg  Mg6  1  0.33278999  0.16721001  0.38579554  1
  Mg  Mg7  1  0.33278999  0.16721001  0.86420446  1
  Mg  Mg8  1  0.33278999  0.66558098  0.38579554  1
  Mg  Mg9  1  0.33278999  0.66558098  0.86420446  1
  Mg  Mg10  1  0.83441902  0.16721001  0.38579554  1
  Mg  Mg11  1  0.83441902  0.16721001  0.86420446  1
  Mg  Mg12  1  0.83333300  0.66666700  0.37074881  1
  Mg  Mg13  1  0.83333300  0.66666700  0.87925119  1
  Zn  Zn0  1  0.16666700  0.33333300  0.62500000  1
loop_
_geom_bond_atom_site_label_1
_geom_bond_atom_site_label_2
_geom_bond_distance
_geom_bond_site_symmetry_2
Ca0 Mg0 3.215068 1_545
Ca0 Mg4 3.215068 1_555
Ca0 Mg4 3.215068 1_445
Ca0 Mg0 3.215068 1_555
Ca0 Mg2 3.215069 1_555
Ca0 Mg2 3.215069 1_455
Ca0 Mg7 3.286874 1_554
Ca0 Mg6 3.286874 1_555
Ca0 Mg9 3.286881 1_554
Ca0 Mg8 3.286881 1_555
Ca0 Mg11 3.286881 1_454
Ca0 Mg10 3.286881 1_455
Mg0 Mg2 3.125297 1_565
Mg0 Mg4 3.125297 1_555
Mg0 Mg13 3.192647 1_454
Mg0 Mg12 3.192647 1_455
Mg0 Mg9 3.277871 1_554
Mg0 Mg8 3.277871 1_555
Mg0 Mg7 3.277877 1_564
Mg0 Mg6 3.277877 1_565
Mg0 Mg2 3.304012 1_455
Mg0 Mg4 3.304012 1_455
Mg1 Mg8 3.114182 1_555
Mg1 Mg9 3.114182 1_555
Mg1 Mg6 3.114189 1_565
Mg1 Mg7 3.114189 1_565
Mg1 Mg3 3.184495 1_455
Mg1 Mg5 3.184495 1_455
Mg1 Zn0 3.214702 1_555
Mg1 Zn0 3.214702 1_565
Mg1 Mg12 3.224261 1_455
Mg1 Mg13 3.224261 1_455
Mg1 Mg3 3.244814 1_565
Mg1 Mg5 3.244814 1_555
Mg2 Mg4 3.125297 1_545
Mg2 Mg7 3.277877 1_554
Mg2 Mg6 3.277877 1_555
Mg2 Mg4 3.304012 1_555
Mg3 Mg6 3.114189 1_555
Mg3 Mg7 3.114189 1_555
Mg3 Mg5 3.184495 1_555
Mg3 Zn0 3.214702 1_655
Mg3 Zn0 3.214702 1_555
Mg3 Mg5 3.244814 1_545
Mg4 Mg9 3.277877 1_554
Mg4 Mg8 3.277877 1_555
Mg5 Mg8 3.114189 1_555
Mg5 Mg9 3.114189 1_555
Mg5 Zn0 3.214702 1_665
Mg5 Zn0 3.214702 1_555
Mg6 Zn0 3.103538 1_555
Mg6 Mg8 3.204181 1_555
Mg6 Mg8 3.225128 1_545
Mg7 Zn0 3.103538 1_555
Mg7 Mg9 3.204181 1_555
Mg7 Mg9 3.225128 1_545
Mg8 Zn0 3.103545 1_555
Mg9 Zn0 3.103545 1_555
Mg10 Zn0 3.103545 1_655
Mg10 Mg3 3.114182 1_555
Mg10 Mg5 3.114189 1_545
Mg10 Mg8 3.204181 1_655
Mg10 Mg6 3.204181 1_655
Mg10 Mg12 3.218479 1_545
Mg10 Mg12 3.218479 1_555
Mg10 Mg8 3.225128 1_545
Mg10 Mg6 3.225128 1_555
Mg10 Mg2 3.277871 1_555
Mg10 Mg4 3.277877 1_545
Mg11 Zn0 3.103545 1_655
Mg11 Mg3 3.114182 1_555
Mg11 Mg5 3.114189 1_545
Mg11 Mg9 3.204181 1_655
Mg11 Mg7 3.204181 1_655
Mg11 Mg13 3.218479 1_545
Mg11 Mg13 3.218479 1_555
Mg11 Mg9 3.225128 1_545
Mg11 Mg7 3.225128 1_555
Mg11 Mg2 3.277871 1_556
Mg11 Mg4 3.277877 1_546
Mg12 Mg4 3.192640 1_555
Mg12 Mg2 3.192646 1_555
Mg12 Mg6 3.218479 1_665
Mg12 Mg6 3.218479 1_555
Mg12 Mg8 3.218480 1_555
Mg12 Mg8 3.218480 1_655
Mg12 Mg5 3.224255 1_555
Mg12 Mg3 3.224261 1_555
Mg13 Mg4 3.192640 1_556
Mg13 Mg2 3.192646 1_556
Mg13 Mg7 3.218479 1_665
Mg13 Mg7 3.218479 1_555
Mg13 Mg9 3.218480 1_555
Mg13 Mg9 3.218480 1_655
Mg13 Mg5 3.224255 1_555
Mg13 Mg3 3.224261 1_555
