# generated using pymatgen
data_Nd2(Zn2Ge)3
_symmetry_space_group_name_H-M   'P 1'
_cell_length_a   7.59498326
_cell_length_b   7.59498191
_cell_length_c   4.08125903
_cell_angle_alpha   90.00000000
_cell_angle_beta   90.00000000
_cell_angle_gamma   119.99999694
_symmetry_Int_Tables_number   1
_chemical_formula_structural   Nd2(Zn2Ge)3
_chemical_formula_sum   'Nd2 Zn6 Ge3'
_cell_volume   203.88175775
_cell_formula_units_Z   1
loop_
 _symmetry_equiv_pos_site_id
 _symmetry_equiv_pos_as_xyz
  1  'x, y, z'
loop_
 _atom_site_type_symbol
 _atom_site_label
 _atom_site_symmetry_multiplicity
 _atom_site_fract_x
 _atom_site_fract_y
 _atom_site_fract_z
 _atom_site_occupancy
  Nd  Nd0  1  0.66666700  0.33333300  0.00000000  1
  Nd  Nd1  1  0.33333300  0.66666700  0.00000000  1
  Zn  Zn0  1  0.71051188  0.00000000  0.50000000  1
  Zn  Zn1  1  -0.00000000  0.71051188  0.50000000  1
  Zn  Zn2  1  0.18866501  -0.00000000  0.00000000  1
  Zn  Zn3  1  0.81133499  0.81133499  -0.00000000  1
  Zn  Zn4  1  0.28948912  0.28948912  0.50000000  1
  Zn  Zn5  1  0.00000000  0.18866501  0.00000000  1
  Ge  Ge0  1  0.38026455  -0.00000000  0.50000000  1
  Ge  Ge1  1  0.61973545  0.61973545  0.50000000  1
  Ge  Ge2  1  0.00000000  0.38026455  0.50000000  1
loop_
_geom_bond_atom_site_label_1
_geom_bond_atom_site_label_2
_geom_bond_distance
_geom_bond_site_symmetry_2
Nd0 Zn5 3.224626 1_655
Nd0 Zn2 3.224631 1_555
Nd0 Zn3 3.224632 1_555
Nd0 Zn0 3.395202 1_555
Nd0 Zn0 3.395202 1_554
Nd0 Zn4 3.395205 1_555
Nd0 Zn4 3.395205 1_554
Nd0 Zn1 3.395206 1_654
Nd0 Zn1 3.395206 1_655
Nd1 Zn2 3.224625 1_565
Nd1 Zn5 3.224631 1_555
Nd1 Zn3 3.224633 1_555
Nd1 Zn1 3.395202 1_554
Nd1 Zn1 3.395202 1_555
Nd1 Zn4 3.395204 1_554
Nd1 Zn4 3.395204 1_555
Nd1 Zn0 3.395206 1_564
Nd1 Zn0 3.395206 1_565
Ge0 Zn2 2.506344 1_556
Ge0 Zn2 2.506344 1_555
Ge0 Zn0 2.508223 1_555
Ge0 Zn1 2.612524 1_545
Ge0 Zn4 2.612526 1_555
Ge0 Nd1 3.130195 1_546
Ge0 Nd1 3.130195 1_545
Ge0 Nd0 3.130197 1_556
Ge0 Nd0 3.130197 1_555
Ge1 Zn3 2.506344 1_556
Ge1 Zn3 2.506344 1_555
Ge1 Zn4 2.508215 1_555
Ge1 Zn0 2.612524 1_565
Ge1 Zn1 2.612525 1_655
Ge1 Nd0 3.130200 1_555
Ge1 Nd0 3.130200 1_556
Ge1 Nd1 3.130201 1_555
Ge1 Nd1 3.130201 1_556
Ge2 Zn5 2.506344 1_556
Ge2 Zn5 2.506344 1_555
Ge2 Zn1 2.508222 1_555
Ge2 Zn0 2.612524 1_455
Ge2 Zn4 2.612527 1_555
Ge2 Nd0 3.130195 1_456
Ge2 Nd0 3.130195 1_455
Ge2 Nd1 3.130197 1_555
Ge2 Nd1 3.130197 1_556
