# generated using pymatgen
data_TiNi
_symmetry_space_group_name_H-M   'P 1'
_cell_length_a   5.39045900
_cell_length_b   7.24928679
_cell_length_c   7.25190304
_cell_angle_alpha   119.95809840
_cell_angle_beta   90.11799842
_cell_angle_gamma   90.04025326
_symmetry_Int_Tables_number   1
_chemical_formula_structural   TiNi
_chemical_formula_sum   'Ti9 Ni9'
_cell_volume   245.51898372
_cell_formula_units_Z   9
loop_
 _symmetry_equiv_pos_site_id
 _symmetry_equiv_pos_as_xyz
  1  'x, y, z'
loop_
 _atom_site_type_symbol
 _atom_site_label
 _atom_site_symmetry_multiplicity
 _atom_site_fract_x
 _atom_site_fract_y
 _atom_site_fract_z
 _atom_site_occupancy
  Ti  Ti0  1  0.97374100  0.99928500  0.99925300  1
  Ti  Ti1  1  0.06881000  0.66618800  0.33296800  1
  Ti  Ti2  1  0.96735000  0.33310400  0.66584700  1
  Ti  Ti3  1  0.36024400  0.66883800  0.01408400  1
  Ti  Ti4  1  0.36101400  0.34733600  0.33478400  1
  Ti  Ti5  1  0.36294900  0.98582800  0.65399100  1
  Ti  Ti6  1  0.66074300  0.32710800  0.99200500  1
  Ti  Ti7  1  0.66046700  0.66507800  0.67265900  1
  Ti  Ti8  1  0.66030600  0.00769900  0.33490900  1
  Ni  Ni0  1  0.43786900  0.00248100  0.00208500  1
  Ni  Ni1  1  0.61422300  0.66589100  0.33217000  1
  Ni  Ni2  1  0.42681000  0.33390800  0.66913800  1
  Ni  Ni3  1  0.88144400  0.66851100  0.02262800  1
  Ni  Ni4  1  0.88115900  0.35212900  0.32806600  1
  Ni  Ni5  1  0.88324900  0.97653200  0.64543700  1
  Ni  Ni6  1  0.15411900  0.30685900  0.97268800  1
  Ni  Ni7  1  0.15435500  0.66609700  0.69330700  1
  Ni  Ni8  1  0.15414800  0.02712700  0.33398000  1
loop_
_geom_bond_atom_site_label_1
_geom_bond_atom_site_label_2
_geom_bond_distance
_geom_bond_site_symmetry_2
Ti0 Ti7 2.928791 1_555
Ti0 Ti6 2.937194 1_565
Ti0 Ti8 2.941460 1_566
Ti1 Ti4 2.803460 1_555
Ti1 Ti3 2.806299 1_555
Ti1 Ti5 2.809796 1_555
Ti2 Ti8 2.896155 1_555
Ti2 Ti7 2.901336 1_555
Ti2 Ti6 2.906311 1_555
Ti3 Ti8 2.886957 1_565
Ti3 Ti6 2.897765 1_554
Ti3 Ti7 2.949477 1_554
Ti4 Ti7 2.873445 1_555
Ti4 Ti6 2.909285 1_554
Ti4 Ti8 2.944941 1_555
Ti5 Ti7 2.883695 1_555
Ti5 Ti8 2.886191 1_565
Ti5 Ti6 2.937295 1_565
Ni0 Ti4 2.494814 1_555
Ni0 Ti5 2.498271 1_544
Ni0 Ti3 2.498313 1_545
Ni0 Ti0 2.501901 1_444
Ni0 Ti6 2.674878 1_554
Ni0 Ti8 2.676090 1_555
Ni0 Ti7 2.703627 1_544
Ni0 Ni6 2.779729 1_554
Ni0 Ni8 2.783888 1_555
Ni0 Ni7 2.797031 1_544
Ni0 Ti0 2.888738 1_544
Ni1 Ti1 2.450424 1_655
Ni1 Ti6 2.476388 1_554
Ni1 Ti8 2.480297 1_565
Ni1 Ti7 2.484168 1_555
Ni1 Ni3 2.677702 1_555
Ni1 Ni4 2.679942 1_555
Ni1 Ni5 2.684698 1_555
Ni1 Ti3 2.689245 1_555
Ni1 Ti4 2.689906 1_555
Ni1 Ti5 2.696660 1_555
Ni1 Ti1 2.940044 1_555
Ni2 Ti2 2.476741 1_455
Ni2 Ti5 2.493907 1_545
Ni2 Ti3 2.494085 1_556
Ni2 Ti4 2.499337 1_555
Ni2 Ti6 2.679164 1_555
Ni2 Ti7 2.699077 1_555
Ni2 Ti8 2.709879 1_555
Ni2 Ni6 2.736595 1_555
Ni2 Ni7 2.751594 1_555
Ni2 Ni8 2.756052 1_555
Ni2 Ti2 2.913892 1_555
Ni3 Ti1 2.472625 1_655
Ni3 Ti0 2.535882 1_554
Ni3 Ti2 2.558172 1_554
Ni3 Ti3 2.581851 1_655
Ni3 Ti6 2.652504 1_554
Ni3 Ti8 2.655072 1_565
Ni3 Ti7 2.790174 1_554
Ni3 Ni7 2.800138 1_654
Ni3 Ti3 2.810092 1_555
Ni3 Ni8 2.852368 1_665
Ni3 Ni6 2.867811 1_654
Ni4 Ti1 2.474593 1_655
Ni4 Ti0 2.528402 1_544
Ni4 Ti2 2.562814 1_555
Ni4 Ti4 2.587582 1_655
Ni4 Ti6 2.632534 1_554
Ni4 Ti7 2.675958 1_555
Ni4 Ti8 2.788178 1_555
Ni4 Ni8 2.797084 1_655
Ni4 Ti4 2.804836 1_555
Ni4 Ni6 2.843599 1_654
Ni4 Ni7 2.884956 1_655
Ni5 Ti1 2.473401 1_655
Ni5 Ti0 2.533916 1_555
Ni5 Ti2 2.554421 1_565
Ni5 Ti5 2.586443 1_655
Ni5 Ti7 2.649754 1_555
Ni5 Ti8 2.657783 1_565
Ni5 Ni6 2.793445 1_665
Ni5 Ti6 2.802049 1_565
Ni5 Ti5 2.805582 1_555
Ni5 Ni7 2.846644 1_655
Ni5 Ni8 2.865074 1_665
Ni6 Ti0 2.526019 1_445
Ni6 Ti2 2.532801 1_455
Ni6 Ti5 2.582108 1_545
Ni6 Ti1 2.651903 1_556
Ni6 Ti6 2.663791 1_455
Ni6 Ti3 2.723656 1_556
Ni6 Ti4 2.728208 1_556
Ni6 Ti6 2.734320 1_555
Ni7 Ti0 2.522802 1_455
Ni7 Ti2 2.529559 1_455
Ni7 Ti3 2.566459 1_556
Ni7 Ti1 2.652907 1_555
Ni7 Ti7 2.665981 1_455
Ni7 Ti4 2.712148 1_555
Ni7 Ti5 2.715800 1_555
Ni7 Ti7 2.732403 1_555
Ni8 Ti0 2.525756 1_444
Ni8 Ti2 2.531324 1_455
Ni8 Ti4 2.571902 1_555
Ni8 Ti1 2.652756 1_545
Ni8 Ti8 2.665859 1_455
Ni8 Ti3 2.712742 1_545
Ni8 Ti5 2.725009 1_545
Ni8 Ti8 2.732323 1_555
