# generated using pymatgen
data_Ho4CdPt
_symmetry_space_group_name_H-M   'P 1'
_cell_length_a   9.58572694
_cell_length_b   9.58572839
_cell_length_c   9.58572936
_cell_angle_alpha   59.99997233
_cell_angle_beta   59.99997143
_cell_angle_gamma   59.99997757
_symmetry_Int_Tables_number   1
_chemical_formula_structural   Ho4CdPt
_chemical_formula_sum   'Ho16 Cd4 Pt4'
_cell_volume   622.81645738
_cell_formula_units_Z   4
loop_
 _symmetry_equiv_pos_site_id
 _symmetry_equiv_pos_as_xyz
  1  'x, y, z'
loop_
 _atom_site_type_symbol
 _atom_site_label
 _atom_site_symmetry_multiplicity
 _atom_site_fract_x
 _atom_site_fract_y
 _atom_site_fract_z
 _atom_site_occupancy
  Ho  Ho0  1  0.60253268  0.60253365  0.60253249  1
  Ho  Ho1  1  0.60253356  0.60253460  0.19239869  1
  Ho  Ho2  1  0.60253257  0.19240034  0.60253290  1
  Ho  Ho3  1  0.19240003  0.60253358  0.60253333  1
  Ho  Ho4  1  0.05994391  0.44005518  0.44005685  1
  Ho  Ho5  1  0.44005682  0.05994521  0.05994379  1
  Ho  Ho6  1  0.44005526  0.05994391  0.44005610  1
  Ho  Ho7  1  0.05994442  0.44005532  0.05994456  1
  Ho  Ho8  1  0.44005547  0.44005554  0.05994392  1
  Ho  Ho9  1  0.05994315  0.05994421  0.44005634  1
  Ho  Ho10  1  0.18583508  0.81416613  0.81416505  1
  Ho  Ho11  1  0.81416497  0.18583387  0.18583334  1
  Ho  Ho12  1  0.81416491  0.18583482  0.81416442  1
  Ho  Ho13  1  0.18583419  0.81416653  0.18583442  1
  Ho  Ho14  1  0.81416861  0.81416618  0.18583362  1
  Ho  Ho15  1  0.18583420  0.18583349  0.81416653  1
  Cd  Cd0  1  0.83160915  0.83160896  0.83160866  1
  Cd  Cd1  1  0.83160872  0.83160818  0.50517354  1
  Cd  Cd2  1  0.83160853  0.50517268  0.83160948  1
  Cd  Cd3  1  0.50517252  0.83160915  0.83160921  1
  Pt  Pt0  1  0.39322210  0.39322160  0.39322209  1
  Pt  Pt1  1  0.39322190  0.39322151  0.82033423  1
  Pt  Pt2  1  0.39322098  0.82033365  0.39322279  1
  Pt  Pt3  1  0.82033325  0.39322173  0.39322266  1
loop_
_geom_bond_atom_site_label_1
_geom_bond_atom_site_label_2
_geom_bond_distance
_geom_bond_site_symmetry_2
Ho0 Pt2 2.838638 1_555
Ho0 Pt3 2.838640 1_555
Ho0 Pt1 2.838648 1_555
Ho1 Pt2 2.838649 1_555
Ho1 Pt3 2.838653 1_555
Ho1 Pt0 2.838658 1_555
Ho2 Pt0 2.838637 1_555
Ho2 Pt3 2.838642 1_555
Ho2 Pt1 2.838646 1_555
Ho3 Pt2 2.838635 1_555
Ho3 Pt1 2.838647 1_555
Ho3 Pt0 2.838651 1_555
Ho4 Pt0 2.818221 1_555
Ho4 Pt3 2.818225 1_455
Ho5 Pt1 2.818208 1_554
Ho5 Pt2 2.818231 1_545
Ho6 Pt0 2.818220 1_555
Ho6 Pt2 2.818221 1_545
Ho7 Pt1 2.818217 1_554
Ho7 Pt3 2.818224 1_455
Ho8 Pt1 2.818216 1_554
Ho8 Pt0 2.818224 1_555
Ho9 Pt3 2.818216 1_455
Ho9 Pt2 2.818220 1_545
Ho10 Pt2 3.477713 1_555
Ho10 Pt1 3.477728 1_555
Ho11 Pt0 3.477721 1_555
Ho11 Pt3 3.477739 1_555
Ho12 Pt3 3.477707 1_555
Ho12 Pt1 3.477713 1_555
Ho13 Pt2 3.477716 1_555
Ho13 Pt0 3.477730 1_555
Ho14 Pt3 3.477739 1_555
Ho14 Pt2 3.477757 1_555
Ho15 Pt1 3.477723 1_555
Ho15 Pt0 3.477728 1_555
Cd0 Cd1 3.129125 1_555
Cd0 Cd2 3.129129 1_555
Cd0 Cd3 3.129129 1_555
Cd0 Ho12 3.236947 1_565
Cd0 Ho10 3.236956 1_655
Cd0 Ho14 3.236961 1_556
Cd0 Ho1 3.352257 1_556
Cd0 Ho3 3.352264 1_655
Cd0 Ho2 3.352273 1_565
Cd0 Ho9 3.468303 1_665
Cd0 Ho5 3.468311 1_566
Cd0 Ho7 3.468316 1_656
Cd1 Cd2 3.129123 1_555
Cd1 Cd3 3.129125 1_555
Cd1 Ho14 3.236938 1_555
Cd1 Ho13 3.236951 1_655
Cd1 Ho11 3.236957 1_565
Cd1 Ho0 3.352267 1_555
Cd1 Ho3 3.352268 1_655
Cd1 Ho2 3.352273 1_565
Cd1 Ho4 3.468308 1_655
Cd1 Ho9 3.468313 1_665
Cd1 Ho6 3.468315 1_565
Cd2 Cd3 3.129128 1_555
Cd2 Ho11 3.236941 1_556
Cd2 Ho15 3.236952 1_655
Cd2 Ho12 3.236953 1_555
Cd2 Ho1 3.352261 1_556
Cd2 Ho3 3.352274 1_655
Cd2 Ho0 3.352278 1_555
Cd2 Ho4 3.468309 1_655
Cd2 Ho8 3.468310 1_556
Cd2 Ho7 3.468317 1_656
Cd3 Ho10 3.236940 1_555
Cd3 Ho15 3.236942 1_565
Cd3 Ho13 3.236946 1_556
Cd3 Ho1 3.352259 1_556
Cd3 Ho2 3.352268 1_565
Cd3 Ho0 3.352277 1_555
Cd3 Ho6 3.468312 1_565
Cd3 Ho8 3.468314 1_556
Cd3 Ho5 3.468322 1_566
