# generated using pymatgen
data_Mn4ZnS8
_symmetry_space_group_name_H-M   'P 1'
_cell_length_a   7.24212663
_cell_length_b   7.24212663
_cell_length_c   7.24212715
_cell_angle_alpha   55.30269978
_cell_angle_beta   55.30269978
_cell_angle_gamma   55.30269666
_symmetry_Int_Tables_number   1
_chemical_formula_structural   Mn4ZnS8
_chemical_formula_sum   'Mn4 Zn1 S8'
_cell_volume   239.26859315
_cell_formula_units_Z   1
loop_
 _symmetry_equiv_pos_site_id
 _symmetry_equiv_pos_as_xyz
  1  'x, y, z'
loop_
 _atom_site_type_symbol
 _atom_site_label
 _atom_site_symmetry_multiplicity
 _atom_site_fract_x
 _atom_site_fract_y
 _atom_site_fract_z
 _atom_site_occupancy
  Mn  Mn0  1  0.00000000  0.50000000  0.50000000  1
  Mn  Mn1  1  0.50000000  0.00000000  0.50000000  1
  Mn  Mn2  1  0.50000000  0.50000000  0.00000000  1
  Mn  Mn3  1  0.00000000  0.00000000  0.00000000  1
  Zn  Zn0  1  0.50000000  0.50000000  0.50000000  1
  S  S0  1  0.26932900  0.75539500  0.75539500  1
  S  S1  1  0.24460500  0.24460500  0.73067100  1
  S  S2  1  0.73067100  0.24460500  0.24460500  1
  S  S3  1  0.24460500  0.73067100  0.24460500  1
  S  S4  1  0.26162700  0.26162700  0.26162700  1
  S  S5  1  0.73837300  0.73837300  0.73837300  1
  S  S6  1  0.75539500  0.26932900  0.75539500  1
  S  S7  1  0.75539500  0.75539500  0.26932900  1
loop_
_geom_bond_atom_site_label_1
_geom_bond_atom_site_label_2
_geom_bond_distance
_geom_bond_site_symmetry_2
Mn0 S7 2.339014 1_455
Mn0 S1 2.339014 1_555
Mn0 S3 2.339014 1_555
Mn0 S6 2.339014 1_455
Mn0 S5 2.344259 1_455
Mn0 S4 2.344259 1_555
Mn1 S7 2.339014 1_545
Mn1 S1 2.339014 1_555
Mn1 S0 2.339014 1_545
Mn1 S2 2.339014 1_555
Mn1 S5 2.344259 1_545
Mn1 S4 2.344259 1_555
Mn2 S0 2.339014 1_554
Mn2 S6 2.339014 1_554
Mn2 S3 2.339014 1_555
Mn2 S2 2.339014 1_555
Mn2 S5 2.344259 1_554
Mn2 S4 2.344259 1_555
Mn3 S0 2.405367 1_544
Mn3 S6 2.405367 1_454
Mn3 S3 2.405367 1_545
Mn3 S2 2.405367 1_455
Mn3 S7 2.405367 1_445
Mn3 S1 2.405367 1_554
S0 Zn0 2.547959 1_555
S1 Zn0 2.547959 1_555
S2 Zn0 2.547959 1_555
S3 Zn0 2.547959 1_555
S6 Zn0 2.547959 1_555
S7 Zn0 2.547959 1_555
