# generated using pymatgen
data_Mg6AlVO8
_symmetry_space_group_name_H-M   'P 1'
_cell_length_a   8.57639854
_cell_length_b   4.33143522
_cell_length_c   4.33143522
_cell_angle_alpha   90.00000000
_cell_angle_beta   90.00000000
_cell_angle_gamma   90.00000000
_symmetry_Int_Tables_number   1
_chemical_formula_structural   Mg6AlVO8
_chemical_formula_sum   'Mg6 Al1 V1 O8'
_cell_volume   160.90465235
_cell_formula_units_Z   1
loop_
 _symmetry_equiv_pos_site_id
 _symmetry_equiv_pos_as_xyz
  1  'x, y, z'
loop_
 _atom_site_type_symbol
 _atom_site_label
 _atom_site_symmetry_multiplicity
 _atom_site_fract_x
 _atom_site_fract_y
 _atom_site_fract_z
 _atom_site_occupancy
  Mg  Mg0  1  0.50000000  0.00000000  0.00000000  1
  Mg  Mg1  1  0.50000000  0.50000000  0.50000000  1
  Mg  Mg2  1  0.25198753  0.00000000  0.50000000  1
  Mg  Mg3  1  0.74801247  0.00000000  0.50000000  1
  Mg  Mg4  1  0.25198753  0.50000000  0.00000000  1
  Mg  Mg5  1  0.74801247  0.50000000  0.00000000  1
  Al  Al0  1  0.00000000  0.00000000  0.00000000  1
  V  V0  1  0.00000000  0.50000000  0.50000000  1
  O  O0  1  0.24243269  0.00000000  0.00000000  1
  O  O1  1  0.75756731  0.00000000  0.00000000  1
  O  O2  1  0.25503995  0.50000000  0.50000000  1
  O  O3  1  0.74496005  0.50000000  0.50000000  1
  O  O4  1  0.00000000  0.00000000  0.50000000  1
  O  O5  1  0.50000000  0.00000000  0.50000000  1
  O  O6  1  0.00000000  0.50000000  0.00000000  1
  O  O7  1  0.50000000  0.50000000  0.00000000  1
loop_
_geom_bond_atom_site_label_1
_geom_bond_atom_site_label_2
_geom_bond_distance
_geom_bond_site_symmetry_2
Mg0 O5 2.165718 1_555
Mg0 O7 2.165718 1_545
Mg0 O7 2.165718 1_555
Mg0 O5 2.165718 1_554
Mg0 O1 2.209000 1_555
Mg0 O0 2.209000 1_555
Mg1 O2 2.100875 1_555
Mg1 O3 2.100875 1_555
Mg1 O5 2.165718 1_555
Mg1 O5 2.165718 1_565
Mg1 O7 2.165718 1_555
Mg1 O7 2.165718 1_556
Mg2 O5 2.127054 1_555
Mg2 O4 2.161145 1_555
Mg2 O2 2.165876 1_555
Mg2 O2 2.165876 1_545
Mg2 O0 2.167267 1_555
Mg2 O0 2.167267 1_556
Mg3 O5 2.127054 1_555
Mg3 O4 2.161145 1_655
Mg3 O3 2.165876 1_555
Mg3 O3 2.165876 1_545
Mg3 O1 2.167267 1_555
Mg3 O1 2.167267 1_556
Mg4 O7 2.127054 1_555
Mg4 O6 2.161145 1_555
Mg4 O2 2.165876 1_555
Mg4 O2 2.165876 1_554
Mg4 O0 2.167267 1_555
Mg4 O0 2.167267 1_565
Mg5 O7 2.127054 1_555
Mg5 O6 2.161145 1_655
Mg5 O3 2.165876 1_555
Mg5 O3 2.165876 1_554
Mg5 O1 2.167267 1_555
Mg5 O1 2.167267 1_565
Al0 O0 2.079199 1_555
Al0 O1 2.079199 1_455
Al0 O6 2.165718 1_555
Al0 O4 2.165718 1_555
Al0 O4 2.165718 1_554
Al0 O6 2.165718 1_545
O2 V0 2.187324 1_555
O3 V0 2.187324 1_655
O4 V0 2.165718 1_545
O4 V0 2.165718 1_555
O6 V0 2.165718 1_554
O6 V0 2.165718 1_555
