# generated using pymatgen
data_BaMg6Bi
_symmetry_space_group_name_H-M   'P 1'
_cell_length_a   5.46252800
_cell_length_b   6.76701800
_cell_length_c   12.27324200
_cell_angle_alpha   90.00000000
_cell_angle_beta   90.00000000
_cell_angle_gamma   90.00000000
_symmetry_Int_Tables_number   1
_chemical_formula_structural   BaMg6Bi
_chemical_formula_sum   'Ba2 Mg12 Bi2'
_cell_volume   453.68070106
_cell_formula_units_Z   2
loop_
 _symmetry_equiv_pos_site_id
 _symmetry_equiv_pos_as_xyz
  1  'x, y, z'
loop_
 _atom_site_type_symbol
 _atom_site_label
 _atom_site_symmetry_multiplicity
 _atom_site_fract_x
 _atom_site_fract_y
 _atom_site_fract_z
 _atom_site_occupancy
  Ba  Ba0  1  0.50000000  0.00000000  0.16884000  1
  Ba  Ba1  1  0.50000000  0.50000000  0.66884000  1
  Mg  Mg0  1  0.50000000  0.24670400  0.41758900  1
  Mg  Mg1  1  0.50000000  0.75329600  0.41758900  1
  Mg  Mg2  1  0.00000000  0.73743000  0.07459100  1
  Mg  Mg3  1  0.00000000  0.26257000  0.07459100  1
  Mg  Mg4  1  0.00000000  0.00000000  0.34588300  1
  Mg  Mg5  1  0.00000000  0.50000000  0.33764900  1
  Mg  Mg6  1  0.50000000  0.74670400  0.91758900  1
  Mg  Mg7  1  0.50000000  0.25329600  0.91758900  1
  Mg  Mg8  1  0.00000000  0.23743000  0.57459100  1
  Mg  Mg9  1  0.00000000  0.76257000  0.57459100  1
  Mg  Mg10  1  0.00000000  0.50000000  0.84588300  1
  Mg  Mg11  1  0.00000000  0.00000000  0.83764900  1
  Bi  Bi0  1  0.50000000  0.50000000  0.16326300  1
  Bi  Bi1  1  0.50000000  0.00000000  0.66326300  1
loop_
_geom_bond_atom_site_label_1
_geom_bond_atom_site_label_2
_geom_bond_distance
_geom_bond_site_symmetry_2
Ba0 Bi0 3.384201 1_555
Ba0 Bi0 3.384201 1_545
Ba0 Mg2 3.457590 1_545
Ba0 Mg3 3.457590 1_655
Ba0 Mg3 3.457590 1_555
Ba0 Mg2 3.457590 1_645
Ba0 Mg0 3.479599 1_555
Ba0 Mg1 3.479599 1_545
Ba0 Mg4 3.490166 1_655
Ba0 Mg4 3.490166 1_555
Ba0 Mg6 3.528028 1_544
Ba0 Mg7 3.528028 1_554
Ba1 Bi1 3.384201 1_555
Ba1 Bi1 3.384201 1_565
Ba1 Mg8 3.457590 1_655
Ba1 Mg9 3.457590 1_555
Ba1 Mg9 3.457590 1_655
Ba1 Mg8 3.457590 1_555
Ba1 Mg7 3.479599 1_555
Ba1 Mg6 3.479599 1_555
Ba1 Mg10 3.490166 1_555
Ba1 Mg10 3.490166 1_655
Ba1 Mg1 3.528028 1_555
Ba1 Mg0 3.528028 1_555
Mg0 Mg4 3.319847 1_555
Mg0 Mg4 3.319847 1_655
Mg0 Mg1 3.338901 1_545
Mg0 Mg8 3.343169 1_555
Mg0 Mg8 3.343169 1_655
Mg0 Mg5 3.370520 1_555
Mg0 Mg5 3.370520 1_655
Mg0 Mg1 3.428117 1_555
Mg1 Mg4 3.319847 1_565
Mg1 Mg4 3.319847 1_665
Mg1 Mg9 3.343169 1_555
Mg1 Mg9 3.343169 1_655
Mg1 Mg5 3.370520 1_555
Mg1 Mg5 3.370520 1_655
Mg2 Mg6 3.343169 1_554
Mg2 Mg6 3.343169 1_454
Mg3 Mg7 3.343169 1_454
Mg3 Mg7 3.343169 1_554
Mg4 Mg8 3.234292 1_555
Mg4 Mg9 3.234292 1_545
Mg4 Mg5 3.385018 1_545
Mg4 Mg5 3.385018 1_555
Mg6 Mg7 3.338901 1_555
Mg6 Mg7 3.428117 1_565
Mg10 Mg2 3.234292 1_556
Mg10 Mg3 3.234292 1_556
Mg10 Mg7 3.319847 1_555
Mg10 Mg7 3.319847 1_455
Mg10 Mg6 3.319847 1_555
Mg10 Mg6 3.319847 1_455
Mg10 Mg11 3.385018 1_555
Mg10 Mg11 3.385018 1_565
Mg11 Mg6 3.370520 1_445
Mg11 Mg6 3.370520 1_545
Mg11 Mg7 3.370520 1_555
Mg11 Mg7 3.370520 1_455
Bi0 Mg2 3.350470 1_555
Bi0 Mg3 3.350470 1_655
Bi0 Mg3 3.350470 1_555
Bi0 Mg2 3.350470 1_655
Bi0 Mg6 3.446534 1_554
Bi0 Mg7 3.446534 1_554
Bi0 Mg5 3.469958 1_655
Bi0 Mg5 3.469958 1_555
Bi0 Mg1 3.561062 1_555
Bi0 Mg0 3.561062 1_555
Bi1 Mg8 3.350470 1_555
Bi1 Mg8 3.350470 1_655
Bi1 Mg9 3.350470 1_545
Bi1 Mg9 3.350470 1_645
Bi1 Mg1 3.446534 1_545
Bi1 Mg0 3.446534 1_555
Bi1 Mg11 3.469958 1_555
Bi1 Mg11 3.469958 1_655
Bi1 Mg6 3.561062 1_545
Bi1 Mg7 3.561062 1_555
