# generated using pymatgen
data_KLiYb2(MoO4)4
_symmetry_space_group_name_H-M   'P 1'
_cell_length_a   6.97044925
_cell_length_b   6.97044925
_cell_length_c   19.88143555
_cell_angle_alpha   88.67616814
_cell_angle_beta   88.67616814
_cell_angle_gamma   135.94443091
_symmetry_Int_Tables_number   1
_chemical_formula_structural   KLiYb2(MoO4)4
_chemical_formula_sum   'K2 Li2 Yb4 Mo8 O32'
_cell_volume   670.42588826
_cell_formula_units_Z   2
loop_
 _symmetry_equiv_pos_site_id
 _symmetry_equiv_pos_as_xyz
  1  'x, y, z'
loop_
 _atom_site_type_symbol
 _atom_site_label
 _atom_site_symmetry_multiplicity
 _atom_site_fract_x
 _atom_site_fract_y
 _atom_site_fract_z
 _atom_site_occupancy
  K  K0  1  0.53279000  0.46721000  0.25000000  1
  K  K1  1  0.46721000  0.53279000  0.75000000  1
  Li  Li0  1  0.81064500  0.18935500  0.25000000  1
  Li  Li1  1  0.18935500  0.81064500  0.75000000  1
  Yb  Yb0  1  0.64914100  0.35455800  0.03118100  1
  Yb  Yb1  1  0.35085900  0.64544200  0.96881900  1
  Yb  Yb2  1  0.64544200  0.35085900  0.46881900  1
  Yb  Yb3  1  0.35455800  0.64914100  0.53118100  1
  Mo  Mo0  1  0.91588300  0.04115900  0.09076200  1
  Mo  Mo1  1  0.08411700  0.95884100  0.90923800  1
  Mo  Mo2  1  0.95884100  0.08411700  0.40923800  1
  Mo  Mo3  1  0.04115900  0.91588300  0.59076200  1
  Mo  Mo4  1  0.22966400  0.74460400  0.14693400  1
  Mo  Mo5  1  0.77033600  0.25539600  0.85306600  1
  Mo  Mo6  1  0.25539600  0.77033600  0.35306600  1
  Mo  Mo7  1  0.74460400  0.22966400  0.64693400  1
  O  O0  1  0.66886000  0.00500200  0.04426000  1
  O  O1  1  0.33114000  0.99499800  0.95574000  1
  O  O2  1  0.99499800  0.33114000  0.45574000  1
  O  O3  1  0.00500200  0.66886000  0.54426000  1
  O  O4  1  0.50082300  0.77429500  0.17407000  1
  O  O5  1  0.49917700  0.22570500  0.82593000  1
  O  O6  1  0.22570500  0.49917700  0.32593000  1
  O  O7  1  0.77429500  0.50082300  0.67407000  1
  O  O8  1  0.72761700  0.76619300  0.46147000  1
  O  O9  1  0.27238300  0.23380700  0.53853000  1
  O  O10  1  0.23380700  0.27238300  0.03853000  1
  O  O11  1  0.76619300  0.72761700  0.96147000  1
  O  O12  1  0.43156600  0.91197400  0.43160500  1
  O  O13  1  0.56843400  0.08802600  0.56839500  1
  O  O14  1  0.08802600  0.56843400  0.06839500  1
  O  O15  1  0.91197400  0.43156600  0.93160500  1
  O  O16  1  0.79412400  0.98493100  0.32857200  1
  O  O17  1  0.20587600  0.01506900  0.67142800  1
  O  O18  1  0.01506900  0.20587600  0.17142800  1
  O  O19  1  0.98493100  0.79412400  0.82857200  1
  O  O20  1  0.72263300  0.81172800  0.60062000  1
  O  O21  1  0.27736700  0.18827200  0.39938000  1
  O  O22  1  0.18827200  0.27736700  0.89938000  1
  O  O23  1  0.81172800  0.72263300  0.10062000  1
  O  O24  1  0.39329200  0.09112900  0.13451000  1
  O  O25  1  0.60670800  0.90887100  0.86549000  1
  O  O26  1  0.90887100  0.60670800  0.36549000  1
  O  O27  1  0.09112900  0.39329200  0.63451000  1
  O  O28  1  0.43768000  0.03117900  0.28751200  1
  O  O29  1  0.56232000  0.96882100  0.71248800  1
  O  O30  1  0.96882100  0.56232000  0.21248800  1
  O  O31  1  0.03117900  0.43768000  0.78751200  1
loop_
_geom_bond_atom_site_label_1
_geom_bond_atom_site_label_2
_geom_bond_distance
_geom_bond_site_symmetry_2
K0 O28 2.685055 1_555
K0 O30 2.685055 1_555
K0 O4 2.731693 1_555
K0 O6 2.731693 1_555
K0 O16 3.118474 1_555
K0 O18 3.118474 1_555
K0 O26 3.131635 1_555
K0 O24 3.131635 1_555
K0 O21 3.206830 1_555
K0 O23 3.206830 1_555
K1 O31 2.685055 1_555
K1 O29 2.685055 1_555
K1 O7 2.731693 1_555
K1 O5 2.731693 1_555
K1 O19 3.118474 1_555
K1 O17 3.118474 1_555
K1 O25 3.131635 1_555
K1 O27 3.131635 1_555
K1 O22 3.206830 1_555
K1 O20 3.206830 1_555
Li0 O16 2.033935 1_545
Li0 O18 2.033935 1_655
Li0 O28 2.069533 1_555
Li0 O30 2.069533 1_555
Li0 O4 2.585540 1_545
Li0 O6 2.585540 1_655
Li1 O19 2.033935 1_455
Li1 O17 2.033935 1_565
Li1 O31 2.069533 1_555
Li1 O29 2.069533 1_555
Li1 O7 2.585540 1_455
Li1 O5 2.585540 1_565
Mo0 O23 1.775256 1_545
Mo0 O10 1.808210 1_655
Mo0 O0 1.828565 1_555
Mo0 O18 1.834024 1_655
Mo0 O4 2.544544 1_545
Mo1 O22 1.775256 1_565
Mo1 O11 1.808210 1_455
Mo1 O1 1.828565 1_555
Mo1 O19 1.834024 1_455
Mo1 O5 2.544544 1_565
Mo2 O21 1.775256 1_655
Mo2 O8 1.808210 1_545
Mo2 O2 1.828565 1_555
Mo2 O16 1.834024 1_545
Mo2 O6 2.544544 1_655
Mo3 O20 1.775256 1_455
Mo3 O9 1.808210 1_565
Mo3 O3 1.828565 1_555
Mo3 O17 1.834024 1_565
Mo3 O7 2.544544 1_455
Mo4 O30 1.764180 1_455
Mo4 O24 1.787695 1_565
Mo4 O14 1.827050 1_555
Mo4 O4 1.842933 1_555
Mo5 O31 1.764180 1_655
Mo5 O25 1.787695 1_545
Mo5 O15 1.827050 1_555
Mo5 O5 1.842933 1_555
Mo6 O28 1.764180 1_565
Mo6 O26 1.787695 1_455
Mo6 O12 1.827050 1_555
Mo6 O6 1.842933 1_555
Mo7 O29 1.764180 1_545
Mo7 O27 1.787695 1_655
Mo7 O13 1.827050 1_555
Mo7 O7 1.842933 1_555
O0 Yb1 2.405567 1_544
O0 Yb0 2.545013 1_555
O1 Yb0 2.405567 1_566
O1 Yb1 2.545013 1_555
O2 Yb3 2.405567 1_655
O2 Yb2 2.545013 1_555
O3 Yb2 2.405567 1_455
O3 Yb3 2.545013 1_555
O8 Yb3 2.465821 1_555
O8 Yb2 2.514742 1_555
O9 Yb2 2.465821 1_555
O9 Yb3 2.514742 1_555
O10 Yb1 2.465821 1_554
O10 Yb0 2.514742 1_555
O11 Yb0 2.465821 1_556
O11 Yb1 2.514742 1_555
O12 Yb2 2.393545 1_565
O12 Yb3 2.435913 1_555
O13 Yb3 2.393545 1_545
O13 Yb2 2.435913 1_555
O14 Yb0 2.393545 1_455
O14 Yb1 2.435913 1_554
O15 Yb1 2.393545 1_655
O15 Yb0 2.435913 1_556
O20 Yb3 2.414441 1_555
O21 Yb2 2.414441 1_555
O22 Yb1 2.414441 1_555
O23 Yb0 2.414441 1_555
O24 Yb0 2.392077 1_555
O25 Yb1 2.392077 1_555
O26 Yb2 2.392077 1_555
O27 Yb3 2.392077 1_555
