# generated using pymatgen
data_KMn(PO3)3
_symmetry_space_group_name_H-M   'P 1'
_cell_length_a   6.76044602
_cell_length_b   6.76044602
_cell_length_c   10.18438800
_cell_angle_alpha   90.00000000
_cell_angle_beta   90.00000000
_cell_angle_gamma   120.00000020
_symmetry_Int_Tables_number   1
_chemical_formula_structural   KMn(PO3)3
_chemical_formula_sum   'K2 Mn2 P6 O18'
_cell_volume   403.10321898
_cell_formula_units_Z   2
loop_
 _symmetry_equiv_pos_site_id
 _symmetry_equiv_pos_as_xyz
  1  'x, y, z'
loop_
 _atom_site_type_symbol
 _atom_site_label
 _atom_site_symmetry_multiplicity
 _atom_site_fract_x
 _atom_site_fract_y
 _atom_site_fract_z
 _atom_site_occupancy
  K  K0  1  0.00000000  0.00000000  0.00000000  1
  K  K1  1  0.00000000  0.00000000  0.50000000  1
  Mn  Mn0  1  0.66666700  0.33333300  0.00000000  1
  Mn  Mn1  1  0.66666700  0.33333300  0.50000000  1
  P  P0  1  0.38483000  0.43949300  0.25000000  1
  P  P1  1  0.56050700  0.94533800  0.25000000  1
  P  P2  1  0.38483000  0.94533800  0.75000000  1
  P  P3  1  0.05466200  0.61517000  0.25000000  1
  P  P4  1  0.56050700  0.61517000  0.75000000  1
  P  P5  1  0.05466200  0.43949300  0.75000000  1
  O  O0  1  0.93424000  0.59925700  0.12347100  1
  O  O1  1  0.40074300  0.33498300  0.12347100  1
  O  O2  1  0.93424000  0.59925700  0.37652900  1
  O  O3  1  0.93424000  0.33498300  0.62347100  1
  O  O4  1  0.66501700  0.06576000  0.12347100  1
  O  O5  1  0.40074300  0.33498300  0.37652900  1
  O  O6  1  0.40074300  0.06576000  0.62347100  1
  O  O7  1  0.93424000  0.33498300  0.87652900  1
  O  O8  1  0.66501700  0.06576000  0.37652900  1
  O  O9  1  0.40074300  0.06576000  0.87652900  1
  O  O10  1  0.66501700  0.59925700  0.62347100  1
  O  O11  1  0.66501700  0.59925700  0.87652900  1
  O  O12  1  0.14136400  0.43165900  0.25000000  1
  O  O13  1  0.56834100  0.70970500  0.25000000  1
  O  O14  1  0.14136400  0.70970500  0.75000000  1
  O  O15  1  0.29029500  0.85863600  0.25000000  1
  O  O16  1  0.56834100  0.85863600  0.75000000  1
  O  O17  1  0.29029500  0.43165900  0.75000000  1
loop_
_geom_bond_atom_site_label_1
_geom_bond_atom_site_label_2
_geom_bond_distance
_geom_bond_site_symmetry_2
K0 O11 2.813226 1_444
K0 O1 2.813226 1_555
K0 O0 2.813226 1_445
K0 O9 2.813226 1_554
K0 O4 2.813226 1_455
K0 O7 2.813226 1_454
K1 O10 2.813226 1_445
K1 O5 2.813226 1_555
K1 O2 2.813226 1_445
K1 O6 2.813226 1_555
K1 O8 2.813226 1_455
K1 O3 2.813226 1_455
Mn0 O4 2.198490 1_555
Mn0 O7 2.198490 1_554
Mn0 O9 2.198493 1_554
Mn0 O0 2.198493 1_555
Mn0 O1 2.198496 1_555
Mn0 O11 2.198496 1_554
Mn1 O3 2.198490 1_555
Mn1 O8 2.198490 1_555
Mn1 O2 2.198493 1_555
Mn1 O6 2.198493 1_555
Mn1 O5 2.198496 1_555
Mn1 O10 2.198496 1_555
O0 P3 1.499101 1_655
O1 P0 1.499105 1_555
O2 P3 1.499101 1_655
O3 P5 1.499103 1_655
O4 P1 1.499103 1_545
O5 P0 1.499105 1_555
O6 P2 1.499101 1_545
O7 P5 1.499103 1_655
O8 P1 1.499103 1_545
O9 P2 1.499101 1_545
O10 P4 1.499105 1_555
O11 P4 1.499105 1_555
O12 P3 1.615510 1_555
O12 P0 1.620107 1_555
O13 P0 1.615505 1_555
O13 P1 1.620114 1_555
O14 P5 1.615504 1_555
O14 P2 1.620111 1_555
O15 P1 1.615504 1_555
O15 P3 1.620111 1_555
O16 P2 1.615510 1_555
O16 P4 1.620107 1_555
O17 P4 1.615505 1_555
O17 P5 1.620114 1_555
