# generated using pymatgen
data_Na2Ti3Mn(Si2O11)2
_symmetry_space_group_name_H-M   'P 1'
_cell_length_a   5.69715600
_cell_length_b   7.01076967
_cell_length_c   12.22430443
_cell_angle_alpha   86.61514122
_cell_angle_beta   78.11901430
_cell_angle_gamma   85.33653063
_symmetry_Int_Tables_number   1
_chemical_formula_structural   Na2Ti3Mn(Si2O11)2
_chemical_formula_sum   'Na2 Ti3 Mn1 Si4 O22'
_cell_volume   475.76674837
_cell_formula_units_Z   1
loop_
 _symmetry_equiv_pos_site_id
 _symmetry_equiv_pos_as_xyz
  1  'x, y, z'
loop_
 _atom_site_type_symbol
 _atom_site_label
 _atom_site_symmetry_multiplicity
 _atom_site_fract_x
 _atom_site_fract_y
 _atom_site_fract_z
 _atom_site_occupancy
  Na  Na0  1  0.31228700  0.70871200  0.28638900  1
  Na  Na1  1  0.79233500  0.46494600  0.27571500  1
  Ti  Ti0  1  0.78082000  0.84616600  0.00939600  1
  Ti  Ti1  1  0.32391800  0.92647300  0.52208700  1
  Ti  Ti2  1  0.33187800  0.19044100  0.26265000  1
  Mn  Mn0  1  0.80745700  0.97722200  0.28051900  1
  Si  Si0  1  0.04885300  0.29165200  0.46335900  1
  Si  Si1  1  0.85298900  0.69893000  0.49666000  1
  Si  Si2  1  0.16696800  0.53788800  0.06461100  1
  Si  Si3  1  0.26368500  0.94964400  0.05878200  1
  O  O0  1  0.59971900  0.80401100  0.56102800  1
  O  O1  1  0.17869900  0.99549300  0.19269900  1
  O  O2  1  0.38090300  0.36020000  0.84752000  1
  O  O3  1  0.52159800  0.03144800  0.00663700  1
  O  O4  1  0.60886900  0.13905100  0.70618500  1
  O  O5  1  0.89674300  0.74278900  0.36078800  1
  O  O6  1  0.16103200  0.16163900  0.55915700  1
  O  O7  1  0.58517500  0.38616200  0.79346300  1
  O  O8  1  0.20165400  0.37691300  0.15573000  1
  O  O9  1  0.74536300  0.81662400  0.16888700  1
  O  O10  1  0.86823200  0.83383400  0.83332500  1
  O  O11  1  0.68091100  0.73381500  0.87484900  1
  O  O12  1  0.27943900  0.38286000  0.37290800  1
  O  O13  1  0.64431400  0.19974300  0.21543900  1
  O  O14  1  0.08912400  0.76094600  0.54057900  1
  O  O15  1  0.85152100  0.46284800  0.51515600  1
  O  O16  1  0.05370400  0.98990900  0.98955500  1
  O  O17  1  0.94740800  0.16475200  0.37546000  1
  O  O18  1  0.40732800  0.09296100  0.75225500  1
  O  O19  1  0.42862400  0.97234100  0.37265400  1
  O  O20  1  0.33986100  0.70777800  0.06632600  1
  O  O21  1  0.94559000  0.57081100  0.00723300  1
loop_
_geom_bond_atom_site_label_1
_geom_bond_atom_site_label_2
_geom_bond_distance
_geom_bond_site_symmetry_2
Na0 O5 2.352875 1_455
Na0 O19 2.384210 1_555
Na0 O1 2.402383 1_555
Na0 O12 2.464780 1_555
Na0 O20 2.662584 1_555
Na0 O9 2.727465 1_555
Na1 O13 2.320252 1_555
Na1 O5 2.431450 1_555
Na1 O8 2.536677 1_655
Na1 O17 2.556316 1_555
Na1 O9 2.740848 1_555
Mn0 O9 1.923539 1_555
Mn0 O5 1.949868 1_555
Mn0 O13 1.962820 1_565
Mn0 O17 2.107810 1_565
Mn0 O1 2.176031 1_655
Mn0 O19 2.221343 1_555
O0 Si1 1.634620 1_555
O0 Ti1 1.863599 1_555
O1 Si3 1.651702 1_555
O1 Ti2 1.999991 1_565
O2 O7 1.236019 1_555
O3 Si3 1.613221 1_545
O3 Ti0 1.890206 1_545
O5 Si1 1.642280 1_555
O6 Si0 1.642577 1_555
O6 Ti1 1.857684 1_545
O8 Si2 1.568223 1_555
O8 Ti2 2.001898 1_555
O9 Ti0 1.918816 1_555
O10 O11 1.320932 1_555
O10 Ti0 2.112272 1_556
O11 Ti0 2.064207 1_556
O12 Si0 1.676970 1_555
O12 Ti2 1.925897 1_555
O13 Ti2 1.759873 1_555
O14 Si1 1.645348 1_455
O14 Ti1 1.812196 1_555
O15 Si0 1.637851 1_655
O15 Si1 1.657674 1_555
O16 Si3 1.600212 1_556
O16 Ti0 1.887324 1_456
O17 Si0 1.652963 1_655
O17 Ti2 2.350105 1_655
O18 O4 1.229855 1_555
O19 Ti1 1.819142 1_555
O19 Ti2 2.091748 1_565
O20 Si2 1.609815 1_555
O20 Si3 1.717698 1_555
O21 Si2 1.560044 1_655
O21 Ti0 2.075975 1_555
