# generated using pymatgen
data_Mn2O3
_symmetry_space_group_name_H-M   'P 1'
_cell_length_a   10.02974147
_cell_length_b   10.02974116
_cell_length_c   10.02974100
_cell_angle_alpha   109.47122031
_cell_angle_beta   109.47121968
_cell_angle_gamma   109.47122507
_symmetry_Int_Tables_number   1
_chemical_formula_structural   Mn2O3
_chemical_formula_sum   'Mn16 O24'
_cell_volume   776.68921510
_cell_formula_units_Z   8
loop_
 _symmetry_equiv_pos_site_id
 _symmetry_equiv_pos_as_xyz
  1  'x, y, z'
loop_
 _atom_site_type_symbol
 _atom_site_label
 _atom_site_symmetry_multiplicity
 _atom_site_fract_x
 _atom_site_fract_y
 _atom_site_fract_z
 _atom_site_occupancy
  Mn  Mn0  1  0.75000000  0.86888300  0.11888300  1
  Mn  Mn1  1  0.38111700  0.25000000  0.63111700  1
  Mn  Mn2  1  0.63111700  0.38111700  0.25000000  1
  Mn  Mn3  1  0.11888300  0.75000000  0.86888300  1
  Mn  Mn4  1  0.86888300  0.11888300  0.75000000  1
  Mn  Mn5  1  0.25000000  0.63111700  0.38111700  1
  Mn  Mn6  1  0.75000000  0.36503900  0.61503900  1
  Mn  Mn7  1  0.88496100  0.25000000  0.13496100  1
  Mn  Mn8  1  0.13496100  0.88496100  0.25000000  1
  Mn  Mn9  1  0.61503900  0.75000000  0.36503900  1
  Mn  Mn10  1  0.36503900  0.61503900  0.75000000  1
  Mn  Mn11  1  0.25000000  0.13496100  0.88496100  1
  Mn  Mn12  1  0.97824500  0.50000000  0.00000000  1
  Mn  Mn13  1  0.50000000  0.00000000  0.97824500  1
  Mn  Mn14  1  0.00000000  0.97824500  0.50000000  1
  Mn  Mn15  1  0.52175500  0.52175500  0.52175500  1
  O  O0  1  0.37444300  0.43992500  0.74227900  1
  O  O1  1  0.19764600  0.63216400  0.75772100  1
  O  O2  1  0.30235500  0.06007500  0.43451800  1
  O  O3  1  0.86783600  0.06548200  0.12555700  1
  O  O4  1  0.06548200  0.12555700  0.86783600  1
  O  O5  1  0.74227900  0.37444300  0.43992500  1
  O  O6  1  0.63216400  0.75772100  0.19764600  1
  O  O7  1  0.43451800  0.30235500  0.06007500  1
  O  O8  1  0.43992500  0.74227900  0.37444300  1
  O  O9  1  0.75772100  0.19764600  0.63216400  1
  O  O10  1  0.06007500  0.43451800  0.30235500  1
  O  O11  1  0.12555700  0.86783600  0.06548200  1
  O  O12  1  0.88540900  0.26980200  0.95155600  1
  O  O13  1  0.81824700  0.93385400  0.54844400  1
  O  O14  1  0.68175300  0.23019800  0.11560700  1
  O  O15  1  0.56614600  0.38439300  0.61459100  1
  O  O16  1  0.61459100  0.56614600  0.38439300  1
  O  O17  1  0.23019800  0.11560700  0.68175300  1
  O  O18  1  0.54844400  0.81824700  0.93385400  1
  O  O19  1  0.26980200  0.95155600  0.88540900  1
  O  O20  1  0.11560700  0.68175300  0.23019800  1
  O  O21  1  0.93385400  0.54844400  0.81824700  1
  O  O22  1  0.95155600  0.88540900  0.26980200  1
  O  O23  1  0.38439300  0.61459100  0.56614600  1
loop_
_geom_bond_atom_site_label_1
_geom_bond_atom_site_label_2
_geom_bond_distance
_geom_bond_site_symmetry_2
Mn0 O3 1.896064 1_565
Mn0 O6 1.896064 1_555
Mn0 O18 1.993675 1_554
Mn0 O22 1.993676 1_555
Mn1 O0 1.896064 1_555
Mn1 O2 1.896067 1_555
Mn1 O17 1.993668 1_555
Mn1 O15 1.993668 1_555
Mn2 O5 1.896064 1_555
Mn2 O7 1.896067 1_555
Mn2 O16 1.993668 1_555
Mn2 O14 1.993668 1_555
Mn3 O11 1.896064 1_556
Mn3 O1 1.896065 1_555
Mn3 O21 1.993674 1_455
Mn3 O19 1.993676 1_555
Mn4 O9 1.896065 1_555
Mn4 O4 1.896065 1_655
Mn4 O13 1.993675 1_545
Mn4 O12 1.993676 1_555
Mn5 O8 1.896064 1_555
Mn5 O10 1.896067 1_555
Mn5 O23 1.993668 1_555
Mn5 O20 1.993668 1_555
Mn6 O5 1.767565 1_555
Mn6 O9 1.767565 1_555
Mn6 O21 1.916180 1_555
Mn6 O15 1.916183 1_555
Mn7 O3 1.767565 1_555
Mn7 O10 1.767568 1_655
Mn7 O12 1.916173 1_554
Mn7 O14 1.916183 1_555
Mn8 O11 1.767565 1_555
Mn8 O2 1.767568 1_565
Mn8 O22 1.916173 1_455
Mn8 O20 1.916183 1_555
Mn9 O6 1.767565 1_555
Mn9 O8 1.767565 1_555
Mn9 O13 1.916180 1_555
Mn9 O16 1.916183 1_555
Mn10 O0 1.767565 1_555
Mn10 O1 1.767565 1_555
Mn10 O18 1.916180 1_555
Mn10 O23 1.916183 1_555
Mn11 O4 1.767565 1_555
Mn11 O7 1.767568 1_556
Mn11 O19 1.916173 1_545
Mn11 O17 1.916183 1_555
Mn12 O21 1.987719 1_554
Mn12 O20 1.987725 1_655
Mn12 O12 1.987728 1_554
Mn13 O18 1.987719 1_545
Mn13 O14 1.987725 1_556
Mn13 O19 1.987728 1_545
Mn14 O13 1.987719 1_455
Mn14 O17 1.987725 1_565
Mn14 O22 1.987728 1_455
Mn15 O16 1.987725 1_555
Mn15 O15 1.987725 1_555
Mn15 O23 1.987725 1_555
