# generated using pymatgen
data_Tl2SCl2
_symmetry_space_group_name_H-M   'P 1'
_cell_length_a   6.47313100
_cell_length_b   6.47313100
_cell_length_c   12.67323000
_cell_angle_alpha   90.00000000
_cell_angle_beta   90.00000000
_cell_angle_gamma   90.00000000
_symmetry_Int_Tables_number   1
_chemical_formula_structural   Tl2SCl2
_chemical_formula_sum   'Tl2 S1 Cl2'
_cell_volume   531.02639563
_cell_formula_units_Z   1
loop_
 _symmetry_equiv_pos_site_id
 _symmetry_equiv_pos_as_xyz
  1  'x, y, z'
loop_
 _atom_site_type_symbol
 _atom_site_label
 _atom_site_symmetry_multiplicity
 _atom_site_fract_x
 _atom_site_fract_y
 _atom_site_fract_z
 _atom_site_occupancy
  Tl  Tl0  1  0.50000000  0.50000000  0.19712300  1
  Tl  Tl1  1  0.50000000  0.50000000  0.80287700  1
  S  S0  1  0.50000000  0.50000000  0.00000000  1
  Cl  Cl0  1  0.50000000  0.50000000  0.60505000  1
  Cl  Cl1  1  0.50000000  0.50000000  0.39495000  1
loop_
_geom_bond_atom_site_label_1
_geom_bond_atom_site_label_2
_geom_bond_distance
_geom_bond_site_symmetry_2
S0 Tl0 2.498185 1_555
S0 Tl1 2.498185 1_554
Cl0 Tl1 2.507107 1_555
Cl1 Tl0 2.507107 1_555
