# generated using pymatgen
data_RbTbP2O7
_symmetry_space_group_name_H-M   'P 1'
_cell_length_a   7.90044876
_cell_length_b   8.85672705
_cell_length_c   11.13592800
_cell_angle_alpha   90.00000000
_cell_angle_beta   90.00000000
_cell_angle_gamma   105.51593911
_symmetry_Int_Tables_number   1
_chemical_formula_structural   RbTbP2O7
_chemical_formula_sum   'Rb4 Tb4 P8 O28'
_cell_volume   750.80719949
_cell_formula_units_Z   4
loop_
 _symmetry_equiv_pos_site_id
 _symmetry_equiv_pos_as_xyz
  1  'x, y, z'
loop_
 _atom_site_type_symbol
 _atom_site_label
 _atom_site_symmetry_multiplicity
 _atom_site_fract_x
 _atom_site_fract_y
 _atom_site_fract_z
 _atom_site_occupancy
  Rb  Rb0  1  0.81846600  0.94354200  0.31798100  1
  Rb  Rb1  1  0.18153400  0.05645800  0.68201900  1
  Rb  Rb2  1  0.18153400  0.55645800  0.81798100  1
  Rb  Rb3  1  0.81846600  0.44354200  0.18201900  1
  Tb  Tb0  1  0.76197700  0.74253000  0.90068500  1
  Tb  Tb1  1  0.23802300  0.25747000  0.09931500  1
  Tb  Tb2  1  0.23802300  0.75747000  0.40068500  1
  Tb  Tb3  1  0.76197700  0.24253000  0.59931500  1
  P  P0  1  0.56676000  0.80822200  0.63316400  1
  P  P1  1  0.43324000  0.19177800  0.36683600  1
  P  P2  1  0.43324000  0.69177800  0.13316400  1
  P  P3  1  0.56676000  0.30822200  0.86683600  1
  P  P4  1  0.86754600  0.67695300  0.59820000  1
  P  P5  1  0.13245400  0.32304700  0.40180000  1
  P  P6  1  0.13245400  0.82304700  0.09820000  1
  P  P7  1  0.86754600  0.17695300  0.90180000  1
  O  O0  1  0.38555000  0.76567000  0.57432200  1
  O  O1  1  0.61445000  0.23433000  0.42567800  1
  O  O2  1  0.61445000  0.73433000  0.07432200  1
  O  O3  1  0.38555000  0.26567000  0.92567800  1
  O  O4  1  0.91864000  0.74150600  0.72517200  1
  O  O5  1  0.08136000  0.25849400  0.27482800  1
  O  O6  1  0.08136000  0.75849400  0.22517200  1
  O  O7  1  0.91864000  0.24150600  0.77482800  1
  O  O8  1  0.55252000  0.76109900  0.76584100  1
  O  O9  1  0.44748000  0.23890100  0.23415900  1
  O  O10  1  0.44748000  0.73890100  0.26584100  1
  O  O11  1  0.55252000  0.26109900  0.73415900  1
  O  O12  1  0.67072300  0.97740400  0.60829300  1
  O  O13  1  0.32927700  0.02259600  0.39170700  1
  O  O14  1  0.32927700  0.52259600  0.10829300  1
  O  O15  1  0.67072300  0.47740400  0.89170700  1
  O  O16  1  0.84970300  0.00211100  0.90998500  1
  O  O17  1  0.15029700  0.99788900  0.09001500  1
  O  O18  1  0.15029700  0.49788900  0.40998500  1
  O  O19  1  0.84970300  0.50211100  0.59001500  1
  O  O20  1  0.67383300  0.69803700  0.56534300  1
  O  O21  1  0.32616700  0.30196300  0.43465700  1
  O  O22  1  0.32616700  0.80196300  0.06534300  1
  O  O23  1  0.67383300  0.19803700  0.93465700  1
  O  O24  1  0.00834200  0.72688600  0.00321200  1
  O  O25  1  0.99165800  0.27311400  0.99678800  1
  O  O26  1  0.99165800  0.77311400  0.50321200  1
  O  O27  1  0.00834200  0.22688600  0.49678800  1
loop_
_geom_bond_atom_site_label_1
_geom_bond_atom_site_label_2
_geom_bond_distance
_geom_bond_site_symmetry_2
O0 P0 1.527196 1_555
O0 Tb2 2.248842 1_555
O0 Rb2 3.434505 1_555
O0 Rb1 3.590270 1_565
O1 P1 1.527196 1_555
O1 Tb3 2.248842 1_555
O1 Rb3 3.434505 1_555
O1 Rb0 3.590270 1_545
O2 P2 1.527196 1_555
O2 Tb0 2.248842 1_554
O2 Rb0 3.434505 1_555
O2 Rb3 3.590270 1_555
O3 P3 1.527196 1_555
O3 Tb1 2.248842 1_556
O3 Rb1 3.434505 1_555
O3 Rb2 3.590270 1_555
O4 P4 1.538052 1_555
O4 Tb0 2.314753 1_555
O4 Rb1 3.037451 1_665
O4 Rb2 3.144717 1_655
O5 P5 1.538052 1_555
O5 Tb1 2.314753 1_555
O5 Rb0 3.037451 1_445
O5 Rb3 3.144717 1_455
O6 P6 1.538052 1_555
O6 Tb2 2.314753 1_555
O6 Rb3 3.037451 1_455
O6 Rb0 3.144717 1_455
O7 P7 1.538052 1_555
O7 Tb3 2.314753 1_555
O7 Rb2 3.037451 1_655
O7 Rb1 3.144717 1_655
O8 P0 1.531233 1_555
O8 Tb0 2.272855 1_555
O8 Rb2 3.061128 1_555
O9 P1 1.531233 1_555
O9 Tb1 2.272855 1_555
O9 Rb3 3.061128 1_555
O10 P2 1.531233 1_555
O10 Tb2 2.272855 1_555
O10 Rb0 3.061128 1_555
O11 P3 1.531233 1_555
O11 Tb3 2.272855 1_555
O11 Rb1 3.061128 1_555
O12 P0 1.529078 1_555
O12 Tb3 2.266681 1_565
O12 Rb0 3.477251 1_555
O13 P1 1.529078 1_555
O13 Tb2 2.266681 1_545
O13 Rb1 3.477251 1_555
O14 P2 1.529078 1_555
O14 Tb1 2.266681 1_555
O14 Rb2 3.477251 1_554
O15 P3 1.529078 1_555
O15 Tb0 2.266681 1_555
O15 Rb3 3.477251 1_556
O16 P7 1.519648 1_555
O16 Tb0 2.219045 1_545
O16 Rb1 3.588033 1_655
O17 P6 1.519648 1_555
O17 Tb1 2.219045 1_565
O17 Rb0 3.588033 1_455
O18 P5 1.519648 1_555
O18 Tb2 2.219045 1_555
O18 Rb3 3.588033 1_455
O19 P4 1.519648 1_555
O19 Tb3 2.219045 1_555
O19 Rb2 3.588033 1_655
O20 P4 1.632124 1_555
O20 P0 1.637069 1_555
O20 Rb0 3.506015 1_555
O21 P5 1.632124 1_555
O21 P1 1.637069 1_555
O21 Rb1 3.506015 1_555
O22 P6 1.632124 1_555
O22 P2 1.637069 1_555
O22 Rb2 3.506015 1_554
O23 P7 1.632124 1_555
O23 P3 1.637069 1_555
O23 Rb3 3.506015 1_556
O24 P6 1.535875 1_555
O24 Tb0 2.292485 1_454
O24 Rb2 3.083897 1_554
O24 Rb3 3.240162 1_455
O25 P7 1.535875 1_555
O25 Tb1 2.292485 1_656
O25 Rb3 3.083897 1_556
O25 Rb2 3.240162 1_655
O26 P4 1.535875 1_555
O26 Tb2 2.292485 1_655
O26 Rb0 3.083897 1_555
O26 Rb1 3.240162 1_665
O27 P5 1.535875 1_555
O27 Tb3 2.292485 1_455
O27 Rb1 3.083897 1_555
O27 Rb0 3.240162 1_445
