# generated using pymatgen
data_Tb4Al
_symmetry_space_group_name_H-M   'P 1'
_cell_length_a   7.91373121
_cell_length_b   7.91373121
_cell_length_c   7.91373121
_cell_angle_alpha   60.00000000
_cell_angle_beta   60.00000000
_cell_angle_gamma   60.00000000
_symmetry_Int_Tables_number   1
_chemical_formula_structural   Tb4Al
_chemical_formula_sum   'Tb8 Al2'
_cell_volume   350.45227818
_cell_formula_units_Z   2
loop_
 _symmetry_equiv_pos_site_id
 _symmetry_equiv_pos_as_xyz
  1  'x, y, z'
loop_
 _atom_site_type_symbol
 _atom_site_label
 _atom_site_symmetry_multiplicity
 _atom_site_fract_x
 _atom_site_fract_y
 _atom_site_fract_z
 _atom_site_occupancy
  Tb  Tb0  1  0.60673200  0.60673200  0.60673200  1
  Tb  Tb1  1  0.17980500  0.60673200  0.60673200  1
  Tb  Tb2  1  0.60673200  0.17980500  0.60673200  1
  Tb  Tb3  1  0.57019500  0.14326800  0.14326800  1
  Tb  Tb4  1  0.14326800  0.14326800  0.14326800  1
  Tb  Tb5  1  0.60673200  0.60673200  0.17980500  1
  Tb  Tb6  1  0.14326800  0.57019500  0.14326800  1
  Tb  Tb7  1  0.14326800  0.14326800  0.57019500  1
  Al  Al0  1  0.00000000  0.00000000  0.00000000  1
  Al  Al1  1  0.75000000  0.75000000  0.75000000  1
loop_
_geom_bond_atom_site_label_1
_geom_bond_atom_site_label_2
_geom_bond_distance
_geom_bond_site_symmetry_2
Tb0 Tb1 3.378586 1_555
Tb0 Tb5 3.378586 1_555
Tb0 Tb2 3.378586 1_555
Tb0 Tb7 3.977937 1_565
Tb0 Tb7 3.977937 1_655
Tb0 Tb6 3.977937 1_556
Tb0 Tb3 3.977937 1_556
Tb0 Tb3 3.977937 1_565
Tb0 Tb6 3.977937 1_655
Tb1 Tb5 3.378586 1_555
Tb1 Tb2 3.378586 1_555
Tb1 Tb7 3.977931 1_565
Tb1 Tb6 3.977931 1_556
Tb1 Tb4 3.977937 1_565
Tb1 Tb4 3.977937 1_556
Tb1 Tb7 3.977946 1_555
Tb1 Tb6 3.977946 1_555
Tb2 Tb5 3.378586 1_555
Tb2 Tb7 3.977931 1_655
Tb2 Tb3 3.977931 1_556
Tb2 Tb4 3.977937 1_556
Tb2 Tb4 3.977937 1_655
Tb2 Tb7 3.977946 1_555
Tb2 Tb3 3.977946 1_555
Tb3 Tb6 3.378586 1_555
Tb3 Tb4 3.378586 1_555
Tb3 Tb7 3.378586 1_555
Tb3 Tb5 3.977931 1_545
Tb3 Tb5 3.977946 1_555
Tb4 Tb6 3.378586 1_555
Tb4 Tb7 3.378586 1_555
Tb4 Tb5 3.977937 1_545
Tb4 Tb5 3.977937 1_455
Tb5 Tb6 3.977931 1_655
Tb5 Tb6 3.977946 1_555
Tb6 Tb7 3.378586 1_555
Al0 Tb4 2.777193 1_555
Al0 Tb7 2.777200 1_554
Al0 Tb3 2.777200 1_455
Al0 Tb6 2.777200 1_545
Al1 Tb0 2.777193 1_555
Al1 Tb5 2.777200 1_556
Al1 Tb1 2.777200 1_655
Al1 Tb2 2.777200 1_565
