# generated using pymatgen
data_Rb2MoS3O
_symmetry_space_group_name_H-M   'P 1'
_cell_length_a   7.32036000
_cell_length_b   9.61002000
_cell_length_c   11.91310600
_cell_angle_alpha   90.00000000
_cell_angle_beta   90.00000000
_cell_angle_gamma   90.00000000
_symmetry_Int_Tables_number   1
_chemical_formula_structural   Rb2MoS3O
_chemical_formula_sum   'Rb8 Mo4 S12 O4'
_cell_volume   838.07278294
_cell_formula_units_Z   4
loop_
 _symmetry_equiv_pos_site_id
 _symmetry_equiv_pos_as_xyz
  1  'x, y, z'
loop_
 _atom_site_type_symbol
 _atom_site_label
 _atom_site_symmetry_multiplicity
 _atom_site_fract_x
 _atom_site_fract_y
 _atom_site_fract_z
 _atom_site_occupancy
  Rb  Rb0  1  0.25000000  0.45422800  0.19156200  1
  Rb  Rb1  1  0.25000000  0.95422800  0.30843800  1
  Rb  Rb2  1  0.75000000  0.54577200  0.80843800  1
  Rb  Rb3  1  0.75000000  0.04577200  0.69156200  1
  Rb  Rb4  1  0.25000000  0.16422300  0.87590100  1
  Rb  Rb5  1  0.25000000  0.66422300  0.62409900  1
  Rb  Rb6  1  0.75000000  0.83577700  0.12409900  1
  Rb  Rb7  1  0.75000000  0.33577700  0.37590100  1
  Mo  Mo0  1  0.25000000  0.24139400  0.54878800  1
  Mo  Mo1  1  0.25000000  0.74139400  0.95121200  1
  Mo  Mo2  1  0.75000000  0.75860600  0.45121200  1
  Mo  Mo3  1  0.75000000  0.25860600  0.04878800  1
  S  S0  1  0.25000000  0.01816300  0.59813900  1
  S  S1  1  0.25000000  0.51816300  0.90186100  1
  S  S2  1  0.75000000  0.98183700  0.40186100  1
  S  S3  1  0.75000000  0.48183700  0.09813900  1
  S  S4  1  0.49566900  0.34358800  0.62168900  1
  S  S5  1  0.00433100  0.84358800  0.87831100  1
  S  S6  1  0.99566900  0.65641200  0.37831100  1
  S  S7  1  0.50433100  0.15641200  0.12168900  1
  S  S8  1  0.50433100  0.65641200  0.37831100  1
  S  S9  1  0.99566900  0.15641200  0.12168900  1
  S  S10  1  0.00433100  0.34358800  0.62168900  1
  S  S11  1  0.49566900  0.84358800  0.87831100  1
  O  O0  1  0.25000000  0.25749500  0.40113900  1
  O  O1  1  0.25000000  0.75749500  0.09886100  1
  O  O2  1  0.75000000  0.74250500  0.59886100  1
  O  O3  1  0.75000000  0.24250500  0.90113900  1
loop_
_geom_bond_atom_site_label_1
_geom_bond_atom_site_label_2
_geom_bond_distance
_geom_bond_site_symmetry_2
Rb0 S8 3.491569 1_555
Rb0 S6 3.491569 1_455
Rb0 S1 3.505504 1_554
Rb0 S7 3.514302 1_555
Rb0 S9 3.514302 1_455
Rb0 S3 3.834839 1_455
Rb0 S3 3.834839 1_555
Rb1 S7 3.491569 1_565
Rb1 S9 3.491569 1_465
Rb1 S0 3.505504 1_565
Rb1 S8 3.514302 1_555
Rb1 S6 3.514302 1_455
Rb1 S2 3.834839 1_455
Rb1 S2 3.834839 1_555
Rb2 S10 3.491569 1_655
Rb2 S4 3.491569 1_555
Rb2 S3 3.505504 1_556
Rb2 S5 3.514302 1_655
Rb2 S11 3.514302 1_555
Rb2 S1 3.834839 1_555
Rb2 S1 3.834839 1_655
Rb3 S5 3.491569 1_645
Rb3 S11 3.491569 1_545
Rb3 S2 3.505504 1_545
Rb3 S10 3.514302 1_655
Rb3 S4 3.514302 1_555
Rb3 S0 3.834839 1_555
Rb3 S0 3.834839 1_655
Rb4 S1 3.415401 1_555
Rb4 S7 3.470688 1_556
Rb4 S9 3.470688 1_456
Rb4 S11 3.567839 1_545
Rb4 S5 3.567839 1_545
Rb4 S0 3.594404 1_555
Rb5 S0 3.415401 1_565
Rb5 S8 3.470688 1_555
Rb5 S6 3.470688 1_455
Rb5 S4 3.567839 1_555
Rb5 S10 3.567839 1_555
Rb5 S1 3.594404 1_555
Rb6 S3 3.415401 1_555
Rb6 S5 3.470688 1_654
Rb6 S11 3.470688 1_554
Rb6 S9 3.567839 1_565
Rb6 S7 3.567839 1_565
Rb6 S2 3.594404 1_555
Rb7 S2 3.415401 1_545
Rb7 S10 3.470688 1_655
Rb7 S4 3.470688 1_555
Rb7 S6 3.567839 1_555
Rb7 S8 3.567839 1_555
Rb7 S3 3.594404 1_555
Mo0 O0 1.765751 1_555
Mo0 S0 2.224358 1_555
Mo0 S4 2.225519 1_555
Mo0 S10 2.225519 1_555
Mo1 O1 1.765751 1_556
Mo1 S1 2.224358 1_555
Mo1 S11 2.225519 1_555
Mo1 S5 2.225519 1_555
Mo2 O2 1.765751 1_555
Mo2 S2 2.224358 1_555
Mo2 S6 2.225519 1_555
Mo2 S8 2.225519 1_555
Mo3 O3 1.765751 1_554
Mo3 S3 2.224358 1_555
Mo3 S9 2.225519 1_555
Mo3 S7 2.225519 1_555
O0 Rb1 3.116624 1_545
O0 Rb0 3.131769 1_555
O1 Rb0 3.116624 1_555
O1 Rb1 3.131769 1_555
O2 Rb3 3.116624 1_565
O2 Rb2 3.131769 1_555
O3 Rb2 3.116624 1_555
O3 Rb3 3.131769 1_555
