# generated using pymatgen
data_Li4MnCo2O7
_symmetry_space_group_name_H-M   'P 1'
_cell_length_a   2.97277600
_cell_length_b   8.08430187
_cell_length_c   10.64212953
_cell_angle_alpha   78.32174179
_cell_angle_beta   85.72434033
_cell_angle_gamma   89.05615728
_symmetry_Int_Tables_number   1
_chemical_formula_structural   Li4MnCo2O7
_chemical_formula_sum   'Li8 Mn2 Co4 O14'
_cell_volume   249.76872682
_cell_formula_units_Z   2
loop_
 _symmetry_equiv_pos_site_id
 _symmetry_equiv_pos_as_xyz
  1  'x, y, z'
loop_
 _atom_site_type_symbol
 _atom_site_label
 _atom_site_symmetry_multiplicity
 _atom_site_fract_x
 _atom_site_fract_y
 _atom_site_fract_z
 _atom_site_occupancy
  Li  Li0  1  0.14677800  0.06321900  0.70991500  1
  Li  Li1  1  0.85203800  0.93048800  0.28676300  1
  Li  Li2  1  0.57979300  0.78916900  0.84973600  1
  Li  Li3  1  0.71162500  0.35361200  0.57095300  1
  Li  Li4  1  0.42659100  0.21543600  0.14537600  1
  Li  Li5  1  0.29261800  0.64849900  0.42761400  1
  Li  Li6  1  0.99414700  0.50006500  0.00444300  1
  Li  Li7  1  0.70527500  0.86103900  0.57668100  1
  Mn  Mn0  1  0.00190700  0.99931200  0.99962800  1
  Mn  Mn1  1  0.14674300  0.58030700  0.71011900  1
  Co  Co0  1  0.42727200  0.71175100  0.14525200  1
  Co  Co1  1  0.85605300  0.42669300  0.28659500  1
  Co  Co2  1  0.58344300  0.28591800  0.85423700  1
  Co  Co3  1  0.27927300  0.13178400  0.43339900  1
  O  O0  1  0.59598100  0.04628400  0.86024300  1
  O  O1  1  0.29125800  0.91878100  0.42457300  1
  O  O2  1  0.02348000  0.75298300  0.00940200  1
  O  O3  1  0.16761000  0.32989700  0.72299500  1
  O  O4  1  0.87824100  0.19028300  0.29244200  1
  O  O5  1  0.68322400  0.60229700  0.58763700  1
  O  O6  1  0.44960900  0.47345200  0.14987500  1
  O  O7  1  0.69290100  0.11253000  0.55882400  1
  O  O8  1  0.40316500  0.95309600  0.13970000  1
  O  O9  1  0.13373600  0.80361500  0.71735900  1
  O  O10  1  0.26390300  0.37700600  0.42051900  1
  O  O11  1  0.97858300  0.24662600  0.99266200  1
  O  O12  1  0.83224400  0.66613100  0.28265200  1
  O  O13  1  0.60251000  0.52972800  0.84040700  1
loop_
_geom_bond_atom_site_label_1
_geom_bond_atom_site_label_2
_geom_bond_distance
_geom_bond_site_symmetry_2
Li0 O9 2.085020 1_545
Li0 O0 2.141316 1_555
Li0 O7 2.147367 1_455
Li0 O7 2.180067 1_555
Li0 O0 2.187995 1_455
Li0 O3 2.190505 1_555
Li1 O1 2.022370 1_655
Li1 O8 2.109744 1_555
Li1 O4 2.116198 1_565
Li1 O1 2.126835 1_555
Li1 O12 2.148285 1_555
Li1 O8 2.163060 1_655
Li2 O9 1.990847 1_555
Li2 O9 2.074578 1_655
Li2 O0 2.105604 1_565
Li2 O13 2.119465 1_555
Li2 O2 2.198356 1_656
Li2 O2 2.259101 1_556
Li3 O7 1.981103 1_555
Li3 O5 2.053588 1_555
Li3 O10 2.134744 1_555
Li3 O3 2.164541 1_655
Li3 O3 2.182828 1_555
Li3 O10 2.188608 1_655
Li4 O6 2.098449 1_555
Li4 O4 2.114024 1_555
Li4 O8 2.136305 1_545
Li4 O11 2.150445 1_454
Li4 O4 2.156346 1_455
Li4 O11 2.201738 1_554
Li5 O5 2.100258 1_555
Li5 O12 2.119590 1_455
Li5 O12 2.126774 1_555
Li5 O1 2.178663 1_555
Li5 O10 2.214610 1_555
Li5 O5 2.371982 1_455
Li6 O2 2.059439 1_655
Li6 O11 2.079360 1_554
Li6 O6 2.107851 1_655
Li6 O6 2.136645 1_555
Li6 O13 2.141216 1_554
Li6 O13 2.397868 1_654
Li7 O7 2.003309 1_565
Li7 O9 2.015618 1_655
Li7 O5 2.073149 1_555
Li7 O1 2.079742 1_555
Li7 O9 2.170021 1_555
Li7 O1 2.274474 1_655
Mn0 O8 1.951808 1_556
Mn0 O0 1.955634 1_465
Mn0 O2 1.973203 1_556
Mn0 O11 1.985936 1_465
Mn0 O0 2.206106 1_565
Mn0 O8 2.220500 1_456
Mn1 O9 1.822105 1_555
Mn1 O5 1.948150 1_455
Mn1 O5 1.969696 1_555
Mn1 O13 1.989417 1_555
Mn1 O3 2.001402 1_555
Mn1 O13 2.040838 1_455
Co0 O6 1.917306 1_555
Co0 O2 1.921633 1_555
Co0 O12 1.937273 1_555
Co0 O8 1.940308 1_555
Co0 O2 2.187446 1_655
Co0 O12 2.195583 1_455
Co1 O4 1.899805 1_555
Co1 O10 1.916386 1_655
Co1 O12 1.927877 1_555
Co1 O6 1.935003 1_555
Co1 O10 2.169986 1_555
Co1 O6 2.188581 1_655
Co2 O3 1.909774 1_555
Co2 O0 1.925189 1_555
Co2 O11 1.925399 1_555
Co2 O13 1.948036 1_555
Co2 O3 2.133209 1_655
Co2 O11 2.222308 1_455
Co3 O1 1.743062 1_545
Co3 O7 1.863379 1_555
Co3 O10 1.959317 1_555
Co3 O4 1.963692 1_455
Co3 O7 2.102941 1_455
Co3 O4 2.233092 1_555
