# generated using pymatgen
data_CaTl6Si2O7
_symmetry_space_group_name_H-M   'P 1'
_cell_length_a   4.85083251
_cell_length_b   10.25747170
_cell_length_c   9.77822254
_cell_angle_alpha   57.30783609
_cell_angle_beta   89.37781641
_cell_angle_gamma   88.25896015
_symmetry_Int_Tables_number   1
_chemical_formula_structural   CaTl6Si2O7
_chemical_formula_sum   'Ca1 Tl6 Si2 O7'
_cell_volume   409.26475072
_cell_formula_units_Z   1
loop_
 _symmetry_equiv_pos_site_id
 _symmetry_equiv_pos_as_xyz
  1  'x, y, z'
loop_
 _atom_site_type_symbol
 _atom_site_label
 _atom_site_symmetry_multiplicity
 _atom_site_fract_x
 _atom_site_fract_y
 _atom_site_fract_z
 _atom_site_occupancy
  Ca  Ca0  1  0.25291000  0.46828600  0.45466300  1
  Tl  Tl0  1  0.78749500  0.81139100  0.39108900  1
  Tl  Tl1  1  0.70829000  0.82625500  0.73683100  1
  Tl  Tl2  1  0.77711100  0.40490800  0.90443300  1
  Tl  Tl3  1  0.09356100  0.08959900  0.66311800  1
  Tl  Tl4  1  0.20522700  0.15382400  0.26468500  1
  Tl  Tl5  1  0.18661400  0.62160900  0.05811100  1
  Si  Si0  1  0.29340000  0.69768700  0.65089700  1
  Si  Si1  1  0.71107200  0.34961800  0.32428000  1
  O  O0  1  0.14312300  0.87189700  0.57017200  1
  O  O1  1  0.18728600  0.57562400  0.83773200  1
  O  O2  1  0.23656500  0.63344900  0.53269800  1
  O  O3  1  0.82561600  0.16640400  0.42417400  1
  O  O4  1  0.81419800  0.44171000  0.13276200  1
  O  O5  1  0.79509800  0.43817200  0.41825600  1
  O  O6  1  0.36843200  0.34725300  0.32654400  1
loop_
_geom_bond_atom_site_label_1
_geom_bond_atom_site_label_2
_geom_bond_distance
_geom_bond_site_symmetry_2
Ca0 O2 2.201286 1_555
Ca0 O6 2.246638 1_555
Ca0 O5 2.309027 1_455
Ca0 O5 2.681132 1_555
O0 Si0 1.660509 1_555
O0 Tl1 2.546608 1_455
O0 Tl0 2.780687 1_455
O1 Si0 1.648634 1_555
O1 Tl5 2.442117 1_556
O1 Tl2 2.529906 1_455
O2 Si0 1.639097 1_555
O2 Tl0 2.662294 1_455
O3 Si1 1.661322 1_555
O3 Tl3 2.405062 1_655
O3 Tl4 2.445444 1_655
O4 Si1 1.657404 1_555
O4 Tl5 2.433183 1_655
O4 Tl2 2.466354 1_554
O5 Si1 1.663711 1_555
O6 Si1 1.662736 1_555
O6 Tl4 2.516252 1_555
O6 Tl5 2.739912 1_555
