# generated using pymatgen
data_Ca3Mg2Ni13
_symmetry_space_group_name_H-M   'P 1'
_cell_length_a   12.30667083
_cell_length_b   12.30667083
_cell_length_c   12.30667090
_cell_angle_alpha   23.07990153
_cell_angle_beta   23.07990153
_cell_angle_gamma   23.07990364
_symmetry_Int_Tables_number   1
_chemical_formula_structural   Ca3Mg2Ni13
_chemical_formula_sum   'Ca3 Mg2 Ni13'
_cell_volume   251.41248266
_cell_formula_units_Z   1
loop_
 _symmetry_equiv_pos_site_id
 _symmetry_equiv_pos_as_xyz
  1  'x, y, z'
loop_
 _atom_site_type_symbol
 _atom_site_label
 _atom_site_symmetry_multiplicity
 _atom_site_fract_x
 _atom_site_fract_y
 _atom_site_fract_z
 _atom_site_occupancy
  Ca  Ca0  1  0.50000000  0.50000000  0.50000000  1
  Ca  Ca1  1  0.95736100  0.95736100  0.95736100  1
  Ca  Ca2  1  0.04263900  0.04263900  0.04263900  1
  Mg  Mg0  1  0.59271900  0.59271900  0.59271900  1
  Mg  Mg1  1  0.40728100  0.40728100  0.40728100  1
  Ni  Ni0  1  0.83402500  0.83402500  0.83402500  1
  Ni  Ni1  1  0.16597500  0.16597500  0.16597500  1
  Ni  Ni2  1  0.05575200  0.55274100  0.05575200  1
  Ni  Ni3  1  0.05575200  0.05575200  0.55274100  1
  Ni  Ni4  1  0.55274100  0.05575200  0.05575200  1
  Ni  Ni5  1  0.94424800  0.44725900  0.94424800  1
  Ni  Ni6  1  0.94424800  0.94424800  0.44725900  1
  Ni  Ni7  1  0.44725900  0.94424800  0.94424800  1
  Ni  Ni8  1  0.72263400  0.72263400  0.72263400  1
  Ni  Ni9  1  0.27736600  0.27736600  0.27736600  1
  Ni  Ni10  1  0.50000000  0.50000000  0.00000000  1
  Ni  Ni11  1  0.00000000  0.50000000  0.50000000  1
  Ni  Ni12  1  0.50000000  0.00000000  0.50000000  1
loop_
_geom_bond_atom_site_label_1
_geom_bond_atom_site_label_2
_geom_bond_distance
_geom_bond_site_symmetry_2
Ca0 Ni1 2.842939 1_556
Ca0 Ni0 2.842939 1_554
Ca0 Ni1 2.842940 1_655
Ca0 Ni0 2.842940 1_545
Ca0 Ni0 2.842940 1_455
Ca0 Ni1 2.842940 1_565
Ca0 Ni7 3.151034 1_545
Ca0 Ni5 3.151034 1_455
Ca0 Ni4 3.151034 1_565
Ca0 Ni2 3.151034 1_655
Ca0 Ni7 3.151034 1_554
Ca0 Ni5 3.151034 1_554
Ca0 Ni2 3.151034 1_556
Ca0 Ni4 3.151034 1_556
Ca0 Ni6 3.151034 1_545
Ca0 Ni3 3.151034 1_655
Ca0 Ni6 3.151034 1_455
Ca0 Ni3 3.151034 1_565
Ca0 Mg1 3.330603 1_555
Ca0 Mg0 3.330603 1_555
Ca1 Ni3 2.870198 1_665
Ca1 Ni4 2.870198 1_566
Ca1 Ni2 2.870198 1_656
Ca1 Ni9 2.882865 1_665
Ca1 Ni9 2.882865 1_656
Ca1 Ni9 2.882865 1_566
Ca1 Ni12 2.899523 1_665
Ca1 Ni11 2.899523 1_665
Ca1 Ni11 2.899523 1_656
Ca1 Ni12 2.899523 1_566
Ca1 Ni10 2.899523 1_566
Ca1 Ni10 2.899523 1_656
Ca1 Mg0 3.057210 1_556
Ca1 Mg0 3.057210 1_565
Ca1 Mg0 3.057210 1_655
Ca1 Ca2 3.063311 1_666
Ca2 Ni6 2.870198 1_445
Ca2 Ni5 2.870198 1_454
Ca2 Ni7 2.870198 1_544
Ca2 Ni8 2.882865 1_445
Ca2 Ni8 2.882865 1_454
Ca2 Ni8 2.882865 1_544
Ca2 Ni12 2.899523 1_455
Ca2 Ni11 2.899523 1_545
Ca2 Ni11 2.899523 1_554
Ca2 Ni12 2.899523 1_554
Ca2 Ni10 2.899523 1_455
Ca2 Ni10 2.899523 1_545
Ca2 Mg1 3.057210 1_554
Ca2 Mg1 3.057210 1_545
Ca2 Mg1 3.057210 1_455
Mg0 Ni2 2.814557 1_556
Mg0 Ni4 2.814557 1_556
Mg0 Ni2 2.814557 1_655
Mg0 Ni4 2.814557 1_565
Mg0 Ni3 2.814557 1_565
Mg0 Ni3 2.814557 1_655
Mg0 Ni9 2.915278 1_556
Mg0 Ni9 2.915279 1_565
Mg0 Ni9 2.915279 1_655
Mg0 Ni11 3.012706 1_655
Mg0 Ni12 3.012706 1_565
Mg0 Ni10 3.012706 1_556
Mg1 Ni7 2.814557 1_554
Mg1 Ni5 2.814557 1_554
Mg1 Ni7 2.814557 1_545
Mg1 Ni5 2.814557 1_455
Mg1 Ni6 2.814557 1_545
Mg1 Ni6 2.814557 1_455
Mg1 Ni8 2.915278 1_554
Mg1 Ni8 2.915279 1_455
Mg1 Ni8 2.915279 1_545
Mg1 Ni12 3.012706 1_555
Mg1 Ni11 3.012706 1_555
Mg1 Ni10 3.012706 1_555
Ni0 Ni3 2.411513 1_665
Ni0 Ni4 2.411514 1_566
Ni0 Ni2 2.411514 1_656
Ni0 Ni6 2.441757 1_555
Ni0 Ni7 2.441757 1_555
Ni0 Ni5 2.441757 1_555
Ni1 Ni6 2.411513 1_445
Ni1 Ni5 2.411514 1_454
Ni1 Ni7 2.411514 1_544
Ni1 Ni3 2.441757 1_555
Ni1 Ni4 2.441757 1_555
Ni1 Ni2 2.441757 1_555
Ni2 Ni3 2.447138 1_555
Ni2 Ni4 2.447138 1_555
Ni2 Ni9 2.456751 1_555
Ni2 Ni3 2.476790 1_564
Ni2 Ni4 2.476790 1_465
Ni3 Ni4 2.447138 1_555
Ni3 Ni9 2.456751 1_555
Ni3 Ni4 2.476790 1_456
Ni4 Ni9 2.456751 1_555
Ni5 Ni6 2.447138 1_555
Ni5 Ni7 2.447138 1_555
Ni5 Ni8 2.456751 1_555
Ni5 Ni6 2.476790 1_546
Ni5 Ni7 2.476790 1_645
Ni6 Ni7 2.447138 1_555
Ni6 Ni8 2.456751 1_555
Ni6 Ni7 2.476790 1_654
Ni7 Ni8 2.456751 1_555
Ni10 Ni11 2.461964 1_654
Ni10 Ni12 2.461964 1_564
Ni10 Ni12 2.461964 1_555
Ni10 Ni11 2.461964 1_555
Ni10 Ni9 2.462163 1_555
Ni10 Ni8 2.462163 1_554
Ni11 Ni12 2.461964 1_465
Ni11 Ni12 2.461964 1_555
Ni11 Ni9 2.462163 1_555
Ni11 Ni8 2.462163 1_455
Ni12 Ni8 2.462163 1_545
Ni12 Ni9 2.462163 1_555
