# generated using pymatgen
data_U2Si5Ru3
_symmetry_space_group_name_H-M   'P 1'
_cell_length_a   8.12456597
_cell_length_b   8.12456597
_cell_length_c   5.70874824
_cell_angle_alpha   70.24873934
_cell_angle_beta   70.24873934
_cell_angle_gamma   93.19558972
_symmetry_Int_Tables_number   1
_chemical_formula_structural   U2Si5Ru3
_chemical_formula_sum   'U4 Si10 Ru6'
_cell_volume   327.59123856
_cell_formula_units_Z   2
loop_
 _symmetry_equiv_pos_site_id
 _symmetry_equiv_pos_as_xyz
  1  'x, y, z'
loop_
 _atom_site_type_symbol
 _atom_site_label
 _atom_site_symmetry_multiplicity
 _atom_site_fract_x
 _atom_site_fract_y
 _atom_site_fract_z
 _atom_site_occupancy
  U  U0  1  0.86795800  0.59458700  0.76310800  1
  U  U1  1  0.40541300  0.13204200  0.73689200  1
  U  U2  1  0.13204200  0.40541300  0.23689200  1
  U  U3  1  0.59458700  0.86795800  0.26310800  1
  Si  Si0  1  0.06470700  0.26296800  0.83465800  1
  Si  Si1  1  0.73703200  0.93529300  0.66534200  1
  Si  Si2  1  0.93529300  0.73703200  0.16534200  1
  Si  Si3  1  0.26296800  0.06470700  0.33465800  1
  Si  Si4  1  0.20434200  0.79565800  0.75000000  1
  Si  Si5  1  0.79565800  0.20434200  0.25000000  1
  Si  Si6  1  0.51383600  0.48616400  0.75000000  1
  Si  Si7  1  0.48616400  0.51383600  0.25000000  1
  Si  Si8  1  0.77886400  0.22113600  0.75000000  1
  Si  Si9  1  0.22113600  0.77886400  0.25000000  1
  Ru  Ru0  1  0.25517600  0.54422700  0.63506200  1
  Ru  Ru1  1  0.45577300  0.74482400  0.86493800  1
  Ru  Ru2  1  0.74482400  0.45577300  0.36493800  1
  Ru  Ru3  1  0.54422700  0.25517600  0.13506200  1
  Ru  Ru4  1  0.99968400  0.00031600  0.75000000  1
  Ru  Ru5  1  0.00031600  0.99968400  0.25000000  1
loop_
_geom_bond_atom_site_label_1
_geom_bond_atom_site_label_2
_geom_bond_distance
_geom_bond_site_symmetry_2
Si0 Si5 2.498932 1_456
Si0 Si8 2.554211 1_455
Si0 U1 2.964905 1_555
Si0 U2 3.046667 1_555
Si0 U2 3.079931 1_556
Si0 U0 3.187277 1_455
Si1 Si5 2.498932 1_565
Si1 Si8 2.554211 1_565
Si1 U0 2.964905 1_555
Si1 U3 3.046667 1_556
Si1 U3 3.079931 1_555
Si1 U1 3.187277 1_565
Si2 Si4 2.498932 1_654
Si2 Si9 2.554211 1_655
Si2 U3 2.964905 1_555
Si2 U0 3.046667 1_555
Si2 U0 3.079931 1_554
Si2 U2 3.187277 1_655
Si3 Si4 2.498932 1_545
Si3 Si9 2.554211 1_545
Si3 U2 2.964905 1_555
Si3 U1 3.046667 1_554
Si3 U1 3.079931 1_555
Si3 U3 3.187277 1_545
Si4 U1 3.069990 1_565
Si4 U0 3.069990 1_455
Si4 U3 3.294839 1_555
Si4 U2 3.294839 1_556
Si5 U2 3.069990 1_655
Si5 U3 3.069990 1_545
Si5 U0 3.294839 1_554
Si5 U1 3.294839 1_555
Si6 U0 2.994446 1_555
Si6 U1 2.994446 1_555
Si6 U2 3.239047 1_556
Si6 U3 3.239047 1_555
Si7 U3 2.994446 1_555
Si7 U2 2.994446 1_555
Si7 U1 3.239047 1_555
Si7 U0 3.239047 1_554
Si8 U0 3.111381 1_555
Si8 U1 3.111381 1_555
Si8 U2 3.151427 1_655
Si8 U3 3.151427 1_546
Si9 U3 3.111381 1_555
Si9 U2 3.111381 1_555
Si9 U1 3.151427 1_564
Si9 U0 3.151427 1_455
Ru0 Si0 2.359859 1_555
Ru0 Si4 2.364494 1_555
Ru0 Si6 2.429539 1_555
Ru0 Si7 2.458729 1_555
Ru0 Si9 2.485988 1_555
Ru0 U2 3.001508 1_556
Ru0 U0 3.064358 1_455
Ru0 U3 3.238821 1_555
Ru0 U2 3.253200 1_555
Ru1 Si1 2.359859 1_555
Ru1 Si4 2.364494 1_555
Ru1 Si6 2.429539 1_555
Ru1 Si7 2.458729 1_556
Ru1 Si9 2.485988 1_556
Ru1 U3 3.001508 1_555
Ru1 U1 3.064358 1_565
Ru1 U2 3.238821 1_556
Ru1 U3 3.253200 1_556
Ru2 Si2 2.359859 1_555
Ru2 Si5 2.364494 1_555
Ru2 Si7 2.429539 1_555
Ru2 Si6 2.458729 1_555
Ru2 Si8 2.485988 1_555
Ru2 U0 3.001508 1_554
Ru2 U2 3.064358 1_655
Ru2 U1 3.238821 1_555
Ru2 U0 3.253200 1_555
Ru3 Si3 2.359859 1_555
Ru3 Si5 2.364494 1_555
Ru3 Si7 2.429539 1_555
Ru3 Si6 2.458729 1_554
Ru3 Si8 2.485988 1_554
Ru3 U1 3.001508 1_555
Ru3 U3 3.064358 1_545
Ru3 U0 3.238821 1_554
Ru3 U1 3.253200 1_554
Ru4 Si1 2.410444 1_545
Ru4 Si0 2.410444 1_655
Ru4 Si4 2.416147 1_645
Ru4 Si2 2.465810 1_546
Ru4 Si3 2.465810 1_655
Ru4 Si8 2.606952 1_555
Ru4 U1 3.376814 1_655
Ru4 U0 3.376814 1_545
Ru4 U3 3.395498 1_546
Ru4 U2 3.395498 1_655
Ru5 Si2 2.410444 1_455
Ru5 Si3 2.410444 1_565
Ru5 Si5 2.416147 1_465
Ru5 Si1 2.465810 1_455
Ru5 Si0 2.465810 1_564
Ru5 Si9 2.606952 1_555
Ru5 U3 3.376814 1_455
Ru5 U2 3.376814 1_565
Ru5 U1 3.395498 1_564
Ru5 U0 3.395498 1_455
