# generated using pymatgen
data_TbGaAu
_symmetry_space_group_name_H-M   'P 1'
_cell_length_a   5.67826218
_cell_length_b   5.67826218
_cell_length_c   7.14694007
_cell_angle_alpha   52.22391100
_cell_angle_beta   52.22391100
_cell_angle_gamma   46.24147647
_symmetry_Int_Tables_number   1
_chemical_formula_structural   TbGaAu
_chemical_formula_sum   'Tb2 Ga2 Au2'
_cell_volume   124.14121086
_cell_formula_units_Z   2
loop_
 _symmetry_equiv_pos_site_id
 _symmetry_equiv_pos_as_xyz
  1  'x, y, z'
loop_
 _atom_site_type_symbol
 _atom_site_label
 _atom_site_symmetry_multiplicity
 _atom_site_fract_x
 _atom_site_fract_y
 _atom_site_fract_z
 _atom_site_occupancy
  Tb  Tb0  1  0.53671247  0.53671247  0.70254737  1
  Tb  Tb1  1  0.46328753  0.46328753  0.29745263  1
  Ga  Ga0  1  0.84236984  0.84236984  0.10556294  1
  Ga  Ga1  1  0.15763016  0.15763016  0.89443706  1
  Au  Au0  1  0.17701128  0.17701128  0.28392515  1
  Au  Au1  1  0.82298872  0.82298872  0.71607485  1
loop_
_geom_bond_atom_site_label_1
_geom_bond_atom_site_label_2
_geom_bond_distance
_geom_bond_site_symmetry_2
Tb0 Tb1 3.453683 1_555
Ga0 Ga1 2.549510 1_664
Ga0 Tb0 3.098296 1_564
Ga0 Tb0 3.098296 1_654
Ga0 Tb0 3.201637 1_555
Ga0 Tb1 3.212983 1_555
Ga0 Tb1 3.279405 1_565
Ga0 Tb1 3.279405 1_655
Ga1 Tb1 3.098296 1_546
Ga1 Tb1 3.098296 1_456
Ga1 Tb1 3.201637 1_555
Ga1 Tb0 3.212983 1_555
Ga1 Tb0 3.279405 1_545
Ga1 Tb0 3.279405 1_455
Au0 Ga0 2.578059 1_455
Au0 Ga0 2.578059 1_545
Au0 Au1 2.828019 1_445
Au0 Ga1 2.922381 1_554
Au0 Tb1 3.055220 1_555
Au0 Tb1 3.110642 1_545
Au0 Tb1 3.110642 1_455
Au0 Tb0 3.198389 1_545
Au0 Tb0 3.198389 1_455
Au0 Tb0 3.253252 1_554
Au1 Ga1 2.578059 1_565
Au1 Ga1 2.578059 1_655
Au1 Ga0 2.922381 1_556
Au1 Tb0 3.055220 1_555
Au1 Tb0 3.110642 1_565
Au1 Tb0 3.110642 1_655
Au1 Tb1 3.198389 1_565
Au1 Tb1 3.198389 1_655
Au1 Tb1 3.253252 1_556
