# generated using pymatgen
data_LiCa6Ge
_symmetry_space_group_name_H-M   'P 1'
_cell_length_a   7.20790146
_cell_length_b   7.20790146
_cell_length_c   7.20790146
_cell_angle_alpha   60.00000000
_cell_angle_beta   60.00000000
_cell_angle_gamma   60.00000000
_symmetry_Int_Tables_number   1
_chemical_formula_structural   LiCa6Ge
_chemical_formula_sum   'Li1 Ca6 Ge1'
_cell_volume   264.79606331
_cell_formula_units_Z   1
loop_
 _symmetry_equiv_pos_site_id
 _symmetry_equiv_pos_as_xyz
  1  'x, y, z'
loop_
 _atom_site_type_symbol
 _atom_site_label
 _atom_site_symmetry_multiplicity
 _atom_site_fract_x
 _atom_site_fract_y
 _atom_site_fract_z
 _atom_site_occupancy
  Li  Li0  1  0.50000000  0.50000000  0.50000000  1
  Ca  Ca0  1  0.50000000  0.00000000  0.00000000  1
  Ca  Ca1  1  0.50000000  0.50000000  0.00000000  1
  Ca  Ca2  1  0.00000000  0.50000000  0.50000000  1
  Ca  Ca3  1  0.00000000  0.00000000  0.50000000  1
  Ca  Ca4  1  0.00000000  0.50000000  0.00000000  1
  Ca  Ca5  1  0.50000000  0.00000000  0.50000000  1
  Ge  Ge0  1  0.00000000  0.00000000  0.00000000  1
loop_
_geom_bond_atom_site_label_1
_geom_bond_atom_site_label_2
_geom_bond_distance
_geom_bond_site_symmetry_2
Ca0 Ca1 3.603951 1_545
Ca0 Ca5 3.603951 1_555
Ca0 Ge0 3.603951 1_555
Ca0 Ca3 3.603951 1_555
Ca0 Ca5 3.603951 1_554
Ca0 Li0 3.603951 1_554
Ca0 Ca3 3.603951 1_654
Ca0 Ca4 3.603951 1_645
Ca0 Ca4 3.603951 1_555
Ca0 Ge0 3.603951 1_655
Ca0 Ca1 3.603951 1_555
Ca0 Li0 3.603951 1_545
Ca1 Ca5 3.603951 1_555
Ca1 Ca2 3.603951 1_654
Ca1 Ca2 3.603951 1_555
Ca1 Ca4 3.603951 1_655
Ca1 Ca5 3.603951 1_564
Ca1 Ge0 3.603951 1_565
Ca1 Li0 3.603951 1_555
Ca1 Li0 3.603951 1_554
Ca1 Ca4 3.603951 1_555
Ca1 Ge0 3.603951 1_655
Ca2 Li0 3.603951 1_455
Ca2 Ca5 3.603951 1_465
Ca2 Ca5 3.603951 1_555
Ca2 Ca4 3.603951 1_556
Ca2 Ge0 3.603951 1_565
Ca2 Li0 3.603951 1_555
Ca2 Ca3 3.603951 1_555
Ca2 Ge0 3.603951 1_556
Ca2 Ca3 3.603951 1_565
Ca2 Ca4 3.603951 1_555
Ca3 Li0 3.603951 1_455
Ca3 Ca5 3.603951 1_455
Ca3 Ca4 3.603951 1_546
Ca3 Ca5 3.603951 1_555
Ca3 Ge0 3.603951 1_555
Ca3 Ge0 3.603951 1_556
Ca3 Ca4 3.603951 1_555
Ca3 Li0 3.603951 1_545
Ca4 Li0 3.603951 1_455
Ca4 Ge0 3.603951 1_565
Ca4 Ge0 3.603951 1_555
Ca4 Li0 3.603951 1_554
Ca5 Li0 3.603951 1_555
Ca5 Ge0 3.603951 1_556
Ca5 Ge0 3.603951 1_655
Ca5 Li0 3.603951 1_545
