# generated using pymatgen
data_LiCo3O4
_symmetry_space_group_name_H-M   'P 1'
_cell_length_a   5.24009692
_cell_length_b   5.24009692
_cell_length_c   5.24009692
_cell_angle_alpha   132.89464559
_cell_angle_beta   132.89464559
_cell_angle_gamma   68.81964908
_symmetry_Int_Tables_number   1
_chemical_formula_structural   LiCo3O4
_chemical_formula_sum   'Li1 Co3 O4'
_cell_volume   75.81834360
_cell_formula_units_Z   1
loop_
 _symmetry_equiv_pos_site_id
 _symmetry_equiv_pos_as_xyz
  1  'x, y, z'
loop_
 _atom_site_type_symbol
 _atom_site_label
 _atom_site_symmetry_multiplicity
 _atom_site_fract_x
 _atom_site_fract_y
 _atom_site_fract_z
 _atom_site_occupancy
  Li  Li0  1  0.00000000  0.00000000  0.00000000  1
  Co  Co0  1  0.25000000  0.75000000  0.50000000  1
  Co  Co1  1  0.50000000  0.50000000  0.00000000  1
  Co  Co2  1  0.75000000  0.25000000  0.50000000  1
  O  O0  1  0.00000000  0.50000000  0.50000000  1
  O  O1  1  0.26713300  0.26713300  0.00000000  1
  O  O2  1  0.50000000  0.00000000  0.50000000  1
  O  O3  1  0.73286700  0.73286700  0.00000000  1
loop_
_geom_bond_atom_site_label_1
_geom_bond_atom_site_label_2
_geom_bond_distance
_geom_bond_site_symmetry_2
Li0 O0 2.093901 1_555
Li0 O2 2.093901 1_555
Li0 O0 2.093901 1_544
Li0 O2 2.093901 1_454
Li0 O1 2.309721 1_555
Li0 O3 2.309721 1_445
Co0 O1 2.099135 1_555
Co0 O1 2.099135 1_566
Co0 O3 2.099135 1_556
Co0 O3 2.099135 1_455
Co0 O2 2.161583 1_565
Co0 O0 2.161583 1_555
Co1 O3 2.013446 1_555
Co1 O1 2.013446 1_555
Co1 O0 2.093901 1_554
Co1 O2 2.093901 1_565
Co1 O0 2.093901 1_655
Co1 O2 2.093901 1_554
Co2 O1 2.099135 1_555
Co2 O1 2.099135 1_656
Co2 O3 2.099135 1_556
Co2 O3 2.099135 1_545
Co2 O0 2.161583 1_655
Co2 O2 2.161583 1_555
