# generated using pymatgen
data_Li3Cr(CoO3)2
_symmetry_space_group_name_H-M   'P 1'
_cell_length_a   2.99044890
_cell_length_b   5.95496122
_cell_length_c   12.64263966
_cell_angle_alpha   77.03887634
_cell_angle_beta   89.66846730
_cell_angle_gamma   89.11325355
_symmetry_Int_Tables_number   1
_chemical_formula_structural   Li3Cr(CoO3)2
_chemical_formula_sum   'Li6 Cr2 Co4 O12'
_cell_volume   219.37730765
_cell_formula_units_Z   2
loop_
 _symmetry_equiv_pos_site_id
 _symmetry_equiv_pos_as_xyz
  1  'x, y, z'
loop_
 _atom_site_type_symbol
 _atom_site_label
 _atom_site_symmetry_multiplicity
 _atom_site_fract_x
 _atom_site_fract_y
 _atom_site_fract_z
 _atom_site_occupancy
  Li  Li0  1  0.49849700  0.66793200  0.16647400  1
  Li  Li1  1  0.00388100  0.16975600  0.66643900  1
  Li  Li2  1  0.49397200  0.00093300  0.49557300  1
  Li  Li3  1  0.99321100  0.50326100  0.99645700  1
  Li  Li4  1  0.99899400  0.83609500  0.33529500  1
  Li  Li5  1  0.49725900  0.33683400  0.83751500  1
  Cr  Cr0  1  0.98791900  0.66871300  0.66748700  1
  Cr  Cr1  1  0.50114200  0.16811800  0.16575100  1
  Co  Co0  1  0.49583000  0.50958500  0.49612000  1
  Co  Co1  1  0.49553000  0.83063100  0.83472200  1
  Co  Co2  1  0.01143100  0.00574600  0.99534900  1
  Co  Co3  1  0.99694900  0.32721200  0.33691900  1
  O  O0  1  0.50537600  0.23939400  0.00346700  1
  O  O1  1  0.99132400  0.73987200  0.50451400  1
  O  O2  1  0.50124000  0.09729300  0.32891600  1
  O  O3  1  0.95667200  0.60055400  0.82933200  1
  O  O4  1  0.99591200  0.39741800  0.17496100  1
  O  O5  1  0.48181400  0.89509400  0.67669600  1
  O  O6  1  0.00554500  0.93864300  0.15800800  1
  O  O7  1  0.49474200  0.43950300  0.65870200  1
  O  O8  1  0.49340400  0.56878000  0.34093100  1
  O  O9  1  0.03933200  0.06611400  0.83938500  1
  O  O10  1  0.99935100  0.26724500  0.49289400  1
  O  O11  1  0.50825300  0.76812100  0.99055900  1
loop_
_geom_bond_atom_site_label_1
_geom_bond_atom_site_label_2
_geom_bond_distance
_geom_bond_site_symmetry_2
Li0 O8 2.151564 1_555
Li0 O6 2.152724 1_555
Li0 O4 2.160855 1_555
Li0 O11 2.169720 1_554
Li0 O4 2.204750 1_455
Li0 O6 2.214901 1_655
Li1 O9 2.137340 1_555
Li1 O5 2.137607 1_545
Li1 O10 2.140062 1_455
Li1 O7 2.178400 1_555
Li1 O7 2.182564 1_455
Li1 O5 2.260741 1_445
Li2 O2 2.055878 1_555
Li2 O1 2.119720 1_545
Li2 O10 2.146599 1_455
Li2 O1 2.163460 1_445
Li2 O10 2.202206 1_555
Li2 O5 2.234819 1_545
Li3 O3 2.064835 1_555
Li3 O11 2.115211 1_555
Li3 O0 2.147583 1_556
Li3 O0 2.165021 1_656
Li3 O4 2.202792 1_556
Li3 O11 2.210556 1_655
Li4 O1 2.087037 1_555
Li4 O2 2.124844 1_565
Li4 O8 2.145353 1_655
Li4 O2 2.167097 1_665
Li4 O6 2.186993 1_655
Li4 O8 2.201681 1_555
Li5 O0 2.047738 1_556
Li5 O3 2.087274 1_555
Li5 O9 2.127357 1_555
Li5 O7 2.205567 1_555
Li5 O3 2.222803 1_455
Li5 O9 2.264895 1_655
Cr0 O3 1.996650 1_555
Cr0 O1 2.008280 1_555
Cr0 O5 2.031438 1_555
Cr0 O5 2.036261 1_655
Cr0 O7 2.043169 1_655
Cr0 O7 2.045163 1_555
Cr1 O0 1.999752 1_555
Cr1 O2 2.010697 1_555
Cr1 O6 2.036342 1_645
Cr1 O4 2.041131 1_455
Cr1 O6 2.048856 1_545
Cr1 O4 2.050144 1_555
Co0 O8 1.914051 1_555
Co0 O7 2.003568 1_555
Co0 O1 2.041428 1_455
Co0 O1 2.053641 1_555
Co0 O10 2.076054 1_555
Co0 O10 2.093326 1_455
Co1 O11 1.921747 1_555
Co1 O3 1.940575 1_555
Co1 O5 1.948574 1_555
Co1 O9 1.951405 1_565
Co1 O3 2.142429 1_455
Co1 O9 2.173302 1_665
Co2 O9 1.924897 1_555
Co2 O6 2.005021 1_546
Co2 O11 2.045903 1_545
Co2 O0 2.057593 1_456
Co2 O0 2.063427 1_556
Co2 O11 2.091801 1_445
Co3 O10 1.923618 1_555
Co3 O4 1.995845 1_555
Co3 O2 2.038513 1_655
Co3 O2 2.051589 1_555
Co3 O8 2.074668 1_555
Co3 O8 2.091829 1_655
