# generated using pymatgen
data_Ti
_symmetry_space_group_name_H-M   'P 1'
_cell_length_a   12.21754221
_cell_length_b   11.62667855
_cell_length_c   12.31047085
_cell_angle_alpha   89.32063507
_cell_angle_beta   93.28746053
_cell_angle_gamma   87.76716178
_symmetry_Int_Tables_number   1
_chemical_formula_structural   Ti
_chemical_formula_sum   Ti100
_cell_volume   1744.31822397
_cell_formula_units_Z   100
loop_
 _symmetry_equiv_pos_site_id
 _symmetry_equiv_pos_as_xyz
  1  'x, y, z'
loop_
 _atom_site_type_symbol
 _atom_site_label
 _atom_site_symmetry_multiplicity
 _atom_site_fract_x
 _atom_site_fract_y
 _atom_site_fract_z
 _atom_site_occupancy
  Ti  Ti0  1  0.17644600  0.10919617  0.73590066  1
  Ti  Ti1  1  0.68578121  0.73008822  0.97250852  1
  Ti  Ti2  1  0.29546176  0.64398096  0.20188634  1
  Ti  Ti3  1  0.49488966  0.46744437  0.24030835  1
  Ti  Ti4  1  0.45419227  0.17400402  0.71458869  1
  Ti  Ti5  1  0.51801901  0.69749245  0.18398006  1
  Ti  Ti6  1  0.39881713  0.43336530  0.80322940  1
  Ti  Ti7  1  0.17243599  0.52897877  0.78896902  1
  Ti  Ti8  1  0.97668746  0.70289192  0.84124490  1
  Ti  Ti9  1  0.68758875  0.83264321  0.23179474  1
  Ti  Ti10  1  0.16851058  0.23575022  0.31594960  1
  Ti  Ti11  1  0.89795299  0.77456227  0.63182530  1
  Ti  Ti12  1  0.04282348  0.80582253  0.45493298  1
  Ti  Ti13  1  0.43495418  0.34515012  0.56879865  1
  Ti  Ti14  1  0.35863383  0.77565435  0.57510245  1
  Ti  Ti15  1  0.40762873  0.27127780  0.32805075  1
  Ti  Ti16  1  0.90841794  0.99787492  0.40561382  1
  Ti  Ti17  1  0.31893720  0.21407523  0.88210736  1
  Ti  Ti18  1  0.34573453  0.67901715  0.78910770  1
  Ti  Ti19  1  0.76513070  0.19849713  0.46210259  1
  Ti  Ti20  1  0.78978955  0.11229633  0.16924541  1
  Ti  Ti21  1  0.76352909  0.62070866  0.17415009  1
  Ti  Ti22  1  0.36650611  0.94317097  0.77942482  1
  Ti  Ti23  1  0.11297470  0.80847082  0.23287667  1
  Ti  Ti24  1  0.03086273  0.07228087  0.17068516  1
  Ti  Ti25  1  0.54984476  0.16386296  0.47897363  1
  Ti  Ti26  1  0.67671790  0.02662088  0.34283036  1
  Ti  Ti27  1  0.72951030  0.92411413  0.53774552  1
  Ti  Ti28  1  0.61088158  0.51149611  0.06694816  1
  Ti  Ti29  1  0.00480375  0.59264400  0.51936230  1
  Ti  Ti30  1  0.17412893  0.65354020  0.97808618  1
  Ti  Ti31  1  0.11420032  0.94582001  0.62544802  1
  Ti  Ti32  1  0.79170380  0.52026254  0.96762033  1
  Ti  Ti33  1  0.08598894  0.29896250  0.10875359  1
  Ti  Ti34  1  0.40053978  0.57778123  0.00291424  1
  Ti  Ti35  1  0.28262241  0.43128240  0.41405063  1
  Ti  Ti36  1  0.25380622  0.55728020  0.59005822  1
  Ti  Ti37  1  0.79345495  0.75437835  0.42081683  1
  Ti  Ti38  1  0.47812815  0.56830077  0.62363370  1
  Ti  Ti39  1  0.52409631  0.14234283  0.98495962  1
  Ti  Ti40  1  0.87146020  0.40625856  0.16232224  1
  Ti  Ti41  1  0.30712870  0.82617646  0.34971317  1
  Ti  Ti42  1  0.65452874  0.96186283  0.05088694  1
  Ti  Ti43  1  0.89901359  0.73121849  0.04146875  1
  Ti  Ti44  1  0.58916811  0.31804769  0.86352305  1
  Ti  Ti45  1  0.48052580  0.81061761  0.96094644  1
  Ti  Ti46  1  0.04278940  0.15943614  0.53288258  1
  Ti  Ti47  1  0.29215410  0.81857802  0.06407702  1
  Ti  Ti48  1  0.68476927  0.17341825  0.67064773  1
  Ti  Ti49  1  0.65084152  0.59540219  0.35596261  1
  Ti  Ti50  1  0.77322080  0.61977673  0.76664692  1
  Ti  Ti51  1  0.94361054  0.14992298  0.77918496  1
  Ti  Ti52  1  0.24926612  0.32328971  0.68291932  1
  Ti  Ti53  1  0.98961378  0.92740266  0.80967916  1
  Ti  Ti54  1  0.53329992  0.13925613  0.19768076  1
  Ti  Ti55  1  0.74604206  0.12526223  0.88602725  1
  Ti  Ti56  1  0.60373739  0.40308959  0.45517334  1
  Ti  Ti57  1  0.17288218  0.63413182  0.37945841  1
  Ti  Ti58  1  0.81705005  0.34891644  0.81832257  1
  Ti  Ti59  1  0.54828046  0.97898636  0.61867394  1
  Ti  Ti60  1  0.32998854  0.01230807  0.58252393  1
  Ti  Ti61  1  0.53952813  0.78573848  0.74369161  1
  Ti  Ti62  1  0.78594616  0.53754136  0.55149442  1
  Ti  Ti63  1  0.76258133  0.88253118  0.78494101  1
  Ti  Ti64  1  0.19216942  0.85911316  0.84890834  1
  Ti  Ti65  1  0.92271304  0.23073893  0.99294668  1
  Ti  Ti66  1  0.08533889  0.37696446  0.52140889  1
  Ti  Ti67  1  0.07468476  0.87327780  0.02813520  1
  Ti  Ti68  1  0.46269432  0.91856589  0.18976994  1
  Ti  Ti69  1  0.30159777  0.20463387  0.11165966  1
  Ti  Ti70  1  0.57520036  0.56962699  0.84506103  1
  Ti  Ti71  1  0.35077438  0.01047427  0.99531770  1
  Ti  Ti72  1  0.87037933  0.31256473  0.60815746  1
  Ti  Ti73  1  0.87466365  0.03895563  0.62355728  1
  Ti  Ti74  1  0.23381947  0.41062659  0.97202524  1
  Ti  Ti75  1  0.64064559  0.40504290  0.67357386  1
  Ti  Ti76  1  0.43019927  0.61173756  0.39982335  1
  Ti  Ti77  1  0.00705047  0.48017100  0.93920731  1
  Ti  Ti78  1  0.87464985  0.97161581  0.99918926  1
  Ti  Ti79  1  0.53530891  0.83276215  0.42199558  1
  Ti  Ti80  1  0.12762210  0.72894672  0.66600834  1
  Ti  Ti81  1  0.89915700  0.88823046  0.21155354  1
  Ti  Ti82  1  0.57296141  0.99751156  0.83645175  1
  Ti  Ti83  1  0.14422249  0.00629095  0.38771287  1
  Ti  Ti84  1  0.84352497  0.43454022  0.38685227  1
  Ti  Ti85  1  0.07171045  0.30530503  0.82641193  1
  Ti  Ti86  1  0.45900419  0.34489015  0.05331147  1
  Ti  Ti87  1  0.05388395  0.57915632  0.13912640  1
  Ti  Ti88  1  0.93728142  0.65181411  0.30942254  1
  Ti  Ti89  1  0.93199819  0.22735631  0.31847617  1
  Ti  Ti90  1  0.69711452  0.28909369  0.04713140  1
  Ti  Ti91  1  0.65113741  0.70397614  0.57790586  1
  Ti  Ti92  1  0.68062683  0.30861534  0.27071059  1
  Ti  Ti93  1  0.12610179  0.09398609  0.96036436  1
  Ti  Ti94  1  0.25397870  0.42074461  0.19155449  1
  Ti  Ti95  1  0.05645621  0.43892306  0.30346011  1
  Ti  Ti96  1  0.27127097  0.20385019  0.49800688  1
  Ti  Ti97  1  0.39731917  0.03699189  0.37825619  1
  Ti  Ti98  1  0.24685242  0.01261234  0.20436074  1
  Ti  Ti99  1  0.96637176  0.49740525  0.71434984  1
loop_
_geom_bond_atom_site_label_1
_geom_bond_atom_site_label_2
_geom_bond_distance
_geom_bond_site_symmetry_2
Ti0 Ti31 2.467912 1_545
Ti0 Ti52 2.759284 1_555
Ti0 Ti17 2.759576 1_555
Ti0 Ti85 2.841511 1_555
Ti0 Ti93 2.870016 1_555
Ti0 Ti60 2.940255 1_555
Ti0 Ti51 2.945370 1_455
Ti0 Ti46 2.945669 1_555
Ti0 Ti22 2.981398 1_545
Ti0 Ti64 3.202580 1_545
Ti1 Ti45 2.637895 1_555
Ti1 Ti43 2.693897 1_556
Ti1 Ti32 2.719612 1_555
Ti1 Ti70 2.791079 1_555
Ti1 Ti21 2.870883 1_556
Ti1 Ti42 2.891763 1_556
Ti1 Ti28 2.980170 1_556
Ti1 Ti50 3.080498 1_555
Ti1 Ti63 3.103958 1_555
Ti1 Ti61 3.291735 1_555
Ti1 Ti5 3.430890 1_556
Ti2 Ti47 2.627670 1_555
Ti2 Ti94 2.666943 1_555
Ti2 Ti57 2.723502 1_555
Ti2 Ti41 2.811506 1_555
Ti2 Ti5 2.833109 1_555
Ti2 Ti76 2.873688 1_555
Ti2 Ti23 2.925160 1_555
Ti2 Ti34 2.927229 1_555
Ti2 Ti30 3.051527 1_554
Ti2 Ti87 3.130793 1_555
Ti2 Ti3 3.135021 1_555
Ti3 Ti76 2.729125 1_555
Ti3 Ti86 2.744551 1_555
Ti3 Ti5 2.784255 1_555
Ti3 Ti49 2.798346 1_555
Ti3 Ti92 2.873914 1_555
Ti3 Ti56 2.965966 1_555
Ti3 Ti94 3.041040 1_555
Ti4 Ti59 2.805850 1_545
Ti4 Ti82 2.830596 1_545
Ti4 Ti48 2.898618 1_555
Ti4 Ti60 2.914109 1_555
Ti4 Ti44 2.971030 1_555
Ti4 Ti52 2.994412 1_555
Ti4 Ti6 3.278031 1_555
Ti5 Ti68 2.634986 1_555
Ti5 Ti9 2.691359 1_555
Ti5 Ti76 3.090820 1_555
Ti5 Ti79 3.341809 1_555
Ti6 Ti70 2.752652 1_555
Ti6 Ti7 2.935386 1_555
Ti6 Ti74 2.993399 1_555
Ti6 Ti86 3.268510 1_556
Ti6 Ti75 3.444258 1_555
Ti7 Ti99 2.670515 1_455
Ti7 Ti74 2.680755 1_555
Ti7 Ti80 2.778278 1_555
Ti7 Ti77 2.884199 1_555
Ti7 Ti85 2.962418 1_555
Ti7 Ti8 3.170632 1_455
Ti8 Ti99 2.872886 1_555
Ti8 Ti80 2.937733 1_655
Ti10 Ti96 2.521528 1_555
Ti10 Ti95 2.682022 1_555
Ti10 Ti33 2.768660 1_555
Ti10 Ti83 2.832279 1_555
Ti10 Ti94 2.888250 1_555
Ti10 Ti89 2.896980 1_455
Ti10 Ti35 2.947785 1_555
Ti10 Ti15 2.961956 1_555
Ti10 Ti69 3.089376 1_555
Ti10 Ti98 3.094462 1_555
Ti10 Ti24 3.102118 1_555
Ti10 Ti66 3.223175 1_555
Ti10 Ti46 3.286162 1_555
Ti11 Ti8 2.805037 1_555
Ti11 Ti27 2.828424 1_555
Ti11 Ti80 2.841702 1_655
Ti11 Ti37 2.844309 1_555
Ti11 Ti63 2.848872 1_555
Ti11 Ti29 2.855910 1_655
Ti11 Ti12 2.912102 1_655
Ti11 Ti50 2.957814 1_555
Ti11 Ti53 3.028498 1_555
Ti11 Ti73 3.076037 1_565
Ti11 Ti91 3.191147 1_555
Ti11 Ti62 3.263144 1_555
Ti11 Ti31 3.373588 1_655
Ti11 Ti99 3.424890 1_555
Ti12 Ti29 2.659598 1_555
Ti12 Ti57 2.709082 1_555
Ti12 Ti16 2.760237 1_455
Ti12 Ti31 2.792469 1_555
Ti12 Ti83 2.819378 1_565
Ti12 Ti88 2.840566 1_455
Ti12 Ti80 2.861493 1_555
Ti12 Ti23 2.911523 1_555
Ti12 Ti37 3.133296 1_455
Ti13 Ti4 2.658267 1_555
Ti13 Ti56 2.660719 1_555
Ti13 Ti35 2.738364 1_555
Ti13 Ti96 2.747312 1_555
Ti13 Ti38 2.751852 1_555
Ti13 Ti52 2.754464 1_555
Ti13 Ti25 2.763788 1_555
Ti13 Ti75 2.872257 1_555
Ti13 Ti15 3.098711 1_555
Ti13 Ti6 3.123564 1_555
Ti13 Ti36 3.272010 1_555
Ti14 Ti60 2.763360 1_565
Ti14 Ti38 2.809270 1_555
Ti14 Ti41 2.858669 1_555
Ti14 Ti18 2.866895 1_555
Ti14 Ti36 2.896527 1_555
Ti14 Ti61 2.950499 1_555
Ti14 Ti79 3.033363 1_555
Ti14 Ti76 3.039181 1_555
Ti14 Ti80 3.159188 1_555
Ti14 Ti22 3.198815 1_555
Ti15 Ti35 2.631531 1_555
Ti15 Ti25 2.726951 1_555
Ti15 Ti54 2.728869 1_555
Ti15 Ti3 2.787174 1_555
Ti15 Ti97 2.795280 1_555
Ti15 Ti96 2.868817 1_555
Ti15 Ti94 2.946563 1_555
Ti15 Ti69 3.017642 1_555
Ti15 Ti56 3.232847 1_555
Ti16 Ti81 2.719848 1_555
Ti16 Ti73 2.781827 1_565
Ti16 Ti89 2.894815 1_565
Ti16 Ti26 2.896851 1_565
Ti16 Ti83 2.907282 1_665
Ti16 Ti27 2.946157 1_555
Ti16 Ti46 2.948450 1_665
Ti16 Ti19 2.974733 1_565
Ti16 Ti37 3.217163 1_555
Ti16 Ti24 3.447925 1_665
Ti17 Ti71 2.735894 1_555
Ti17 Ti74 2.745160 1_555
Ti17 Ti4 2.748492 1_555
Ti17 Ti52 2.819981 1_555
Ti17 Ti39 2.833646 1_555
Ti17 Ti69 2.847058 1_556
Ti17 Ti6 2.939344 1_555
Ti17 Ti93 2.985454 1_555
Ti17 Ti86 3.090128 1_556
Ti17 Ti85 3.195967 1_555
Ti18 Ti7 2.795254 1_555
Ti18 Ti61 2.796858 1_555
Ti18 Ti64 2.887105 1_555
Ti18 Ti34 2.902497 1_556
Ti18 Ti6 2.905027 1_555
Ti18 Ti38 2.949729 1_555
Ti18 Ti80 3.021599 1_555
Ti18 Ti36 3.026497 1_555
Ti18 Ti45 3.066215 1_555
Ti18 Ti70 3.071094 1_555
Ti18 Ti22 3.092991 1_555
Ti18 Ti30 3.238384 1_555
Ti19 Ti72 2.563093 1_555
Ti19 Ti25 2.695697 1_555
Ti19 Ti26 2.715139 1_555
Ti19 Ti92 2.793369 1_555
Ti19 Ti89 2.801391 1_555
Ti19 Ti48 2.816666 1_555
Ti19 Ti73 2.931929 1_555
Ti19 Ti56 3.027236 1_555
Ti19 Ti84 3.090876 1_555
Ti20 Ti90 2.705064 1_555
Ti20 Ti26 2.803997 1_555
Ti20 Ti42 2.814706 1_545
Ti20 Ti89 2.838409 1_555
Ti20 Ti78 2.886326 1_544
Ti20 Ti81 2.908647 1_545
Ti20 Ti92 2.927527 1_555
Ti20 Ti24 2.962892 1_655
Ti20 Ti65 3.122768 1_554
Ti20 Ti54 3.176880 1_555
Ti21 Ti28 2.602708 1_555
Ti21 Ti88 2.660632 1_555
Ti21 Ti49 2.713107 1_555
Ti21 Ti9 2.715695 1_555
Ti21 Ti43 2.735835 1_555
Ti21 Ti40 2.784105 1_555
Ti21 Ti32 2.843596 1_554
Ti21 Ti5 3.105534 1_555
Ti22 Ti60 2.553922 1_565
Ti22 Ti64 2.564157 1_555
Ti22 Ti82 2.680672 1_555
Ti22 Ti71 2.794468 1_565
Ti22 Ti61 2.799422 1_555
Ti22 Ti45 2.950128 1_555
Ti22 Ti4 3.042857 1_565
Ti22 Ti59 3.094867 1_555
Ti23 Ti67 2.632793 1_555
Ti23 Ti41 2.718763 1_555
Ti23 Ti81 2.734946 1_455
Ti23 Ti57 2.747133 1_555
Ti23 Ti98 2.963216 1_565
Ti23 Ti87 3.014798 1_555
Ti23 Ti83 3.026198 1_565
Ti23 Ti88 3.051068 1_455
Ti23 Ti47 3.108085 1_555
Ti23 Ti24 3.258368 1_565
Ti24 Ti98 2.709577 1_555
Ti24 Ti81 2.785169 1_445
Ti24 Ti33 2.851417 1_555
Ti24 Ti89 2.860087 1_455
Ti24 Ti93 2.911052 1_554
Ti24 Ti67 2.971044 1_545
Ti24 Ti83 3.014810 1_555
Ti24 Ti78 3.039741 1_444
Ti24 Ti65 3.051359 1_454
Ti25 Ti97 2.679243 1_555
Ti25 Ti59 2.738185 1_545
Ti25 Ti48 2.805672 1_555
Ti25 Ti26 2.815401 1_555
Ti25 Ti56 2.898471 1_555
Ti26 Ti9 2.653883 1_545
Ti26 Ti27 2.699779 1_545
Ti26 Ti54 2.717485 1_555
Ti26 Ti79 3.075594 1_545
Ti27 Ti73 2.459040 1_565
Ti27 Ti59 2.541688 1_555
Ti27 Ti37 2.579364 1_555
Ti27 Ti91 2.815570 1_555
Ti27 Ti79 2.938124 1_555
Ti27 Ti63 3.076733 1_555
Ti28 Ti32 2.590473 1_554
Ti28 Ti3 2.683781 1_555
Ti28 Ti34 2.723683 1_555
Ti28 Ti86 2.734160 1_555
Ti28 Ti90 2.772727 1_555
Ti28 Ti70 2.811550 1_554
Ti28 Ti5 2.847726 1_555
Ti29 Ti66 2.657144 1_555
Ti29 Ti99 2.704667 1_455
Ti29 Ti88 2.739039 1_455
Ti29 Ti57 2.806943 1_555
Ti29 Ti80 2.822151 1_555
Ti29 Ti62 2.822313 1_455
Ti29 Ti36 3.125994 1_555
Ti29 Ti95 3.297559 1_555
Ti30 Ti47 2.640182 1_556
Ti30 Ti87 2.688643 1_556
Ti30 Ti7 2.755854 1_555
Ti30 Ti34 2.868421 1_556
Ti30 Ti67 2.874745 1_556
Ti30 Ti64 2.877722 1_555
Ti30 Ti74 2.892179 1_555
Ti30 Ti8 2.896405 1_455
Ti30 Ti77 2.947957 1_555
Ti31 Ti80 2.561793 1_555
Ti31 Ti46 2.806817 1_565
Ti31 Ti53 2.813588 1_455
Ti31 Ti60 2.852423 1_565
Ti31 Ti64 3.008329 1_555
Ti31 Ti83 3.047695 1_565
Ti31 Ti73 3.079362 1_465
Ti32 Ti77 2.697345 1_655
Ti32 Ti50 2.712642 1_555
Ti32 Ti58 2.747126 1_555
Ti32 Ti40 2.829765 1_556
Ti32 Ti43 2.954307 1_556
Ti32 Ti70 3.000998 1_555
Ti32 Ti90 3.134782 1_556
Ti33 Ti65 2.542621 1_454
Ti33 Ti94 2.697593 1_555
Ti33 Ti69 2.811815 1_555
Ti33 Ti74 2.874077 1_554
Ti33 Ti95 2.944388 1_555
Ti33 Ti40 2.970490 1_455
Ti33 Ti77 3.038399 1_554
Ti33 Ti93 3.061321 1_554
Ti34 Ti86 2.825891 1_555
Ti34 Ti74 2.882320 1_554
Ti34 Ti45 2.963317 1_554
Ti34 Ti70 2.966989 1_554
Ti34 Ti5 2.971213 1_555
Ti34 Ti6 2.992868 1_554
Ti35 Ti36 2.662199 1_555
Ti35 Ti57 2.684331 1_555
Ti35 Ti94 2.746114 1_555
Ti35 Ti76 2.829462 1_555
Ti35 Ti96 2.838991 1_555
Ti35 Ti66 2.901614 1_555
Ti35 Ti95 3.007184 1_555
Ti36 Ti80 2.684097 1_555
Ti36 Ti7 2.716291 1_555
Ti36 Ti38 2.756300 1_555
Ti36 Ti57 2.842470 1_555
Ti36 Ti52 2.942189 1_555
Ti36 Ti66 3.086191 1_555
Ti36 Ti76 3.343607 1_555
Ti36 Ti6 3.358474 1_555
Ti37 Ti88 2.557765 1_555
Ti37 Ti49 2.686294 1_555
Ti37 Ti9 2.725539 1_555
Ti37 Ti91 2.746751 1_555
Ti37 Ti62 2.981783 1_555
Ti37 Ti79 3.249539 1_555
Ti38 Ti75 2.731673 1_555
Ti38 Ti91 2.765576 1_555
Ti38 Ti76 2.819229 1_555
Ti38 Ti70 2.910126 1_555
Ti38 Ti6 2.927499 1_555
Ti38 Ti61 3.040975 1_555
Ti38 Ti56 3.251974 1_555
Ti39 Ti82 2.579561 1_545
Ti39 Ti54 2.614420 1_556
Ti39 Ti86 2.619939 1_556
Ti39 Ti71 2.670271 1_555
Ti39 Ti42 2.674335 1_546
Ti39 Ti44 2.688985 1_555
Ti39 Ti90 2.844614 1_556
Ti39 Ti55 3.036152 1_555
Ti40 Ti95 2.811347 1_655
Ti40 Ti84 2.825898 1_555
Ti40 Ti89 2.862025 1_555
Ti40 Ti90 2.886047 1_555
Ti40 Ti92 3.005379 1_555
Ti40 Ti65 3.009202 1_554
Ti40 Ti87 3.081957 1_655
Ti40 Ti77 3.406412 1_654
Ti41 Ti97 2.744439 1_565
Ti41 Ti98 2.841698 1_565
Ti41 Ti57 2.853885 1_555
Ti41 Ti79 2.881534 1_555
Ti41 Ti83 2.893236 1_565
Ti41 Ti76 2.902163 1_555
Ti41 Ti68 3.030060 1_555
Ti42 Ti9 2.674011 1_555
Ti42 Ti82 2.788116 1_554
Ti42 Ti78 2.805136 1_554
Ti42 Ti45 2.984136 1_554
Ti42 Ti68 3.033280 1_555
Ti42 Ti55 3.051637 1_564
Ti42 Ti54 3.141741 1_565
Ti43 Ti8 2.710663 1_554
Ti43 Ti87 2.753048 1_655
Ti43 Ti67 2.769776 1_655
Ti43 Ti81 2.794123 1_555
Ti43 Ti78 2.838055 1_554
Ti43 Ti77 3.438638 1_654
Ti44 Ti90 2.562638 1_556
Ti44 Ti75 2.654941 1_555
Ti44 Ti6 2.700470 1_555
Ti44 Ti55 2.892042 1_555
Ti44 Ti58 2.905301 1_555
Ti44 Ti86 2.913734 1_556
Ti44 Ti70 2.928733 1_555
Ti45 Ti47 2.690416 1_556
Ti45 Ti71 2.811528 1_565
Ti45 Ti61 2.824807 1_555
Ti45 Ti82 2.942230 1_555
Ti45 Ti5 3.033401 1_556
Ti45 Ti68 3.112984 1_556
Ti45 Ti70 3.354906 1_555
Ti46 Ti66 2.605590 1_555
Ti46 Ti73 2.806701 1_455
Ti46 Ti83 2.838570 1_555
Ti46 Ti72 2.904525 1_455
Ti46 Ti96 2.913398 1_555
Ti46 Ti89 2.979935 1_455
Ti47 Ti71 2.521223 1_564
Ti47 Ti67 2.717794 1_555
Ti47 Ti68 2.819340 1_555
Ti47 Ti64 2.878377 1_554
Ti47 Ti98 2.912535 1_565
Ti47 Ti5 3.310059 1_555
Ti48 Ti75 2.726848 1_555
Ti48 Ti55 2.758337 1_555
Ti48 Ti73 2.838283 1_555
Ti48 Ti59 2.916520 1_545
Ti48 Ti72 2.967828 1_555
Ti48 Ti58 3.176207 1_555
Ti49 Ti56 2.634098 1_555
Ti49 Ti76 2.779194 1_555
Ti49 Ti5 2.814430 1_555
Ti49 Ti62 2.896662 1_555
Ti49 Ti84 2.953277 1_555
Ti49 Ti91 3.023181 1_555
Ti49 Ti79 3.185978 1_555
Ti49 Ti9 3.197132 1_555
Ti50 Ti70 2.736669 1_555
Ti50 Ti8 2.811245 1_555
Ti50 Ti99 2.818140 1_555
Ti50 Ti91 2.831347 1_555
Ti50 Ti62 2.837125 1_555
Ti50 Ti63 3.064170 1_555
Ti50 Ti75 3.215536 1_555
Ti50 Ti58 3.223500 1_555
Ti50 Ti61 3.379390 1_555
Ti51 Ti73 2.450067 1_555
Ti51 Ti85 2.488378 1_655
Ti51 Ti53 2.643812 1_545
Ti51 Ti58 2.794470 1_555
Ti51 Ti65 2.826642 1_555
Ti51 Ti55 2.836849 1_555
Ti51 Ti72 2.892552 1_555
Ti51 Ti93 3.106610 1_655
Ti52 Ti6 2.662096 1_555
Ti52 Ti96 2.701591 1_555
Ti52 Ti66 2.787526 1_555
Ti52 Ti85 2.887218 1_555
Ti52 Ti7 2.888658 1_555
Ti53 Ti64 2.586244 1_655
Ti53 Ti8 2.646656 1_555
Ti53 Ti78 2.833334 1_555
Ti53 Ti63 2.842255 1_555
Ti53 Ti67 2.880437 1_656
Ti53 Ti73 2.884944 1_565
Ti53 Ti93 3.155169 1_665
Ti54 Ti68 2.739742 1_545
Ti54 Ti92 2.838664 1_555
Ti54 Ti69 3.030218 1_555
Ti54 Ti86 3.040362 1_555
Ti54 Ti97 3.103255 1_555
Ti54 Ti90 3.331065 1_555
Ti55 Ti78 2.659322 1_545
Ti55 Ti82 2.677399 1_545
Ti55 Ti65 2.795376 1_555
Ti55 Ti90 2.838281 1_556
Ti55 Ti58 2.901117 1_555
Ti55 Ti63 3.101880 1_545
Ti56 Ti75 2.701054 1_555
Ti56 Ti92 2.732956 1_555
Ti56 Ti62 2.969476 1_555
Ti56 Ti84 3.127703 1_555
Ti56 Ti76 3.199815 1_555
Ti57 Ti95 2.863413 1_555
Ti57 Ti88 2.955708 1_455
Ti57 Ti76 3.139791 1_555
Ti58 Ti72 2.737650 1_555
Ti58 Ti65 2.765706 1_555
Ti58 Ti75 2.769201 1_555
Ti58 Ti99 2.899640 1_555
Ti58 Ti85 3.128530 1_655
Ti58 Ti77 3.140975 1_655
Ti58 Ti90 3.327359 1_556
Ti59 Ti60 2.690772 1_565
Ti59 Ti82 2.692737 1_555
Ti59 Ti61 2.717330 1_555
Ti59 Ti79 2.975279 1_555
Ti60 Ti96 2.508316 1_555
Ti60 Ti97 2.705728 1_555
Ti60 Ti83 3.209287 1_555
Ti61 Ti91 2.681888 1_555
Ti61 Ti82 2.761321 1_555
Ti61 Ti70 2.799751 1_555
Ti61 Ti63 3.007433 1_555
Ti62 Ti84 2.488469 1_555
Ti62 Ti91 2.528037 1_555
Ti62 Ti72 2.838433 1_555
Ti62 Ti75 2.871817 1_555
Ti62 Ti99 2.913260 1_555
Ti63 Ti82 2.739264 1_555
Ti63 Ti73 3.090348 1_565
Ti63 Ti78 3.108859 1_555
Ti64 Ti67 2.703497 1_556
Ti64 Ti80 2.819944 1_555
Ti64 Ti93 3.167883 1_565
Ti64 Ti71 3.168725 1_565
Ti64 Ti8 3.253774 1_455
Ti65 Ti90 2.928841 1_556
Ti65 Ti93 2.947080 1_655
Ti65 Ti85 2.962643 1_655
Ti65 Ti78 3.092713 1_545
Ti65 Ti77 3.189873 1_655
Ti66 Ti95 2.769115 1_555
Ti66 Ti96 3.004494 1_555
Ti66 Ti72 3.009044 1_455
Ti66 Ti99 3.167224 1_455
Ti66 Ti84 3.343441 1_455
Ti67 Ti78 2.660781 1_454
Ti67 Ti93 2.794728 1_564
Ti68 Ti98 2.831301 1_565
Ti68 Ti97 2.849647 1_565
Ti68 Ti71 2.862162 1_564
Ti68 Ti9 2.902772 1_555
Ti68 Ti79 3.086681 1_555
Ti69 Ti98 2.622508 1_555
Ti69 Ti86 2.692319 1_555
Ti69 Ti71 2.752802 1_554
Ti69 Ti94 2.762167 1_555
Ti69 Ti74 2.993530 1_554
Ti69 Ti93 3.087878 1_554
Ti70 Ti75 2.987964 1_555
Ti71 Ti93 2.882639 1_555
Ti71 Ti98 2.934103 1_556
Ti72 Ti99 2.791083 1_555
Ti72 Ti84 3.051337 1_555
Ti72 Ti75 3.118853 1_555
Ti72 Ti73 3.182778 1_555
Ti74 Ti94 2.703980 1_556
Ti74 Ti77 2.860477 1_555
Ti74 Ti85 2.910209 1_555
Ti74 Ti86 2.942258 1_556
Ti76 Ti79 2.925915 1_555
Ti77 Ti85 2.598717 1_555
Ti77 Ti87 2.768732 1_556
Ti77 Ti99 2.787623 1_455
Ti77 Ti8 2.845572 1_455
Ti78 Ti81 2.773384 1_556
Ti78 Ti93 3.490487 1_665
Ti79 Ti91 2.717303 1_555
Ti79 Ti97 2.885156 1_565
Ti79 Ti9 3.073004 1_555
Ti81 Ti9 2.713196 1_555
Ti81 Ti88 2.996903 1_555
Ti83 Ti98 2.645791 1_555
Ti83 Ti96 3.104674 1_555
Ti83 Ti97 3.135139 1_555
Ti84 Ti89 2.762080 1_555
Ti84 Ti92 2.845884 1_555
Ti84 Ti95 2.853011 1_655
Ti84 Ti88 2.982591 1_555
Ti85 Ti99 2.836765 1_455
Ti85 Ti93 2.974629 1_555
Ti86 Ti90 2.961272 1_555
Ti86 Ti94 3.209516 1_555
Ti87 Ti95 2.581177 1_555
Ti87 Ti88 2.725594 1_455
Ti87 Ti94 3.037300 1_555
Ti88 Ti95 2.826274 1_655
Ti89 Ti95 2.951257 1_655
Ti90 Ti92 2.782525 1_555
Ti93 Ti98 3.377788 1_556
Ti94 Ti95 2.848624 1_555
Ti96 Ti97 2.898940 1_555
Ti97 Ti98 2.765177 1_555
