# generated using pymatgen
data_SrDy2CuO5
_symmetry_space_group_name_H-M   'P 1'
_cell_length_a   5.64297300
_cell_length_b   7.18130300
_cell_length_c   12.08895800
_cell_angle_alpha   90.00000000
_cell_angle_beta   90.00000000
_cell_angle_gamma   90.00000000
_symmetry_Int_Tables_number   1
_chemical_formula_structural   SrDy2CuO5
_chemical_formula_sum   'Sr4 Dy8 Cu4 O20'
_cell_volume   489.89171221
_cell_formula_units_Z   4
loop_
 _symmetry_equiv_pos_site_id
 _symmetry_equiv_pos_as_xyz
  1  'x, y, z'
loop_
 _atom_site_type_symbol
 _atom_site_label
 _atom_site_symmetry_multiplicity
 _atom_site_fract_x
 _atom_site_fract_y
 _atom_site_fract_z
 _atom_site_occupancy
  Sr  Sr0  1  0.75000000  0.08207900  0.08656800  1
  Sr  Sr1  1  0.75000000  0.41792100  0.58656800  1
  Sr  Sr2  1  0.25000000  0.58207900  0.41343200  1
  Sr  Sr3  1  0.25000000  0.91792100  0.91343200  1
  Dy  Dy0  1  0.25000000  0.39441600  0.07323400  1
  Dy  Dy1  1  0.75000000  0.61300700  0.21360000  1
  Dy  Dy2  1  0.75000000  0.88699300  0.71360000  1
  Dy  Dy3  1  0.25000000  0.11300700  0.28640000  1
  Dy  Dy4  1  0.75000000  0.60558400  0.92676600  1
  Dy  Dy5  1  0.75000000  0.89441600  0.42676600  1
  Dy  Dy6  1  0.25000000  0.10558400  0.57323400  1
  Dy  Dy7  1  0.25000000  0.38699300  0.78640000  1
  Cu  Cu0  1  0.25000000  0.77886900  0.16325600  1
  Cu  Cu1  1  0.75000000  0.22113100  0.83674400  1
  Cu  Cu2  1  0.75000000  0.27886900  0.33674400  1
  Cu  Cu3  1  0.25000000  0.72113100  0.66325600  1
  O  O0  1  0.25000000  0.42553800  0.59419400  1
  O  O1  1  0.75000000  0.57446200  0.40580600  1
  O  O2  1  0.75000000  0.92553800  0.90580600  1
  O  O3  1  0.25000000  0.07446200  0.09419400  1
  O  O4  1  0.00613500  0.84849600  0.27644300  1
  O  O5  1  0.50613500  0.15150400  0.72355700  1
  O  O6  1  0.99386500  0.34849600  0.22355700  1
  O  O7  1  0.49386500  0.65150400  0.77644300  1
  O  O8  1  0.99386500  0.15150400  0.72355700  1
  O  O9  1  0.49386500  0.84849600  0.27644300  1
  O  O10  1  0.00613500  0.65150400  0.77644300  1
  O  O11  1  0.50613500  0.34849600  0.22355700  1
  O  O12  1  0.49233300  0.66408400  0.06703000  1
  O  O13  1  0.99233300  0.33591600  0.93297000  1
  O  O14  1  0.50766700  0.16408400  0.43297000  1
  O  O15  1  0.00766700  0.83591600  0.56703000  1
  O  O16  1  0.99233300  0.16408400  0.43297000  1
  O  O17  1  0.49233300  0.83591600  0.56703000  1
  O  O18  1  0.00766700  0.66408400  0.06703000  1
  O  O19  1  0.50766700  0.33591600  0.93297000  1
loop_
_geom_bond_atom_site_label_1
_geom_bond_atom_site_label_2
_geom_bond_distance
_geom_bond_site_symmetry_2
Dy0 O19 2.272849 1_554
Dy0 O13 2.272849 1_454
Dy0 O3 2.311616 1_555
Dy0 O11 2.345253 1_555
Dy0 O6 2.345253 1_455
Dy0 O12 2.371902 1_555
Dy0 O18 2.371902 1_555
Dy1 O18 2.321257 1_655
Dy1 O12 2.321257 1_555
Dy1 O1 2.340000 1_555
Dy1 O6 2.348709 1_555
Dy1 O11 2.348709 1_555
Dy1 O4 2.350767 1_655
Dy1 O9 2.350767 1_555
Dy2 O15 2.321257 1_655
Dy2 O17 2.321257 1_555
Dy2 O2 2.340000 1_555
Dy2 O8 2.348709 1_565
Dy2 O5 2.348709 1_565
Dy2 O10 2.350767 1_655
Dy2 O7 2.350767 1_555
Dy3 O14 2.321257 1_555
Dy3 O16 2.321257 1_455
Dy3 O3 2.340000 1_555
Dy3 O4 2.348709 1_545
Dy3 O9 2.348709 1_545
Dy3 O11 2.350767 1_555
Dy3 O6 2.350767 1_455
Dy4 O18 2.272849 1_656
Dy4 O12 2.272849 1_556
Dy4 O2 2.311616 1_555
Dy4 O7 2.345253 1_555
Dy4 O10 2.345253 1_655
Dy4 O13 2.371902 1_555
Dy4 O19 2.371902 1_555
Dy5 O15 2.272849 1_655
Dy5 O17 2.272849 1_555
Dy5 O1 2.311616 1_555
Dy5 O9 2.345253 1_555
Dy5 O4 2.345253 1_655
Dy5 O16 2.371902 1_565
Dy5 O14 2.371902 1_565
Dy6 O14 2.272849 1_555
Dy6 O16 2.272849 1_455
Dy6 O0 2.311616 1_555
Dy6 O8 2.345253 1_455
Dy6 O5 2.345253 1_555
Dy6 O17 2.371902 1_545
Dy6 O15 2.371902 1_545
Dy7 O19 2.321257 1_555
Dy7 O13 2.321257 1_455
Dy7 O0 2.340000 1_555
Dy7 O7 2.348709 1_555
Dy7 O10 2.348709 1_555
Dy7 O8 2.350767 1_455
Dy7 O5 2.350767 1_555
Cu0 O12 1.975520 1_555
Cu0 O18 1.975520 1_555
Cu0 O4 2.003998 1_555
Cu0 O9 2.003998 1_555
Cu0 O3 2.281025 1_565
Cu1 O13 1.975520 1_555
Cu1 O19 1.975520 1_555
Cu1 O5 2.003998 1_555
Cu1 O8 2.003998 1_555
Cu1 O2 2.281025 1_545
Cu2 O16 1.975520 1_555
Cu2 O14 1.975520 1_555
Cu2 O11 2.003998 1_555
Cu2 O6 2.003998 1_555
Cu2 O1 2.281025 1_555
Cu3 O17 1.975520 1_555
Cu3 O15 1.975520 1_555
Cu3 O7 2.003998 1_555
Cu3 O10 2.003998 1_555
Cu3 O0 2.281025 1_555
O0 Sr2 2.457429 1_555
O0 Sr1 2.823522 1_555
O0 Sr1 2.823522 1_455
O1 Sr1 2.457429 1_555
O1 Sr2 2.823522 1_655
O1 Sr2 2.823522 1_555
O2 Sr0 2.457429 1_566
O2 Sr3 2.823522 1_555
O2 Sr3 2.823522 1_655
O3 Sr3 2.457429 1_544
O3 Sr0 2.823522 1_555
O3 Sr0 2.823522 1_455
O4 Sr2 2.880390 1_555
O4 Sr0 3.189305 1_465
O5 Sr1 2.880390 1_555
O5 Sr3 3.189305 1_545
O6 Sr0 2.880390 1_555
O6 Sr2 3.189305 1_655
O7 Sr3 2.880390 1_555
O7 Sr1 3.189305 1_555
O8 Sr1 2.880390 1_555
O8 Sr3 3.189305 1_645
O9 Sr2 2.880390 1_555
O9 Sr0 3.189305 1_565
O10 Sr3 2.880390 1_555
O10 Sr1 3.189305 1_455
O11 Sr0 2.880390 1_555
O11 Sr2 3.189305 1_555
O12 Sr3 2.939514 1_554
O13 Sr0 2.939514 1_556
O14 Sr1 2.939514 1_555
O15 Sr2 2.939514 1_555
O16 Sr1 2.939514 1_555
O17 Sr2 2.939514 1_555
O18 Sr3 2.939514 1_554
O19 Sr0 2.939514 1_556
