# generated using pymatgen
data_Ca2V2PbO8
_symmetry_space_group_name_H-M   'P 1'
_cell_length_a   7.25822083
_cell_length_b   7.25822083
_cell_length_c   7.25822039
_cell_angle_alpha   46.49462063
_cell_angle_beta   46.49462063
_cell_angle_gamma   46.49462031
_symmetry_Int_Tables_number   1
_chemical_formula_structural   Ca2V2PbO8
_chemical_formula_sum   'Ca2 V2 Pb1 O8'
_cell_volume   183.67785937
_cell_formula_units_Z   1
loop_
 _symmetry_equiv_pos_site_id
 _symmetry_equiv_pos_as_xyz
  1  'x, y, z'
loop_
 _atom_site_type_symbol
 _atom_site_label
 _atom_site_symmetry_multiplicity
 _atom_site_fract_x
 _atom_site_fract_y
 _atom_site_fract_z
 _atom_site_occupancy
  Ca  Ca0  1  0.19479500  0.19479500  0.19479500  1
  Ca  Ca1  1  0.99983000  0.99983000  0.99983000  1
  V  V0  1  0.59624900  0.59624900  0.59624900  1
  V  V1  1  0.40203800  0.40203800  0.40203800  1
  Pb  Pb0  1  0.80470400  0.80470400  0.80470400  1
  O  O0  1  0.26469200  0.76706700  0.26469200  1
  O  O1  1  0.26469200  0.26469200  0.76706700  1
  O  O2  1  0.76706700  0.26469200  0.26469200  1
  O  O3  1  0.73840800  0.23199700  0.73840800  1
  O  O4  1  0.73840800  0.73840800  0.23199700  1
  O  O5  1  0.23199700  0.73840800  0.73840800  1
  O  O6  1  0.68376100  0.68376100  0.68376100  1
  O  O7  1  0.31336100  0.31336100  0.31336100  1
loop_
_geom_bond_atom_site_label_1
_geom_bond_atom_site_label_2
_geom_bond_distance
_geom_bond_site_symmetry_2
Ca0 O7 2.298007 1_555
Ca0 O1 2.483991 1_554
Ca0 O2 2.483991 1_455
Ca0 O0 2.483991 1_545
Ca1 O5 2.488509 1_655
Ca1 O3 2.488509 1_565
Ca1 O4 2.488509 1_556
Ca1 O2 2.527960 1_566
Ca1 O0 2.527960 1_656
Ca1 O1 2.527961 1_665
O0 V1 1.761367 1_555
O1 V1 1.761367 1_555
O2 V1 1.761367 1_555
O3 V0 1.753007 1_555
O3 Pb0 2.508186 1_545
O4 V0 1.753007 1_555
O4 Pb0 2.508186 1_554
O5 V0 1.753007 1_555
O5 Pb0 2.508186 1_455
O6 V0 1.696129 1_555
O6 Pb0 2.344078 1_555
O7 V1 1.718709 1_555
