# generated using pymatgen
data_Li4V3P8O29
_symmetry_space_group_name_H-M   'P 1'
_cell_length_a   9.76747900
_cell_length_b   9.79711770
_cell_length_c   14.13674154
_cell_angle_alpha   90.14820422
_cell_angle_beta   90.07405588
_cell_angle_gamma   119.75439543
_symmetry_Int_Tables_number   1
_chemical_formula_structural   Li4V3P8O29
_chemical_formula_sum   'Li8 V6 P16 O58'
_cell_volume   1174.42938539
_cell_formula_units_Z   2
loop_
 _symmetry_equiv_pos_site_id
 _symmetry_equiv_pos_as_xyz
  1  'x, y, z'
loop_
 _atom_site_type_symbol
 _atom_site_label
 _atom_site_symmetry_multiplicity
 _atom_site_fract_x
 _atom_site_fract_y
 _atom_site_fract_z
 _atom_site_occupancy
  Li  Li0  1  0.09586500  0.32301500  0.44552200  1
  Li  Li1  1  0.69362000  0.77599000  0.44416000  1
  Li  Li2  1  0.68756100  0.91635400  0.93818600  1
  Li  Li3  1  0.09622800  0.77125300  0.93515500  1
  Li  Li4  1  0.77294100  0.09243500  0.56322700  1
  Li  Li5  1  0.22336500  0.91337600  0.44494100  1
  Li  Li6  1  0.31527600  0.09302100  0.05338600  1
  Li  Li7  1  0.77062800  0.68112500  0.05504700  1
  V  V0  1  0.56893100  0.00036700  0.75088700  1
  V  V1  1  0.43189900  0.00031200  0.24848500  1
  V  V2  1  0.99855900  0.43109100  0.24650900  1
  V  V3  1  0.99512400  0.56240600  0.74760400  1
  V  V4  1  0.42800600  0.43103400  0.75087300  1
  V  V5  1  0.56122100  0.56294600  0.25199800  1
  P  P0  1  0.22816900  0.31390000  0.15760200  1
  P  P1  1  0.08691000  0.31610100  0.66066700  1
  P  P2  1  0.68081300  0.76714800  0.65747100  1
  P  P3  1  0.33464000  0.66812700  0.87173600  1
  P  P4  1  0.32992900  0.66525000  0.37075100  1
  P  P5  1  0.67993900  0.90929300  0.15886800  1
  P  P6  1  0.76973600  0.08980000  0.33994000  1
  P  P7  1  0.08487900  0.76697000  0.15596100  1
  P  P8  1  0.91739500  0.23088000  0.84481300  1
  P  P9  1  0.22977100  0.90854900  0.65965700  1
  P  P10  1  0.31945300  0.08995800  0.83890800  1
  P  P11  1  0.66444500  0.33244800  0.62938400  1
  P  P12  1  0.66603800  0.33603900  0.13009300  1
  P  P13  1  0.31332700  0.22843800  0.34195200  1
  P  P14  1  0.91344700  0.68359900  0.33926400  1
  P  P15  1  0.76807100  0.68073000  0.83980500  1
  O  O0  1  0.23352900  0.23975000  0.42776500  1
  O  O1  1  0.25492400  0.33968000  0.66469300  1
  O  O2  1  0.00635100  0.23813900  0.93004700  1
  O  O3  1  0.08585700  0.34194500  0.16558200  1
  O  O4  1  0.38126900  0.47549900  0.17856700  1
  O  O5  1  0.33474000  0.51995800  0.82439200  1
  O  O6  1  0.52145400  0.61723000  0.67808700  1
  O  O7  1  0.76056600  0.76091600  0.92899500  1
  O  O8  1  0.66025200  0.74099900  0.16519700  1
  O  O9  1  0.18309700  0.51281300  0.32817300  1
  O  O10  1  0.09695900  0.47824400  0.67773100  1
  O  O11  1  0.48427900  0.66879700  0.32711300  1
  O  O12  1  0.33618300  0.66666100  0.97704000  1
  O  O13  1  0.33534700  0.65587800  0.47552000  1
  O  O14  1  0.48871700  0.81400600  0.83270400  1
  O  O15  1  0.09765200  0.61771400  0.17736500  1
  O  O16  1  0.18366900  0.66905000  0.83227700  1
  O  O17  1  0.66368500  0.91664700  0.66158000  1
  O  O18  1  0.78973600  0.99898600  0.24937000  1
  O  O19  1  0.76367400  0.00394900  0.42913100  1
  O  O20  1  0.75114000  0.98553900  0.06801700  1
  O  O21  1  0.51866400  0.90054100  0.17921300  1
  O  O22  1  0.32576800  0.81211400  0.33290300  1
  O  O23  1  0.74696300  0.08599100  0.83951700  1
  O  O24  1  0.38099000  0.89961400  0.67810200  1
  O  O25  1  0.08398200  0.74089200  0.67154600  1
  O  O26  1  0.99417500  0.20568600  0.74722300  1
  O  O27  1  0.00178400  0.24389700  0.56961900  1
  O  O28  1  0.00630900  0.77258500  0.42255000  1
  O  O29  1  0.92112300  0.25549600  0.33704700  1
  O  O30  1  0.62375900  0.10520300  0.32163600  1
  O  O31  1  0.24902000  0.91603100  0.15841300  1
  O  O32  1  0.67225200  0.18545500  0.66649300  1
  O  O33  1  0.48052200  0.10135800  0.82468200  1
  O  O34  1  0.23908600  0.00236100  0.92772000  1
  O  O35  1  0.23001600  0.98389000  0.56908700  1
  O  O36  1  0.20962700  0.00099300  0.74894300  1
  O  O37  1  0.33724600  0.08320300  0.33816800  1
  O  O38  1  0.81449300  0.33466900  0.17609100  1
  O  O39  1  0.90792200  0.38270100  0.82217600  1
  O  O40  1  0.51335900  0.18669700  0.16548100  1
  O  O41  1  0.67618600  0.35107000  0.02562800  1
  O  O42  1  0.67221300  0.34171800  0.52463900  1
  O  O43  1  0.52019300  0.33635900  0.67547000  1
  O  O44  1  0.90719200  0.52384200  0.32200000  1
  O  O45  1  0.81532800  0.48144100  0.67635000  1
  O  O46  1  0.33919300  0.25677100  0.83408900  1
  O  O47  1  0.20865400  0.20753400  0.24908600  1
  O  O48  1  0.23952200  0.23598700  0.07123400  1
  O  O49  1  0.47580400  0.38004700  0.32238300  1
  O  O50  1  0.66994100  0.48779600  0.17466200  1
  O  O51  1  0.61719700  0.52146300  0.82404500  1
  O  O52  1  0.91611500  0.66091400  0.84050600  1
  O  O53  1  0.99849000  0.75114200  0.06516600  1
  O  O54  1  0.98852700  0.78382900  0.24271000  1
  O  O55  1  0.74306800  0.65960300  0.33881300  1
  O  O56  1  0.75527900  0.75971900  0.56768200  1
  O  O57  1  0.79056700  0.78791300  0.74894500  1
loop_
_geom_bond_atom_site_label_1
_geom_bond_atom_site_label_2
_geom_bond_distance
_geom_bond_site_symmetry_2
Li0 O0 1.903958 1_555
Li0 O27 1.956306 1_555
Li0 O29 2.137667 1_455
Li0 O9 2.320068 1_555
Li1 O56 1.879186 1_555
Li1 O19 1.996792 1_565
Li1 O55 2.071489 1_555
Li1 O11 2.423348 1_555
Li2 O20 1.945905 1_556
Li2 O7 1.980267 1_555
Li2 O23 2.025175 1_565
Li2 O14 2.247881 1_555
Li3 O34 1.987556 1_565
Li3 O53 2.036637 1_456
Li3 O52 2.037809 1_455
Li3 O16 2.166035 1_555
Li4 O27 1.978111 1_655
Li4 O17 2.056708 1_545
Li4 O19 2.065550 1_555
Li4 O32 2.194386 1_555
Li5 O35 1.873621 1_555
Li5 O28 1.894988 1_555
Li5 O37 2.112887 1_565
Li5 O22 2.339685 1_555
Li6 O48 1.897450 1_555
Li6 O34 1.957306 1_554
Li6 O31 2.128843 1_545
Li6 O40 2.306265 1_555
Li7 O7 1.969557 1_554
Li7 O53 1.981863 1_555
Li7 O8 2.135053 1_555
Li7 O50 2.363478 1_555
O0 P13 1.476118 1_555
O1 P1 1.540498 1_555
O1 V4 1.905401 1_555
O2 P8 1.465394 1_455
O3 P0 1.549107 1_555
O3 V2 1.880216 1_455
O4 P0 1.573881 1_555
O4 V5 1.843105 1_555
O5 P3 1.597360 1_555
O5 V4 1.858641 1_555
O6 P2 1.548938 1_555
O6 V4 1.891826 1_555
O7 P15 1.504846 1_555
O8 P5 1.565127 1_555
O8 V5 1.955422 1_555
O9 P4 1.586417 1_555
O9 V2 1.944260 1_455
O10 P1 1.560276 1_555
O10 V3 1.859389 1_455
O11 P4 1.614056 1_555
O11 V5 1.880894 1_555
O12 P3 1.488891 1_555
O13 P4 1.486671 1_555
O14 P3 1.575842 1_555
O14 V0 1.969414 1_565
O15 P7 1.558412 1_555
O15 V2 1.868255 1_455
O16 P3 1.580141 1_555
O16 V3 1.998491 1_455
O17 P2 1.555438 1_555
O17 V0 1.968345 1_565
O18 P5 1.616919 1_555
O18 P6 1.623686 1_565
O19 P6 1.502326 1_555
O20 P5 1.477434 1_555
O21 P5 1.561640 1_555
O21 V1 1.857973 1_565
O22 P4 1.555689 1_555
O22 V1 2.003956 1_565
O23 P8 1.563790 1_555
O23 V0 1.959199 1_555
O24 P9 1.544255 1_555
O24 V0 1.895843 1_565
O25 P9 1.560268 1_555
O25 V3 1.863564 1_455
O26 P1 1.589037 1_655
O26 P8 1.646602 1_555
O27 P1 1.502380 1_555
O28 P14 1.475145 1_455
O29 P6 1.562477 1_555
O29 V2 1.972855 1_555
O30 P6 1.528243 1_555
O30 V1 1.927510 1_555
O31 P7 1.542706 1_555
O31 V1 2.004647 1_565
O32 P11 1.570902 1_555
O32 V0 1.981899 1_555
O33 P10 1.534447 1_555
O33 V0 1.912587 1_555
O34 P10 1.506145 1_555
O35 P9 1.478956 1_555
O36 P10 1.609544 1_555
O36 P9 1.619803 1_545
O37 P13 1.552945 1_555
O37 V1 1.965842 1_555
O38 P12 1.594533 1_555
O38 V2 1.849442 1_555
O39 P8 1.569185 1_555
O39 V3 1.860106 1_555
O40 P12 1.566824 1_555
O40 V1 1.978828 1_555
O41 P12 1.483054 1_555
O42 P11 1.483503 1_555
O43 P11 1.570662 1_555
O43 V4 1.906232 1_555
O44 P14 1.554377 1_555
O44 V2 1.887700 1_555
O45 P11 1.612669 1_555
O45 V3 1.826625 1_555
O46 P10 1.549372 1_555
O46 V4 1.895849 1_555
O47 P13 1.611844 1_555
O47 P0 1.614096 1_555
O48 P0 1.471479 1_555
O49 P13 1.569986 1_555
O49 V5 1.850532 1_555
O50 P12 1.596177 1_555
O50 V5 1.907844 1_555
O51 P15 1.539817 1_555
O51 V4 1.906580 1_555
O52 P15 1.551569 1_555
O52 V3 1.996774 1_555
O53 P7 1.499945 1_655
O54 P7 1.604099 1_655
O54 P14 1.630925 1_555
O55 P14 1.560904 1_555
O55 V5 1.968926 1_555
O56 P2 1.483228 1_555
O57 P15 1.606081 1_555
O57 P2 1.625246 1_555
