# generated using pymatgen
data_VBi2O5
_symmetry_space_group_name_H-M   'P 1'
_cell_length_a   5.45585900
_cell_length_b   15.60310200
_cell_length_c   16.54608700
_cell_angle_alpha   90.00000000
_cell_angle_beta   90.00000000
_cell_angle_gamma   90.00000000
_symmetry_Int_Tables_number   1
_chemical_formula_structural   VBi2O5
_chemical_formula_sum   'V12 Bi24 O60'
_cell_volume   1408.54066292
_cell_formula_units_Z   12
loop_
 _symmetry_equiv_pos_site_id
 _symmetry_equiv_pos_as_xyz
  1  'x, y, z'
loop_
 _atom_site_type_symbol
 _atom_site_label
 _atom_site_symmetry_multiplicity
 _atom_site_fract_x
 _atom_site_fract_y
 _atom_site_fract_z
 _atom_site_occupancy
  V  V0  1  0.24093400  0.01512800  0.75000000  1
  V  V1  1  0.74093400  0.48487200  0.75000000  1
  V  V2  1  0.75906600  0.98487200  0.25000000  1
  V  V3  1  0.25906600  0.51512800  0.25000000  1
  V  V4  1  0.75174400  0.99943800  0.91791300  1
  V  V5  1  0.25174400  0.50056200  0.58208700  1
  V  V6  1  0.24825600  0.00056200  0.41791300  1
  V  V7  1  0.74825600  0.49943800  0.08208700  1
  V  V8  1  0.24825600  0.00056200  0.08208700  1
  V  V9  1  0.74825600  0.49943800  0.41791300  1
  V  V10  1  0.75174400  0.99943800  0.58208700  1
  V  V11  1  0.25174400  0.50056200  0.91791300  1
  Bi  Bi0  1  0.74543100  0.14012700  0.75000000  1
  Bi  Bi1  1  0.24543100  0.35987300  0.75000000  1
  Bi  Bi2  1  0.25456900  0.85987300  0.25000000  1
  Bi  Bi3  1  0.75456900  0.64012700  0.25000000  1
  Bi  Bi4  1  0.74681300  0.83645600  0.75000000  1
  Bi  Bi5  1  0.24681300  0.66354400  0.75000000  1
  Bi  Bi6  1  0.25318700  0.16354400  0.25000000  1
  Bi  Bi7  1  0.75318700  0.33645600  0.25000000  1
  Bi  Bi8  1  0.23641800  0.82742000  0.91048100  1
  Bi  Bi9  1  0.73641800  0.67258000  0.58951900  1
  Bi  Bi10  1  0.76358200  0.17258000  0.41048100  1
  Bi  Bi11  1  0.26358200  0.32742000  0.08951900  1
  Bi  Bi12  1  0.76358200  0.17258000  0.08951900  1
  Bi  Bi13  1  0.26358200  0.32742000  0.41048100  1
  Bi  Bi14  1  0.23641800  0.82742000  0.58951900  1
  Bi  Bi15  1  0.73641800  0.67258000  0.91048100  1
  Bi  Bi16  1  0.26454500  0.16806600  0.91504800  1
  Bi  Bi17  1  0.76454500  0.33193400  0.58495200  1
  Bi  Bi18  1  0.73545500  0.83193400  0.41504800  1
  Bi  Bi19  1  0.23545500  0.66806600  0.08495200  1
  Bi  Bi20  1  0.73545500  0.83193400  0.08495200  1
  Bi  Bi21  1  0.23545500  0.66806600  0.41504800  1
  Bi  Bi22  1  0.26454500  0.16806600  0.58495200  1
  Bi  Bi23  1  0.76454500  0.33193400  0.91504800  1
  O  O0  1  0.21935700  0.90480800  0.75000000  1
  O  O1  1  0.71935700  0.59519200  0.75000000  1
  O  O2  1  0.78064300  0.09519200  0.25000000  1
  O  O3  1  0.28064300  0.40480800  0.25000000  1
  O  O4  1  0.76200500  0.89529500  0.88623300  1
  O  O5  1  0.26200500  0.60470500  0.61376700  1
  O  O6  1  0.23799500  0.10470500  0.38623300  1
  O  O7  1  0.73799500  0.39529500  0.11376700  1
  O  O8  1  0.23799500  0.10470500  0.11376700  1
  O  O9  1  0.73799500  0.39529500  0.38623300  1
  O  O10  1  0.76200500  0.89529500  0.61376700  1
  O  O11  1  0.26200500  0.60470500  0.88623300  1
  O  O12  1  0.49699500  0.05212800  0.83079700  1
  O  O13  1  0.99699500  0.44787200  0.66920300  1
  O  O14  1  0.50300500  0.94787200  0.33079700  1
  O  O15  1  0.00300500  0.55212800  0.16920300  1
  O  O16  1  0.50300500  0.94787200  0.16920300  1
  O  O17  1  0.00300500  0.55212800  0.33079700  1
  O  O18  1  0.49699500  0.05212800  0.66920300  1
  O  O19  1  0.99699500  0.44787200  0.83079700  1
  O  O20  1  0.99986800  0.05497400  0.83452800  1
  O  O21  1  0.49986800  0.44502600  0.66547200  1
  O  O22  1  0.00013200  0.94502600  0.33452800  1
  O  O23  1  0.50013200  0.55497400  0.16547200  1
  O  O24  1  0.00013200  0.94502600  0.16547200  1
  O  O25  1  0.50013200  0.55497400  0.33452800  1
  O  O26  1  0.99986800  0.05497400  0.66547200  1
  O  O27  1  0.49986800  0.44502600  0.83452800  1
  O  O28  1  0.00000000  0.00000000  0.00000000  1
  O  O29  1  0.50000000  0.50000000  0.50000000  1
  O  O30  1  0.00000000  0.00000000  0.50000000  1
  O  O31  1  0.50000000  0.50000000  0.00000000  1
  O  O32  1  0.50000000  0.00000000  0.00000000  1
  O  O33  1  0.00000000  0.50000000  0.50000000  1
  O  O34  1  0.50000000  0.00000000  0.50000000  1
  O  O35  1  0.00000000  0.50000000  0.00000000  1
  O  O36  1  0.00115700  0.74805900  0.98948000  1
  O  O37  1  0.50115700  0.75194100  0.51052000  1
  O  O38  1  0.99884300  0.25194100  0.48948000  1
  O  O39  1  0.49884300  0.24805900  0.01052000  1
  O  O40  1  0.99884300  0.25194100  0.01052000  1
  O  O41  1  0.49884300  0.24805900  0.48948000  1
  O  O42  1  0.00115700  0.74805900  0.51052000  1
  O  O43  1  0.50115700  0.75194100  0.98948000  1
  O  O44  1  0.05654400  0.26573100  0.84778100  1
  O  O45  1  0.55654400  0.23426900  0.65221900  1
  O  O46  1  0.94345600  0.73426900  0.34778100  1
  O  O47  1  0.44345600  0.76573100  0.15221900  1
  O  O48  1  0.94345600  0.73426900  0.15221900  1
  O  O49  1  0.44345600  0.76573100  0.34778100  1
  O  O50  1  0.05654400  0.26573100  0.65221900  1
  O  O51  1  0.55654400  0.23426900  0.84778100  1
  O  O52  1  0.98940900  0.74916200  0.82846500  1
  O  O53  1  0.48940900  0.75083800  0.67153500  1
  O  O54  1  0.01059100  0.25083800  0.32846500  1
  O  O55  1  0.51059100  0.24916200  0.17153500  1
  O  O56  1  0.01059100  0.25083800  0.17153500  1
  O  O57  1  0.51059100  0.24916200  0.32846500  1
  O  O58  1  0.98940900  0.74916200  0.67153500  1
  O  O59  1  0.48940900  0.75083800  0.82846500  1
loop_
_geom_bond_atom_site_label_1
_geom_bond_atom_site_label_2
_geom_bond_distance
_geom_bond_site_symmetry_2
Bi0 O18 2.347278 1_555
Bi0 O12 2.347278 1_555
Bi0 O20 2.376645 1_555
Bi0 O26 2.376645 1_555
Bi0 O45 2.416046 1_555
Bi0 O51 2.416046 1_555
Bi1 O19 2.347278 1_455
Bi1 O13 2.347278 1_455
Bi1 O27 2.376645 1_555
Bi1 O21 2.376645 1_555
Bi1 O50 2.416046 1_555
Bi1 O44 2.416046 1_555
Bi2 O14 2.347278 1_555
Bi2 O16 2.347278 1_555
Bi2 O22 2.376645 1_555
Bi2 O24 2.376645 1_555
Bi2 O49 2.416046 1_555
Bi2 O47 2.416046 1_555
Bi3 O17 2.347278 1_655
Bi3 O15 2.347278 1_655
Bi3 O25 2.376645 1_555
Bi3 O23 2.376645 1_555
Bi3 O48 2.416046 1_555
Bi3 O46 2.416046 1_555
Bi4 O58 2.300563 1_555
Bi4 O52 2.300563 1_555
Bi4 O53 2.332901 1_555
Bi4 O59 2.332901 1_555
Bi4 O4 2.435322 1_555
Bi4 O10 2.435322 1_555
Bi4 O0 2.790018 1_655
Bi5 O59 2.300563 1_555
Bi5 O53 2.300563 1_555
Bi5 O58 2.332901 1_455
Bi5 O52 2.332901 1_455
Bi5 O11 2.435322 1_555
Bi5 O5 2.435322 1_555
Bi5 O1 2.790018 1_555
Bi6 O56 2.300563 1_555
Bi6 O54 2.300563 1_555
Bi6 O55 2.332901 1_555
Bi6 O57 2.332901 1_555
Bi6 O6 2.435322 1_555
Bi6 O8 2.435322 1_555
Bi6 O2 2.790018 1_455
Bi7 O55 2.300563 1_555
Bi7 O57 2.300563 1_555
Bi7 O56 2.332901 1_655
Bi7 O54 2.332901 1_655
Bi7 O7 2.435322 1_555
Bi7 O9 2.435322 1_555
Bi7 O3 2.790018 1_555
Bi8 O36 2.211201 1_555
Bi8 O52 2.269080 1_455
Bi8 O59 2.274769 1_555
Bi8 O43 2.276356 1_555
Bi9 O37 2.211201 1_555
Bi9 O53 2.269080 1_555
Bi9 O58 2.274769 1_555
Bi9 O42 2.276356 1_655
Bi10 O38 2.211201 1_555
Bi10 O54 2.269080 1_655
Bi10 O57 2.274769 1_555
Bi10 O41 2.276356 1_555
Bi11 O39 2.211201 1_555
Bi11 O55 2.269080 1_555
Bi11 O56 2.274769 1_555
Bi11 O40 2.276356 1_455
Bi12 O40 2.211201 1_555
Bi12 O56 2.269080 1_655
Bi12 O55 2.274769 1_555
Bi12 O39 2.276356 1_555
Bi13 O41 2.211201 1_555
Bi13 O57 2.269080 1_555
Bi13 O54 2.274769 1_555
Bi13 O38 2.276356 1_455
Bi14 O42 2.211201 1_555
Bi14 O58 2.269080 1_455
Bi14 O53 2.274769 1_555
Bi14 O37 2.276356 1_555
Bi15 O43 2.211201 1_555
Bi15 O59 2.269080 1_555
Bi15 O52 2.274769 1_555
Bi15 O36 2.276356 1_655
Bi16 O51 2.200863 1_555
Bi16 O44 2.202001 1_555
Bi16 O39 2.384808 1_556
Bi16 O40 2.511886 1_456
Bi16 O12 2.612303 1_555
Bi16 O20 2.640836 1_455
Bi17 O50 2.200863 1_655
Bi17 O45 2.202001 1_555
Bi17 O38 2.384808 1_555
Bi17 O41 2.511886 1_555
Bi17 O13 2.612303 1_555
Bi17 O21 2.640836 1_555
Bi18 O49 2.200863 1_555
Bi18 O46 2.202001 1_555
Bi18 O37 2.384808 1_555
Bi18 O42 2.511886 1_655
Bi18 O14 2.612303 1_555
Bi18 O22 2.640836 1_655
Bi19 O48 2.200863 1_455
Bi19 O47 2.202001 1_555
Bi19 O36 2.384808 1_554
Bi19 O43 2.511886 1_554
Bi19 O15 2.612303 1_555
Bi19 O23 2.640836 1_555
Bi20 O47 2.200863 1_555
Bi20 O48 2.202001 1_555
Bi20 O43 2.384808 1_554
Bi20 O36 2.511886 1_654
Bi20 O16 2.612303 1_555
Bi20 O24 2.640836 1_655
Bi21 O46 2.200863 1_455
Bi21 O49 2.202001 1_555
Bi21 O42 2.384808 1_555
Bi21 O37 2.511886 1_555
Bi21 O17 2.612303 1_555
Bi21 O25 2.640836 1_555
Bi22 O45 2.200863 1_555
Bi22 O50 2.202001 1_555
Bi22 O41 2.384808 1_555
Bi22 O38 2.511886 1_455
Bi22 O18 2.612303 1_555
Bi22 O26 2.640836 1_455
Bi23 O44 2.200863 1_655
Bi23 O51 2.202001 1_555
Bi23 O40 2.384808 1_556
Bi23 O39 2.511886 1_556
Bi23 O19 2.612303 1_555
Bi23 O27 2.640836 1_555
O0 V0 1.725355 1_565
O1 V1 1.725355 1_555
O2 V2 1.725355 1_545
O3 V3 1.725355 1_555
O4 V4 1.708325 1_555
O5 V5 1.708325 1_555
O6 V6 1.708325 1_555
O7 V7 1.708325 1_555
O8 V8 1.708325 1_555
O9 V9 1.708325 1_555
O10 V10 1.708325 1_555
O11 V11 1.708325 1_555
O12 V0 2.017976 1_555
O12 V4 2.164570 1_545
O13 V1 2.017976 1_555
O13 V5 2.164570 1_655
O14 V2 2.017976 1_555
O14 V6 2.164570 1_565
O15 V3 2.017976 1_555
O15 V7 2.164570 1_455
O16 V2 2.017976 1_555
O16 V8 2.164570 1_565
O17 V3 2.017976 1_555
O17 V9 2.164570 1_455
O18 V0 2.017976 1_555
O18 V10 2.164570 1_545
O19 V1 2.017976 1_555
O19 V11 2.164570 1_655
O20 V0 2.018031 1_655
O20 V4 2.118260 1_545
O21 V1 2.018031 1_555
O21 V5 2.118260 1_555
O22 V2 2.018031 1_455
O22 V6 2.118260 1_565
O23 V3 2.018031 1_555
O23 V7 2.118260 1_555
O24 V2 2.018031 1_455
O24 V8 2.118260 1_565
O25 V3 2.018031 1_555
O25 V9 2.118260 1_555
O26 V0 2.018031 1_655
O26 V10 2.118260 1_545
O27 V1 2.018031 1_555
O27 V11 2.118260 1_555
O28 V8 1.918168 1_555
O28 V4 1.918168 1_444
O29 V9 1.918168 1_555
O29 V5 1.918168 1_555
O30 V6 1.918168 1_555
O30 V10 1.918168 1_445
O31 V7 1.918168 1_555
O31 V11 1.918168 1_554
O32 V4 1.931653 1_544
O32 V8 1.931653 1_555
O33 V5 1.931653 1_555
O33 V9 1.931653 1_455
O34 V10 1.931653 1_545
O34 V6 1.931653 1_555
O35 V11 1.931653 1_554
O35 V7 1.931653 1_455
