# generated using pymatgen
data_Dy5S7
_symmetry_space_group_name_H-M   'P 1'
_cell_length_a   3.79728158
_cell_length_b   6.68014414
_cell_length_c   11.58111867
_cell_angle_alpha   104.04774036
_cell_angle_beta   90.00000000
_cell_angle_gamma   106.51232133
_symmetry_Int_Tables_number   1
_chemical_formula_structural   Dy5S7
_chemical_formula_sum   'Dy5 S7'
_cell_volume   272.47969359
_cell_formula_units_Z   1
loop_
 _symmetry_equiv_pos_site_id
 _symmetry_equiv_pos_as_xyz
  1  'x, y, z'
loop_
 _atom_site_type_symbol
 _atom_site_label
 _atom_site_symmetry_multiplicity
 _atom_site_fract_x
 _atom_site_fract_y
 _atom_site_fract_z
 _atom_site_occupancy
  Dy  Dy0  1  -0.00000000  -0.00000000  0.00000000  1
  Dy  Dy1  1  0.11169034  0.22338367  0.42142164  1
  Dy  Dy2  1  0.88830966  0.77661633  0.57857836  1
  Dy  Dy3  1  0.30044786  0.60089673  0.18797016  1
  Dy  Dy4  1  0.69955214  0.39910327  0.81202984  1
  S  S0  1  0.50000000  -0.00000000  0.50000000  1
  S  S1  1  0.65899655  0.31799311  0.05117809  1
  S  S2  1  0.34100345  0.68200689  0.94882191  1
  S  S3  1  0.95881279  0.91762258  0.21501781  1
  S  S4  1  0.04118721  0.08237742  0.78498219  1
  S  S5  1  0.25920321  0.51840841  0.64741154  1
  S  S6  1  0.74079679  0.48159159  0.35258846  1
loop_
_geom_bond_atom_site_label_1
_geom_bond_atom_site_label_2
_geom_bond_distance
_geom_bond_site_symmetry_2
Dy0 S4 2.672905 1_554
Dy0 S3 2.672905 1_445
Dy0 S2 2.737297 1_444
Dy0 S1 2.737297 1_555
Dy0 S2 2.737297 1_544
Dy0 S1 2.737297 1_455
Dy1 S0 2.671907 1_455
Dy1 S0 2.671915 1_555
Dy1 S3 2.679296 1_445
Dy1 S6 2.764527 1_455
Dy1 S6 2.764540 1_555
Dy1 S5 2.813560 1_555
Dy2 S0 2.671907 1_665
Dy2 S0 2.671915 1_565
Dy2 S4 2.679296 1_665
Dy2 S5 2.764527 1_655
Dy2 S5 2.764540 1_555
Dy2 S6 2.813560 1_555
Dy3 S3 2.737895 1_455
Dy3 S3 2.737906 1_555
Dy3 S1 2.818527 1_455
Dy3 S1 2.818529 1_555
Dy3 S6 2.925900 1_455
Dy3 S6 2.925908 1_555
Dy3 S2 2.944329 1_554
Dy4 S4 2.737895 1_655
Dy4 S4 2.737906 1_555
Dy4 S2 2.818527 1_655
Dy4 S2 2.818529 1_555
Dy4 S5 2.925900 1_655
Dy4 S5 2.925908 1_555
Dy4 S1 2.944329 1_556
