# generated using pymatgen
data_CaZrNbFeO7
_symmetry_space_group_name_H-M   'P 1'
_cell_length_a   7.47489845
_cell_length_b   7.47489845
_cell_length_c   11.59826147
_cell_angle_alpha   80.66859795
_cell_angle_beta   80.66859795
_cell_angle_gamma   59.86317304
_symmetry_Int_Tables_number   1
_chemical_formula_structural   CaZrNbFeO7
_chemical_formula_sum   'Ca4 Zr4 Nb4 Fe4 O28'
_cell_volume   550.54892891
_cell_formula_units_Z   4
loop_
 _symmetry_equiv_pos_site_id
 _symmetry_equiv_pos_as_xyz
  1  'x, y, z'
loop_
 _atom_site_type_symbol
 _atom_site_label
 _atom_site_symmetry_multiplicity
 _atom_site_fract_x
 _atom_site_fract_y
 _atom_site_fract_z
 _atom_site_occupancy
  Ca  Ca0  1  0.49477400  0.24907900  0.00290800  1
  Ca  Ca1  1  0.74505000  0.49933300  0.48847900  1
  Ca  Ca2  1  0.49933300  0.74505000  0.98847900  1
  Ca  Ca3  1  0.24907900  0.49477400  0.50290800  1
  Zr  Zr0  1  0.25637700  0.99822900  0.52819900  1
  Zr  Zr1  1  0.01937000  0.73052100  0.97799100  1
  Zr  Zr2  1  0.73052100  0.01937000  0.47799100  1
  Zr  Zr3  1  0.99822900  0.25637700  0.02819900  1
  Nb  Nb0  1  0.12384900  0.87415700  0.25428000  1
  Nb  Nb1  1  0.87415700  0.12384900  0.75428000  1
  Nb  Nb2  1  0.85430100  0.63223400  0.74068600  1
  Nb  Nb3  1  0.63223400  0.85430100  0.24068600  1
  Fe  Fe0  1  0.53477500  0.38389100  0.24477000  1
  Fe  Fe1  1  0.38389100  0.53477500  0.74477000  1
  Fe  Fe2  1  0.36443600  0.13408400  0.76027000  1
  Fe  Fe3  1  0.13408400  0.36443600  0.26027000  1
  O  O0  1  0.44873600  0.17979300  0.21865200  1
  O  O1  1  0.83993500  0.58223200  0.28363300  1
  O  O2  1  0.58223200  0.83993500  0.78363300  1
  O  O3  1  0.17979300  0.44873600  0.71865200  1
  O  O4  1  0.28617700  0.11917800  0.93522900  1
  O  O5  1  0.87556000  0.71476800  0.56865300  1
  O  O6  1  0.71476800  0.87556000  0.06865300  1
  O  O7  1  0.11917800  0.28617700  0.43522900  1
  O  O8  1  0.88163200  0.53590400  0.91660100  1
  O  O9  1  0.45544700  0.11958100  0.58089700  1
  O  O10  1  0.11958100  0.45544700  0.08089700  1
  O  O11  1  0.53590400  0.88163200  0.41660100  1
  O  O12  1  0.56335500  0.23186000  0.78634000  1
  O  O13  1  0.77401500  0.43689100  0.71260000  1
  O  O14  1  0.43689100  0.77401500  0.21260000  1
  O  O15  1  0.23186000  0.56335500  0.28634000  1
  O  O16  1  0.11396000  0.86735200  0.08275300  1
  O  O17  1  0.13201700  0.88690400  0.41785000  1
  O  O18  1  0.88690400  0.13201700  0.91785000  1
  O  O19  1  0.86735200  0.11396000  0.58275300  1
  O  O20  1  0.16288000  0.06801500  0.70729200  1
  O  O21  1  0.94817000  0.83050100  0.79571600  1
  O  O22  1  0.83050100  0.94817000  0.29571600  1
  O  O23  1  0.06801500  0.16288000  0.20729200  1
  O  O24  1  0.60268500  0.33132200  0.40138700  1
  O  O25  1  0.66533600  0.39307300  0.09330500  1
  O  O26  1  0.39307300  0.66533600  0.59330500  1
  O  O27  1  0.33132200  0.60268500  0.90138700  1
loop_
_geom_bond_atom_site_label_1
_geom_bond_atom_site_label_2
_geom_bond_distance
_geom_bond_site_symmetry_2
Ca0 O25 2.461824 1_555
Ca0 O27 2.465777 1_554
Ca0 O0 2.475357 1_555
Ca0 O4 2.480844 1_554
Ca0 O6 2.487354 1_545
Ca0 O12 2.491903 1_554
Ca0 O10 2.519695 1_555
Ca0 O18 2.664063 1_554
Ca1 O24 2.414936 1_555
Ca1 O1 2.439089 1_555
Ca1 O7 2.454723 1_655
Ca1 O26 2.472599 1_555
Ca1 O11 2.543485 1_555
Ca1 O13 2.590226 1_555
Ca1 O5 2.601320 1_555
Ca1 O19 2.643427 1_555
Ca2 O27 2.414936 1_555
Ca2 O2 2.439089 1_555
Ca2 O4 2.454723 1_565
Ca2 O25 2.472599 1_556
Ca2 O8 2.543485 1_555
Ca2 O14 2.590226 1_556
Ca2 O6 2.601320 1_556
Ca2 O16 2.643427 1_556
Ca3 O26 2.461824 1_555
Ca3 O24 2.465777 1_555
Ca3 O3 2.475357 1_555
Ca3 O7 2.480844 1_555
Ca3 O5 2.487354 1_455
Ca3 O15 2.491903 1_555
Ca3 O9 2.519695 1_555
Ca3 O17 2.664063 1_555
Nb0 O17 1.927154 1_555
Nb0 O22 1.967620 1_455
Nb0 O23 1.979092 1_565
Nb0 O16 2.012487 1_555
Nb0 O15 2.030074 1_555
Nb0 O14 2.064249 1_555
Nb1 O18 1.927154 1_555
Nb1 O21 1.967620 1_545
Nb1 O20 1.979092 1_655
Nb1 O19 2.012487 1_555
Nb1 O12 2.030074 1_555
Nb1 O13 2.064249 1_555
Nb2 O2 1.883144 1_555
Nb2 O13 1.922477 1_555
Nb2 O5 1.995858 1_555
Nb2 O8 2.057695 1_555
Nb2 O3 2.104116 1_655
Nb2 O21 2.142953 1_555
Nb3 O1 1.883144 1_555
Nb3 O14 1.922477 1_555
Nb3 O6 1.995858 1_555
Nb3 O11 2.057695 1_555
Nb3 O0 2.104116 1_565
Nb3 O22 2.142953 1_555
Fe0 O25 1.874949 1_555
Fe0 O24 1.891814 1_555
Fe0 O15 1.991131 1_555
Fe0 O0 2.007772 1_555
Fe0 O14 2.602235 1_555
Fe1 O26 1.874949 1_555
Fe1 O27 1.891814 1_555
Fe1 O12 1.991131 1_555
Fe1 O3 2.007772 1_555
Fe1 O13 2.602235 1_555
Fe2 O2 1.978322 1_545
Fe2 O20 2.009246 1_555
Fe2 O4 2.019784 1_555
Fe2 O12 2.035961 1_555
Fe2 O3 2.063505 1_555
Fe2 O9 2.083939 1_555
Fe3 O1 1.978322 1_455
Fe3 O23 2.009246 1_555
Fe3 O7 2.019784 1_555
Fe3 O15 2.035961 1_555
Fe3 O0 2.063505 1_555
Fe3 O10 2.083939 1_555
O4 Zr3 2.058320 1_456
O5 Zr2 2.140053 1_565
O6 Zr1 2.140053 1_654
O7 Zr0 2.058320 1_545
O8 Zr3 2.112083 1_556
O8 Zr1 2.400180 1_655
O9 Zr2 2.039830 1_555
O9 Zr0 2.289260 1_545
O10 Zr1 2.039830 1_554
O10 Zr3 2.289260 1_455
O11 Zr0 2.112083 1_555
O11 Zr2 2.400180 1_565
O16 Zr1 2.104797 1_554
O16 Zr3 2.580616 1_465
O17 Zr0 2.168535 1_555
O17 Zr2 2.652363 1_465
O18 Zr3 2.168535 1_556
O18 Zr1 2.652363 1_645
O19 Zr2 2.104797 1_555
O19 Zr0 2.580616 1_645
O20 Zr0 2.142361 1_545
O21 Zr1 2.182705 1_655
O22 Zr2 2.182705 1_565
O23 Zr3 2.142361 1_455
O24 Zr2 2.122709 1_555
O25 Zr3 2.212217 1_555
O26 Zr0 2.212217 1_555
O27 Zr1 2.122709 1_555
