# generated using pymatgen
data_BaCo2(PO4)2
_symmetry_space_group_name_H-M   'P 1'
_cell_length_a   5.04963000
_cell_length_b   8.25757059
_cell_length_c   9.33705148
_cell_angle_alpha   92.38573963
_cell_angle_beta   90.00389855
_cell_angle_gamma   90.00301903
_symmetry_Int_Tables_number   1
_chemical_formula_structural   BaCo2(PO4)2
_chemical_formula_sum   'Ba2 Co4 P4 O16'
_cell_volume   388.99588214
_cell_formula_units_Z   2
loop_
 _symmetry_equiv_pos_site_id
 _symmetry_equiv_pos_as_xyz
  1  'x, y, z'
loop_
 _atom_site_type_symbol
 _atom_site_label
 _atom_site_symmetry_multiplicity
 _atom_site_fract_x
 _atom_site_fract_y
 _atom_site_fract_z
 _atom_site_occupancy
  Ba  Ba0  1  0.50000100  0.00000000  0.50000100  1
  Ba  Ba1  1  0.00000100  0.99999900  0.00000000  1
  Co  Co0  1  0.06730500  0.35021300  0.70719000  1
  Co  Co1  1  0.93269200  0.64978600  0.29280900  1
  Co  Co2  1  0.56736900  0.64979900  0.79279700  1
  Co  Co3  1  0.43262600  0.35020100  0.20720500  1
  P  P0  1  0.49548300  0.73491900  0.13589100  1
  P  P1  1  0.99547700  0.26507400  0.36412300  1
  P  P2  1  0.50451700  0.26508100  0.86410700  1
  P  P3  1  0.00452300  0.73492700  0.63588000  1
  O  O0  1  0.85148200  0.85694400  0.73434500  1
  O  O1  1  0.35149400  0.14303700  0.76564800  1
  O  O2  1  0.14852400  0.14305800  0.26565200  1
  O  O3  1  0.64850900  0.85696000  0.23435100  1
  O  O4  1  0.55578900  0.77592300  0.97810800  1
  O  O5  1  0.05576600  0.22404500  0.52191500  1
  O  O6  1  0.44420500  0.22408200  0.02189100  1
  O  O7  1  0.94422900  0.77595000  0.47808900  1
  O  O8  1  0.61221300  0.56414400  0.17383400  1
  O  O9  1  0.11225500  0.43586800  0.32622100  1
  O  O10  1  0.38779300  0.43585500  0.82615600  1
  O  O11  1  0.88774800  0.56413600  0.67378900  1
  O  O12  1  0.30796000  0.74096300  0.65539100  1
  O  O13  1  0.80795600  0.25905300  0.84463900  1
  O  O14  1  0.69203600  0.25903700  0.34460500  1
  O  O15  1  0.19204800  0.74094500  0.15536400  1
loop_
_geom_bond_atom_site_label_1
_geom_bond_atom_site_label_2
_geom_bond_distance
_geom_bond_site_symmetry_2
Ba0 O1 2.804652 1_555
Ba0 O3 2.804687 1_545
Ba0 O12 2.806990 1_545
Ba0 O14 2.807010 1_555
Ba0 O7 2.909576 1_545
Ba0 O5 2.909578 1_555
Ba0 O0 3.090006 1_545
Ba0 O2 3.090035 1_555
Ba0 O5 3.362796 1_655
Ba0 O7 3.362848 1_445
Ba1 O2 2.804660 1_565
Ba1 O0 2.804666 1_454
Ba1 O13 2.806968 1_464
Ba1 O15 2.806987 1_555
Ba1 O4 2.909470 1_454
Ba1 O6 2.909475 1_565
Ba1 O3 3.090127 1_455
Ba1 O1 3.090133 1_564
Ba1 O4 3.363211 1_554
Ba1 O6 3.363277 1_465
Co0 O5 1.982773 1_555
Co0 O13 2.002332 1_455
Co0 O11 2.021342 1_455
Co0 O10 2.070570 1_555
Co0 O1 2.315582 1_555
Co1 O7 1.982797 1_555
Co1 O15 2.002327 1_655
Co1 O9 2.021338 1_655
Co1 O8 2.070579 1_555
Co1 O3 2.315551 1_555
Co2 O4 1.982898 1_555
Co2 O12 2.002217 1_555
Co2 O10 2.021398 1_555
Co2 O11 2.070577 1_555
Co2 O0 2.315072 1_555
Co3 O6 1.982901 1_555
Co3 O14 2.002184 1_555
Co3 O8 2.021437 1_555
Co3 O9 2.070595 1_555
Co3 O2 2.315013 1_555
O0 P3 1.542955 1_655
O1 P2 1.542902 1_555
O2 P1 1.542997 1_455
O3 P0 1.542899 1_555
O4 P0 1.555429 1_556
O5 P1 1.555514 1_455
O6 P2 1.555433 1_554
O7 P3 1.555497 1_655
O8 P0 1.582161 1_555
O9 P1 1.582255 1_455
O10 P2 1.582162 1_555
O11 P3 1.582244 1_655
O12 P3 1.543581 1_555
O13 P2 1.543573 1_555
O14 P1 1.543609 1_555
O15 P0 1.543558 1_555
