# generated using pymatgen
data_La4ZnCu2MoO12
_symmetry_space_group_name_H-M   'P 1'
_cell_length_a   7.99721800
_cell_length_b   8.03137893
_cell_length_c   11.68744663
_cell_angle_alpha   100.02664772
_cell_angle_beta   99.90435847
_cell_angle_gamma   119.68790056
_symmetry_Int_Tables_number   1
_chemical_formula_structural   La4ZnCu2MoO12
_chemical_formula_sum   'La8 Zn2 Cu4 Mo2 O24'
_cell_volume   612.21683046
_cell_formula_units_Z   2
loop_
 _symmetry_equiv_pos_site_id
 _symmetry_equiv_pos_as_xyz
  1  'x, y, z'
loop_
 _atom_site_type_symbol
 _atom_site_label
 _atom_site_symmetry_multiplicity
 _atom_site_fract_x
 _atom_site_fract_y
 _atom_site_fract_z
 _atom_site_occupancy
  La  La0  1  0.00000000  0.50000000  0.00000000  1
  La  La1  1  0.25109500  0.75458600  0.50586600  1
  La  La2  1  0.74890500  0.24541400  0.49413400  1
  La  La3  1  0.50000000  0.00000000  0.00000000  1
  La  La4  1  0.75977800  0.75916200  0.49752900  1
  La  La5  1  0.24022200  0.24083800  0.50247100  1
  La  La6  1  0.00000000  0.00000000  0.00000000  1
  La  La7  1  0.50000000  0.50000000  0.00000000  1
  Zn  Zn0  1  0.22484200  0.01183200  0.75315300  1
  Zn  Zn1  1  0.77515800  0.98816800  0.24684700  1
  Cu  Cu0  1  0.22809300  0.57748500  0.74974100  1
  Cu  Cu1  1  0.77190700  0.42251500  0.25025900  1
  Cu  Cu2  1  0.66890400  0.01994800  0.74884400  1
  Cu  Cu3  1  0.33109600  0.98005200  0.25115600  1
  Mo  Mo0  1  0.70880400  0.54005700  0.74609800  1
  Mo  Mo1  1  0.29119600  0.45994300  0.25390200  1
  O  O0  1  0.88082700  0.54733300  0.41703600  1
  O  O1  1  0.11917300  0.45266700  0.58296400  1
  O  O2  1  0.38424200  0.85857400  0.74860300  1
  O  O3  1  0.61575800  0.14142600  0.25139700  1
  O  O4  1  0.44220000  0.40292100  0.74711100  1
  O  O5  1  0.55780000  0.59707900  0.25288900  1
  O  O6  1  0.38104600  0.54653300  0.42911700  1
  O  O7  1  0.61895400  0.45346700  0.57088300  1
  O  O8  1  0.16025900  0.59247800  0.25160500  1
  O  O9  1  0.83974100  0.40752200  0.74839500  1
  O  O10  1  0.14671000  0.19350700  0.25144300  1
  O  O11  1  0.85329000  0.80649300  0.74855700  1
  O  O12  1  0.20646600  0.87441600  0.08441700  1
  O  O13  1  0.79353400  0.12558400  0.91558300  1
  O  O14  1  0.20532400  0.37043200  0.07555100  1
  O  O15  1  0.79467600  0.62956800  0.92444900  1
  O  O16  1  0.71165600  0.37843500  0.08350900  1
  O  O17  1  0.28834400  0.62156500  0.91649100  1
  O  O18  1  0.29199300  0.12964300  0.91927100  1
  O  O19  1  0.70800700  0.87035700  0.08072900  1
  O  O20  1  0.36940100  0.03904800  0.41762200  1
  O  O21  1  0.63059900  0.96095200  0.58237800  1
  O  O22  1  0.12262500  0.96140300  0.58591900  1
  O  O23  1  0.87737500  0.03859700  0.41408100  1
loop_
_geom_bond_atom_site_label_1
_geom_bond_atom_site_label_2
_geom_bond_distance
_geom_bond_site_symmetry_2
La0 O15 2.464249 1_454
La0 O14 2.464249 1_555
La0 O17 2.469649 1_554
La0 O16 2.469649 1_455
La0 O12 2.496099 1_555
La0 O13 2.496099 1_454
La0 O9 2.800275 1_454
La0 O8 2.800275 1_555
La1 O0 2.464775 1_455
La1 O22 2.483925 1_555
La1 O20 2.488647 1_565
La1 O6 2.489099 1_555
La1 O21 2.515026 1_555
La1 O1 2.521624 1_555
La1 O2 2.671073 1_555
La1 O8 2.833174 1_555
La2 O1 2.464775 1_655
La2 O23 2.483925 1_555
La2 O21 2.488647 1_545
La2 O7 2.489099 1_555
La2 O20 2.515026 1_555
La2 O0 2.521624 1_555
La2 O3 2.671073 1_555
La2 O9 2.833174 1_555
La3 O19 2.501864 1_545
La3 O18 2.501864 1_554
La3 O13 2.509823 1_554
La3 O12 2.509823 1_545
La3 O17 2.521531 1_544
La3 O16 2.521531 1_555
La3 O3 2.764187 1_555
La3 O2 2.764187 1_544
La4 O22 2.416914 1_655
La4 O23 2.420606 1_565
La4 O0 2.470598 1_555
La4 O21 2.475557 1_555
La4 O6 2.509428 1_555
La4 O7 2.521372 1_555
La4 O5 2.740647 1_555
La4 O11 2.808323 1_555
La5 O23 2.416914 1_455
La5 O22 2.420606 1_545
La5 O1 2.470598 1_555
La5 O20 2.475557 1_555
La5 O7 2.509428 1_555
La5 O6 2.521372 1_555
La5 O4 2.740647 1_555
La5 O10 2.808323 1_555
La6 O15 2.464652 1_444
La6 O14 2.464652 1_555
La6 O19 2.473622 1_445
La6 O18 2.473622 1_554
La6 O13 2.480477 1_454
La6 O12 2.480477 1_545
La6 O11 2.800956 1_444
La6 O10 2.800956 1_555
La7 O14 2.454127 1_555
La7 O15 2.454127 1_554
La7 O18 2.467084 1_554
La7 O19 2.467084 1_555
La7 O16 2.484230 1_555
La7 O17 2.484230 1_554
La7 O5 2.815649 1_555
La7 O4 2.815649 1_554
Cu0 O17 1.850238 1_555
Cu0 O1 1.852999 1_555
Cu0 O2 1.969701 1_555
Cu1 O16 1.850238 1_555
Cu1 O0 1.852999 1_555
Cu1 O3 1.969701 1_555
Cu2 O13 1.851847 1_555
Cu2 O21 1.853041 1_545
Cu2 O2 1.983977 1_545
Cu3 O12 1.851847 1_555
Cu3 O20 1.853041 1_565
Cu3 O3 1.983977 1_565
Mo0 O9 1.826086 1_555
Mo0 O11 1.852805 1_555
Mo0 O4 1.856384 1_555
Mo0 O7 1.922608 1_555
Mo0 O15 1.957078 1_555
Mo1 O8 1.826086 1_555
Mo1 O10 1.852805 1_555
Mo1 O5 1.856384 1_555
Mo1 O6 1.922608 1_555
Mo1 O14 1.957078 1_555
O2 Zn0 2.167405 1_565
O3 Zn1 2.167405 1_545
O18 Zn0 1.857794 1_555
O19 Zn1 1.857794 1_555
O22 Zn0 1.870627 1_565
O23 Zn1 1.870627 1_545
