# generated using pymatgen
data_Mn3ZnO10
_symmetry_space_group_name_H-M   'P 1'
_cell_length_a   8.02976994
_cell_length_b   8.02976994
_cell_length_c   8.02976970
_cell_angle_alpha   56.90518764
_cell_angle_beta   56.90518764
_cell_angle_gamma   56.90518624
_symmetry_Int_Tables_number   1
_chemical_formula_structural   Mn3ZnO10
_chemical_formula_sum   'Mn6 Zn2 O20'
_cell_volume   339.95890691
_cell_formula_units_Z   2
loop_
 _symmetry_equiv_pos_site_id
 _symmetry_equiv_pos_as_xyz
  1  'x, y, z'
loop_
 _atom_site_type_symbol
 _atom_site_label
 _atom_site_symmetry_multiplicity
 _atom_site_fract_x
 _atom_site_fract_y
 _atom_site_fract_z
 _atom_site_occupancy
  Mn  Mn0  1  0.85865200  0.42402900  0.71695300  1
  Mn  Mn1  1  0.42402900  0.71695300  0.85865200  1
  Mn  Mn2  1  0.71695300  0.85865200  0.42402900  1
  Mn  Mn3  1  0.14134800  0.57597100  0.28304700  1
  Mn  Mn4  1  0.57597100  0.28304700  0.14134800  1
  Mn  Mn5  1  0.28304700  0.14134800  0.57597100  1
  Zn  Zn0  1  0.10619200  0.10619200  0.10619200  1
  Zn  Zn1  1  0.89380800  0.89380800  0.89380800  1
  O  O0  1  0.14389900  0.42684900  0.57494800  1
  O  O1  1  0.42684900  0.57494800  0.14389900  1
  O  O2  1  0.57494800  0.14389900  0.42684900  1
  O  O3  1  0.85610100  0.57315100  0.42505200  1
  O  O4  1  0.57315100  0.42505200  0.85610100  1
  O  O5  1  0.42505200  0.85610100  0.57315100  1
  O  O6  1  0.00070300  0.84942600  0.30655000  1
  O  O7  1  0.84942600  0.30655000  0.00070300  1
  O  O8  1  0.30655000  0.00070300  0.84942600  1
  O  O9  1  0.99929700  0.15057400  0.69345000  1
  O  O10  1  0.15057400  0.69345000  0.99929700  1
  O  O11  1  0.69345000  0.99929700  0.15057400  1
  O  O12  1  0.71401500  0.71401500  0.71401500  1
  O  O13  1  0.28598500  0.28598500  0.28598500  1
  O  O14  1  0.92641400  0.22802300  0.33908500  1
  O  O15  1  0.22802300  0.33908500  0.92641400  1
  O  O16  1  0.33908500  0.92641400  0.22802300  1
  O  O17  1  0.07358600  0.77197700  0.66091500  1
  O  O18  1  0.77197700  0.66091500  0.07358600  1
  O  O19  1  0.66091500  0.07358600  0.77197700  1
loop_
_geom_bond_atom_site_label_1
_geom_bond_atom_site_label_2
_geom_bond_distance
_geom_bond_site_symmetry_2
Mn0 O7 1.905647 1_556
Mn0 O9 1.908982 1_555
Mn0 O4 1.922567 1_555
Mn0 O0 1.929571 1_655
Mn0 O12 1.946294 1_555
Mn0 O3 1.971992 1_555
Mn1 O8 1.905647 1_565
Mn1 O10 1.908982 1_555
Mn1 O5 1.922567 1_555
Mn1 O1 1.929571 1_556
Mn1 O12 1.946294 1_555
Mn1 O4 1.971992 1_555
Mn2 O6 1.905647 1_655
Mn2 O11 1.908982 1_555
Mn2 O3 1.922567 1_555
Mn2 O2 1.929571 1_565
Mn2 O12 1.946294 1_555
Mn2 O5 1.971992 1_555
Mn3 O10 1.905647 1_554
Mn3 O6 1.908982 1_555
Mn3 O1 1.922567 1_555
Mn3 O3 1.929571 1_455
Mn3 O13 1.946294 1_555
Mn3 O0 1.971992 1_555
Mn4 O11 1.905647 1_545
Mn4 O7 1.908982 1_555
Mn4 O2 1.922567 1_555
Mn4 O4 1.929571 1_554
Mn4 O13 1.946294 1_555
Mn4 O1 1.971992 1_555
Mn5 O9 1.905647 1_455
Mn5 O8 1.908982 1_555
Mn5 O0 1.922567 1_555
Mn5 O5 1.929571 1_545
Mn5 O13 1.946294 1_555
Mn5 O2 1.971992 1_555
O6 Zn0 2.086465 1_565
O7 Zn0 2.086465 1_655
O8 Zn0 2.086465 1_556
O9 Zn1 2.086465 1_545
O10 Zn1 2.086465 1_455
O11 Zn1 2.086465 1_554
O14 Zn0 2.011383 1_655
O15 Zn0 2.011383 1_556
O16 Zn0 2.011383 1_565
O17 Zn1 2.011383 1_455
O18 Zn1 2.011383 1_554
O19 Zn1 2.011383 1_545
