# generated using pymatgen
data_Te2MoW2(SeS)2
_symmetry_space_group_name_H-M   'P 1'
_cell_length_a   3.34871316
_cell_length_b   3.34871316
_cell_length_c   31.06646300
_cell_angle_alpha   90.00000000
_cell_angle_beta   90.00000000
_cell_angle_gamma   120.00002289
_symmetry_Int_Tables_number   1
_chemical_formula_structural   Te2MoW2(SeS)2
_chemical_formula_sum   'Te2 Mo1 W2 Se2 S2'
_cell_volume   301.70203491
_cell_formula_units_Z   1
loop_
 _symmetry_equiv_pos_site_id
 _symmetry_equiv_pos_as_xyz
  1  'x, y, z'
loop_
 _atom_site_type_symbol
 _atom_site_label
 _atom_site_symmetry_multiplicity
 _atom_site_fract_x
 _atom_site_fract_y
 _atom_site_fract_z
 _atom_site_occupancy
  Te  Te0  1  0.00000000  0.00000000  0.40831600  1
  Te  Te1  1  0.00000000  0.00000000  0.28569400  1
  Mo  Mo0  1  0.00000000  0.00000000  0.11557800  1
  W  W0  1  0.00000000  0.00000000  0.57835300  1
  W  W1  1  0.33333300  0.66666700  0.34701100  1
  Se  Se0  1  0.33333300  0.66666700  0.06200900  1
  Se  Se1  1  0.33333300  0.66666700  0.16919800  1
  S  S0  1  0.33333300  0.66666700  0.52939600  1
  S  S1  1  0.33333300  0.66666700  0.62728700  1
loop_
_geom_bond_atom_site_label_1
_geom_bond_atom_site_label_2
_geom_bond_distance
_geom_bond_site_symmetry_2
Te0 W1 2.713888 1_545
Te0 W1 2.713889 1_555
Te0 W1 2.713889 1_445
Te1 W1 2.714149 1_545
Te1 W1 2.714151 1_445
Te1 W1 2.714151 1_555
Mo0 Se0 2.550983 1_545
Mo0 Se0 2.550984 1_445
Mo0 Se0 2.550984 1_555
Mo0 Se1 2.552017 1_545
Mo0 Se1 2.552018 1_445
Mo0 Se1 2.552018 1_555
S0 W0 2.459909 1_565
S0 W0 2.459911 1_555
S0 W0 2.459911 1_665
S1 W0 2.459468 1_565
S1 W0 2.459469 1_555
S1 W0 2.459469 1_665
