# generated using pymatgen
data_Li3MnCoO5
_symmetry_space_group_name_H-M   'P 1'
_cell_length_a   2.90327000
_cell_length_b   5.06864858
_cell_length_c   12.80924704
_cell_angle_alpha   78.61569784
_cell_angle_beta   84.96774439
_cell_angle_gamma   74.96524929
_symmetry_Int_Tables_number   1
_chemical_formula_structural   Li3MnCoO5
_chemical_formula_sum   'Li6 Mn2 Co2 O10'
_cell_volume   178.32955259
_cell_formula_units_Z   2
loop_
 _symmetry_equiv_pos_site_id
 _symmetry_equiv_pos_as_xyz
  1  'x, y, z'
loop_
 _atom_site_type_symbol
 _atom_site_label
 _atom_site_symmetry_multiplicity
 _atom_site_fract_x
 _atom_site_fract_y
 _atom_site_fract_z
 _atom_site_occupancy
  Li  Li0  1  0.90404600  0.49390900  0.70086000  1
  Li  Li1  1  0.50000000  0.50000000  0.50000000  1
  Li  Li2  1  0.09595400  0.50609100  0.29914000  1
  Li  Li3  1  0.71689400  0.50441300  0.08874700  1
  Li  Li4  1  0.28310600  0.49558700  0.91125300  1
  Li  Li5  1  0.00000000  0.00000000  0.00000000  1
  Mn  Mn0  1  0.59695500  0.98919500  0.80793000  1
  Mn  Mn1  1  0.40304500  0.01080500  0.19207000  1
  Co  Co0  1  0.19249300  0.00212500  0.60043300  1
  Co  Co1  1  0.80750700  0.99787500  0.39956700  1
  O  O0  1  0.22037700  0.77637000  0.75184200  1
  O  O1  1  0.85096400  0.76901200  0.55160200  1
  O  O2  1  0.45958300  0.77550600  0.34712900  1
  O  O3  1  0.02435700  0.78132900  0.15702400  1
  O  O4  1  0.65044900  0.76077000  0.93680500  1
  O  O5  1  0.54041700  0.22449400  0.65287100  1
  O  O6  1  0.14903600  0.23098800  0.44839800  1
  O  O7  1  0.77962300  0.22363000  0.24815800  1
  O  O8  1  0.34955100  0.23923000  0.06319500  1
  O  O9  1  0.97564300  0.21867100  0.84297600  1
loop_
_geom_bond_atom_site_label_1
_geom_bond_atom_site_label_2
_geom_bond_distance
_geom_bond_site_symmetry_2
Li0 O9 2.053454 1_555
Li0 O0 2.115689 1_655
Li0 O5 2.116439 1_655
Li0 O1 2.123947 1_555
Li0 O5 2.133154 1_555
Li0 O0 2.254624 1_555
Li1 O1 2.128172 1_555
Li1 O6 2.128172 1_555
Li1 O1 2.156640 1_455
Li1 O6 2.156640 1_655
Li1 O5 2.161947 1_555
Li1 O2 2.161947 1_555
Li2 O3 2.053454 1_555
Li2 O7 2.115689 1_455
Li2 O2 2.116439 1_455
Li2 O6 2.123947 1_555
Li2 O2 2.133154 1_555
Li2 O7 2.254624 1_555
Li3 O8 2.007442 1_555
Li3 O8 2.018631 1_655
Li3 O4 2.109739 1_554
Li3 O3 2.191657 1_655
Li3 O7 2.238673 1_555
Li3 O3 2.342977 1_555
Li4 O4 2.007442 1_555
Li4 O4 2.018631 1_455
Li4 O8 2.109739 1_556
Li4 O9 2.191657 1_455
Li4 O0 2.238673 1_555
Li4 O9 2.342977 1_555
Li5 O8 2.079793 1_555
Li5 O4 2.079793 1_444
Li5 O9 2.093620 1_454
Li5 O3 2.093620 1_545
Li5 O4 2.150134 1_544
Li5 O8 2.150134 1_455
Mn0 O4 1.812981 1_555
Mn0 O9 1.928554 1_565
Mn0 O9 1.945195 1_465
Mn0 O0 1.982622 1_555
Mn0 O0 2.005160 1_655
Mn0 O5 2.101135 1_565
Mn1 O8 1.812981 1_555
Mn1 O3 1.928554 1_545
Mn1 O3 1.945195 1_645
Mn1 O7 1.982622 1_555
Mn1 O7 2.005160 1_455
Mn1 O2 2.101135 1_545
Co0 O5 1.936610 1_555
Co0 O1 1.943941 1_445
Co0 O0 2.044676 1_545
Co0 O6 2.056572 1_555
Co0 O5 2.067446 1_455
Co0 O1 2.086168 1_545
Co1 O2 1.936610 1_555
Co1 O6 1.943941 1_665
Co1 O7 2.044676 1_565
Co1 O1 2.056572 1_555
Co1 O2 2.067446 1_655
Co1 O6 2.086168 1_565
