# generated using pymatgen
data_Li2FeCSO7
_symmetry_space_group_name_H-M   'P 1'
_cell_length_a   8.14473777
_cell_length_b   8.14423473
_cell_length_c   9.86212840
_cell_angle_alpha   103.60407578
_cell_angle_beta   103.57295354
_cell_angle_gamma   104.57619037
_symmetry_Int_Tables_number   1
_chemical_formula_structural   Li2FeCSO7
_chemical_formula_sum   'Li8 Fe4 C4 S4 O28'
_cell_volume   584.56090567
_cell_formula_units_Z   4
loop_
 _symmetry_equiv_pos_site_id
 _symmetry_equiv_pos_as_xyz
  1  'x, y, z'
loop_
 _atom_site_type_symbol
 _atom_site_label
 _atom_site_symmetry_multiplicity
 _atom_site_fract_x
 _atom_site_fract_y
 _atom_site_fract_z
 _atom_site_occupancy
  Li  Li0  1  0.45149600  0.93532900  0.17342100  1
  Li  Li1  1  0.95145600  0.43560200  0.17414400  1
  Li  Li2  1  0.68513100  0.70175700  0.17432700  1
  Li  Li3  1  0.18468400  0.20124200  0.17272200  1
  Li  Li4  1  0.04832500  0.56471400  0.82631400  1
  Li  Li5  1  0.54853500  0.06457500  0.82599000  1
  Li  Li6  1  0.81460300  0.79819300  0.82554000  1
  Li  Li7  1  0.31501400  0.29871600  0.82706900  1
  Fe  Fe0  1  0.43621600  0.68645700  0.35482700  1
  Fe  Fe1  1  0.06362400  0.81361700  0.64514900  1
  Fe  Fe2  1  0.93656400  0.18648300  0.35421300  1
  Fe  Fe3  1  0.56358000  0.31335300  0.64603500  1
  C  C0  1  0.77605300  0.02601100  0.07285800  1
  C  C1  1  0.27609500  0.52640100  0.07356400  1
  C  C2  1  0.72388900  0.47404200  0.92721000  1
  C  C3  1  0.22378200  0.97366300  0.92631100  1
  S  S0  1  0.70648200  0.45613700  0.40920500  1
  S  S1  1  0.20635900  0.95672800  0.40869100  1
  S  S2  1  0.79358700  0.04386600  0.59090700  1
  S  S3  1  0.29383600  0.54319600  0.59130900  1
  O  O0  1  0.30471000  0.05467800  0.06327600  1
  O  O1  1  0.80479000  0.55532500  0.06410700  1
  O  O2  1  0.19507300  0.44541800  0.93658100  1
  O  O3  1  0.69513800  0.94477700  0.93592100  1
  O  O4  1  0.91824800  0.16826200  0.11977900  1
  O  O5  1  0.41840500  0.66843800  0.12055100  1
  O  O6  1  0.58175600  0.33174700  0.88033200  1
  O  O7  1  0.08152700  0.83156300  0.87931100  1
  O  O8  1  0.72090700  0.97124500  0.17507800  1
  O  O9  1  0.22087600  0.47129300  0.17561400  1
  O  O10  1  0.77897800  0.52878600  0.82494100  1
  O  O11  1  0.27902300  0.02877400  0.82426700  1
  O  O12  1  0.67212100  0.92197100  0.44612300  1
  O  O13  1  0.17243000  0.42195200  0.44630800  1
  O  O14  1  0.82794200  0.57809500  0.55398100  1
  O  O15  1  0.32765800  0.07799800  0.55368300  1
  O  O16  1  0.56737800  0.31546400  0.43167500  1
  O  O17  1  0.06595800  0.81673500  0.43062700  1
  O  O18  1  0.93279600  0.18447300  0.56848100  1
  O  O19  1  0.43455600  0.68282300  0.56930300  1
  O  O20  1  0.61907600  0.55410300  0.32035500  1
  O  O21  1  0.12031500  0.05547300  0.31979000  1
  O  O22  1  0.80537300  0.37043200  0.32016300  1
  O  O23  1  0.30504400  0.87016900  0.31998100  1
  O  O24  1  0.69479700  0.12962500  0.68001600  1
  O  O25  1  0.19539100  0.63017800  0.67997500  1
  O  O26  1  0.88086400  0.94581100  0.67973000  1
  O  O27  1  0.37955600  0.44430800  0.68024500  1
loop_
_geom_bond_atom_site_label_1
_geom_bond_atom_site_label_2
_geom_bond_distance
_geom_bond_site_symmetry_2
Li0 O0 2.006520 1_565
Li0 O5 2.043322 1_555
Li0 O8 2.135078 1_555
Li0 O23 2.155234 1_555
Li1 O1 2.007715 1_555
Li1 O4 2.046347 1_555
Li1 O9 2.135868 1_655
Li1 O22 2.148726 1_555
Li2 O1 2.006507 1_555
Li2 O5 2.041836 1_555
Li2 O8 2.138092 1_555
Li2 O20 2.159226 1_555
Li3 O0 2.005497 1_555
Li3 O4 2.040275 1_455
Li3 O9 2.136612 1_555
Li3 O21 2.154429 1_555
Li4 O2 2.006629 1_555
Li4 O7 2.042781 1_555
Li4 O10 2.135296 1_455
Li4 O25 2.157268 1_555
Li5 O3 2.007340 1_545
Li5 O6 2.045005 1_555
Li5 O11 2.135837 1_555
Li5 O24 2.149033 1_555
Li6 O3 2.006852 1_555
Li6 O7 2.043319 1_655
Li6 O10 2.137994 1_555
Li6 O26 2.157640 1_555
Li7 O2 2.005967 1_555
Li7 O6 2.042535 1_555
Li7 O11 2.136167 1_555
Li7 O27 2.151796 1_555
Fe0 O20 2.090207 1_555
Fe0 O23 2.090983 1_555
Fe0 O19 2.125502 1_555
Fe0 O12 2.168421 1_555
Fe0 O9 2.193565 1_555
Fe0 O5 2.247948 1_555
Fe1 O26 2.088859 1_455
Fe1 O25 2.092146 1_555
Fe1 O17 2.126232 1_555
Fe1 O14 2.167431 1_455
Fe1 O11 2.193336 1_565
Fe1 O7 2.246797 1_555
Fe2 O21 2.089337 1_655
Fe2 O22 2.091132 1_555
Fe2 O18 2.124388 1_555
Fe2 O13 2.168043 1_655
Fe2 O8 2.194539 1_545
Fe2 O4 2.248394 1_555
Fe3 O24 2.089540 1_555
Fe3 O27 2.090567 1_555
Fe3 O16 2.125551 1_555
Fe3 O15 2.167788 1_555
Fe3 O10 2.193354 1_555
Fe3 O6 2.246995 1_555
C0 O3 1.279975 1_544
C0 O4 1.310925 1_555
C0 O8 1.319154 1_545
C1 O2 1.280182 1_554
C1 O5 1.310420 1_555
C1 O9 1.319071 1_555
C2 O1 1.279695 1_556
C2 O6 1.310867 1_555
C2 O10 1.319321 1_555
C3 O0 1.279968 1_566
C3 O7 1.310449 1_555
C3 O11 1.319104 1_565
O12 S2 1.476110 1_565
O13 S3 1.475919 1_555
O14 S0 1.476187 1_555
O15 S1 1.475680 1_545
O16 S0 1.493061 1_555
O17 S1 1.493412 1_555
O18 S2 1.493026 1_555
O19 S3 1.493542 1_555
O20 S0 1.494381 1_555
O21 S1 1.494501 1_545
O22 S0 1.494553 1_555
O23 S1 1.494496 1_555
O24 S2 1.494503 1_555
O25 S3 1.494305 1_555
O26 S2 1.494298 1_565
O27 S3 1.494406 1_555
