# generated using pymatgen
data_TbUTe3
_symmetry_space_group_name_H-M   'P 1'
_cell_length_a   4.37029432
_cell_length_b   11.88585301
_cell_length_c   12.14881601
_cell_angle_alpha   89.96430316
_cell_angle_beta   90.00000000
_cell_angle_gamma   90.00000000
_symmetry_Int_Tables_number   1
_chemical_formula_structural   TbUTe3
_chemical_formula_sum   'Tb4 U4 Te12'
_cell_volume   631.06618751
_cell_formula_units_Z   4
loop_
 _symmetry_equiv_pos_site_id
 _symmetry_equiv_pos_as_xyz
  1  'x, y, z'
loop_
 _atom_site_type_symbol
 _atom_site_label
 _atom_site_symmetry_multiplicity
 _atom_site_fract_x
 _atom_site_fract_y
 _atom_site_fract_z
 _atom_site_occupancy
  Tb  Tb0  1  0.25000000  0.18680879  0.48558771  1
  Tb  Tb1  1  0.25000000  0.31191945  0.98533733  1
  Tb  Tb2  1  0.75000000  0.81290799  0.51597107  1
  Tb  Tb3  1  0.75000000  0.68733409  0.01518499  1
  U  U0  1  0.75000000  0.50269740  0.69569778  1
  U  U1  1  0.75000000  -0.00324003  0.19515709  1
  U  U2  1  0.25000000  0.49680602  0.30445562  1
  U  U3  1  0.25000000  0.00349565  0.80195369  1
  Te  Te0  1  0.25000000  0.62768784  0.54251646  1
  Te  Te1  1  0.25000000  0.87190288  0.04176416  1
  Te  Te2  1  0.75000000  0.37211411  0.45790012  1
  Te  Te3  1  0.75000000  0.12815656  0.95662369  1
  Te  Te4  1  0.25000000  0.30071739  0.72723493  1
  Te  Te5  1  0.25000000  0.19870898  0.22686406  1
  Te  Te6  1  0.75000000  0.69909656  0.27360284  1
  Te  Te7  1  0.75000000  0.80235720  0.77376400  1
  Te  Te8  1  0.75000000  0.05583810  0.61550669  1
  Te  Te9  1  0.75000000  0.44499097  0.11564916  1
  Te  Te10  1  0.25000000  0.94460913  0.38474351  1
  Te  Te11  1  0.25000000  0.55508991  0.88448513  1
loop_
_geom_bond_atom_site_label_1
_geom_bond_atom_site_label_2
_geom_bond_distance
_geom_bond_site_symmetry_2
Tb0 Te8 3.112289 1_555
Tb0 Te8 3.112289 1_455
Tb0 Te2 3.120601 1_555
Tb0 Te2 3.120601 1_455
Tb0 Te10 3.129306 1_545
Tb0 Te5 3.146279 1_555
Tb0 Te4 3.233651 1_555
Tb1 Te3 3.109363 1_555
Tb1 Te3 3.109363 1_455
Tb1 Te9 3.128255 1_456
Tb1 Te9 3.128255 1_556
Tb1 Te4 3.138547 1_555
Tb1 Te11 3.138559 1_555
Tb1 Te5 3.227326 1_556
Tb2 Te0 3.118427 1_655
Tb2 Te0 3.118427 1_555
Tb2 Te10 3.124714 1_655
Tb2 Te10 3.124714 1_555
Tb2 Te8 3.131114 1_565
Tb2 Te7 3.134311 1_555
Tb2 Te6 3.241125 1_555
Tb3 Te1 3.113293 1_655
Tb3 Te1 3.113293 1_555
Tb3 Te11 3.125685 1_554
Tb3 Te11 3.125685 1_654
Tb3 Te9 3.127668 1_555
Tb3 Te6 3.142669 1_555
Tb3 Te7 3.235191 1_554
Te0 U0 3.231362 1_555
Te0 U0 3.231362 1_455
Te0 U2 3.284844 1_555
Te1 U1 3.233181 1_465
Te1 U1 3.233181 1_565
Te1 U3 3.305856 1_564
Te2 U2 3.231576 1_555
Te2 U2 3.231576 1_655
Te2 U0 3.280346 1_555
Te3 U3 3.241085 1_555
Te3 U3 3.241085 1_655
Te3 U1 3.291090 1_556
Te4 U0 3.268624 1_555
Te4 U0 3.268624 1_455
Te4 U3 3.646946 1_555
Te5 U1 3.268947 1_555
Te5 U1 3.268947 1_455
Te5 U2 3.666956 1_555
Te6 U2 3.270376 1_655
Te6 U2 3.270376 1_555
Te6 U1 3.663520 1_565
Te7 U3 3.257089 1_565
Te7 U3 3.257089 1_665
Te7 U0 3.686392 1_555
Te8 U3 3.207941 1_655
Te8 U3 3.207941 1_555
Te9 U2 3.227588 1_555
Te9 U2 3.227588 1_655
Te10 U1 3.234544 1_465
Te10 U1 3.234544 1_565
Te11 U0 3.228743 1_555
Te11 U0 3.228743 1_455
