# generated using pymatgen
data_Ba4Ge2Pb(Se4Br)2
_symmetry_space_group_name_H-M   'P 1'
_cell_length_a   9.19744500
_cell_length_b   9.65670400
_cell_length_c   12.62917600
_cell_angle_alpha   90.00000000
_cell_angle_beta   90.00000000
_cell_angle_gamma   90.00000000
_symmetry_Int_Tables_number   1
_chemical_formula_structural   Ba4Ge2Pb(Se4Br)2
_chemical_formula_sum   'Ba8 Ge4 Pb2 Se16 Br4'
_cell_volume   1121.68557431
_cell_formula_units_Z   2
loop_
 _symmetry_equiv_pos_site_id
 _symmetry_equiv_pos_as_xyz
  1  'x, y, z'
loop_
 _atom_site_type_symbol
 _atom_site_label
 _atom_site_symmetry_multiplicity
 _atom_site_fract_x
 _atom_site_fract_y
 _atom_site_fract_z
 _atom_site_occupancy
  Ba  Ba0  1  0.39518600  0.75974600  0.07975500  1
  Ba  Ba1  1  0.10062100  0.24346300  0.57268000  1
  Ba  Ba2  1  0.60062100  0.25653700  0.42732000  1
  Ba  Ba3  1  0.89518600  0.74025400  0.92024500  1
  Ba  Ba4  1  0.60062100  0.74346300  0.42732000  1
  Ba  Ba5  1  0.89518600  0.25974600  0.92024500  1
  Ba  Ba6  1  0.39518600  0.24025400  0.07975500  1
  Ba  Ba7  1  0.10062100  0.75653700  0.57268000  1
  Ge  Ge0  1  0.69052300  0.50000000  0.14829200  1
  Ge  Ge1  1  0.80451500  0.50000000  0.65827400  1
  Ge  Ge2  1  0.30451500  0.00000000  0.34172600  1
  Ge  Ge3  1  0.19052300  0.00000000  0.85170800  1
  Pb  Pb0  1  0.04398700  0.50000000  0.25284900  1
  Pb  Pb1  1  0.54398700  0.00000000  0.74715100  1
  Se  Se0  1  0.62724100  0.50000000  0.96554900  1
  Se  Se1  1  0.87070600  0.50000000  0.46893900  1
  Se  Se2  1  0.37070600  0.00000000  0.53106100  1
  Se  Se3  1  0.12724100  0.00000000  0.03445100  1
  Se  Se4  1  0.47334400  0.50000000  0.25024100  1
  Se  Se5  1  0.02897300  0.50000000  0.75303000  1
  Se  Se6  1  0.52897300  0.00000000  0.24697000  1
  Se  Se7  1  0.97334400  0.00000000  0.74975900  1
  Se  Se8  1  0.82749100  0.70305900  0.18972200  1
  Se  Se9  1  0.69009300  0.28667500  0.68811200  1
  Se  Se10  1  0.19009300  0.21332500  0.31188800  1
  Se  Se11  1  0.32749100  0.79694100  0.81027800  1
  Se  Se12  1  0.19009300  0.78667500  0.31188800  1
  Se  Se13  1  0.32749100  0.20305900  0.81027800  1
  Se  Se14  1  0.82749100  0.29694100  0.18972200  1
  Se  Se15  1  0.69009300  0.71332500  0.68811200  1
  Br  Br0  1  0.14987400  0.50000000  0.02180600  1
  Br  Br1  1  0.34970400  0.50000000  0.52926500  1
  Br  Br2  1  0.84970400  0.00000000  0.47073500  1
  Br  Br3  1  0.64987400  0.00000000  0.97819400  1
loop_
_geom_bond_atom_site_label_1
_geom_bond_atom_site_label_2
_geom_bond_distance
_geom_bond_site_symmetry_2
Ba0 Se6 3.369935 1_565
Ba0 Se4 3.382913 1_555
Ba0 Se3 3.432690 1_565
Ba0 Br0 3.452210 1_555
Ba0 Se11 3.478352 1_554
Ba0 Se12 3.495774 1_555
Ba0 Br3 3.537660 1_564
Ba0 Se0 3.595431 1_554
Ba1 Se10 3.407288 1_555
Ba1 Br1 3.418479 1_555
Ba1 Se5 3.429150 1_555
Ba1 Se7 3.449509 1_455
Ba1 Se2 3.460407 1_555
Ba1 Se1 3.510729 1_455
Ba1 Br2 3.537084 1_455
Ba1 Se13 3.675627 1_555
Ba2 Se9 3.407288 1_555
Ba2 Br2 3.418479 1_555
Ba2 Se6 3.429150 1_555
Ba2 Se4 3.449509 1_555
Ba2 Se1 3.460407 1_555
Ba2 Se2 3.510729 1_555
Ba2 Br1 3.537084 1_555
Ba2 Se14 3.675627 1_555
Ba3 Se5 3.369935 1_655
Ba3 Se7 3.382913 1_565
Ba3 Se0 3.432690 1_555
Ba3 Br3 3.452210 1_565
Ba3 Se8 3.478352 1_556
Ba3 Se15 3.495774 1_555
Ba3 Br0 3.537660 1_656
Ba3 Se3 3.595431 1_666
Ba4 Se15 3.407288 1_555
Ba4 Br2 3.418479 1_565
Ba4 Se6 3.429150 1_565
Ba4 Se4 3.449509 1_555
Ba4 Se1 3.460407 1_555
Ba4 Se2 3.510729 1_565
Ba4 Br1 3.537084 1_555
Ba4 Se8 3.675627 1_555
Ba5 Se5 3.369935 1_655
Ba5 Se7 3.382913 1_555
Ba5 Se0 3.432690 1_555
Ba5 Br3 3.452210 1_555
Ba5 Se14 3.478352 1_556
Ba5 Se9 3.495774 1_555
Ba5 Br0 3.537660 1_656
Ba5 Se3 3.595431 1_656
Ba6 Se6 3.369935 1_555
Ba6 Se4 3.382913 1_555
Ba6 Se3 3.432690 1_555
Ba6 Br0 3.452210 1_555
Ba6 Se13 3.478352 1_554
Ba6 Se10 3.495774 1_555
Ba6 Br3 3.537660 1_554
Ba6 Se0 3.595431 1_554
Ba7 Se12 3.407288 1_555
Ba7 Br1 3.418479 1_555
Ba7 Se5 3.429150 1_555
Ba7 Se7 3.449509 1_465
Ba7 Se2 3.460407 1_565
Ba7 Se1 3.510729 1_455
Ba7 Br2 3.537084 1_465
Ba7 Se11 3.675627 1_555
Ge0 Se4 2.376492 1_555
Ge0 Se0 2.380154 1_554
Ge0 Se14 2.388682 1_555
Ge0 Se8 2.388682 1_555
Ge1 Se15 2.343756 1_555
Ge1 Se9 2.343756 1_555
Ge1 Se5 2.386206 1_655
Ge1 Se1 2.467427 1_555
Ge2 Se10 2.343756 1_555
Ge2 Se12 2.343756 1_545
Ge2 Se6 2.386206 1_555
Ge2 Se2 2.467427 1_555
Ge3 Se7 2.376492 1_455
Ge3 Se3 2.380154 1_556
Ge3 Se13 2.388682 1_555
Ge3 Se11 2.388682 1_545
Pb0 Se14 2.906125 1_455
Pb0 Se8 2.906125 1_455
Pb0 Se1 3.160327 1_455
Pb0 Se12 3.166295 1_555
Pb0 Se10 3.166295 1_555
Pb1 Se13 2.906125 1_555
Pb1 Se11 2.906125 1_545
Pb1 Se2 3.160327 1_555
Pb1 Se9 3.166295 1_555
Pb1 Se15 3.166295 1_545
Br0 Pb0 3.076118 1_555
Br3 Pb1 3.076118 1_555
