# generated using pymatgen
data_Pm3Eu
_symmetry_space_group_name_H-M   'P 1'
_cell_length_a   7.41839070
_cell_length_b   7.41839070
_cell_length_c   5.98893600
_cell_angle_alpha   90.00000000
_cell_angle_beta   90.00000000
_cell_angle_gamma   120.00000622
_symmetry_Int_Tables_number   1
_chemical_formula_structural   Pm3Eu
_chemical_formula_sum   'Pm6 Eu2'
_cell_volume   285.43004164
_cell_formula_units_Z   2
loop_
 _symmetry_equiv_pos_site_id
 _symmetry_equiv_pos_as_xyz
  1  'x, y, z'
loop_
 _atom_site_type_symbol
 _atom_site_label
 _atom_site_symmetry_multiplicity
 _atom_site_fract_x
 _atom_site_fract_y
 _atom_site_fract_z
 _atom_site_occupancy
  Pm  Pm0  1  0.16337800  0.32675600  0.25000000  1
  Pm  Pm1  1  0.67324400  0.83662200  0.25000000  1
  Pm  Pm2  1  0.16337800  0.83662200  0.25000000  1
  Pm  Pm3  1  0.83662200  0.67324400  0.75000000  1
  Pm  Pm4  1  0.32675600  0.16337800  0.75000000  1
  Pm  Pm5  1  0.83662200  0.16337800  0.75000000  1
  Eu  Eu0  1  0.33333300  0.66666700  0.75000000  1
  Eu  Eu1  1  0.66666700  0.33333300  0.25000000  1
loop_
_geom_bond_atom_site_label_1
_geom_bond_atom_site_label_2
_geom_bond_distance
_geom_bond_site_symmetry_2
Pm0 Pm1 3.636005 1_445
Pm0 Pm2 3.636006 1_545
Pm0 Pm5 3.657005 1_454
Pm0 Pm5 3.657005 1_455
Pm0 Pm4 3.657005 1_555
Pm0 Pm4 3.657005 1_554
Pm0 Pm1 3.782385 1_555
Pm0 Pm2 3.782385 1_555
Pm1 Pm2 3.636006 1_655
Pm1 Pm5 3.657005 1_565
Pm1 Pm5 3.657005 1_564
Pm1 Pm3 3.657005 1_555
Pm1 Pm3 3.657005 1_554
Pm1 Pm2 3.782385 1_555
Pm2 Pm4 3.657005 1_565
Pm2 Pm3 3.657005 1_455
Pm2 Pm4 3.657005 1_564
Pm2 Pm3 3.657005 1_454
Pm3 Pm4 3.636005 1_665
Pm3 Pm5 3.636006 1_565
Pm3 Pm4 3.782385 1_555
Pm3 Pm5 3.782385 1_555
Pm4 Pm5 3.636006 1_455
Pm4 Pm5 3.782385 1_555
Eu0 Pm2 3.706161 1_556
Eu0 Pm2 3.706161 1_555
Eu0 Pm0 3.706165 1_555
Eu0 Pm1 3.706165 1_555
Eu0 Pm0 3.706165 1_556
Eu0 Pm1 3.706165 1_556
Eu0 Pm3 3.709432 1_455
Eu0 Pm4 3.709432 1_565
Eu0 Pm5 3.709436 1_455
Eu0 Pm5 3.709436 1_565
Eu0 Pm3 3.709440 1_555
Eu0 Pm4 3.709440 1_555
Eu1 Pm5 3.706161 1_555
Eu1 Pm5 3.706161 1_554
Eu1 Pm3 3.706165 1_555
Eu1 Pm4 3.706165 1_555
Eu1 Pm3 3.706165 1_554
Eu1 Pm4 3.706165 1_554
Eu1 Pm1 3.709432 1_545
Eu1 Pm0 3.709432 1_655
Eu1 Pm2 3.709436 1_655
Eu1 Pm2 3.709436 1_545
Eu1 Pm0 3.709440 1_555
Eu1 Pm1 3.709440 1_555
