# generated using pymatgen
data_Dy(GePt)2
_symmetry_space_group_name_H-M   'P 1'
_cell_length_a   4.24538587
_cell_length_b   4.24538587
_cell_length_c   10.18040805
_cell_angle_alpha   90.00000000
_cell_angle_beta   90.00000000
_cell_angle_gamma   90.00000000
_symmetry_Int_Tables_number   1
_chemical_formula_structural   Dy(GePt)2
_chemical_formula_sum   'Dy2 Ge4 Pt4'
_cell_volume   183.48456047
_cell_formula_units_Z   2
loop_
 _symmetry_equiv_pos_site_id
 _symmetry_equiv_pos_as_xyz
  1  'x, y, z'
loop_
 _atom_site_type_symbol
 _atom_site_label
 _atom_site_symmetry_multiplicity
 _atom_site_fract_x
 _atom_site_fract_y
 _atom_site_fract_z
 _atom_site_occupancy
  Dy  Dy0  1  0.50000000  -0.00000000  0.24834743  1
  Dy  Dy1  1  0.00000000  0.50000000  0.75164745  1
  Ge  Ge0  1  0.50000000  0.00000000  0.86605692  1
  Ge  Ge1  1  0.00000000  0.50000000  0.13393749  1
  Ge  Ge2  1  -0.00000000  -0.00000000  0.50001618  1
  Ge  Ge3  1  0.50000000  0.50000000  0.50001618  1
  Pt  Pt0  1  0.50000000  0.00000000  0.62919719  1
  Pt  Pt1  1  -0.00000000  0.50000000  0.37079549  1
  Pt  Pt2  1  -0.00000000  0.00000000  -0.00000767  1
  Pt  Pt3  1  0.50000000  0.50000000  -0.00000767  1
loop_
_geom_bond_atom_site_label_1
_geom_bond_atom_site_label_2
_geom_bond_distance
_geom_bond_site_symmetry_2
Dy0 Ge1 3.219980 1_555
Dy0 Ge1 3.219980 1_655
Dy0 Ge1 3.219980 1_545
Dy0 Ge1 3.219980 1_645
Dy0 Pt1 3.250475 1_645
Dy0 Pt1 3.250475 1_555
Dy0 Pt1 3.250475 1_655
Dy0 Pt1 3.250475 1_545
Dy0 Pt3 3.301274 1_555
Dy0 Pt3 3.301274 1_545
Dy0 Pt2 3.301274 1_555
Dy0 Pt2 3.301274 1_655
Dy0 Ge2 3.327181 1_655
Dy0 Ge2 3.327181 1_555
Dy0 Ge3 3.327181 1_545
Dy0 Ge3 3.327181 1_555
Dy1 Ge0 3.219978 1_565
Dy1 Ge0 3.219978 1_455
Dy1 Ge0 3.219978 1_465
Dy1 Ge0 3.219978 1_555
Dy1 Pt0 3.250484 1_455
Dy1 Pt0 3.250484 1_465
Dy1 Pt0 3.250484 1_555
Dy1 Pt0 3.250484 1_565
Dy1 Pt2 3.301194 1_556
Dy1 Pt2 3.301194 1_566
Dy1 Pt3 3.301194 1_556
Dy1 Pt3 3.301194 1_456
Dy1 Ge2 3.326887 1_565
Dy1 Ge3 3.326887 1_455
Dy1 Ge3 3.326887 1_555
Dy1 Ge2 3.326887 1_555
Ge0 Pt0 2.411329 1_555
Ge0 Pt2 2.522896 1_556
Ge0 Pt2 2.522896 1_656
Ge0 Pt3 2.522896 1_556
Ge0 Pt3 2.522896 1_546
Ge1 Pt1 2.411311 1_555
Ge1 Pt2 2.522950 1_565
Ge1 Pt3 2.522950 1_555
Ge1 Pt3 2.522950 1_455
Ge1 Pt2 2.522950 1_555
Ge2 Pt0 2.497069 1_455
Ge2 Pt0 2.497069 1_555
Ge2 Pt1 2.497282 1_555
Ge2 Pt1 2.497282 1_545
Ge3 Pt0 2.497069 1_555
Ge3 Pt0 2.497069 1_565
Ge3 Pt1 2.497282 1_555
Ge3 Pt1 2.497282 1_655
