# generated using pymatgen
data_Bi3Sb5Pb4O21
_symmetry_space_group_name_H-M   'P 1'
_cell_length_a   7.43175300
_cell_length_b   7.45923492
_cell_length_c   10.17960154
_cell_angle_alpha   89.69092112
_cell_angle_beta   89.64605582
_cell_angle_gamma   60.55258551
_symmetry_Int_Tables_number   1
_chemical_formula_structural   Bi3Sb5Pb4O21
_chemical_formula_sum   'Bi3 Sb5 Pb4 O21'
_cell_volume   491.39247188
_cell_formula_units_Z   1
loop_
 _symmetry_equiv_pos_site_id
 _symmetry_equiv_pos_as_xyz
  1  'x, y, z'
loop_
 _atom_site_type_symbol
 _atom_site_label
 _atom_site_symmetry_multiplicity
 _atom_site_fract_x
 _atom_site_fract_y
 _atom_site_fract_z
 _atom_site_occupancy
  Bi  Bi0  1  0.13801500  0.71231200  0.35466800  1
  Bi  Bi1  1  0.29756400  0.84977100  0.64342700  1
  Bi  Bi2  1  0.84631500  0.29526600  0.63933300  1
  Sb  Sb0  1  0.33624200  0.33396600  0.70192000  1
  Sb  Sb1  1  0.66930600  0.66288800  0.30248000  1
  Sb  Sb2  1  0.50033600  0.50112900  0.00018200  1
  Sb  Sb3  1  0.00063400  0.49984600  0.99994800  1
  Sb  Sb4  1  0.50040500  0.99861800  0.00050700  1
  Pb  Pb0  1  0.00130100  0.99963500  0.00073000  1
  Pb  Pb1  1  0.16149000  0.17200800  0.33314200  1
  Pb  Pb2  1  0.65737800  0.17313000  0.32916900  1
  Pb  Pb3  1  0.82686900  0.83304900  0.66478300  1
  O  O0  1  0.20561600  0.20084900  0.59588900  1
  O  O1  1  0.60066500  0.20321000  0.59479900  1
  O  O2  1  0.21066200  0.59321900  0.59191100  1
  O  O3  1  0.80326800  0.79359500  0.40683100  1
  O  O4  1  0.41008800  0.78930100  0.41145600  1
  O  O5  1  0.79919900  0.40194500  0.41114300  1
  O  O6  1  0.20268100  0.20219700  0.04422700  1
  O  O7  1  0.59436000  0.20317900  0.04432200  1
  O  O8  1  0.20273100  0.59584500  0.04282200  1
  O  O9  1  0.79822500  0.79713900  0.95651600  1
  O  O10  1  0.40333900  0.79811500  0.95795100  1
  O  O11  1  0.79843700  0.40387400  0.95906600  1
  O  O12  1  0.99697400  0.99937200  0.24398500  1
  O  O13  1  0.00003500  0.00429500  0.75845000  1
  O  O14  1  0.53328900  0.53338500  0.19446000  1
  O  O15  1  0.93373400  0.53377600  0.19374400  1
  O  O16  1  0.53718500  0.92563500  0.19262400  1
  O  O17  1  0.47013300  0.46822000  0.80626700  1
  O  O18  1  0.06984500  0.46597700  0.80739500  1
  O  O19  1  0.46645600  0.06964600  0.80850500  1
  O  O20  1  0.02722400  0.98560800  0.50734700  1
loop_
_geom_bond_atom_site_label_1
_geom_bond_atom_site_label_2
_geom_bond_distance
_geom_bond_site_symmetry_2
Bi0 O12 2.175969 1_455
Bi0 O3 2.311401 1_455
Bi0 O20 2.370084 1_555
Bi0 O4 2.431486 1_555
Bi0 O2 2.536620 1_555
Bi1 O20 2.235994 1_555
Bi1 O13 2.250641 1_565
Bi1 O2 2.363158 1_555
Bi1 O0 2.406239 1_565
Bi1 O4 2.468818 1_555
Bi2 O13 2.244300 1_655
Bi2 O1 2.292608 1_555
Bi2 O5 2.422343 1_555
Bi2 O20 2.430166 1_645
Bi2 O0 2.441604 1_655
O0 Sb0 2.016350 1_555
O0 Pb1 2.719198 1_555
O1 Sb0 2.025470 1_555
O1 Pb3 2.527252 1_545
O1 Pb2 2.727476 1_555
O2 Sb0 2.019837 1_555
O2 Pb3 2.618604 1_455
O3 Sb1 2.012152 1_555
O3 Pb2 2.604556 1_565
O3 Pb3 2.660308 1_555
O4 Sb1 2.007419 1_555
O4 Pb1 2.646896 1_565
O5 Sb1 2.021513 1_555
O5 Pb1 2.503837 1_655
O5 Pb2 2.552514 1_555
O6 Sb4 2.022660 1_545
O6 Sb3 2.026546 1_554
O6 Pb0 2.637748 1_545
O7 Sb4 2.018302 1_545
O7 Sb2 2.023786 1_555
O7 Pb0 2.669135 1_645
O8 Sb3 2.006992 1_554
O8 Sb2 2.008560 1_555
O8 Pb0 2.656530 1_555
O9 Sb4 2.020486 1_556
O9 Sb3 2.023270 1_655
O9 Pb0 2.649329 1_656
O10 Sb4 2.004125 1_556
O10 Sb2 2.008817 1_556
O10 Pb0 2.636544 1_556
O11 Sb3 2.003090 1_655
O11 Sb2 2.005264 1_556
O11 Pb0 2.658800 1_646
O12 Pb1 2.356098 1_665
O12 Pb2 2.360113 1_565
O12 Pb0 2.476252 1_655
O13 Pb3 2.416946 1_445
O13 Pb0 2.466382 1_546
O14 Sb2 2.024379 1_555
O14 Sb1 2.037002 1_555
O14 Pb2 2.737020 1_555
O15 Sb3 2.018068 1_654
O15 Sb1 2.034285 1_555
O15 Pb1 2.767284 1_655
O16 Sb4 2.011107 1_555
O16 Sb1 2.038042 1_555
O16 Pb2 2.793300 1_565
O16 Pb1 2.855333 1_565
O17 Sb2 2.017946 1_556
O17 Sb0 2.031154 1_555
O18 Sb3 2.008868 1_555
O18 Sb0 2.027398 1_555
O18 Pb3 2.827252 1_455
O19 Sb4 2.006971 1_546
O19 Sb0 2.028514 1_555
O19 Pb3 2.785854 1_545
O20 Pb1 2.718325 1_565
O20 Pb3 2.774419 1_455
