# generated using pymatgen
data_CaCu3(MoO3)4
_symmetry_space_group_name_H-M   'P 1'
_cell_length_a   6.64394174
_cell_length_b   6.64823934
_cell_length_c   6.67614229
_cell_angle_alpha   109.56256668
_cell_angle_beta   109.53785085
_cell_angle_gamma   109.39010147
_symmetry_Int_Tables_number   1
_chemical_formula_structural   CaCu3(MoO3)4
_chemical_formula_sum   'Ca1 Cu3 Mo4 O12'
_cell_volume   226.78935771
_cell_formula_units_Z   1
loop_
 _symmetry_equiv_pos_site_id
 _symmetry_equiv_pos_as_xyz
  1  'x, y, z'
loop_
 _atom_site_type_symbol
 _atom_site_label
 _atom_site_symmetry_multiplicity
 _atom_site_fract_x
 _atom_site_fract_y
 _atom_site_fract_z
 _atom_site_occupancy
  Ca  Ca0  1  0.00000000  0.00000000  0.00000100  1
  Cu  Cu0  1  0.49999900  0.50000000  0.00000000  1
  Cu  Cu1  1  0.99999900  0.50000100  0.49999900  1
  Cu  Cu2  1  0.50000000  0.00000100  0.50000000  1
  Mo  Mo0  1  0.00000000  0.00000000  0.50000000  1
  Mo  Mo1  1  0.00000000  0.50000000  0.00000000  1
  Mo  Mo2  1  0.50000000  0.50000000  0.50000000  1
  Mo  Mo3  1  0.50000000  0.00000000  0.00000000  1
  O  O0  1  0.82401300  0.29958500  0.13372800  1
  O  O1  1  0.17598800  0.70041500  0.86627200  1
  O  O2  1  0.82957100  0.69610200  0.52512200  1
  O  O3  1  0.29935600  0.47508100  0.16591100  1
  O  O4  1  0.47700000  0.17675700  0.31046200  1
  O  O5  1  0.13359000  0.82961000  0.30377500  1
  O  O6  1  0.69545200  0.86617700  0.17072200  1
  O  O7  1  0.52300000  0.82324300  0.68953800  1
  O  O8  1  0.17042900  0.30389700  0.47487800  1
  O  O9  1  0.70064400  0.52491800  0.83408900  1
  O  O10  1  0.86640900  0.17039000  0.69622500  1
  O  O11  1  0.30454800  0.13382300  0.82927800  1
loop_
_geom_bond_atom_site_label_1
_geom_bond_atom_site_label_2
_geom_bond_distance
_geom_bond_site_symmetry_2
Ca0 O3 2.677874 1_555
Ca0 O9 2.677876 1_444
Ca0 O0 2.680459 1_455
Ca0 O1 2.680467 1_544
Ca0 O5 2.680680 1_545
Ca0 O10 2.680692 1_454
Ca0 O8 2.684323 1_555
Ca0 O2 2.684335 1_444
Ca0 O6 2.685329 1_445
Ca0 O11 2.685340 1_554
Ca0 O4 2.687578 1_555
Ca0 O7 2.687581 1_444
Cu0 O11 1.991143 1_554
Cu0 O6 1.991143 1_555
Cu0 O3 1.998807 1_555
Cu0 O9 1.998817 1_554
Cu1 O2 1.992679 1_555
Cu1 O8 1.992706 1_655
Cu1 O0 1.998290 1_555
Cu1 O1 1.998299 1_655
Cu2 O10 1.991921 1_555
Cu2 O5 1.991925 1_545
Cu2 O4 1.997780 1_555
Cu2 O7 1.997791 1_545
Mo0 O8 2.055997 1_555
Mo0 O2 2.056002 1_445
Mo0 O11 2.058653 1_555
Mo0 O6 2.058653 1_445
Mo0 O5 2.058805 1_545
Mo0 O10 2.058810 1_455
Mo1 O9 2.019460 1_454
Mo1 O3 2.019464 1_555
Mo1 O10 2.056976 1_454
Mo1 O5 2.056978 1_555
Mo1 O0 2.097593 1_455
Mo1 O1 2.097596 1_554
Mo2 O7 2.018491 1_555
Mo2 O4 2.018491 1_555
Mo2 O2 2.057870 1_555
Mo2 O8 2.057872 1_555
Mo2 O3 2.096783 1_555
Mo2 O9 2.096786 1_555
Mo3 O1 2.018649 1_544
Mo3 O0 2.018653 1_555
Mo3 O6 2.057460 1_545
Mo3 O11 2.057460 1_554
Mo3 O4 2.097686 1_555
Mo3 O7 2.097686 1_544
