# generated using pymatgen
data_ZrAl5Cu7
_symmetry_space_group_name_H-M   'P 1'
_cell_length_a   4.86982992
_cell_length_b   6.47721208
_cell_length_c   6.47721186
_cell_angle_alpha   98.42852792
_cell_angle_beta   112.04959406
_cell_angle_gamma   67.95040880
_symmetry_Int_Tables_number   1
_chemical_formula_structural   ZrAl5Cu7
_chemical_formula_sum   'Zr1 Al5 Cu7'
_cell_volume   175.51257259
_cell_formula_units_Z   1
loop_
 _symmetry_equiv_pos_site_id
 _symmetry_equiv_pos_as_xyz
  1  'x, y, z'
loop_
 _atom_site_type_symbol
 _atom_site_label
 _atom_site_symmetry_multiplicity
 _atom_site_fract_x
 _atom_site_fract_y
 _atom_site_fract_z
 _atom_site_occupancy
  Zr  Zr0  1  0.99618266  0.00407191  0.99592806  1
  Al  Al0  1  0.65735875  0.34288318  0.65711693  1
  Al  Al1  1  0.34736504  0.65206163  0.34793845  1
  Al  Al2  1  0.00541443  0.33795266  0.34898840  1
  Al  Al3  1  0.00541440  0.65101167  0.66204748  1
  Al  Al4  1  0.69531188  0.80447784  0.19552202  1
  Cu  Cu0  1  0.50278853  0.99612136  0.50000095  1
  Cu  Cu1  1  0.00127835  0.99635590  0.49964969  1
  Cu  Cu2  1  0.50278865  0.49999953  0.00387835  1
  Cu  Cu3  1  0.00127764  0.50035048  0.00364358  1
  Cu  Cu4  1  0.28905475  0.21166269  0.78833716  1
  Cu  Cu5  1  0.49788232  0.77795248  0.77490136  1
  Cu  Cu6  1  0.49788260  0.22509867  0.22204757  1
loop_
_geom_bond_atom_site_label_1
_geom_bond_atom_site_label_2
_geom_bond_distance
_geom_bond_site_symmetry_2
Al0 Cu2 2.582858 1_556
Al0 Cu0 2.582860 1_545
Al0 Cu3 2.583067 1_656
Al0 Cu1 2.583071 1_645
Al0 Al1 2.633596 1_555
Al0 Cu4 2.676312 1_555
Al0 Cu4 2.682102 1_655
Al0 Cu5 2.701465 1_555
Al0 Cu6 2.701465 1_555
Al0 Zr0 2.886002 1_555
Al1 Cu1 2.560948 1_555
Al1 Cu3 2.560951 1_555
Al1 Cu0 2.563722 1_555
Al1 Cu2 2.563724 1_555
Al1 Cu5 2.667590 1_555
Al1 Cu6 2.667590 1_555
Al1 Al4 2.758743 1_455
Al1 Al4 2.760082 1_555
Al1 Zr0 2.998433 1_464
Al2 Cu1 2.555285 1_545
Al2 Cu0 2.560328 1_545
Al2 Cu2 2.596246 1_455
Al2 Cu3 2.598169 1_555
Al2 Cu6 2.636290 1_555
Al2 Cu6 2.640765 1_455
Al2 Al3 2.649183 1_555
Al2 Cu4 2.749209 1_555
Al2 Zr0 2.907680 1_454
Al3 Cu3 2.555282 1_556
Al3 Cu2 2.560327 1_556
Al3 Cu0 2.596245 1_455
Al3 Cu1 2.598167 1_555
Al3 Cu5 2.636288 1_555
Al3 Cu5 2.640766 1_455
Al3 Cu4 2.749210 1_555
Al3 Zr0 2.907679 1_465
Al4 Cu2 2.471062 1_555
Al4 Cu0 2.471065 1_555
Al4 Cu3 2.472682 1_655
Al4 Cu1 2.472683 1_655
Al4 Cu5 2.529155 1_554
Al4 Cu6 2.529156 1_565
Al4 Zr0 2.968960 1_464
Al4 Zr0 2.970504 1_564
Cu0 Cu1 2.428986 1_655
Cu0 Cu1 2.440846 1_555
Cu0 Cu5 2.441907 1_555
Cu0 Cu4 2.474789 1_565
Cu0 Cu6 2.483029 1_565
Cu0 Zr0 3.216163 1_565
Cu0 Zr0 3.264255 1_464
Cu1 Cu5 2.441684 1_555
Cu1 Cu4 2.478058 1_565
Cu1 Cu6 2.486422 1_465
Cu1 Zr0 3.216829 1_465
Cu1 Zr0 3.261056 1_464
Cu2 Cu3 2.428982 1_655
Cu2 Cu3 2.440850 1_555
Cu2 Cu6 2.441910 1_555
Cu2 Cu4 2.474792 1_554
Cu2 Cu5 2.483024 1_554
Cu2 Zr0 3.216165 1_554
Cu2 Zr0 3.264253 1_464
Cu3 Cu6 2.441688 1_555
Cu3 Cu4 2.478059 1_554
Cu3 Cu5 2.486419 1_454
Cu3 Zr0 3.216830 1_454
Cu3 Zr0 3.261055 1_464
Cu4 Cu5 2.604488 1_545
Cu4 Cu6 2.604489 1_556
Cu4 Zr0 3.008535 1_555
Cu4 Zr0 3.009959 1_455
Cu5 Zr0 3.080373 1_465
Cu5 Zr0 3.086859 1_565
Cu6 Zr0 3.080375 1_454
Cu6 Zr0 3.086858 1_554
