# generated using pymatgen
data_La2B5H7(C2O7)2
_symmetry_space_group_name_H-M   'P 1'
_cell_length_a   6.49545598
_cell_length_b   11.11826264
_cell_length_c   11.74352156
_cell_angle_alpha   61.74617218
_cell_angle_beta   89.58252261
_cell_angle_gamma   89.11805759
_symmetry_Int_Tables_number   1
_chemical_formula_structural   La2B5H7(C2O7)2
_chemical_formula_sum   'La4 B10 H14 C8 O28'
_cell_volume   746.96443079
_cell_formula_units_Z   2
loop_
 _symmetry_equiv_pos_site_id
 _symmetry_equiv_pos_as_xyz
  1  'x, y, z'
loop_
 _atom_site_type_symbol
 _atom_site_label
 _atom_site_symmetry_multiplicity
 _atom_site_fract_x
 _atom_site_fract_y
 _atom_site_fract_z
 _atom_site_occupancy
  La  La0  1  0.67186400  0.61452400  0.51921600  1
  La  La1  1  0.17186400  0.13374000  0.48078400  1
  La  La2  1  0.83397900  0.20786500  0.86652900  1
  La  La3  1  0.33397900  0.07439400  0.13347100  1
  B  B0  1  0.17979900  0.41273200  0.58504100  1
  B  B1  1  0.67979900  0.99777300  0.41495900  1
  B  B2  1  0.28386900  0.21906200  0.80460900  1
  B  B3  1  0.78386900  0.02367100  0.19539100  1
  B  B4  1  0.52700100  0.30464200  0.61762400  1
  B  B5  1  0.02700100  0.92226600  0.38237600  1
  B  B6  1  0.13332400  0.67268300  0.51687300  1
  B  B7  1  0.63332400  0.18955700  0.48312700  1
  B  B8  1  0.86670400  0.35942100  0.49326300  1
  B  B9  1  0.36670400  0.85268500  0.50673700  1
  H  H0  1  0.43211000  0.64644400  0.79574800  1
  H  H1  1  0.93211000  0.44219200  0.20425200  1
  H  H2  1  0.24878600  0.51157600  0.86850600  1
  H  H3  1  0.74878600  0.38008200  0.13149400  1
  H  H4  1  0.42646700  0.53764500  0.96801300  1
  H  H5  1  0.92646700  0.50565800  0.03198700  1
  H  H6  1  0.79821900  0.75280600  0.89250000  1
  H  H7  1  0.29821900  0.64530500  0.10750000  1
  H  H8  1  0.82376200  0.81372000  0.72181700  1
  H  H9  1  0.32376200  0.53553700  0.27818300  1
  H  H10  1  0.04779000  0.76348900  0.82282000  1
  H  H11  1  0.54779000  0.58630800  0.17718000  1
  H  H12  1  0.66560400  0.49497200  0.35399200  1
  H  H13  1  0.16560400  0.84896500  0.64600800  1
  C  C0  1  0.55207100  0.44033800  0.86414200  1
  C  C1  1  0.05207100  0.30448000  0.13585800  1
  C  C2  1  0.91666200  0.95696100  0.78420200  1
  C  C3  1  0.41666200  0.74116300  0.21579800  1
  C  C4  1  0.40723400  0.54250000  0.87304500  1
  C  C5  1  0.90723400  0.41554600  0.12695500  1
  C  C6  1  0.89417000  0.81183500  0.80768700  1
  C  C7  1  0.39417000  0.61952200  0.19231300  1
  O  O0  1  0.06953200  0.54297800  0.55383200  1
  O  O1  1  0.56953200  0.09681000  0.44616800  1
  O  O2  1  0.14279600  0.32003500  0.72589900  1
  O  O3  1  0.64279600  0.04593400  0.27410100  1
  O  O4  1  0.40280800  0.43163600  0.56154600  1
  O  O5  1  0.90280800  0.99318200  0.43845400  1
  O  O6  1  0.21601700  0.13039600  0.92415600  1
  O  O7  1  0.71601700  0.05455200  0.07584400  1
  O  O8  1  0.47968500  0.21711000  0.75697200  1
  O  O9  1  0.97968500  0.97408200  0.24302800  1
  O  O10  1  0.98332800  0.77157500  0.45395200  1
  O  O11  1  0.48332800  0.22552600  0.54604800  1
  O  O12  1  0.74763700  0.33441300  0.61164000  1
  O  O13  1  0.24763700  0.94605300  0.38836000  1
  O  O14  1  0.82125900  0.25130500  0.45377900  1
  O  O15  1  0.32125900  0.70508400  0.54622100  1
  O  O16  1  0.80036400  0.49720200  0.38866700  1
  O  O17  1  0.30036400  0.88586800  0.61133300  1
  O  O18  1  0.08673700  0.35348400  0.50922400  1
  O  O19  1  0.58673700  0.86270900  0.49077600  1
  O  O20  1  0.54797600  0.31654300  0.95261900  1
  O  O21  1  0.04797600  0.26916200  0.04738100  1
  O  O22  1  0.67883500  0.47796500  0.76884300  1
  O  O23  1  0.17883500  0.24680800  0.23115700  1
  O  O24  1  0.82098500  0.99426400  0.85639200  1
  O  O25  1  0.32098500  0.85065600  0.14360800  1
  O  O26  1  0.03211600  0.03618500  0.69057800  1
  O  O27  1  0.53211600  0.72676300  0.30942200  1
loop_
_geom_bond_atom_site_label_1
_geom_bond_atom_site_label_2
_geom_bond_distance
_geom_bond_site_symmetry_2
La0 O27 2.353312 1_555
La0 O15 2.553788 1_555
La0 O10 2.558995 1_555
La0 O4 2.564335 1_555
La0 O16 2.567051 1_555
La0 O22 2.585900 1_555
La0 O19 2.667338 1_555
La0 O0 2.667581 1_655
La0 O12 2.807093 1_555
La1 O26 2.353312 1_555
La1 O14 2.553788 1_455
La1 O11 2.558989 1_555
La1 O5 2.564335 1_445
La1 O17 2.567060 1_545
La1 O23 2.585900 1_555
La1 O18 2.667327 1_555
La1 O1 2.667581 1_555
La1 O13 2.807093 1_545
La2 O7 2.362358 1_556
La2 O24 2.436245 1_545
La2 O2 2.526895 1_655
La2 O6 2.600878 1_655
La2 O8 2.621548 1_555
La2 O20 2.644494 1_555
La2 O12 2.695707 1_555
La2 O22 2.830528 1_555
La2 O21 2.889607 1_656
La3 O6 2.362358 1_554
La3 O25 2.436245 1_545
La3 O3 2.526895 1_555
La3 O7 2.600878 1_555
La3 O9 2.621548 1_445
La3 O21 2.644494 1_555
La3 O13 2.695707 1_545
La3 O23 2.830528 1_555
La3 O20 2.889607 1_554
B0 O4 1.472152 1_555
B0 O18 1.472226 1_555
B0 O0 1.487869 1_555
B0 O2 1.498001 1_555
B1 O5 1.472152 1_555
B1 O19 1.472218 1_555
B1 O1 1.487869 1_565
B1 O3 1.498001 1_565
B2 O6 1.353171 1_555
B2 O8 1.389773 1_555
B2 O2 1.397360 1_555
B3 O7 1.353171 1_555
B3 O9 1.389773 1_545
B3 O3 1.397360 1_555
B4 O12 1.469517 1_555
B4 O4 1.473225 1_555
B4 O8 1.487815 1_555
B4 O11 1.507291 1_555
B5 O13 1.469517 1_555
B5 O5 1.473225 1_455
B5 O9 1.487815 1_455
B5 O10 1.507281 1_455
B6 O0 1.364880 1_555
B6 O15 1.369649 1_555
B6 O10 1.382926 1_455
B7 O1 1.364891 1_555
B7 O14 1.369645 1_555
B7 O11 1.382914 1_555
B8 O18 1.439247 1_655
B8 O12 1.494324 1_555
B8 O16 1.499020 1_555
B8 O14 1.512516 1_555
B9 O19 1.439247 1_555
B9 O13 1.494321 1_555
B9 O17 1.499006 1_555
B9 O15 1.512526 1_555
H12 O16 0.973679 1_555
H13 O17 0.973674 1_555
C0 O20 1.273378 1_555
C0 O22 1.288171 1_555
C1 O21 1.273377 1_555
C1 O23 1.288171 1_555
C2 O24 1.262621 1_555
C2 O26 1.280051 1_665
C3 O25 1.262621 1_555
C3 O27 1.280051 1_555
C4 H0 1.093664 1_555
C4 H4 1.098704 1_555
C4 H2 1.099697 1_555
C5 H1 1.093656 1_555
C5 H5 1.098699 1_555
C5 H3 1.099701 1_555
C6 H6 1.093554 1_555
C6 H10 1.100825 1_655
C6 H8 1.101323 1_555
C7 H7 1.093556 1_555
C7 H11 1.100829 1_555
C7 H9 1.101323 1_555
