# generated using pymatgen
data_C
_symmetry_space_group_name_H-M   'P 1'
_cell_length_a   9.05052297
_cell_length_b   9.51238690
_cell_length_c   13.14907551
_cell_angle_alpha   90.00000000
_cell_angle_beta   90.00000000
_cell_angle_gamma   90.00000000
_symmetry_Int_Tables_number   1
_chemical_formula_structural   C
_chemical_formula_sum   C120
_cell_volume   1132.03120995
_cell_formula_units_Z   120
loop_
 _symmetry_equiv_pos_site_id
 _symmetry_equiv_pos_as_xyz
  1  'x, y, z'
loop_
 _atom_site_type_symbol
 _atom_site_label
 _atom_site_symmetry_multiplicity
 _atom_site_fract_x
 _atom_site_fract_y
 _atom_site_fract_z
 _atom_site_occupancy
  C  C0  1  0.50000000  0.23974934  0.28777988  1
  C  C1  1  0.50000000  0.76025066  0.71222012  1
  C  C2  1  0.00000000  0.26025066  0.78777988  1
  C  C3  1  0.00000000  0.73974934  0.21222012  1
  C  C4  1  0.41241806  0.73580125  0.28582044  1
  C  C5  1  0.41241806  0.26419875  0.71417956  1
  C  C6  1  0.08758194  0.76419875  0.78582044  1
  C  C7  1  0.08758194  0.23580125  0.21417956  1
  C  C8  1  0.58758194  0.26419875  0.71417956  1
  C  C9  1  0.58758194  0.73580125  0.28582044  1
  C  C10  1  0.91241806  0.23580125  0.21417956  1
  C  C11  1  0.91241806  0.76419875  0.78582044  1
  C  C12  1  0.07750144  0.38326305  0.43672791  1
  C  C13  1  0.07750144  0.61673695  0.56327209  1
  C  C14  1  0.42249856  0.11673695  0.93672791  1
  C  C15  1  0.42249856  0.88326305  0.06327209  1
  C  C16  1  0.92249856  0.61673695  0.56327209  1
  C  C17  1  0.92249856  0.38326305  0.43672791  1
  C  C18  1  0.57750144  0.88326305  0.06327209  1
  C  C19  1  0.57750144  0.11673695  0.93672791  1
  C  C20  1  0.41381134  0.45918851  0.25129569  1
  C  C21  1  0.41381134  0.54081149  0.74870431  1
  C  C22  1  0.08618866  0.04081149  0.75129569  1
  C  C23  1  0.08618866  0.95918851  0.24870431  1
  C  C24  1  0.58618866  0.54081149  0.74870431  1
  C  C25  1  0.58618866  0.45918851  0.25129569  1
  C  C26  1  0.91381134  0.95918851  0.24870431  1
  C  C27  1  0.91381134  0.04081149  0.75129569  1
  C  C28  1  0.22340023  0.58568878  0.35826111  1
  C  C29  1  0.22340023  0.41431122  0.64173889  1
  C  C30  1  0.27659977  0.91431122  0.85826111  1
  C  C31  1  0.27659977  0.08568878  0.14173889  1
  C  C32  1  0.77659977  0.41431122  0.64173889  1
  C  C33  1  0.77659977  0.58568878  0.35826111  1
  C  C34  1  0.72340023  0.08568878  0.14173889  1
  C  C35  1  0.72340023  0.91431122  0.85826111  1
  C  C36  1  0.28112486  0.73217829  0.20645283  1
  C  C37  1  0.28112486  0.26782171  0.79354717  1
  C  C38  1  0.21887514  0.76782171  0.70645283  1
  C  C39  1  0.21887514  0.23217829  0.29354717  1
  C  C40  1  0.71887514  0.26782171  0.79354717  1
  C  C41  1  0.71887514  0.73217829  0.20645283  1
  C  C42  1  0.78112486  0.23217829  0.29354717  1
  C  C43  1  0.78112486  0.76782171  0.70645283  1
  C  C44  1  0.36582651  0.31879692  0.26706833  1
  C  C45  1  0.36582651  0.68120308  0.73293167  1
  C  C46  1  0.13417349  0.18120308  0.76706833  1
  C  C47  1  0.13417349  0.81879692  0.23293167  1
  C  C48  1  0.63417349  0.68120308  0.73293167  1
  C  C49  1  0.63417349  0.31879692  0.26706833  1
  C  C50  1  0.86582651  0.81879692  0.23293167  1
  C  C51  1  0.86582651  0.18120308  0.76706833  1
  C  C52  1  0.32772749  0.59520111  0.27246401  1
  C  C53  1  0.32772749  0.40479889  0.72753599  1
  C  C54  1  0.17227251  0.90479889  0.77246401  1
  C  C55  1  0.17227251  0.09520111  0.22753599  1
  C  C56  1  0.67227251  0.40479889  0.72753599  1
  C  C57  1  0.67227251  0.59520111  0.27246401  1
  C  C58  1  0.82772749  0.09520111  0.22753599  1
  C  C59  1  0.82772749  0.90479889  0.77246401  1
  C  C60  1  0.14958389  0.47636655  0.38488174  1
  C  C61  1  0.14958389  0.52363345  0.61511826  1
  C  C62  1  0.35041611  0.02363345  0.88488174  1
  C  C63  1  0.35041611  0.97636655  0.11511826  1
  C  C64  1  0.85041611  0.52363345  0.61511826  1
  C  C65  1  0.85041611  0.47636655  0.38488174  1
  C  C66  1  0.64958389  0.97636655  0.11511826  1
  C  C67  1  0.64958389  0.02363345  0.88488174  1
  C  C68  1  0.50000000  0.85344830  0.63156711  1
  C  C69  1  0.50000000  0.14655170  0.36843289  1
  C  C70  1  0.00000000  0.64655170  0.13156711  1
  C  C71  1  0.00000000  0.35344830  0.86843289  1
  C  C72  1  0.42095318  0.85959843  0.46419635  1
  C  C73  1  0.42095318  0.14040157  0.53580365  1
  C  C74  1  0.07904682  0.64040157  0.96419635  1
  C  C75  1  0.07904682  0.35959843  0.03580365  1
  C  C76  1  0.57904682  0.14040157  0.53580365  1
  C  C77  1  0.57904682  0.85959843  0.46419635  1
  C  C78  1  0.92095318  0.35959843  0.03580365  1
  C  C79  1  0.92095318  0.64040157  0.96419635  1
  C  C80  1  0.22971557  0.71103926  0.42018249  1
  C  C81  1  0.22971557  0.28896074  0.57981751  1
  C  C82  1  0.27028443  0.78896074  0.92018249  1
  C  C83  1  0.27028443  0.21103926  0.07981751  1
  C  C84  1  0.77028443  0.28896074  0.57981751  1
  C  C85  1  0.77028443  0.71103926  0.42018249  1
  C  C86  1  0.72971557  0.21103926  0.07981751  1
  C  C87  1  0.72971557  0.78896074  0.92018249  1
  C  C88  1  0.23726333  0.80068830  0.59382603  1
  C  C89  1  0.23726333  0.19931170  0.40617397  1
  C  C90  1  0.26273667  0.69931170  0.09382603  1
  C  C91  1  0.26273667  0.30068830  0.90617397  1
  C  C92  1  0.76273667  0.19931170  0.40617397  1
  C  C93  1  0.76273667  0.80068830  0.59382603  1
  C  C94  1  0.73726333  0.30068830  0.90617397  1
  C  C95  1  0.73726333  0.69931170  0.09382603  1
  C  C96  1  0.37108392  0.86125198  0.56643760  1
  C  C97  1  0.37108392  0.13874802  0.43356240  1
  C  C98  1  0.12891608  0.63874802  0.06643760  1
  C  C99  1  0.12891608  0.36125198  0.93356240  1
  C  C100  1  0.62891608  0.13874802  0.43356240  1
  C  C101  1  0.62891608  0.86125198  0.56643760  1
  C  C102  1  0.87108392  0.36125198  0.93356240  1
  C  C103  1  0.87108392  0.63874802  0.06643760  1
  C  C104  1  0.34932324  0.79013694  0.38685183  1
  C  C105  1  0.34932324  0.20986306  0.61314817  1
  C  C106  1  0.15067676  0.70986306  0.88685183  1
  C  C107  1  0.15067676  0.29013694  0.11314817  1
  C  C108  1  0.65067676  0.20986306  0.61314817  1
  C  C109  1  0.65067676  0.79013694  0.38685183  1
  C  C110  1  0.84932324  0.29013694  0.11314817  1
  C  C111  1  0.84932324  0.70986306  0.88685183  1
  C  C112  1  0.16824770  0.72480389  0.51713783  1
  C  C113  1  0.16824770  0.27519611  0.48286217  1
  C  C114  1  0.33175230  0.77519611  0.01713783  1
  C  C115  1  0.33175230  0.22480389  0.98286217  1
  C  C116  1  0.83175230  0.27519611  0.48286217  1
  C  C117  1  0.83175230  0.72480389  0.51713783  1
  C  C118  1  0.66824770  0.22480389  0.98286217  1
  C  C119  1  0.66824770  0.77519611  0.01713783  1
loop_
_geom_bond_atom_site_label_1
_geom_bond_atom_site_label_2
_geom_bond_distance
_geom_bond_site_symmetry_2
C0 C69 1.382254 1_555
C0 C49 1.454026 1_555
C0 C44 1.454026 1_555
C1 C68 1.382254 1_555
C1 C45 1.454026 1_555
C1 C48 1.454026 1_555
C2 C71 1.382254 1_555
C2 C46 1.454026 1_555
C2 C51 1.454026 1_455
C3 C70 1.382254 1_555
C3 C50 1.454026 1_455
C3 C47 1.454026 1_555
C4 C52 1.551487 1_555
C4 C9 1.585325 1_555
C5 C53 1.551487 1_555
C5 C8 1.585325 1_555
C10 C110 1.535599 1_555
C10 C58 1.551487 1_555
C10 C42 1.581866 1_555
C10 C7 1.585325 1_655
C11 C111 1.535599 1_555
C11 C59 1.551487 1_555
C11 C43 1.581866 1_555
C11 C6 1.585325 1_655
C12 C60 1.294106 1_555
C12 C17 1.402857 1_455
C13 C61 1.294106 1_555
C13 C16 1.402857 1_455
C14 C62 1.294106 1_555
C14 C19 1.402857 1_555
C15 C63 1.294106 1_555
C15 C18 1.402857 1_555
C16 C64 1.294106 1_555
C17 C65 1.294106 1_555
C18 C66 1.294106 1_555
C19 C67 1.294106 1_555
C20 C44 1.419532 1_555
C20 C52 1.535711 1_555
C20 C25 1.560105 1_555
C21 C45 1.419532 1_555
C21 C53 1.535711 1_555
C21 C24 1.560105 1_555
C22 C46 1.419532 1_555
C22 C54 1.535711 1_545
C22 C27 1.560105 1_455
C23 C47 1.419532 1_555
C23 C55 1.535711 1_565
C23 C26 1.560105 1_455
C24 C48 1.419532 1_555
C24 C56 1.535711 1_555
C25 C49 1.419532 1_555
C25 C57 1.535711 1_555
C26 C50 1.419532 1_555
C26 C58 1.535711 1_565
C27 C51 1.419532 1_555
C27 C59 1.535711 1_545
C28 C60 1.284631 1_555
C28 C80 1.444984 1_555
C28 C52 1.473927 1_555
C29 C61 1.284631 1_555
C29 C81 1.444984 1_555
C29 C53 1.473927 1_555
C30 C62 1.284631 1_565
C30 C82 1.444984 1_555
C30 C54 1.473927 1_555
C31 C63 1.284631 1_545
C31 C83 1.444984 1_555
C31 C55 1.473927 1_555
C32 C64 1.284631 1_555
C32 C84 1.444984 1_555
C32 C56 1.473927 1_555
C33 C65 1.284631 1_555
C33 C85 1.444984 1_555
C33 C57 1.473927 1_555
C34 C66 1.284631 1_545
C34 C86 1.444984 1_555
C34 C58 1.473927 1_555
C35 C67 1.284631 1_565
C35 C87 1.444984 1_555
C35 C59 1.473927 1_555
C36 C90 1.522701 1_555
C36 C4 1.581866 1_555
C36 C47 1.602804 1_555
C36 C52 1.621436 1_555
C37 C91 1.522701 1_555
C37 C5 1.581866 1_555
C37 C46 1.602804 1_555
C37 C53 1.621436 1_555
C38 C88 1.522701 1_555
C38 C6 1.581866 1_555
C38 C45 1.602804 1_555
C38 C54 1.621436 1_555
C39 C89 1.522701 1_555
C39 C7 1.581866 1_555
C39 C44 1.602804 1_555
C39 C55 1.621436 1_555
C40 C94 1.522701 1_555
C40 C8 1.581866 1_555
C40 C51 1.602804 1_555
C40 C56 1.621436 1_555
C41 C95 1.522701 1_555
C41 C9 1.581866 1_555
C41 C50 1.602804 1_555
C41 C57 1.621436 1_555
C42 C92 1.522701 1_555
C42 C49 1.602804 1_555
C42 C58 1.621436 1_555
C43 C93 1.522701 1_555
C43 C48 1.602804 1_555
C43 C59 1.621436 1_555
C54 C6 1.551487 1_555
C55 C7 1.551487 1_555
C56 C8 1.551487 1_555
C57 C9 1.551487 1_555
C68 C96 1.449222 1_555
C69 C97 1.449222 1_555
C70 C98 1.449222 1_555
C71 C99 1.449222 1_555
C72 C96 1.418207 1_555
C72 C77 1.430830 1_555
C73 C97 1.418207 1_555
C73 C76 1.430830 1_555
C74 C98 1.418207 1_556
C74 C79 1.430830 1_455
C75 C99 1.418207 1_554
C75 C78 1.430830 1_455
C88 C96 1.388693 1_555
C89 C97 1.388693 1_555
C90 C98 1.388693 1_555
C91 C99 1.388693 1_555
C100 C92 1.388693 1_555
C100 C76 1.418207 1_555
C100 C69 1.449222 1_555
C101 C93 1.388693 1_555
C101 C77 1.418207 1_555
C101 C68 1.449222 1_555
C102 C94 1.388693 1_555
C102 C78 1.418207 1_556
C102 C71 1.449222 1_655
C103 C95 1.388693 1_555
C103 C79 1.418207 1_554
C103 C70 1.449222 1_655
C104 C72 1.375198 1_555
C104 C80 1.389254 1_555
C104 C4 1.535599 1_555
C105 C73 1.375198 1_555
C105 C81 1.389254 1_555
C105 C5 1.535599 1_555
C106 C74 1.375198 1_555
C106 C82 1.389254 1_555
C106 C6 1.535599 1_555
C107 C75 1.375198 1_555
C107 C83 1.389254 1_555
C107 C7 1.535599 1_555
C108 C76 1.375198 1_555
C108 C84 1.389254 1_555
C108 C8 1.535599 1_555
C109 C77 1.375198 1_555
C109 C85 1.389254 1_555
C109 C9 1.535599 1_555
C110 C78 1.375198 1_555
C110 C86 1.389254 1_555
C111 C79 1.375198 1_555
C111 C87 1.389254 1_555
C112 C88 1.388540 1_555
C112 C80 1.397116 1_555
C112 C13 1.448882 1_555
C113 C89 1.388540 1_555
C113 C81 1.397116 1_555
C113 C12 1.448882 1_555
C114 C90 1.388540 1_555
C114 C82 1.397116 1_554
C114 C15 1.448882 1_555
C115 C91 1.388540 1_555
C115 C83 1.397116 1_556
C115 C14 1.448882 1_555
C116 C92 1.388540 1_555
C116 C84 1.397116 1_555
C116 C17 1.448882 1_555
C117 C93 1.388540 1_555
C117 C85 1.397116 1_555
C117 C16 1.448882 1_555
C118 C94 1.388540 1_555
C118 C86 1.397116 1_556
C118 C19 1.448882 1_555
C119 C95 1.388540 1_555
C119 C87 1.397116 1_554
C119 C18 1.448882 1_555
