# generated using pymatgen
data_ZnCr4NiO8
_symmetry_space_group_name_H-M   'P 1'
_cell_length_a   5.98624863
_cell_length_b   5.98624863
_cell_length_c   5.98624863
_cell_angle_alpha   60.00000000
_cell_angle_beta   60.00000000
_cell_angle_gamma   60.00000000
_symmetry_Int_Tables_number   1
_chemical_formula_structural   ZnCr4NiO8
_chemical_formula_sum   'Zn1 Cr4 Ni1 O8'
_cell_volume   151.68731154
_cell_formula_units_Z   1
loop_
 _symmetry_equiv_pos_site_id
 _symmetry_equiv_pos_as_xyz
  1  'x, y, z'
loop_
 _atom_site_type_symbol
 _atom_site_label
 _atom_site_symmetry_multiplicity
 _atom_site_fract_x
 _atom_site_fract_y
 _atom_site_fract_z
 _atom_site_occupancy
  Zn  Zn0  1  0.00000000  0.00000000  0.00000000  1
  Cr  Cr0  1  0.62503000  0.62503000  0.12490900  1
  Cr  Cr1  1  0.62503000  0.12490900  0.62503000  1
  Cr  Cr2  1  0.12490900  0.62503000  0.62503000  1
  Cr  Cr3  1  0.62503000  0.62503000  0.62503000  1
  Ni  Ni0  1  0.25000000  0.25000000  0.25000000  1
  O  O0  1  0.86353100  0.86353100  0.40940700  1
  O  O1  1  0.86353100  0.40940700  0.86353100  1
  O  O2  1  0.40940700  0.86353100  0.86353100  1
  O  O3  1  0.86353100  0.86353100  0.86353100  1
  O  O4  1  0.38534800  0.38534800  0.84395700  1
  O  O5  1  0.38534800  0.84395700  0.38534800  1
  O  O6  1  0.84395700  0.38534800  0.38534800  1
  O  O7  1  0.38534800  0.38534800  0.38534800  1
loop_
_geom_bond_atom_site_label_1
_geom_bond_atom_site_label_2
_geom_bond_distance
_geom_bond_site_symmetry_2
Cr0 O2 2.023745 1_554
Cr0 O1 2.023745 1_554
Cr0 O3 2.023749 1_554
Cr0 O7 2.032909 1_555
Cr0 O6 2.032917 1_555
Cr0 O5 2.032917 1_555
Cr1 O2 2.023745 1_545
Cr1 O0 2.023745 1_545
Cr1 O3 2.023749 1_545
Cr1 O7 2.032909 1_555
Cr1 O6 2.032917 1_555
Cr1 O4 2.032917 1_555
Cr2 O0 2.023745 1_455
Cr2 O1 2.023745 1_455
Cr2 O3 2.023749 1_455
Cr2 O7 2.032909 1_555
Cr2 O4 2.032917 1_555
Cr2 O5 2.032917 1_555
Cr3 O1 2.023749 1_555
Cr3 O0 2.023749 1_555
Cr3 O2 2.023749 1_555
Cr3 O6 2.032908 1_555
Cr3 O4 2.032908 1_555
Cr3 O5 2.032908 1_555
Ni0 O4 1.984637 1_554
Ni0 O6 1.984637 1_455
Ni0 O5 1.984637 1_545
Ni0 O7 1.984642 1_555
O0 Zn0 2.001080 1_665
O1 Zn0 2.001080 1_656
O2 Zn0 2.001080 1_566
O3 Zn0 2.001080 1_666
