# generated using pymatgen
data_SmF3
_symmetry_space_group_name_H-M   'P 1'
_cell_length_a   7.03511448
_cell_length_b   7.03511448
_cell_length_c   6.98948100
_cell_angle_alpha   90.00000000
_cell_angle_beta   90.00000000
_cell_angle_gamma   120.00000454
_symmetry_Int_Tables_number   1
_chemical_formula_structural   SmF3
_chemical_formula_sum   'Sm6 F18'
_cell_volume   299.58349203
_cell_formula_units_Z   6
loop_
 _symmetry_equiv_pos_site_id
 _symmetry_equiv_pos_as_xyz
  1  'x, y, z'
loop_
 _atom_site_type_symbol
 _atom_site_label
 _atom_site_symmetry_multiplicity
 _atom_site_fract_x
 _atom_site_fract_y
 _atom_site_fract_z
 _atom_site_occupancy
  Sm  Sm0  1  0.66779600  0.66779600  0.25000000  1
  Sm  Sm1  1  0.00000000  0.66779600  0.75000000  1
  Sm  Sm2  1  0.66779600  0.00000000  0.75000000  1
  Sm  Sm3  1  0.33220400  0.00000000  0.25000000  1
  Sm  Sm4  1  0.00000000  0.33220400  0.25000000  1
  Sm  Sm5  1  0.33220400  0.33220400  0.75000000  1
  F  F0  1  0.00000000  0.00000000  0.50000000  1
  F  F1  1  0.00000000  0.00000000  0.00000000  1
  F  F2  1  0.33333300  0.66666700  0.25000000  1
  F  F3  1  0.66666700  0.33333300  0.75000000  1
  F  F4  1  0.66666700  0.33333300  0.25000000  1
  F  F5  1  0.33333300  0.66666700  0.75000000  1
  F  F6  1  0.34423400  0.00000000  0.91710400  1
  F  F7  1  0.34423400  0.34423400  0.41710400  1
  F  F8  1  0.00000000  0.65576600  0.41710400  1
  F  F9  1  0.00000000  0.34423400  0.91710400  1
  F  F10  1  0.65576600  0.65576600  0.91710400  1
  F  F11  1  0.34423400  0.00000000  0.58289600  1
  F  F12  1  0.65576600  0.65576600  0.58289600  1
  F  F13  1  0.65576600  0.00000000  0.41710400  1
  F  F14  1  0.00000000  0.34423400  0.58289600  1
  F  F15  1  0.00000000  0.65576600  0.08289600  1
  F  F16  1  0.65576600  0.00000000  0.08289600  1
  F  F17  1  0.34423400  0.34423400  0.08289600  1
loop_
_geom_bond_atom_site_label_1
_geom_bond_atom_site_label_2
_geom_bond_distance
_geom_bond_site_symmetry_2
F0 Sm5 2.918100 1_555
F0 Sm0 2.918100 1_445
F0 Sm4 2.918100 1_555
F0 Sm2 2.918100 1_455
F0 Sm1 2.918100 1_545
F0 Sm3 2.918100 1_555
F1 Sm5 2.918100 1_554
F1 Sm0 2.918100 1_445
F1 Sm4 2.918100 1_555
F1 Sm2 2.918100 1_454
F1 Sm1 2.918100 1_544
F1 Sm3 2.918100 1_555
F2 Sm3 2.349017 1_565
F2 Sm4 2.349021 1_555
F2 Sm0 2.349024 1_555
F3 Sm2 2.349017 1_555
F3 Sm1 2.349021 1_655
F3 Sm5 2.349024 1_555
F4 Sm4 2.349017 1_655
F4 Sm3 2.349021 1_555
F4 Sm0 2.349024 1_555
F5 Sm1 2.349017 1_555
F5 Sm2 2.349021 1_565
F5 Sm5 2.349024 1_555
F6 Sm3 2.328309 1_556
F6 Sm2 2.558452 1_555
F6 Sm1 2.651625 1_545
F6 Sm5 2.651625 1_555
F7 Sm5 2.328309 1_555
F7 Sm0 2.558452 1_555
F7 Sm4 2.651625 1_555
F7 Sm3 2.651625 1_555
F8 Sm1 2.328309 1_555
F8 Sm4 2.558452 1_555
F8 Sm3 2.651625 1_565
F8 Sm0 2.651625 1_455
F9 Sm4 2.328309 1_556
F9 Sm1 2.558452 1_555
F9 Sm2 2.651625 1_455
F9 Sm5 2.651625 1_555
F10 Sm0 2.328309 1_556
F10 Sm5 2.558452 1_555
F10 Sm2 2.651625 1_565
F10 Sm1 2.651625 1_655
F11 Sm3 2.328309 1_555
F11 Sm2 2.558452 1_555
F11 Sm1 2.651625 1_545
F11 Sm5 2.651625 1_555
F12 Sm0 2.328309 1_555
F12 Sm5 2.558452 1_555
F12 Sm2 2.651625 1_565
F12 Sm1 2.651625 1_655
F13 Sm2 2.328309 1_555
F13 Sm3 2.558452 1_555
F13 Sm4 2.651625 1_655
F13 Sm0 2.651625 1_545
F14 Sm4 2.328309 1_555
F14 Sm1 2.558452 1_555
F14 Sm2 2.651625 1_455
F14 Sm5 2.651625 1_555
F15 Sm1 2.328309 1_554
F15 Sm4 2.558452 1_555
F15 Sm3 2.651625 1_565
F15 Sm0 2.651625 1_455
F16 Sm2 2.328309 1_554
F16 Sm3 2.558452 1_555
F16 Sm4 2.651625 1_655
F16 Sm0 2.651625 1_545
F17 Sm5 2.328309 1_554
F17 Sm0 2.558452 1_555
F17 Sm4 2.651625 1_555
F17 Sm3 2.651625 1_555
