# generated using pymatgen
data_KTmP2O7
_symmetry_space_group_name_H-M   'P 1'
_cell_length_a   10.91609900
_cell_length_b   7.77484800
_cell_length_c   8.72444710
_cell_angle_alpha   73.38121567
_cell_angle_beta   90.00000000
_cell_angle_gamma   90.00000000
_symmetry_Int_Tables_number   1
_chemical_formula_structural   KTmP2O7
_chemical_formula_sum   'K4 Tm4 P8 O28'
_cell_volume   709.52309040
_cell_formula_units_Z   4
loop_
 _symmetry_equiv_pos_site_id
 _symmetry_equiv_pos_as_xyz
  1  'x, y, z'
loop_
 _atom_site_type_symbol
 _atom_site_label
 _atom_site_symmetry_multiplicity
 _atom_site_fract_x
 _atom_site_fract_y
 _atom_site_fract_z
 _atom_site_occupancy
  K  K0  1  0.82142500  0.82294400  0.56006800  1
  K  K1  1  0.17857500  0.17705600  0.43993200  1
  K  K2  1  0.32142500  0.17705600  0.93993200  1
  K  K3  1  0.67857500  0.82294400  0.06006800  1
  Tm  Tm0  1  0.39967100  0.76374700  0.75689600  1
  Tm  Tm1  1  0.60032900  0.23625300  0.24310400  1
  Tm  Tm2  1  0.89967100  0.23625300  0.74310400  1
  Tm  Tm3  1  0.10032900  0.76374700  0.25689600  1
  P  P0  1  0.13446000  0.56386000  0.69287200  1
  P  P1  1  0.86554000  0.43614000  0.30712800  1
  P  P2  1  0.63446000  0.43614000  0.80712800  1
  P  P3  1  0.36554000  0.56386000  0.19287200  1
  P  P4  1  0.09770000  0.86993200  0.82080900  1
  P  P5  1  0.90230000  0.13006800  0.17919100  1
  P  P6  1  0.59770000  0.13006800  0.67919100  1
  P  P7  1  0.40230000  0.86993200  0.32080900  1
  O  O0  1  0.07433500  0.37895000  0.73632800  1
  O  O1  1  0.92566500  0.62105000  0.26367200  1
  O  O2  1  0.57433500  0.62105000  0.76367200  1
  O  O3  1  0.42566500  0.37895000  0.23632800  1
  O  O4  1  0.22616000  0.92459000  0.75077900  1
  O  O5  1  0.77384000  0.07541000  0.24922100  1
  O  O6  1  0.72616000  0.07541000  0.74922100  1
  O  O7  1  0.27384000  0.92459000  0.25077900  1
  O  O8  1  0.26991600  0.54767500  0.74174200  1
  O  O9  1  0.73008400  0.45232500  0.25825800  1
  O  O10  1  0.76991600  0.45232500  0.75825800  1
  O  O11  1  0.23008400  0.54767500  0.24174200  1
  O  O12  1  0.11012500  0.67333100  0.52036500  1
  O  O13  1  0.88987500  0.32666900  0.47963500  1
  O  O14  1  0.61012500  0.32666900  0.97963500  1
  O  O15  1  0.38987500  0.67333100  0.02036500  1
  O  O16  1  0.40859400  0.85485300  0.49731700  1
  O  O17  1  0.59140600  0.14514700  0.50268300  1
  O  O18  1  0.90859400  0.14514700  0.00268300  1
  O  O19  1  0.09140600  0.85485300  0.99731700  1
  O  O20  1  0.06533200  0.67092500  0.80451800  1
  O  O21  1  0.93466800  0.32907500  0.19548200  1
  O  O22  1  0.56533200  0.32907500  0.69548200  1
  O  O23  1  0.43466800  0.67092500  0.30451800  1
  O  O24  1  0.49953300  0.00557700  0.77901900  1
  O  O25  1  0.50046700  0.99442300  0.22098100  1
  O  O26  1  0.99953300  0.99442300  0.72098100  1
  O  O27  1  0.00046700  0.00557700  0.27901900  1
loop_
_geom_bond_atom_site_label_1
_geom_bond_atom_site_label_2
_geom_bond_distance
_geom_bond_site_symmetry_2
K0 O5 2.903888 1_565
K0 O26 2.932414 1_555
K0 O10 2.959570 1_555
K0 O6 3.083921 1_565
K0 O27 3.139557 1_665
K1 O4 2.903888 1_545
K1 O27 2.932414 1_555
K1 O11 2.959570 1_555
K1 O7 3.083921 1_545
K1 O26 3.139557 1_445
K2 O7 2.903888 1_546
K2 O24 2.932414 1_555
K2 O8 2.959570 1_555
K2 O4 3.083921 1_545
K2 O25 3.139557 1_546
K3 O6 2.903888 1_564
K3 O25 2.932414 1_555
K3 O9 2.959570 1_555
K3 O5 3.083921 1_565
K3 O24 3.139557 1_564
O0 P0 1.526291 1_555
O0 Tm2 2.198219 1_455
O1 P1 1.526291 1_555
O1 Tm3 2.198219 1_655
O2 P2 1.526291 1_555
O2 Tm0 2.198219 1_555
O3 P3 1.526291 1_555
O3 Tm1 2.198219 1_555
O4 P4 1.540051 1_555
O4 Tm0 2.261852 1_555
O5 P5 1.540051 1_555
O5 Tm1 2.261852 1_555
O6 P6 1.540051 1_555
O6 Tm2 2.261852 1_555
O7 P7 1.540051 1_555
O7 Tm3 2.261852 1_555
O8 P0 1.534060 1_555
O8 Tm0 2.230004 1_555
O9 P1 1.534060 1_555
O9 Tm1 2.230004 1_555
O10 P2 1.534060 1_555
O10 Tm2 2.230004 1_555
O11 P3 1.534060 1_555
O11 Tm3 2.230004 1_555
O12 P0 1.525571 1_555
O12 Tm3 2.205670 1_555
O13 P1 1.525571 1_555
O13 Tm2 2.205670 1_555
O14 P2 1.525571 1_555
O14 Tm1 2.205670 1_556
O15 P3 1.525571 1_555
O15 Tm0 2.205670 1_554
O16 P7 1.512149 1_555
O16 Tm0 2.173116 1_555
O17 P6 1.512149 1_555
O17 Tm1 2.173116 1_555
O18 P5 1.512149 1_555
O18 Tm2 2.173116 1_554
O19 P4 1.512149 1_555
O19 Tm3 2.173116 1_556
O20 P4 1.632426 1_555
O20 P0 1.635515 1_555
O21 P5 1.632426 1_555
O21 P1 1.635515 1_555
O22 P6 1.632426 1_555
O22 P2 1.635515 1_555
O23 P7 1.632426 1_555
O23 P3 1.635515 1_555
O24 P6 1.536720 1_555
O24 Tm0 2.228963 1_545
O25 P7 1.536720 1_555
O25 Tm1 2.228963 1_565
O26 P4 1.536720 1_655
O26 Tm2 2.228963 1_565
O27 P5 1.536720 1_455
O27 Tm3 2.228963 1_545
