# generated using pymatgen
data_Mg5Si9
_symmetry_space_group_name_H-M   'P 1'
_cell_length_a   6.51581100
_cell_length_b   7.39764270
_cell_length_c   12.15760114
_cell_angle_alpha   89.94634688
_cell_angle_beta   98.24579484
_cell_angle_gamma   113.20447887
_symmetry_Int_Tables_number   1
_chemical_formula_structural   Mg5Si9
_chemical_formula_sum   'Mg10 Si18'
_cell_volume   532.04629870
_cell_formula_units_Z   2
loop_
 _symmetry_equiv_pos_site_id
 _symmetry_equiv_pos_as_xyz
  1  'x, y, z'
loop_
 _atom_site_type_symbol
 _atom_site_label
 _atom_site_symmetry_multiplicity
 _atom_site_fract_x
 _atom_site_fract_y
 _atom_site_fract_z
 _atom_site_occupancy
  Mg  Mg0  1  0.59554700  0.97487800  0.68061300  1
  Mg  Mg1  1  0.71869200  0.01897000  0.42070800  1
  Mg  Mg2  1  0.19037300  0.64992700  0.53035000  1
  Mg  Mg3  1  0.73246100  0.43711700  0.34405700  1
  Mg  Mg4  1  0.76427800  0.68848900  0.57143200  1
  Mg  Mg5  1  0.34753200  0.23019300  0.48412300  1
  Mg  Mg6  1  0.69238100  0.13934400  0.13351100  1
  Mg  Mg7  1  0.48913200  0.17539500  0.87546800  1
  Mg  Mg8  1  0.96296500  0.52865200  0.02777800  1
  Mg  Mg9  1  0.03191000  0.26264900  0.85657200  1
  Si  Si0  1  0.23752900  0.24688900  0.16461600  1
  Si  Si1  1  0.40021400  0.61136400  0.92829200  1
  Si  Si2  1  0.99314000  0.84825700  0.36769700  1
  Si  Si3  1  0.13687800  0.26128900  0.64827800  1
  Si  Si4  1  0.10386800  0.45426400  0.25622600  1
  Si  Si5  1  0.00225600  0.80290400  0.83101300  1
  Si  Si6  1  0.36768700  0.76775100  0.19651200  1
  Si  Si7  1  0.75937200  0.46516400  0.76566900  1
  Si  Si8  1  0.73931700  0.76349900  0.19494500  1
  Si  Si9  1  0.16984200  0.95391000  0.67443600  1
  Si  Si10  1  0.72654800  0.90785700  0.89778800  1
  Si  Si11  1  0.97150200  0.95393600  0.06683400  1
  Si  Si12  1  0.34840700  0.04192100  0.29227100  1
  Si  Si13  1  0.43630800  0.55435800  0.73423400  1
  Si  Si14  1  0.28341400  0.87454600  0.00114700  1
  Si  Si15  1  0.54347200  0.45501700  0.07617700  1
  Si  Si16  1  0.81099500  0.33204800  0.58939700  1
  Si  Si17  1  0.44355200  0.59931200  0.38959900  1
loop_
_geom_bond_atom_site_label_1
_geom_bond_atom_site_label_2
_geom_bond_distance
_geom_bond_site_symmetry_2
Mg0 Si9 2.706466 1_555
Mg0 Si10 2.762304 1_555
Mg0 Si16 2.774876 1_565
Mg0 Si13 2.970797 1_555
Mg1 Si2 2.705512 1_545
Mg1 Si12 2.744064 1_555
Mg1 Si17 2.901155 1_545
Mg1 Si16 2.913620 1_555
Mg2 Si17 2.662229 1_555
Mg2 Si16 2.842676 1_455
Mg2 Si9 2.907758 1_555
Mg2 Si2 2.909641 1_455
Mg2 Si13 2.993662 1_555
Mg2 Si3 3.128679 1_555
Mg3 Si17 2.714790 1_555
Mg3 Si4 2.740781 1_655
Mg3 Si2 2.829978 1_555
Mg3 Si12 2.998647 1_555
Mg3 Si8 3.007996 1_555
Mg3 Si16 3.103875 1_555
Mg4 Si17 2.698259 1_555
Mg4 Si9 2.715379 1_655
Mg4 Si16 2.775889 1_555
Mg4 Si7 2.877428 1_555
Mg4 Si13 3.001243 1_555
Mg4 Si2 3.069355 1_555
Mg5 Si3 2.637282 1_555
Mg5 Si12 2.719626 1_555
Mg5 Si17 2.832382 1_555
Mg5 Si16 2.902642 1_555
Mg5 Si2 3.040943 1_445
Mg5 Si9 3.125062 1_545
Mg6 Si14 2.861846 1_545
Mg6 Si11 2.869971 1_545
Mg6 Si15 2.910167 1_555
Mg6 Si6 2.914971 1_545
Mg6 Si4 2.962898 1_655
Mg6 Si8 2.997077 1_545
Mg6 Si12 3.038669 1_555
Mg7 Si7 2.678050 1_555
Mg7 Si14 2.704591 1_546
Mg7 Si10 2.945337 1_545
Mg7 Si9 2.974739 1_545
Mg7 Si15 3.089174 1_556
Mg8 Si14 2.644637 1_655
Mg8 Si15 2.720573 1_555
Mg8 Si4 2.919490 1_655
Mg8 Si6 3.011715 1_655
Mg8 Si1 3.093155 1_654
Mg8 Si5 3.108295 1_654
Mg8 Si11 3.159717 1_555
Mg8 Si7 3.230198 1_554
Mg9 Si10 2.695715 1_445
Mg9 Si3 2.717167 1_555
Mg9 Si1 2.774812 1_555
Mg9 Si7 2.854768 1_455
Si0 Si11 2.359650 1_445
Si0 Si4 2.384667 1_555
Si0 Si15 2.386121 1_555
Si0 Si12 2.401440 1_555
Si1 Si15 2.409784 1_556
Si1 Si10 2.453380 1_555
Si1 Si13 2.457341 1_555
Si1 Si14 2.553128 1_556
Si2 Si8 2.393407 1_555
Si3 Si9 2.383637 1_545
Si4 Si6 2.464431 1_555
Si5 Si9 2.386413 1_555
Si5 Si7 2.430077 1_455
Si6 Si8 2.436828 1_555
Si10 Si11 2.349285 1_556
Si10 Si5 2.451076 1_655
Si11 Si8 2.385704 1_555
Si11 Si14 2.553465 1_655
Si12 Si6 2.394148 1_545
Si12 Si2 2.498990 1_445
Si13 Si3 2.384335 1_555
Si13 Si7 2.424015 1_555
Si14 Si5 2.462803 1_554
Si14 Si6 2.555648 1_555
Si15 Si8 2.470606 1_555
Si16 Si3 2.394663 1_655
Si16 Si7 2.479364 1_555
Si17 Si4 2.404516 1_555
Si17 Si6 2.730328 1_555
