# generated using pymatgen
data_SbPt3
_symmetry_space_group_name_H-M   'P 1'
_cell_length_a   9.04529049
_cell_length_b   9.04529049
_cell_length_c   9.04529049
_cell_angle_alpha   154.75216303
_cell_angle_beta   154.75216303
_cell_angle_gamma   36.00726115
_symmetry_Int_Tables_number   1
_chemical_formula_structural   SbPt3
_chemical_formula_sum   'Sb2 Pt6'
_cell_volume   134.47112445
_cell_formula_units_Z   2
loop_
 _symmetry_equiv_pos_site_id
 _symmetry_equiv_pos_as_xyz
  1  'x, y, z'
loop_
 _atom_site_type_symbol
 _atom_site_label
 _atom_site_symmetry_multiplicity
 _atom_site_fract_x
 _atom_site_fract_y
 _atom_site_fract_z
 _atom_site_occupancy
  Sb  Sb0  1  0.86418446  0.86418446  0.00000000  1
  Sb  Sb1  1  0.13581554  0.13581554  -0.00000000  1
  Pt  Pt0  1  0.00000000  0.50000000  0.50000000  1
  Pt  Pt1  1  0.50000000  0.00000000  0.50000000  1
  Pt  Pt2  1  0.75000000  0.25000000  0.50000000  1
  Pt  Pt3  1  0.25000000  0.75000000  0.50000000  1
  Pt  Pt4  1  0.61372266  0.61372266  0.00000000  1
  Pt  Pt5  1  0.38627734  0.38627734  -0.00000000  1
loop_
_geom_bond_atom_site_label_1
_geom_bond_atom_site_label_2
_geom_bond_distance
_geom_bond_site_symmetry_2
Pt0 Pt5 2.781392 1_556
Pt0 Pt4 2.781392 1_455
Pt0 Pt4 2.781392 1_556
Pt0 Pt5 2.781392 1_455
Pt0 Pt1 2.795694 1_454
Pt0 Pt1 2.795694 1_555
Pt0 Pt1 2.795694 1_566
Pt0 Pt1 2.795694 1_465
Pt0 Sb0 3.060723 1_445
Pt0 Sb0 3.060723 1_456
Pt0 Sb1 3.060723 1_566
Pt0 Sb1 3.060723 1_555
Pt1 Pt5 2.781392 1_556
Pt1 Pt4 2.781392 1_545
Pt1 Pt5 2.781392 1_545
Pt1 Pt4 2.781392 1_556
Pt1 Sb0 3.060723 1_445
Pt1 Sb0 3.060723 1_546
Pt1 Sb1 3.060723 1_656
Pt1 Sb1 3.060723 1_555
Pt2 Sb1 2.786987 1_656
Pt2 Sb1 2.786987 1_555
Pt2 Sb0 2.786987 1_545
Pt2 Sb0 2.786987 1_556
Pt2 Pt3 2.795694 1_555
Pt2 Pt3 2.795694 1_656
Pt2 Pt3 2.795694 1_544
Pt2 Pt3 2.795694 1_645
Pt2 Pt5 3.066793 1_656
Pt2 Pt4 3.066793 1_545
Pt2 Pt4 3.066793 1_556
Pt2 Pt5 3.066793 1_555
Pt3 Sb1 2.786987 1_566
Pt3 Sb1 2.786987 1_555
Pt3 Sb0 2.786987 1_556
Pt3 Sb0 2.786987 1_455
Pt3 Pt5 3.066793 1_566
Pt3 Pt4 3.066793 1_556
Pt3 Pt5 3.066793 1_555
Pt3 Pt4 3.066793 1_455
Pt4 Sb1 2.821415 1_666
Pt4 Sb1 2.821415 1_554
Pt4 Sb1 2.821415 1_565
Pt4 Sb1 2.821415 1_655
Pt5 Sb0 2.821415 1_545
Pt5 Sb0 2.821415 1_455
Pt5 Sb0 2.821415 1_444
Pt5 Sb0 2.821415 1_556
