# generated using pymatgen
data_Ca2AsH4F13
_symmetry_space_group_name_H-M   'P 1'
_cell_length_a   7.31816200
_cell_length_b   7.31816200
_cell_length_c   17.75092800
_cell_angle_alpha   90.00000000
_cell_angle_beta   90.00000000
_cell_angle_gamma   90.00000000
_symmetry_Int_Tables_number   1
_chemical_formula_structural   Ca2AsH4F13
_chemical_formula_sum   'Ca8 As4 H16 F52'
_cell_volume   950.65973678
_cell_formula_units_Z   4
loop_
 _symmetry_equiv_pos_site_id
 _symmetry_equiv_pos_as_xyz
  1  'x, y, z'
loop_
 _atom_site_type_symbol
 _atom_site_label
 _atom_site_symmetry_multiplicity
 _atom_site_fract_x
 _atom_site_fract_y
 _atom_site_fract_z
 _atom_site_occupancy
  Ca  Ca0  1  0.24304000  0.22136100  0.03509800  1
  Ca  Ca1  1  0.75696000  0.77863900  0.53509800  1
  Ca  Ca2  1  0.77863900  0.24304000  0.28509800  1
  Ca  Ca3  1  0.75696000  0.22136100  0.96490200  1
  Ca  Ca4  1  0.22136100  0.75696000  0.78509800  1
  Ca  Ca5  1  0.24304000  0.77863900  0.46490200  1
  Ca  Ca6  1  0.22136100  0.24304000  0.71490200  1
  Ca  Ca7  1  0.77863900  0.75696000  0.21490200  1
  As  As0  1  0.50000000  0.71683400  0.00000000  1
  As  As1  1  0.50000000  0.28316600  0.50000000  1
  As  As2  1  0.28316600  0.50000000  0.25000000  1
  As  As3  1  0.71683400  0.50000000  0.75000000  1
  H  H0  1  0.11634600  0.03453800  0.18932100  1
  H  H1  1  0.88365400  0.96546200  0.68932100  1
  H  H2  1  0.96546200  0.11634600  0.43932100  1
  H  H3  1  0.88365400  0.03453800  0.81067900  1
  H  H4  1  0.03453800  0.88365400  0.93932100  1
  H  H5  1  0.11634600  0.96546200  0.31067900  1
  H  H6  1  0.03453800  0.11634600  0.56067900  1
  H  H7  1  0.96546200  0.88365400  0.06067900  1
  H  H8  1  0.61277600  0.12839000  0.12767600  1
  H  H9  1  0.38722400  0.87161000  0.62767600  1
  H  H10  1  0.87161000  0.61277600  0.37767600  1
  H  H11  1  0.38722400  0.12839000  0.87232400  1
  H  H12  1  0.12839000  0.38722400  0.87767600  1
  H  H13  1  0.61277600  0.87161000  0.37232400  1
  H  H14  1  0.12839000  0.61277600  0.62232400  1
  H  H15  1  0.87161000  0.38722400  0.12232400  1
  F  F0  1  0.11331300  0.33296700  0.26680800  1
  F  F1  1  0.88668700  0.66703300  0.76680800  1
  F  F2  1  0.66703300  0.11331300  0.51680800  1
  F  F3  1  0.88668700  0.33296700  0.73319200  1
  F  F4  1  0.33296700  0.88668700  0.01680800  1
  F  F5  1  0.11331300  0.66703300  0.23319200  1
  F  F6  1  0.33296700  0.11331300  0.48319200  1
  F  F7  1  0.66703300  0.88668700  0.98319200  1
  F  F8  1  0.00000000  0.00606600  0.00000000  1
  F  F9  1  0.00000000  0.99393400  0.50000000  1
  F  F10  1  0.99393400  0.00000000  0.25000000  1
  F  F11  1  0.00606600  0.00000000  0.75000000  1
  F  F12  1  0.67178200  0.06374800  0.17992300  1
  F  F13  1  0.32821800  0.93625200  0.67992300  1
  F  F14  1  0.93625200  0.67178200  0.42992300  1
  F  F15  1  0.32821800  0.06374800  0.82007700  1
  F  F16  1  0.06374800  0.32821800  0.92992300  1
  F  F17  1  0.67178200  0.93625200  0.32007700  1
  F  F18  1  0.06374800  0.67178200  0.57007700  1
  F  F19  1  0.93625200  0.32821800  0.07007700  1
  F  F20  1  0.55795100  0.19683200  0.07152600  1
  F  F21  1  0.44204900  0.80316800  0.57152600  1
  F  F22  1  0.80316800  0.55795100  0.32152600  1
  F  F23  1  0.44204900  0.19683200  0.92847400  1
  F  F24  1  0.19683200  0.44204900  0.82152600  1
  F  F25  1  0.55795100  0.80316800  0.42847400  1
  F  F26  1  0.19683200  0.55795100  0.67847400  1
  F  F27  1  0.80316800  0.44204900  0.17847400  1
  F  F28  1  0.45607100  0.33262200  0.26426900  1
  F  F29  1  0.54392900  0.66737800  0.76426900  1
  F  F30  1  0.66737800  0.45607100  0.51426900  1
  F  F31  1  0.54392900  0.33262200  0.73573100  1
  F  F32  1  0.33262200  0.54392900  0.01426900  1
  F  F33  1  0.45607100  0.66737800  0.23573100  1
  F  F34  1  0.33262200  0.45607100  0.48573100  1
  F  F35  1  0.66737800  0.54392900  0.98573100  1
  F  F36  1  0.28189700  0.44527600  0.15321200  1
  F  F37  1  0.71810300  0.55472400  0.65321200  1
  F  F38  1  0.55472400  0.28189700  0.40321200  1
  F  F39  1  0.71810300  0.44527600  0.84678800  1
  F  F40  1  0.44527600  0.71810300  0.90321200  1
  F  F41  1  0.28189700  0.55472400  0.34678800  1
  F  F42  1  0.44527600  0.28189700  0.59678800  1
  F  F43  1  0.55472400  0.71810300  0.09678800  1
  F  F44  1  0.20481600  0.06212600  0.14810500  1
  F  F45  1  0.79518400  0.93787400  0.64810500  1
  F  F46  1  0.93787400  0.20481600  0.39810500  1
  F  F47  1  0.79518400  0.06212600  0.85189500  1
  F  F48  1  0.06212600  0.79518400  0.89810500  1
  F  F49  1  0.20481600  0.93787400  0.35189500  1
  F  F50  1  0.06212600  0.20481600  0.60189500  1
  F  F51  1  0.93787400  0.79518400  0.10189500  1
loop_
_geom_bond_atom_site_label_1
_geom_bond_atom_site_label_2
_geom_bond_distance
_geom_bond_site_symmetry_2
Ca0 F44 2.336695 1_555
Ca0 F23 2.394887 1_554
Ca0 F20 2.400291 1_555
Ca0 F16 2.412180 1_554
Ca0 F8 2.456420 1_555
Ca0 F19 2.457159 1_455
Ca0 F32 2.477688 1_555
Ca0 F4 2.556771 1_545
Ca0 F36 2.676171 1_555
Ca1 F45 2.336695 1_555
Ca1 F25 2.394887 1_555
Ca1 F21 2.400291 1_555
Ca1 F14 2.412180 1_555
Ca1 F9 2.456420 1_655
Ca1 F18 2.457159 1_655
Ca1 F30 2.477688 1_555
Ca1 F2 2.556771 1_565
Ca1 F37 2.676171 1_555
Ca2 F46 2.336695 1_555
Ca2 F27 2.394887 1_555
Ca2 F22 2.400291 1_555
Ca2 F12 2.412180 1_555
Ca2 F10 2.456420 1_555
Ca2 F17 2.457159 1_545
Ca2 F28 2.477688 1_555
Ca2 F0 2.556771 1_655
Ca2 F38 2.676171 1_555
Ca3 F47 2.336695 1_555
Ca3 F20 2.394887 1_556
Ca3 F23 2.400291 1_555
Ca3 F19 2.412180 1_556
Ca3 F8 2.456420 1_656
Ca3 F16 2.457159 1_655
Ca3 F35 2.477688 1_555
Ca3 F7 2.556771 1_545
Ca3 F39 2.676171 1_555
Ca4 F48 2.336695 1_555
Ca4 F26 2.394887 1_555
Ca4 F24 2.400291 1_555
Ca4 F13 2.412180 1_555
Ca4 F11 2.456420 1_565
Ca4 F15 2.457159 1_565
Ca4 F29 2.477688 1_555
Ca4 F1 2.556771 1_455
Ca4 F40 2.676171 1_555
Ca5 F49 2.336695 1_555
Ca5 F21 2.394887 1_555
Ca5 F25 2.400291 1_555
Ca5 F18 2.412180 1_555
Ca5 F9 2.456420 1_555
Ca5 F14 2.457159 1_455
Ca5 F34 2.477688 1_555
Ca5 F6 2.556771 1_565
Ca5 F41 2.676171 1_555
Ca6 F50 2.336695 1_555
Ca6 F24 2.394887 1_555
Ca6 F26 2.400291 1_555
Ca6 F15 2.412180 1_555
Ca6 F11 2.456420 1_555
Ca6 F13 2.457159 1_545
Ca6 F31 2.477688 1_555
Ca6 F3 2.556771 1_455
Ca6 F42 2.676171 1_555
Ca7 F51 2.336695 1_555
Ca7 F22 2.394887 1_555
Ca7 F27 2.400291 1_555
Ca7 F17 2.412180 1_555
Ca7 F10 2.456420 1_565
Ca7 F12 2.457159 1_565
Ca7 F33 2.477688 1_555
Ca7 F5 2.556771 1_655
Ca7 F43 2.676171 1_555
As0 F43 1.764159 1_555
As0 F40 1.764159 1_554
As0 F7 1.768699 1_554
As0 F4 1.768699 1_555
As0 F35 1.779223 1_554
As0 F32 1.779223 1_555
As1 F42 1.764159 1_555
As1 F38 1.764159 1_555
As1 F2 1.768699 1_555
As1 F6 1.768699 1_555
As1 F30 1.779223 1_555
As1 F34 1.779223 1_555
As2 F41 1.764159 1_555
As2 F36 1.764159 1_555
As2 F5 1.768699 1_555
As2 F0 1.768699 1_555
As2 F33 1.779223 1_555
As2 F28 1.779223 1_555
As3 F39 1.764159 1_555
As3 F37 1.764159 1_555
As3 F1 1.768699 1_555
As3 F3 1.768699 1_555
As3 F29 1.779223 1_555
As3 F31 1.779223 1_555
F8 H4 1.423573 1_544
F8 H7 1.423573 1_445
F9 H6 1.423573 1_565
F9 H2 1.423573 1_465
F10 H0 1.423573 1_655
F10 H5 1.423573 1_645
F11 H3 1.423573 1_455
F11 H1 1.423573 1_445
F12 H8 1.127112 1_555
F13 H9 1.127112 1_555
F14 H10 1.127112 1_555
F15 H11 1.127112 1_555
F16 H12 1.127112 1_555
F17 H13 1.127112 1_555
F18 H14 1.127112 1_555
F19 H15 1.127112 1_555
F20 H8 1.185448 1_555
F21 H9 1.185448 1_555
F22 H10 1.185448 1_555
F23 H11 1.185448 1_555
F24 H12 1.185448 1_555
F25 H13 1.185448 1_555
F26 H14 1.185448 1_555
F27 H15 1.185448 1_555
F44 H0 0.997601 1_555
F45 H1 0.997601 1_555
F46 H2 0.997601 1_555
F47 H3 0.997601 1_555
F48 H4 0.997601 1_555
F49 H5 0.997601 1_555
F50 H6 0.997601 1_555
F51 H7 0.997601 1_555
