# generated using pymatgen
data_Pr2(AlCu)5
_symmetry_space_group_name_H-M   'P 1'
_cell_length_a   4.07123800
_cell_length_b   5.28866008
_cell_length_c   9.60724232
_cell_angle_alpha   89.99999938
_cell_angle_beta   90.00000000
_cell_angle_gamma   90.00000000
_symmetry_Int_Tables_number   1
_chemical_formula_structural   Pr2(AlCu)5
_chemical_formula_sum   'Pr2 Al5 Cu5'
_cell_volume   206.85731838
_cell_formula_units_Z   1
loop_
 _symmetry_equiv_pos_site_id
 _symmetry_equiv_pos_as_xyz
  1  'x, y, z'
loop_
 _atom_site_type_symbol
 _atom_site_label
 _atom_site_symmetry_multiplicity
 _atom_site_fract_x
 _atom_site_fract_y
 _atom_site_fract_z
 _atom_site_occupancy
  Pr  Pr0  1  0.00000000  0.99998700  0.00000000  1
  Pr  Pr1  1  0.00000000  0.49997800  0.50000000  1
  Al  Al0  1  0.00000000  0.99998000  0.33186100  1
  Al  Al1  1  0.00000000  0.49997700  0.81406900  1
  Al  Al2  1  0.00000000  0.49997700  0.18593100  1
  Al  Al3  1  0.00000000  0.99998000  0.66813900  1
  Al  Al4  1  0.50000000  0.49999000  0.00000000  1
  Cu  Cu0  1  0.50000000  0.00001600  0.50000000  1
  Cu  Cu1  1  0.50000000  0.24690500  0.24808800  1
  Cu  Cu2  1  0.50000000  0.75305200  0.75191300  1
  Cu  Cu3  1  0.50000000  0.75305200  0.24808700  1
  Cu  Cu4  1  0.50000000  0.24690500  0.75191200  1
loop_
_geom_bond_atom_site_label_1
_geom_bond_atom_site_label_2
_geom_bond_distance
_geom_bond_site_symmetry_2
Al0 Cu1 2.548896 1_565
Al0 Cu1 2.548896 1_465
Al0 Cu3 2.548908 1_555
Al0 Cu3 2.548908 1_455
Al0 Cu0 2.598674 1_465
Al0 Cu0 2.598674 1_565
Al0 Pr1 3.098675 1_565
Al0 Pr1 3.098693 1_555
Al0 Pr0 3.188269 1_555
Al1 Cu4 2.508324 1_555
Al1 Cu4 2.508324 1_455
Al1 Cu2 2.508330 1_555
Al1 Cu2 2.508330 1_455
Al1 Al4 2.708239 1_556
Al1 Al4 2.708239 1_456
Al1 Pr1 3.017337 1_555
Al1 Pr0 3.191083 1_546
Al1 Pr0 3.191171 1_556
Al2 Cu1 2.508324 1_455
Al2 Cu1 2.508324 1_555
Al2 Cu3 2.508330 1_555
Al2 Cu3 2.508330 1_455
Al2 Al4 2.708239 1_555
Al2 Al4 2.708239 1_455
Al2 Pr1 3.017337 1_555
Al2 Pr0 3.191083 1_545
Al2 Pr0 3.191171 1_555
Al3 Cu4 2.548896 1_565
Al3 Cu4 2.548896 1_465
Al3 Cu2 2.548908 1_455
Al3 Cu2 2.548908 1_555
Al3 Cu0 2.598674 1_565
Al3 Cu0 2.598674 1_465
Al3 Pr1 3.098675 1_565
Al3 Pr1 3.098693 1_555
Al3 Pr0 3.188269 1_556
Al4 Cu2 2.733487 1_554
Al4 Cu3 2.733487 1_555
Al4 Cu1 2.733555 1_555
Al4 Cu4 2.733555 1_554
Al4 Pr0 3.337086 1_555
Al4 Pr0 3.337086 1_655
Al4 Pr0 3.337111 1_645
Al4 Pr0 3.337111 1_545
Cu0 Cu1 2.749937 1_555
Cu0 Cu4 2.749937 1_555
Cu0 Cu2 2.750134 1_545
Cu0 Cu3 2.750134 1_545
Cu0 Pr1 3.336939 1_655
Cu0 Pr1 3.336939 1_555
Cu0 Pr1 3.337258 1_545
Cu0 Pr1 3.337258 1_645
Cu1 Cu3 2.611821 1_545
Cu1 Cu3 2.676839 1_555
Cu1 Pr0 3.395559 1_545
Cu1 Pr0 3.395559 1_645
Cu1 Pr1 3.434003 1_655
Cu1 Pr1 3.434003 1_555
Cu2 Cu4 2.611821 1_565
Cu2 Cu4 2.676839 1_555
Cu2 Pr0 3.395587 1_556
Cu2 Pr0 3.395587 1_656
Cu2 Pr1 3.434012 1_555
Cu2 Pr1 3.434012 1_655
Cu3 Pr0 3.395587 1_555
Cu3 Pr0 3.395587 1_655
Cu3 Pr1 3.434012 1_655
Cu3 Pr1 3.434012 1_555
Cu4 Pr0 3.395559 1_546
Cu4 Pr0 3.395559 1_646
Cu4 Pr1 3.434003 1_655
Cu4 Pr1 3.434003 1_555
