# generated using pymatgen
data_Rb2U6Pd4Se17
_symmetry_space_group_name_H-M   'P 1'
_cell_length_a   10.72996695
_cell_length_b   10.72996695
_cell_length_c   13.43217574
_cell_angle_alpha   90.00000000
_cell_angle_beta   90.00000000
_cell_angle_gamma   90.00000000
_symmetry_Int_Tables_number   1
_chemical_formula_structural   Rb2U6Pd4Se17
_chemical_formula_sum   'Rb4 U12 Pd8 Se34'
_cell_volume   1546.47581946
_cell_formula_units_Z   2
loop_
 _symmetry_equiv_pos_site_id
 _symmetry_equiv_pos_as_xyz
  1  'x, y, z'
loop_
 _atom_site_type_symbol
 _atom_site_label
 _atom_site_symmetry_multiplicity
 _atom_site_fract_x
 _atom_site_fract_y
 _atom_site_fract_z
 _atom_site_occupancy
  Rb  Rb0  1  0.50000000  0.50000000  0.22095136  1
  Rb  Rb1  1  -0.00000000  0.00000000  0.72095136  1
  Rb  Rb2  1  0.50000000  0.50000000  0.77904864  1
  Rb  Rb3  1  -0.00000000  0.00000000  0.27904864  1
  U  U0  1  0.61771308  0.74085811  0.50000000  1
  U  U1  1  0.38228692  0.25914189  0.50000000  1
  U  U2  1  0.88228692  0.24085811  0.00000000  1
  U  U3  1  0.11771308  0.75914189  0.00000000  1
  U  U4  1  0.74085811  0.38228692  0.50000000  1
  U  U5  1  0.25914189  0.61771308  0.50000000  1
  U  U6  1  0.24085811  0.11771308  0.00000000  1
  U  U7  1  0.75914189  0.88228692  0.00000000  1
  U  U8  1  -0.00000000  0.50000000  0.25000000  1
  U  U9  1  0.50000000  0.00000000  0.75000000  1
  U  U10  1  0.50000000  0.00000000  0.25000000  1
  U  U11  1  -0.00000000  0.50000000  0.75000000  1
  Pd  Pd0  1  0.93214794  0.63708155  0.50000000  1
  Pd  Pd1  1  0.06785206  0.36291845  0.50000000  1
  Pd  Pd2  1  0.56785206  0.13708155  0.00000000  1
  Pd  Pd3  1  0.43214794  0.86291845  0.00000000  1
  Pd  Pd4  1  0.63708155  0.06785206  0.50000000  1
  Pd  Pd5  1  0.36291845  0.93214794  0.50000000  1
  Pd  Pd6  1  0.13708155  0.43214794  0.00000000  1
  Pd  Pd7  1  0.86291845  0.56785206  0.00000000  1
  Se  Se0  1  0.77489642  0.59116739  0.36613629  1
  Se  Se1  1  0.22510358  0.40883261  0.36613629  1
  Se  Se2  1  0.72510358  0.09116739  0.86613629  1
  Se  Se3  1  0.27489642  0.90883261  0.86613629  1
  Se  Se4  1  0.59116739  0.22510358  0.36613629  1
  Se  Se5  1  0.40883261  0.77489642  0.36613629  1
  Se  Se6  1  0.09116739  0.27489642  0.86613629  1
  Se  Se7  1  0.90883261  0.72510358  0.86613629  1
  Se  Se8  1  0.22510358  0.40883261  0.63386371  1
  Se  Se9  1  0.77489642  0.59116739  0.63386371  1
  Se  Se10  1  0.27489642  0.90883261  0.13386371  1
  Se  Se11  1  0.72510358  0.09116739  0.13386371  1
  Se  Se12  1  0.40883261  0.77489642  0.63386371  1
  Se  Se13  1  0.59116739  0.22510358  0.63386371  1
  Se  Se14  1  0.90883261  0.72510358  0.13386371  1
  Se  Se15  1  0.09116739  0.27489642  0.13386371  1
  Se  Se16  1  0.57901344  0.78945337  0.13166659  1
  Se  Se17  1  0.42098656  0.21054663  0.13166659  1
  Se  Se18  1  0.92098656  0.28945337  0.63166659  1
  Se  Se19  1  0.07901344  0.71054663  0.63166659  1
  Se  Se20  1  0.78945337  0.42098656  0.13166659  1
  Se  Se21  1  0.21054663  0.57901344  0.13166659  1
  Se  Se22  1  0.28945337  0.07901344  0.63166659  1
  Se  Se23  1  0.71054663  0.92098656  0.63166659  1
  Se  Se24  1  0.42098656  0.21054663  0.86833341  1
  Se  Se25  1  0.57901344  0.78945337  0.86833341  1
  Se  Se26  1  0.07901344  0.71054663  0.36833341  1
  Se  Se27  1  0.92098656  0.28945337  0.36833341  1
  Se  Se28  1  0.21054663  0.57901344  0.86833341  1
  Se  Se29  1  0.78945337  0.42098656  0.86833341  1
  Se  Se30  1  0.71054663  0.92098656  0.36833341  1
  Se  Se31  1  0.28945337  0.07901344  0.36833341  1
  Se  Se32  1  0.50000000  0.50000000  0.50000000  1
  Se  Se33  1  -0.00000000  0.00000000  0.00000000  1
loop_
_geom_bond_atom_site_label_1
_geom_bond_atom_site_label_2
_geom_bond_distance
_geom_bond_site_symmetry_2
Rb0 Se17 3.435583 1_555
Rb0 Se21 3.435583 1_555
Rb0 Se20 3.435583 1_555
Rb0 Se16 3.435583 1_555
Rb0 Se0 3.668831 1_555
Rb0 Se5 3.668831 1_555
Rb0 Se4 3.668831 1_555
Rb0 Se1 3.668831 1_555
Rb0 Se32 3.748230 1_555
Rb1 Se22 3.435583 1_555
Rb1 Se18 3.435583 1_455
Rb1 Se23 3.435583 1_445
Rb1 Se19 3.435583 1_545
Rb1 Se3 3.668831 1_545
Rb1 Se6 3.668831 1_555
Rb1 Se2 3.668831 1_455
Rb1 Se7 3.668831 1_445
Rb1 Se33 3.748230 1_556
Rb2 Se28 3.435583 1_555
Rb2 Se24 3.435583 1_555
Rb2 Se25 3.435583 1_555
Rb2 Se29 3.435583 1_555
Rb2 Se9 3.668831 1_555
Rb2 Se13 3.668831 1_555
Rb2 Se8 3.668831 1_555
Rb2 Se12 3.668831 1_555
Rb2 Se32 3.748230 1_555
Rb3 Se31 3.435583 1_555
Rb3 Se27 3.435583 1_455
Rb3 Se26 3.435583 1_545
Rb3 Se30 3.435583 1_445
Rb3 Se10 3.668831 1_545
Rb3 Se14 3.668831 1_445
Rb3 Se15 3.668831 1_555
Rb3 Se11 3.668831 1_455
Rb3 Se33 3.748230 1_555
Pd0 Se26 2.496509 1_655
Pd0 Se19 2.496509 1_655
Pd0 Se9 2.514518 1_555
Pd0 Se0 2.514518 1_555
Pd1 Se27 2.496509 1_455
Pd1 Se18 2.496509 1_455
Pd1 Se8 2.514518 1_555
Pd1 Se1 2.514518 1_555
Pd2 Se17 2.496509 1_555
Pd2 Se24 2.496509 1_554
Pd2 Se2 2.514518 1_554
Pd2 Se11 2.514518 1_555
Pd3 Se16 2.496509 1_555
Pd3 Se25 2.496509 1_554
Pd3 Se10 2.514518 1_555
Pd3 Se3 2.514518 1_554
Pd4 Se30 2.496509 1_545
Pd4 Se23 2.496509 1_545
Pd4 Se13 2.514518 1_555
Pd4 Se4 2.514518 1_555
Pd5 Se31 2.496509 1_565
Pd5 Se22 2.496509 1_565
Pd5 Se12 2.514518 1_555
Pd5 Se5 2.514518 1_555
Pd6 Se21 2.496509 1_555
Pd6 Se28 2.496509 1_554
Pd6 Se15 2.514518 1_555
Pd6 Se6 2.514518 1_554
Pd7 Se20 2.496509 1_555
Pd7 Se29 2.496509 1_554
Pd7 Se7 2.514518 1_554
Pd7 Se14 2.514518 1_555
Se0 U4 2.896520 1_555
Se0 U0 2.942350 1_555
Se0 U8 3.037160 1_655
Se1 U5 2.896520 1_555
Se1 U1 2.942350 1_555
Se1 U8 3.037160 1_555
Se2 U7 2.896520 1_546
Se2 U2 2.942350 1_556
Se2 U9 3.037160 1_555
Se3 U6 2.896520 1_566
Se3 U3 2.942350 1_556
Se3 U9 3.037160 1_565
Se4 U1 2.896520 1_555
Se4 U4 2.942350 1_555
Se4 U10 3.037160 1_555
Se5 U0 2.896520 1_555
Se5 U5 2.942350 1_555
Se5 U10 3.037160 1_565
Se6 U2 2.896520 1_456
Se6 U6 2.942350 1_556
Se6 U11 3.037160 1_555
Se7 U3 2.896520 1_656
Se7 U7 2.942350 1_556
Se7 U11 3.037160 1_655
Se8 U5 2.896520 1_555
Se8 U1 2.942350 1_555
Se8 U11 3.037160 1_555
Se9 U4 2.896520 1_555
Se9 U0 2.942350 1_555
Se9 U11 3.037160 1_655
Se10 U6 2.896520 1_565
Se10 U3 2.942350 1_555
Se10 U10 3.037160 1_565
Se11 U7 2.896520 1_545
Se11 U2 2.942350 1_555
Se11 U10 3.037160 1_555
Se12 U0 2.896520 1_555
Se12 U5 2.942350 1_555
Se12 U9 3.037160 1_565
Se13 U1 2.896520 1_555
Se13 U4 2.942350 1_555
Se13 U9 3.037160 1_555
Se14 U3 2.896520 1_655
Se14 U7 2.942350 1_555
Se14 U8 3.037160 1_655
Se15 U2 2.896520 1_455
Se15 U6 2.942350 1_555
Se15 U8 3.037160 1_555
Se16 U7 2.802795 1_555
Se16 U10 2.889466 1_565
Se17 U6 2.802795 1_555
Se17 U10 2.889466 1_555
Se18 U4 2.802795 1_555
Se18 U11 2.889466 1_655
Se19 U5 2.802795 1_555
Se19 U11 2.889466 1_555
Se20 U2 2.802795 1_555
Se20 U8 2.889466 1_655
Se21 U3 2.802795 1_555
Se21 U8 2.889466 1_555
Se22 U1 2.802795 1_555
Se22 U9 2.889466 1_555
Se23 U0 2.802795 1_555
Se23 U9 2.889466 1_565
Se24 U6 2.802795 1_556
Se24 U9 2.889466 1_555
Se25 U7 2.802795 1_556
Se25 U9 2.889466 1_565
Se26 U5 2.802795 1_555
Se26 U8 2.889466 1_555
Se27 U4 2.802795 1_555
Se27 U8 2.889466 1_655
Se28 U3 2.802795 1_556
Se28 U11 2.889466 1_555
Se29 U2 2.802795 1_556
Se29 U11 2.889466 1_655
Se30 U0 2.802795 1_555
Se30 U10 2.889466 1_565
Se31 U1 2.802795 1_555
Se31 U10 2.889466 1_555
Se32 U1 2.876532 1_555
Se32 U4 2.876532 1_555
Se32 U0 2.876532 1_555
Se32 U5 2.876532 1_555
Se33 U3 2.876532 1_545
Se33 U6 2.876532 1_555
Se33 U2 2.876532 1_455
Se33 U7 2.876532 1_445
