# generated using pymatgen
data_Cs2LiMoF6
_symmetry_space_group_name_H-M   'P 1'
_cell_length_a   6.22108700
_cell_length_b   6.22108779
_cell_length_c   6.22108781
_cell_angle_alpha   60.00000246
_cell_angle_beta   59.99999901
_cell_angle_gamma   59.99999886
_symmetry_Int_Tables_number   1
_chemical_formula_structural   Cs2LiMoF6
_chemical_formula_sum   'Cs2 Li1 Mo1 F6'
_cell_volume   170.24875296
_cell_formula_units_Z   1
loop_
 _symmetry_equiv_pos_site_id
 _symmetry_equiv_pos_as_xyz
  1  'x, y, z'
loop_
 _atom_site_type_symbol
 _atom_site_label
 _atom_site_symmetry_multiplicity
 _atom_site_fract_x
 _atom_site_fract_y
 _atom_site_fract_z
 _atom_site_occupancy
  Cs  Cs0  1  0.25000000  0.25000000  0.25000000  1
  Cs  Cs1  1  0.75000000  0.75000000  0.75000000  1
  Li  Li0  1  0.50000000  0.50000000  0.50000000  1
  Mo  Mo0  1  0.00000000  0.00000000  0.00000000  1
  F  F0  1  0.23895100  0.76104900  0.23895100  1
  F  F1  1  0.76104900  0.76104900  0.23895100  1
  F  F2  1  0.76104900  0.23895100  0.76104900  1
  F  F3  1  0.76104900  0.23895100  0.23895100  1
  F  F4  1  0.23895100  0.76104900  0.76104900  1
  F  F5  1  0.23895100  0.23895100  0.76104900  1
loop_
_geom_bond_atom_site_label_1
_geom_bond_atom_site_label_2
_geom_bond_distance
_geom_bond_site_symmetry_2
Cs0 F3 3.112062 1_555
Cs0 F3 3.112062 1_455
Cs0 F1 3.112062 1_545
Cs0 F2 3.112062 1_554
Cs0 F1 3.112062 1_455
Cs0 F2 3.112062 1_455
Cs0 F0 3.112062 1_545
Cs0 F0 3.112062 1_555
Cs0 F5 3.112062 1_554
Cs0 F5 3.112062 1_555
Cs0 F4 3.112063 1_554
Cs0 F4 3.112063 1_545
Cs1 F4 3.112062 1_555
Cs1 F4 3.112062 1_655
Cs1 F5 3.112062 1_565
Cs1 F0 3.112062 1_556
Cs1 F5 3.112062 1_655
Cs1 F0 3.112062 1_655
Cs1 F2 3.112062 1_565
Cs1 F2 3.112062 1_555
Cs1 F1 3.112062 1_556
Cs1 F1 3.112062 1_555
Cs1 F3 3.112063 1_556
Cs1 F3 3.112063 1_565
F0 Mo0 2.102278 1_565
F0 Li0 2.296695 1_555
F1 Mo0 2.102278 1_665
F1 Li0 2.296695 1_555
F2 Mo0 2.102278 1_656
F2 Li0 2.296695 1_555
F3 Mo0 2.102278 1_655
F3 Li0 2.296695 1_555
F4 Mo0 2.102278 1_566
F4 Li0 2.296695 1_555
F5 Mo0 2.102278 1_556
F5 Li0 2.296695 1_555
