# generated using pymatgen
data_KLaNb2O7
_symmetry_space_group_name_H-M   'P 1'
_cell_length_a   3.93270200
_cell_length_b   3.94580000
_cell_length_c   11.35639878
_cell_angle_alpha   79.99548118
_cell_angle_beta   90.00000000
_cell_angle_gamma   90.00000000
_symmetry_Int_Tables_number   1
_chemical_formula_structural   KLaNb2O7
_chemical_formula_sum   'K1 La1 Nb2 O7'
_cell_volume   173.54502164
_cell_formula_units_Z   1
loop_
 _symmetry_equiv_pos_site_id
 _symmetry_equiv_pos_as_xyz
  1  'x, y, z'
loop_
 _atom_site_type_symbol
 _atom_site_label
 _atom_site_symmetry_multiplicity
 _atom_site_fract_x
 _atom_site_fract_y
 _atom_site_fract_z
 _atom_site_occupancy
  K  K0  1  0.00000000  0.23418000  0.53164100  1
  La  La0  1  0.00000000  0.99897300  0.00205300  1
  Nb  Nb0  1  0.50000000  0.39660100  0.20679800  1
  Nb  Nb1  1  0.50000000  0.60223900  0.79552200  1
  O  O0  1  0.50000000  0.08439400  0.83121200  1
  O  O1  1  0.50000000  0.91698100  0.16603800  1
  O  O2  1  0.00000000  0.41723400  0.16553200  1
  O  O3  1  0.00000000  0.58362000  0.83276000  1
  O  O4  1  0.50000000  0.31631800  0.36736500  1
  O  O5  1  0.50000000  0.68359800  0.63280500  1
  O  O6  1  0.50000000  0.50066200  0.99867500  1
loop_
_geom_bond_atom_site_label_1
_geom_bond_atom_site_label_2
_geom_bond_distance
_geom_bond_site_symmetry_2
K0 O4 2.691078 1_555
K0 O4 2.691078 1_455
K0 O5 3.006478 1_455
K0 O5 3.006478 1_555
K0 O5 3.006478 1_445
K0 O5 3.006478 1_545
La0 O1 2.688857 1_455
La0 O1 2.688857 1_555
La0 O2 2.689799 1_555
La0 O2 2.689801 1_565
La0 O3 2.734411 1_554
La0 O3 2.734414 1_564
La0 O0 2.741727 1_464
La0 O0 2.741727 1_564
La0 O6 2.785731 1_564
La0 O6 2.785731 1_464
La0 O6 2.785731 1_454
La0 O6 2.785731 1_554
Nb0 O4 1.795735 1_555
Nb0 O2 2.019783 1_655
Nb0 O2 2.019783 1_555
Nb0 O1 2.024878 1_555
Nb0 O1 2.024878 1_545
Nb0 O6 2.327588 1_554
Nb1 O5 1.819780 1_555
Nb1 O3 2.009969 1_655
Nb1 O3 2.009969 1_555
Nb1 O0 2.012872 1_555
Nb1 O0 2.012872 1_565
Nb1 O6 2.272005 1_555
