# generated using pymatgen
data_Sb2O3
_symmetry_space_group_name_H-M   'P 1'
_cell_length_a   7.93430228
_cell_length_b   7.93430258
_cell_length_c   7.93430209
_cell_angle_alpha   59.99999758
_cell_angle_beta   59.99999635
_cell_angle_gamma   60.00000136
_symmetry_Int_Tables_number   1
_chemical_formula_structural   Sb2O3
_chemical_formula_sum   'Sb8 O12'
_cell_volume   353.19229385
_cell_formula_units_Z   4
loop_
 _symmetry_equiv_pos_site_id
 _symmetry_equiv_pos_as_xyz
  1  'x, y, z'
loop_
 _atom_site_type_symbol
 _atom_site_label
 _atom_site_symmetry_multiplicity
 _atom_site_fract_x
 _atom_site_fract_y
 _atom_site_fract_z
 _atom_site_occupancy
  Sb  Sb0  1  0.71868082  0.26043939  0.26043939  1
  Sb  Sb1  1  0.73956061  0.73956061  0.73956061  1
  Sb  Sb2  1  0.73956061  0.73956061  0.28131918  1
  Sb  Sb3  1  0.73956061  0.28131918  0.73956061  1
  Sb  Sb4  1  0.26043939  0.26043939  0.71868082  1
  Sb  Sb5  1  0.26043939  0.71868082  0.26043939  1
  Sb  Sb6  1  0.26043939  0.26043939  0.26043939  1
  Sb  Sb7  1  0.28131918  0.73956061  0.73956061  1
  O  O0  1  0.81053398  0.43946602  0.43946602  1
  O  O1  1  0.56053398  0.18946602  0.18946602  1
  O  O2  1  0.43946602  0.81053398  0.43946602  1
  O  O3  1  0.43946602  0.43946602  0.81053398  1
  O  O4  1  0.81053398  0.81053398  0.43946602  1
  O  O5  1  0.81053398  0.43946602  0.81053398  1
  O  O6  1  0.56053398  0.18946602  0.56053398  1
  O  O7  1  0.18946602  0.56053398  0.18946602  1
  O  O8  1  0.43946602  0.81053398  0.81053398  1
  O  O9  1  0.18946602  0.18946602  0.56053398  1
  O  O10  1  0.56053398  0.56053398  0.18946602  1
  O  O11  1  0.18946602  0.56053398  0.56053398  1
loop_
_geom_bond_atom_site_label_1
_geom_bond_atom_site_label_2
_geom_bond_distance
_geom_bond_site_symmetry_2
O0 Sb3 1.984700 1_555
O0 Sb2 1.984700 1_555
O1 Sb0 1.984694 1_555
O1 Sb6 1.984701 1_555
O2 Sb7 1.984700 1_555
O2 Sb2 1.984700 1_555
O3 Sb3 1.984700 1_555
O3 Sb7 1.984700 1_555
O4 Sb2 1.984694 1_555
O4 Sb1 1.984701 1_555
O5 Sb3 1.984694 1_555
O5 Sb1 1.984702 1_555
O6 Sb0 1.984700 1_555
O6 Sb4 1.984700 1_555
O7 Sb5 1.984694 1_555
O7 Sb6 1.984702 1_555
O8 Sb7 1.984694 1_555
O8 Sb1 1.984701 1_555
O9 Sb4 1.984694 1_555
O9 Sb6 1.984701 1_555
O10 Sb5 1.984700 1_555
O10 Sb0 1.984700 1_555
O11 Sb5 1.984700 1_555
O11 Sb4 1.984700 1_555
