# generated using pymatgen
data_Mn5V2(HO3)4
_symmetry_space_group_name_H-M   'P 1'
_cell_length_a   6.89403972
_cell_length_b   6.89403972
_cell_length_c   5.48099946
_cell_angle_alpha   83.44973868
_cell_angle_beta   83.44973868
_cell_angle_gamma   89.38269622
_symmetry_Int_Tables_number   1
_chemical_formula_structural   Mn5V2(HO3)4
_chemical_formula_sum   'Mn5 V2 H4 O12'
_cell_volume   257.10919791
_cell_formula_units_Z   1
loop_
 _symmetry_equiv_pos_site_id
 _symmetry_equiv_pos_as_xyz
  1  'x, y, z'
loop_
 _atom_site_type_symbol
 _atom_site_label
 _atom_site_symmetry_multiplicity
 _atom_site_fract_x
 _atom_site_fract_y
 _atom_site_fract_z
 _atom_site_occupancy
  Mn  Mn0  1  0.81767200  0.18232800  0.50000000  1
  Mn  Mn1  1  0.18232800  0.81767200  0.50000000  1
  Mn  Mn2  1  0.00000000  0.00000000  0.00000000  1
  Mn  Mn3  1  0.65313300  0.34686700  0.00000000  1
  Mn  Mn4  1  0.34686700  0.65313300  0.00000000  1
  V  V0  1  0.68761500  0.68761500  0.44532900  1
  V  V1  1  0.31238500  0.31238500  0.55467100  1
  H  H0  1  0.36664300  0.04207800  0.13213200  1
  H  H1  1  0.63335700  0.95792200  0.86786800  1
  H  H2  1  0.95792200  0.63335700  0.86786800  1
  H  H3  1  0.04207800  0.36664300  0.13213200  1
  O  O0  1  0.51608800  0.22479200  0.37788800  1
  O  O1  1  0.48391200  0.77520800  0.62211200  1
  O  O2  1  0.77520800  0.48391200  0.62211200  1
  O  O3  1  0.22479200  0.51608800  0.37788800  1
  O  O4  1  0.27806600  0.93310400  0.13292100  1
  O  O5  1  0.72193400  0.06689600  0.86707900  1
  O  O6  1  0.06689600  0.72193400  0.86707900  1
  O  O7  1  0.93310400  0.27806600  0.13292100  1
  O  O8  1  0.87189100  0.87189100  0.38460700  1
  O  O9  1  0.12810900  0.12810900  0.61539300  1
  O  O10  1  0.62578000  0.62578000  0.15938200  1
  O  O11  1  0.37422000  0.37422000  0.84061800  1
loop_
_geom_bond_atom_site_label_1
_geom_bond_atom_site_label_2
_geom_bond_distance
_geom_bond_site_symmetry_2
Mn0 O7 2.111861 1_555
Mn0 O5 2.111861 1_555
Mn0 O2 2.261883 1_555
Mn0 O0 2.261883 1_555
Mn0 O8 2.314668 1_545
Mn0 O9 2.314668 1_655
Mn1 O4 2.111861 1_555
Mn1 O6 2.111861 1_555
Mn1 O1 2.261883 1_555
Mn1 O3 2.261883 1_555
Mn1 O8 2.314668 1_455
Mn1 O9 2.314668 1_565
Mn2 O4 2.154361 1_545
Mn2 O7 2.154361 1_455
Mn2 O5 2.154361 1_454
Mn2 O6 2.154361 1_544
Mn2 O9 2.274008 1_554
Mn2 O8 2.274008 1_445
Mn3 O5 2.168734 1_554
Mn3 O7 2.168734 1_555
Mn3 O10 2.198597 1_555
Mn3 O11 2.198597 1_554
Mn3 O2 2.250285 1_554
Mn3 O0 2.250285 1_555
Mn4 O6 2.168734 1_554
Mn4 O4 2.168734 1_555
Mn4 O10 2.198597 1_555
Mn4 O11 2.198597 1_554
Mn4 O3 2.250285 1_555
Mn4 O1 2.250285 1_554
H0 O4 0.972556 1_545
H1 O5 0.972556 1_565
H2 O6 0.972556 1_655
H3 O7 0.972556 1_455
O0 V1 1.755121 1_555
O1 V0 1.755121 1_555
O2 V0 1.755121 1_555
O3 V1 1.755121 1_555
O8 V0 1.783389 1_555
O9 V1 1.783389 1_555
O10 V0 1.768779 1_555
O11 V1 1.768779 1_555
