# generated using pymatgen
data_LaGa4Os
_symmetry_space_group_name_H-M   'P 1'
_cell_length_a   7.69707759
_cell_length_b   8.82276254
_cell_length_c   9.79997730
_cell_angle_alpha   90.00008619
_cell_angle_beta   90.00125493
_cell_angle_gamma   89.99934832
_symmetry_Int_Tables_number   1
_chemical_formula_structural   LaGa4Os
_chemical_formula_sum   'La6 Ga24 Os6'
_cell_volume   665.51143907
_cell_formula_units_Z   6
loop_
 _symmetry_equiv_pos_site_id
 _symmetry_equiv_pos_as_xyz
  1  'x, y, z'
loop_
 _atom_site_type_symbol
 _atom_site_label
 _atom_site_symmetry_multiplicity
 _atom_site_fract_x
 _atom_site_fract_y
 _atom_site_fract_z
 _atom_site_occupancy
  La  La0  1  0.32189072  0.50001428  0.75000115  1
  La  La1  1  0.67813941  0.50001178  0.25005556  1
  La  La2  1  0.83897800  0.25035446  0.75000465  1
  La  La3  1  0.16108230  0.74967421  0.24999422  1
  La  La4  1  0.83890855  0.74963390  0.75000213  1
  La  La5  1  0.16104715  0.25027374  0.24998671  1
  Ga  Ga0  1  0.18198579  0.23226664  0.57446817  1
  Ga  Ga1  1  0.81806814  0.76776022  0.42552656  1
  Ga  Ga2  1  0.18195224  0.76774436  0.92549495  1
  Ga  Ga3  1  0.81801328  0.23224983  0.42552294  1
  Ga  Ga4  1  0.81799453  0.23228931  0.07449857  1
  Ga  Ga5  1  0.18193973  0.76773854  0.57447840  1
  Ga  Ga6  1  0.81802996  0.76772462  0.07448899  1
  Ga  Ga7  1  0.18199712  0.23226365  0.92551807  1
  Ga  Ga8  1  0.13203493  -0.00000530  0.74998728  1
  Ga  Ga9  1  0.86796221  0.00001396  0.24999386  1
  Ga  Ga10  1  0.34043347  0.00004150  0.06044441  1
  Ga  Ga11  1  0.65955413  0.00002057  0.93955191  1
  Ga  Ga12  1  0.34042838  0.00003474  0.43953902  1
  Ga  Ga13  1  0.65955700  0.00002748  0.56043095  1
  Ga  Ga14  1  0.45083476  0.15457425  0.74998916  1
  Ga  Ga15  1  0.54919663  0.84544908  0.24999738  1
  Ga  Ga16  1  0.45080099  0.84545407  0.74999097  1
  Ga  Ga17  1  0.54913352  0.15459898  0.24999603  1
  Ga  Ga18  1  0.65504014  0.49995396  0.58018120  1
  Ga  Ga19  1  0.34493005  0.49996709  0.41983862  1
  Ga  Ga20  1  0.65504667  0.49996133  0.91986862  1
  Ga  Ga21  1  0.34501994  0.49995772  0.08018849  1
  Ga  Ga22  1  0.00001519  0.49997794  0.50000662  1
  Ga  Ga23  1  0.00000657  0.49998157  -0.00000795  1
  Os  Os0  1  0.49999732  0.25611661  0.49999136  1
  Os  Os1  1  0.49999957  0.74387538  0.49999548  1
  Os  Os2  1  0.49999402  0.74388045  -0.00000476  1
  Os  Os3  1  0.49999932  0.25611414  -0.00000512  1
  Os  Os4  1  0.00000045  0.00000360  0.49999187  1
  Os  Os5  1  -0.00001216  0.00000133  -0.00000444  1
loop_
_geom_bond_atom_site_label_1
_geom_bond_atom_site_label_2
_geom_bond_distance
_geom_bond_site_symmetry_2
Ga0 Os0 2.562929 1_555
Ga0 Os4 2.587289 1_555
Ga0 Ga8 2.702983 1_555
Ga0 Ga12 2.726514 1_555
Ga0 Ga14 2.776804 1_555
Ga0 Ga22 2.841302 1_555
Ga0 Ga19 3.073739 1_555
Ga0 La0 3.114335 1_555
Ga0 La2 3.155212 1_455
Ga0 Ga3 3.158950 1_455
Ga0 La5 3.187950 1_555
Ga1 Os1 2.563352 1_555
Ga1 Os4 2.586900 1_665
Ga1 Ga9 2.702883 1_565
Ga1 Ga13 2.726867 1_565
Ga1 Ga15 2.776975 1_555
Ga1 Ga22 2.841780 1_655
Ga1 Ga18 3.074840 1_555
Ga1 La1 3.114068 1_555
Ga1 La3 3.155230 1_655
Ga1 Ga5 3.158292 1_655
Ga1 La4 3.187907 1_555
Ga2 Os2 2.563192 1_556
Ga2 Os5 2.587218 1_566
Ga2 Ga8 2.702713 1_565
Ga2 Ga23 2.841717 1_556
Ga2 Ga21 3.074971 1_556
Ga2 La0 3.114102 1_555
Ga2 La4 3.155160 1_455
Ga2 Ga6 3.158885 1_456
Ga2 La3 3.188133 1_556
Ga3 Os0 2.562946 1_555
Ga3 Os4 2.587135 1_655
Ga3 Ga9 2.702791 1_555
Ga3 La1 3.113978 1_555
Ga3 La5 3.155353 1_655
Ga3 La2 3.188006 1_555
Ga4 Os3 2.562831 1_555
Ga4 Os5 2.587562 1_655
Ga4 Ga9 2.702858 1_555
Ga4 La1 3.114171 1_555
Ga4 La5 3.155136 1_655
Ga4 Ga7 3.159372 1_654
Ga4 La2 3.188122 1_554
Ga5 Os1 2.563306 1_555
Ga5 Os4 2.587116 1_565
Ga5 Ga8 2.702752 1_565
Ga5 La0 3.114231 1_555
Ga5 La4 3.155305 1_455
Ga5 La3 3.187970 1_555
Ga6 Os2 2.563121 1_555
Ga6 Os5 2.587336 1_665
Ga6 Ga9 2.702975 1_565
Ga6 La1 3.114276 1_555
Ga6 La3 3.155252 1_655
Ga6 La4 3.188023 1_554
Ga7 Os3 2.562830 1_556
Ga7 Os5 2.587406 1_556
Ga7 Ga8 2.703033 1_555
Ga7 La0 3.114268 1_555
Ga7 La2 3.155100 1_455
Ga7 La5 3.187837 1_556
Ga8 Os4 2.652351 1_555
Ga8 Os5 2.652546 1_556
Ga8 La2 3.157067 1_455
Ga8 La4 3.157491 1_445
Ga9 Os4 2.652386 1_655
Ga9 Os5 2.652392 1_655
Ga9 La5 3.156640 1_655
Ga9 La3 3.157291 1_645
Ga10 Os3 2.638899 1_555
Ga10 Os2 2.639521 1_545
Ga10 Os5 2.686551 1_555
Ga10 Ga7 2.726392 1_554
Ga10 Ga11 2.727112 1_554
Ga10 Ga2 2.727172 1_544
Ga10 Ga17 2.809008 1_555
Ga10 Ga15 2.809429 1_545
Ga10 La5 3.198587 1_555
Ga10 La3 3.199361 1_545
Ga11 Os3 2.638977 1_556
Ga11 Os2 2.639374 1_546
Ga11 Os5 2.686450 1_656
Ga11 Ga4 2.726829 1_556
Ga11 Ga6 2.727068 1_546
Ga11 Ga14 2.809133 1_555
Ga11 Ga16 2.809340 1_545
Ga11 La2 3.199385 1_555
Ga11 La4 3.199465 1_545
Ga12 Os0 2.638972 1_555
Ga12 Os1 2.639552 1_545
Ga12 Os4 2.686452 1_555
Ga12 Ga13 2.727118 1_555
Ga12 Ga5 2.727172 1_545
Ga12 Ga17 2.809052 1_555
Ga12 Ga15 2.809393 1_545
Ga12 La5 3.198637 1_555
Ga12 La3 3.199236 1_545
Ga13 Os0 2.638943 1_555
Ga13 Os1 2.639424 1_545
Ga13 Os4 2.686538 1_655
Ga13 Ga3 2.726422 1_555
Ga13 Ga14 2.809131 1_555
Ga13 Ga16 2.809426 1_545
Ga13 La2 3.199445 1_555
Ga13 La4 3.199588 1_545
Ga14 Os0 2.635948 1_555
Ga14 Os3 2.635997 1_556
Ga14 Ga16 2.727294 1_545
Ga14 Ga7 2.776835 1_555
Ga14 Ga8 2.807373 1_555
Ga14 La2 3.104791 1_555
Ga14 La0 3.205256 1_555
Ga15 Os1 2.636083 1_555
Ga15 Os2 2.636093 1_555
Ga15 Ga17 2.727556 1_565
Ga15 Ga6 2.776762 1_555
Ga15 Ga9 2.807080 1_565
Ga15 La3 3.104564 1_555
Ga15 La1 3.205230 1_555
Ga16 Os1 2.636070 1_555
Ga16 Os2 2.636116 1_556
Ga16 Ga2 2.776805 1_555
Ga16 Ga5 2.776884 1_555
Ga16 Ga8 2.806952 1_565
Ga16 La4 3.104604 1_555
Ga16 La0 3.205194 1_555
Ga17 Os0 2.635817 1_555
Ga17 Os3 2.635847 1_555
Ga17 Ga4 2.776793 1_555
Ga17 Ga3 2.776936 1_555
Ga17 Ga9 2.807564 1_555
Ga17 La5 3.104098 1_555
Ga17 La1 3.205196 1_555
Ga18 Os0 2.582616 1_555
Ga18 Os1 2.583193 1_555
Ga18 Ga22 2.769124 1_655
Ga18 Ga19 2.857705 1_555
Ga18 La0 3.057020 1_555
Ga18 Ga3 3.073968 1_555
Ga18 La2 3.102186 1_555
Ga18 La4 3.102452 1_555
Ga18 La1 3.240110 1_555
Ga19 Os0 2.582669 1_555
Ga19 Os1 2.583134 1_555
Ga19 Ga22 2.768661 1_555
Ga19 La1 3.057210 1_555
Ga19 Ga5 3.074389 1_555
Ga19 La3 3.102654 1_555
Ga19 La5 3.102750 1_555
Ga19 La0 3.240445 1_555
Ga20 Os3 2.582533 1_556
Ga20 Os2 2.583057 1_556
Ga20 Ga23 2.768837 1_656
Ga20 Ga21 2.857104 1_556
Ga20 La0 3.057254 1_555
Ga20 Ga4 3.073510 1_556
Ga20 Ga6 3.074213 1_556
Ga20 La2 3.102452 1_555
Ga20 La4 3.102659 1_555
Ga20 La1 3.240699 1_556
Ga21 Os3 2.582441 1_555
Ga21 Os2 2.583028 1_555
Ga21 Ga23 2.769434 1_555
Ga21 La1 3.057017 1_555
Ga21 Ga7 3.074109 1_554
Ga21 La5 3.102761 1_555
Ga21 La3 3.102855 1_555
Ga21 La0 3.240718 1_554
Ga22 Ga5 2.841540 1_555
Ga22 Ga3 2.841625 1_455
Ga22 La1 3.483946 1_455
Ga22 La0 3.484244 1_555
Ga23 Ga7 2.841472 1_554
Ga23 Ga4 2.841475 1_455
Ga23 Ga6 2.841661 1_455
Ga23 La0 3.484342 1_554
Ga23 La1 3.484750 1_455
