# generated using pymatgen
data_Al(SnO2)2
_symmetry_space_group_name_H-M   'P 1'
_cell_length_a   7.07662374
_cell_length_b   7.07662374
_cell_length_c   5.59377259
_cell_angle_alpha   66.75200269
_cell_angle_beta   66.75200269
_cell_angle_gamma   110.77524108
_symmetry_Int_Tables_number   1
_chemical_formula_structural   Al(SnO2)2
_chemical_formula_sum   'Al2 Sn4 O8'
_cell_volume   188.34698245
_cell_formula_units_Z   2
loop_
 _symmetry_equiv_pos_site_id
 _symmetry_equiv_pos_as_xyz
  1  'x, y, z'
loop_
 _atom_site_type_symbol
 _atom_site_label
 _atom_site_symmetry_multiplicity
 _atom_site_fract_x
 _atom_site_fract_y
 _atom_site_fract_z
 _atom_site_occupancy
  Al  Al0  1  0.12678200  0.87321800  0.25000000  1
  Al  Al1  1  0.87321800  0.12678200  0.75000000  1
  Sn  Sn0  1  0.50000000  0.50000000  0.50000000  1
  Sn  Sn1  1  0.50000000  0.50000000  0.00000000  1
  Sn  Sn2  1  0.50000000  0.00000000  0.50000000  1
  Sn  Sn3  1  0.00000000  0.50000000  0.00000000  1
  O  O0  1  0.91928900  0.71930600  0.69727000  1
  O  O1  1  0.28069400  0.08071100  0.80273000  1
  O  O2  1  0.08071100  0.28069400  0.30273000  1
  O  O3  1  0.71930600  0.91928900  0.19727000  1
  O  O4  1  0.10698300  0.41521100  0.67259700  1
  O  O5  1  0.58478900  0.89301700  0.82740300  1
  O  O6  1  0.41521100  0.10698300  0.17259700  1
  O  O7  1  0.89301700  0.58478900  0.32740300  1
loop_
_geom_bond_atom_site_label_1
_geom_bond_atom_site_label_2
_geom_bond_distance
_geom_bond_site_symmetry_2
Al0 O0 1.848277 1_455
Al0 O1 1.848277 1_564
Al0 O6 1.852501 1_565
Al0 O7 1.852501 1_455
Al1 O2 1.848277 1_655
Al1 O3 1.848277 1_546
Al1 O4 1.852501 1_655
Al1 O5 1.852501 1_545
O0 Sn1 2.184545 1_556
O0 Sn3 2.218124 1_656
O1 Sn0 2.184545 1_555
O1 Sn2 2.218124 1_555
O2 Sn1 2.184545 1_555
O2 Sn3 2.218124 1_555
O3 Sn0 2.184545 1_555
O3 Sn2 2.218124 1_565
O4 Sn3 2.093435 1_556
O4 Sn0 2.294884 1_555
O5 Sn2 2.093435 1_565
O5 Sn1 2.294884 1_556
O6 Sn2 2.093435 1_555
O6 Sn1 2.294884 1_555
O7 Sn3 2.093435 1_655
O7 Sn0 2.294884 1_555
