# generated using pymatgen
data_Dy2Sc3Si4
_symmetry_space_group_name_H-M   'P 1'
_cell_length_a   7.08213876
_cell_length_b   7.39573024
_cell_length_c   13.97246041
_cell_angle_alpha   90.00000000
_cell_angle_beta   90.00000000
_cell_angle_gamma   90.00000000
_symmetry_Int_Tables_number   1
_chemical_formula_structural   Dy2Sc3Si4
_chemical_formula_sum   'Dy8 Sc12 Si16'
_cell_volume   731.84377178
_cell_formula_units_Z   4
loop_
 _symmetry_equiv_pos_site_id
 _symmetry_equiv_pos_as_xyz
  1  'x, y, z'
loop_
 _atom_site_type_symbol
 _atom_site_label
 _atom_site_symmetry_multiplicity
 _atom_site_fract_x
 _atom_site_fract_y
 _atom_site_fract_z
 _atom_site_occupancy
  Dy  Dy0  1  0.01180375  0.17603822  0.09733539  1
  Dy  Dy1  1  0.98819625  0.82396178  0.90266461  1
  Dy  Dy2  1  0.48819625  0.67603822  0.90266461  1
  Dy  Dy3  1  0.98819625  0.82396178  0.59733539  1
  Dy  Dy4  1  0.51180375  0.32396178  0.09733539  1
  Dy  Dy5  1  0.01180375  0.17603822  0.40266461  1
  Dy  Dy6  1  0.51180375  0.32396178  0.40266461  1
  Dy  Dy7  1  0.48819625  0.67603822  0.59733539  1
  Sc  Sc0  1  0.16259619  0.50308297  0.75000000  1
  Sc  Sc1  1  0.83740381  0.49691703  0.25000000  1
  Sc  Sc2  1  0.33740381  0.00308297  0.25000000  1
  Sc  Sc3  1  0.66259619  0.99691703  0.75000000  1
  Sc  Sc4  1  0.32979739  0.17677964  0.62550472  1
  Sc  Sc5  1  0.67020261  0.82322036  0.37449528  1
  Sc  Sc6  1  0.17020261  0.67677964  0.37449528  1
  Sc  Sc7  1  0.67020261  0.82322036  0.12550472  1
  Sc  Sc8  1  0.82979739  0.32322036  0.62550472  1
  Sc  Sc9  1  0.32979739  0.17677964  0.87449528  1
  Sc  Sc10  1  0.82979739  0.32322036  0.87449528  1
  Sc  Sc11  1  0.17020261  0.67677964  0.12550472  1
  Si  Si0  1  0.03353146  0.11546160  0.75000000  1
  Si  Si1  1  0.96646854  0.88453840  0.25000000  1
  Si  Si2  1  0.46646854  0.61546160  0.25000000  1
  Si  Si3  1  0.53353146  0.38453840  0.75000000  1
  Si  Si4  1  0.28555622  0.87250865  0.75000000  1
  Si  Si5  1  0.71444378  0.12749135  0.25000000  1
  Si  Si6  1  0.21444378  0.37250865  0.25000000  1
  Si  Si7  1  0.78555622  0.62749135  0.75000000  1
  Si  Si8  1  0.15777236  0.46521799  0.53878000  1
  Si  Si9  1  0.84222764  0.53478201  0.46122000  1
  Si  Si10  1  0.34222764  0.96521799  0.46122000  1
  Si  Si11  1  0.84222764  0.53478201  0.03878000  1
  Si  Si12  1  0.65777236  0.03478201  0.53878000  1
  Si  Si13  1  0.15777236  0.46521799  0.96122000  1
  Si  Si14  1  0.65777236  0.03478201  0.96122000  1
  Si  Si15  1  0.34222764  0.96521799  0.03878000  1
loop_
_geom_bond_atom_site_label_1
_geom_bond_atom_site_label_2
_geom_bond_distance
_geom_bond_site_symmetry_2
Dy0 Si15 2.928567 1_545
Dy0 Si6 2.953139 1_555
Dy0 Si5 3.018945 1_455
Dy0 Si11 3.025066 1_455
Dy0 Si13 3.042991 1_554
Dy0 Si1 3.049739 1_445
Dy0 Si14 3.315876 1_454
Dy1 Si14 2.928567 1_565
Dy1 Si7 2.953139 1_555
Dy1 Si4 3.018945 1_655
Dy1 Si13 3.025066 1_655
Dy1 Si11 3.042991 1_556
Dy1 Si0 3.049739 1_665
Dy1 Si15 3.315876 1_656
Dy2 Si13 2.928567 1_555
Dy2 Si4 2.953139 1_555
Dy2 Si7 3.018945 1_555
Dy2 Si14 3.025066 1_565
Dy2 Si15 3.042991 1_556
Dy2 Si3 3.049739 1_555
Dy2 Si11 3.315876 1_556
Dy3 Si12 2.928567 1_565
Dy3 Si7 2.953139 1_555
Dy3 Si4 3.018945 1_655
Dy3 Si8 3.025066 1_655
Dy3 Si9 3.042991 1_555
Dy3 Si0 3.049739 1_665
Dy3 Si10 3.315876 1_655
Dy4 Si11 2.928567 1_555
Dy4 Si5 2.953139 1_555
Dy4 Si6 3.018945 1_555
Dy4 Si15 3.025066 1_545
Dy4 Si14 3.042991 1_554
Dy4 Si2 3.049739 1_555
Dy4 Si13 3.315876 1_554
Dy5 Si10 2.928567 1_545
Dy5 Si6 2.953139 1_555
Dy5 Si5 3.018945 1_455
Dy5 Si9 3.025066 1_455
Dy5 Si8 3.042991 1_555
Dy5 Si1 3.049739 1_445
Dy5 Si12 3.315876 1_455
Dy6 Si9 2.928567 1_555
Dy6 Si5 2.953139 1_555
Dy6 Si6 3.018945 1_555
Dy6 Si10 3.025066 1_545
Dy6 Si12 3.042991 1_555
Dy6 Si2 3.049739 1_555
Dy6 Si8 3.315876 1_555
Dy7 Si8 2.928567 1_555
Dy7 Si4 2.953139 1_555
Dy7 Si7 3.018945 1_555
Dy7 Si12 3.025066 1_565
Dy7 Si10 3.042991 1_555
Dy7 Si3 3.049739 1_555
Dy7 Si9 3.315876 1_555
Sc0 Si3 2.769450 1_555
Sc0 Si7 2.824323 1_455
Sc0 Si4 2.867594 1_555
Sc0 Si8 2.964716 1_555
Sc0 Si13 2.964716 1_555
Sc0 Si0 3.008939 1_555
Sc1 Si2 2.769450 1_555
Sc1 Si6 2.824323 1_655
Sc1 Si5 2.867594 1_555
Sc1 Si11 2.964716 1_555
Sc1 Si9 2.964716 1_555
Sc1 Si1 3.008939 1_555
Sc2 Si1 2.769450 1_445
Sc2 Si5 2.824323 1_555
Sc2 Si6 2.867594 1_555
Sc2 Si15 2.964716 1_545
Sc2 Si10 2.964716 1_545
Sc2 Si2 3.008939 1_545
Sc3 Si0 2.769450 1_665
Sc3 Si4 2.824323 1_555
Sc3 Si7 2.867594 1_555
Sc3 Si12 2.964716 1_565
Sc3 Si14 2.964716 1_565
Sc3 Si3 3.008939 1_565
Sc4 Si3 2.732888 1_555
Sc4 Si8 2.739200 1_555
Sc4 Si0 2.762963 1_555
Sc4 Si10 2.779394 1_545
Sc4 Si12 2.822492 1_555
Sc4 Si4 2.861455 1_545
Sc5 Si2 2.732888 1_555
Sc5 Si9 2.739200 1_555
Sc5 Si1 2.762963 1_555
Sc5 Si12 2.779394 1_565
Sc5 Si10 2.822492 1_555
Sc5 Si5 2.861455 1_565
Sc6 Si1 2.732888 1_455
Sc6 Si10 2.739200 1_555
Sc6 Si2 2.762963 1_555
Sc6 Si8 2.779394 1_555
Sc6 Si9 2.822492 1_455
Sc6 Si6 2.861455 1_555
Sc7 Si2 2.732888 1_555
Sc7 Si11 2.739200 1_555
Sc7 Si1 2.762963 1_555
Sc7 Si14 2.779394 1_564
Sc7 Si15 2.822492 1_555
Sc7 Si5 2.861455 1_565
Sc8 Si0 2.732888 1_655
Sc8 Si12 2.739200 1_555
Sc8 Si3 2.762963 1_555
Sc8 Si9 2.779394 1_555
Sc8 Si8 2.822492 1_655
Sc8 Si7 2.861455 1_555
Sc9 Si3 2.732888 1_555
Sc9 Si13 2.739200 1_555
Sc9 Si0 2.762963 1_555
Sc9 Si15 2.779394 1_546
Sc9 Si14 2.822492 1_555
Sc9 Si4 2.861455 1_545
Sc10 Si0 2.732888 1_655
Sc10 Si14 2.739200 1_555
Sc10 Si3 2.762963 1_555
Sc10 Si11 2.779394 1_556
Sc10 Si13 2.822492 1_655
Sc10 Si7 2.861455 1_555
Sc11 Si1 2.732888 1_455
Sc11 Si15 2.739200 1_555
Sc11 Si2 2.762963 1_555
Sc11 Si13 2.779394 1_554
Sc11 Si11 2.822492 1_455
Sc11 Si6 2.861455 1_555
Si0 Si4 2.532651 1_545
Si1 Si5 2.532651 1_565
Si2 Si6 2.532651 1_555
Si3 Si7 2.532651 1_555
Si8 Si9 2.536361 1_455
Si10 Si12 2.536361 1_565
Si11 Si13 2.536361 1_654
Si14 Si15 2.536361 1_546
