# generated using pymatgen
data_Ho2B6Ru
_symmetry_space_group_name_H-M   'P 1'
_cell_length_a   3.64214702
_cell_length_b   9.10339419
_cell_length_c   11.46725690
_cell_angle_alpha   90.00007838
_cell_angle_beta   89.99999616
_cell_angle_gamma   90.00000211
_symmetry_Int_Tables_number   1
_chemical_formula_structural   Ho2B6Ru
_chemical_formula_sum   'Ho8 B24 Ru4'
_cell_volume   380.20722329
_cell_formula_units_Z   4
loop_
 _symmetry_equiv_pos_site_id
 _symmetry_equiv_pos_as_xyz
  1  'x, y, z'
loop_
 _atom_site_type_symbol
 _atom_site_label
 _atom_site_symmetry_multiplicity
 _atom_site_fract_x
 _atom_site_fract_y
 _atom_site_fract_z
 _atom_site_occupancy
  Ho  Ho0  1  0.00000037  0.32221514  0.41425249  1
  Ho  Ho1  1  0.00000010  0.67778440  0.58574645  1
  Ho  Ho2  1  0.00000042  0.82221527  0.08574745  1
  Ho  Ho3  1  -0.00000039  0.17778463  0.91425314  1
  Ho  Ho4  1  -0.00000014  0.94384793  0.37271992  1
  Ho  Ho5  1  0.00000017  0.05615177  0.62727932  1
  Ho  Ho6  1  0.00000012  0.44384818  0.12728032  1
  Ho  Ho7  1  -0.00000007  0.55615229  0.87272027  1
  B  B0  1  0.50000012  0.55384508  0.43288313  1
  B  B1  1  0.49999979  0.44615475  0.56711628  1
  B  B2  1  0.50000011  0.05384535  0.06711718  1
  B  B3  1  0.50000001  0.94615486  0.93288328  1
  B  B4  1  0.50000009  0.74765668  0.41991082  1
  B  B5  1  0.49999986  0.25234312  0.58008877  1
  B  B6  1  0.50000003  0.24765684  0.08008952  1
  B  B7  1  0.50000005  0.75234338  0.91991097  1
  B  B8  1  0.50000005  0.79068982  0.26631391  1
  B  B9  1  0.49999983  0.20931014  0.73368608  1
  B  B10  1  0.49999992  0.29068995  0.23368665  1
  B  B11  1  0.49999994  0.70931007  0.76631343  1
  B  B12  1  0.50000009  0.63194608  0.18533521  1
  B  B13  1  0.49999987  0.36805394  0.81466493  1
  B  B14  1  0.50000006  0.13194597  0.31466534  1
  B  B15  1  0.50000002  0.86805389  0.68533475  1
  B  B16  1  0.49999988  0.98343713  0.21284457  1
  B  B17  1  0.49999996  0.01656282  0.78715553  1
  B  B18  1  0.50000018  0.48343711  0.28715593  1
  B  B19  1  0.49999979  0.51656306  0.71284409  1
  B  B20  1  0.49999991  0.61010723  0.03040042  1
  B  B21  1  0.50000004  0.38989288  0.96960024  1
  B  B22  1  0.49999992  0.11010708  0.46959970  1
  B  B23  1  0.49999991  0.88989263  0.53039978  1
  Ru  Ru0  1  0.00000104  0.63764275  0.32122597  1
  Ru  Ru1  1  -0.00000068  0.36235795  0.67877355  1
  Ru  Ru2  1  -0.00000010  0.13764444  0.17877574  1
  Ru  Ru3  1  -0.00000027  0.86235539  0.82122488  1
loop_
_geom_bond_atom_site_label_1
_geom_bond_atom_site_label_2
_geom_bond_distance
_geom_bond_site_symmetry_2
Ho0 Ru1 3.055264 1_555
Ho0 Ru0 3.063213 1_555
Ho0 Ru2 3.180345 1_555
Ho1 Ru0 3.055256 1_555
Ho1 Ru1 3.063206 1_555
Ho1 Ru3 3.180363 1_555
Ho2 Ru3 3.055279 1_554
Ho2 Ru2 3.063231 1_565
Ho2 Ru0 3.180375 1_555
Ho3 Ru2 3.055279 1_556
Ho3 Ru3 3.063232 1_545
Ho3 Ru1 3.180390 1_555
Ho4 Ru2 2.838775 1_565
Ho4 Ru0 2.849363 1_555
Ho5 Ru3 2.838787 1_545
Ho5 Ru1 2.849373 1_555
Ho6 Ru0 2.838774 1_555
Ho6 Ru2 2.849356 1_555
Ho7 Ru1 2.838782 1_555
Ho7 Ru3 2.849350 1_555
B0 B4 1.770604 1_555
B0 B18 1.789794 1_555
B0 B1 1.824962 1_555
B0 Ru0 2.353223 1_555
B0 Ru0 2.353228 1_655
B0 Ho1 2.768038 1_555
B0 Ho1 2.768038 1_655
B0 Ho0 2.794319 1_555
B0 Ho0 2.794320 1_655
B1 B5 1.770604 1_555
B1 B19 1.789801 1_555
B1 Ru1 2.353222 1_655
B1 Ru1 2.353225 1_555
B1 Ho0 2.768041 1_555
B1 Ho0 2.768043 1_655
B1 Ho1 2.794317 1_555
B1 Ho1 2.794318 1_655
B2 B6 1.770602 1_555
B2 B3 1.824968 1_544
B2 Ru2 2.353236 1_655
B2 Ru2 2.353238 1_555
B2 Ho3 2.768043 1_654
B2 Ho3 2.768046 1_554
B2 Ho2 2.794320 1_545
B2 Ho2 2.794322 1_645
B3 B7 1.770602 1_555
B3 Ru3 2.353236 1_655
B3 Ru3 2.353238 1_555
B3 Ho2 2.768046 1_556
B3 Ho2 2.768048 1_656
B3 Ho3 2.794318 1_665
B3 Ho3 2.794320 1_565
B4 B8 1.804375 1_555
B4 Ru0 2.366414 1_555
B4 Ru0 2.366419 1_655
B4 Ho4 2.607483 1_655
B4 Ho4 2.607485 1_555
B4 Ho1 2.708743 1_555
B4 Ho1 2.708743 1_655
B5 B9 1.804379 1_555
B5 Ru1 2.366418 1_655
B5 Ru1 2.366421 1_555
B5 Ho5 2.607483 1_555
B5 Ho5 2.607485 1_655
B5 Ho0 2.708747 1_555
B5 Ho0 2.708749 1_655
B6 Ru2 2.366419 1_655
B6 Ru2 2.366420 1_555
B6 Ho6 2.607483 1_555
B6 Ho6 2.607484 1_655
B6 Ho3 2.708747 1_654
B6 Ho3 2.708749 1_554
B7 Ru3 2.366416 1_655
B7 Ru3 2.366418 1_555
B7 Ho7 2.607481 1_655
B7 Ho7 2.607482 1_555
B7 Ho2 2.708747 1_556
B7 Ho2 2.708749 1_656
B8 Ru0 2.377803 1_555
B8 Ru0 2.377809 1_655
B8 Ho4 2.597905 1_655
B8 Ho4 2.597906 1_555
B8 Ho2 2.772375 1_555
B8 Ho2 2.772376 1_655
B9 Ru1 2.377810 1_655
B9 Ru1 2.377813 1_555
B9 Ho5 2.597910 1_555
B9 Ho5 2.597912 1_655
B9 Ho3 2.772380 1_655
B9 Ho3 2.772381 1_555
B10 B14 1.717745 1_555
B10 B6 1.804377 1_555
B10 B18 1.858697 1_555
B10 Ru2 2.377793 1_655
B10 Ru2 2.377793 1_555
B10 Ho6 2.597909 1_555
B10 Ho6 2.597910 1_655
B10 Ho0 2.772368 1_555
B10 Ho0 2.772370 1_655
B11 B15 1.717744 1_555
B11 B7 1.804382 1_555
B11 B19 1.858696 1_555
B11 Ru3 2.377793 1_655
B11 Ru3 2.377794 1_555
B11 Ho7 2.597910 1_555
B11 Ho7 2.597910 1_655
B11 Ho1 2.772379 1_555
B11 Ho1 2.772380 1_655
B12 B8 1.717741 1_555
B12 B18 1.786347 1_555
B12 B20 1.787765 1_555
B12 Ru0 2.397346 1_555
B12 Ru0 2.397351 1_655
B12 Ho6 2.586808 1_555
B12 Ho6 2.586808 1_655
B12 Ho2 2.760548 1_555
B12 Ho2 2.760549 1_655
B13 B9 1.717743 1_555
B13 B19 1.786349 1_555
B13 B21 1.787771 1_555
B13 Ru1 2.397351 1_655
B13 Ru1 2.397354 1_555
B13 Ho7 2.586812 1_555
B13 Ho7 2.586812 1_655
B13 Ho3 2.760551 1_655
B13 Ho3 2.760552 1_555
B14 B16 1.786344 1_545
B14 B22 1.787761 1_555
B14 Ru2 2.397340 1_655
B14 Ru2 2.397341 1_555
B14 Ho4 2.586808 1_645
B14 Ho4 2.586809 1_545
B14 Ho0 2.760543 1_555
B14 Ho0 2.760544 1_655
B15 B17 1.786344 1_565
B15 B23 1.787768 1_555
B15 Ru3 2.397343 1_655
B15 Ru3 2.397345 1_555
B15 Ho5 2.586810 1_565
B15 Ho5 2.586811 1_665
B15 Ho1 2.760551 1_555
B15 Ho1 2.760551 1_655
B16 B2 1.789798 1_565
B16 B8 1.858700 1_555
B16 Ru2 2.332299 1_665
B16 Ru2 2.332299 1_565
B16 Ho4 2.609080 1_555
B16 Ho4 2.609081 1_655
B16 Ho2 2.755815 1_555
B16 Ho2 2.755817 1_655
B17 B3 1.789801 1_545
B17 B9 1.858700 1_555
B17 Ru3 2.332300 1_645
B17 Ru3 2.332302 1_545
B17 Ho5 2.609087 1_555
B17 Ho5 2.609088 1_655
B17 Ho3 2.755818 1_655
B17 Ho3 2.755820 1_555
B18 Ru0 2.332289 1_555
B18 Ru0 2.332294 1_655
B18 Ho6 2.609081 1_655
B18 Ho6 2.609082 1_555
B18 Ho0 2.755815 1_555
B18 Ho0 2.755816 1_655
B19 Ru1 2.332289 1_655
B19 Ru1 2.332291 1_555
B19 Ho7 2.609086 1_555
B19 Ho7 2.609087 1_655
B19 Ho1 2.755818 1_555
B19 Ho1 2.755820 1_655
B20 B7 1.811604 1_554
B20 B21 2.122478 1_554
B20 Ho7 2.612852 1_654
B20 Ho7 2.612852 1_554
B20 Ho6 2.615580 1_555
B20 Ho6 2.615582 1_655
B20 Ho2 2.729011 1_555
B20 Ho2 2.729014 1_655
B21 B6 1.811602 1_556
B21 Ho6 2.612852 1_556
B21 Ho6 2.612852 1_656
B21 Ho7 2.615583 1_655
B21 Ho7 2.615584 1_555
B21 Ho3 2.729013 1_655
B21 Ho3 2.729015 1_555
B22 B5 1.811598 1_555
B22 B23 2.122481 1_545
B22 Ho5 2.612849 1_555
B22 Ho5 2.612850 1_655
B22 Ho4 2.615579 1_645
B22 Ho4 2.615579 1_545
B22 Ho0 2.729013 1_555
B22 Ho0 2.729015 1_655
B23 B4 1.811597 1_555
B23 Ho4 2.612851 1_655
B23 Ho4 2.612851 1_555
B23 Ho5 2.615577 1_565
B23 Ho5 2.615579 1_665
B23 Ho1 2.729013 1_555
B23 Ho1 2.729015 1_655
