# generated using pymatgen
data_Pr(ZnGa)2
_symmetry_space_group_name_H-M   'P 1'
_cell_length_a   4.23870352
_cell_length_b   4.23870443
_cell_length_c   6.08292940
_cell_angle_alpha   69.64781656
_cell_angle_beta   69.64780368
_cell_angle_gamma   90.10537862
_symmetry_Int_Tables_number   1
_chemical_formula_structural   Pr(ZnGa)2
_chemical_formula_sum   'Pr1 Zn2 Ga2'
_cell_volume   95.12820493
_cell_formula_units_Z   1
loop_
 _symmetry_equiv_pos_site_id
 _symmetry_equiv_pos_as_xyz
  1  'x, y, z'
loop_
 _atom_site_type_symbol
 _atom_site_label
 _atom_site_symmetry_multiplicity
 _atom_site_fract_x
 _atom_site_fract_y
 _atom_site_fract_z
 _atom_site_occupancy
  Pr  Pr0  1  0.00000003  0.00000010  0.00000000  1
  Zn  Zn0  1  0.38565249  0.38565252  0.22867945  1
  Zn  Zn1  1  0.61434747  0.61434740  0.77132059  1
  Ga  Ga0  1  0.74993702  0.25006314  0.49999996  1
  Ga  Ga1  1  0.25006299  0.74993684  0.50000000  1
loop_
_geom_bond_atom_site_label_1
_geom_bond_atom_site_label_2
_geom_bond_distance
_geom_bond_site_symmetry_2
Pr0 Zn0 3.229981 1_555
Pr0 Zn1 3.229982 1_444
Pr0 Zn1 3.229991 1_554
Pr0 Zn0 3.229992 1_445
Pr0 Zn0 3.235097 1_455
Pr0 Zn1 3.235097 1_454
Pr0 Zn1 3.235097 1_544
Pr0 Zn0 3.235098 1_545
Zn0 Zn1 2.421592 1_554
Ga0 Zn1 2.560182 1_555
Ga0 Zn0 2.560183 1_555
Ga0 Zn0 2.560514 1_655
Ga0 Zn1 2.560515 1_545
Ga0 Pr0 3.390987 1_556
Ga0 Pr0 3.390987 1_665
Ga0 Pr0 3.391400 1_655
Ga0 Pr0 3.391401 1_656
Ga1 Zn0 2.560182 1_555
Ga1 Zn1 2.560183 1_555
Ga1 Zn1 2.560514 1_455
Ga1 Zn0 2.560515 1_565
Ga1 Pr0 3.390987 1_665
Ga1 Pr0 3.390987 1_556
Ga1 Pr0 3.391401 1_565
Ga1 Pr0 3.391401 1_566
