# generated using pymatgen
data_Ba2Ag8S7
_symmetry_space_group_name_H-M   'P 1'
_cell_length_a   4.44811580
_cell_length_b   10.88349657
_cell_length_c   15.88237989
_cell_angle_alpha   90.00000000
_cell_angle_beta   90.00000000
_cell_angle_gamma   90.00000000
_symmetry_Int_Tables_number   1
_chemical_formula_structural   Ba2Ag8S7
_chemical_formula_sum   'Ba4 Ag16 S14'
_cell_volume   768.88273545
_cell_formula_units_Z   2
loop_
 _symmetry_equiv_pos_site_id
 _symmetry_equiv_pos_as_xyz
  1  'x, y, z'
loop_
 _atom_site_type_symbol
 _atom_site_label
 _atom_site_symmetry_multiplicity
 _atom_site_fract_x
 _atom_site_fract_y
 _atom_site_fract_z
 _atom_site_occupancy
  Ba  Ba0  1  0.26145841  0.88038714  0.36388111  1
  Ba  Ba1  1  0.26145841  0.88038714  0.63611889  1
  Ba  Ba2  1  0.76145841  0.11961286  0.13611889  1
  Ba  Ba3  1  0.76145841  0.11961286  0.86388111  1
  Ag  Ag0  1  0.75552748  0.48570740  0.39280622  1
  Ag  Ag1  1  0.75552748  0.48570740  0.60719378  1
  Ag  Ag2  1  0.25552748  0.51429260  0.10719378  1
  Ag  Ag3  1  0.25552748  0.51429260  0.89280622  1
  Ag  Ag4  1  0.76566620  0.19976776  0.35529876  1
  Ag  Ag5  1  0.76566620  0.19976776  0.64470124  1
  Ag  Ag6  1  0.26566620  0.80023224  0.14470124  1
  Ag  Ag7  1  0.26566620  0.80023224  0.85529876  1
  Ag  Ag8  1  0.25709096  0.36970697  0.29124275  1
  Ag  Ag9  1  0.25709096  0.36970697  0.70875725  1
  Ag  Ag10  1  0.75709096  0.63029303  0.20875725  1
  Ag  Ag11  1  0.75709096  0.63029303  0.79124275  1
  Ag  Ag12  1  0.24874051  0.57918853  0.50000000  1
  Ag  Ag13  1  0.74874051  0.42081147  0.00000000  1
  Ag  Ag14  1  0.15307245  0.21676140  0.50000000  1
  Ag  Ag15  1  0.65307245  0.78323860  0.00000000  1
  S  S0  1  0.24695622  0.58013155  0.34661113  1
  S  S1  1  0.24695622  0.58013155  0.65338887  1
  S  S2  1  0.74695622  0.41986845  0.15338887  1
  S  S3  1  0.74695622  0.41986845  0.84661113  1
  S  S4  1  0.76587881  0.79937743  0.50000000  1
  S  S5  1  0.26587881  0.20062257  0.00000000  1
  S  S6  1  0.75985240  0.99622063  0.50000000  1
  S  S7  1  0.25985240  0.00377937  0.00000000  1
  S  S8  1  0.25928399  0.14720832  0.27990970  1
  S  S9  1  0.25928399  0.14720832  0.72009030  1
  S  S10  1  0.75928399  0.85279168  0.22009030  1
  S  S11  1  0.75928399  0.85279168  0.77990970  1
  S  S12  1  0.64748930  0.30787896  0.50000000  1
  S  S13  1  0.14748930  0.69212104  0.00000000  1
loop_
_geom_bond_atom_site_label_1
_geom_bond_atom_site_label_2
_geom_bond_distance
_geom_bond_site_symmetry_2
Ba0 S10 3.195180 1_555
Ba0 S8 3.195570 1_565
Ba0 S10 3.208617 1_455
Ba0 S4 3.210993 1_455
Ba0 S4 3.238116 1_555
Ba0 S0 3.279956 1_555
Ba0 S6 3.343319 1_555
Ba0 S6 3.352810 1_455
Ba1 S11 3.195180 1_555
Ba1 S9 3.195570 1_565
Ba1 S11 3.208617 1_455
Ba1 S4 3.210993 1_455
Ba1 S4 3.238116 1_555
Ba1 S1 3.279956 1_555
Ba1 S6 3.343319 1_555
Ba1 S6 3.352810 1_455
Ba2 S8 3.195180 1_655
Ba2 S10 3.195570 1_545
Ba2 S8 3.208617 1_555
Ba2 S5 3.210993 1_555
Ba2 S5 3.238116 1_655
Ba2 S2 3.279956 1_555
Ba2 S7 3.343319 1_655
Ba2 S7 3.352810 1_555
Ba3 S9 3.195180 1_655
Ba3 S11 3.195570 1_545
Ba3 S9 3.208617 1_555
Ba3 S5 3.210993 1_556
Ba3 S5 3.238116 1_656
Ba3 S3 3.279956 1_555
Ba3 S7 3.343319 1_656
Ba3 S7 3.352810 1_556
Ag0 S0 2.524419 1_655
Ag0 S0 2.590728 1_555
Ag0 S12 2.622056 1_555
Ag1 S1 2.524419 1_655
Ag1 S1 2.590728 1_555
Ag1 S12 2.622056 1_555
Ag2 S2 2.524419 1_555
Ag2 S2 2.590728 1_455
Ag2 S13 2.622056 1_555
Ag3 S3 2.524419 1_555
Ag3 S3 2.590728 1_455
Ag3 S13 2.622056 1_556
Ag4 S8 2.565511 1_655
Ag4 S8 2.614269 1_555
Ag4 S12 2.634862 1_555
Ag4 S6 3.192173 1_545
Ag5 S9 2.565511 1_655
Ag5 S9 2.614269 1_555
Ag5 S12 2.634862 1_555
Ag5 S6 3.192173 1_545
Ag6 S10 2.565511 1_555
Ag6 S10 2.614269 1_455
Ag6 S13 2.634862 1_555
Ag6 S7 3.192173 1_565
Ag7 S11 2.565511 1_555
Ag7 S11 2.614269 1_455
Ag7 S13 2.634862 1_556
Ag7 S7 3.192173 1_566
Ag8 S8 2.428263 1_555
Ag8 S0 2.453600 1_555
Ag8 S2 3.136824 1_555
Ag8 S2 3.200111 1_455
Ag9 S9 2.428263 1_555
Ag9 S1 2.453600 1_555
Ag9 S3 3.136824 1_555
Ag9 S3 3.200111 1_455
Ag10 S10 2.428263 1_555
Ag10 S2 2.453600 1_555
Ag10 S0 3.136824 1_655
Ag10 S0 3.200111 1_555
Ag11 S11 2.428263 1_555
Ag11 S3 2.453600 1_555
Ag11 S1 3.136824 1_655
Ag11 S1 3.200111 1_555
Ag12 S0 2.436215 1_555
Ag12 S1 2.436215 1_555
Ag13 S3 2.436215 1_554
Ag13 S2 2.436215 1_555
Ag14 S12 2.412469 1_555
Ag14 S12 2.457833 1_455
Ag14 S6 2.969938 1_445
Ag15 S13 2.412469 1_655
Ag15 S13 2.457833 1_555
Ag15 S7 2.969938 1_565
S4 S6 2.142510 1_555
S5 S7 2.142510 1_555
