# generated using pymatgen
data_RbAlBr4
_symmetry_space_group_name_H-M   'P 1'
_cell_length_a   7.53004075
_cell_length_b   9.87716044
_cell_length_c   11.82817757
_cell_angle_alpha   90.00000000
_cell_angle_beta   90.00000000
_cell_angle_gamma   90.00000000
_symmetry_Int_Tables_number   1
_chemical_formula_structural   RbAlBr4
_chemical_formula_sum   'Rb4 Al4 Br16'
_cell_volume   879.72568179
_cell_formula_units_Z   4
loop_
 _symmetry_equiv_pos_site_id
 _symmetry_equiv_pos_as_xyz
  1  'x, y, z'
loop_
 _atom_site_type_symbol
 _atom_site_label
 _atom_site_symmetry_multiplicity
 _atom_site_fract_x
 _atom_site_fract_y
 _atom_site_fract_z
 _atom_site_occupancy
  Rb  Rb0  1  0.25000000  0.66519796  0.18094876  1
  Rb  Rb1  1  0.75000000  0.33480204  0.81905124  1
  Rb  Rb2  1  0.75000000  0.16519796  0.31905124  1
  Rb  Rb3  1  0.25000000  0.83480204  0.68094876  1
  Al  Al0  1  0.25000000  0.19046404  0.06218923  1
  Al  Al1  1  0.75000000  0.80953596  0.93781077  1
  Al  Al2  1  0.75000000  0.69046404  0.43781077  1
  Al  Al3  1  0.25000000  0.30953596  0.56218923  1
  Br  Br0  1  0.25000000  0.40610128  0.38579790  1
  Br  Br1  1  0.75000000  0.59389872  0.61420210  1
  Br  Br2  1  0.75000000  0.90610128  0.11420210  1
  Br  Br3  1  0.25000000  0.09389872  0.88579790  1
  Br  Br4  1  0.25000000  0.03466968  0.20657625  1
  Br  Br5  1  0.75000000  0.96533032  0.79342375  1
  Br  Br6  1  0.75000000  0.53466968  0.29342375  1
  Br  Br7  1  0.25000000  0.46533032  0.70657625  1
  Br  Br8  1  0.00155036  0.32693116  0.08066095  1
  Br  Br9  1  -0.00155036  0.67306884  0.91933905  1
  Br  Br10  1  -0.00155036  0.82693116  0.41933905  1
  Br  Br11  1  0.50155036  0.67306884  0.91933905  1
  Br  Br12  1  0.00155036  0.17306884  0.58066095  1
  Br  Br13  1  0.49844964  0.32693116  0.08066095  1
  Br  Br14  1  0.49844964  0.17306884  0.58066095  1
  Br  Br15  1  0.50155036  0.82693116  0.41933905  1
loop_
_geom_bond_atom_site_label_1
_geom_bond_atom_site_label_2
_geom_bond_distance
_geom_bond_site_symmetry_2
Al0 Br3 2.294065 1_554
Al0 Br4 2.298831 1_555
Al0 Br8 2.316165 1_555
Al0 Br13 2.316165 1_555
Al1 Br2 2.294065 1_556
Al1 Br5 2.298831 1_555
Al1 Br11 2.316165 1_555
Al1 Br9 2.316165 1_655
Al2 Br1 2.294065 1_555
Al2 Br6 2.298831 1_555
Al2 Br10 2.316165 1_655
Al2 Br15 2.316165 1_555
Al3 Br0 2.294065 1_555
Al3 Br7 2.298831 1_555
Al3 Br14 2.316165 1_555
Al3 Br12 2.316165 1_555
Br0 Rb0 3.524214 1_555
Br1 Rb1 3.524214 1_555
Br2 Rb2 3.524214 1_565
Br3 Rb3 3.524214 1_545
Br4 Rb0 3.661899 1_545
Br5 Rb1 3.661899 1_565
Br6 Rb2 3.661899 1_555
Br7 Rb3 3.661899 1_555
Br8 Rb1 3.628923 1_454
Br8 Rb2 3.753753 1_455
Br8 Rb0 4.008766 1_555
Br9 Rb0 3.628923 1_556
Br9 Rb3 3.753753 1_555
Br9 Rb1 4.008766 1_455
Br10 Rb3 3.628923 1_555
Br10 Rb0 3.753753 1_555
Br10 Rb2 4.008766 1_465
Br11 Rb0 3.628923 1_556
Br11 Rb3 3.753753 1_555
Br11 Rb1 4.008766 1_555
Br12 Rb2 3.628923 1_455
Br12 Rb1 3.753753 1_455
Br12 Rb3 4.008766 1_545
Br13 Rb1 3.628923 1_554
Br13 Rb2 3.753753 1_555
Br13 Rb0 4.008766 1_555
Br14 Rb2 3.628923 1_555
Br14 Rb1 3.753753 1_555
Br14 Rb3 4.008766 1_545
Br15 Rb3 3.628923 1_555
Br15 Rb0 3.753753 1_555
Br15 Rb2 4.008766 1_565
