# generated using pymatgen
data_Li4MnCo2O7
_symmetry_space_group_name_H-M   'P 1'
_cell_length_a   2.98496500
_cell_length_b   5.10657126
_cell_length_c   17.25715932
_cell_angle_alpha   85.33022242
_cell_angle_beta   88.73213328
_cell_angle_gamma   75.37101371
_symmetry_Int_Tables_number   1
_chemical_formula_structural   Li4MnCo2O7
_chemical_formula_sum   'Li8 Mn2 Co4 O14'
_cell_volume   253.67688214
_cell_formula_units_Z   2
loop_
 _symmetry_equiv_pos_site_id
 _symmetry_equiv_pos_as_xyz
  1  'x, y, z'
loop_
 _atom_site_type_symbol
 _atom_site_label
 _atom_site_symmetry_multiplicity
 _atom_site_fract_x
 _atom_site_fract_y
 _atom_site_fract_z
 _atom_site_occupancy
  Li  Li0  1  0.70517400  0.58052600  0.92717000  1
  Li  Li1  1  0.14094500  0.71524200  0.78585100  1
  Li  Li2  1  0.57327900  0.85668800  0.64088700  1
  Li  Li3  1  0.99972400  0.99959900  0.49949500  1
  Li  Li4  1  0.42429200  0.14399300  0.35589800  1
  Li  Li5  1  0.86085200  0.27303800  0.21270500  1
  Li  Li6  1  0.30856800  0.41797100  0.07869900  1
  Li  Li7  1  0.55130200  0.87360100  0.14420800  1
  Mn  Mn0  1  0.99231800  0.00172700  0.00561400  1
  Mn  Mn1  1  0.86173100  0.28761700  0.71310000  1
  Co  Co0  1  0.44170100  0.13334900  0.85684700  1
  Co  Co1  1  0.28621300  0.43152000  0.56738400  1
  Co  Co2  1  0.71443300  0.57487300  0.42670000  1
  Co  Co3  1  0.13233000  0.71633400  0.28055300  1
  O  O0  1  0.38568200  0.24940100  0.96514500  1
  O  O1  1  0.81849900  0.40653200  0.82004300  1
  O  O2  1  0.18775800  0.55902300  0.67341300  1
  O  O3  1  0.66320100  0.69754000  0.52991600  1
  O  O4  1  0.05720800  0.82797300  0.38700000  1
  O  O5  1  0.47287700  0.97297700  0.25498400  1
  O  O6  1  0.92024700  0.14633500  0.10016800  1
  O  O7  1  0.06149300  0.87490500  0.89694300  1
  O  O8  1  0.54029200  0.00991000  0.75390600  1
  O  O9  1  0.91034200  0.16120700  0.60894100  1
  O  O10  1  0.38858000  0.30212600  0.46552700  1
  O  O11  1  0.79723600  0.45379400  0.32570100  1
  O  O12  1  0.20934600  0.57496500  0.19146100  1
  O  O13  1  0.59437400  0.75723300  0.03173900  1
loop_
_geom_bond_atom_site_label_1
_geom_bond_atom_site_label_2
_geom_bond_distance
_geom_bond_site_symmetry_2
Li0 O13 2.065934 1_556
Li0 O7 2.078111 1_655
Li0 O1 2.099897 1_555
Li0 O7 2.163628 1_555
Li0 O0 2.191941 1_555
Li0 O0 2.357613 1_655
Li1 O8 2.080545 1_465
Li1 O1 2.085564 1_455
Li1 O7 2.129114 1_555
Li1 O2 2.145846 1_555
Li1 O8 2.175086 1_565
Li1 O1 2.283557 1_555
Li2 O9 2.088190 1_565
Li2 O2 2.118543 1_655
Li2 O3 2.126124 1_555
Li2 O8 2.151042 1_565
Li2 O2 2.160075 1_555
Li2 O9 2.234338 1_465
Li3 O3 2.071562 1_555
Li3 O9 2.107086 1_565
Li3 O10 2.129426 1_565
Li3 O4 2.180070 1_655
Li3 O10 2.192198 1_665
Li3 O3 2.224451 1_655
Li4 O5 1.997239 1_545
Li4 O10 2.106899 1_555
Li4 O11 2.165865 1_455
Li4 O11 2.177911 1_555
Li4 O4 2.195249 1_545
Li4 O4 2.196678 1_645
Li5 O12 2.072418 1_655
Li5 O6 2.086412 1_555
Li5 O5 2.163487 1_645
Li5 O12 2.172212 1_555
Li5 O11 2.208773 1_555
Li5 O5 2.213215 1_545
Li6 O6 2.015451 1_555
Li6 O6 2.028407 1_455
Li6 O12 2.150756 1_555
Li6 O0 2.188313 1_554
Li6 O13 2.207569 1_555
Li6 O13 2.487009 1_455
Li7 O5 2.011217 1_555
Li7 O13 2.067581 1_555
Li7 O6 2.072563 1_565
Li7 O12 2.139963 1_555
Li7 O6 2.152070 1_465
Li7 O12 2.281265 1_655
Mn0 O6 1.831547 1_555
Mn0 O13 1.950013 1_645
Mn0 O13 1.951110 1_545
Mn0 O0 2.008999 1_654
Mn0 O7 2.022888 1_644
Mn0 O0 2.030179 1_554
Mn1 O9 1.949049 1_555
Mn1 O2 1.958125 1_655
Mn1 O8 1.980503 1_555
Mn1 O1 1.980845 1_555
Mn1 O2 2.221541 1_555
Mn1 O8 2.249261 1_655
Co0 O8 1.924912 1_555
Co0 O0 1.997116 1_555
Co0 O7 2.020322 1_545
Co0 O1 2.056982 1_555
Co0 O7 2.077959 1_645
Co0 O1 2.099326 1_455
Co1 O10 1.919131 1_555
Co1 O2 1.982891 1_555
Co1 O3 2.031426 1_555
Co1 O9 2.064953 1_455
Co1 O3 2.087095 1_455
Co1 O9 2.118839 1_555
Co2 O11 1.886927 1_555
Co2 O4 1.918207 1_655
Co2 O3 1.926067 1_555
Co2 O10 1.959189 1_555
Co2 O4 2.150124 1_555
Co2 O10 2.220411 1_655
Co3 O12 1.737552 1_555
Co3 O5 1.872035 1_555
Co3 O4 1.958947 1_555
Co3 O11 1.969199 1_455
Co3 O5 2.104339 1_455
Co3 O11 2.213114 1_555
