# generated using pymatgen
data_MgTa2Te4Br10O
_symmetry_space_group_name_H-M   'P 1'
_cell_length_a   7.42993196
_cell_length_b   9.09774949
_cell_length_c   10.01815233
_cell_angle_alpha   87.06288176
_cell_angle_beta   92.89391492
_cell_angle_gamma   74.53369001
_symmetry_Int_Tables_number   1
_chemical_formula_structural   MgTa2Te4Br10O
_chemical_formula_sum   'Mg1 Ta2 Te4 Br10 O1'
_cell_volume   650.35440042
_cell_formula_units_Z   1
loop_
 _symmetry_equiv_pos_site_id
 _symmetry_equiv_pos_as_xyz
  1  'x, y, z'
loop_
 _atom_site_type_symbol
 _atom_site_label
 _atom_site_symmetry_multiplicity
 _atom_site_fract_x
 _atom_site_fract_y
 _atom_site_fract_z
 _atom_site_occupancy
  Mg  Mg0  1  0.11920500  0.22013600  0.28412900  1
  Ta  Ta0  1  0.48747800  0.37752400  0.36164600  1
  Ta  Ta1  1  0.50982300  0.63640900  0.64914800  1
  Te  Te0  1  0.90309400  0.83352800  0.02318000  1
  Te  Te1  1  0.07685800  0.20560100  0.97658900  1
  Te  Te2  1  0.20292800  0.92797400  0.13878400  1
  Te  Te3  1  0.78380800  0.10603400  0.86299600  1
  Br  Br0  1  0.45841900  0.18320500  0.16740400  1
  Br  Br1  1  0.59757300  0.53671300  0.19454000  1
  Br  Br2  1  0.13645700  0.51217700  0.28687900  1
  Br  Br3  1  0.82371500  0.19668600  0.41527100  1
  Br  Br4  1  0.67630000  0.77014600  0.49321300  1
  Br  Br5  1  0.34681600  0.18672600  0.50397000  1
  Br  Br6  1  0.19559200  0.79853900  0.56436300  1
  Br  Br7  1  0.83876000  0.45626900  0.72739900  1
  Br  Br8  1  0.37309200  0.48099100  0.80832100  1
  Br  Br9  1  0.53125900  0.82177100  0.83025700  1
  O  O0  1  0.49715800  0.49242300  0.50565800  1
loop_
_geom_bond_atom_site_label_1
_geom_bond_atom_site_label_2
_geom_bond_distance
_geom_bond_site_symmetry_2
Mg0 Te2 3.029594 1_545
Mg0 Te1 3.094349 1_554
Te0 Te3 2.789961 1_564
Te0 Te2 2.811552 1_655
Te1 Te3 2.786350 1_455
Te1 Te2 2.839215 1_546
Br0 Ta0 2.733563 1_555
Br0 Mg0 2.778242 1_555
Br0 Te1 3.292058 1_554
Br1 Ta0 2.467959 1_555
Br2 Ta0 2.620771 1_555
Br2 Mg0 2.695399 1_555
Br3 Ta0 2.611178 1_555
Br3 Mg0 2.665336 1_655
Br4 Ta1 2.500744 1_555
Br5 Ta0 2.646266 1_555
Br5 Mg0 2.661588 1_555
Br6 Ta1 2.486504 1_555
Br7 Ta1 2.610004 1_555
Br7 Te1 3.373628 1_655
Br8 Ta1 2.504548 1_555
Br9 Ta1 2.566872 1_555
Br9 Te0 3.319501 1_556
O0 Ta0 1.833992 1_555
O0 Ta1 2.009054 1_555
