# generated using pymatgen
data_Nd2Si5Rh3
_symmetry_space_group_name_H-M   'P 1'
_cell_length_a   8.22520777
_cell_length_b   8.22621064
_cell_length_c   8.22562146
_cell_angle_alpha   138.55486123
_cell_angle_beta   105.74819273
_cell_angle_gamma   88.80024363
_symmetry_Int_Tables_number   1
_chemical_formula_structural   Nd2Si5Rh3
_chemical_formula_sum   'Nd4 Si10 Rh6'
_cell_volume   339.70167277
_cell_formula_units_Z   2
loop_
 _symmetry_equiv_pos_site_id
 _symmetry_equiv_pos_as_xyz
  1  'x, y, z'
loop_
 _atom_site_type_symbol
 _atom_site_label
 _atom_site_symmetry_multiplicity
 _atom_site_fract_x
 _atom_site_fract_y
 _atom_site_fract_z
 _atom_site_occupancy
  Nd  Nd0  1  0.63666434  0.86911284  0.76753413  1
  Nd  Nd1  1  0.36333173  0.13088896  0.23246384  1
  Nd  Nd2  1  0.10140640  0.36903913  0.73241089  1
  Nd  Nd3  1  0.89859741  0.63095980  0.26759232  1
  Si  Si0  1  0.27633791  0.02627292  0.74986906  1
  Si  Si1  1  0.72366126  0.97372650  0.25013064  1
  Si  Si2  1  0.72360881  0.47349575  0.74991371  1
  Si  Si3  1  0.27638981  0.52650186  0.25008497  1
  Si  Si4  1  0.45311730  0.60663654  0.84658146  1
  Si  Si5  1  0.54688339  0.39336367  0.15342056  1
  Si  Si6  1  0.76019285  0.10660751  0.65358065  1
  Si  Si7  1  0.23980334  0.89339034  0.34641604  1
  Si  Si8  1  0.99994888  0.74996940  0.74996809  1
  Si  Si9  1  0.00005628  0.25003267  0.25003224  1
  Rh  Rh0  1  0.24772113  0.63891556  0.60869618  1
  Rh  Rh1  1  0.75228307  0.36108719  0.39131026  1
  Rh  Rh2  1  0.03029309  0.13895287  0.89136474  1
  Rh  Rh3  1  0.96970248  0.86104571  0.10863036  1
  Rh  Rh4  1  0.50003215  0.75009537  0.25008814  1
  Rh  Rh5  1  0.49996636  0.24990438  0.74991073  1
loop_
_geom_bond_atom_site_label_1
_geom_bond_atom_site_label_2
_geom_bond_distance
_geom_bond_site_symmetry_2
Nd0 Si6 3.012194 1_565
Nd0 Rh0 3.130989 1_555
Nd0 Si8 3.132024 1_555
Nd0 Si9 3.132576 1_666
Nd0 Si5 3.136248 1_566
Nd0 Si5 3.136419 1_555
Nd0 Rh1 3.160479 1_555
Nd0 Rh1 3.160910 1_566
Nd0 Si4 3.184053 1_555
Nd0 Si3 3.218707 1_555
Nd0 Si0 3.219287 1_565
Nd0 Si1 3.220745 1_556
Nd0 Si2 3.221085 1_555
Nd0 Rh3 3.388195 1_556
Nd0 Rh4 3.397051 1_555
Nd0 Rh5 3.397411 1_565
Nd0 Rh2 3.401260 1_665
Nd1 Si7 3.012213 1_545
Nd1 Rh1 3.131031 1_555
Nd1 Si9 3.131954 1_555
Nd1 Si8 3.132523 1_444
Nd1 Si4 3.136273 1_544
Nd1 Si4 3.136432 1_555
Nd1 Rh0 3.160453 1_555
Nd1 Rh0 3.160876 1_544
Nd1 Si5 3.184035 1_555
Nd1 Si2 3.218725 1_555
Nd1 Si1 3.219319 1_545
Nd1 Si0 3.220721 1_554
Nd1 Si3 3.221043 1_555
Nd1 Rh2 3.388196 1_554
Nd1 Rh5 3.397069 1_555
Nd1 Rh4 3.397437 1_545
Nd1 Rh3 3.401265 1_445
Nd2 Si4 3.013505 1_555
Nd2 Rh2 3.131408 1_555
Nd2 Si9 3.132489 1_555
Nd2 Si8 3.132770 1_455
Nd2 Si7 3.136002 1_556
Nd2 Si7 3.136449 1_545
Nd2 Rh3 3.160718 1_456
Nd2 Rh3 3.160833 1_445
Nd2 Si6 3.181973 1_455
Nd2 Si1 3.218441 1_445
Nd2 Si2 3.218849 1_455
Nd2 Si3 3.219283 1_556
Nd2 Si0 3.219692 1_555
Nd2 Rh1 3.388498 1_455
Nd2 Rh5 3.398356 1_555
Nd2 Rh4 3.398446 1_556
Nd2 Rh0 3.402381 1_555
Nd3 Si5 3.013519 1_555
Nd3 Rh3 3.131446 1_555
Nd3 Si8 3.132449 1_555
Nd3 Si9 3.132733 1_655
Nd3 Si6 3.136027 1_554
Nd3 Si6 3.136473 1_565
Nd3 Rh2 3.160688 1_654
Nd3 Rh2 3.160801 1_665
Nd3 Si7 3.181945 1_655
Nd3 Si0 3.218410 1_665
Nd3 Si3 3.218814 1_655
Nd3 Si2 3.219314 1_554
Nd3 Si1 3.219728 1_555
Nd3 Rh0 3.388498 1_655
Nd3 Rh4 3.398399 1_555
Nd3 Rh5 3.398485 1_554
Nd3 Rh1 3.402375 1_555
Si0 Si7 2.516452 1_545
Si0 Si5 2.516680 1_556
Si1 Si6 2.516441 1_565
Si1 Si4 2.516669 1_554
Si2 Si6 2.516629 1_555
Si2 Si4 2.516828 1_555
Si3 Si7 2.516644 1_555
Si3 Si5 2.516834 1_555
Rh0 Si4 2.391500 1_555
Rh0 Si3 2.427150 1_555
Rh0 Si0 2.427599 1_565
Rh0 Si9 2.439046 1_555
Rh0 Si8 2.440150 1_455
Rh1 Si5 2.391525 1_555
Rh1 Si2 2.427130 1_555
Rh1 Si1 2.427596 1_545
Rh1 Si8 2.439048 1_555
Rh1 Si9 2.440179 1_655
Rh2 Si6 2.391207 1_455
Rh2 Si0 2.427371 1_555
Rh2 Si3 2.427554 1_556
Rh2 Si9 2.438870 1_556
Rh2 Si8 2.439374 1_445
Rh3 Si7 2.391220 1_655
Rh3 Si1 2.427358 1_555
Rh3 Si2 2.427543 1_554
Rh3 Si8 2.438877 1_554
Rh3 Si9 2.439379 1_665
Rh4 Si4 2.451452 1_554
Rh4 Si6 2.451667 1_565
Rh4 Si5 2.452168 1_555
Rh4 Si7 2.452247 1_555
Rh4 Si1 2.628313 1_555
Rh4 Si3 2.628401 1_555
Rh5 Si5 2.451471 1_556
Rh5 Si7 2.451684 1_545
Rh5 Si4 2.452154 1_555
Rh5 Si6 2.452236 1_555
Rh5 Si0 2.628316 1_555
Rh5 Si2 2.628390 1_555
