# generated using pymatgen
data_Li3MnV(PO4)3
_symmetry_space_group_name_H-M   'P 1'
_cell_length_a   8.77410500
_cell_length_b   8.77748117
_cell_length_c   14.47232083
_cell_angle_alpha   73.94245944
_cell_angle_beta   73.94362678
_cell_angle_gamma   61.18883191
_symmetry_Int_Tables_number   1
_chemical_formula_structural   Li3MnV(PO4)3
_chemical_formula_sum   'Li12 Mn4 V4 P12 O48'
_cell_volume   924.81834324
_cell_formula_units_Z   4
loop_
 _symmetry_equiv_pos_site_id
 _symmetry_equiv_pos_as_xyz
  1  'x, y, z'
loop_
 _atom_site_type_symbol
 _atom_site_label
 _atom_site_symmetry_multiplicity
 _atom_site_fract_x
 _atom_site_fract_y
 _atom_site_fract_z
 _atom_site_occupancy
  Li  Li0  1  0.98613400  0.85755700  0.88830700  1
  Li  Li1  1  0.00221300  0.49882100  0.00136500  1
  Li  Li2  1  0.89259700  0.76522800  0.36126200  1
  Li  Li3  1  0.74605400  0.25237600  0.75171300  1
  Li  Li4  1  0.51339900  0.64345700  0.61357000  1
  Li  Li5  1  0.60771000  0.73547100  0.13796800  1
  Li  Li6  1  0.39489100  0.26463300  0.86294300  1
  Li  Li7  1  0.48367100  0.35781100  0.38834000  1
  Li  Li8  1  0.24763000  0.75179400  0.25116800  1
  Li  Li9  1  0.49705700  0.00213000  0.49860500  1
  Li  Li10  1  0.10657900  0.23609500  0.63634500  1
  Li  Li11  1  0.01572600  0.14466900  0.11290200  1
  Mn  Mn0  1  0.92843100  0.42436500  0.21536800  1
  Mn  Mn1  1  0.67525900  0.17624800  0.96528900  1
  Mn  Mn2  1  0.57098200  0.07792200  0.28489100  1
  Mn  Mn3  1  0.17073800  0.67891600  0.46533100  1
  V  V0  1  0.82432200  0.31872000  0.53720700  1
  V  V1  1  0.43080800  0.92361300  0.71308800  1
  V  V2  1  0.32818700  0.81613200  0.03720800  1
  V  V3  1  0.06849200  0.57676200  0.78738500  1
  P  P0  1  0.66888300  0.86809000  0.88247800  1
  P  P1  1  0.83152600  0.63331700  0.61801100  1
  P  P2  1  0.93066900  0.81693900  0.12644300  1
  P  P3  1  0.88128300  0.08410300  0.36500200  1
  P  P4  1  0.56974600  0.67923000  0.37595200  1
  P  P5  1  0.38177600  0.58204100  0.86700800  1
  P  P6  1  0.61899000  0.41630500  0.13169100  1
  P  P7  1  0.42600600  0.32350300  0.62561500  1
  P  P8  1  0.11841200  0.91721300  0.62989100  1
  P  P9  1  0.07446400  0.17350500  0.87613000  1
  P  P10  1  0.16538600  0.37070000  0.38311600  1
  P  P11  1  0.33584100  0.13065100  0.11802100  1
  O  O0  1  0.85886800  0.71914000  0.88656700  1
  O  O1  1  0.91118000  0.61791700  0.70299800  1
  O  O2  1  0.94194200  0.67073500  0.51867300  1
  O  O3  1  0.55703200  0.83351200  0.98082500  1
  O  O4  1  0.59085600  0.88539800  0.79641900  1
  O  O5  1  0.89174600  0.18537200  0.87302000  1
  O  O6  1  0.81124400  0.88759900  0.21973800  1
  O  O7  1  0.82119500  0.45347500  0.63468700  1
  O  O8  1  0.86275500  0.93280600  0.03141400  1
  O  O9  1  0.96863800  0.10780200  0.63422000  1
  O  O10  1  0.64127700  0.78206900  0.61344000  1
  O  O11  1  0.94205300  0.63390100  0.12335700  1
  O  O12  1  0.55909100  0.86073600  0.38010400  1
  O  O13  1  0.86325600  0.16059800  0.45202100  1
  O  O14  1  0.36918400  0.65862500  0.95272300  1
  O  O15  1  0.64488700  0.55618100  0.46888000  1
  O  O16  1  0.91791100  0.19913600  0.26720200  1
  O  O17  1  0.52995400  0.39453000  0.85870400  1
  O  O18  1  0.68451400  0.61168000  0.28080700  1
  O  O19  1  0.41248800  0.69848400  0.76872200  1
  O  O20  1  0.67984200  0.04880600  0.86663000  1
  O  O21  1  0.79917500  0.42750100  0.11672100  1
  O  O22  1  0.60927400  0.30752500  0.63049900  1
  O  O23  1  0.29704500  0.92976600  0.61391800  1
  O  O24  1  0.69802700  0.07671300  0.38087600  1
  O  O25  1  0.38618800  0.69147400  0.37449300  1
  O  O26  1  0.20038000  0.57308200  0.88503000  1
  O  O27  1  0.32740700  0.94962100  0.13449700  1
  O  O28  1  0.58126100  0.30645500  0.23089700  1
  O  O29  1  0.30362000  0.39674700  0.71874600  1
  O  O30  1  0.47078900  0.60624000  0.13579300  1
  O  O31  1  0.08368900  0.80615300  0.72923000  1
  O  O32  1  0.36008800  0.43968600  0.53089100  1
  O  O33  1  0.63803600  0.33649200  0.04565900  1
  O  O34  1  0.13290600  0.83867700  0.54465700  1
  O  O35  1  0.44168800  0.13952800  0.62340100  1
  O  O36  1  0.05766000  0.35762100  0.87876800  1
  O  O37  1  0.35294900  0.22292700  0.39085800  1
  O  O38  1  0.02723600  0.89671700  0.35725600  1
  O  O39  1  0.14707400  0.05322300  0.96940500  1
  O  O40  1  0.17534300  0.55235700  0.36739000  1
  O  O41  1  0.19383900  0.10363700  0.78161700  1
  O  O42  1  0.11407400  0.80231500  0.12934000  1
  O  O43  1  0.41286700  0.11725700  0.20403200  1
  O  O44  1  0.44987200  0.16635700  0.01894500  1
  O  O45  1  0.04859800  0.33927900  0.48085100  1
  O  O46  1  0.08923000  0.38799400  0.29591800  1
  O  O47  1  0.14791200  0.27783800  0.10954400  1
loop_
_geom_bond_atom_site_label_1
_geom_bond_atom_site_label_2
_geom_bond_distance
_geom_bond_site_symmetry_2
Li0 O0 2.015874 1_555
Li0 O8 2.173692 1_556
Li0 O26 2.294094 1_655
Li0 O31 2.312739 1_655
Li0 O20 2.442435 1_565
Li0 O5 2.542942 1_565
Li1 O11 2.200164 1_455
Li1 O47 2.210175 1_555
Li1 O36 2.253576 1_554
Li1 O0 2.261867 1_454
Li1 O26 2.269064 1_554
Li1 O21 2.281281 1_455
Li2 O38 1.992536 1_655
Li2 O6 2.170477 1_555
Li2 O40 2.283825 1_655
Li2 O2 2.284587 1_555
Li2 O24 2.476403 1_565
Li2 O12 2.580800 1_555
Li3 O17 2.171183 1_555
Li3 O22 2.210629 1_555
Li3 O5 2.237787 1_555
Li3 O20 2.262373 1_555
Li3 O7 2.295431 1_555
Li3 O9 2.298656 1_555
Li4 O10 2.013088 1_555
Li4 O15 2.236494 1_555
Li4 O19 2.268727 1_555
Li4 O23 2.307103 1_555
Li4 O7 2.449805 1_555
Li4 O22 2.604941 1_555
Li5 O30 2.021158 1_555
Li5 O18 2.174942 1_555
Li5 O27 2.268206 1_555
Li5 O3 2.284351 1_554
Li5 O21 2.453789 1_555
Li5 O11 2.585664 1_555
Li6 O17 1.982805 1_555
Li6 O29 2.243141 1_555
Li6 O44 2.279930 1_556
Li6 O20 2.301155 1_555
Li6 O26 2.463395 1_555
Li6 O36 2.621932 1_555
Li7 O37 1.995106 1_555
Li7 O32 2.186332 1_555
Li7 O24 2.280141 1_555
Li7 O28 2.290234 1_555
Li7 O40 2.457894 1_555
Li7 O25 2.589368 1_555
Li8 O38 2.186777 1_555
Li8 O42 2.210880 1_555
Li8 O25 2.236273 1_555
Li8 O40 2.268701 1_555
Li8 O30 2.283557 1_555
Li8 O27 2.291704 1_555
Li9 O12 2.188088 1_545
Li9 O37 2.200739 1_555
Li9 O35 2.259937 1_555
Li9 O10 2.264030 1_545
Li9 O23 2.266316 1_545
Li9 O24 2.296638 1_555
Li10 O9 2.021698 1_455
Li10 O41 2.244620 1_555
Li10 O45 2.281420 1_555
Li10 O7 2.305229 1_455
Li10 O23 2.445308 1_545
Li10 O35 2.603809 1_555
Li11 O47 1.989449 1_555
Li11 O39 2.234254 1_554
Li11 O16 2.255383 1_455
Li11 O21 2.290778 1_455
Li11 O27 2.484258 1_545
Li11 O42 2.655190 1_545
Mn0 O46 1.929045 1_655
Mn0 O16 1.948519 1_555
Mn0 O11 1.984719 1_555
Mn0 O21 2.041800 1_555
Mn0 O18 2.128166 1_555
Mn0 O47 2.186133 1_655
Mn1 O33 1.920952 1_556
Mn1 O44 1.949368 1_556
Mn1 O5 2.020387 1_555
Mn1 O20 2.024863 1_555
Mn1 O8 2.130628 1_546
Mn1 O17 2.185006 1_555
Mn2 O43 1.904239 1_555
Mn2 O28 1.977577 1_555
Mn2 O24 2.002337 1_555
Mn2 O12 2.050069 1_545
Mn2 O6 2.121640 1_545
Mn2 O37 2.177535 1_555
Mn3 O34 1.904139 1_555
Mn3 O2 1.970305 1_455
Mn3 O40 2.010201 1_555
Mn3 O25 2.014926 1_555
Mn3 O32 2.115896 1_555
Mn3 O38 2.191267 1_555
O0 P0 1.550066 1_555
O0 V3 2.078832 1_655
O1 P1 1.520526 1_555
O1 V3 1.932612 1_655
O2 P1 1.545417 1_555
O3 P0 1.535089 1_555
O3 V2 2.010190 1_556
O4 P0 1.519781 1_555
O4 V1 1.948832 1_555
O5 P9 1.568264 1_655
O6 P2 1.536205 1_555
O7 P1 1.572696 1_555
O7 V0 2.064089 1_555
O8 P2 1.541517 1_555
O9 P8 1.556582 1_645
O9 V0 2.070754 1_555
O10 P1 1.551830 1_555
O10 V1 2.083310 1_555
O11 P2 1.573445 1_555
O12 P4 1.567425 1_555
O13 P3 1.522194 1_555
O13 V0 1.954358 1_555
O14 P5 1.522109 1_555
O14 V2 1.936035 1_556
O15 P4 1.552577 1_555
O15 V0 2.087814 1_555
O16 P3 1.548115 1_555
O17 P5 1.540838 1_555
O18 P4 1.539734 1_555
O19 P5 1.545872 1_555
O19 V1 1.983264 1_555
O20 P0 1.584780 1_545
O21 P6 1.582573 1_555
O22 P7 1.565373 1_555
O22 V0 2.022099 1_555
O23 P8 1.572923 1_555
O23 V1 2.065922 1_555
O24 P3 1.590692 1_555
O25 P4 1.567359 1_555
O26 P5 1.577029 1_555
O26 V3 2.044616 1_555
O27 P11 1.575178 1_565
O27 V2 2.062757 1_555
O28 P6 1.542576 1_555
O29 P7 1.548027 1_555
O29 V3 2.081420 1_555
O30 P6 1.548015 1_555
O30 V2 2.075300 1_555
O31 P8 1.542289 1_555
O31 V3 2.009835 1_555
O32 P7 1.533135 1_555
O33 P6 1.524315 1_555
O34 P8 1.520565 1_555
O35 P7 1.561948 1_555
O35 V1 2.007637 1_545
O36 P9 1.560850 1_555
O36 V3 2.038961 1_555
O37 P10 1.538653 1_555
O38 P3 1.533048 1_465
O39 P9 1.543302 1_555
O39 V2 2.089107 1_546
O40 P10 1.588818 1_555
O41 P9 1.548071 1_555
O41 V1 2.088817 1_545
O42 P2 1.563028 1_455
O42 V2 2.016532 1_555
O43 P11 1.525735 1_555
O44 P11 1.554116 1_555
O45 P10 1.543243 1_555
O45 V0 1.985732 1_455
O46 P10 1.524725 1_555
O47 P11 1.540776 1_555
