# generated using pymatgen
data_Ba4Dy2Cu6NiO15
_symmetry_space_group_name_H-M   'P 1'
_cell_length_a   25.44396295
_cell_length_b   25.44396295
_cell_length_c   3.91589700
_cell_angle_alpha   90.00000000
_cell_angle_beta   90.00000000
_cell_angle_gamma   171.23333104
_symmetry_Int_Tables_number   1
_chemical_formula_structural   Ba4Dy2Cu6NiO15
_chemical_formula_sum   'Ba4 Dy2 Cu6 Ni1 O15'
_cell_volume   386.38197637
_cell_formula_units_Z   1
loop_
 _symmetry_equiv_pos_site_id
 _symmetry_equiv_pos_as_xyz
  1  'x, y, z'
loop_
 _atom_site_type_symbol
 _atom_site_label
 _atom_site_symmetry_multiplicity
 _atom_site_fract_x
 _atom_site_fract_y
 _atom_site_fract_z
 _atom_site_occupancy
  Ba  Ba0  1  0.31158400  0.68841600  0.50000000  1
  Ba  Ba1  1  0.68818700  0.31181300  0.50000000  1
  Ba  Ba2  1  0.45817400  0.54182600  0.50000000  1
  Ba  Ba3  1  0.54191400  0.45808600  0.50000000  1
  Dy  Dy0  1  0.38467100  0.61532900  0.50000000  1
  Dy  Dy1  1  0.61462900  0.38537100  0.50000000  1
  Cu  Cu0  1  0.00030900  0.99969100  0.00000000  1
  Cu  Cu1  1  0.77044400  0.22955600  0.00000000  1
  Cu  Cu2  1  0.22961600  0.77038400  0.00000000  1
  Cu  Cu3  1  0.85123500  0.14876500  0.00000000  1
  Cu  Cu4  1  0.14891800  0.85108200  0.00000000  1
  Cu  Cu5  1  0.91824800  0.08175200  0.00000000  1
  Ni  Ni0  1  0.07949200  0.92050800  0.00000000  1
  O  O0  1  0.35681100  0.64318900  0.00000000  1
  O  O1  1  0.64341400  0.35658600  0.00000000  1
  O  O2  1  0.91232100  0.08767900  0.50000000  1
  O  O3  1  0.08784500  0.91215500  0.50000000  1
  O  O4  1  0.85596300  0.14403700  0.50000000  1
  O  O5  1  0.14426600  0.85573400  0.50000000  1
  O  O6  1  0.80672300  0.19327700  0.00000000  1
  O  O7  1  0.19336100  0.80663900  0.00000000  1
  O  O8  1  0.96325700  0.03674300  0.00000000  1
  O  O9  1  0.03820500  0.96179500  0.00000000  1
  O  O10  1  0.41272300  0.58727700  0.00000000  1
  O  O11  1  0.58745300  0.41254700  0.00000000  1
  O  O12  1  0.26704100  0.73295900  0.00000000  1
  O  O13  1  0.73295300  0.26704700  0.00000000  1
  O  O14  1  0.00024300  0.99975700  0.50000000  1
loop_
_geom_bond_atom_site_label_1
_geom_bond_atom_site_label_2
_geom_bond_distance
_geom_bond_site_symmetry_2
Ba0 O6 2.770575 1_455
Ba0 O6 2.770575 1_456
Ba0 O6 2.770575 1_565
Ba0 O6 2.770575 1_566
Ba0 O4 2.975242 1_455
Ba0 O4 2.975242 1_565
Ba0 O12 2.990231 1_556
Ba0 O12 2.990231 1_555
Ba0 O0 3.016548 1_556
Ba0 O0 3.016548 1_555
Ba1 O7 2.772034 1_545
Ba1 O7 2.772034 1_656
Ba1 O7 2.772034 1_546
Ba1 O7 2.772034 1_655
Ba1 O5 2.957694 1_655
Ba1 O5 2.957694 1_545
Ba1 O13 2.998792 1_555
Ba1 O13 2.998792 1_556
Ba1 O1 2.999061 1_556
Ba1 O1 2.999061 1_555
Ba2 O8 2.771600 1_456
Ba2 O8 2.771600 1_455
Ba2 O8 2.771600 1_565
Ba2 O8 2.771600 1_566
Ba2 O14 2.887553 1_545
Ba2 O14 2.887553 1_655
Ba2 O10 3.025203 1_555
Ba2 O10 3.025203 1_556
Ba2 O2 3.032239 1_565
Ba2 O2 3.032239 1_455
Ba3 O9 2.765984 1_656
Ba3 O9 2.765984 1_655
Ba3 O9 2.765984 1_545
Ba3 O9 2.765984 1_546
Ba3 O14 2.872657 1_545
Ba3 O14 2.872657 1_655
Ba3 O11 3.028608 1_555
Ba3 O11 3.028608 1_556
Ba3 O3 3.035277 1_655
Ba3 O3 3.035277 1_545
Dy0 O2 2.397899 1_565
Dy0 O2 2.397899 1_455
Dy0 O0 2.414912 1_556
Dy0 O0 2.414912 1_555
Dy0 O10 2.420628 1_556
Dy0 O10 2.420628 1_555
Dy0 O4 2.429697 1_565
Dy0 O4 2.429697 1_455
Dy1 O3 2.372459 1_655
Dy1 O3 2.372459 1_545
Dy1 O11 2.394762 1_556
Dy1 O11 2.394762 1_555
Dy1 O1 2.442682 1_556
Dy1 O1 2.442682 1_555
Dy1 O5 2.458245 1_545
Dy1 O5 2.458245 1_655
Cu0 O8 1.879984 1_465
Cu0 O9 1.922808 1_555
Cu0 O14 1.957951 1_554
Cu0 O14 1.957951 1_555
Cu1 O6 1.840763 1_555
Cu1 O13 1.902259 1_555
Cu1 O12 1.952307 1_545
Cu1 O12 1.952307 1_655
Cu2 O7 1.839545 1_555
Cu2 O12 1.898910 1_555
Cu2 O13 1.952014 1_455
Cu2 O13 1.952014 1_565
Cu3 O0 1.965130 1_545
Cu3 O0 1.965130 1_655
Cu3 O4 1.972590 1_555
Cu3 O4 1.972590 1_554
Cu3 O6 2.258498 1_555
Cu4 O1 1.964607 1_565
Cu4 O1 1.964607 1_455
Cu4 O5 1.972125 1_554
Cu4 O5 1.972125 1_555
Cu4 O7 2.254997 1_555
Cu5 O10 1.964759 1_655
Cu5 O10 1.964759 1_545
Cu5 O2 1.980909 1_555
Cu5 O2 1.980909 1_554
Cu5 O8 2.283715 1_555
Ni0 O11 1.986165 1_455
Ni0 O11 1.986165 1_565
Ni0 O3 2.003294 1_555
Ni0 O3 2.003294 1_554
Ni0 O9 2.094864 1_555
