# generated using pymatgen
data_LiMg14C
_symmetry_space_group_name_H-M   'P 1'
_cell_length_a   6.26786324
_cell_length_b   6.26786275
_cell_length_c   9.89433245
_cell_angle_alpha   90.00000000
_cell_angle_beta   90.00000000
_cell_angle_gamma   120.00000257
_symmetry_Int_Tables_number   1
_chemical_formula_structural   LiMg14C
_chemical_formula_sum   'Li1 Mg14 C1'
_cell_volume   336.63255168
_cell_formula_units_Z   1
loop_
 _symmetry_equiv_pos_site_id
 _symmetry_equiv_pos_as_xyz
  1  'x, y, z'
loop_
 _atom_site_type_symbol
 _atom_site_label
 _atom_site_symmetry_multiplicity
 _atom_site_fract_x
 _atom_site_fract_y
 _atom_site_fract_z
 _atom_site_occupancy
  Li  Li0  1  0.16666700  0.33333300  0.12500000  1
  Mg  Mg0  1  0.17325214  0.83662557  0.12500000  1
  Mg  Mg1  1  0.15999236  0.82999568  0.62500000  1
  Mg  Mg2  1  0.66337443  0.32674786  0.12500000  1
  Mg  Mg3  1  0.67000432  0.34000764  0.62500000  1
  Mg  Mg4  1  0.66337443  0.83662557  0.12500000  1
  Mg  Mg5  1  0.67000432  0.82999568  0.62500000  1
  Mg  Mg6  1  0.32595173  0.17404827  0.38873043  1
  Mg  Mg7  1  0.32595173  0.17404827  0.86126957  1
  Mg  Mg8  1  0.32595173  0.65190446  0.38873043  1
  Mg  Mg9  1  0.32595173  0.65190446  0.86126957  1
  Mg  Mg10  1  0.84809554  0.17404827  0.38873043  1
  Mg  Mg11  1  0.84809554  0.17404827  0.86126957  1
  Mg  Mg12  1  0.83333300  0.66666700  0.37048284  1
  Mg  Mg13  1  0.83333300  0.66666700  0.87951716  1
  C  C0  1  0.16666700  0.33333300  0.62500000  1
loop_
_geom_bond_atom_site_label_1
_geom_bond_atom_site_label_2
_geom_bond_distance
_geom_bond_site_symmetry_2
Li0 Mg7 3.130402 1_554
Li0 Mg6 3.130402 1_555
Li0 Mg9 3.130408 1_554
Li0 Mg8 3.130408 1_555
Li0 Mg11 3.130408 1_454
Li0 Mg10 3.130408 1_455
Li0 Mg0 3.134135 1_555
Li0 Mg4 3.134135 1_555
Li0 Mg4 3.134135 1_445
Li0 Mg0 3.134135 1_545
Li0 Mg2 3.134135 1_455
Li0 Mg2 3.134135 1_555
Mg0 Mg13 3.050244 1_454
Mg0 Mg12 3.050244 1_455
Mg0 Mg2 3.072019 1_565
Mg0 Mg4 3.072019 1_555
Mg0 Mg9 3.189648 1_554
Mg0 Mg8 3.189648 1_555
Mg0 Mg7 3.189654 1_564
Mg0 Mg6 3.189654 1_565
Mg0 Mg2 3.195844 1_455
Mg0 Mg4 3.195844 1_455
Mg1 Mg12 3.079899 1_455
Mg1 Mg13 3.079899 1_455
Mg2 Mg4 3.072019 1_545
Mg2 Mg7 3.189654 1_554
Mg2 Mg6 3.189654 1_555
Mg2 Mg4 3.195844 1_555
Mg4 Mg9 3.189654 1_554
Mg4 Mg8 3.189654 1_555
Mg10 Mg12 3.140150 1_545
Mg10 Mg12 3.140150 1_555
Mg10 Mg2 3.189648 1_555
Mg10 Mg4 3.189654 1_545
Mg11 Mg13 3.140150 1_545
Mg11 Mg13 3.140150 1_555
Mg11 Mg2 3.189648 1_556
Mg11 Mg4 3.189654 1_546
Mg12 Mg4 3.050237 1_555
Mg12 Mg2 3.050244 1_555
Mg12 Mg5 3.079893 1_555
Mg12 Mg3 3.079899 1_555
Mg12 Mg6 3.140150 1_665
Mg12 Mg6 3.140150 1_555
Mg12 Mg8 3.140151 1_655
Mg12 Mg8 3.140151 1_555
Mg13 Mg4 3.050237 1_556
Mg13 Mg2 3.050244 1_556
Mg13 Mg5 3.079893 1_555
Mg13 Mg3 3.079899 1_555
Mg13 Mg7 3.140150 1_665
Mg13 Mg7 3.140150 1_555
Mg13 Mg9 3.140151 1_655
Mg13 Mg9 3.140151 1_555
C0 Mg6 2.907789 1_555
C0 Mg7 2.907789 1_555
C0 Mg8 2.907795 1_555
C0 Mg9 2.907795 1_555
C0 Mg10 2.907796 1_455
C0 Mg11 2.907796 1_455
