# generated using pymatgen
data_Zn9Ga3Mo2
_symmetry_space_group_name_H-M   'P 1'
_cell_length_a   5.42341504
_cell_length_b   5.42341504
_cell_length_c   8.70122638
_cell_angle_alpha   90.00000000
_cell_angle_beta   90.00000000
_cell_angle_gamma   120.00000152
_symmetry_Int_Tables_number   1
_chemical_formula_structural   Zn9Ga3Mo2
_chemical_formula_sum   'Zn9 Ga3 Mo2'
_cell_volume   221.64440659
_cell_formula_units_Z   1
loop_
 _symmetry_equiv_pos_site_id
 _symmetry_equiv_pos_as_xyz
  1  'x, y, z'
loop_
 _atom_site_type_symbol
 _atom_site_label
 _atom_site_symmetry_multiplicity
 _atom_site_fract_x
 _atom_site_fract_y
 _atom_site_fract_z
 _atom_site_occupancy
  Zn  Zn0  1  0.00000000  0.50000000  -0.00000000  1
  Zn  Zn1  1  0.50000000  0.50000000  -0.00000000  1
  Zn  Zn2  1  0.50000000  -0.00000000  -0.00000000  1
  Zn  Zn3  1  0.32007165  0.16003632  0.24146115  1
  Zn  Zn4  1  0.83996368  0.16003632  0.24146115  1
  Zn  Zn5  1  0.83996368  0.67992835  0.24146115  1
  Zn  Zn6  1  0.67992835  0.83996368  0.75853885  1
  Zn  Zn7  1  0.16003632  0.83996368  0.75853885  1
  Zn  Zn8  1  0.16003632  0.32007165  0.75853885  1
  Ga  Ga0  1  0.00000000  0.50000000  0.50000000  1
  Ga  Ga1  1  0.50000000  0.50000000  0.50000000  1
  Ga  Ga2  1  0.50000000  -0.00000000  0.50000000  1
  Mo  Mo0  1  0.66666700  0.33333300  0.73945087  1
  Mo  Mo1  1  0.33333300  0.66666700  0.26054913  1
loop_
_geom_bond_atom_site_label_1
_geom_bond_atom_site_label_2
_geom_bond_distance
_geom_bond_site_symmetry_2
Zn0 Zn7 2.639459 1_554
Zn0 Zn4 2.639459 1_455
Zn0 Zn5 2.639462 1_455
Zn0 Zn8 2.639462 1_554
Zn0 Zn2 2.711707 1_565
Zn0 Zn2 2.711707 1_455
Zn0 Zn1 2.711708 1_455
Zn0 Zn1 2.711708 1_555
Zn1 Zn6 2.639459 1_554
Zn1 Zn5 2.639459 1_555
Zn1 Zn3 2.639459 1_555
Zn1 Zn8 2.639459 1_554
Zn1 Zn2 2.711708 1_565
Zn1 Zn2 2.711708 1_555
Zn2 Zn7 2.639459 1_544
Zn2 Zn4 2.639459 1_555
Zn2 Zn6 2.639462 1_544
Zn2 Zn3 2.639462 1_555
Zn3 Zn5 2.603825 1_445
Zn3 Zn4 2.603825 1_455
Zn3 Zn5 2.819590 1_555
Zn3 Zn4 2.819590 1_555
Zn4 Zn5 2.603825 1_545
Zn4 Zn5 2.819590 1_555
Zn6 Zn8 2.603825 1_665
Zn6 Zn7 2.603825 1_655
Zn6 Zn8 2.819590 1_555
Zn6 Zn7 2.819590 1_555
Zn7 Zn8 2.603825 1_565
Zn7 Zn8 2.819590 1_555
Ga0 Mo0 2.606176 1_455
Ga0 Mo1 2.606176 1_555
Ga0 Ga2 2.711707 1_565
Ga0 Ga2 2.711707 1_455
Ga0 Ga1 2.711708 1_455
Ga0 Ga1 2.711708 1_555
Ga0 Zn4 2.759209 1_455
Ga0 Zn7 2.759209 1_555
Ga0 Zn8 2.759211 1_555
Ga0 Zn5 2.759211 1_455
Ga1 Mo0 2.606179 1_555
Ga1 Mo1 2.606179 1_555
Ga1 Ga2 2.711708 1_565
Ga1 Ga2 2.711708 1_555
Ga1 Zn8 2.759209 1_555
Ga1 Zn6 2.759209 1_555
Ga1 Zn3 2.759209 1_555
Ga1 Zn5 2.759209 1_555
Ga2 Mo1 2.606176 1_545
Ga2 Mo0 2.606176 1_555
Ga2 Zn4 2.759209 1_555
Ga2 Zn7 2.759209 1_545
Ga2 Zn3 2.759211 1_555
Ga2 Zn6 2.759211 1_545
Mo0 Zn7 2.717503 1_545
Mo0 Zn7 2.717503 1_655
Mo0 Zn6 2.717503 1_545
Mo0 Zn8 2.717503 1_655
Mo0 Zn8 2.717503 1_555
Mo0 Zn6 2.717503 1_555
Mo0 Zn2 2.755148 1_556
Mo0 Zn0 2.755148 1_656
Mo0 Zn1 2.755151 1_556
Mo1 Zn4 2.717503 1_455
Mo1 Zn4 2.717503 1_565
Mo1 Zn5 2.717503 1_455
Mo1 Zn3 2.717503 1_565
Mo1 Zn5 2.717503 1_555
Mo1 Zn3 2.717503 1_555
Mo1 Zn2 2.755148 1_565
Mo1 Zn0 2.755148 1_555
Mo1 Zn1 2.755151 1_555
