# generated using pymatgen
data_Li3OsN2
_symmetry_space_group_name_H-M   'P 1'
_cell_length_a   8.47050405
_cell_length_b   9.78089481
_cell_length_c   9.78089547
_cell_angle_alpha   89.99999871
_cell_angle_beta   125.26438774
_cell_angle_gamma   54.73560952
_symmetry_Int_Tables_number   1
_chemical_formula_structural   Li3OsN2
_chemical_formula_sum   'Li24 Os8 N16'
_cell_volume   467.84913971
_cell_formula_units_Z   8
loop_
 _symmetry_equiv_pos_site_id
 _symmetry_equiv_pos_as_xyz
  1  'x, y, z'
loop_
 _atom_site_type_symbol
 _atom_site_label
 _atom_site_symmetry_multiplicity
 _atom_site_fract_x
 _atom_site_fract_y
 _atom_site_fract_z
 _atom_site_occupancy
  Li  Li0  1  0.22255850  0.04198226  0.98755252  1
  Li  Li1  1  0.77744150  0.76453976  0.51244748  1
  Li  Li2  1  0.77744150  0.45801774  0.76499402  1
  Li  Li3  1  0.22255850  0.73546024  0.73500598  1
  Li  Li4  1  0.24745346  0.76499402  0.27698724  1
  Li  Li5  1  0.75254654  0.73500598  0.02953378  1
  Li  Li6  1  0.24745346  0.98755252  0.47046622  1
  Li  Li7  1  0.75254654  0.51244748  0.22301276  1
  Li  Li8  1  0.69347798  0.02953378  0.73546024  1
  Li  Li9  1  0.69347798  0.27698724  0.45801774  1
  Li  Li10  1  0.30652202  0.22301276  0.76453976  1
  Li  Li11  1  0.30652202  0.47046622  0.04198226  1
  Li  Li12  1  0.77744150  0.95801774  0.01244748  1
  Li  Li13  1  0.22255850  0.23546024  0.48755252  1
  Li  Li14  1  0.22255850  0.54198226  0.23500598  1
  Li  Li15  1  0.77744150  0.26453976  0.26499402  1
  Li  Li16  1  0.75254654  0.23500598  0.72301276  1
  Li  Li17  1  0.24745346  0.26499402  0.97046622  1
  Li  Li18  1  0.75254654  0.01244748  0.52953378  1
  Li  Li19  1  0.24745346  0.48755252  0.77698724  1
  Li  Li20  1  0.30652202  0.97046622  0.26453976  1
  Li  Li21  1  0.30652202  0.72301276  0.54198226  1
  Li  Li22  1  0.69347798  0.77698724  0.23546024  1
  Li  Li23  1  0.69347798  0.52953378  0.95801774  1
  Os  Os0  1  0.22795982  1.00000000  0.72795982  1
  Os  Os1  1  0.77204018  0.72795982  0.77204018  1
  Os  Os2  1  0.77204018  0.50000000  0.50000000  1
  Os  Os3  1  0.22795982  0.77204018  1.00000000  1
  Os  Os4  1  0.77204018  0.00000000  0.27204018  1
  Os  Os5  1  0.22795982  0.27204018  0.22795982  1
  Os  Os6  1  0.22795982  0.50000000  0.50000000  1
  Os  Os7  1  0.77204018  0.22795982  0.00000000  1
  N  N0  1  0.00000000  0.00000000  0.50000000  1
  N  N1  1  0.00000000  0.50000000  0.00000000  1
  N  N2  1  0.00000000  0.50000000  0.50000000  1
  N  N3  1  0.00000000  0.00000000  0.00000000  1
  N  N4  1  0.50000000  0.97964177  0.75000000  1
  N  N5  1  0.50000000  0.52035823  0.25000000  1
  N  N6  1  0.00000000  0.25000000  0.72964177  1
  N  N7  1  0.00000000  0.75000000  0.77035823  1
  N  N8  1  0.54071746  0.72964177  0.52035823  1
  N  N9  1  0.45928254  0.77035823  0.97964177  1
  N  N10  1  0.50000000  0.02035823  0.25000000  1
  N  N11  1  0.50000000  0.47964177  0.75000000  1
  N  N12  1  0.00000000  0.75000000  0.27035823  1
  N  N13  1  0.00000000  0.25000000  0.22964177  1
  N  N14  1  0.45928254  0.27035823  0.47964177  1
  N  N15  1  0.54071746  0.22964177  0.02035823  1
loop_
_geom_bond_atom_site_label_1
_geom_bond_atom_site_label_2
_geom_bond_distance
_geom_bond_site_symmetry_2
Li0 N6 2.033914 1_555
Li0 N10 2.148758 1_556
Li0 N3 2.212742 1_556
Li0 N9 2.261135 1_545
Li1 N7 2.033918 1_655
Li1 N10 2.148763 1_565
Li1 N2 2.212735 1_655
Li1 N8 2.261122 1_555
Li2 N6 2.033914 1_655
Li2 N11 2.148758 1_555
Li2 N1 2.212742 1_656
Li2 N8 2.261141 1_555
Li3 N7 2.033918 1_555
Li3 N11 2.148763 1_555
Li3 N0 2.212735 1_565
Li3 N9 2.261128 1_555
Li4 N8 2.033922 1_555
Li4 N12 2.148763 1_555
Li4 N3 2.212735 1_565
Li4 N5 2.261131 1_555
Li5 N9 2.033927 1_554
Li5 N12 2.148763 1_655
Li5 N1 2.212735 1_655
Li5 N4 2.261131 1_554
Li6 N8 2.033921 1_555
Li6 N13 2.148763 1_565
Li6 N0 2.212735 1_565
Li6 N4 2.261131 1_555
Li7 N9 2.033917 1_554
Li7 N13 2.148763 1_655
Li7 N2 2.212735 1_655
Li7 N5 2.261131 1_555
Li8 N4 2.033910 1_545
Li8 N14 2.148763 1_555
Li8 N3 2.212739 1_656
Li8 N7 2.261134 1_645
Li9 N5 2.033917 1_555
Li9 N14 2.148770 1_555
Li9 N0 2.212733 1_655
Li9 N6 2.261139 1_655
Li10 N4 2.033917 1_545
Li10 N15 2.148763 1_556
Li10 N2 2.212733 1_555
Li10 N6 2.261139 1_555
Li11 N5 2.033910 1_555
Li11 N15 2.148769 1_555
Li11 N1 2.212739 1_555
Li11 N7 2.261134 1_554
Li12 N12 2.033914 1_655
Li12 N4 2.148758 1_554
Li12 N3 2.212742 1_665
Li12 N15 2.261135 1_565
Li13 N13 2.033918 1_555
Li13 N4 2.148763 1_545
Li13 N2 2.212735 1_555
Li13 N14 2.261122 1_555
Li14 N12 2.033914 1_555
Li14 N5 2.148758 1_555
Li14 N1 2.212742 1_555
Li14 N14 2.261141 1_555
Li15 N13 2.033918 1_655
Li15 N5 2.148763 1_555
Li15 N0 2.212735 1_655
Li15 N15 2.261128 1_555
Li16 N14 2.033922 1_555
Li16 N6 2.148763 1_655
Li16 N3 2.212735 1_656
Li16 N11 2.261131 1_555
Li17 N15 2.033927 1_556
Li17 N6 2.148763 1_555
Li17 N1 2.212735 1_556
Li17 N10 2.261131 1_556
Li18 N14 2.033921 1_555
Li18 N7 2.148763 1_645
Li18 N0 2.212735 1_655
Li18 N10 2.261131 1_555
Li19 N15 2.033917 1_556
Li19 N7 2.148763 1_555
Li19 N2 2.212735 1_555
Li19 N11 2.261131 1_555
Li20 N10 2.033910 1_565
Li20 N8 2.148763 1_555
Li20 N3 2.212739 1_565
Li20 N13 2.261134 1_565
Li21 N11 2.033917 1_555
Li21 N8 2.148770 1_555
Li21 N0 2.212733 1_565
Li21 N12 2.261139 1_555
Li22 N10 2.033917 1_565
Li22 N9 2.148763 1_554
Li22 N2 2.212733 1_655
Li22 N12 2.261139 1_655
Li23 N11 2.033910 1_555
Li23 N9 2.148769 1_555
Li23 N1 2.212739 1_656
Li23 N13 2.261134 1_656
N0 Os4 1.930935 1_455
N0 Os0 1.930935 1_545
N1 Os5 1.930934 1_555
N1 Os1 1.930934 1_454
N2 Os6 1.930935 1_555
N2 Os2 1.930935 1_455
N3 Os7 1.930934 1_455
N3 Os3 1.930934 1_544
N4 Os1 2.071855 1_555
N4 Os0 2.071855 1_555
N5 Os3 2.071855 1_554
N5 Os2 2.071855 1_555
N6 Os2 2.071855 1_455
N6 Os0 2.071855 1_545
N7 Os1 2.071855 1_455
N7 Os3 2.071855 1_555
N8 Os2 2.071852 1_555
N8 Os1 2.071853 1_555
N9 Os3 2.071846 1_555
N9 Os0 2.071858 1_555
N10 Os5 2.071855 1_555
N10 Os4 2.071855 1_555
N11 Os7 2.071855 1_556
N11 Os6 2.071855 1_555
N12 Os6 2.071855 1_555
N12 Os4 2.071855 1_465
N13 Os5 2.071855 1_555
N13 Os7 2.071855 1_455
N14 Os6 2.071852 1_555
N14 Os5 2.071853 1_555
N15 Os7 2.071846 1_555
N15 Os4 2.071858 1_555
