# generated using pymatgen
data_PrYSi2O7
_symmetry_space_group_name_H-M   'P 1'
_cell_length_a   6.14449933
_cell_length_b   10.73660600
_cell_length_c   11.16593239
_cell_angle_alpha   90.00000000
_cell_angle_beta   102.97472740
_cell_angle_gamma   90.00000000
_symmetry_Int_Tables_number   1
_chemical_formula_structural   PrYSi2O7
_chemical_formula_sum   'Pr4 Y4 Si8 O28'
_cell_volume   717.82176915
_cell_formula_units_Z   4
loop_
 _symmetry_equiv_pos_site_id
 _symmetry_equiv_pos_as_xyz
  1  'x, y, z'
loop_
 _atom_site_type_symbol
 _atom_site_label
 _atom_site_symmetry_multiplicity
 _atom_site_fract_x
 _atom_site_fract_y
 _atom_site_fract_z
 _atom_site_occupancy
  Pr  Pr0  1  0.60277800  0.13585100  0.28408700  1
  Pr  Pr1  1  0.89722200  0.63585100  0.21591300  1
  Pr  Pr2  1  0.39722200  0.86414900  0.71591300  1
  Pr  Pr3  1  0.10277800  0.36414900  0.78408700  1
  Y  Y0  1  0.25408800  0.37687800  0.44592100  1
  Y  Y1  1  0.24591200  0.87687800  0.05407900  1
  Y  Y2  1  0.74591200  0.62312200  0.55407900  1
  Y  Y3  1  0.75408800  0.12312200  0.94592100  1
  Si  Si0  1  0.73850000  0.84917100  0.02314800  1
  Si  Si1  1  0.76150000  0.34917100  0.47685200  1
  Si  Si2  1  0.26150000  0.15082900  0.97685200  1
  Si  Si3  1  0.23850000  0.65082900  0.52314800  1
  Si  Si4  1  0.95506400  0.70611900  0.83882500  1
  Si  Si5  1  0.54493600  0.20611900  0.66117500  1
  Si  Si6  1  0.04493700  0.29388100  0.16117500  1
  Si  Si7  1  0.45506300  0.79388100  0.33882500  1
  O  O0  1  0.82027200  0.20561900  0.14012600  1
  O  O1  1  0.67972800  0.70561900  0.35987400  1
  O  O2  1  0.17972800  0.79438100  0.85987400  1
  O  O3  1  0.32027200  0.29438100  0.64012600  1
  O  O4  1  0.89049300  0.73296100  0.97968000  1
  O  O5  1  0.60950700  0.23296100  0.52032000  1
  O  O6  1  0.10950700  0.26703900  0.02032000  1
  O  O7  1  0.39049300  0.76703900  0.47968000  1
  O  O8  1  0.58434300  0.92908300  0.91150700  1
  O  O9  1  0.91565700  0.42908300  0.58849300  1
  O  O10  1  0.41565700  0.07091700  0.08849300  1
  O  O11  1  0.08434300  0.57091700  0.41150700  1
  O  O12  1  0.58848700  0.77660200  0.10323200  1
  O  O13  1  0.91151300  0.27660200  0.39676800  1
  O  O14  1  0.41151300  0.22339800  0.89676800  1
  O  O15  1  0.08848700  0.72339800  0.60323200  1
  O  O16  1  0.42149100  0.55313200  0.59626200  1
  O  O17  1  0.07850900  0.05313200  0.90373800  1
  O  O18  1  0.57850900  0.44686800  0.40373800  1
  O  O19  1  0.92149100  0.94686800  0.09626200  1
  O  O20  1  0.00630600  0.55992000  0.82520200  1
  O  O21  1  0.49369400  0.05992000  0.67479800  1
  O  O22  1  0.99369400  0.44008000  0.17479800  1
  O  O23  1  0.50630600  0.94008000  0.32520200  1
  O  O24  1  0.76352600  0.24911000  0.76826200  1
  O  O25  1  0.73647400  0.74911000  0.73173800  1
  O  O26  1  0.23647400  0.75089000  0.23173800  1
  O  O27  1  0.26352600  0.25089000  0.26826200  1
loop_
_geom_bond_atom_site_label_1
_geom_bond_atom_site_label_2
_geom_bond_distance
_geom_bond_site_symmetry_2
O0 Si6 1.647183 1_655
O0 Y3 2.292646 1_554
O0 Pr0 2.428087 1_555
O1 Si7 1.647183 1_555
O1 Y2 2.292646 1_555
O1 Pr1 2.428087 1_555
O2 Si4 1.647178 1_455
O2 Y1 2.292646 1_556
O2 Pr2 2.428087 1_555
O3 Si5 1.647178 1_555
O3 Y0 2.292646 1_555
O3 Pr3 2.428087 1_555
O4 Si0 1.693543 1_556
O4 Si4 1.730406 1_555
O4 Y1 2.651855 1_656
O4 Pr1 2.828004 1_556
O5 Si1 1.693543 1_555
O5 Si5 1.730406 1_555
O5 Y0 2.651855 1_555
O5 Pr0 2.828004 1_555
O6 Si2 1.693543 1_554
O6 Si6 1.730404 1_555
O6 Y3 2.651855 1_454
O6 Pr3 2.828004 1_554
O7 Si3 1.693543 1_555
O7 Si7 1.730404 1_555
O7 Y2 2.651855 1_555
O7 Pr2 2.828004 1_555
O8 Si0 1.630058 1_556
O8 Y3 2.322877 1_565
O8 Pr2 2.334574 1_555
O9 Si1 1.630058 1_555
O9 Y2 2.322877 1_555
O9 Pr3 2.334574 1_655
O10 Si2 1.630058 1_554
O10 Y1 2.322877 1_545
O10 Pr0 2.334574 1_555
O11 Si3 1.630058 1_555
O11 Y0 2.322877 1_555
O11 Pr1 2.334574 1_455
O12 Si0 1.620628 1_555
O12 Y1 2.317843 1_555
O12 Pr1 2.528565 1_555
O13 Si1 1.620628 1_555
O13 Y0 2.317843 1_655
O13 Pr0 2.528565 1_555
O14 Si2 1.620628 1_555
O14 Y3 2.317843 1_555
O14 Pr3 2.528565 1_555
O15 Si3 1.620628 1_555
O15 Y2 2.317843 1_455
O15 Pr2 2.528565 1_555
O16 Si3 1.618273 1_555
O16 Y2 2.276360 1_555
O16 Y0 2.584908 1_555
O17 Si2 1.618273 1_555
O17 Y3 2.276360 1_455
O17 Y1 2.584908 1_546
O18 Si1 1.618273 1_555
O18 Y0 2.276360 1_555
O18 Y2 2.584908 1_555
O19 Si0 1.618273 1_555
O19 Y1 2.276360 1_655
O19 Y3 2.584908 1_564
O20 Si4 1.614831 1_455
O20 Pr3 2.258847 1_555
O21 Si5 1.614831 1_555
O21 Pr2 2.258847 1_545
O22 Si6 1.614832 1_655
O22 Pr1 2.258847 1_555
O23 Si7 1.614832 1_555
O23 Pr0 2.258847 1_565
O24 Si5 1.650950 1_555
O24 Pr3 2.395130 1_655
O24 Y3 2.412458 1_555
O25 Si4 1.650950 1_555
O25 Pr2 2.395130 1_555
O25 Y2 2.412458 1_555
O26 Si7 1.650946 1_555
O26 Pr1 2.395130 1_455
O26 Y1 2.412458 1_555
O27 Si6 1.650946 1_555
O27 Pr0 2.395130 1_555
O27 Y0 2.412458 1_555
