# generated using pymatgen
data_BaSrPrWO6
_symmetry_space_group_name_H-M   'P 1'
_cell_length_a   6.08731619
_cell_length_b   6.10283759
_cell_length_c   8.57081349
_cell_angle_alpha   90.17786360
_cell_angle_beta   90.79803280
_cell_angle_gamma   90.15925964
_symmetry_Int_Tables_number   1
_chemical_formula_structural   BaSrPrWO6
_chemical_formula_sum   'Ba2 Sr2 Pr2 W2 O12'
_cell_volume   318.37119462
_cell_formula_units_Z   2
loop_
 _symmetry_equiv_pos_site_id
 _symmetry_equiv_pos_as_xyz
  1  'x, y, z'
loop_
 _atom_site_type_symbol
 _atom_site_label
 _atom_site_symmetry_multiplicity
 _atom_site_fract_x
 _atom_site_fract_y
 _atom_site_fract_z
 _atom_site_occupancy
  Ba  Ba0  1  0.50745111  0.52809908  0.24877874  1
  Ba  Ba1  1  0.49254889  0.47190092  0.75122126  1
  Sr  Sr0  1  0.99232229  0.03558077  0.25347088  1
  Sr  Sr1  1  0.00767771  0.96441923  0.74652912  1
  Pr  Pr0  1  0.00000000  0.50000000  -0.00000000  1
  Pr  Pr1  1  0.50000000  -0.00000000  0.50000000  1
  W  W0  1  0.50000000  -0.00000000  -0.00000000  1
  W  W1  1  0.00000000  0.50000000  0.50000000  1
  O  O0  1  0.23518371  0.19323367  0.95545439  1
  O  O1  1  0.26384295  0.69463690  0.52826849  1
  O  O2  1  0.76481629  0.80676633  0.04454561  1
  O  O3  1  0.73615705  0.30536310  0.47173151  1
  O  O4  1  0.29991511  0.73769530  0.95560319  1
  O  O5  1  0.18951703  0.22636177  0.54603539  1
  O  O6  1  0.70008489  0.26230470  0.04439681  1
  O  O7  1  0.81048297  0.77363823  0.45396461  1
  O  O8  1  0.41255389  0.99853670  0.22663562  1
  O  O9  1  0.06958562  0.46997068  0.27215608  1
  O  O10  1  0.58744611  0.00146330  0.77336438  1
  O  O11  1  0.93041438  0.53002932  0.72784392  1
loop_
_geom_bond_atom_site_label_1
_geom_bond_atom_site_label_2
_geom_bond_distance
_geom_bond_site_symmetry_2
Ba0 O6 2.669255 1_555
Ba0 O9 2.698249 1_555
Ba0 O3 2.718459 1_555
Ba0 O2 2.913897 1_555
Ba0 O7 2.935781 1_555
Ba0 O8 2.936313 1_555
Ba0 O1 3.010389 1_555
Ba0 O4 3.080039 1_554
Ba0 O8 3.285913 1_545
Ba1 O4 2.669255 1_555
Ba1 O11 2.698249 1_555
Ba1 O1 2.718459 1_555
Ba1 O0 2.913897 1_555
Ba1 O5 2.935781 1_555
Ba1 O10 2.936313 1_555
Ba1 O3 3.010389 1_555
Ba1 O6 3.080039 1_556
Ba1 O10 3.285913 1_565
O0 W0 2.032555 1_556
O0 Pr0 2.392899 1_556
O0 Sr1 2.641787 1_545
O0 Sr0 3.122176 1_456
O1 W1 2.006482 1_555
O1 Pr1 2.365552 1_565
O1 Sr1 2.952656 1_555
O2 W0 2.032555 1_565
O2 Pr0 2.392899 1_655
O2 Sr0 2.641787 1_565
O2 Sr1 3.122176 1_654
O3 W1 2.006482 1_655
O3 Pr1 2.365552 1_555
O3 Sr0 2.952656 1_555
O4 W0 2.040418 1_566
O4 Pr0 2.364368 1_556
O4 Sr1 2.868877 1_555
O5 W1 2.068213 1_555
O5 Pr1 2.380780 1_555
O5 Sr1 2.606499 1_545
O5 Sr0 2.995735 1_455
O6 W0 2.040418 1_555
O6 Pr0 2.364368 1_655
O6 Sr0 2.868877 1_555
O7 W1 2.068213 1_655
O7 Pr1 2.380780 1_565
O7 Sr0 2.606499 1_565
O7 Sr1 2.995735 1_655
O8 W0 2.021247 1_565
O8 Pr1 2.395408 1_565
O8 Sr0 2.582068 1_465
O9 W1 2.011896 1_555
O9 Pr0 2.372677 1_555
O9 Sr0 2.695004 1_455
O10 W0 2.021247 1_556
O10 Pr1 2.395408 1_555
O10 Sr1 2.582068 1_645
O11 W1 2.011896 1_655
O11 Pr0 2.372677 1_656
O11 Sr1 2.695004 1_655
