# generated using pymatgen
data_RbSb2PO8
_symmetry_space_group_name_H-M   'P 1'
_cell_length_a   7.30036261
_cell_length_b   7.30036261
_cell_length_c   15.26586699
_cell_angle_alpha   84.28487889
_cell_angle_beta   84.28487889
_cell_angle_gamma   59.36292363
_symmetry_Int_Tables_number   1
_chemical_formula_structural   RbSb2PO8
_chemical_formula_sum   'Rb4 Sb8 P4 O32'
_cell_volume   695.41684688
_cell_formula_units_Z   4
loop_
 _symmetry_equiv_pos_site_id
 _symmetry_equiv_pos_as_xyz
  1  'x, y, z'
loop_
 _atom_site_type_symbol
 _atom_site_label
 _atom_site_symmetry_multiplicity
 _atom_site_fract_x
 _atom_site_fract_y
 _atom_site_fract_z
 _atom_site_occupancy
  Rb  Rb0  1  0.68128300  0.92269600  0.92039100  1
  Rb  Rb1  1  0.92269600  0.68128300  0.42039100  1
  Rb  Rb2  1  0.74081500  0.98003700  0.64693000  1
  Rb  Rb3  1  0.98003700  0.74081500  0.14693000  1
  Sb  Sb0  1  0.21123400  0.95673900  0.78540900  1
  Sb  Sb1  1  0.95673900  0.21123400  0.28540900  1
  Sb  Sb2  1  0.37757000  0.64223300  0.59538000  1
  Sb  Sb3  1  0.64223300  0.37757000  0.09538000  1
  Sb  Sb4  1  0.70864300  0.45396000  0.77859900  1
  Sb  Sb5  1  0.45396000  0.70864300  0.27859900  1
  Sb  Sb6  1  0.02480300  0.28785700  0.96852500  1
  Sb  Sb7  1  0.28785700  0.02480300  0.46852500  1
  P  P0  1  0.11999600  0.34486600  0.63800100  1
  P  P1  1  0.34486600  0.11999600  0.13800100  1
  P  P2  1  0.32176100  0.54478100  0.92574000  1
  P  P3  1  0.54478100  0.32176100  0.42574000  1
  O  O0  1  0.39573100  0.49250800  0.35727700  1
  O  O1  1  0.49250700  0.39573100  0.85727700  1
  O  O2  1  0.17720700  0.81099800  0.69193900  1
  O  O3  1  0.81099800  0.17720700  0.19193900  1
  O  O4  1  0.84983900  0.49062100  0.87362400  1
  O  O5  1  0.49062100  0.84983900  0.37362400  1
  O  O6  1  0.16208700  0.76157300  0.88006700  1
  O  O7  1  0.76157300  0.16208700  0.38006700  1
  O  O8  1  0.52599000  0.76983400  0.77957400  1
  O  O9  1  0.76983400  0.52599000  0.27957400  1
  O  O10  1  0.42714500  0.58159300  0.00022100  1
  O  O11  1  0.58159300  0.42714500  0.50022100  1
  O  O12  1  0.21369500  0.48216900  0.59612900  1
  O  O13  1  0.48216900  0.21369500  0.09612900  1
  O  O14  1  0.16853800  0.27187600  0.20443100  1
  O  O15  1  0.27187600  0.16853800  0.70443100  1
  O  O16  1  0.49806300  0.83265800  0.55918600  1
  O  O17  1  0.83265800  0.49806300  0.05918600  1
  O  O18  1  0.89513600  0.13869700  0.78511900  1
  O  O19  1  0.13869700  0.89513600  0.28511900  1
  O  O20  1  0.18762100  0.44748600  0.96842900  1
  O  O21  1  0.44748600  0.18762100  0.46842900  1
  O  O22  1  0.90598400  0.50383800  0.68565500  1
  O  O23  1  0.50383800  0.90598400  0.18565500  1
  O  O24  1  0.83691300  0.16565100  0.00552400  1
  O  O25  1  0.16565100  0.83691300  0.50552400  1
  O  O26  1  0.09058000  0.24208800  0.38549700  1
  O  O27  1  0.24208800  0.09058000  0.88549700  1
  O  O28  1  0.58241000  0.42251800  0.67566700  1
  O  O29  1  0.42251800  0.58241000  0.17566700  1
  O  O30  1  0.07981600  0.24178000  0.56336900  1
  O  O31  1  0.24178000  0.07981600  0.06336900  1
loop_
_geom_bond_atom_site_label_1
_geom_bond_atom_site_label_2
_geom_bond_distance
_geom_bond_site_symmetry_2
O0 P3 1.553953 1_555
O0 Sb5 2.077847 1_555
O0 Rb1 3.082907 1_455
O1 P2 1.553950 1_555
O1 Sb4 2.077853 1_555
O1 Rb0 3.082906 1_545
O2 Sb0 1.967765 1_555
O2 Sb2 1.981383 1_555
O2 Rb2 2.899069 1_455
O3 Sb1 1.967765 1_555
O3 Sb3 1.981383 1_555
O3 Rb3 2.899069 1_545
O4 Sb4 1.973526 1_555
O4 Sb6 1.983916 1_655
O4 Rb0 2.879431 1_555
O5 Sb5 1.973526 1_555
O5 Sb7 1.983916 1_565
O5 Rb1 2.879431 1_555
O6 P2 1.552922 1_555
O6 Sb0 2.062660 1_555
O6 Rb0 3.096583 1_455
O7 P3 1.552922 1_555
O7 Sb1 2.062660 1_555
O7 Rb1 3.096583 1_545
O8 Sb0 1.984359 1_555
O8 Sb4 1.991191 1_555
O8 Rb0 3.066657 1_555
O8 Rb2 3.180604 1_555
O9 Sb1 1.984359 1_555
O9 Sb5 1.991191 1_555
O9 Rb1 3.066657 1_555
O9 Rb3 3.180604 1_555
O10 P2 1.550070 1_554
O10 Sb3 2.105717 1_555
O10 Rb3 3.495251 1_455
O11 P3 1.550070 1_555
O11 Sb2 2.105717 1_555
O11 Rb2 3.495251 1_545
O12 P0 1.537969 1_555
O12 Sb2 2.053349 1_555
O12 Rb1 3.321824 1_455
O13 P1 1.537969 1_555
O13 Sb3 2.053349 1_555
O13 Rb0 3.321824 1_544
O14 P1 1.556957 1_555
O14 Sb1 2.079163 1_455
O14 Rb3 3.037215 1_455
O15 P0 1.556957 1_555
O15 Sb0 2.079163 1_545
O15 Rb2 3.037215 1_545
O16 Sb2 2.002046 1_555
O16 Sb7 2.020028 1_565
O16 Rb2 2.965735 1_555
O16 Rb1 3.314686 1_555
O17 Sb3 2.002046 1_555
O17 Sb6 2.020028 1_654
O17 Rb3 2.965735 1_555
O17 Rb0 3.314686 1_554
O18 Sb4 1.987035 1_555
O18 Sb0 1.991575 1_645
O18 Rb2 3.057956 1_545
O18 Rb0 3.225956 1_545
O19 Sb5 1.987035 1_555
O19 Sb1 1.991575 1_465
O19 Rb3 3.057956 1_455
O19 Rb1 3.225956 1_455
O20 P2 1.542011 1_555
O20 Sb6 2.044984 1_555
O20 Rb3 3.367479 1_456
O21 P3 1.542011 1_555
O21 Sb7 2.044984 1_555
O21 Rb2 3.367479 1_545
O22 P0 1.552695 1_655
O22 Sb4 2.060565 1_555
O22 Rb2 3.057661 1_555
O23 P1 1.552695 1_565
O23 Sb5 2.060565 1_555
O23 Rb3 3.057661 1_555
O24 Sb6 1.997242 1_654
O24 Sb3 2.021986 1_555
O24 Rb0 2.988774 1_544
O24 Rb3 3.344203 1_545
O25 Sb7 1.997242 1_565
O25 Sb2 2.021986 1_555
O25 Rb1 2.988774 1_455
O25 Rb2 3.344203 1_455
O26 Sb7 1.957465 1_555
O26 Sb1 1.982473 1_455
O26 Rb1 2.875964 1_455
O27 Sb6 1.957465 1_555
O27 Sb0 1.982473 1_545
O27 Rb0 2.875964 1_545
O28 Sb2 1.959614 1_555
O28 Sb4 1.986679 1_555
O28 Rb2 2.887622 1_545
O29 Sb3 1.959614 1_555
O29 Sb5 1.986679 1_555
O29 Rb3 2.887622 1_455
O30 P0 1.553307 1_555
O30 Sb7 2.116361 1_555
O30 Rb1 3.424524 1_455
O31 P1 1.553307 1_555
O31 Sb6 2.116361 1_554
O31 Rb0 3.424524 1_544
