# generated using pymatgen
data_Li3Co2O5
_symmetry_space_group_name_H-M   'P 1'
_cell_length_a   7.82587685
_cell_length_b   7.82587685
_cell_length_c   7.94720011
_cell_angle_alpha   76.31791743
_cell_angle_beta   76.31791743
_cell_angle_gamma   22.02772038
_symmetry_Int_Tables_number   1
_chemical_formula_structural   Li3Co2O5
_chemical_formula_sum   'Li6 Co4 O10'
_cell_volume   177.16791826
_cell_formula_units_Z   2
loop_
 _symmetry_equiv_pos_site_id
 _symmetry_equiv_pos_as_xyz
  1  'x, y, z'
loop_
 _atom_site_type_symbol
 _atom_site_label
 _atom_site_symmetry_multiplicity
 _atom_site_fract_x
 _atom_site_fract_y
 _atom_site_fract_z
 _atom_site_occupancy
  Li  Li0  1  0.80185900  0.80185900  0.09571200  1
  Li  Li1  1  0.00000000  0.00000000  0.50000000  1
  Li  Li2  1  0.19814100  0.19814100  0.90428800  1
  Li  Li3  1  0.40255500  0.40255500  0.29084200  1
  Li  Li4  1  0.59744500  0.59744500  0.70915800  1
  Li  Li5  1  0.00000000  0.00000000  0.00000000  1
  Co  Co0  1  0.40520000  0.40520000  0.80480200  1
  Co  Co1  1  0.59480000  0.59480000  0.19519800  1
  Co  Co2  1  0.80044500  0.80044500  0.60083700  1
  Co  Co3  1  0.19955500  0.19955500  0.39916300  1
  O  O0  1  0.99234000  0.99234000  0.75327100  1
  O  O1  1  0.19521400  0.19521400  0.16318200  1
  O  O2  1  0.39581200  0.39581200  0.57022500  1
  O  O3  1  0.60141300  0.60141300  0.97343500  1
  O  O4  1  0.79814800  0.79814800  0.36083100  1
  O  O5  1  0.60418800  0.60418800  0.42977500  1
  O  O6  1  0.80478600  0.80478600  0.83681800  1
  O  O7  1  0.00766000  0.00766000  0.24672900  1
  O  O8  1  0.20185200  0.20185200  0.63916900  1
  O  O9  1  0.39858700  0.39858700  0.02656500  1
loop_
_geom_bond_atom_site_label_1
_geom_bond_atom_site_label_2
_geom_bond_distance
_geom_bond_site_symmetry_2
Li0 O6 2.047111 1_554
Li0 O9 2.086186 1_655
Li0 O9 2.086186 1_565
Li0 O4 2.093946 1_555
Li0 O1 2.187218 1_655
Li0 O1 2.187218 1_565
Li1 O0 1.987721 1_445
Li1 O7 1.987721 1_555
Li1 O2 2.162978 1_455
Li1 O2 2.162978 1_545
Li1 O5 2.162978 1_545
Li1 O5 2.162978 1_455
Li2 O1 2.047111 1_556
Li2 O3 2.086186 1_455
Li2 O3 2.086186 1_545
Li2 O8 2.093946 1_555
Li2 O6 2.187218 1_545
Li2 O6 2.187218 1_455
Li3 O9 2.115780 1_555
Li3 O4 2.165113 1_455
Li3 O4 2.165113 1_545
Li3 O7 2.166315 1_655
Li3 O7 2.166315 1_565
Li3 O2 2.197650 1_555
Li4 O3 2.115780 1_555
Li4 O8 2.165113 1_565
Li4 O8 2.165113 1_655
Li4 O0 2.166315 1_455
Li4 O0 2.166315 1_545
Li4 O5 2.197650 1_555
Li5 O7 1.992440 1_555
Li5 O0 1.992440 1_444
Li5 O3 2.132820 1_544
Li5 O3 2.132820 1_454
Li5 O9 2.132820 1_455
Li5 O9 2.132820 1_545
Co0 O9 1.740707 1_556
Co0 O2 1.904139 1_555
Co0 O0 1.982708 1_545
Co0 O0 1.982708 1_455
Co0 O6 2.119163 1_545
Co0 O6 2.119163 1_455
Co1 O3 1.740707 1_554
Co1 O5 1.904139 1_555
Co1 O7 1.982708 1_655
Co1 O7 1.982708 1_565
Co1 O1 2.119163 1_655
Co1 O1 2.119163 1_565
Co2 O6 1.892567 1_555
Co2 O4 1.916186 1_555
Co2 O2 2.066266 1_565
Co2 O2 2.066266 1_655
Co2 O8 2.097657 1_565
Co2 O8 2.097657 1_655
Co3 O1 1.892567 1_555
Co3 O8 1.916186 1_555
Co3 O5 2.066266 1_455
Co3 O5 2.066266 1_545
Co3 O4 2.097657 1_545
Co3 O4 2.097657 1_455
