# generated using pymatgen
data_Sr(MnN)2
_symmetry_space_group_name_H-M   'P 1'
_cell_length_a   6.29320713
_cell_length_b   6.22795214
_cell_length_c   8.99127630
_cell_angle_alpha   90.00000263
_cell_angle_beta   44.40893586
_cell_angle_gamma   60.34241198
_symmetry_Int_Tables_number   1
_chemical_formula_structural   Sr(MnN)2
_chemical_formula_sum   'Sr2 Mn4 N4'
_cell_volume   174.37403821
_cell_formula_units_Z   2
loop_
 _symmetry_equiv_pos_site_id
 _symmetry_equiv_pos_as_xyz
  1  'x, y, z'
loop_
 _atom_site_type_symbol
 _atom_site_label
 _atom_site_symmetry_multiplicity
 _atom_site_fract_x
 _atom_site_fract_y
 _atom_site_fract_z
 _atom_site_occupancy
  Sr  Sr0  1  0.00000000  0.00000000  0.25000000  1
  Sr  Sr1  1  0.00000000  0.00000000  0.75000000  1
  Mn  Mn0  1  0.72918200  0.50000000  0.63540900  1
  Mn  Mn1  1  0.27081800  0.50000000  0.36459100  1
  Mn  Mn2  1  0.27081800  0.22918200  0.86459100  1
  Mn  Mn3  1  0.72918200  0.77081800  0.13540900  1
  N  N0  1  0.67908400  0.50000000  0.16045800  1
  N  N1  1  0.32091600  0.50000000  0.83954200  1
  N  N2  1  0.32091600  0.17908400  0.33954200  1
  N  N3  1  0.67908400  0.82091600  0.66045800  1
loop_
_geom_bond_atom_site_label_1
_geom_bond_atom_site_label_2
_geom_bond_distance
_geom_bond_site_symmetry_2
Mn0 N1 1.797933 1_555
Mn0 N2 1.849237 1_655
Mn0 N3 1.849238 1_555
Mn0 Sr1 3.304505 1_565
Mn0 Sr0 3.304505 1_566
Mn0 Sr0 3.304505 1_655
Mn0 Sr1 3.304505 1_655
Mn1 N0 1.797933 1_555
Mn1 N3 1.849237 1_455
Mn1 N2 1.849238 1_555
Mn1 Sr0 3.304505 1_655
Mn1 Sr1 3.304505 1_654
Mn1 Sr1 3.304505 1_565
Mn1 Sr0 3.304505 1_565
Mn2 N3 1.797933 1_545
Mn2 N0 1.849237 1_456
Mn2 N1 1.849238 1_555
Mn2 Sr1 3.304505 1_655
Mn2 Sr1 3.304505 1_555
Mn2 Sr0 3.304506 1_655
Mn2 Sr0 3.304506 1_556
Mn3 N2 1.797933 1_565
Mn3 N1 1.849237 1_654
Mn3 N0 1.849238 1_555
Mn3 Sr0 3.304505 1_565
Mn3 Sr0 3.304505 1_665
Mn3 Sr1 3.304506 1_565
Mn3 Sr1 3.304506 1_664
N0 Sr0 3.243931 1_565
N0 Sr1 3.243931 1_565
N0 Sr1 3.243931 1_654
N0 Sr0 3.243931 1_655
N1 Sr1 3.243931 1_655
N1 Sr0 3.243931 1_655
N1 Sr0 3.243931 1_566
N1 Sr1 3.243931 1_565
N2 Sr0 3.243931 1_655
N2 Sr0 3.243931 1_555
N2 Sr1 3.243932 1_654
N2 Sr1 3.243932 1_555
N3 Sr1 3.243931 1_565
N3 Sr1 3.243931 1_665
N3 Sr0 3.243932 1_566
N3 Sr0 3.243932 1_665
