# generated using pymatgen
data_Dy5BiPt2
_symmetry_space_group_name_H-M   'P 1'
_cell_length_a   8.77071702
_cell_length_b   8.77071702
_cell_length_c   8.77071702
_cell_angle_alpha   127.18936382
_cell_angle_beta   127.18936382
_cell_angle_gamma   77.94195752
_symmetry_Int_Tables_number   1
_chemical_formula_structural   Dy5BiPt2
_chemical_formula_sum   'Dy10 Bi2 Pt4'
_cell_volume   414.96928949
_cell_formula_units_Z   2
loop_
 _symmetry_equiv_pos_site_id
 _symmetry_equiv_pos_as_xyz
  1  'x, y, z'
loop_
 _atom_site_type_symbol
 _atom_site_label
 _atom_site_symmetry_multiplicity
 _atom_site_fract_x
 _atom_site_fract_y
 _atom_site_fract_z
 _atom_site_occupancy
  Dy  Dy0  1  -0.00000000  0.00000000  0.00000000  1
  Dy  Dy1  1  0.50000000  0.50000000  0.00000000  1
  Dy  Dy2  1  0.79089854  0.29089854  0.81058137  1
  Dy  Dy3  1  0.20910146  0.70910146  0.18941863  1
  Dy  Dy4  1  0.48031717  0.98031717  0.18941863  1
  Dy  Dy5  1  0.29089854  0.48031717  0.50000000  1
  Dy  Dy6  1  0.01968283  0.20910146  0.50000000  1
  Dy  Dy7  1  0.51968283  0.01968283  0.81058137  1
  Dy  Dy8  1  0.70910146  0.51968283  0.50000000  1
  Dy  Dy9  1  0.98031717  0.79089854  0.50000000  1
  Bi  Bi0  1  0.25000000  0.25000000  0.00000000  1
  Bi  Bi1  1  0.75000000  0.75000000  0.00000000  1
  Pt  Pt0  1  0.13970112  0.63970112  0.77940224  1
  Pt  Pt1  1  0.86029888  0.36029888  0.22059776  1
  Pt  Pt2  1  0.63970112  0.86029888  0.50000000  1
  Pt  Pt3  1  0.36029888  0.13970112  0.50000000  1
loop_
_geom_bond_atom_site_label_1
_geom_bond_atom_site_label_2
_geom_bond_distance
_geom_bond_site_symmetry_2
Dy0 Pt2 3.014575 1_444
Dy0 Pt3 3.014575 1_555
Dy0 Pt1 3.014575 1_455
Dy0 Pt0 3.014575 1_544
Dy1 Pt1 3.014575 1_555
Dy1 Pt3 3.014575 1_554
Dy1 Pt0 3.014575 1_554
Dy1 Pt2 3.014575 1_555
Dy2 Pt1 2.921574 1_556
Dy2 Pt2 2.954780 1_545
Dy2 Pt3 2.954780 1_555
Dy3 Pt0 2.921574 1_554
Dy3 Pt3 2.954780 1_565
Dy3 Pt2 2.954780 1_555
Dy4 Pt0 2.921574 1_554
Dy4 Pt3 2.954780 1_565
Dy4 Pt2 2.954780 1_555
Dy5 Pt3 2.921574 1_555
Dy5 Pt1 2.954780 1_455
Dy5 Pt0 2.954780 1_555
Dy6 Pt3 2.921574 1_555
Dy6 Pt1 2.954780 1_455
Dy6 Pt0 2.954780 1_555
Dy7 Pt1 2.921574 1_556
Dy7 Pt2 2.954780 1_545
Dy7 Pt3 2.954780 1_555
Dy8 Pt2 2.921574 1_555
Dy8 Pt0 2.954780 1_655
Dy8 Pt1 2.954780 1_555
Dy9 Pt2 2.921574 1_555
Dy9 Pt1 2.954780 1_555
Dy9 Pt0 2.954780 1_655
Bi0 Dy8 3.336536 1_555
Bi0 Dy3 3.336536 1_555
Bi0 Dy9 3.336536 1_444
Bi0 Dy4 3.336536 1_545
Bi0 Dy6 3.336536 1_554
Bi0 Dy2 3.336536 1_454
Bi0 Dy5 3.336536 1_555
Bi0 Dy7 3.336536 1_554
Bi0 Dy0 3.409461 1_555
Bi0 Dy1 3.409461 1_555
Bi1 Dy9 3.336536 1_555
Bi1 Dy5 3.336536 1_554
Bi1 Dy6 3.336536 1_665
Bi1 Dy8 3.336536 1_554
Bi1 Dy2 3.336536 1_554
Bi1 Dy4 3.336536 1_555
Bi1 Dy7 3.336536 1_564
Bi1 Dy3 3.336536 1_655
Bi1 Dy0 3.409461 1_665
Bi1 Dy1 3.409461 1_555
