# generated using pymatgen
data_Pr5Ir3
_symmetry_space_group_name_H-M   'P 1'
_cell_length_a   6.61306517
_cell_length_b   11.31778055
_cell_length_c   11.31774107
_cell_angle_alpha   89.99718931
_cell_angle_beta   90.00494152
_cell_angle_gamma   89.99831649
_symmetry_Int_Tables_number   1
_chemical_formula_structural   Pr5Ir3
_chemical_formula_sum   'Pr20 Ir12'
_cell_volume   847.07882003
_cell_formula_units_Z   4
loop_
 _symmetry_equiv_pos_site_id
 _symmetry_equiv_pos_as_xyz
  1  'x, y, z'
loop_
 _atom_site_type_symbol
 _atom_site_label
 _atom_site_symmetry_multiplicity
 _atom_site_fract_x
 _atom_site_fract_y
 _atom_site_fract_z
 _atom_site_occupancy
  Pr  Pr0  1  0.38914831  0.84136269  0.54295977  1
  Pr  Pr1  1  0.88914212  0.65869458  0.54295018  1
  Pr  Pr2  1  0.88909848  0.84134027  0.95710938  1
  Pr  Pr3  1  0.38910466  0.65872776  0.95710414  1
  Pr  Pr4  1  0.88915546  0.54276798  0.84114945  1
  Pr  Pr5  1  0.38916446  0.95718277  0.84117617  1
  Pr  Pr6  1  0.38915544  0.54279788  0.65867315  1
  Pr  Pr7  1  0.88914436  0.95718004  0.65866427  1
  Pr  Pr8  1  0.61083735  0.15870917  0.45721116  1
  Pr  Pr9  1  0.11083364  0.34122967  0.45719990  1
  Pr  Pr10  1  0.11086811  0.15872656  0.04273114  1
  Pr  Pr11  1  0.61087924  0.34120982  0.04271691  1
  Pr  Pr12  1  0.11088930  0.45713581  0.15878609  1
  Pr  Pr13  1  0.61088416  0.04289864  0.15875333  1
  Pr  Pr14  1  0.61090080  0.45712117  0.34139943  1
  Pr  Pr15  1  0.11089295  0.04291796  0.34141778  1
  Pr  Pr16  1  0.49999815  0.75005961  0.25012057  1
  Pr  Pr17  1  -0.00008370  0.75003779  0.25013094  1
  Pr  Pr18  1  -0.00013952  0.24996221  0.74986325  1
  Pr  Pr19  1  0.50004494  0.24994125  0.74987783  1
  Ir  Ir0  1  0.24999676  0.90350610  0.09651875  1
  Ir  Ir1  1  0.74999481  0.59655365  0.09654715  1
  Ir  Ir2  1  0.74999323  0.90353606  0.40364118  1
  Ir  Ir3  1  0.25001033  0.59650924  0.40361362  1
  Ir  Ir4  1  0.75002082  0.09655066  0.90331398  1
  Ir  Ir5  1  0.25003023  0.40341989  0.90330981  1
  Ir  Ir6  1  0.25001686  0.09647386  0.59651022  1
  Ir  Ir7  1  0.75000975  0.40344156  0.59655259  1
  Ir  Ir8  1  0.12540606  0.75003026  0.74993799  1
  Ir  Ir9  1  0.62539232  0.75002900  0.74993511  1
  Ir  Ir10  1  0.87461147  0.24997905  0.25006379  1
  Ir  Ir11  1  0.37459565  0.24996905  0.25005900  1
loop_
_geom_bond_atom_site_label_1
_geom_bond_atom_site_label_2
_geom_bond_distance
_geom_bond_site_symmetry_2
Pr0 Pr16 3.548286 1_555
Pr1 Pr17 3.548022 1_655
Pr10 Pr18 3.548370 1_554
Pr11 Pr19 3.548044 1_554
Pr12 Pr17 3.549211 1_555
Pr13 Pr16 3.548446 1_545
Pr14 Pr16 3.549151 1_555
Pr15 Pr17 3.548797 1_545
Pr16 Pr17 3.305991 1_655
Pr16 Pr17 3.307074 1_555
Pr16 Pr3 3.550208 1_554
Pr17 Pr2 3.549955 1_454
Pr18 Pr19 3.305313 1_455
Pr18 Pr19 3.307752 1_555
Pr18 Pr9 3.546396 1_555
Pr18 Pr7 3.547116 1_445
Pr18 Pr4 3.547634 1_455
Pr19 Pr8 3.546149 1_555
Pr19 Pr5 3.547360 1_545
Pr19 Pr6 3.548024 1_555
Ir0 Pr2 2.946201 1_454
Ir0 Pr13 2.946311 1_565
Ir0 Pr16 2.961506 1_555
Ir0 Pr17 2.962236 1_555
Ir0 Pr10 3.091970 1_565
Ir0 Pr5 3.093203 1_554
Ir0 Pr3 3.318322 1_554
Ir0 Pr15 3.319473 1_565
Ir1 Pr3 2.946313 1_554
Ir1 Pr12 2.946402 1_655
Ir1 Pr17 2.961498 1_655
Ir1 Pr16 2.961962 1_555
Ir1 Pr11 3.093450 1_555
Ir1 Pr4 3.094059 1_554
Ir1 Pr2 3.318433 1_554
Ir1 Pr14 3.319021 1_555
Ir2 Pr0 2.945569 1_555
Ir2 Pr15 2.946344 1_665
Ir2 Pr17 2.961220 1_655
Ir2 Pr16 2.961299 1_555
Ir2 Pr7 3.089627 1_555
Ir2 Pr8 3.091126 1_565
Ir2 Pr1 3.318221 1_555
Ir2 Pr13 3.318850 1_565
Ir3 Pr1 2.945838 1_455
Ir3 Pr14 2.946268 1_555
Ir3 Pr17 2.961602 1_555
Ir3 Pr16 2.961648 1_555
Ir3 Pr6 3.090084 1_555
Ir3 Pr9 3.092324 1_555
Ir3 Pr12 3.318516 1_555
Ir3 Pr0 3.318689 1_555
Ir4 Pr5 2.945734 1_545
Ir4 Pr10 2.946002 1_656
Ir4 Pr18 2.959898 1_655
Ir4 Pr19 2.959941 1_555
Ir4 Pr2 3.091781 1_545
Ir4 Pr13 3.094110 1_556
Ir4 Pr7 3.316932 1_545
Ir4 Pr11 3.317195 1_556
Ir5 Pr4 2.945661 1_455
Ir5 Pr11 2.945973 1_556
Ir5 Pr19 2.960908 1_555
Ir5 Pr18 2.961328 1_555
Ir5 Pr3 3.092909 1_555
Ir5 Pr12 3.094696 1_556
Ir5 Pr6 3.316748 1_555
Ir5 Pr10 3.317571 1_556
Ir6 Pr7 2.945477 1_445
Ir6 Pr8 2.945487 1_555
Ir6 Pr19 2.960345 1_555
Ir6 Pr18 2.960972 1_555
Ir6 Pr15 3.090111 1_555
Ir6 Pr0 3.090380 1_545
Ir6 Pr5 3.316440 1_545
Ir6 Pr9 3.317482 1_555
Ir7 Pr6 2.945629 1_555
Ir7 Pr9 2.945771 1_655
Ir7 Pr18 2.959235 1_655
Ir7 Pr19 2.960116 1_555
Ir7 Pr14 3.090932 1_555
Ir7 Pr1 3.091992 1_555
Ir7 Pr4 3.316128 1_555
Ir7 Pr8 3.317582 1_555
Ir8 Pr1 2.999565 1_455
Ir8 Pr7 3.000681 1_455
Ir8 Pr2 3.001417 1_455
Ir8 Pr4 3.001560 1_455
Ir8 Pr0 3.098151 1_555
Ir8 Pr3 3.099222 1_555
Ir8 Pr5 3.099286 1_555
Ir8 Pr6 3.100060 1_555
Ir8 Ir9 3.306442 1_555
Ir8 Ir9 3.306623 1_455
Ir9 Pr0 2.999268 1_555
Ir9 Pr5 3.000645 1_555
Ir9 Pr3 3.001246 1_555
Ir9 Pr6 3.001420 1_555
Ir9 Pr1 3.098286 1_555
Ir9 Pr7 3.099397 1_555
Ir9 Pr2 3.099464 1_555
Ir9 Pr4 3.099989 1_555
Ir10 Pr15 3.000278 1_655
Ir10 Pr9 3.000401 1_655
Ir10 Pr12 3.000978 1_655
Ir10 Pr10 3.002444 1_655
Ir10 Pr13 3.098826 1_555
Ir10 Pr14 3.099410 1_555
Ir10 Pr8 3.099481 1_555
Ir10 Pr11 3.100624 1_555
Ir10 Ir11 3.306428 1_655
Ir10 Ir11 3.306637 1_555
Ir11 Pr13 3.000368 1_555
Ir11 Pr8 3.000535 1_555
Ir11 Pr14 3.001262 1_555
Ir11 Pr11 3.002527 1_555
Ir11 Pr15 3.098690 1_555
Ir11 Pr12 3.099191 1_555
Ir11 Pr9 3.099388 1_555
Ir11 Pr10 3.100599 1_555
