# generated using pymatgen
data_Th3Co4Sn13
_symmetry_space_group_name_H-M   'P 1'
_cell_length_a   9.64449000
_cell_length_b   9.64449000
_cell_length_c   9.64449000
_cell_angle_alpha   90.00000000
_cell_angle_beta   90.00000000
_cell_angle_gamma   90.00000000
_symmetry_Int_Tables_number   1
_chemical_formula_structural   Th3Co4Sn13
_chemical_formula_sum   'Th6 Co8 Sn26'
_cell_volume   897.09368883
_cell_formula_units_Z   2
loop_
 _symmetry_equiv_pos_site_id
 _symmetry_equiv_pos_as_xyz
  1  'x, y, z'
loop_
 _atom_site_type_symbol
 _atom_site_label
 _atom_site_symmetry_multiplicity
 _atom_site_fract_x
 _atom_site_fract_y
 _atom_site_fract_z
 _atom_site_occupancy
  Th  Th0  1  0.25000000  0.00000000  0.50000000  1
  Th  Th1  1  0.75000000  0.00000000  0.50000000  1
  Th  Th2  1  0.50000000  0.25000000  0.00000000  1
  Th  Th3  1  0.50000000  0.75000000  0.00000000  1
  Th  Th4  1  0.00000000  0.50000000  0.25000000  1
  Th  Th5  1  0.00000000  0.50000000  0.75000000  1
  Co  Co0  1  0.25000000  0.25000000  0.25000000  1
  Co  Co1  1  0.75000000  0.75000000  0.75000000  1
  Co  Co2  1  0.75000000  0.75000000  0.25000000  1
  Co  Co3  1  0.75000000  0.25000000  0.75000000  1
  Co  Co4  1  0.25000000  0.25000000  0.75000000  1
  Co  Co5  1  0.25000000  0.75000000  0.25000000  1
  Co  Co6  1  0.25000000  0.75000000  0.75000000  1
  Co  Co7  1  0.75000000  0.25000000  0.25000000  1
  Sn  Sn0  1  0.00000000  0.00000000  0.00000000  1
  Sn  Sn1  1  0.50000000  0.50000000  0.50000000  1
  Sn  Sn2  1  0.00000000  0.15614000  0.30403900  1
  Sn  Sn3  1  0.00000000  0.84386000  0.69596100  1
  Sn  Sn4  1  0.00000000  0.84386000  0.30403900  1
  Sn  Sn5  1  0.00000000  0.15614000  0.69596100  1
  Sn  Sn6  1  0.30403900  0.00000000  0.15614000  1
  Sn  Sn7  1  0.65614000  0.50000000  0.19596100  1
  Sn  Sn8  1  0.69596100  0.00000000  0.84386000  1
  Sn  Sn9  1  0.34386000  0.50000000  0.80403900  1
  Sn  Sn10  1  0.30403900  0.00000000  0.84386000  1
  Sn  Sn11  1  0.34386000  0.50000000  0.19596100  1
  Sn  Sn12  1  0.69596100  0.00000000  0.15614000  1
  Sn  Sn13  1  0.65614000  0.50000000  0.80403900  1
  Sn  Sn14  1  0.15614000  0.30403900  0.00000000  1
  Sn  Sn15  1  0.50000000  0.80403900  0.34386000  1
  Sn  Sn16  1  0.84386000  0.69596100  0.00000000  1
  Sn  Sn17  1  0.50000000  0.19596100  0.65614000  1
  Sn  Sn18  1  0.15614000  0.69596100  0.00000000  1
  Sn  Sn19  1  0.50000000  0.19596100  0.34386000  1
  Sn  Sn20  1  0.84386000  0.30403900  0.00000000  1
  Sn  Sn21  1  0.50000000  0.80403900  0.65614000  1
  Sn  Sn22  1  0.19596100  0.65614000  0.50000000  1
  Sn  Sn23  1  0.80403900  0.34386000  0.50000000  1
  Sn  Sn24  1  0.19596100  0.34386000  0.50000000  1
  Sn  Sn25  1  0.80403900  0.65614000  0.50000000  1
loop_
_geom_bond_atom_site_label_1
_geom_bond_atom_site_label_2
_geom_bond_distance
_geom_bond_site_symmetry_2
Co0 Sn2 2.627657 1_555
Co0 Sn14 2.627657 1_555
Co0 Sn11 2.627657 1_555
Co0 Sn19 2.627657 1_555
Co0 Sn6 2.627657 1_555
Co0 Sn24 2.627657 1_555
Co0 Th2 3.409842 1_555
Co0 Th0 3.409842 1_555
Co0 Th4 3.409842 1_555
Co1 Sn8 2.627657 1_565
Co1 Sn16 2.627657 1_556
Co1 Sn21 2.627657 1_555
Co1 Sn25 2.627657 1_555
Co1 Sn13 2.627657 1_555
Co1 Sn3 2.627657 1_655
Co1 Th3 3.409842 1_556
Co1 Th5 3.409842 1_655
Co1 Th1 3.409842 1_565
Co2 Sn15 2.627657 1_555
Co2 Sn12 2.627657 1_565
Co2 Sn4 2.627657 1_655
Co2 Sn25 2.627657 1_555
Co2 Sn7 2.627657 1_555
Co2 Sn16 2.627657 1_555
Co2 Th4 3.409842 1_655
Co2 Th1 3.409842 1_565
Co2 Th3 3.409842 1_555
Co3 Sn23 2.627657 1_555
Co3 Sn8 2.627657 1_555
Co3 Sn20 2.627657 1_556
Co3 Sn5 2.627657 1_655
Co3 Sn13 2.627657 1_555
Co3 Sn17 2.627657 1_555
Co3 Th1 3.409842 1_555
Co3 Th5 3.409842 1_655
Co3 Th2 3.409842 1_556
Co4 Sn9 2.627657 1_555
Co4 Sn14 2.627657 1_556
Co4 Sn10 2.627657 1_555
Co4 Sn24 2.627657 1_555
Co4 Sn5 2.627657 1_555
Co4 Sn17 2.627657 1_555
Co4 Th5 3.409842 1_555
Co4 Th2 3.409842 1_556
Co4 Th0 3.409842 1_555
Co5 Sn11 2.627657 1_555
Co5 Sn15 2.627657 1_555
Co5 Sn18 2.627657 1_555
Co5 Sn6 2.627657 1_565
Co5 Sn22 2.627657 1_555
Co5 Sn4 2.627657 1_555
Co5 Th0 3.409842 1_565
Co5 Th3 3.409842 1_555
Co5 Th4 3.409842 1_555
Co6 Sn18 2.627657 1_556
Co6 Sn21 2.627657 1_555
Co6 Sn9 2.627657 1_555
Co6 Sn3 2.627657 1_555
Co6 Sn22 2.627657 1_555
Co6 Sn10 2.627657 1_565
Co6 Th3 3.409842 1_556
Co6 Th5 3.409842 1_555
Co6 Th0 3.409842 1_565
Co7 Sn23 2.627657 1_555
Co7 Sn12 2.627657 1_555
Co7 Sn7 2.627657 1_555
Co7 Sn19 2.627657 1_555
Co7 Sn2 2.627657 1_655
Co7 Sn20 2.627657 1_555
Co7 Th1 3.409842 1_555
Co7 Th4 3.409842 1_655
Co7 Th2 3.409842 1_555
Sn0 Sn8 3.296376 1_454
Sn0 Sn3 3.296376 1_544
Sn0 Sn16 3.296376 1_445
Sn0 Sn10 3.296376 1_554
Sn0 Sn18 3.296376 1_545
Sn0 Sn14 3.296376 1_555
Sn0 Sn5 3.296376 1_554
Sn0 Sn12 3.296376 1_455
Sn0 Sn6 3.296376 1_555
Sn0 Sn4 3.296376 1_545
Sn0 Sn2 3.296376 1_555
Sn0 Sn20 3.296376 1_455
Sn1 Sn25 3.296376 1_555
Sn1 Sn21 3.296376 1_555
Sn1 Sn13 3.296376 1_555
Sn1 Sn9 3.296376 1_555
Sn1 Sn15 3.296376 1_555
Sn1 Sn11 3.296376 1_555
Sn1 Sn22 3.296376 1_555
Sn1 Sn19 3.296376 1_555
Sn1 Sn7 3.296376 1_555
Sn1 Sn17 3.296376 1_555
Sn1 Sn24 3.296376 1_555
Sn1 Sn23 3.296376 1_555
Sn2 Sn4 3.011781 1_545
Sn2 Sn24 3.228243 1_555
Sn2 Sn23 3.228243 1_455
Sn2 Th4 3.357057 1_555
Sn2 Th1 3.413665 1_455
Sn2 Th0 3.413665 1_555
Sn3 Sn5 3.011781 1_565
Sn3 Th5 3.357057 1_555
Sn3 Th1 3.413665 1_465
Sn3 Th0 3.413665 1_565
Sn4 Th4 3.357057 1_555
Sn4 Th0 3.413665 1_565
Sn4 Th1 3.413665 1_465
Sn5 Th5 3.357057 1_555
Sn5 Th1 3.413665 1_455
Sn5 Th0 3.413665 1_555
Sn6 Th0 3.357057 1_555
Sn6 Th2 3.413665 1_555
Sn6 Th3 3.413665 1_545
Sn7 Th4 3.357057 1_655
Sn7 Th3 3.413665 1_555
Sn7 Th2 3.413665 1_555
Sn8 Th1 3.357057 1_555
Sn8 Th3 3.413665 1_546
Sn8 Th2 3.413665 1_556
Sn9 Th5 3.357057 1_555
Sn9 Th3 3.413665 1_556
Sn9 Th2 3.413665 1_556
Sn10 Sn6 3.011781 1_556
Sn10 Sn17 3.228243 1_555
Sn10 Sn21 3.228243 1_545
Sn10 Th0 3.357057 1_555
Sn10 Th2 3.413665 1_556
Sn10 Th3 3.413665 1_546
Sn11 Sn7 3.011781 1_555
Sn11 Sn14 3.228243 1_555
Sn11 Sn18 3.228243 1_555
Sn11 Th4 3.357057 1_555
Sn11 Th2 3.413665 1_555
Sn11 Th3 3.413665 1_555
Sn12 Sn8 3.011781 1_554
Sn12 Sn15 3.228243 1_545
Sn12 Sn19 3.228243 1_555
Sn12 Th1 3.357057 1_555
Sn12 Th2 3.413665 1_555
Sn12 Th3 3.413665 1_545
Sn13 Sn9 3.011781 1_555
Sn13 Sn20 3.228243 1_556
Sn13 Sn16 3.228243 1_556
Sn13 Th5 3.357057 1_655
Sn13 Th3 3.413665 1_556
Sn13 Th2 3.413665 1_556
Sn14 Sn20 3.011781 1_455
Sn14 Sn9 3.228243 1_554
Sn14 Th2 3.357057 1_555
Sn14 Th5 3.413665 1_554
Sn14 Th4 3.413665 1_555
Sn15 Sn21 3.011781 1_555
Sn15 Sn6 3.228243 1_565
Sn15 Th3 3.357057 1_555
Sn15 Th0 3.413665 1_565
Sn15 Th1 3.413665 1_565
Sn16 Sn18 3.011781 1_655
Sn16 Sn7 3.228243 1_555
Sn16 Th3 3.357057 1_555
Sn16 Th4 3.413665 1_655
Sn16 Th5 3.413665 1_654
Sn17 Sn19 3.011781 1_555
Sn17 Sn8 3.228243 1_555
Sn17 Th2 3.357057 1_556
Sn17 Th0 3.413665 1_555
Sn17 Th1 3.413665 1_555
Sn18 Sn9 3.228243 1_554
Sn18 Th3 3.357057 1_555
Sn18 Th5 3.413665 1_554
Sn18 Th4 3.413665 1_555
Sn19 Sn6 3.228243 1_555
Sn19 Th2 3.357057 1_555
Sn19 Th1 3.413665 1_555
Sn19 Th0 3.413665 1_555
Sn20 Sn7 3.228243 1_555
Sn20 Th2 3.357057 1_555
Sn20 Th5 3.413665 1_654
Sn20 Th4 3.413665 1_655
Sn21 Sn8 3.228243 1_565
Sn21 Th3 3.357057 1_556
Sn21 Th0 3.413665 1_565
Sn21 Th1 3.413665 1_565
Sn22 Sn24 3.011781 1_555
Sn22 Sn4 3.228243 1_555
Sn22 Sn3 3.228243 1_555
Sn22 Th0 3.357057 1_565
Sn22 Th4 3.413665 1_555
Sn22 Th5 3.413665 1_555
Sn23 Sn25 3.011781 1_555
Sn23 Sn5 3.228243 1_655
Sn23 Th1 3.357057 1_555
Sn23 Th4 3.413665 1_655
Sn23 Th5 3.413665 1_655
Sn24 Sn5 3.228243 1_555
Sn24 Th0 3.357057 1_555
Sn24 Th5 3.413665 1_555
Sn24 Th4 3.413665 1_555
Sn25 Sn3 3.228243 1_655
Sn25 Sn4 3.228243 1_655
Sn25 Th1 3.357057 1_565
Sn25 Th4 3.413665 1_655
Sn25 Th5 3.413665 1_655
