# generated using pymatgen
data_Fe4P2N3O8F9
_symmetry_space_group_name_H-M   'P 1'
_cell_length_a   14.68118900
_cell_length_b   7.26143800
_cell_length_c   7.61013396
_cell_angle_alpha   73.73805823
_cell_angle_beta   90.00000000
_cell_angle_gamma   90.00000000
_symmetry_Int_Tables_number   1
_chemical_formula_structural   Fe4P2N3O8F9
_chemical_formula_sum   'Fe8 P4 N6 O16 F18'
_cell_volume   778.83158840
_cell_formula_units_Z   2
loop_
 _symmetry_equiv_pos_site_id
 _symmetry_equiv_pos_as_xyz
  1  'x, y, z'
loop_
 _atom_site_type_symbol
 _atom_site_label
 _atom_site_symmetry_multiplicity
 _atom_site_fract_x
 _atom_site_fract_y
 _atom_site_fract_z
 _atom_site_occupancy
  Fe  Fe0  1  0.62181400  0.82183200  0.68475700  1
  Fe  Fe1  1  0.12181400  0.17816800  0.31524300  1
  Fe  Fe2  1  0.37818600  0.17816800  0.31524300  1
  Fe  Fe3  1  0.87818600  0.82183200  0.68475700  1
  Fe  Fe4  1  0.75000000  0.47560500  0.05798200  1
  Fe  Fe5  1  0.25000000  0.52439500  0.94201800  1
  Fe  Fe6  1  0.75000000  0.98188200  0.04064600  1
  Fe  Fe7  1  0.25000000  0.01811800  0.95935400  1
  P  P0  1  0.60279900  0.15192900  0.29081600  1
  P  P1  1  0.10279900  0.84807100  0.70918400  1
  P  P2  1  0.39720100  0.84807100  0.70918400  1
  P  P3  1  0.89720100  0.15192900  0.29081600  1
  N  N0  1  0.49677300  0.69752500  0.20035200  1
  N  N1  1  0.99677300  0.30247500  0.79964800  1
  N  N2  1  0.50322700  0.30247500  0.79964800  1
  N  N3  1  0.00322700  0.69752500  0.20035200  1
  N  N4  1  0.75000000  0.43201900  0.54388700  1
  N  N5  1  0.25000000  0.56798100  0.45611300  1
  O  O0  1  0.65379400  0.34601300  0.23883000  1
  O  O1  1  0.15379400  0.65398700  0.76117000  1
  O  O2  1  0.34620600  0.65398700  0.76117000  1
  O  O3  1  0.84620600  0.34601300  0.23883000  1
  O  O4  1  0.50561100  0.18589300  0.20844000  1
  O  O5  1  0.00561100  0.81410700  0.79156000  1
  O  O6  1  0.49438900  0.81410700  0.79156000  1
  O  O7  1  0.99438900  0.18589300  0.20844000  1
  O  O8  1  0.59733100  0.07715100  0.50078400  1
  O  O9  1  0.09733100  0.92284900  0.49921600  1
  O  O10  1  0.40266900  0.92284900  0.49921600  1
  O  O11  1  0.90266900  0.07715100  0.50078400  1
  O  O12  1  0.65059300  0.00510300  0.21041700  1
  O  O13  1  0.15059300  0.99489700  0.78958300  1
  O  O14  1  0.34940700  0.99489700  0.78958300  1
  O  O15  1  0.84940700  0.00510300  0.21041700  1
  F  F0  1  0.58888400  0.66722800  0.54317400  1
  F  F1  1  0.08888400  0.33277200  0.45682600  1
  F  F2  1  0.41111600  0.33277200  0.45682600  1
  F  F3  1  0.91111600  0.66722800  0.54317400  1
  F  F4  1  0.75000000  0.83739000  0.60594000  1
  F  F5  1  0.25000000  0.16261000  0.39406000  1
  F  F6  1  0.65792800  0.96996500  0.85886500  1
  F  F7  1  0.15792800  0.03003500  0.14113500  1
  F  F8  1  0.34207200  0.03003500  0.14113500  1
  F  F9  1  0.84207200  0.96996500  0.85886500  1
  F  F10  1  0.75000000  0.26373300  0.94399600  1
  F  F11  1  0.25000000  0.73626700  0.05600400  1
  F  F12  1  0.65372800  0.59144800  0.88795900  1
  F  F13  1  0.15372800  0.40855200  0.11204100  1
  F  F14  1  0.34627200  0.40855200  0.11204100  1
  F  F15  1  0.84627200  0.59144800  0.88795900  1
  F  F16  1  0.75000000  0.70208000  0.14863500  1
  F  F17  1  0.25000000  0.29792000  0.85136500  1
loop_
_geom_bond_atom_site_label_1
_geom_bond_atom_site_label_2
_geom_bond_distance
_geom_bond_site_symmetry_2
Fe0 O8 2.018138 1_565
Fe0 O6 2.034192 1_555
Fe1 O9 2.018138 1_545
Fe1 O7 2.034192 1_455
Fe2 O10 2.018138 1_545
Fe2 O4 2.034192 1_555
Fe3 O11 2.018138 1_565
Fe3 O5 2.034192 1_655
Fe4 O0 2.012276 1_555
Fe4 O3 2.012276 1_555
Fe5 O2 2.012276 1_555
Fe5 O1 2.012276 1_555
Fe6 O15 1.987345 1_565
Fe6 O12 1.987345 1_565
Fe7 O14 1.987345 1_545
Fe7 O13 1.987345 1_545
O0 P0 1.546273 1_555
O1 P1 1.546273 1_555
O2 P2 1.546273 1_555
O3 P3 1.546273 1_555
O4 P0 1.550190 1_555
O5 P1 1.550190 1_555
O6 P2 1.550190 1_555
O7 P3 1.550190 1_555
O8 P0 1.539023 1_555
O9 P1 1.539023 1_555
O10 P2 1.539023 1_555
O11 P3 1.539023 1_555
O12 P0 1.539077 1_555
O13 P1 1.539077 1_555
O14 P2 1.539077 1_555
O15 P3 1.539077 1_555
F0 Fe0 1.825500 1_555
F1 Fe1 1.825500 1_555
F2 Fe2 1.825500 1_555
F3 Fe3 1.825500 1_555
F4 Fe3 1.968811 1_555
F4 Fe0 1.968811 1_555
F5 Fe2 1.968811 1_555
F5 Fe1 1.968811 1_555
F6 Fe6 1.953313 1_556
F6 Fe0 1.997986 1_555
F7 Fe7 1.953313 1_554
F7 Fe1 1.997986 1_555
F8 Fe7 1.953313 1_554
F8 Fe2 1.997986 1_555
F9 Fe6 1.953313 1_556
F9 Fe3 1.997986 1_555
F10 Fe4 1.966436 1_556
F10 Fe6 1.971461 1_546
F11 Fe5 1.966436 1_554
F11 Fe7 1.971461 1_564
F12 Fe4 1.941612 1_556
F12 Fe0 1.990139 1_555
F13 Fe5 1.941612 1_554
F13 Fe1 1.990139 1_555
F14 Fe5 1.941612 1_554
F14 Fe2 1.990139 1_555
F15 Fe4 1.941612 1_556
F15 Fe3 1.990139 1_555
F16 Fe4 1.953416 1_555
F16 Fe6 1.966799 1_555
F17 Fe5 1.953416 1_555
F17 Fe7 1.966799 1_555
