# generated using pymatgen
data_K2Be2NiH6F8
_symmetry_space_group_name_H-M   'P 1'
_cell_length_a   6.06762549
_cell_length_b   7.86372172
_cell_length_c   11.54471300
_cell_angle_alpha   90.00000000
_cell_angle_beta   90.00000000
_cell_angle_gamma   109.54316191
_symmetry_Int_Tables_number   1
_chemical_formula_structural   K2Be2NiH6F8
_chemical_formula_sum   'K4 Be4 Ni2 H12 F16'
_cell_volume   519.11144449
_cell_formula_units_Z   2
loop_
 _symmetry_equiv_pos_site_id
 _symmetry_equiv_pos_as_xyz
  1  'x, y, z'
loop_
 _atom_site_type_symbol
 _atom_site_label
 _atom_site_symmetry_multiplicity
 _atom_site_fract_x
 _atom_site_fract_y
 _atom_site_fract_z
 _atom_site_occupancy
  K  K0  1  0.83102000  0.61823300  0.14433600  1
  K  K1  1  0.16898000  0.38176700  0.85566400  1
  K  K2  1  0.16898000  0.88176700  0.64433600  1
  K  K3  1  0.83102000  0.11823300  0.35566400  1
  Be  Be0  1  0.78005300  0.62525500  0.82660300  1
  Be  Be1  1  0.21994700  0.37474500  0.17339700  1
  Be  Be2  1  0.21994700  0.87474500  0.32660300  1
  Be  Be3  1  0.78005300  0.12525500  0.67339700  1
  Ni  Ni0  1  0.50000000  0.00000000  0.00000000  1
  Ni  Ni1  1  0.50000000  0.50000000  0.50000000  1
  H  H0  1  0.64647400  0.93949100  0.90600100  1
  H  H1  1  0.35352600  0.06050900  0.09399900  1
  H  H2  1  0.35352600  0.56050900  0.40600100  1
  H  H3  1  0.64647400  0.43949100  0.59399900  1
  H  H4  1  0.59132200  0.73973600  0.58137500  1
  H  H5  1  0.40867800  0.26026400  0.41862500  1
  H  H6  1  0.40867800  0.76026400  0.08137500  1
  H  H7  1  0.59132200  0.23973600  0.91862500  1
  H  H8  1  0.51606400  0.86233400  0.90464700  1
  H  H9  1  0.48393600  0.13766600  0.09535300  1
  H  H10  1  0.48393600  0.63766600  0.40464700  1
  H  H11  1  0.51606400  0.36233400  0.59535300  1
  F  F0  1  0.55235300  0.63115500  0.78336300  1
  F  F1  1  0.44764700  0.36884500  0.21663700  1
  F  F2  1  0.44764700  0.86884500  0.28336300  1
  F  F3  1  0.55235300  0.13115500  0.71663700  1
  F  F4  1  0.89572800  0.72366400  0.93028300  1
  F  F5  1  0.10427200  0.27633600  0.06971700  1
  F  F6  1  0.10427200  0.77633600  0.43028300  1
  F  F7  1  0.89572800  0.22366400  0.56971700  1
  F  F8  1  0.63586200  0.87221200  0.57284600  1
  F  F9  1  0.36413800  0.12778800  0.42715400  1
  F  F10  1  0.36413800  0.62778800  0.07284600  1
  F  F11  1  0.63586200  0.37221200  0.92715400  1
  F  F12  1  0.93051800  0.56639200  0.74422600  1
  F  F13  1  0.06948200  0.43360800  0.25577400  1
  F  F14  1  0.06948200  0.93360800  0.24422600  1
  F  F15  1  0.93051800  0.06639200  0.75577400  1
loop_
_geom_bond_atom_site_label_1
_geom_bond_atom_site_label_2
_geom_bond_distance
_geom_bond_site_symmetry_2
Be0 F4 1.469967 1_555
Be0 F0 1.484266 1_555
Be0 F12 1.494969 1_555
Be1 F5 1.469967 1_555
Be1 F1 1.484266 1_555
Be1 F13 1.494969 1_555
Be2 F6 1.469967 1_555
Be2 F2 1.484266 1_555
Be2 F14 1.494969 1_555
Be3 F7 1.469967 1_555
Be3 F3 1.484266 1_555
Be3 F15 1.494969 1_555
H0 H8 0.820547 1_555
H0 Ni0 1.573802 1_566
H1 H9 0.820547 1_555
H1 Ni0 1.573802 1_555
H2 Ni1 1.573802 1_555
H3 Ni1 1.573802 1_555
H4 Ni1 2.011160 1_555
H5 Ni1 2.011160 1_555
H6 Ni0 2.011160 1_565
H7 Ni0 2.011160 1_556
H8 Ni0 1.569668 1_566
H9 Ni0 1.569668 1_555
H10 H2 0.820547 1_555
H10 Ni1 1.569668 1_555
H11 H3 0.820547 1_555
H11 Ni1 1.569668 1_555
F0 K1 2.627105 1_555
F1 K0 2.627105 1_555
F2 K3 2.627105 1_565
F3 K2 2.627105 1_545
F4 K0 2.594317 1_556
F5 K1 2.594317 1_554
F6 K2 2.594317 1_555
F7 K3 2.594317 1_555
F8 H4 0.989761 1_555
F9 H5 0.989761 1_555
F10 H6 0.989761 1_555
F11 H7 0.989761 1_555
F12 K2 2.678278 1_655
F12 K1 2.694791 1_655
F13 K3 2.678278 1_455
F13 K0 2.694791 1_455
F14 K0 2.678278 1_455
F14 K3 2.694791 1_465
F15 K1 2.678278 1_655
F15 K2 2.694791 1_645
