# generated using pymatgen
data_Li7Mn4CoO12
_symmetry_space_group_name_H-M   'P 1'
_cell_length_a   3.00771500
_cell_length_b   7.65984836
_cell_length_c   9.94862232
_cell_angle_alpha   101.22118451
_cell_angle_beta   93.62785394
_cell_angle_gamma   98.07821031
_symmetry_Int_Tables_number   1
_chemical_formula_structural   Li7Mn4CoO12
_chemical_formula_sum   'Li7 Mn4 Co1 O12'
_cell_volume   221.61905794
_cell_formula_units_Z   1
loop_
 _symmetry_equiv_pos_site_id
 _symmetry_equiv_pos_as_xyz
  1  'x, y, z'
loop_
 _atom_site_type_symbol
 _atom_site_label
 _atom_site_symmetry_multiplicity
 _atom_site_fract_x
 _atom_site_fract_y
 _atom_site_fract_z
 _atom_site_occupancy
  Li  Li0  1  0.07947000  0.15707500  0.73804900  1
  Li  Li1  1  0.58093200  0.17054400  0.25472600  1
  Li  Li2  1  0.74253000  0.49756300  0.74994900  1
  Li  Li3  1  0.24265800  0.49687000  0.25269600  1
  Li  Li4  1  0.42915300  0.84032100  0.74242500  1
  Li  Li5  1  0.92787400  0.83947400  0.25526600  1
  Li  Li6  1  0.49237600  0.99971400  0.50830200  1
  Mn  Mn0  1  0.00113100  0.99993200  0.99994400  1
  Mn  Mn1  1  0.83863900  0.67303200  0.50037000  1
  Mn  Mn2  1  0.66597900  0.33333700  0.99901600  1
  Mn  Mn3  1  0.33417200  0.66707700  0.00132800  1
  Co  Co0  1  0.16291400  0.31929600  0.49605700  1
  O  O0  1  0.57676200  0.09101500  0.88231800  1
  O  O1  1  0.06088100  0.10946600  0.38422100  1
  O  O2  1  0.24260300  0.42589600  0.88218600  1
  O  O3  1  0.73565600  0.42179500  0.38935500  1
  O  O4  1  0.91016800  0.75689500  0.88463100  1
  O  O5  1  0.34346400  0.73704300  0.39163700  1
  O  O6  1  0.61160300  0.26338700  0.61304300  1
  O  O7  1  0.08977800  0.24228200  0.11626000  1
  O  O8  1  0.31240700  0.57871000  0.60139400  1
  O  O9  1  0.75467500  0.57502400  0.11870500  1
  O  O10  1  0.94128900  0.89479600  0.61774000  1
  O  O11  1  0.42288600  0.90945500  0.12038300  1
loop_
_geom_bond_atom_site_label_1
_geom_bond_atom_site_label_2
_geom_bond_distance
_geom_bond_site_symmetry_2
Li0 O10 2.099522 1_445
Li0 O6 2.164430 1_455
Li0 O0 2.185616 1_555
Li0 O0 2.223620 1_455
Li0 O2 2.239383 1_555
Li0 O6 2.247472 1_555
Li1 O1 2.037514 1_655
Li1 O3 2.092975 1_555
Li1 O1 2.146888 1_555
Li1 O11 2.150350 1_545
Li1 O7 2.155708 1_555
Li1 O7 2.206118 1_655
Li2 O6 2.002618 1_555
Li2 O2 2.134728 1_655
Li2 O8 2.141445 1_555
Li2 O2 2.142999 1_555
Li2 O4 2.143043 1_555
Li2 O8 2.426348 1_655
Li3 O5 2.046351 1_555
Li3 O7 2.120273 1_555
Li3 O9 2.144632 1_455
Li3 O3 2.160238 1_555
Li3 O9 2.195042 1_555
Li3 O3 2.196519 1_455
Li4 O10 2.002282 1_455
Li4 O10 2.085217 1_555
Li4 O0 2.112720 1_565
Li4 O8 2.180169 1_555
Li4 O4 2.203556 1_555
Li4 O4 2.279795 1_455
Li5 O5 2.119907 1_655
Li5 O11 2.147840 1_655
Li5 O11 2.155416 1_555
Li5 O1 2.180109 1_665
Li5 O9 2.182472 1_555
Li5 O5 2.423710 1_555
Li6 O10 2.028243 1_555
Li6 O6 2.055153 1_565
Li6 O5 2.089981 1_555
Li6 O1 2.103019 1_565
Li6 O10 2.184753 1_455
Li6 O1 2.328379 1_665
Mn0 O7 1.960115 1_566
Mn0 O4 1.960238 1_455
Mn0 O0 1.965788 1_465
Mn0 O11 1.975614 1_556
Mn0 O0 2.255737 1_565
Mn0 O11 2.277926 1_456
Mn1 O10 1.838287 1_555
Mn1 O5 1.958699 1_555
Mn1 O5 1.980170 1_655
Mn1 O8 1.988302 1_655
Mn1 O3 1.995288 1_555
Mn1 O8 2.049334 1_555
Mn2 O0 1.961396 1_555
Mn2 O7 1.962166 1_656
Mn2 O2 1.965269 1_555
Mn2 O9 1.969606 1_556
Mn2 O7 2.254589 1_556
Mn2 O2 2.256481 1_655
Mn3 O4 1.953875 1_454
Mn3 O9 1.960763 1_555
Mn3 O2 1.963967 1_554
Mn3 O11 1.971270 1_555
Mn3 O4 2.247873 1_554
Mn3 O9 2.265246 1_455
Co0 O1 1.742863 1_555
Co0 O6 1.875319 1_555
Co0 O3 1.957036 1_455
Co0 O8 2.031664 1_555
Co0 O6 2.127478 1_455
Co0 O3 2.210535 1_555
