# generated using pymatgen
data_MgSbAsO5
_symmetry_space_group_name_H-M   'P 1'
_cell_length_a   7.26701300
_cell_length_b   7.29106600
_cell_length_c   8.83199100
_cell_angle_alpha   90.00000000
_cell_angle_beta   90.00000000
_cell_angle_gamma   90.00000000
_symmetry_Int_Tables_number   1
_chemical_formula_structural   MgSbAsO5
_chemical_formula_sum   'Mg4 Sb4 As4 O20'
_cell_volume   467.95660820
_cell_formula_units_Z   4
loop_
 _symmetry_equiv_pos_site_id
 _symmetry_equiv_pos_as_xyz
  1  'x, y, z'
loop_
 _atom_site_type_symbol
 _atom_site_label
 _atom_site_symmetry_multiplicity
 _atom_site_fract_x
 _atom_site_fract_y
 _atom_site_fract_z
 _atom_site_occupancy
  Mg  Mg0  1  0.98065200  0.62111900  0.69350900  1
  Mg  Mg1  1  0.51934800  0.37888100  0.19350900  1
  Mg  Mg2  1  0.01934800  0.12111900  0.80649100  1
  Mg  Mg3  1  0.48065200  0.87888100  0.30649100  1
  Sb  Sb0  1  0.25112000  0.72918800  0.96206500  1
  Sb  Sb1  1  0.24888000  0.27081200  0.46206500  1
  Sb  Sb2  1  0.74888000  0.22918800  0.53793500  1
  Sb  Sb3  1  0.75112000  0.77081200  0.03793500  1
  As  As0  1  0.46933500  0.14681100  0.85672200  1
  As  As1  1  0.03066500  0.85318900  0.35672200  1
  As  As2  1  0.53066500  0.64681100  0.64327800  1
  As  As3  1  0.96933500  0.35318900  0.14327800  1
  O  O0  1  0.44222600  0.94519300  0.96507500  1
  O  O1  1  0.05777400  0.05480700  0.46507500  1
  O  O2  1  0.55777400  0.44519300  0.53492500  1
  O  O3  1  0.94222600  0.55480700  0.03492500  1
  O  O4  1  0.48132000  0.32493100  0.97812700  1
  O  O5  1  0.01868000  0.67506900  0.47812700  1
  O  O6  1  0.51868000  0.82493100  0.52187300  1
  O  O7  1  0.98132000  0.17506900  0.02187300  1
  O  O8  1  0.67620300  0.12115600  0.75972800  1
  O  O9  1  0.82379700  0.87884400  0.25972700  1
  O  O10  1  0.32379700  0.62115600  0.74027200  1
  O  O11  1  0.17620300  0.37884400  0.24027200  1
  O  O12  1  0.28748400  0.15626600  0.73510300  1
  O  O13  1  0.21251600  0.84373400  0.23510300  1
  O  O14  1  0.71251600  0.65626600  0.76489700  1
  O  O15  1  0.78748400  0.34373400  0.26489700  1
  O  O16  1  0.05015800  0.84114500  0.83891400  1
  O  O17  1  0.44984200  0.15885500  0.33891400  1
  O  O18  1  0.94984200  0.34114500  0.66108600  1
  O  O19  1  0.55015800  0.65885500  0.16108600  1
loop_
_geom_bond_atom_site_label_1
_geom_bond_atom_site_label_2
_geom_bond_distance
_geom_bond_site_symmetry_2
Mg0 O5 1.962055 1_655
Mg0 O14 2.063985 1_555
Mg0 O18 2.073421 1_555
Mg0 O16 2.116098 1_655
Mg0 O10 2.527610 1_655
Mg1 O4 1.962055 1_554
Mg1 O15 2.063985 1_555
Mg1 O19 2.073421 1_555
Mg1 O17 2.116098 1_555
Mg1 O11 2.527610 1_555
Mg2 O7 1.962055 1_456
Mg2 O12 2.063985 1_555
Mg2 O16 2.073421 1_545
Mg2 O18 2.116098 1_455
Mg2 O8 2.527610 1_455
Mg3 O6 1.962055 1_555
Mg3 O13 2.063985 1_555
Mg3 O17 2.073421 1_565
Mg3 O19 2.116098 1_555
Mg3 O9 2.527612 1_555
As0 O4 1.686382 1_555
As0 O12 1.704383 1_555
As0 O8 1.740341 1_555
As0 O0 1.765088 1_545
As1 O5 1.686382 1_555
As1 O13 1.704383 1_555
As1 O9 1.740345 1_455
As1 O1 1.765088 1_565
As2 O6 1.686382 1_555
As2 O14 1.704383 1_555
As2 O10 1.740341 1_555
As2 O2 1.765088 1_555
As3 O7 1.686382 1_555
As3 O15 1.704383 1_555
As3 O11 1.740341 1_655
As3 O3 1.765088 1_555
O0 Sb0 2.099933 1_555
O0 Sb3 2.658844 1_556
O1 Sb1 2.099933 1_555
O1 Sb2 2.658844 1_455
O2 Sb2 2.099933 1_555
O2 Sb1 2.658844 1_555
O3 Sb3 2.099933 1_555
O3 Sb0 2.658844 1_654
O8 Sb2 2.176360 1_555
O9 Sb3 2.176353 1_555
O10 Sb0 2.176360 1_555
O11 Sb1 2.176360 1_555
O12 Sb1 2.567368 1_555
O13 Sb0 2.567368 1_554
O14 Sb3 2.567368 1_556
O15 Sb2 2.567368 1_555
O16 Sb0 1.995519 1_555
O17 Sb1 1.995519 1_555
O18 Sb2 1.995519 1_555
O19 Sb3 1.995519 1_555
