# generated using pymatgen
data_Cs2CuBr3
_symmetry_space_group_name_H-M   'P 1'
_cell_length_a   7.60923100
_cell_length_b   10.58888100
_cell_length_c   13.47241800
_cell_angle_alpha   90.00000000
_cell_angle_beta   90.00000000
_cell_angle_gamma   90.00000000
_symmetry_Int_Tables_number   1
_chemical_formula_structural   Cs2CuBr3
_chemical_formula_sum   'Cs8 Cu4 Br12'
_cell_volume   1085.51638992
_cell_formula_units_Z   4
loop_
 _symmetry_equiv_pos_site_id
 _symmetry_equiv_pos_as_xyz
  1  'x, y, z'
loop_
 _atom_site_type_symbol
 _atom_site_label
 _atom_site_symmetry_multiplicity
 _atom_site_fract_x
 _atom_site_fract_y
 _atom_site_fract_z
 _atom_site_occupancy
  Cs  Cs0  1  0.76747300  0.37445500  0.60377000  1
  Cs  Cs1  1  0.73252700  0.87445500  0.89623000  1
  Cs  Cs2  1  0.26747300  0.62554500  0.39623000  1
  Cs  Cs3  1  0.23252700  0.12554500  0.10377000  1
  Cs  Cs4  1  0.74445500  0.49872700  0.15959800  1
  Cs  Cs5  1  0.75554500  0.99872700  0.34040200  1
  Cs  Cs6  1  0.24445500  0.50127300  0.84040200  1
  Cs  Cs7  1  0.25554500  0.00127300  0.65959800  1
  Cu  Cu0  1  0.80162600  0.28975500  0.93748800  1
  Cu  Cu1  1  0.69837400  0.78975500  0.56251200  1
  Cu  Cu2  1  0.30162600  0.71024500  0.06251200  1
  Cu  Cu3  1  0.19837400  0.21024500  0.43748800  1
  Br  Br0  1  0.70805100  0.16243600  0.07267700  1
  Br  Br1  1  0.79194900  0.66243600  0.42732300  1
  Br  Br2  1  0.20805100  0.83756400  0.92732300  1
  Br  Br3  1  0.29194900  0.33756400  0.57267700  1
  Br  Br4  1  0.72657800  0.49466400  0.88132400  1
  Br  Br5  1  0.77342200  0.99466400  0.61867600  1
  Br  Br6  1  0.22657800  0.50533600  0.11867600  1
  Br  Br7  1  0.27342200  0.00533600  0.38132400  1
  Br  Br8  1  0.03832200  0.19239400  0.84455000  1
  Br  Br9  1  0.46167800  0.69239400  0.65545000  1
  Br  Br10  1  0.53832200  0.80760600  0.15545000  1
  Br  Br11  1  0.96167800  0.30760600  0.34455000  1
loop_
_geom_bond_atom_site_label_1
_geom_bond_atom_site_label_2
_geom_bond_distance
_geom_bond_site_symmetry_2
Cs4 Cu0 3.746979 1_554
Cs5 Cu1 3.746979 1_555
Cs6 Cu2 3.746979 1_556
Cs7 Cu3 3.746979 1_555
Br0 Cu0 2.375239 1_554
Br0 Cs3 3.663425 1_555
Br0 Cs4 3.758775 1_555
Br0 Cs1 3.870973 1_544
Br0 Cs5 4.018129 1_545
Br0 Cs3 4.031752 1_655
Br1 Cu1 2.375239 1_555
Br1 Cs2 3.663425 1_655
Br1 Cs5 3.758775 1_555
Br1 Cs0 3.870973 1_555
Br1 Cs4 4.018129 1_555
Br1 Cs2 4.031752 1_555
Br2 Cu2 2.375239 1_556
Br2 Cs1 3.663425 1_455
Br2 Cs6 3.758775 1_555
Br2 Cs3 3.870973 1_566
Br2 Cs7 4.018129 1_565
Br2 Cs1 4.031752 1_555
Br3 Cu3 2.375239 1_555
Br3 Cs0 3.663425 1_555
Br3 Cs7 3.758775 1_555
Br3 Cs2 3.870973 1_555
Br3 Cs6 4.018129 1_555
Br3 Cs0 4.031752 1_455
Br4 Cu0 2.367804 1_555
Br4 Cs6 3.710440 1_555
Br4 Cs4 3.751737 1_556
Br4 Cs0 3.962271 1_555
Br4 Cs6 3.979640 1_655
Br4 Cs1 4.026827 1_555
Br5 Cu1 2.367804 1_555
Br5 Cs7 3.710440 1_665
Br5 Cs5 3.751737 1_555
Br5 Cs1 3.962271 1_555
Br5 Cs7 3.979640 1_565
Br5 Cs0 4.026827 1_565
Br6 Cu2 2.367804 1_555
Br6 Cs4 3.710440 1_455
Br6 Cs6 3.751737 1_554
Br6 Cs2 3.962271 1_555
Br6 Cs4 3.979640 1_555
Br6 Cs3 4.026827 1_555
Br7 Cu3 2.367804 1_555
Br7 Cs5 3.710440 1_545
Br7 Cs7 3.751737 1_555
Br7 Cs3 3.962271 1_555
Br7 Cs5 3.979640 1_445
Br7 Cs2 4.026827 1_545
Br8 Cu0 2.423730 1_455
Br8 Cs7 3.610609 1_555
Br8 Cs6 3.627771 1_555
Br8 Cs3 3.857604 1_556
Br8 Cs1 4.151288 1_445
Br8 Cs0 4.299632 1_455
Br9 Cu1 2.423730 1_555
Br9 Cs6 3.610609 1_555
Br9 Cs7 3.627771 1_565
Br9 Cs2 3.857604 1_555
Br9 Cs0 4.151288 1_555
Br9 Cs1 4.299632 1_555
Br10 Cu2 2.423730 1_555
Br10 Cs5 3.610609 1_555
Br10 Cs4 3.627771 1_555
Br10 Cs1 3.857604 1_554
Br10 Cs3 4.151288 1_565
Br10 Cs2 4.299632 1_555
Br11 Cu3 2.423730 1_655
Br11 Cs4 3.610609 1_555
Br11 Cs5 3.627771 1_545
Br11 Cs0 3.857604 1_555
Br11 Cs2 4.151288 1_655
Br11 Cs3 4.299632 1_655
