# generated using pymatgen
data_HfCoSi
_symmetry_space_group_name_H-M   'P 1'
_cell_length_a   4.94778221
_cell_length_b   4.94778221
_cell_length_c   7.93099600
_cell_angle_alpha   90.00000000
_cell_angle_beta   90.00000000
_cell_angle_gamma   118.72451208
_symmetry_Int_Tables_number   1
_chemical_formula_structural   HfCoSi
_chemical_formula_sum   'Hf4 Co4 Si4'
_cell_volume   170.26252689
_cell_formula_units_Z   4
loop_
 _symmetry_equiv_pos_site_id
 _symmetry_equiv_pos_as_xyz
  1  'x, y, z'
loop_
 _atom_site_type_symbol
 _atom_site_label
 _atom_site_symmetry_multiplicity
 _atom_site_fract_x
 _atom_site_fract_y
 _atom_site_fract_z
 _atom_site_occupancy
  Hf  Hf0  1  0.66752200  0.33247800  0.31900300  1
  Hf  Hf1  1  0.33716600  0.66283400  0.20604200  1
  Hf  Hf2  1  0.33716600  0.66283400  0.79395800  1
  Hf  Hf3  1  0.66752200  0.33247800  0.68099700  1
  Co  Co0  1  0.01194000  0.98806000  0.22851800  1
  Co  Co1  1  0.01194000  0.98806000  0.77148200  1
  Co  Co2  1  0.65781500  0.84521900  0.50000000  1
  Co  Co3  1  0.15478100  0.34218500  0.50000000  1
  Si  Si0  1  0.14940600  0.85059400  0.50000000  1
  Si  Si1  1  0.34369600  0.17206300  0.00000000  1
  Si  Si2  1  0.82793700  0.65630400  0.00000000  1
  Si  Si3  1  0.83296400  0.16703600  0.00000000  1
loop_
_geom_bond_atom_site_label_1
_geom_bond_atom_site_label_2
_geom_bond_distance
_geom_bond_site_symmetry_2
Hf0 Hf3 2.870973 1_555
Hf0 Si2 2.894079 1_555
Hf0 Si1 2.894079 1_555
Hf0 Si3 2.895710 1_555
Hf0 Si0 2.905517 1_655
Hf0 Si0 2.905517 1_545
Hf0 Hf1 2.951951 1_555
Hf0 Hf1 3.040803 1_655
Hf0 Hf1 3.040803 1_545
Hf1 Si0 2.826825 1_555
Hf1 Si1 2.939913 1_555
Hf1 Si2 2.939913 1_555
Hf1 Si2 2.990200 1_455
Hf1 Si1 2.990200 1_565
Hf1 Si3 3.004869 1_455
Hf1 Si3 3.004869 1_565
Hf2 Si0 2.826825 1_555
Hf2 Si1 2.939913 1_556
Hf2 Si2 2.939913 1_556
Hf2 Hf3 2.951951 1_555
Hf2 Si2 2.990200 1_456
Hf2 Si1 2.990200 1_566
Hf2 Si3 3.004869 1_456
Hf2 Si3 3.004869 1_566
Hf2 Hf3 3.040803 1_455
Hf2 Hf3 3.040803 1_565
Hf3 Si1 2.894079 1_556
Hf3 Si2 2.894079 1_556
Hf3 Si3 2.895710 1_556
Hf3 Si0 2.905517 1_655
Hf3 Si0 2.905517 1_545
Co0 Si1 2.317653 1_565
Co0 Si2 2.317653 1_455
Co0 Si3 2.367866 1_465
Co0 Si0 2.450675 1_555
Co0 Co3 2.648610 1_565
Co0 Co2 2.648610 1_455
Co0 Hf1 2.774774 1_555
Co0 Hf1 2.933210 1_565
Co0 Hf1 2.933210 1_455
Co0 Hf0 2.937232 1_565
Co0 Hf0 2.937232 1_455
Co0 Hf0 3.018981 1_465
Co1 Si1 2.317653 1_566
Co1 Si2 2.317653 1_456
Co1 Si3 2.367866 1_466
Co1 Si0 2.450675 1_555
Co1 Co3 2.648610 1_565
Co1 Co2 2.648610 1_455
Co1 Hf2 2.774774 1_555
Co1 Hf2 2.933210 1_565
Co1 Hf2 2.933210 1_455
Co1 Hf3 2.937232 1_565
Co1 Hf3 2.937232 1_455
Co1 Hf3 3.018981 1_465
Co2 Si0 2.419616 1_655
Co2 Co3 2.506131 1_665
Co2 Si0 2.528386 1_555
Co2 Co3 2.536731 1_555
Co2 Hf2 2.718554 1_555
Co2 Hf1 2.718554 1_555
Co2 Hf0 2.786366 1_565
Co2 Hf3 2.786366 1_565
Co2 Hf3 2.935313 1_555
Co2 Hf0 2.935313 1_555
Co3 Si0 2.419616 1_545
Co3 Si0 2.528386 1_555
Co3 Hf2 2.718554 1_555
Co3 Hf1 2.718554 1_555
Co3 Hf3 2.786366 1_455
Co3 Hf0 2.786366 1_455
Co3 Hf3 2.935313 1_555
Co3 Hf0 2.935313 1_555
Si1 Si3 2.432843 1_555
Si1 Si2 2.441961 1_555
Si1 Si3 2.515132 1_455
Si1 Si2 2.600901 1_445
Si2 Si3 2.432843 1_555
Si2 Si3 2.515132 1_565
