# generated using pymatgen
data_TiCrTc2
_symmetry_space_group_name_H-M   'P 1'
_cell_length_a   10.34825862
_cell_length_b   10.34825862
_cell_length_c   10.34825862
_cell_angle_alpha   125.13282879
_cell_angle_beta   118.64122123
_cell_angle_gamma   86.85877093
_symmetry_Int_Tables_number   1
_chemical_formula_structural   TiCrTc2
_chemical_formula_sum   'Ti1 Cr1 Tc2'
_cell_volume   756.72405999
_cell_formula_units_Z   1
loop_
 _symmetry_equiv_pos_site_id
 _symmetry_equiv_pos_as_xyz
  1  'x, y, z'
loop_
 _atom_site_type_symbol
 _atom_site_label
 _atom_site_symmetry_multiplicity
 _atom_site_fract_x
 _atom_site_fract_y
 _atom_site_fract_z
 _atom_site_occupancy
  Ti  Ti0  1  0.00000000  0.00000000  0.00000000  1
  Cr  Cr0  1  0.00000000  0.50000000  0.50000000  1
  Tc  Tc0  1  0.00000000  0.22381100  0.22381100  1
  Tc  Tc1  1  0.00000000  0.77618900  0.77618900  1
loop_
_geom_bond_atom_site_label_1
_geom_bond_atom_site_label_2
_geom_bond_distance
_geom_bond_site_symmetry_2
Cr0 Tc1 2.633546 1_555
Cr0 Tc0 2.633546 1_555
Tc0 Ti0 2.134105 1_555
Tc1 Ti0 2.134105 1_566
