# generated using pymatgen
data_Nd3Pb3I13O40
_symmetry_space_group_name_H-M   'P 1'
_cell_length_a   13.69067060
_cell_length_b   13.69067060
_cell_length_c   13.69067036
_cell_angle_alpha   109.06834657
_cell_angle_beta   109.06834657
_cell_angle_gamma   109.06834364
_symmetry_Int_Tables_number   1
_chemical_formula_structural   Nd3Pb3I13O40
_chemical_formula_sum   'Nd6 Pb6 I26 O80'
_cell_volume   2004.31077831
_cell_formula_units_Z   2
loop_
 _symmetry_equiv_pos_site_id
 _symmetry_equiv_pos_as_xyz
  1  'x, y, z'
loop_
 _atom_site_type_symbol
 _atom_site_label
 _atom_site_symmetry_multiplicity
 _atom_site_fract_x
 _atom_site_fract_y
 _atom_site_fract_z
 _atom_site_occupancy
  Nd  Nd0  1  0.60225300  0.47568100  0.24015500  1
  Nd  Nd1  1  0.24015500  0.60225300  0.47568100  1
  Nd  Nd2  1  0.47568100  0.24015500  0.60225300  1
  Nd  Nd3  1  0.74015500  0.97568100  0.10225300  1
  Nd  Nd4  1  0.10225300  0.74015500  0.97568100  1
  Nd  Nd5  1  0.97568100  0.10225300  0.74015500  1
  Pb  Pb0  1  0.81087300  0.68490300  0.61687000  1
  Pb  Pb1  1  0.61687000  0.81087300  0.68490300  1
  Pb  Pb2  1  0.68490300  0.61687000  0.81087300  1
  Pb  Pb3  1  0.11687000  0.18490300  0.31087300  1
  Pb  Pb4  1  0.31087300  0.11687000  0.18490300  1
  Pb  Pb5  1  0.18490300  0.31087300  0.11687000  1
  I  I0  1  0.58801100  0.64167500  0.04989800  1
  I  I1  1  0.04989800  0.58801100  0.64167500  1
  I  I2  1  0.64167500  0.04989800  0.58801100  1
  I  I3  1  0.54989800  0.14167500  0.08801100  1
  I  I4  1  0.08801100  0.54989800  0.14167500  1
  I  I5  1  0.14167500  0.08801100  0.54989800  1
  I  I6  1  0.94903300  0.63993100  0.34659900  1
  I  I7  1  0.34659900  0.94903300  0.63993100  1
  I  I8  1  0.63993100  0.34659900  0.94903300  1
  I  I9  1  0.84659900  0.13993100  0.44903300  1
  I  I10  1  0.44903300  0.84659900  0.13993100  1
  I  I11  1  0.13993100  0.44903300  0.84659900  1
  I  I12  1  0.91968000  0.91968000  0.91968000  1
  I  I13  1  0.41968000  0.41968000  0.41968000  1
  I  I14  1  0.80110300  0.82793500  0.42594200  1
  I  I15  1  0.42594200  0.80110300  0.82793500  1
  I  I16  1  0.82793500  0.42594200  0.80110300  1
  I  I17  1  0.92594200  0.32793500  0.30110300  1
  I  I18  1  0.30110300  0.92594200  0.32793500  1
  I  I19  1  0.32793500  0.30110300  0.92594200  1
  I  I20  1  0.70059800  0.36033600  0.46503000  1
  I  I21  1  0.46503000  0.70059800  0.36033600  1
  I  I22  1  0.36033600  0.46503000  0.70059800  1
  I  I23  1  0.96503000  0.86033600  0.20059800  1
  I  I24  1  0.20059800  0.96503000  0.86033600  1
  I  I25  1  0.86033600  0.20059800  0.96503000  1
  O  O0  1  0.63283900  0.54819900  0.96690800  1
  O  O1  1  0.96690800  0.63283900  0.54819900  1
  O  O2  1  0.54819900  0.96690800  0.63283900  1
  O  O3  1  0.46690800  0.04819900  0.13283900  1
  O  O4  1  0.13283900  0.46690800  0.04819900  1
  O  O5  1  0.04819900  0.13283900  0.46690800  1
  O  O6  1  0.92870300  0.78481200  0.85096000  1
  O  O7  1  0.85096000  0.92870300  0.78481200  1
  O  O8  1  0.78481200  0.85096000  0.92870300  1
  O  O9  1  0.35096000  0.28481200  0.42870300  1
  O  O10  1  0.42870300  0.35096000  0.28481200  1
  O  O11  1  0.28481200  0.42870300  0.35096000  1
  O  O12  1  0.68461200  0.47659400  0.43097900  1
  O  O13  1  0.43097900  0.68461200  0.47659400  1
  O  O14  1  0.47659400  0.43097900  0.68461200  1
  O  O15  1  0.93097900  0.97659400  0.18461200  1
  O  O16  1  0.18461200  0.93097900  0.97659400  1
  O  O17  1  0.97659400  0.18461200  0.93097900  1
  O  O18  1  0.64884400  0.64884400  0.64884400  1
  O  O19  1  0.14884400  0.14884400  0.14884400  1
  O  O20  1  0.79997800  0.51232900  0.24889800  1
  O  O21  1  0.24889800  0.79997800  0.51232900  1
  O  O22  1  0.51232900  0.24889800  0.79997800  1
  O  O23  1  0.74889800  0.01232900  0.29997800  1
  O  O24  1  0.29997800  0.74889800  0.01232900  1
  O  O25  1  0.01232900  0.29997800  0.74889800  1
  O  O26  1  0.58075600  0.32224600  0.50026100  1
  O  O27  1  0.50026100  0.58075600  0.32224600  1
  O  O28  1  0.32224600  0.50026100  0.58075600  1
  O  O29  1  0.00026100  0.82224600  0.08075600  1
  O  O30  1  0.08075600  0.00026100  0.82224600  1
  O  O31  1  0.82224600  0.08075600  0.00026100  1
  O  O32  1  0.76252300  0.67852600  0.41067300  1
  O  O33  1  0.41067300  0.76252300  0.67852600  1
  O  O34  1  0.67852600  0.41067300  0.76252300  1
  O  O35  1  0.91067300  0.17852600  0.26252300  1
  O  O36  1  0.26252300  0.91067300  0.17852600  1
  O  O37  1  0.17852600  0.26252300  0.91067300  1
  O  O38  1  0.92311800  0.85301400  0.39212300  1
  O  O39  1  0.39212300  0.92311800  0.85301400  1
  O  O40  1  0.85301400  0.39212300  0.92311800  1
  O  O41  1  0.89212300  0.35301400  0.42311800  1
  O  O42  1  0.42311800  0.89212300  0.35301400  1
  O  O43  1  0.35301400  0.42311800  0.89212300  1
  O  O44  1  0.02939200  0.55471500  0.35619900  1
  O  O45  1  0.35619900  0.02939200  0.55471500  1
  O  O46  1  0.55471500  0.35619900  0.02939200  1
  O  O47  1  0.85619900  0.05471500  0.52939200  1
  O  O48  1  0.52939200  0.85619900  0.05471500  1
  O  O49  1  0.05471500  0.52939200  0.85619900  1
  O  O50  1  0.88728700  0.89717100  0.58745900  1
  O  O51  1  0.58745900  0.88728700  0.89717100  1
  O  O52  1  0.89717100  0.58745900  0.88728700  1
  O  O53  1  0.08745900  0.39717100  0.38728700  1
  O  O54  1  0.38728700  0.08745900  0.39717100  1
  O  O55  1  0.39717100  0.38728700  0.08745900  1
  O  O56  1  0.71121900  0.78408800  0.09582400  1
  O  O57  1  0.09582400  0.71121900  0.78408800  1
  O  O58  1  0.78408800  0.09582400  0.71121900  1
  O  O59  1  0.59582400  0.28408800  0.21121900  1
  O  O60  1  0.21121900  0.59582400  0.28408800  1
  O  O61  1  0.28408800  0.21121900  0.59582400  1
  O  O62  1  0.98008000  0.67727000  0.23921700  1
  O  O63  1  0.23921700  0.98008000  0.67727000  1
  O  O64  1  0.67727000  0.23921700  0.98008000  1
  O  O65  1  0.73921700  0.17727000  0.48008000  1
  O  O66  1  0.48008000  0.73921700  0.17727000  1
  O  O67  1  0.17727000  0.48008000  0.73921700  1
  O  O68  1  0.82412800  0.46602700  0.61634300  1
  O  O69  1  0.61634300  0.82412800  0.46602700  1
  O  O70  1  0.46602700  0.61634300  0.82412800  1
  O  O71  1  0.11634300  0.96602700  0.32412800  1
  O  O72  1  0.32412800  0.11634300  0.96602700  1
  O  O73  1  0.96602700  0.32412800  0.11634300  1
  O  O74  1  0.64555600  0.63430900  0.18754500  1
  O  O75  1  0.18754500  0.64555600  0.63430900  1
  O  O76  1  0.63430900  0.18754500  0.64555600  1
  O  O77  1  0.68754500  0.13430900  0.14555600  1
  O  O78  1  0.14555600  0.68754500  0.13430900  1
  O  O79  1  0.13430900  0.14555600  0.68754500  1
loop_
_geom_bond_atom_site_label_1
_geom_bond_atom_site_label_2
_geom_bond_distance
_geom_bond_site_symmetry_2
Nd0 O55 2.451483 1_555
Nd0 O74 2.458952 1_555
Nd0 O12 2.478197 1_555
Nd0 O59 2.488457 1_555
Nd0 O32 2.532247 1_555
Nd0 O46 2.533520 1_555
Nd0 O20 2.540761 1_555
Nd0 O27 2.561984 1_555
Nd0 O10 2.813405 1_555
Nd1 O53 2.451483 1_555
Nd1 O75 2.458952 1_555
Nd1 O13 2.478198 1_555
Nd1 O60 2.488457 1_555
Nd1 O33 2.532247 1_555
Nd1 O44 2.533521 1_555
Nd1 O21 2.540761 1_555
Nd1 O28 2.561984 1_555
Nd1 O11 2.813405 1_555
Nd2 O54 2.451483 1_555
Nd2 O76 2.458952 1_555
Nd2 O14 2.478197 1_555
Nd2 O61 2.488457 1_555
Nd2 O34 2.532247 1_555
Nd2 O45 2.533521 1_555
Nd2 O22 2.540761 1_555
Nd2 O26 2.561984 1_555
Nd2 O9 2.813405 1_555
Nd3 O51 2.451483 1_554
Nd3 O77 2.458952 1_565
Nd3 O15 2.478197 1_555
Nd3 O56 2.488457 1_555
Nd3 O35 2.532247 1_565
Nd3 O48 2.533521 1_555
Nd3 O23 2.540761 1_565
Nd3 O31 2.561984 1_565
Nd3 O8 2.813405 1_554
Nd4 O52 2.451483 1_455
Nd4 O78 2.458952 1_556
Nd4 O16 2.478198 1_555
Nd4 O57 2.488457 1_555
Nd4 O36 2.532247 1_556
Nd4 O49 2.533521 1_555
Nd4 O24 2.540761 1_556
Nd4 O29 2.561984 1_556
Nd4 O6 2.813405 1_455
Nd5 O50 2.451483 1_545
Nd5 O79 2.458952 1_655
Nd5 O17 2.478197 1_555
Nd5 O58 2.488457 1_555
Nd5 O37 2.532247 1_655
Nd5 O47 2.533520 1_555
Nd5 O25 2.540761 1_655
Nd5 O30 2.561984 1_655
Nd5 O7 2.813405 1_545
I0 O0 1.823207 1_554
I0 O74 1.840689 1_555
I0 O56 1.843698 1_555
I1 O1 1.823207 1_455
I1 O75 1.840689 1_555
I1 O57 1.843698 1_555
I2 O2 1.823207 1_545
I2 O76 1.840689 1_555
I2 O58 1.843698 1_555
I3 O3 1.823207 1_555
I3 O77 1.840689 1_555
I3 O59 1.843698 1_555
I4 O4 1.823207 1_555
I4 O78 1.840689 1_555
I4 O60 1.843698 1_555
I5 O5 1.823207 1_555
I5 O79 1.840689 1_555
I5 O61 1.843698 1_555
I6 O62 1.833205 1_555
I6 O20 1.834594 1_555
I6 O44 1.852864 1_655
I7 O63 1.833205 1_555
I7 O21 1.834594 1_555
I7 O45 1.852864 1_565
I8 O64 1.833205 1_555
I8 O22 1.834594 1_555
I8 O46 1.852864 1_556
I9 O65 1.833205 1_555
I9 O23 1.834594 1_555
I9 O47 1.852864 1_555
I10 O66 1.833205 1_555
I10 O24 1.834594 1_555
I10 O48 1.852864 1_555
I11 O67 1.833205 1_555
I11 O25 1.834594 1_555
I11 O49 1.852864 1_555
I12 O7 1.843812 1_555
I12 O6 1.843812 1_555
I12 O8 1.843812 1_555
I13 O10 1.843812 1_555
I13 O11 1.843812 1_555
I13 O9 1.843812 1_555
I14 O38 1.832265 1_555
I14 O50 1.837213 1_555
I14 O32 1.857236 1_555
I14 O47 2.667039 1_565
I15 O39 1.832265 1_555
I15 O51 1.837213 1_555
I15 O33 1.857236 1_555
I15 O48 2.667039 1_556
I16 O40 1.832265 1_555
I16 O52 1.837213 1_555
I16 O34 1.857236 1_555
I16 O49 2.667039 1_655
I17 O41 1.832265 1_555
I17 O53 1.837213 1_655
I17 O35 1.857236 1_555
I17 O44 2.667039 1_655
I18 O42 1.832265 1_555
I18 O54 1.837213 1_565
I18 O36 1.857236 1_555
I18 O45 2.667039 1_565
I19 O43 1.832265 1_555
I19 O55 1.837213 1_556
I19 O37 1.857236 1_555
I19 O46 2.667039 1_556
I20 O26 1.821792 1_555
I20 O68 1.843563 1_555
I20 O12 1.855891 1_555
I21 O27 1.821792 1_555
I21 O69 1.843563 1_555
I21 O13 1.855891 1_555
I22 O28 1.821792 1_555
I22 O70 1.843563 1_555
I22 O14 1.855891 1_555
I23 O29 1.821792 1_655
I23 O71 1.843563 1_655
I23 O15 1.855891 1_555
I24 O30 1.821792 1_565
I24 O72 1.843563 1_565
I24 O16 1.855891 1_555
I25 O31 1.821792 1_556
I25 O73 1.843563 1_556
I25 O17 1.855891 1_555
O0 Pb2 2.797269 1_555
O1 Pb0 2.797269 1_555
O2 Pb1 2.797269 1_555
O3 Pb4 2.797269 1_555
O4 Pb5 2.797269 1_555
O5 Pb3 2.797269 1_555
O6 Pb0 2.657127 1_555
O7 Pb1 2.657127 1_555
O8 Pb2 2.657127 1_555
O9 Pb3 2.657127 1_555
O10 Pb4 2.657127 1_555
O11 Pb5 2.657127 1_555
O12 Pb0 2.600080 1_555
O13 Pb1 2.600080 1_555
O14 Pb2 2.600080 1_555
O15 Pb3 2.600080 1_665
O16 Pb4 2.600080 1_566
O17 Pb5 2.600080 1_656
O18 Pb2 2.327287 1_555
O18 Pb1 2.327287 1_555
O18 Pb0 2.327287 1_555
O19 Pb3 2.327287 1_555
O19 Pb4 2.327287 1_555
O19 Pb5 2.327287 1_555
O32 Pb0 2.644849 1_555
O33 Pb1 2.644849 1_555
O34 Pb2 2.644849 1_555
O35 Pb3 2.644849 1_655
O36 Pb4 2.644849 1_565
O37 Pb5 2.644849 1_556
