# generated using pymatgen
data_MnCu(CO3)4
_symmetry_space_group_name_H-M   'P 1'
_cell_length_a   8.42306400
_cell_length_b   8.71742600
_cell_length_c   9.49573005
_cell_angle_alpha   84.37275246
_cell_angle_beta   90.00000000
_cell_angle_gamma   90.00000000
_symmetry_Int_Tables_number   1
_chemical_formula_structural   MnCu(CO3)4
_chemical_formula_sum   'Mn2 Cu2 C8 O24'
_cell_volume   693.88700447
_cell_formula_units_Z   2
loop_
 _symmetry_equiv_pos_site_id
 _symmetry_equiv_pos_as_xyz
  1  'x, y, z'
loop_
 _atom_site_type_symbol
 _atom_site_label
 _atom_site_symmetry_multiplicity
 _atom_site_fract_x
 _atom_site_fract_y
 _atom_site_fract_z
 _atom_site_occupancy
  Mn  Mn0  1  0.50000000  0.50000000  0.00000000  1
  Mn  Mn1  1  0.00000000  0.50000000  0.50000000  1
  Cu  Cu0  1  0.00000000  0.00000000  0.00000000  1
  Cu  Cu1  1  0.50000000  0.00000000  0.50000000  1
  C  C0  1  0.65715100  0.67558700  0.45759200  1
  C  C1  1  0.15715100  0.32441300  0.04240800  1
  C  C2  1  0.34284900  0.32441300  0.54240800  1
  C  C3  1  0.84284900  0.67558700  0.95759200  1
  C  C4  1  0.18602100  0.90129100  0.30704000  1
  C  C5  1  0.68602100  0.09870900  0.19296000  1
  C  C6  1  0.81397900  0.09870900  0.69296000  1
  C  C7  1  0.31397900  0.90129100  0.80704000  1
  O  O0  1  0.62958000  0.79657200  0.49827500  1
  O  O1  1  0.12958000  0.20342800  0.00172500  1
  O  O2  1  0.37042000  0.20342800  0.50172500  1
  O  O3  1  0.87042000  0.79657200  0.99827500  1
  O  O4  1  0.51884400  0.70227300  0.05111600  1
  O  O5  1  0.01884400  0.29772700  0.44888400  1
  O  O6  1  0.48115600  0.29772700  0.94888400  1
  O  O7  1  0.98115600  0.70227300  0.55111600  1
  O  O8  1  0.67825000  0.55552600  0.41519800  1
  O  O9  1  0.17825000  0.44447400  0.08480200  1
  O  O10  1  0.32175000  0.44447400  0.58480200  1
  O  O11  1  0.82175000  0.55552600  0.91519800  1
  O  O12  1  0.08020200  0.58891200  0.35121200  1
  O  O13  1  0.58020200  0.41108800  0.14878800  1
  O  O14  1  0.91979800  0.41108800  0.64878800  1
  O  O15  1  0.41979800  0.58891200  0.85121200  1
  O  O16  1  0.27859800  0.89926300  0.39962000  1
  O  O17  1  0.77859800  0.10073700  0.10038000  1
  O  O18  1  0.72140200  0.10073700  0.60038000  1
  O  O19  1  0.22140200  0.89926300  0.89962000  1
  O  O20  1  0.09603200  0.91095300  0.21181400  1
  O  O21  1  0.59603200  0.08904700  0.28818600  1
  O  O22  1  0.90396800  0.08904700  0.78818600  1
  O  O23  1  0.40396800  0.91095300  0.71181400  1
loop_
_geom_bond_atom_site_label_1
_geom_bond_atom_site_label_2
_geom_bond_distance
_geom_bond_site_symmetry_2
Mn0 O15 1.684787 1_554
Mn0 O13 1.684787 1_555
Mn0 O6 1.880921 1_554
Mn0 O4 1.880921 1_555
Mn1 O12 1.684787 1_555
Mn1 O14 1.684787 1_455
Mn1 O5 1.880921 1_555
Mn1 O7 1.880921 1_455
Cu0 O1 2.083768 1_555
Cu0 O3 2.083768 1_444
Cu0 O22 2.235201 1_454
Cu0 O20 2.235201 1_545
Cu0 O17 2.306876 1_455
Cu0 O19 2.306876 1_544
Cu1 O2 2.083768 1_555
Cu1 O0 2.083768 1_545
Cu1 O23 2.235201 1_545
Cu1 O21 2.235201 1_555
Cu1 O18 2.306876 1_555
Cu1 O16 2.306876 1_545
C0 O8 1.171191 1_555
C0 O0 1.181279 1_555
C1 O9 1.171191 1_555
C1 O1 1.181279 1_555
C2 O10 1.171191 1_555
C2 O2 1.181279 1_555
C3 O11 1.171191 1_555
C3 O3 1.181279 1_555
C4 O16 1.173954 1_555
C4 O20 1.176583 1_555
C5 O17 1.173954 1_555
C5 O21 1.176583 1_555
C6 O18 1.173954 1_555
C6 O22 1.176583 1_555
C7 O19 1.173954 1_555
C7 O23 1.176583 1_555
