# generated using pymatgen
data_Cu(BiO2)2
_symmetry_space_group_name_H-M   'P 1'
_cell_length_a   6.86627009
_cell_length_b   6.86627009
_cell_length_c   6.86627009
_cell_angle_alpha   146.37443141
_cell_angle_beta   146.37443141
_cell_angle_gamma   48.29094022
_symmetry_Int_Tables_number   1
_chemical_formula_structural   Cu(BiO2)2
_chemical_formula_sum   'Cu1 Bi2 O4'
_cell_volume   98.85373872
_cell_formula_units_Z   1
loop_
 _symmetry_equiv_pos_site_id
 _symmetry_equiv_pos_as_xyz
  1  'x, y, z'
loop_
 _atom_site_type_symbol
 _atom_site_label
 _atom_site_symmetry_multiplicity
 _atom_site_fract_x
 _atom_site_fract_y
 _atom_site_fract_z
 _atom_site_occupancy
  Cu  Cu0  1  0.00000000  0.00000000  0.00000000  1
  Bi  Bi0  1  0.64795000  0.64795000  0.00000000  1
  Bi  Bi1  1  0.35205000  0.35205000  0.00000000  1
  O  O0  1  0.75000000  0.25000000  0.50000000  1
  O  O1  1  0.25000000  0.75000000  0.50000000  1
  O  O2  1  0.50000000  0.00000000  0.50000000  1
  O  O3  1  0.00000000  0.50000000  0.50000000  1
loop_
_geom_bond_atom_site_label_1
_geom_bond_atom_site_label_2
_geom_bond_distance
_geom_bond_site_symmetry_2
Cu0 O2 1.986037 1_555
Cu0 O2 1.986037 1_454
Cu0 O3 1.986037 1_544
Cu0 O3 1.986037 1_555
Bi0 O0 2.362131 1_565
Bi0 O1 2.362131 1_655
Bi0 O0 2.362131 1_554
Bi0 O1 2.362131 1_554
Bi0 O2 2.716902 1_565
Bi0 O2 2.716902 1_554
Bi0 O3 2.716902 1_554
Bi0 O3 2.716902 1_655
Bi1 O1 2.362131 1_544
Bi1 O0 2.362131 1_454
Bi1 O0 2.362131 1_555
Bi1 O1 2.362131 1_555
Bi1 O2 2.716902 1_565
Bi1 O2 2.716902 1_554
Bi1 O3 2.716902 1_554
Bi1 O3 2.716902 1_655
