# generated using pymatgen
data_Nd2RuO5
_symmetry_space_group_name_H-M   'P 1'
_cell_length_a   3.98792900
_cell_length_b   10.65258900
_cell_length_c   11.54703700
_cell_angle_alpha   90.00000000
_cell_angle_beta   90.00000000
_cell_angle_gamma   90.00000000
_symmetry_Int_Tables_number   1
_chemical_formula_structural   Nd2RuO5
_chemical_formula_sum   'Nd8 Ru4 O20'
_cell_volume   490.53855383
_cell_formula_units_Z   4
loop_
 _symmetry_equiv_pos_site_id
 _symmetry_equiv_pos_as_xyz
  1  'x, y, z'
loop_
 _atom_site_type_symbol
 _atom_site_label
 _atom_site_symmetry_multiplicity
 _atom_site_fract_x
 _atom_site_fract_y
 _atom_site_fract_z
 _atom_site_occupancy
  Nd  Nd0  1  0.25000000  0.60169900  0.23076100  1
  Nd  Nd1  1  0.75000000  0.39830100  0.76923900  1
  Nd  Nd2  1  0.75000000  0.89830100  0.73076100  1
  Nd  Nd3  1  0.25000000  0.10169900  0.26923900  1
  Nd  Nd4  1  0.25000000  0.63296500  0.56567600  1
  Nd  Nd5  1  0.75000000  0.36703500  0.43432400  1
  Nd  Nd6  1  0.75000000  0.86703500  0.06567600  1
  Nd  Nd7  1  0.25000000  0.13296500  0.93432400  1
  Ru  Ru0  1  0.25000000  0.68852700  0.88230300  1
  Ru  Ru1  1  0.75000000  0.31147300  0.11769700  1
  Ru  Ru2  1  0.75000000  0.81147300  0.38230300  1
  Ru  Ru3  1  0.25000000  0.18852700  0.61769700  1
  O  O0  1  0.25000000  0.98877900  0.09531100  1
  O  O1  1  0.75000000  0.01122100  0.90468900  1
  O  O2  1  0.75000000  0.51122100  0.59531100  1
  O  O3  1  0.25000000  0.48877900  0.40468900  1
  O  O4  1  0.25000000  0.72029800  0.04445000  1
  O  O5  1  0.75000000  0.27970200  0.95555000  1
  O  O6  1  0.75000000  0.77970200  0.54445000  1
  O  O7  1  0.25000000  0.22029800  0.45555000  1
  O  O8  1  0.25000000  0.77438100  0.72937400  1
  O  O9  1  0.75000000  0.22561900  0.27062600  1
  O  O10  1  0.75000000  0.72561900  0.22937400  1
  O  O11  1  0.25000000  0.27438100  0.77062600  1
  O  O12  1  0.25000000  0.53295000  0.80024900  1
  O  O13  1  0.75000000  0.46705000  0.19975100  1
  O  O14  1  0.75000000  0.96705000  0.30024900  1
  O  O15  1  0.25000000  0.03295000  0.69975100  1
  O  O16  1  0.25000000  0.76414700  0.38438900  1
  O  O17  1  0.75000000  0.23585300  0.61561100  1
  O  O18  1  0.75000000  0.73585300  0.88438900  1
  O  O19  1  0.25000000  0.26414700  0.11561100  1
loop_
_geom_bond_atom_site_label_1
_geom_bond_atom_site_label_2
_geom_bond_distance
_geom_bond_site_symmetry_2
Nd0 O3 2.341031 1_555
Nd0 O10 2.391387 1_455
Nd0 O10 2.391387 1_555
Nd0 O16 2.478204 1_555
Nd0 O13 2.482237 1_455
Nd0 O13 2.482237 1_555
Nd0 O4 2.494877 1_555
Nd1 O2 2.341031 1_555
Nd1 O11 2.391387 1_655
Nd1 O11 2.391387 1_555
Nd1 O17 2.478204 1_555
Nd1 O12 2.482237 1_655
Nd1 O12 2.482237 1_555
Nd1 O5 2.494877 1_555
Nd2 O1 2.341031 1_565
Nd2 O8 2.391387 1_555
Nd2 O8 2.391387 1_655
Nd2 O18 2.478204 1_555
Nd2 O15 2.482237 1_665
Nd2 O15 2.482237 1_565
Nd2 O6 2.494877 1_555
Nd3 O0 2.341031 1_545
Nd3 O9 2.391387 1_455
Nd3 O9 2.391387 1_555
Nd3 O19 2.478204 1_555
Nd3 O14 2.482237 1_545
Nd3 O14 2.482237 1_445
Nd3 O7 2.494877 1_555
Nd4 O2 2.403105 1_455
Nd4 O2 2.403105 1_555
Nd4 O3 2.411379 1_555
Nd4 O8 2.417093 1_555
Nd4 O16 2.516908 1_555
Nd4 O6 2.545455 1_455
Nd4 O6 2.545455 1_555
Nd4 O12 2.910628 1_555
Nd5 O3 2.403105 1_555
Nd5 O3 2.403105 1_655
Nd5 O2 2.411379 1_555
Nd5 O9 2.417093 1_555
Nd5 O17 2.516908 1_555
Nd5 O7 2.545455 1_655
Nd5 O7 2.545455 1_555
Nd5 O13 2.910628 1_555
Nd6 O0 2.403105 1_555
Nd6 O0 2.403105 1_655
Nd6 O1 2.411379 1_564
Nd6 O10 2.417093 1_555
Nd6 O18 2.516908 1_554
Nd6 O4 2.545455 1_655
Nd6 O4 2.545455 1_555
Nd6 O14 2.910628 1_555
Nd7 O1 2.403105 1_455
Nd7 O1 2.403105 1_555
Nd7 O0 2.411379 1_546
Nd7 O11 2.417093 1_555
Nd7 O19 2.516908 1_556
Nd7 O5 2.545455 1_555
Nd7 O5 2.545455 1_455
Nd7 O15 2.910628 1_555
O4 Ru0 1.902660 1_554
O5 Ru1 1.902660 1_556
O6 Ru2 1.902660 1_555
O7 Ru3 1.902660 1_555
O8 Ru0 1.988656 1_555
O9 Ru1 1.988656 1_555
O10 Ru2 1.988656 1_555
O11 Ru3 1.988656 1_555
O12 Ru0 1.909020 1_555
O13 Ru1 1.909020 1_555
O14 Ru2 1.909020 1_555
O15 Ru3 1.909020 1_555
O16 Ru2 2.056851 1_555
O16 Ru2 2.056851 1_455
O17 Ru3 2.056851 1_655
O17 Ru3 2.056851 1_555
O18 Ru0 2.056851 1_655
O18 Ru0 2.056851 1_555
O19 Ru1 2.056851 1_555
O19 Ru1 2.056851 1_455
