# generated using pymatgen
data_HoCd2
_symmetry_space_group_name_H-M   'P 1'
_cell_length_a   10.85942035
_cell_length_b   10.85942035
_cell_length_c   6.48866200
_cell_angle_alpha   90.00000000
_cell_angle_beta   90.00000000
_cell_angle_gamma   120.00000216
_symmetry_Int_Tables_number   1
_chemical_formula_structural   HoCd2
_chemical_formula_sum   'Ho8 Cd16'
_cell_volume   662.67267514
_cell_formula_units_Z   8
loop_
 _symmetry_equiv_pos_site_id
 _symmetry_equiv_pos_as_xyz
  1  'x, y, z'
loop_
 _atom_site_type_symbol
 _atom_site_label
 _atom_site_symmetry_multiplicity
 _atom_site_fract_x
 _atom_site_fract_y
 _atom_site_fract_z
 _atom_site_occupancy
  Ho  Ho0_0  1  0.00000000  0.00000000  0.00000000  1
  Ho  Ho0_1  1  0.00000000  0.00000000  0.50000000  1
  Ho  Ho0_2  1  0.00000000  0.50000000  0.00000000  1
  Ho  Ho0_3  1  0.00000000  0.50000000  0.50000000  1
  Ho  Ho0_4  1  0.50000000  0.00000000  0.00000000  1
  Ho  Ho0_5  1  0.50000000  0.00000000  0.50000000  1
  Ho  Ho0_6  1  0.50000000  0.50000000  0.00000000  1
  Ho  Ho0_7  1  0.50000000  0.50000000  0.50000000  1
  Cd  Cd0_0  1  0.33333350  0.16666650  0.47562850  1
  Cd  Cd0_1  1  0.33333350  0.16666650  0.97562850  1
  Cd  Cd0_2  1  0.33333350  0.66666650  0.47562850  1
  Cd  Cd0_3  1  0.33333350  0.66666650  0.97562850  1
  Cd  Cd0_4  1  0.83333350  0.16666650  0.47562850  1
  Cd  Cd0_5  1  0.83333350  0.16666650  0.97562850  1
  Cd  Cd0_6  1  0.83333350  0.66666650  0.47562850  1
  Cd  Cd0_7  1  0.83333350  0.66666650  0.97562850  1
  Cd  Cd1_0  1  0.16666650  0.33333350  0.02437150  1
  Cd  Cd1_1  1  0.16666650  0.33333350  0.52437150  1
  Cd  Cd1_2  1  0.16666650  0.83333350  0.02437150  1
  Cd  Cd1_3  1  0.16666650  0.83333350  0.52437150  1
  Cd  Cd1_4  1  0.66666650  0.33333350  0.02437150  1
  Cd  Cd1_5  1  0.66666650  0.33333350  0.52437150  1
  Cd  Cd1_6  1  0.66666650  0.83333350  0.02437150  1
  Cd  Cd1_7  1  0.66666650  0.83333350  0.52437150  1
loop_
_geom_bond_atom_site_label_1
_geom_bond_atom_site_label_2
_geom_bond_distance
_geom_bond_site_symmetry_2
Ho0_0 Ho0_1 3.244331 1_555
Ho0_0 Ho0_1 3.244331 1_554
Ho0_2 Ho0_3 3.244331 1_554
Ho0_2 Ho0_3 3.244331 1_555
Ho0_4 Ho0_5 3.244331 1_555
Ho0_4 Ho0_5 3.244331 1_554
Ho0_6 Ho0_7 3.244331 1_555
Ho0_6 Ho0_7 3.244331 1_554
Cd0_0 Ho0_5 3.138828 1_555
Cd0_0 Ho0_7 3.138832 1_555
Cd0_0 Ho0_1 3.138832 1_555
Cd0_0 Cd1_5 3.150756 1_555
Cd0_0 Cd1_3 3.150756 1_545
Cd0_0 Cd1_1 3.150765 1_555
Cd0_0 Cd0_1 3.244331 1_555
Cd0_0 Cd0_1 3.244331 1_554
Cd0_1 Ho0_4 3.138828 1_556
Cd0_1 Ho0_6 3.138832 1_556
Cd0_1 Ho0_0 3.138832 1_556
Cd0_1 Cd1_2 3.150756 1_546
Cd0_1 Cd1_4 3.150756 1_556
Cd0_1 Cd1_0 3.150765 1_556
Cd0_2 Ho0_7 3.138828 1_555
Cd0_2 Ho0_3 3.138832 1_555
Cd0_2 Ho0_5 3.138832 1_565
Cd0_2 Cd1_7 3.150756 1_555
Cd0_2 Cd1_1 3.150756 1_555
Cd0_2 Cd1_3 3.150765 1_555
Cd0_2 Cd0_3 3.244331 1_555
Cd0_2 Cd0_3 3.244331 1_554
Cd0_3 Ho0_6 3.138828 1_556
Cd0_3 Ho0_2 3.138832 1_556
Cd0_3 Ho0_4 3.138832 1_566
Cd0_3 Cd1_6 3.150756 1_556
Cd0_3 Cd1_0 3.150756 1_556
Cd0_3 Cd1_2 3.150765 1_556
Cd0_4 Ho0_1 3.138828 1_655
Cd0_4 Ho0_5 3.138832 1_555
Cd0_4 Ho0_3 3.138832 1_655
Cd0_4 Cd1_7 3.150756 1_545
Cd0_4 Cd1_1 3.150756 1_655
Cd0_4 Cd1_5 3.150765 1_555
Cd0_4 Cd0_5 3.244331 1_555
Cd0_4 Cd0_5 3.244331 1_554
Cd0_5 Ho0_0 3.138828 1_656
Cd0_5 Ho0_4 3.138832 1_556
Cd0_5 Ho0_2 3.138832 1_656
Cd0_5 Cd1_6 3.150756 1_546
Cd0_5 Cd1_0 3.150756 1_656
Cd0_5 Cd1_4 3.150765 1_556
Cd0_6 Ho0_3 3.138828 1_655
Cd0_6 Ho0_1 3.138832 1_665
Cd0_6 Ho0_7 3.138832 1_555
Cd0_6 Cd1_3 3.150756 1_655
Cd0_6 Cd1_5 3.150756 1_555
Cd0_6 Cd1_7 3.150765 1_555
Cd0_6 Cd0_7 3.244331 1_555
Cd0_6 Cd0_7 3.244331 1_554
Cd0_7 Ho0_2 3.138828 1_656
Cd0_7 Ho0_0 3.138832 1_666
Cd0_7 Ho0_6 3.138832 1_556
Cd0_7 Cd1_2 3.150756 1_656
Cd0_7 Cd1_4 3.150756 1_556
Cd0_7 Cd1_6 3.150765 1_556
Cd1_0 Ho0_2 3.138828 1_555
Cd1_0 Ho0_6 3.138832 1_555
Cd1_0 Ho0_0 3.138832 1_555
Cd1_0 Cd1_1 3.244331 1_554
Cd1_0 Cd1_1 3.244331 1_555
Cd1_1 Ho0_3 3.138828 1_555
Cd1_1 Ho0_7 3.138832 1_555
Cd1_1 Ho0_1 3.138832 1_555
Cd1_2 Ho0_0 3.138828 1_565
Cd1_2 Ho0_4 3.138832 1_565
Cd1_2 Ho0_2 3.138832 1_555
Cd1_2 Cd1_3 3.244331 1_554
Cd1_2 Cd1_3 3.244331 1_555
Cd1_3 Ho0_1 3.138828 1_565
Cd1_3 Ho0_5 3.138832 1_565
Cd1_3 Ho0_3 3.138832 1_555
Cd1_4 Ho0_6 3.138828 1_555
Cd1_4 Ho0_4 3.138832 1_555
Cd1_4 Ho0_2 3.138832 1_655
Cd1_4 Cd1_5 3.244331 1_555
Cd1_4 Cd1_5 3.244331 1_554
Cd1_5 Ho0_7 3.138828 1_555
Cd1_5 Ho0_5 3.138832 1_555
Cd1_5 Ho0_3 3.138832 1_655
Cd1_6 Ho0_4 3.138828 1_565
Cd1_6 Ho0_6 3.138832 1_555
Cd1_6 Ho0_0 3.138832 1_665
Cd1_6 Cd1_7 3.244331 1_554
Cd1_6 Cd1_7 3.244331 1_555
Cd1_7 Ho0_5 3.138828 1_565
Cd1_7 Ho0_7 3.138832 1_555
Cd1_7 Ho0_1 3.138832 1_665
