# generated using pymatgen
data_LiMg14TiO16
_symmetry_space_group_name_H-M   'P 1'
_cell_length_a   8.51962382
_cell_length_b   8.53717007
_cell_length_c   4.23946681
_cell_angle_alpha   90.00000000
_cell_angle_beta   90.00000000
_cell_angle_gamma   90.00000000
_symmetry_Int_Tables_number   1
_chemical_formula_structural   LiMg14TiO16
_chemical_formula_sum   'Li1 Mg14 Ti1 O16'
_cell_volume   308.35116377
_cell_formula_units_Z   1
loop_
 _symmetry_equiv_pos_site_id
 _symmetry_equiv_pos_as_xyz
  1  'x, y, z'
loop_
 _atom_site_type_symbol
 _atom_site_label
 _atom_site_symmetry_multiplicity
 _atom_site_fract_x
 _atom_site_fract_y
 _atom_site_fract_z
 _atom_site_occupancy
  Li  Li0  1  0.00000000  0.50000000  0.00000000  1
  Mg  Mg0  1  0.50000000  0.00000000  0.00000000  1
  Mg  Mg1  1  0.50000000  0.50000000  0.00000000  1
  Mg  Mg2  1  0.00000000  0.26122995  0.50000000  1
  Mg  Mg3  1  0.00000000  0.73877005  0.50000000  1
  Mg  Mg4  1  0.50000000  0.25231491  0.50000000  1
  Mg  Mg5  1  0.50000000  0.74768509  0.50000000  1
  Mg  Mg6  1  0.25304959  0.00000000  0.50000000  1
  Mg  Mg7  1  0.24409873  0.50000000  0.50000000  1
  Mg  Mg8  1  0.74695041  0.00000000  0.50000000  1
  Mg  Mg9  1  0.75590127  0.50000000  0.50000000  1
  Mg  Mg10  1  0.25001576  0.25742489  0.00000000  1
  Mg  Mg11  1  0.25001576  0.74257511  0.00000000  1
  Mg  Mg12  1  0.74998424  0.25742489  0.00000000  1
  Mg  Mg13  1  0.74998424  0.74257511  0.00000000  1
  Ti  Ti0  1  0.00000000  0.00000000  0.00000000  1
  O  O0  1  0.24675023  0.00000000  0.00000000  1
  O  O1  1  0.25626889  0.50000000  0.00000000  1
  O  O2  1  0.75324977  0.00000000  0.00000000  1
  O  O3  1  0.74373111  0.50000000  0.00000000  1
  O  O4  1  0.24915311  0.24802503  0.50000000  1
  O  O5  1  0.24915311  0.75197497  0.50000000  1
  O  O6  1  0.75084689  0.24802503  0.50000000  1
  O  O7  1  0.75084689  0.75197497  0.50000000  1
  O  O8  1  0.00000000  0.00000000  0.50000000  1
  O  O9  1  0.00000000  0.50000000  0.50000000  1
  O  O10  1  0.50000000  0.00000000  0.50000000  1
  O  O11  1  0.50000000  0.50000000  0.50000000  1
  O  O12  1  0.00000000  0.23709856  0.00000000  1
  O  O13  1  0.00000000  0.76290144  0.00000000  1
  O  O14  1  0.50000000  0.24668731  0.00000000  1
  O  O15  1  0.50000000  0.75331269  0.00000000  1
loop_
_geom_bond_atom_site_label_1
_geom_bond_atom_site_label_2
_geom_bond_distance
_geom_bond_site_symmetry_2
Li0 O9 2.119733 1_555
Li0 O9 2.119733 1_554
Li0 O3 2.183315 1_455
Li0 O1 2.183315 1_555
Li0 O12 2.244434 1_555
Li0 O13 2.244434 1_555
Mg0 O14 2.106012 1_555
Mg0 O15 2.106012 1_545
Mg0 O10 2.119733 1_555
Mg0 O10 2.119733 1_554
Mg0 O0 2.157593 1_555
Mg0 O2 2.157593 1_555
Mg1 O1 2.076497 1_555
Mg1 O3 2.076497 1_555
Mg1 O11 2.119733 1_554
Mg1 O11 2.119733 1_555
Mg1 O14 2.162574 1_555
Mg1 O15 2.162574 1_555
Mg2 O9 2.038421 1_555
Mg2 O6 2.125682 1_455
Mg2 O4 2.125682 1_555
Mg2 O12 2.129721 1_555
Mg2 O12 2.129721 1_556
Mg2 O8 2.230165 1_555
Mg3 O9 2.038421 1_555
Mg3 O7 2.125682 1_455
Mg3 O5 2.125682 1_555
Mg3 O13 2.129721 1_555
Mg3 O13 2.129721 1_556
Mg3 O8 2.230165 1_565
Mg4 O11 2.114530 1_555
Mg4 O14 2.120278 1_556
Mg4 O14 2.120278 1_555
Mg4 O4 2.137435 1_555
Mg4 O6 2.137435 1_555
Mg4 O10 2.154055 1_555
Mg5 O11 2.114530 1_555
Mg5 O15 2.120278 1_556
Mg5 O15 2.120278 1_555
Mg5 O5 2.137435 1_555
Mg5 O7 2.137435 1_555
Mg5 O10 2.154055 1_565
Mg6 O10 2.103925 1_555
Mg6 O4 2.117692 1_555
Mg6 O5 2.117692 1_545
Mg6 O0 2.120413 1_555
Mg6 O0 2.120413 1_556
Mg6 O8 2.155887 1_555
Mg7 O9 2.079629 1_555
Mg7 O1 2.122268 1_556
Mg7 O1 2.122268 1_555
Mg7 O4 2.151584 1_555
Mg7 O5 2.151584 1_555
Mg7 O11 2.180183 1_555
Mg8 O10 2.103925 1_555
Mg8 O6 2.117692 1_555
Mg8 O7 2.117692 1_545
Mg8 O2 2.120413 1_555
Mg8 O2 2.120413 1_556
Mg8 O8 2.155887 1_655
Mg9 O9 2.079629 1_655
Mg9 O3 2.122268 1_555
Mg9 O3 2.122268 1_556
Mg9 O6 2.151584 1_555
Mg9 O7 2.151584 1_555
Mg9 O11 2.180183 1_555
Mg10 O1 2.071590 1_555
Mg10 O4 2.121265 1_554
Mg10 O4 2.121265 1_555
Mg10 O14 2.131744 1_555
Mg10 O12 2.137097 1_555
Mg10 O0 2.197856 1_555
Mg11 O1 2.071590 1_555
Mg11 O5 2.121265 1_554
Mg11 O5 2.121265 1_555
Mg11 O15 2.131744 1_555
Mg11 O13 2.137097 1_555
Mg11 O0 2.197856 1_565
Mg12 O3 2.071590 1_555
Mg12 O6 2.121265 1_555
Mg12 O6 2.121265 1_554
Mg12 O14 2.131744 1_555
Mg12 O12 2.137097 1_655
Mg12 O2 2.197856 1_555
Mg13 O3 2.071590 1_555
Mg13 O7 2.121265 1_555
Mg13 O7 2.121265 1_554
Mg13 O15 2.131744 1_555
Mg13 O13 2.137097 1_655
Mg13 O2 2.197856 1_565
O0 Ti0 2.102219 1_555
O2 Ti0 2.102219 1_655
O8 Ti0 2.119733 1_555
O8 Ti0 2.119733 1_556
O12 Ti0 2.024151 1_555
O13 Ti0 2.024151 1_565
