# generated using pymatgen
data_CaSnHg
_symmetry_space_group_name_H-M   'P 1'
_cell_length_a   9.98170466
_cell_length_b   9.98170466
_cell_length_c   7.61381400
_cell_angle_alpha   90.00000000
_cell_angle_beta   90.00000000
_cell_angle_gamma   120.00000438
_symmetry_Int_Tables_number   1
_chemical_formula_structural   CaSnHg
_chemical_formula_sum   'Ca8 Sn8 Hg8'
_cell_volume   656.96511225
_cell_formula_units_Z   8
loop_
 _symmetry_equiv_pos_site_id
 _symmetry_equiv_pos_as_xyz
  1  'x, y, z'
loop_
 _atom_site_type_symbol
 _atom_site_label
 _atom_site_symmetry_multiplicity
 _atom_site_fract_x
 _atom_site_fract_y
 _atom_site_fract_z
 _atom_site_occupancy
  Ca  Ca0_0  1  0.00000000  0.00000000  0.00000000  1
  Ca  Ca0_1  1  0.00000000  0.00000000  0.50000000  1
  Ca  Ca0_2  1  0.00000000  0.50000000  0.00000000  1
  Ca  Ca0_3  1  0.00000000  0.50000000  0.50000000  1
  Ca  Ca0_4  1  0.50000000  0.00000000  0.00000000  1
  Ca  Ca0_5  1  0.50000000  0.00000000  0.50000000  1
  Ca  Ca0_6  1  0.50000000  0.50000000  0.00000000  1
  Ca  Ca0_7  1  0.50000000  0.50000000  0.50000000  1
  Sn  Sn0_0  1  0.33333350  0.16666650  0.25000000  1
  Sn  Sn0_1  1  0.33333350  0.16666650  0.75000000  1
  Sn  Sn0_2  1  0.33333350  0.66666650  0.25000000  1
  Sn  Sn0_3  1  0.33333350  0.66666650  0.75000000  1
  Sn  Sn0_4  1  0.83333350  0.16666650  0.25000000  1
  Sn  Sn0_5  1  0.83333350  0.16666650  0.75000000  1
  Sn  Sn0_6  1  0.83333350  0.66666650  0.25000000  1
  Sn  Sn0_7  1  0.83333350  0.66666650  0.75000000  1
  Hg  Hg0_0  1  0.16666650  0.33333350  0.25000000  1
  Hg  Hg0_1  1  0.16666650  0.33333350  0.75000000  1
  Hg  Hg0_2  1  0.16666650  0.83333350  0.25000000  1
  Hg  Hg0_3  1  0.16666650  0.83333350  0.75000000  1
  Hg  Hg0_4  1  0.66666650  0.33333350  0.25000000  1
  Hg  Hg0_5  1  0.66666650  0.33333350  0.75000000  1
  Hg  Hg0_6  1  0.66666650  0.83333350  0.25000000  1
  Hg  Hg0_7  1  0.66666650  0.83333350  0.75000000  1
loop_
_geom_bond_atom_site_label_1
_geom_bond_atom_site_label_2
_geom_bond_distance
_geom_bond_site_symmetry_2
Ca0_0 Sn0_5 3.453402 1_454
Ca0_0 Sn0_4 3.453402 1_455
Ca0_0 Hg0_3 3.453402 1_544
Ca0_0 Hg0_2 3.453402 1_545
Ca0_0 Hg0_1 3.453406 1_554
Ca0_0 Sn0_1 3.453406 1_554
Ca0_0 Hg0_7 3.453406 1_444
Ca0_0 Hg0_0 3.453406 1_555
Ca0_0 Hg0_6 3.453406 1_445
Ca0_0 Sn0_0 3.453406 1_555
Ca0_0 Sn0_7 3.453406 1_444
Ca0_0 Sn0_6 3.453406 1_445
Ca0_0 Ca0_1 3.806907 1_555
Ca0_0 Ca0_1 3.806907 1_554
Ca0_1 Sn0_4 3.453402 1_455
Ca0_1 Sn0_5 3.453402 1_455
Ca0_1 Hg0_2 3.453402 1_545
Ca0_1 Hg0_3 3.453402 1_545
Ca0_1 Hg0_0 3.453406 1_555
Ca0_1 Hg0_1 3.453406 1_555
Ca0_1 Hg0_6 3.453406 1_445
Ca0_1 Sn0_0 3.453406 1_555
Ca0_1 Sn0_6 3.453406 1_445
Ca0_1 Sn0_1 3.453406 1_555
Ca0_1 Hg0_7 3.453406 1_445
Ca0_1 Sn0_7 3.453406 1_445
Ca0_2 Sn0_7 3.453402 1_454
Ca0_2 Hg0_1 3.453402 1_554
Ca0_2 Sn0_6 3.453402 1_455
Ca0_2 Hg0_0 3.453402 1_555
Ca0_2 Hg0_3 3.453406 1_554
Ca0_2 Hg0_2 3.453406 1_555
Ca0_2 Sn0_3 3.453406 1_554
Ca0_2 Hg0_5 3.453406 1_454
Ca0_2 Sn0_5 3.453406 1_454
Ca0_2 Sn0_2 3.453406 1_555
Ca0_2 Sn0_4 3.453406 1_455
Ca0_2 Hg0_4 3.453406 1_455
Ca0_2 Ca0_3 3.806907 1_554
Ca0_2 Ca0_3 3.806907 1_555
Ca0_3 Sn0_6 3.453402 1_455
Ca0_3 Hg0_0 3.453402 1_555
Ca0_3 Sn0_7 3.453402 1_455
Ca0_3 Hg0_1 3.453402 1_555
Ca0_3 Hg0_2 3.453406 1_555
Ca0_3 Sn0_2 3.453406 1_555
Ca0_3 Hg0_3 3.453406 1_555
Ca0_3 Sn0_3 3.453406 1_555
Ca0_3 Sn0_4 3.453406 1_455
Ca0_3 Hg0_4 3.453406 1_455
Ca0_3 Hg0_5 3.453406 1_455
Ca0_3 Sn0_5 3.453406 1_455
Ca0_4 Sn0_1 3.453402 1_554
Ca0_4 Sn0_0 3.453402 1_555
Ca0_4 Hg0_7 3.453402 1_544
Ca0_4 Hg0_6 3.453402 1_545
Ca0_4 Hg0_5 3.453406 1_554
Ca0_4 Hg0_3 3.453406 1_544
Ca0_4 Hg0_4 3.453406 1_555
Ca0_4 Hg0_2 3.453406 1_545
Ca0_4 Sn0_5 3.453406 1_554
Ca0_4 Sn0_3 3.453406 1_544
Ca0_4 Sn0_2 3.453406 1_545
Ca0_4 Sn0_4 3.453406 1_555
Ca0_4 Ca0_5 3.806907 1_554
Ca0_4 Ca0_5 3.806907 1_555
Ca0_5 Sn0_0 3.453402 1_555
Ca0_5 Sn0_1 3.453402 1_555
Ca0_5 Hg0_6 3.453402 1_545
Ca0_5 Hg0_7 3.453402 1_545
Ca0_5 Hg0_4 3.453406 1_555
Ca0_5 Hg0_2 3.453406 1_545
Ca0_5 Hg0_5 3.453406 1_555
Ca0_5 Sn0_2 3.453406 1_545
Ca0_5 Sn0_4 3.453406 1_555
Ca0_5 Hg0_3 3.453406 1_545
Ca0_5 Sn0_5 3.453406 1_555
Ca0_5 Sn0_3 3.453406 1_545
Ca0_6 Sn0_3 3.453402 1_554
Ca0_6 Sn0_2 3.453402 1_555
Ca0_6 Hg0_5 3.453402 1_554
Ca0_6 Hg0_4 3.453402 1_555
Ca0_6 Hg0_1 3.453406 1_554
Ca0_6 Sn0_1 3.453406 1_554
Ca0_6 Sn0_0 3.453406 1_555
Ca0_6 Hg0_7 3.453406 1_554
Ca0_6 Sn0_7 3.453406 1_554
Ca0_6 Sn0_6 3.453406 1_555
Ca0_6 Hg0_6 3.453406 1_555
Ca0_6 Hg0_0 3.453406 1_555
Ca0_6 Ca0_7 3.806907 1_554
Ca0_6 Ca0_7 3.806907 1_555
Ca0_7 Sn0_2 3.453402 1_555
Ca0_7 Hg0_4 3.453402 1_555
Ca0_7 Sn0_3 3.453402 1_555
Ca0_7 Hg0_5 3.453402 1_555
Ca0_7 Sn0_0 3.453406 1_555
Ca0_7 Sn0_1 3.453406 1_555
Ca0_7 Sn0_6 3.453406 1_555
Ca0_7 Hg0_6 3.453406 1_555
Ca0_7 Hg0_0 3.453406 1_555
Ca0_7 Sn0_7 3.453406 1_555
Ca0_7 Hg0_7 3.453406 1_555
Ca0_7 Hg0_1 3.453406 1_555
Hg0_0 Sn0_2 2.881467 1_555
Hg0_0 Sn0_4 2.881467 1_455
Hg0_0 Sn0_0 2.881476 1_555
Hg0_1 Sn0_3 2.881467 1_555
Hg0_1 Sn0_5 2.881467 1_455
Hg0_1 Sn0_1 2.881476 1_555
Hg0_2 Sn0_6 2.881467 1_455
Hg0_2 Sn0_0 2.881467 1_565
Hg0_2 Sn0_2 2.881476 1_555
Hg0_3 Sn0_7 2.881467 1_455
Hg0_3 Sn0_1 2.881467 1_565
Hg0_3 Sn0_3 2.881476 1_555
Hg0_4 Sn0_6 2.881467 1_555
Hg0_4 Sn0_0 2.881467 1_555
Hg0_4 Sn0_4 2.881476 1_555
Hg0_5 Sn0_7 2.881467 1_555
Hg0_5 Sn0_1 2.881467 1_555
Hg0_5 Sn0_5 2.881476 1_555
Hg0_6 Sn0_4 2.881467 1_565
Hg0_6 Sn0_2 2.881467 1_555
Hg0_6 Sn0_6 2.881476 1_555
Hg0_7 Sn0_5 2.881467 1_565
Hg0_7 Sn0_3 2.881467 1_555
Hg0_7 Sn0_7 2.881476 1_555
