# generated using pymatgen
data_Li9Mn7O16
_symmetry_space_group_name_H-M   'P 1'
_cell_length_a   5.99610800
_cell_length_b   6.05680370
_cell_length_c   8.19276180
_cell_angle_alpha   90.82662626
_cell_angle_beta   90.37506212
_cell_angle_gamma   94.20516582
_symmetry_Int_Tables_number   1
_chemical_formula_structural   Li9Mn7O16
_chemical_formula_sum   'Li9 Mn7 O16'
_cell_volume   296.69805070
_cell_formula_units_Z   1
loop_
 _symmetry_equiv_pos_site_id
 _symmetry_equiv_pos_as_xyz
  1  'x, y, z'
loop_
 _atom_site_type_symbol
 _atom_site_label
 _atom_site_symmetry_multiplicity
 _atom_site_fract_x
 _atom_site_fract_y
 _atom_site_fract_z
 _atom_site_occupancy
  Li  Li0  1  0.25348300  0.74362800  0.74562400  1
  Li  Li1  1  0.00000000  0.50000000  0.50000000  1
  Li  Li2  1  0.50000000  0.50000000  0.00000000  1
  Li  Li3  1  0.25499100  0.25636800  0.74394000  1
  Li  Li4  1  0.74651700  0.25637200  0.25437600  1
  Li  Li5  1  0.50000000  0.00000000  0.00000000  1
  Li  Li6  1  0.00000000  0.00000000  0.50000000  1
  Li  Li7  1  0.74500900  0.74363200  0.25606000  1
  Li  Li8  1  0.50000000  0.50000000  0.50000000  1
  Mn  Mn0  1  0.74354700  0.75013900  0.74737500  1
  Mn  Mn1  1  0.50000000  0.00000000  0.50000000  1
  Mn  Mn2  1  0.25645300  0.24986100  0.25262500  1
  Mn  Mn3  1  0.00000000  0.00000000  0.00000000  1
  Mn  Mn4  1  0.74315600  0.25808500  0.74703200  1
  Mn  Mn5  1  0.25684400  0.74191500  0.25296800  1
  Mn  Mn6  1  0.00000000  0.50000000  0.00000000  1
  O  O0  1  0.97972800  0.99707100  0.76085000  1
  O  O1  1  0.72333500  0.77802400  0.51188900  1
  O  O2  1  0.24004100  0.73471200  0.01291800  1
  O  O3  1  0.99550100  0.48646000  0.75576800  1
  O  O4  1  0.47577100  0.49688000  0.24910600  1
  O  O5  1  0.24102200  0.23409200  0.01131700  1
  O  O6  1  0.74066000  0.23568200  0.51210700  1
  O  O7  1  0.49953600  0.98287200  0.26358700  1
  O  O8  1  0.52422900  0.50312000  0.75089400  1
  O  O9  1  0.27666500  0.22197600  0.48811100  1
  O  O10  1  0.75995900  0.26528800  0.98708200  1
  O  O11  1  0.50046400  0.01712800  0.73641300  1
  O  O12  1  0.02027200  0.00292900  0.23915000  1
  O  O13  1  0.75897800  0.76590800  0.98868300  1
  O  O14  1  0.25934000  0.76431800  0.48789300  1
  O  O15  1  0.00449900  0.51354000  0.24423200  1
loop_
_geom_bond_atom_site_label_1
_geom_bond_atom_site_label_2
_geom_bond_distance
_geom_bond_site_symmetry_2
Li0 O3 2.116127 1_455
Li0 O14 2.117416 1_555
Li0 O11 2.142017 1_565
Li0 O2 2.193184 1_556
Li0 O8 2.259886 1_555
Li0 O0 2.330890 1_455
Li1 O3 2.098505 1_455
Li1 O15 2.098505 1_555
Li1 O14 2.152304 1_555
Li1 O6 2.152304 1_455
Li1 O1 2.450345 1_455
Li1 O9 2.450345 1_555
Li2 O4 2.047240 1_555
Li2 O8 2.047240 1_554
Li2 O13 2.157142 1_554
Li2 O5 2.157142 1_555
Li2 O10 2.187381 1_554
Li2 O2 2.187381 1_555
Li3 O9 2.109078 1_555
Li3 O8 2.117919 1_555
Li3 O11 2.140403 1_555
Li3 O3 2.165312 1_455
Li3 O5 2.198415 1_556
Li3 O0 2.199770 1_445
Li4 O15 2.116127 1_655
Li4 O6 2.117416 1_555
Li4 O7 2.142017 1_545
Li4 O10 2.193184 1_554
Li4 O4 2.259886 1_555
Li4 O12 2.330890 1_655
Li5 O10 2.159266 1_554
Li5 O2 2.159266 1_545
Li5 O7 2.163500 1_545
Li5 O11 2.163500 1_554
Li5 O13 2.179737 1_544
Li5 O5 2.179737 1_555
Li6 O9 2.061035 1_555
Li6 O1 2.061035 1_445
Li6 O12 2.141585 1_555
Li6 O0 2.141585 1_445
Li6 O6 2.188409 1_455
Li6 O14 2.188409 1_545
Li7 O1 2.109078 1_555
Li7 O4 2.117919 1_555
Li7 O7 2.140403 1_555
Li7 O15 2.165312 1_655
Li7 O13 2.198415 1_554
Li7 O12 2.199770 1_665
Li8 O8 2.059410 1_555
Li8 O4 2.059410 1_555
Li8 O1 2.073951 1_555
Li8 O9 2.073951 1_555
Li8 O14 2.235311 1_555
Li8 O6 2.235311 1_555
Mn0 O8 1.918813 1_555
Mn0 O1 1.942853 1_555
Mn0 O13 1.979139 1_555
Mn0 O0 1.984227 1_555
Mn0 O11 2.257362 1_565
Mn0 O3 2.278881 1_555
Mn1 O11 1.938129 1_555
Mn1 O7 1.938129 1_545
Mn1 O6 1.954942 1_555
Mn1 O14 1.954942 1_545
Mn1 O9 1.968880 1_555
Mn1 O1 1.968880 1_545
Mn2 O4 1.918813 1_555
Mn2 O9 1.942853 1_555
Mn2 O5 1.979139 1_555
Mn2 O12 1.984227 1_555
Mn2 O7 2.257362 1_545
Mn2 O15 2.278881 1_555
Mn3 O5 1.949724 1_555
Mn3 O13 1.949724 1_444
Mn3 O0 1.962016 1_444
Mn3 O12 1.962016 1_555
Mn3 O10 2.237565 1_454
Mn3 O2 2.237565 1_545
Mn4 O6 1.927391 1_555
Mn4 O10 1.968284 1_555
Mn4 O3 1.973992 1_555
Mn4 O11 1.984527 1_555
Mn4 O8 2.052256 1_555
Mn4 O0 2.203682 1_545
Mn5 O14 1.927391 1_555
Mn5 O2 1.968284 1_555
Mn5 O15 1.973992 1_555
Mn5 O7 1.984527 1_555
Mn5 O4 2.052256 1_555
Mn5 O12 2.203682 1_565
Mn6 O2 1.948683 1_555
Mn6 O10 1.948683 1_454
Mn6 O15 2.001356 1_555
Mn6 O3 2.001356 1_454
Mn6 O13 2.243873 1_454
Mn6 O5 2.243873 1_555
