# generated using pymatgen
data_UHg(MoO4)4
_symmetry_space_group_name_H-M   'P 1'
_cell_length_a   6.72688300
_cell_length_b   8.43922945
_cell_length_c   11.65404143
_cell_angle_alpha   90.55722550
_cell_angle_beta   90.00000000
_cell_angle_gamma   90.00000000
_symmetry_Int_Tables_number   1
_chemical_formula_structural   UHg(MoO4)4
_chemical_formula_sum   'U2 Hg2 Mo8 O32'
_cell_volume   661.56525449
_cell_formula_units_Z   2
loop_
 _symmetry_equiv_pos_site_id
 _symmetry_equiv_pos_as_xyz
  1  'x, y, z'
loop_
 _atom_site_type_symbol
 _atom_site_label
 _atom_site_symmetry_multiplicity
 _atom_site_fract_x
 _atom_site_fract_y
 _atom_site_fract_z
 _atom_site_occupancy
  U  U0  1  0.69746700  0.75000000  0.75000000  1
  U  U1  1  0.30253300  0.25000000  0.25000000  1
  Hg  Hg0  1  0.69423000  0.25000000  0.75000000  1
  Hg  Hg1  1  0.30577000  0.75000000  0.25000000  1
  Mo  Mo0  1  0.16865300  0.20342400  0.90378300  1
  Mo  Mo1  1  0.83134700  0.79657600  0.09621700  1
  Mo  Mo2  1  0.16865300  0.29657600  0.59621700  1
  Mo  Mo3  1  0.83134700  0.70342400  0.40378300  1
  Mo  Mo4  1  0.16630000  0.79608700  0.59342900  1
  Mo  Mo5  1  0.83370000  0.20391300  0.40657100  1
  Mo  Mo6  1  0.16630000  0.70391300  0.90657100  1
  Mo  Mo7  1  0.83370000  0.29608700  0.09342900  1
  O  O0  1  0.15038600  0.25277200  0.06727600  1
  O  O1  1  0.84961400  0.74722800  0.93272400  1
  O  O2  1  0.15038600  0.24722800  0.43272400  1
  O  O3  1  0.84961400  0.75277200  0.56727600  1
  O  O4  1  0.05907900  0.75000000  0.75000000  1
  O  O5  1  0.94092100  0.25000000  0.25000000  1
  O  O6  1  0.06637900  0.25000000  0.75000000  1
  O  O7  1  0.93362100  0.75000000  0.25000000  1
  O  O8  1  0.15658900  0.00183100  0.59724700  1
  O  O9  1  0.84341100  0.99816900  0.40275300  1
  O  O10  1  0.15658900  0.49816900  0.90275300  1
  O  O11  1  0.84341100  0.50183100  0.09724700  1
  O  O12  1  0.14594300  0.75086800  0.43718400  1
  O  O13  1  0.85405700  0.24913200  0.56281600  1
  O  O14  1  0.14594300  0.74913200  0.06281600  1
  O  O15  1  0.85405700  0.25086800  0.93718400  1
  O  O16  1  0.42202500  0.75720400  0.62924500  1
  O  O17  1  0.57797500  0.24279600  0.37075500  1
  O  O18  1  0.42202500  0.74279600  0.87075500  1
  O  O19  1  0.57797500  0.25720400  0.12924500  1
  O  O20  1  0.42068100  0.23964900  0.87654300  1
  O  O21  1  0.57931900  0.76035100  0.12345700  1
  O  O22  1  0.42068100  0.26035100  0.62345700  1
  O  O23  1  0.57931900  0.73964900  0.37654300  1
  O  O24  1  0.70074700  0.96732900  0.75321500  1
  O  O25  1  0.29925300  0.03267100  0.24678500  1
  O  O26  1  0.70074700  0.53267100  0.74678500  1
  O  O27  1  0.29925300  0.46732900  0.25321500  1
  O  O28  1  0.15306000  0.99747800  0.90314500  1
  O  O29  1  0.84694000  0.00252200  0.09685500  1
  O  O30  1  0.15306000  0.50252200  0.59685500  1
  O  O31  1  0.84694000  0.49747800  0.40314500  1
loop_
_geom_bond_atom_site_label_1
_geom_bond_atom_site_label_2
_geom_bond_distance
_geom_bond_site_symmetry_2
Hg0 O20 2.360312 1_555
Hg0 O22 2.360312 1_555
Hg0 O24 2.386587 1_545
Hg0 O26 2.386587 1_555
Hg0 O15 2.431951 1_555
Hg0 O13 2.431951 1_555
Hg0 O6 2.503403 1_655
Hg1 O23 2.360312 1_555
Hg1 O21 2.360312 1_555
Hg1 O25 2.386587 1_565
Hg1 O27 2.386587 1_555
Hg1 O12 2.431951 1_555
Hg1 O14 2.431951 1_555
Hg1 O7 2.503403 1_455
Mo0 O28 1.741132 1_545
Mo0 O20 1.752250 1_555
Mo0 O0 1.950251 1_556
Mo0 O6 1.963029 1_555
Mo0 O15 2.187994 1_455
Mo0 O10 2.488890 1_555
Mo1 O29 1.741132 1_565
Mo1 O21 1.752250 1_555
Mo1 O1 1.950251 1_554
Mo1 O7 1.963029 1_555
Mo1 O14 2.187994 1_655
Mo1 O11 2.488890 1_555
Mo2 O30 1.741132 1_555
Mo2 O22 1.752250 1_555
Mo2 O2 1.950251 1_555
Mo2 O6 1.963029 1_555
Mo2 O13 2.187994 1_455
Mo2 O8 2.488890 1_555
Mo3 O31 1.741132 1_555
Mo3 O23 1.752250 1_555
Mo3 O3 1.950251 1_555
Mo3 O7 1.963029 1_555
Mo3 O12 2.187994 1_655
Mo3 O9 2.488890 1_555
Mo4 O8 1.737687 1_565
Mo4 O16 1.801045 1_555
Mo4 O12 1.861851 1_555
Mo4 O4 2.003690 1_555
Mo4 O3 2.182332 1_455
Mo4 O30 2.479772 1_555
Mo5 O9 1.737687 1_545
Mo5 O17 1.801045 1_555
Mo5 O13 1.861851 1_555
Mo5 O5 2.003690 1_555
Mo5 O2 2.182332 1_655
Mo5 O31 2.479772 1_555
Mo6 O10 1.737687 1_555
Mo6 O18 1.801045 1_555
Mo6 O14 1.861851 1_556
Mo6 O4 2.003690 1_555
Mo6 O1 2.182332 1_455
Mo6 O28 2.479772 1_555
Mo7 O11 1.737687 1_555
Mo7 O19 1.801045 1_555
Mo7 O15 1.861851 1_554
Mo7 O5 2.003690 1_555
Mo7 O0 2.182332 1_655
Mo7 O29 2.479772 1_555
O0 U1 2.362980 1_555
O1 U0 2.362980 1_555
O2 U1 2.362980 1_555
O3 U0 2.362980 1_555
O4 U0 2.432522 1_455
O5 U1 2.432522 1_655
O16 U0 2.327858 1_555
O17 U1 2.327858 1_555
O18 U0 2.327858 1_555
O19 U1 2.327858 1_555
O24 U0 1.834240 1_555
O25 U1 1.834240 1_555
O26 U0 1.834240 1_555
O27 U1 1.834240 1_555
