# generated using pymatgen
data_SrO10
_symmetry_space_group_name_H-M   'P 1'
_cell_length_a   5.80181500
_cell_length_b   5.80181500
_cell_length_c   8.98387300
_cell_angle_alpha   90.00000000
_cell_angle_beta   90.00000000
_cell_angle_gamma   90.00000000
_symmetry_Int_Tables_number   1
_chemical_formula_structural   SrO10
_chemical_formula_sum   'Sr2 O20'
_cell_volume   302.40666378
_cell_formula_units_Z   2
loop_
 _symmetry_equiv_pos_site_id
 _symmetry_equiv_pos_as_xyz
  1  'x, y, z'
loop_
 _atom_site_type_symbol
 _atom_site_label
 _atom_site_symmetry_multiplicity
 _atom_site_fract_x
 _atom_site_fract_y
 _atom_site_fract_z
 _atom_site_occupancy
  Sr  Sr0  1  0.00000000  0.00000000  0.25000000  1
  Sr  Sr1  1  0.00000000  0.00000000  0.75000000  1
  O  O0  1  0.50000000  0.50000000  0.31876300  1
  O  O1  1  0.50000000  0.50000000  0.81876300  1
  O  O2  1  0.50000000  0.50000000  0.68123700  1
  O  O3  1  0.50000000  0.50000000  0.18123700  1
  O  O4  1  0.10510100  0.34923600  0.42881700  1
  O  O5  1  0.89489900  0.65076400  0.42881700  1
  O  O6  1  0.65076400  0.10510100  0.42881700  1
  O  O7  1  0.34923600  0.89489900  0.42881700  1
  O  O8  1  0.89489900  0.34923600  0.92881700  1
  O  O9  1  0.10510100  0.65076400  0.92881700  1
  O  O10  1  0.34923600  0.10510100  0.92881700  1
  O  O11  1  0.65076400  0.89489900  0.92881700  1
  O  O12  1  0.89489900  0.65076400  0.57118300  1
  O  O13  1  0.10510100  0.34923600  0.57118300  1
  O  O14  1  0.34923600  0.89489900  0.57118300  1
  O  O15  1  0.65076400  0.10510100  0.57118300  1
  O  O16  1  0.10510100  0.65076400  0.07118300  1
  O  O17  1  0.89489900  0.34923600  0.07118300  1
  O  O18  1  0.65076400  0.89489900  0.07118300  1
  O  O19  1  0.34923600  0.10510100  0.07118300  1
loop_
_geom_bond_atom_site_label_1
_geom_bond_atom_site_label_2
_geom_bond_distance
_geom_bond_site_symmetry_2
O0 O3 1.235516 1_555
O1 O2 1.235516 1_555
O4 Sr0 2.656702 1_555
O5 Sr0 2.656702 1_665
O6 Sr0 2.656702 1_655
O7 Sr0 2.656702 1_565
O8 Sr1 2.656702 1_655
O9 Sr1 2.656702 1_565
O10 O19 1.278998 1_556
O10 Sr1 2.656702 1_555
O11 O18 1.278998 1_556
O11 Sr1 2.656702 1_665
O12 O5 1.278998 1_555
O12 Sr1 2.656702 1_665
O13 O4 1.278998 1_555
O13 Sr1 2.656702 1_555
O14 O7 1.278998 1_555
O14 Sr1 2.656702 1_565
O15 O6 1.278998 1_555
O15 Sr1 2.656702 1_655
O16 O9 1.278998 1_554
O16 Sr0 2.656702 1_565
O17 O8 1.278998 1_554
O17 Sr0 2.656702 1_655
O18 Sr0 2.656702 1_665
O19 Sr0 2.656702 1_555
