# generated using pymatgen
data_NdH6(CO3)3
_symmetry_space_group_name_H-M   'P 1'
_cell_length_a   6.08909851
_cell_length_b   7.73397150
_cell_length_c   8.92926979
_cell_angle_alpha   99.07069200
_cell_angle_beta   98.14173948
_cell_angle_gamma   97.72663370
_symmetry_Int_Tables_number   1
_chemical_formula_structural   NdH6(CO3)3
_chemical_formula_sum   'Nd2 H12 C6 O18'
_cell_volume   405.74059596
_cell_formula_units_Z   2
loop_
 _symmetry_equiv_pos_site_id
 _symmetry_equiv_pos_as_xyz
  1  'x, y, z'
loop_
 _atom_site_type_symbol
 _atom_site_label
 _atom_site_symmetry_multiplicity
 _atom_site_fract_x
 _atom_site_fract_y
 _atom_site_fract_z
 _atom_site_occupancy
  Nd  Nd0  1  0.49012400  0.19383100  0.20414300  1
  Nd  Nd1  1  0.50987600  0.80616900  0.79585700  1
  H  H0  1  0.94958800  0.15892500  0.35688500  1
  H  H1  1  0.05041200  0.84107500  0.64311500  1
  H  H2  1  0.85163100  0.24936000  0.50432500  1
  H  H3  1  0.14836900  0.75064000  0.49567500  1
  H  H4  1  0.54559800  0.87107600  0.36034700  1
  H  H5  1  0.45440200  0.12892400  0.63965300  1
  H  H6  1  0.29237200  0.81819100  0.27793000  1
  H  H7  1  0.70762800  0.18180900  0.72207000  1
  H  H8  1  0.87648900  0.45253200  0.78398800  1
  H  H9  1  0.12351100  0.54746800  0.21601200  1
  H  H10  1  0.07915600  0.38629400  0.71059800  1
  H  H11  1  0.92084400  0.61370600  0.28940200  1
  C  C0  1  0.61917100  0.48309400  0.98647200  1
  C  C1  1  0.38082900  0.51690600  0.01352800  1
  C  C2  1  0.94451900  0.02933700  0.07058100  1
  C  C3  1  0.05548100  0.97066300  0.92941900  1
  C  C4  1  0.42167700  0.43320400  0.53267100  1
  C  C5  1  0.57832300  0.56679600  0.46732900  1
  O  O0  1  0.69644200  0.36084000  0.04438300  1
  O  O1  1  0.30355800  0.63916000  0.95561700  1
  O  O2  1  0.73121700  0.99951200  0.05195300  1
  O  O3  1  0.26878300  0.00048800  0.94804700  1
  O  O4  1  0.37458300  0.27506700  0.45842400  1
  O  O5  1  0.62541700  0.72493300  0.54157600  1
  O  O6  1  0.28108000  0.41815100  0.09299700  1
  O  O7  1  0.71892000  0.58184900  0.90700300  1
  O  O8  1  0.07539800  0.10208500  0.19307800  1
  O  O9  1  0.92460200  0.89791500  0.80692100  1
  O  O10  1  0.64642200  0.50937100  0.34426100  1
  O  O11  1  0.35357800  0.49062900  0.65573900  1
  O  O12  1  0.81225800  0.17192900  0.40218700  1
  O  O13  1  0.18774200  0.82807100  0.59781300  1
  O  O14  1  0.43549200  0.89731600  0.27983800  1
  O  O15  1  0.56450800  0.10268400  0.72016200  1
  O  O16  1  0.91603900  0.35718800  0.70901000  1
  O  O17  1  0.08396100  0.64281200  0.29099000  1
loop_
_geom_bond_atom_site_label_1
_geom_bond_atom_site_label_2
_geom_bond_distance
_geom_bond_site_symmetry_2
Nd0 O0 2.435958 1_555
Nd0 O4 2.483263 1_555
Nd0 O14 2.484699 1_545
Nd0 O12 2.490922 1_555
Nd0 O8 2.513130 1_555
Nd0 O6 2.528618 1_555
Nd0 O10 2.549917 1_555
Nd0 O2 2.602848 1_545
Nd0 O3 2.605499 1_554
Nd1 O1 2.435958 1_555
Nd1 O5 2.483263 1_555
Nd1 O15 2.484699 1_565
Nd1 O13 2.490922 1_555
Nd1 O9 2.513131 1_555
Nd1 O7 2.528618 1_555
Nd1 O11 2.549917 1_555
Nd1 O3 2.602848 1_565
Nd1 O2 2.605499 1_556
H0 O12 0.989242 1_555
H1 O13 0.989242 1_555
H2 O12 0.987486 1_555
H3 O13 0.987486 1_555
H4 O14 0.976499 1_555
H5 O15 0.976499 1_555
H6 O14 0.991637 1_555
H7 O15 0.991637 1_555
H8 O16 0.993843 1_555
H9 O17 0.993843 1_555
H10 O16 0.986040 1_455
H11 O17 0.986040 1_655
C0 O0 1.260013 1_556
C0 O7 1.274367 1_555
C1 O1 1.260013 1_554
C1 O6 1.274367 1_555
C2 O8 1.259589 1_655
C2 O2 1.270414 1_545
C3 O9 1.259595 1_455
C3 O3 1.270414 1_565
C4 O11 1.265500 1_555
C4 O4 1.270332 1_555
C5 O10 1.265500 1_555
C5 O5 1.270332 1_555
