# generated using pymatgen
data_Cs2ZrFe2(MoO4)6
_symmetry_space_group_name_H-M   'P 1'
_cell_length_a   8.79218300
_cell_length_b   8.79429662
_cell_length_c   8.83017880
_cell_angle_alpha   99.33068005
_cell_angle_beta   99.10363388
_cell_angle_gamma   99.54140306
_symmetry_Int_Tables_number   1
_chemical_formula_structural   Cs2ZrFe2(MoO4)6
_chemical_formula_sum   'Cs2 Zr1 Fe2 Mo6 O24'
_cell_volume   652.27539143
_cell_formula_units_Z   1
loop_
 _symmetry_equiv_pos_site_id
 _symmetry_equiv_pos_as_xyz
  1  'x, y, z'
loop_
 _atom_site_type_symbol
 _atom_site_label
 _atom_site_symmetry_multiplicity
 _atom_site_fract_x
 _atom_site_fract_y
 _atom_site_fract_z
 _atom_site_occupancy
  Cs  Cs0  1  0.17504000  0.17533900  0.17851900  1
  Cs  Cs1  1  0.82496000  0.82466100  0.82148100  1
  Zr  Zr0  1  0.50000000  0.50000000  0.00000000  1
  Fe  Fe0  1  0.50000000  0.00000000  0.50000000  1
  Fe  Fe1  1  0.00000000  0.50000000  0.50000000  1
  Mo  Mo0  1  0.67645600  0.20902900  0.23131800  1
  Mo  Mo1  1  0.20837200  0.22263400  0.66678300  1
  Mo  Mo2  1  0.22284700  0.67663800  0.21796900  1
  Mo  Mo3  1  0.32354400  0.79097100  0.76868200  1
  Mo  Mo4  1  0.79162800  0.77736600  0.33321700  1
  Mo  Mo5  1  0.77715300  0.32336200  0.78203100  1
  O  O0  1  0.54884900  0.15753700  0.36489100  1
  O  O1  1  0.15868500  0.36061300  0.54418400  1
  O  O2  1  0.35764200  0.54611600  0.16616900  1
  O  O3  1  0.45115100  0.84246300  0.63510900  1
  O  O4  1  0.84131500  0.63938700  0.45581600  1
  O  O5  1  0.64235800  0.45388400  0.83383100  1
  O  O6  1  0.86566100  0.31763200  0.33803400  1
  O  O7  1  0.31198800  0.33121400  0.86088000  1
  O  O8  1  0.33617200  0.86615400  0.32020800  1
  O  O9  1  0.13433900  0.68236800  0.66196600  1
  O  O10  1  0.68801200  0.66878600  0.13912000  1
  O  O11  1  0.66382800  0.13384600  0.67979200  1
  O  O12  1  0.70244700  0.04022900  0.11323900  1
  O  O13  1  0.03832900  0.10405100  0.69163800  1
  O  O14  1  0.10803100  0.70092300  0.04735500  1
  O  O15  1  0.29755300  0.95977100  0.88676100  1
  O  O16  1  0.96167100  0.89594900  0.30836200  1
  O  O17  1  0.89196900  0.29907700  0.95264500  1
  O  O18  1  0.57274800  0.32648000  0.11259500  1
  O  O19  1  0.33041700  0.10899200  0.56920800  1
  O  O20  1  0.10548400  0.57444000  0.33437100  1
  O  O21  1  0.42725200  0.67352000  0.88740500  1
  O  O22  1  0.66958300  0.89100800  0.43079200  1
  O  O23  1  0.89451600  0.42556000  0.66562900  1
loop_
_geom_bond_atom_site_label_1
_geom_bond_atom_site_label_2
_geom_bond_distance
_geom_bond_site_symmetry_2
Cs0 O16 3.307098 1_445
Cs0 O15 3.370876 1_544
Cs0 O17 3.374499 1_454
Cs0 O1 3.408787 1_555
Cs0 O2 3.414226 1_555
Cs0 O0 3.475216 1_555
Cs0 O6 3.566269 1_455
Cs0 O8 3.575611 1_545
Cs0 O7 3.600571 1_554
Cs0 O19 3.678830 1_555
Cs0 O18 3.699572 1_555
Cs0 O20 3.741436 1_555
Cs1 O13 3.307098 1_665
Cs1 O12 3.370876 1_566
Cs1 O14 3.374499 1_656
Cs1 O4 3.408787 1_555
Cs1 O5 3.414226 1_555
Cs1 O3 3.475216 1_555
Cs1 O9 3.566269 1_655
Cs1 O11 3.575611 1_565
Cs1 O10 3.600571 1_556
Cs1 O22 3.678830 1_555
Cs1 O21 3.699572 1_555
Cs1 O23 3.741436 1_555
Fe0 O3 2.007001 1_545
Fe0 O0 2.007001 1_555
Fe0 O22 2.021752 1_545
Fe0 O19 2.021752 1_555
Fe0 O11 2.022145 1_555
Fe0 O8 2.022145 1_545
Fe1 O23 1.991510 1_455
Fe1 O20 1.991510 1_555
Fe1 O9 2.026416 1_555
Fe1 O6 2.026416 1_455
Fe1 O4 2.037446 1_455
Fe1 O1 2.037446 1_555
Mo0 O12 1.740400 1_555
Mo0 O6 1.803571 1_555
Mo0 O0 1.810659 1_555
Mo0 O18 1.832537 1_555
Mo1 O13 1.741280 1_555
Mo1 O19 1.805948 1_555
Mo1 O1 1.813079 1_555
Mo1 O7 1.834685 1_555
Mo2 O14 1.740379 1_555
Mo2 O20 1.804643 1_555
Mo2 O8 1.806231 1_555
Mo2 O2 1.839461 1_555
Mo3 O15 1.740400 1_555
Mo3 O9 1.803571 1_555
Mo3 O3 1.810659 1_555
Mo3 O21 1.832537 1_555
Mo4 O16 1.741280 1_555
Mo4 O22 1.805948 1_555
Mo4 O4 1.813079 1_555
Mo4 O10 1.834685 1_555
Mo5 O17 1.740379 1_555
Mo5 O23 1.804643 1_555
Mo5 O11 1.806231 1_555
Mo5 O5 1.839461 1_555
O2 Zr0 2.107255 1_555
O5 Zr0 2.107255 1_556
O7 Zr0 2.097048 1_556
O10 Zr0 2.097048 1_555
O18 Zr0 2.083400 1_555
O21 Zr0 2.083400 1_556
