# generated using pymatgen
data_CaMnNiP2O9
_symmetry_space_group_name_H-M   'P 1'
_cell_length_a   6.42624500
_cell_length_b   7.40052300
_cell_length_c   14.25661600
_cell_angle_alpha   90.00000000
_cell_angle_beta   90.00000000
_cell_angle_gamma   90.00000000
_symmetry_Int_Tables_number   1
_chemical_formula_structural   CaMnNiP2O9
_chemical_formula_sum   'Ca4 Mn4 Ni4 P8 O36'
_cell_volume   678.01006936
_cell_formula_units_Z   4
loop_
 _symmetry_equiv_pos_site_id
 _symmetry_equiv_pos_as_xyz
  1  'x, y, z'
loop_
 _atom_site_type_symbol
 _atom_site_label
 _atom_site_symmetry_multiplicity
 _atom_site_fract_x
 _atom_site_fract_y
 _atom_site_fract_z
 _atom_site_occupancy
  Ca  Ca0  1  0.25000000  0.88263400  0.78177300  1
  Ca  Ca1  1  0.25000000  0.61736600  0.28177300  1
  Ca  Ca2  1  0.75000000  0.11736600  0.21822700  1
  Ca  Ca3  1  0.75000000  0.38263400  0.71822700  1
  Mn  Mn0  1  0.25000000  0.34833100  0.87999300  1
  Mn  Mn1  1  0.75000000  0.65166900  0.12000700  1
  Mn  Mn2  1  0.75000000  0.84833100  0.62000700  1
  Mn  Mn3  1  0.25000000  0.15166900  0.37999300  1
  Ni  Ni0  1  0.00000000  0.00000000  0.00000000  1
  Ni  Ni1  1  0.00000000  0.50000000  0.50000000  1
  Ni  Ni2  1  0.50000000  0.50000000  0.50000000  1
  Ni  Ni3  1  0.50000000  0.00000000  0.00000000  1
  P  P0  1  0.75000000  0.35566900  0.93865700  1
  P  P1  1  0.25000000  0.64433100  0.06134300  1
  P  P2  1  0.25000000  0.85566900  0.56134300  1
  P  P3  1  0.75000000  0.14433100  0.43865700  1
  P  P4  1  0.25000000  0.39225200  0.69334300  1
  P  P5  1  0.75000000  0.60774800  0.30665700  1
  P  P6  1  0.75000000  0.89225200  0.80665700  1
  P  P7  1  0.25000000  0.10774800  0.19334300  1
  O  O0  1  0.55203700  0.60702000  0.36618900  1
  O  O1  1  0.05203700  0.39298000  0.63381100  1
  O  O2  1  0.44796300  0.10702000  0.13381100  1
  O  O3  1  0.94796300  0.89298000  0.86618900  1
  O  O4  1  0.44796300  0.39298000  0.63381100  1
  O  O5  1  0.94796300  0.60702000  0.36618900  1
  O  O6  1  0.55203700  0.89298000  0.86618900  1
  O  O7  1  0.05203700  0.10702000  0.13381100  1
  O  O8  1  0.75000000  0.33092400  0.48687800  1
  O  O9  1  0.25000000  0.66907600  0.51312200  1
  O  O10  1  0.25000000  0.83092400  0.01312200  1
  O  O11  1  0.75000000  0.16907600  0.98687800  1
  O  O12  1  0.25000000  0.13595100  0.94301400  1
  O  O13  1  0.75000000  0.86404900  0.05698600  1
  O  O14  1  0.75000000  0.63595100  0.55698600  1
  O  O15  1  0.25000000  0.36404900  0.44301400  1
  O  O16  1  0.25000000  0.21903900  0.75969600  1
  O  O17  1  0.75000000  0.78096100  0.24030400  1
  O  O18  1  0.75000000  0.71903900  0.74030400  1
  O  O19  1  0.25000000  0.28096100  0.25969600  1
  O  O20  1  0.93816200  0.13050500  0.36927700  1
  O  O21  1  0.43816200  0.86949500  0.63072300  1
  O  O22  1  0.06183800  0.63050500  0.13072300  1
  O  O23  1  0.56183800  0.36949500  0.86927700  1
  O  O24  1  0.06183800  0.86949500  0.63072300  1
  O  O25  1  0.56183800  0.13050500  0.36927700  1
  O  O26  1  0.93816200  0.36949500  0.86927700  1
  O  O27  1  0.43816200  0.63050500  0.13072300  1
  O  O28  1  0.25000000  0.95625900  0.27056600  1
  O  O29  1  0.75000000  0.04374100  0.72943400  1
  O  O30  1  0.75000000  0.45625900  0.22943400  1
  O  O31  1  0.25000000  0.54374100  0.77056600  1
  O  O32  1  0.25000000  0.00560000  0.48916100  1
  O  O33  1  0.75000000  0.99440000  0.51083900  1
  O  O34  1  0.75000000  0.50560000  0.01083900  1
  O  O35  1  0.25000000  0.49440000  0.98916100  1
loop_
_geom_bond_atom_site_label_1
_geom_bond_atom_site_label_2
_geom_bond_distance
_geom_bond_site_symmetry_2
Ca0 O3 2.285078 1_455
Ca0 O6 2.285078 1_555
Ca0 O24 2.471630 1_555
Ca0 O21 2.471630 1_555
Ca0 O16 2.509390 1_565
Ca0 O31 2.513070 1_555
Ca1 O0 2.285078 1_555
Ca1 O5 2.285078 1_455
Ca1 O22 2.471630 1_555
Ca1 O27 2.471630 1_555
Ca1 O19 2.509390 1_555
Ca1 O28 2.513070 1_555
Ca2 O7 2.285078 1_655
Ca2 O2 2.285078 1_555
Ca2 O20 2.471630 1_555
Ca2 O25 2.471630 1_555
Ca2 O17 2.509390 1_545
Ca2 O30 2.513070 1_555
Ca3 O1 2.285078 1_655
Ca3 O4 2.285078 1_555
Ca3 O26 2.471630 1_555
Ca3 O23 2.471630 1_555
Ca3 O18 2.509390 1_555
Ca3 O29 2.513070 1_555
Mn0 O12 1.810402 1_555
Mn0 O35 1.894943 1_555
Mn0 O16 1.963884 1_555
Mn0 O23 2.015856 1_555
Mn0 O26 2.015856 1_455
Mn0 O31 2.127227 1_555
Mn1 O13 1.810402 1_555
Mn1 O34 1.894943 1_555
Mn1 O17 1.963884 1_555
Mn1 O27 2.015856 1_555
Mn1 O22 2.015856 1_655
Mn1 O30 2.127227 1_555
Mn2 O14 1.810402 1_555
Mn2 O33 1.894943 1_555
Mn2 O18 1.963884 1_555
Mn2 O21 2.015856 1_555
Mn2 O24 2.015856 1_655
Mn2 O29 2.127227 1_565
Mn3 O15 1.810402 1_555
Mn3 O32 1.894943 1_555
Mn3 O19 1.963884 1_555
Mn3 O25 2.015856 1_555
Mn3 O20 2.015856 1_455
Mn3 O28 2.127227 1_545
Ni0 O10 2.044912 1_545
Ni0 O11 2.044912 1_454
Ni0 O13 2.062361 1_445
Ni0 O12 2.062361 1_554
Ni0 O7 2.092459 1_555
Ni0 O3 2.092459 1_444
Ni1 O8 2.044912 1_455
Ni1 O9 2.044912 1_555
Ni1 O14 2.062361 1_455
Ni1 O15 2.062361 1_555
Ni1 O1 2.092459 1_555
Ni1 O5 2.092459 1_455
Ni2 O8 2.044912 1_555
Ni2 O9 2.044912 1_555
Ni2 O14 2.062361 1_555
Ni2 O15 2.062361 1_555
Ni2 O4 2.092459 1_555
Ni2 O0 2.092459 1_555
Ni3 O10 2.044912 1_545
Ni3 O11 2.044912 1_554
Ni3 O13 2.062361 1_545
Ni3 O12 2.062361 1_554
Ni3 O2 2.092459 1_555
Ni3 O6 2.092459 1_544
O0 P5 1.529297 1_555
O1 P4 1.529297 1_555
O2 P7 1.529297 1_555
O3 P6 1.529297 1_555
O4 P4 1.529297 1_555
O5 P5 1.529297 1_555
O6 P6 1.529297 1_555
O7 P7 1.529297 1_555
O8 P3 1.542549 1_555
O9 P2 1.542549 1_555
O10 P1 1.542549 1_555
O11 P0 1.542549 1_555
O16 P4 1.593123 1_555
O17 P5 1.593123 1_555
O18 P6 1.593123 1_555
O19 P7 1.593123 1_555
O20 P3 1.565548 1_555
O21 P2 1.565548 1_555
O22 P1 1.565548 1_555
O23 P0 1.565548 1_555
O24 P2 1.565548 1_555
O25 P3 1.565548 1_555
O26 P0 1.565548 1_555
O27 P1 1.565548 1_555
O28 P7 1.571282 1_565
O29 P6 1.571282 1_545
O30 P5 1.571282 1_555
O31 P4 1.571282 1_555
O32 P2 1.513317 1_545
O33 P3 1.513317 1_565
O34 P0 1.513317 1_554
O35 P1 1.513317 1_556
