# generated using pymatgen
data_Ag2Sn(S2O7)3
_symmetry_space_group_name_H-M   'P 1'
_cell_length_a   10.61342223
_cell_length_b   16.99067983
_cell_length_c   16.99069781
_cell_angle_alpha   119.99999140
_cell_angle_beta   90.00004955
_cell_angle_gamma   90.00002727
_symmetry_Int_Tables_number   1
_chemical_formula_structural   Ag2Sn(S2O7)3
_chemical_formula_sum   'Ag12 Sn6 S36 O126'
_cell_volume   2653.43273899
_cell_formula_units_Z   6
loop_
 _symmetry_equiv_pos_site_id
 _symmetry_equiv_pos_as_xyz
  1  'x, y, z'
loop_
 _atom_site_type_symbol
 _atom_site_label
 _atom_site_symmetry_multiplicity
 _atom_site_fract_x
 _atom_site_fract_y
 _atom_site_fract_z
 _atom_site_occupancy
  Ag  Ag0  1  0.43619020  0.99730300  0.63596661  1
  Ag  Ag1  1  0.43618980  0.36403150  0.36133542  1
  Ag  Ag2  1  0.43619076  0.63866484  0.00269774  1
  Ag  Ag3  1  0.56380980  0.00269700  0.36403339  1
  Ag  Ag4  1  0.56381020  0.63596850  0.63866458  1
  Ag  Ag5  1  0.56380924  0.36133516  0.99730226  1
  Ag  Ag6  1  0.92334338  0.01089700  0.69690629  1
  Ag  Ag7  1  0.92334386  0.30309141  0.31398909  1
  Ag  Ag8  1  0.92334282  0.68601211  0.98910424  1
  Ag  Ag9  1  0.07665662  0.98910300  0.30309371  1
  Ag  Ag10  1  0.07665614  0.69690859  0.68601091  1
  Ag  Ag11  1  0.07665718  0.31398789  0.01089576  1
  Sn  Sn0  1  0.21804079  0.66668273  0.33334187  1
  Sn  Sn1  1  0.78195921  0.33331727  0.66665813  1
  Sn  Sn2  1  0.27528386  0.33331943  0.66665989  1
  Sn  Sn3  1  0.72471614  0.66668057  0.33334011  1
  Sn  Sn4  1  0.74353148  -0.00000034  0.00000003  1
  Sn  Sn5  1  0.25646852  0.00000034  -0.00000003  1
  S  S0  1  0.16505071  0.51723326  0.84189773  1
  S  S1  1  0.16505202  0.15810289  0.67533774  1
  S  S2  1  0.16505002  0.32466736  0.48276839  1
  S  S3  1  0.83494929  0.48276674  0.15810227  1
  S  S4  1  0.83494798  0.84189711  0.32466226  1
  S  S5  1  0.83494998  0.67533264  0.51723161  1
  S  S6  1  0.14248638  0.64709452  0.13968287  1
  S  S7  1  0.14248543  0.86031620  0.50741376  1
  S  S8  1  0.14248327  0.49258682  0.35290083  1
  S  S9  1  0.85751362  0.35290548  0.86031713  1
  S  S10  1  0.85751457  0.13968380  0.49258624  1
  S  S11  1  0.85751673  0.50741318  0.64709917  1
  S  S12  1  0.31221138  0.50657202  0.12640182  1
  S  S13  1  0.31220863  0.87360065  0.38017219  1
  S  S14  1  0.31220812  0.61982576  0.49342791  1
  S  S15  1  0.68778862  0.49342798  0.87359818  1
  S  S16  1  0.68779137  0.12639935  0.61982781  1
  S  S17  1  0.68779188  0.38017424  0.50657209  1
  S  S18  1  0.83236050  0.14782715  0.93708453  1
  S  S19  1  0.83235990  0.06291626  0.21074303  1
  S  S20  1  0.83236050  0.78925688  0.85217252  1
  S  S21  1  0.16763950  0.85217285  0.06291547  1
  S  S22  1  0.16764010  0.93708374  0.78925697  1
  S  S23  1  0.16763950  0.21074312  0.14782748  1
  S  S24  1  0.36865930  0.54555239  0.74484758  1
  S  S25  1  0.36865950  0.25515319  0.80070591  1
  S  S26  1  0.36865518  0.19929516  0.45444596  1
  S  S27  1  0.63134070  0.45444761  0.25515242  1
  S  S28  1  0.63134050  0.74484681  0.19929409  1
  S  S29  1  0.63134482  0.80070484  0.54555404  1
  S  S30  1  0.65364958  0.00788738  0.82195977  1
  S  S31  1  0.65364851  0.17804119  0.18592829  1
  S  S32  1  0.65364918  0.81407193  0.99211214  1
  S  S33  1  0.34635042  0.99211262  0.17804023  1
  S  S34  1  0.34635149  0.82195881  0.81407171  1
  S  S35  1  0.34635082  0.18592807  0.00788786  1
  O  O0  1  0.10743119  0.67730544  0.23812076  1
  O  O1  1  0.10742873  0.76188116  0.43918810  1
  O  O2  1  0.10743300  0.56081470  0.32269412  1
  O  O3  1  0.89256881  0.32269456  0.76187924  1
  O  O4  1  0.89257127  0.23811884  0.56081190  1
  O  O5  1  0.89256700  0.43918530  0.67730588  1
  O  O6  1  0.15786100  0.41546671  0.77487856  1
  O  O7  1  0.15785748  0.22511935  0.64058804  1
  O  O8  1  0.15786089  0.35941240  0.58453321  1
  O  O9  1  0.84213900  0.58453329  0.22512144  1
  O  O10  1  0.84214252  0.77488065  0.35941196  1
  O  O11  1  0.84213911  0.64058760  0.41546679  1
  O  O12  1  0.85812325  0.08123136  0.97065616  1
  O  O13  1  0.85812402  0.02934374  0.11057512  1
  O  O14  1  0.85812377  0.88942459  0.91876864  1
  O  O15  1  0.14187675  0.91876864  0.02934384  1
  O  O16  1  0.14187598  0.97065626  0.88942488  1
  O  O17  1  0.14187623  0.11057541  0.08123136  1
  O  O18  1  0.21879214  0.55805116  0.77791890  1
  O  O19  1  0.21879144  0.22208229  0.78013091  1
  O  O20  1  0.21879322  0.21986752  0.44195107  1
  O  O21  1  0.78120786  0.44194884  0.22208110  1
  O  O22  1  0.78120856  0.77791771  0.21986909  1
  O  O23  1  0.78120678  0.78013248  0.55804893  1
  O  O24  1  0.33211647  0.57580611  0.22636292  1
  O  O25  1  0.33211999  0.77363979  0.34944377  1
  O  O26  1  0.33212028  0.65055539  0.42419428  1
  O  O27  1  0.66788353  0.42419389  0.77363708  1
  O  O28  1  0.66788001  0.22636021  0.65055623  1
  O  O29  1  0.66787972  0.34944461  0.57580572  1
  O  O30  1  0.62843018  0.97850966  0.89194857  1
  O  O31  1  0.62843063  0.10805104  0.08656133  1
  O  O32  1  0.62843029  0.91343897  0.02149015  1
  O  O33  1  0.37156982  0.02149034  0.10805143  1
  O  O34  1  0.37156937  0.89194896  0.91343867  1
  O  O35  1  0.37156971  0.08656103  0.97850985  1
  O  O36  1  0.69252899  0.11586895  0.88656532  1
  O  O37  1  0.69252948  0.11343416  0.22930376  1
  O  O38  1  0.69252897  0.77069621  0.88413108  1
  O  O39  1  0.30747101  0.88413105  0.11343468  1
  O  O40  1  0.30747052  0.88656584  0.77069624  1
  O  O41  1  0.30747103  0.22930379  0.11586892  1
  O  O42  1  0.76059485  0.96111170  0.76532802  1
  O  O43  1  0.76059508  0.23467224  0.19578385  1
  O  O44  1  0.76059489  0.80421643  0.03888847  1
  O  O45  1  0.23940515  0.03888830  0.23467198  1
  O  O46  1  0.23940492  0.76532776  0.80421615  1
  O  O47  1  0.23940511  0.19578357  0.96111153  1
  O  O48  1  0.53656291  0.01107947  0.78177033  1
  O  O49  1  0.53656225  0.21822954  0.22930922  1
  O  O50  1  0.53656287  0.77069082  0.98892042  1
  O  O51  1  0.46343709  0.98892053  0.21822967  1
  O  O52  1  0.46343775  0.78177046  0.77069078  1
  O  O53  1  0.46343713  0.22930918  0.01107958  1
  O  O54  1  0.36480648  0.57009256  0.67525497  1
  O  O55  1  0.36480571  0.32474782  0.89483691  1
  O  O56  1  0.36480623  0.10516425  0.42991286  1
  O  O57  1  0.63519352  0.42990744  0.32474503  1
  O  O58  1  0.63519429  0.67525218  0.10516309  1
  O  O59  1  0.63519377  0.89483575  0.57008714  1
  O  O60  1  0.25453657  0.53780201  0.91331919  1
  O  O61  1  0.25453762  0.08668308  0.62448052  1
  O  O62  1  0.25453810  0.37551740  0.46219923  1
  O  O63  1  0.74546343  0.46219799  0.08668081  1
  O  O64  1  0.74546238  0.91331692  0.37551948  1
  O  O65  1  0.74546190  0.62448260  0.53780077  1
  O  O66  1  0.27678352  0.41809801  0.10957612  1
  O  O67  1  0.27678335  0.89041937  0.30851989  1
  O  O68  1  0.27678402  0.69147862  0.58190007  1
  O  O69  1  0.72321648  0.58190199  0.89042388  1
  O  O70  1  0.72321665  0.10958063  0.69148011  1
  O  O71  1  0.72321598  0.30852138  0.41809993  1
  O  O72  1  0.25216202  0.69287853  0.13249448  1
  O  O73  1  0.25216366  0.86750392  0.56038261  1
  O  O74  1  0.25216276  0.43961522  0.30712310  1
  O  O75  1  0.74783798  0.30712147  0.86750552  1
  O  O76  1  0.74783634  0.13249608  0.43961739  1
  O  O77  1  0.74783724  0.56038478  0.69287690  1
  O  O78  1  0.17966372  0.53964369  0.09893237  1
  O  O79  1  0.17966526  0.90106443  0.44070944  1
  O  O80  1  0.17966574  0.55928899  0.46035735  1
  O  O81  1  0.82033628  0.46035631  0.90106763  1
  O  O82  1  0.82033474  0.09893557  0.55929056  1
  O  O83  1  0.82033426  0.44071101  0.53964265  1
  O  O84  1  0.41414316  0.51382821  0.07424181  1
  O  O85  1  0.41414464  0.92575276  0.43958545  1
  O  O86  1  0.41414488  0.56041284  0.48617029  1
  O  O87  1  0.58585684  0.48617179  0.92575819  1
  O  O88  1  0.58585536  0.07424724  0.56041455  1
  O  O89  1  0.58585512  0.43958716  0.51382971  1
  O  O90  1  0.02911425  0.64199890  0.09131848  1
  O  O91  1  0.02911251  0.90867874  0.55067845  1
  O  O92  1  0.02911459  0.44931602  0.35800193  1
  O  O93  1  0.97088575  0.35800110  0.90868152  1
  O  O94  1  0.97088749  0.09132126  0.44932155  1
  O  O95  1  0.97088541  0.55068398  0.64199807  1
  O  O96  1  0.04014629  0.55370509  0.86419385  1
  O  O97  1  0.04014590  0.13580999  0.68950962  1
  O  O98  1  0.04014551  0.31048978  0.44629691  1
  O  O99  1  0.95985371  0.44629491  0.13580615  1
  O  O100  1  0.95985410  0.86419001  0.31049038  1
  O  O101  1  0.95985449  0.68951022  0.55370309  1
  O  O102  1  0.39217380  0.44425266  0.70569073  1
  O  O103  1  0.39217618  0.29431021  0.73856419  1
  O  O104  1  0.39217788  0.26143704  0.55574576  1
  O  O105  1  0.60782620  0.55574734  0.29430927  1
  O  O106  1  0.60782382  0.70568979  0.26143581  1
  O  O107  1  0.60782212  0.73856296  0.44425424  1
  O  O108  1  0.92472986  0.13466375  0.86922997  1
  O  O109  1  0.92473004  0.13076968  0.26543351  1
  O  O110  1  0.92472980  0.73456632  0.86533629  1
  O  O111  1  0.07527014  0.86533625  0.13077003  1
  O  O112  1  0.07526996  0.86923032  0.73456649  1
  O  O113  1  0.07527020  0.26543368  0.13466371  1
  O  O114  1  0.80856223  0.23859485  0.00893334  1
  O  O115  1  0.80856241  0.99106664  0.22966147  1
  O  O116  1  0.80856243  0.77033842  0.76140529  1
  O  O117  1  0.19143777  0.76140515  0.99106666  1
  O  O118  1  0.19143759  0.00893336  0.77033853  1
  O  O119  1  0.19143757  0.22966158  0.23859471  1
  O  O120  1  0.44648502  0.59758767  0.82309773  1
  O  O121  1  0.44648567  0.17690422  0.77448576  1
  O  O122  1  0.44648642  0.22551381  0.40241816  1
  O  O123  1  0.55351498  0.40241233  0.17690227  1
  O  O124  1  0.55351433  0.82309578  0.22551424  1
  O  O125  1  0.55351358  0.77448619  0.59758184  1
loop_
_geom_bond_atom_site_label_1
_geom_bond_atom_site_label_2
_geom_bond_distance
_geom_bond_site_symmetry_2
Ag0 O61 2.521449 1_565
Ag0 O48 2.597466 1_565
Ag0 O59 2.606955 1_555
Ag0 O73 2.737792 1_555
Ag0 O88 2.749249 1_565
Ag0 O121 2.771477 1_565
Ag1 O62 2.521419 1_555
Ag1 O49 2.597443 1_555
Ag1 O57 2.606942 1_555
Ag1 O74 2.737768 1_555
Ag1 O89 2.749225 1_555
Ag1 O122 2.771461 1_555
Ag2 O60 2.521432 1_554
Ag2 O50 2.597449 1_554
Ag2 O58 2.606936 1_555
Ag2 O72 2.737790 1_555
Ag2 O87 2.749216 1_554
Ag2 O120 2.771484 1_554
Ag3 O64 2.521449 1_545
Ag3 O51 2.597466 1_545
Ag3 O56 2.606955 1_555
Ag3 O76 2.737792 1_555
Ag3 O85 2.749249 1_545
Ag3 O124 2.771477 1_545
Ag4 O65 2.521419 1_555
Ag4 O52 2.597443 1_555
Ag4 O54 2.606942 1_555
Ag4 O77 2.737768 1_555
Ag4 O86 2.749225 1_555
Ag4 O125 2.771461 1_555
Ag5 O63 2.521432 1_556
Ag5 O53 2.597449 1_556
Ag5 O55 2.606936 1_555
Ag5 O75 2.737790 1_555
Ag5 O84 2.749216 1_556
Ag5 O123 2.771484 1_556
Ag6 O42 2.456422 1_545
Ag6 O91 2.476754 1_645
Ag6 O97 2.514698 1_655
Ag6 O108 2.614938 1_555
Ag6 O70 2.736040 1_555
Ag7 O43 2.456402 1_555
Ag7 O92 2.476700 1_655
Ag7 O98 2.514657 1_655
Ag7 O109 2.614909 1_555
Ag7 O71 2.736044 1_555
Ag8 O44 2.456389 1_556
Ag8 O90 2.476745 1_656
Ag8 O96 2.514668 1_655
Ag8 O110 2.614924 1_555
Ag8 O69 2.736021 1_555
Ag9 O45 2.456422 1_565
Ag9 O94 2.476754 1_465
Ag9 O100 2.514698 1_455
Ag9 O111 2.614938 1_555
Ag9 O67 2.736040 1_555
Ag10 O46 2.456402 1_555
Ag10 O95 2.476700 1_455
Ag10 O101 2.514657 1_455
Ag10 O112 2.614909 1_555
Ag10 O68 2.736044 1_555
Ag11 O47 2.456389 1_554
Ag11 O93 2.476745 1_454
Ag11 O99 2.514668 1_455
Ag11 O113 2.614924 1_555
Ag11 O66 2.736021 1_555
O0 S6 1.529949 1_555
O0 Sn0 2.078519 1_555
O1 S7 1.529911 1_555
O1 Sn0 2.078422 1_555
O2 S8 1.529898 1_555
O2 Sn0 2.078698 1_555
O3 S9 1.529949 1_555
O3 Sn1 2.078519 1_555
O4 S10 1.529911 1_555
O4 Sn1 2.078422 1_555
O5 S11 1.529898 1_555
O5 Sn1 2.078698 1_555
O6 S0 1.524232 1_555
O6 Sn2 2.077438 1_555
O7 S1 1.524221 1_555
O7 Sn2 2.077210 1_555
O8 S2 1.524213 1_555
O8 Sn2 2.077366 1_555
O9 S3 1.524232 1_555
O9 Sn3 2.077438 1_555
O10 S4 1.524221 1_555
O10 Sn3 2.077210 1_555
O11 S5 1.524213 1_555
O11 Sn3 2.077366 1_555
O12 S18 1.525075 1_555
O12 Sn4 2.078645 1_556
O13 S19 1.525085 1_555
O13 Sn4 2.078643 1_555
O14 S20 1.525081 1_555
O14 Sn4 2.078644 1_566
O15 S21 1.525075 1_555
O15 Sn5 2.078645 1_565
O16 S22 1.525085 1_555
O16 Sn5 2.078643 1_566
O17 S23 1.525081 1_555
O17 Sn5 2.078644 1_555
O18 S0 1.655859 1_555
O18 S24 1.664791 1_555
O19 S1 1.655807 1_555
O19 S25 1.664799 1_555
O20 S2 1.655911 1_555
O20 S26 1.664721 1_555
O21 S3 1.655859 1_555
O21 S27 1.664791 1_555
O22 S4 1.655807 1_555
O22 S28 1.664799 1_555
O23 S5 1.655911 1_555
O23 S29 1.664721 1_555
O24 S12 1.521542 1_555
O24 Sn0 2.085014 1_555
O25 S13 1.521541 1_555
O25 Sn0 2.084735 1_555
O26 S14 1.521577 1_555
O26 Sn0 2.084917 1_555
O27 S15 1.521542 1_555
O27 Sn1 2.085014 1_555
O28 S16 1.521541 1_555
O28 Sn1 2.084735 1_555
O29 S17 1.521577 1_555
O29 Sn1 2.084917 1_555
O30 S30 1.525928 1_565
O30 Sn4 2.079845 1_566
O31 S31 1.525935 1_555
O31 Sn4 2.079842 1_555
O32 S32 1.525933 1_554
O32 Sn4 2.079834 1_565
O33 S33 1.525928 1_545
O33 Sn5 2.079845 1_555
O34 S34 1.525935 1_555
O34 Sn5 2.079842 1_566
O35 S35 1.525933 1_556
O35 Sn5 2.079834 1_556
O36 S30 1.651466 1_555
O36 S18 1.663748 1_555
O37 S31 1.651486 1_555
O37 S19 1.663730 1_555
O38 S32 1.651462 1_555
O38 S20 1.663750 1_555
O39 S33 1.651466 1_555
O39 S21 1.663748 1_555
O40 S34 1.651486 1_555
O40 S22 1.663730 1_555
O41 S35 1.651462 1_555
O41 S23 1.663750 1_555
O42 S30 1.442608 1_565
O43 S31 1.442611 1_555
O44 S32 1.442613 1_554
O45 S33 1.442608 1_545
O46 S34 1.442611 1_555
O47 S35 1.442613 1_556
O48 S30 1.431968 1_555
O49 S31 1.431959 1_555
O50 S32 1.431963 1_555
O51 S33 1.431968 1_555
O52 S34 1.431959 1_555
O53 S35 1.431963 1_555
O54 S24 1.437593 1_555
O55 S25 1.437582 1_555
O56 S26 1.437592 1_555
O57 S27 1.437593 1_555
O58 S28 1.437582 1_555
O59 S29 1.437592 1_555
O60 S0 1.439671 1_555
O61 S1 1.439668 1_555
O62 S2 1.439657 1_555
O63 S3 1.439671 1_555
O64 S4 1.439668 1_555
O65 S5 1.439657 1_555
O66 S12 1.432856 1_555
O67 S13 1.432841 1_555
O68 S14 1.432853 1_555
O69 S15 1.432856 1_555
O70 S16 1.432841 1_555
O71 S17 1.432853 1_555
O72 S6 1.438760 1_555
O73 S7 1.438750 1_555
O74 S8 1.438766 1_555
O75 S9 1.438760 1_555
O76 S10 1.438750 1_555
O77 S11 1.438766 1_555
O78 S6 1.644408 1_555
O78 S12 1.665795 1_555
O79 S7 1.644446 1_555
O79 S13 1.665730 1_555
O80 S8 1.644500 1_555
O80 S14 1.665714 1_555
O81 S9 1.644408 1_555
O81 S15 1.665795 1_555
O82 S10 1.644446 1_555
O82 S16 1.665730 1_555
O83 S11 1.644500 1_555
O83 S17 1.665714 1_555
O84 S12 1.442312 1_555
O85 S13 1.442289 1_555
O86 S14 1.442308 1_555
O87 S15 1.442312 1_555
O88 S16 1.442289 1_555
O89 S17 1.442308 1_555
O90 S6 1.435083 1_555
O91 S7 1.435066 1_555
O92 S8 1.435100 1_555
O93 S9 1.435083 1_555
O94 S10 1.435066 1_555
O95 S11 1.435100 1_555
O96 S0 1.431834 1_555
O97 S1 1.431811 1_555
O98 S2 1.431830 1_555
O99 S3 1.431834 1_555
O100 S4 1.431811 1_555
O101 S5 1.431830 1_555
O102 S24 1.523873 1_555
O102 Sn2 2.069182 1_555
O103 S25 1.523862 1_555
O103 Sn2 2.068997 1_555
O104 S26 1.523887 1_555
O104 Sn2 2.068966 1_555
O105 S27 1.523873 1_555
O105 Sn3 2.069182 1_555
O106 S28 1.523862 1_555
O106 Sn3 2.068997 1_555
O107 S29 1.523887 1_555
O107 Sn3 2.068966 1_555
O108 S18 1.443066 1_555
O109 S19 1.443057 1_555
O110 S20 1.443060 1_555
O111 S21 1.443066 1_555
O112 S22 1.443057 1_555
O113 S23 1.443060 1_555
O114 S18 1.431708 1_554
O115 S19 1.431714 1_565
O116 S20 1.431703 1_555
O117 S21 1.431708 1_556
O118 S22 1.431714 1_545
O119 S23 1.431703 1_555
O120 S24 1.433915 1_555
O121 S25 1.433889 1_555
O122 S26 1.433891 1_555
O123 S27 1.433915 1_555
O124 S28 1.433889 1_555
O125 S29 1.433891 1_555
