# generated using pymatgen
data_Tb5Ir2
_symmetry_space_group_name_H-M   'P 1'
_cell_length_a   6.52391200
_cell_length_b   7.20496471
_cell_length_c   8.59837099
_cell_angle_alpha   96.24996244
_cell_angle_beta   112.29460684
_cell_angle_gamma   90.00000000
_symmetry_Int_Tables_number   1
_chemical_formula_structural   Tb5Ir2
_chemical_formula_sum   'Tb10 Ir4'
_cell_volume   371.35204152
_cell_formula_units_Z   2
loop_
 _symmetry_equiv_pos_site_id
 _symmetry_equiv_pos_as_xyz
  1  'x, y, z'
loop_
 _atom_site_type_symbol
 _atom_site_label
 _atom_site_symmetry_multiplicity
 _atom_site_fract_x
 _atom_site_fract_y
 _atom_site_fract_z
 _atom_site_occupancy
  Tb  Tb0  1  0.97123400  0.91769600  0.18262200  1
  Tb  Tb1  1  0.78861200  0.58230400  0.81737800  1
  Tb  Tb2  1  0.02876600  0.08230400  0.81737800  1
  Tb  Tb3  1  0.21138800  0.41769600  0.18262200  1
  Tb  Tb4  1  0.65371400  0.81811200  0.44088500  1
  Tb  Tb5  1  0.21282900  0.68188800  0.55911500  1
  Tb  Tb6  1  0.34628600  0.18188800  0.55911500  1
  Tb  Tb7  1  0.78717100  0.31811200  0.44088500  1
  Tb  Tb8  1  0.42855700  0.75000000  0.00000000  1
  Tb  Tb9  1  0.57144300  0.25000000  0.00000000  1
  Ir  Ir0  1  0.82583500  0.57300000  0.22036900  1
  Ir  Ir1  1  0.60546600  0.92700000  0.77963100  1
  Ir  Ir2  1  0.17416500  0.42700000  0.77963100  1
  Ir  Ir3  1  0.39453400  0.07300000  0.22036900  1
loop_
_geom_bond_atom_site_label_1
_geom_bond_atom_site_label_2
_geom_bond_distance
_geom_bond_site_symmetry_2
Ir0 Tb0 2.753563 1_555
Ir0 Tb7 2.855234 1_555
Ir0 Tb3 2.867849 1_655
Ir0 Tb9 2.900769 1_555
Ir0 Tb8 2.955350 1_555
Ir0 Tb4 2.976780 1_555
Ir0 Tb5 3.065332 1_655
Ir0 Tb1 3.388551 1_554
Ir1 Tb1 2.753563 1_555
Ir1 Tb6 2.855234 1_565
Ir1 Tb2 2.867849 1_665
Ir1 Tb9 2.900769 1_566
Ir1 Tb8 2.955350 1_556
Ir1 Tb5 2.976780 1_555
Ir1 Tb4 3.065332 1_555
Ir1 Tb0 3.388551 1_556
Ir2 Tb2 2.753563 1_555
Ir2 Tb5 2.855234 1_555
Ir2 Tb1 2.867849 1_455
Ir2 Tb8 2.900769 1_556
Ir2 Tb9 2.955350 1_556
Ir2 Tb6 2.976780 1_555
Ir2 Tb7 3.065332 1_455
Ir2 Tb3 3.388551 1_556
Ir3 Tb3 2.753563 1_555
Ir3 Tb4 2.855234 1_545
Ir3 Tb0 2.867849 1_445
Ir3 Tb8 2.900769 1_545
Ir3 Tb9 2.955350 1_555
Ir3 Tb7 2.976780 1_555
Ir3 Tb6 3.065332 1_555
Ir3 Tb2 3.388551 1_554
