# generated using pymatgen
data_SrLiNdCoO4
_symmetry_space_group_name_H-M   'P 1'
_cell_length_a   3.88124647
_cell_length_b   3.37662704
_cell_length_c   8.19295878
_cell_angle_alpha   90.18796348
_cell_angle_beta   89.42730949
_cell_angle_gamma   89.71206482
_symmetry_Int_Tables_number   1
_chemical_formula_structural   SrLiNdCoO4
_chemical_formula_sum   'Sr1 Li1 Nd1 Co1 O4'
_cell_volume   107.36568490
_cell_formula_units_Z   1
loop_
 _symmetry_equiv_pos_site_id
 _symmetry_equiv_pos_as_xyz
  1  'x, y, z'
loop_
 _atom_site_type_symbol
 _atom_site_label
 _atom_site_symmetry_multiplicity
 _atom_site_fract_x
 _atom_site_fract_y
 _atom_site_fract_z
 _atom_site_occupancy
  Sr  Sr0  1  0.15151000  0.15037500  0.34962300  1
  Li  Li0  1  0.64880300  0.64521800  0.07695600  1
  Nd  Nd0  1  0.63420400  0.64163100  0.68938100  1
  Co  Co0  1  0.13732200  0.14204900  0.95395300  1
  O  O0  1  0.15259700  0.16344100  0.66841600  1
  O  O1  1  0.65099800  0.65416800  0.41451900  1
  O  O2  1  0.64993500  0.13773700  0.91156500  1
  O  O3  1  0.15320200  0.64395300  0.10225200  1
loop_
_geom_bond_atom_site_label_1
_geom_bond_atom_site_label_2
_geom_bond_distance
_geom_bond_site_symmetry_2
Li0 O3 1.932649 1_555
Li0 O3 1.970680 1_655
Li0 O2 2.148637 1_564
Li0 O2 2.181069 1_554
Nd0 O1 2.252768 1_555
Nd0 O2 2.471194 1_565
Nd0 O0 2.483070 1_555
Nd0 O2 2.496769 1_555
Nd0 O0 2.569697 1_565
Nd0 O0 2.577493 1_655
Nd0 O0 2.685683 1_665
Co0 O2 1.926812 1_455
Co0 O2 2.016209 1_555
Co0 O3 2.079096 1_546
Co0 O3 2.083562 1_556
Co0 O0 2.340912 1_555
O0 Sr0 2.612132 1_555
O1 Sr0 2.615746 1_565
O1 Sr0 2.623292 1_665
O1 Sr0 2.624966 1_655
O1 Sr0 2.642467 1_555
O3 Sr0 2.628158 1_555
O3 Sr0 2.647364 1_565
