# generated using pymatgen
data_SrCr2BiO6
_symmetry_space_group_name_H-M   'P 1'
_cell_length_a   5.61355313
_cell_length_b   5.61355313
_cell_length_c   5.61355282
_cell_angle_alpha   59.42497012
_cell_angle_beta   59.42497012
_cell_angle_gamma   59.42496954
_symmetry_Int_Tables_number   1
_chemical_formula_structural   SrCr2BiO6
_chemical_formula_sum   'Sr1 Cr2 Bi1 O6'
_cell_volume   123.44651347
_cell_formula_units_Z   1
loop_
 _symmetry_equiv_pos_site_id
 _symmetry_equiv_pos_as_xyz
  1  'x, y, z'
loop_
 _atom_site_type_symbol
 _atom_site_label
 _atom_site_symmetry_multiplicity
 _atom_site_fract_x
 _atom_site_fract_y
 _atom_site_fract_z
 _atom_site_occupancy
  Sr  Sr0  1  0.23898000  0.23898000  0.23898000  1
  Cr  Cr0  1  0.49271400  0.49271400  0.49271400  1
  Cr  Cr1  1  0.99545700  0.99545700  0.99545700  1
  Bi  Bi0  1  0.71265500  0.71265500  0.71265500  1
  O  O0  1  0.16552500  0.33006900  0.74860600  1
  O  O1  1  0.74860600  0.16552500  0.33006900  1
  O  O2  1  0.33006900  0.74860600  0.16552500  1
  O  O3  1  0.27430400  0.80609400  0.68859600  1
  O  O4  1  0.68859600  0.27430400  0.80609400  1
  O  O5  1  0.80609400  0.68859600  0.27430400  1
loop_
_geom_bond_atom_site_label_1
_geom_bond_atom_site_label_2
_geom_bond_distance
_geom_bond_site_symmetry_2
Cr0 O2 1.989509 1_555
Cr0 O1 1.989509 1_555
Cr0 O0 1.989509 1_555
Cr0 O4 2.051624 1_555
Cr0 O3 2.051624 1_555
Cr0 O5 2.051624 1_555
Cr1 O3 1.993594 1_655
Cr1 O4 1.993594 1_565
Cr1 O5 1.993594 1_556
Cr1 O1 2.047037 1_566
Cr1 O2 2.047037 1_656
Cr1 O0 2.047037 1_665
Bi0 O5 2.302476 1_555
Bi0 O3 2.302476 1_555
Bi0 O4 2.302476 1_555
Bi0 O2 2.375412 1_556
Bi0 O1 2.375412 1_565
Bi0 O0 2.375412 1_655
O0 Sr0 2.741779 1_556
O0 Sr0 2.947768 1_555
O1 Sr0 2.741779 1_655
O1 Sr0 2.947768 1_555
O2 Sr0 2.741779 1_565
O2 Sr0 2.947768 1_555
O3 Sr0 2.468610 1_565
O3 Sr0 3.119688 1_556
O4 Sr0 2.468610 1_556
O4 Sr0 3.119688 1_655
O5 Sr0 2.468610 1_655
O5 Sr0 3.119688 1_565
