# generated using pymatgen
data_Ba4PrDy(Cu3O7)2
_symmetry_space_group_name_H-M   'P 1'
_cell_length_a   3.87830600
_cell_length_b   3.94272200
_cell_length_c   23.66707400
_cell_angle_alpha   90.00000000
_cell_angle_beta   90.00000000
_cell_angle_gamma   90.00000000
_symmetry_Int_Tables_number   1
_chemical_formula_structural   Ba4PrDy(Cu3O7)2
_chemical_formula_sum   'Ba4 Pr1 Dy1 Cu6 O14'
_cell_volume   361.89517844
_cell_formula_units_Z   1
loop_
 _symmetry_equiv_pos_site_id
 _symmetry_equiv_pos_as_xyz
  1  'x, y, z'
loop_
 _atom_site_type_symbol
 _atom_site_label
 _atom_site_symmetry_multiplicity
 _atom_site_fract_x
 _atom_site_fract_y
 _atom_site_fract_z
 _atom_site_occupancy
  Ba  Ba0  1  0.50000000  0.50000000  0.83984100  1
  Ba  Ba1  1  0.50000000  0.50000000  0.34029200  1
  Ba  Ba2  1  0.50000000  0.50000000  0.16015900  1
  Ba  Ba3  1  0.50000000  0.50000000  0.65970800  1
  Pr  Pr0  1  0.50000000  0.50000000  0.00000000  1
  Dy  Dy0  1  0.50000000  0.50000000  0.50000000  1
  Cu  Cu0  1  0.00000000  0.00000000  0.92335300  1
  Cu  Cu1  1  0.00000000  0.00000000  0.42544300  1
  Cu  Cu2  1  0.00000000  0.00000000  0.07664700  1
  Cu  Cu3  1  0.00000000  0.00000000  0.57455700  1
  Cu  Cu4  1  0.00000000  0.00000000  0.74994300  1
  Cu  Cu5  1  0.00000000  0.00000000  0.25005700  1
  O  O0  1  0.00000000  0.00000000  0.82926700  1
  O  O1  1  0.00000000  0.00000000  0.32974800  1
  O  O2  1  0.00000000  0.00000000  0.17073300  1
  O  O3  1  0.00000000  0.00000000  0.67025200  1
  O  O4  1  0.50000000  0.00000000  0.93521900  1
  O  O5  1  0.50000000  0.00000000  0.43955500  1
  O  O6  1  0.50000000  0.00000000  0.06478100  1
  O  O7  1  0.50000000  0.00000000  0.56044500  1
  O  O8  1  0.00000000  0.50000000  0.74973400  1
  O  O9  1  0.00000000  0.50000000  0.25026600  1
  O  O10  1  0.00000000  0.50000000  0.93476900  1
  O  O11  1  0.00000000  0.50000000  0.43925800  1
  O  O12  1  0.00000000  0.50000000  0.06523100  1
  O  O13  1  0.00000000  0.50000000  0.56074200  1
loop_
_geom_bond_atom_site_label_1
_geom_bond_atom_site_label_2
_geom_bond_distance
_geom_bond_site_symmetry_2
Ba0 O0 2.776546 1_655
Ba0 O0 2.776546 1_665
Ba0 O0 2.776546 1_555
Ba0 O0 2.776546 1_565
Ba0 O8 2.882389 1_555
Ba0 O8 2.882389 1_655
Ba0 O10 2.967799 1_555
Ba0 O10 2.967799 1_655
Ba0 O4 2.996957 1_565
Ba0 O4 2.996957 1_555
Ba1 O1 2.776482 1_665
Ba1 O1 2.776482 1_655
Ba1 O1 2.776482 1_555
Ba1 O1 2.776482 1_565
Ba1 O9 2.880971 1_555
Ba1 O9 2.880971 1_655
Ba1 O11 3.040786 1_655
Ba1 O11 3.040786 1_555
Ba1 O5 3.066808 1_565
Ba1 O5 3.066808 1_555
Ba2 O2 2.776546 1_555
Ba2 O2 2.776546 1_565
Ba2 O2 2.776546 1_665
Ba2 O2 2.776546 1_655
Ba2 O9 2.882389 1_655
Ba2 O9 2.882389 1_555
Ba2 O12 2.967799 1_655
Ba2 O12 2.967799 1_555
Ba2 O6 2.996957 1_565
Ba2 O6 2.996957 1_555
Ba3 O3 2.776482 1_555
Ba3 O3 2.776482 1_655
Ba3 O3 2.776482 1_665
Ba3 O3 2.776482 1_565
Ba3 O8 2.880971 1_555
Ba3 O8 2.880971 1_655
Ba3 O13 3.040786 1_555
Ba3 O13 3.040786 1_655
Ba3 O7 3.066808 1_555
Ba3 O7 3.066808 1_565
Dy0 O13 2.413911 1_555
Dy0 O13 2.413911 1_655
Dy0 O11 2.413911 1_655
Dy0 O11 2.413911 1_555
Dy0 O7 2.435725 1_565
Dy0 O7 2.435725 1_555
Dy0 O5 2.435725 1_555
Dy0 O5 2.435725 1_565
Cu0 O4 1.959383 1_455
Cu0 O4 1.959383 1_555
Cu0 O10 1.989790 1_545
Cu0 O10 1.989790 1_555
Cu0 O0 2.226740 1_555
Cu1 O5 1.967705 1_455
Cu1 O5 1.967705 1_555
Cu1 O11 1.998291 1_555
Cu1 O11 1.998291 1_545
Cu1 O1 2.264821 1_555
Cu2 O6 1.959383 1_555
Cu2 O6 1.959383 1_455
Cu2 O12 1.989790 1_545
Cu2 O12 1.989790 1_555
Cu2 O2 2.226740 1_555
Cu3 O7 1.967705 1_555
Cu3 O7 1.967705 1_455
Cu3 O13 1.998291 1_545
Cu3 O13 1.998291 1_555
Cu3 O3 2.264821 1_555
Cu4 O0 1.877367 1_555
Cu4 O3 1.886053 1_555
Cu4 O8 1.971367 1_545
Cu4 O8 1.971367 1_555
Cu5 O2 1.877367 1_555
Cu5 O1 1.886053 1_555
Cu5 O9 1.971367 1_555
Cu5 O9 1.971367 1_545
O4 Pr0 2.497378 1_556
O4 Pr0 2.497378 1_546
O6 Pr0 2.497378 1_545
O6 Pr0 2.497378 1_555
O10 Pr0 2.478652 1_556
O10 Pr0 2.478652 1_456
O12 Pr0 2.478652 1_455
O12 Pr0 2.478652 1_555
