# generated using pymatgen
data_Co(PbN)3
_symmetry_space_group_name_H-M   'P 1'
_cell_length_a   10.13747514
_cell_length_b   10.13778433
_cell_length_c   3.85873900
_cell_angle_alpha   90.00000000
_cell_angle_beta   90.00000000
_cell_angle_gamma   119.98023155
_symmetry_Int_Tables_number   1
_chemical_formula_structural   Co(PbN)3
_chemical_formula_sum   'Co2 Pb6 N6'
_cell_volume   343.50681964
_cell_formula_units_Z   2
loop_
 _symmetry_equiv_pos_site_id
 _symmetry_equiv_pos_as_xyz
  1  'x, y, z'
loop_
 _atom_site_type_symbol
 _atom_site_label
 _atom_site_symmetry_multiplicity
 _atom_site_fract_x
 _atom_site_fract_y
 _atom_site_fract_z
 _atom_site_occupancy
  Co  Co0  1  0.66672500  0.33332500  0.75000000  1
  Co  Co1  1  0.33327500  0.66667500  0.25000000  1
  Pb  Pb0  1  0.91909200  0.59596900  0.25000000  1
  Pb  Pb1  1  0.67679600  0.08061400  0.25000000  1
  Pb  Pb2  1  0.40409700  0.32319300  0.25000000  1
  Pb  Pb3  1  0.08090800  0.40403100  0.75000000  1
  Pb  Pb4  1  0.32320400  0.91938600  0.75000000  1
  Pb  Pb5  1  0.59590300  0.67680700  0.75000000  1
  N  N0  1  0.86486300  0.44063200  0.75000000  1
  N  N1  1  0.57594200  0.13518100  0.75000000  1
  N  N2  1  0.55940800  0.42420500  0.75000000  1
  N  N3  1  0.13513700  0.55936800  0.25000000  1
  N  N4  1  0.42405800  0.86481900  0.25000000  1
  N  N5  1  0.44059200  0.57579500  0.25000000  1
loop_
_geom_bond_atom_site_label_1
_geom_bond_atom_site_label_2
_geom_bond_distance
_geom_bond_site_symmetry_2
Co0 N2 1.741878 1_555
Co0 N0 1.741895 1_555
Co0 N1 1.741968 1_555
Co1 N5 1.741878 1_555
Co1 N3 1.741895 1_555
Co1 N4 1.741968 1_555
N0 Pb0 2.374740 1_555
N0 Pb0 2.374740 1_556
N0 Pb3 2.397210 1_655
N1 Pb1 2.374666 1_555
N1 Pb1 2.374666 1_556
N1 Pb4 2.397639 1_545
N2 Pb2 2.374596 1_556
N2 Pb2 2.374596 1_555
N2 Pb5 2.397466 1_555
N3 Pb3 2.374740 1_555
N3 Pb3 2.374740 1_554
N3 Pb0 2.397210 1_455
N4 Pb4 2.374666 1_554
N4 Pb4 2.374666 1_555
N4 Pb1 2.397639 1_565
N5 Pb5 2.374596 1_555
N5 Pb5 2.374596 1_554
N5 Pb2 2.397466 1_555
