# generated using pymatgen
data_CdMoO2
_symmetry_space_group_name_H-M   'P 1'
_cell_length_a   7.12681314
_cell_length_b   7.12681314
_cell_length_c   7.12681314
_cell_angle_alpha   125.63008911
_cell_angle_beta   125.63008911
_cell_angle_gamma   80.49696870
_symmetry_Int_Tables_number   1
_chemical_formula_structural   CdMoO2
_chemical_formula_sum   'Cd4 Mo4 O8'
_cell_volume   230.66794736
_cell_formula_units_Z   4
loop_
 _symmetry_equiv_pos_site_id
 _symmetry_equiv_pos_as_xyz
  1  'x, y, z'
loop_
 _atom_site_type_symbol
 _atom_site_label
 _atom_site_symmetry_multiplicity
 _atom_site_fract_x
 _atom_site_fract_y
 _atom_site_fract_z
 _atom_site_occupancy
  Cd  Cd0  1  0.87500000  0.62500000  0.25000000  1
  Cd  Cd1  1  0.37500000  0.62500000  0.75000000  1
  Cd  Cd2  1  0.37500000  0.62500000  0.25000000  1
  Cd  Cd3  1  0.37500000  0.12500000  0.75000000  1
  Mo  Mo0  1  0.37500000  0.12500000  0.25000000  1
  Mo  Mo1  1  0.87500000  0.12500000  0.75000000  1
  Mo  Mo2  1  0.87500000  0.12500000  0.25000000  1
  Mo  Mo3  1  0.87500000  0.62500000  0.75000000  1
  O  O0  1  0.16138400  0.38498000  0.22359600  1
  O  O1  1  0.16138400  0.93778800  0.77640400  1
  O  O2  1  0.13498000  0.41138400  0.72359600  1
  O  O3  1  0.58861600  0.86502000  0.27640400  1
  O  O4  1  0.68778800  0.41138400  0.27640400  1
  O  O5  1  0.58861600  0.31221200  0.72359600  1
  O  O6  1  0.61502000  0.83861600  0.77640400  1
  O  O7  1  0.06221200  0.83861600  0.22359600  1
loop_
_geom_bond_atom_site_label_1
_geom_bond_atom_site_label_2
_geom_bond_distance
_geom_bond_site_symmetry_2
Cd0 O7 2.330296 1_655
Cd0 O4 2.330296 1_555
Cd0 O1 2.459026 1_655
Cd0 O5 2.459026 1_554
Cd0 O0 2.459026 1_655
Cd0 O3 2.459026 1_555
Cd1 O6 2.330296 1_555
Cd1 O2 2.330296 1_555
Cd1 O3 2.459026 1_556
Cd1 O1 2.459026 1_555
Cd1 O0 2.459026 1_555
Cd1 O5 2.459026 1_555
Cd2 O0 2.330296 1_555
Cd2 O3 2.330296 1_555
Cd2 O2 2.459026 1_554
Cd2 O6 2.459026 1_555
Cd2 O7 2.459026 1_555
Cd2 O4 2.459026 1_555
Cd3 O5 2.330296 1_555
Cd3 O1 2.330296 1_545
Cd3 O2 2.459026 1_555
Cd3 O4 2.459026 1_556
Cd3 O7 2.459026 1_545
Cd3 O6 2.459026 1_545
Mo0 O3 2.219713 1_545
Mo0 O1 2.219713 1_544
Mo0 O5 2.219713 1_555
Mo0 O0 2.219713 1_555
Mo1 O0 2.219713 1_656
Mo1 O3 2.219713 1_545
Mo1 O5 2.219713 1_555
Mo1 O1 2.219713 1_645
Mo2 O4 2.219713 1_555
Mo2 O2 2.219713 1_655
Mo2 O6 2.219713 1_544
Mo2 O7 2.219713 1_645
Mo3 O6 2.219713 1_555
Mo3 O4 2.219713 1_555
Mo3 O7 2.219713 1_656
Mo3 O2 2.219713 1_655
