# generated using pymatgen
data_KTa5Pb2O15
_symmetry_space_group_name_H-M   'P 1'
_cell_length_a   3.97201700
_cell_length_b   12.73049200
_cell_length_c   12.76108200
_cell_angle_alpha   90.00000000
_cell_angle_beta   90.00000000
_cell_angle_gamma   90.00000000
_symmetry_Int_Tables_number   1
_chemical_formula_structural   KTa5Pb2O15
_chemical_formula_sum   'K2 Ta10 Pb4 O30'
_cell_volume   645.27343512
_cell_formula_units_Z   2
loop_
 _symmetry_equiv_pos_site_id
 _symmetry_equiv_pos_as_xyz
  1  'x, y, z'
loop_
 _atom_site_type_symbol
 _atom_site_label
 _atom_site_symmetry_multiplicity
 _atom_site_fract_x
 _atom_site_fract_y
 _atom_site_fract_z
 _atom_site_occupancy
  K  K0  1  0.50000000  0.92319100  0.67579200  1
  K  K1  1  0.50000000  0.07680900  0.17579200  1
  Ta  Ta0  1  0.00000000  0.46430500  0.57544200  1
  Ta  Ta1  1  0.00000000  0.03779800  0.42159100  1
  Ta  Ta2  1  0.00000000  0.53569500  0.07544200  1
  Ta  Ta3  1  0.00000000  0.96220200  0.92159100  1
  Ta  Ta4  1  0.00000000  0.33046200  0.28903700  1
  Ta  Ta5  1  0.00000000  0.17401000  0.70805400  1
  Ta  Ta6  1  0.00000000  0.82599000  0.20805400  1
  Ta  Ta7  1  0.00000000  0.66953800  0.78903700  1
  Ta  Ta8  1  0.00000000  0.75313200  0.50497200  1
  Ta  Ta9  1  0.00000000  0.24686800  0.00497200  1
  Pb  Pb0  1  0.50000000  0.25276500  0.49466300  1
  Pb  Pb1  1  0.50000000  0.74723500  0.99466300  1
  Pb  Pb2  1  0.50000000  0.37952500  0.83052900  1
  Pb  Pb3  1  0.50000000  0.62047500  0.33052900  1
  O  O0  1  0.00000000  0.59250100  0.49387300  1
  O  O1  1  0.00000000  0.90399200  0.50237500  1
  O  O2  1  0.00000000  0.40749900  0.99387300  1
  O  O3  1  0.00000000  0.09600800  0.00237500  1
  O  O4  1  0.00000000  0.25068800  0.15516100  1
  O  O5  1  0.00000000  0.26282500  0.84243700  1
  O  O6  1  0.00000000  0.73717500  0.34243700  1
  O  O7  1  0.00000000  0.74931200  0.65516100  1
  O  O8  1  0.50000000  0.45379900  0.57728300  1
  O  O9  1  0.50000000  0.04683000  0.42554100  1
  O  O10  1  0.50000000  0.54620100  0.07728300  1
  O  O11  1  0.50000000  0.95317000  0.92554100  1
  O  O12  1  0.50000000  0.32510700  0.29787200  1
  O  O13  1  0.50000000  0.18067400  0.71111900  1
  O  O14  1  0.50000000  0.81932600  0.21111900  1
  O  O15  1  0.50000000  0.67489300  0.79787200  1
  O  O16  1  0.00000000  0.53491300  0.71533700  1
  O  O17  1  0.00000000  0.95990100  0.28942100  1
  O  O18  1  0.00000000  0.46508700  0.21533700  1
  O  O19  1  0.00000000  0.04009900  0.78942100  1
  O  O20  1  0.50000000  0.74250700  0.48885000  1
  O  O21  1  0.50000000  0.25749300  0.98885000  1
  O  O22  1  0.00000000  0.31794600  0.64104100  1
  O  O23  1  0.00000000  0.18209600  0.36134100  1
  O  O24  1  0.00000000  0.68205400  0.14104100  1
  O  O25  1  0.00000000  0.81790400  0.86134100  1
  O  O26  1  0.00000000  0.38587300  0.43495300  1
  O  O27  1  0.00000000  0.10897500  0.57031700  1
  O  O28  1  0.00000000  0.89102500  0.07031700  1
  O  O29  1  0.00000000  0.61412700  0.93495300  1
loop_
_geom_bond_atom_site_label_1
_geom_bond_atom_site_label_2
_geom_bond_distance
_geom_bond_site_symmetry_2
K0 O19 2.874342 1_565
K0 O19 2.874342 1_665
K0 O1 2.983502 1_555
K0 O1 2.983502 1_655
K0 O7 2.985534 1_655
K0 O7 2.985534 1_555
K1 O17 2.874342 1_545
K1 O17 2.874342 1_645
K1 O3 2.983502 1_555
K1 O3 2.983502 1_655
K1 O4 2.985534 1_555
K1 O4 2.985534 1_655
O0 Ta0 1.935693 1_555
O0 Ta8 2.049811 1_555
O1 Ta8 1.920808 1_555
O1 Ta1 1.991071 1_565
O2 Ta2 1.935693 1_556
O2 Ta9 2.049811 1_556
O3 Ta9 1.920808 1_555
O3 Ta3 1.991071 1_544
O4 Ta9 1.917191 1_555
O4 Ta4 1.987462 1_555
O5 Ta5 2.054063 1_555
O5 Ta9 2.084047 1_556
O5 Pb2 2.484849 1_455
O5 Pb2 2.484849 1_555
O6 Ta6 2.054063 1_555
O6 Ta8 2.084047 1_555
O6 Pb3 2.484849 1_455
O6 Pb3 2.484849 1_555
O7 Ta8 1.917191 1_555
O7 Ta7 1.987462 1_555
O8 Ta0 1.990646 1_655
O8 Ta0 1.990646 1_555
O8 Pb0 2.767926 1_555
O9 Ta1 1.989973 1_555
O9 Ta1 1.989973 1_655
O9 Pb0 2.766066 1_555
O10 Ta2 1.990646 1_655
O10 Ta2 1.990646 1_555
O10 Pb1 2.767926 1_554
O11 Ta3 1.989973 1_555
O11 Ta3 1.989973 1_655
O11 Pb1 2.766066 1_555
O12 Ta4 1.990374 1_555
O12 Ta4 1.990374 1_655
O12 Pb0 2.674809 1_555
O13 Ta5 1.988204 1_555
O13 Ta5 1.988204 1_655
O13 Pb0 2.910686 1_555
O14 Ta6 1.988204 1_655
O14 Ta6 1.988204 1_555
O14 Pb1 2.910686 1_554
O15 Ta7 1.990374 1_655
O15 Ta7 1.990374 1_555
O15 Pb1 2.674809 1_555
O16 Ta7 1.954938 1_555
O16 Ta0 1.998739 1_555
O17 Ta1 1.956561 1_565
O17 Ta6 1.996075 1_555
O18 Ta4 1.954938 1_555
O18 Ta2 1.998739 1_555
O19 Ta3 1.956561 1_545
O19 Ta5 1.996075 1_555
O20 Ta8 2.001213 1_555
O20 Ta8 2.001213 1_655
O20 Pb3 2.548578 1_555
O21 Ta9 2.001213 1_556
O21 Ta9 2.001213 1_656
O21 Pb2 2.548578 1_555
O22 Ta5 2.022102 1_555
O22 Ta0 2.042635 1_555
O22 Pb0 2.849909 1_455
O22 Pb0 2.849909 1_555
O23 Ta1 1.991394 1_555
O23 Ta4 2.102093 1_555
O23 Pb0 2.765526 1_555
O23 Pb0 2.765526 1_455
O24 Ta6 2.022102 1_555
O24 Ta2 2.042635 1_555
O24 Pb1 2.849909 1_554
O24 Pb1 2.849909 1_454
O25 Ta3 1.991394 1_555
O25 Ta7 2.102093 1_555
O25 Pb1 2.765526 1_555
O25 Pb1 2.765526 1_455
O26 Ta4 1.991185 1_555
O26 Ta0 2.052087 1_555
O26 Pb0 2.719605 1_555
O26 Pb0 2.719605 1_455
O27 Ta5 1.942905 1_555
O27 Ta1 2.103115 1_555
O27 Pb0 2.868287 1_455
O27 Pb0 2.868287 1_555
O28 Ta6 1.942905 1_555
O28 Ta3 2.103115 1_554
O28 Pb1 2.868287 1_454
O28 Pb1 2.868287 1_554
O29 Ta7 1.991185 1_555
O29 Ta2 2.052087 1_556
O29 Pb1 2.719605 1_555
O29 Pb1 2.719605 1_455
