# generated using pymatgen
data_Sr3Ir2O7
_symmetry_space_group_name_H-M   'P 1'
_cell_length_a   5.84010525
_cell_length_b   5.84010558
_cell_length_c   6.97172017
_cell_angle_alpha   67.68272715
_cell_angle_beta   67.68272987
_cell_angle_gamma   67.88398228
_symmetry_Int_Tables_number   1
_chemical_formula_structural   Sr3Ir2O7
_chemical_formula_sum   'Sr3 Ir2 O7'
_cell_volume   195.85603561
_cell_formula_units_Z   1
loop_
 _symmetry_equiv_pos_site_id
 _symmetry_equiv_pos_as_xyz
  1  'x, y, z'
loop_
 _atom_site_type_symbol
 _atom_site_label
 _atom_site_symmetry_multiplicity
 _atom_site_fract_x
 _atom_site_fract_y
 _atom_site_fract_z
 _atom_site_occupancy
  Sr  Sr0  1  0.30652700  0.30652700  0.60840900  1
  Sr  Sr1  1  0.50000000  0.50000000  0.00000000  1
  Sr  Sr2  1  0.69347300  0.69347300  0.39159100  1
  Ir  Ir0  1  0.08263600  0.08263600  0.20021800  1
  Ir  Ir1  1  0.91736400  0.91736400  0.79978200  1
  O  O0  1  0.00000000  0.00000000  0.00000000  1
  O  O1  1  0.21973800  0.21973800  0.32513200  1
  O  O2  1  0.33094800  0.75602100  0.25875500  1
  O  O3  1  0.24397900  0.66905200  0.74124500  1
  O  O4  1  0.75602100  0.33094800  0.25875500  1
  O  O5  1  0.66905200  0.24397900  0.74124500  1
  O  O6  1  0.78026200  0.78026200  0.67486700  1
loop_
_geom_bond_atom_site_label_1
_geom_bond_atom_site_label_2
_geom_bond_distance
_geom_bond_site_symmetry_2
Ir0 O1 1.892748 1_555
Ir0 O0 1.900749 1_555
Ir0 O2 1.919222 1_545
Ir0 O4 1.919222 1_455
Ir1 O6 1.892753 1_555
Ir1 O0 1.900749 1_666
Ir1 O5 1.919222 1_565
Ir1 O3 1.919222 1_655
O0 Sr2 2.975249 1_445
O0 Sr0 2.975249 1_554
O1 Sr0 2.475491 1_555
O1 Sr1 2.622557 1_555
O2 Sr1 2.459466 1_555
O2 Sr2 2.474552 1_555
O2 Sr0 2.830490 1_555
O3 Sr1 2.459465 1_556
O3 Sr0 2.474553 1_555
O3 Sr2 2.830490 1_555
O4 Sr1 2.459465 1_555
O4 Sr2 2.474553 1_555
O4 Sr0 2.830490 1_555
O5 Sr1 2.459466 1_556
O5 Sr0 2.474552 1_555
O5 Sr2 2.830490 1_555
O6 Sr2 2.475485 1_555
O6 Sr1 2.622559 1_556
