# generated using pymatgen
data_MgUS2O21
_symmetry_space_group_name_H-M   'P 1'
_cell_length_a   7.28600012
_cell_length_b   7.28600012
_cell_length_c   15.35935902
_cell_angle_alpha   83.62509714
_cell_angle_beta   83.62509714
_cell_angle_gamma   69.67440549
_symmetry_Int_Tables_number   1
_chemical_formula_structural   MgUS2O21
_chemical_formula_sum   'Mg2 U2 S4 O42'
_cell_volume   757.56583090
_cell_formula_units_Z   2
loop_
 _symmetry_equiv_pos_site_id
 _symmetry_equiv_pos_as_xyz
  1  'x, y, z'
loop_
 _atom_site_type_symbol
 _atom_site_label
 _atom_site_symmetry_multiplicity
 _atom_site_fract_x
 _atom_site_fract_y
 _atom_site_fract_z
 _atom_site_occupancy
  Mg  Mg0  1  0.00000000  0.50000000  0.50000000  1
  Mg  Mg1  1  0.50000000  0.00000000  0.00000000  1
  U  U0  1  0.57824500  0.42175500  0.25000000  1
  U  U1  1  0.42175500  0.57824500  0.75000000  1
  S  S0  1  0.19522400  0.27685900  0.15774100  1
  S  S1  1  0.72314100  0.80477600  0.34225900  1
  S  S2  1  0.80477600  0.72314100  0.84225900  1
  S  S3  1  0.27685900  0.19522400  0.65774100  1
  O  O0  1  0.28134600  0.15687600  0.08169100  1
  O  O1  1  0.84312400  0.71865400  0.41830900  1
  O  O2  1  0.71865400  0.84312400  0.91830900  1
  O  O3  1  0.15687600  0.28134600  0.58169100  1
  O  O4  1  0.35321100  0.26990300  0.21257700  1
  O  O5  1  0.73009700  0.64678900  0.28742300  1
  O  O6  1  0.64678900  0.73009700  0.78742300  1
  O  O7  1  0.26990300  0.35321100  0.71257700  1
  O  O8  1  0.03649300  0.22488000  0.20876300  1
  O  O9  1  0.77512000  0.96350700  0.29123700  1
  O  O10  1  0.96350700  0.77512000  0.79123700  1
  O  O11  1  0.22488000  0.03649300  0.70876300  1
  O  O12  1  0.09134900  0.48904500  0.12160800  1
  O  O13  1  0.51095500  0.90865100  0.37839200  1
  O  O14  1  0.90865100  0.51095500  0.87839200  1
  O  O15  1  0.48904500  0.09134900  0.62160800  1
  O  O16  1  0.64455300  0.45526400  0.13271700  1
  O  O17  1  0.54473600  0.35544700  0.36728300  1
  O  O18  1  0.35544700  0.54473600  0.86728300  1
  O  O19  1  0.45526400  0.64455300  0.63271700  1
  O  O20  1  0.34881200  0.65118800  0.25000000  1
  O  O21  1  0.65118800  0.34881200  0.75000000  1
  O  O22  1  0.95615800  0.01469800  0.07313500  1
  O  O23  1  0.98530200  0.04384200  0.42686500  1
  O  O24  1  0.04384200  0.98530200  0.92686500  1
  O  O25  1  0.01469800  0.95615800  0.57313500  1
  O  O26  1  0.30706400  0.70357200  0.05050900  1
  O  O27  1  0.29642800  0.69293600  0.44949100  1
  O  O28  1  0.69293600  0.29642800  0.94949100  1
  O  O29  1  0.70357200  0.30706400  0.55050900  1
  O  O30  1  0.33288600  0.03007500  0.90065400  1
  O  O31  1  0.96992500  0.66711400  0.59934600  1
  O  O32  1  0.66711400  0.96992500  0.09934600  1
  O  O33  1  0.03007500  0.33288600  0.40065400  1
  O  O34  1  0.86579800  0.89601700  0.10238200  1
  O  O35  1  0.10398300  0.13420200  0.39761800  1
  O  O36  1  0.13420200  0.10398300  0.89761800  1
  O  O37  1  0.89601700  0.86579800  0.60238200  1
  O  O38  1  0.26728100  0.56415200  0.03263900  1
  O  O39  1  0.43584800  0.73271900  0.46736100  1
  O  O40  1  0.73271900  0.43584800  0.96736100  1
  O  O41  1  0.56415200  0.26728100  0.53263900  1
loop_
_geom_bond_atom_site_label_1
_geom_bond_atom_site_label_2
_geom_bond_distance
_geom_bond_site_symmetry_2
Mg0 O33 2.002965 1_555
Mg0 O31 2.002965 1_455
Mg0 O3 2.007075 1_555
Mg0 O1 2.007075 1_455
Mg1 O32 2.002965 1_545
Mg1 O30 2.002965 1_554
Mg1 O2 2.007075 1_544
Mg1 O0 2.007075 1_555
O0 S0 1.485019 1_555
O1 S1 1.485019 1_555
O2 S2 1.485019 1_555
O3 S3 1.485019 1_555
O4 S0 1.483998 1_555
O4 U0 2.419403 1_555
O5 S1 1.483998 1_555
O5 U0 2.419403 1_555
O6 S2 1.483998 1_555
O6 U1 2.419403 1_555
O7 S3 1.483998 1_555
O7 U1 2.419403 1_555
O8 S0 1.460203 1_555
O9 S1 1.460203 1_555
O10 S2 1.460203 1_555
O11 S3 1.460203 1_555
O12 S0 1.536480 1_555
O12 O38 1.934473 1_555
O13 S1 1.536480 1_555
O13 O39 1.934473 1_555
O14 S2 1.536480 1_555
O14 O40 1.934473 1_555
O15 S3 1.536480 1_555
O15 O41 1.934473 1_555
O16 U0 1.824565 1_555
O17 U0 1.824565 1_555
O18 U1 1.824565 1_555
O19 U1 1.824565 1_555
O20 U0 1.909848 1_555
O21 U1 1.909848 1_555
O22 O34 1.275350 1_545
O23 O35 1.275350 1_655
O24 O36 1.275350 1_565
O25 O37 1.275350 1_455
O26 O38 1.214646 1_555
O27 O39 1.214646 1_555
O28 O40 1.214646 1_555
O29 O41 1.214646 1_555
O30 O36 1.362203 1_555
O31 O37 1.362203 1_555
O32 O34 1.362203 1_555
O33 O35 1.362203 1_555
