# generated using pymatgen
data_HfTc2
_symmetry_space_group_name_H-M   'P 1'
_cell_length_a   5.17905300
_cell_length_b   5.17905300
_cell_length_c   8.62864922
_cell_angle_alpha   90.00000000
_cell_angle_beta   90.00000000
_cell_angle_gamma   120.01762441
_symmetry_Int_Tables_number   1
_chemical_formula_structural   HfTc2
_chemical_formula_sum   'Hf4 Tc8'
_cell_volume   200.39966958
_cell_formula_units_Z   4
loop_
 _symmetry_equiv_pos_site_id
 _symmetry_equiv_pos_as_xyz
  1  'x, y, z'
loop_
 _atom_site_type_symbol
 _atom_site_label
 _atom_site_symmetry_multiplicity
 _atom_site_fract_x
 _atom_site_fract_y
 _atom_site_fract_z
 _atom_site_occupancy
  Hf  Hf0  1  0.66662164  0.33337836  0.56286998  1
  Hf  Hf1  1  0.33337836  0.66662164  0.43713002  1
  Hf  Hf2  1  0.33337836  0.66662164  0.06286998  1
  Hf  Hf3  1  0.66662164  0.33337836  0.93713002  1
  Tc  Tc0  1  0.00000000  -0.00000000  0.50000000  1
  Tc  Tc1  1  0.00000000  -0.00000000  0.00000000  1
  Tc  Tc2  1  0.17262193  0.34535421  0.75000000  1
  Tc  Tc3  1  0.17267199  0.82732801  0.75000000  1
  Tc  Tc4  1  0.65464579  0.82737807  0.75000000  1
  Tc  Tc5  1  0.82737807  0.65464579  0.25000000  1
  Tc  Tc6  1  0.82732801  0.17267199  0.25000000  1
  Tc  Tc7  1  0.34535421  0.17262193  0.25000000  1
loop_
_geom_bond_atom_site_label_1
_geom_bond_atom_site_label_2
_geom_bond_distance
_geom_bond_site_symmetry_2
Hf0 Tc0 3.038218 1_555
Hf0 Tc0 3.038218 1_665
Hf0 Tc0 3.039598 1_655
Hf0 Tc3 3.051591 1_545
Hf0 Tc3 3.051591 1_655
Hf0 Tc4 3.052126 1_555
Hf0 Tc2 3.052126 1_555
Hf0 Tc4 3.052207 1_545
Hf0 Tc2 3.052207 1_655
Hf0 Tc7 3.060012 1_555
Hf0 Tc5 3.060012 1_555
Hf0 Tc6 3.060500 1_555
Hf1 Tc0 3.038218 1_555
Hf1 Tc0 3.038218 1_665
Hf1 Tc0 3.039598 1_565
Hf1 Tc6 3.051591 1_455
Hf1 Tc6 3.051591 1_565
Hf1 Tc5 3.052126 1_555
Hf1 Tc7 3.052126 1_555
Hf1 Tc7 3.052207 1_565
Hf1 Tc5 3.052207 1_455
Hf1 Tc2 3.060012 1_555
Hf1 Tc4 3.060012 1_555
Hf1 Tc3 3.060500 1_555
Hf2 Tc1 3.038218 1_555
Hf2 Tc1 3.038218 1_665
Hf2 Tc1 3.039598 1_565
Hf2 Tc6 3.051591 1_455
Hf2 Tc6 3.051591 1_565
Hf2 Tc5 3.052126 1_555
Hf2 Tc7 3.052126 1_555
Hf2 Tc7 3.052207 1_565
Hf2 Tc5 3.052207 1_455
Hf2 Tc2 3.060012 1_554
Hf2 Tc4 3.060012 1_554
Hf2 Tc3 3.060500 1_554
Hf3 Tc1 3.038218 1_666
Hf3 Tc1 3.038218 1_556
Hf3 Tc1 3.039598 1_656
Hf3 Tc3 3.051591 1_545
Hf3 Tc3 3.051591 1_655
Hf3 Tc4 3.052126 1_555
Hf3 Tc2 3.052126 1_555
Hf3 Tc4 3.052207 1_545
Hf3 Tc2 3.052207 1_655
Hf3 Tc7 3.060012 1_556
Hf3 Tc5 3.060012 1_556
Hf3 Tc6 3.060500 1_556
Tc0 Tc5 2.655529 1_445
Tc0 Tc7 2.655529 1_555
Tc0 Tc2 2.655529 1_555
Tc0 Tc4 2.655529 1_445
Tc0 Tc3 2.655743 1_545
Tc0 Tc6 2.655743 1_455
Tc1 Tc5 2.655529 1_445
Tc1 Tc7 2.655529 1_555
Tc1 Tc2 2.655529 1_554
Tc1 Tc4 2.655529 1_444
Tc1 Tc3 2.655743 1_544
Tc1 Tc6 2.655743 1_455
Tc2 Tc4 2.495762 1_555
Tc2 Tc3 2.496038 1_555
Tc2 Tc4 2.681911 1_445
Tc2 Tc3 2.683015 1_545
Tc3 Tc4 2.496038 1_555
Tc3 Tc4 2.683015 1_455
Tc5 Tc7 2.495762 1_555
Tc5 Tc6 2.496038 1_555
Tc5 Tc7 2.681911 1_665
Tc5 Tc6 2.683015 1_565
Tc6 Tc7 2.496038 1_555
Tc6 Tc7 2.683015 1_655
