# generated using pymatgen
data_Eu2Co2O5
_symmetry_space_group_name_H-M   'P 1'
_cell_length_a   8.64454079
_cell_length_b   8.64454079
_cell_length_c   8.64454079
_cell_angle_alpha   144.07634497
_cell_angle_beta   141.69578867
_cell_angle_gamma   53.52084476
_symmetry_Int_Tables_number   1
_chemical_formula_structural   Eu2Co2O5
_chemical_formula_sum   'Eu4 Co4 O10'
_cell_volume   233.42853831
_cell_formula_units_Z   2
loop_
 _symmetry_equiv_pos_site_id
 _symmetry_equiv_pos_as_xyz
  1  'x, y, z'
loop_
 _atom_site_type_symbol
 _atom_site_label
 _atom_site_symmetry_multiplicity
 _atom_site_fract_x
 _atom_site_fract_y
 _atom_site_fract_z
 _atom_site_occupancy
  Eu  Eu0  1  0.91451300  0.39231400  0.52773600  1
  Eu  Eu1  1  0.08548700  0.61322300  0.47780200  1
  Eu  Eu2  1  0.36457800  0.89231400  0.47780200  1
  Eu  Eu3  1  0.63542200  0.11322300  0.52773600  1
  Co  Co0  1  0.00000000  0.01146300  0.01146300  1
  Co  Co1  1  0.50000000  0.51146300  0.01146300  1
  Co  Co2  1  0.68296700  0.71709500  0.90006200  1
  Co  Co3  1  0.31703300  0.21709500  0.03412700  1
  O  O0  1  0.26997200  0.27398800  0.51281200  1
  O  O1  1  0.73002800  0.24284000  0.00401600  1
  O  O2  1  0.26117600  0.77398800  0.00401600  1
  O  O3  1  0.73882400  0.74284000  0.51281200  1
  O  O4  1  0.93336800  0.90025600  0.10863900  1
  O  O5  1  0.06663200  0.17527100  0.96688800  1
  O  O6  1  0.29161700  0.40025600  0.96688800  1
  O  O7  1  0.70838300  0.67527100  0.10863900  1
  O  O8  1  0.64585500  0.33754900  0.48340400  1
  O  O9  1  0.35414500  0.83754900  0.69169500  1
loop_
_geom_bond_atom_site_label_1
_geom_bond_atom_site_label_2
_geom_bond_distance
_geom_bond_site_symmetry_2
Eu0 O8 2.319762 1_555
Eu0 O6 2.337628 1_655
Eu0 O1 2.520647 1_555
Eu0 O3 2.521609 1_555
Eu0 O4 2.527628 1_545
Eu0 O0 2.678813 1_655
Eu0 O2 2.684987 1_656
Eu0 O4 2.894561 1_556
Eu1 O9 2.319762 1_555
Eu1 O7 2.337632 1_455
Eu1 O0 2.520642 1_555
Eu1 O2 2.521602 1_556
Eu1 O5 2.527632 1_554
Eu1 O1 2.678810 1_455
Eu1 O3 2.684981 1_455
Eu1 O5 2.894560 1_565
Eu2 O9 2.319762 1_555
Eu2 O4 2.337629 1_455
Eu2 O3 2.520651 1_555
Eu2 O1 2.521611 1_566
Eu2 O6 2.527629 1_554
Eu2 O2 2.678821 1_555
Eu2 O0 2.684993 1_565
Eu2 O6 2.894557 1_565
Eu3 O8 2.319762 1_555
Eu3 O5 2.337628 1_655
Eu3 O2 2.520647 1_545
Eu3 O0 2.521609 1_555
Eu3 O7 2.527628 1_545
Eu3 O3 2.678813 1_545
Eu3 O1 2.684987 1_556
Eu3 O7 2.894561 1_556
Co0 O2 1.954168 1_545
Co0 O3 1.954168 1_444
Co0 O0 1.968146 1_555
Co0 O1 1.968146 1_455
Co0 O5 2.165033 1_554
Co0 O4 2.165033 1_445
Co1 O0 1.954168 1_554
Co1 O1 1.954168 1_555
Co1 O2 1.968146 1_555
Co1 O3 1.968146 1_555
Co1 O6 2.165033 1_554
Co1 O7 2.165033 1_555
Co2 O4 1.941546 1_556
Co2 O7 1.941546 1_556
Co2 O9 1.972598 1_555
Co2 O8 2.034531 1_555
Co3 O6 1.941538 1_554
Co3 O5 1.941552 1_554
Co3 O8 1.972604 1_555
Co3 O9 2.034526 1_544
