# generated using pymatgen
data_KV6O11
_symmetry_space_group_name_H-M   'P 1'
_cell_length_a   5.88747842
_cell_length_b   5.88747842
_cell_length_c   13.61907000
_cell_angle_alpha   90.00000000
_cell_angle_beta   90.00000000
_cell_angle_gamma   120.00000475
_symmetry_Int_Tables_number   1
_chemical_formula_structural   KV6O11
_chemical_formula_sum   'K2 V12 O22'
_cell_volume   408.82431705
_cell_formula_units_Z   2
loop_
 _symmetry_equiv_pos_site_id
 _symmetry_equiv_pos_as_xyz
  1  'x, y, z'
loop_
 _atom_site_type_symbol
 _atom_site_label
 _atom_site_symmetry_multiplicity
 _atom_site_fract_x
 _atom_site_fract_y
 _atom_site_fract_z
 _atom_site_occupancy
  K  K0  1  0.33333300  0.66666700  0.25000000  1
  K  K1  1  0.66666700  0.33333300  0.75000000  1
  V  V0  1  0.50000000  0.50000000  0.00000000  1
  V  V1  1  0.00000000  0.00000000  0.35097800  1
  V  V2  1  0.00000000  0.00000000  0.64902200  1
  V  V3  1  0.00000000  0.00000000  0.14902200  1
  V  V4  1  0.50000000  0.00000000  0.50000000  1
  V  V5  1  0.00000000  0.00000000  0.85097800  1
  V  V6  1  0.00000000  0.50000000  0.00000000  1
  V  V7  1  0.00000000  0.50000000  0.50000000  1
  V  V8  1  0.50000000  0.50000000  0.50000000  1
  V  V9  1  0.50000000  0.00000000  0.00000000  1
  V  V10  1  0.33333300  0.66666700  0.75000000  1
  V  V11  1  0.66666700  0.33333300  0.25000000  1
  O  O0  1  0.66666700  0.33333300  0.41697000  1
  O  O1  1  0.33333300  0.66666700  0.91697000  1
  O  O2  1  0.66666700  0.33333300  0.08303000  1
  O  O3  1  0.33333300  0.66666700  0.58303000  1
  O  O4  1  0.85230600  0.70461300  0.25000000  1
  O  O5  1  0.14769400  0.85230600  0.75000000  1
  O  O6  1  0.70461300  0.85230600  0.75000000  1
  O  O7  1  0.29538700  0.14769400  0.25000000  1
  O  O8  1  0.85230600  0.14769400  0.25000000  1
  O  O9  1  0.14769400  0.29538700  0.75000000  1
  O  O10  1  0.82625400  0.65250800  0.92593100  1
  O  O11  1  0.17374600  0.82625400  0.42593100  1
  O  O12  1  0.65250800  0.82625400  0.42593100  1
  O  O13  1  0.34749200  0.17374600  0.92593100  1
  O  O14  1  0.17374600  0.34749200  0.07406900  1
  O  O15  1  0.82625400  0.17374600  0.57406900  1
  O  O16  1  0.34749200  0.17374600  0.57406900  1
  O  O17  1  0.65250800  0.82625400  0.07406900  1
  O  O18  1  0.82625400  0.17374600  0.92593100  1
  O  O19  1  0.82625400  0.65250800  0.57406900  1
  O  O20  1  0.17374600  0.34749200  0.42593100  1
  O  O21  1  0.17374600  0.82625400  0.07406900  1
loop_
_geom_bond_atom_site_label_1
_geom_bond_atom_site_label_2
_geom_bond_distance
_geom_bond_site_symmetry_2
K0 O21 2.896419 1_555
K0 O11 2.896419 1_555
K0 O17 2.896422 1_555
K0 O12 2.896422 1_555
K0 O20 2.896422 1_555
K0 O14 2.896422 1_555
K0 O8 2.950090 1_455
K0 O8 2.950090 1_565
K0 O7 2.950090 1_555
K0 O4 2.950090 1_555
K0 O4 2.950090 1_455
K0 O7 2.950090 1_565
K1 O18 2.896419 1_555
K1 O15 2.896419 1_555
K1 O10 2.896422 1_555
K1 O13 2.896422 1_555
K1 O19 2.896422 1_555
K1 O16 2.896422 1_555
K1 O5 2.950090 1_655
K1 O5 2.950090 1_545
K1 O9 2.950090 1_555
K1 O6 2.950090 1_555
K1 O6 2.950090 1_545
K1 O9 2.950090 1_655
O0 V4 2.041376 1_555
O0 V7 2.041376 1_655
O0 V8 2.041381 1_555
O0 V11 2.273976 1_555
O1 V9 2.041376 1_566
O1 V6 2.041376 1_556
O1 V0 2.041381 1_556
O1 V10 2.273976 1_555
O2 V9 2.041376 1_555
O2 V6 2.041376 1_655
O2 V0 2.041381 1_555
O2 V11 2.273976 1_555
O3 V7 2.041376 1_555
O3 V4 2.041376 1_565
O3 V8 2.041381 1_555
O3 V10 2.273976 1_555
O4 V11 1.893047 1_555
O4 V1 2.039500 1_665
O4 V3 2.039500 1_665
O5 V10 1.893037 1_555
O5 V5 2.039504 1_565
O5 V2 2.039504 1_565
O6 V10 1.893047 1_555
O6 V5 2.039500 1_665
O6 V2 2.039500 1_665
O7 V11 1.893047 1_555
O7 V1 2.039500 1_555
O7 V3 2.039500 1_555
O8 V11 1.893037 1_555
O8 V1 2.039504 1_655
O8 V3 2.039504 1_655
O9 V10 1.893047 1_555
O9 V5 2.039500 1_555
O9 V2 2.039500 1_555
O10 V0 1.946440 1_556
O10 V6 1.946440 1_656
O10 V5 2.044785 1_665
O11 V7 1.946440 1_555
O11 V4 1.946440 1_565
O11 V1 2.044785 1_565
O12 V8 1.946440 1_555
O12 V4 1.946440 1_565
O12 V1 2.044785 1_665
O13 V0 1.946440 1_556
O13 V9 1.946440 1_556
O13 V5 2.044785 1_555
O14 V0 1.946440 1_555
O14 V6 1.946440 1_555
O14 V3 2.044785 1_555
O15 V4 1.946440 1_555
O15 V7 1.946440 1_655
O15 V2 2.044785 1_655
O16 V8 1.946440 1_555
O16 V4 1.946440 1_555
O16 V2 2.044785 1_555
O17 V0 1.946440 1_555
O17 V9 1.946440 1_565
O17 V3 2.044785 1_665
O18 V9 1.946440 1_556
O18 V6 1.946440 1_656
O18 V5 2.044785 1_655
O19 V8 1.946440 1_555
O19 V7 1.946440 1_655
O19 V2 2.044785 1_665
O20 V8 1.946440 1_555
O20 V7 1.946440 1_555
O20 V1 2.044785 1_555
O21 V6 1.946440 1_555
O21 V9 1.946440 1_565
O21 V3 2.044785 1_565
