# generated using pymatgen
data_Nd6Co5Ge2
_symmetry_space_group_name_H-M   'P 1'
_cell_length_a   8.92809048
_cell_length_b   8.92809048
_cell_length_c   4.15563900
_cell_angle_alpha   90.00000000
_cell_angle_beta   90.00000000
_cell_angle_gamma   117.50599902
_symmetry_Int_Tables_number   1
_chemical_formula_structural   Nd6Co5Ge2
_chemical_formula_sum   'Nd6 Co5 Ge2'
_cell_volume   293.80570834
_cell_formula_units_Z   1
loop_
 _symmetry_equiv_pos_site_id
 _symmetry_equiv_pos_as_xyz
  1  'x, y, z'
loop_
 _atom_site_type_symbol
 _atom_site_label
 _atom_site_symmetry_multiplicity
 _atom_site_fract_x
 _atom_site_fract_y
 _atom_site_fract_z
 _atom_site_occupancy
  Nd  Nd0  1  0.13361600  0.86638400  0.50000000  1
  Nd  Nd1  1  0.73577000  0.86779900  0.50000000  1
  Nd  Nd2  1  0.13220100  0.26423000  0.50000000  1
  Nd  Nd3  1  0.49657400  0.50342600  0.00000000  1
  Nd  Nd4  1  0.01560400  0.51471700  0.00000000  1
  Nd  Nd5  1  0.48528300  0.98439600  0.00000000  1
  Co  Co0  1  0.67423900  0.32576100  0.00000000  1
  Co  Co1  1  0.85200100  0.14799900  0.00000000  1
  Co  Co2  1  0.29277700  0.14885000  0.00000000  1
  Co  Co3  1  0.85115000  0.70722300  0.00000000  1
  Co  Co4  1  0.00195500  0.99804500  0.00000000  1
  Ge  Ge0  1  0.33832700  0.66167300  0.50000000  1
  Ge  Ge1  1  0.75460200  0.24539800  0.50000000  1
loop_
_geom_bond_atom_site_label_1
_geom_bond_atom_site_label_2
_geom_bond_distance
_geom_bond_site_symmetry_2
Co0 Ge1 2.412968 1_554
Co0 Ge1 2.412968 1_555
Co0 Nd3 2.712224 1_555
Co0 Co1 2.713705 1_555
Co0 Nd5 2.717634 1_545
Co0 Nd4 2.717634 1_655
Co1 Co4 2.289190 1_645
Co1 Ge1 2.555028 1_554
Co1 Ge1 2.555028 1_555
Co1 Nd4 2.904452 1_655
Co1 Nd5 2.904452 1_545
Co1 Nd2 3.042131 1_655
Co1 Nd2 3.042131 1_654
Co1 Nd1 3.042131 1_544
Co1 Nd1 3.042131 1_545
Co2 Co4 2.307687 1_545
Co2 Nd5 2.727762 1_545
Co2 Nd3 2.830509 1_555
Co2 Nd2 2.966129 1_555
Co2 Nd2 2.966129 1_554
Co2 Nd0 3.063717 1_545
Co2 Nd0 3.063717 1_544
Co3 Co4 2.307687 1_655
Co3 Nd4 2.727762 1_655
Co3 Nd3 2.830509 1_555
Co3 Nd1 2.966129 1_554
Co3 Nd1 2.966129 1_555
Co3 Nd0 3.063717 1_655
Co3 Nd0 3.063717 1_654
Co4 Nd0 2.890874 1_554
Co4 Nd0 2.890874 1_555
Co4 Nd1 2.960538 1_454
Co4 Nd1 2.960538 1_455
Co4 Nd2 2.960538 1_565
Co4 Nd2 2.960538 1_564
Ge0 Nd0 3.125107 1_555
Ge0 Nd2 3.153748 1_555
Ge0 Nd1 3.153748 1_555
Ge0 Nd3 3.186436 1_556
Ge0 Nd3 3.186436 1_555
Ge0 Nd5 3.293752 1_556
Ge0 Nd5 3.293752 1_555
Ge0 Nd4 3.293752 1_556
Ge0 Nd4 3.293752 1_555
Ge1 Nd4 3.217694 1_656
Ge1 Nd4 3.217694 1_655
Ge1 Nd5 3.217694 1_545
Ge1 Nd5 3.217694 1_546
Ge1 Nd2 3.296961 1_655
Ge1 Nd1 3.296961 1_545
