# generated using pymatgen
data_NbAlNi
_symmetry_space_group_name_H-M   'P 1'
_cell_length_a   4.93326101
_cell_length_b   4.93411155
_cell_length_c   7.99431600
_cell_angle_alpha   90.00000000
_cell_angle_beta   90.00000000
_cell_angle_gamma   61.24898172
_symmetry_Int_Tables_number   1
_chemical_formula_structural   NbAlNi
_chemical_formula_sum   'Nb4 Al4 Ni4'
_cell_volume   170.60210840
_cell_formula_units_Z   4
loop_
 _symmetry_equiv_pos_site_id
 _symmetry_equiv_pos_as_xyz
  1  'x, y, z'
loop_
 _atom_site_type_symbol
 _atom_site_label
 _atom_site_symmetry_multiplicity
 _atom_site_fract_x
 _atom_site_fract_y
 _atom_site_fract_z
 _atom_site_occupancy
  Nb  Nb0  1  0.33383300  0.33384100  0.55117600  1
  Nb  Nb1  1  0.66272100  0.66273300  0.42889400  1
  Nb  Nb2  1  0.66272100  0.66273300  0.07110600  1
  Nb  Nb3  1  0.33383300  0.33384100  0.94882400  1
  Al  Al0  1  0.99235700  0.99244300  0.48744300  1
  Al  Al1  1  0.99235700  0.99244300  0.01255700  1
  Al  Al2  1  0.83445900  0.35028300  0.75000000  1
  Al  Al3  1  0.35028400  0.83445300  0.75000000  1
  Ni  Ni0  1  0.83866900  0.83864900  0.75000000  1
  Ni  Ni1  1  0.17428700  0.65336300  0.25000000  1
  Ni  Ni2  1  0.65345600  0.17420900  0.25000000  1
  Ni  Ni3  1  0.17102300  0.17101100  0.25000000  1
loop_
_geom_bond_atom_site_label_1
_geom_bond_atom_site_label_2
_geom_bond_distance
_geom_bond_site_symmetry_2
Nb0 Ni1 2.776381 1_555
Nb0 Ni3 2.776395 1_555
Nb0 Ni2 2.776485 1_555
Nb0 Nb1 2.958797 1_555
Nb0 Ni0 2.973929 1_455
Nb0 Ni0 2.974035 1_545
Nb0 Nb1 3.062957 1_455
Nb0 Nb1 3.063409 1_545
Nb0 Nb3 3.178924 1_555
Nb1 Ni1 2.821459 1_555
Nb1 Ni2 2.821975 1_555
Nb1 Nb2 2.860270 1_555
Nb1 Ni1 2.881698 1_655
Nb1 Ni2 2.881904 1_565
Nb1 Ni3 2.892492 1_565
Nb1 Ni3 2.892573 1_655
Nb1 Ni0 2.970054 1_555
Nb2 Ni1 2.821459 1_555
Nb2 Ni2 2.821975 1_555
Nb2 Ni1 2.881698 1_655
Nb2 Ni2 2.881904 1_565
Nb2 Ni3 2.892492 1_565
Nb2 Ni3 2.892573 1_655
Nb2 Nb3 2.958797 1_554
Nb2 Ni0 2.970054 1_554
Nb2 Nb3 3.062957 1_654
Nb2 Nb3 3.063409 1_564
Nb3 Ni1 2.776381 1_556
Nb3 Ni3 2.776395 1_556
Nb3 Ni2 2.776485 1_556
Nb3 Ni0 2.973929 1_455
Nb3 Ni0 2.974035 1_545
Al0 Ni2 2.400046 1_565
Al0 Ni1 2.400677 1_655
Al0 Ni3 2.429690 1_665
Al0 Ni0 2.471801 1_555
Al0 Al2 2.608975 1_565
Al0 Al3 2.609026 1_655
Al0 Nb1 2.838153 1_555
Al0 Nb0 2.895947 1_565
Al0 Nb0 2.896747 1_655
Al0 Nb1 2.937137 1_655
Al0 Nb1 2.937306 1_565
Al0 Nb0 2.943610 1_665
Al1 Ni2 2.400046 1_565
Al1 Ni1 2.400677 1_655
Al1 Ni3 2.429690 1_665
Al1 Ni0 2.471801 1_554
Al1 Al2 2.608975 1_564
Al1 Al3 2.609026 1_654
Al1 Nb2 2.838153 1_555
Al1 Nb3 2.895947 1_564
Al1 Nb3 2.896747 1_654
Al1 Nb2 2.937137 1_655
Al1 Nb2 2.937306 1_565
Al1 Nb3 2.943610 1_664
Al2 Ni0 2.419711 1_555
Al2 Al3 2.433708 1_555
Al2 Ni0 2.514535 1_545
Al2 Al3 2.592823 1_645
Al2 Nb0 2.899956 1_655
Al2 Nb3 2.899956 1_655
Al2 Nb2 2.903034 1_556
Al2 Nb1 2.903034 1_555
Al2 Nb3 2.970729 1_555
Al2 Nb0 2.970729 1_555
Al3 Ni0 2.419357 1_555
Al3 Ni0 2.514037 1_455
Al3 Nb0 2.900357 1_565
Al3 Nb3 2.900357 1_565
Al3 Nb2 2.902908 1_556
Al3 Nb1 2.902908 1_555
Al3 Nb3 2.971043 1_555
Al3 Nb0 2.971043 1_555
Ni1 Ni3 2.387766 1_555
Ni1 Ni2 2.408520 1_555
Ni1 Ni3 2.546427 1_565
Ni1 Ni2 2.618011 1_465
Ni2 Ni3 2.387598 1_555
Ni2 Ni3 2.545741 1_655
