# generated using pymatgen
data_Cr2(CN2)3
_symmetry_space_group_name_H-M   'P 1'
_cell_length_a   9.91780881
_cell_length_b   9.91780881
_cell_length_c   9.91780832
_cell_angle_alpha   32.36798152
_cell_angle_beta   32.36798152
_cell_angle_gamma   32.36797909
_symmetry_Int_Tables_number   1
_chemical_formula_structural   Cr2(CN2)3
_chemical_formula_sum   'Cr4 C6 N12'
_cell_volume   248.56387791
_cell_formula_units_Z   2
loop_
 _symmetry_equiv_pos_site_id
 _symmetry_equiv_pos_as_xyz
  1  'x, y, z'
loop_
 _atom_site_type_symbol
 _atom_site_label
 _atom_site_symmetry_multiplicity
 _atom_site_fract_x
 _atom_site_fract_y
 _atom_site_fract_z
 _atom_site_occupancy
  Cr  Cr0  1  0.33496100  0.33496100  0.33496100  1
  Cr  Cr1  1  0.83496100  0.83496100  0.83496100  1
  Cr  Cr2  1  0.66503900  0.66503900  0.66503900  1
  Cr  Cr3  1  0.16503900  0.16503900  0.16503900  1
  C  C0  1  0.93260300  0.56739700  0.25000000  1
  C  C1  1  0.25000000  0.93260300  0.56739700  1
  C  C2  1  0.56739700  0.25000000  0.93260300  1
  C  C3  1  0.75000000  0.06739700  0.43260300  1
  C  C4  1  0.43260300  0.75000000  0.06739700  1
  C  C5  1  0.06739700  0.43260300  0.75000000  1
  N  N0  1  0.84209000  0.07975900  0.45679600  1
  N  N1  1  0.45679600  0.84209000  0.07975900  1
  N  N2  1  0.07975900  0.45679600  0.84209000  1
  N  N3  1  0.95679600  0.57975900  0.34209000  1
  N  N4  1  0.34209000  0.95679600  0.57975900  1
  N  N5  1  0.57975900  0.34209000  0.95679600  1
  N  N6  1  0.15791000  0.92024100  0.54320400  1
  N  N7  1  0.54320400  0.15791000  0.92024100  1
  N  N8  1  0.92024100  0.54320400  0.15791000  1
  N  N9  1  0.04320400  0.42024100  0.65791000  1
  N  N10  1  0.65791000  0.04320400  0.42024100  1
  N  N11  1  0.42024100  0.65791000  0.04320400  1
loop_
_geom_bond_atom_site_label_1
_geom_bond_atom_site_label_2
_geom_bond_distance
_geom_bond_site_symmetry_2
Cr0 N9 2.032991 1_555
Cr0 N10 2.032991 1_555
Cr0 N11 2.032991 1_555
Cr0 N5 2.103849 1_554
Cr0 N3 2.103849 1_455
Cr0 N4 2.103849 1_545
Cr1 N8 2.032991 1_556
Cr1 N7 2.032991 1_565
Cr1 N6 2.032991 1_655
Cr1 N0 2.103849 1_565
Cr1 N2 2.103849 1_655
Cr1 N1 2.103849 1_556
Cr2 N3 2.032991 1_555
Cr2 N4 2.032991 1_555
Cr2 N5 2.032991 1_555
Cr2 N11 2.103849 1_556
Cr2 N9 2.103849 1_655
Cr2 N10 2.103849 1_565
Cr3 N2 2.032991 1_554
Cr3 N1 2.032991 1_545
Cr3 N0 2.032991 1_455
Cr3 N6 2.103849 1_545
Cr3 N8 2.103849 1_455
Cr3 N7 2.103849 1_554
C0 N8 1.231188 1_555
C0 N3 1.231188 1_555
C1 N6 1.231188 1_555
C1 N4 1.231188 1_555
C2 N5 1.231188 1_555
C2 N7 1.231188 1_555
C3 N0 1.231188 1_555
C3 N10 1.231188 1_555
C4 N11 1.231188 1_555
C4 N1 1.231188 1_555
C5 N2 1.231188 1_555
C5 N9 1.231188 1_555
