# generated using pymatgen
data_ReBW
_symmetry_space_group_name_H-M   'P 1'
_cell_length_a   4.56838708
_cell_length_b   4.58964792
_cell_length_c   4.58964792
_cell_angle_alpha   61.76658349
_cell_angle_beta   74.65124022
_cell_angle_gamma   105.34875978
_symmetry_Int_Tables_number   1
_chemical_formula_structural   ReBW
_chemical_formula_sum   'Re2 B2 W2'
_cell_volume   72.64090021
_cell_formula_units_Z   2
loop_
 _symmetry_equiv_pos_site_id
 _symmetry_equiv_pos_as_xyz
  1  'x, y, z'
loop_
 _atom_site_type_symbol
 _atom_site_label
 _atom_site_symmetry_multiplicity
 _atom_site_fract_x
 _atom_site_fract_y
 _atom_site_fract_z
 _atom_site_occupancy
  Re  Re0  1  0.50000000  0.32994400  0.82994400  1
  Re  Re1  1  0.50000000  0.67005600  0.17005600  1
  B  B0  1  0.00000000  0.25000000  0.75000000  1
  B  B1  1  0.00000000  0.75000000  0.25000000  1
  W  W0  1  0.16527800  0.83263900  0.66736100  1
  W  W1  1  0.83472200  0.16736100  0.33263900  1
loop_
_geom_bond_atom_site_label_1
_geom_bond_atom_site_label_2
_geom_bond_distance
_geom_bond_site_symmetry_2
Re0 Re1 2.671408 1_555
Re0 Re1 2.671408 1_546
Re0 Re1 2.679336 1_556
Re0 W0 2.910753 1_545
Re0 W1 2.910753 1_555
Re0 W1 2.928374 1_456
Re0 W0 2.928374 1_655
Re0 W1 3.010164 1_556
Re0 W0 3.010164 1_555
Re0 W0 3.010164 1_546
Re0 W1 3.010164 1_565
Re1 W1 2.910753 1_565
Re1 W0 2.910753 1_555
Re1 W1 2.928374 1_455
Re1 W0 2.928374 1_654
Re1 W0 3.010164 1_554
Re1 W1 3.010164 1_564
Re1 W1 3.010164 1_555
Re1 W0 3.010164 1_545
B0 Re1 2.369423 1_555
B0 Re1 2.369423 1_446
B0 Re0 2.369423 1_555
B0 Re0 2.369423 1_455
B0 W0 2.384265 1_555
B0 W1 2.384265 1_455
B0 W1 2.384265 1_456
B0 W0 2.384265 1_545
B1 Re1 2.369423 1_555
B1 Re0 2.369423 1_564
B1 Re0 2.369423 1_455
B1 Re1 2.369423 1_455
B1 W0 2.384265 1_555
B1 W1 2.384265 1_455
B1 W0 2.384265 1_554
B1 W1 2.384265 1_465
