# generated using pymatgen
data_Ba2Fe2O5
_symmetry_space_group_name_H-M   'P 1'
_cell_length_a   5.80725600
_cell_length_b   5.91597200
_cell_length_c   9.18571531
_cell_angle_alpha   108.78514288
_cell_angle_beta   108.42738635
_cell_angle_gamma   90.00000000
_symmetry_Int_Tables_number   1
_chemical_formula_structural   Ba2Fe2O5
_chemical_formula_sum   'Ba4 Fe4 O10'
_cell_volume   281.62475345
_cell_formula_units_Z   2
loop_
 _symmetry_equiv_pos_site_id
 _symmetry_equiv_pos_as_xyz
  1  'x, y, z'
loop_
 _atom_site_type_symbol
 _atom_site_label
 _atom_site_symmetry_multiplicity
 _atom_site_fract_x
 _atom_site_fract_y
 _atom_site_fract_z
 _atom_site_occupancy
  Ba  Ba0  1  0.38752300  0.87812600  0.77568300  1
  Ba  Ba1  1  0.61184000  0.12187400  0.22431700  1
  Ba  Ba2  1  0.88752300  0.39755800  0.77568400  1
  Ba  Ba3  1  0.11184000  0.60244200  0.22431600  1
  Fe  Fe0  1  0.99685400  0.00000000  0.00000000  1
  Fe  Fe1  1  0.49685400  0.50000000  0.00000000  1
  Fe  Fe2  1  0.77546400  0.81917800  0.50000000  1
  Fe  Fe3  1  0.27546400  0.18082200  0.50000000  1
  O  O0  1  0.75270900  0.75157400  0.00862500  1
  O  O1  1  0.74408300  0.24842600  0.99137500  1
  O  O2  1  0.25270900  0.75705100  0.00862600  1
  O  O3  1  0.24408300  0.24294900  0.99137400  1
  O  O4  1  0.84663700  0.82252800  0.71907600  1
  O  O5  1  0.12756100  0.17747200  0.28092400  1
  O  O6  1  0.34663700  0.39654900  0.71907700  1
  O  O7  1  0.62756100  0.60345100  0.28092300  1
  O  O8  1  0.09332900  0.90935500  0.50000100  1
  O  O9  1  0.59332900  0.09064500  0.50000000  1
loop_
_geom_bond_atom_site_label_1
_geom_bond_atom_site_label_2
_geom_bond_distance
_geom_bond_site_symmetry_2
Ba0 O8 2.632839 1_555
Ba0 O6 2.722388 1_555
Ba0 O3 2.750797 1_565
Ba0 O1 2.760998 1_565
Ba0 O2 2.784002 1_556
Ba0 O0 2.792741 1_556
Ba0 O4 2.872883 1_555
Ba0 O4 3.016973 1_455
Ba0 O6 3.268348 1_565
Ba1 O9 2.632846 1_555
Ba1 O7 2.722388 1_555
Ba1 O2 2.750797 1_545
Ba1 O0 2.761001 1_545
Ba1 O3 2.784002 1_554
Ba1 O1 2.792738 1_554
Ba1 O5 2.872883 1_655
Ba1 O5 3.016973 1_555
Ba1 O7 3.268348 1_545
Ba2 O9 2.632853 1_555
Ba2 O4 2.722391 1_555
Ba2 O1 2.750797 1_555
Ba2 O3 2.760991 1_655
Ba2 O0 2.783985 1_556
Ba2 O2 2.792738 1_656
Ba2 O6 2.872883 1_655
Ba2 O6 3.016973 1_555
Ba2 O4 3.268350 1_545
Ba3 O8 2.632862 1_555
Ba3 O5 2.722391 1_555
Ba3 O0 2.750797 1_455
Ba3 O2 2.760988 1_555
Ba3 O1 2.783991 1_454
Ba3 O3 2.792735 1_554
Ba3 O7 2.872883 1_555
Ba3 O7 3.016973 1_455
Ba3 O5 3.268350 1_565
Fe0 O2 2.068481 1_645
Fe0 O3 2.068481 1_654
Fe0 O0 2.079047 1_545
Fe0 O1 2.079051 1_554
Fe0 O5 2.313913 1_655
Fe0 O4 2.313913 1_544
Fe1 O1 2.068477 1_554
Fe1 O0 2.068481 1_555
Fe1 O2 2.079048 1_555
Fe1 O3 2.079048 1_554
Fe1 O7 2.313905 1_555
Fe1 O6 2.313905 1_554
Fe2 O4 1.915551 1_555
Fe2 O7 1.915559 1_555
Fe2 O8 1.921464 1_655
Fe2 O9 1.923005 1_565
Fe3 O5 1.915551 1_555
Fe3 O6 1.915560 1_555
Fe3 O9 1.921468 1_555
Fe3 O8 1.923009 1_545
