# generated using pymatgen
data_ZnH7C3NO6
_symmetry_space_group_name_H-M   'P 1'
_cell_length_a   12.52217329
_cell_length_b   12.52217707
_cell_length_c   8.26792435
_cell_angle_alpha   89.99994748
_cell_angle_beta   90.00008254
_cell_angle_gamma   120.00005309
_symmetry_Int_Tables_number   1
_chemical_formula_structural   ZnH7C3NO6
_chemical_formula_sum   'Zn6 H42 C18 N6 O36'
_cell_volume   1122.75873838
_cell_formula_units_Z   6
loop_
 _symmetry_equiv_pos_site_id
 _symmetry_equiv_pos_as_xyz
  1  'x, y, z'
loop_
 _atom_site_type_symbol
 _atom_site_label
 _atom_site_symmetry_multiplicity
 _atom_site_fract_x
 _atom_site_fract_y
 _atom_site_fract_z
 _atom_site_occupancy
  Zn  Zn0  1  0.33555978  0.33125811  0.58721552  1
  Zn  Zn1  1  0.00430166  0.33555978  0.08721655  1
  Zn  Zn2  1  0.66874088  0.00430166  0.58721654  1
  Zn  Zn3  1  0.66443923  0.66874189  0.08721555  1
  Zn  Zn4  1  0.99569836  0.66444025  0.58721654  1
  Zn  Zn5  1  0.33125811  0.99569836  0.08721555  1
  H  H0  1  0.27217109  0.14442186  0.31605181  1
  H  H1  1  0.12774922  0.27217109  0.81605279  1
  H  H2  1  0.85557813  0.12775022  0.31605181  1
  H  H3  1  0.72782789  0.85557813  0.81605178  1
  H  H4  1  0.87224977  0.72782891  0.31605282  1
  H  H5  1  0.14442086  0.87224977  0.81605279  1
  H  H6  1  0.50602937  0.44984234  0.29722230  1
  H  H7  1  0.05618602  0.50602937  0.79722129  1
  H  H8  1  0.55015664  0.05618702  0.29722230  1
  H  H9  1  0.49396965  0.55015766  0.79722230  1
  H  H10  1  0.94381298  0.49397063  0.29722129  1
  H  H11  1  0.44984234  0.94381298  0.79722230  1
  H  H12  1  0.17684653  0.39133978  0.37373866  1
  H  H13  1  0.78550674  0.17684653  0.87373765  1
  H  H14  1  0.60865921  0.78550674  0.37373768  1
  H  H15  1  0.82315348  0.60865921  0.87373866  1
  H  H16  1  0.21449325  0.82315348  0.37373768  1
  H  H17  1  0.39133978  0.21449325  0.87373765  1
  H  H18  1  0.57776371  0.30661897  0.49838570  1
  H  H19  1  0.27114477  0.57776371  0.99838469  1
  H  H20  1  0.69338106  0.27114477  0.49838469  1
  H  H21  1  0.42223629  0.69338106  0.99838570  1
  H  H22  1  0.72885523  0.42223629  0.49838469  1
  H  H23  1  0.30661897  0.72885523  0.99838570  1
  H  H24  1  0.33333299  0.66666699  0.16045862  1
  H  H25  1  0.66666597  0.33333299  0.66045862  1
  H  H26  1  0.35855669  0.60321008  0.49802647  1
  H  H27  1  0.75534760  0.35855768  0.99802647  1
  H  H28  1  0.39678891  0.75534557  0.49802748  1
  H  H29  1  0.64144429  0.39678790  0.99802849  1
  H  H30  1  0.24465741  0.64144334  0.49802846  1
  H  H31  1  0.60321210  0.24465541  0.99802748  1
  H  H32  1  0.33333299  0.66666699  0.66023998  1
  H  H33  1  0.66666597  0.33333299  0.16023998  1
  H  H34  1  0.02704033  0.08907469  0.17637865  1
  H  H35  1  0.93796564  0.02704033  0.67637862  1
  H  H36  1  0.91092430  0.93796564  0.17637965  1
  H  H37  1  0.97295866  0.91092532  0.67637862  1
  H  H38  1  0.06203235  0.97296069  0.17637765  1
  H  H39  1  0.08907269  0.06203235  0.67637862  1
  H  H40  1  0.99999899  1.00000000  0.01435114  1
  H  H41  1  0.00000000  1.00000000  0.51435111  1
  C  C0  1  0.37226789  0.18493575  0.32900717  1
  C  C1  1  0.18733314  0.37226789  0.82900714  1
  C  C2  1  0.81506424  0.18733314  0.32900717  1
  C  C3  1  0.62773113  0.81506424  0.82900714  1
  C  C4  1  0.81266689  0.62773208  0.32900717  1
  C  C5  1  0.18493475  0.81266689  0.82900714  1
  C  C6  1  0.47152671  0.51345359  0.32108315  1
  C  C7  1  0.95807318  0.47152671  0.82108315  1
  C  C8  1  0.48654644  0.95807413  0.32108315  1
  C  C9  1  0.52847329  0.48654644  0.82108417  1
  C  C10  1  0.04192685  0.52847430  0.32108417  1
  C  C11  1  0.51345258  0.04192685  0.82108417  1
  C  C12  1  0.14186940  0.29269934  0.35333582  1
  C  C13  1  0.84917003  0.14186940  0.85333484  1
  C  C14  1  0.70729968  0.84917105  0.35333484  1
  C  C15  1  0.85812959  0.70730063  0.85333484  1
  C  C16  1  0.15082894  0.85813060  0.35333484  1
  C  C17  1  0.29269934  0.15082994  0.85333484  1
  N  N0  1  0.33333299  0.66666698  0.03755993  1
  N  N1  1  0.66666502  0.33333299  0.53755992  1
  N  N2  1  0.33332801  0.66666502  0.53723729  1
  N  N3  1  0.66666299  0.33333400  0.03723730  1
  N  N4  1  0.00000300  0.00000000  0.13729459  1
  N  N5  1  0.00000200  0.00000200  0.63729462  1
  O  O0  1  0.42424719  0.26194564  0.44272913  1
  O  O1  1  0.16230254  0.42424817  0.94272916  1
  O  O2  1  0.73805436  0.16230254  0.44272913  1
  O  O3  1  0.57575180  0.73805436  0.94272916  1
  O  O4  1  0.83769744  0.57575180  0.44272913  1
  O  O5  1  0.26194463  0.83769744  0.94272916  1
  O  O6  1  0.42904236  0.15356683  0.23191664  1
  O  O7  1  0.27547554  0.42904236  0.73191663  1
  O  O8  1  0.84643315  0.27547554  0.23191664  1
  O  O9  1  0.57095761  0.84643315  0.73191663  1
  O  O10  1  0.72452446  0.57095761  0.23191664  1
  O  O11  1  0.15356683  0.72452446  0.73191663  1
  O  O12  1  0.40066156  0.49062625  0.44178374  1
  O  O13  1  0.91003534  0.40066156  0.94178475  1
  O  O14  1  0.50937276  0.91003432  0.44178475  1
  O  O15  1  0.59933844  0.50937372  0.94178374  1
  O  O16  1  0.08996468  0.59933844  0.44178374  1
  O  O17  1  0.49062524  0.08996468  0.94178475  1
  O  O18  1  0.50461253  0.60473612  0.22904001  1
  O  O19  1  0.89987641  0.50461253  0.72903903  1
  O  O20  1  0.39526286  0.89987641  0.22903901  1
  O  O21  1  0.49538645  0.39526388  0.72903903  1
  O  O22  1  0.10012357  0.49538744  0.22904001  1
  O  O23  1  0.60473612  0.10012357  0.72903998  1
  O  O24  1  0.17423897  0.23525979  0.44789515  1
  O  O25  1  0.93897916  0.17423897  0.94789512  1
  O  O26  1  0.76474022  0.93898018  0.44789414  1
  O  O27  1  0.82576004  0.76474022  0.94789512  1
  O  O28  1  0.06101983  0.82576100  0.44789515  1
  O  O29  1  0.23525880  0.06101983  0.94789512  1
  O  O30  1  0.07048749  0.24329472  0.23358654  1
  O  O31  1  0.82719275  0.07048749  0.73358654  1
  O  O32  1  0.75670429  0.82719275  0.23358554  1
  O  O33  1  0.92951249  0.75670525  0.73358654  1
  O  O34  1  0.17280723  0.92951249  0.23358654  1
  O  O35  1  0.24329472  0.17280723  0.73358654  1
loop_
_geom_bond_atom_site_label_1
_geom_bond_atom_site_label_2
_geom_bond_distance
_geom_bond_site_symmetry_2
H18 N1 1.041012 1_555
H19 N0 1.041034 1_556
H20 N1 1.041044 1_555
H21 N0 1.041035 1_556
H22 N1 1.041040 1_555
H23 N0 1.041023 1_556
H24 N0 1.016117 1_555
H25 N1 1.016117 1_555
H26 N2 1.042743 1_555
H27 N3 1.042768 1_556
H28 N2 1.042730 1_555
H29 N3 1.042639 1_556
H30 N2 1.042607 1_555
H31 N3 1.042684 1_556
H32 N2 1.016977 1_555
H33 N3 1.016977 1_555
H34 N4 1.041896 1_555
H35 N5 1.041893 1_655
H36 N4 1.041925 1_665
H37 N5 1.041902 1_665
H38 N4 1.041819 1_565
H39 N5 1.041841 1_555
H40 N4 1.016487 1_665
H41 N5 1.016488 1_565
C0 H0 1.097288 1_555
C0 O6 1.258326 1_555
C0 O0 1.268850 1_555
C1 H1 1.097289 1_555
C1 O7 1.258318 1_555
C1 O1 1.268859 1_555
C2 H2 1.097289 1_555
C2 O8 1.258316 1_555
C2 O2 1.268850 1_555
C3 H3 1.097288 1_555
C3 O9 1.258316 1_555
C3 O3 1.268850 1_555
C4 H4 1.097288 1_555
C4 O10 1.258317 1_555
C4 O4 1.268857 1_555
C5 H5 1.097288 1_555
C5 O11 1.258318 1_555
C5 O5 1.268849 1_555
C6 H6 1.097374 1_555
C6 O18 1.258483 1_555
C6 O12 1.269408 1_555
C7 H7 1.097362 1_655
C7 O19 1.258488 1_555
C7 O13 1.269414 1_555
C8 H8 1.097361 1_565
C8 O20 1.258497 1_555
C8 O14 1.269423 1_555
C9 H9 1.097384 1_555
C9 O21 1.258492 1_555
C9 O15 1.269400 1_555
C10 H10 1.097373 1_455
C10 O22 1.258498 1_555
C10 O16 1.269395 1_555
C11 H11 1.097371 1_545
C11 O23 1.258497 1_555
C11 O17 1.269409 1_555
C12 H12 1.097721 1_555
C12 O24 1.258736 1_555
C12 O30 1.268454 1_555
C13 H13 1.097721 1_555
C13 O25 1.258740 1_555
C13 O31 1.268449 1_555
C14 H14 1.097722 1_555
C14 O26 1.258737 1_555
C14 O32 1.268462 1_555
C15 H15 1.097735 1_555
C15 O27 1.258742 1_555
C15 O33 1.268455 1_555
C16 H16 1.097732 1_555
C16 O28 1.258742 1_555
C16 O34 1.268447 1_555
C17 H17 1.097720 1_555
C17 O29 1.258750 1_555
C17 O35 1.268448 1_555
O0 Zn0 2.092284 1_555
O1 Zn1 2.092296 1_556
O2 Zn2 2.092295 1_555
O3 Zn3 2.092281 1_556
O4 Zn4 2.092294 1_555
O5 Zn5 2.092291 1_556
O6 Zn5 2.101905 1_545
O7 Zn0 2.101908 1_555
O8 Zn1 2.101902 1_655
O9 Zn2 2.101899 1_565
O10 Zn3 2.101913 1_555
O11 Zn4 2.101899 1_455
O12 Zn0 2.113309 1_555
O13 Zn1 2.113308 1_656
O14 Zn2 2.113308 1_565
O15 Zn3 2.113311 1_556
O16 Zn4 2.113316 1_455
O17 Zn5 2.113296 1_546
O18 Zn3 2.102093 1_555
O19 Zn4 2.102092 1_555
O20 Zn5 2.102088 1_555
O21 Zn0 2.102085 1_555
O22 Zn1 2.102096 1_555
O23 Zn2 2.102090 1_555
O24 Zn0 2.103401 1_555
O25 Zn1 2.103408 1_656
O26 Zn2 2.103415 1_565
O27 Zn3 2.103403 1_556
O28 Zn4 2.103408 1_455
O29 Zn5 2.103403 1_546
O30 Zn1 2.108038 1_555
O31 Zn2 2.108046 1_555
O32 Zn3 2.108038 1_555
O33 Zn4 2.108040 1_555
O34 Zn5 2.108043 1_555
O35 Zn0 2.108042 1_555
