# generated using pymatgen
data_Li4Mn3O7
_symmetry_space_group_name_H-M   'P 1'
_cell_length_a   3.00385800
_cell_length_b   6.06478742
_cell_length_c   14.50089774
_cell_angle_alpha   83.41520116
_cell_angle_beta   84.53138753
_cell_angle_gamma   85.59483217
_symmetry_Int_Tables_number   1
_chemical_formula_structural   Li4Mn3O7
_chemical_formula_sum   'Li8 Mn6 O14'
_cell_volume   260.65636150
_cell_formula_units_Z   2
loop_
 _symmetry_equiv_pos_site_id
 _symmetry_equiv_pos_as_xyz
  1  'x, y, z'
loop_
 _atom_site_type_symbol
 _atom_site_label
 _atom_site_symmetry_multiplicity
 _atom_site_fract_x
 _atom_site_fract_y
 _atom_site_fract_z
 _atom_site_occupancy
  Li  Li0  1  0.93772000  0.20954200  0.63133200  1
  Li  Li1  1  0.50000000  0.50000000  0.50000000  1
  Li  Li2  1  0.06228000  0.79045800  0.36866800  1
  Li  Li3  1  0.35379800  0.92498900  0.78483400  1
  Li  Li4  1  0.78653400  0.64313000  0.92862400  1
  Li  Li5  1  0.21346600  0.35687000  0.07137600  1
  Li  Li6  1  0.64620200  0.07501100  0.21516600  1
  Li  Li7  1  0.50000000  0.00000000  0.50000000  1
  Mn  Mn0  1  0.93739900  0.72402600  0.63609000  1
  Mn  Mn1  1  0.06260100  0.27597400  0.36391000  1
  Mn  Mn2  1  0.63236600  0.56541500  0.21544000  1
  Mn  Mn3  1  0.21304500  0.85653700  0.07253400  1
  Mn  Mn4  1  0.78695500  0.14346300  0.92746600  1
  Mn  Mn5  1  0.36763400  0.43458500  0.78456000  1
  O  O0  1  0.45695100  0.49483800  0.64632700  1
  O  O1  1  0.99106600  0.74494900  0.50944800  1
  O  O2  1  0.59410700  0.06951400  0.35773100  1
  O  O3  1  0.82493600  0.18747100  0.78904200  1
  O  O4  1  0.24886500  0.89764200  0.93447500  1
  O  O5  1  0.67686200  0.61212700  0.07774900  1
  O  O6  1  0.10127800  0.32769700  0.22226300  1
  O  O7  1  0.40589300  0.93048600  0.64226900  1
  O  O8  1  0.00893400  0.25505100  0.49055200  1
  O  O9  1  0.54304900  0.50516200  0.35367300  1
  O  O10  1  0.89872200  0.67230300  0.77773700  1
  O  O11  1  0.32313800  0.38787300  0.92225100  1
  O  O12  1  0.75113500  0.10235800  0.06552500  1
  O  O13  1  0.17506400  0.81252900  0.21095800  1
loop_
_geom_bond_atom_site_label_1
_geom_bond_atom_site_label_2
_geom_bond_distance
_geom_bond_site_symmetry_2
Li0 O8 2.021388 1_655
Li0 O7 2.117192 1_645
Li0 O0 2.183864 1_555
Li0 O3 2.269770 1_555
Li0 O7 2.397294 1_545
Li0 O0 2.457483 1_655
Li1 O1 2.054428 1_455
Li1 O8 2.054428 1_655
Li1 O0 2.110245 1_555
Li1 O9 2.110245 1_555
Li1 O1 2.196223 1_555
Li1 O8 2.196223 1_555
Li2 O1 2.021388 1_455
Li2 O2 2.117192 1_465
Li2 O9 2.183864 1_555
Li2 O13 2.269770 1_555
Li2 O2 2.397294 1_565
Li2 O9 2.457483 1_455
Li3 O7 2.054932 1_555
Li3 O10 2.147684 1_455
Li3 O4 2.151878 1_555
Li3 O10 2.158050 1_555
Li3 O3 2.162616 1_465
Li3 O3 2.219362 1_565
Li4 O5 2.144887 1_556
Li4 O4 2.149237 1_555
Li4 O11 2.150430 1_655
Li4 O4 2.168013 1_655
Li4 O10 2.170723 1_555
Li4 O11 2.175097 1_555
Li5 O11 2.144887 1_554
Li5 O12 2.149237 1_555
Li5 O5 2.150430 1_455
Li5 O12 2.168013 1_455
Li5 O6 2.170723 1_555
Li5 O5 2.175097 1_555
Li6 O2 2.054932 1_555
Li6 O6 2.147684 1_655
Li6 O12 2.151878 1_555
Li6 O6 2.158050 1_555
Li6 O13 2.162616 1_645
Li6 O13 2.219362 1_545
Li7 O7 2.054607 1_545
Li7 O2 2.054607 1_555
Li7 O8 2.055907 1_555
Li7 O1 2.055907 1_545
Li7 O8 2.241276 1_655
Li7 O1 2.241276 1_445
Mn0 O1 1.818738 1_555
Mn0 O7 1.953527 1_555
Mn0 O7 1.968958 1_655
Mn0 O0 2.013287 1_655
Mn0 O10 2.035483 1_555
Mn0 O0 2.063224 1_555
Mn1 O8 1.818738 1_555
Mn1 O2 1.953527 1_555
Mn1 O2 1.968958 1_455
Mn1 O9 2.013287 1_455
Mn1 O6 2.035483 1_555
Mn1 O9 2.063224 1_555
Mn2 O6 1.937578 1_655
Mn2 O13 1.953382 1_555
Mn2 O5 1.977354 1_555
Mn2 O9 1.992011 1_555
Mn2 O6 2.218976 1_555
Mn2 O13 2.289235 1_655
Mn3 O5 1.954778 1_555
Mn3 O12 1.957681 1_465
Mn3 O4 1.982485 1_554
Mn3 O13 1.987851 1_555
Mn3 O5 2.261599 1_455
Mn3 O12 2.269286 1_565
Mn4 O11 1.954778 1_555
Mn4 O4 1.957681 1_645
Mn4 O12 1.982485 1_556
Mn4 O3 1.987851 1_555
Mn4 O11 2.261599 1_655
Mn4 O4 2.269286 1_545
Mn5 O10 1.937578 1_455
Mn5 O3 1.953382 1_555
Mn5 O11 1.977354 1_555
Mn5 O0 1.992011 1_555
Mn5 O10 2.218976 1_555
Mn5 O3 2.289235 1_455
