# generated using pymatgen
data_Sr4BiO7
_symmetry_space_group_name_H-M   'P 1'
_cell_length_a   6.18823000
_cell_length_b   7.04865491
_cell_length_c   9.42220304
_cell_angle_alpha   101.26021346
_cell_angle_beta   90.00000000
_cell_angle_gamma   90.00000000
_symmetry_Int_Tables_number   1
_chemical_formula_structural   Sr4BiO7
_chemical_formula_sum   'Sr8 Bi2 O14'
_cell_volume   403.07298122
_cell_formula_units_Z   2
loop_
 _symmetry_equiv_pos_site_id
 _symmetry_equiv_pos_as_xyz
  1  'x, y, z'
loop_
 _atom_site_type_symbol
 _atom_site_label
 _atom_site_symmetry_multiplicity
 _atom_site_fract_x
 _atom_site_fract_y
 _atom_site_fract_z
 _atom_site_occupancy
  Sr  Sr0  1  0.16771700  0.61134700  0.07477200  1
  Sr  Sr1  1  0.66771700  0.38865300  0.92522800  1
  Sr  Sr2  1  0.63970000  0.01068100  0.12590400  1
  Sr  Sr3  1  0.13970000  0.98931900  0.87409600  1
  Sr  Sr4  1  0.16669400  0.90912100  0.44072400  1
  Sr  Sr5  1  0.66669400  0.09087900  0.55927600  1
  Sr  Sr6  1  0.17368200  0.49166400  0.61128100  1
  Sr  Sr7  1  0.67368200  0.50833600  0.38871900  1
  Bi  Bi0  1  0.15839300  0.25556900  0.24566000  1
  Bi  Bi1  1  0.65839300  0.74443100  0.75434000  1
  O  O0  1  0.41369100  0.31610000  0.10538000  1
  O  O1  1  0.91369100  0.68390000  0.89462000  1
  O  O2  1  0.93723500  0.28741400  0.07897400  1
  O  O3  1  0.43723500  0.71258600  0.92102600  1
  O  O4  1  0.89215600  0.18699400  0.37301300  1
  O  O5  1  0.39215600  0.81300600  0.62698700  1
  O  O6  1  0.37864200  0.23794700  0.41658300  1
  O  O7  1  0.87864200  0.76205300  0.58341700  1
  O  O8  1  0.12063700  0.55770500  0.33778400  1
  O  O9  1  0.62063700  0.44229500  0.66221600  1
  O  O10  1  0.19811800  0.95555100  0.16199300  1
  O  O11  1  0.69811800  0.04444900  0.83800700  1
  O  O12  1  0.10760500  0.18316300  0.68744700  1
  O  O13  1  0.60760500  0.81683700  0.31255300  1
loop_
_geom_bond_atom_site_label_1
_geom_bond_atom_site_label_2
_geom_bond_distance
_geom_bond_site_symmetry_2
Bi0 O10 2.122003 1_545
Bi0 O2 2.127836 1_455
Bi0 O6 2.131855 1_555
Bi0 O4 2.148114 1_455
Bi0 O8 2.149775 1_555
Bi0 O0 2.155271 1_555
Bi1 O11 2.122003 1_565
Bi1 O3 2.127836 1_555
Bi1 O7 2.131855 1_555
Bi1 O5 2.148114 1_555
Bi1 O9 2.149775 1_555
Bi1 O1 2.155271 1_555
O0 Sr1 2.439856 1_554
O0 Sr2 2.605871 1_555
O0 Sr0 2.639211 1_555
O0 Sr7 3.184181 1_555
O1 Sr0 2.439856 1_656
O1 Sr3 2.605871 1_655
O1 Sr1 2.639211 1_555
O1 Sr6 3.184181 1_655
O2 Sr1 2.406893 1_554
O2 Sr0 2.698992 1_655
O2 Sr2 2.779795 1_555
O2 Sr3 2.850805 1_644
O3 Sr0 2.406893 1_556
O3 Sr1 2.698992 1_555
O3 Sr3 2.779795 1_555
O3 Sr2 2.850805 1_566
O4 Sr5 2.439258 1_555
O4 Sr7 2.617092 1_555
O4 Sr4 2.759989 1_645
O4 Sr2 2.876827 1_555
O5 Sr4 2.439258 1_555
O5 Sr6 2.617092 1_555
O5 Sr5 2.759989 1_565
O5 Sr3 2.876827 1_555
O6 Sr5 2.569816 1_555
O6 Sr6 2.625079 1_555
O6 Sr7 2.688897 1_555
O6 Sr4 2.711086 1_545
O7 Sr4 2.569816 1_655
O7 Sr7 2.625079 1_555
O7 Sr6 2.688897 1_655
O7 Sr5 2.711086 1_565
O8 Sr4 2.493854 1_555
O8 Sr0 2.595190 1_555
O8 Sr6 2.726454 1_555
O8 Sr7 2.840180 1_455
O9 Sr5 2.493854 1_555
O9 Sr1 2.595190 1_555
O9 Sr7 2.726454 1_555
O9 Sr6 2.840180 1_555
O10 Sr0 2.412143 1_555
O10 Sr4 2.716214 1_555
O10 Sr2 2.790232 1_565
O10 Sr3 2.792457 1_554
O11 Sr1 2.412143 1_555
O11 Sr5 2.716214 1_555
O11 Sr3 2.790232 1_645
O11 Sr2 2.792457 1_556
O12 Sr3 2.436713 1_545
O12 Sr6 2.453607 1_555
O12 Sr4 2.741416 1_545
O12 Sr5 3.003207 1_455
O13 Sr2 2.436713 1_565
O13 Sr7 2.453607 1_555
O13 Sr5 2.741416 1_565
O13 Sr4 3.003207 1_555
