# generated using pymatgen
data_ZnHgC4(SeN)4
_symmetry_space_group_name_H-M   'P 1'
_cell_length_a   4.92153700
_cell_length_b   8.49950188
_cell_length_c   8.49950188
_cell_angle_alpha   85.19174764
_cell_angle_beta   73.17082647
_cell_angle_gamma   73.17082647
_symmetry_Int_Tables_number   1
_chemical_formula_structural   ZnHgC4(SeN)4
_chemical_formula_sum   'Zn1 Hg1 C4 Se4 N4'
_cell_volume   325.73757691
_cell_formula_units_Z   1
loop_
 _symmetry_equiv_pos_site_id
 _symmetry_equiv_pos_as_xyz
  1  'x, y, z'
loop_
 _atom_site_type_symbol
 _atom_site_label
 _atom_site_symmetry_multiplicity
 _atom_site_fract_x
 _atom_site_fract_y
 _atom_site_fract_z
 _atom_site_occupancy
  Zn  Zn0  1  0.75000000  0.50000000  0.50000000  1
  Hg  Hg0  1  0.00000000  0.00000000  0.00000000  1
  C  C0  1  0.61077100  0.35690700  0.21061000  1
  C  C1  1  0.17828800  0.64309300  0.78939000  1
  C  C2  1  0.03232100  0.78939000  0.35690700  1
  C  C3  1  0.17861900  0.21061000  0.64309300  1
  Se  Se0  1  0.53896900  0.27553900  0.04135300  1
  Se  Se1  1  0.85586100  0.72446100  0.95864700  1
  Se  Se2  1  0.18549200  0.95864700  0.27553900  1
  Se  Se3  1  0.41967800  0.04135300  0.72446100  1
  N  N0  1  0.65231200  0.41273600  0.32074800  1
  N  N1  1  0.38579600  0.58726400  0.67925200  1
  N  N2  1  0.93495200  0.67925200  0.41273600  1
  N  N3  1  0.02694000  0.32074800  0.58726400  1
loop_
_geom_bond_atom_site_label_1
_geom_bond_atom_site_label_2
_geom_bond_distance
_geom_bond_site_symmetry_2
Hg0 Se0 2.712161 1_455
Hg0 Se3 2.712161 1_554
Hg0 Se2 2.712161 1_545
Hg0 Se1 2.712161 1_444
C0 N0 1.176752 1_555
C0 Se0 1.809808 1_555
C1 N1 1.176752 1_555
C1 Se1 1.809808 1_455
C2 N2 1.176749 1_455
C2 Se2 1.809811 1_555
C3 N3 1.176752 1_555
C3 Se3 1.809808 1_555
N0 Zn0 1.980539 1_555
N1 Zn0 1.980539 1_555
N2 Zn0 1.980539 1_555
N3 Zn0 1.980539 1_455
