# generated using pymatgen
data_Si(H3C)4
_symmetry_space_group_name_H-M   'P 1'
_cell_length_a   6.86564500
_cell_length_b   8.86151400
_cell_length_c   14.21870500
_cell_angle_alpha   90.00000000
_cell_angle_beta   90.00000000
_cell_angle_gamma   90.00000000
_symmetry_Int_Tables_number   1
_chemical_formula_structural   Si(H3C)4
_chemical_formula_sum   'Si4 H48 C16'
_cell_volume   865.06614424
_cell_formula_units_Z   4
loop_
 _symmetry_equiv_pos_site_id
 _symmetry_equiv_pos_as_xyz
  1  'x, y, z'
loop_
 _atom_site_type_symbol
 _atom_site_label
 _atom_site_symmetry_multiplicity
 _atom_site_fract_x
 _atom_site_fract_y
 _atom_site_fract_z
 _atom_site_occupancy
  Si  Si0  1  0.35557700  0.75000000  0.34502900  1
  Si  Si1  1  0.14442300  0.75000000  0.84502900  1
  Si  Si2  1  0.64442300  0.25000000  0.65497100  1
  Si  Si3  1  0.85557700  0.25000000  0.15497100  1
  H  H0  1  0.10076200  0.92763000  0.40562500  1
  H  H1  1  0.39923800  0.57237000  0.90562500  1
  H  H2  1  0.89923800  0.42763000  0.59437500  1
  H  H3  1  0.60076200  0.07237000  0.09437500  1
  H  H4  1  0.89923800  0.07237000  0.59437500  1
  H  H5  1  0.60076200  0.42763000  0.09437500  1
  H  H6  1  0.10076200  0.57237000  0.40562500  1
  H  H7  1  0.39923800  0.92763000  0.90562500  1
  H  H8  1  0.31473000  0.02727900  0.37208300  1
  H  H9  1  0.18527000  0.47272100  0.87208300  1
  H  H10  1  0.68527000  0.52727900  0.62791700  1
  H  H11  1  0.81473000  0.97272100  0.12791700  1
  H  H12  1  0.68527000  0.97272100  0.62791700  1
  H  H13  1  0.81473000  0.52727900  0.12791700  1
  H  H14  1  0.31473000  0.47272100  0.37208300  1
  H  H15  1  0.18527000  0.02727900  0.87208300  1
  H  H16  1  0.30855500  0.92689100  0.48027000  1
  H  H17  1  0.19144500  0.57310900  0.98027000  1
  H  H18  1  0.69144500  0.42689100  0.51973000  1
  H  H19  1  0.80855500  0.07310900  0.01973000  1
  H  H20  1  0.69144500  0.07310900  0.51973000  1
  H  H21  1  0.80855500  0.42689100  0.01973000  1
  H  H22  1  0.30855500  0.57310900  0.48027000  1
  H  H23  1  0.19144500  0.92689100  0.98027000  1
  H  H24  1  0.11190500  0.75000000  0.21364200  1
  H  H25  1  0.38809500  0.75000000  0.71364200  1
  H  H26  1  0.88809500  0.25000000  0.78635800  1
  H  H27  1  0.61190500  0.25000000  0.28635800  1
  H  H28  1  0.32626700  0.64982700  0.18098600  1
  H  H29  1  0.17373300  0.85017300  0.68098600  1
  H  H30  1  0.67373300  0.14982700  0.81901400  1
  H  H31  1  0.82626700  0.35017300  0.31901400  1
  H  H32  1  0.67373300  0.35017300  0.81901400  1
  H  H33  1  0.82626700  0.14982700  0.31901400  1
  H  H34  1  0.32626700  0.85017300  0.18098600  1
  H  H35  1  0.17373300  0.64982700  0.68098600  1
  H  H36  1  0.68461600  0.75000000  0.42119600  1
  H  H37  1  0.81538400  0.75000000  0.92119600  1
  H  H38  1  0.31538400  0.25000000  0.57880400  1
  H  H39  1  0.18461600  0.25000000  0.07880400  1
  H  H40  1  0.68990300  0.85035800  0.31281400  1
  H  H41  1  0.81009700  0.64964200  0.81281400  1
  H  H42  1  0.31009700  0.35035800  0.68718600  1
  H  H43  1  0.18990300  0.14964200  0.18718600  1
  H  H44  1  0.31009700  0.14964200  0.68718600  1
  H  H45  1  0.18990300  0.35035800  0.18718600  1
  H  H46  1  0.68990300  0.64964200  0.31281400  1
  H  H47  1  0.81009700  0.85035800  0.81281400  1
  C  C0  1  0.26103100  0.92406200  0.40644800  1
  C  C1  1  0.23896900  0.57593800  0.90644800  1
  C  C2  1  0.73896900  0.42406200  0.59355200  1
  C  C3  1  0.76103100  0.07593800  0.09355200  1
  C  C4  1  0.73896900  0.07593800  0.59355200  1
  C  C5  1  0.76103100  0.42406200  0.09355200  1
  C  C6  1  0.26103100  0.57593800  0.40644800  1
  C  C7  1  0.23896900  0.92406200  0.90644800  1
  C  C8  1  0.27202700  0.75000000  0.21844000  1
  C  C9  1  0.22797300  0.75000000  0.71844000  1
  C  C10  1  0.72797300  0.25000000  0.78156000  1
  C  C11  1  0.77202700  0.25000000  0.28156000  1
  C  C12  1  0.63072200  0.75000000  0.34833100  1
  C  C13  1  0.86927800  0.75000000  0.84833100  1
  C  C14  1  0.36927800  0.25000000  0.65166900  1
  C  C15  1  0.13072200  0.25000000  0.15166900  1
loop_
_geom_bond_atom_site_label_1
_geom_bond_atom_site_label_2
_geom_bond_distance
_geom_bond_site_symmetry_2
C0 H16 1.099482 1_555
C0 H8 1.100582 1_565
C0 H0 1.100866 1_555
C0 Si0 1.887635 1_555
C1 H17 1.099482 1_555
C1 H9 1.100582 1_555
C1 H1 1.100866 1_555
C1 Si1 1.887635 1_555
C2 H18 1.099482 1_555
C2 H10 1.100582 1_555
C2 H2 1.100866 1_555
C2 Si2 1.887635 1_555
C3 H19 1.099482 1_555
C3 H11 1.100582 1_545
C3 H3 1.100866 1_555
C3 Si3 1.887635 1_555
C4 H20 1.099482 1_555
C4 H12 1.100582 1_545
C4 H4 1.100866 1_555
C4 Si2 1.887635 1_555
C5 H21 1.099482 1_555
C5 H13 1.100582 1_555
C5 H5 1.100866 1_555
C5 Si3 1.887635 1_555
C6 H22 1.099482 1_555
C6 H14 1.100582 1_555
C6 H6 1.100866 1_555
C6 Si0 1.887635 1_555
C7 H23 1.099482 1_555
C7 H15 1.100582 1_565
C7 H7 1.100866 1_555
C7 Si1 1.887635 1_555
C8 H34 1.100121 1_555
C8 H28 1.100121 1_555
C8 H24 1.101456 1_555
C8 Si0 1.889127 1_555
C9 H29 1.100121 1_555
C9 H35 1.100121 1_555
C9 H25 1.101456 1_555
C9 Si1 1.889127 1_555
C10 H32 1.100121 1_555
C10 H30 1.100121 1_555
C10 H26 1.101456 1_555
C10 Si2 1.889127 1_555
C11 H31 1.100121 1_555
C11 H33 1.100121 1_555
C11 H27 1.101456 1_555
C11 Si3 1.889127 1_555
C12 H36 1.100138 1_555
C12 H40 1.100464 1_555
C12 H46 1.100464 1_555
C12 Si0 1.889631 1_555
C13 H37 1.100138 1_555
C13 H47 1.100464 1_555
C13 H41 1.100464 1_555
C13 Si1 1.889631 1_655
C14 H38 1.100138 1_555
C14 H42 1.100464 1_555
C14 H44 1.100464 1_555
C14 Si2 1.889631 1_555
C15 H39 1.100138 1_555
C15 H43 1.100464 1_555
C15 H45 1.100464 1_555
C15 Si3 1.889631 1_455
