# generated using pymatgen
data_Li2CoNi3O8
_symmetry_space_group_name_H-M   'P 1'
_cell_length_a   5.62627300
_cell_length_b   5.69161376
_cell_length_c   5.87208336
_cell_angle_alpha   61.09426030
_cell_angle_beta   61.37356354
_cell_angle_gamma   61.52003677
_symmetry_Int_Tables_number   1
_chemical_formula_structural   Li2CoNi3O8
_chemical_formula_sum   'Li2 Co1 Ni3 O8'
_cell_volume   136.93229730
_cell_formula_units_Z   1
loop_
 _symmetry_equiv_pos_site_id
 _symmetry_equiv_pos_as_xyz
  1  'x, y, z'
loop_
 _atom_site_type_symbol
 _atom_site_label
 _atom_site_symmetry_multiplicity
 _atom_site_fract_x
 _atom_site_fract_y
 _atom_site_fract_z
 _atom_site_occupancy
  Li  Li0  1  0.50000000  0.00000000  0.50000000  1
  Li  Li1  1  0.50000000  0.50000000  0.50000000  1
  Co  Co0  1  0.00000000  0.00000000  0.00000000  1
  Ni  Ni0  1  0.50000000  0.00000000  0.00000000  1
  Ni  Ni1  1  0.00000000  0.50000000  0.00000000  1
  Ni  Ni2  1  0.50000000  0.50000000  0.00000000  1
  O  O0  1  0.00223700  0.25454300  0.79259800  1
  O  O1  1  0.54326600  0.20976700  0.78720400  1
  O  O2  1  0.02664600  0.74128200  0.80058100  1
  O  O3  1  0.54305600  0.72309000  0.79617000  1
  O  O4  1  0.45694400  0.27691000  0.20383000  1
  O  O5  1  0.97335400  0.25871800  0.19941900  1
  O  O6  1  0.45673400  0.79023300  0.21279600  1
  O  O7  1  0.99776300  0.74545700  0.20740200  1
loop_
_geom_bond_atom_site_label_1
_geom_bond_atom_site_label_2
_geom_bond_distance
_geom_bond_site_symmetry_2
Li0 O4 1.719591 1_555
Li0 O3 1.719591 1_545
Li1 O1 1.717231 1_555
Li1 O6 1.717231 1_555
Co0 O0 1.370864 1_554
Co0 O7 1.370864 1_445
Ni0 O1 1.260773 1_554
Ni0 O6 1.260773 1_545
Ni1 O2 1.324059 1_554
Ni1 O5 1.324059 1_455
Ni2 O3 1.284454 1_554
Ni2 O4 1.284454 1_555
