# generated using pymatgen
data_RbNaB4H4O13
_symmetry_space_group_name_H-M   'P 1'
_cell_length_a   11.23690700
_cell_length_b   7.67799500
_cell_length_c   13.39259141
_cell_angle_alpha   83.81452892
_cell_angle_beta   90.00000000
_cell_angle_gamma   90.00000000
_symmetry_Int_Tables_number   1
_chemical_formula_structural   RbNaB4H4O13
_chemical_formula_sum   'Rb4 Na4 B16 H16 O52'
_cell_volume   1148.74469324
_cell_formula_units_Z   4
loop_
 _symmetry_equiv_pos_site_id
 _symmetry_equiv_pos_as_xyz
  1  'x, y, z'
loop_
 _atom_site_type_symbol
 _atom_site_label
 _atom_site_symmetry_multiplicity
 _atom_site_fract_x
 _atom_site_fract_y
 _atom_site_fract_z
 _atom_site_occupancy
  Rb  Rb0  1  0.60513700  0.96781400  0.63532600  1
  Rb  Rb1  1  0.10513700  0.03218600  0.86467400  1
  Rb  Rb2  1  0.39486300  0.03218600  0.36467400  1
  Rb  Rb3  1  0.89486300  0.96781400  0.13532600  1
  Na  Na0  1  0.59306700  0.90535700  0.92308200  1
  Na  Na1  1  0.09306700  0.09464300  0.57691800  1
  Na  Na2  1  0.40693300  0.09464300  0.07691800  1
  Na  Na3  1  0.90693300  0.90535700  0.42308200  1
  B  B0  1  0.59240900  0.35466700  0.40660300  1
  B  B1  1  0.09240900  0.64533300  0.09339700  1
  B  B2  1  0.40759100  0.64533300  0.59339700  1
  B  B3  1  0.90759100  0.35466700  0.90660300  1
  B  B4  1  0.82182000  0.61298400  0.29790100  1
  B  B5  1  0.32182000  0.38701600  0.20209900  1
  B  B6  1  0.17818000  0.38701600  0.70209900  1
  B  B7  1  0.67818000  0.61298400  0.79790100  1
  B  B8  1  0.60617400  0.63107700  0.28718500  1
  B  B9  1  0.10617400  0.36892300  0.21281500  1
  B  B10  1  0.39382600  0.36892300  0.71281500  1
  B  B11  1  0.89382600  0.63107700  0.78718500  1
  B  B12  1  0.70569100  0.35702400  0.24817200  1
  B  B13  1  0.20569100  0.64297600  0.25182800  1
  B  B14  1  0.29430900  0.64297600  0.75182800  1
  B  B15  1  0.79430900  0.35702400  0.74817200  1
  H  H0  1  0.56027800  0.30889800  0.76045200  1
  H  H1  1  0.06027800  0.69110200  0.73954800  1
  H  H2  1  0.43972200  0.69110200  0.23954800  1
  H  H3  1  0.93972200  0.30889800  0.26045200  1
  H  H4  1  0.50492400  0.34335900  0.53709800  1
  H  H5  1  0.00492400  0.65664100  0.96290200  1
  H  H6  1  0.49507600  0.65664100  0.46290200  1
  H  H7  1  0.99507600  0.34335900  0.03709800  1
  H  H8  1  0.77079300  0.30570600  0.60735300  1
  H  H9  1  0.27079300  0.69429400  0.89264700  1
  H  H10  1  0.22920700  0.69429400  0.39264700  1
  H  H11  1  0.72920700  0.30570600  0.10735300  1
  H  H12  1  0.99971500  0.61513700  0.31249100  1
  H  H13  1  0.49971500  0.38486300  0.18750900  1
  H  H14  1  0.00028500  0.38486300  0.68750900  1
  H  H15  1  0.50028500  0.61513700  0.81249100  1
  O  O0  1  0.61612800  0.49730500  0.21476500  1
  O  O1  1  0.11612800  0.50269500  0.28523500  1
  O  O2  1  0.38387200  0.50269500  0.78523500  1
  O  O3  1  0.88387200  0.49730500  0.71476500  1
  O  O4  1  0.81905500  0.44269200  0.27575900  1
  O  O5  1  0.31905500  0.55730800  0.22424100  1
  O  O6  1  0.18094500  0.55730800  0.72424100  1
  O  O7  1  0.68094500  0.44269200  0.77575900  1
  O  O8  1  0.65276400  0.26134500  0.34081600  1
  O  O9  1  0.15276400  0.73865500  0.15918400  1
  O  O10  1  0.34723600  0.73865500  0.65918400  1
  O  O11  1  0.84723600  0.26134500  0.84081600  1
  O  O12  1  0.57004600  0.53219600  0.38589800  1
  O  O13  1  0.07004600  0.46780400  0.11410200  1
  O  O14  1  0.42995400  0.46780400  0.61410200  1
  O  O15  1  0.92995400  0.53219600  0.88589800  1
  O  O16  1  0.72127100  0.71656700  0.29769900  1
  O  O17  1  0.22127100  0.28343300  0.20230100  1
  O  O18  1  0.27872900  0.28343300  0.70230100  1
  O  O19  1  0.77872900  0.71656700  0.79769900  1
  O  O20  1  0.51155600  0.75795000  0.25867400  1
  O  O21  1  0.01155600  0.24205000  0.24132600  1
  O  O22  1  0.48844400  0.24205000  0.74132600  1
  O  O23  1  0.98844400  0.75795000  0.75867400  1
  O  O24  1  0.54938900  0.26621400  0.49442700  1
  O  O25  1  0.04938900  0.73378600  0.00557300  1
  O  O26  1  0.45061100  0.73378600  0.50557300  1
  O  O27  1  0.95061100  0.26621400  0.99442700  1
  O  O28  1  0.72440700  0.23947000  0.17309400  1
  O  O29  1  0.22440700  0.76053000  0.32690600  1
  O  O30  1  0.27559300  0.76053000  0.82690600  1
  O  O31  1  0.77559300  0.23947000  0.67309400  1
  O  O32  1  0.92813900  0.69375600  0.31630800  1
  O  O33  1  0.42813900  0.30624400  0.18369200  1
  O  O34  1  0.07186100  0.30624400  0.68369200  1
  O  O35  1  0.57186100  0.69375600  0.81630800  1
  O  O36  1  0.69897300  0.96603000  0.40908800  1
  O  O37  1  0.19897300  0.03397000  0.09091200  1
  O  O38  1  0.30102700  0.03397000  0.59091200  1
  O  O39  1  0.80102700  0.96603000  0.90908800  1
  O  O40  1  0.54067500  0.30017800  0.96028300  1
  O  O41  1  0.04067500  0.69982200  0.53971700  1
  O  O42  1  0.45932500  0.69982200  0.03971700  1
  O  O43  1  0.95932500  0.30017800  0.46028300  1
  O  O44  1  0.64281300  0.65865200  0.06436000  1
  O  O45  1  0.14281300  0.34134800  0.43564000  1
  O  O46  1  0.35718700  0.34134800  0.93564000  1
  O  O47  1  0.85718700  0.65865200  0.56436000  1
  O  O48  1  0.56303200  0.88883400  0.10710100  1
  O  O49  1  0.06303200  0.11116600  0.39289900  1
  O  O50  1  0.43696800  0.11116600  0.89289900  1
  O  O51  1  0.93696800  0.88883400  0.60710100  1
loop_
_geom_bond_atom_site_label_1
_geom_bond_atom_site_label_2
_geom_bond_distance
_geom_bond_site_symmetry_2
Na0 O35 2.289505 1_555
Na0 O50 2.366336 1_565
Na0 O39 2.386228 1_555
Na0 O48 2.477164 1_556
Na0 O42 2.580255 1_556
Na0 O44 2.590000 1_556
Na1 O34 2.289505 1_555
Na1 O51 2.366336 1_445
Na1 O38 2.386228 1_555
Na1 O49 2.477164 1_555
Na1 O43 2.580255 1_455
Na1 O45 2.590000 1_555
Na2 O33 2.289505 1_555
Na2 O48 2.366336 1_545
Na2 O37 2.386228 1_555
Na2 O50 2.477164 1_554
Na2 O40 2.580255 1_554
Na2 O46 2.590000 1_554
Na3 O32 2.289505 1_555
Na3 O49 2.366336 1_665
Na3 O36 2.386228 1_555
Na3 O51 2.477164 1_555
Na3 O41 2.580255 1_655
Na3 O47 2.590000 1_555
B0 O8 1.373199 1_555
B0 O24 1.380655 1_555
B0 O12 1.384391 1_555
B1 O9 1.373199 1_555
B1 O25 1.380655 1_555
B1 O13 1.384391 1_555
B2 O10 1.373199 1_555
B2 O26 1.380655 1_555
B2 O14 1.384391 1_555
B3 O11 1.373199 1_555
B3 O27 1.380655 1_555
B3 O15 1.384391 1_555
B4 O4 1.371865 1_555
B4 O32 1.380443 1_555
B4 O16 1.381537 1_555
B5 O5 1.371865 1_555
B5 O33 1.380443 1_555
B5 O17 1.381537 1_555
B6 O6 1.371865 1_555
B6 O34 1.380443 1_555
B6 O18 1.381537 1_555
B7 O7 1.371865 1_555
B7 O35 1.380443 1_555
B7 O19 1.381537 1_555
B8 O16 1.464004 1_555
B8 O20 1.464581 1_555
B8 O0 1.490908 1_555
B8 O12 1.507535 1_555
B9 O17 1.464004 1_555
B9 O21 1.464581 1_555
B9 O1 1.490908 1_555
B9 O13 1.507535 1_555
B10 O18 1.464004 1_555
B10 O22 1.464581 1_555
B10 O2 1.490908 1_555
B10 O14 1.507535 1_555
B11 O19 1.464004 1_555
B11 O23 1.464581 1_555
B11 O3 1.490908 1_555
B11 O15 1.507535 1_555
B12 O28 1.437169 1_555
B12 O8 1.495462 1_555
B12 O4 1.498078 1_555
B12 O0 1.506415 1_555
B13 O29 1.437169 1_555
B13 O9 1.495462 1_555
B13 O5 1.498078 1_555
B13 O1 1.506415 1_555
B14 O30 1.437169 1_555
B14 O10 1.495462 1_555
B14 O6 1.498078 1_555
B14 O2 1.506415 1_555
B15 O31 1.437169 1_555
B15 O11 1.495462 1_555
B15 O7 1.498078 1_555
B15 O3 1.506415 1_555
H0 O22 1.004458 1_555
H1 O23 1.004458 1_455
H2 O20 1.004458 1_555
H3 O21 1.004458 1_655
H4 O24 1.000009 1_555
H5 O25 1.000009 1_556
H6 O26 1.000009 1_555
H7 O27 1.000009 1_554
H8 O31 0.969655 1_555
H9 O30 0.969655 1_555
H10 O29 0.969655 1_555
H11 O28 0.969655 1_555
H12 O32 1.010211 1_555
H12 O1 1.630238 1_655
H13 O33 1.010211 1_555
H13 O0 1.630238 1_555
H14 O34 1.010211 1_555
H14 O3 1.630238 1_455
H15 O35 1.010211 1_555
H15 O2 1.630238 1_555
O20 Rb2 2.968560 1_565
O21 Rb3 2.968560 1_445
O22 Rb0 2.968560 1_545
O23 Rb1 2.968560 1_665
O24 Rb0 2.875891 1_545
O24 Rb2 3.152200 1_555
O25 Rb1 2.875891 1_564
O25 Rb3 3.152200 1_455
O26 Rb2 2.875891 1_565
O26 Rb0 3.152200 1_555
O27 Rb3 2.875891 1_546
O27 Rb1 3.152200 1_655
O28 Rb3 2.915887 1_545
O29 Rb2 2.915887 1_565
O30 Rb1 2.915887 1_565
O31 Rb0 2.915887 1_545
O32 Rb3 3.056691 1_555
O33 Rb2 3.056691 1_555
O34 Rb1 3.056691 1_555
O35 Rb0 3.056691 1_555
O36 Rb0 3.209567 1_555
O37 Rb1 3.209567 1_554
O38 Rb2 3.209567 1_555
O39 Rb3 3.209567 1_556
