# generated using pymatgen
data_Ca14Hg51
_symmetry_space_group_name_H-M   'P 1'
_cell_length_a   13.76881426
_cell_length_b   13.76881426
_cell_length_c   10.25989600
_cell_angle_alpha   90.00000000
_cell_angle_beta   90.00000000
_cell_angle_gamma   120.00000123
_symmetry_Int_Tables_number   1
_chemical_formula_structural   Ca14Hg51
_chemical_formula_sum   'Ca14 Hg51'
_cell_volume   1684.48313575
_cell_formula_units_Z   1
loop_
 _symmetry_equiv_pos_site_id
 _symmetry_equiv_pos_as_xyz
  1  'x, y, z'
loop_
 _atom_site_type_symbol
 _atom_site_label
 _atom_site_symmetry_multiplicity
 _atom_site_fract_x
 _atom_site_fract_y
 _atom_site_fract_z
 _atom_site_occupancy
  Ca  Ca0  1  0.00457000  0.19815600  0.50000000  1
  Ca  Ca1  1  0.80184400  0.80641400  0.50000000  1
  Ca  Ca2  1  0.19358600  0.99543000  0.50000000  1
  Ca  Ca3  1  0.66331700  0.13730000  0.50000000  1
  Ca  Ca4  1  0.86270000  0.52601700  0.50000000  1
  Ca  Ca5  1  0.47398300  0.33668300  0.50000000  1
  Ca  Ca6  1  0.60852300  0.55216200  0.00000000  1
  Ca  Ca7  1  0.44783800  0.05636000  0.00000000  1
  Ca  Ca8  1  0.94364000  0.39147700  0.00000000  1
  Ca  Ca9  1  0.05251100  0.78186700  0.00000000  1
  Ca  Ca10  1  0.21813300  0.27064400  0.00000000  1
  Ca  Ca11  1  0.72935600  0.94748900  0.00000000  1
  Ca  Ca12  1  0.33333300  0.66666700  0.30785400  1
  Ca  Ca13  1  0.33333300  0.66666700  0.69214600  1
  Hg  Hg0  1  0.95557600  0.17470500  0.14629000  1
  Hg  Hg1  1  0.82529500  0.78087000  0.14629000  1
  Hg  Hg2  1  0.21913000  0.04442400  0.14629000  1
  Hg  Hg3  1  0.71284000  0.16008900  0.14568000  1
  Hg  Hg4  1  0.83991100  0.55275000  0.14568000  1
  Hg  Hg5  1  0.44725000  0.28716000  0.14568000  1
  Hg  Hg6  1  0.71284000  0.16008900  0.85432000  1
  Hg  Hg7  1  0.83991100  0.55275000  0.85432000  1
  Hg  Hg8  1  0.44725000  0.28716000  0.85432000  1
  Hg  Hg9  1  0.95557600  0.17470500  0.85371000  1
  Hg  Hg10  1  0.82529500  0.78087000  0.85371000  1
  Hg  Hg11  1  0.21913000  0.04442400  0.85371000  1
  Hg  Hg12  1  0.51209500  0.60877500  0.50000000  1
  Hg  Hg13  1  0.39122500  0.90332000  0.50000000  1
  Hg  Hg14  1  0.09668000  0.48790500  0.50000000  1
  Hg  Hg15  1  0.15685700  0.72467100  0.50000000  1
  Hg  Hg16  1  0.27532900  0.43218600  0.50000000  1
  Hg  Hg17  1  0.56781400  0.84314300  0.50000000  1
  Hg  Hg18  1  0.00000000  0.00000000  0.00000000  1
  Hg  Hg19  1  0.66666700  0.33333300  0.00000000  1
  Hg  Hg20  1  0.67330100  0.56091900  0.33774700  1
  Hg  Hg21  1  0.43908100  0.11238300  0.33774700  1
  Hg  Hg22  1  0.88761700  0.32669900  0.33774700  1
  Hg  Hg23  1  0.99597000  0.77376700  0.33738600  1
  Hg  Hg24  1  0.22623300  0.22220400  0.33738600  1
  Hg  Hg25  1  0.77779600  0.00403000  0.33738600  1
  Hg  Hg26  1  0.99597000  0.77376700  0.66261400  1
  Hg  Hg27  1  0.22623300  0.22220400  0.66261400  1
  Hg  Hg28  1  0.77779600  0.00403000  0.66261400  1
  Hg  Hg29  1  0.67330100  0.56091900  0.66225300  1
  Hg  Hg30  1  0.43908100  0.11238300  0.66225300  1
  Hg  Hg31  1  0.88761700  0.32669900  0.66225300  1
  Hg  Hg32  1  0.41245900  0.47587100  0.22781000  1
  Hg  Hg33  1  0.52412900  0.93658800  0.22781000  1
  Hg  Hg34  1  0.06341200  0.58754100  0.22781000  1
  Hg  Hg35  1  0.25931200  0.85695600  0.22344400  1
  Hg  Hg36  1  0.14304400  0.40235600  0.22344400  1
  Hg  Hg37  1  0.59764400  0.74068800  0.22344400  1
  Hg  Hg38  1  0.25931200  0.85695600  0.77655600  1
  Hg  Hg39  1  0.14304400  0.40235600  0.77655600  1
  Hg  Hg40  1  0.59764400  0.74068800  0.77655600  1
  Hg  Hg41  1  0.41245900  0.47587100  0.77219000  1
  Hg  Hg42  1  0.52412900  0.93658800  0.77219000  1
  Hg  Hg43  1  0.06341200  0.58754100  0.77219000  1
  Hg  Hg44  1  0.00000000  0.00000000  0.31972800  1
  Hg  Hg45  1  0.66666700  0.33333300  0.31670200  1
  Hg  Hg46  1  0.66666700  0.33333300  0.68329800  1
  Hg  Hg47  1  0.00000000  0.00000000  0.68027200  1
  Hg  Hg48  1  0.31436600  0.53456700  0.00000000  1
  Hg  Hg49  1  0.46543300  0.77979900  0.00000000  1
  Hg  Hg50  1  0.22020100  0.68563400  0.00000000  1
loop_
_geom_bond_atom_site_label_1
_geom_bond_atom_site_label_2
_geom_bond_distance
_geom_bond_site_symmetry_2
Ca0 Hg47 3.270660 1_555
Ca0 Hg44 3.270660 1_555
Ca0 Hg27 3.346276 1_555
Ca0 Hg24 3.346276 1_555
Ca0 Hg28 3.366226 1_455
Ca0 Hg25 3.366226 1_455
Ca0 Hg31 3.368508 1_455
Ca0 Hg22 3.368508 1_455
Ca0 Hg16 3.502661 1_555
Ca0 Hg14 3.530565 1_555
Ca0 Hg0 3.675779 1_455
Ca0 Hg9 3.675779 1_455
Ca0 Hg39 3.772354 1_555
Ca0 Hg36 3.772354 1_555
Ca1 Hg47 3.270660 1_665
Ca1 Hg44 3.270660 1_665
Ca1 Hg28 3.346288 1_565
Ca1 Hg25 3.346288 1_565
Ca1 Hg26 3.366219 1_555
Ca1 Hg23 3.366219 1_555
Ca1 Hg29 3.368498 1_555
Ca1 Hg20 3.368498 1_555
Ca1 Hg17 3.502662 1_555
Ca1 Hg12 3.530565 1_555
Ca1 Hg1 3.675781 1_555
Ca1 Hg10 3.675781 1_555
Ca1 Hg40 3.772354 1_555
Ca1 Hg37 3.772354 1_555
Ca2 Hg47 3.270660 1_565
Ca2 Hg44 3.270660 1_565
Ca2 Hg26 3.346281 1_455
Ca2 Hg23 3.346281 1_455
Ca2 Hg27 3.366231 1_565
Ca2 Hg24 3.366231 1_565
Ca2 Hg30 3.368497 1_565
Ca2 Hg21 3.368497 1_565
Ca2 Hg15 3.502662 1_555
Ca2 Hg13 3.530565 1_555
Ca2 Hg2 3.675779 1_565
Ca2 Hg11 3.675779 1_565
Ca2 Hg38 3.772354 1_555
Ca2 Hg35 3.772354 1_555
Ca3 Hg46 3.271043 1_555
Ca3 Hg45 3.271043 1_555
Ca3 Hg31 3.325046 1_555
Ca3 Hg22 3.325046 1_555
Ca3 Hg30 3.370774 1_555
Ca3 Hg21 3.370774 1_555
Ca3 Hg28 3.395227 1_555
Ca3 Hg25 3.395227 1_555
Ca3 Hg13 3.513520 1_545
Ca3 Hg17 3.578734 1_545
Ca3 Hg3 3.683036 1_555
Ca3 Hg6 3.683036 1_555
Ca3 Hg33 3.716543 1_545
Ca3 Hg42 3.716543 1_545
Ca4 Hg46 3.271048 1_555
Ca4 Hg45 3.271048 1_555
Ca4 Hg29 3.325053 1_555
Ca4 Hg20 3.325053 1_555
Ca4 Hg31 3.370762 1_555
Ca4 Hg22 3.370762 1_555
Ca4 Hg26 3.395237 1_555
Ca4 Hg23 3.395237 1_555
Ca4 Hg14 3.513520 1_655
Ca4 Hg15 3.578734 1_655
Ca4 Hg4 3.683034 1_555
Ca4 Hg7 3.683034 1_555
Ca4 Hg43 3.716543 1_655
Ca4 Hg34 3.716543 1_655
Ca5 Hg46 3.271054 1_555
Ca5 Hg45 3.271054 1_555
Ca5 Hg30 3.325042 1_555
Ca5 Hg21 3.325042 1_555
Ca5 Hg29 3.370769 1_555
Ca5 Hg20 3.370769 1_555
Ca5 Hg27 3.395238 1_555
Ca5 Hg24 3.395238 1_555
Ca5 Hg12 3.513520 1_555
Ca5 Hg16 3.578734 1_555
Ca5 Hg5 3.683036 1_555
Ca5 Hg8 3.683036 1_555
Ca5 Hg32 3.716543 1_555
Ca5 Hg41 3.716543 1_555
Ca6 Hg41 3.319392 1_554
Ca6 Hg32 3.319392 1_555
Ca6 Hg10 3.417409 1_554
Ca6 Hg1 3.417409 1_555
Ca6 Hg19 3.483005 1_555
Ca6 Hg7 3.515464 1_554
Ca6 Hg4 3.515464 1_555
Ca6 Hg8 3.517962 1_554
Ca6 Hg5 3.517962 1_555
Ca6 Hg37 3.522065 1_555
Ca6 Hg40 3.522065 1_554
Ca6 Hg20 3.565174 1_555
Ca6 Hg29 3.565174 1_554
Ca7 Hg42 3.319383 1_544
Ca7 Hg33 3.319383 1_545
Ca7 Hg11 3.417409 1_554
Ca7 Hg2 3.417409 1_555
Ca7 Hg19 3.483005 1_555
Ca7 Hg8 3.515464 1_554
Ca7 Hg5 3.515464 1_555
Ca7 Hg6 3.517962 1_554
Ca7 Hg3 3.517962 1_555
Ca7 Hg35 3.522060 1_545
Ca7 Hg38 3.522060 1_544
Ca7 Hg21 3.565180 1_555
Ca7 Hg30 3.565180 1_554
Ca8 Hg43 3.319391 1_654
Ca8 Hg34 3.319391 1_655
Ca8 Hg0 3.417409 1_555
Ca8 Hg9 3.417409 1_554
Ca8 Hg19 3.483005 1_555
Ca8 Hg6 3.515464 1_554
Ca8 Hg3 3.515464 1_555
Ca8 Hg7 3.517962 1_554
Ca8 Hg4 3.517962 1_555
Ca8 Hg36 3.522055 1_655
Ca8 Hg39 3.522055 1_654
Ca8 Hg22 3.565176 1_555
Ca8 Hg31 3.565176 1_554
Ca9 Hg50 3.185273 1_555
Ca9 Hg35 3.389447 1_555
Ca9 Hg38 3.389447 1_554
Ca9 Hg7 3.394148 1_454
Ca9 Hg4 3.394148 1_455
Ca9 Hg18 3.422701 1_565
Ca9 Hg10 3.463738 1_454
Ca9 Hg1 3.463738 1_455
Ca9 Hg11 3.505887 1_564
Ca9 Hg2 3.505887 1_565
Ca9 Hg23 3.537510 1_455
Ca9 Hg26 3.537510 1_454
Ca9 Hg43 3.611948 1_554
Ca9 Hg34 3.611948 1_555
Ca10 Hg48 3.185273 1_555
Ca10 Hg36 3.389447 1_555
Ca10 Hg39 3.389447 1_554
Ca10 Hg8 3.394153 1_554
Ca10 Hg5 3.394153 1_555
Ca10 Hg18 3.422701 1_555
Ca10 Hg11 3.463751 1_554
Ca10 Hg2 3.463751 1_555
Ca10 Hg0 3.505885 1_455
Ca10 Hg9 3.505885 1_454
Ca10 Hg24 3.537507 1_555
Ca10 Hg27 3.537507 1_554
Ca10 Hg41 3.611948 1_554
Ca10 Hg32 3.611948 1_555
Ca11 Hg49 3.185273 1_555
Ca11 Hg37 3.389447 1_555
Ca11 Hg40 3.389447 1_554
Ca11 Hg6 3.394141 1_564
Ca11 Hg3 3.394141 1_565
Ca11 Hg18 3.422701 1_665
Ca11 Hg9 3.463745 1_564
Ca11 Hg0 3.463745 1_565
Ca11 Hg10 3.505896 1_554
Ca11 Hg1 3.505896 1_555
Ca11 Hg25 3.537509 1_565
Ca11 Hg28 3.537509 1_564
Ca11 Hg42 3.611948 1_554
Ca11 Hg33 3.611948 1_555
Ca12 Hg35 3.365077 1_555
Ca12 Hg36 3.365087 1_555
Ca12 Hg37 3.365090 1_555
Ca12 Hg34 3.409500 1_555
Ca12 Hg33 3.409503 1_555
Ca12 Hg32 3.409513 1_555
Ca12 Hg15 3.516972 1_555
Ca12 Hg17 3.516980 1_555
Ca12 Hg16 3.516983 1_555
Ca12 Hg13 3.541447 1_555
Ca12 Hg14 3.541451 1_555
Ca12 Hg12 3.541459 1_555
Ca12 Hg50 3.588571 1_555
Ca12 Hg49 3.588575 1_555
Ca12 Hg48 3.588578 1_555
Ca12 Ca13 3.942796 1_555
Ca13 Hg38 3.365077 1_555
Ca13 Hg39 3.365087 1_555
Ca13 Hg40 3.365090 1_555
Ca13 Hg43 3.409500 1_555
Ca13 Hg42 3.409503 1_555
Ca13 Hg41 3.409513 1_555
Ca13 Hg15 3.516972 1_555
Ca13 Hg17 3.516980 1_555
Ca13 Hg16 3.516983 1_555
Ca13 Hg13 3.541447 1_555
Ca13 Hg14 3.541451 1_555
Ca13 Hg12 3.541459 1_555
Ca13 Hg50 3.588571 1_556
Ca13 Hg49 3.588575 1_556
Ca13 Hg48 3.588578 1_556
Hg0 Hg9 3.001840 1_554
Hg0 Hg36 3.003914 1_655
Hg0 Hg25 3.099351 1_555
Hg0 Hg18 3.143976 1_655
Hg0 Hg3 3.246252 1_555
Hg0 Hg44 3.286075 1_655
Hg0 Hg22 3.327478 1_555
Hg1 Hg10 3.001840 1_554
Hg1 Hg37 3.003918 1_555
Hg1 Hg23 3.099340 1_555
Hg1 Hg18 3.143984 1_665
Hg1 Hg4 3.246252 1_555
Hg1 Hg44 3.286082 1_665
Hg1 Hg20 3.327461 1_555
Hg2 Hg35 3.003905 1_545
Hg2 Hg24 3.099361 1_555
Hg2 Hg5 3.246252 1_555
Hg2 Hg44 3.286086 1_555
Hg2 Hg21 3.327457 1_555
Hg3 Hg33 2.989223 1_545
Hg3 Hg6 2.989323 1_554
Hg3 Hg45 3.269478 1_555
Hg4 Hg7 2.989323 1_554
Hg4 Hg45 3.269478 1_555
Hg5 Hg8 2.989323 1_554
Hg6 Hg9 3.246252 1_555
Hg10 Hg40 3.003918 1_555
Hg10 Hg26 3.099340 1_555
Hg10 Hg18 3.143984 1_666
Hg10 Hg7 3.246252 1_555
Hg10 Hg47 3.286082 1_665
Hg10 Hg29 3.327461 1_555
Hg11 Hg2 3.001840 1_556
Hg11 Hg38 3.003905 1_545
Hg11 Hg27 3.099361 1_555
Hg11 Hg18 3.143988 1_556
Hg11 Hg8 3.246252 1_555
Hg11 Hg47 3.286086 1_555
Hg11 Hg30 3.327457 1_555
Hg12 Hg17 2.919970 1_555
Hg12 Hg16 2.934778 1_555
Hg12 Hg29 3.097522 1_555
Hg12 Hg20 3.097522 1_555
Hg12 Hg41 3.243315 1_555
Hg12 Hg32 3.243315 1_555
Hg12 Hg40 3.255455 1_555
Hg12 Hg37 3.255455 1_555
Hg13 Hg15 2.919970 1_555
Hg13 Hg17 2.934778 1_555
Hg13 Hg30 3.097533 1_565
Hg13 Hg21 3.097533 1_565
Hg13 Hg33 3.243315 1_555
Hg13 Hg42 3.243315 1_555
Hg13 Hg38 3.255455 1_555
Hg13 Hg35 3.255455 1_555
Hg14 Hg16 2.919970 1_555
Hg14 Hg15 2.934778 1_555
Hg14 Hg31 3.097530 1_455
Hg14 Hg22 3.097530 1_455
Hg14 Hg34 3.243315 1_555
Hg14 Hg43 3.243315 1_555
Hg14 Hg39 3.255455 1_555
Hg14 Hg36 3.255455 1_555
Hg15 Hg26 3.105676 1_455
Hg15 Hg23 3.105676 1_455
Hg15 Hg34 3.254218 1_555
Hg15 Hg43 3.254218 1_555
Hg15 Hg38 3.284687 1_555
Hg15 Hg35 3.284687 1_555
Hg16 Hg27 3.105665 1_555
Hg16 Hg24 3.105665 1_555
Hg16 Hg41 3.254218 1_555
Hg16 Hg32 3.254218 1_555
Hg16 Hg39 3.284687 1_555
Hg16 Hg36 3.284687 1_555
Hg17 Hg28 3.105668 1_565
Hg17 Hg25 3.105668 1_565
Hg17 Hg33 3.254218 1_555
Hg17 Hg42 3.254218 1_555
Hg17 Hg40 3.284687 1_555
Hg17 Hg37 3.284687 1_555
Hg18 Hg9 3.143976 1_454
Hg18 Hg2 3.143988 1_555
Hg18 Hg44 3.280376 1_555
Hg18 Hg47 3.280376 1_554
Hg19 Hg7 3.137617 1_554
Hg19 Hg4 3.137617 1_555
Hg19 Hg8 3.137617 1_554
Hg19 Hg5 3.137617 1_555
Hg19 Hg6 3.137617 1_554
Hg19 Hg3 3.137617 1_555
Hg19 Hg45 3.249330 1_555
Hg19 Hg46 3.249330 1_554
Hg20 Hg4 3.068620 1_555
Hg20 Hg45 3.096469 1_555
Hg20 Hg29 3.329398 1_555
Hg20 Hg37 3.341489 1_555
Hg20 Hg32 3.366989 1_555
Hg21 Hg5 3.068599 1_555
Hg21 Hg45 3.096455 1_555
Hg21 Hg30 3.329398 1_555
Hg21 Hg35 3.341499 1_545
Hg21 Hg33 3.367002 1_545
Hg22 Hg3 3.068609 1_555
Hg22 Hg45 3.096441 1_555
Hg22 Hg31 3.329398 1_555
Hg22 Hg36 3.341502 1_655
Hg22 Hg34 3.366992 1_655
Hg23 Hg44 3.092901 1_665
Hg23 Hg34 3.328948 1_655
Hg23 Hg26 3.336805 1_555
Hg23 Hg4 3.347763 1_555
Hg23 Hg35 3.416526 1_655
Hg24 Hg44 3.092907 1_555
Hg24 Hg32 3.328939 1_555
Hg24 Hg27 3.336805 1_555
Hg24 Hg5 3.347768 1_555
Hg24 Hg36 3.416514 1_555
Hg25 Hg44 3.092914 1_655
Hg25 Hg33 3.328935 1_545
Hg25 Hg28 3.336805 1_555
Hg25 Hg3 3.347747 1_555
Hg25 Hg37 3.416523 1_545
Hg26 Hg47 3.092901 1_665
Hg26 Hg43 3.328948 1_655
Hg26 Hg7 3.347763 1_555
Hg26 Hg38 3.416526 1_655
Hg27 Hg47 3.092907 1_555
Hg27 Hg41 3.328939 1_555
Hg27 Hg8 3.347768 1_555
Hg27 Hg39 3.416514 1_555
Hg28 Hg47 3.092914 1_655
Hg28 Hg9 3.099351 1_555
Hg28 Hg42 3.328935 1_545
Hg28 Hg6 3.347747 1_555
Hg28 Hg40 3.416523 1_545
Hg29 Hg7 3.068620 1_555
Hg29 Hg46 3.096469 1_555
Hg29 Hg40 3.341489 1_555
Hg29 Hg41 3.366989 1_555
Hg30 Hg8 3.068599 1_555
Hg30 Hg46 3.096455 1_555
Hg30 Hg38 3.341499 1_545
Hg30 Hg42 3.367002 1_545
Hg31 Hg6 3.068609 1_555
Hg31 Hg46 3.096441 1_555
Hg31 Hg9 3.327478 1_555
Hg31 Hg39 3.341502 1_655
Hg31 Hg43 3.366992 1_655
Hg32 Hg5 2.989231 1_555
Hg32 Hg48 3.005308 1_555
Hg32 Hg37 3.240559 1_555
Hg32 Hg36 3.321495 1_555
Hg33 Hg49 3.005308 1_555
Hg33 Hg35 3.240559 1_555
Hg33 Hg37 3.321495 1_555
Hg34 Hg4 2.989218 1_455
Hg34 Hg50 3.005308 1_555
Hg34 Hg36 3.240559 1_555
Hg34 Hg35 3.321495 1_555
Hg35 Hg50 3.136833 1_555
Hg36 Hg48 3.136833 1_555
Hg37 Hg49 3.136833 1_555
Hg38 Hg50 3.136833 1_556
Hg38 Hg42 3.240559 1_555
Hg38 Hg43 3.321495 1_555
Hg39 Hg9 3.003914 1_455
Hg39 Hg48 3.136833 1_556
Hg39 Hg43 3.240559 1_555
Hg39 Hg41 3.321495 1_555
Hg40 Hg49 3.136833 1_556
Hg40 Hg41 3.240559 1_555
Hg40 Hg42 3.321495 1_555
Hg41 Hg8 2.989231 1_555
Hg41 Hg48 3.005308 1_556
Hg42 Hg6 2.989223 1_565
Hg42 Hg49 3.005308 1_556
Hg43 Hg7 2.989218 1_455
Hg43 Hg50 3.005308 1_556
Hg45 Hg5 3.269478 1_555
Hg46 Hg7 3.269478 1_555
Hg46 Hg8 3.269478 1_555
Hg46 Hg6 3.269478 1_555
Hg47 Hg9 3.286075 1_455
Hg48 Hg49 2.950304 1_555
Hg48 Hg50 2.950304 1_555
Hg49 Hg50 2.950304 1_555
