# generated using pymatgen
data_ScTi(NiSn)2
_symmetry_space_group_name_H-M   'P 1'
_cell_length_a   7.44742479
_cell_length_b   7.44742479
_cell_length_c   7.44742485
_cell_angle_alpha   33.23151649
_cell_angle_beta   33.23151649
_cell_angle_gamma   33.23150891
_symmetry_Int_Tables_number   1
_chemical_formula_structural   ScTi(NiSn)2
_chemical_formula_sum   'Sc1 Ti1 Ni2 Sn2'
_cell_volume   110.44036656
_cell_formula_units_Z   1
loop_
 _symmetry_equiv_pos_site_id
 _symmetry_equiv_pos_as_xyz
  1  'x, y, z'
loop_
 _atom_site_type_symbol
 _atom_site_label
 _atom_site_symmetry_multiplicity
 _atom_site_fract_x
 _atom_site_fract_y
 _atom_site_fract_z
 _atom_site_occupancy
  Sc  Sc0  1  0.87620500  0.87620500  0.87620500  1
  Ti  Ti0  1  0.37393800  0.37393800  0.37393800  1
  Ni  Ni0  1  0.00267800  0.00267800  0.00267800  1
  Ni  Ni1  1  0.49676400  0.49676400  0.49676400  1
  Sn  Sn0  1  0.12285200  0.12285200  0.12285200  1
  Sn  Sn1  1  0.62756300  0.62756300  0.62756300  1
loop_
_geom_bond_atom_site_label_1
_geom_bond_atom_site_label_2
_geom_bond_distance
_geom_bond_site_symmetry_2
Sc0 Sn1 3.039246 1_565
Sc0 Sn1 3.039246 1_655
Sc0 Sn1 3.039246 1_556
Sc0 Sn0 3.064160 1_566
Sc0 Sn0 3.064160 1_656
Sc0 Sn0 3.064160 1_665
Ni0 Sn0 2.534374 1_555
Ni0 Ti0 2.585867 1_545
Ni0 Ti0 2.585867 1_455
Ni0 Ti0 2.585867 1_554
Ni0 Sn1 2.612158 1_544
Ni0 Sn1 2.612158 1_454
Ni0 Sn1 2.612158 1_445
Ni0 Sc0 2.667215 1_444
Ni1 Ti0 2.590303 1_555
Ni1 Sn0 2.603709 1_565
Ni1 Sn0 2.603709 1_655
Ni1 Sn0 2.603710 1_556
Ni1 Sc0 2.644328 1_455
Ni1 Sc0 2.644328 1_545
Ni1 Sc0 2.644328 1_554
Ni1 Sn1 2.758447 1_555
Sn0 Ti0 3.009245 1_545
Sn0 Ti0 3.009245 1_455
Sn0 Ti0 3.009245 1_554
Sn1 Ti0 2.978703 1_565
Sn1 Ti0 2.978703 1_655
Sn1 Ti0 2.978703 1_556
