# generated using pymatgen
data_LiCo2NiO6
_symmetry_space_group_name_H-M   'P 1'
_cell_length_a   2.88362265
_cell_length_b   11.77937037
_cell_length_c   6.49465218
_cell_angle_alpha   105.84434234
_cell_angle_beta   77.76732065
_cell_angle_gamma   92.41400762
_symmetry_Int_Tables_number   1
_chemical_formula_structural   LiCo2NiO6
_chemical_formula_sum   'Li2 Co4 Ni2 O12'
_cell_volume   207.37653142
_cell_formula_units_Z   2
loop_
 _symmetry_equiv_pos_site_id
 _symmetry_equiv_pos_as_xyz
  1  'x, y, z'
loop_
 _atom_site_type_symbol
 _atom_site_label
 _atom_site_symmetry_multiplicity
 _atom_site_fract_x
 _atom_site_fract_y
 _atom_site_fract_z
 _atom_site_occupancy
  Li  Li0  1  0.32832500  0.41524600  0.33196700  1
  Li  Li1  1  0.34158500  0.91753600  0.33194200  1
  Co  Co0  1  0.64762500  0.33089400  0.67353200  1
  Co  Co1  1  0.67013100  0.82783100  0.67198500  1
  Co  Co2  1  0.00194900  0.00688300  0.99110800  1
  Co  Co3  1  0.01616400  0.50268100  0.99527600  1
  Ni  Ni0  1  0.34023000  0.66578500  0.33309200  1
  Ni  Ni1  1  0.31567000  0.16822400  0.33481300  1
  O  O0  1  0.77224700  0.29042800  0.36929300  1
  O  O1  1  0.80224200  0.78636800  0.36729800  1
  O  O2  1  0.86907400  0.04485300  0.30105400  1
  O  O3  1  0.87725500  0.54483900  0.29951200  1
  O  O4  1  0.15949500  0.43998400  0.68719800  1
  O  O5  1  0.17875000  0.93608300  0.68132300  1
  O  O6  1  0.50720800  0.39413900  0.98288500  1
  O  O7  1  0.55941100  0.88688900  0.97745800  1
  O  O8  1  0.14633300  0.22449800  0.64769800  1
  O  O9  1  0.17170700  0.72164500  0.64616800  1
  O  O10  1  0.44862800  0.11989900  0.02340900  1
  O  O11  1  0.51263400  0.60862700  0.01965300  1
loop_
_geom_bond_atom_site_label_1
_geom_bond_atom_site_label_2
_geom_bond_distance
_geom_bond_site_symmetry_2
Li0 O0 2.084184 1_555
Li0 O3 2.127373 1_455
Li0 O0 2.150128 1_455
Li0 O6 2.162259 1_554
Li0 O3 2.170497 1_555
Li0 O4 2.193975 1_555
Li1 O2 2.108524 1_565
Li1 O2 2.144332 1_465
Li1 O1 2.167670 1_455
Li1 O1 2.168045 1_555
Li1 O5 2.168755 1_555
Li1 O7 2.185792 1_554
Co0 O0 1.860071 1_555
Co0 O8 1.877172 1_555
Co0 O8 1.897815 1_655
Co0 O6 1.902355 1_555
Co0 O4 1.916059 1_655
Co0 O4 1.917699 1_555
Co1 O1 1.862239 1_555
Co1 O9 1.869364 1_555
Co1 O7 1.875783 1_555
Co1 O5 1.902285 1_655
Co1 O9 1.902546 1_655
Co1 O5 1.926393 1_555
Co2 O10 1.814634 1_556
Co2 O7 1.860577 1_445
Co2 O2 1.896035 1_456
Co2 O5 1.920491 1_545
Co2 O10 2.060749 1_456
Co2 O7 2.156940 1_545
Co3 O3 1.859254 1_456
Co3 O11 1.862723 1_556
Co3 O4 1.894219 1_555
Co3 O6 1.905501 1_455
Co3 O11 1.907389 1_456
Co3 O6 1.922039 1_555
Ni0 O1 1.906702 1_555
Ni0 O3 1.911305 1_455
Ni0 O9 1.918631 1_555
Ni0 O11 1.922335 1_555
Ni0 O1 2.083468 1_455
Ni0 O3 2.085283 1_555
Ni1 O2 1.899062 1_455
Ni1 O10 1.903292 1_555
Ni1 O0 1.909177 1_555
Ni1 O8 1.917923 1_555
Ni1 O0 2.107875 1_455
Ni1 O2 2.140015 1_555
