# generated using pymatgen
data_K3N
_symmetry_space_group_name_H-M   'P 1'
_cell_length_a   7.74924026
_cell_length_b   7.74924026
_cell_length_c   7.20620500
_cell_angle_alpha   90.00000000
_cell_angle_beta   90.00000000
_cell_angle_gamma   120.00000222
_symmetry_Int_Tables_number   1
_chemical_formula_structural   K3N
_chemical_formula_sum   'K6 N2'
_cell_volume   374.76194722
_cell_formula_units_Z   2
loop_
 _symmetry_equiv_pos_site_id
 _symmetry_equiv_pos_as_xyz
  1  'x, y, z'
loop_
 _atom_site_type_symbol
 _atom_site_label
 _atom_site_symmetry_multiplicity
 _atom_site_fract_x
 _atom_site_fract_y
 _atom_site_fract_z
 _atom_site_occupancy
  K  K0  1  0.00000000  0.73563300  0.75000000  1
  K  K1  1  0.00000000  0.26436700  0.25000000  1
  K  K2  1  0.73563300  0.73563300  0.25000000  1
  K  K3  1  0.73563300  0.00000000  0.75000000  1
  K  K4  1  0.26436700  0.26436700  0.75000000  1
  K  K5  1  0.26436700  0.00000000  0.25000000  1
  N  N0  1  0.00000000  0.00000000  0.50000000  1
  N  N1  1  0.00000000  0.00000000  0.00000000  1
loop_
_geom_bond_atom_site_label_1
_geom_bond_atom_site_label_2
_geom_bond_distance
_geom_bond_site_symmetry_2
K0 N1 2.728099 1_566
K0 N0 2.728099 1_565
K1 N0 2.728099 1_555
K1 N1 2.728099 1_555
K2 N0 2.728099 1_665
K2 N1 2.728099 1_665
K3 N1 2.728099 1_656
K3 N0 2.728099 1_655
K4 N0 2.728099 1_555
K4 N1 2.728099 1_556
K5 N0 2.728099 1_555
K5 N1 2.728099 1_555
