# generated using pymatgen
data_Cs2PrCuI6
_symmetry_space_group_name_H-M   'P 1'
_cell_length_a   8.54328676
_cell_length_b   8.54328676
_cell_length_c   8.54328676
_cell_angle_alpha   60.00000000
_cell_angle_beta   60.00000000
_cell_angle_gamma   60.00000000
_symmetry_Int_Tables_number   1
_chemical_formula_structural   Cs2PrCuI6
_chemical_formula_sum   'Cs2 Pr1 Cu1 I6'
_cell_volume   440.92015724
_cell_formula_units_Z   1
loop_
 _symmetry_equiv_pos_site_id
 _symmetry_equiv_pos_as_xyz
  1  'x, y, z'
loop_
 _atom_site_type_symbol
 _atom_site_label
 _atom_site_symmetry_multiplicity
 _atom_site_fract_x
 _atom_site_fract_y
 _atom_site_fract_z
 _atom_site_occupancy
  Cs  Cs0  1  0.75000000  0.75000000  0.75000000  1
  Cs  Cs1  1  0.25000000  0.25000000  0.25000000  1
  Pr  Pr0  1  0.50000000  0.50000000  0.50000000  1
  Cu  Cu0  1  0.00000000  0.00000000  0.00000000  1
  I  I0  1  0.75983200  0.24016800  0.24016800  1
  I  I1  1  0.24016800  0.24016800  0.75983200  1
  I  I2  1  0.24016800  0.75983200  0.75983200  1
  I  I3  1  0.24016800  0.75983200  0.24016800  1
  I  I4  1  0.75983200  0.24016800  0.75983200  1
  I  I5  1  0.75983200  0.75983200  0.24016800  1
loop_
_geom_bond_atom_site_label_1
_geom_bond_atom_site_label_2
_geom_bond_distance
_geom_bond_site_symmetry_2
Cs0 I4 4.273295 1_565
Cs0 I5 4.273295 1_556
Cs0 I2 4.273295 1_655
Cs0 I3 4.273295 1_556
Cs0 I0 4.273295 1_565
Cs0 I3 4.273295 1_655
Cs0 I0 4.273295 1_556
Cs0 I1 4.273295 1_655
Cs0 I1 4.273295 1_565
Cs0 I4 4.273295 1_555
Cs0 I5 4.273295 1_555
Cs0 I2 4.273295 1_555
Cs1 I0 4.273295 1_555
Cs1 I1 4.273295 1_555
Cs1 I3 4.273295 1_555
Cs1 I2 4.273295 1_554
Cs1 I4 4.273295 1_455
Cs1 I5 4.273295 1_545
Cs1 I2 4.273295 1_545
Cs1 I1 4.273295 1_554
Cs1 I5 4.273295 1_455
Cs1 I4 4.273295 1_554
Cs1 I0 4.273295 1_455
Cs1 I3 4.273295 1_545
Cu0 I1 2.901717 1_554
Cu0 I3 2.901717 1_545
Cu0 I0 2.901717 1_455
Cu0 I5 2.901717 1_445
Cu0 I2 2.901717 1_544
Cu0 I4 2.901717 1_454
I0 Pr0 3.139299 1_555
I1 Pr0 3.139299 1_555
I2 Pr0 3.139299 1_555
I3 Pr0 3.139299 1_555
I4 Pr0 3.139299 1_555
I5 Pr0 3.139299 1_555
