# generated using pymatgen
data_La2MnCoO6
_symmetry_space_group_name_H-M   'P 1'
_cell_length_a   5.52096000
_cell_length_b   5.53008873
_cell_length_c   5.57063790
_cell_angle_alpha   60.68928010
_cell_angle_beta   60.29456295
_cell_angle_gamma   60.05459099
_symmetry_Int_Tables_number   1
_chemical_formula_structural   La2MnCoO6
_chemical_formula_sum   'La2 Mn1 Co1 O6'
_cell_volume   121.19850459
_cell_formula_units_Z   1
loop_
 _symmetry_equiv_pos_site_id
 _symmetry_equiv_pos_as_xyz
  1  'x, y, z'
loop_
 _atom_site_type_symbol
 _atom_site_label
 _atom_site_symmetry_multiplicity
 _atom_site_fract_x
 _atom_site_fract_y
 _atom_site_fract_z
 _atom_site_occupancy
  La  La0  1  0.74908100  0.24334100  0.25849800  1
  La  La1  1  0.25091900  0.75665900  0.74150200  1
  Mn  Mn0  1  0.00000000  0.50000000  0.50000000  1
  Co  Co0  1  0.50000000  0.00000000  0.00000000  1
  O  O0  1  0.20058500  0.78634600  0.30244400  1
  O  O1  1  0.71062600  0.78634600  0.30244400  1
  O  O2  1  0.79941500  0.21365400  0.69755600  1
  O  O3  1  0.28937400  0.21365400  0.69755600  1
  O  O4  1  0.75783800  0.66264500  0.82167900  1
  O  O5  1  0.24216200  0.33735500  0.17832100  1
loop_
_geom_bond_atom_site_label_1
_geom_bond_atom_site_label_2
_geom_bond_distance
_geom_bond_site_symmetry_2
La0 O4 2.402335 1_554
La0 O2 2.514201 1_555
La0 O3 2.514207 1_555
La0 O0 2.523939 1_645
La0 O1 2.523939 1_545
La1 O5 2.402335 1_556
La1 O0 2.514201 1_555
La1 O1 2.514207 1_555
La1 O3 2.523939 1_565
La1 O2 2.523939 1_465
Mn0 O3 1.944646 1_555
Mn0 O1 1.944646 1_455
Mn0 O0 1.944650 1_555
Mn0 O2 1.944650 1_455
Mn0 O4 1.952098 1_455
Mn0 O5 1.952098 1_555
Co0 O2 2.051296 1_554
Co0 O0 2.051296 1_545
Co0 O1 2.051300 1_545
Co0 O3 2.051300 1_554
Co0 O5 2.062843 1_555
Co0 O4 2.062843 1_544
