# generated using pymatgen
data_K2Ni3S4
_symmetry_space_group_name_H-M   'P 1'
_cell_length_a   5.72598949
_cell_length_b   5.77501117
_cell_length_c   13.28887340
_cell_angle_alpha   83.86871292
_cell_angle_beta   77.55847940
_cell_angle_gamma   60.28040074
_symmetry_Int_Tables_number   1
_chemical_formula_structural   K2Ni3S4
_chemical_formula_sum   'K4 Ni6 S8'
_cell_volume   372.66782236
_cell_formula_units_Z   2
loop_
 _symmetry_equiv_pos_site_id
 _symmetry_equiv_pos_as_xyz
  1  'x, y, z'
loop_
 _atom_site_type_symbol
 _atom_site_label
 _atom_site_symmetry_multiplicity
 _atom_site_fract_x
 _atom_site_fract_y
 _atom_site_fract_z
 _atom_site_occupancy
  K  K0  1  0.54636117  0.75000000  0.90727666  1
  K  K1  1  0.70363883  0.75000000  0.59272334  1
  K  K2  1  0.45363883  0.25000000  0.09272334  1
  K  K3  1  0.29636117  0.25000000  0.40727666  1
  Ni  Ni0  1  0.62555881  0.25000000  0.74888338  1
  Ni  Ni1  1  0.12444119  0.25000000  0.75111662  1
  Ni  Ni2  1  0.37444119  0.75000000  0.25111662  1
  Ni  Ni3  1  0.87555881  0.75000000  0.24888338  1
  Ni  Ni4  1  0.12500000  0.75000000  0.75000000  1
  Ni  Ni5  1  0.87500000  0.25000000  0.25000000  1
  S  S0  1  0.23960483  0.41751945  0.86112941  1
  S  S1  1  0.01825468  0.08248055  0.63887059  1
  S  S2  1  0.34287472  0.41751945  0.63887059  1
  S  S3  1  0.89926576  0.08248055  0.86112941  1
  S  S4  1  0.76039517  0.58248055  0.13887059  1
  S  S5  1  0.98174532  0.91751945  0.36112941  1
  S  S6  1  0.10073424  0.91751945  0.13887059  1
  S  S7  1  0.65712528  0.58248055  0.36112941  1
loop_
_geom_bond_atom_site_label_1
_geom_bond_atom_site_label_2
_geom_bond_distance
_geom_bond_site_symmetry_2
K0 S0 3.347779 1_555
K0 S3 3.347784 1_565
K0 S3 3.386042 1_465
K0 S0 3.386046 1_655
K0 S3 3.401073 1_555
K0 S0 3.401074 1_565
K0 S6 3.423928 1_556
K0 S4 3.423930 1_556
K1 S2 3.347774 1_655
K1 S1 3.347779 1_565
K1 S1 3.386047 1_665
K1 S2 3.386052 1_555
K1 S2 3.401073 1_565
K1 S1 3.401074 1_655
K1 S5 3.423925 1_555
K1 S7 3.423928 1_555
K2 S4 3.347779 1_555
K2 S6 3.347784 1_545
K2 S6 3.386042 1_645
K2 S4 3.386046 1_455
K2 S6 3.401073 1_555
K2 S4 3.401074 1_545
K2 S3 3.423928 1_554
K2 S0 3.423930 1_554
K3 S7 3.347774 1_455
K3 S5 3.347779 1_545
K3 S5 3.386047 1_445
K3 S7 3.386052 1_555
K3 S7 3.401073 1_545
K3 S5 3.401074 1_455
K3 S1 3.423925 1_555
K3 S2 3.423928 1_555
Ni0 S3 2.193816 1_555
Ni0 S0 2.193819 1_555
Ni0 S1 2.204107 1_655
Ni0 S2 2.204111 1_555
Ni1 S1 2.193812 1_555
Ni1 S2 2.193816 1_555
Ni1 S3 2.204103 1_455
Ni1 S0 2.204107 1_555
Ni2 S6 2.193816 1_555
Ni2 S4 2.193819 1_555
Ni2 S5 2.204107 1_455
Ni2 S7 2.204111 1_555
Ni3 S5 2.193812 1_555
Ni3 S7 2.193816 1_555
Ni3 S6 2.204103 1_655
Ni3 S4 2.204107 1_555
Ni4 S3 2.204717 1_465
Ni4 S2 2.204717 1_555
Ni4 S0 2.204718 1_555
Ni4 S1 2.204718 1_565
Ni5 S6 2.204717 1_645
Ni5 S7 2.204717 1_555
Ni5 S4 2.204718 1_555
Ni5 S5 2.204718 1_545
