# generated using pymatgen
data_K2Na2Nd4Nb2O13
_symmetry_space_group_name_H-M   'P 1'
_cell_length_a   12.53487894
_cell_length_b   12.53487894
_cell_length_c   11.36078901
_cell_angle_alpha   64.08315995
_cell_angle_beta   64.08315995
_cell_angle_gamma   26.47111070
_symmetry_Int_Tables_number   1
_chemical_formula_structural   K2Na2Nd4Nb2O13
_chemical_formula_sum   'K4 Na4 Nd8 Nb4 O26'
_cell_volume   710.96546301
_cell_formula_units_Z   2
loop_
 _symmetry_equiv_pos_site_id
 _symmetry_equiv_pos_as_xyz
  1  'x, y, z'
loop_
 _atom_site_type_symbol
 _atom_site_label
 _atom_site_symmetry_multiplicity
 _atom_site_fract_x
 _atom_site_fract_y
 _atom_site_fract_z
 _atom_site_occupancy
  K  K0  1  0.79964580  0.69861636  0.36712886  1
  K  K1  1  0.30138364  0.20035420  0.13287114  1
  K  K2  1  0.20035420  0.30138364  0.63287114  1
  K  K3  1  0.69861636  0.79964580  0.86712886  1
  Na  Na0  1  0.87596647  0.80576170  0.02409786  1
  Na  Na1  1  0.19423830  0.12403353  0.47590214  1
  Na  Na2  1  0.12403353  0.19423830  0.97590214  1
  Na  Na3  1  0.80576170  0.87596647  0.52409786  1
  Nd  Nd0  1  0.60902014  0.51876129  0.54932135  1
  Nd  Nd1  1  0.48123871  0.39097986  0.95067865  1
  Nd  Nd2  1  0.39097986  0.48123871  0.45067865  1
  Nd  Nd3  1  0.51876129  0.60902014  0.04932135  1
  Nd  Nd4  1  0.97286558  0.89936869  0.17403713  1
  Nd  Nd5  1  0.10063131  0.02713442  0.32596287  1
  Nd  Nd6  1  0.02713442  0.10063131  0.82596287  1
  Nd  Nd7  1  0.89936869  0.97286558  0.67403713  1
  Nb  Nb0  1  0.68541407  0.62074644  0.21521181  1
  Nb  Nb1  1  0.37925356  0.31458593  0.28478819  1
  Nb  Nb2  1  0.31458593  0.37925356  0.78478819  1
  Nb  Nb3  1  0.62074644  0.68541407  0.71521181  1
  O  O0  1  0.90397051  0.36340694  0.35851236  1
  O  O1  1  0.63659306  0.09602949  0.14148764  1
  O  O2  1  0.09602949  0.63659306  0.64148764  1
  O  O3  1  0.36340694  0.90397051  0.85851236  1
  O  O4  1  0.86329070  0.40949489  0.62171723  1
  O  O5  1  0.59050511  0.13670930  0.87828277  1
  O  O6  1  0.13670930  0.59050511  0.37828277  1
  O  O7  1  0.40949489  0.86329070  0.12171723  1
  O  O8  1  0.17386418  0.56140352  0.14046580  1
  O  O9  1  0.43859648  0.82613582  0.35953420  1
  O  O10  1  0.82613582  0.43859648  0.85953420  1
  O  O11  1  0.56140352  0.17386418  0.64046580  1
  O  O12  1  0.79949156  0.67540519  0.12168663  1
  O  O13  1  0.32459481  0.20050844  0.37831337  1
  O  O14  1  0.20050844  0.32459481  0.87831337  1
  O  O15  1  0.67540519  0.79949156  0.62168663  1
  O  O16  1  0.24250529  0.75749471  0.25000000  1
  O  O17  1  0.75749471  0.24250529  0.75000000  1
  O  O18  1  0.37341901  0.83489921  0.65637449  1
  O  O19  1  0.16510079  0.62658099  0.84362551  1
  O  O20  1  0.62658099  0.16510079  0.34362551  1
  O  O21  1  0.83489921  0.37341901  0.15637449  1
  O  O22  1  0.75030781  0.24749122  0.47565421  1
  O  O23  1  0.75250878  0.24969219  0.02434579  1
  O  O24  1  0.24969219  0.75250878  0.52434579  1
  O  O25  1  0.24749122  0.75030781  0.97565421  1
loop_
_geom_bond_atom_site_label_1
_geom_bond_atom_site_label_2
_geom_bond_distance
_geom_bond_site_symmetry_2
K0 O13 2.832279 1_565
K0 O15 2.849880 1_555
K0 O12 2.928279 1_555
K0 O13 2.963348 1_655
K0 O6 3.125823 1_655
K0 O0 3.128138 1_555
K0 O4 3.132756 1_555
K0 O9 3.211538 1_555
K0 O8 3.234398 1_655
K0 O1 3.279237 1_565
K1 O12 2.832279 1_455
K1 O14 2.849880 1_554
K1 O13 2.928279 1_555
K1 O12 2.963348 1_545
K1 O7 3.125823 1_545
K1 O1 3.128138 1_555
K1 O5 3.132756 1_554
K1 O8 3.211538 1_555
K1 O9 3.234398 1_545
K1 O0 3.279237 1_455
K2 O15 2.832279 1_545
K2 O13 2.849880 1_555
K2 O14 2.928279 1_555
K2 O15 2.963348 1_455
K2 O4 3.125823 1_455
K2 O2 3.128138 1_555
K2 O6 3.132756 1_555
K2 O11 3.211538 1_555
K2 O10 3.234398 1_455
K2 O3 3.279237 1_545
K3 O14 2.832279 1_655
K3 O12 2.849880 1_556
K3 O15 2.928279 1_555
K3 O14 2.963348 1_565
K3 O5 3.125823 1_565
K3 O3 3.128138 1_555
K3 O7 3.132756 1_556
K3 O10 3.211538 1_555
K3 O11 3.234398 1_565
K3 O2 3.279237 1_655
Na0 O12 2.260479 1_555
Na0 O1 2.284393 1_565
Na0 O19 2.310848 1_654
Na0 O5 2.314341 1_564
Na0 O8 2.317750 1_655
Na1 O13 2.260479 1_555
Na1 O0 2.284393 1_455
Na1 O18 2.310848 1_545
Na1 O4 2.314341 1_455
Na1 O9 2.317750 1_545
Na2 O14 2.260479 1_555
Na2 O3 2.284393 1_545
Na2 O21 2.310848 1_456
Na2 O7 2.314341 1_546
Na2 O10 2.317750 1_455
Na3 O15 2.260479 1_555
Na3 O2 2.284393 1_655
Na3 O20 2.310848 1_565
Na3 O6 2.314341 1_655
Na3 O11 2.317750 1_565
Nd0 O24 2.390822 1_555
Nd0 O22 2.410348 1_555
Nd0 O17 2.433633 1_555
Nd0 O0 2.440264 1_555
Nd0 O18 2.454674 1_555
Nd0 O9 2.467022 1_555
Nd0 O4 2.490438 1_555
Nd1 O25 2.390822 1_555
Nd1 O23 2.410348 1_556
Nd1 O17 2.433633 1_555
Nd1 O1 2.440264 1_556
Nd1 O19 2.454674 1_555
Nd1 O8 2.467022 1_556
Nd1 O5 2.490438 1_555
Nd2 O22 2.390822 1_555
Nd2 O24 2.410348 1_555
Nd2 O16 2.433633 1_555
Nd2 O2 2.440264 1_555
Nd2 O20 2.454674 1_555
Nd2 O11 2.467022 1_555
Nd2 O6 2.490438 1_555
Nd3 O23 2.390822 1_555
Nd3 O25 2.410348 1_554
Nd3 O16 2.433633 1_555
Nd3 O3 2.440264 1_554
Nd3 O21 2.454674 1_555
Nd3 O10 2.467022 1_554
Nd3 O7 2.490438 1_555
Nd4 O23 2.380675 1_565
Nd4 O16 2.403778 1_655
Nd4 O25 2.409290 1_654
Nd4 O8 2.429708 1_655
Nd4 O1 2.437979 1_565
Nd4 O20 2.462247 1_565
Nd4 O6 2.582395 1_655
Nd5 O22 2.380675 1_455
Nd5 O16 2.403778 1_545
Nd5 O24 2.409290 1_545
Nd5 O9 2.429708 1_545
Nd5 O0 2.437979 1_455
Nd5 O21 2.462247 1_455
Nd5 O7 2.582395 1_545
Nd6 O25 2.380675 1_545
Nd6 O17 2.403778 1_455
Nd6 O23 2.409290 1_456
Nd6 O10 2.429708 1_455
Nd6 O3 2.437979 1_545
Nd6 O18 2.462247 1_545
Nd6 O4 2.582395 1_455
Nd7 O24 2.380675 1_655
Nd7 O17 2.403778 1_565
Nd7 O22 2.409290 1_565
Nd7 O11 2.429708 1_565
Nd7 O2 2.437979 1_655
Nd7 O19 2.462247 1_655
Nd7 O5 2.582395 1_565
Nb0 O12 1.852744 1_555
Nb0 O9 1.970756 1_555
Nb0 O21 1.971205 1_555
Nb0 O7 1.973950 1_555
Nb0 O0 2.011938 1_555
Nb1 O13 1.852744 1_555
Nb1 O8 1.970756 1_555
Nb1 O20 1.971205 1_555
Nb1 O6 1.973950 1_555
Nb1 O1 2.011938 1_555
Nb2 O14 1.852744 1_555
Nb2 O11 1.970756 1_555
Nb2 O19 1.971205 1_555
Nb2 O5 1.973950 1_555
Nb2 O2 2.011938 1_555
Nb3 O15 1.852744 1_555
Nb3 O10 1.970756 1_555
Nb3 O18 1.971205 1_555
Nb3 O4 1.973950 1_555
Nb3 O3 2.011938 1_555
