# generated using pymatgen
data_LiIrN2
_symmetry_space_group_name_H-M   'P 1'
_cell_length_a   5.71211936
_cell_length_b   4.61037329
_cell_length_c   9.38094372
_cell_angle_alpha   90.00000436
_cell_angle_beta   145.19946881
_cell_angle_gamma   113.80096534
_symmetry_Int_Tables_number   1
_chemical_formula_structural   LiIrN2
_chemical_formula_sum   'Li2 Ir2 N4'
_cell_volume   99.69857082
_cell_formula_units_Z   2
loop_
 _symmetry_equiv_pos_site_id
 _symmetry_equiv_pos_as_xyz
  1  'x, y, z'
loop_
 _atom_site_type_symbol
 _atom_site_label
 _atom_site_symmetry_multiplicity
 _atom_site_fract_x
 _atom_site_fract_y
 _atom_site_fract_z
 _atom_site_occupancy
  Li  Li0  1  0.00000000  0.50000000  0.25000000  1
  Li  Li1  1  0.00000000  0.00000000  0.00000000  1
  Ir  Ir0  1  0.00000000  0.50000000  0.75000000  1
  Ir  Ir1  1  0.00000000  0.00000000  0.50000000  1
  N  N0  1  0.50000000  0.96251300  0.12500000  1
  N  N1  1  0.50000000  0.03748700  0.62500000  1
  N  N2  1  0.57497300  0.53748700  0.41248700  1
  N  N3  1  0.42502700  0.46251300  0.83751300  1
loop_
_geom_bond_atom_site_label_1
_geom_bond_atom_site_label_2
_geom_bond_distance
_geom_bond_site_symmetry_2
Li0 N2 2.111925 1_555
Li0 N1 2.111930 1_565
Li0 N0 2.111930 1_445
Li0 N3 2.111931 1_454
Li1 N3 2.111928 1_444
Li1 N1 2.111931 1_454
Li1 N0 2.111931 1_545
Li1 N2 2.111933 1_555
Ir0 N0 1.914012 1_556
Ir0 N2 1.914012 1_455
Ir0 N1 1.914012 1_455
Ir0 N3 1.914018 1_555
Ir1 N3 1.914009 1_555
Ir1 N0 1.914013 1_445
Ir1 N1 1.914013 1_555
Ir1 N2 1.914015 1_445
