# generated using pymatgen
data_BaNaZrBiO6
_symmetry_space_group_name_H-M   'P 1'
_cell_length_a   8.47201129
_cell_length_b   8.35866948
_cell_length_c   8.44311052
_cell_angle_alpha   90.00000000
_cell_angle_beta   90.00000000
_cell_angle_gamma   90.00000000
_symmetry_Int_Tables_number   1
_chemical_formula_structural   BaNaZrBiO6
_chemical_formula_sum   'Ba4 Na4 Zr4 Bi4 O24'
_cell_volume   597.89669487
_cell_formula_units_Z   4
loop_
 _symmetry_equiv_pos_site_id
 _symmetry_equiv_pos_as_xyz
  1  'x, y, z'
loop_
 _atom_site_type_symbol
 _atom_site_label
 _atom_site_symmetry_multiplicity
 _atom_site_fract_x
 _atom_site_fract_y
 _atom_site_fract_z
 _atom_site_occupancy
  Ba  Ba0  1  -0.00000000  0.00000000  0.00000000  1
  Ba  Ba1  1  0.50000000  0.50000000  0.50000000  1
  Ba  Ba2  1  -0.00000000  0.50000000  0.50000000  1
  Ba  Ba3  1  0.50000000  0.00000000  -0.00000000  1
  Na  Na0  1  0.50000000  0.00000000  0.50000000  1
  Na  Na1  1  0.50000000  0.50000000  0.00000000  1
  Na  Na2  1  0.00000000  0.50000000  0.00000000  1
  Na  Na3  1  0.00000000  0.00000000  0.50000000  1
  Zr  Zr0  1  0.25000000  0.25000000  0.25000000  1
  Zr  Zr1  1  0.75000000  0.75000000  0.25000000  1
  Zr  Zr2  1  0.75000000  0.25000000  0.75000000  1
  Zr  Zr3  1  0.25000000  0.75000000  0.75000000  1
  Bi  Bi0  1  0.75000000  0.75000000  0.75000000  1
  Bi  Bi1  1  0.25000000  0.25000000  0.75000000  1
  Bi  Bi2  1  0.25000000  0.75000000  0.25000000  1
  Bi  Bi3  1  0.75000000  0.25000000  0.25000000  1
  O  O0  1  0.00177946  0.22580126  0.27642328  1
  O  O1  1  0.99822054  0.77419874  0.27642328  1
  O  O2  1  0.99822054  0.22580126  0.72357672  1
  O  O3  1  0.00177946  0.77419874  0.72357672  1
  O  O4  1  0.26769384  0.00201993  0.22444418  1
  O  O5  1  0.26769384  0.99798007  0.77555582  1
  O  O6  1  0.73230616  0.99798007  0.22444418  1
  O  O7  1  0.73230616  0.00201993  0.77555582  1
  O  O8  1  0.22247070  0.26552236  0.00192639  1
  O  O9  1  0.77752930  0.26552236  0.99807361  1
  O  O10  1  0.22247070  0.73447764  0.99807361  1
  O  O11  1  0.77752930  0.73447764  0.00192639  1
  O  O12  1  0.49822054  0.27419874  0.22357672  1
  O  O13  1  0.50177946  0.72580126  0.22357672  1
  O  O14  1  0.50177946  0.27419874  0.77642328  1
  O  O15  1  0.49822054  0.72580126  0.77642328  1
  O  O16  1  0.23230616  0.49798007  0.27555582  1
  O  O17  1  0.23230616  0.50201993  0.72444418  1
  O  O18  1  0.76769384  0.50201993  0.27555582  1
  O  O19  1  0.76769384  0.49798007  0.72444418  1
  O  O20  1  0.27752930  0.23447764  0.49807361  1
  O  O21  1  0.72247070  0.23447764  0.50192639  1
  O  O22  1  0.27752930  0.76552236  0.50192639  1
  O  O23  1  0.72247070  0.76552236  0.49807361  1
loop_
_geom_bond_atom_site_label_1
_geom_bond_atom_site_label_2
_geom_bond_distance
_geom_bond_site_symmetry_2
Ba0 O10 2.911775 1_544
Ba0 O8 2.911775 1_555
Ba0 O11 2.911775 1_445
Ba0 O9 2.911775 1_454
Ba0 O7 2.955458 1_454
Ba0 O6 2.955458 1_445
Ba0 O5 2.955458 1_544
Ba0 O4 2.955458 1_555
Ba0 O0 3.001576 1_555
Ba0 O1 3.001576 1_445
Ba0 O3 3.001576 1_544
Ba0 O2 3.001576 1_454
Ba1 O22 2.911775 1_555
Ba1 O23 2.911775 1_555
Ba1 O21 2.911775 1_555
Ba1 O20 2.911775 1_555
Ba1 O17 2.955458 1_555
Ba1 O18 2.955458 1_555
Ba1 O19 2.955458 1_555
Ba1 O16 2.955458 1_555
Ba1 O12 3.001576 1_555
Ba1 O13 3.001576 1_555
Ba1 O14 3.001576 1_555
Ba1 O15 3.001576 1_555
Ba2 O18 2.732171 1_455
Ba2 O19 2.732171 1_455
Ba2 O16 2.732171 1_555
Ba2 O17 2.732171 1_555
Ba2 O1 2.969267 1_455
Ba2 O0 2.969267 1_555
Ba2 O3 2.969267 1_555
Ba2 O2 2.969267 1_455
Ba2 O23 3.233319 1_455
Ba2 O22 3.233319 1_555
Ba2 O20 3.233319 1_555
Ba2 O21 3.233319 1_455
Ba3 O5 2.732171 1_544
Ba3 O4 2.732171 1_555
Ba3 O7 2.732171 1_554
Ba3 O6 2.732171 1_545
Ba3 O15 2.969267 1_544
Ba3 O13 2.969267 1_545
Ba3 O12 2.969267 1_555
Ba3 O14 2.969267 1_554
Ba3 O11 3.233319 1_545
Ba3 O10 3.233319 1_544
Ba3 O9 3.233319 1_554
Ba3 O8 3.233319 1_555
Na0 O23 2.719178 1_545
Na0 O22 2.719178 1_545
Na0 O21 2.719178 1_555
Na0 O20 2.719178 1_555
Na1 O15 2.669428 1_554
Na1 O14 2.669428 1_554
Na1 O12 2.669428 1_555
Na1 O13 2.669428 1_555
Na2 O8 2.719178 1_555
Na2 O11 2.719178 1_455
Na2 O10 2.719178 1_554
Na2 O9 2.719178 1_454
Na3 O2 2.669428 1_455
Na3 O3 2.669428 1_545
Na3 O1 2.669428 1_445
Na3 O0 2.669428 1_555
Bi0 O7 2.122872 1_565
Bi0 O19 2.122872 1_555
Bi0 O11 2.143721 1_556
Bi0 O23 2.143721 1_555
Bi0 O15 2.154230 1_555
Bi0 O3 2.154230 1_655
Bi1 O17 2.122872 1_555
Bi1 O5 2.122872 1_545
Bi1 O8 2.143721 1_556
Bi1 O20 2.143721 1_555
Bi1 O14 2.154230 1_555
Bi1 O2 2.154230 1_455
Bi2 O4 2.122872 1_565
Bi2 O16 2.122872 1_555
Bi2 O22 2.143721 1_555
Bi2 O10 2.143721 1_554
Bi2 O13 2.154230 1_555
Bi2 O1 2.154230 1_455
Bi3 O6 2.122872 1_545
Bi3 O18 2.122872 1_555
Bi3 O21 2.143721 1_555
Bi3 O9 2.143721 1_554
Bi3 O12 2.154230 1_555
Bi3 O0 2.154230 1_655
O0 Zr0 2.124379 1_555
O1 Zr1 2.124379 1_555
O2 Zr2 2.124379 1_555
O3 Zr3 2.124379 1_555
O4 Zr0 2.089368 1_555
O5 Zr3 2.089368 1_555
O6 Zr1 2.089368 1_555
O7 Zr2 2.089368 1_555
O8 Zr0 2.111448 1_555
O9 Zr2 2.111448 1_555
O10 Zr3 2.111448 1_555
O11 Zr1 2.111448 1_555
O12 Zr0 2.124379 1_555
O13 Zr1 2.124379 1_555
O14 Zr2 2.124379 1_555
O15 Zr3 2.124379 1_555
O16 Zr0 2.089368 1_555
O17 Zr3 2.089368 1_555
O18 Zr1 2.089368 1_555
O19 Zr2 2.089368 1_555
O20 Zr0 2.111448 1_555
O21 Zr2 2.111448 1_555
O22 Zr3 2.111448 1_555
O23 Zr1 2.111448 1_555
