# generated using pymatgen
data_SrNd2Ti4O12
_symmetry_space_group_name_H-M   'P 1'
_cell_length_a   5.50006300
_cell_length_b   5.50006300
_cell_length_c   7.81663800
_cell_angle_alpha   90.00000000
_cell_angle_beta   90.00000000
_cell_angle_gamma   90.00000000
_symmetry_Int_Tables_number   1
_chemical_formula_structural   SrNd2Ti4O12
_chemical_formula_sum   'Sr1 Nd2 Ti4 O12'
_cell_volume   236.45871646
_cell_formula_units_Z   1
loop_
 _symmetry_equiv_pos_site_id
 _symmetry_equiv_pos_as_xyz
  1  'x, y, z'
loop_
 _atom_site_type_symbol
 _atom_site_label
 _atom_site_symmetry_multiplicity
 _atom_site_fract_x
 _atom_site_fract_y
 _atom_site_fract_z
 _atom_site_occupancy
  Sr  Sr0  1  0.00000000  0.00000000  0.50000000  1
  Nd  Nd0  1  0.50000000  0.50000000  0.50000000  1
  Nd  Nd1  1  0.00000000  0.00000000  0.00000000  1
  Ti  Ti0  1  0.50000000  0.00000000  0.24266000  1
  Ti  Ti1  1  0.00000000  0.50000000  0.24266000  1
  Ti  Ti2  1  0.50000000  0.00000000  0.75734000  1
  Ti  Ti3  1  0.00000000  0.50000000  0.75734000  1
  O  O0  1  0.50000000  0.00000000  0.50000000  1
  O  O1  1  0.00000000  0.50000000  0.50000000  1
  O  O2  1  0.24446000  0.24446000  0.74633500  1
  O  O3  1  0.75554000  0.75554000  0.74633500  1
  O  O4  1  0.24446000  0.75554000  0.74633500  1
  O  O5  1  0.75554000  0.24446000  0.74633500  1
  O  O6  1  0.50000000  0.00000000  0.00000000  1
  O  O7  1  0.00000000  0.50000000  0.00000000  1
  O  O8  1  0.24446000  0.24446000  0.25366500  1
  O  O9  1  0.75554000  0.75554000  0.25366500  1
  O  O10  1  0.24446000  0.75554000  0.25366500  1
  O  O11  1  0.75554000  0.24446000  0.25366500  1
loop_
_geom_bond_atom_site_label_1
_geom_bond_atom_site_label_2
_geom_bond_distance
_geom_bond_site_symmetry_2
Nd0 O0 2.750031 1_555
Nd0 O0 2.750031 1_565
Nd0 O1 2.750031 1_555
Nd0 O1 2.750031 1_655
Nd0 O11 2.767377 1_555
Nd0 O10 2.767377 1_555
Nd0 O8 2.767377 1_555
Nd0 O5 2.767377 1_555
Nd0 O2 2.767377 1_555
Nd0 O9 2.767377 1_555
Nd0 O3 2.767377 1_555
Nd0 O4 2.767377 1_555
Nd1 O8 2.747204 1_555
Nd1 O10 2.747204 1_545
Nd1 O11 2.747204 1_455
Nd1 O9 2.747204 1_445
Nd1 O5 2.747204 1_454
Nd1 O3 2.747204 1_444
Nd1 O2 2.747204 1_554
Nd1 O4 2.747204 1_544
Nd1 O7 2.750031 1_545
Nd1 O6 2.750031 1_555
Nd1 O7 2.750031 1_555
Nd1 O6 2.750031 1_455
O0 Ti2 2.011534 1_555
O0 Ti0 2.011534 1_555
O0 Sr0 2.750031 1_555
O0 Sr0 2.750031 1_655
O1 Ti1 2.011534 1_555
O1 Ti3 2.011534 1_555
O1 Sr0 2.750031 1_565
O1 Sr0 2.750031 1_555
O2 Ti3 1.946945 1_555
O2 Ti2 1.946945 1_555
O2 Sr0 2.706141 1_555
O3 Ti3 1.946945 1_655
O3 Ti2 1.946945 1_565
O3 Sr0 2.706141 1_665
O4 Ti3 1.946945 1_555
O4 Ti2 1.946945 1_565
O4 Sr0 2.706141 1_565
O5 Ti3 1.946945 1_655
O5 Ti2 1.946945 1_555
O5 Sr0 2.706141 1_655
O6 Ti2 1.896785 1_554
O6 Ti0 1.896785 1_555
O7 Ti3 1.896785 1_554
O7 Ti1 1.896785 1_555
O8 Ti0 1.946945 1_555
O8 Ti1 1.946945 1_555
O8 Sr0 2.706141 1_555
O9 Ti0 1.946945 1_565
O9 Ti1 1.946945 1_655
O9 Sr0 2.706141 1_665
O10 Ti0 1.946945 1_565
O10 Ti1 1.946945 1_555
O10 Sr0 2.706141 1_565
O11 Ti1 1.946945 1_655
O11 Ti0 1.946945 1_555
O11 Sr0 2.706141 1_655
