# generated using pymatgen
data_Mg14ZnNiO16
_symmetry_space_group_name_H-M   'P 1'
_cell_length_a   8.51966299
_cell_length_b   8.51966299
_cell_length_c   4.26153454
_cell_angle_alpha   90.00000000
_cell_angle_beta   90.00000000
_cell_angle_gamma   90.00000000
_symmetry_Int_Tables_number   1
_chemical_formula_structural   Mg14ZnNiO16
_chemical_formula_sum   'Mg14 Zn1 Ni1 O16'
_cell_volume   309.32202485
_cell_formula_units_Z   1
loop_
 _symmetry_equiv_pos_site_id
 _symmetry_equiv_pos_as_xyz
  1  'x, y, z'
loop_
 _atom_site_type_symbol
 _atom_site_label
 _atom_site_symmetry_multiplicity
 _atom_site_fract_x
 _atom_site_fract_y
 _atom_site_fract_z
 _atom_site_occupancy
  Mg  Mg0  1  0.00000000  0.50000000  0.00000000  1
  Mg  Mg1  1  0.50000000  0.00000000  0.00000000  1
  Mg  Mg2  1  0.00000000  0.25006265  0.50000000  1
  Mg  Mg3  1  0.00000000  0.74993735  0.50000000  1
  Mg  Mg4  1  0.50000000  0.25096074  0.50000000  1
  Mg  Mg5  1  0.50000000  0.74903926  0.50000000  1
  Mg  Mg6  1  0.25006265  0.00000000  0.50000000  1
  Mg  Mg7  1  0.25096074  0.50000000  0.50000000  1
  Mg  Mg8  1  0.74993735  0.00000000  0.50000000  1
  Mg  Mg9  1  0.74903926  0.50000000  0.50000000  1
  Mg  Mg10  1  0.25046727  0.25046727  0.00000000  1
  Mg  Mg11  1  0.25046727  0.74953273  0.00000000  1
  Mg  Mg12  1  0.74953273  0.25046727  0.00000000  1
  Mg  Mg13  1  0.74953273  0.74953273  0.00000000  1
  Zn  Zn0  1  0.00000000  0.00000000  0.00000000  1
  Ni  Ni0  1  0.50000000  0.50000000  0.00000000  1
  O  O0  1  0.25359073  0.00000000  0.00000000  1
  O  O1  1  0.24948714  0.50000000  0.00000000  1
  O  O2  1  0.74640927  0.00000000  0.00000000  1
  O  O3  1  0.75051286  0.50000000  0.00000000  1
  O  O4  1  0.25001001  0.25001001  0.50000000  1
  O  O5  1  0.25001001  0.74998999  0.50000000  1
  O  O6  1  0.74998999  0.25001001  0.50000000  1
  O  O7  1  0.74998999  0.74998999  0.50000000  1
  O  O8  1  0.00000000  0.00000000  0.50000000  1
  O  O9  1  0.00000000  0.50000000  0.50000000  1
  O  O10  1  0.50000000  0.00000000  0.50000000  1
  O  O11  1  0.50000000  0.50000000  0.50000000  1
  O  O12  1  0.00000000  0.25359073  0.00000000  1
  O  O13  1  0.00000000  0.74640927  0.00000000  1
  O  O14  1  0.50000000  0.24948714  0.00000000  1
  O  O15  1  0.50000000  0.75051286  0.00000000  1
loop_
_geom_bond_atom_site_label_1
_geom_bond_atom_site_label_2
_geom_bond_distance
_geom_bond_site_symmetry_2
Mg0 O13 2.099324 1_555
Mg0 O12 2.099324 1_555
Mg0 O1 2.125546 1_555
Mg0 O3 2.125546 1_455
Mg0 O9 2.130767 1_555
Mg0 O9 2.130767 1_554
Mg1 O0 2.099324 1_555
Mg1 O2 2.099324 1_555
Mg1 O14 2.125546 1_555
Mg1 O15 2.125546 1_545
Mg1 O10 2.130767 1_555
Mg1 O10 2.130767 1_554
Mg2 O9 2.129382 1_555
Mg2 O4 2.130001 1_555
Mg2 O6 2.130001 1_455
Mg2 O8 2.130450 1_555
Mg2 O12 2.130979 1_556
Mg2 O12 2.130979 1_555
Mg3 O9 2.129382 1_555
Mg3 O7 2.130001 1_455
Mg3 O5 2.130001 1_555
Mg3 O8 2.130450 1_565
Mg3 O13 2.130979 1_555
Mg3 O13 2.130979 1_556
Mg4 O11 2.121731 1_555
Mg4 O6 2.129846 1_555
Mg4 O4 2.129846 1_555
Mg4 O14 2.130804 1_555
Mg4 O14 2.130804 1_556
Mg4 O10 2.138101 1_555
Mg5 O11 2.121731 1_555
Mg5 O7 2.129846 1_555
Mg5 O5 2.129846 1_555
Mg5 O15 2.130804 1_556
Mg5 O15 2.130804 1_555
Mg5 O10 2.138101 1_565
Mg6 O10 2.129382 1_555
Mg6 O4 2.130001 1_555
Mg6 O5 2.130001 1_545
Mg6 O8 2.130450 1_555
Mg6 O0 2.130979 1_555
Mg6 O0 2.130979 1_556
Mg7 O11 2.121731 1_555
Mg7 O4 2.129846 1_555
Mg7 O5 2.129846 1_555
Mg7 O1 2.130804 1_556
Mg7 O1 2.130804 1_555
Mg7 O9 2.138101 1_555
Mg8 O10 2.129382 1_555
Mg8 O7 2.130001 1_545
Mg8 O6 2.130001 1_555
Mg8 O8 2.130450 1_655
Mg8 O2 2.130979 1_556
Mg8 O2 2.130979 1_555
Mg9 O11 2.121731 1_555
Mg9 O6 2.129846 1_555
Mg9 O7 2.129846 1_555
Mg9 O3 2.130804 1_556
Mg9 O3 2.130804 1_555
Mg9 O9 2.138101 1_655
Mg10 O1 2.125951 1_555
Mg10 O14 2.125951 1_555
Mg10 O4 2.130774 1_555
Mg10 O4 2.130774 1_554
Mg10 O0 2.134063 1_555
Mg10 O12 2.134063 1_555
Mg11 O1 2.125951 1_555
Mg11 O15 2.125951 1_555
Mg11 O5 2.130774 1_554
Mg11 O5 2.130774 1_555
Mg11 O13 2.134063 1_555
Mg11 O0 2.134063 1_565
Mg12 O3 2.125951 1_555
Mg12 O14 2.125951 1_555
Mg12 O6 2.130774 1_555
Mg12 O6 2.130774 1_554
Mg12 O12 2.134063 1_655
Mg12 O2 2.134063 1_555
Mg13 O3 2.125951 1_555
Mg13 O15 2.125951 1_555
Mg13 O7 2.130774 1_555
Mg13 O7 2.130774 1_554
Mg13 O2 2.134063 1_565
Mg13 O13 2.134063 1_655
Ni0 O11 2.130767 1_554
Ni0 O11 2.130767 1_555
Ni0 O15 2.134285 1_555
Ni0 O3 2.134285 1_555
Ni0 O1 2.134285 1_555
Ni0 O14 2.134285 1_555
O0 Zn0 2.160508 1_555
O2 Zn0 2.160508 1_655
O8 Zn0 2.130767 1_556
O8 Zn0 2.130767 1_555
O12 Zn0 2.160508 1_555
O13 Zn0 2.160508 1_565
