# generated using pymatgen
data_Sm4CdNi
_symmetry_space_group_name_H-M   'P 1'
_cell_length_a   9.70100383
_cell_length_b   9.70096958
_cell_length_c   9.70100226
_cell_angle_alpha   60.00135106
_cell_angle_beta   60.00149348
_cell_angle_gamma   60.00133693
_symmetry_Int_Tables_number   1
_chemical_formula_structural   Sm4CdNi
_chemical_formula_sum   'Sm16 Cd4 Ni4'
_cell_volume   645.57566402
_cell_formula_units_Z   4
loop_
 _symmetry_equiv_pos_site_id
 _symmetry_equiv_pos_as_xyz
  1  'x, y, z'
loop_
 _atom_site_type_symbol
 _atom_site_label
 _atom_site_symmetry_multiplicity
 _atom_site_fract_x
 _atom_site_fract_y
 _atom_site_fract_z
 _atom_site_occupancy
  Sm  Sm0  1  0.34814261  0.34812609  0.34813719  1
  Sm  Sm1  1  0.34814103  0.34812376  0.95559765  1
  Sm  Sm2  1  0.34813537  0.95560263  0.34812975  1
  Sm  Sm3  1  0.95559452  0.34812673  0.34813799  1
  Sm  Sm4  1  0.80958168  0.19041843  0.19041543  1
  Sm  Sm5  1  0.19041621  0.80958512  0.80958049  1
  Sm  Sm6  1  0.19041561  0.80958416  0.19041817  1
  Sm  Sm7  1  0.80958205  0.19041945  0.80958409  1
  Sm  Sm8  1  0.19041411  0.19041985  0.80958189  1
  Sm  Sm9  1  0.80958034  0.80958545  0.19041755  1
  Sm  Sm10  1  0.93686523  0.56313456  0.56313472  1
  Sm  Sm11  1  0.56313715  0.93686269  0.93686380  1
  Sm  Sm12  1  0.56313730  0.93686341  0.56313507  1
  Sm  Sm13  1  0.93686426  0.56313485  0.93686459  1
  Sm  Sm14  1  0.56313640  0.56313473  0.93686443  1
  Sm  Sm15  1  0.93686473  0.93686394  0.56313522  1
  Cd  Cd0  1  0.57979548  0.57979614  0.57979469  1
  Cd  Cd1  1  0.57979462  0.57979479  0.26061498  1
  Cd  Cd2  1  0.57979514  0.26062379  0.57979542  1
  Cd  Cd3  1  0.26061630  0.57979388  0.57979369  1
  Ni  Ni0  1  0.14235610  0.14236048  0.14235963  1
  Ni  Ni1  1  0.14235917  0.14236701  0.57291481  1
  Ni  Ni2  1  0.14236196  0.57291507  0.14236382  1
  Ni  Ni3  1  0.57291360  0.14236497  0.14236393  1
loop_
_geom_bond_atom_site_label_1
_geom_bond_atom_site_label_2
_geom_bond_distance
_geom_bond_site_symmetry_2
Cd0 Cd2 3.096279 1_555
Cd0 Cd1 3.096374 1_555
Cd0 Cd3 3.096374 1_555
Cd0 Sm12 3.310197 1_555
Cd0 Sm10 3.310217 1_555
Cd0 Sm14 3.310221 1_555
Cd0 Sm3 3.472305 1_555
Cd0 Sm2 3.472320 1_555
Cd0 Sm1 3.472324 1_555
Cd0 Sm7 3.512219 1_555
Cd0 Sm9 3.512226 1_555
Cd0 Sm5 3.512236 1_555
Cd1 Cd2 3.096382 1_555
Cd1 Cd3 3.096422 1_555
Cd1 Sm14 3.310208 1_554
Cd1 Sm11 3.310273 1_554
Cd1 Sm13 3.310293 1_554
Cd1 Sm0 3.472200 1_555
Cd1 Sm3 3.472266 1_555
Cd1 Sm2 3.472288 1_555
Cd1 Sm9 3.512154 1_555
Cd1 Sm4 3.512190 1_555
Cd1 Sm6 3.512210 1_555
Cd2 Cd3 3.096370 1_555
Cd2 Sm12 3.310292 1_545
Cd2 Sm11 3.310321 1_545
Cd2 Sm15 3.310322 1_545
Cd2 Sm3 3.472181 1_555
Cd2 Sm1 3.472191 1_555
Cd2 Sm0 3.472198 1_555
Cd2 Sm7 3.512121 1_555
Cd2 Sm4 3.512258 1_555
Cd2 Sm8 3.512262 1_555
Cd3 Sm10 3.310213 1_455
Cd3 Sm15 3.310286 1_455
Cd3 Sm13 3.310307 1_455
Cd3 Sm0 3.472212 1_555
Cd3 Sm1 3.472307 1_555
Cd3 Sm2 3.472314 1_555
Cd3 Sm5 3.512156 1_555
Cd3 Sm8 3.512182 1_555
Cd3 Sm6 3.512196 1_555
Ni0 Sm3 2.829088 1_455
Ni0 Sm1 2.829115 1_554
Ni0 Sm2 2.829125 1_545
Ni0 Sm6 2.839658 1_545
Ni0 Sm4 2.839667 1_455
Ni0 Sm8 2.839686 1_554
Ni0 Sm13 3.508566 1_454
Ni0 Sm15 3.508590 1_445
Ni0 Sm11 3.508636 1_544
Ni1 Sm3 2.829069 1_455
Ni1 Sm0 2.829084 1_555
Ni1 Sm2 2.829128 1_545
Ni1 Sm8 2.839648 1_555
Ni1 Sm7 2.839751 1_455
Ni1 Sm5 2.839756 1_545
Ni1 Sm10 3.508503 1_455
Ni1 Sm15 3.508518 1_445
Ni1 Sm12 3.508606 1_545
Ni2 Sm0 2.829163 1_555
Ni2 Sm3 2.829170 1_455
Ni2 Sm1 2.829183 1_554
Ni2 Sm6 2.839663 1_555
Ni2 Sm9 2.839775 1_455
Ni2 Sm5 2.839785 1_554
Ni2 Sm13 3.508520 1_454
Ni2 Sm10 3.508548 1_455
Ni2 Sm14 3.508579 1_554
Ni3 Sm0 2.829025 1_555
Ni3 Sm1 2.829049 1_554
Ni3 Sm2 2.829067 1_545
Ni3 Sm4 2.839640 1_555
Ni3 Sm9 2.839744 1_545
Ni3 Sm7 2.839765 1_554
Ni3 Sm14 3.508530 1_554
Ni3 Sm11 3.508541 1_544
Ni3 Sm12 3.508556 1_545
