# generated using pymatgen
data_KNaW(OF2)2
_symmetry_space_group_name_H-M   'P 1'
_cell_length_a   6.16968900
_cell_length_b   6.16968900
_cell_length_c   8.39346200
_cell_angle_alpha   90.00000000
_cell_angle_beta   90.00000000
_cell_angle_gamma   90.00000000
_symmetry_Int_Tables_number   1
_chemical_formula_structural   KNaW(OF2)2
_chemical_formula_sum   'K2 Na2 W2 O4 F8'
_cell_volume   319.49765442
_cell_formula_units_Z   2
loop_
 _symmetry_equiv_pos_site_id
 _symmetry_equiv_pos_as_xyz
  1  'x, y, z'
loop_
 _atom_site_type_symbol
 _atom_site_label
 _atom_site_symmetry_multiplicity
 _atom_site_fract_x
 _atom_site_fract_y
 _atom_site_fract_z
 _atom_site_occupancy
  K  K0  1  0.50000000  0.50000000  0.00000000  1
  K  K1  1  0.00000000  0.00000000  0.00000000  1
  Na  Na0  1  0.00000000  0.50000000  0.72628300  1
  Na  Na1  1  0.50000000  0.00000000  0.27371700  1
  W  W0  1  0.00000000  0.50000000  0.24113100  1
  W  W1  1  0.50000000  0.00000000  0.75886900  1
  O  O0  1  0.00000000  0.50000000  0.45572300  1
  O  O1  1  0.50000000  0.00000000  0.54427700  1
  O  O2  1  0.00000000  0.50000000  0.01832800  1
  O  O3  1  0.50000000  0.00000000  0.98167200  1
  F  F0  1  0.22616800  0.27383200  0.23232100  1
  F  F1  1  0.77383200  0.27383200  0.23232100  1
  F  F2  1  0.22616800  0.72616800  0.23232100  1
  F  F3  1  0.77383200  0.72616800  0.23232100  1
  F  F4  1  0.27383200  0.22616800  0.76767900  1
  F  F5  1  0.72616800  0.22616800  0.76767900  1
  F  F6  1  0.27383200  0.77383200  0.76767900  1
  F  F7  1  0.72616800  0.77383200  0.76767900  1
loop_
_geom_bond_atom_site_label_1
_geom_bond_atom_site_label_2
_geom_bond_distance
_geom_bond_site_symmetry_2
K0 O3 3.088678 1_564
K0 O2 3.088678 1_555
K0 O2 3.088678 1_655
K0 O3 3.088678 1_554
K1 O2 3.088678 1_555
K1 O3 3.088678 1_454
K1 O3 3.088678 1_554
K1 O2 3.088678 1_545
Na0 O0 2.270935 1_555
Na0 O2 2.451269 1_556
Na1 O1 2.270935 1_555
Na1 O3 2.451269 1_554
O0 W0 1.801170 1_555
O1 W1 1.801170 1_555
O2 W0 1.870089 1_555
O3 W1 1.870089 1_555
F0 W0 1.974759 1_555
F0 Na1 2.414387 1_555
F0 K0 2.933221 1_555
F0 K1 2.933221 1_555
F1 W0 1.974759 1_655
F1 Na1 2.414387 1_555
F1 K0 2.933221 1_555
F1 K1 2.933221 1_655
F2 W0 1.974759 1_555
F2 Na1 2.414387 1_565
F2 K0 2.933221 1_555
F2 K1 2.933221 1_565
F3 W0 1.974759 1_655
F3 Na1 2.414387 1_565
F3 K0 2.933221 1_555
F3 K1 2.933221 1_665
F4 W1 1.974759 1_555
F4 Na0 2.414387 1_555
F4 K0 2.933221 1_556
F4 K1 2.933221 1_556
F5 W1 1.974759 1_555
F5 Na0 2.414387 1_655
F5 K1 2.933221 1_656
F5 K0 2.933221 1_556
F6 W1 1.974759 1_565
F6 Na0 2.414387 1_555
F6 K0 2.933221 1_556
F6 K1 2.933221 1_566
F7 W1 1.974759 1_565
F7 Na0 2.414387 1_655
F7 K1 2.933221 1_666
F7 K0 2.933221 1_556
