# generated using pymatgen
data_Eu2MgS4
_symmetry_space_group_name_H-M   'P 1'
_cell_length_a   8.27748900
_cell_length_b   8.27748900
_cell_length_c   8.90289900
_cell_angle_alpha   90.00000000
_cell_angle_beta   90.00000000
_cell_angle_gamma   90.00000000
_symmetry_Int_Tables_number   1
_chemical_formula_structural   Eu2MgS4
_chemical_formula_sum   'Eu8 Mg4 S16'
_cell_volume   609.99836516
_cell_formula_units_Z   4
loop_
 _symmetry_equiv_pos_site_id
 _symmetry_equiv_pos_as_xyz
  1  'x, y, z'
loop_
 _atom_site_type_symbol
 _atom_site_label
 _atom_site_symmetry_multiplicity
 _atom_site_fract_x
 _atom_site_fract_y
 _atom_site_fract_z
 _atom_site_occupancy
  Eu  Eu0  1  0.13153000  0.25000000  0.62500000  1
  Eu  Eu1  1  0.75000000  0.13153000  0.37500000  1
  Eu  Eu2  1  0.86847000  0.75000000  0.62500000  1
  Eu  Eu3  1  0.75000000  0.36847000  0.87500000  1
  Eu  Eu4  1  0.63153000  0.75000000  0.12500000  1
  Eu  Eu5  1  0.25000000  0.86847000  0.37500000  1
  Eu  Eu6  1  0.36847000  0.25000000  0.12500000  1
  Eu  Eu7  1  0.25000000  0.63153000  0.87500000  1
  Mg  Mg0  1  0.00000000  0.00000000  0.00000000  1
  Mg  Mg1  1  0.50000000  0.50000000  0.50000000  1
  Mg  Mg2  1  0.50000000  0.00000000  0.75000000  1
  Mg  Mg3  1  0.00000000  0.50000000  0.25000000  1
  S  S0  1  0.07083600  0.19956100  0.30922700  1
  S  S1  1  0.80043900  0.07083600  0.69077300  1
  S  S2  1  0.92916400  0.80043900  0.30922700  1
  S  S3  1  0.69956100  0.42916400  0.19077300  1
  S  S4  1  0.57083600  0.80043900  0.44077300  1
  S  S5  1  0.30043900  0.92916400  0.05922700  1
  S  S6  1  0.42916400  0.19956100  0.44077300  1
  S  S7  1  0.69956100  0.07083600  0.05922700  1
  S  S8  1  0.57083600  0.69956100  0.80922700  1
  S  S9  1  0.30043900  0.57083600  0.19077300  1
  S  S10  1  0.42916400  0.30043900  0.80922700  1
  S  S11  1  0.19956100  0.92916400  0.69077300  1
  S  S12  1  0.07083600  0.30043900  0.94077300  1
  S  S13  1  0.80043900  0.42916400  0.55922700  1
  S  S14  1  0.92916400  0.69956100  0.94077300  1
  S  S15  1  0.19956100  0.57083600  0.55922700  1
loop_
_geom_bond_atom_site_label_1
_geom_bond_atom_site_label_2
_geom_bond_distance
_geom_bond_site_symmetry_2
Eu0 S15 2.777199 1_555
Eu0 S11 2.777199 1_545
Eu0 S12 2.886190 1_555
Eu0 S0 2.886190 1_555
Eu0 S10 2.988988 1_555
Eu0 S6 2.988988 1_555
Eu0 S1 3.170673 1_455
Eu0 S13 3.170673 1_455
Eu1 S6 2.777199 1_555
Eu1 S0 2.777199 1_655
Eu1 S1 2.886190 1_555
Eu1 S7 2.886190 1_555
Eu1 S3 2.988988 1_555
Eu1 S13 2.988988 1_555
Eu1 S4 3.170673 1_545
Eu1 S2 3.170673 1_545
Eu2 S1 2.777199 1_565
Eu2 S13 2.777199 1_555
Eu2 S14 2.886190 1_555
Eu2 S2 2.886190 1_555
Eu2 S8 2.988988 1_555
Eu2 S4 2.988988 1_555
Eu2 S15 3.170673 1_655
Eu2 S11 3.170673 1_655
Eu3 S12 2.777199 1_655
Eu3 S10 2.777199 1_555
Eu3 S13 2.886190 1_555
Eu3 S3 2.886190 1_556
Eu3 S7 2.988988 1_556
Eu3 S1 2.988988 1_555
Eu3 S14 3.170673 1_555
Eu3 S8 3.170673 1_555
Eu4 S3 2.777199 1_555
Eu4 S7 2.777199 1_565
Eu4 S4 2.886190 1_555
Eu4 S8 2.886190 1_554
Eu4 S14 2.988988 1_554
Eu4 S2 2.988988 1_555
Eu4 S9 3.170673 1_555
Eu4 S5 3.170673 1_555
Eu5 S4 2.777199 1_555
Eu5 S2 2.777199 1_455
Eu5 S11 2.886190 1_555
Eu5 S5 2.886190 1_555
Eu5 S9 2.988988 1_555
Eu5 S15 2.988988 1_555
Eu5 S6 3.170673 1_565
Eu5 S0 3.170673 1_565
Eu6 S9 2.777199 1_555
Eu6 S5 2.777199 1_545
Eu6 S6 2.886190 1_555
Eu6 S10 2.886190 1_554
Eu6 S12 2.988988 1_554
Eu6 S0 2.988988 1_555
Eu6 S3 3.170673 1_555
Eu6 S7 3.170673 1_555
Eu7 S14 2.777199 1_455
Eu7 S8 2.777199 1_555
Eu7 S15 2.886190 1_555
Eu7 S9 2.886190 1_556
Eu7 S5 2.988988 1_556
Eu7 S11 2.988988 1_555
Eu7 S12 3.170673 1_555
Eu7 S10 3.170673 1_555
Mg0 S7 2.608910 1_455
Mg0 S5 2.608910 1_545
Mg0 S12 2.608910 1_554
Mg0 S14 2.608910 1_444
Mg1 S15 2.608910 1_555
Mg1 S13 2.608910 1_555
Mg1 S4 2.608910 1_555
Mg1 S6 2.608910 1_555
Mg2 S10 2.608910 1_555
Mg2 S8 2.608910 1_545
Mg2 S11 2.608910 1_545
Mg2 S1 2.608910 1_555
Mg3 S3 2.608910 1_455
Mg3 S0 2.608910 1_555
Mg3 S2 2.608910 1_455
Mg3 S9 2.608910 1_555
