# generated using pymatgen
data_PrInNi
_symmetry_space_group_name_H-M   'P 1'
_cell_length_a   7.89566710
_cell_length_b   7.89566754
_cell_length_c   3.86691200
_cell_angle_alpha   90.00000000
_cell_angle_beta   90.00000000
_cell_angle_gamma   119.55663442
_symmetry_Int_Tables_number   1
_chemical_formula_structural   PrInNi
_chemical_formula_sum   'Pr3 In3 Ni3'
_cell_volume   209.69862919
_cell_formula_units_Z   3
loop_
 _symmetry_equiv_pos_site_id
 _symmetry_equiv_pos_as_xyz
  1  'x, y, z'
loop_
 _atom_site_type_symbol
 _atom_site_label
 _atom_site_symmetry_multiplicity
 _atom_site_fract_x
 _atom_site_fract_y
 _atom_site_fract_z
 _atom_site_occupancy
  Pr  Pr0  1  0.34041500  0.34041500  0.50000000  1
  Pr  Pr1  1  0.66216400  0.00140900  0.50000000  1
  Pr  Pr2  1  0.00140900  0.66216400  0.50000000  1
  In  In0  1  0.67095800  0.67095800  0.00000000  1
  In  In1  1  0.32902100  0.00019800  0.00000000  1
  In  In2  1  0.00019800  0.32902100  0.00000000  1
  Ni  Ni0  1  0.99847000  0.99847000  0.00000000  1
  Ni  Ni1  1  0.66538000  0.33208300  0.00000000  1
  Ni  Ni2  1  0.33208300  0.66538000  0.00000000  1
loop_
_geom_bond_atom_site_label_1
_geom_bond_atom_site_label_2
_geom_bond_distance
_geom_bond_site_symmetry_2
In0 Ni0 2.603236 1_555
In0 Ni2 2.654195 1_555
In0 Ni1 2.654196 1_555
In0 Pr0 3.262070 1_555
In0 Pr0 3.262070 1_554
In0 Pr2 3.275571 1_655
In0 Pr2 3.275571 1_654
In0 Pr1 3.275572 1_565
In0 Pr1 3.275572 1_564
In1 Ni0 2.603217 1_445
In1 Ni2 2.655621 1_545
In1 Ni1 2.655951 1_555
In1 Pr1 3.260746 1_555
In1 Pr1 3.260746 1_554
In1 Pr0 3.274724 1_555
In1 Pr0 3.274724 1_554
In1 Pr2 3.277456 1_545
In1 Pr2 3.277456 1_544
In2 Ni0 2.603218 1_445
In2 Ni1 2.655621 1_455
In2 Ni2 2.655951 1_555
In2 Pr2 3.260746 1_555
In2 Pr2 3.260746 1_554
In2 Pr0 3.274724 1_554
In2 Pr0 3.274724 1_555
In2 Pr1 3.277456 1_455
In2 Pr1 3.277456 1_454
Ni0 Pr1 3.294013 1_565
Ni0 Pr1 3.294013 1_564
Ni0 Pr2 3.294013 1_654
Ni0 Pr2 3.294013 1_655
Ni0 Pr0 3.335497 1_664
Ni0 Pr0 3.335497 1_665
Ni1 Pr1 3.238865 1_555
Ni1 Pr1 3.238865 1_554
Ni1 Pr0 3.239216 1_554
Ni1 Pr0 3.239216 1_555
Ni1 Pr2 3.278425 1_655
Ni1 Pr2 3.278425 1_654
Ni2 Pr2 3.238865 1_555
Ni2 Pr2 3.238865 1_554
Ni2 Pr0 3.239216 1_555
Ni2 Pr0 3.239216 1_554
Ni2 Pr1 3.278425 1_565
Ni2 Pr1 3.278425 1_564
