# generated using pymatgen
data_La3NbSb5
_symmetry_space_group_name_H-M   'P 1'
_cell_length_a   9.59347721
_cell_length_b   9.59344170
_cell_length_c   6.34268034
_cell_angle_alpha   90.00002249
_cell_angle_beta   89.99998850
_cell_angle_gamma   119.99984011
_symmetry_Int_Tables_number   1
_chemical_formula_structural   La3NbSb5
_chemical_formula_sum   'La6 Nb2 Sb10'
_cell_volume   505.53897612
_cell_formula_units_Z   2
loop_
 _symmetry_equiv_pos_site_id
 _symmetry_equiv_pos_as_xyz
  1  'x, y, z'
loop_
 _atom_site_type_symbol
 _atom_site_label
 _atom_site_symmetry_multiplicity
 _atom_site_fract_x
 _atom_site_fract_y
 _atom_site_fract_z
 _atom_site_occupancy
  La  La0  1  0.61642107  0.00000424  0.74999924  1
  La  La1  1  0.38358239  0.00000365  0.25000084  1
  La  La2  1  0.00000351  0.61641962  0.74999955  1
  La  La3  1  0.00000014  0.38358325  0.25000067  1
  La  La4  1  0.38358494  0.38358468  0.74999953  1
  La  La5  1  0.61641767  0.61642089  0.25000073  1
  Nb  Nb0  1  0.00000093  0.00000025  0.49999882  1
  Nb  Nb1  1  0.00000078  0.00000057  0.00000096  1
  Sb  Sb0  1  0.25355546  0.00000621  0.75000475  1
  Sb  Sb1  1  0.74645016  0.00000123  0.24999665  1
  Sb  Sb2  1  0.00000444  0.25355447  0.75000269  1
  Sb  Sb3  1  -0.00000116  0.74644493  0.24999563  1
  Sb  Sb4  1  0.74644441  0.74644488  0.75000255  1
  Sb  Sb5  1  0.25355528  0.25355714  0.24999697  1
  Sb  Sb6  1  0.33332334  0.66666215  0.50000333  1
  Sb  Sb7  1  0.66666657  0.33332440  0.50000801  1
  Sb  Sb8  1  0.66666640  0.33332422  -0.00000790  1
  Sb  Sb9  1  0.33332366  0.66666221  -0.00000302  1
loop_
_geom_bond_atom_site_label_1
_geom_bond_atom_site_label_2
_geom_bond_distance
_geom_bond_site_symmetry_2
La0 Sb4 3.241492 1_545
La0 Sb2 3.241497 1_655
La0 Sb7 3.380882 1_555
La0 Sb8 3.380885 1_556
La0 Sb6 3.381092 1_545
La0 Sb9 3.381097 1_546
La0 Sb1 3.407846 1_556
La0 Sb1 3.407876 1_555
La0 Sb0 3.481152 1_555
La1 Sb5 3.241467 1_555
La1 Sb3 3.241513 1_545
La1 Sb7 3.380971 1_555
La1 Sb8 3.380975 1_555
La1 Sb6 3.381052 1_545
La1 Sb9 3.381055 1_545
La1 Sb0 3.407830 1_554
La1 Sb0 3.407876 1_555
La1 Sb1 3.481175 1_555
La2 Sb4 3.241509 1_455
La2 Sb0 3.241515 1_565
La2 Sb6 3.380914 1_555
La2 Sb9 3.380920 1_556
La2 Sb7 3.381047 1_455
La2 Sb8 3.381052 1_456
La2 Sb3 3.407826 1_556
La2 Sb3 3.407873 1_555
La2 Sb2 3.481130 1_555
La3 Sb1 3.241478 1_455
La3 Sb5 3.241479 1_555
La3 Sb6 3.380957 1_555
La3 Sb9 3.380962 1_555
La3 Sb7 3.381010 1_455
La3 Sb8 3.381015 1_455
La3 Sb2 3.407848 1_554
La3 Sb2 3.407873 1_555
La3 Sb3 3.481099 1_555
La4 Sb0 3.241445 1_555
La4 Sb2 3.241475 1_555
La4 Sb6 3.381004 1_555
La4 Sb9 3.381005 1_556
La4 Sb7 3.381025 1_555
La4 Sb8 3.381028 1_556
La4 Sb5 3.407840 1_556
La4 Sb5 3.407869 1_555
La4 Sb4 3.481090 1_555
La5 Sb1 3.241456 1_565
La5 Sb3 3.241492 1_655
La5 Sb6 3.381065 1_555
La5 Sb9 3.381067 1_555
La5 Sb7 3.381130 1_555
La5 Sb8 3.381134 1_555
La5 Sb4 3.407833 1_554
La5 Sb4 3.407854 1_555
La5 Sb5 3.481121 1_555
Nb0 Sb1 2.903644 1_455
Nb0 Sb2 2.903652 1_555
Nb0 Sb0 2.903660 1_555
Nb0 Sb3 2.903664 1_545
Nb0 Sb5 2.903679 1_555
Nb0 Sb4 2.903689 1_445
Nb1 Sb1 2.903619 1_455
Nb1 Sb0 2.903628 1_554
Nb1 Sb2 2.903630 1_554
Nb1 Sb3 2.903639 1_545
Nb1 Sb5 2.903658 1_555
Nb1 Sb4 2.903670 1_444
Sb6 Sb9 3.171300 1_556
Sb6 Sb9 3.171380 1_555
Sb7 Sb8 3.171239 1_556
Sb7 Sb8 3.171441 1_555
