# generated using pymatgen
data_Hf2SiAs3
_symmetry_space_group_name_H-M   'P 1'
_cell_length_a   3.64097005
_cell_length_b   3.64097005
_cell_length_c   8.16615908
_cell_angle_alpha   90.00000000
_cell_angle_beta   90.00000000
_cell_angle_gamma   90.00000000
_symmetry_Int_Tables_number   1
_chemical_formula_structural   Hf2SiAs3
_chemical_formula_sum   'Hf2 Si1 As3'
_cell_volume   108.25601815
_cell_formula_units_Z   1
loop_
 _symmetry_equiv_pos_site_id
 _symmetry_equiv_pos_as_xyz
  1  'x, y, z'
loop_
 _atom_site_type_symbol
 _atom_site_label
 _atom_site_symmetry_multiplicity
 _atom_site_fract_x
 _atom_site_fract_y
 _atom_site_fract_z
 _atom_site_occupancy
  Hf  Hf0  1  0.50000000  0.00000000  0.73447907  1
  Hf  Hf1  1  0.00000000  0.50000000  0.26552093  1
  Si  Si0  1  0.50000000  0.50000000  -0.00000000  1
  As  As0  1  0.50000000  0.00000000  0.38616328  1
  As  As1  1  0.00000000  0.50000000  0.61383672  1
  As  As2  1  0.00000000  -0.00000000  0.00000000  1
loop_
_geom_bond_atom_site_label_1
_geom_bond_atom_site_label_2
_geom_bond_distance
_geom_bond_site_symmetry_2
Hf0 Si0 2.831189 1_556
Hf0 Si0 2.831189 1_546
Hf1 Si0 2.831189 1_455
Hf1 Si0 2.831189 1_555
As0 Hf1 2.756614 1_645
As0 Hf1 2.756614 1_655
As0 Hf1 2.756614 1_545
As0 Hf1 2.756614 1_555
As0 Hf0 2.844402 1_555
As1 Hf0 2.756614 1_555
As1 Hf0 2.756614 1_465
As1 Hf0 2.756614 1_565
As1 Hf0 2.756614 1_455
As1 Hf1 2.844402 1_555
As2 Si0 2.574555 1_555
As2 Si0 2.574555 1_445
As2 Si0 2.574555 1_545
As2 Si0 2.574555 1_455
As2 Hf0 2.831189 1_554
As2 Hf0 2.831189 1_454
As2 Hf1 2.831189 1_545
As2 Hf1 2.831189 1_555
