# generated using pymatgen
data_Rb3Li2Ga(MoO4)4
_symmetry_space_group_name_H-M   'P 1'
_cell_length_a   10.70381480
_cell_length_b   10.70381480
_cell_length_c   10.70381480
_cell_angle_alpha   109.44414735
_cell_angle_beta   109.44414735
_cell_angle_gamma   109.52538078
_symmetry_Int_Tables_number   1
_chemical_formula_structural   Rb3Li2Ga(MoO4)4
_chemical_formula_sum   'Rb6 Li4 Ga2 Mo8 O32'
_cell_volume   944.04691419
_cell_formula_units_Z   2
loop_
 _symmetry_equiv_pos_site_id
 _symmetry_equiv_pos_as_xyz
  1  'x, y, z'
loop_
 _atom_site_type_symbol
 _atom_site_label
 _atom_site_symmetry_multiplicity
 _atom_site_fract_x
 _atom_site_fract_y
 _atom_site_fract_z
 _atom_site_occupancy
  Rb  Rb0  1  0.76254200  0.37500000  0.88754200  1
  Rb  Rb1  1  0.48745800  0.87500000  0.11245800  1
  Rb  Rb2  1  0.12500000  0.23745800  0.61245800  1
  Rb  Rb3  1  0.62500000  0.51254200  0.38754200  1
  Rb  Rb4  1  0.00000000  0.00000000  0.00000000  1
  Rb  Rb5  1  0.25000000  0.75000000  0.50000000  1
  Li  Li0  1  0.24925600  0.37500000  0.37425600  1
  Li  Li1  1  0.00074400  0.87500000  0.62574400  1
  Li  Li2  1  0.12500000  0.75074400  0.12574400  1
  Li  Li3  1  0.62500000  0.99925600  0.87425600  1
  Ga  Ga0  1  0.50000000  0.50000000  0.00000000  1
  Ga  Ga1  1  0.75000000  0.25000000  0.50000000  1
  Mo  Mo0  1  0.37799900  0.12561700  0.44660600  1
  Mo  Mo1  1  0.67901100  0.93139300  0.55339400  1
  Mo  Mo2  1  0.06860700  0.62200100  0.74761800  1
  Mo  Mo3  1  0.87200100  0.81860700  0.24761800  1
  Mo  Mo4  1  0.87438300  0.32098900  0.25238200  1
  Mo  Mo5  1  0.57098900  0.62438300  0.75238200  1
  Mo  Mo6  1  0.18139300  0.42901100  0.05339400  1
  Mo  Mo7  1  0.37561700  0.12799900  0.94660600  1
  O  O0  1  0.24827100  0.37566000  0.19209100  1
  O  O1  1  0.18356900  0.05618000  0.80790900  1
  O  O2  1  0.94382000  0.75172900  0.12738900  1
  O  O3  1  0.00172900  0.69382000  0.62738900  1
  O  O4  1  0.62434000  0.81643100  0.87261100  1
  O  O5  1  0.06643100  0.37434000  0.37261100  1
  O  O6  1  0.30618000  0.93356900  0.30790900  1
  O  O7  1  0.62566000  0.99827100  0.69209100  1
  O  O8  1  0.25789000  0.19681000  0.37732700  1
  O  O9  1  0.81948300  0.88056300  0.62267300  1
  O  O10  1  0.11943700  0.74211000  0.93892000  1
  O  O11  1  0.99211000  0.86943700  0.43892000  1
  O  O12  1  0.80319000  0.18051700  0.06108000  1
  O  O13  1  0.43051700  0.55319000  0.56108000  1
  O  O14  1  0.13056300  0.56948300  0.12267300  1
  O  O15  1  0.44681000  0.00789000  0.87732700  1
  O  O16  1  0.51671100  0.76489400  0.39071900  1
  O  O17  1  0.37417400  0.12599200  0.60928100  1
  O  O18  1  0.87400800  0.48328900  0.24818200  1
  O  O19  1  0.73328900  0.62400800  0.74818200  1
  O  O20  1  0.23510600  0.62582600  0.75181800  1
  O  O21  1  0.87582600  0.98510600  0.25181800  1
  O  O22  1  0.37599200  0.12417400  0.10928100  1
  O  O23  1  0.01489400  0.26671100  0.89071900  1
  O  O24  1  0.58188700  0.25452100  0.50581000  1
  O  O25  1  0.74871200  0.07607700  0.49419000  1
  O  O26  1  0.92392300  0.41811300  0.67263400  1
  O  O27  1  0.66811300  0.67392300  0.17263400  1
  O  O28  1  0.74547900  0.25128800  0.32736600  1
  O  O29  1  0.50128800  0.49547900  0.82736600  1
  O  O30  1  0.32607700  0.49871200  0.99419000  1
  O  O31  1  0.50452100  0.33188700  0.00581000  1
loop_
_geom_bond_atom_site_label_1
_geom_bond_atom_site_label_2
_geom_bond_distance
_geom_bond_site_symmetry_2
Li0 O5 1.948756 1_555
Li0 O0 1.948756 1_555
Li0 O8 1.950643 1_555
Li0 O13 1.950643 1_555
Li1 O3 1.948756 1_555
Li1 O1 1.948756 1_565
Li1 O9 1.950643 1_455
Li1 O11 1.950643 1_455
Li2 O2 1.948756 1_455
Li2 O6 1.948756 1_555
Li2 O14 1.950643 1_555
Li2 O10 1.950643 1_554
Li3 O4 1.948756 1_555
Li3 O7 1.948756 1_555
Li3 O12 1.950643 1_566
Li3 O15 1.950643 1_565
Ga0 O29 1.837097 1_554
Ga0 O27 1.837101 1_555
Ga0 O31 1.837101 1_555
Ga0 O30 1.837105 1_554
Ga1 O28 1.837097 1_555
Ga1 O26 1.837101 1_555
Ga1 O24 1.837101 1_555
Ga1 O25 1.837105 1_555
Mo0 O17 1.754007 1_555
Mo0 O6 1.781206 1_545
Mo0 O8 1.783200 1_555
Mo0 O24 1.884783 1_555
Mo1 O16 1.754003 1_555
Mo1 O7 1.781206 1_555
Mo1 O9 1.783200 1_555
Mo1 O25 1.884786 1_565
Mo2 O20 1.753996 1_555
Mo2 O3 1.781206 1_555
Mo2 O10 1.783200 1_555
Mo2 O26 1.884783 1_455
Mo3 O21 1.753996 1_555
Mo3 O2 1.781206 1_555
Mo3 O11 1.783200 1_555
Mo3 O27 1.884783 1_555
Mo4 O18 1.754007 1_555
Mo4 O5 1.781206 1_655
Mo4 O12 1.783200 1_555
Mo4 O28 1.884786 1_555
Mo5 O19 1.754007 1_555
Mo5 O4 1.781206 1_555
Mo5 O13 1.783200 1_555
Mo5 O29 1.884786 1_555
Mo6 O23 1.754003 1_554
Mo6 O0 1.781206 1_555
Mo6 O14 1.783200 1_555
Mo6 O30 1.884786 1_554
Mo7 O22 1.754007 1_556
Mo7 O1 1.781206 1_555
Mo7 O15 1.783200 1_555
Mo7 O31 1.884783 1_556
O0 Rb4 3.342616 1_555
O0 Rb3 3.343258 1_555
O1 Rb4 3.342616 1_556
O1 Rb2 3.343258 1_555
O2 Rb4 3.342616 1_665
O2 Rb0 3.343258 1_554
O3 Rb5 3.342616 1_555
O3 Rb3 3.343258 1_455
O4 Rb4 3.342616 1_666
O4 Rb1 3.343258 1_556
O5 Rb5 3.342616 1_555
O5 Rb2 3.343258 1_555
O6 Rb5 3.342616 1_555
O6 Rb1 3.343258 1_555
O7 Rb5 3.342616 1_555
O7 Rb0 3.343258 1_565
O8 Rb2 3.258065 1_555
O8 Rb4 3.375730 1_555
O9 Rb3 3.258065 1_555
O9 Rb4 3.375730 1_666
O10 Rb1 3.258065 1_556
O10 Rb4 3.375730 1_566
O11 Rb2 3.258065 1_665
O11 Rb5 3.375730 1_655
O12 Rb0 3.258065 1_554
O12 Rb4 3.375730 1_655
O13 Rb3 3.258065 1_555
O13 Rb5 3.375730 1_555
O14 Rb0 3.258065 1_454
O14 Rb5 3.375730 1_555
O15 Rb1 3.258065 1_546
O15 Rb5 3.375730 1_545
O16 Rb3 3.270888 1_555
O16 Rb5 3.403951 1_555
O16 Rb1 3.510134 1_555
O17 Rb2 3.270878 1_555
O17 Rb5 3.403953 1_545
O17 Rb0 3.510141 1_555
O18 Rb0 3.270878 1_554
O18 Rb5 3.403953 1_655
O18 Rb3 3.510141 1_555
O19 Rb3 3.270878 1_555
O19 Rb4 3.403953 1_666
O19 Rb0 3.510141 1_555
O20 Rb1 3.270880 1_556
O20 Rb5 3.403955 1_555
O20 Rb2 3.510143 1_555
O21 Rb2 3.270880 1_665
O21 Rb4 3.403955 1_665
O21 Rb1 3.510143 1_555
O22 Rb1 3.270878 1_545
O22 Rb4 3.403953 1_555
O22 Rb3 3.510141 1_555
O23 Rb0 3.270888 1_455
O23 Rb4 3.403951 1_556
O23 Rb2 3.510134 1_555
O24 Rb3 3.362707 1_555
O24 Rb0 3.414992 1_555
O25 Rb2 3.362697 1_655
O25 Rb1 3.414994 1_545
O26 Rb0 3.362707 1_555
O26 Rb2 3.414992 1_655
O27 Rb3 3.362707 1_555
O27 Rb1 3.414992 1_555
O28 Rb1 3.362699 1_545
O28 Rb3 3.415001 1_555
O29 Rb2 3.362699 1_555
O29 Rb0 3.415001 1_555
O30 Rb1 3.362697 1_556
O30 Rb2 3.414994 1_555
O31 Rb0 3.362707 1_554
O31 Rb3 3.414992 1_555
