# generated using pymatgen
data_Li4FeTe(WO6)2
_symmetry_space_group_name_H-M   'P 1'
_cell_length_a   5.18616091
_cell_length_b   7.57356938
_cell_length_c   11.02837491
_cell_angle_alpha   85.66379157
_cell_angle_beta   90.22678388
_cell_angle_gamma   90.28990549
_symmetry_Int_Tables_number   1
_chemical_formula_structural   Li4FeTe(WO6)2
_chemical_formula_sum   'Li8 Fe2 Te2 W4 O24'
_cell_volume   431.92151426
_cell_formula_units_Z   2
loop_
 _symmetry_equiv_pos_site_id
 _symmetry_equiv_pos_as_xyz
  1  'x, y, z'
loop_
 _atom_site_type_symbol
 _atom_site_label
 _atom_site_symmetry_multiplicity
 _atom_site_fract_x
 _atom_site_fract_y
 _atom_site_fract_z
 _atom_site_occupancy
  Li  Li0  1  0.00719100  0.26621300  0.29175500  1
  Li  Li1  1  0.00944700  0.27274800  0.79687100  1
  Li  Li2  1  0.49841600  0.80213500  0.53221800  1
  Li  Li3  1  0.49399500  0.80991300  0.02543200  1
  Li  Li4  1  0.99015900  0.81218100  0.29845800  1
  Li  Li5  1  0.00027800  0.80185800  0.79424700  1
  Li  Li6  1  0.50471500  0.21994700  0.98145900  1
  Li  Li7  1  0.50427300  0.21377300  0.47716700  1
  Fe  Fe0  1  0.00098100  0.99992600  0.00837600  1
  Fe  Fe1  1  0.00255800  0.00210700  0.50721200  1
  Te  Te0  1  0.49821400  0.50262800  0.74992700  1
  Te  Te1  1  0.47922000  0.51678200  0.25373000  1
  W  W0  1  0.99512700  0.50364800  0.50372400  1
  W  W1  1  0.50679300  0.00427700  0.74926000  1
  W  W2  1  0.50899600  0.00629700  0.25130100  1
  W  W3  1  0.98229900  0.50468900  0.00322200  1
  O  O0  1  0.29993500  0.42651400  0.40788600  1
  O  O1  1  0.30600600  0.42431400  0.89474700  1
  O  O2  1  0.12524700  0.73689100  0.50489400  1
  O  O3  1  0.12618800  0.73565400  0.98574800  1
  O  O4  1  0.32884800  0.04770500  0.59635900  1
  O  O5  1  0.32276800  0.04939700  0.09678600  1
  O  O6  1  0.19676200  0.43005200  0.65647900  1
  O  O7  1  0.14237400  0.43695100  0.15508100  1
  O  O8  1  0.80265900  0.93909200  0.65791000  1
  O  O9  1  0.79154300  0.92203300  0.15458900  1
  O  O10  1  0.37499900  0.74528700  0.74433500  1
  O  O11  1  0.34686100  0.75574400  0.25355400  1
  O  O12  1  0.62805000  0.25473000  0.74859000  1
  O  O13  1  0.64534500  0.23307300  0.25437000  1
  O  O14  1  0.20577800  0.04761900  0.84058400  1
  O  O15  1  0.20688600  0.05566800  0.34570600  1
  O  O16  1  0.82039200  0.55676800  0.82880400  1
  O  O17  1  0.82516100  0.57318900  0.35432600  1
  O  O18  1  0.69733800  0.94387800  0.89637600  1
  O  O19  1  0.69802600  0.93351800  0.40028000  1
  O  O20  1  0.88861500  0.25784300  0.98571900  1
  O  O21  1  0.88437700  0.26030400  0.49802300  1
  O  O22  1  0.67337900  0.57503600  0.06190500  1
  O  O23  1  0.67980200  0.56201700  0.59498800  1
loop_
_geom_bond_atom_site_label_1
_geom_bond_atom_site_label_2
_geom_bond_distance
_geom_bond_site_symmetry_2
Li0 O13 1.938901 1_455
Li0 O15 1.958986 1_555
Li0 O7 2.034699 1_555
Li0 O21 2.361820 1_455
Li0 O0 2.370711 1_555
Li1 O14 2.016348 1_555
Li1 O12 2.052921 1_455
Li1 O6 2.116958 1_555
Li1 O20 2.171885 1_455
Li1 O1 2.237098 1_555
Li1 O16 2.418877 1_455
Li2 O19 1.990358 1_555
Li2 O2 2.022037 1_555
Li2 O23 2.119679 1_555
Li2 O4 2.225569 1_565
Li2 O8 2.381292 1_555
Li2 O10 2.433959 1_555
Li3 O18 1.987442 1_554
Li3 O22 2.024154 1_555
Li3 O3 2.041121 1_554
Li3 O5 2.221519 1_565
Li3 O9 2.298574 1_555
Li4 O11 1.974179 1_655
Li4 O9 2.016616 1_555
Li4 O17 2.051315 1_555
Li4 O19 2.141127 1_555
Li4 O15 2.248359 1_665
Li4 O2 2.407120 1_655
Li5 O8 2.038049 1_455
Li5 O10 2.077445 1_555
Li5 O16 2.083122 1_455
Li5 O3 2.229434 1_555
Li5 O14 2.231775 1_565
Li5 O18 2.260121 1_455
Li6 O5 1.981212 1_556
Li6 O20 2.010982 1_555
Li6 O1 2.038790 1_555
Li6 O18 2.564214 1_545
Li7 O4 1.971132 1_555
Li7 O21 2.016105 1_555
Li7 O0 2.031629 1_555
Li7 O15 2.478012 1_555
Li7 O19 2.556230 1_545
Li7 O13 2.559836 1_555
Fe0 O5 1.977902 1_565
Fe0 O9 1.997865 1_455
Fe0 O20 2.038179 1_464
Fe0 O18 2.059802 1_454
Fe0 O3 2.140051 1_554
Fe0 O14 2.143222 1_564
Fe1 O8 1.988294 1_445
Fe1 O4 1.995397 1_555
Fe1 O21 2.047307 1_455
Fe1 O19 2.055359 1_445
Fe1 O15 2.088371 1_555
Fe1 O2 2.112094 1_545
O0 Te1 2.013092 1_555
O0 W0 2.018217 1_455
O1 Te0 1.938978 1_555
O1 W3 2.180919 1_456
O2 W0 1.888737 1_455
O3 W3 1.894929 1_456
O4 W1 1.926176 1_555
O5 W2 1.961930 1_555
O6 Te0 1.967888 1_555
O6 W0 2.022909 1_455
O7 W3 1.902780 1_455
O7 Te1 2.162101 1_555
O8 W1 1.925665 1_565
O9 W2 1.953670 1_565
O10 Te0 1.945267 1_555
O10 W1 2.078407 1_565
O11 Te1 1.938707 1_555
O11 W2 2.070111 1_565
O12 W1 1.994819 1_555
O12 Te0 1.998895 1_555
O13 W2 1.856692 1_555
O13 Te1 2.318530 1_555
O14 W1 1.904418 1_555
O15 W2 1.938122 1_555
O16 Te0 1.937039 1_555
O16 W3 2.106299 1_556
O17 W0 1.905518 1_555
O17 Te1 2.163392 1_555
O18 W1 1.922961 1_565
O19 W2 1.954506 1_565
O20 W3 1.952692 1_556
O21 W0 1.933122 1_555
O22 W3 1.827137 1_555
O22 Te1 2.356952 1_555
O23 Te0 1.975137 1_555
O23 W0 1.992578 1_555
