# generated using pymatgen
data_Ba3CaNb2O9
_symmetry_space_group_name_H-M   'P 1'
_cell_length_a   5.99083586
_cell_length_b   5.99083586
_cell_length_c   7.39376500
_cell_angle_alpha   90.00000000
_cell_angle_beta   90.00000000
_cell_angle_gamma   119.99999841
_symmetry_Int_Tables_number   1
_chemical_formula_structural   Ba3CaNb2O9
_chemical_formula_sum   'Ba3 Ca1 Nb2 O9'
_cell_volume   229.81116408
_cell_formula_units_Z   1
loop_
 _symmetry_equiv_pos_site_id
 _symmetry_equiv_pos_as_xyz
  1  'x, y, z'
loop_
 _atom_site_type_symbol
 _atom_site_label
 _atom_site_symmetry_multiplicity
 _atom_site_fract_x
 _atom_site_fract_y
 _atom_site_fract_z
 _atom_site_occupancy
  Ba  Ba0  1  0.00000000  0.00000000  0.00000000  1
  Ba  Ba1  1  0.33333300  0.66666700  0.67223600  1
  Ba  Ba2  1  0.66666700  0.33333300  0.32776400  1
  Ca  Ca0  1  0.00000000  0.00000000  0.50000000  1
  Nb  Nb0  1  0.33333300  0.66666700  0.17016300  1
  Nb  Nb1  1  0.66666700  0.33333300  0.82983700  1
  O  O0  1  0.17644600  0.82355400  0.31322300  1
  O  O1  1  0.82355400  0.17644600  0.68677700  1
  O  O2  1  0.17644600  0.35289100  0.31322300  1
  O  O3  1  0.82355400  0.64710900  0.68677700  1
  O  O4  1  0.64710900  0.82355400  0.31322300  1
  O  O5  1  0.35289100  0.17644600  0.68677700  1
  O  O6  1  0.50000000  0.00000000  0.00000000  1
  O  O7  1  0.00000000  0.50000000  0.00000000  1
  O  O8  1  0.50000000  0.50000000  0.00000000  1
loop_
_geom_bond_atom_site_label_1
_geom_bond_atom_site_label_2
_geom_bond_distance
_geom_bond_site_symmetry_2
Ba0 O2 2.952200 1_555
Ba0 O4 2.952200 1_445
Ba0 O3 2.952200 1_444
Ba0 O5 2.952200 1_554
Ba0 O0 2.952203 1_545
Ba0 O1 2.952203 1_454
Ba0 O7 2.995418 1_545
Ba0 O6 2.995418 1_455
Ba0 O6 2.995418 1_555
Ba0 O7 2.995418 1_555
Ba0 O8 2.995418 1_555
Ba0 O8 2.995418 1_445
Ba1 O6 2.977206 1_566
Ba1 O7 2.977206 1_556
Ba1 O8 2.977209 1_556
Ba1 O3 2.999064 1_555
Ba1 O5 2.999064 1_555
Ba1 O5 2.999064 1_565
Ba1 O3 2.999064 1_455
Ba1 O1 2.999064 1_565
Ba1 O1 2.999064 1_455
Ba1 O0 3.113887 1_555
Ba1 O2 3.113893 1_555
Ba1 O4 3.113893 1_555
Ba2 O7 2.977206 1_655
Ba2 O6 2.977206 1_555
Ba2 O8 2.977209 1_555
Ba2 O2 2.999064 1_555
Ba2 O4 2.999064 1_555
Ba2 O2 2.999064 1_655
Ba2 O4 2.999064 1_545
Ba2 O0 2.999064 1_655
Ba2 O0 2.999064 1_545
Ba2 O1 3.113887 1_555
Ba2 O3 3.113893 1_555
Ba2 O5 3.113893 1_555
Ca0 O3 2.293300 1_445
Ca0 O4 2.293300 1_445
Ca0 O5 2.293300 1_555
Ca0 O2 2.293300 1_555
Ca0 O1 2.293304 1_455
Ca0 O0 2.293304 1_545
Nb0 O0 1.941388 1_555
Nb0 O2 1.941397 1_555
Nb0 O4 1.941397 1_555
Nb0 O6 2.138637 1_565
Nb0 O7 2.138637 1_555
Nb0 O8 2.138641 1_555
Nb1 O1 1.941388 1_555
Nb1 O5 1.941397 1_555
Nb1 O3 1.941397 1_555
Nb1 O7 2.138637 1_656
Nb1 O6 2.138637 1_556
Nb1 O8 2.138641 1_556
