# generated using pymatgen
data_Hg(MoS2)6
_symmetry_space_group_name_H-M   'P 1'
_cell_length_a   17.08398400
_cell_length_b   17.48357753
_cell_length_c   20.40026581
_cell_angle_alpha   80.53797335
_cell_angle_beta   114.17711498
_cell_angle_gamma   115.54669723
_symmetry_Int_Tables_number   1
_chemical_formula_structural   Hg(MoS2)6
_chemical_formula_sum   'Hg1 Mo6 S12'
_cell_volume   5014.83393833
_cell_formula_units_Z   1
loop_
 _symmetry_equiv_pos_site_id
 _symmetry_equiv_pos_as_xyz
  1  'x, y, z'
loop_
 _atom_site_type_symbol
 _atom_site_label
 _atom_site_symmetry_multiplicity
 _atom_site_fract_x
 _atom_site_fract_y
 _atom_site_fract_z
 _atom_site_occupancy
  Hg  Hg0  1  0.00000000  0.00000000  0.00000000  1
  Mo  Mo0  1  0.24189800  0.38593600  0.02650900  1
  Mo  Mo1  1  0.75810200  0.61406400  0.97349100  1
  Mo  Mo2  1  0.78989600  0.15845800  0.76157000  1
  Mo  Mo3  1  0.21010400  0.84154200  0.23843000  1
  Mo  Mo4  1  0.97823300  0.14079600  0.21774000  1
  Mo  Mo5  1  0.02176700  0.85920400  0.78226000  1
  S  S0  1  0.06035200  0.08791000  0.32222600  1
  S  S1  1  0.93964800  0.91209000  0.67777400  1
  S  S2  1  0.26282300  0.34576900  0.93415200  1
  S  S3  1  0.73717700  0.65423100  0.06584800  1
  S  S4  1  0.65715400  0.03232800  0.73291500  1
  S  S5  1  0.34284600  0.96767200  0.26708500  1
  S  S6  1  0.23885900  0.25550600  0.01209600  1
  S  S7  1  0.76114100  0.74449400  0.98790400  1
  S  S8  1  0.78526000  0.02375100  0.76307100  1
  S  S9  1  0.21474000  0.97624900  0.23692900  1
  S  S10  1  0.99131500  0.01234000  0.22999800  1
  S  S11  1  0.00868500  0.98766000  0.77000200  1
loop_
_geom_bond_atom_site_label_1
_geom_bond_atom_site_label_2
_geom_bond_distance
_geom_bond_site_symmetry_2
Mo0 S2 2.318208 1_554
Mo0 S6 2.322742 1_555
Mo1 S3 2.318208 1_556
Mo1 S7 2.322742 1_555
Mo2 S8 2.317625 1_555
Mo2 S4 2.317786 1_555
Mo3 S9 2.317625 1_555
Mo3 S5 2.317786 1_555
Mo4 S10 2.314930 1_555
Mo4 S0 2.321194 1_655
Mo5 S11 2.314930 1_555
Mo5 S1 2.321194 1_455
S0 S10 2.081414 1_455
S1 S11 2.081414 1_655
S2 S6 2.082635 1_556
S3 S7 2.082635 1_554
S4 S8 2.083418 1_555
S5 S9 2.083418 1_555
