# generated using pymatgen
data_Ca(CrN2)2
_symmetry_space_group_name_H-M   'P 1'
_cell_length_a   10.22678939
_cell_length_b   10.22678939
_cell_length_c   10.22678939
_cell_angle_alpha   90.00000000
_cell_angle_beta   90.00000000
_cell_angle_gamma   90.00000000
_symmetry_Int_Tables_number   1
_chemical_formula_structural   Ca(CrN2)2
_chemical_formula_sum   'Ca12 Cr24 N48'
_cell_volume   1069.59148438
_cell_formula_units_Z   12
loop_
 _symmetry_equiv_pos_site_id
 _symmetry_equiv_pos_as_xyz
  1  'x, y, z'
loop_
 _atom_site_type_symbol
 _atom_site_label
 _atom_site_symmetry_multiplicity
 _atom_site_fract_x
 _atom_site_fract_y
 _atom_site_fract_z
 _atom_site_occupancy
  Ca  Ca0  1  0.50000000  0.50000000  0.00000000  1
  Ca  Ca1  1  0.50000000  0.00000000  0.50000000  1
  Ca  Ca2  1  -0.00000000  0.50000000  0.50000000  1
  Ca  Ca3  1  -0.00000000  0.00000000  0.00000000  1
  Ca  Ca4  1  0.12269047  0.87730953  0.37730953  1
  Ca  Ca5  1  0.87730953  0.37730953  0.12269047  1
  Ca  Ca6  1  0.37730953  0.12269047  0.87730953  1
  Ca  Ca7  1  0.62269047  0.62269047  0.62269047  1
  Ca  Ca8  1  0.87730953  0.12269047  0.62269047  1
  Ca  Ca9  1  0.12269047  0.62269047  0.87730953  1
  Ca  Ca10  1  0.62269047  0.87730953  0.12269047  1
  Ca  Ca11  1  0.37730953  0.37730953  0.37730953  1
  Cr  Cr0  1  0.37620566  0.70205701  0.36379907  1
  Cr  Cr1  1  0.62379434  0.20205701  0.13620093  1
  Cr  Cr2  1  0.12379434  0.29794299  0.86379907  1
  Cr  Cr3  1  0.87620566  0.79794299  0.63620093  1
  Cr  Cr4  1  0.36379907  0.37620566  0.70205701  1
  Cr  Cr5  1  0.13620093  0.62379434  0.20205701  1
  Cr  Cr6  1  0.86379907  0.12379434  0.29794299  1
  Cr  Cr7  1  0.63620093  0.87620566  0.79794299  1
  Cr  Cr8  1  0.70205701  0.36379907  0.37620566  1
  Cr  Cr9  1  0.20205701  0.13620093  0.62379434  1
  Cr  Cr10  1  0.29794299  0.86379907  0.12379434  1
  Cr  Cr11  1  0.79794299  0.63620093  0.87620566  1
  Cr  Cr12  1  0.62379434  0.29794299  0.63620093  1
  Cr  Cr13  1  0.37620566  0.79794299  0.86379907  1
  Cr  Cr14  1  0.87620566  0.70205701  0.13620093  1
  Cr  Cr15  1  0.12379434  0.20205701  0.36379907  1
  Cr  Cr16  1  0.63620093  0.62379434  0.29794299  1
  Cr  Cr17  1  0.86379907  0.37620566  0.79794299  1
  Cr  Cr18  1  0.13620093  0.87620566  0.70205701  1
  Cr  Cr19  1  0.36379907  0.12379434  0.20205701  1
  Cr  Cr20  1  0.29794299  0.63620093  0.62379434  1
  Cr  Cr21  1  0.79794299  0.86379907  0.37620566  1
  Cr  Cr22  1  0.70205701  0.13620093  0.87620566  1
  Cr  Cr23  1  0.20205701  0.36379907  0.12379434  1
  N  N0  1  0.35940390  0.85837393  0.28600882  1
  N  N1  1  0.64059610  0.35837393  0.21399118  1
  N  N2  1  0.14059610  0.14162607  0.78600882  1
  N  N3  1  0.85940390  0.64162607  0.71399118  1
  N  N4  1  0.28600882  0.35940390  0.85837393  1
  N  N5  1  0.21399118  0.64059610  0.35837393  1
  N  N6  1  0.78600882  0.14059610  0.14162607  1
  N  N7  1  0.71399118  0.85940390  0.64162607  1
  N  N8  1  0.85837393  0.28600882  0.35940390  1
  N  N9  1  0.35837393  0.21399118  0.64059610  1
  N  N10  1  0.14162607  0.78600882  0.14059610  1
  N  N11  1  0.64162607  0.71399118  0.85940390  1
  N  N12  1  0.64059610  0.14162607  0.71399118  1
  N  N13  1  0.35940390  0.64162607  0.78600882  1
  N  N14  1  0.85940390  0.85837393  0.21399118  1
  N  N15  1  0.14059610  0.35837393  0.28600882  1
  N  N16  1  0.71399118  0.64059610  0.14162607  1
  N  N17  1  0.78600882  0.35940390  0.64162607  1
  N  N18  1  0.21399118  0.85940390  0.85837393  1
  N  N19  1  0.28600882  0.14059610  0.35837393  1
  N  N20  1  0.14162607  0.71399118  0.64059610  1
  N  N21  1  0.64162607  0.78600882  0.35940390  1
  N  N22  1  0.85837393  0.21399118  0.85940390  1
  N  N23  1  0.35837393  0.28600882  0.14059610  1
  N  N24  1  0.42163520  0.72223518  0.52876311  1
  N  N25  1  0.57836480  0.22223518  0.97123689  1
  N  N26  1  0.07836480  0.27776482  0.02876311  1
  N  N27  1  0.92163520  0.77776482  0.47123689  1
  N  N28  1  0.52876311  0.42163520  0.72223518  1
  N  N29  1  0.97123689  0.57836480  0.22223518  1
  N  N30  1  0.02876311  0.07836480  0.27776482  1
  N  N31  1  0.47123689  0.92163520  0.77776482  1
  N  N32  1  0.72223518  0.52876311  0.42163520  1
  N  N33  1  0.22223518  0.97123689  0.57836480  1
  N  N34  1  0.27776482  0.02876311  0.07836480  1
  N  N35  1  0.77776482  0.47123689  0.92163520  1
  N  N36  1  0.57836480  0.27776482  0.47123689  1
  N  N37  1  0.42163520  0.77776482  0.02876311  1
  N  N38  1  0.92163520  0.72223518  0.97123689  1
  N  N39  1  0.07836480  0.22223518  0.52876311  1
  N  N40  1  0.47123689  0.57836480  0.27776482  1
  N  N41  1  0.02876311  0.42163520  0.77776482  1
  N  N42  1  0.97123689  0.92163520  0.72223518  1
  N  N43  1  0.52876311  0.07836480  0.22223518  1
  N  N44  1  0.27776482  0.47123689  0.57836480  1
  N  N45  1  0.77776482  0.02876311  0.42163520  1
  N  N46  1  0.72223518  0.97123689  0.92163520  1
  N  N47  1  0.22223518  0.52876311  0.07836480  1
loop_
_geom_bond_atom_site_label_1
_geom_bond_atom_site_label_2
_geom_bond_distance
_geom_bond_site_symmetry_2
Ca0 N25 2.966151 1_554
Ca0 N47 2.966151 1_555
Ca0 N35 2.966151 1_554
Ca0 N40 2.966151 1_555
Ca0 N28 2.966151 1_554
Ca0 N37 2.966151 1_555
Ca0 N4 2.992405 1_554
Ca0 N1 2.992405 1_555
Ca0 N13 2.992405 1_554
Ca0 N23 2.992405 1_555
Ca0 N11 2.992405 1_554
Ca0 N16 2.992405 1_555
Ca1 N33 2.966151 1_545
Ca1 N24 2.966151 1_545
Ca1 N36 2.966151 1_555
Ca1 N31 2.966151 1_545
Ca1 N43 2.966151 1_555
Ca1 N45 2.966151 1_555
Ca1 N0 2.992405 1_545
Ca1 N9 2.992405 1_555
Ca1 N21 2.992405 1_545
Ca1 N19 2.992405 1_555
Ca1 N7 2.992405 1_545
Ca1 N12 2.992405 1_555
Ca2 N32 2.966151 1_455
Ca2 N44 2.966151 1_555
Ca2 N39 2.966151 1_555
Ca2 N27 2.966151 1_455
Ca2 N29 2.966151 1_455
Ca2 N41 2.966151 1_555
Ca2 N8 2.992405 1_455
Ca2 N17 2.992405 1_455
Ca2 N5 2.992405 1_555
Ca2 N15 2.992405 1_555
Ca2 N3 2.992405 1_455
Ca2 N20 2.992405 1_555
Ca3 N46 2.966151 1_444
Ca3 N38 2.966151 1_444
Ca3 N26 2.966151 1_555
Ca3 N30 2.966151 1_555
Ca3 N42 2.966151 1_444
Ca3 N34 2.966151 1_555
Ca3 N2 2.992405 1_554
Ca3 N10 2.992405 1_545
Ca3 N14 2.992405 1_445
Ca3 N6 2.992405 1_455
Ca3 N22 2.992405 1_454
Ca3 N18 2.992405 1_544
Ca4 N30 2.487333 1_565
Ca4 N27 2.487333 1_455
Ca4 N33 2.487333 1_555
Ca4 N10 2.601861 1_555
Ca4 N0 2.601861 1_555
Ca4 N5 2.601861 1_555
Ca5 N26 2.487333 1_655
Ca5 N35 2.487333 1_554
Ca5 N29 2.487333 1_555
Ca5 N1 2.601861 1_555
Ca5 N6 2.601861 1_555
Ca5 N8 2.601861 1_555
Ca6 N34 2.487333 1_556
Ca6 N25 2.487333 1_555
Ca6 N31 2.487333 1_545
Ca6 N2 2.601861 1_555
Ca6 N4 2.601861 1_555
Ca6 N9 2.601861 1_555
Ca7 N28 2.487333 1_555
Ca7 N32 2.487333 1_555
Ca7 N24 2.487333 1_555
Ca7 N7 2.601861 1_555
Ca7 N3 2.601861 1_555
Ca7 N11 2.601861 1_555
Ca8 N39 2.487333 1_655
Ca8 N45 2.487333 1_555
Ca8 N42 2.487333 1_545
Ca8 N17 2.601861 1_555
Ca8 N22 2.601861 1_555
Ca8 N12 2.601861 1_555
Ca9 N47 2.487333 1_556
Ca9 N38 2.487333 1_455
Ca9 N41 2.487333 1_555
Ca9 N13 2.601861 1_555
Ca9 N18 2.601861 1_555
Ca9 N20 2.601861 1_555
Ca10 N37 2.487333 1_555
Ca10 N43 2.487333 1_565
Ca10 N46 2.487333 1_554
Ca10 N21 2.601861 1_555
Ca10 N14 2.601861 1_555
Ca10 N16 2.601861 1_555
Ca11 N40 2.487333 1_555
Ca11 N44 2.487333 1_555
Ca11 N36 2.487333 1_555
Ca11 N15 2.601861 1_555
Ca11 N19 2.601861 1_555
Ca11 N23 2.601861 1_555
Cr0 N24 1.761982 1_555
Cr0 N5 1.774883 1_555
Cr0 N0 1.793879 1_555
Cr0 N40 1.821764 1_555
Cr1 N25 1.761982 1_554
Cr1 N6 1.774883 1_555
Cr1 N1 1.793879 1_555
Cr1 N43 1.821764 1_555
Cr2 N26 1.761982 1_556
Cr2 N4 1.774883 1_555
Cr2 N2 1.793879 1_555
Cr2 N41 1.821764 1_555
Cr3 N27 1.761982 1_555
Cr3 N7 1.774883 1_555
Cr3 N3 1.793879 1_555
Cr3 N42 1.821764 1_555
Cr4 N28 1.761982 1_555
Cr4 N9 1.774883 1_555
Cr4 N4 1.793879 1_555
Cr4 N44 1.821764 1_555
Cr5 N29 1.761982 1_455
Cr5 N10 1.774883 1_555
Cr5 N5 1.793879 1_555
Cr5 N47 1.821764 1_555
Cr6 N30 1.761982 1_655
Cr6 N8 1.774883 1_555
Cr6 N6 1.793879 1_555
Cr6 N45 1.821764 1_555
Cr7 N31 1.761982 1_555
Cr7 N11 1.774883 1_555
Cr7 N7 1.793879 1_555
Cr7 N46 1.821764 1_555
Cr8 N32 1.761982 1_555
Cr8 N1 1.774883 1_555
Cr8 N8 1.793879 1_555
Cr8 N36 1.821764 1_555
Cr9 N33 1.761982 1_545
Cr9 N2 1.774883 1_555
Cr9 N9 1.793879 1_555
Cr9 N39 1.821764 1_555
Cr10 N34 1.761982 1_565
Cr10 N0 1.774883 1_555
Cr10 N10 1.793879 1_555
Cr10 N37 1.821764 1_555
Cr11 N35 1.761982 1_555
Cr11 N3 1.774883 1_555
Cr11 N11 1.793879 1_555
Cr11 N38 1.821764 1_555
Cr12 N36 1.761982 1_555
Cr12 N17 1.774883 1_555
Cr12 N12 1.793879 1_555
Cr12 N28 1.821764 1_555
Cr13 N37 1.761982 1_556
Cr13 N18 1.774883 1_555
Cr13 N13 1.793879 1_555
Cr13 N31 1.821764 1_555
Cr14 N38 1.761982 1_554
Cr14 N16 1.774883 1_555
Cr14 N14 1.793879 1_555
Cr14 N29 1.821764 1_555
Cr15 N39 1.761982 1_555
Cr15 N19 1.774883 1_555
Cr15 N15 1.793879 1_555
Cr15 N30 1.821764 1_555
Cr16 N40 1.761982 1_555
Cr16 N21 1.774883 1_555
Cr16 N16 1.793879 1_555
Cr16 N32 1.821764 1_555
Cr17 N41 1.761982 1_655
Cr17 N22 1.774883 1_555
Cr17 N17 1.793879 1_555
Cr17 N35 1.821764 1_555
Cr18 N42 1.761982 1_455
Cr18 N20 1.774883 1_555
Cr18 N18 1.793879 1_555
Cr18 N33 1.821764 1_555
Cr19 N43 1.761982 1_555
Cr19 N23 1.774883 1_555
Cr19 N19 1.793879 1_555
Cr19 N34 1.821764 1_555
Cr20 N44 1.761982 1_555
Cr20 N13 1.774883 1_555
Cr20 N20 1.793879 1_555
Cr20 N24 1.821764 1_555
Cr21 N45 1.761982 1_565
Cr21 N14 1.774883 1_555
Cr21 N21 1.793879 1_555
Cr21 N27 1.821764 1_555
Cr22 N46 1.761982 1_545
Cr22 N12 1.774883 1_555
Cr22 N22 1.793879 1_555
Cr22 N25 1.821764 1_555
Cr23 N47 1.761982 1_555
Cr23 N15 1.774883 1_555
Cr23 N23 1.793879 1_555
Cr23 N26 1.821764 1_555
