# generated using pymatgen
data_LiEu2Cr2O8
_symmetry_space_group_name_H-M   'P 1'
_cell_length_a   6.31975866
_cell_length_b   6.12315649
_cell_length_c   6.31975954
_cell_angle_alpha   105.22457137
_cell_angle_beta   107.38753240
_cell_angle_gamma   117.45664058
_symmetry_Int_Tables_number   1
_chemical_formula_structural   LiEu2Cr2O8
_chemical_formula_sum   'Li1 Eu2 Cr2 O8'
_cell_volume   182.48134009
_cell_formula_units_Z   1
loop_
 _symmetry_equiv_pos_site_id
 _symmetry_equiv_pos_as_xyz
  1  'x, y, z'
loop_
 _atom_site_type_symbol
 _atom_site_label
 _atom_site_symmetry_multiplicity
 _atom_site_fract_x
 _atom_site_fract_y
 _atom_site_fract_z
 _atom_site_occupancy
  Li  Li0  1  0.75407600  0.00000000  0.25407600  1
  Eu  Eu0  1  0.14659000  0.86884800  0.25106700  1
  Eu  Eu1  1  0.88221900  0.13115200  0.77774200  1
  Cr  Cr0  1  0.36645000  0.61348000  0.74051200  1
  Cr  Cr1  1  0.62703200  0.38652000  0.25297000  1
  O  O0  1  0.77693100  0.73979300  0.40830400  1
  O  O1  1  0.37167600  0.79422400  0.57367900  1
  O  O2  1  0.71705600  0.78815200  0.93728400  1
  O  O3  1  0.80064900  0.36180000  0.09285700  1
  O  O4  1  0.64913200  0.21184800  0.42890500  1
  O  O5  1  0.16851000  0.26020700  0.53713700  1
  O  O6  1  0.23105600  0.63820000  0.93884900  1
  O  O7  1  0.27945600  0.20577600  0.07745200  1
loop_
_geom_bond_atom_site_label_1
_geom_bond_atom_site_label_2
_geom_bond_distance
_geom_bond_site_symmetry_2
Li0 O2 1.954952 1_544
Li0 O4 1.954955 1_555
Li0 O5 2.110239 1_655
Li0 O0 2.110245 1_545
Li0 O3 2.606902 1_555
Li0 O6 2.606906 1_544
Eu0 O1 2.396749 1_555
Eu0 O6 2.456410 1_554
Eu0 O3 2.494517 1_455
Eu0 O4 2.497344 1_565
Eu0 O5 2.509779 1_565
Eu0 O7 2.511410 1_565
Eu0 O2 2.564486 1_454
Eu0 O0 2.677126 1_455
Eu1 O7 2.396754 1_656
Eu1 O3 2.456415 1_556
Eu1 O6 2.494516 1_655
Eu1 O2 2.497346 1_545
Eu1 O0 2.509778 1_545
Eu1 O1 2.511408 1_545
Eu1 O4 2.564482 1_555
Eu1 O5 2.677127 1_655
Cr0 O1 1.713920 1_555
Cr0 O5 1.726136 1_555
Cr0 O6 1.728286 1_555
Cr0 O2 1.751904 1_555
Cr1 O7 1.713915 1_555
Cr1 O0 1.726135 1_555
Cr1 O3 1.728282 1_555
Cr1 O4 1.751910 1_555
