# generated using pymatgen
data_Te2MoWSe2
_symmetry_space_group_name_H-M   'P 1'
_cell_length_a   3.43787158
_cell_length_b   3.43787158
_cell_length_c   39.09895800
_cell_angle_alpha   90.00000000
_cell_angle_beta   90.00000000
_cell_angle_gamma   119.99999188
_symmetry_Int_Tables_number   1
_chemical_formula_structural   Te2MoWSe2
_chemical_formula_sum   'Te4 Mo2 W2 Se4'
_cell_volume   400.19821740
_cell_formula_units_Z   2
loop_
 _symmetry_equiv_pos_site_id
 _symmetry_equiv_pos_as_xyz
  1  'x, y, z'
loop_
 _atom_site_type_symbol
 _atom_site_label
 _atom_site_symmetry_multiplicity
 _atom_site_fract_x
 _atom_site_fract_y
 _atom_site_fract_z
 _atom_site_occupancy
  Te  Te0  1  0.00000000  0.00000000  0.32922500  1
  Te  Te1  1  0.00000000  0.00000000  0.70524600  1
  Te  Te2  1  0.00000000  0.00000000  0.23437300  1
  Te  Te3  1  0.00000000  0.00000000  0.60983200  1
  Mo  Mo0  1  0.00000000  0.00000000  0.09390900  1
  Mo  Mo1  1  0.33333300  0.66666700  0.28178200  1
  W  W0  1  0.00000000  0.00000000  0.46965700  1
  W  W1  1  0.33333300  0.66666700  0.65755000  1
  Se  Se0  1  0.33333300  0.66666700  0.05211400  1
  Se  Se1  1  0.33333300  0.66666700  0.42769200  1
  Se  Se2  1  0.33333300  0.66666700  0.13575700  1
  Se  Se3  1  0.33333300  0.66666700  0.51161200  1
loop_
_geom_bond_atom_site_label_1
_geom_bond_atom_site_label_2
_geom_bond_distance
_geom_bond_site_symmetry_2
Te1 W1 2.723484 1_545
Te1 W1 2.723486 1_445
Te1 W1 2.723486 1_555
Te3 W1 2.724073 1_545
Te3 W1 2.724075 1_555
Te3 W1 2.724075 1_445
Mo0 Se0 2.571004 1_545
Mo0 Se0 2.571007 1_445
Mo0 Se0 2.571007 1_555
Mo0 Se2 2.572322 1_545
Mo0 Se2 2.572324 1_555
Mo0 Se2 2.572324 1_445
Mo1 Te2 2.715812 1_565
Mo1 Te2 2.715815 1_555
Mo1 Te2 2.715815 1_665
Mo1 Te0 2.716720 1_565
Mo1 Te0 2.716722 1_665
Mo1 Te0 2.716722 1_555
Se1 W0 2.575234 1_565
Se1 W0 2.575236 1_555
Se1 W0 2.575236 1_665
Se3 W0 2.574985 1_565
Se3 W0 2.574987 1_665
Se3 W0 2.574987 1_555
