# generated using pymatgen
data_LiCeMg14
_symmetry_space_group_name_H-M   'P 1'
_cell_length_a   6.50461593
_cell_length_b   6.50461593
_cell_length_c   10.38949900
_cell_angle_alpha   90.00000000
_cell_angle_beta   90.00000000
_cell_angle_gamma   120.77041927
_symmetry_Int_Tables_number   1
_chemical_formula_structural   LiCeMg14
_chemical_formula_sum   'Li1 Ce1 Mg14'
_cell_volume   377.69774564
_cell_formula_units_Z   1
loop_
 _symmetry_equiv_pos_site_id
 _symmetry_equiv_pos_as_xyz
  1  'x, y, z'
loop_
 _atom_site_type_symbol
 _atom_site_label
 _atom_site_symmetry_multiplicity
 _atom_site_fract_x
 _atom_site_fract_y
 _atom_site_fract_z
 _atom_site_occupancy
  Li  Li0  1  0.83500000  0.16500000  0.50000000  1
  Ce  Ce0  1  0.33311600  0.66688400  0.50000000  1
  Mg  Mg0  1  0.83358400  0.16641600  0.00000000  1
  Mg  Mg1  1  0.33314000  0.66686000  0.00000000  1
  Mg  Mg2  1  0.32723300  0.16380400  0.50000000  1
  Mg  Mg3  1  0.33264600  0.16622100  0.00000000  1
  Mg  Mg4  1  0.83619600  0.67276700  0.50000000  1
  Mg  Mg5  1  0.83377900  0.66735400  0.00000000  1
  Mg  Mg6  1  0.16498700  0.33040900  0.24712000  1
  Mg  Mg7  1  0.16498700  0.33040900  0.75288000  1
  Mg  Mg8  1  0.66959100  0.83501300  0.24712000  1
  Mg  Mg9  1  0.66959100  0.83501300  0.75288000  1
  Mg  Mg10  1  0.66723200  0.33276800  0.25311400  1
  Mg  Mg11  1  0.66723200  0.33276800  0.74688600  1
  Mg  Mg12  1  0.16584800  0.83415200  0.24674100  1
  Mg  Mg13  1  0.16584800  0.83415200  0.75325900  1
loop_
_geom_bond_atom_site_label_1
_geom_bond_atom_site_label_2
_geom_bond_distance
_geom_bond_site_symmetry_2
Li0 Mg10 3.190541 1_555
Li0 Mg11 3.190541 1_555
Li0 Mg4 3.205774 1_545
Li0 Mg2 3.205774 1_655
Li0 Mg9 3.210065 1_545
Li0 Mg6 3.210065 1_655
Li0 Mg7 3.210065 1_655
Li0 Mg8 3.210065 1_545
Li0 Mg4 3.298856 1_555
Li0 Mg2 3.298856 1_555
Ce0 Li0 3.214433 1_565
Ce0 Li0 3.214433 1_455
Ce0 Mg8 3.231064 1_555
Ce0 Mg6 3.231064 1_555
Ce0 Mg9 3.231064 1_555
Ce0 Mg7 3.231064 1_555
Ce0 Mg13 3.240707 1_555
Ce0 Mg12 3.240707 1_555
Ce0 Mg4 3.252017 1_455
Ce0 Mg2 3.252017 1_565
Ce0 Mg2 3.252931 1_555
Ce0 Mg4 3.252931 1_555
Mg0 Mg7 3.166025 1_654
Mg0 Mg6 3.166025 1_655
Mg0 Mg8 3.166025 1_545
Mg0 Mg9 3.166025 1_544
Mg0 Mg1 3.214366 1_655
Mg0 Mg1 3.214366 1_545
Mg0 Mg11 3.233445 1_554
Mg0 Mg10 3.233445 1_555
Mg0 Mg5 3.246856 1_545
Mg0 Mg3 3.246856 1_655
Mg0 Mg5 3.257761 1_555
Mg0 Mg3 3.257761 1_555
Mg1 Mg8 3.182512 1_555
Mg1 Mg9 3.182512 1_554
Mg1 Mg7 3.182512 1_554
Mg1 Mg6 3.182512 1_555
Mg1 Mg13 3.186130 1_554
Mg1 Mg12 3.186130 1_555
Mg1 Mg5 3.249797 1_455
Mg1 Mg3 3.249797 1_565
Mg1 Mg5 3.254822 1_555
Mg1 Mg3 3.254822 1_555
Mg2 Mg4 3.156741 1_445
Mg2 Mg7 3.218861 1_555
Mg2 Mg6 3.218861 1_555
Mg2 Mg4 3.271983 1_555
Mg3 Mg7 3.180161 1_554
Mg3 Mg6 3.180161 1_555
Mg3 Mg5 3.207078 1_445
Mg3 Mg5 3.221646 1_555
Mg4 Mg9 3.218861 1_555
Mg4 Mg8 3.218861 1_555
Mg5 Mg8 3.180161 1_555
Mg5 Mg9 3.180161 1_554
Mg6 Mg8 3.184764 1_445
Mg6 Mg8 3.243960 1_555
Mg7 Mg9 3.184764 1_445
Mg7 Mg9 3.243960 1_555
Mg10 Mg2 3.192374 1_555
Mg10 Mg4 3.192374 1_555
Mg10 Mg12 3.215082 1_655
Mg10 Mg12 3.215082 1_545
Mg10 Mg5 3.226946 1_555
Mg10 Mg3 3.226946 1_555
Mg10 Mg6 3.246179 1_655
Mg10 Mg8 3.246179 1_545
Mg10 Mg8 3.259682 1_555
Mg10 Mg6 3.259682 1_555
Mg11 Mg4 3.192374 1_555
Mg11 Mg2 3.192374 1_555
Mg11 Mg13 3.215082 1_545
Mg11 Mg13 3.215082 1_655
Mg11 Mg5 3.226946 1_556
Mg11 Mg3 3.226946 1_556
Mg11 Mg7 3.246179 1_655
Mg11 Mg9 3.246179 1_545
Mg11 Mg9 3.259682 1_555
Mg11 Mg7 3.259682 1_555
Mg12 Mg3 3.164871 1_565
Mg12 Mg5 3.164871 1_455
Mg12 Mg4 3.212485 1_455
Mg12 Mg2 3.212485 1_565
Mg12 Mg8 3.230832 1_455
Mg12 Mg6 3.230832 1_565
Mg12 Mg8 3.273795 1_555
Mg12 Mg6 3.273795 1_555
Mg13 Mg3 3.164871 1_566
Mg13 Mg5 3.164871 1_456
Mg13 Mg4 3.212485 1_455
Mg13 Mg2 3.212485 1_565
Mg13 Mg7 3.230832 1_565
Mg13 Mg9 3.230832 1_455
Mg13 Mg9 3.273795 1_555
Mg13 Mg7 3.273795 1_555
