# generated using pymatgen
data_K5Li2EuF10
_symmetry_space_group_name_H-M   'P 1'
_cell_length_a   7.01101800
_cell_length_b   7.82892600
_cell_length_c   21.00531300
_cell_angle_alpha   90.00000000
_cell_angle_beta   90.00000000
_cell_angle_gamma   90.00000000
_symmetry_Int_Tables_number   1
_chemical_formula_structural   K5Li2EuF10
_chemical_formula_sum   'K20 Li8 Eu4 F40'
_cell_volume   1152.95518712
_cell_formula_units_Z   4
loop_
 _symmetry_equiv_pos_site_id
 _symmetry_equiv_pos_as_xyz
  1  'x, y, z'
loop_
 _atom_site_type_symbol
 _atom_site_label
 _atom_site_symmetry_multiplicity
 _atom_site_fract_x
 _atom_site_fract_y
 _atom_site_fract_z
 _atom_site_occupancy
  K  K0  1  0.74753000  0.47823300  0.45717600  1
  K  K1  1  0.75247000  0.02176700  0.95717600  1
  K  K2  1  0.25247000  0.97823300  0.54282400  1
  K  K3  1  0.24753000  0.52176700  0.04282400  1
  K  K4  1  0.25247000  0.52176700  0.54282400  1
  K  K5  1  0.24753000  0.97823300  0.04282400  1
  K  K6  1  0.74753000  0.02176700  0.45717600  1
  K  K7  1  0.75247000  0.47823300  0.95717600  1
  K  K8  1  0.57163600  0.52579400  0.28310500  1
  K  K9  1  0.92836400  0.97420600  0.78310500  1
  K  K10  1  0.42836400  0.02579400  0.71689500  1
  K  K11  1  0.07163600  0.47420600  0.21689500  1
  K  K12  1  0.42836400  0.47420600  0.71689500  1
  K  K13  1  0.07163600  0.02579400  0.21689500  1
  K  K14  1  0.57163600  0.97420600  0.28310500  1
  K  K15  1  0.92836400  0.52579400  0.78310500  1
  K  K16  1  0.06475600  0.75000000  0.36021200  1
  K  K17  1  0.43524400  0.75000000  0.86021200  1
  K  K18  1  0.93524400  0.25000000  0.63978800  1
  K  K19  1  0.56475600  0.25000000  0.13978800  1
  Li  Li0  1  0.03013100  0.75000000  0.92257100  1
  Li  Li1  1  0.46986900  0.75000000  0.42257100  1
  Li  Li2  1  0.96986900  0.25000000  0.07742900  1
  Li  Li3  1  0.53013100  0.25000000  0.57742900  1
  Li  Li4  1  0.15702300  0.75000000  0.67217900  1
  Li  Li5  1  0.34297700  0.75000000  0.17217900  1
  Li  Li6  1  0.84297700  0.25000000  0.32782100  1
  Li  Li7  1  0.65702300  0.25000000  0.82782100  1
  Eu  Eu0  1  0.75921500  0.75000000  0.10715100  1
  Eu  Eu1  1  0.74078500  0.75000000  0.60715100  1
  Eu  Eu2  1  0.24078500  0.25000000  0.89284900  1
  Eu  Eu3  1  0.25921500  0.25000000  0.39284900  1
  F  F0  1  0.95354900  0.75000000  0.00873900  1
  F  F1  1  0.54645100  0.75000000  0.50873900  1
  F  F2  1  0.04645100  0.25000000  0.99126100  1
  F  F3  1  0.45354900  0.25000000  0.49126100  1
  F  F4  1  0.55063300  0.75000000  0.02032500  1
  F  F5  1  0.94936700  0.75000000  0.52032500  1
  F  F6  1  0.44936700  0.25000000  0.97967500  1
  F  F7  1  0.05063300  0.25000000  0.47967500  1
  F  F8  1  0.84331300  0.46053900  0.09035100  1
  F  F9  1  0.65668700  0.03946100  0.59035100  1
  F  F10  1  0.15668700  0.96053900  0.90964900  1
  F  F11  1  0.34331300  0.53946100  0.40964900  1
  F  F12  1  0.15668700  0.53946100  0.90964900  1
  F  F13  1  0.34331300  0.96053900  0.40964900  1
  F  F14  1  0.84331300  0.03946100  0.09035100  1
  F  F15  1  0.65668700  0.46053900  0.59035100  1
  F  F16  1  0.50065000  0.57479500  0.14650100  1
  F  F17  1  0.99935000  0.92520500  0.64650100  1
  F  F18  1  0.49935000  0.07479500  0.85349900  1
  F  F19  1  0.00065000  0.42520500  0.35349900  1
  F  F20  1  0.49935000  0.42520500  0.85349900  1
  F  F21  1  0.00065000  0.07479500  0.35349900  1
  F  F22  1  0.50065000  0.92520500  0.14650100  1
  F  F23  1  0.99935000  0.57479500  0.64650100  1
  F  F24  1  0.80895900  0.75000000  0.21629000  1
  F  F25  1  0.69104100  0.75000000  0.71629000  1
  F  F26  1  0.19104100  0.25000000  0.78371000  1
  F  F27  1  0.30895900  0.25000000  0.28371000  1
  F  F28  1  0.68880500  0.75000000  0.37304100  1
  F  F29  1  0.81119500  0.75000000  0.87304100  1
  F  F30  1  0.31119500  0.25000000  0.62695900  1
  F  F31  1  0.18880500  0.25000000  0.12695900  1
  F  F32  1  0.20835600  0.75000000  0.75900300  1
  F  F33  1  0.29164400  0.75000000  0.25900300  1
  F  F34  1  0.79164400  0.25000000  0.24099700  1
  F  F35  1  0.70835600  0.25000000  0.74099700  1
  F  F36  1  0.39362600  0.75000000  0.63089400  1
  F  F37  1  0.10637400  0.75000000  0.13089400  1
  F  F38  1  0.60637400  0.25000000  0.36910600  1
  F  F39  1  0.89362600  0.25000000  0.86910600  1
loop_
_geom_bond_atom_site_label_1
_geom_bond_atom_site_label_2
_geom_bond_distance
_geom_bond_site_symmetry_2
Eu0 F24 2.318875 1_555
Eu0 F4 2.337692 1_555
Eu0 F14 2.368057 1_565
Eu0 F8 2.368057 1_555
Eu0 F16 2.418869 1_555
Eu0 F22 2.418869 1_555
Eu0 F0 2.475795 1_555
Eu0 F37 2.484509 1_655
Eu1 F25 2.318875 1_555
Eu1 F5 2.337692 1_555
Eu1 F9 2.368057 1_565
Eu1 F15 2.368057 1_555
Eu1 F17 2.418869 1_555
Eu1 F23 2.418869 1_555
Eu1 F1 2.475795 1_555
Eu1 F36 2.484509 1_555
Eu2 F26 2.318875 1_555
Eu2 F6 2.337692 1_555
Eu2 F10 2.368057 1_545
Eu2 F12 2.368057 1_555
Eu2 F18 2.418869 1_555
Eu2 F20 2.418869 1_555
Eu2 F2 2.475795 1_555
Eu2 F39 2.484509 1_455
Eu3 F27 2.318875 1_555
Eu3 F7 2.337692 1_555
Eu3 F13 2.368057 1_545
Eu3 F11 2.368057 1_555
Eu3 F19 2.418869 1_555
Eu3 F21 2.418869 1_555
Eu3 F3 2.475795 1_555
Eu3 F38 2.484509 1_555
F0 Li0 1.887943 1_654
F0 K7 2.772619 1_554
F0 K1 2.772619 1_564
F0 K5 2.820193 1_655
F0 K3 2.820193 1_655
F1 Li1 1.887943 1_555
F1 K0 2.772619 1_555
F1 K6 2.772619 1_565
F1 K4 2.820193 1_555
F1 K2 2.820193 1_555
F2 Li2 1.887943 1_456
F2 K5 2.772619 1_546
F2 K3 2.772619 1_556
F2 K1 2.820193 1_455
F2 K7 2.820193 1_455
F3 Li3 1.887943 1_555
F3 K2 2.772619 1_545
F3 K4 2.772619 1_555
F3 K6 2.820193 1_555
F3 K0 2.820193 1_555
F4 K3 2.816373 1_555
F4 K5 2.816373 1_555
F4 K7 2.879034 1_554
F4 K1 2.879034 1_564
F5 K4 2.816373 1_655
F5 K2 2.816373 1_655
F5 K0 2.879034 1_555
F5 K6 2.879034 1_565
F6 K1 2.816373 1_555
F6 K7 2.816373 1_555
F6 K5 2.879034 1_546
F6 K3 2.879034 1_556
F7 K6 2.816373 1_455
F7 K0 2.816373 1_455
F7 K2 2.879034 1_545
F7 K4 2.879034 1_555
F8 Li2 1.891514 1_555
F8 K19 2.758499 1_555
F8 K7 2.872313 1_554
F8 K3 3.042666 1_655
F8 K11 3.104740 1_655
F9 Li3 1.891514 1_555
F9 K18 2.758499 1_555
F9 K6 2.872313 1_555
F9 K2 3.042666 1_545
F9 K10 3.104740 1_555
F10 Li0 1.891514 1_555
F10 K17 2.758499 1_555
F10 K5 2.872313 1_556
F10 K1 3.042666 1_465
F10 K9 3.104740 1_455
F11 Li1 1.891514 1_555
F11 K16 2.758499 1_555
F11 K4 2.872313 1_555
F11 K0 3.042666 1_555
F11 K8 3.104740 1_555
F12 Li0 1.891514 1_555
F12 K17 2.758499 1_555
F12 K3 2.872313 1_556
F12 K7 3.042666 1_455
F12 K15 3.104740 1_455
F13 Li1 1.891514 1_555
F13 K16 2.758499 1_555
F13 K2 2.872313 1_555
F13 K6 3.042666 1_565
F13 K14 3.104740 1_555
F14 Li2 1.891514 1_555
F14 K19 2.758499 1_555
F14 K1 2.872313 1_554
F14 K5 3.042666 1_645
F14 K13 3.104740 1_655
F15 Li3 1.891514 1_555
F15 K18 2.758499 1_555
F15 K0 2.872313 1_555
F15 K4 3.042666 1_555
F15 K12 3.104740 1_555
F16 Li5 1.842393 1_555
F16 K19 2.586059 1_555
F16 K3 2.839777 1_555
F16 K8 2.937409 1_555
F17 Li4 1.842393 1_655
F17 K18 2.586059 1_565
F17 K2 2.839777 1_655
F17 K9 2.937409 1_555
F18 Li7 1.842393 1_555
F18 K17 2.586059 1_545
F18 K1 2.839777 1_555
F18 K10 2.937409 1_555
F19 Li6 1.842393 1_455
F19 K16 2.586059 1_555
F19 K0 2.839777 1_455
F19 K11 2.937409 1_555
F20 Li7 1.842393 1_555
F20 K17 2.586059 1_555
F20 K7 2.839777 1_555
F20 K12 2.937409 1_555
F21 Li6 1.842393 1_455
F21 K16 2.586059 1_545
F21 K6 2.839777 1_455
F21 K13 2.937409 1_555
F22 Li5 1.842393 1_555
F22 K19 2.586059 1_565
F22 K5 2.839777 1_555
F22 K14 2.937409 1_555
F23 Li4 1.842393 1_655
F23 K18 2.586059 1_555
F23 K4 2.839777 1_655
F23 K15 2.937409 1_555
F24 K8 2.796294 1_555
F24 K14 2.796294 1_555
F24 K11 2.837921 1_655
F24 K13 2.837921 1_665
F25 K15 2.796294 1_555
F25 K9 2.796294 1_555
F25 K12 2.837921 1_555
F25 K10 2.837921 1_565
F26 K10 2.796294 1_555
F26 K12 2.796294 1_555
F26 K9 2.837921 1_445
F26 K15 2.837921 1_455
F27 K13 2.796294 1_555
F27 K11 2.796294 1_555
F27 K8 2.837921 1_555
F27 K14 2.837921 1_545
F28 Li1 1.854328 1_555
F28 K16 2.649539 1_655
F28 K8 2.706418 1_555
F28 K14 2.706418 1_555
F28 K0 2.796367 1_555
F28 K6 2.796367 1_565
F29 Li0 1.854328 1_655
F29 K17 2.649539 1_555
F29 K15 2.706418 1_555
F29 K9 2.706418 1_555
F29 K7 2.796367 1_555
F29 K1 2.796367 1_565
F30 Li3 1.854328 1_555
F30 K18 2.649539 1_455
F30 K10 2.706418 1_555
F30 K12 2.706418 1_555
F30 K2 2.796367 1_545
F30 K4 2.796367 1_555
F31 Li2 1.854328 1_455
F31 K19 2.649539 1_555
F31 K11 2.706418 1_555
F31 K13 2.706418 1_555
F31 K3 2.796367 1_555
F31 K5 2.796367 1_545
F32 Li4 1.858937 1_555
F32 K17 2.655173 1_555
F32 K15 2.681575 1_455
F32 K9 2.681575 1_455
F32 K12 2.797068 1_555
F32 K10 2.797068 1_565
F33 Li5 1.858937 1_555
F33 K16 2.655173 1_555
F33 K8 2.681575 1_555
F33 K14 2.681575 1_555
F33 K11 2.797068 1_555
F33 K13 2.797068 1_565
F34 Li6 1.858937 1_555
F34 K19 2.655173 1_555
F34 K11 2.681575 1_655
F34 K13 2.681575 1_655
F34 K8 2.797068 1_555
F34 K14 2.797068 1_545
F35 Li7 1.858937 1_555
F35 K18 2.655173 1_555
F35 K10 2.681575 1_555
F35 K12 2.681575 1_555
F35 K15 2.797068 1_555
F35 K9 2.797068 1_545
F36 Li4 1.871832 1_555
F36 K2 2.755793 1_555
F36 K4 2.755793 1_555
F36 K12 2.825721 1_555
F36 K10 2.825721 1_565
F37 Li5 1.871832 1_555
F37 K3 2.755793 1_555
F37 K5 2.755793 1_555
F37 K11 2.825721 1_555
F37 K13 2.825721 1_565
F38 Li6 1.871832 1_555
F38 K6 2.755793 1_555
F38 K0 2.755793 1_555
F38 K8 2.825721 1_555
F38 K14 2.825721 1_545
F39 Li7 1.871832 1_555
F39 K1 2.755793 1_555
F39 K7 2.755793 1_555
F39 K15 2.825721 1_555
F39 K9 2.825721 1_545
