# generated using pymatgen
data_Sm3Eu
_symmetry_space_group_name_H-M   'P 1'
_cell_length_a   7.40645682
_cell_length_b   7.40645682
_cell_length_c   5.96856900
_cell_angle_alpha   90.00000000
_cell_angle_beta   90.00000000
_cell_angle_gamma   120.00000736
_symmetry_Int_Tables_number   1
_chemical_formula_structural   Sm3Eu
_chemical_formula_sum   'Sm6 Eu2'
_cell_volume   283.54487984
_cell_formula_units_Z   2
loop_
 _symmetry_equiv_pos_site_id
 _symmetry_equiv_pos_as_xyz
  1  'x, y, z'
loop_
 _atom_site_type_symbol
 _atom_site_label
 _atom_site_symmetry_multiplicity
 _atom_site_fract_x
 _atom_site_fract_y
 _atom_site_fract_z
 _atom_site_occupancy
  Sm  Sm0  1  0.16376600  0.32753300  0.25000000  1
  Sm  Sm1  1  0.67246700  0.83623400  0.25000000  1
  Sm  Sm2  1  0.16376600  0.83623400  0.25000000  1
  Sm  Sm3  1  0.83623400  0.67246700  0.75000000  1
  Sm  Sm4  1  0.32753300  0.16376600  0.75000000  1
  Sm  Sm5  1  0.83623400  0.16376600  0.75000000  1
  Eu  Eu0  1  0.33333300  0.66666700  0.75000000  1
  Eu  Eu1  1  0.66666700  0.33333300  0.25000000  1
loop_
_geom_bond_atom_site_label_1
_geom_bond_atom_site_label_2
_geom_bond_distance
_geom_bond_site_symmetry_2
Sm0 Sm1 3.638784 1_445
Sm0 Sm2 3.638785 1_545
Sm0 Sm5 3.649592 1_455
Sm0 Sm5 3.649592 1_454
Sm0 Sm4 3.649599 1_555
Sm0 Sm4 3.649599 1_554
Sm0 Sm1 3.767672 1_555
Sm0 Sm2 3.767672 1_555
Sm1 Sm2 3.638785 1_655
Sm1 Sm5 3.649592 1_565
Sm1 Sm5 3.649592 1_564
Sm1 Sm3 3.649599 1_554
Sm1 Sm3 3.649599 1_555
Sm1 Sm2 3.767672 1_555
Sm2 Sm3 3.649592 1_454
Sm2 Sm3 3.649592 1_455
Sm2 Sm4 3.649592 1_565
Sm2 Sm4 3.649592 1_564
Sm3 Sm4 3.638784 1_665
Sm3 Sm5 3.638785 1_565
Sm3 Sm4 3.767672 1_555
Sm3 Sm5 3.767672 1_555
Sm4 Sm5 3.638785 1_455
Sm4 Sm5 3.767672 1_555
Eu0 Sm1 3.692931 1_555
Eu0 Sm1 3.692931 1_556
Eu0 Sm0 3.692931 1_556
Eu0 Sm0 3.692931 1_555
Eu0 Sm2 3.692931 1_555
Eu0 Sm2 3.692931 1_556
Eu0 Sm3 3.703408 1_455
Eu0 Sm4 3.703408 1_565
Eu0 Sm5 3.703415 1_565
Eu0 Sm5 3.703415 1_455
Eu0 Sm3 3.703423 1_555
Eu0 Sm4 3.703423 1_555
Eu1 Sm3 3.692931 1_554
Eu1 Sm3 3.692931 1_555
Eu1 Sm4 3.692931 1_555
Eu1 Sm4 3.692931 1_554
Eu1 Sm5 3.692931 1_554
Eu1 Sm5 3.692931 1_555
Eu1 Sm1 3.703408 1_545
Eu1 Sm0 3.703408 1_655
Eu1 Sm2 3.703415 1_655
Eu1 Sm2 3.703415 1_545
Eu1 Sm1 3.703423 1_555
Eu1 Sm0 3.703423 1_555
