# generated using pymatgen
data_Sc2TiB2Ir5
_symmetry_space_group_name_H-M   'P 1'
_cell_length_a   9.38864900
_cell_length_b   9.38864900
_cell_length_c   3.15141600
_cell_angle_alpha   90.00000000
_cell_angle_beta   90.00000000
_cell_angle_gamma   90.00000000
_symmetry_Int_Tables_number   1
_chemical_formula_structural   Sc2TiB2Ir5
_chemical_formula_sum   'Sc4 Ti2 B4 Ir10'
_cell_volume   277.78701541
_cell_formula_units_Z   2
loop_
 _symmetry_equiv_pos_site_id
 _symmetry_equiv_pos_as_xyz
  1  'x, y, z'
loop_
 _atom_site_type_symbol
 _atom_site_label
 _atom_site_symmetry_multiplicity
 _atom_site_fract_x
 _atom_site_fract_y
 _atom_site_fract_z
 _atom_site_occupancy
  Sc  Sc0  1  0.67516100  0.17516100  0.00000000  1
  Sc  Sc1  1  0.32483900  0.82483900  0.00000000  1
  Sc  Sc2  1  0.17516100  0.32483900  0.00000000  1
  Sc  Sc3  1  0.82483900  0.67516100  0.00000000  1
  Ti  Ti0  1  0.00000000  0.00000000  0.00000000  1
  Ti  Ti1  1  0.50000000  0.50000000  0.00000000  1
  B  B0  1  0.12199000  0.62199000  0.00000000  1
  B  B1  1  0.87801000  0.37801000  0.00000000  1
  B  B2  1  0.62199000  0.87801000  0.00000000  1
  B  B3  1  0.37801000  0.12199000  0.00000000  1
  Ir  Ir0  1  0.21703600  0.07149100  0.50000000  1
  Ir  Ir1  1  0.78296400  0.92850900  0.50000000  1
  Ir  Ir2  1  0.07149100  0.78296400  0.50000000  1
  Ir  Ir3  1  0.71703600  0.42850900  0.50000000  1
  Ir  Ir4  1  0.92850900  0.21703600  0.50000000  1
  Ir  Ir5  1  0.28296400  0.57149100  0.50000000  1
  Ir  Ir6  1  0.57149100  0.71703600  0.50000000  1
  Ir  Ir7  1  0.42850900  0.28296400  0.50000000  1
  Ir  Ir8  1  0.50000000  0.00000000  0.50000000  1
  Ir  Ir9  1  0.00000000  0.50000000  0.50000000  1
loop_
_geom_bond_atom_site_label_1
_geom_bond_atom_site_label_2
_geom_bond_distance
_geom_bond_site_symmetry_2
B0 Ir5 2.234224 1_554
B0 Ir2 2.234224 1_554
B0 Ir5 2.234224 1_555
B0 Ir2 2.234224 1_555
B0 Ir9 2.259730 1_554
B0 Ir9 2.259730 1_555
B0 Sc1 2.693339 1_555
B0 Sc2 2.834157 1_555
B0 Sc3 2.834157 1_455
B1 Ir3 2.234224 1_555
B1 Ir3 2.234224 1_554
B1 Ir4 2.234224 1_555
B1 Ir4 2.234224 1_554
B1 Ir9 2.259730 1_655
B1 Ir9 2.259730 1_654
B1 Sc0 2.693339 1_555
B1 Sc2 2.834157 1_655
B1 Sc3 2.834157 1_555
B2 Ir1 2.234224 1_555
B2 Ir1 2.234224 1_554
B2 Ir6 2.234224 1_555
B2 Ir6 2.234224 1_554
B2 Ir8 2.259730 1_565
B2 Ir8 2.259730 1_564
B2 Sc3 2.693339 1_555
B2 Sc0 2.834157 1_565
B2 Sc1 2.834157 1_555
B3 Ir7 2.234224 1_555
B3 Ir7 2.234224 1_554
B3 Ir0 2.234224 1_555
B3 Ir0 2.234224 1_554
B3 Ir8 2.259730 1_555
B3 Ir8 2.259730 1_554
B3 Sc2 2.693339 1_555
B3 Sc0 2.834157 1_555
B3 Sc1 2.834157 1_545
Ir0 Ti0 2.661858 1_556
Ir0 Ti0 2.661858 1_555
Ir0 Sc2 2.880128 1_556
Ir0 Sc2 2.880128 1_555
Ir0 Sc1 2.978230 1_546
Ir0 Sc1 2.978230 1_545
Ir1 Ti0 2.661858 1_665
Ir1 Ti0 2.661858 1_666
Ir1 Sc3 2.880128 1_556
Ir1 Sc3 2.880128 1_555
Ir1 Sc0 2.978230 1_566
Ir1 Sc0 2.978230 1_565
Ir2 Ti0 2.661858 1_566
Ir2 Ti0 2.661858 1_565
Ir2 Sc1 2.880128 1_555
Ir2 Sc1 2.880128 1_556
Ir2 Sc3 2.978230 1_455
Ir2 Sc3 2.978230 1_456
Ir3 Ti1 2.661858 1_555
Ir3 Ti1 2.661858 1_556
Ir3 Sc0 2.880128 1_555
Ir3 Sc0 2.880128 1_556
Ir3 Sc3 2.978230 1_556
Ir3 Sc3 2.978230 1_555
Ir4 Ti0 2.661858 1_655
Ir4 Ti0 2.661858 1_656
Ir4 Sc0 2.880128 1_555
Ir4 Sc0 2.880128 1_556
Ir4 Sc2 2.978230 1_655
Ir4 Sc2 2.978230 1_656
Ir5 Ti1 2.661858 1_555
Ir5 Ti1 2.661858 1_556
Ir5 Sc1 2.880128 1_555
Ir5 Sc1 2.880128 1_556
Ir5 Sc2 2.978230 1_556
Ir5 Sc2 2.978230 1_555
Ir6 Ti1 2.661858 1_555
Ir6 Ti1 2.661858 1_556
Ir6 Sc3 2.880128 1_556
Ir6 Sc3 2.880128 1_555
Ir6 Sc1 2.978230 1_556
Ir6 Sc1 2.978230 1_555
Ir7 Ti1 2.661858 1_555
Ir7 Ti1 2.661858 1_556
Ir7 Sc2 2.880128 1_555
Ir7 Sc2 2.880128 1_556
Ir7 Sc0 2.978230 1_556
Ir7 Sc0 2.978230 1_555
Ir8 Sc0 2.809232 1_555
Ir8 Sc0 2.809232 1_556
Ir8 Sc1 2.809232 1_546
Ir8 Sc1 2.809232 1_545
Ir9 Sc2 2.809232 1_556
Ir9 Sc2 2.809232 1_555
Ir9 Sc3 2.809232 1_455
Ir9 Sc3 2.809232 1_456
