# generated using pymatgen
data_La3AlCdS7
_symmetry_space_group_name_H-M   'P 1'
_cell_length_a   10.36438551
_cell_length_b   10.36438551
_cell_length_c   6.08258800
_cell_angle_alpha   90.00000000
_cell_angle_beta   90.00000000
_cell_angle_gamma   119.99999685
_symmetry_Int_Tables_number   1
_chemical_formula_structural   La3AlCdS7
_chemical_formula_sum   'La6 Al2 Cd2 S14'
_cell_volume   565.85630967
_cell_formula_units_Z   2
loop_
 _symmetry_equiv_pos_site_id
 _symmetry_equiv_pos_as_xyz
  1  'x, y, z'
loop_
 _atom_site_type_symbol
 _atom_site_label
 _atom_site_symmetry_multiplicity
 _atom_site_fract_x
 _atom_site_fract_y
 _atom_site_fract_z
 _atom_site_occupancy
  La  La0  1  0.24516600  0.37515300  0.26009900  1
  La  La1  1  0.62484700  0.87001300  0.26009900  1
  La  La2  1  0.12998700  0.75483400  0.26009900  1
  La  La3  1  0.75483400  0.62484700  0.76009900  1
  La  La4  1  0.37515300  0.12998700  0.76009900  1
  La  La5  1  0.87001300  0.24516600  0.76009900  1
  Al  Al0  1  0.33333300  0.66666700  0.84133900  1
  Al  Al1  1  0.66666700  0.33333300  0.34133900  1
  Cd  Cd0  1  0.00000000  0.00000000  0.50236800  1
  Cd  Cd1  1  0.00000000  0.00000000  0.00236800  1
  S  S0  1  0.16402100  0.25002300  0.74772900  1
  S  S1  1  0.74997700  0.91399900  0.74772900  1
  S  S2  1  0.08600100  0.83597900  0.74772900  1
  S  S3  1  0.83597900  0.74997700  0.24772900  1
  S  S4  1  0.25002300  0.08600100  0.24772900  1
  S  S5  1  0.91399900  0.16402100  0.24772900  1
  S  S6  1  0.10613800  0.51643500  0.99245200  1
  S  S7  1  0.48356500  0.58970300  0.99245200  1
  S  S8  1  0.41029700  0.89386200  0.99245200  1
  S  S9  1  0.89386200  0.48356500  0.49245200  1
  S  S10  1  0.51643500  0.41029700  0.49245200  1
  S  S11  1  0.58970300  0.10613800  0.49245200  1
  S  S12  1  0.33333300  0.66666700  0.47347000  1
  S  S13  1  0.66666700  0.33333300  0.97347000  1
loop_
_geom_bond_atom_site_label_1
_geom_bond_atom_site_label_2
_geom_bond_distance
_geom_bond_site_symmetry_2
La0 S7 2.864583 1_554
La0 S12 2.981134 1_555
La0 S6 2.996797 1_554
La0 S10 3.001793 1_555
La0 S5 3.010690 1_455
La0 S4 3.023304 1_555
La0 S0 3.177421 1_555
La0 S0 3.318333 1_554
La1 S8 2.864583 1_554
La1 S12 2.981132 1_555
La1 S7 2.996797 1_554
La1 S11 3.001793 1_565
La1 S3 3.010698 1_555
La1 S5 3.023298 1_565
La1 S1 3.177420 1_555
La1 S1 3.318332 1_554
La2 S6 2.864583 1_554
La2 S12 2.981125 1_555
La2 S8 2.996797 1_554
La2 S9 3.001793 1_455
La2 S4 3.010688 1_565
La2 S3 3.023293 1_455
La2 S2 3.177424 1_555
La2 S2 3.318335 1_554
La3 S10 2.864583 1_555
La3 S13 2.981134 1_555
La3 S9 2.996797 1_555
La3 S7 3.001793 1_555
La3 S2 3.010690 1_655
La3 S1 3.023304 1_555
La3 S3 3.177421 1_556
La3 S3 3.318333 1_555
La4 S11 2.864583 1_555
La4 S13 2.981132 1_555
La4 S10 2.996797 1_555
La4 S8 3.001793 1_545
La4 S0 3.010698 1_555
La4 S2 3.023298 1_545
La4 S4 3.177420 1_556
La4 S4 3.318332 1_555
La5 S9 2.864583 1_555
La5 S13 2.981125 1_555
La5 S11 2.996797 1_555
La5 S6 3.001793 1_655
La5 S1 3.010688 1_545
La5 S0 3.023293 1_655
La5 S5 3.177424 1_556
La5 S5 3.318335 1_555
Al0 S12 2.237596 1_555
Al0 S8 2.268832 1_555
Al0 S6 2.268834 1_555
Al0 S7 2.268841 1_555
Al1 S13 2.237596 1_554
Al1 S11 2.268832 1_555
Al1 S9 2.268834 1_555
Al1 S10 2.268841 1_555
Cd0 S2 2.725259 1_545
Cd0 S0 2.725266 1_555
Cd0 S1 2.725268 1_445
Cd0 S5 2.756569 1_455
Cd0 S3 2.756576 1_445
Cd0 S4 2.756577 1_555
Cd1 S5 2.725259 1_455
Cd1 S3 2.725266 1_445
Cd1 S4 2.725268 1_555
Cd1 S2 2.756569 1_544
Cd1 S0 2.756576 1_554
Cd1 S1 2.756577 1_444
