# generated using pymatgen
data_CaSi2SnO6
_symmetry_space_group_name_H-M   'P 1'
_cell_length_a   5.53832700
_cell_length_b   9.67723300
_cell_length_c   20.44132200
_cell_angle_alpha   90.00000000
_cell_angle_beta   90.00000000
_cell_angle_gamma   90.00000000
_symmetry_Int_Tables_number   1
_chemical_formula_structural   CaSi2SnO6
_chemical_formula_sum   'Ca8 Si16 Sn8 O48'
_cell_volume   1095.56656923
_cell_formula_units_Z   8
loop_
 _symmetry_equiv_pos_site_id
 _symmetry_equiv_pos_as_xyz
  1  'x, y, z'
loop_
 _atom_site_type_symbol
 _atom_site_label
 _atom_site_symmetry_multiplicity
 _atom_site_fract_x
 _atom_site_fract_y
 _atom_site_fract_z
 _atom_site_occupancy
  Ca  Ca0  1  0.62498400  0.14274900  0.37456400  1
  Ca  Ca1  1  0.37501600  0.85725100  0.62543600  1
  Ca  Ca2  1  0.62498400  0.64274900  0.12543600  1
  Ca  Ca3  1  0.12498400  0.85725100  0.12543600  1
  Ca  Ca4  1  0.87501600  0.14274900  0.87456400  1
  Ca  Ca5  1  0.37501600  0.35725100  0.87456400  1
  Ca  Ca6  1  0.12498400  0.35725100  0.37456400  1
  Ca  Ca7  1  0.87501600  0.64274900  0.62543600  1
  Si  Si0  1  0.50577300  0.66126000  0.76274000  1
  Si  Si1  1  0.73362500  0.83800400  0.48684300  1
  Si  Si2  1  0.76637500  0.83800400  0.98684300  1
  Si  Si3  1  0.99422700  0.16126000  0.23726000  1
  Si  Si4  1  0.00577300  0.33874000  0.73726000  1
  Si  Si5  1  0.49422700  0.83874000  0.26274000  1
  Si  Si6  1  0.23362500  0.66199600  0.48684300  1
  Si  Si7  1  0.73362500  0.33800400  0.01315700  1
  Si  Si8  1  0.76637500  0.33800400  0.51315700  1
  Si  Si9  1  0.99422700  0.66126000  0.26274000  1
  Si  Si10  1  0.49422700  0.33874000  0.23726000  1
  Si  Si11  1  0.50577300  0.16126000  0.73726000  1
  Si  Si12  1  0.26637500  0.16199600  0.51315700  1
  Si  Si13  1  0.00577300  0.83874000  0.76274000  1
  Si  Si14  1  0.26637500  0.66199600  0.98684300  1
  Si  Si15  1  0.23362500  0.16199600  0.01315700  1
  Sn  Sn0  1  0.37373800  0.95777400  0.87686000  1
  Sn  Sn1  1  0.62626200  0.04222600  0.12314000  1
  Sn  Sn2  1  0.87373800  0.04222600  0.62314000  1
  Sn  Sn3  1  0.12626200  0.95777400  0.37686000  1
  Sn  Sn4  1  0.37373800  0.45777400  0.62314000  1
  Sn  Sn5  1  0.62626200  0.54222600  0.37686000  1
  Sn  Sn6  1  0.87373800  0.54222600  0.87686000  1
  Sn  Sn7  1  0.12626200  0.45777400  0.12314000  1
  O  O0  1  0.97180400  0.52210200  0.30597200  1
  O  O1  1  0.26296000  0.02109000  0.05455800  1
  O  O2  1  0.02819600  0.47789800  0.69402800  1
  O  O3  1  0.73557400  0.35146300  0.93257900  1
  O  O4  1  0.23557400  0.14853700  0.93257900  1
  O  O5  1  0.97013500  0.23688400  0.03243600  1
  O  O6  1  0.98821500  0.64487500  0.18238200  1
  O  O7  1  0.01178500  0.85512500  0.68238200  1
  O  O8  1  0.73557400  0.85146300  0.56742100  1
  O  O9  1  0.98821500  0.14487500  0.31761800  1
  O  O10  1  0.47180400  0.47789800  0.19402800  1
  O  O11  1  0.76442600  0.35146300  0.43257900  1
  O  O12  1  0.73704000  0.97891000  0.94544200  1
  O  O13  1  0.48821500  0.85512500  0.18238200  1
  O  O14  1  0.52819600  0.02210200  0.69402800  1
  O  O15  1  0.26296000  0.52109000  0.44544200  1
  O  O16  1  0.47180400  0.97789800  0.30597200  1
  O  O17  1  0.25171200  0.74208800  0.28134600  1
  O  O18  1  0.24828800  0.74208800  0.78134600  1
  O  O19  1  0.52986500  0.73688400  0.96756400  1
  O  O20  1  0.76442600  0.85146300  0.06742100  1
  O  O21  1  0.51178500  0.64487500  0.68238200  1
  O  O22  1  0.76296000  0.47891000  0.05455800  1
  O  O23  1  0.25171200  0.24208800  0.21865400  1
  O  O24  1  0.26442600  0.14853700  0.43257900  1
  O  O25  1  0.51178500  0.14487500  0.81761800  1
  O  O26  1  0.73704000  0.47891000  0.55455800  1
  O  O27  1  0.23557400  0.64853700  0.56742100  1
  O  O28  1  0.23704000  0.52109000  0.94544200  1
  O  O29  1  0.75171200  0.75791200  0.28134600  1
  O  O30  1  0.02819600  0.97789800  0.80597200  1
  O  O31  1  0.74828800  0.75791200  0.78134600  1
  O  O32  1  0.74828800  0.25791200  0.71865400  1
  O  O33  1  0.76296000  0.97891000  0.44544200  1
  O  O34  1  0.26442600  0.64853700  0.06742100  1
  O  O35  1  0.23704000  0.02109000  0.55455800  1
  O  O36  1  0.24828800  0.24208800  0.71865400  1
  O  O37  1  0.02986500  0.76311600  0.96756400  1
  O  O38  1  0.47013500  0.76311600  0.46756400  1
  O  O39  1  0.75171200  0.25791200  0.21865400  1
  O  O40  1  0.47013500  0.26311600  0.03243600  1
  O  O41  1  0.52986500  0.23688400  0.53243600  1
  O  O42  1  0.02986500  0.26311600  0.53243600  1
  O  O43  1  0.48821500  0.35512500  0.31761800  1
  O  O44  1  0.52819600  0.52210200  0.80597200  1
  O  O45  1  0.97013500  0.73688400  0.46756400  1
  O  O46  1  0.01178500  0.35512500  0.81761800  1
  O  O47  1  0.97180400  0.02210200  0.19402800  1
loop_
_geom_bond_atom_site_label_1
_geom_bond_atom_site_label_2
_geom_bond_distance
_geom_bond_site_symmetry_2
Ca0 O33 2.279673 1_545
Ca0 O16 2.287055 1_545
Ca0 O24 2.323159 1_555
Ca0 O9 2.324294 1_555
Ca0 O11 2.466224 1_555
Ca0 O43 2.480459 1_555
Ca1 O35 2.279673 1_565
Ca1 O14 2.287055 1_565
Ca1 O8 2.323159 1_555
Ca1 O7 2.324294 1_555
Ca1 O27 2.466224 1_555
Ca1 O21 2.480459 1_555
Ca2 O22 2.279673 1_555
Ca2 O10 2.287055 1_555
Ca2 O34 2.323159 1_555
Ca2 O6 2.324294 1_555
Ca2 O20 2.466224 1_555
Ca2 O13 2.480459 1_555
Ca3 O1 2.279673 1_565
Ca3 O47 2.287055 1_465
Ca3 O20 2.323159 1_455
Ca3 O13 2.324294 1_555
Ca3 O34 2.466224 1_555
Ca3 O6 2.480459 1_455
Ca4 O12 2.279673 1_545
Ca4 O30 2.287055 1_645
Ca4 O4 2.323159 1_655
Ca4 O25 2.324294 1_555
Ca4 O3 2.466224 1_555
Ca4 O46 2.480459 1_655
Ca5 O28 2.279673 1_555
Ca5 O44 2.287055 1_555
Ca5 O3 2.323159 1_555
Ca5 O46 2.324294 1_555
Ca5 O4 2.466224 1_555
Ca5 O25 2.480459 1_555
Ca6 O15 2.279673 1_555
Ca6 O0 2.287055 1_455
Ca6 O11 2.323159 1_455
Ca6 O43 2.324294 1_555
Ca6 O24 2.466224 1_555
Ca6 O9 2.480459 1_455
Ca7 O26 2.279673 1_555
Ca7 O2 2.287055 1_655
Ca7 O27 2.323159 1_655
Ca7 O21 2.324294 1_555
Ca7 O8 2.466224 1_555
Ca7 O7 2.480459 1_655
O0 Si9 1.615514 1_555
O0 Sn5 2.408318 1_555
O1 Si15 1.613058 1_555
O1 Sn1 2.460826 1_555
O2 Si4 1.615514 1_555
O2 Sn4 2.408318 1_555
O3 Si7 1.652298 1_556
O3 Sn6 2.300154 1_555
O4 Si15 1.652298 1_556
O4 Sn0 2.300154 1_545
O5 Si15 1.676319 1_655
O5 Si7 1.681858 1_555
O6 Si9 1.650595 1_555
O6 Sn7 2.308542 1_655
O7 Si13 1.650595 1_555
O7 Sn2 2.308542 1_465
O8 Si1 1.652298 1_555
O8 Sn2 2.300154 1_565
O9 Si3 1.650595 1_555
O9 Sn3 2.308542 1_645
O10 Si10 1.615514 1_555
O10 Sn7 2.408318 1_555
O11 Si8 1.652298 1_555
O11 Sn5 2.300154 1_555
O12 Si2 1.613058 1_555
O12 Sn0 2.460826 1_555
O13 Si5 1.650595 1_555
O13 Sn1 2.308542 1_565
O14 Si11 1.615514 1_555
O14 Sn2 2.408318 1_555
O15 Si6 1.613058 1_555
O15 Sn5 2.460826 1_555
O16 Si5 1.615514 1_555
O16 Sn3 2.408318 1_555
O17 Si9 1.670346 1_455
O17 Si5 1.680320 1_555
O18 Si0 1.670346 1_555
O18 Si13 1.680320 1_555
O19 Si14 1.676319 1_555
O19 Si2 1.681858 1_555
O20 Si2 1.652298 1_554
O20 Sn1 2.300154 1_565
O21 Si0 1.650595 1_555
O21 Sn4 2.308542 1_555
O22 Si7 1.613058 1_555
O22 Sn7 2.460826 1_655
O23 Si3 1.670346 1_455
O23 Si10 1.680320 1_555
O24 Si12 1.652298 1_555
O24 Sn3 2.300154 1_545
O25 Si11 1.650595 1_555
O25 Sn0 2.308542 1_545
O26 Si8 1.613058 1_555
O26 Sn4 2.460826 1_555
O27 Si6 1.652298 1_555
O27 Sn4 2.300154 1_555
O28 Si14 1.613058 1_555
O28 Sn6 2.460826 1_455
O29 Si5 1.670346 1_555
O29 Si9 1.680320 1_555
O30 Si13 1.615514 1_555
O30 Sn0 2.408318 1_555
O31 Si13 1.670346 1_655
O31 Si0 1.680320 1_555
O32 Si4 1.670346 1_655
O32 Si11 1.680320 1_555
O33 Si1 1.613058 1_555
O33 Sn3 2.460826 1_655
O34 Si14 1.652298 1_554
O34 Sn7 2.300154 1_555
O35 Si12 1.613058 1_555
O35 Sn2 2.460826 1_455
O36 Si11 1.670346 1_555
O36 Si4 1.680320 1_555
O37 Si2 1.676319 1_455
O37 Si14 1.681858 1_555
O38 Si1 1.676319 1_555
O38 Si6 1.681858 1_555
O39 Si10 1.670346 1_555
O39 Si3 1.680320 1_555
O40 Si7 1.676319 1_555
O40 Si15 1.681858 1_555
O41 Si12 1.676319 1_555
O41 Si8 1.681858 1_555
O42 Si8 1.676319 1_455
O42 Si12 1.681858 1_555
O43 Si10 1.650595 1_555
O43 Sn5 2.308542 1_555
O44 Si0 1.615514 1_555
O44 Sn6 2.408318 1_555
O45 Si6 1.676319 1_655
O45 Si1 1.681858 1_555
O46 Si4 1.650595 1_555
O46 Sn6 2.308542 1_455
O47 Si3 1.615514 1_555
O47 Sn1 2.408318 1_555
