# generated using pymatgen
data_Sc5(Si5Rh2)2
_symmetry_space_group_name_H-M   'P 1'
_cell_length_a   12.41833200
_cell_length_b   12.41833200
_cell_length_c   4.06361700
_cell_angle_alpha   90.00000000
_cell_angle_beta   90.00000000
_cell_angle_gamma   90.00000000
_symmetry_Int_Tables_number   1
_chemical_formula_structural   Sc5(Si5Rh2)2
_chemical_formula_sum   'Sc10 Si20 Rh8'
_cell_volume   626.67057237
_cell_formula_units_Z   2
loop_
 _symmetry_equiv_pos_site_id
 _symmetry_equiv_pos_as_xyz
  1  'x, y, z'
loop_
 _atom_site_type_symbol
 _atom_site_label
 _atom_site_symmetry_multiplicity
 _atom_site_fract_x
 _atom_site_fract_y
 _atom_site_fract_z
 _atom_site_occupancy
  Sc  Sc0  1  0.50000000  0.50000000  0.00000000  1
  Sc  Sc1  1  0.00000000  0.00000000  0.00000000  1
  Sc  Sc2  1  0.67519500  0.17519500  0.50000000  1
  Sc  Sc3  1  0.32480500  0.82480500  0.50000000  1
  Sc  Sc4  1  0.17519500  0.32480500  0.50000000  1
  Sc  Sc5  1  0.82480500  0.67519500  0.50000000  1
  Sc  Sc6  1  0.88660000  0.38660000  0.50000000  1
  Sc  Sc7  1  0.11340000  0.61340000  0.50000000  1
  Sc  Sc8  1  0.38660000  0.11340000  0.50000000  1
  Sc  Sc9  1  0.61340000  0.88660000  0.50000000  1
  Si  Si0  1  0.56589600  0.06589600  0.00000000  1
  Si  Si1  1  0.43410400  0.93410400  0.00000000  1
  Si  Si2  1  0.06589600  0.43410400  0.00000000  1
  Si  Si3  1  0.93410400  0.56589600  0.00000000  1
  Si  Si4  1  0.66359400  0.70110400  0.00000000  1
  Si  Si5  1  0.33640600  0.29889600  0.00000000  1
  Si  Si6  1  0.16359400  0.79889600  0.00000000  1
  Si  Si7  1  0.83640600  0.20110400  0.00000000  1
  Si  Si8  1  0.29889600  0.66359400  0.00000000  1
  Si  Si9  1  0.70110400  0.33640600  0.00000000  1
  Si  Si10  1  0.20110400  0.16359400  0.00000000  1
  Si  Si11  1  0.79889600  0.83640600  0.00000000  1
  Si  Si12  1  0.65289100  0.50276900  0.50000000  1
  Si  Si13  1  0.34710900  0.49723100  0.50000000  1
  Si  Si14  1  0.15289100  0.99723100  0.50000000  1
  Si  Si15  1  0.84710900  0.00276900  0.50000000  1
  Si  Si16  1  0.49723100  0.65289100  0.50000000  1
  Si  Si17  1  0.50276900  0.34710900  0.50000000  1
  Si  Si18  1  0.00276900  0.15289100  0.50000000  1
  Si  Si19  1  0.99723100  0.84710900  0.50000000  1
  Rh  Rh0  1  0.74598700  0.52081000  0.00000000  1
  Rh  Rh1  1  0.25401300  0.47919000  0.00000000  1
  Rh  Rh2  1  0.24598700  0.97919000  0.00000000  1
  Rh  Rh3  1  0.75401300  0.02081000  0.00000000  1
  Rh  Rh4  1  0.47919000  0.74598700  0.00000000  1
  Rh  Rh5  1  0.52081000  0.25401300  0.00000000  1
  Rh  Rh6  1  0.02081000  0.24598700  0.00000000  1
  Rh  Rh7  1  0.97919000  0.75401300  0.00000000  1
loop_
_geom_bond_atom_site_label_1
_geom_bond_atom_site_label_2
_geom_bond_distance
_geom_bond_site_symmetry_2
Sc0 Si13 2.781062 1_554
Sc0 Si12 2.781062 1_555
Sc0 Si13 2.781062 1_555
Sc0 Si12 2.781062 1_554
Sc0 Si17 2.781062 1_555
Sc0 Si17 2.781062 1_554
Sc0 Si16 2.781062 1_554
Sc0 Si16 2.781062 1_555
Sc0 Si9 3.219339 1_555
Sc0 Si4 3.219339 1_555
Sc0 Si8 3.219339 1_555
Sc0 Si5 3.219339 1_555
Sc1 Si15 2.781062 1_455
Sc1 Si15 2.781062 1_454
Sc1 Si18 2.781062 1_555
Sc1 Si18 2.781062 1_554
Sc1 Si14 2.781062 1_544
Sc1 Si14 2.781062 1_545
Sc1 Si19 2.781062 1_444
Sc1 Si19 2.781062 1_445
Sc1 Si10 3.219339 1_555
Sc1 Si7 3.219339 1_455
Sc1 Si6 3.219339 1_545
Sc1 Si11 3.219339 1_445
Sc2 Si0 2.795145 1_556
Sc2 Si0 2.795145 1_555
Sc2 Si7 2.870480 1_555
Sc2 Si7 2.870480 1_556
Sc2 Si9 2.870480 1_556
Sc2 Si9 2.870480 1_555
Sc2 Si17 3.023683 1_555
Sc2 Si15 3.023683 1_555
Sc3 Si1 2.795145 1_555
Sc3 Si1 2.795145 1_556
Sc3 Si8 2.870480 1_556
Sc3 Si8 2.870480 1_555
Sc3 Si6 2.870480 1_555
Sc3 Si6 2.870480 1_556
Sc3 Si14 3.023683 1_555
Sc3 Si16 3.023683 1_555
Sc4 Si2 2.795145 1_556
Sc4 Si2 2.795145 1_555
Sc4 Si10 2.870480 1_556
Sc4 Si10 2.870480 1_555
Sc4 Si5 2.870480 1_555
Sc4 Si5 2.870480 1_556
Sc4 Si13 3.023683 1_555
Sc4 Si18 3.023683 1_555
Sc5 Si3 2.795145 1_555
Sc5 Si3 2.795145 1_556
Sc5 Si4 2.870480 1_556
Sc5 Si4 2.870480 1_555
Sc5 Si11 2.870480 1_555
Sc5 Si11 2.870480 1_556
Sc5 Si12 3.023683 1_555
Sc5 Si19 3.023683 1_555
Sc6 Si3 3.071451 1_555
Sc6 Si3 3.071451 1_556
Sc6 Si2 3.071451 1_655
Sc6 Si2 3.071451 1_656
Sc6 Si9 3.134187 1_556
Sc6 Si9 3.134187 1_555
Sc6 Si7 3.134187 1_556
Sc6 Si7 3.134187 1_555
Sc6 Si18 3.241045 1_655
Sc6 Si12 3.241045 1_555
Sc7 Si2 3.071451 1_556
Sc7 Si2 3.071451 1_555
Sc7 Si3 3.071451 1_456
Sc7 Si3 3.071451 1_455
Sc7 Si6 3.134187 1_555
Sc7 Si6 3.134187 1_556
Sc7 Si8 3.134187 1_556
Sc7 Si8 3.134187 1_555
Sc7 Si19 3.241045 1_455
Sc7 Si13 3.241045 1_555
Sc8 Si0 3.071451 1_556
Sc8 Si0 3.071451 1_555
Sc8 Si1 3.071451 1_545
Sc8 Si1 3.071451 1_546
Sc8 Si5 3.134187 1_556
Sc8 Si5 3.134187 1_555
Sc8 Si10 3.134187 1_555
Sc8 Si10 3.134187 1_556
Sc8 Si14 3.241045 1_545
Sc8 Si17 3.241045 1_555
Sc9 Si1 3.071451 1_555
Sc9 Si1 3.071451 1_556
Sc9 Si0 3.071451 1_565
Sc9 Si0 3.071451 1_566
Sc9 Si11 3.134187 1_555
Sc9 Si11 3.134187 1_556
Sc9 Si4 3.134187 1_555
Sc9 Si4 3.134187 1_556
Sc9 Si15 3.241045 1_565
Sc9 Si16 3.241045 1_555
Si0 Si1 2.314554 1_545
Si2 Si3 2.314554 1_455
Rh0 Si12 2.348404 1_554
Rh0 Si12 2.348404 1_555
Rh0 Si9 2.356845 1_555
Rh0 Si3 2.402257 1_555
Rh0 Si4 2.461667 1_555
Rh0 Sc5 2.960058 1_555
Rh0 Sc5 2.960058 1_554
Rh0 Sc0 3.065660 1_555
Rh0 Sc6 3.155179 1_554
Rh0 Sc6 3.155179 1_555
Rh1 Si13 2.348404 1_554
Rh1 Si13 2.348404 1_555
Rh1 Si8 2.356845 1_555
Rh1 Si2 2.402257 1_555
Rh1 Si5 2.461667 1_555
Rh1 Sc4 2.960058 1_555
Rh1 Sc4 2.960058 1_554
Rh1 Sc0 3.065660 1_555
Rh1 Sc7 3.155179 1_554
Rh1 Sc7 3.155179 1_555
Rh2 Si14 2.348404 1_554
Rh2 Si14 2.348404 1_555
Rh2 Si10 2.356845 1_565
Rh2 Si1 2.402257 1_555
Rh2 Si6 2.461667 1_555
Rh2 Sc3 2.960058 1_554
Rh2 Sc3 2.960058 1_555
Rh2 Sc1 3.065660 1_565
Rh2 Sc8 3.155179 1_565
Rh2 Sc8 3.155179 1_564
Rh3 Si15 2.348404 1_554
Rh3 Si15 2.348404 1_555
Rh3 Si11 2.356845 1_545
Rh3 Si0 2.402257 1_555
Rh3 Si7 2.461667 1_555
Rh3 Sc2 2.960058 1_554
Rh3 Sc2 2.960058 1_555
Rh3 Sc1 3.065660 1_655
Rh3 Sc9 3.155179 1_545
Rh3 Sc9 3.155179 1_544
Rh4 Si16 2.348404 1_555
Rh4 Si16 2.348404 1_554
Rh4 Si4 2.356845 1_555
Rh4 Si1 2.402257 1_555
Rh4 Si8 2.461667 1_555
Rh4 Sc3 2.960058 1_554
Rh4 Sc3 2.960058 1_555
Rh4 Sc0 3.065660 1_555
Rh4 Sc9 3.155179 1_554
Rh4 Sc9 3.155179 1_555
Rh5 Si17 2.348404 1_554
Rh5 Si17 2.348404 1_555
Rh5 Si5 2.356845 1_555
Rh5 Si0 2.402257 1_555
Rh5 Si9 2.461667 1_555
Rh5 Sc2 2.960058 1_554
Rh5 Sc2 2.960058 1_555
Rh5 Sc0 3.065660 1_555
Rh5 Sc8 3.155179 1_555
Rh5 Sc8 3.155179 1_554
Rh6 Si18 2.348404 1_555
Rh6 Si18 2.348404 1_554
Rh6 Si7 2.356845 1_455
Rh6 Si2 2.402257 1_555
Rh6 Si10 2.461667 1_555
Rh6 Sc4 2.960058 1_555
Rh6 Sc4 2.960058 1_554
Rh6 Sc1 3.065660 1_555
Rh6 Sc6 3.155179 1_454
Rh6 Sc6 3.155179 1_455
Rh7 Si19 2.348404 1_554
Rh7 Si19 2.348404 1_555
Rh7 Si6 2.356845 1_655
Rh7 Si3 2.402257 1_555
Rh7 Si11 2.461667 1_555
Rh7 Sc5 2.960058 1_555
Rh7 Sc5 2.960058 1_554
Rh7 Sc1 3.065660 1_665
Rh7 Sc7 3.155179 1_655
Rh7 Sc7 3.155179 1_654
