# generated using pymatgen
data_Mg6AlV
_symmetry_space_group_name_H-M   'P 1'
_cell_length_a   5.01228000
_cell_length_b   6.05102300
_cell_length_c   10.84033900
_cell_angle_alpha   90.00000000
_cell_angle_beta   90.00000000
_cell_angle_gamma   90.00000000
_symmetry_Int_Tables_number   1
_chemical_formula_structural   Mg6AlV
_chemical_formula_sum   'Mg12 Al2 V2'
_cell_volume   328.78121141
_cell_formula_units_Z   2
loop_
 _symmetry_equiv_pos_site_id
 _symmetry_equiv_pos_as_xyz
  1  'x, y, z'
loop_
 _atom_site_type_symbol
 _atom_site_label
 _atom_site_symmetry_multiplicity
 _atom_site_fract_x
 _atom_site_fract_y
 _atom_site_fract_z
 _atom_site_occupancy
  Mg  Mg0  1  0.50000000  0.25120200  0.41727600  1
  Mg  Mg1  1  0.50000000  0.74879800  0.41727600  1
  Mg  Mg2  1  0.00000000  0.74539100  0.08628900  1
  Mg  Mg3  1  0.00000000  0.25460900  0.08628900  1
  Mg  Mg4  1  0.00000000  0.00000000  0.33061700  1
  Mg  Mg5  1  0.00000000  0.50000000  0.32765500  1
  Mg  Mg6  1  0.50000000  0.75120200  0.91727600  1
  Mg  Mg7  1  0.50000000  0.24879800  0.91727600  1
  Mg  Mg8  1  0.00000000  0.24539100  0.58628900  1
  Mg  Mg9  1  0.00000000  0.75460900  0.58628900  1
  Mg  Mg10  1  0.00000000  0.50000000  0.83061700  1
  Mg  Mg11  1  0.00000000  0.00000000  0.82765500  1
  Al  Al0  1  0.50000000  0.00000000  0.16648300  1
  Al  Al1  1  0.50000000  0.50000000  0.66648300  1
  V  V0  1  0.50000000  0.50000000  0.16811100  1
  V  V1  1  0.50000000  0.00000000  0.66811100  1
loop_
_geom_bond_atom_site_label_1
_geom_bond_atom_site_label_2
_geom_bond_distance
_geom_bond_site_symmetry_2
Mg0 Mg1 3.010965 1_555
Mg0 Mg1 3.040058 1_545
Mg0 Mg4 3.077941 1_655
Mg0 Mg4 3.077941 1_555
Mg0 Mg5 3.080758 1_555
Mg0 Mg5 3.080758 1_655
Mg0 V0 3.092258 1_555
Mg0 Mg8 3.104638 1_655
Mg0 Mg8 3.104638 1_555
Mg0 V1 3.115155 1_555
Mg1 Mg4 3.077941 1_665
Mg1 Mg4 3.077941 1_565
Mg1 Mg5 3.080758 1_655
Mg1 Mg5 3.080758 1_555
Mg1 V0 3.092258 1_555
Mg1 Mg9 3.104638 1_555
Mg1 Mg9 3.104638 1_655
Mg1 V1 3.115155 1_565
Mg2 Mg3 2.969733 1_555
Mg2 Mg5 3.008462 1_555
Mg2 V0 3.045045 1_555
Mg2 V0 3.045045 1_455
Mg2 Mg4 3.064092 1_565
Mg2 Mg3 3.081290 1_565
Mg2 Mg6 3.104638 1_454
Mg2 Mg6 3.104638 1_554
Mg3 Mg5 3.008462 1_555
Mg3 V0 3.045045 1_555
Mg3 V0 3.045045 1_455
Mg3 Mg4 3.064092 1_555
Mg3 Mg7 3.104638 1_454
Mg3 Mg7 3.104638 1_554
Mg4 Mg5 3.025682 1_545
Mg4 Mg5 3.025682 1_555
Mg4 Mg9 3.144270 1_545
Mg4 Mg8 3.144270 1_555
Mg5 V0 3.044987 1_555
Mg5 V0 3.044987 1_455
Mg5 Mg8 3.199095 1_555
Mg5 Mg9 3.199095 1_555
Mg6 Mg7 3.010965 1_565
Mg6 Mg7 3.040058 1_555
Mg6 V1 3.092258 1_565
Mg6 V0 3.115155 1_556
Mg7 V1 3.092258 1_555
Mg7 V0 3.115155 1_556
Mg8 Mg9 2.969733 1_545
Mg8 V1 3.045045 1_455
Mg8 V1 3.045045 1_555
Mg8 Mg9 3.081290 1_555
Mg9 V1 3.045045 1_565
Mg9 V1 3.045045 1_465
Mg10 Mg11 3.025682 1_565
Mg10 Mg11 3.025682 1_555
Mg10 Mg8 3.064092 1_555
Mg10 Mg9 3.064092 1_555
Mg10 Mg6 3.077941 1_555
Mg10 Mg7 3.077941 1_455
Mg10 Mg7 3.077941 1_555
Mg10 Mg6 3.077941 1_455
Mg10 Mg2 3.144270 1_556
Mg10 Mg3 3.144270 1_556
Mg11 Mg9 3.008462 1_545
Mg11 Mg8 3.008462 1_555
Mg11 V1 3.044987 1_455
Mg11 V1 3.044987 1_555
Mg11 Mg6 3.080758 1_545
Mg11 Mg7 3.080758 1_555
Mg11 Mg6 3.080758 1_445
Mg11 Mg7 3.080758 1_455
Mg11 Mg3 3.199095 1_556
Mg11 Mg2 3.199095 1_546
Al0 V0 3.025563 1_555
Al0 V0 3.025563 1_545
Al0 Mg3 3.067582 1_555
Al0 Mg3 3.067582 1_655
Al0 Mg2 3.067582 1_645
Al0 Mg2 3.067582 1_545
Al0 Mg4 3.073521 1_655
Al0 Mg4 3.073521 1_555
Al0 Mg7 3.092655 1_554
Al0 Mg6 3.092655 1_544
Al0 Mg0 3.114758 1_555
Al0 Mg1 3.114758 1_545
Al1 V1 3.025563 1_555
Al1 V1 3.025563 1_565
Al1 Mg8 3.067582 1_655
Al1 Mg9 3.067582 1_655
Al1 Mg8 3.067582 1_555
Al1 Mg9 3.067582 1_555
Al1 Mg10 3.073521 1_555
Al1 Mg10 3.073521 1_655
Al1 Mg1 3.092655 1_555
Al1 Mg0 3.092655 1_555
Al1 Mg6 3.114758 1_555
Al1 Mg7 3.114758 1_555
