# generated using pymatgen
data_Mg2Si3
_symmetry_space_group_name_H-M   'P 1'
_cell_length_a   3.73470700
_cell_length_b   5.82426044
_cell_length_c   18.26657593
_cell_angle_alpha   89.55172016
_cell_angle_beta   87.43420998
_cell_angle_gamma   89.31978446
_symmetry_Int_Tables_number   1
_chemical_formula_structural   Mg2Si3
_chemical_formula_sum   'Mg8 Si12'
_cell_volume   396.89596278
_cell_formula_units_Z   4
loop_
 _symmetry_equiv_pos_site_id
 _symmetry_equiv_pos_as_xyz
  1  'x, y, z'
loop_
 _atom_site_type_symbol
 _atom_site_label
 _atom_site_symmetry_multiplicity
 _atom_site_fract_x
 _atom_site_fract_y
 _atom_site_fract_z
 _atom_site_occupancy
  Mg  Mg0  1  0.18784600  0.79836900  0.19406000  1
  Mg  Mg1  1  0.54341700  0.12535900  0.77649100  1
  Mg  Mg2  1  0.20914400  0.13174400  0.06192300  1
  Mg  Mg3  1  0.55066200  0.87923300  0.92846600  1
  Mg  Mg4  1  0.57084700  0.59225300  0.72118700  1
  Mg  Mg5  1  0.17686200  0.26386900  0.28812300  1
  Mg  Mg6  1  0.15410200  0.69807000  0.56117600  1
  Mg  Mg7  1  0.67664300  0.46767000  0.42964500  1
  Si  Si0  1  0.24681700  0.62360400  0.03864700  1
  Si  Si1  1  0.42387800  0.36111800  0.93441900  1
  Si  Si2  1  0.73046800  0.53003500  0.11605400  1
  Si  Si3  1  0.94676600  0.41782300  0.85392300  1
  Si  Si4  1  0.06649000  0.90483400  0.69009000  1
  Si  Si5  1  0.68107500  0.97009300  0.37090900  1
  Si  Si6  1  0.15179200  0.23376800  0.53440600  1
  Si  Si7  1  0.66078500  0.00120100  0.50116400  1
  Si  Si8  1  0.08909600  0.29637400  0.66541000  1
  Si  Si9  1  0.19141200  0.73171400  0.33948500  1
  Si  Si10  1  0.69664500  0.16158100  0.17483600  1
  Si  Si11  1  0.04538000  0.81126600  0.81950500  1
loop_
_geom_bond_atom_site_label_1
_geom_bond_atom_site_label_2
_geom_bond_distance
_geom_bond_site_symmetry_2
Mg0 Si9 2.682228 1_555
Mg0 Si2 2.776121 1_455
Mg0 Si10 2.813836 1_465
Mg0 Si10 2.869372 1_565
Mg0 Si2 2.877636 1_555
Mg0 Si0 3.021198 1_555
Mg1 Si11 2.711281 1_545
Mg1 Si3 2.731429 1_555
Mg1 Si11 2.739765 1_645
Mg1 Si4 2.766023 1_545
Mg1 Si4 2.766388 1_645
Mg1 Si8 2.867871 1_555
Mg1 Si8 2.984760 1_655
Mg1 Si3 3.087537 1_455
Mg2 Si10 2.755363 1_455
Mg2 Si1 2.768017 1_554
Mg2 Si10 2.819296 1_555
Mg2 Si0 2.896955 1_555
Mg2 Si0 2.993976 1_545
Mg2 Si2 3.055164 1_455
Mg3 Si11 2.682836 1_655
Mg3 Si0 2.709945 1_556
Mg3 Si11 2.836475 1_555
Mg3 Si1 2.842847 1_565
Mg3 Si1 3.060448 1_555
Mg4 Si4 2.652032 1_655
Mg4 Si4 2.680171 1_555
Mg4 Si8 2.740452 1_555
Mg4 Si8 2.743293 1_655
Mg4 Si11 2.892167 1_555
Mg4 Si11 2.892721 1_655
Mg4 Si3 3.019003 1_555
Mg5 Si10 2.835095 1_555
Mg5 Si10 2.868916 1_455
Mg5 Si9 2.890689 1_555
Mg5 Si5 2.902921 1_445
Mg5 Si5 2.983019 1_545
Mg6 Si4 2.658660 1_555
Mg6 Si6 2.752017 1_555
Mg6 Si7 2.786196 1_565
Mg6 Si7 2.790421 1_465
Mg6 Si8 3.010015 1_555
Mg6 Si6 3.154320 1_565
Mg7 Si9 2.918986 1_655
Mg7 Si9 2.919385 1_555
Mg7 Si6 2.978705 1_655
Mg7 Si7 3.005456 1_555
Mg7 Si6 3.007799 1_555
Mg7 Si5 3.097714 1_545
Mg7 Si5 3.108815 1_555
Si0 Si2 2.398378 1_555
Si0 Si2 2.404957 1_455
Si0 Si1 2.511589 1_554
Si1 Si3 2.378906 1_455
Si1 Si3 2.415636 1_555
Si4 Si8 2.322888 1_565
Si5 Si7 2.385367 1_565
Si5 Si9 2.396134 1_655
Si5 Si9 2.401697 1_555
Si6 Si7 2.380215 1_555
Si6 Si7 2.395352 1_455
Si6 Si8 2.423977 1_555
Si10 Si2 2.394226 1_555
Si11 Si3 2.399730 1_455
Si11 Si4 2.419861 1_555
