# generated using pymatgen
data_Mg(MoO2)2
_symmetry_space_group_name_H-M   'P 1'
_cell_length_a   6.33981100
_cell_length_b   6.39424155
_cell_length_c   15.36916714
_cell_angle_alpha   88.34323440
_cell_angle_beta   89.07087483
_cell_angle_gamma   60.64613036
_symmetry_Int_Tables_number   1
_chemical_formula_structural   Mg(MoO2)2
_chemical_formula_sum   'Mg6 Mo12 O24'
_cell_volume   542.81831119
_cell_formula_units_Z   6
loop_
 _symmetry_equiv_pos_site_id
 _symmetry_equiv_pos_as_xyz
  1  'x, y, z'
loop_
 _atom_site_type_symbol
 _atom_site_label
 _atom_site_symmetry_multiplicity
 _atom_site_fract_x
 _atom_site_fract_y
 _atom_site_fract_z
 _atom_site_occupancy
  Mg  Mg0  1  0.82744500  0.84052000  0.95441400  1
  Mg  Mg1  1  0.50050300  0.49463800  0.62188200  1
  Mg  Mg2  1  0.16557200  0.16565100  0.66403700  1
  Mg  Mg3  1  0.17162200  0.16363900  0.29224600  1
  Mg  Mg4  1  0.49653400  0.50381800  0.99503000  1
  Mg  Mg5  1  0.50424300  0.49540300  0.37803100  1
  Mo  Mo0  1  0.32458500  0.34231400  0.83438800  1
  Mo  Mo1  1  0.82061800  0.34244600  0.83251500  1
  Mo  Mo2  1  0.00539100  0.99394000  0.50298600  1
  Mo  Mo3  1  0.32538400  0.83844400  0.83294700  1
  Mo  Mo4  1  0.50141900  0.99393300  0.50294500  1
  Mo  Mo5  1  0.83778900  0.83045100  0.33460400  1
  Mo  Mo6  1  0.83109900  0.82975300  0.71404200  1
  Mo  Mo7  1  0.67158300  0.66783000  0.16589800  1
  Mo  Mo8  1  0.00680600  0.48724400  0.50139800  1
  Mo  Mo9  1  0.17293100  0.66757400  0.16630400  1
  Mo  Mo10  1  0.67158700  0.16885100  0.16611400  1
  Mo  Mo11  1  0.16440400  0.16840300  0.04662200  1
  O  O0  1  0.65085900  0.66423800  0.91169000  1
  O  O1  1  0.48958500  0.51307400  0.75668300  1
  O  O2  1  0.18050000  0.65841100  0.91550100  1
  O  O3  1  0.64304200  0.19657300  0.91625000  1
  O  O4  1  0.33031300  0.31349600  0.58021800  1
  O  O5  1  0.01730900  0.46482900  0.74502900  1
  O  O6  1  0.17302500  0.16210100  0.42449500  1
  O  O7  1  0.46868100  0.03327400  0.75514700  1
  O  O8  1  0.15090800  0.16489100  0.90641800  1
  O  O9  1  0.85541500  0.31109700  0.58193100  1
  O  O10  1  0.32132600  0.85130900  0.58603800  1
  O  O11  1  0.99261000  0.02827200  0.75566000  1
  O  O12  1  0.99920300  0.98860800  0.24483000  1
  O  O13  1  0.68438300  0.13930100  0.41816800  1
  O  O14  1  0.15115600  0.67642400  0.41924900  1
  O  O15  1  0.83793500  0.83998000  0.08926800  1
  O  O16  1  0.84273700  0.80888600  0.57643100  1
  O  O17  1  0.52356700  0.98519700  0.24598800  1
  O  O18  1  0.99330700  0.51787000  0.24747200  1
  O  O19  1  0.67721100  0.67306000  0.42084100  1
  O  O20  1  0.35627300  0.81013800  0.08245900  1
  O  O21  1  0.80565500  0.35871900  0.08155600  1
  O  O22  1  0.50542500  0.49469100  0.24257100  1
  O  O23  1  0.35006000  0.35070800  0.08970500  1
loop_
_geom_bond_atom_site_label_1
_geom_bond_atom_site_label_2
_geom_bond_distance
_geom_bond_site_symmetry_2
Mg0 O2 2.040871 1_655
Mg0 O3 2.056610 1_565
Mg0 O0 2.063704 1_555
Mg0 O15 2.074587 1_556
Mg1 O10 2.050099 1_555
Mg1 O4 2.050936 1_555
Mg1 O9 2.055507 1_555
Mg1 O1 2.076639 1_555
Mg2 O5 2.104628 1_555
Mg2 O4 2.120852 1_555
Mg2 O9 2.131555 1_455
Mg2 O10 2.146444 1_545
Mg2 O11 2.186267 1_455
Mg2 O7 2.189532 1_555
Mg3 O6 2.032439 1_555
Mg3 O12 2.061782 1_445
Mg3 O17 2.070107 1_545
Mg3 O18 2.075239 1_455
Mg4 O3 2.121420 1_555
Mg4 O0 2.125412 1_555
Mg4 O2 2.133857 1_555
Mg4 O21 2.168062 1_556
Mg4 O23 2.168684 1_556
Mg4 O20 2.199677 1_556
Mg5 O14 2.051372 1_555
Mg5 O19 2.052745 1_555
Mg5 O13 2.064384 1_555
Mg5 O22 2.081928 1_555
Mo0 O7 2.134447 1_555
Mo0 O3 2.167384 1_555
Mo0 O1 2.171775 1_555
Mo0 O2 2.184589 1_555
Mo0 O5 2.196178 1_555
Mo0 O8 2.199432 1_555
Mo1 O11 2.137230 1_555
Mo1 O8 2.153048 1_655
Mo1 O3 2.169506 1_555
Mo1 O1 2.171198 1_555
Mo1 O0 2.191808 1_555
Mo1 O5 2.194708 1_655
Mo2 O10 2.167397 1_555
Mo2 O9 2.168711 1_465
Mo2 O6 2.178233 1_565
Mo2 O16 2.195217 1_455
Mo2 O13 2.206002 1_465
Mo2 O14 2.214805 1_555
Mo3 O8 2.165148 1_565
Mo3 O2 2.166369 1_555
Mo3 O0 2.170903 1_555
Mo3 O1 2.182675 1_555
Mo3 O7 2.189817 1_565
Mo3 O11 2.196020 1_465
Mo4 O10 2.161578 1_555
Mo4 O4 2.165157 1_565
Mo4 O6 2.180856 1_565
Mo4 O13 2.201185 1_565
Mo4 O16 2.202232 1_555
Mo4 O19 2.215017 1_555
Mo5 O19 2.165518 1_555
Mo5 O14 2.168119 1_655
Mo5 O13 2.172215 1_565
Mo5 O12 2.204945 1_555
Mo5 O17 2.209078 1_555
Mo5 O18 2.222659 1_555
Mo6 O5 2.078116 1_655
Mo6 O11 2.100339 1_565
Mo6 O7 2.107336 1_565
Mo6 O16 2.120834 1_555
Mo7 O20 2.168147 1_555
Mo7 O15 2.175764 1_555
Mo7 O18 2.178869 1_555
Mo7 O22 2.179823 1_555
Mo7 O17 2.180339 1_555
Mo7 O21 2.185125 1_555
Mo8 O16 2.154655 1_455
Mo8 O9 2.159279 1_455
Mo8 O4 2.162653 1_555
Mo8 O6 2.187148 1_555
Mo8 O14 2.203269 1_555
Mo8 O19 2.208087 1_455
Mo9 O23 2.148611 1_555
Mo9 O18 2.173239 1_455
Mo9 O22 2.181758 1_555
Mo9 O20 2.182875 1_555
Mo9 O12 2.183353 1_455
Mo9 O15 2.199621 1_455
Mo10 O23 2.135696 1_555
Mo10 O17 2.174021 1_545
Mo10 O12 2.181721 1_545
Mo10 O21 2.184020 1_555
Mo10 O22 2.186575 1_555
Mo10 O15 2.204125 1_545
Mo11 O21 2.055897 1_455
Mo11 O20 2.060999 1_545
Mo11 O23 2.144241 1_555
Mo11 O8 2.159104 1_554
