# generated using pymatgen
data_MgMnWS4
_symmetry_space_group_name_H-M   'P 1'
_cell_length_a   6.86969322
_cell_length_b   7.38985722
_cell_length_c   7.38548721
_cell_angle_alpha   60.17997632
_cell_angle_beta   62.34490354
_cell_angle_gamma   62.35783270
_symmetry_Int_Tables_number   1
_chemical_formula_structural   MgMnWS4
_chemical_formula_sum   'Mg2 Mn2 W2 S8'
_cell_volume   274.54705798
_cell_formula_units_Z   2
loop_
 _symmetry_equiv_pos_site_id
 _symmetry_equiv_pos_as_xyz
  1  'x, y, z'
loop_
 _atom_site_type_symbol
 _atom_site_label
 _atom_site_symmetry_multiplicity
 _atom_site_fract_x
 _atom_site_fract_y
 _atom_site_fract_z
 _atom_site_occupancy
  Mg  Mg0  1  0.86178400  0.88693500  0.88578400  1
  Mg  Mg1  1  0.10443700  0.14715100  0.14621400  1
  Mn  Mn0  1  0.51163600  0.49781300  0.97868900  1
  Mn  Mn1  1  0.51269900  0.97686900  0.49715600  1
  W  W0  1  0.45015900  0.50135500  0.50116600  1
  W  W1  1  0.04784600  0.50124300  0.50103900  1
  S  S0  1  0.77087400  0.72586500  0.72608600  1
  S  S1  1  0.26147800  0.22883100  0.74865500  1
  S  S2  1  0.26126500  0.74903300  0.22887900  1
  S  S3  1  0.69409300  0.27515900  0.27597000  1
  S  S4  1  0.74590600  0.28955400  0.71894000  1
  S  S5  1  0.27547800  0.72634800  0.72659000  1
  S  S6  1  0.25588900  0.27533500  0.27600500  1
  S  S7  1  0.74646200  0.71850400  0.28882800  1
loop_
_geom_bond_atom_site_label_1
_geom_bond_atom_site_label_2
_geom_bond_distance
_geom_bond_site_symmetry_2
Mg0 S0 2.442882 1_555
Mg0 S5 2.454340 1_655
Mg0 S4 2.463953 1_565
Mg0 S7 2.465457 1_556
Mg1 S6 2.375296 1_555
Mg1 S3 2.383097 1_455
Mg1 S1 2.459755 1_554
Mg1 S2 2.464167 1_545
Mn0 S0 2.462908 1_555
Mn0 S5 2.466804 1_555
Mn0 S6 2.473842 1_556
Mn0 S3 2.479310 1_556
Mn0 S4 2.531962 1_555
Mn0 S2 2.705120 1_556
Mn1 S0 2.461072 1_555
Mn1 S5 2.463830 1_555
Mn1 S6 2.475140 1_565
Mn1 S3 2.481577 1_565
Mn1 S7 2.524775 1_555
Mn1 S1 2.716181 1_565
S0 W1 2.452703 1_655
S1 W0 2.374596 1_555
S1 W1 2.374734 1_555
S2 W0 2.373992 1_555
S2 W1 2.374373 1_555
S3 W0 2.438648 1_555
S4 W0 2.596815 1_555
S4 W1 2.597661 1_655
S5 W0 2.454252 1_555
S6 W1 2.435643 1_555
S7 W0 2.596630 1_555
S7 W1 2.597291 1_655
