# generated using pymatgen
data_SmIn2Ni9
_symmetry_space_group_name_H-M   'P 1'
_cell_length_a   8.17154128
_cell_length_b   8.17154128
_cell_length_c   4.84626535
_cell_angle_alpha   90.00000000
_cell_angle_beta   90.00000000
_cell_angle_gamma   90.00000000
_symmetry_Int_Tables_number   1
_chemical_formula_structural   SmIn2Ni9
_chemical_formula_sum   'Sm2 In4 Ni18'
_cell_volume   323.60494358
_cell_formula_units_Z   2
loop_
 _symmetry_equiv_pos_site_id
 _symmetry_equiv_pos_as_xyz
  1  'x, y, z'
loop_
 _atom_site_type_symbol
 _atom_site_label
 _atom_site_symmetry_multiplicity
 _atom_site_fract_x
 _atom_site_fract_y
 _atom_site_fract_z
 _atom_site_occupancy
  Sm  Sm0  1  0.50000000  0.50000000  0.00000000  1
  Sm  Sm1  1  -0.00000000  -0.00000000  0.00000000  1
  In  In0  1  0.12432408  0.62432408  0.00000000  1
  In  In1  1  0.87567592  0.37567592  0.00000000  1
  In  In2  1  0.37567592  0.12432408  0.00000000  1
  In  In3  1  0.62432408  0.87567592  0.00000000  1
  Ni  Ni0  1  -0.00000000  0.50000000  0.50000000  1
  Ni  Ni1  1  0.50000000  -0.00000000  0.50000000  1
  Ni  Ni2  1  0.56521005  0.70793240  0.50000000  1
  Ni  Ni3  1  0.43478995  0.29206760  0.50000000  1
  Ni  Ni4  1  0.93478995  0.20793240  0.50000000  1
  Ni  Ni5  1  0.06521005  0.79206760  0.50000000  1
  Ni  Ni6  1  0.70793240  0.43478995  0.50000000  1
  Ni  Ni7  1  0.29206760  0.56521005  0.50000000  1
  Ni  Ni8  1  0.20793240  0.06521005  0.50000000  1
  Ni  Ni9  1  0.79206760  0.93478995  0.50000000  1
  Ni  Ni10  1  0.32364187  0.82364187  0.74725078  1
  Ni  Ni11  1  0.67635813  0.17635813  0.74725078  1
  Ni  Ni12  1  0.17635813  0.32364187  0.74725078  1
  Ni  Ni13  1  0.82364187  0.67635813  0.74725078  1
  Ni  Ni14  1  0.67635813  0.17635813  0.25274922  1
  Ni  Ni15  1  0.32364187  0.82364187  0.25274922  1
  Ni  Ni16  1  0.82364187  0.67635813  0.25274922  1
  Ni  Ni17  1  0.17635813  0.32364187  0.25274922  1
loop_
_geom_bond_atom_site_label_1
_geom_bond_atom_site_label_2
_geom_bond_distance
_geom_bond_site_symmetry_2
In0 Ni10 2.608812 1_554
In0 Ni15 2.608812 1_555
In0 Ni13 2.778161 1_454
In0 Ni16 2.778161 1_455
In0 Ni17 2.778161 1_555
In0 Ni12 2.778161 1_554
In0 Ni0 2.817047 1_555
In0 Ni0 2.817047 1_554
In0 Ni7 2.825561 1_554
In0 Ni5 2.825561 1_554
In0 Ni7 2.825561 1_555
In0 Ni5 2.825561 1_555
In0 In1 2.873454 1_455
In0 Sm1 3.233586 1_565
In0 Sm0 3.233586 1_555
In1 Ni14 2.608812 1_555
In1 Ni11 2.608812 1_554
In1 Ni16 2.778161 1_555
In1 Ni13 2.778161 1_554
In1 Ni17 2.778161 1_655
In1 Ni12 2.778161 1_654
In1 Ni0 2.817047 1_655
In1 Ni0 2.817047 1_654
In1 Ni4 2.825561 1_554
In1 Ni4 2.825561 1_555
In1 Ni6 2.825561 1_554
In1 Ni6 2.825561 1_555
In1 Sm1 3.233586 1_655
In1 Sm0 3.233586 1_555
In2 Ni12 2.608812 1_554
In2 Ni17 2.608812 1_555
In2 Ni15 2.778161 1_545
In2 Ni11 2.778161 1_554
In2 Ni10 2.778161 1_544
In2 Ni14 2.778161 1_555
In2 Ni1 2.817047 1_554
In2 Ni1 2.817047 1_555
In2 Ni3 2.825561 1_555
In2 Ni8 2.825561 1_554
In2 Ni3 2.825561 1_554
In2 Ni8 2.825561 1_555
In2 In3 2.873454 1_545
In2 Sm1 3.233586 1_555
In2 Sm0 3.233586 1_555
In3 Ni16 2.608812 1_555
In3 Ni13 2.608812 1_554
In3 Ni14 2.778161 1_565
In3 Ni11 2.778161 1_564
In3 Ni10 2.778161 1_554
In3 Ni15 2.778161 1_555
In3 Ni1 2.817047 1_565
In3 Ni1 2.817047 1_564
In3 Ni9 2.825561 1_555
In3 Ni9 2.825561 1_554
In3 Ni2 2.825561 1_555
In3 Ni2 2.825561 1_554
In3 Sm1 3.233586 1_665
In3 Sm0 3.233586 1_555
Ni0 Ni13 2.364197 1_455
Ni0 Ni12 2.364197 1_555
Ni0 Ni16 2.364197 1_455
Ni0 Ni17 2.364197 1_555
Ni0 Ni7 2.445406 1_555
Ni0 Ni5 2.445406 1_555
Ni0 Ni4 2.445406 1_455
Ni0 Ni6 2.445406 1_455
Ni1 Ni11 2.364197 1_555
Ni1 Ni15 2.364197 1_545
Ni1 Ni10 2.364197 1_545
Ni1 Ni14 2.364197 1_555
Ni1 Ni8 2.445406 1_555
Ni1 Ni2 2.445406 1_545
Ni1 Ni3 2.445406 1_555
Ni1 Ni9 2.445406 1_545
Ni2 Ni7 2.518326 1_555
Ni2 Ni6 2.518326 1_555
Ni2 Ni9 2.621635 1_555
Ni2 Sm0 3.007084 1_556
Ni2 Sm0 3.007084 1_555
Ni3 Ni6 2.518326 1_555
Ni3 Ni7 2.518326 1_555
Ni3 Ni8 2.621635 1_555
Ni3 Sm0 3.007084 1_556
Ni3 Sm0 3.007084 1_555
Ni4 Ni8 2.518326 1_655
Ni4 Ni9 2.518326 1_545
Ni4 Ni6 2.621635 1_555
Ni4 Sm1 3.007084 1_655
Ni4 Sm1 3.007084 1_656
Ni5 Ni8 2.518326 1_565
Ni5 Ni9 2.518326 1_455
Ni5 Ni7 2.621635 1_555
Ni5 Sm1 3.007084 1_565
Ni5 Sm1 3.007084 1_566
Ni6 Sm0 3.007084 1_556
Ni6 Sm0 3.007084 1_555
Ni7 Sm0 3.007084 1_556
Ni7 Sm0 3.007084 1_555
Ni8 Sm1 3.007084 1_556
Ni8 Sm1 3.007084 1_555
Ni9 Sm1 3.007084 1_665
Ni9 Sm1 3.007084 1_666
Ni10 Ni15 2.396486 1_555
Ni10 Ni7 2.441720 1_555
Ni10 Ni5 2.441720 1_555
Ni10 Ni15 2.449780 1_556
Ni10 Ni8 2.495279 1_565
Ni10 Ni2 2.495279 1_555
Ni10 Sm0 3.251363 1_556
Ni10 Sm1 3.251363 1_566
Ni11 Ni14 2.396486 1_555
Ni11 Ni4 2.441720 1_555
Ni11 Ni6 2.441720 1_555
Ni11 Ni14 2.449780 1_556
Ni11 Ni9 2.495279 1_545
Ni11 Ni3 2.495279 1_555
Ni11 Sm0 3.251363 1_556
Ni11 Sm1 3.251363 1_656
Ni12 Ni17 2.396486 1_555
Ni12 Ni8 2.441720 1_555
Ni12 Ni3 2.441720 1_555
Ni12 Ni17 2.449780 1_556
Ni12 Ni7 2.495279 1_555
Ni12 Ni4 2.495279 1_455
Ni12 Sm0 3.251363 1_556
Ni12 Sm1 3.251363 1_556
Ni13 Ni16 2.396486 1_555
Ni13 Ni9 2.441720 1_555
Ni13 Ni2 2.441720 1_555
Ni13 Ni16 2.449780 1_556
Ni13 Ni5 2.495279 1_655
Ni13 Ni6 2.495279 1_555
Ni13 Sm0 3.251363 1_556
Ni13 Sm1 3.251363 1_666
Ni14 Ni4 2.441720 1_555
Ni14 Ni6 2.441720 1_555
Ni14 Ni9 2.495279 1_545
Ni14 Ni3 2.495279 1_555
Ni14 Sm0 3.251363 1_555
Ni14 Sm1 3.251363 1_655
Ni15 Ni7 2.441720 1_555
Ni15 Ni5 2.441720 1_555
Ni15 Ni8 2.495279 1_565
Ni15 Ni2 2.495279 1_555
Ni15 Sm0 3.251363 1_555
Ni15 Sm1 3.251363 1_565
Ni16 Ni9 2.441720 1_555
Ni16 Ni2 2.441720 1_555
Ni16 Ni5 2.495279 1_655
Ni16 Ni6 2.495279 1_555
Ni16 Sm0 3.251363 1_555
Ni16 Sm1 3.251363 1_665
Ni17 Ni8 2.441720 1_555
Ni17 Ni3 2.441720 1_555
Ni17 Ni7 2.495279 1_555
Ni17 Ni4 2.495279 1_455
Ni17 Sm0 3.251363 1_555
Ni17 Sm1 3.251363 1_555
