# generated using pymatgen
data_Nb2VW
_symmetry_space_group_name_H-M   'P 1'
_cell_length_a   13.11776361
_cell_length_b   13.11776361
_cell_length_c   13.11776361
_cell_angle_alpha   139.50766049
_cell_angle_beta   117.81453830
_cell_angle_gamma   76.87337578
_symmetry_Int_Tables_number   1
_chemical_formula_structural   Nb2VW
_chemical_formula_sum   'Nb2 V1 W1'
_cell_volume   1263.91058875
_cell_formula_units_Z   1
loop_
 _symmetry_equiv_pos_site_id
 _symmetry_equiv_pos_as_xyz
  1  'x, y, z'
loop_
 _atom_site_type_symbol
 _atom_site_label
 _atom_site_symmetry_multiplicity
 _atom_site_fract_x
 _atom_site_fract_y
 _atom_site_fract_z
 _atom_site_occupancy
  Nb  Nb0  1  0.00000000  0.24978000  0.24978000  1
  Nb  Nb1  1  0.00000000  0.75022000  0.75022000  1
  V  V0  1  0.00000000  0.00000000  0.00000000  1
  W  W0  1  0.00000000  0.50000000  0.50000000  1
loop_
_geom_bond_atom_site_label_1
_geom_bond_atom_site_label_2
_geom_bond_distance
_geom_bond_site_symmetry_2
Nb0 V0 2.267732 1_555
Nb0 W0 2.271727 1_555
Nb1 V0 2.267732 1_566
Nb1 W0 2.271727 1_555
