# generated using pymatgen
data_Sr2SmNb(CuO4)2
_symmetry_space_group_name_H-M   'P 1'
_cell_length_a   12.45823047
_cell_length_b   12.45823047
_cell_length_c   12.45823047
_cell_angle_alpha   154.39707823
_cell_angle_beta   154.39707823
_cell_angle_gamma   36.52271467
_symmetry_Int_Tables_number   1
_chemical_formula_structural   Sr2SmNb(CuO4)2
_chemical_formula_sum   'Sr4 Sm2 Nb2 Cu4 O16'
_cell_volume   360.59674923
_cell_formula_units_Z   2
loop_
 _symmetry_equiv_pos_site_id
 _symmetry_equiv_pos_as_xyz
  1  'x, y, z'
loop_
 _atom_site_type_symbol
 _atom_site_label
 _atom_site_symmetry_multiplicity
 _atom_site_fract_x
 _atom_site_fract_y
 _atom_site_fract_z
 _atom_site_occupancy
  Sr  Sr0  1  0.59973500  0.09973500  0.50000000  1
  Sr  Sr1  1  0.40026500  0.90026500  0.50000000  1
  Sr  Sr2  1  0.09973500  0.59973500  0.50000000  1
  Sr  Sr3  1  0.90026500  0.40026500  0.50000000  1
  Sm  Sm0  1  0.25000000  0.75000000  0.50000000  1
  Sm  Sm1  1  0.75000000  0.25000000  0.50000000  1
  Nb  Nb0  1  0.50000000  0.50000000  0.00000000  1
  Nb  Nb1  1  0.00000000  0.00000000  0.00000000  1
  Cu  Cu0  1  0.67991000  0.67991000  0.00000000  1
  Cu  Cu1  1  0.82009000  0.82009000  0.00000000  1
  Cu  Cu2  1  0.32009000  0.32009000  0.00000000  1
  Cu  Cu3  1  0.17991000  0.17991000  0.00000000  1
  O  O0  1  0.68058600  0.81941400  0.50000000  1
  O  O1  1  0.81941400  0.31941400  0.13882700  1
  O  O2  1  0.18058600  0.68058600  0.86117300  1
  O  O3  1  0.31941400  0.18058600  0.50000000  1
  O  O4  1  0.94056400  0.93150300  0.50000000  1
  O  O5  1  0.05943600  0.06849700  0.50000000  1
  O  O6  1  0.56849700  0.55943600  0.50000000  1
  O  O7  1  0.55943600  0.05943600  0.99093900  1
  O  O8  1  0.06849700  0.56849700  0.00906100  1
  O  O9  1  0.93150300  0.43150300  0.99093900  1
  O  O10  1  0.44056400  0.94056400  0.00906100  1
  O  O11  1  0.43150300  0.44056400  0.50000000  1
  O  O12  1  0.08380500  0.08380500  0.00000000  1
  O  O13  1  0.41619500  0.41619500  0.00000000  1
  O  O14  1  0.91619500  0.91619500  0.00000000  1
  O  O15  1  0.58380500  0.58380500  0.00000000  1
loop_
_geom_bond_atom_site_label_1
_geom_bond_atom_site_label_2
_geom_bond_distance
_geom_bond_site_symmetry_2
Nb0 O15 1.982960 1_555
Nb0 O13 1.982960 1_555
Nb0 O1 2.025747 1_555
Nb0 O2 2.025747 1_554
Nb0 O0 2.025748 1_555
Nb0 O3 2.025748 1_554
Nb1 O12 1.982960 1_555
Nb1 O14 1.982960 1_445
Nb1 O1 2.025747 1_455
Nb1 O2 2.025747 1_544
Nb1 O0 2.025748 1_444
Nb1 O3 2.025748 1_555
Cu0 O11 1.957596 1_554
Cu0 O4 1.957596 1_555
Cu0 O10 1.957596 1_555
Cu0 O9 1.957596 1_554
Cu0 O15 2.273997 1_555
Cu1 O7 1.957596 1_564
Cu1 O5 1.957596 1_665
Cu1 O6 1.957596 1_554
Cu1 O8 1.957596 1_655
Cu1 O14 2.273997 1_555
Cu2 O8 1.957596 1_555
Cu2 O5 1.957596 1_554
Cu2 O7 1.957596 1_554
Cu2 O6 1.957596 1_555
Cu2 O13 2.273997 1_555
Cu3 O10 1.957596 1_545
Cu3 O9 1.957596 1_454
Cu3 O11 1.957596 1_555
Cu3 O4 1.957596 1_444
Cu3 O12 2.273997 1_555
O0 Sr0 2.749005 1_565
O0 Sr1 2.749005 1_555
O1 Sr2 2.748997 1_655
O1 Sr3 2.749017 1_555
O2 Sr3 2.748997 1_455
O2 Sr2 2.749017 1_555
O3 Sr0 2.749005 1_555
O3 Sr1 2.749005 1_545
O4 Sm0 2.442116 1_655
O4 Sm1 2.498021 1_565
O4 Sr2 2.800482 1_655
O4 Sr0 2.849364 1_565
O5 Sm1 2.442116 1_455
O5 Sm0 2.498021 1_545
O5 Sr3 2.800482 1_455
O5 Sr1 2.849364 1_545
O6 Sm1 2.442116 1_555
O6 Sm0 2.498021 1_555
O6 Sr3 2.800482 1_555
O6 Sr1 2.849364 1_555
O7 Sm0 2.442116 1_545
O7 Sm1 2.498021 1_556
O7 Sr1 2.800482 1_545
O7 Sr3 2.849364 1_556
O8 Sm0 2.442116 1_555
O8 Sm1 2.498021 1_454
O8 Sr1 2.800482 1_555
O8 Sr3 2.849364 1_454
O9 Sm1 2.442116 1_555
O9 Sm0 2.498021 1_656
O9 Sr0 2.800482 1_555
O9 Sr2 2.849364 1_656
O10 Sm1 2.442116 1_565
O10 Sm0 2.498021 1_554
O10 Sr0 2.800482 1_565
O10 Sr2 2.849364 1_554
O11 Sm0 2.442116 1_555
O11 Sm1 2.498021 1_555
O11 Sr2 2.800482 1_555
O11 Sr0 2.849364 1_555
O12 Sr0 2.786028 1_454
O12 Sr2 2.786028 1_544
O12 Sr2 2.786028 1_555
O12 Sr0 2.786028 1_555
O13 Sr1 2.786028 1_555
O13 Sr1 2.786028 1_544
O13 Sr3 2.786028 1_555
O13 Sr3 2.786028 1_454
O14 Sr1 2.786028 1_554
O14 Sr1 2.786028 1_655
O14 Sr3 2.786028 1_554
O14 Sr3 2.786028 1_565
O15 Sr0 2.786028 1_565
O15 Sr2 2.786028 1_655
O15 Sr2 2.786028 1_554
O15 Sr0 2.786028 1_554
