# generated using pymatgen
data_Mg5Si9
_symmetry_space_group_name_H-M   'P 1'
_cell_length_a   6.87163500
_cell_length_b   7.63458878
_cell_length_c   10.50040788
_cell_angle_alpha   94.37325409
_cell_angle_beta   89.69073881
_cell_angle_gamma   113.03746368
_symmetry_Int_Tables_number   1
_chemical_formula_structural   Mg5Si9
_chemical_formula_sum   'Mg10 Si18'
_cell_volume   505.28554907
_cell_formula_units_Z   2
loop_
 _symmetry_equiv_pos_site_id
 _symmetry_equiv_pos_as_xyz
  1  'x, y, z'
loop_
 _atom_site_type_symbol
 _atom_site_label
 _atom_site_symmetry_multiplicity
 _atom_site_fract_x
 _atom_site_fract_y
 _atom_site_fract_z
 _atom_site_occupancy
  Mg  Mg0  1  0.54524400  0.58120500  0.73757800  1
  Mg  Mg1  1  0.68399300  0.70104900  0.43288300  1
  Mg  Mg2  1  0.56058900  0.21227700  0.56043600  1
  Mg  Mg3  1  0.24572500  0.74083700  0.34818600  1
  Mg  Mg4  1  0.99036200  0.62093100  0.64215200  1
  Mg  Mg5  1  0.20808600  0.39087100  0.49493100  1
  Mg  Mg6  1  0.57953400  0.75063100  0.09165900  1
  Mg  Mg7  1  0.39787800  0.31343800  0.96502700  1
  Mg  Mg8  1  0.19821400  0.88543400  0.07828000  1
  Mg  Mg9  1  0.52238100  0.96495200  0.86222400  1
  Si  Si0  1  0.13314600  0.45583800  0.11687400  1
  Si  Si1  1  0.85162000  0.58889700  0.93713500  1
  Si  Si2  1  0.30144800  0.13310200  0.32638000  1
  Si  Si3  1  0.78249600  0.95392000  0.65238200  1
  Si  Si4  1  0.65991600  0.09254600  0.31933900  1
  Si  Si5  1  0.21759900  0.05334400  0.75069500  1
  Si  Si6  1  0.80938900  0.52491200  0.17923500  1
  Si  Si7  1  0.13120200  0.33644700  0.74942900  1
  Si  Si8  1  0.93349600  0.94336600  0.25872500  1
  Si  Si9  1  0.10300100  0.97605200  0.52351200  1
  Si  Si10  1  0.89886600  0.89213400  0.86237600  1
  Si  Si11  1  0.93068400  0.10154200  0.05565500  1
  Si  Si12  1  0.41495500  0.45569600  0.25087900  1
  Si  Si13  1  0.77637000  0.31760600  0.78928300  1
  Si  Si14  1  0.61914100  0.16750300  0.10708300  1
  Si  Si15  1  0.23161200  0.59754100  0.91634500  1
  Si  Si16  1  0.41424700  0.81732600  0.59465300  1
  Si  Si17  1  0.85874800  0.43046300  0.39649500  1
loop_
_geom_bond_atom_site_label_1
_geom_bond_atom_site_label_2
_geom_bond_distance
_geom_bond_site_symmetry_2
Mg0 Si7 2.733622 1_555
Mg0 Si16 2.830108 1_555
Mg0 Si3 2.880424 1_555
Mg0 Si10 2.881366 1_555
Mg0 Si15 2.883555 1_555
Mg0 Si1 2.959505 1_555
Mg0 Si13 3.089457 1_555
Mg1 Si12 2.713073 1_555
Mg1 Si17 2.769816 1_555
Mg1 Si8 2.775942 1_555
Mg1 Si3 2.795170 1_555
Mg1 Si16 2.851876 1_555
Mg1 Si9 2.932135 1_655
Mg2 Si13 2.725829 1_555
Mg2 Si17 2.768390 1_555
Mg2 Si4 2.797722 1_555
Mg2 Si16 2.832036 1_545
Mg2 Si2 2.924857 1_555
Mg2 Si9 2.959415 1_545
Mg2 Si5 3.016464 1_555
Mg2 Si3 3.131814 1_545
Mg3 Si16 2.766295 1_555
Mg3 Si17 2.860152 1_455
Mg3 Si2 2.893768 1_565
Mg3 Si9 2.903560 1_555
Mg3 Si12 2.960513 1_555
Mg3 Si0 3.021437 1_555
Mg3 Si4 3.088004 1_565
Mg4 Si16 2.767922 1_655
Mg4 Si13 2.787075 1_555
Mg4 Si17 2.830216 1_555
Mg4 Si9 2.892043 1_655
Mg4 Si7 2.992123 1_655
Mg4 Si5 3.169639 1_665
Mg4 Si10 3.209786 1_555
Mg5 Si17 2.750379 1_455
Mg5 Si7 2.752347 1_555
Mg5 Si2 2.803845 1_555
Mg5 Si12 2.904531 1_555
Mg5 Si9 2.998993 1_545
Mg5 Si16 3.096743 1_555
Mg6 Si12 2.775786 1_555
Mg6 Si15 2.828976 1_554
Mg6 Si8 2.830177 1_555
Mg6 Si11 2.868416 1_565
Mg6 Si6 2.949191 1_555
Mg6 Si1 3.020207 1_554
Mg6 Si0 3.036996 1_555
Mg6 Si14 3.077898 1_565
Mg6 Si10 3.203563 1_554
Mg7 Si14 2.716957 1_556
Mg7 Si5 2.822416 1_555
Mg7 Si0 2.878490 1_556
Mg7 Si15 2.895895 1_555
Mg7 Si7 2.978487 1_555
Mg7 Si1 3.030202 1_555
Mg7 Si12 3.099937 1_556
Mg7 Si11 3.156935 1_456
Mg7 Si13 3.172269 1_555
Mg8 Si8 2.749415 1_455
Mg8 Si15 2.756002 1_554
Mg8 Si14 2.851362 1_565
Mg8 Si1 2.881079 1_454
Mg8 Si11 2.931997 1_465
Mg8 Si2 3.014004 1_565
Mg8 Si10 3.086088 1_454
Mg8 Si0 3.189695 1_555
Mg9 Si5 2.732465 1_565
Mg9 Si13 2.739321 1_565
Mg9 Si15 2.833321 1_555
Mg9 Si14 2.837505 1_566
Mg9 Si3 2.846760 1_555
Mg9 Si10 2.850935 1_555
Mg9 Si16 2.932649 1_555
Si0 Si12 2.400256 1_555
Si0 Si15 2.412680 1_554
Si0 Si11 2.542529 1_455
Si0 Si6 2.550726 1_455
Si1 Si13 2.376457 1_555
Si1 Si10 2.401544 1_555
Si1 Si15 2.594490 1_655
Si1 Si6 2.618366 1_556
Si2 Si8 2.447823 1_445
Si2 Si9 2.578817 1_545
Si2 Si4 2.600090 1_555
Si3 Si9 2.534096 1_655
Si4 Si8 2.605522 1_545
Si5 Si7 2.456208 1_555
Si5 Si9 2.470002 1_545
Si10 Si5 2.402011 1_665
Si10 Si11 2.441119 1_566
Si10 Si3 2.489371 1_555
Si11 Si14 2.432715 1_555
Si11 Si8 2.533157 1_545
Si12 Si2 2.467840 1_555
Si12 Si6 2.666292 1_555
Si13 Si7 2.421708 1_655
Si14 Si4 2.387506 1_555
Si14 Si6 2.575301 1_555
Si15 Si7 2.434172 1_555
Si16 Si3 2.390199 1_555
Si17 Si4 2.472492 1_555
Si17 Si6 2.507999 1_555
