# generated using pymatgen
data_Sr2MnO4
_symmetry_space_group_name_H-M   'P 1'
_cell_length_a   3.80336393
_cell_length_b   3.80336387
_cell_length_c   6.78051624
_cell_angle_alpha   106.28213753
_cell_angle_beta   106.28216002
_cell_angle_gamma   90.00465090
_symmetry_Int_Tables_number   1
_chemical_formula_structural   Sr2MnO4
_chemical_formula_sum   'Sr2 Mn1 O4'
_cell_volume   90.04391937
_cell_formula_units_Z   1
loop_
 _symmetry_equiv_pos_site_id
 _symmetry_equiv_pos_as_xyz
  1  'x, y, z'
loop_
 _atom_site_type_symbol
 _atom_site_label
 _atom_site_symmetry_multiplicity
 _atom_site_fract_x
 _atom_site_fract_y
 _atom_site_fract_z
 _atom_site_occupancy
  Sr  Sr0  1  0.64391230  0.64391189  0.28780305  1
  Sr  Sr1  1  0.35608753  0.35608841  0.71219702  1
  Mn  Mn0  1  -0.00000198  0.00000217  0.00000021  1
  O  O0  1  0.84486689  0.84486669  0.68982023  1
  O  O1  1  0.15513322  0.15513308  0.31017981  1
  O  O2  1  0.00000095  0.49999907  0.00000070  1
  O  O3  1  0.50000108  -0.00000030  -0.00000001  1
loop_
_geom_bond_atom_site_label_1
_geom_bond_atom_site_label_2
_geom_bond_distance
_geom_bond_site_symmetry_2
Mn0 O2 1.901669 1_555
Mn0 O3 1.901670 1_455
Mn0 O3 1.901694 1_555
Mn0 O2 1.901695 1_545
Mn0 O1 1.930776 1_555
Mn0 O0 1.930778 1_444
O0 Sr0 2.502438 1_555
O0 Sr1 2.692688 1_555
O0 Sr1 2.693072 1_665
O0 Sr1 2.693095 1_655
O0 Sr1 2.693101 1_565
O1 Sr1 2.502438 1_555
O1 Sr0 2.692689 1_555
O1 Sr0 2.693071 1_445
O1 Sr0 2.693097 1_455
O1 Sr0 2.693099 1_545
O2 Sr0 2.612494 1_455
O2 Sr1 2.612496 1_554
O2 Sr0 2.612756 1_555
O2 Sr1 2.612765 1_454
O3 Sr0 2.612496 1_545
O3 Sr1 2.612498 1_554
O3 Sr1 2.612758 1_544
O3 Sr0 2.612761 1_555
