# generated using pymatgen
data_SrV12O30
_symmetry_space_group_name_H-M   'P 1'
_cell_length_a   11.24270300
_cell_length_b   9.24073100
_cell_length_c   11.85809657
_cell_angle_alpha   69.87645836
_cell_angle_beta   90.00000000
_cell_angle_gamma   90.00000000
_symmetry_Int_Tables_number   1
_chemical_formula_structural   SrV12O30
_chemical_formula_sum   'Sr2 V24 O60'
_cell_volume   1156.74036061
_cell_formula_units_Z   2
loop_
 _symmetry_equiv_pos_site_id
 _symmetry_equiv_pos_as_xyz
  1  'x, y, z'
loop_
 _atom_site_type_symbol
 _atom_site_label
 _atom_site_symmetry_multiplicity
 _atom_site_fract_x
 _atom_site_fract_y
 _atom_site_fract_z
 _atom_site_occupancy
  Sr  Sr0  1  0.25000000  0.04609900  0.51170000  1
  Sr  Sr1  1  0.75000000  0.95390100  0.48830000  1
  V  V0  1  0.25000000  0.54916600  0.58958000  1
  V  V1  1  0.75000000  0.45083400  0.41042000  1
  V  V2  1  0.25000000  0.20696300  0.80913100  1
  V  V3  1  0.75000000  0.79303700  0.19086900  1
  V  V4  1  0.25000000  0.51398700  0.89386300  1
  V  V5  1  0.75000000  0.48601300  0.10613700  1
  V  V6  1  0.25000000  0.79148300  0.97289500  1
  V  V7  1  0.75000000  0.20851700  0.02710500  1
  V  V8  1  0.41383800  0.47378700  0.40792900  1
  V  V9  1  0.91383800  0.52621300  0.59207100  1
  V  V10  1  0.58616200  0.52621300  0.59207100  1
  V  V11  1  0.08616200  0.47378700  0.40792900  1
  V  V12  1  0.41825100  0.79849700  0.18335600  1
  V  V13  1  0.91825100  0.20150300  0.81664400  1
  V  V14  1  0.58174900  0.20150300  0.81664400  1
  V  V15  1  0.08174900  0.79849700  0.18335600  1
  V  V16  1  0.41617300  0.48803700  0.10413900  1
  V  V17  1  0.91617300  0.51196300  0.89586100  1
  V  V18  1  0.58382700  0.51196300  0.89586100  1
  V  V19  1  0.08382700  0.48803700  0.10413900  1
  V  V20  1  0.41628500  0.20970600  0.02714600  1
  V  V21  1  0.91628500  0.79029400  0.97285400  1
  V  V22  1  0.58371500  0.79029400  0.97285400  1
  V  V23  1  0.08371500  0.20970600  0.02714600  1
  O  O0  1  0.25000000  0.73145600  0.57333700  1
  O  O1  1  0.75000000  0.26854400  0.42666300  1
  O  O2  1  0.25000000  0.52680400  0.43055200  1
  O  O3  1  0.75000000  0.47319600  0.56944800  1
  O  O4  1  0.25000000  0.20387400  0.66974300  1
  O  O5  1  0.75000000  0.79612600  0.33025700  1
  O  O6  1  0.25000000  0.98396000  0.89496400  1
  O  O7  1  0.75000000  0.01604000  0.10503600  1
  O  O8  1  0.25000000  0.26308300  0.97922400  1
  O  O9  1  0.75000000  0.73691700  0.02077600  1
  O  O10  1  0.25000000  0.44918400  0.74962500  1
  O  O11  1  0.75000000  0.55081600  0.25037500  1
  O  O12  1  0.25000000  0.71122600  0.83373500  1
  O  O13  1  0.75000000  0.28877400  0.16626500  1
  O  O14  1  0.25000000  0.53699400  0.05849900  1
  O  O15  1  0.75000000  0.46300600  0.94150100  1
  O  O16  1  0.25000000  0.79160500  0.14338600  1
  O  O17  1  0.75000000  0.20839500  0.85661400  1
  O  O18  1  0.25000000  0.05067200  0.30970200  1
  O  O19  1  0.75000000  0.94932800  0.69029800  1
  O  O20  1  0.39565700  0.29111400  0.43326900  1
  O  O21  1  0.89565700  0.70888600  0.56673100  1
  O  O22  1  0.60434300  0.70888600  0.56673100  1
  O  O23  1  0.10434300  0.29111400  0.43326900  1
  O  O24  1  0.41688300  0.50509500  0.56569600  1
  O  O25  1  0.91688300  0.49490500  0.43430400  1
  O  O26  1  0.58311700  0.49490500  0.43430400  1
  O  O27  1  0.08311700  0.50509500  0.56569600  1
  O  O28  1  0.42215000  0.77827900  0.32553600  1
  O  O29  1  0.92215000  0.22172100  0.67446400  1
  O  O30  1  0.57785000  0.22172100  0.67446400  1
  O  O31  1  0.07785000  0.77827900  0.32553600  1
  O  O32  1  0.41738000  0.01405000  0.10754800  1
  O  O33  1  0.91738000  0.98595000  0.89245200  1
  O  O34  1  0.58262000  0.98595000  0.89245200  1
  O  O35  1  0.08262000  0.01405000  0.10754800  1
  O  O36  1  0.41699100  0.73664000  0.01627800  1
  O  O37  1  0.91699100  0.26336000  0.98372200  1
  O  O38  1  0.58300900  0.26336000  0.98372200  1
  O  O39  1  0.08300900  0.73664000  0.01627800  1
  O  O40  1  0.41515300  0.55553800  0.24539000  1
  O  O41  1  0.91515300  0.44446200  0.75461000  1
  O  O42  1  0.58484700  0.44446200  0.75461000  1
  O  O43  1  0.08484700  0.55553800  0.24539000  1
  O  O44  1  0.41684200  0.29129900  0.16334500  1
  O  O45  1  0.91684200  0.70870100  0.83665500  1
  O  O46  1  0.58315800  0.70870100  0.83665500  1
  O  O47  1  0.08315800  0.29129900  0.16334500  1
  O  O48  1  0.41638400  0.46347000  0.93936900  1
  O  O49  1  0.91638400  0.53653000  0.06063100  1
  O  O50  1  0.58361600  0.53653000  0.06063100  1
  O  O51  1  0.08361600  0.46347000  0.93936900  1
  O  O52  1  0.42156700  0.20818100  0.85786500  1
  O  O53  1  0.92156700  0.79181900  0.14213500  1
  O  O54  1  0.57843300  0.79181900  0.14213500  1
  O  O55  1  0.07843300  0.20818100  0.85786500  1
  O  O56  1  0.49058100  0.98584900  0.55589800  1
  O  O57  1  0.99058100  0.01415100  0.44410200  1
  O  O58  1  0.50941900  0.01415100  0.44410200  1
  O  O59  1  0.00941900  0.98584900  0.55589800  1
loop_
_geom_bond_atom_site_label_1
_geom_bond_atom_site_label_2
_geom_bond_distance
_geom_bond_site_symmetry_2
O0 V0 1.628301 1_555
O0 Sr0 2.743298 1_565
O1 V1 1.628301 1_555
O1 Sr1 2.743298 1_545
O2 V11 1.948157 1_555
O2 V8 1.948157 1_555
O2 V0 1.966459 1_555
O3 V9 1.948157 1_555
O3 V10 1.948157 1_555
O3 V1 1.966459 1_555
O4 V2 1.662913 1_555
O4 Sr0 2.741887 1_555
O5 V3 1.662913 1_555
O5 Sr1 2.741887 1_555
O6 V6 1.698976 1_555
O6 V2 1.959403 1_565
O7 V7 1.698976 1_555
O7 V3 1.959403 1_545
O8 V20 1.966812 1_556
O8 V23 1.966812 1_556
O8 V4 2.187542 1_555
O8 V2 2.248749 1_555
O9 V21 1.966812 1_554
O9 V22 1.966812 1_554
O9 V5 2.187542 1_555
O9 V3 2.248749 1_555
O10 V0 1.802456 1_555
O10 V4 1.997194 1_555
O10 V2 2.102646 1_555
O11 V1 1.802456 1_555
O11 V5 1.997194 1_555
O11 V3 2.102646 1_555
O12 V4 1.713522 1_555
O12 V6 2.028594 1_555
O13 V5 1.713522 1_555
O13 V7 2.028594 1_555
O14 V16 1.954326 1_555
O14 V19 1.954326 1_555
O14 V4 2.035228 1_554
O14 V6 2.217693 1_554
O15 V17 1.954326 1_555
O15 V18 1.954326 1_555
O15 V5 2.035228 1_556
O15 V7 2.217693 1_556
O16 V15 1.956427 1_555
O16 V12 1.956427 1_555
O16 V6 2.022087 1_554
O17 V13 1.956427 1_555
O17 V14 1.956427 1_555
O17 V7 2.022087 1_556
O18 Sr0 2.381104 1_555
O19 Sr1 2.381104 1_555
O20 V8 1.622500 1_555
O20 Sr0 2.687739 1_555
O21 V9 1.622500 1_555
O21 Sr1 2.687739 1_555
O22 V10 1.622500 1_555
O22 Sr1 2.687739 1_555
O23 V11 1.622500 1_555
O23 Sr0 2.687739 1_555
O24 V10 1.949330 1_555
O24 V0 1.961024 1_555
O24 V8 1.989284 1_555
O25 V11 1.949330 1_655
O25 V1 1.961024 1_555
O25 V9 1.989284 1_555
O26 V8 1.949330 1_555
O26 V1 1.961024 1_555
O26 V10 1.989284 1_555
O27 V9 1.949330 1_455
O27 V0 1.961024 1_555
O27 V11 1.989284 1_555
O28 V12 1.631756 1_555
O29 V13 1.631756 1_555
O30 V14 1.631756 1_555
O31 V15 1.631756 1_555
O32 V20 1.729715 1_555
O32 V12 1.882458 1_545
O33 V21 1.729715 1_555
O33 V13 1.882458 1_565
O34 V22 1.729715 1_555
O34 V14 1.882458 1_565
O35 V23 1.729715 1_555
O35 V15 1.882458 1_545
O36 V22 1.961831 1_554
O36 V6 1.966427 1_554
O36 V16 2.171663 1_555
O36 V12 2.243087 1_555
O37 V23 1.961831 1_656
O37 V7 1.966427 1_556
O37 V17 2.171663 1_555
O37 V13 2.243087 1_555
O38 V20 1.961831 1_556
O38 V7 1.966427 1_556
O38 V18 2.171663 1_555
O38 V14 2.243087 1_555
O39 V21 1.961831 1_454
O39 V6 1.966427 1_554
O39 V19 2.171663 1_555
O39 V15 2.243087 1_555
O40 V8 1.812155 1_555
O40 V16 1.978288 1_555
O40 V12 2.108670 1_555
O41 V9 1.812155 1_555
O41 V17 1.978288 1_555
O41 V13 2.108670 1_555
O42 V10 1.812155 1_555
O42 V18 1.978288 1_555
O42 V14 2.108670 1_555
O43 V11 1.812155 1_555
O43 V19 1.978288 1_555
O43 V15 2.108670 1_555
O44 V16 1.708753 1_555
O44 V20 2.003709 1_555
O45 V17 1.708753 1_555
O45 V21 2.003709 1_555
O46 V18 1.708753 1_555
O46 V22 2.003709 1_555
O47 V19 1.708753 1_555
O47 V23 2.003709 1_555
O48 V4 1.958299 1_555
O48 V18 1.962588 1_555
O48 V16 2.043114 1_556
O48 V20 2.214221 1_556
O49 V5 1.958299 1_555
O49 V19 1.962588 1_655
O49 V17 2.043114 1_554
O49 V21 2.214221 1_554
O50 V5 1.958299 1_555
O50 V16 1.962588 1_555
O50 V18 2.043114 1_554
O50 V22 2.214221 1_554
O51 V4 1.958299 1_555
O51 V17 1.962588 1_455
O51 V19 2.043114 1_556
O51 V23 2.214221 1_556
O52 V14 1.872607 1_555
O52 V20 2.013118 1_556
O52 V2 2.014728 1_555
O53 V15 1.872607 1_655
O53 V21 2.013118 1_554
O53 V3 2.014728 1_555
O54 V12 1.872607 1_555
O54 V22 2.013118 1_554
O54 V3 2.014728 1_555
O55 V13 1.872607 1_455
O55 V23 2.013118 1_556
O55 V2 2.014728 1_555
O56 O58 1.277550 1_565
O56 Sr0 2.774836 1_565
O57 O59 1.277550 1_645
O57 Sr1 2.774836 1_545
O58 Sr1 2.774836 1_545
O59 Sr0 2.774836 1_565
