# generated using pymatgen
data_Na2TeH6SO10
_symmetry_space_group_name_H-M   'P 1'
_cell_length_a   5.89479501
_cell_length_b   5.89479501
_cell_length_c   15.44562004
_cell_angle_alpha   87.69732740
_cell_angle_beta   87.69732740
_cell_angle_gamma   124.16817658
_symmetry_Int_Tables_number   1
_chemical_formula_structural   Na2TeH6SO10
_chemical_formula_sum   'Na4 Te2 H12 S2 O20'
_cell_volume   442.43474330
_cell_formula_units_Z   2
loop_
 _symmetry_equiv_pos_site_id
 _symmetry_equiv_pos_as_xyz
  1  'x, y, z'
loop_
 _atom_site_type_symbol
 _atom_site_label
 _atom_site_symmetry_multiplicity
 _atom_site_fract_x
 _atom_site_fract_y
 _atom_site_fract_z
 _atom_site_occupancy
  Na  Na0  1  0.87657100  0.38236300  0.57373300  1
  Na  Na1  1  0.38236300  0.87657100  0.07373300  1
  Na  Na2  1  0.17052500  0.32908400  0.38215900  1
  Na  Na3  1  0.32908400  0.17052500  0.88215900  1
  Te  Te0  1  0.77464700  0.80368700  0.69396900  1
  Te  Te1  1  0.80368700  0.77464700  0.19396900  1
  H  H0  1  0.38259300  0.85986900  0.69024100  1
  H  H1  1  0.85986900  0.38259300  0.19024100  1
  H  H2  1  0.33586300  0.35538000  0.70638500  1
  H  H3  1  0.35538000  0.33586300  0.20638500  1
  H  H4  1  0.16051700  0.09788800  0.57896400  1
  H  H5  1  0.09788800  0.16051700  0.07896400  1
  H  H6  1  0.55192100  0.67137800  0.55333200  1
  H  H7  1  0.67137800  0.55192100  0.05333200  1
  H  H8  1  0.84606500  0.08637100  0.81985200  1
  H  H9  1  0.08637100  0.84606500  0.31985200  1
  H  H10  1  0.94645800  0.54582400  0.76265500  1
  H  H11  1  0.54582400  0.94645800  0.26265500  1
  S  S0  1  0.94253300  0.42316100  0.94656200  1
  S  S1  1  0.42316100  0.94253300  0.44656200  1
  O  O0  1  0.07578200  0.28206300  0.97299700  1
  O  O1  1  0.28206300  0.07578200  0.47299700  1
  O  O2  1  0.44905200  0.47470600  0.75284200  1
  O  O3  1  0.47470600  0.44905200  0.25284200  1
  O  O4  1  0.99924300  0.65381600  0.70450000  1
  O  O5  1  0.65381600  0.99924300  0.20450000  1
  O  O6  1  0.13330200  0.72393600  0.94841200  1
  O  O7  1  0.72393600  0.13330200  0.44841200  1
  O  O8  1  0.58562500  0.98859800  0.67918200  1
  O  O9  1  0.98859800  0.58562500  0.17918200  1
  O  O10  1  0.09468900  0.14099200  0.63276900  1
  O  O11  1  0.14099200  0.09468900  0.13276900  1
  O  O12  1  0.89873200  0.95646700  0.80386100  1
  O  O13  1  0.95646600  0.89873200  0.30386100  1
  O  O14  1  0.67893500  0.63537700  0.58419000  1
  O  O15  1  0.63537700  0.67893500  0.08419000  1
  O  O16  1  0.68931200  0.32020900  0.00587300  1
  O  O17  1  0.32020900  0.68931200  0.50587300  1
  O  O18  1  0.84428400  0.34718500  0.85635400  1
  O  O19  1  0.34718500  0.84428400  0.35635400  1
loop_
_geom_bond_atom_site_label_1
_geom_bond_atom_site_label_2
_geom_bond_distance
_geom_bond_site_symmetry_2
Na0 O17 2.350287 1_655
Na0 O14 2.358775 1_555
Na0 O7 2.365663 1_555
Na0 O8 2.445843 1_545
Na0 O4 2.498053 1_555
Na0 O10 2.560069 1_655
Na1 O16 2.350287 1_565
Na1 O15 2.358775 1_555
Na1 O6 2.365663 1_554
Na1 O9 2.445843 1_455
Na1 O5 2.498053 1_555
Na1 O11 2.560069 1_565
Na2 O7 2.363344 1_455
Na2 O1 2.374639 1_555
Na2 O3 2.424699 1_555
Na2 O13 2.502776 1_445
Na2 O19 2.604538 1_555
Na2 O17 2.701101 1_555
Na3 O6 2.363344 1_545
Na3 O0 2.374639 1_555
Na3 O2 2.424699 1_555
Na3 O12 2.502776 1_445
Na3 O18 2.604538 1_555
Na3 O16 2.701101 1_556
H0 O8 0.995208 1_555
H1 O9 0.995208 1_555
H2 O2 1.003351 1_555
H3 O3 1.003351 1_555
H4 O10 1.003787 1_555
H5 O11 1.003787 1_555
H6 O14 1.015781 1_555
H6 O17 1.628069 1_555
H7 O15 1.015781 1_555
H7 O16 1.628069 1_555
H8 O12 1.009876 1_545
H8 O18 1.664038 1_555
H9 O13 1.009882 1_455
H9 O19 1.664038 1_555
H10 O4 1.008960 1_555
H10 O18 1.682250 1_555
H11 O5 1.008960 1_555
H11 O19 1.682250 1_555
O0 S0 1.485866 1_455
O1 S1 1.485866 1_545
O2 Te0 1.951582 1_555
O3 Te1 1.951582 1_555
O4 Te0 1.969609 1_555
O5 Te1 1.969609 1_555
O6 S0 1.475149 1_455
O7 S1 1.475149 1_545
O8 Te0 1.961253 1_555
O9 Te1 1.961253 1_555
O10 Te0 1.974439 1_445
O11 Te1 1.974439 1_445
O12 Te0 1.926078 1_555
O13 Te1 1.926076 1_555
O14 Te0 1.939345 1_555
O15 Te1 1.939345 1_555
O16 S0 1.504512 1_554
O17 S1 1.504512 1_555
O18 S0 1.516897 1_555
O19 S1 1.516897 1_555
