# generated using pymatgen
data_TlCu7Se4
_symmetry_space_group_name_H-M   'P 1'
_cell_length_a   7.67469742
_cell_length_b   7.67469742
_cell_length_c   10.45533518
_cell_angle_alpha   47.25215385
_cell_angle_beta   47.25215385
_cell_angle_gamma   29.69914436
_symmetry_Int_Tables_number   1
_chemical_formula_structural   TlCu7Se4
_chemical_formula_sum   'Tl1 Cu7 Se4'
_cell_volume   217.22434533
_cell_formula_units_Z   1
loop_
 _symmetry_equiv_pos_site_id
 _symmetry_equiv_pos_as_xyz
  1  'x, y, z'
loop_
 _atom_site_type_symbol
 _atom_site_label
 _atom_site_symmetry_multiplicity
 _atom_site_fract_x
 _atom_site_fract_y
 _atom_site_fract_z
 _atom_site_occupancy
  Tl  Tl0  1  0.00294600  0.00294600  0.99805000  1
  Cu  Cu0  1  0.02380800  0.02380800  0.60189000  1
  Cu  Cu1  1  0.97698100  0.97698100  0.39788000  1
  Cu  Cu2  1  0.36812300  0.36812300  0.65140800  1
  Cu  Cu3  1  0.62648000  0.62648000  0.34921900  1
  Cu  Cu4  1  0.68008800  0.68008800  0.53322000  1
  Cu  Cu5  1  0.21314200  0.21314200  0.11618000  1
  Cu  Cu6  1  0.78151200  0.78151200  0.89416000  1
  Se  Se0  1  0.24848700  0.24848700  0.32510700  1
  Se  Se1  1  0.75950300  0.75950300  0.67042900  1
  Se  Se2  1  0.43420600  0.43420600  0.81425900  1
  Se  Se3  1  0.56342500  0.56342500  0.18819800  1
loop_
_geom_bond_atom_site_label_1
_geom_bond_atom_site_label_2
_geom_bond_distance
_geom_bond_site_symmetry_2
Cu0 Se0 2.436876 1_555
Cu0 Se2 2.533858 1_455
Cu0 Se2 2.533858 1_545
Cu1 Se1 2.370245 1_555
Cu1 Se3 2.524045 1_565
Cu1 Se3 2.524045 1_655
Cu1 Cu5 2.541254 1_665
Cu2 Se1 2.460738 1_545
Cu2 Se1 2.460738 1_455
Cu2 Se2 2.490969 1_555
Cu3 Se3 2.433412 1_555
Cu3 Se0 2.562824 1_565
Cu3 Se0 2.562824 1_655
Cu3 Cu5 2.656791 1_655
Cu3 Cu5 2.656791 1_565
Cu4 Se1 2.412512 1_555
Cu4 Se0 2.555736 1_655
Cu4 Se0 2.555736 1_565
Cu4 Se2 2.624430 1_555
Cu5 Se2 2.486201 1_554
Cu5 Se0 2.579812 1_555
Cu5 Cu6 2.641776 1_454
Cu5 Cu6 2.641776 1_544
Cu5 Se3 2.649676 1_545
Cu5 Se3 2.649676 1_455
Cu6 Se3 2.439308 1_556
Cu6 Se1 2.578989 1_555
Cu6 Se2 2.653474 1_655
Cu6 Se2 2.653474 1_565
Se0 Tl0 3.418137 1_564
Se0 Tl0 3.418137 1_654
Se1 Tl0 3.432057 1_565
Se1 Tl0 3.432057 1_655
Se2 Tl0 3.369536 1_565
Se2 Tl0 3.369536 1_655
Se3 Tl0 3.336409 1_564
Se3 Tl0 3.336409 1_654
