# generated using pymatgen
data_Li7Fe4(P2O7)4
_symmetry_space_group_name_H-M   'P 1'
_cell_length_a   9.87131600
_cell_length_b   9.87953550
_cell_length_c   11.20992000
_cell_angle_alpha   102.27338379
_cell_angle_beta   89.97628929
_cell_angle_gamma   90.21797830
_symmetry_Int_Tables_number   1
_chemical_formula_structural   Li7Fe4(P2O7)4
_chemical_formula_sum   'Li14 Fe8 P16 O56'
_cell_volume   1068.24206753
_cell_formula_units_Z   2
loop_
 _symmetry_equiv_pos_site_id
 _symmetry_equiv_pos_as_xyz
  1  'x, y, z'
loop_
 _atom_site_type_symbol
 _atom_site_label
 _atom_site_symmetry_multiplicity
 _atom_site_fract_x
 _atom_site_fract_y
 _atom_site_fract_z
 _atom_site_occupancy
  Li  Li0  1  0.28616600  0.11382800  0.45104900  1
  Li  Li1  1  0.89377600  0.08510900  0.02963200  1
  Li  Li2  1  0.09388000  0.34760700  0.95492800  1
  Li  Li3  1  0.58865800  0.14762800  0.04079900  1
  Li  Li4  1  0.39061400  0.41319300  0.97105100  1
  Li  Li5  1  0.07805500  0.32778600  0.45359400  1
  Li  Li6  1  0.77804100  0.38103300  0.55236300  1
  Li  Li7  1  0.21900800  0.61287700  0.45006700  1
  Li  Li8  1  0.92084100  0.67160700  0.54781700  1
  Li  Li9  1  0.60487900  0.58774500  0.02867800  1
  Li  Li10  1  0.90528400  0.65542100  0.04208200  1
  Li  Li11  1  0.11003800  0.91396300  0.97255400  1
  Li  Li12  1  0.42782300  0.83809600  0.46326500  1
  Li  Li13  1  0.72050500  0.89745600  0.55325600  1
  Fe  Fe0  1  0.07726000  0.20128400  0.67702000  1
  Fe  Fe1  1  0.78354900  0.24861500  0.82028500  1
  Fe  Fe2  1  0.28682500  0.24254300  0.17679400  1
  Fe  Fe3  1  0.57339800  0.29420200  0.33175600  1
  Fe  Fe4  1  0.42229000  0.70590100  0.68445200  1
  Fe  Fe5  1  0.70913100  0.75732300  0.82470100  1
  Fe  Fe6  1  0.21831000  0.74530800  0.17089900  1
  Fe  Fe7  1  0.92599700  0.80122200  0.32486700  1
  P  P0  1  0.54478700  0.02373000  0.75436000  1
  P  P1  1  0.29414000  0.11875300  0.88913900  1
  P  P2  1  0.07144600  0.05899300  0.24377300  1
  P  P3  1  0.84723000  0.12499900  0.42282500  1
  P  P4  1  0.35433800  0.37980300  0.57119900  1
  P  P5  1  0.56930400  0.44171000  0.75695400  1
  P  P6  1  0.94910200  0.52347200  0.75987600  1
  P  P7  1  0.79336800  0.37953400  0.11415400  1
  P  P8  1  0.20325700  0.61989700  0.88420900  1
  P  P9  1  0.05003400  0.47464700  0.23831600  1
  P  P10  1  0.43155700  0.55836500  0.24512100  1
  P  P11  1  0.64731700  0.62165100  0.42733000  1
  P  P12  1  0.15215000  0.87682800  0.57714700  1
  P  P13  1  0.93031700  0.93916100  0.75794600  1
  P  P14  1  0.70618100  0.87967800  0.11042100  1
  P  P15  1  0.45243400  0.97410000  0.24279200  1
  O  O0  1  0.58495300  0.02277400  0.62513000  1
  O  O1  1  0.16546500  0.02313700  0.55580000  1
  O  O2  1  0.91122700  0.08407600  0.73000800  1
  O  O3  1  0.39821800  0.09517200  0.77371800  1
  O  O4  1  0.63631500  0.10874400  0.85497600  1
  O  O5  1  0.17338700  0.19040300  0.84072500  1
  O  O6  1  0.36469000  0.22347800  0.99640000  1
  O  O7  1  0.72565700  0.01960800  0.07941100  1
  O  O8  1  0.92464200  0.11609300  0.29438500  1
  O  O9  1  0.06809300  0.06487700  0.11024600  1
  O  O10  1  0.47183500  0.12638600  0.22049800  1
  O  O11  1  0.71262700  0.19557700  0.40425300  1
  O  O12  1  0.17669300  0.16502700  0.31240700  1
  O  O13  1  0.93199500  0.22396000  0.51950400  1
  O  O14  1  0.43535200  0.28890600  0.46760400  1
  O  O15  1  0.68473400  0.34927200  0.69650000  1
  O  O16  1  0.21535900  0.31284600  0.57820000  1
  O  O17  1  0.96350800  0.37683800  0.78951100  1
  O  O18  1  0.42761400  0.37718500  0.69846900  1
  O  O19  1  0.55881500  0.44169200  0.89101200  1
  O  O20  1  0.22742700  0.48340300  0.92040600  1
  O  O21  1  0.85804800  0.27431100  0.00665500  1
  O  O22  1  0.66980800  0.31567300  0.16781400  1
  O  O23  1  0.90029600  0.40582000  0.22669500  1
  O  O24  1  0.41990400  0.40919200  0.26988900  1
  O  O25  1  0.13866100  0.38211600  0.14167100  1
  O  O26  1  0.65445700  0.46974900  0.44037500  1
  O  O27  1  0.91060000  0.52059000  0.62795200  1
  O  O28  1  0.08815200  0.47691300  0.37009400  1
  O  O29  1  0.34464700  0.53385400  0.56419200  1
  O  O30  1  0.86113700  0.61627300  0.85623400  1
  O  O31  1  0.57920300  0.58967900  0.72818200  1
  O  O32  1  0.09826300  0.59297000  0.77052900  1
  O  O33  1  0.32578700  0.67947700  0.82795900  1
  O  O34  1  0.13618200  0.72407900  0.99061300  1
  O  O35  1  0.77049300  0.51743900  0.08011400  1
  O  O36  1  0.43260200  0.56164300  0.11137100  1
  O  O37  1  0.57859400  0.61728900  0.29600900  1
  O  O38  1  0.03997700  0.62238700  0.20987200  1
  O  O39  1  0.78687100  0.68685900  0.42165400  1
  O  O40  1  0.32551900  0.65822600  0.31563600  1
  O  O41  1  0.55845300  0.71643900  0.52285200  1
  O  O42  1  0.06785600  0.77537800  0.48200700  1
  O  O43  1  0.82591500  0.83302100  0.68835500  1
  O  O44  1  0.29209600  0.80966200  0.59011000  1
  O  O45  1  0.53084000  0.87077600  0.77565100  1
  O  O46  1  0.93364300  0.93564300  0.89163400  1
  O  O47  1  0.07833500  0.88427400  0.70633900  1
  O  O48  1  0.26734600  0.98187600  0.91982600  1
  O  O49  1  0.64764800  0.77201400  0.00161900  1
  O  O50  1  0.83039900  0.81777300  0.16156800  1
  O  O51  1  0.35501300  0.89196500  0.14999100  1
  O  O52  1  0.59829300  0.89968900  0.22240800  1
  O  O53  1  0.09024900  0.91425200  0.27122700  1
  O  O54  1  0.83334000  0.97787300  0.44239400  1
  O  O55  1  0.41670400  0.97716400  0.37455000  1
loop_
_geom_bond_atom_site_label_1
_geom_bond_atom_site_label_2
_geom_bond_distance
_geom_bond_site_symmetry_2
Li0 O55 1.933616 1_545
Li0 O1 2.009801 1_555
Li0 O12 2.044224 1_555
Li0 O14 2.244854 1_555
Li0 O16 2.281285 1_555
Li1 O7 1.904957 1_555
Li1 O46 1.939372 1_544
Li1 O21 1.973455 1_555
Li1 O9 1.974392 1_655
Li2 O5 1.957075 1_555
Li2 O20 1.973419 1_555
Li2 O25 2.095243 1_556
Li2 O17 2.326062 1_455
Li2 O21 2.538627 1_456
Li3 O7 1.965232 1_555
Li3 O4 2.090067 1_554
Li3 O22 2.100260 1_555
Li3 O10 2.368064 1_555
Li3 O6 2.422651 1_554
Li4 O20 1.890778 1_555
Li4 O19 1.934870 1_555
Li4 O36 1.952464 1_556
Li4 O6 1.970266 1_555
Li5 O28 1.908357 1_555
Li5 O16 1.975013 1_555
Li5 O13 1.996732 1_455
Li5 O12 2.228732 1_555
Li6 O15 1.941554 1_555
Li6 O27 1.954921 1_555
Li6 O26 2.075963 1_555
Li6 O13 2.151238 1_555
Li6 O11 2.286731 1_555
Li7 O28 1.937103 1_555
Li7 O40 1.964500 1_555
Li7 O29 2.053696 1_555
Li7 O42 2.169167 1_555
Li7 O44 2.336106 1_555
Li8 O27 1.900464 1_555
Li8 O39 1.966076 1_555
Li8 O42 2.002676 1_655
Li8 O43 2.201155 1_555
Li9 O35 1.915012 1_555
Li9 O19 1.928533 1_554
Li9 O49 1.952757 1_555
Li9 O36 1.978592 1_555
Li10 O50 2.002001 1_555
Li10 O35 2.010794 1_555
Li10 O30 2.082476 1_554
Li10 O38 2.382966 1_655
Li10 O34 2.478222 1_654
Li11 O48 1.835965 1_555
Li11 O34 1.947311 1_555
Li11 O9 1.950025 1_566
Li11 O46 1.996853 1_455
Li12 O55 1.863029 1_555
Li12 O41 1.976713 1_555
Li12 O44 2.015250 1_555
Li12 O40 2.377781 1_555
Li13 O0 1.886814 1_565
Li13 O54 1.956566 1_555
Li13 O43 2.048839 1_555
Li13 O41 2.364928 1_555
Li13 O39 2.374667 1_555
Fe0 O5 2.089431 1_555
Fe0 O2 2.158028 1_455
Fe0 O1 2.167059 1_555
Fe0 O16 2.192423 1_555
Fe0 O17 2.223271 1_455
Fe0 O13 2.323141 1_455
Fe1 O4 2.094240 1_555
Fe1 O15 2.112121 1_555
Fe1 O2 2.137808 1_555
Fe1 O21 2.178154 1_556
Fe1 O17 2.246692 1_555
Fe2 O25 2.107652 1_555
Fe2 O6 2.133882 1_554
Fe2 O12 2.136979 1_555
Fe2 O24 2.186244 1_555
Fe2 O10 2.268923 1_555
Fe3 O11 1.961257 1_555
Fe3 O14 2.051914 1_555
Fe3 O26 2.055029 1_555
Fe3 O24 2.101502 1_555
Fe3 O10 2.102062 1_555
Fe3 O22 2.119174 1_555
Fe4 O33 1.933631 1_555
Fe4 O45 2.031319 1_555
Fe4 O31 2.052167 1_555
Fe4 O44 2.071972 1_555
Fe4 O29 2.076217 1_555
Fe4 O41 2.275123 1_555
Fe5 O49 2.049375 1_556
Fe5 O30 2.131686 1_555
Fe5 O43 2.168482 1_555
Fe5 O31 2.186750 1_555
Fe5 O45 2.221257 1_555
Fe6 O51 2.025951 1_555
Fe6 O34 2.146043 1_554
Fe6 O53 2.205800 1_555
Fe6 O38 2.230078 1_555
Fe6 O40 2.257086 1_555
Fe7 O50 2.097168 1_555
Fe7 O53 2.123280 1_655
Fe7 O54 2.156787 1_555
Fe7 O39 2.201814 1_555
Fe7 O38 2.257184 1_655
Fe7 O42 2.307615 1_655
O0 P0 1.499880 1_555
O1 P12 1.519703 1_545
O2 P13 1.541451 1_545
O3 P0 1.606540 1_555
O3 P1 1.629859 1_555
O4 P0 1.544737 1_555
O5 P1 1.544911 1_555
O6 P1 1.570832 1_555
O7 P14 1.507046 1_545
O8 P2 1.615433 1_655
O8 P3 1.615689 1_555
O9 P2 1.510634 1_555
O10 P15 1.587553 1_545
O11 P3 1.537532 1_555
O12 P2 1.555130 1_555
O13 P3 1.540973 1_555
O14 P4 1.534895 1_555
O15 P5 1.528321 1_555
O16 P4 1.530016 1_555
O17 P6 1.560596 1_555
O18 P4 1.604991 1_555
O18 P5 1.615166 1_555
O19 P5 1.506337 1_555
O20 P8 1.508369 1_555
O21 P7 1.553158 1_555
O22 P7 1.549982 1_555
O23 P9 1.618334 1_655
O23 P7 1.622610 1_555
O24 P10 1.560429 1_555
O25 P9 1.535915 1_555
O26 P11 1.540335 1_555
O27 P6 1.521434 1_555
O28 P9 1.520066 1_555
O29 P4 1.543891 1_555
O30 P6 1.531527 1_555
O31 P5 1.565238 1_555
O32 P6 1.615949 1_455
O32 P8 1.619806 1_555
O33 P8 1.535839 1_555
O34 P8 1.550192 1_555
O35 P7 1.508733 1_555
O36 P10 1.506574 1_555
O37 P11 1.613310 1_555
O37 P10 1.619900 1_555
O38 P9 1.562357 1_555
O39 P11 1.525584 1_555
O40 P10 1.539300 1_555
O41 P11 1.540193 1_555
O42 P12 1.540881 1_555
O43 P13 1.554002 1_555
O44 P12 1.554987 1_555
O45 P0 1.584648 1_565
O46 P13 1.506777 1_555
O47 P12 1.608714 1_555
O47 P13 1.623448 1_455
O48 P1 1.487257 1_565
O49 P14 1.548279 1_555
O50 P14 1.536784 1_555
O51 P15 1.517063 1_555
O52 P15 1.613102 1_555
O52 P14 1.626107 1_555
O53 P2 1.537258 1_565
O54 P3 1.521089 1_565
O55 P15 1.512440 1_555
