# generated using pymatgen
data_KNd(SnO3)4
_symmetry_space_group_name_H-M   'P 1'
_cell_length_a   5.77556212
_cell_length_b   5.77556212
_cell_length_c   8.18752706
_cell_angle_alpha   90.00000000
_cell_angle_beta   90.00000000
_cell_angle_gamma   90.33050537
_symmetry_Int_Tables_number   1
_chemical_formula_structural   KNd(SnO3)4
_chemical_formula_sum   'K1 Nd1 Sn4 O12'
_cell_volume   273.10776097
_cell_formula_units_Z   1
loop_
 _symmetry_equiv_pos_site_id
 _symmetry_equiv_pos_as_xyz
  1  'x, y, z'
loop_
 _atom_site_type_symbol
 _atom_site_label
 _atom_site_symmetry_multiplicity
 _atom_site_fract_x
 _atom_site_fract_y
 _atom_site_fract_z
 _atom_site_occupancy
  K  K0  1  0.98813326  0.01186674  0.00000000  1
  Nd  Nd0  1  0.51793776  0.48206224  0.50000000  1
  Sn  Sn0  1  0.49513729  0.99439574  0.24502583  1
  Sn  Sn1  1  0.49513729  0.99439574  0.75497417  1
  Sn  Sn2  1  0.00560426  0.50486271  0.75497417  1
  Sn  Sn3  1  0.00560426  0.50486271  0.24502583  1
  O  O0  1  0.25958944  0.25889970  0.28059554  1
  O  O1  1  0.74110030  0.74041056  0.28059554  1
  O  O2  1  0.74110030  0.74041056  0.71940446  1
  O  O3  1  0.25958944  0.25889970  0.71940446  1
  O  O4  1  0.27471572  0.72528428  0.30248391  1
  O  O5  1  0.73507204  0.26492796  0.25842072  1
  O  O6  1  0.73507204  0.26492796  0.74157928  1
  O  O7  1  0.27471572  0.72528428  0.69751609  1
  O  O8  1  0.47666905  0.98326461  0.00000000  1
  O  O9  1  0.51633143  0.05034501  0.50000000  1
  O  O10  1  0.01673539  0.52333095  0.00000000  1
  O  O11  1  0.94965499  0.48366857  0.50000000  1
loop_
_geom_bond_atom_site_label_1
_geom_bond_atom_site_label_2
_geom_bond_distance
_geom_bond_site_symmetry_2
K0 O8 2.827352 1_645
K0 O10 2.827352 1_645
K0 O10 2.957657 1_655
K0 O8 2.957657 1_545
K0 O6 2.962051 1_554
K0 O5 2.962051 1_555
K0 O0 3.121831 1_655
K0 O3 3.121831 1_654
K0 O2 3.121831 1_544
K0 O1 3.121831 1_545
Nd0 O11 2.493373 1_555
Nd0 O9 2.493373 1_555
Nd0 O7 2.566050 1_555
Nd0 O4 2.566050 1_555
Nd0 O5 2.660033 1_555
Nd0 O6 2.660033 1_555
Nd0 O1 2.663158 1_555
Nd0 O2 2.663158 1_555
Nd0 O0 2.663158 1_555
Nd0 O3 2.663158 1_555
O0 Sn3 2.068503 1_555
O0 Sn0 2.072023 1_545
O1 Sn0 2.068503 1_555
O1 Sn3 2.072023 1_655
O2 Sn1 2.068503 1_555
O2 Sn2 2.072023 1_655
O3 Sn2 2.068503 1_555
O3 Sn1 2.072023 1_545
O4 Sn0 2.057892 1_555
O4 Sn3 2.057892 1_555
O5 Sn3 2.085355 1_655
O5 Sn0 2.085355 1_545
O6 Sn2 2.085355 1_655
O6 Sn1 2.085355 1_545
O7 Sn2 2.057892 1_555
O7 Sn1 2.057892 1_555
O8 Sn1 2.009998 1_554
O8 Sn0 2.009998 1_555
O9 Sn1 2.115905 1_545
O9 Sn0 2.115905 1_545
O10 Sn2 2.009998 1_554
O10 Sn3 2.009998 1_555
O11 Sn2 2.115905 1_655
O11 Sn3 2.115905 1_655
