# generated using pymatgen
data_YMg149
_symmetry_space_group_name_H-M   'P 1'
_cell_length_a   15.97203740
_cell_length_b   15.97204294
_cell_length_c   15.60667032
_cell_angle_alpha   90.00000000
_cell_angle_beta   90.00000000
_cell_angle_gamma   120.00001582
_symmetry_Int_Tables_number   1
_chemical_formula_structural   YMg149
_chemical_formula_sum   'Y1 Mg149'
_cell_volume   3447.95513578
_cell_formula_units_Z   1
loop_
 _symmetry_equiv_pos_site_id
 _symmetry_equiv_pos_as_xyz
  1  'x, y, z'
loop_
 _atom_site_type_symbol
 _atom_site_label
 _atom_site_symmetry_multiplicity
 _atom_site_fract_x
 _atom_site_fract_y
 _atom_site_fract_z
 _atom_site_occupancy
  Y  Y0  1  0.00000000  -0.00000000  0.00000000  1
  Mg  Mg0  1  0.60003455  0.20006910  0.00000000  1
  Mg  Mg1  1  0.79943114  0.20056886  0.00000000  1
  Mg  Mg2  1  0.40113772  0.20056886  0.00000000  1
  Mg  Mg3  1  0.00287453  0.20479992  0.00000000  1
  Mg  Mg4  1  0.20192539  0.20479992  0.00000000  1
  Mg  Mg5  1  0.00013237  0.40013288  0.00000000  1
  Mg  Mg6  1  0.40000151  0.40013288  0.00000000  1
  Mg  Mg7  1  0.79993090  0.39996545  0.00000000  1
  Mg  Mg8  1  0.60003455  0.39996545  0.00000000  1
  Mg  Mg9  1  0.20154333  0.40308667  0.00000000  1
  Mg  Mg10  1  0.79943114  0.59886128  0.00000000  1
  Mg  Mg11  1  0.00013237  0.59999849  0.00000000  1
  Mg  Mg12  1  0.59986712  0.59999849  0.00000000  1
  Mg  Mg13  1  0.20046297  0.60023148  0.00000000  1
  Mg  Mg14  1  0.39976852  0.60023148  0.00000000  1
  Mg  Mg15  1  0.20154333  0.79845667  0.00000000  1
  Mg  Mg16  1  0.59691333  0.79845667  0.00000000  1
  Mg  Mg17  1  0.79520008  0.79807461  0.00000000  1
  Mg  Mg18  1  0.00287453  0.79807461  0.00000000  1
  Mg  Mg19  1  0.39976852  0.79953703  0.00000000  1
  Mg  Mg20  1  0.20192539  0.99712547  0.00000000  1
  Mg  Mg21  1  0.79520008  0.99712647  0.00000000  1
  Mg  Mg22  1  0.59986712  0.99986863  0.00000000  1
  Mg  Mg23  1  0.40000151  0.99986863  0.00000000  1
  Mg  Mg24  1  0.86802966  0.13197034  0.16472015  1
  Mg  Mg25  1  0.26394067  0.13197034  0.16472015  1
  Mg  Mg26  1  0.86802966  0.73605933  0.16472015  1
  Mg  Mg27  1  0.66666700  0.33333300  0.16615396  1
  Mg  Mg28  1  0.66733468  0.13296958  0.16652579  1
  Mg  Mg29  1  0.46563490  0.13297058  0.16652579  1
  Mg  Mg30  1  0.46563490  0.33266432  0.16652579  1
  Mg  Mg31  1  0.86703042  0.33266532  0.16652579  1
  Mg  Mg32  1  0.86703042  0.53436510  0.16652579  1
  Mg  Mg33  1  0.66733468  0.53436510  0.16652579  1
  Mg  Mg34  1  0.46665318  0.53334682  0.16723634  1
  Mg  Mg35  1  0.06669364  0.53334682  0.16723634  1
  Mg  Mg36  1  0.46665318  0.93330636  0.16723634  1
  Mg  Mg37  1  0.26713892  0.53427783  0.16736622  1
  Mg  Mg38  1  0.26713892  0.73286108  0.16736622  1
  Mg  Mg39  1  0.46572217  0.73286108  0.16736622  1
  Mg  Mg40  1  0.06797130  0.33558262  0.16767661  1
  Mg  Mg41  1  0.26761131  0.33558262  0.16767661  1
  Mg  Mg42  1  0.06797130  0.73238869  0.16767661  1
  Mg  Mg43  1  0.66441738  0.73238869  0.16767661  1
  Mg  Mg44  1  0.66441738  0.93202870  0.16767661  1
  Mg  Mg45  1  0.26761131  0.93202870  0.16767661  1
  Mg  Mg46  1  0.06787976  0.13575853  0.16950437  1
  Mg  Mg47  1  0.86424147  0.93212124  0.16950437  1
  Mg  Mg48  1  0.06787976  0.93212124  0.16950437  1
  Mg  Mg49  1  0.39976598  0.19988299  0.33284279  1
  Mg  Mg50  1  0.80011701  0.19988299  0.33284279  1
  Mg  Mg51  1  0.80011701  0.60023402  0.33284279  1
  Mg  Mg52  1  0.60000005  0.19999910  0.33280314  1
  Mg  Mg53  1  0.79999990  0.39999995  0.33280314  1
  Mg  Mg54  1  0.60000005  0.39999995  0.33280314  1
  Mg  Mg55  1  0.20055605  0.00001869  0.33345758  1
  Mg  Mg56  1  0.79946264  0.00001869  0.33345758  1
  Mg  Mg57  1  0.99998131  0.20053736  0.33345758  1
  Mg  Mg58  1  0.20055605  0.20053836  0.33345758  1
  Mg  Mg59  1  0.79946264  0.79944295  0.33345758  1
  Mg  Mg60  1  0.99998131  0.79944395  0.33345758  1
  Mg  Mg61  1  0.40045478  0.00019038  0.33374696  1
  Mg  Mg62  1  0.59973659  0.00019138  0.33374696  1
  Mg  Mg63  1  0.99980862  0.40026341  0.33374696  1
  Mg  Mg64  1  0.40045478  0.40026341  0.33374696  1
  Mg  Mg65  1  0.59973659  0.59954522  0.33374696  1
  Mg  Mg66  1  0.99980862  0.59954622  0.33374696  1
  Mg  Mg67  1  0.40006433  0.59993567  0.33370755  1
  Mg  Mg68  1  0.19987134  0.59993567  0.33370755  1
  Mg  Mg69  1  0.40006433  0.80012866  0.33370755  1
  Mg  Mg70  1  0.20023445  0.40046690  0.33413969  1
  Mg  Mg71  1  0.59953310  0.79976655  0.33413969  1
  Mg  Mg72  1  0.20023445  0.79976655  0.33413969  1
  Mg  Mg73  1  0.00000000  -0.00000000  0.33469154  1
  Mg  Mg74  1  0.86644184  0.13355816  0.50000000  1
  Mg  Mg75  1  0.26711631  0.13355816  0.50000000  1
  Mg  Mg76  1  0.06680339  0.13360677  0.50000000  1
  Mg  Mg77  1  0.46701759  0.13411989  0.50000000  1
  Mg  Mg78  1  0.66710130  0.13411989  0.50000000  1
  Mg  Mg79  1  0.46701759  0.33289870  0.50000000  1
  Mg  Mg80  1  0.86588011  0.33289870  0.50000000  1
  Mg  Mg81  1  0.66666700  0.33333300  0.50000000  1
  Mg  Mg82  1  0.06681282  0.33359383  0.50000000  1
  Mg  Mg83  1  0.26678101  0.33359383  0.50000000  1
  Mg  Mg84  1  0.66710130  0.53298141  0.50000000  1
  Mg  Mg85  1  0.86588011  0.53298241  0.50000000  1
  Mg  Mg86  1  0.46693715  0.53306285  0.50000000  1
  Mg  Mg87  1  0.06612570  0.53306285  0.50000000  1
  Mg  Mg88  1  0.26676949  0.53353798  0.50000000  1
  Mg  Mg89  1  0.86644184  0.73288469  0.50000000  1
  Mg  Mg90  1  0.66640617  0.73321899  0.50000000  1
  Mg  Mg91  1  0.06681282  0.73321899  0.50000000  1
  Mg  Mg92  1  0.46646102  0.73323051  0.50000000  1
  Mg  Mg93  1  0.26676949  0.73323051  0.50000000  1
  Mg  Mg94  1  0.06680339  0.93319661  0.50000000  1
  Mg  Mg95  1  0.86639323  0.93319661  0.50000000  1
  Mg  Mg96  1  0.66640617  0.93318718  0.50000000  1
  Mg  Mg97  1  0.26678101  0.93318718  0.50000000  1
  Mg  Mg98  1  0.46693715  0.93387430  0.50000000  1
  Mg  Mg99  1  0.00000000  -0.00000000  0.66530846  1
  Mg  Mg100  1  0.20023445  0.40046690  0.66586031  1
  Mg  Mg101  1  0.59953310  0.79976655  0.66586031  1
  Mg  Mg102  1  0.20023445  0.79976655  0.66586031  1
  Mg  Mg103  1  0.40006433  0.59993567  0.66629145  1
  Mg  Mg104  1  0.19987134  0.59993567  0.66629145  1
  Mg  Mg105  1  0.40006433  0.80012866  0.66629145  1
  Mg  Mg106  1  0.40045478  0.00019038  0.66625304  1
  Mg  Mg107  1  0.59973659  0.00019138  0.66625304  1
  Mg  Mg108  1  0.99980862  0.40026341  0.66625304  1
  Mg  Mg109  1  0.40045478  0.40026341  0.66625304  1
  Mg  Mg110  1  0.59973659  0.59954522  0.66625304  1
  Mg  Mg111  1  0.99980862  0.59954622  0.66625304  1
  Mg  Mg112  1  0.20055605  0.00001869  0.66654242  1
  Mg  Mg113  1  0.79946264  0.00001869  0.66654242  1
  Mg  Mg114  1  0.99998131  0.20053736  0.66654242  1
  Mg  Mg115  1  0.20055605  0.20053836  0.66654242  1
  Mg  Mg116  1  0.79946264  0.79944295  0.66654242  1
  Mg  Mg117  1  0.99998131  0.79944395  0.66654242  1
  Mg  Mg118  1  0.60000005  0.19999910  0.66719586  1
  Mg  Mg119  1  0.79999990  0.39999995  0.66719586  1
  Mg  Mg120  1  0.60000005  0.39999995  0.66719586  1
  Mg  Mg121  1  0.39976598  0.19988299  0.66715721  1
  Mg  Mg122  1  0.80011701  0.19988299  0.66715721  1
  Mg  Mg123  1  0.80011701  0.60023402  0.66715721  1
  Mg  Mg124  1  0.06787976  0.13575853  0.83049563  1
  Mg  Mg125  1  0.86424147  0.93212124  0.83049563  1
  Mg  Mg126  1  0.06787976  0.93212124  0.83049563  1
  Mg  Mg127  1  0.06797130  0.33558262  0.83232339  1
  Mg  Mg128  1  0.26761131  0.33558262  0.83232339  1
  Mg  Mg129  1  0.06797130  0.73238869  0.83232339  1
  Mg  Mg130  1  0.66441738  0.73238869  0.83232339  1
  Mg  Mg131  1  0.66441738  0.93202870  0.83232339  1
  Mg  Mg132  1  0.26761131  0.93202870  0.83232339  1
  Mg  Mg133  1  0.26713892  0.53427783  0.83263378  1
  Mg  Mg134  1  0.26713892  0.73286108  0.83263378  1
  Mg  Mg135  1  0.46572217  0.73286108  0.83263378  1
  Mg  Mg136  1  0.46665318  0.53334682  0.83276366  1
  Mg  Mg137  1  0.06669364  0.53334682  0.83276366  1
  Mg  Mg138  1  0.46665318  0.93330636  0.83276366  1
  Mg  Mg139  1  0.66733468  0.13296958  0.83347421  1
  Mg  Mg140  1  0.46563490  0.13297058  0.83347421  1
  Mg  Mg141  1  0.46563490  0.33266432  0.83347421  1
  Mg  Mg142  1  0.86703042  0.33266532  0.83347421  1
  Mg  Mg143  1  0.86703042  0.53436510  0.83347421  1
  Mg  Mg144  1  0.66733468  0.53436510  0.83347421  1
  Mg  Mg145  1  0.66666700  0.33333300  0.83384604  1
  Mg  Mg146  1  0.86802966  0.13197034  0.83527885  1
  Mg  Mg147  1  0.26394067  0.13197034  0.83527885  1
  Mg  Mg148  1  0.86802966  0.73605933  0.83527885  1
loop_
_geom_bond_atom_site_label_1
_geom_bond_atom_site_label_2
_geom_bond_distance
_geom_bond_site_symmetry_2
Mg0 Mg1 3.180786 1_555
Mg0 Mg2 3.180786 1_555
Mg0 Mg145 3.181524 1_554
Mg0 Mg27 3.181524 1_555
Mg0 Mg7 3.192752 1_555
Mg0 Mg8 3.192753 1_555
Mg0 Mg29 3.195369 1_555
Mg0 Mg140 3.195369 1_554
Mg0 Mg28 3.195370 1_555
Mg0 Mg139 3.195370 1_554
Mg0 Mg23 3.196273 1_545
Mg0 Mg22 3.196274 1_545
Mg1 Mg28 3.177037 1_555
Mg1 Mg139 3.177037 1_554
Mg1 Mg142 3.177037 1_554
Mg1 Mg31 3.177037 1_555
Mg1 Mg7 3.180787 1_555
Mg1 Mg24 3.195320 1_555
Mg1 Mg146 3.195333 1_554
Mg1 Mg22 3.196556 1_545
Mg1 Mg5 3.196564 1_655
Mg1 Mg21 3.216134 1_545
Mg1 Mg3 3.216149 1_655
Mg2 Mg30 3.177029 1_555
Mg2 Mg29 3.177029 1_555
Mg2 Mg8 3.180786 1_555
Mg2 Mg25 3.195320 1_555
Mg2 Mg23 3.196558 1_545
Mg2 Mg6 3.196558 1_555
Mg2 Mg20 3.216148 1_545
Mg2 Mg4 3.216149 1_555
Mg3 Mg5 3.141994 1_555
Mg3 Mg9 3.170099 1_555
Mg3 Mg4 3.179248 1_555
Mg3 Mg40 3.181285 1_555
Mg3 Mg46 3.230647 1_555
Mg3 Y0 3.248360 1_555
Mg4 Mg6 3.142001 1_555
Mg4 Mg9 3.170100 1_555
Mg4 Mg41 3.181285 1_555
Mg4 Mg46 3.230639 1_555
Mg4 Y0 3.248359 1_555
Mg5 Mg9 3.193616 1_555
Mg5 Mg7 3.196289 1_455
Mg6 Mg9 3.193632 1_555
Mg6 Mg8 3.196273 1_555
Mg7 Mg8 3.192752 1_555
Mg10 Mg143 3.177029 1_554
Mg10 Mg32 3.177029 1_555
Mg10 Mg144 3.177037 1_554
Mg10 Mg33 3.177037 1_555
Mg10 Mg7 3.180771 1_555
Mg10 Mg8 3.180778 1_555
Mg10 Mg26 3.195328 1_555
Mg10 Mg148 3.195341 1_554
Mg10 Mg11 3.196564 1_655
Mg10 Mg12 3.196564 1_555
Mg10 Mg18 3.216156 1_655
Mg10 Mg17 3.216166 1_555
Mg11 Mg18 3.142010 1_555
Mg11 Mg143 3.184993 1_454
Mg11 Mg32 3.184993 1_455
Mg11 Mg5 3.192262 1_555
Mg11 Mg15 3.193623 1_555
Mg11 Mg129 3.194085 1_554
Mg11 Mg42 3.194085 1_555
Mg11 Mg137 3.194900 1_554
Mg11 Mg35 3.194900 1_555
Mg11 Mg7 3.196281 1_455
Mg11 Mg13 3.197829 1_555
Mg12 Mg17 3.142001 1_555
Mg12 Mg33 3.184985 1_555
Mg12 Mg144 3.184985 1_554
Mg12 Mg6 3.192261 1_555
Mg12 Mg16 3.193633 1_555
Mg12 Mg130 3.194086 1_554
Mg12 Mg43 3.194086 1_555
Mg12 Mg136 3.194908 1_554
Mg12 Mg34 3.194908 1_555
Mg12 Mg8 3.196274 1_555
Mg12 Mg14 3.197845 1_555
Mg13 Mg9 3.157469 1_555
Mg13 Mg15 3.157469 1_555
Mg13 Mg19 3.183315 1_555
Mg13 Mg14 3.183316 1_555
Mg13 Mg38 3.191917 1_555
Mg13 Mg134 3.191917 1_554
Mg13 Mg133 3.191917 1_554
Mg13 Mg37 3.191917 1_555
Mg13 Mg5 3.197836 1_555
Mg13 Mg137 3.199345 1_554
Mg13 Mg35 3.199345 1_555
Mg14 Mg9 3.157467 1_555
Mg14 Mg16 3.157467 1_555
Mg14 Mg19 3.183317 1_555
Mg14 Mg37 3.191917 1_555
Mg14 Mg39 3.191917 1_555
Mg14 Mg6 3.197846 1_555
Mg14 Mg34 3.199345 1_555
Mg15 Mg19 3.157468 1_555
Mg15 Mg18 3.170099 1_555
Mg15 Mg20 3.170100 1_555
Mg15 Mg38 3.180518 1_555
Mg15 Mg23 3.193632 1_555
Mg15 Mg42 3.203398 1_555
Mg15 Mg45 3.203399 1_555
Mg16 Mg19 3.157467 1_555
Mg16 Mg17 3.170099 1_555
Mg16 Mg21 3.170107 1_555
Mg16 Mg39 3.180517 1_555
Mg16 Mg22 3.193633 1_555
Mg16 Mg44 3.203399 1_555
Mg16 Mg43 3.203399 1_555
Mg17 Mg26 3.177279 1_555
Mg17 Mg21 3.179265 1_555
Mg17 Mg43 3.181284 1_555
Mg17 Mg47 3.230647 1_555
Mg17 Y0 3.248359 1_665
Mg17 Mg18 3.316984 1_655
Mg18 Mg26 3.177278 1_455
Mg18 Mg20 3.179248 1_555
Mg18 Mg42 3.181285 1_555
Mg18 Mg48 3.230647 1_555
Mg18 Y0 3.248360 1_565
Mg19 Mg38 3.191917 1_555
Mg19 Mg39 3.191917 1_555
Mg19 Mg22 3.197844 1_555
Mg19 Mg23 3.197846 1_555
Mg19 Mg36 3.199345 1_555
Mg20 Mg23 3.142001 1_555
Mg20 Mg25 3.177279 1_565
Mg20 Mg45 3.181285 1_555
Mg20 Mg48 3.230639 1_555
Mg20 Y0 3.248359 1_565
Mg20 Mg4 3.316985 1_565
Mg21 Mg22 3.141993 1_555
Mg21 Mg24 3.177271 1_565
Mg21 Mg44 3.181284 1_555
Mg21 Mg47 3.230647 1_555
Mg21 Y0 3.248367 1_665
Mg21 Mg3 3.316976 1_665
Mg22 Mg28 3.184985 1_565
Mg22 Mg23 3.192261 1_555
Mg22 Mg44 3.194085 1_555
Mg22 Mg36 3.194908 1_555
Mg23 Mg29 3.184993 1_565
Mg23 Mg45 3.194085 1_555
Mg23 Mg36 3.194908 1_555
Mg24 Mg47 3.163061 1_545
Mg24 Mg46 3.163076 1_655
Mg24 Mg3 3.177278 1_655
Mg24 Mg57 3.204364 1_555
Mg24 Mg56 3.204364 1_555
Mg24 Mg28 3.213641 1_555
Mg24 Mg31 3.213642 1_555
Mg24 Mg44 3.223519 1_545
Mg24 Mg40 3.223519 1_655
Mg24 Mg50 3.227112 1_555
Mg25 Mg48 3.163060 1_545
Mg25 Mg46 3.163060 1_555
Mg25 Mg4 3.177279 1_555
Mg25 Mg55 3.204364 1_555
Mg25 Mg58 3.204372 1_555
Mg25 Mg30 3.213633 1_555
Mg25 Mg29 3.213633 1_555
Mg25 Mg41 3.223520 1_555
Mg25 Mg45 3.223520 1_545
Mg25 Mg49 3.227112 1_555
Mg26 Mg48 3.163076 1_655
Mg26 Mg47 3.163077 1_555
Mg26 Mg59 3.204356 1_555
Mg26 Mg60 3.204364 1_555
Mg26 Mg33 3.213641 1_555
Mg26 Mg32 3.213642 1_555
Mg26 Mg43 3.223519 1_555
Mg26 Mg42 3.223519 1_655
Mg26 Mg51 3.227112 1_555
Mg27 Mg7 3.181523 1_555
Mg27 Mg8 3.181532 1_555
Mg27 Mg53 3.188378 1_555
Mg27 Mg52 3.188386 1_555
Mg27 Mg54 3.188386 1_555
Mg27 Mg29 3.205563 1_555
Mg27 Mg31 3.205563 1_555
Mg27 Mg28 3.205564 1_555
Mg27 Mg32 3.205571 1_555
Mg27 Mg30 3.205571 1_555
Mg27 Mg33 3.205580 1_555
Mg28 Mg50 3.179756 1_555
Mg28 Mg44 3.186445 1_545
Mg28 Mg31 3.189548 1_555
Mg28 Mg62 3.191301 1_555
Mg28 Mg52 3.191932 1_555
Mg28 Mg36 3.197210 1_545
Mg28 Mg29 3.221564 1_555
Mg29 Mg49 3.179749 1_555
Mg29 Mg45 3.186452 1_545
Mg29 Mg30 3.189517 1_555
Mg29 Mg61 3.191317 1_555
Mg29 Mg52 3.191939 1_555
Mg29 Mg36 3.197228 1_545
Mg30 Mg49 3.179749 1_555
Mg30 Mg6 3.184994 1_555
Mg30 Mg41 3.186452 1_555
Mg30 Mg64 3.191309 1_555
Mg30 Mg54 3.191939 1_555
Mg30 Mg8 3.195369 1_555
Mg30 Mg34 3.197228 1_555
Mg30 Mg33 3.221564 1_555
Mg31 Mg50 3.179757 1_555
Mg31 Mg5 3.184993 1_655
Mg31 Mg40 3.186444 1_655
Mg31 Mg63 3.191300 1_555
Mg31 Mg53 3.191940 1_555
Mg31 Mg7 3.195370 1_555
Mg31 Mg35 3.197210 1_655
Mg31 Mg32 3.221558 1_555
Mg32 Mg51 3.179757 1_555
Mg32 Mg42 3.186444 1_655
Mg32 Mg33 3.189548 1_555
Mg32 Mg66 3.191300 1_555
Mg32 Mg53 3.191940 1_555
Mg32 Mg7 3.195370 1_555
Mg32 Mg35 3.197211 1_655
Mg33 Mg51 3.179756 1_555
Mg33 Mg43 3.186445 1_555
Mg33 Mg65 3.191301 1_555
Mg33 Mg54 3.191940 1_555
Mg33 Mg8 3.195370 1_555
Mg33 Mg34 3.197211 1_555
Mg34 Mg41 3.168957 1_555
Mg34 Mg43 3.168957 1_555
Mg34 Mg65 3.184623 1_555
Mg34 Mg64 3.184623 1_555
Mg34 Mg67 3.184871 1_555
Mg34 Mg37 3.194111 1_555
Mg34 Mg39 3.194112 1_555
Mg34 Mg6 3.194908 1_555
Mg35 Mg40 3.168958 1_555
Mg35 Mg42 3.168959 1_555
Mg35 Mg63 3.184623 1_455
Mg35 Mg66 3.184631 1_455
Mg35 Mg68 3.184870 1_555
Mg35 Mg38 3.194111 1_555
Mg35 Mg37 3.194111 1_555
Mg35 Mg5 3.194908 1_555
Mg36 Mg44 3.168957 1_555
Mg36 Mg45 3.168957 1_555
Mg36 Mg61 3.184615 1_565
Mg36 Mg62 3.184623 1_565
Mg36 Mg69 3.184871 1_555
Mg36 Mg38 3.194111 1_555
Mg36 Mg39 3.194112 1_555
Mg37 Mg39 3.171779 1_555
Mg37 Mg38 3.171780 1_555
Mg37 Mg40 3.177350 1_555
Mg37 Mg41 3.177351 1_555
Mg37 Mg9 3.180518 1_555
Mg37 Mg67 3.181225 1_555
Mg37 Mg68 3.181225 1_555
Mg37 Mg70 3.193788 1_555
Mg38 Mg39 3.171779 1_555
Mg38 Mg42 3.177351 1_555
Mg38 Mg45 3.177352 1_555
Mg38 Mg69 3.181225 1_555
Mg38 Mg68 3.181225 1_555
Mg38 Mg72 3.193780 1_555
Mg39 Mg44 3.177350 1_555
Mg39 Mg43 3.177350 1_555
Mg39 Mg67 3.181225 1_555
Mg39 Mg69 3.181225 1_555
Mg39 Mg71 3.193788 1_555
Mg40 Mg63 3.177215 1_455
Mg40 Mg70 3.177529 1_555
Mg40 Mg41 3.188658 1_555
Mg40 Mg46 3.190996 1_555
Mg40 Mg57 3.191150 1_455
Mg40 Mg5 3.194077 1_555
Mg40 Mg9 3.203398 1_555
Mg41 Mg64 3.177214 1_555
Mg41 Mg70 3.177513 1_555
Mg41 Mg46 3.190986 1_555
Mg41 Mg58 3.191142 1_555
Mg41 Mg6 3.194085 1_555
Mg41 Mg9 3.203399 1_555
Mg42 Mg66 3.177207 1_455
Mg42 Mg72 3.177529 1_555
Mg42 Mg45 3.188657 1_555
Mg42 Mg48 3.190996 1_555
Mg42 Mg60 3.191150 1_455
Mg43 Mg65 3.177215 1_555
Mg43 Mg71 3.177521 1_555
Mg43 Mg44 3.188659 1_555
Mg43 Mg47 3.190994 1_555
Mg43 Mg59 3.191150 1_555
Mg44 Mg62 3.177215 1_565
Mg44 Mg71 3.177521 1_555
Mg44 Mg47 3.190987 1_555
Mg44 Mg56 3.191150 1_565
Mg45 Mg61 3.177214 1_565
Mg45 Mg72 3.177521 1_555
Mg45 Mg48 3.190987 1_555
Mg45 Mg55 3.191150 1_565
Mg46 Mg58 3.148946 1_555
Mg46 Mg57 3.148955 1_455
Mg46 Mg73 3.189431 1_555
Mg46 Y0 3.244135 1_555
Mg46 Mg48 3.252504 1_545
Mg46 Mg47 3.252510 1_445
Mg47 Mg56 3.148947 1_565
Mg47 Mg59 3.148963 1_555
Mg47 Mg73 3.189431 1_665
Mg47 Y0 3.244134 1_665
Mg47 Mg48 3.252518 1_655
Mg48 Mg55 3.148946 1_565
Mg48 Mg60 3.148955 1_455
Mg48 Mg73 3.189431 1_565
Mg48 Y0 3.244135 1_565
Mg49 Mg55 3.187041 1_555
Mg49 Mg58 3.187050 1_555
Mg49 Mg75 3.189402 1_555
Mg49 Mg77 3.192332 1_555
Mg49 Mg79 3.192340 1_555
Mg49 Mg64 3.195029 1_555
Mg49 Mg61 3.195045 1_555
Mg49 Mg54 3.197211 1_555
Mg49 Mg52 3.197219 1_555
Mg50 Mg57 3.187042 1_555
Mg50 Mg56 3.187043 1_555
Mg50 Mg74 3.189403 1_555
Mg50 Mg78 3.192340 1_555
Mg50 Mg80 3.192340 1_555
Mg50 Mg62 3.195028 1_555
Mg50 Mg63 3.195028 1_555
Mg50 Mg52 3.197203 1_555
Mg50 Mg53 3.197212 1_555
Mg51 Mg59 3.187027 1_555
Mg51 Mg60 3.187041 1_555
Mg51 Mg89 3.189411 1_555
Mg51 Mg85 3.192332 1_555
Mg51 Mg84 3.192340 1_555
Mg51 Mg66 3.195020 1_555
Mg51 Mg65 3.195028 1_555
Mg51 Mg54 3.197211 1_555
Mg51 Mg53 3.197212 1_555
Mg52 Mg62 3.189270 1_555
Mg52 Mg61 3.189284 1_555
Mg52 Mg78 3.192558 1_555
Mg52 Mg77 3.192574 1_555
Mg52 Mg53 3.194413 1_555
Mg52 Mg54 3.194422 1_555
Mg52 Mg81 3.195362 1_555
Mg53 Mg63 3.189284 1_555
Mg53 Mg66 3.189292 1_555
Mg53 Mg80 3.192566 1_555
Mg53 Mg85 3.192574 1_555
Mg53 Mg54 3.194405 1_555
Mg53 Mg81 3.195354 1_555
Mg54 Mg64 3.189285 1_555
Mg54 Mg65 3.189286 1_555
Mg54 Mg84 3.192566 1_555
Mg54 Mg79 3.192573 1_555
Mg54 Mg81 3.195362 1_555
Mg55 Mg97 3.184812 1_545
Mg55 Mg75 3.188675 1_555
Mg55 Mg94 3.190382 1_545
Mg55 Mg61 3.191423 1_555
Mg55 Mg72 3.195888 1_545
Mg55 Mg58 3.202709 1_555
Mg55 Mg73 3.203197 1_555
Mg55 Mg60 3.203587 1_445
Mg56 Mg96 3.184811 1_545
Mg56 Mg74 3.188675 1_555
Mg56 Mg95 3.190383 1_545
Mg56 Mg62 3.191415 1_555
Mg56 Mg71 3.195879 1_545
Mg56 Mg57 3.202691 1_555
Mg56 Mg73 3.203197 1_655
Mg56 Mg59 3.203604 1_545
Mg57 Mg82 3.184812 1_655
Mg57 Mg74 3.188675 1_555
Mg57 Mg76 3.190383 1_655
Mg57 Mg63 3.191416 1_555
Mg57 Mg70 3.195887 1_655
Mg57 Mg73 3.203198 1_655
Mg57 Mg58 3.203579 1_655
Mg58 Mg83 3.184804 1_555
Mg58 Mg75 3.188683 1_555
Mg58 Mg76 3.190382 1_555
Mg58 Mg64 3.191407 1_555
Mg58 Mg70 3.195856 1_555
Mg58 Mg73 3.203205 1_555
Mg59 Mg90 3.184811 1_555
Mg59 Mg89 3.188659 1_555
Mg59 Mg95 3.190391 1_555
Mg59 Mg65 3.191407 1_555
Mg59 Mg71 3.195887 1_555
Mg59 Mg60 3.202684 1_555
Mg59 Mg73 3.203205 1_665
Mg60 Mg91 3.184812 1_655
Mg60 Mg89 3.188675 1_555
Mg60 Mg94 3.190383 1_655
Mg60 Mg66 3.191400 1_555
Mg60 Mg72 3.195895 1_655
Mg60 Mg73 3.203198 1_665
Mg61 Mg98 3.179060 1_545
Mg61 Mg62 3.182929 1_555
Mg61 Mg97 3.186072 1_545
Mg61 Mg77 3.188132 1_555
Mg61 Mg69 3.192281 1_545
Mg61 Mg72 3.199559 1_545
Mg62 Mg98 3.179067 1_545
Mg62 Mg96 3.186072 1_545
Mg62 Mg78 3.188123 1_555
Mg62 Mg69 3.192295 1_545
Mg62 Mg71 3.199576 1_545
Mg63 Mg87 3.179068 1_655
Mg63 Mg66 3.182954 1_555
Mg63 Mg82 3.186072 1_655
Mg63 Mg80 3.188123 1_555
Mg63 Mg68 3.192295 1_655
Mg63 Mg70 3.199591 1_655
Mg64 Mg86 3.179068 1_555
Mg64 Mg65 3.182936 1_555
Mg64 Mg83 3.186072 1_555
Mg64 Mg79 3.188116 1_555
Mg64 Mg67 3.192297 1_555
Mg64 Mg70 3.199559 1_555
Mg65 Mg86 3.179067 1_555
Mg65 Mg90 3.186072 1_555
Mg65 Mg84 3.188124 1_555
Mg65 Mg67 3.192296 1_555
Mg65 Mg71 3.199576 1_555
Mg66 Mg87 3.179076 1_655
Mg66 Mg91 3.186064 1_655
Mg66 Mg85 3.188123 1_555
Mg66 Mg68 3.192304 1_655
Mg66 Mg72 3.199575 1_655
Mg67 Mg88 3.183535 1_555
Mg67 Mg92 3.183536 1_555
Mg67 Mg86 3.187149 1_555
Mg67 Mg70 3.188817 1_555
Mg67 Mg71 3.188825 1_555
Mg67 Mg68 3.197490 1_555
Mg67 Mg69 3.197491 1_555
Mg68 Mg93 3.183536 1_555
Mg68 Mg88 3.183544 1_555
Mg68 Mg87 3.187148 1_555
Mg68 Mg72 3.188819 1_555
Mg68 Mg70 3.188835 1_555
Mg68 Mg69 3.197490 1_555
Mg69 Mg93 3.183535 1_555
Mg69 Mg92 3.183536 1_555
Mg69 Mg98 3.187149 1_555
Mg69 Mg72 3.188810 1_555
Mg69 Mg71 3.188826 1_555
Mg70 Mg88 3.176243 1_555
Mg70 Mg83 3.179041 1_555
Mg70 Mg82 3.179056 1_555
Mg71 Mg92 3.176251 1_555
Mg71 Mg96 3.179049 1_555
Mg71 Mg90 3.179049 1_555
Mg72 Mg93 3.176243 1_555
Mg72 Mg97 3.179049 1_555
Mg72 Mg91 3.179056 1_555
Mg73 Mg95 3.173537 1_445
Mg73 Mg76 3.173537 1_555
Mg73 Mg94 3.173537 1_545
Mg74 Mg78 3.188370 1_555
Mg74 Mg80 3.188371 1_555
Mg74 Mg82 3.197658 1_655
Mg74 Mg96 3.197658 1_545
Mg74 Mg76 3.199794 1_655
Mg74 Mg95 3.199795 1_545
Mg75 Mg77 3.188354 1_555
Mg75 Mg79 3.188362 1_555
Mg75 Mg83 3.197659 1_555
Mg75 Mg97 3.197660 1_545
Mg75 Mg94 3.199794 1_545
Mg75 Mg76 3.199794 1_555
Mg76 Mg99 3.173537 1_555
Mg76 Mg83 3.194125 1_555
Mg76 Mg82 3.194127 1_555
Mg76 Mg95 3.200958 1_445
Mg76 Mg94 3.200960 1_545
Mg77 Mg79 3.174904 1_555
Mg77 Mg81 3.185329 1_555
Mg77 Mg78 3.195744 1_555
Mg77 Mg98 3.197689 1_545
Mg77 Mg97 3.203760 1_545
Mg78 Mg80 3.174902 1_555
Mg78 Mg81 3.185314 1_555
Mg78 Mg98 3.197680 1_545
Mg78 Mg96 3.203769 1_545
Mg79 Mg81 3.185345 1_555
Mg79 Mg84 3.195736 1_555
Mg79 Mg86 3.197673 1_555
Mg79 Mg83 3.203752 1_555
Mg80 Mg81 3.185313 1_555
Mg80 Mg85 3.195746 1_555
Mg80 Mg87 3.197680 1_655
Mg80 Mg82 3.203768 1_655
Mg81 Mg85 3.185329 1_555
Mg81 Mg84 3.185330 1_555
Mg82 Mg87 3.191429 1_555
Mg82 Mg88 3.193615 1_555
Mg82 Mg83 3.193899 1_555
Mg83 Mg86 3.191428 1_555
Mg83 Mg88 3.193609 1_555
Mg84 Mg85 3.174895 1_555
Mg84 Mg89 3.188378 1_555
Mg84 Mg86 3.197680 1_555
Mg84 Mg90 3.203769 1_555
Mg85 Mg89 3.188371 1_555
Mg85 Mg87 3.197688 1_655
Mg85 Mg91 3.203760 1_655
Mg86 Mg90 3.191428 1_555
Mg86 Mg88 3.200886 1_555
Mg86 Mg92 3.200896 1_555
Mg87 Mg91 3.191429 1_555
Mg87 Mg93 3.200894 1_555
Mg87 Mg88 3.200902 1_555
Mg88 Mg92 3.189488 1_555
Mg88 Mg93 3.189498 1_555
Mg89 Mg90 3.197650 1_555
Mg89 Mg91 3.197666 1_655
Mg89 Mg95 3.199779 1_555
Mg89 Mg94 3.199786 1_655
Mg90 Mg92 3.193623 1_555
Mg90 Mg96 3.193901 1_555
Mg90 Mg95 3.194125 1_555
Mg91 Mg93 3.193623 1_555
Mg91 Mg97 3.193899 1_555
Mg91 Mg94 3.194126 1_555
Mg92 Mg93 3.189481 1_555
Mg92 Mg96 3.193623 1_555
Mg92 Mg98 3.200896 1_555
Mg93 Mg97 3.193625 1_555
Mg93 Mg98 3.200894 1_555
Mg94 Mg99 3.173537 1_565
Mg94 Mg97 3.194125 1_555
Mg94 Mg95 3.200959 1_455
Mg95 Mg99 3.173537 1_665
Mg95 Mg96 3.194125 1_555
Mg96 Mg98 3.191428 1_555
Mg97 Mg98 3.191428 1_555
Mg100 Mg88 3.176243 1_555
Mg100 Mg128 3.177513 1_555
Mg100 Mg127 3.177529 1_555
Mg100 Mg83 3.179041 1_555
Mg100 Mg82 3.179056 1_555
Mg100 Mg103 3.188817 1_555
Mg100 Mg104 3.188835 1_555
Mg100 Mg133 3.193788 1_555
Mg100 Mg115 3.195856 1_555
Mg100 Mg114 3.195887 1_455
Mg100 Mg109 3.199559 1_555
Mg100 Mg108 3.199591 1_455
Mg101 Mg92 3.176251 1_555
Mg101 Mg130 3.177521 1_555
Mg101 Mg131 3.177521 1_555
Mg101 Mg96 3.179049 1_555
Mg101 Mg90 3.179049 1_555
Mg101 Mg103 3.188825 1_555
Mg101 Mg105 3.188826 1_555
Mg101 Mg135 3.193788 1_555
Mg101 Mg113 3.195879 1_565
Mg101 Mg116 3.195887 1_555
Mg101 Mg110 3.199576 1_555
Mg101 Mg107 3.199576 1_565
Mg102 Mg93 3.176243 1_555
Mg102 Mg132 3.177521 1_555
Mg102 Mg129 3.177529 1_555
Mg102 Mg97 3.179049 1_555
Mg102 Mg91 3.179056 1_555
Mg102 Mg105 3.188810 1_555
Mg102 Mg104 3.188819 1_555
Mg102 Mg134 3.193780 1_555
Mg102 Mg112 3.195888 1_565
Mg102 Mg117 3.195895 1_455
Mg102 Mg106 3.199559 1_565
Mg102 Mg111 3.199575 1_455
Mg103 Mg133 3.181237 1_555
Mg103 Mg135 3.181238 1_555
Mg103 Mg88 3.183523 1_555
Mg103 Mg92 3.183523 1_555
Mg103 Mg136 3.184883 1_555
Mg103 Mg86 3.187136 1_555
Mg103 Mg110 3.192296 1_555
Mg103 Mg109 3.192297 1_555
Mg103 Mg104 3.197490 1_555
Mg103 Mg105 3.197491 1_555
Mg104 Mg134 3.181238 1_555
Mg104 Mg133 3.181238 1_555
Mg104 Mg93 3.183523 1_555
Mg104 Mg88 3.183531 1_555
Mg104 Mg137 3.184883 1_555
Mg104 Mg87 3.187136 1_555
Mg104 Mg108 3.192295 1_455
Mg104 Mg111 3.192304 1_455
Mg104 Mg105 3.197490 1_555
Mg105 Mg134 3.181237 1_555
Mg105 Mg135 3.181238 1_555
Mg105 Mg93 3.183523 1_555
Mg105 Mg92 3.183523 1_555
Mg105 Mg138 3.184883 1_555
Mg105 Mg98 3.187136 1_555
Mg105 Mg106 3.192281 1_565
Mg105 Mg107 3.192295 1_565
Mg106 Mg132 3.177214 1_545
Mg106 Mg98 3.179060 1_545
Mg106 Mg107 3.182929 1_555
Mg106 Mg138 3.184615 1_545
Mg106 Mg97 3.186072 1_545
Mg106 Mg77 3.188132 1_555
Mg106 Mg118 3.189284 1_555
Mg106 Mg140 3.191317 1_555
Mg106 Mg112 3.191423 1_555
Mg106 Mg121 3.195045 1_555
Mg107 Mg131 3.177215 1_545
Mg107 Mg98 3.179067 1_545
Mg107 Mg138 3.184623 1_545
Mg107 Mg96 3.186072 1_545
Mg107 Mg78 3.188123 1_555
Mg107 Mg118 3.189270 1_555
Mg107 Mg139 3.191301 1_555
Mg107 Mg113 3.191415 1_555
Mg107 Mg122 3.195028 1_555
Mg108 Mg127 3.177215 1_655
Mg108 Mg87 3.179068 1_655
Mg108 Mg111 3.182954 1_555
Mg108 Mg137 3.184623 1_655
Mg108 Mg82 3.186072 1_655
Mg108 Mg80 3.188123 1_555
Mg108 Mg119 3.189284 1_555
Mg108 Mg142 3.191300 1_555
Mg108 Mg114 3.191416 1_555
Mg108 Mg122 3.195028 1_555
Mg109 Mg128 3.177214 1_555
Mg109 Mg86 3.179068 1_555
Mg109 Mg110 3.182936 1_555
Mg109 Mg136 3.184623 1_555
Mg109 Mg83 3.186072 1_555
Mg109 Mg79 3.188116 1_555
Mg109 Mg120 3.189285 1_555
Mg109 Mg141 3.191309 1_555
Mg109 Mg115 3.191407 1_555
Mg109 Mg121 3.195029 1_555
Mg110 Mg130 3.177215 1_555
Mg110 Mg86 3.179067 1_555
Mg110 Mg136 3.184623 1_555
Mg110 Mg90 3.186072 1_555
Mg110 Mg84 3.188124 1_555
Mg110 Mg120 3.189286 1_555
Mg110 Mg144 3.191301 1_555
Mg110 Mg116 3.191407 1_555
Mg110 Mg123 3.195028 1_555
Mg111 Mg129 3.177207 1_655
Mg111 Mg87 3.179076 1_655
Mg111 Mg137 3.184631 1_655
Mg111 Mg91 3.186064 1_655
Mg111 Mg85 3.188123 1_555
Mg111 Mg119 3.189292 1_555
Mg111 Mg143 3.191300 1_555
Mg111 Mg117 3.191400 1_555
Mg111 Mg123 3.195020 1_555
Mg112 Mg126 3.148946 1_545
Mg112 Mg97 3.184812 1_545
Mg112 Mg121 3.187041 1_555
Mg112 Mg75 3.188675 1_555
Mg112 Mg94 3.190382 1_545
Mg112 Mg132 3.191150 1_545
Mg112 Mg115 3.202709 1_555
Mg112 Mg99 3.203197 1_555
Mg112 Mg117 3.203587 1_445
Mg112 Mg147 3.204351 1_555
Mg113 Mg125 3.148947 1_545
Mg113 Mg96 3.184811 1_545
Mg113 Mg122 3.187043 1_555
Mg113 Mg74 3.188675 1_555
Mg113 Mg95 3.190383 1_545
Mg113 Mg131 3.191150 1_545
Mg113 Mg114 3.202691 1_555
Mg113 Mg99 3.203197 1_655
Mg113 Mg116 3.203604 1_545
Mg113 Mg146 3.204351 1_555
Mg114 Mg124 3.148955 1_655
Mg114 Mg82 3.184812 1_655
Mg114 Mg122 3.187042 1_555
Mg114 Mg74 3.188675 1_555
Mg114 Mg76 3.190383 1_655
Mg114 Mg127 3.191150 1_655
Mg114 Mg99 3.203198 1_655
Mg114 Mg115 3.203579 1_655
Mg114 Mg146 3.204351 1_555
Mg115 Mg124 3.148946 1_555
Mg115 Mg83 3.184804 1_555
Mg115 Mg121 3.187050 1_555
Mg115 Mg75 3.188683 1_555
Mg115 Mg76 3.190382 1_555
Mg115 Mg128 3.191142 1_555
Mg115 Mg99 3.203205 1_555
Mg115 Mg147 3.204359 1_555
Mg116 Mg125 3.148963 1_555
Mg116 Mg90 3.184811 1_555
Mg116 Mg123 3.187027 1_555
Mg116 Mg89 3.188659 1_555
Mg116 Mg95 3.190391 1_555
Mg116 Mg130 3.191150 1_555
Mg116 Mg117 3.202684 1_555
Mg116 Mg99 3.203205 1_665
Mg116 Mg148 3.204343 1_555
Mg117 Mg126 3.148955 1_655
Mg117 Mg91 3.184812 1_655
Mg117 Mg123 3.187041 1_555
Mg117 Mg89 3.188675 1_555
Mg117 Mg94 3.190383 1_655
Mg117 Mg129 3.191150 1_655
Mg117 Mg99 3.203198 1_665
Mg117 Mg148 3.204351 1_555
Mg118 Mg145 3.188399 1_555
Mg118 Mg139 3.191944 1_555
Mg118 Mg140 3.191952 1_555
Mg118 Mg78 3.192545 1_555
Mg118 Mg77 3.192561 1_555
Mg118 Mg119 3.194413 1_555
Mg118 Mg120 3.194422 1_555
Mg118 Mg81 3.195350 1_555
Mg118 Mg122 3.197203 1_555
Mg118 Mg121 3.197219 1_555
Mg119 Mg145 3.188390 1_555
Mg119 Mg143 3.191952 1_555
Mg119 Mg142 3.191952 1_555
Mg119 Mg80 3.192553 1_555
Mg119 Mg85 3.192561 1_555
Mg119 Mg120 3.194405 1_555
Mg119 Mg81 3.195341 1_555
Mg119 Mg123 3.197212 1_555
Mg119 Mg122 3.197212 1_555
Mg120 Mg145 3.188399 1_555
Mg120 Mg141 3.191952 1_555
Mg120 Mg144 3.191952 1_555
Mg120 Mg84 3.192553 1_555
Mg120 Mg79 3.192561 1_555
Mg120 Mg81 3.195350 1_555
Mg120 Mg121 3.197211 1_555
Mg120 Mg123 3.197211 1_555
Mg121 Mg141 3.179749 1_555
Mg121 Mg140 3.179749 1_555
Mg121 Mg75 3.189402 1_555
Mg121 Mg77 3.192332 1_555
Mg121 Mg79 3.192340 1_555
Mg121 Mg147 3.227099 1_555
Mg122 Mg139 3.179756 1_555
Mg122 Mg142 3.179757 1_555
Mg122 Mg74 3.189403 1_555
Mg122 Mg78 3.192340 1_555
Mg122 Mg80 3.192340 1_555
Mg122 Mg146 3.227100 1_555
Mg123 Mg144 3.179756 1_555
Mg123 Mg143 3.179757 1_555
Mg123 Mg89 3.189411 1_555
Mg123 Mg85 3.192332 1_555
Mg123 Mg84 3.192340 1_555
Mg123 Mg148 3.227100 1_555
Mg124 Mg147 3.163060 1_555
Mg124 Mg146 3.163076 1_455
Mg124 Mg99 3.189431 1_555
Mg124 Mg128 3.190986 1_555
Mg124 Mg127 3.190996 1_555
Mg124 Mg4 3.230639 1_556
Mg124 Mg3 3.230647 1_556
Mg124 Y0 3.244135 1_556
Mg124 Mg126 3.252504 1_545
Mg124 Mg125 3.252510 1_445
Mg125 Mg146 3.163061 1_565
Mg125 Mg148 3.163077 1_555
Mg125 Mg99 3.189431 1_665
Mg125 Mg131 3.190987 1_555
Mg125 Mg130 3.190994 1_555
Mg125 Mg21 3.230647 1_556
Mg125 Mg17 3.230647 1_556
Mg125 Y0 3.244134 1_666
Mg125 Mg126 3.252518 1_655
Mg126 Mg147 3.163060 1_565
Mg126 Mg148 3.163076 1_455
Mg126 Mg99 3.189431 1_565
Mg126 Mg132 3.190987 1_555
Mg126 Mg129 3.190996 1_555
Mg126 Mg20 3.230639 1_556
Mg126 Mg18 3.230647 1_556
Mg126 Y0 3.244135 1_566
Mg127 Mg137 3.168958 1_555
Mg127 Mg133 3.177350 1_555
Mg127 Mg3 3.181285 1_556
Mg127 Mg142 3.186444 1_455
Mg127 Mg128 3.188658 1_555
Mg127 Mg5 3.194077 1_556
Mg127 Mg9 3.203398 1_556
Mg127 Mg146 3.223519 1_455
Mg128 Mg136 3.168957 1_555
Mg128 Mg133 3.177351 1_555
Mg128 Mg4 3.181285 1_556
Mg128 Mg141 3.186452 1_555
Mg128 Mg6 3.194085 1_556
Mg128 Mg9 3.203399 1_556
Mg128 Mg147 3.223520 1_555
Mg129 Mg137 3.168959 1_555
Mg129 Mg134 3.177351 1_555
Mg129 Mg18 3.181285 1_556
Mg129 Mg143 3.186444 1_455
Mg129 Mg132 3.188657 1_555
Mg129 Mg15 3.203398 1_556
Mg129 Mg148 3.223519 1_455
Mg130 Mg136 3.168957 1_555
Mg130 Mg135 3.177350 1_555
Mg130 Mg17 3.181284 1_556
Mg130 Mg144 3.186445 1_555
Mg130 Mg131 3.188659 1_555
Mg130 Mg16 3.203399 1_556
Mg130 Mg148 3.223519 1_555
Mg131 Mg138 3.168957 1_555
Mg131 Mg135 3.177350 1_555
Mg131 Mg21 3.181284 1_556
Mg131 Mg139 3.186445 1_565
Mg131 Mg22 3.194085 1_556
Mg131 Mg16 3.203399 1_556
Mg131 Mg146 3.223519 1_565
Mg132 Mg138 3.168957 1_555
Mg132 Mg134 3.177352 1_555
Mg132 Mg20 3.181285 1_556
Mg132 Mg140 3.186452 1_565
Mg132 Mg23 3.194085 1_556
Mg132 Mg15 3.203399 1_556
Mg132 Mg147 3.223520 1_565
Mg133 Mg135 3.171779 1_555
Mg133 Mg134 3.171780 1_555
Mg133 Mg9 3.180518 1_556
Mg133 Mg14 3.191917 1_556
Mg133 Mg136 3.194111 1_555
Mg133 Mg137 3.194111 1_555
Mg134 Mg135 3.171779 1_555
Mg134 Mg15 3.180518 1_556
Mg134 Mg19 3.191917 1_556
Mg134 Mg137 3.194111 1_555
Mg134 Mg138 3.194111 1_555
Mg135 Mg16 3.180517 1_556
Mg135 Mg14 3.191917 1_556
Mg135 Mg19 3.191917 1_556
Mg135 Mg136 3.194112 1_555
Mg135 Mg138 3.194112 1_555
Mg136 Mg6 3.194908 1_556
Mg136 Mg144 3.197211 1_555
Mg136 Mg141 3.197228 1_555
Mg136 Mg14 3.199345 1_556
Mg137 Mg5 3.194908 1_556
Mg137 Mg142 3.197210 1_455
Mg137 Mg143 3.197211 1_455
Mg138 Mg22 3.194908 1_556
Mg138 Mg23 3.194908 1_556
Mg138 Mg139 3.197210 1_565
Mg138 Mg140 3.197228 1_565
Mg138 Mg19 3.199345 1_556
Mg139 Mg22 3.184985 1_546
Mg139 Mg142 3.189548 1_555
Mg139 Mg145 3.205564 1_555
Mg139 Mg146 3.213641 1_555
Mg139 Mg140 3.221564 1_555
Mg140 Mg2 3.177029 1_556
Mg140 Mg23 3.184993 1_546
Mg140 Mg141 3.189517 1_555
Mg140 Mg145 3.205563 1_555
Mg140 Mg147 3.213633 1_555
Mg141 Mg2 3.177029 1_556
Mg141 Mg6 3.184994 1_556
Mg141 Mg8 3.195369 1_556
Mg141 Mg145 3.205571 1_555
Mg141 Mg147 3.213633 1_555
Mg141 Mg144 3.221564 1_555
Mg142 Mg5 3.184993 1_656
Mg142 Mg7 3.195370 1_556
Mg142 Mg145 3.205563 1_555
Mg142 Mg146 3.213642 1_555
Mg142 Mg143 3.221558 1_555
Mg143 Mg144 3.189548 1_555
Mg143 Mg7 3.195370 1_556
Mg143 Mg145 3.205571 1_555
Mg143 Mg148 3.213642 1_555
Mg144 Mg8 3.195370 1_556
Mg144 Mg145 3.205580 1_555
Mg144 Mg148 3.213641 1_555
Mg145 Mg7 3.181523 1_556
Mg145 Mg8 3.181532 1_556
Mg146 Mg21 3.177283 1_546
Mg146 Mg3 3.177291 1_656
Mg147 Mg4 3.177291 1_556
Mg147 Mg20 3.177291 1_546
Mg147 Mg2 3.195332 1_556
Mg148 Mg18 3.177291 1_656
Mg148 Mg17 3.177291 1_556
