# generated using pymatgen
data_Cr3GaS6
_symmetry_space_group_name_H-M   'P 1'
_cell_length_a   7.04158816
_cell_length_b   7.04158907
_cell_length_c   17.27135230
_cell_angle_alpha   89.99994762
_cell_angle_beta   90.00005302
_cell_angle_gamma   119.99990231
_symmetry_Int_Tables_number   1
_chemical_formula_structural   Cr3GaS6
_chemical_formula_sum   'Cr12 Ga4 S24'
_cell_volume   741.64948582
_cell_formula_units_Z   4
loop_
 _symmetry_equiv_pos_site_id
 _symmetry_equiv_pos_as_xyz
  1  'x, y, z'
loop_
 _atom_site_type_symbol
 _atom_site_label
 _atom_site_symmetry_multiplicity
 _atom_site_fract_x
 _atom_site_fract_y
 _atom_site_fract_z
 _atom_site_occupancy
  Cr  Cr0  1  0.16931246  0.83068805  0.21031107  1
  Cr  Cr1  1  0.84272501  0.15727361  0.54033233  1
  Cr  Cr2  1  0.50452570  0.49547375  0.87007614  1
  Cr  Cr3  1  0.16931223  0.33862417  0.21031107  1
  Cr  Cr4  1  0.84272808  0.68545396  0.54033167  1
  Cr  Cr5  1  0.50452606  0.00905118  0.87007611  1
  Cr  Cr6  1  0.33333356  0.66666661  0.03986772  1
  Cr  Cr7  1  -0.00000005  0.00000010  0.38425932  1
  Cr  Cr8  1  0.66666682  0.33333324  0.71341634  1
  Cr  Cr9  1  0.66137578  0.83068761  0.21031104  1
  Cr  Cr10  1  0.31454498  0.15727259  0.54033120  1
  Cr  Cr11  1  0.99094863  0.49547447  0.87007632  1
  Ga  Ga0  1  0.00000069  -0.00000068  0.99942470  1
  Ga  Ga1  1  0.66666781  0.33333229  0.33772840  1
  Ga  Ga2  1  0.33333463  0.66666606  0.66247426  1
  Ga  Ga3  1  0.66666581  0.33333427  0.08190824  1
  S  S0  1  0.17800863  0.82199126  0.95536356  1
  S  S1  1  0.84462243  0.15537720  0.28913477  1
  S  S2  1  0.51172625  0.48827306  0.62218931  1
  S  S3  1  0.17800871  0.35601729  0.95536340  1
  S  S4  1  0.84462244  0.68924457  0.28913479  1
  S  S5  1  0.51172609  0.02345283  0.62218920  1
  S  S6  1  0.33333358  0.66666626  0.79891538  1
  S  S7  1  -0.00000002  0.00000001  0.13397548  1
  S  S8  1  0.66666668  0.33333291  0.46790635  1
  S  S9  1  0.64398262  0.82199142  0.95536339  1
  S  S10  1  0.31075558  0.15537814  0.28913481  1
  S  S11  1  0.97654742  0.48827455  0.62218926  1
  S  S12  1  0.82209070  0.17790975  0.79531080  1
  S  S13  1  0.48822622  0.51177416  0.12738097  1
  S  S14  1  0.15566689  0.84433382  0.46102654  1
  S  S15  1  0.82209029  0.64418086  0.79531048  1
  S  S16  1  0.48822635  0.97645221  0.12738085  1
  S  S17  1  0.15566518  0.31133249  0.46102648  1
  S  S18  1  0.66666690  0.33333306  0.95012449  1
  S  S19  1  0.33333348  0.66666662  0.28231671  1
  S  S20  1  -0.00000023  -0.00000033  0.61763618  1
  S  S21  1  0.35581905  0.17790914  0.79531039  1
  S  S22  1  0.02354787  0.51177346  0.12738082  1
  S  S23  1  0.68866769  0.84433397  0.46102664  1
loop_
_geom_bond_atom_site_label_1
_geom_bond_atom_site_label_2
_geom_bond_distance
_geom_bond_site_symmetry_2
Cr0 S19 2.355522 1_555
Cr0 S4 2.407395 1_455
Cr0 S10 2.407396 1_565
Cr0 S16 2.417247 1_555
Cr0 S22 2.417251 1_555
Cr0 S7 2.449987 1_565
Cr1 S20 2.337094 1_655
Cr1 S23 2.349103 1_545
Cr1 S17 2.349107 1_655
Cr1 S5 2.474442 1_555
Cr1 S11 2.474453 1_555
Cr1 S8 2.485065 1_555
Cr2 S15 2.328694 1_555
Cr2 S21 2.328695 1_555
Cr2 S18 2.412894 1_555
Cr2 S6 2.422804 1_555
Cr2 S3 2.482467 1_555
Cr2 S9 2.482470 1_555
Cr3 S19 2.355527 1_555
Cr3 S10 2.407388 1_555
Cr3 S1 2.407394 1_455
Cr3 S22 2.417242 1_555
Cr3 S13 2.417246 1_555
Cr3 S7 2.449990 1_555
Cr4 S20 2.337089 1_665
Cr4 S14 2.349093 1_655
Cr4 S23 2.349096 1_555
Cr4 S11 2.474446 1_555
Cr4 S2 2.474466 1_555
Cr4 S8 2.485082 1_555
Cr5 S12 2.328691 1_555
Cr5 S21 2.328692 1_555
Cr5 S18 2.412898 1_555
Cr5 S6 2.422810 1_545
Cr5 S9 2.482460 1_545
Cr5 S0 2.482471 1_545
Cr6 S0 2.391420 1_554
Cr6 S9 2.391424 1_554
Cr6 S3 2.391425 1_554
Cr6 S13 2.419370 1_555
Cr6 S22 2.419375 1_555
Cr6 S16 2.419375 1_555
Cr7 S17 2.315707 1_555
Cr7 S14 2.315708 1_545
Cr7 S23 2.315708 1_445
Cr7 S1 2.508065 1_455
Cr7 S4 2.508074 1_445
Cr7 S10 2.508074 1_555
Cr8 S12 2.365148 1_555
Cr8 S21 2.365150 1_555
Cr8 S15 2.365150 1_555
Cr8 S2 2.460398 1_555
Cr8 S5 2.460403 1_555
Cr8 S11 2.460403 1_555
Cr9 S19 2.355526 1_555
Cr9 S4 2.407390 1_555
Cr9 S1 2.407394 1_565
Cr9 S16 2.417243 1_555
Cr9 S13 2.417243 1_555
Cr9 S7 2.449989 1_665
Cr10 S20 2.337091 1_555
Cr10 S14 2.349088 1_545
Cr10 S17 2.349090 1_555
Cr10 S5 2.474461 1_555
Cr10 S2 2.474464 1_555
Cr10 S8 2.485081 1_555
Cr11 S15 2.328692 1_555
Cr11 S12 2.328693 1_555
Cr11 S18 2.412895 1_555
Cr11 S6 2.422812 1_655
Cr11 S3 2.482462 1_655
Cr11 S0 2.482466 1_655
Ga0 S0 2.300563 1_545
Ga0 S3 2.300578 1_555
Ga0 S9 2.300578 1_445
Ga0 S7 2.323874 1_556
Ga1 S8 2.248349 1_555
Ga1 S1 2.327026 1_555
Ga1 S10 2.327042 1_555
Ga1 S4 2.327043 1_555
Ga2 S2 2.284284 1_555
Ga2 S5 2.284300 1_565
Ga2 S11 2.284302 1_455
Ga2 S6 2.356523 1_555
Ga3 S18 2.276084 1_554
Ga3 S13 2.313695 1_555
Ga3 S22 2.313711 1_655
Ga3 S16 2.313711 1_545
