# generated using pymatgen
data_Cs2Co(SO7)2
_symmetry_space_group_name_H-M   'P 1'
_cell_length_a   13.10050700
_cell_length_b   6.60730300
_cell_length_c   9.36914528
_cell_angle_alpha   74.76976058
_cell_angle_beta   90.00000000
_cell_angle_gamma   90.00000000
_symmetry_Int_Tables_number   1
_chemical_formula_structural   Cs2Co(SO7)2
_chemical_formula_sum   'Cs4 Co2 S4 O28'
_cell_volume   782.50063143
_cell_formula_units_Z   2
loop_
 _symmetry_equiv_pos_site_id
 _symmetry_equiv_pos_as_xyz
  1  'x, y, z'
loop_
 _atom_site_type_symbol
 _atom_site_label
 _atom_site_symmetry_multiplicity
 _atom_site_fract_x
 _atom_site_fract_y
 _atom_site_fract_z
 _atom_site_occupancy
  Cs  Cs0  1  0.65498700  0.84522600  0.85984500  1
  Cs  Cs1  1  0.34501300  0.15477400  0.14015500  1
  Cs  Cs2  1  0.15498700  0.15477400  0.64015500  1
  Cs  Cs3  1  0.84501300  0.84522600  0.35984500  1
  Co  Co0  1  0.50000000  0.50000000  0.50000000  1
  Co  Co1  1  0.00000000  0.50000000  0.00000000  1
  S  S0  1  0.35649800  0.75783300  0.90508100  1
  S  S1  1  0.64350200  0.24216700  0.09491900  1
  S  S2  1  0.85649800  0.24216700  0.59491900  1
  S  S3  1  0.14350200  0.75783300  0.40508100  1
  O  O0  1  0.32068700  0.56286700  0.86669500  1
  O  O1  1  0.67931300  0.43713300  0.13330500  1
  O  O2  1  0.82068700  0.43713300  0.63330500  1
  O  O3  1  0.17931300  0.56286700  0.36669500  1
  O  O4  1  0.08008900  0.71056100  0.53892100  1
  O  O5  1  0.91991100  0.28943900  0.46107900  1
  O  O6  1  0.58008900  0.28943900  0.96107900  1
  O  O7  1  0.41991100  0.71056100  0.03892100  1
  O  O8  1  0.41222000  0.34130200  0.62507000  1
  O  O9  1  0.58778000  0.65869800  0.37493000  1
  O  O10  1  0.91222000  0.65869800  0.87493000  1
  O  O11  1  0.08778000  0.34130200  0.12507000  1
  O  O12  1  0.41981100  0.85653000  0.76982600  1
  O  O13  1  0.58018900  0.14347000  0.23017400  1
  O  O14  1  0.91981100  0.14347000  0.73017400  1
  O  O15  1  0.08018900  0.85653000  0.26982600  1
  O  O16  1  0.09056200  0.43296700  0.87889700  1
  O  O17  1  0.90943800  0.56703300  0.12110300  1
  O  O18  1  0.59056200  0.56703300  0.62110300  1
  O  O19  1  0.40943800  0.43296700  0.37889700  1
  O  O20  1  0.46185400  0.75803600  0.50138900  1
  O  O21  1  0.53814600  0.24196400  0.49861100  1
  O  O22  1  0.96185400  0.24196400  0.99861100  1
  O  O23  1  0.03814600  0.75803600  0.00138900  1
  O  O24  1  0.26983700  0.89635700  0.91443200  1
  O  O25  1  0.73016300  0.10364300  0.08556800  1
  O  O26  1  0.76983700  0.10364300  0.58556800  1
  O  O27  1  0.23016300  0.89635700  0.41443200  1
loop_
_geom_bond_atom_site_label_1
_geom_bond_atom_site_label_2
_geom_bond_distance
_geom_bond_site_symmetry_2
Cs0 O26 3.078546 1_565
Cs0 O12 3.189970 1_555
Cs0 O25 3.202337 1_566
Cs0 O1 3.210411 1_556
Cs0 O18 3.354764 1_555
Cs0 O6 3.455357 1_565
Cs0 O7 3.508042 1_556
Cs0 O10 3.578197 1_555
Cs0 O6 3.676660 1_555
Cs1 O27 3.078546 1_545
Cs1 O13 3.189970 1_555
Cs1 O24 3.202337 1_544
Cs1 O0 3.210411 1_554
Cs1 O19 3.354764 1_555
Cs1 O7 3.455357 1_545
Cs1 O6 3.508042 1_554
Cs1 O11 3.578197 1_555
Cs1 O7 3.676660 1_555
Cs2 O24 3.078546 1_545
Cs2 O14 3.189970 1_455
Cs2 O27 3.202337 1_545
Cs2 O3 3.210411 1_555
Cs2 O16 3.354764 1_555
Cs2 O4 3.455357 1_545
Cs2 O5 3.508042 1_455
Cs2 O8 3.578197 1_555
Cs2 O4 3.676660 1_555
Cs3 O25 3.078546 1_565
Cs3 O15 3.189970 1_655
Cs3 O26 3.202337 1_565
Cs3 O2 3.210411 1_555
Cs3 O17 3.354764 1_555
Cs3 O5 3.455357 1_565
Cs3 O4 3.508042 1_655
Cs3 O9 3.578197 1_555
Cs3 O5 3.676660 1_555
Co0 O9 1.774671 1_555
Co0 O8 1.774671 1_555
Co0 O19 1.776275 1_555
Co0 O18 1.776275 1_555
Co0 O21 1.779977 1_555
Co0 O20 1.779977 1_555
Co1 O11 1.774671 1_555
Co1 O10 1.774671 1_454
Co1 O16 1.776275 1_554
Co1 O17 1.776275 1_455
Co1 O22 1.779977 1_454
Co1 O23 1.779977 1_555
O0 S0 1.500769 1_555
O1 S1 1.500769 1_555
O2 S2 1.500769 1_555
O3 S3 1.500769 1_555
O4 S3 1.467768 1_555
O5 S2 1.467768 1_555
O6 S1 1.467768 1_556
O7 S0 1.467768 1_554
O12 S0 1.511587 1_555
O13 S1 1.511587 1_555
O14 S2 1.511587 1_555
O15 S3 1.511587 1_555
O24 S0 1.475276 1_555
O25 S1 1.475276 1_555
O26 S2 1.475276 1_555
O27 S3 1.475276 1_555
