# generated using pymatgen
data_HoMgAg
_symmetry_space_group_name_H-M   'P 1'
_cell_length_a   7.66975112
_cell_length_b   7.66975112
_cell_length_c   4.05716779
_cell_angle_alpha   90.00000000
_cell_angle_beta   90.00000000
_cell_angle_gamma   120.00000468
_symmetry_Int_Tables_number   1
_chemical_formula_structural   HoMgAg
_chemical_formula_sum   'Ho3 Mg3 Ag3'
_cell_volume   206.68840960
_cell_formula_units_Z   3
loop_
 _symmetry_equiv_pos_site_id
 _symmetry_equiv_pos_as_xyz
  1  'x, y, z'
loop_
 _atom_site_type_symbol
 _atom_site_label
 _atom_site_symmetry_multiplicity
 _atom_site_fract_x
 _atom_site_fract_y
 _atom_site_fract_z
 _atom_site_occupancy
  Ho  Ho0  1  0.58773311  1.00000000  -0.00000000  1
  Ho  Ho1  1  1.00000000  0.58773311  -0.00000000  1
  Ho  Ho2  1  0.41226689  0.41226689  -0.00000000  1
  Mg  Mg0  1  0.24845258  0.00000000  0.50000000  1
  Mg  Mg1  1  0.00000000  0.24845258  0.50000000  1
  Mg  Mg2  1  0.75154742  0.75154742  0.50000000  1
  Ag  Ag0  1  0.33333300  0.66666700  0.50000000  1
  Ag  Ag1  1  0.66666700  0.33333300  0.50000000  1
  Ag  Ag2  1  -0.00000000  -0.00000000  0.00000000  1
loop_
_geom_bond_atom_site_label_1
_geom_bond_atom_site_label_2
_geom_bond_distance
_geom_bond_site_symmetry_2
Ag0 Mg0 2.936714 1_565
Ag0 Mg1 2.936719 1_555
Ag0 Mg2 2.936721 1_555
Ag0 Ho1 3.077338 1_455
Ag0 Ho1 3.077338 1_456
Ag0 Ho0 3.077340 1_556
Ag0 Ho0 3.077340 1_555
Ag0 Ho2 3.077344 1_555
Ag0 Ho2 3.077344 1_556
Ag1 Mg1 2.936714 1_655
Ag1 Mg0 2.936719 1_555
Ag1 Mg2 2.936721 1_555
Ag1 Ho0 3.077338 1_545
Ag1 Ho0 3.077338 1_546
Ag1 Ho1 3.077340 1_555
Ag1 Ho1 3.077340 1_556
Ag1 Ho2 3.077344 1_555
Ag1 Ho2 3.077344 1_556
Ag2 Mg2 2.783226 1_444
Ag2 Mg2 2.783226 1_445
Ag2 Mg0 2.783226 1_555
Ag2 Mg1 2.783226 1_555
Ag2 Mg0 2.783226 1_554
Ag2 Mg1 2.783226 1_554
Ag2 Ho2 3.161984 1_555
Ag2 Ho0 3.161984 1_445
Ag2 Ho1 3.161984 1_445
