# generated using pymatgen
data_Ba4PrY(Cu3O7)2
_symmetry_space_group_name_H-M   'P 1'
_cell_length_a   3.87809700
_cell_length_b   3.94764000
_cell_length_c   23.89001100
_cell_angle_alpha   90.00000000
_cell_angle_beta   90.00000000
_cell_angle_gamma   90.00000000
_symmetry_Int_Tables_number   1
_chemical_formula_structural   Ba4PrY(Cu3O7)2
_chemical_formula_sum   'Ba4 Pr1 Y1 Cu6 O14'
_cell_volume   365.74008220
_cell_formula_units_Z   1
loop_
 _symmetry_equiv_pos_site_id
 _symmetry_equiv_pos_as_xyz
  1  'x, y, z'
loop_
 _atom_site_type_symbol
 _atom_site_label
 _atom_site_symmetry_multiplicity
 _atom_site_fract_x
 _atom_site_fract_y
 _atom_site_fract_z
 _atom_site_occupancy
  Ba  Ba0  1  0.50000000  0.50000000  0.34084000  1
  Ba  Ba1  1  0.50000000  0.50000000  0.83934800  1
  Ba  Ba2  1  0.50000000  0.50000000  0.65916000  1
  Ba  Ba3  1  0.50000000  0.50000000  0.16065200  1
  Pr  Pr0  1  0.50000000  0.50000000  0.00000000  1
  Y  Y0  1  0.50000000  0.50000000  0.50000000  1
  Cu  Cu0  1  0.00000000  0.00000000  0.42730900  1
  Cu  Cu1  1  0.00000000  0.00000000  0.92268400  1
  Cu  Cu2  1  0.00000000  0.00000000  0.57269100  1
  Cu  Cu3  1  0.00000000  0.00000000  0.07731600  1
  Cu  Cu4  1  0.00000000  0.00000000  0.25054100  1
  Cu  Cu5  1  0.00000000  0.00000000  0.74945900  1
  O  O0  1  0.50000000  0.00000000  0.44016800  1
  O  O1  1  0.50000000  0.00000000  0.93547000  1
  O  O2  1  0.50000000  0.00000000  0.55983200  1
  O  O3  1  0.50000000  0.00000000  0.06453000  1
  O  O4  1  0.00000000  0.50000000  0.43970500  1
  O  O5  1  0.00000000  0.50000000  0.93480100  1
  O  O6  1  0.00000000  0.50000000  0.56029500  1
  O  O7  1  0.00000000  0.50000000  0.06519900  1
  O  O8  1  0.00000000  0.00000000  0.32915700  1
  O  O9  1  0.00000000  0.00000000  0.82803800  1
  O  O10  1  0.00000000  0.00000000  0.67084300  1
  O  O11  1  0.00000000  0.00000000  0.17196200  1
  O  O12  1  0.00000000  0.50000000  0.25095300  1
  O  O13  1  0.00000000  0.50000000  0.74904700  1
loop_
_geom_bond_atom_site_label_1
_geom_bond_atom_site_label_2
_geom_bond_distance
_geom_bond_site_symmetry_2
Ba0 O8 2.780967 1_555
Ba0 O8 2.780967 1_655
Ba0 O8 2.780967 1_565
Ba0 O8 2.780967 1_665
Ba0 O12 2.893310 1_555
Ba0 O12 2.893310 1_655
Ba0 O4 3.055882 1_655
Ba0 O4 3.055882 1_555
Ba0 O0 3.086558 1_565
Ba0 O0 3.086558 1_555
Ba1 O9 2.780086 1_555
Ba1 O9 2.780086 1_655
Ba1 O9 2.780086 1_565
Ba1 O9 2.780086 1_665
Ba1 O13 2.900658 1_655
Ba1 O13 2.900658 1_555
Ba1 O5 2.993328 1_655
Ba1 O5 2.993328 1_555
Ba1 O1 3.028071 1_555
Ba1 O1 3.028071 1_565
Ba2 O10 2.780967 1_655
Ba2 O10 2.780967 1_565
Ba2 O10 2.780967 1_665
Ba2 O10 2.780967 1_555
Ba2 O13 2.893310 1_555
Ba2 O13 2.893310 1_655
Ba2 O6 3.055882 1_655
Ba2 O6 3.055882 1_555
Ba2 O2 3.086558 1_555
Ba2 O2 3.086558 1_565
Ba3 O11 2.780086 1_655
Ba3 O11 2.780086 1_565
Ba3 O11 2.780086 1_665
Ba3 O11 2.780086 1_555
Ba3 O12 2.900658 1_555
Ba3 O12 2.900658 1_655
Ba3 O7 2.993328 1_655
Ba3 O7 2.993328 1_555
Ba3 O3 3.028071 1_555
Ba3 O3 3.028071 1_565
Cu0 O0 1.963233 1_555
Cu0 O0 1.963233 1_455
Cu0 O4 1.995912 1_545
Cu0 O4 1.995912 1_555
Cu0 O8 2.344852 1_555
Cu1 O1 1.962960 1_455
Cu1 O1 1.962960 1_555
Cu1 O5 1.994934 1_545
Cu1 O5 1.994934 1_555
Cu1 O9 2.261094 1_555
Cu2 O2 1.963233 1_455
Cu2 O2 1.963233 1_555
Cu2 O6 1.995912 1_555
Cu2 O6 1.995912 1_545
Cu2 O10 2.344852 1_555
Cu3 O3 1.962960 1_455
Cu3 O3 1.962960 1_555
Cu3 O7 1.994934 1_545
Cu3 O7 1.994934 1_555
Cu3 O11 2.261094 1_555
Cu4 O11 1.877253 1_555
Cu4 O8 1.878137 1_555
Cu4 O12 1.973845 1_545
Cu4 O12 1.973845 1_555
Cu5 O9 1.877253 1_555
Cu5 O10 1.878137 1_555
Cu5 O13 1.973845 1_555
Cu5 O13 1.973845 1_545
O0 Y0 2.437030 1_555
O0 Y0 2.437030 1_545
O1 Pr0 2.504509 1_556
O1 Pr0 2.504509 1_546
O2 Y0 2.437030 1_555
O2 Y0 2.437030 1_545
O3 Pr0 2.504509 1_545
O3 Pr0 2.504509 1_555
O4 Y0 2.415533 1_555
O4 Y0 2.415533 1_455
O5 Pr0 2.487175 1_456
O5 Pr0 2.487175 1_556
O6 Y0 2.415533 1_555
O6 Y0 2.415533 1_455
O7 Pr0 2.487175 1_555
O7 Pr0 2.487175 1_455
