# generated using pymatgen
data_NaMg30FeO32
_symmetry_space_group_name_H-M   'P 1'
_cell_length_a   8.55877000
_cell_length_b   8.55877000
_cell_length_c   8.47771100
_cell_angle_alpha   90.00000000
_cell_angle_beta   90.00000000
_cell_angle_gamma   90.00000000
_symmetry_Int_Tables_number   1
_chemical_formula_structural   NaMg30FeO32
_chemical_formula_sum   'Na1 Mg30 Fe1 O32'
_cell_volume   621.01389731
_cell_formula_units_Z   1
loop_
 _symmetry_equiv_pos_site_id
 _symmetry_equiv_pos_as_xyz
  1  'x, y, z'
loop_
 _atom_site_type_symbol
 _atom_site_label
 _atom_site_symmetry_multiplicity
 _atom_site_fract_x
 _atom_site_fract_y
 _atom_site_fract_z
 _atom_site_occupancy
  Na  Na0  1  0.00000000  0.00000000  0.50000000  1
  Mg  Mg0  1  0.50000000  0.00000000  0.00000000  1
  Mg  Mg1  1  0.50000000  0.00000000  0.50000000  1
  Mg  Mg2  1  0.00000000  0.50000000  0.00000000  1
  Mg  Mg3  1  0.00000000  0.50000000  0.50000000  1
  Mg  Mg4  1  0.50000000  0.50000000  0.00000000  1
  Mg  Mg5  1  0.50000000  0.50000000  0.50000000  1
  Mg  Mg6  1  0.25315800  0.00000000  0.25190900  1
  Mg  Mg7  1  0.25315800  0.00000000  0.74809100  1
  Mg  Mg8  1  0.74684200  0.00000000  0.25190900  1
  Mg  Mg9  1  0.74684200  0.00000000  0.74809100  1
  Mg  Mg10  1  0.25007600  0.50000000  0.25058000  1
  Mg  Mg11  1  0.25007600  0.50000000  0.74942000  1
  Mg  Mg12  1  0.74992400  0.50000000  0.25058000  1
  Mg  Mg13  1  0.74992400  0.50000000  0.74942000  1
  Mg  Mg14  1  0.00000000  0.25315800  0.25190900  1
  Mg  Mg15  1  0.00000000  0.25315800  0.74809100  1
  Mg  Mg16  1  0.50000000  0.25007600  0.25058000  1
  Mg  Mg17  1  0.50000000  0.25007600  0.74942000  1
  Mg  Mg18  1  0.00000000  0.74684200  0.25190900  1
  Mg  Mg19  1  0.00000000  0.74684200  0.74809100  1
  Mg  Mg20  1  0.50000000  0.74992400  0.25058000  1
  Mg  Mg21  1  0.50000000  0.74992400  0.74942000  1
  Mg  Mg22  1  0.24996600  0.24996600  0.00000000  1
  Mg  Mg23  1  0.24900500  0.24900500  0.50000000  1
  Mg  Mg24  1  0.75003400  0.24996600  0.00000000  1
  Mg  Mg25  1  0.75099500  0.24900500  0.50000000  1
  Mg  Mg26  1  0.24996600  0.75003400  0.00000000  1
  Mg  Mg27  1  0.24900500  0.75099500  0.50000000  1
  Mg  Mg28  1  0.75003400  0.75003400  0.00000000  1
  Mg  Mg29  1  0.75099500  0.75099500  0.50000000  1
  Fe  Fe0  1  0.00000000  0.00000000  0.00000000  1
  O  O0  1  0.00000000  0.25120600  0.00000000  1
  O  O1  1  0.00000000  0.26112800  0.50000000  1
  O  O2  1  0.50000000  0.24971900  0.00000000  1
  O  O3  1  0.50000000  0.25176600  0.50000000  1
  O  O4  1  0.00000000  0.74879400  0.00000000  1
  O  O5  1  0.00000000  0.73887200  0.50000000  1
  O  O6  1  0.50000000  0.75028100  0.00000000  1
  O  O7  1  0.50000000  0.74823400  0.50000000  1
  O  O8  1  0.24886900  0.24886900  0.24954000  1
  O  O9  1  0.24886900  0.24886900  0.75046000  1
  O  O10  1  0.75113100  0.24886900  0.24954000  1
  O  O11  1  0.75113100  0.24886900  0.75046000  1
  O  O12  1  0.24886900  0.75113100  0.24954000  1
  O  O13  1  0.24886900  0.75113100  0.75046000  1
  O  O14  1  0.75113100  0.75113100  0.24954000  1
  O  O15  1  0.75113100  0.75113100  0.75046000  1
  O  O16  1  0.00000000  0.00000000  0.22388200  1
  O  O17  1  0.00000000  0.00000000  0.77611800  1
  O  O18  1  0.50000000  0.00000000  0.24681100  1
  O  O19  1  0.50000000  0.00000000  0.75318900  1
  O  O20  1  0.00000000  0.50000000  0.24681100  1
  O  O21  1  0.00000000  0.50000000  0.75318900  1
  O  O22  1  0.50000000  0.50000000  0.24878000  1
  O  O23  1  0.50000000  0.50000000  0.75122000  1
  O  O24  1  0.25120600  0.00000000  0.00000000  1
  O  O25  1  0.26112800  0.00000000  0.50000000  1
  O  O26  1  0.74879400  0.00000000  0.00000000  1
  O  O27  1  0.73887200  0.00000000  0.50000000  1
  O  O28  1  0.24971900  0.50000000  0.00000000  1
  O  O29  1  0.25176600  0.50000000  0.50000000  1
  O  O30  1  0.75028100  0.50000000  0.00000000  1
  O  O31  1  0.74823400  0.50000000  0.50000000  1
loop_
_geom_bond_atom_site_label_1
_geom_bond_atom_site_label_2
_geom_bond_distance
_geom_bond_site_symmetry_2
Na0 O25 2.234934 1_555
Na0 O5 2.234934 1_545
Na0 O1 2.234934 1_555
Na0 O27 2.234934 1_455
Na0 O17 2.340849 1_555
Na0 O16 2.340849 1_555
Mg0 O18 2.092392 1_555
Mg0 O19 2.092392 1_554
Mg0 O26 2.129371 1_555
Mg0 O24 2.129371 1_555
Mg0 O6 2.137287 1_545
Mg0 O2 2.137287 1_555
Mg1 O27 2.044451 1_555
Mg1 O25 2.044451 1_555
Mg1 O18 2.146463 1_555
Mg1 O19 2.146463 1_555
Mg1 O3 2.154807 1_555
Mg1 O7 2.154807 1_545
Mg2 O21 2.092392 1_554
Mg2 O20 2.092392 1_555
Mg2 O4 2.129371 1_555
Mg2 O0 2.129371 1_555
Mg2 O30 2.137287 1_455
Mg2 O28 2.137287 1_555
Mg3 O1 2.044451 1_555
Mg3 O5 2.044451 1_555
Mg3 O21 2.146463 1_555
Mg3 O20 2.146463 1_555
Mg3 O29 2.154807 1_555
Mg3 O31 2.154807 1_455
Mg4 O22 2.109085 1_555
Mg4 O23 2.109085 1_554
Mg4 O28 2.142098 1_555
Mg4 O6 2.142098 1_555
Mg4 O30 2.142098 1_555
Mg4 O2 2.142098 1_555
Mg5 O31 2.124578 1_555
Mg5 O7 2.124578 1_555
Mg5 O29 2.124578 1_555
Mg5 O3 2.124578 1_555
Mg5 O22 2.129771 1_555
Mg5 O23 2.129771 1_555
Mg6 O25 2.104350 1_555
Mg6 O18 2.113106 1_555
Mg6 O12 2.130423 1_545
Mg6 O8 2.130423 1_555
Mg6 O24 2.135677 1_555
Mg6 O16 2.179710 1_555
Mg7 O25 2.104350 1_555
Mg7 O19 2.113106 1_555
Mg7 O13 2.130423 1_545
Mg7 O9 2.130423 1_555
Mg7 O24 2.135677 1_556
Mg7 O17 2.179710 1_555
Mg8 O27 2.104350 1_555
Mg8 O18 2.113106 1_555
Mg8 O14 2.130423 1_545
Mg8 O10 2.130423 1_555
Mg8 O26 2.135677 1_555
Mg8 O16 2.179710 1_655
Mg9 O27 2.104350 1_555
Mg9 O19 2.113106 1_555
Mg9 O11 2.130423 1_555
Mg9 O15 2.130423 1_545
Mg9 O26 2.135677 1_556
Mg9 O17 2.179710 1_655
Mg10 O29 2.114560 1_555
Mg10 O28 2.124347 1_555
Mg10 O22 2.139096 1_555
Mg10 O20 2.140581 1_555
Mg10 O12 2.149415 1_555
Mg10 O8 2.149415 1_555
Mg11 O29 2.114560 1_555
Mg11 O28 2.124347 1_556
Mg11 O23 2.139096 1_555
Mg11 O21 2.140581 1_555
Mg11 O13 2.149415 1_555
Mg11 O9 2.149415 1_555
Mg12 O31 2.114560 1_555
Mg12 O30 2.124347 1_555
Mg12 O22 2.139096 1_555
Mg12 O20 2.140581 1_655
Mg12 O10 2.149415 1_555
Mg12 O14 2.149415 1_555
Mg13 O31 2.114560 1_555
Mg13 O30 2.124347 1_556
Mg13 O23 2.139096 1_555
Mg13 O21 2.140581 1_655
Mg13 O11 2.149415 1_555
Mg13 O15 2.149415 1_555
Mg14 O1 2.104350 1_555
Mg14 O20 2.113106 1_555
Mg14 O8 2.130423 1_555
Mg14 O10 2.130423 1_455
Mg14 O0 2.135677 1_555
Mg14 O16 2.179710 1_555
Mg15 O1 2.104350 1_555
Mg15 O21 2.113106 1_555
Mg15 O11 2.130423 1_455
Mg15 O9 2.130423 1_555
Mg15 O0 2.135677 1_556
Mg15 O17 2.179710 1_555
Mg16 O3 2.114560 1_555
Mg16 O2 2.124347 1_555
Mg16 O22 2.139096 1_555
Mg16 O18 2.140581 1_555
Mg16 O8 2.149415 1_555
Mg16 O10 2.149415 1_555
Mg17 O3 2.114560 1_555
Mg17 O2 2.124347 1_556
Mg17 O23 2.139096 1_555
Mg17 O19 2.140581 1_555
Mg17 O9 2.149415 1_555
Mg17 O11 2.149415 1_555
Mg18 O5 2.104350 1_555
Mg18 O20 2.113106 1_555
Mg18 O12 2.130423 1_555
Mg18 O14 2.130423 1_455
Mg18 O4 2.135677 1_555
Mg18 O16 2.179710 1_565
Mg19 O5 2.104350 1_555
Mg19 O21 2.113106 1_555
Mg19 O13 2.130423 1_555
Mg19 O15 2.130423 1_455
Mg19 O4 2.135677 1_556
Mg19 O17 2.179710 1_565
Mg20 O7 2.114560 1_555
Mg20 O6 2.124347 1_555
Mg20 O22 2.139096 1_555
Mg20 O18 2.140581 1_565
Mg20 O12 2.149415 1_555
Mg20 O14 2.149415 1_555
Mg21 O7 2.114560 1_555
Mg21 O6 2.124347 1_556
Mg21 O23 2.139096 1_555
Mg21 O19 2.140581 1_565
Mg21 O15 2.149415 1_555
Mg21 O13 2.149415 1_555
Mg22 O9 2.115570 1_554
Mg22 O8 2.115570 1_555
Mg22 O0 2.139428 1_555
Mg22 O24 2.139428 1_555
Mg22 O2 2.139985 1_555
Mg22 O28 2.139985 1_555
Mg23 O8 2.123328 1_555
Mg23 O9 2.123328 1_555
Mg23 O25 2.133701 1_555
Mg23 O1 2.133701 1_555
Mg23 O29 2.148338 1_555
Mg23 O3 2.148338 1_555
Mg24 O11 2.115570 1_554
Mg24 O10 2.115570 1_555
Mg24 O26 2.139428 1_555
Mg24 O0 2.139428 1_655
Mg24 O2 2.139985 1_555
Mg24 O30 2.139985 1_555
Mg25 O10 2.123328 1_555
Mg25 O11 2.123328 1_555
Mg25 O27 2.133701 1_555
Mg25 O1 2.133701 1_655
Mg25 O31 2.148338 1_555
Mg25 O3 2.148338 1_555
Mg26 O13 2.115570 1_554
Mg26 O12 2.115570 1_555
Mg26 O4 2.139428 1_555
Mg26 O24 2.139428 1_565
Mg26 O6 2.139985 1_555
Mg26 O28 2.139985 1_555
Mg27 O13 2.123328 1_555
Mg27 O12 2.123328 1_555
Mg27 O5 2.133701 1_555
Mg27 O25 2.133701 1_565
Mg27 O29 2.148338 1_555
Mg27 O7 2.148338 1_555
Mg28 O15 2.115570 1_554
Mg28 O14 2.115570 1_555
Mg28 O4 2.139428 1_655
Mg28 O26 2.139428 1_565
Mg28 O6 2.139985 1_555
Mg28 O30 2.139985 1_555
Mg29 O15 2.123328 1_555
Mg29 O14 2.123328 1_555
Mg29 O27 2.133701 1_565
Mg29 O5 2.133701 1_655
Mg29 O31 2.148338 1_555
Mg29 O7 2.148338 1_555
Fe0 O16 1.898007 1_555
Fe0 O17 1.898007 1_554
Fe0 O0 2.150014 1_555
Fe0 O24 2.150014 1_555
Fe0 O4 2.150014 1_545
Fe0 O26 2.150014 1_455
