# generated using pymatgen
data_Ba5Gd2ZrAl2O13
_symmetry_space_group_name_H-M   'P 1'
_cell_length_a   6.06956124
_cell_length_b   6.06956124
_cell_length_c   25.46371500
_cell_angle_alpha   90.00000000
_cell_angle_beta   90.00000000
_cell_angle_gamma   119.99999168
_symmetry_Int_Tables_number   1
_chemical_formula_structural   Ba5Gd2ZrAl2O13
_chemical_formula_sum   'Ba10 Gd4 Zr2 Al4 O26'
_cell_volume   812.39459965
_cell_formula_units_Z   2
loop_
 _symmetry_equiv_pos_site_id
 _symmetry_equiv_pos_as_xyz
  1  'x, y, z'
loop_
 _atom_site_type_symbol
 _atom_site_label
 _atom_site_symmetry_multiplicity
 _atom_site_fract_x
 _atom_site_fract_y
 _atom_site_fract_z
 _atom_site_occupancy
  Ba  Ba0  1  0.33333300  0.66666700  0.54149200  1
  Ba  Ba1  1  0.66666700  0.33333300  0.45850800  1
  Ba  Ba2  1  0.66666700  0.33333300  0.04149200  1
  Ba  Ba3  1  0.33333300  0.66666700  0.95850800  1
  Ba  Ba4  1  0.00000000  0.00000000  0.13636300  1
  Ba  Ba5  1  0.00000000  0.00000000  0.86363700  1
  Ba  Ba6  1  0.00000000  0.00000000  0.63636300  1
  Ba  Ba7  1  0.00000000  0.00000000  0.36363700  1
  Ba  Ba8  1  0.33333300  0.66666700  0.25000000  1
  Ba  Ba9  1  0.66666700  0.33333300  0.75000000  1
  Gd  Gd0  1  0.33333300  0.66666700  0.10435000  1
  Gd  Gd1  1  0.66666700  0.33333300  0.89565000  1
  Gd  Gd2  1  0.66666700  0.33333300  0.60435000  1
  Gd  Gd3  1  0.33333300  0.66666700  0.39565000  1
  Zr  Zr0  1  0.00000000  0.00000000  0.00000000  1
  Zr  Zr1  1  0.00000000  0.00000000  0.50000000  1
  Al  Al0  1  0.33333300  0.66666700  0.68199000  1
  Al  Al1  1  0.66666700  0.33333300  0.31801000  1
  Al  Al2  1  0.66666700  0.33333300  0.18199000  1
  Al  Al3  1  0.33333300  0.66666700  0.81801000  1
  O  O0  1  0.50664600  0.01329200  0.15929000  1
  O  O1  1  0.49335400  0.98670800  0.84071000  1
  O  O2  1  0.98670800  0.49335400  0.15929000  1
  O  O3  1  0.49335400  0.98670800  0.65929000  1
  O  O4  1  0.01329200  0.50664600  0.84071000  1
  O  O5  1  0.50664600  0.01329200  0.34071000  1
  O  O6  1  0.50664600  0.49335400  0.15929000  1
  O  O7  1  0.01329200  0.50664600  0.65929000  1
  O  O8  1  0.49335400  0.50664600  0.84071000  1
  O  O9  1  0.98670800  0.49335400  0.34071000  1
  O  O10  1  0.49335400  0.50664600  0.65929000  1
  O  O11  1  0.50664600  0.49335400  0.34071000  1
  O  O12  1  0.16152500  0.32305000  0.04979500  1
  O  O13  1  0.83847500  0.67695000  0.95020500  1
  O  O14  1  0.67695000  0.83847500  0.04979500  1
  O  O15  1  0.83847500  0.67695000  0.54979500  1
  O  O16  1  0.32305000  0.16152500  0.95020500  1
  O  O17  1  0.16152500  0.32305000  0.45020500  1
  O  O18  1  0.16152500  0.83847500  0.04979500  1
  O  O19  1  0.32305000  0.16152500  0.54979500  1
  O  O20  1  0.83847500  0.16152500  0.95020500  1
  O  O21  1  0.67695000  0.83847500  0.45020500  1
  O  O22  1  0.83847500  0.16152500  0.54979500  1
  O  O23  1  0.16152500  0.83847500  0.45020500  1
  O  O24  1  0.33333300  0.66666700  0.75000000  1
  O  O25  1  0.66666700  0.33333300  0.25000000  1
loop_
_geom_bond_atom_site_label_1
_geom_bond_atom_site_label_2
_geom_bond_distance
_geom_bond_site_symmetry_2
Ba0 O23 2.943742 1_555
Ba0 O17 2.943746 1_555
Ba0 O21 2.943746 1_555
Ba0 O19 3.042614 1_565
Ba0 O15 3.042614 1_455
Ba0 O22 3.042617 1_565
Ba0 O22 3.042617 1_455
Ba0 O19 3.042620 1_555
Ba0 O15 3.042620 1_555
Ba1 O22 2.943742 1_555
Ba1 O19 2.943746 1_555
Ba1 O15 2.943746 1_555
Ba1 O17 3.042614 1_655
Ba1 O21 3.042614 1_545
Ba1 O23 3.042617 1_655
Ba1 O23 3.042617 1_545
Ba1 O21 3.042620 1_555
Ba1 O17 3.042620 1_555
Ba2 O20 2.943742 1_554
Ba2 O16 2.943746 1_554
Ba2 O13 2.943746 1_554
Ba2 O12 3.042614 1_655
Ba2 O14 3.042614 1_545
Ba2 O18 3.042617 1_655
Ba2 O18 3.042617 1_545
Ba2 O14 3.042620 1_555
Ba2 O12 3.042620 1_555
Ba3 O18 2.943742 1_556
Ba3 O12 2.943746 1_556
Ba3 O14 2.943746 1_556
Ba3 O16 3.042614 1_565
Ba3 O13 3.042614 1_455
Ba3 O20 3.042617 1_565
Ba3 O20 3.042617 1_455
Ba3 O16 3.042620 1_555
Ba3 O13 3.042620 1_555
Ba4 O18 2.782552 1_545
Ba4 O14 2.782552 1_445
Ba4 O12 2.782552 1_555
Ba4 O0 3.091214 1_455
Ba4 O2 3.091214 1_455
Ba4 O2 3.091214 1_445
Ba4 O0 3.091214 1_555
Ba4 O6 3.091215 1_445
Ba4 O6 3.091215 1_555
Ba5 O20 2.782552 1_455
Ba5 O16 2.782552 1_555
Ba5 O13 2.782552 1_445
Ba5 O4 3.091214 1_545
Ba5 O1 3.091214 1_545
Ba5 O1 3.091214 1_445
Ba5 O4 3.091214 1_555
Ba5 O8 3.091215 1_445
Ba5 O8 3.091215 1_555
Ba6 O22 2.782552 1_455
Ba6 O15 2.782552 1_445
Ba6 O19 2.782552 1_555
Ba6 O7 3.091214 1_545
Ba6 O3 3.091214 1_545
Ba6 O3 3.091214 1_445
Ba6 O7 3.091214 1_555
Ba6 O10 3.091215 1_445
Ba6 O10 3.091215 1_555
Ba7 O23 2.782552 1_545
Ba7 O17 2.782552 1_555
Ba7 O21 2.782552 1_445
Ba7 O5 3.091214 1_455
Ba7 O9 3.091214 1_455
Ba7 O9 3.091214 1_445
Ba7 O5 3.091214 1_555
Ba7 O11 3.091215 1_445
Ba7 O11 3.091215 1_555
Ba8 O9 2.941924 1_455
Ba8 O2 2.941924 1_455
Ba8 O5 2.941924 1_565
Ba8 O0 2.941924 1_565
Ba8 O6 2.941927 1_555
Ba8 O11 2.941927 1_555
Ba9 O1 2.941924 1_545
Ba9 O3 2.941924 1_545
Ba9 O7 2.941924 1_655
Ba9 O4 2.941924 1_655
Ba9 O8 2.941927 1_555
Ba9 O10 2.941927 1_555
Gd0 O18 2.278616 1_555
Gd0 O12 2.278621 1_555
Gd0 O14 2.278621 1_555
Gd0 O2 2.297131 1_455
Gd0 O0 2.297131 1_565
Gd0 O6 2.297135 1_555
Gd1 O20 2.278616 1_555
Gd1 O16 2.278621 1_555
Gd1 O13 2.278621 1_555
Gd1 O4 2.297131 1_655
Gd1 O1 2.297131 1_545
Gd1 O8 2.297135 1_555
Gd2 O22 2.278616 1_555
Gd2 O19 2.278621 1_555
Gd2 O15 2.278621 1_555
Gd2 O7 2.297131 1_655
Gd2 O3 2.297131 1_545
Gd2 O10 2.297135 1_555
Gd3 O23 2.278616 1_555
Gd3 O17 2.278621 1_555
Gd3 O21 2.278621 1_555
Gd3 O9 2.297131 1_455
Gd3 O5 2.297131 1_565
Gd3 O11 2.297135 1_555
Al0 O24 1.731787 1_555
Al0 O7 1.778797 1_555
Al0 O3 1.778797 1_555
Al0 O10 1.778802 1_555
Al1 O25 1.731787 1_555
Al1 O5 1.778797 1_555
Al1 O9 1.778797 1_555
Al1 O11 1.778802 1_555
Al2 O25 1.731787 1_555
Al2 O0 1.778797 1_555
Al2 O2 1.778797 1_555
Al2 O6 1.778802 1_555
Al3 O24 1.731787 1_555
Al3 O4 1.778797 1_555
Al3 O1 1.778797 1_555
Al3 O8 1.778802 1_555
O12 Zr0 2.119247 1_555
O13 Zr0 2.119247 1_666
O14 Zr0 2.119247 1_665
O15 Zr1 2.119247 1_665
O16 Zr0 2.119247 1_556
O17 Zr1 2.119247 1_555
O18 Zr0 2.119247 1_565
O19 Zr1 2.119247 1_555
O20 Zr0 2.119247 1_656
O21 Zr1 2.119247 1_665
O22 Zr1 2.119247 1_655
O23 Zr1 2.119247 1_565
