# generated using pymatgen
data_K2SnHCl4
_symmetry_space_group_name_H-M   'P 1'
_cell_length_a   8.16235500
_cell_length_b   8.91160600
_cell_length_c   12.67929900
_cell_angle_alpha   90.00000000
_cell_angle_beta   90.00000000
_cell_angle_gamma   90.00000000
_symmetry_Int_Tables_number   1
_chemical_formula_structural   K2SnHCl4
_chemical_formula_sum   'K8 Sn4 H4 Cl16'
_cell_volume   922.28830140
_cell_formula_units_Z   4
loop_
 _symmetry_equiv_pos_site_id
 _symmetry_equiv_pos_as_xyz
  1  'x, y, z'
loop_
 _atom_site_type_symbol
 _atom_site_label
 _atom_site_symmetry_multiplicity
 _atom_site_fract_x
 _atom_site_fract_y
 _atom_site_fract_z
 _atom_site_occupancy
  K  K0  1  0.37693000  0.75000000  0.69935900  1
  K  K1  1  0.62307000  0.25000000  0.30064100  1
  K  K2  1  0.87693000  0.25000000  0.80064100  1
  K  K3  1  0.12307000  0.75000000  0.19935900  1
  K  K4  1  0.88990600  0.75000000  0.81546600  1
  K  K5  1  0.11009400  0.25000000  0.18453400  1
  K  K6  1  0.38990600  0.25000000  0.68453400  1
  K  K7  1  0.61009400  0.75000000  0.31546600  1
  Sn  Sn0  1  0.50000000  0.00000000  0.00000000  1
  Sn  Sn1  1  0.00000000  0.00000000  0.50000000  1
  Sn  Sn2  1  0.50000000  0.50000000  0.00000000  1
  Sn  Sn3  1  0.00000000  0.50000000  0.50000000  1
  H  H0  1  0.00000000  0.00000000  0.00000000  1
  H  H1  1  0.50000000  0.00000000  0.50000000  1
  H  H2  1  0.00000000  0.50000000  0.00000000  1
  H  H3  1  0.50000000  0.50000000  0.50000000  1
  Cl  Cl0  1  0.27267700  0.75000000  0.95959600  1
  Cl  Cl1  1  0.72732300  0.25000000  0.04040400  1
  Cl  Cl2  1  0.77267700  0.25000000  0.54040400  1
  Cl  Cl3  1  0.22732300  0.75000000  0.45959600  1
  Cl  Cl4  1  0.78212600  0.75000000  0.54771200  1
  Cl  Cl5  1  0.21787400  0.25000000  0.45228800  1
  Cl  Cl6  1  0.28212600  0.25000000  0.95228800  1
  Cl  Cl7  1  0.71787400  0.75000000  0.04771200  1
  Cl  Cl8  1  0.61090200  0.99605700  0.78909300  1
  Cl  Cl9  1  0.38909800  0.00394300  0.21090700  1
  Cl  Cl10  1  0.11090200  0.00394300  0.71090700  1
  Cl  Cl11  1  0.38909800  0.49605700  0.21090700  1
  Cl  Cl12  1  0.88909800  0.99605700  0.28909300  1
  Cl  Cl13  1  0.61090200  0.50394300  0.78909300  1
  Cl  Cl14  1  0.88909800  0.50394300  0.28909300  1
  Cl  Cl15  1  0.11090200  0.49605700  0.71090700  1
loop_
_geom_bond_atom_site_label_1
_geom_bond_atom_site_label_2
_geom_bond_distance
_geom_bond_site_symmetry_2
Cl0 Sn2 2.944289 1_556
Cl0 Sn0 2.944289 1_566
Cl0 K3 3.276119 1_556
Cl0 K0 3.407584 1_555
Cl0 K4 3.619526 1_455
Cl1 Sn0 2.944289 1_555
Cl1 Sn2 2.944289 1_555
Cl1 K2 3.276119 1_554
Cl1 K1 3.407584 1_555
Cl1 K5 3.619526 1_655
Cl2 Sn1 2.944289 1_655
Cl2 Sn3 2.944289 1_655
Cl2 K1 3.276119 1_555
Cl2 K2 3.407584 1_555
Cl2 K6 3.619526 1_555
Cl3 Sn3 2.944289 1_555
Cl3 Sn1 2.944289 1_565
Cl3 K0 3.276119 1_555
Cl3 K3 3.407584 1_555
Cl3 K7 3.619526 1_555
Cl4 Sn1 2.914120 1_665
Cl4 Sn3 2.914120 1_655
Cl4 K7 3.262376 1_555
Cl4 K4 3.507066 1_555
Cl5 Sn3 2.914120 1_555
Cl5 Sn1 2.914120 1_555
Cl5 K6 3.262376 1_555
Cl5 K5 3.507066 1_555
Cl6 Sn2 2.914120 1_556
Cl6 Sn0 2.914120 1_556
Cl6 K5 3.262376 1_556
Cl6 K6 3.507066 1_555
Cl7 Sn0 2.914120 1_565
Cl7 Sn2 2.914120 1_555
Cl7 K4 3.262376 1_554
Cl7 K7 3.507066 1_555
Cl8 Sn0 2.823430 1_566
Cl8 K0 3.122485 1_555
Cl8 K2 3.139718 1_565
Cl8 K4 3.179034 1_555
Cl8 K6 3.183204 1_565
Cl9 Sn0 2.823430 1_555
Cl9 K1 3.122485 1_555
Cl9 K3 3.139718 1_545
Cl9 K5 3.179034 1_555
Cl9 K7 3.183204 1_545
Cl10 Sn1 2.823430 1_555
Cl10 K2 3.122485 1_455
Cl10 K0 3.139718 1_545
Cl10 K6 3.179034 1_555
Cl10 K4 3.183204 1_445
Cl11 Sn2 2.823430 1_555
Cl11 K1 3.122485 1_555
Cl11 K3 3.139718 1_555
Cl11 K5 3.179034 1_555
Cl11 K7 3.183204 1_555
Cl12 Sn1 2.823430 1_665
Cl12 K3 3.122485 1_655
Cl12 K1 3.139718 1_565
Cl12 K7 3.179034 1_555
Cl12 K5 3.183204 1_665
Cl13 Sn2 2.823430 1_556
Cl13 K0 3.122485 1_555
Cl13 K2 3.139718 1_555
Cl13 K4 3.179034 1_555
Cl13 K6 3.183204 1_555
Cl14 Sn3 2.823430 1_655
Cl14 K3 3.122485 1_655
Cl14 K1 3.139718 1_555
Cl14 K7 3.179034 1_555
Cl14 K5 3.183204 1_655
Cl15 Sn3 2.823430 1_555
Cl15 K2 3.122485 1_455
Cl15 K0 3.139718 1_555
Cl15 K6 3.179034 1_555
Cl15 K4 3.183204 1_455
