# generated using pymatgen
data_Mg2Sn3O8
_symmetry_space_group_name_H-M   'P 1'
_cell_length_a   6.31846817
_cell_length_b   6.31846817
_cell_length_c   9.54304600
_cell_angle_alpha   90.00000000
_cell_angle_beta   90.00000000
_cell_angle_gamma   120.00000180
_symmetry_Int_Tables_number   1
_chemical_formula_structural   Mg2Sn3O8
_chemical_formula_sum   'Mg4 Sn6 O16'
_cell_volume   329.94476751
_cell_formula_units_Z   2
loop_
 _symmetry_equiv_pos_site_id
 _symmetry_equiv_pos_as_xyz
  1  'x, y, z'
loop_
 _atom_site_type_symbol
 _atom_site_label
 _atom_site_symmetry_multiplicity
 _atom_site_fract_x
 _atom_site_fract_y
 _atom_site_fract_z
 _atom_site_occupancy
  Mg  Mg0  1  0.66666700  0.33333300  0.03043300  1
  Mg  Mg1  1  0.33333300  0.66666700  0.53043300  1
  Mg  Mg2  1  0.66666700  0.33333300  0.40541400  1
  Mg  Mg3  1  0.33333300  0.66666700  0.90541400  1
  Sn  Sn0  1  0.67101400  0.83550700  0.24426300  1
  Sn  Sn1  1  0.83550700  0.16449300  0.74426300  1
  Sn  Sn2  1  0.16449300  0.32898600  0.24426300  1
  Sn  Sn3  1  0.83550700  0.67101400  0.74426300  1
  Sn  Sn4  1  0.32898600  0.16449300  0.74426300  1
  Sn  Sn5  1  0.16449300  0.83550700  0.24426300  1
  O  O0  1  0.83010400  0.16989600  0.14287900  1
  O  O1  1  0.66020900  0.83010400  0.64287900  1
  O  O2  1  0.16989600  0.33979100  0.64287900  1
  O  O3  1  0.83010400  0.66020900  0.14287900  1
  O  O4  1  0.33979100  0.16989600  0.14287900  1
  O  O5  1  0.16989600  0.83010400  0.64287900  1
  O  O6  1  0.51823900  0.48176100  0.87145000  1
  O  O7  1  0.03647900  0.51823900  0.37145000  1
  O  O8  1  0.48176100  0.96352100  0.37145000  1
  O  O9  1  0.51823900  0.03647900  0.87145000  1
  O  O10  1  0.00000000  0.00000000  0.35777900  1
  O  O11  1  0.00000000  0.00000000  0.85777900  1
  O  O12  1  0.33333300  0.66666700  0.12410100  1
  O  O13  1  0.96352100  0.48176100  0.87145000  1
  O  O14  1  0.48176100  0.51823900  0.37145000  1
  O  O15  1  0.66666700  0.33333300  0.62410100  1
loop_
_geom_bond_atom_site_label_1
_geom_bond_atom_site_label_2
_geom_bond_distance
_geom_bond_site_symmetry_2
Mg0 O0 2.085839 1_555
Mg0 O4 2.085849 1_555
Mg0 O3 2.085849 1_555
Mg0 O13 2.222706 1_554
Mg0 O9 2.222706 1_554
Mg0 O6 2.222714 1_554
Mg1 O5 2.085839 1_555
Mg1 O1 2.085849 1_555
Mg1 O2 2.085849 1_555
Mg1 O8 2.222706 1_555
Mg1 O7 2.222706 1_555
Mg1 O14 2.222714 1_555
Mg2 O7 2.049387 1_655
Mg2 O8 2.049387 1_545
Mg2 O14 2.049387 1_555
Mg2 O15 2.086940 1_555
Mg3 O9 2.049387 1_565
Mg3 O13 2.049387 1_455
Mg3 O6 2.049387 1_555
Mg3 O12 2.086940 1_556
O0 Sn0 2.070442 1_545
O0 Sn2 2.070442 1_655
O1 Sn3 2.070437 1_555
O1 Sn1 2.070441 1_565
O2 Sn4 2.070437 1_555
O2 Sn1 2.070441 1_455
O3 Sn0 2.070437 1_555
O3 Sn5 2.070441 1_655
O4 Sn2 2.070437 1_555
O4 Sn5 2.070441 1_545
O5 Sn4 2.070442 1_565
O5 Sn3 2.070442 1_455
O6 Sn3 2.127106 1_555
O6 Sn4 2.127106 1_555
O7 Sn2 2.127102 1_555
O7 Sn5 2.127107 1_555
O8 Sn0 2.127102 1_555
O8 Sn5 2.127107 1_555
O9 Sn4 2.127102 1_555
O9 Sn1 2.127107 1_555
O10 Sn0 2.101005 1_445
O10 Sn2 2.101005 1_555
O10 Sn5 2.101005 1_545
O11 Sn4 2.101005 1_555
O11 Sn3 2.101005 1_445
O11 Sn1 2.101005 1_455
O12 Sn5 2.174672 1_555
O12 Sn0 2.174677 1_555
O12 Sn2 2.174677 1_555
O13 Sn3 2.127102 1_555
O13 Sn1 2.127107 1_555
O14 Sn0 2.127106 1_555
O14 Sn2 2.127106 1_555
O15 Sn1 2.174672 1_555
O15 Sn4 2.174677 1_555
O15 Sn3 2.174677 1_555
