# generated using pymatgen
data_ThRu
_symmetry_space_group_name_H-M   'P 1'
_cell_length_a   3.85903828
_cell_length_b   3.95664789
_cell_length_c   6.16286031
_cell_angle_alpha   90.00000000
_cell_angle_beta   108.24543679
_cell_angle_gamma   90.00000000
_symmetry_Int_Tables_number   1
_chemical_formula_structural   ThRu
_chemical_formula_sum   'Th2 Ru2'
_cell_volume   89.36886776
_cell_formula_units_Z   2
loop_
 _symmetry_equiv_pos_site_id
 _symmetry_equiv_pos_as_xyz
  1  'x, y, z'
loop_
 _atom_site_type_symbol
 _atom_site_label
 _atom_site_symmetry_multiplicity
 _atom_site_fract_x
 _atom_site_fract_y
 _atom_site_fract_z
 _atom_site_occupancy
  Th  Th0  1  0.13618573  0.75000000  0.27236945  1
  Th  Th1  1  0.86381427  0.25000000  0.72763055  1
  Ru  Ru0  1  0.40721664  0.75000000  0.81443229  1
  Ru  Ru1  1  0.59278336  0.25000000  0.18556771  1
loop_
_geom_bond_atom_site_label_1
_geom_bond_atom_site_label_2
_geom_bond_distance
_geom_bond_site_symmetry_2
Ru0 Th1 2.809787 1_565
Ru0 Th1 2.809787 1_555
Ru0 Th1 2.809795 1_455
Ru0 Th1 2.809795 1_465
Ru0 Ru1 2.938109 1_556
Ru0 Ru1 2.938109 1_566
Ru0 Th0 3.172703 1_555
Ru0 Th0 3.302593 1_556
Ru0 Th0 3.302595 1_656
Ru1 Th0 2.809787 1_545
Ru1 Th0 2.809787 1_555
Ru1 Th0 2.809795 1_655
Ru1 Th0 2.809795 1_645
Ru1 Th1 3.172703 1_555
Ru1 Th1 3.302593 1_554
Ru1 Th1 3.302595 1_454
