# generated using pymatgen
data_Mg2TiSbO6
_symmetry_space_group_name_H-M   'P 1'
_cell_length_a   7.77176300
_cell_length_b   5.25434600
_cell_length_c   5.41898582
_cell_angle_alpha   88.58313735
_cell_angle_beta   90.00000000
_cell_angle_gamma   90.00000000
_symmetry_Int_Tables_number   1
_chemical_formula_structural   Mg2TiSbO6
_chemical_formula_sum   'Mg4 Ti2 Sb2 O12'
_cell_volume   221.21951082
_cell_formula_units_Z   2
loop_
 _symmetry_equiv_pos_site_id
 _symmetry_equiv_pos_as_xyz
  1  'x, y, z'
loop_
 _atom_site_type_symbol
 _atom_site_label
 _atom_site_symmetry_multiplicity
 _atom_site_fract_x
 _atom_site_fract_y
 _atom_site_fract_z
 _atom_site_occupancy
  Mg  Mg0  1  0.75000000  0.48715600  0.56250800  1
  Mg  Mg1  1  0.25000000  0.51284400  0.43749200  1
  Mg  Mg2  1  0.75000000  0.99493800  0.03759800  1
  Mg  Mg3  1  0.25000000  0.00506200  0.96240200  1
  Ti  Ti0  1  0.50000000  0.50000000  0.00000000  1
  Ti  Ti1  1  0.00000000  0.50000000  0.00000000  1
  Sb  Sb0  1  0.50000000  0.00000000  0.50000000  1
  Sb  Sb1  1  0.00000000  0.00000000  0.50000000  1
  O  O0  1  0.42948500  0.66189300  0.68514400  1
  O  O1  1  0.07160800  0.81269500  0.17451900  1
  O  O2  1  0.92948500  0.33810700  0.31485600  1
  O  O3  1  0.57160800  0.18730500  0.82548100  1
  O  O4  1  0.42839200  0.81269500  0.17451900  1
  O  O5  1  0.92839200  0.18730500  0.82548100  1
  O  O6  1  0.25000000  0.13224200  0.57638800  1
  O  O7  1  0.07051500  0.66189300  0.68514400  1
  O  O8  1  0.75000000  0.62908800  0.92677800  1
  O  O9  1  0.57051500  0.33810700  0.31485600  1
  O  O10  1  0.75000000  0.86775800  0.42361200  1
  O  O11  1  0.25000000  0.37091200  0.07322200  1
loop_
_geom_bond_atom_site_label_1
_geom_bond_atom_site_label_2
_geom_bond_distance
_geom_bond_site_symmetry_2
Mg0 O9 2.100505 1_555
Mg0 O2 2.100505 1_555
Mg0 O10 2.119279 1_555
Mg0 O8 2.127330 1_555
Mg0 O5 2.514787 1_555
Mg0 O3 2.514787 1_555
Mg1 O0 2.100505 1_555
Mg1 O7 2.100505 1_555
Mg1 O6 2.119279 1_555
Mg1 O11 2.127330 1_555
Mg1 O1 2.514787 1_555
Mg1 O4 2.514787 1_555
Mg2 O8 2.028047 1_554
Mg2 O5 2.051244 1_564
Mg2 O3 2.051244 1_564
Mg2 O10 2.180154 1_555
Mg3 O11 2.028047 1_556
Mg3 O1 2.051244 1_546
Mg3 O4 2.051244 1_546
Mg3 O6 2.180154 1_555
O0 Ti0 1.965520 1_556
O0 Sb0 2.091614 1_565
O1 Ti1 1.995096 1_555
O1 Sb1 2.115431 1_565
O2 Ti1 1.965520 1_655
O2 Sb1 2.091614 1_655
O3 Ti0 1.995096 1_556
O3 Sb0 2.115431 1_555
O4 Ti0 1.995096 1_555
O4 Sb0 2.115431 1_565
O5 Ti1 1.995096 1_656
O5 Sb1 2.115431 1_655
O6 Sb0 2.107938 1_555
O6 Sb1 2.107938 1_555
O7 Ti1 1.965520 1_556
O7 Sb1 2.091614 1_565
O8 Ti1 2.092655 1_656
O8 Ti0 2.092655 1_556
O9 Ti0 1.965520 1_555
O9 Sb0 2.091614 1_555
O10 Sb0 2.107938 1_565
O10 Sb1 2.107938 1_665
O11 Ti0 2.092655 1_555
O11 Ti1 2.092655 1_555
