# generated using pymatgen
data_ScMnO3
_symmetry_space_group_name_H-M   'P 1'
_cell_length_a   5.85748645
_cell_length_b   5.85748599
_cell_length_c   11.18225755
_cell_angle_alpha   89.99999734
_cell_angle_beta   89.99999650
_cell_angle_gamma   120.00033005
_symmetry_Int_Tables_number   1
_chemical_formula_structural   ScMnO3
_chemical_formula_sum   'Sc6 Mn6 O18'
_cell_volume   332.26242417
_cell_formula_units_Z   6
loop_
 _symmetry_equiv_pos_site_id
 _symmetry_equiv_pos_as_xyz
  1  'x, y, z'
loop_
 _atom_site_type_symbol
 _atom_site_label
 _atom_site_symmetry_multiplicity
 _atom_site_fract_x
 _atom_site_fract_y
 _atom_site_fract_z
 _atom_site_occupancy
  Sc  Sc0  1  0.00000127  0.00000176  0.27530243  1
  Sc  Sc1  1  -0.00000151  -0.00000319  0.77530283  1
  Sc  Sc2  1  0.33333453  0.66666765  0.23025463  1
  Sc  Sc3  1  0.66666610  0.33333279  0.73025667  1
  Sc  Sc4  1  0.33333244  0.66666594  0.73025654  1
  Sc  Sc5  1  0.66666732  0.33333374  0.23025466  1
  Mn  Mn0  1  0.33320440  -0.00001046  0.00014733  1
  Mn  Mn1  1  0.33321797  0.33321830  0.50014692  1
  Mn  Mn2  1  0.00001022  0.66679653  0.50014812  1
  Mn  Mn3  1  -0.00001015  0.33320450  0.00014699  1
  Mn  Mn4  1  0.66678100  0.66678116  0.00014567  1
  Mn  Mn5  1  0.66679657  0.00001019  0.50014811  1
  O  O0  1  0.66666766  0.33333498  0.02553495  1
  O  O1  1  0.33333241  0.66666520  0.52553508  1
  O  O2  1  0.66666512  0.33333252  0.52553510  1
  O  O3  1  0.33333486  0.66666760  0.02553495  1
  O  O4  1  0.00000252  0.00000244  0.96935758  1
  O  O5  1  -0.00000255  -0.00000241  0.46935696  1
  O  O6  1  0.36520654  -0.00000059  0.83305604  1
  O  O7  1  0.36520102  0.36520105  0.33305423  1
  O  O8  1  0.00000054  0.63479762  0.33305446  1
  O  O9  1  -0.00000059  0.36520665  0.83305607  1
  O  O10  1  0.63479471  0.63479480  0.83305574  1
  O  O11  1  0.63479756  0.00000063  0.33305446  1
  O  O12  1  0.30249683  -0.00000023  0.16814896  1
  O  O13  1  0.30250071  0.30250073  0.66815186  1
  O  O14  1  0.00000032  0.69749977  0.66815181  1
  O  O15  1  -0.00000034  0.30249689  0.16814900  1
  O  O16  1  0.69750284  0.69750301  0.16814902  1
  O  O17  1  0.69749969  0.00000043  0.66815182  1
loop_
_geom_bond_atom_site_label_1
_geom_bond_atom_site_label_2
_geom_bond_distance
_geom_bond_site_symmetry_2
Mn0 O6 1.877834 1_554
Mn0 O12 1.887231 1_555
Mn0 O3 1.973338 1_545
Mn0 O0 1.973428 1_555
Mn0 O4 1.981899 1_554
Mn1 O7 1.877842 1_555
Mn1 O13 1.887271 1_555
Mn1 O1 1.973354 1_555
Mn1 O2 1.973356 1_555
Mn1 O5 1.981960 1_555
Mn2 O8 1.877859 1_555
Mn2 O14 1.887252 1_555
Mn2 O1 1.973341 1_555
Mn2 O2 1.973428 1_455
Mn2 O5 1.981896 1_565
Mn3 O9 1.877830 1_554
Mn3 O15 1.887236 1_555
Mn3 O0 1.973340 1_455
Mn3 O3 1.973427 1_555
Mn3 O4 1.981898 1_554
Mn4 O10 1.877813 1_554
Mn4 O16 1.887256 1_555
Mn4 O3 1.973354 1_555
Mn4 O0 1.973354 1_555
Mn4 O4 1.981961 1_664
Mn5 O11 1.877859 1_555
Mn5 O17 1.887252 1_555
Mn5 O2 1.973342 1_555
Mn5 O1 1.973429 1_545
Mn5 O5 1.981895 1_655
O0 Sc5 2.289229 1_555
O1 Sc4 2.289248 1_555
O2 Sc3 2.289249 1_555
O3 Sc2 2.289228 1_555
O4 Sc1 2.169970 1_555
O5 Sc0 2.169968 1_555
O6 Sc3 2.191791 1_555
O6 Sc4 2.191798 1_545
O6 Sc1 2.234552 1_555
O7 Sc2 2.191815 1_555
O7 Sc5 2.191816 1_555
O7 Sc0 2.234496 1_555
O8 Sc5 2.191802 1_455
O8 Sc2 2.191812 1_555
O8 Sc0 2.234531 1_565
O9 Sc4 2.191790 1_555
O9 Sc3 2.191798 1_455
O9 Sc1 2.234566 1_555
O10 Sc3 2.191803 1_555
O10 Sc4 2.191804 1_555
O10 Sc1 2.234519 1_665
O11 Sc2 2.191800 1_545
O11 Sc5 2.191808 1_555
O11 Sc0 2.234528 1_655
O12 Sc0 2.138983 1_555
O12 Sc5 2.163287 1_555
O12 Sc2 2.163291 1_545
O13 Sc1 2.138991 1_555
O13 Sc4 2.163274 1_555
O13 Sc3 2.163275 1_555
O14 Sc1 2.138974 1_565
O14 Sc3 2.163274 1_455
O14 Sc4 2.163275 1_555
O15 Sc0 2.138979 1_555
O15 Sc5 2.163289 1_455
O15 Sc2 2.163290 1_555
O16 Sc0 2.138985 1_665
O16 Sc2 2.163286 1_555
O16 Sc5 2.163291 1_555
O17 Sc1 2.138987 1_655
O17 Sc4 2.163275 1_545
O17 Sc3 2.163276 1_555
