# generated using pymatgen
data_Eu2In3Cu
_symmetry_space_group_name_H-M   'P 1'
_cell_length_a   3.74173900
_cell_length_b   4.96607734
_cell_length_c   8.60370888
_cell_angle_alpha   90.01252229
_cell_angle_beta   90.00000000
_cell_angle_gamma   90.00000000
_symmetry_Int_Tables_number   1
_chemical_formula_structural   Eu2In3Cu
_chemical_formula_sum   'Eu2 In3 Cu1'
_cell_volume   159.87209512
_cell_formula_units_Z   1
loop_
 _symmetry_equiv_pos_site_id
 _symmetry_equiv_pos_as_xyz
  1  'x, y, z'
loop_
 _atom_site_type_symbol
 _atom_site_label
 _atom_site_symmetry_multiplicity
 _atom_site_fract_x
 _atom_site_fract_y
 _atom_site_fract_z
 _atom_site_occupancy
  Eu  Eu0  1  0.00000000  0.99977400  0.01420000  1
  Eu  Eu1  1  0.00000000  0.50018900  0.49132000  1
  In  In0  1  0.50000000  0.49998000  0.83591200  1
  In  In1  1  0.50000000  0.49984600  0.18185900  1
  In  In2  1  0.50000000  0.00000500  0.64803300  1
  Cu  Cu0  1  0.50000000  0.00000500  0.32867600  1
loop_
_geom_bond_atom_site_label_1
_geom_bond_atom_site_label_2
_geom_bond_distance
_geom_bond_site_symmetry_2
Eu0 In1 3.427273 1_455
Eu0 In1 3.427273 1_555
Eu0 In1 3.427334 1_565
Eu0 In1 3.427334 1_465
Eu0 In0 3.465812 1_454
Eu0 In0 3.465812 1_554
Eu0 In0 3.467758 1_564
Eu0 In0 3.467758 1_464
Eu0 In2 3.664033 1_464
Eu0 In2 3.664033 1_564
Eu1 In1 3.254094 1_455
Eu1 In1 3.254094 1_555
Eu1 In2 3.387858 1_465
Eu1 In2 3.387858 1_565
Eu1 In2 3.389629 1_555
Eu1 In2 3.389629 1_455
Eu1 In0 3.505711 1_455
Eu1 In0 3.505711 1_555
In0 In2 2.962438 1_555
In0 In2 2.963239 1_565
In0 In1 2.976427 1_556
Cu0 In2 2.747655 1_555
Cu0 In1 2.785414 1_555
Cu0 In1 2.786329 1_545
Cu0 Eu0 3.289491 1_545
Cu0 Eu0 3.289491 1_645
Cu0 Eu1 3.408925 1_545
Cu0 Eu1 3.408925 1_645
Cu0 Eu1 3.409811 1_555
Cu0 Eu1 3.409811 1_655
