# generated using pymatgen
data_V3(Ni10B3)2
_symmetry_space_group_name_H-M   'P 1'
_cell_length_a   7.36559193
_cell_length_b   7.36559193
_cell_length_c   7.36559193
_cell_angle_alpha   60.00000000
_cell_angle_beta   60.00000000
_cell_angle_gamma   60.00000000
_symmetry_Int_Tables_number   1
_chemical_formula_structural   V3(Ni10B3)2
_chemical_formula_sum   'V3 Ni20 B6'
_cell_volume   282.55823223
_cell_formula_units_Z   1
loop_
 _symmetry_equiv_pos_site_id
 _symmetry_equiv_pos_as_xyz
  1  'x, y, z'
loop_
 _atom_site_type_symbol
 _atom_site_label
 _atom_site_symmetry_multiplicity
 _atom_site_fract_x
 _atom_site_fract_y
 _atom_site_fract_z
 _atom_site_occupancy
  V  V0  1  0.00000000  0.00000000  0.00000000  1
  V  V1  1  0.75000000  0.75000000  0.75000000  1
  V  V2  1  0.25000000  0.25000000  0.25000000  1
  Ni  Ni0  1  0.61842100  0.61842100  0.14473600  1
  Ni  Ni1  1  0.61842100  0.14473600  0.61842100  1
  Ni  Ni2  1  0.14473600  0.61842100  0.61842100  1
  Ni  Ni3  1  0.61842100  0.61842100  0.61842100  1
  Ni  Ni4  1  0.38157900  0.38157900  0.85526400  1
  Ni  Ni5  1  0.38157900  0.85526400  0.38157900  1
  Ni  Ni6  1  0.85526400  0.38157900  0.38157900  1
  Ni  Ni7  1  0.38157900  0.38157900  0.38157900  1
  Ni  Ni8  1  0.00000000  0.00000000  0.34023400  1
  Ni  Ni9  1  0.65976600  0.00000000  0.34023400  1
  Ni  Ni10  1  0.00000000  0.65976600  0.34023400  1
  Ni  Ni11  1  0.65976600  0.34023400  0.00000000  1
  Ni  Ni12  1  0.00000000  0.34023400  0.00000000  1
  Ni  Ni13  1  0.00000000  0.34023400  0.65976600  1
  Ni  Ni14  1  0.34023400  0.65976600  0.00000000  1
  Ni  Ni15  1  0.34023400  0.00000000  0.65976600  1
  Ni  Ni16  1  0.34023400  0.00000000  0.00000000  1
  Ni  Ni17  1  0.00000000  0.00000000  0.65976600  1
  Ni  Ni18  1  0.00000000  0.65976600  0.00000000  1
  Ni  Ni19  1  0.65976600  0.00000000  0.00000000  1
  B  B0  1  0.73021800  0.73021800  0.26978200  1
  B  B1  1  0.26978200  0.73021800  0.26978200  1
  B  B2  1  0.73021800  0.26978200  0.26978200  1
  B  B3  1  0.26978200  0.26978200  0.73021800  1
  B  B4  1  0.73021800  0.26978200  0.73021800  1
  B  B5  1  0.26978200  0.73021800  0.73021800  1
loop_
_geom_bond_atom_site_label_1
_geom_bond_atom_site_label_2
_geom_bond_distance
_geom_bond_site_symmetry_2
Ni0 V1 2.373935 1_554
Ni1 V1 2.373935 1_545
Ni2 V1 2.373935 1_455
Ni3 V1 2.373941 1_555
Ni4 V2 2.373935 1_556
Ni5 V2 2.373935 1_565
Ni6 V2 2.373935 1_655
Ni7 V2 2.373941 1_555
Ni8 V0 2.506025 1_555
Ni9 V0 2.506025 1_655
Ni10 V0 2.506025 1_565
Ni11 V0 2.506025 1_655
Ni12 V0 2.506025 1_555
Ni13 V0 2.506025 1_556
Ni14 V0 2.506025 1_565
Ni15 V0 2.506025 1_556
Ni16 V0 2.506025 1_555
Ni17 V0 2.506025 1_556
Ni18 V0 2.506025 1_565
Ni19 V0 2.506025 1_655
B0 Ni10 2.053743 1_655
B0 Ni9 2.053743 1_565
B0 Ni19 2.053743 1_565
B0 Ni18 2.053743 1_655
B0 Ni3 2.097465 1_555
B0 Ni6 2.097465 1_555
B0 Ni5 2.097465 1_555
B0 Ni0 2.097471 1_555
B1 Ni16 2.053743 1_565
B1 Ni8 2.053743 1_565
B1 Ni10 2.053743 1_555
B1 Ni14 2.053743 1_555
B1 Ni7 2.097465 1_555
B1 Ni2 2.097465 1_555
B1 Ni0 2.097465 1_555
B1 Ni5 2.097471 1_555
B2 Ni8 2.053743 1_655
B2 Ni12 2.053743 1_655
B2 Ni9 2.053743 1_555
B2 Ni11 2.053743 1_555
B2 Ni7 2.097465 1_555
B2 Ni0 2.097465 1_555
B2 Ni1 2.097465 1_555
B2 Ni6 2.097471 1_555
B3 Ni16 2.053743 1_556
B3 Ni12 2.053743 1_556
B3 Ni15 2.053743 1_555
B3 Ni13 2.053743 1_555
B3 Ni7 2.097465 1_555
B3 Ni2 2.097465 1_555
B3 Ni1 2.097465 1_555
B3 Ni4 2.097471 1_555
B4 Ni11 2.053743 1_556
B4 Ni13 2.053743 1_655
B4 Ni19 2.053743 1_556
B4 Ni17 2.053743 1_655
B4 Ni3 2.097465 1_555
B4 Ni6 2.097465 1_555
B4 Ni4 2.097465 1_555
B4 Ni1 2.097471 1_555
B5 Ni15 2.053743 1_565
B5 Ni14 2.053743 1_556
B5 Ni18 2.053743 1_556
B5 Ni17 2.053743 1_565
B5 Ni3 2.097465 1_555
B5 Ni5 2.097465 1_555
B5 Ni4 2.097465 1_555
B5 Ni2 2.097471 1_555
