# generated using pymatgen
data_Sr(NiN)2
_symmetry_space_group_name_H-M   'P 1'
_cell_length_a   3.41453400
_cell_length_b   3.41452714
_cell_length_c   6.05819800
_cell_angle_alpha   89.99999620
_cell_angle_beta   90.00005675
_cell_angle_gamma   119.99992441
_symmetry_Int_Tables_number   1
_chemical_formula_structural   Sr(NiN)2
_chemical_formula_sum   'Sr1 Ni2 N2'
_cell_volume   61.16971213
_cell_formula_units_Z   1
loop_
 _symmetry_equiv_pos_site_id
 _symmetry_equiv_pos_as_xyz
  1  'x, y, z'
loop_
 _atom_site_type_symbol
 _atom_site_label
 _atom_site_symmetry_multiplicity
 _atom_site_fract_x
 _atom_site_fract_y
 _atom_site_fract_z
 _atom_site_occupancy
  Sr  Sr0  1  0.00000000  0.00000000  0.50000000  1
  Ni  Ni0  1  0.66666900  0.33333500  0.11795900  1
  Ni  Ni1  1  0.33333100  0.66666500  0.88204100  1
  N  N0  1  0.66666500  0.33333300  0.79606500  1
  N  N1  1  0.33333500  0.66666700  0.20393500  1
loop_
_geom_bond_atom_site_label_1
_geom_bond_atom_site_label_2
_geom_bond_distance
_geom_bond_site_symmetry_2
N0 Ni0 1.950098 1_556
N0 Ni1 2.039025 1_555
N0 Ni1 2.039029 1_655
N0 Ni1 2.039031 1_545
N0 Sr0 2.665220 1_555
N0 Sr0 2.665224 1_665
N0 Sr0 2.665226 1_655
N1 Ni1 1.950098 1_554
N1 Ni0 2.039025 1_555
N1 Ni0 2.039029 1_455
N1 Ni0 2.039031 1_565
N1 Sr0 2.665220 1_665
N1 Sr0 2.665224 1_555
N1 Sr0 2.665226 1_565
