# generated using pymatgen
data_Li5V3P8O29
_symmetry_space_group_name_H-M   'P 1'
_cell_length_a   9.81713800
_cell_length_b   9.84196976
_cell_length_c   14.02431439
_cell_angle_alpha   89.71706761
_cell_angle_beta   89.78336387
_cell_angle_gamma   60.20210447
_symmetry_Int_Tables_number   1
_chemical_formula_structural   Li5V3P8O29
_chemical_formula_sum   'Li10 V6 P16 O58'
_cell_volume   1175.85629879
_cell_formula_units_Z   2
loop_
 _symmetry_equiv_pos_site_id
 _symmetry_equiv_pos_as_xyz
  1  'x, y, z'
loop_
 _atom_site_type_symbol
 _atom_site_label
 _atom_site_symmetry_multiplicity
 _atom_site_fract_x
 _atom_site_fract_y
 _atom_site_fract_z
 _atom_site_occupancy
  Li  Li0  1  0.22198200  0.08627200  0.93876200  1
  Li  Li1  1  0.09781800  0.22633000  0.44268900  1
  Li  Li2  1  0.67833400  0.09404900  0.44085800  1
  Li  Li3  1  0.33632200  0.33324600  0.11435400  1
  Li  Li4  1  0.69244400  0.22478800  0.94018500  1
  Li  Li5  1  0.08858800  0.68440500  0.94011800  1
  Li  Li6  1  0.77671800  0.31813100  0.55931600  1
  Li  Li7  1  0.23148300  0.68155600  0.43895800  1
  Li  Li8  1  0.90880900  0.77480100  0.56118300  1
  Li  Li9  1  0.77149800  0.90658200  0.06017300  1
  V  V0  1  0.56454500  0.43731800  0.75051300  1
  V  V1  1  0.43405200  0.56916200  0.24633600  1
  V  V2  1  0.99498400  0.43137200  0.24628200  1
  V  V3  1  0.99853800  0.56631800  0.75069400  1
  V  V4  1  0.42963000  0.99877900  0.74810400  1
  V  V5  1  0.56579000  0.00092300  0.25448800  1
  P  P0  1  0.23121800  0.08984900  0.15662200  1
  P  P1  1  0.08765700  0.23292700  0.65914400  1
  P  P2  1  0.67873400  0.09059000  0.65918800  1
  P  P3  1  0.33253200  0.33358000  0.87259800  1
  P  P4  1  0.33082200  0.33679600  0.37196500  1
  P  P5  1  0.67914700  0.22960200  0.15798900  1
  P  P6  1  0.76643500  0.31973700  0.34043200  1
  P  P7  1  0.08909400  0.68077100  0.15796600  1
  P  P8  1  0.91223100  0.31714300  0.84151700  1
  P  P9  1  0.23110700  0.68215700  0.65608100  1
  P  P10  1  0.31478900  0.76940200  0.84054000  1
  P  P11  1  0.66667600  0.66679800  0.62868500  1
  P  P12  1  0.66705100  0.66994200  0.12683000  1
  P  P13  1  0.31274800  0.91542200  0.34097600  1
  P  P14  1  0.91428200  0.76525800  0.34157400  1
  P  P15  1  0.76556800  0.91367300  0.84116000  1
  O  O0  1  0.23042800  0.01081300  0.42530900  1
  O  O1  1  0.25284900  0.08736000  0.66685700  1
  O  O2  1  0.00287500  0.22773100  0.92582400  1
  O  O3  1  0.08290300  0.25779400  0.16862700  1
  O  O4  1  0.37375700  0.11432900  0.17487500  1
  O  O5  1  0.32996500  0.18526700  0.83644600  1
  O  O6  1  0.51965000  0.10311400  0.67564100  1
  O  O7  1  0.75472100  0.00127100  0.93105400  1
  O  O8  1  0.66295300  0.07917100  0.16409100  1
  O  O9  1  0.18264900  0.33381400  0.32916900  1
  O  O10  1  0.09976100  0.38124500  0.67797200  1
  O  O11  1  0.48615400  0.18769500  0.33470500  1
  O  O12  1  0.33900300  0.33556000  0.97994300  1
  O  O13  1  0.32704400  0.33771600  0.47814200  1
  O  O14  1  0.48603300  0.33169900  0.83122800  1
  O  O15  1  0.10462600  0.51527800  0.17473400  1
  O  O16  1  0.18658400  0.48602100  0.83480600  1
  O  O17  1  0.66311600  0.25627300  0.66129700  1
  O  O18  1  0.78731900  0.21154200  0.24911900  1
  O  O19  1  0.76317300  0.23779300  0.43042800  1
  O  O20  1  0.75257600  0.23722000  0.06743000  1
  O  O21  1  0.51222100  0.37236600  0.17517200  1
  O  O22  1  0.33001400  0.48690200  0.32974900  1
  O  O23  1  0.74284200  0.33840600  0.83810400  1
  O  O24  1  0.38217800  0.52167000  0.67972400  1
  O  O25  1  0.08377600  0.66283900  0.66158400  1
  O  O26  1  0.99025000  0.21489200  0.74540900  1
  O  O27  1  0.00348700  0.24325600  0.56801500  1
  O  O28  1  0.00339100  0.75186100  0.43105100  1
  O  O29  1  0.91650900  0.33694500  0.33812200  1
  O  O30  1  0.61867700  0.47792800  0.32603300  1
  O  O31  1  0.25366200  0.65826900  0.15854800  1
  O  O32  1  0.66995500  0.51131100  0.67185600  1
  O  O33  1  0.47746700  0.61786100  0.82111200  1
  O  O34  1  0.23518600  0.75260300  0.92567500  1
  O  O35  1  0.24515900  0.74783200  0.56398500  1
  O  O36  1  0.21340600  0.79251000  0.74473300  1
  O  O37  1  0.33565400  0.74940900  0.34017600  1
  O  O38  1  0.81793700  0.52122300  0.17488800  1
  O  O39  1  0.90097400  0.47720800  0.82565100  1
  O  O40  1  0.52375900  0.66171600  0.17207100  1
  O  O41  1  0.67737200  0.65892500  0.02172000  1
  O  O42  1  0.67559100  0.65280600  0.52292700  1
  O  O43  1  0.52007100  0.80743300  0.67253200  1
  O  O44  1  0.90621900  0.61568600  0.32090000  1
  O  O45  1  0.81584700  0.66993100  0.66841400  1
  O  O46  1  0.33713700  0.91346900  0.84152000  1
  O  O47  1  0.21432100  0.99446900  0.24414500  1
  O  O48  1  0.23374700  0.01557600  0.06522500  1
  O  O49  1  0.47432500  0.90800600  0.32202200  1
  O  O50  1  0.66917800  0.81664400  0.16617300  1
  O  O51  1  0.61544000  0.90580000  0.82243000  1
  O  O52  1  0.91313500  0.74848100  0.84060700  1
  O  O53  1  0.99521700  0.75579900  0.06975200  1
  O  O54  1  0.00043100  0.78779700  0.24964200  1
  O  O55  1  0.74973200  0.91342300  0.34264500  1
  O  O56  1  0.76132800  0.00411600  0.56981000  1
  O  O57  1  0.78946600  0.00185500  0.75037600  1
loop_
_geom_bond_atom_site_label_1
_geom_bond_atom_site_label_2
_geom_bond_distance
_geom_bond_site_symmetry_2
Li0 O48 1.884796 1_556
Li0 O2 1.903189 1_555
Li0 O46 2.032398 1_545
Li0 O5 2.265666 1_555
Li1 O0 1.873917 1_555
Li1 O27 1.952382 1_555
Li1 O29 2.140560 1_455
Li1 O9 2.279502 1_555
Li2 O19 1.970949 1_555
Li2 O56 1.999099 1_555
Li2 O55 2.080186 1_545
Li2 O11 2.214655 1_555
Li3 O12 1.885289 1_554
Li3 O21 2.129044 1_555
Li3 O4 2.166790 1_555
Li3 O15 2.247391 1_555
Li4 O20 1.905227 1_556
Li4 O7 1.973571 1_555
Li4 O23 2.018279 1_555
Li4 O14 2.331661 1_555
Li5 O34 1.875975 1_555
Li5 O53 1.999762 1_456
Li5 O52 2.059622 1_455
Li5 O16 2.251645 1_555
Li6 O27 1.970953 1_655
Li6 O19 2.007632 1_555
Li6 O17 2.077037 1_555
Li6 O32 2.289314 1_555
Li7 O35 1.902129 1_555
Li7 O28 1.991567 1_555
Li7 O37 2.017402 1_555
Li7 O22 2.264419 1_555
Li8 O56 1.989532 1_565
Li8 O28 2.006664 1_655
Li8 O25 2.066170 1_655
Li8 O45 2.251705 1_555
Li9 O53 1.950607 1_555
Li9 O7 2.001916 1_564
Li9 O8 2.087698 1_565
Li9 O50 2.204960 1_555
O0 P13 1.477492 1_545
O1 P1 1.544285 1_555
O1 V4 1.889881 1_545
O2 P8 1.477696 1_455
O3 P0 1.577785 1_555
O3 V2 1.842622 1_455
O4 P0 1.555662 1_555
O4 V5 1.989655 1_555
O5 P3 1.559602 1_555
O5 V4 2.022244 1_545
O6 P2 1.521094 1_555
O6 V4 1.937272 1_545
O7 P15 1.504149 1_545
O8 P5 1.567536 1_555
O8 V5 1.954850 1_555
O9 P4 1.589419 1_555
O9 V2 1.978486 1_455
O10 P1 1.546327 1_555
O10 V3 1.886037 1_455
O11 P4 1.590385 1_555
O11 V5 1.959913 1_555
O12 P3 1.507650 1_555
O13 P4 1.489341 1_555
O14 P3 1.604243 1_555
O14 V0 1.932378 1_555
O15 P7 1.575156 1_555
O15 V2 1.927287 1_455
O16 P3 1.564017 1_555
O16 V3 1.995316 1_455
O17 P2 1.560560 1_555
O17 V0 1.993991 1_555
O18 P6 1.615669 1_555
O18 P5 1.616510 1_555
O19 P6 1.503243 1_555
O20 P5 1.477866 1_555
O21 P5 1.558736 1_555
O21 V1 1.967850 1_555
O22 P4 1.585202 1_555
O22 V1 1.967364 1_555
O23 P8 1.570352 1_555
O23 V0 1.957383 1_555
O24 P9 1.573105 1_555
O24 V0 1.846114 1_555
O25 P9 1.551261 1_555
O25 V3 1.983641 1_455
O26 P1 1.602310 1_655
O26 P8 1.629599 1_555
O27 P1 1.499892 1_555
O28 P14 1.499779 1_455
O29 P6 1.564581 1_555
O29 V2 1.951511 1_555
O30 P6 1.524272 1_555
O30 V1 1.930935 1_555
O31 P7 1.517798 1_555
O31 V1 1.970600 1_555
O32 P11 1.628327 1_555
O32 V0 1.884268 1_555
O33 P10 1.575622 1_555
O33 V0 1.835681 1_555
O34 P10 1.477493 1_555
O35 P9 1.477851 1_555
O36 P9 1.606134 1_555
O36 P10 1.621661 1_555
O37 P13 1.534698 1_555
O37 V1 2.030369 1_555
O38 P12 1.622880 1_555
O38 V2 1.811708 1_555
O39 P8 1.538558 1_555
O39 V3 1.899936 1_555
O40 P12 1.579209 1_555
O40 V1 1.863086 1_555
O41 P12 1.478009 1_555
O42 P11 1.488460 1_555
O43 P11 1.545043 1_555
O43 V4 1.951634 1_555
O44 P14 1.541933 1_555
O44 V2 1.893637 1_555
O45 P11 1.583405 1_555
O45 V3 1.942773 1_555
O46 P10 1.538884 1_555
O46 V4 1.995913 1_555
O47 P0 1.599126 1_565
O47 P13 1.623395 1_555
O48 P0 1.472719 1_555
O49 P13 1.572904 1_555
O49 V5 1.827763 1_565
O50 P12 1.558030 1_555
O50 V5 2.009154 1_565
O51 P15 1.537466 1_555
O51 V4 1.896650 1_555
O52 P15 1.549572 1_555
O52 V3 2.006899 1_555
O53 P7 1.499456 1_655
O54 P14 1.613109 1_455
O54 P7 1.616738 1_555
O55 P14 1.547584 1_555
O55 V5 1.997949 1_565
O56 P2 1.506634 1_555
O57 P15 1.618165 1_545
O57 P2 1.623515 1_555
