# generated using pymatgen
data_Lu3(CuSn)4
_symmetry_space_group_name_H-M   'P 1'
_cell_length_a   8.28092034
_cell_length_b   8.28092034
_cell_length_c   6.89342014
_cell_angle_alpha   66.46675217
_cell_angle_beta   66.46675217
_cell_angle_gamma   30.92975961
_symmetry_Int_Tables_number   1
_chemical_formula_structural   Lu3(CuSn)4
_chemical_formula_sum   'Lu3 Cu4 Sn4'
_cell_volume   221.13454232
_cell_formula_units_Z   1
loop_
 _symmetry_equiv_pos_site_id
 _symmetry_equiv_pos_as_xyz
  1  'x, y, z'
loop_
 _atom_site_type_symbol
 _atom_site_label
 _atom_site_symmetry_multiplicity
 _atom_site_fract_x
 _atom_site_fract_y
 _atom_site_fract_z
 _atom_site_occupancy
  Lu  Lu0  1  0.87083500  0.87083500  0.64508300  1
  Lu  Lu1  1  0.12916500  0.12916500  0.35491700  1
  Lu  Lu2  1  0.00000000  0.00000000  0.00000000  1
  Cu  Cu0  1  0.68741100  0.68741100  0.61608500  1
  Cu  Cu1  1  0.31258900  0.31258900  0.38391500  1
  Cu  Cu2  1  0.65720400  0.65720400  0.02362400  1
  Cu  Cu3  1  0.34279600  0.34279600  0.97637600  1
  Sn  Sn0  1  0.78335200  0.78335200  0.19508500  1
  Sn  Sn1  1  0.21664800  0.21664800  0.80491500  1
  Sn  Sn2  1  0.48793100  0.48793100  0.30778400  1
  Sn  Sn3  1  0.51206900  0.51206900  0.69221600  1
loop_
_geom_bond_atom_site_label_1
_geom_bond_atom_site_label_2
_geom_bond_distance
_geom_bond_site_symmetry_2
Lu0 Sn1 3.146447 1_655
Lu0 Sn1 3.146447 1_565
Lu0 Sn2 3.189770 1_565
Lu0 Sn2 3.189770 1_655
Lu0 Sn3 3.266567 1_655
Lu0 Sn3 3.266567 1_565
Lu0 Sn0 3.455133 1_556
Lu1 Sn0 3.146447 1_545
Lu1 Sn0 3.146447 1_455
Lu1 Sn3 3.189770 1_545
Lu1 Sn3 3.189770 1_455
Lu1 Sn2 3.266567 1_545
Lu1 Sn2 3.266567 1_455
Lu1 Sn1 3.455133 1_554
Lu2 Sn3 3.012581 1_454
Lu2 Sn3 3.012581 1_544
Lu2 Sn2 3.012581 1_455
Lu2 Sn2 3.012581 1_545
Lu2 Sn0 3.148685 1_445
Lu2 Sn1 3.148685 1_554
Cu0 Sn3 2.625248 1_555
Cu0 Cu2 2.646226 1_556
Cu0 Sn0 2.661798 1_555
Cu0 Sn1 2.700216 1_565
Cu0 Sn1 2.700216 1_655
Cu0 Cu1 2.963092 1_655
Cu0 Cu1 2.963092 1_565
Cu0 Lu0 3.016156 1_555
Cu0 Lu1 3.219963 1_565
Cu0 Lu1 3.219963 1_655
Cu1 Sn2 2.625248 1_555
Cu1 Cu3 2.646226 1_554
Cu1 Sn1 2.661798 1_555
Cu1 Sn0 2.700216 1_545
Cu1 Sn0 2.700216 1_455
Cu1 Lu1 3.016156 1_555
Cu1 Lu0 3.219963 1_455
Cu1 Lu0 3.219963 1_545
Cu2 Sn2 2.598526 1_555
Cu2 Sn1 2.619867 1_564
Cu2 Sn1 2.619867 1_654
Cu2 Sn0 2.724620 1_555
Cu2 Lu1 3.073199 1_655
Cu2 Lu1 3.073199 1_565
Cu2 Lu0 3.326363 1_554
Cu2 Lu2 3.396683 1_655
Cu2 Lu2 3.396683 1_565
Cu3 Sn3 2.598526 1_555
Cu3 Sn0 2.619867 1_546
Cu3 Sn0 2.619867 1_456
Cu3 Sn1 2.724620 1_555
Cu3 Lu0 3.073199 1_545
Cu3 Lu0 3.073199 1_455
Cu3 Lu1 3.326363 1_556
Cu3 Lu2 3.396683 1_566
Cu3 Lu2 3.396683 1_656
Sn2 Sn3 2.831471 1_555
