# generated using pymatgen
data_La2(SnPb)3
_symmetry_space_group_name_H-M   'P 1'
_cell_length_a   4.87655956
_cell_length_b   4.88667017
_cell_length_c   9.74773927
_cell_angle_alpha   90.00000000
_cell_angle_beta   90.00000000
_cell_angle_gamma   90.00000000
_symmetry_Int_Tables_number   1
_chemical_formula_structural   La2(SnPb)3
_chemical_formula_sum   'La2 Sn3 Pb3'
_cell_volume   232.28997330
_cell_formula_units_Z   1
loop_
 _symmetry_equiv_pos_site_id
 _symmetry_equiv_pos_as_xyz
  1  'x, y, z'
loop_
 _atom_site_type_symbol
 _atom_site_label
 _atom_site_symmetry_multiplicity
 _atom_site_fract_x
 _atom_site_fract_y
 _atom_site_fract_z
 _atom_site_occupancy
  La  La0  1  -0.00000000  0.00000000  0.24484364  1
  La  La1  1  -0.00000000  0.00000000  0.75515636  1
  Sn  Sn0  1  -0.00000000  0.50000000  -0.00000000  1
  Sn  Sn1  1  0.50000000  0.00000000  0.50000000  1
  Sn  Sn2  1  0.50000000  0.00000000  -0.00000000  1
  Pb  Pb0  1  0.50000000  0.50000000  0.24773108  1
  Pb  Pb1  1  0.50000000  0.50000000  0.75226892  1
  Pb  Pb2  1  -0.00000000  0.50000000  0.50000000  1
loop_
_geom_bond_atom_site_label_1
_geom_bond_atom_site_label_2
_geom_bond_distance
_geom_bond_site_symmetry_2
La0 Sn2 3.411951 1_455
La0 Sn2 3.411951 1_555
La0 Sn0 3.415566 1_555
La0 Sn0 3.415566 1_545
La0 Pb0 3.451940 1_545
La0 Pb0 3.451940 1_455
La0 Pb0 3.451940 1_555
La0 Pb0 3.451940 1_445
La0 Sn1 3.483010 1_455
La0 Sn1 3.483010 1_555
La0 Pb2 3.486551 1_555
La0 Pb2 3.486551 1_545
La1 Sn2 3.411951 1_456
La1 Sn2 3.411951 1_556
La1 Sn0 3.415566 1_556
La1 Sn0 3.415566 1_546
La1 Pb1 3.451940 1_455
La1 Pb1 3.451940 1_445
La1 Pb1 3.451940 1_555
La1 Pb1 3.451940 1_545
La1 Sn1 3.483010 1_455
La1 Sn1 3.483010 1_555
La1 Pb2 3.486551 1_555
La1 Pb2 3.486551 1_545
Pb0 Sn0 3.431698 1_655
Pb0 Sn0 3.431698 1_555
Pb0 Sn2 3.435292 1_565
Pb0 Sn2 3.435292 1_555
Pb0 Pb2 3.462967 1_655
Pb0 Pb2 3.462967 1_555
Pb0 Sn1 3.466529 1_565
Pb0 Sn1 3.466529 1_555
Pb1 Sn0 3.431698 1_556
Pb1 Sn0 3.431698 1_656
Pb1 Sn2 3.435292 1_556
Pb1 Sn2 3.435292 1_566
Pb1 Pb2 3.462967 1_655
Pb1 Pb2 3.462967 1_555
Pb1 Sn1 3.466529 1_565
Pb1 Sn1 3.466529 1_555
Pb2 Sn1 3.451825 1_555
Pb2 Sn1 3.451825 1_465
Pb2 Sn1 3.451825 1_455
Pb2 Sn1 3.451825 1_565
