# generated using pymatgen
data_CN3Cl
_symmetry_space_group_name_H-M   'P 1'
_cell_length_a   10.66660300
_cell_length_b   4.02110800
_cell_length_c   9.82868849
_cell_angle_alpha   80.18028303
_cell_angle_beta   90.00000000
_cell_angle_gamma   90.00000000
_symmetry_Int_Tables_number   1
_chemical_formula_structural   CN3Cl
_chemical_formula_sum   'C4 N12 Cl4'
_cell_volume   415.39153083
_cell_formula_units_Z   4
loop_
 _symmetry_equiv_pos_site_id
 _symmetry_equiv_pos_as_xyz
  1  'x, y, z'
loop_
 _atom_site_type_symbol
 _atom_site_label
 _atom_site_symmetry_multiplicity
 _atom_site_fract_x
 _atom_site_fract_y
 _atom_site_fract_z
 _atom_site_occupancy
  C  C0  1  0.36076200  0.82029400  0.09229800  1
  C  C1  1  0.86076200  0.17970600  0.40770200  1
  C  C2  1  0.63923800  0.17970600  0.90770200  1
  C  C3  1  0.13923800  0.82029400  0.59229800  1
  N  N0  1  0.46372900  0.88532300  0.99167600  1
  N  N1  1  0.96372900  0.11467700  0.50832400  1
  N  N2  1  0.53627100  0.11467700  0.00832400  1
  N  N3  1  0.03627100  0.88532300  0.49167600  1
  N  N4  1  0.26353400  0.68188200  0.02926100  1
  N  N5  1  0.76353400  0.31811800  0.47073900  1
  N  N6  1  0.73646600  0.31811800  0.97073900  1
  N  N7  1  0.23646600  0.68188200  0.52926100  1
  N  N8  1  0.37539600  0.85874800  0.21817600  1
  N  N9  1  0.87539600  0.14125200  0.28182400  1
  N  N10  1  0.62460400  0.14125200  0.78182400  1
  N  N11  1  0.12460400  0.85874800  0.71817600  1
  Cl  Cl0  1  0.13539800  0.59850700  0.12653900  1
  Cl  Cl1  1  0.63539800  0.40149300  0.37346100  1
  Cl  Cl2  1  0.86460200  0.40149300  0.87346100  1
  Cl  Cl3  1  0.36460200  0.59850700  0.62653900  1
loop_
_geom_bond_atom_site_label_1
_geom_bond_atom_site_label_2
_geom_bond_distance
_geom_bond_site_symmetry_2
C0 N8 1.282276 1_555
C0 N4 1.373616 1_555
C0 N0 1.471235 1_554
C1 N9 1.282276 1_555
C1 N5 1.373616 1_555
C1 N1 1.471235 1_555
C2 N10 1.282276 1_555
C2 N6 1.373616 1_555
C2 N2 1.471235 1_556
C3 N11 1.282276 1_555
C3 N7 1.373616 1_555
C3 N3 1.471235 1_555
N0 N2 1.235936 1_566
N1 N3 1.235936 1_645
Cl0 N4 1.668920 1_555
Cl1 N5 1.668920 1_555
Cl2 N6 1.668920 1_555
Cl3 N7 1.668920 1_555
