# generated using pymatgen
data_SrLaCuRuO6
_symmetry_space_group_name_H-M   'P 1'
_cell_length_a   5.81242200
_cell_length_b   5.70343941
_cell_length_c   7.70900130
_cell_angle_alpha   89.80954195
_cell_angle_beta   90.00000000
_cell_angle_gamma   90.00000000
_symmetry_Int_Tables_number   1
_chemical_formula_structural   SrLaCuRuO6
_chemical_formula_sum   'Sr2 La2 Cu2 Ru2 O12'
_cell_volume   255.55812292
_cell_formula_units_Z   2
loop_
 _symmetry_equiv_pos_site_id
 _symmetry_equiv_pos_as_xyz
  1  'x, y, z'
loop_
 _atom_site_type_symbol
 _atom_site_label
 _atom_site_symmetry_multiplicity
 _atom_site_fract_x
 _atom_site_fract_y
 _atom_site_fract_z
 _atom_site_occupancy
  Sr  Sr0  1  0.46650800  0.50300600  0.75163300  1
  Sr  Sr1  1  0.03349200  0.00300600  0.25163300  1
  La  La0  1  0.94571300  0.98835700  0.75307500  1
  La  La1  1  0.55428700  0.48835700  0.25307500  1
  Cu  Cu0  1  0.48530000  0.99604900  0.00276200  1
  Cu  Cu1  1  0.01470000  0.49604900  0.50276200  1
  Ru  Ru0  1  0.49073700  0.00006400  0.50034400  1
  Ru  Ru1  1  0.00926300  0.50006400  0.00034400  1
  O  O0  1  0.01819300  0.40762000  0.75091300  1
  O  O1  1  0.52672600  0.06778700  0.75032300  1
  O  O2  1  0.97327400  0.56778700  0.25032300  1
  O  O3  1  0.48180700  0.90762000  0.25091300  1
  O  O4  1  0.19733300  0.78375900  0.95509300  1
  O  O5  1  0.70450400  0.73126900  0.53656400  1
  O  O6  1  0.76146000  0.20852400  0.45652700  1
  O  O7  1  0.28977700  0.31356400  0.04276700  1
  O  O8  1  0.79549600  0.23126900  0.03656400  1
  O  O9  1  0.30266700  0.28375900  0.45509300  1
  O  O10  1  0.21022300  0.81356400  0.54276700  1
  O  O11  1  0.73854000  0.70852400  0.95652700  1
loop_
_geom_bond_atom_site_label_1
_geom_bond_atom_site_label_2
_geom_bond_distance
_geom_bond_site_symmetry_2
La0 O0 2.428071 1_665
La0 O4 2.431858 1_655
La0 O10 2.448843 1_655
La0 O1 2.477185 1_565
La0 O11 2.537827 1_555
La0 O5 2.630158 1_555
La0 O8 2.734584 1_566
La0 O6 2.816180 1_565
La1 O3 2.428071 1_555
La1 O9 2.431858 1_555
La1 O7 2.448843 1_555
La1 O2 2.477185 1_555
La1 O6 2.537827 1_555
La1 O8 2.630158 1_555
La1 O5 2.734584 1_555
La1 O11 2.816180 1_554
Cu0 O3 1.976846 1_555
Cu0 O1 2.001802 1_564
Cu0 O4 2.098941 1_554
Cu0 O7 2.160978 1_565
Cu0 O11 2.233100 1_554
Cu0 O8 2.262916 1_565
Cu1 O0 1.976846 1_555
Cu1 O2 2.001802 1_455
Cu1 O9 2.098941 1_555
Cu1 O10 2.160978 1_555
Cu1 O6 2.233100 1_455
Cu1 O5 2.262916 1_455
O0 Ru1 1.996204 1_556
O0 Sr0 2.661990 1_555
O1 Ru0 1.977768 1_555
O1 Sr0 2.506854 1_555
O2 Ru1 1.977768 1_655
O2 Sr1 2.506854 1_665
O3 Ru0 1.996204 1_565
O3 Sr1 2.661990 1_565
O4 Ru1 1.982660 1_556
O4 Sr0 2.736545 1_555
O4 Sr1 2.777675 1_566
O5 Ru0 1.992284 1_565
O5 Sr0 2.518535 1_555
O6 Ru0 2.000271 1_555
O6 Sr1 2.526115 1_655
O7 Ru1 1.973449 1_555
O7 Sr0 2.691398 1_554
O7 Sr1 2.816018 1_555
O8 Ru1 1.992284 1_655
O8 Sr1 2.518535 1_655
O9 Ru0 1.982660 1_555
O9 Sr1 2.736545 1_555
O9 Sr0 2.777675 1_555
O10 Ru0 1.973449 1_565
O10 Sr1 2.691398 1_565
O10 Sr0 2.816018 1_555
O11 Ru1 2.000271 1_656
O11 Sr0 2.526115 1_555
