# generated using pymatgen
data_Sm2Sb5
_symmetry_space_group_name_H-M   'P 1'
_cell_length_a   4.25023869
_cell_length_b   13.41603469
_cell_length_c   15.14756040
_cell_angle_alpha   102.61357881
_cell_angle_beta   90.00000000
_cell_angle_gamma   90.00000000
_symmetry_Int_Tables_number   1
_chemical_formula_structural   Sm2Sb5
_chemical_formula_sum   'Sm8 Sb20'
_cell_volume   842.88814142
_cell_formula_units_Z   4
loop_
 _symmetry_equiv_pos_site_id
 _symmetry_equiv_pos_as_xyz
  1  'x, y, z'
loop_
 _atom_site_type_symbol
 _atom_site_label
 _atom_site_symmetry_multiplicity
 _atom_site_fract_x
 _atom_site_fract_y
 _atom_site_fract_z
 _atom_site_occupancy
  Sm  Sm0  1  0.75000000  0.66909293  0.42161396  1
  Sm  Sm1  1  0.25000000  0.33090707  0.57838604  1
  Sm  Sm2  1  0.75000000  0.39301502  0.22811983  1
  Sm  Sm3  1  0.25000000  0.60698498  0.77188017  1
  Sm  Sm4  1  0.75000000  0.95059242  0.63308675  1
  Sm  Sm5  1  0.25000000  0.04940758  0.36691325  1
  Sm  Sm6  1  0.75000000  0.66399933  0.14473621  1
  Sm  Sm7  1  0.25000000  0.33600067  0.85526379  1
  Sb  Sb0  1  0.75000000  0.42370223  0.44629447  1
  Sb  Sb1  1  0.25000000  0.57629777  0.55370553  1
  Sb  Sb2  1  0.75000000  0.71631555  0.94197155  1
  Sb  Sb3  1  0.25000000  0.28368445  0.05802845  1
  Sb  Sb4  1  0.75000000  0.42001678  0.02517890  1
  Sb  Sb5  1  0.25000000  0.57998322  0.97482110  1
  Sb  Sb6  1  0.75000000  0.86191377  0.32477004  1
  Sb  Sb7  1  0.25000000  0.13808623  0.67522996  1
  Sb  Sb8  1  0.75000000  0.14973584  0.81823531  1
  Sb  Sb9  1  0.25000000  0.85026416  0.18176469  1
  Sb  Sb10  1  0.75000000  0.70796239  0.64631899  1
  Sb  Sb11  1  0.25000000  0.29203761  0.35368101  1
  Sb  Sb12  1  0.75000000  0.14099291  0.22673766  1
  Sb  Sb13  1  0.25000000  0.85900709  0.77326234  1
  Sb  Sb14  1  0.75000000  0.42386868  0.73540191  1
  Sb  Sb15  1  0.25000000  0.57613132  0.26459809  1
  Sb  Sb16  1  0.75000000  0.14324011  0.52222791  1
  Sb  Sb17  1  0.25000000  0.85675989  0.47777209  1
  Sb  Sb18  1  0.75000000  0.96834394  0.88561521  1
  Sb  Sb19  1  0.25000000  0.03165606  0.11438479  1
loop_
_geom_bond_atom_site_label_1
_geom_bond_atom_site_label_2
_geom_bond_distance
_geom_bond_site_symmetry_2
Sb0 Sb11 2.919266 1_555
Sb0 Sb11 2.919266 1_655
Sb0 Sb1 3.146378 1_555
Sb0 Sb1 3.146378 1_655
Sb0 Sm2 3.239915 1_555
Sb0 Sm1 3.340270 1_655
Sb0 Sm1 3.340270 1_555
Sb0 Sm0 3.393477 1_555
Sb1 Sb10 2.919266 1_455
Sb1 Sb10 2.919266 1_555
Sb1 Sm3 3.239915 1_555
Sb1 Sm0 3.340270 1_455
Sb1 Sm0 3.340270 1_555
Sb1 Sm1 3.393477 1_555
Sb2 Sb5 2.916608 1_655
Sb2 Sb5 2.916608 1_555
Sb2 Sm6 3.296602 1_556
Sb2 Sm3 3.413979 1_555
Sb2 Sm3 3.413979 1_655
Sb3 Sb4 2.916608 1_455
Sb3 Sb4 2.916608 1_555
Sb3 Sm7 3.296602 1_554
Sb3 Sm2 3.413979 1_455
Sb3 Sm2 3.413979 1_555
Sb4 Sm2 3.172923 1_555
Sb4 Sb5 3.227814 1_554
Sb4 Sb5 3.227814 1_654
Sb4 Sm7 3.338266 1_554
Sb4 Sm7 3.338266 1_654
Sb4 Sm6 3.377139 1_555
Sb5 Sm3 3.172923 1_555
Sb5 Sm6 3.338266 1_456
Sb5 Sm6 3.338266 1_556
Sb5 Sm7 3.377139 1_555
Sb6 Sb9 3.014140 1_555
Sb6 Sb9 3.014140 1_655
Sb6 Sm0 3.240577 1_555
Sb6 Sm5 3.248028 1_565
Sb6 Sm5 3.248028 1_665
Sb6 Sm6 3.365213 1_555
Sb7 Sb8 3.014140 1_455
Sb7 Sb8 3.014140 1_555
Sb7 Sm1 3.240577 1_555
Sb7 Sm4 3.248028 1_445
Sb7 Sm4 3.248028 1_545
Sb7 Sm7 3.365213 1_555
Sb8 Sm7 3.234694 1_555
Sb8 Sm7 3.234694 1_655
Sb8 Sm4 3.425057 1_545
Sb9 Sm6 3.234694 1_555
Sb9 Sm6 3.234694 1_455
Sb9 Sm5 3.425057 1_565
Sb10 Sb13 3.258553 1_555
Sb10 Sb13 3.258553 1_655
Sb10 Sm4 3.304697 1_555
Sb10 Sm0 3.328982 1_555
Sb10 Sm3 3.330782 1_555
Sb10 Sm3 3.330782 1_655
Sb11 Sb12 3.258553 1_455
Sb11 Sb12 3.258553 1_555
Sb11 Sm5 3.304697 1_555
Sb11 Sm1 3.328982 1_555
Sb11 Sm2 3.330782 1_555
Sb11 Sm2 3.330782 1_455
Sb12 Sb19 2.910995 1_655
Sb12 Sb19 2.910995 1_555
Sb12 Sm2 3.376627 1_555
Sb12 Sm5 3.416694 1_555
Sb12 Sm5 3.416694 1_655
Sb13 Sb18 2.910995 1_455
Sb13 Sb18 2.910995 1_555
Sb13 Sm3 3.376627 1_555
Sb13 Sm4 3.416694 1_455
Sb13 Sm4 3.416694 1_555
Sb14 Sm7 3.183871 1_555
Sb14 Sm7 3.183871 1_655
Sb14 Sm3 3.203737 1_555
Sb14 Sm3 3.203737 1_655
Sb14 Sm1 3.229996 1_655
Sb14 Sm1 3.229996 1_555
Sb15 Sm6 3.183871 1_555
Sb15 Sm6 3.183871 1_455
Sb15 Sm2 3.203737 1_455
Sb15 Sm2 3.203737 1_555
Sb15 Sm0 3.229996 1_455
Sb15 Sm0 3.229996 1_555
Sb16 Sb7 3.156297 1_555
Sb16 Sb7 3.156297 1_655
Sb16 Sm5 3.215941 1_655
Sb16 Sm5 3.215941 1_555
Sb16 Sm1 3.262422 1_655
Sb16 Sm1 3.262422 1_555
Sb16 Sm4 3.375705 1_545
Sb17 Sb6 3.156297 1_455
Sb17 Sb6 3.156297 1_555
Sb17 Sm4 3.215941 1_455
Sb17 Sm4 3.215941 1_555
Sb17 Sm0 3.262422 1_455
Sb17 Sm0 3.262422 1_555
Sb17 Sm5 3.375705 1_565
Sb18 Sb8 2.837026 1_565
Sb18 Sm4 3.780334 1_555
Sb19 Sb9 2.837026 1_545
Sb19 Sm5 3.780334 1_555
