# generated using pymatgen
data_Ta5Ge3
_symmetry_space_group_name_H-M   'P 1'
_cell_length_a   5.16181354
_cell_length_b   7.60266141
_cell_length_c   7.60266155
_cell_angle_alpha   83.38237392
_cell_angle_beta   70.15515107
_cell_angle_gamma   70.15515844
_symmetry_Int_Tables_number   1
_chemical_formula_structural   Ta5Ge3
_chemical_formula_sum   'Ta10 Ge6'
_cell_volume   263.97192787
_cell_formula_units_Z   2
loop_
 _symmetry_equiv_pos_site_id
 _symmetry_equiv_pos_as_xyz
  1  'x, y, z'
loop_
 _atom_site_type_symbol
 _atom_site_label
 _atom_site_symmetry_multiplicity
 _atom_site_fract_x
 _atom_site_fract_y
 _atom_site_fract_z
 _atom_site_occupancy
  Ta  Ta0  1  0.27671580  0.14852829  0.29804211  1
  Ta  Ta1  1  0.72328420  0.85147171  0.70195789  1
  Ta  Ta2  1  0.42524409  0.29804211  0.85147171  1
  Ta  Ta3  1  0.57475591  0.70195789  0.14852829  1
  Ta  Ta4  1  0.92524409  0.85147171  0.29804211  1
  Ta  Ta5  1  0.22328420  0.70195789  0.85147171  1
  Ta  Ta6  1  0.77671580  0.29804211  0.14852829  1
  Ta  Ta7  1  0.07475591  0.14852829  0.70195789  1
  Ta  Ta8  1  0.75000000  0.50000000  0.50000000  1
  Ta  Ta9  1  0.25000000  0.50000000  0.50000000  1
  Ge  Ge0  1  0.83340311  0.50000000  0.83319378  1
  Ge  Ge1  1  0.66659689  0.16680622  0.50000000  1
  Ge  Ge2  1  0.33340411  0.83319378  0.50000000  1
  Ge  Ge3  1  0.16659589  0.50000000  0.16680622  1
  Ge  Ge4  1  0.75000000  -0.00000000  -0.00000000  1
  Ge  Ge5  1  0.25000000  0.00000000  -0.00000000  1
loop_
_geom_bond_atom_site_label_1
_geom_bond_atom_site_label_2
_geom_bond_distance
_geom_bond_site_symmetry_2
Ta8 Ta9 2.580907 1_555
Ta8 Ta9 2.580907 1_655
Ge0 Ta3 2.677855 1_556
Ge0 Ta6 2.677855 1_556
Ge0 Ta7 2.682934 1_655
Ge0 Ta1 2.682934 1_555
Ge0 Ta9 2.709735 1_655
Ge0 Ta8 2.709736 1_555
Ge0 Ta2 2.960399 1_555
Ge0 Ta5 2.960399 1_655
Ge0 Ta5 2.960407 1_555
Ge0 Ta2 2.960407 1_655
Ge1 Ta4 2.677855 1_545
Ge1 Ta1 2.677855 1_545
Ge1 Ta2 2.682934 1_555
Ge1 Ta6 2.682934 1_555
Ge1 Ta9 2.709735 1_555
Ge1 Ta8 2.709736 1_555
Ge1 Ta7 2.960399 1_655
Ge1 Ta0 2.960399 1_555
Ge1 Ta0 2.960407 1_655
Ge1 Ta7 2.960407 1_555
Ge2 Ta7 2.677855 1_565
Ge2 Ta0 2.677855 1_565
Ge2 Ta3 2.682934 1_555
Ge2 Ta5 2.682934 1_555
Ge2 Ta8 2.709733 1_555
Ge2 Ta9 2.709738 1_555
Ge2 Ta1 2.960394 1_555
Ge2 Ta4 2.960403 1_555
Ge2 Ta4 2.960403 1_455
Ge2 Ta1 2.960412 1_455
Ge3 Ta2 2.677855 1_554
Ge3 Ta5 2.677855 1_554
Ge3 Ta4 2.682934 1_455
Ge3 Ta0 2.682934 1_555
Ge3 Ta8 2.709733 1_455
Ge3 Ta9 2.709738 1_555
Ge3 Ta6 2.960394 1_455
Ge3 Ta3 2.960403 1_455
Ge3 Ta3 2.960403 1_555
Ge3 Ta6 2.960412 1_555
Ge4 Ge5 2.580907 1_655
Ge4 Ge5 2.580907 1_555
Ge4 Ta0 2.708521 1_555
Ge4 Ta5 2.708521 1_644
Ge4 Ta7 2.708521 1_654
Ge4 Ta2 2.708522 1_554
Ge4 Ta3 2.708527 1_545
Ge4 Ta6 2.708527 1_555
Ge4 Ta4 2.708527 1_545
Ge4 Ta1 2.708527 1_544
Ge5 Ta1 2.708521 1_544
Ge5 Ta6 2.708521 1_455
Ge5 Ta4 2.708521 1_445
Ge5 Ta3 2.708522 1_545
Ge5 Ta2 2.708527 1_554
Ge5 Ta5 2.708527 1_544
Ge5 Ta7 2.708527 1_554
Ge5 Ta0 2.708527 1_555
