# generated using pymatgen
data_TiCrAgS4
_symmetry_space_group_name_H-M   'P 1'
_cell_length_a   5.95498600
_cell_length_b   6.90978665
_cell_length_c   13.36666032
_cell_angle_alpha   89.68520588
_cell_angle_beta   89.80957754
_cell_angle_gamma   89.94106892
_symmetry_Int_Tables_number   1
_chemical_formula_structural   TiCrAgS4
_chemical_formula_sum   'Ti4 Cr4 Ag4 S16'
_cell_volume   549.99547915
_cell_formula_units_Z   4
loop_
 _symmetry_equiv_pos_site_id
 _symmetry_equiv_pos_as_xyz
  1  'x, y, z'
loop_
 _atom_site_type_symbol
 _atom_site_label
 _atom_site_symmetry_multiplicity
 _atom_site_fract_x
 _atom_site_fract_y
 _atom_site_fract_z
 _atom_site_occupancy
  Ti  Ti0  1  0.00586100  0.48259900  0.75068900  1
  Ti  Ti1  1  0.50690500  0.77107300  0.75087900  1
  Ti  Ti2  1  0.50061900  0.24733500  0.24944300  1
  Ti  Ti3  1  0.50028700  0.74719800  0.24997700  1
  Cr  Cr0  1  0.99871800  0.99527400  0.75107800  1
  Cr  Cr1  1  0.99985400  0.00068700  0.24918700  1
  Cr  Cr2  1  0.99951500  0.50071700  0.25082300  1
  Cr  Cr3  1  0.49858000  0.25233300  0.74913800  1
  Ag  Ag0  1  0.34930000  0.99884400  0.00195800  1
  Ag  Ag1  1  0.64458000  0.49702400  0.49924200  1
  Ag  Ag2  1  0.02675100  0.00060300  0.49943200  1
  Ag  Ag3  1  0.96859300  0.49833200  0.99760100  1
  S  S0  1  0.83794200  0.75015900  0.64517100  1
  S  S1  1  0.83662500  0.25302600  0.35476800  1
  S  S2  1  0.17302200  0.23791400  0.85583600  1
  S  S3  1  0.16239100  0.75416100  0.14580400  1
  S  S4  1  0.16343400  0.75194800  0.85530700  1
  S  S5  1  0.16163000  0.24946900  0.14561600  1
  S  S6  1  0.82813500  0.24767500  0.64523900  1
  S  S7  1  0.83692400  0.74662400  0.35483400  1
  S  S8  1  0.66936400  0.00838400  0.85466600  1
  S  S9  1  0.66951500  0.00142700  0.14576700  1
  S  S10  1  0.33900000  0.50071400  0.64690200  1
  S  S11  1  0.33050000  0.49988100  0.35340000  1
  S  S12  1  0.32847100  0.00600200  0.64667400  1
  S  S13  1  0.33177300  0.00021800  0.35381600  1
  S  S14  1  0.66268400  0.49873700  0.85157100  1
  S  S15  1  0.66902700  0.50164600  0.14518300  1
loop_
_geom_bond_atom_site_label_1
_geom_bond_atom_site_label_2
_geom_bond_distance
_geom_bond_site_symmetry_2
Cr0 S4 2.389548 1_655
Cr0 S8 2.398968 1_565
Cr0 S12 2.406236 1_665
Cr0 S0 2.414109 1_555
Cr0 S2 2.426548 1_665
Cr0 S6 2.460440 1_565
Cr1 S3 2.400364 1_645
Cr1 S5 2.401688 1_655
Cr1 S9 2.408052 1_555
Cr1 S13 2.425093 1_655
Cr1 S7 2.446334 1_545
Cr1 S1 2.447675 1_555
Cr2 S1 2.401848 1_555
Cr2 S7 2.402317 1_555
Cr2 S11 2.404728 1_655
Cr2 S15 2.426007 1_555
Cr2 S5 2.436773 1_655
Cr2 S3 2.438353 1_655
Cr3 S10 2.386543 1_555
Cr3 S6 2.400705 1_555
Cr3 S14 2.401342 1_555
Cr3 S2 2.404777 1_555
Cr3 S12 2.416088 1_555
Cr3 S8 2.417694 1_555
Ag0 S9 2.712257 1_565
Ag0 S8 2.736268 1_564
Ag0 S2 2.760479 1_564
Ag0 S3 2.783560 1_555
Ag0 S5 2.820204 1_565
Ag0 S4 2.834268 1_554
Ag1 S10 2.680337 1_555
Ag1 S11 2.706020 1_555
Ag1 S1 2.810124 1_555
Ag1 S6 2.818693 1_555
Ag1 S7 2.822259 1_555
Ag1 S0 2.871689 1_555
Ag2 S13 2.657883 1_555
Ag2 S12 2.669768 1_555
Ag2 S0 2.829511 1_445
Ag2 S1 2.834889 1_455
Ag2 S6 2.851139 1_455
Ag2 S7 2.854684 1_445
Ag3 S15 2.655437 1_556
Ag3 S14 2.674350 1_555
Ag3 S4 2.826258 1_655
Ag3 S5 2.857693 1_656
Ag3 S2 2.885883 1_655
Ag3 S3 2.904972 1_656
S0 Ti1 2.426231 1_555
S0 Ti0 2.526682 1_655
S1 Ti2 2.450859 1_555
S2 Ti0 2.409253 1_555
S3 Ti3 2.451065 1_555
S4 Ti1 2.475670 1_555
S4 Ti0 2.518088 1_555
S5 Ti2 2.453497 1_555
S6 Ti0 2.404259 1_655
S7 Ti3 2.449849 1_555
S8 Ti1 2.363583 1_545
S9 Ti2 2.415017 1_555
S9 Ti3 2.451356 1_545
S10 Ti0 2.419949 1_555
S10 Ti1 2.542214 1_555
S11 Ti3 2.412890 1_555
S11 Ti2 2.452747 1_555
S12 Ti1 2.384477 1_545
S13 Ti2 2.416819 1_555
S13 Ti3 2.450286 1_545
S14 Ti0 2.447446 1_655
S14 Ti1 2.487978 1_555
S15 Ti3 2.421546 1_555
S15 Ti2 2.450140 1_555
