# generated using pymatgen
data_K2MgMn2P6(HO10)2
_symmetry_space_group_name_H-M   'P 1'
_cell_length_a   7.17896001
_cell_length_b   7.25919768
_cell_length_c   9.94635171
_cell_angle_alpha   71.80782083
_cell_angle_beta   74.28416594
_cell_angle_gamma   69.51351069
_symmetry_Int_Tables_number   1
_chemical_formula_structural   K2MgMn2P6(HO10)2
_chemical_formula_sum   'K2 Mg1 Mn2 P6 H2 O20'
_cell_volume   453.61706895
_cell_formula_units_Z   1
loop_
 _symmetry_equiv_pos_site_id
 _symmetry_equiv_pos_as_xyz
  1  'x, y, z'
loop_
 _atom_site_type_symbol
 _atom_site_label
 _atom_site_symmetry_multiplicity
 _atom_site_fract_x
 _atom_site_fract_y
 _atom_site_fract_z
 _atom_site_occupancy
  K  K0  1  0.41064200  0.58890200  0.33854800  1
  K  K1  1  0.58935800  0.41109800  0.66145200  1
  Mg  Mg0  1  0.50000000  0.50000000  0.00000000  1
  Mn  Mn0  1  0.00000000  0.50000000  0.00000000  1
  Mn  Mn1  1  0.50000000  0.00000000  0.50000000  1
  P  P0  1  0.27924000  0.13990400  0.19133400  1
  P  P1  1  0.15032000  0.30041900  0.70186400  1
  P  P2  1  0.17335200  0.85706000  0.78699900  1
  P  P3  1  0.82664800  0.14294000  0.21300100  1
  P  P4  1  0.84968000  0.69958100  0.29813600  1
  P  P5  1  0.72076000  0.86009600  0.80866600  1
  H  H0  1  0.00000000  0.50000000  0.50000000  1
  H  H1  1  0.50000000  0.00000000  0.00000000  1
  O  O0  1  0.04263800  0.18081500  0.17789100  1
  O  O1  1  0.96683100  0.40397500  0.62438000  1
  O  O2  1  0.30447500  0.34536200  0.09394800  1
  O  O3  1  0.11639400  0.08254200  0.80254700  1
  O  O4  1  0.29332800  0.09911700  0.34557200  1
  O  O5  1  0.15412300  0.40195400  0.81286600  1
  O  O6  1  0.34720700  0.26332300  0.59335200  1
  O  O7  1  0.26937700  0.71017000  0.91351800  1
  O  O8  1  0.40372500  0.96227800  0.12056100  1
  O  O9  1  0.70990300  0.16825200  0.35928600  1
  O  O10  1  0.29009700  0.83174800  0.64071400  1
  O  O11  1  0.59627500  0.03772200  0.87943900  1
  O  O12  1  0.73062300  0.28983000  0.08648200  1
  O  O13  1  0.65279300  0.73667700  0.40664800  1
  O  O14  1  0.84587700  0.59804600  0.18713400  1
  O  O15  1  0.70667200  0.90088300  0.65442800  1
  O  O16  1  0.88360600  0.91745800  0.19745300  1
  O  O17  1  0.69552500  0.65463800  0.90605200  1
  O  O18  1  0.03316900  0.59602500  0.37562000  1
  O  O19  1  0.95736200  0.81918500  0.82210900  1
loop_
_geom_bond_atom_site_label_1
_geom_bond_atom_site_label_2
_geom_bond_distance
_geom_bond_site_symmetry_2
K0 O18 2.618113 1_555
K0 O13 2.651125 1_555
K0 O8 2.888676 1_555
K0 O6 2.933310 1_555
K0 O9 3.039280 1_555
K0 O14 3.093345 1_555
K1 O1 2.618113 1_555
K1 O6 2.651125 1_555
K1 O11 2.888676 1_555
K1 O13 2.933310 1_555
K1 O10 3.039280 1_555
K1 O5 3.093345 1_555
Mg0 O2 1.959839 1_555
Mg0 O17 1.959839 1_554
Mg0 O7 1.998164 1_554
Mg0 O12 1.998164 1_555
Mn0 O14 2.086991 1_455
Mn0 O5 2.086991 1_554
Mn0 O2 2.375938 1_555
Mn0 O17 2.375938 1_454
Mn0 O0 2.414549 1_555
Mn0 O19 2.414549 1_454
Mn0 O12 2.674311 1_455
Mn0 O7 2.674311 1_554
Mn1 O9 2.190818 1_555
Mn1 O10 2.190818 1_545
Mn1 O13 2.192725 1_545
Mn1 O6 2.192725 1_555
Mn1 O15 2.208070 1_545
Mn1 O4 2.208070 1_555
H0 O18 1.221154 1_555
H0 O1 1.221154 1_455
H1 O11 1.212056 1_554
H1 O8 1.212056 1_545
O0 P3 1.595924 1_455
O0 P0 1.654181 1_555
O1 P1 1.545739 1_655
O2 P0 1.545160 1_555
O3 P2 1.589214 1_545
O3 P1 1.646874 1_555
O4 P0 1.493601 1_555
O5 P1 1.517071 1_555
O6 P1 1.524418 1_555
O7 P2 1.520974 1_555
O8 P0 1.541476 1_565
O9 P3 1.500581 1_555
O10 P2 1.500581 1_555
O11 P5 1.541476 1_545
O12 P3 1.520974 1_555
O13 P4 1.524418 1_555
O14 P4 1.517071 1_555
O15 P5 1.493601 1_555
O16 P3 1.589214 1_565
O16 P4 1.646874 1_555
O17 P5 1.545160 1_555
O18 P4 1.545739 1_455
O19 P2 1.595924 1_655
O19 P5 1.654181 1_555
