# generated using pymatgen
data_Li2CrP2O7
_symmetry_space_group_name_H-M   'P 1'
_cell_length_a   7.55107256
_cell_length_b   7.55107256
_cell_length_c   11.23200985
_cell_angle_alpha   89.57150510
_cell_angle_beta   89.57150510
_cell_angle_gamma   116.76276857
_symmetry_Int_Tables_number   1
_chemical_formula_structural   Li2CrP2O7
_chemical_formula_sum   'Li8 Cr4 P8 O28'
_cell_volume   571.77214293
_cell_formula_units_Z   4
loop_
 _symmetry_equiv_pos_site_id
 _symmetry_equiv_pos_as_xyz
  1  'x, y, z'
loop_
 _atom_site_type_symbol
 _atom_site_label
 _atom_site_symmetry_multiplicity
 _atom_site_fract_x
 _atom_site_fract_y
 _atom_site_fract_z
 _atom_site_occupancy
  Li  Li0  1  0.71555600  0.28444400  0.25000000  1
  Li  Li1  1  0.70679400  0.28004900  0.00083600  1
  Li  Li2  1  0.29320600  0.71995100  0.99916400  1
  Li  Li3  1  0.29044200  0.70955800  0.25000000  1
  Li  Li4  1  0.28444400  0.71555600  0.75000000  1
  Li  Li5  1  0.70955800  0.29044200  0.75000000  1
  Li  Li6  1  0.71995100  0.29320600  0.49916400  1
  Li  Li7  1  0.28004900  0.70679400  0.50083600  1
  Cr  Cr0  1  0.29837500  0.29632700  0.62007900  1
  Cr  Cr1  1  0.29632700  0.29837500  0.12007900  1
  Cr  Cr2  1  0.70367300  0.70162500  0.87992100  1
  Cr  Cr3  1  0.70162500  0.70367300  0.37992100  1
  P  P0  1  0.91614300  0.69973200  0.62703500  1
  P  P1  1  0.91160100  0.68351300  0.12954200  1
  P  P2  1  0.30026800  0.08385700  0.87296500  1
  P  P3  1  0.68351300  0.91160100  0.62954200  1
  P  P4  1  0.69973200  0.91614300  0.12703500  1
  P  P5  1  0.31648700  0.08839900  0.37045800  1
  P  P6  1  0.08839900  0.31648700  0.87045800  1
  P  P7  1  0.08385700  0.30026800  0.37296500  1
  O  O0  1  0.41318100  0.19204600  0.98562500  1
  O  O1  1  0.90959600  0.90038400  0.12611300  1
  O  O2  1  0.41380500  0.19623200  0.75938800  1
  O  O3  1  0.27327400  0.87375000  0.37426500  1
  O  O4  1  0.57155400  0.79049600  0.51995000  1
  O  O5  1  0.90038400  0.90959600  0.62611300  1
  O  O6  1  0.80376800  0.58619500  0.74061200  1
  O  O7  1  0.58681900  0.80795400  0.01437500  1
  O  O8  1  0.42844600  0.20950400  0.48005000  1
  O  O9  1  0.09040400  0.09961600  0.87388700  1
  O  O10  1  0.13443300  0.75662000  0.62542900  1
  O  O11  1  0.75662000  0.13443300  0.12542900  1
  O  O12  1  0.80341900  0.57982900  0.24639300  1
  O  O13  1  0.24338000  0.86556700  0.87457100  1
  O  O14  1  0.80795400  0.58681900  0.51437500  1
  O  O15  1  0.20950400  0.42844600  0.98005000  1
  O  O16  1  0.79049600  0.57155400  0.01995000  1
  O  O17  1  0.72672600  0.12625000  0.62573500  1
  O  O18  1  0.58619500  0.80376800  0.24061200  1
  O  O19  1  0.19658100  0.42017100  0.75360700  1
  O  O20  1  0.42017100  0.19658100  0.25360700  1
  O  O21  1  0.87375000  0.27327400  0.87426500  1
  O  O22  1  0.19204600  0.41318100  0.48562500  1
  O  O23  1  0.57982900  0.80341900  0.74639300  1
  O  O24  1  0.19623200  0.41380500  0.25938800  1
  O  O25  1  0.12625000  0.72672600  0.12573500  1
  O  O26  1  0.86556700  0.24338000  0.37457100  1
  O  O27  1  0.09961600  0.09040400  0.37388700  1
loop_
_geom_bond_atom_site_label_1
_geom_bond_atom_site_label_2
_geom_bond_distance
_geom_bond_site_symmetry_2
Li0 O11 1.915857 1_555
Li0 O26 1.915857 1_555
Li0 O20 2.020483 1_555
Li0 O12 2.020483 1_555
Li1 O21 1.909298 1_554
Li1 O11 1.914790 1_555
Li1 O16 2.011691 1_555
Li1 O0 2.016630 1_554
Li2 O25 1.909298 1_556
Li2 O13 1.914790 1_555
Li2 O15 2.011691 1_555
Li2 O7 2.016630 1_556
Li3 O25 1.915726 1_555
Li3 O3 1.915726 1_555
Li3 O18 2.017221 1_555
Li3 O24 2.017221 1_555
Li4 O13 1.915857 1_555
Li4 O10 1.915857 1_555
Li4 O19 2.020483 1_555
Li4 O23 2.020483 1_555
Li5 O21 1.915726 1_555
Li5 O17 1.915726 1_555
Li5 O6 2.017221 1_555
Li5 O2 2.017221 1_555
Li6 O17 1.909298 1_555
Li6 O26 1.914790 1_555
Li6 O8 2.011691 1_555
Li6 O14 2.016630 1_555
Li7 O3 1.909298 1_555
Li7 O10 1.914790 1_555
Li7 O4 2.011691 1_555
Li7 O22 2.016630 1_555
Cr0 O22 2.083299 1_555
Cr0 O19 2.089450 1_555
Cr0 O2 2.091735 1_555
Cr0 O8 2.107235 1_555
Cr1 O0 2.083299 1_554
Cr1 O20 2.089450 1_555
Cr1 O24 2.091735 1_555
Cr1 O15 2.107235 1_554
Cr2 O7 2.083299 1_556
Cr2 O23 2.089450 1_555
Cr2 O6 2.091735 1_555
Cr2 O16 2.107235 1_556
Cr3 O14 2.083299 1_555
Cr3 O12 2.089450 1_555
Cr3 O18 2.091735 1_555
Cr3 O4 2.107235 1_555
O0 P2 1.549155 1_555
O1 P4 1.641688 1_555
O1 P1 1.644649 1_555
O2 P2 1.547493 1_555
O3 P5 1.502610 1_565
O4 P3 1.549947 1_555
O5 P0 1.641688 1_555
O5 P3 1.644649 1_555
O6 P0 1.547493 1_555
O7 P4 1.549155 1_555
O8 P5 1.549947 1_555
O9 P2 1.641688 1_555
O9 P6 1.644649 1_555
O10 P0 1.504521 1_455
O11 P4 1.504521 1_545
O12 P1 1.547730 1_555
O13 P2 1.504521 1_565
O14 P0 1.549155 1_555
O15 P6 1.549947 1_555
O16 P1 1.549947 1_555
O17 P3 1.502610 1_545
O18 P4 1.547493 1_555
O19 P6 1.547730 1_555
O20 P5 1.547730 1_555
O21 P6 1.502610 1_655
O22 P7 1.549155 1_555
O23 P3 1.547730 1_555
O24 P7 1.547493 1_555
O25 P1 1.502610 1_455
O26 P7 1.504521 1_655
O27 P7 1.641688 1_555
O27 P5 1.644649 1_555
