# generated using pymatgen
data_FePd3
_symmetry_space_group_name_H-M   'P 1'
_cell_length_a   17.95180349
_cell_length_b   17.95180349
_cell_length_c   17.95180230
_cell_angle_alpha   17.80335457
_cell_angle_beta   17.80335457
_cell_angle_gamma   17.80335684
_symmetry_Int_Tables_number   1
_chemical_formula_structural   FePd3
_chemical_formula_sum   'Fe8 Pd24'
_cell_volume   472.13972090
_cell_formula_units_Z   8
loop_
 _symmetry_equiv_pos_site_id
 _symmetry_equiv_pos_as_xyz
  1  'x, y, z'
loop_
 _atom_site_type_symbol
 _atom_site_label
 _atom_site_symmetry_multiplicity
 _atom_site_fract_x
 _atom_site_fract_y
 _atom_site_fract_z
 _atom_site_occupancy
  Fe  Fe0_0  1  0.00000000  0.00000000  0.00000000  1
  Fe  Fe0_1  1  0.00000000  0.00000000  0.50000000  1
  Fe  Fe0_2  1  0.00000000  0.50000000  0.00000000  1
  Fe  Fe0_3  1  0.00000000  0.50000000  0.50000000  1
  Fe  Fe0_4  1  0.50000000  0.00000000  0.00000000  1
  Fe  Fe0_5  1  0.50000000  0.00000000  0.50000000  1
  Fe  Fe0_6  1  0.50000000  0.50000000  0.00000000  1
  Fe  Fe0_7  1  0.50000000  0.50000000  0.50000000  1
  Pd  Pd0_0  1  0.12757950  0.12757950  0.12757950  1
  Pd  Pd0_1  1  0.12757950  0.12757950  0.62757950  1
  Pd  Pd0_2  1  0.12757950  0.62757950  0.12757950  1
  Pd  Pd0_3  1  0.12757950  0.62757950  0.62757950  1
  Pd  Pd0_4  1  0.62757950  0.12757950  0.12757950  1
  Pd  Pd0_5  1  0.62757950  0.12757950  0.62757950  1
  Pd  Pd0_6  1  0.62757950  0.62757950  0.12757950  1
  Pd  Pd0_7  1  0.62757950  0.62757950  0.62757950  1
  Pd  Pd1_0  1  0.25000000  0.25000000  0.25000000  1
  Pd  Pd1_1  1  0.25000000  0.25000000  0.75000000  1
  Pd  Pd1_2  1  0.25000000  0.75000000  0.25000000  1
  Pd  Pd1_3  1  0.25000000  0.75000000  0.75000000  1
  Pd  Pd1_4  1  0.75000000  0.25000000  0.25000000  1
  Pd  Pd1_5  1  0.75000000  0.25000000  0.75000000  1
  Pd  Pd1_6  1  0.75000000  0.75000000  0.25000000  1
  Pd  Pd1_7  1  0.75000000  0.75000000  0.75000000  1
  Pd  Pd2_0  1  0.37242050  0.37242050  0.37242050  1
  Pd  Pd2_1  1  0.37242050  0.37242050  0.87242050  1
  Pd  Pd2_2  1  0.37242050  0.87242050  0.37242050  1
  Pd  Pd2_3  1  0.37242050  0.87242050  0.87242050  1
  Pd  Pd2_4  1  0.87242050  0.37242050  0.37242050  1
  Pd  Pd2_5  1  0.87242050  0.37242050  0.87242050  1
  Pd  Pd2_6  1  0.87242050  0.87242050  0.37242050  1
  Pd  Pd2_7  1  0.87242050  0.87242050  0.87242050  1
loop_
_geom_bond_atom_site_label_1
_geom_bond_atom_site_label_2
_geom_bond_distance
_geom_bond_site_symmetry_2
Fe0_0 Pd2_6 2.619529 1_445
Fe0_0 Pd0_1 2.619529 1_554
Fe0_0 Pd0_2 2.619530 1_545
Fe0_0 Pd0_4 2.619530 1_455
Fe0_0 Pd2_5 2.619530 1_454
Fe0_0 Pd2_3 2.619530 1_544
Fe0_1 Pd0_0 2.619529 1_555
Fe0_1 Pd2_7 2.619529 1_445
Fe0_1 Pd0_3 2.619530 1_545
Fe0_1 Pd0_5 2.619530 1_455
Fe0_1 Pd2_2 2.619530 1_545
Fe0_1 Pd2_4 2.619530 1_455
Fe0_2 Pd0_3 2.619529 1_554
Fe0_2 Pd2_4 2.619529 1_455
Fe0_2 Pd0_0 2.619530 1_555
Fe0_2 Pd0_6 2.619530 1_455
Fe0_2 Pd2_1 2.619530 1_554
Fe0_2 Pd2_7 2.619530 1_454
Fe0_3 Pd0_2 2.619529 1_555
Fe0_3 Pd2_5 2.619529 1_455
Fe0_3 Pd2_6 2.619530 1_455
Fe0_3 Pd0_7 2.619530 1_455
Fe0_3 Pd0_1 2.619530 1_555
Fe0_3 Pd2_0 2.619530 1_555
Fe0_4 Pd0_5 2.619529 1_554
Fe0_4 Pd2_2 2.619529 1_545
Fe0_4 Pd0_6 2.619530 1_545
Fe0_4 Pd0_0 2.619530 1_555
Fe0_4 Pd2_1 2.619530 1_554
Fe0_4 Pd2_7 2.619530 1_544
Fe0_5 Pd0_4 2.619529 1_555
Fe0_5 Pd2_3 2.619529 1_545
Fe0_5 Pd2_6 2.619530 1_545
Fe0_5 Pd0_7 2.619530 1_545
Fe0_5 Pd0_1 2.619530 1_555
Fe0_5 Pd2_0 2.619530 1_555
Fe0_6 Pd0_7 2.619529 1_554
Fe0_6 Pd2_0 2.619529 1_555
Fe0_6 Pd0_4 2.619530 1_555
Fe0_6 Pd0_2 2.619530 1_555
Fe0_6 Pd2_5 2.619530 1_554
Fe0_6 Pd2_3 2.619530 1_554
Fe0_7 Pd0_6 2.619529 1_555
Fe0_7 Pd2_1 2.619529 1_555
Fe0_7 Pd0_5 2.619530 1_555
Fe0_7 Pd0_3 2.619530 1_555
Fe0_7 Pd2_4 2.619530 1_555
Fe0_7 Pd2_2 2.619530 1_555
Pd0_0 Pd1_1 2.840609 1_554
Pd0_0 Pd1_2 2.840609 1_545
Pd0_0 Pd1_4 2.840609 1_455
Pd0_1 Pd1_0 2.840609 1_555
Pd0_1 Pd1_5 2.840609 1_455
Pd0_1 Pd1_3 2.840609 1_545
Pd0_2 Pd1_3 2.840609 1_554
Pd0_2 Pd1_0 2.840609 1_555
Pd0_2 Pd1_6 2.840609 1_455
Pd0_3 Pd1_2 2.840609 1_555
Pd0_3 Pd1_1 2.840609 1_555
Pd0_3 Pd1_7 2.840609 1_455
Pd0_4 Pd1_5 2.840609 1_554
Pd0_4 Pd1_6 2.840609 1_545
Pd0_4 Pd1_0 2.840609 1_555
Pd0_5 Pd1_4 2.840609 1_555
Pd0_5 Pd1_1 2.840609 1_555
Pd0_5 Pd1_7 2.840609 1_545
Pd0_6 Pd1_7 2.840609 1_554
Pd0_6 Pd1_4 2.840609 1_555
Pd0_6 Pd1_2 2.840609 1_555
Pd0_7 Pd1_6 2.840609 1_555
Pd0_7 Pd1_5 2.840609 1_555
Pd0_7 Pd1_3 2.840609 1_555
Pd1_0 Pd1_5 2.777850 1_455
Pd1_0 Pd1_3 2.777850 1_545
Pd1_0 Pd1_5 2.777850 1_554
Pd1_0 Pd1_3 2.777850 1_554
Pd1_0 Pd1_6 2.777850 1_455
Pd1_0 Pd1_6 2.777850 1_545
Pd1_0 Pd2_1 2.840609 1_554
Pd1_0 Pd2_2 2.840609 1_545
Pd1_0 Pd2_4 2.840609 1_455
Pd1_1 Pd1_4 2.777850 1_555
Pd1_1 Pd1_2 2.777850 1_555
Pd1_1 Pd1_2 2.777850 1_546
Pd1_1 Pd1_4 2.777850 1_456
Pd1_1 Pd1_7 2.777850 1_455
Pd1_1 Pd1_7 2.777850 1_545
Pd1_1 Pd2_0 2.840609 1_555
Pd1_1 Pd2_3 2.840609 1_545
Pd1_1 Pd2_5 2.840609 1_455
Pd1_2 Pd1_7 2.777850 1_554
Pd1_2 Pd1_7 2.777850 1_455
Pd1_2 Pd1_4 2.777850 1_465
Pd1_2 Pd1_4 2.777850 1_555
Pd1_2 Pd2_3 2.840609 1_554
Pd1_2 Pd2_0 2.840609 1_555
Pd1_2 Pd2_6 2.840609 1_455
Pd1_3 Pd1_6 2.777850 1_555
Pd1_3 Pd1_6 2.777850 1_456
Pd1_3 Pd1_5 2.777850 1_555
Pd1_3 Pd1_5 2.777850 1_465
Pd1_3 Pd2_2 2.840609 1_555
Pd1_3 Pd2_7 2.840609 1_455
Pd1_3 Pd2_1 2.840609 1_555
Pd1_4 Pd1_7 2.777850 1_554
Pd1_4 Pd1_7 2.777850 1_545
Pd1_4 Pd2_5 2.840609 1_554
Pd1_4 Pd2_0 2.840609 1_555
Pd1_4 Pd2_6 2.840609 1_545
Pd1_5 Pd1_6 2.777850 1_555
Pd1_5 Pd1_6 2.777850 1_546
Pd1_5 Pd2_4 2.840609 1_555
Pd1_5 Pd2_7 2.840609 1_545
Pd1_5 Pd2_1 2.840609 1_555
Pd1_6 Pd2_7 2.840609 1_554
Pd1_6 Pd2_4 2.840609 1_555
Pd1_6 Pd2_2 2.840609 1_555
Pd1_7 Pd2_6 2.840609 1_555
Pd1_7 Pd2_3 2.840609 1_555
Pd1_7 Pd2_5 2.840609 1_555
