# generated using pymatgen
data_SmAgGe
_symmetry_space_group_name_H-M   'P 1'
_cell_length_a   7.23511556
_cell_length_b   7.23511556
_cell_length_c   4.27998885
_cell_angle_alpha   90.00000000
_cell_angle_beta   90.00000000
_cell_angle_gamma   119.99999912
_symmetry_Int_Tables_number   1
_chemical_formula_structural   SmAgGe
_chemical_formula_sum   'Sm3 Ag3 Ge3'
_cell_volume   194.02791545
_cell_formula_units_Z   3
loop_
 _symmetry_equiv_pos_site_id
 _symmetry_equiv_pos_as_xyz
  1  'x, y, z'
loop_
 _atom_site_type_symbol
 _atom_site_label
 _atom_site_symmetry_multiplicity
 _atom_site_fract_x
 _atom_site_fract_y
 _atom_site_fract_z
 _atom_site_occupancy
  Sm  Sm0  1  0.58596060  0.00000000  -0.00000000  1
  Sm  Sm1  1  0.00000000  0.58596060  0.00000000  1
  Sm  Sm2  1  0.41403940  0.41403940  0.00000000  1
  Ag  Ag0  1  0.24884049  -0.00000000  0.50000000  1
  Ag  Ag1  1  -0.00000000  0.24884049  0.50000000  1
  Ag  Ag2  1  0.75115951  0.75115951  0.50000000  1
  Ge  Ge0  1  0.33333300  0.66666700  0.50000000  1
  Ge  Ge1  1  0.66666700  0.33333300  0.50000000  1
  Ge  Ge2  1  -0.00000000  0.00000000  -0.00000000  1
loop_
_geom_bond_atom_site_label_1
_geom_bond_atom_site_label_2
_geom_bond_distance
_geom_bond_site_symmetry_2
Ag0 Ge0 2.768451 1_545
Ag0 Ge1 2.768456 1_555
Ag0 Ge2 2.796601 1_555
Ag0 Ge2 2.796601 1_556
Ag0 Ag1 3.118366 1_555
Ag0 Ag2 3.118366 1_445
Ag0 Sm0 3.244811 1_555
Ag0 Sm0 3.244811 1_556
Ag0 Sm2 3.376603 1_556
Ag0 Sm2 3.376603 1_555
Ag0 Sm1 3.376603 1_545
Ag0 Sm1 3.376603 1_546
Ag1 Ge1 2.768451 1_455
Ag1 Ge0 2.768456 1_555
Ag1 Ge2 2.796601 1_555
Ag1 Ge2 2.796601 1_556
Ag1 Ag2 3.118366 1_445
Ag1 Sm1 3.244811 1_556
Ag1 Sm1 3.244811 1_555
Ag1 Sm2 3.376603 1_555
Ag1 Sm2 3.376603 1_556
Ag1 Sm0 3.376603 1_455
Ag1 Sm0 3.376603 1_456
Ag2 Ge0 2.768458 1_555
Ag2 Ge1 2.768458 1_555
Ag2 Ge2 2.796601 1_666
Ag2 Ge2 2.796601 1_665
Ag2 Sm2 3.244811 1_556
Ag2 Sm2 3.244811 1_555
Ag2 Sm0 3.376603 1_565
Ag2 Sm0 3.376603 1_566
Ag2 Sm1 3.376603 1_655
Ag2 Sm1 3.376603 1_656
Ge0 Sm1 3.054277 1_556
Ge0 Sm1 3.054277 1_555
Ge0 Sm0 3.054278 1_565
Ge0 Sm0 3.054278 1_566
Ge0 Sm2 3.054282 1_555
Ge0 Sm2 3.054282 1_556
Ge1 Sm0 3.054277 1_556
Ge1 Sm0 3.054277 1_555
Ge1 Sm1 3.054278 1_656
Ge1 Sm1 3.054278 1_655
Ge1 Sm2 3.054282 1_555
Ge1 Sm2 3.054282 1_556
Ge2 Sm0 2.995623 1_455
Ge2 Sm1 2.995623 1_545
Ge2 Sm2 2.995623 1_555
