# generated using pymatgen
data_Li6MnV3(PO4)6
_symmetry_space_group_name_H-M   'P 1'
_cell_length_a   9.84614800
_cell_length_b   9.85533402
_cell_length_c   9.87553206
_cell_angle_alpha   86.99010347
_cell_angle_beta   87.08762744
_cell_angle_gamma   87.20487068
_symmetry_Int_Tables_number   1
_chemical_formula_structural   Li6MnV3(PO4)6
_chemical_formula_sum   'Li12 Mn2 V6 P12 O48'
_cell_volume   954.71334549
_cell_formula_units_Z   2
loop_
 _symmetry_equiv_pos_site_id
 _symmetry_equiv_pos_as_xyz
  1  'x, y, z'
loop_
 _atom_site_type_symbol
 _atom_site_label
 _atom_site_symmetry_multiplicity
 _atom_site_fract_x
 _atom_site_fract_y
 _atom_site_fract_z
 _atom_site_occupancy
  Li  Li0  1  0.95350600  0.99603800  0.01740900  1
  Li  Li1  1  0.26456200  0.94818300  0.85759000  1
  Li  Li2  1  0.93305600  0.86681000  0.26937400  1
  Li  Li3  1  0.44821000  0.77365900  0.34956300  1
  Li  Li4  1  0.15209100  0.72540800  0.04900600  1
  Li  Li5  1  0.22861800  0.63256700  0.56688100  1
  Li  Li6  1  0.64039000  0.55442400  0.23683700  1
  Li  Li7  1  0.48233800  0.50546300  0.54754700  1
  Li  Li8  1  0.76641500  0.35570300  0.45734400  1
  Li  Li9  1  0.53170700  0.23219100  0.64977000  1
  Li  Li10  1  0.85211200  0.26756900  0.96377300  1
  Li  Li11  1  0.04801000  0.14663000  0.73472400  1
  Mn  Mn0  1  0.75524900  0.74983900  0.74308700  1
  Mn  Mn1  1  0.24396300  0.02878800  0.46956400  1
  V  V0  1  0.74024600  0.96972700  0.52255900  1
  V  V1  1  0.53541800  0.74992600  0.96286200  1
  V  V2  1  0.97737500  0.53059500  0.75956200  1
  V  V3  1  0.03484200  0.46815100  0.25169400  1
  V  V4  1  0.47185000  0.24925800  0.02772400  1
  V  V5  1  0.25365500  0.24816100  0.24962900  1
  P  P0  1  0.33115800  0.94772000  0.14291100  1
  P  P1  1  0.04651100  0.85416300  0.66925000  1
  P  P2  1  0.44567700  0.82793500  0.64393400  1
  P  P3  1  0.85418900  0.67200400  0.05173500  1
  P  P4  1  0.83143200  0.64645200  0.45299300  1
  P  P5  1  0.35510100  0.55028900  0.16932700  1
  P  P6  1  0.65653700  0.45243700  0.82090700  1
  P  P7  1  0.17805700  0.35401800  0.55002000  1
  P  P8  1  0.15079600  0.32589000  0.95359400  1
  P  P9  1  0.54774300  0.17305000  0.34914000  1
  P  P10  1  0.95369500  0.14730000  0.32603600  1
  P  P11  1  0.67822100  0.04736600  0.84216800  1
  O  O0  1  0.37424100  0.96740200  0.59978900  1
  O  O1  1  0.09043600  0.94538000  0.77803300  1
  O  O2  1  0.67334900  0.88520100  0.86974000  1
  O  O3  1  0.88513800  0.87794100  0.66323900  1
  O  O4  1  0.30780300  0.90841400  0.29548900  1
  O  O5  1  0.10976100  0.89253500  0.52653200  1
  O  O6  1  0.21924200  0.90551100  0.05256500  1
  O  O7  1  0.47120400  0.88246000  0.09689100  1
  O  O8  1  0.60257900  0.83565400  0.61390400  1
  O  O9  1  0.41148200  0.81126000  0.79950100  1
  O  O10  1  0.80544200  0.80098200  0.41739800  1
  O  O11  1  0.93836900  0.78805200  0.09695000  1
  O  O12  1  0.88484600  0.66641500  0.89492600  1
  O  O13  1  0.40093200  0.71315600  0.55892900  1
  O  O14  1  0.08318700  0.70037200  0.69675900  1
  O  O15  1  0.69797900  0.68746400  0.08626600  1
  O  O16  1  0.83629200  0.62263000  0.61461200  1
  O  O17  1  0.62778500  0.61430500  0.82527600  1
  O  O18  1  0.97218100  0.60553300  0.38926200  1
  O  O19  1  0.39496700  0.62075900  0.03034400  1
  O  O20  1  0.44389100  0.59506700  0.28065700  1
  O  O21  1  0.71959300  0.55693900  0.41041000  1
  O  O22  1  0.19947800  0.58448500  0.19450500  1
  O  O23  1  0.90075700  0.53301900  0.12030700  1
  O  O24  1  0.11090000  0.47004000  0.89391600  1
  O  O25  1  0.81347200  0.42031600  0.81886500  1
  O  O26  1  0.59134100  0.40730500  0.69533300  1
  O  O27  1  0.29559600  0.43880400  0.58532000  1
  O  O28  1  0.60148600  0.38758300  0.95648500  1
  O  O29  1  0.04017500  0.40691900  0.61536600  1
  O  O30  1  0.37837700  0.39113000  0.16287900  1
  O  O31  1  0.16820700  0.37519600  0.38855000  1
  O  O32  1  0.92000100  0.30360000  0.31284700  1
  O  O33  1  0.30270900  0.29172100  0.92199100  1
  O  O34  1  0.59418400  0.27886100  0.44333200  1
  O  O35  1  0.12270000  0.32866800  0.11499400  1
  O  O36  1  0.05460600  0.22055800  0.90859500  1
  O  O37  1  0.57794100  0.20589000  0.19700400  1
  O  O38  1  0.19078300  0.20045900  0.59117700  1
  O  O39  1  0.38659700  0.16820600  0.38026500  1
  O  O40  1  0.54206100  0.11284900  0.89522900  1
  O  O41  1  0.80338100  0.09184200  0.90929400  1
  O  O42  1  0.88402100  0.09870100  0.46200100  1
  O  O43  1  0.68210000  0.08025200  0.68567200  1
  O  O44  1  0.11579800  0.11961300  0.33762100  1
  O  O45  1  0.91791800  0.06558600  0.20717400  1
  O  O46  1  0.33712900  0.10830100  0.12287600  1
  O  O47  1  0.60811400  0.02894800  0.38915500  1
loop_
_geom_bond_atom_site_label_1
_geom_bond_atom_site_label_2
_geom_bond_distance
_geom_bond_site_symmetry_2
Li0 O41 2.033414 1_564
Li0 O45 2.036986 1_565
Li0 O11 2.165551 1_555
Li1 O1 1.923856 1_555
Li1 O6 1.982275 1_556
Li1 O9 2.012274 1_555
Li2 O11 1.905372 1_555
Li2 O10 1.982387 1_555
Li2 O45 2.022790 1_565
Li3 O20 1.923222 1_555
Li3 O4 1.944632 1_555
Li3 O13 2.155693 1_555
Li4 O6 1.926733 1_555
Li4 O22 2.001639 1_555
Li4 O11 2.199162 1_455
Li4 O19 2.559500 1_555
Li5 O13 1.904430 1_555
Li5 O14 1.987998 1_555
Li5 O27 1.991858 1_555
Li6 O21 1.920725 1_555
Li6 O20 1.987093 1_555
Li6 O15 2.008434 1_555
Li7 O27 1.993460 1_555
Li7 O26 2.031598 1_555
Li7 O13 2.167907 1_555
Li8 O34 1.904872 1_555
Li8 O21 2.048572 1_555
Li8 O32 2.090152 1_555
Li9 O26 1.932062 1_555
Li9 O43 2.083753 1_555
Li9 O34 2.132578 1_555
Li10 O41 1.929792 1_555
Li10 O25 2.057186 1_555
Li10 O36 2.076725 1_655
Li11 O36 1.905441 1_555
Li11 O38 2.014561 1_555
Li11 O1 2.034579 1_545
Mn0 O16 1.945461 1_555
Mn0 O3 1.949801 1_555
Mn0 O2 1.990519 1_555
Mn0 O17 1.991030 1_555
Mn0 O12 2.124933 1_555
Mn0 O8 2.135422 1_555
Mn1 O0 1.917174 1_545
Mn1 O5 1.970754 1_545
Mn1 O44 2.006480 1_555
Mn1 O39 2.138465 1_555
Mn1 O38 2.154550 1_555
Mn1 O4 2.188462 1_545
O0 P2 1.564596 1_555
O1 P1 1.528351 1_555
O2 P11 1.609691 1_565
O2 V1 2.094853 1_555
O3 P1 1.598393 1_655
O3 V0 2.174219 1_555
O4 P0 1.544517 1_555
O5 P1 1.547614 1_555
O6 P0 1.538491 1_555
O7 P0 1.549878 1_555
O7 V1 1.968181 1_554
O8 P2 1.562987 1_555
O8 V0 2.079009 1_555
O9 P2 1.557859 1_555
O9 V1 2.117276 1_555
O10 P4 1.556703 1_555
O10 V0 2.065383 1_555
O11 P3 1.542107 1_555
O12 P3 1.565906 1_556
O12 V2 2.086617 1_555
O13 P2 1.537628 1_555
O14 P1 1.553958 1_555
O14 V2 2.065211 1_455
O15 P3 1.560274 1_555
O15 V1 2.109355 1_554
O16 P4 1.603800 1_555
O16 V2 2.178136 1_555
O17 P6 1.608978 1_555
O17 V1 2.099129 1_555
O18 P4 1.537140 1_555
O18 V3 2.021391 1_655
O19 P5 1.546607 1_555
O19 V1 1.991475 1_554
O20 P5 1.534298 1_555
O21 P4 1.532466 1_555
O22 P5 1.563018 1_555
O22 V3 2.069160 1_555
O23 P3 1.554960 1_555
O23 V3 1.959560 1_655
O24 P8 1.549533 1_555
O24 V2 1.965359 1_455
O25 P6 1.561434 1_555
O25 V2 2.033905 1_555
O26 P6 1.521332 1_555
O27 P7 1.524797 1_555
O28 P6 1.537910 1_555
O28 V4 1.990060 1_556
O29 P7 1.551976 1_555
O29 V2 1.978658 1_455
O30 P5 1.578265 1_555
O30 V5 2.040192 1_555
O30 V4 2.128178 1_555
O31 P7 1.604529 1_555
O31 V5 2.029235 1_555
O31 V3 2.079224 1_555
O32 P10 1.559905 1_555
O32 V3 2.068773 1_655
O33 P8 1.537065 1_555
O33 V4 2.025286 1_556
O34 P9 1.534076 1_555
O35 P8 1.605262 1_554
O35 V5 2.005877 1_555
O35 V3 2.102546 1_555
O36 P8 1.535968 1_555
O37 P9 1.537322 1_555
O37 V4 2.031599 1_555
O38 P7 1.547026 1_555
O39 P9 1.603297 1_555
O39 V5 1.990707 1_555
O40 P11 1.538882 1_555
O40 V4 1.999859 1_556
O41 P11 1.521990 1_555
O42 P10 1.540729 1_555
O42 V0 1.996734 1_545
O43 P11 1.561288 1_555
O43 V0 2.034393 1_545
O44 P10 1.614884 1_455
O44 V5 2.033414 1_555
O45 P10 1.522976 1_555
O46 P0 1.588134 1_545
O46 V5 2.026933 1_555
O46 V4 2.118569 1_555
O47 P9 1.552092 1_555
O47 V0 1.946334 1_545
