# generated using pymatgen
data_La3Re(ClO2)3
_symmetry_space_group_name_H-M   'P 1'
_cell_length_a   9.47946431
_cell_length_b   9.47946431
_cell_length_c   5.46035200
_cell_angle_alpha   90.00000000
_cell_angle_beta   90.00000000
_cell_angle_gamma   120.00000219
_symmetry_Int_Tables_number   1
_chemical_formula_structural   La3Re(ClO2)3
_chemical_formula_sum   'La6 Re2 Cl6 O12'
_cell_volume   424.93142950
_cell_formula_units_Z   2
loop_
 _symmetry_equiv_pos_site_id
 _symmetry_equiv_pos_as_xyz
  1  'x, y, z'
loop_
 _atom_site_type_symbol
 _atom_site_label
 _atom_site_symmetry_multiplicity
 _atom_site_fract_x
 _atom_site_fract_y
 _atom_site_fract_z
 _atom_site_occupancy
  La  La0  1  0.59498600  0.68636400  0.75000000  1
  La  La1  1  0.40501400  0.31363600  0.25000000  1
  La  La2  1  0.09137700  0.40501400  0.75000000  1
  La  La3  1  0.90862300  0.59498600  0.25000000  1
  La  La4  1  0.31363600  0.90862300  0.75000000  1
  La  La5  1  0.68636400  0.09137700  0.25000000  1
  Re  Re0  1  0.66666700  0.33333300  0.75000000  1
  Re  Re1  1  0.33333300  0.66666700  0.25000000  1
  Cl  Cl0  1  0.80726900  0.04777500  0.75000000  1
  Cl  Cl1  1  0.19273100  0.95222500  0.25000000  1
  Cl  Cl2  1  0.24050600  0.19273100  0.75000000  1
  Cl  Cl3  1  0.75949400  0.80726900  0.25000000  1
  Cl  Cl4  1  0.95222500  0.75949400  0.75000000  1
  Cl  Cl5  1  0.04777500  0.24050600  0.25000000  1
  O  O0  1  0.83735700  0.36372500  0.97863700  1
  O  O1  1  0.16264300  0.63627500  0.02136300  1
  O  O2  1  0.52636800  0.16264300  0.97863700  1
  O  O3  1  0.16264300  0.63627500  0.47863700  1
  O  O4  1  0.47363200  0.83735700  0.02136300  1
  O  O5  1  0.83735700  0.36372500  0.52136300  1
  O  O6  1  0.63627500  0.47363200  0.97863700  1
  O  O7  1  0.47363200  0.83735700  0.47863700  1
  O  O8  1  0.36372500  0.52636800  0.02136300  1
  O  O9  1  0.52636800  0.16264300  0.52136300  1
  O  O10  1  0.36372500  0.52636800  0.47863700  1
  O  O11  1  0.63627500  0.47363200  0.52136300  1
loop_
_geom_bond_atom_site_label_1
_geom_bond_atom_site_label_2
_geom_bond_distance
_geom_bond_site_symmetry_2
La0 O10 2.444754 1_555
La0 O8 2.444754 1_556
La0 O11 2.562751 1_555
La0 O6 2.562751 1_555
La0 O7 2.685922 1_555
La0 O4 2.685922 1_556
La1 O6 2.444754 1_554
La1 O11 2.444754 1_555
La1 O8 2.562751 1_555
La1 O10 2.562751 1_555
La1 O9 2.685922 1_555
La1 O2 2.685922 1_554
La2 O1 2.444753 1_556
La2 O3 2.444753 1_555
La2 O0 2.562743 1_455
La2 O5 2.562743 1_455
La2 O8 2.685929 1_556
La2 O10 2.685929 1_555
La3 O5 2.444753 1_555
La3 O0 2.444753 1_554
La3 O1 2.562743 1_655
La3 O3 2.562743 1_655
La3 O11 2.685929 1_555
La3 O6 2.685929 1_554
La4 O7 2.444760 1_555
La4 O4 2.444760 1_556
La4 O2 2.562746 1_565
La4 O9 2.562746 1_565
La4 O3 2.685928 1_555
La4 O1 2.685928 1_556
La5 O9 2.444760 1_555
La5 O2 2.444760 1_554
La5 O4 2.562746 1_545
La5 O7 2.562746 1_545
La5 O0 2.685928 1_554
La5 O5 2.685928 1_555
Cl0 La0 2.982050 1_545
Cl0 La5 3.067897 1_555
Cl0 La5 3.067897 1_556
Cl0 La2 3.098532 1_655
Cl1 La1 2.982050 1_565
Cl1 La4 3.067897 1_554
Cl1 La4 3.067897 1_555
Cl1 La3 3.098532 1_455
Cl2 La2 2.982058 1_555
Cl2 La1 3.067900 1_555
Cl2 La1 3.067900 1_556
Cl2 La4 3.098526 1_545
Cl3 La3 2.982058 1_555
Cl3 La0 3.067900 1_555
Cl3 La0 3.067900 1_554
Cl3 La5 3.098526 1_565
Cl4 La4 2.982049 1_655
Cl4 La3 3.067901 1_556
Cl4 La3 3.067901 1_555
Cl4 La0 3.098535 1_555
Cl5 La5 2.982049 1_455
Cl5 La2 3.067901 1_555
Cl5 La2 3.067901 1_554
Cl5 La1 3.098535 1_555
O0 Re0 1.947697 1_555
O1 Re1 1.947697 1_555
O2 Re0 1.947700 1_555
O3 Re1 1.947697 1_555
O4 Re1 1.947700 1_555
O5 Re0 1.947697 1_555
O6 Re0 1.947705 1_555
O7 Re1 1.947700 1_555
O8 Re1 1.947705 1_555
O9 Re0 1.947700 1_555
O10 Re1 1.947705 1_555
O11 Re0 1.947705 1_555
