# generated using pymatgen
data_BaYCuBiO5
_symmetry_space_group_name_H-M   'P 1'
_cell_length_a   3.93958000
_cell_length_b   3.93958000
_cell_length_c   9.21615100
_cell_angle_alpha   90.00000000
_cell_angle_beta   90.00000000
_cell_angle_gamma   90.00000000
_symmetry_Int_Tables_number   1
_chemical_formula_structural   BaYCuBiO5
_chemical_formula_sum   'Ba1 Y1 Cu1 Bi1 O5'
_cell_volume   143.03734152
_cell_formula_units_Z   1
loop_
 _symmetry_equiv_pos_site_id
 _symmetry_equiv_pos_as_xyz
  1  'x, y, z'
loop_
 _atom_site_type_symbol
 _atom_site_label
 _atom_site_symmetry_multiplicity
 _atom_site_fract_x
 _atom_site_fract_y
 _atom_site_fract_z
 _atom_site_occupancy
  Ba  Ba0  1  0.00000000  0.00000000  0.05188800  1
  Y  Y0  1  0.00000000  0.00000000  0.44619600  1
  Cu  Cu0  1  0.50000000  0.50000000  0.26127300  1
  Bi  Bi0  1  0.50000000  0.50000000  0.71260300  1
  O  O0  1  0.00000000  0.50000000  0.58971000  1
  O  O1  1  0.50000000  0.00000000  0.58971000  1
  O  O2  1  0.00000000  0.50000000  0.28148900  1
  O  O3  1  0.50000000  0.00000000  0.28148900  1
  O  O4  1  0.50000000  0.50000000  0.97355700  1
loop_
_geom_bond_atom_site_label_1
_geom_bond_atom_site_label_2
_geom_bond_distance
_geom_bond_site_symmetry_2
Ba0 O4 2.877725 1_454
Ba0 O4 2.877725 1_554
Ba0 O4 2.877725 1_444
Ba0 O4 2.877725 1_544
Ba0 O3 2.890966 1_455
Ba0 O3 2.890966 1_555
Ba0 O2 2.890966 1_545
Ba0 O2 2.890966 1_555
Cu0 O2 1.978582 1_655
Cu0 O3 1.978582 1_555
Cu0 O2 1.978582 1_555
Cu0 O3 1.978582 1_565
Cu0 O4 2.651634 1_554
Bi0 O1 2.272192 1_555
Bi0 O0 2.272192 1_555
Bi0 O1 2.272192 1_565
Bi0 O0 2.272192 1_655
Bi0 O4 2.404991 1_555
O0 Y0 2.372650 1_565
O0 Y0 2.372650 1_555
O1 Y0 2.372650 1_555
O1 Y0 2.372650 1_655
O2 Y0 2.486823 1_565
O2 Y0 2.486823 1_555
O3 Y0 2.486823 1_555
O3 Y0 2.486823 1_655
