# generated using pymatgen
data_MgBiO3
_symmetry_space_group_name_H-M   'P 1'
_cell_length_a   5.65167900
_cell_length_b   5.70683000
_cell_length_c   8.29280100
_cell_angle_alpha   90.00000000
_cell_angle_beta   90.00000000
_cell_angle_gamma   90.00000000
_symmetry_Int_Tables_number   1
_chemical_formula_structural   MgBiO3
_chemical_formula_sum   'Mg4 Bi4 O12'
_cell_volume   267.46913094
_cell_formula_units_Z   4
loop_
 _symmetry_equiv_pos_site_id
 _symmetry_equiv_pos_as_xyz
  1  'x, y, z'
loop_
 _atom_site_type_symbol
 _atom_site_label
 _atom_site_symmetry_multiplicity
 _atom_site_fract_x
 _atom_site_fract_y
 _atom_site_fract_z
 _atom_site_occupancy
  Mg  Mg0  1  0.51593200  0.02813500  0.75000000  1
  Mg  Mg1  1  0.01593200  0.47186500  0.25000000  1
  Mg  Mg2  1  0.98406800  0.52813500  0.75000000  1
  Mg  Mg3  1  0.48406800  0.97186500  0.25000000  1
  Bi  Bi0  1  0.00000000  0.00000000  0.50000000  1
  Bi  Bi1  1  0.50000000  0.50000000  0.50000000  1
  Bi  Bi2  1  0.50000000  0.50000000  0.00000000  1
  Bi  Bi3  1  0.00000000  0.00000000  0.00000000  1
  O  O0  1  0.35415800  0.61977300  0.25000000  1
  O  O1  1  0.85415800  0.88022700  0.75000000  1
  O  O2  1  0.14584200  0.11977300  0.25000000  1
  O  O3  1  0.64584200  0.38022700  0.75000000  1
  O  O4  1  0.16123800  0.33609300  0.92106800  1
  O  O5  1  0.66123800  0.16390700  0.07893200  1
  O  O6  1  0.33876200  0.83609300  0.57893200  1
  O  O7  1  0.83876200  0.66390700  0.42106800  1
  O  O8  1  0.16123800  0.33609300  0.57893200  1
  O  O9  1  0.66123800  0.16390700  0.42106800  1
  O  O10  1  0.83876200  0.66390700  0.07893200  1
  O  O11  1  0.33876200  0.83609300  0.92106800  1
loop_
_geom_bond_atom_site_label_1
_geom_bond_atom_site_label_2
_geom_bond_distance
_geom_bond_site_symmetry_2
Mg0 O6 2.053350 1_545
Mg0 O11 2.053350 1_545
Mg0 O1 2.089613 1_545
Mg0 O3 2.139268 1_555
Mg1 O10 2.053350 1_455
Mg1 O7 2.053350 1_455
Mg1 O0 2.089613 1_555
Mg1 O2 2.139268 1_555
Mg2 O8 2.053350 1_655
Mg2 O4 2.053350 1_655
Mg2 O3 2.089613 1_555
Mg2 O1 2.139268 1_555
Mg3 O5 2.053350 1_565
Mg3 O9 2.053350 1_565
Mg3 O2 2.089613 1_565
Mg3 O0 2.139268 1_555
Bi0 O7 2.222090 1_445
Bi0 O8 2.222090 1_555
Bi0 O6 2.229127 1_545
Bi0 O9 2.229127 1_455
Bi0 O2 2.333400 1_555
Bi0 O1 2.333400 1_445
Bi1 O9 2.222090 1_555
Bi1 O6 2.222090 1_555
Bi1 O8 2.229127 1_555
Bi1 O7 2.229127 1_555
Bi1 O3 2.333400 1_555
Bi1 O0 2.333400 1_555
Bi2 O5 2.222090 1_555
Bi2 O11 2.222090 1_554
Bi2 O10 2.229127 1_555
Bi2 O4 2.229127 1_554
Bi2 O3 2.333400 1_554
Bi2 O0 2.333400 1_555
Bi3 O4 2.222090 1_554
Bi3 O10 2.222090 1_445
Bi3 O11 2.229127 1_544
Bi3 O5 2.229127 1_455
Bi3 O2 2.333400 1_555
Bi3 O1 2.333400 1_444
