# generated using pymatgen
data_U8VS17
_symmetry_space_group_name_H-M   'P 1'
_cell_length_a   7.90288666
_cell_length_b   7.90288666
_cell_length_c   10.43657058
_cell_angle_alpha   80.89059460
_cell_angle_beta   80.89059460
_cell_angle_gamma   64.91082995
_symmetry_Int_Tables_number   1
_chemical_formula_structural   U8VS17
_chemical_formula_sum   'U8 V1 S17'
_cell_volume   579.83858697
_cell_formula_units_Z   1
loop_
 _symmetry_equiv_pos_site_id
 _symmetry_equiv_pos_as_xyz
  1  'x, y, z'
loop_
 _atom_site_type_symbol
 _atom_site_label
 _atom_site_symmetry_multiplicity
 _atom_site_fract_x
 _atom_site_fract_y
 _atom_site_fract_z
 _atom_site_occupancy
  U  U0  1  0.81244140  0.29918105  0.29326045  1
  U  U1  1  0.29918105  0.81244140  0.29326045  1
  U  U2  1  0.18755860  0.70081895  0.70673955  1
  U  U3  1  0.70081895  0.18755860  0.70673955  1
  U  U4  1  0.20612762  0.20612762  0.54243322  1
  U  U5  1  0.79387238  0.79387238  0.45756678  1
  U  U6  1  0.68320323  0.68320323  0.97877377  1
  U  U7  1  0.31679677  0.31679677  0.02122623  1
  V  V0  1  -0.00000000  -0.00000000  -0.00000000  1
  S  S0  1  0.82445043  0.43036487  0.53321863  1
  S  S1  1  0.43036487  0.82445043  0.53321863  1
  S  S2  1  0.17554957  0.56963513  0.46678137  1
  S  S3  1  0.56963513  0.17554957  0.46678137  1
  S  S4  1  0.94201695  0.32512663  0.02900960  1
  S  S5  1  0.32512663  0.94201695  0.02900960  1
  S  S6  1  0.05798305  0.67487337  0.97099040  1
  S  S7  1  0.67487337  0.05798305  0.97099040  1
  S  S8  1  0.20731795  0.20731795  0.27875623  1
  S  S9  1  0.79268205  0.79268205  0.72124377  1
  S  S10  1  0.05938084  0.05938084  0.77190774  1
  S  S11  1  0.94061916  0.94061916  0.22809226  1
  S  S12  1  0.30406243  0.30406243  0.75503105  1
  S  S13  1  0.69593757  0.69593757  0.24496895  1
  S  S14  1  0.52247434  0.52247434  0.83092957  1
  S  S15  1  0.47752566  0.47752566  0.16907043  1
  S  S16  1  -0.00000000  -0.00000000  0.50000000  1
loop_
_geom_bond_atom_site_label_1
_geom_bond_atom_site_label_2
_geom_bond_distance
_geom_bond_site_symmetry_2
S0 U5 2.772725 1_555
S0 U4 2.784381 1_655
S0 U3 2.801007 1_555
S0 U0 2.887272 1_555
S1 U5 2.772725 1_555
S1 U4 2.784381 1_565
S1 U2 2.801007 1_555
S1 U1 2.887272 1_555
S2 U4 2.772725 1_555
S2 U5 2.784381 1_455
S2 U1 2.801007 1_555
S2 U2 2.887272 1_555
S3 U4 2.772725 1_555
S3 U5 2.784381 1_545
S3 U0 2.801007 1_555
S3 U3 2.887272 1_555
S4 V0 2.471345 1_655
S4 U6 2.725358 1_554
S4 U0 2.793081 1_555
S4 U7 2.922944 1_655
S5 V0 2.471345 1_565
S5 U6 2.725358 1_554
S5 U1 2.793081 1_555
S5 U7 2.922944 1_565
S6 V0 2.471345 1_566
S6 U7 2.725358 1_556
S6 U2 2.793081 1_555
S6 U6 2.922944 1_455
S7 V0 2.471345 1_656
S7 U7 2.725358 1_556
S7 U3 2.793081 1_555
S7 U6 2.922944 1_545
S8 U4 2.748949 1_555
S8 U7 2.807706 1_555
S8 U0 2.872702 1_455
S8 U1 2.872702 1_545
S9 U5 2.748949 1_555
S9 U6 2.807706 1_555
S9 U2 2.872702 1_655
S9 U3 2.872702 1_565
S10 V0 2.363587 1_556
S10 U2 2.734266 1_545
S10 U3 2.734266 1_455
S10 U4 2.794152 1_555
S11 V0 2.363587 1_665
S11 U0 2.734266 1_565
S11 U1 2.734266 1_655
S11 U5 2.794152 1_555
S12 U4 2.777880 1_555
S12 U7 2.814978 1_556
S12 U3 2.851579 1_555
S12 U2 2.851579 1_555
S13 U5 2.777880 1_555
S13 U6 2.814978 1_554
S13 U0 2.851579 1_555
S13 U1 2.851579 1_555
S14 U3 2.831278 1_555
S14 U2 2.831278 1_555
S14 U6 2.866572 1_555
S14 U7 3.069983 1_556
S15 U0 2.831278 1_555
S15 U1 2.831278 1_555
S15 U7 2.866572 1_555
S15 U6 3.069983 1_554
S16 U5 2.865437 1_445
S16 U4 2.865437 1_555
S16 U2 2.977935 1_545
S16 U3 2.977935 1_455
S16 U0 2.977935 1_455
S16 U1 2.977935 1_545
