# generated using pymatgen
data_H5C2S2N3
_symmetry_space_group_name_H-M   'P 1'
_cell_length_a   10.74038500
_cell_length_b   4.31426900
_cell_length_c   12.72230830
_cell_angle_alpha   84.97864909
_cell_angle_beta   90.00000000
_cell_angle_gamma   90.00000000
_symmetry_Int_Tables_number   1
_chemical_formula_structural   H5C2S2N3
_chemical_formula_sum   'H20 C8 S8 N12'
_cell_volume   587.24999550
_cell_formula_units_Z   4
loop_
 _symmetry_equiv_pos_site_id
 _symmetry_equiv_pos_as_xyz
  1  'x, y, z'
loop_
 _atom_site_type_symbol
 _atom_site_label
 _atom_site_symmetry_multiplicity
 _atom_site_fract_x
 _atom_site_fract_y
 _atom_site_fract_z
 _atom_site_occupancy
  H  H0  1  0.18767300  0.70783000  0.11473700  1
  H  H1  1  0.68767300  0.29217000  0.88526300  1
  H  H2  1  0.30542200  0.74378000  0.02139600  1
  H  H3  1  0.80542200  0.25622000  0.97860400  1
  H  H4  1  0.50627700  0.20664800  0.17429900  1
  H  H5  1  0.00627700  0.79335200  0.82570100  1
  H  H6  1  0.48992600  0.45252300  0.05396300  1
  H  H7  1  0.98992600  0.54747700  0.94603700  1
  H  H8  1  0.18929300  0.33354800  0.24289500  1
  H  H9  1  0.68929300  0.66645200  0.75710500  1
  H  H10  1  0.01244600  0.59544100  0.45137700  1
  H  H11  1  0.51244600  0.40455900  0.54862300  1
  H  H12  1  0.89032600  0.35118800  0.49803200  1
  H  H13  1  0.39032600  0.64881200  0.50196800  1
  H  H14  1  0.70161800  0.56663800  0.27106800  1
  H  H15  1  0.20161800  0.43336200  0.72893200  1
  H  H16  1  0.71043700  0.33942800  0.39577200  1
  H  H17  1  0.21043700  0.66057200  0.60422800  1
  H  H18  1  0.00701000  0.87406000  0.30588600  1
  H  H19  1  0.50701000  0.12594000  0.69411400  1
  C  C0  1  0.34100400  0.43347100  0.15190100  1
  C  C1  1  0.84100400  0.56652900  0.84809900  1
  C  C2  1  0.32634700  0.10428300  0.32699400  1
  C  C3  1  0.82634700  0.89571700  0.67300600  1
  C  C4  1  0.86189800  0.59963100  0.35417700  1
  C  C5  1  0.36189800  0.40036900  0.64582300  1
  C  C6  1  0.88828200  0.92354600  0.18009900  1
  C  C7  1  0.38828200  0.07645400  0.81990100  1
  S  S0  1  0.20987900  0.99466400  0.41412300  1
  S  S1  1  0.70987900  0.00533600  0.58587700  1
  S  S2  1  0.47647000  0.99650600  0.34025900  1
  S  S3  1  0.97647000  0.00349400  0.65974100  1
  S  S4  1  0.00792400  0.12322500  0.11686000  1
  S  S5  1  0.50792400  0.87677500  0.88314000  1
  S  S6  1  0.74919800  0.85675500  0.12583000  1
  S  S7  1  0.24919800  0.14324500  0.87417000  1
  N  N0  1  0.27306700  0.63647700  0.09132400  1
  N  N1  1  0.77306700  0.36352300  0.90867600  1
  N  N2  1  0.28402000  0.30217900  0.24154000  1
  N  N3  1  0.78402000  0.69782100  0.75846000  1
  N  N4  1  0.45609000  0.36080600  0.12475100  1
  N  N5  1  0.95609000  0.63919400  0.87524900  1
  N  N6  1  0.92697600  0.50335900  0.43973000  1
  N  N7  1  0.42697600  0.49664100  0.56027000  1
  N  N8  1  0.91868900  0.81307200  0.28377300  1
  N  N9  1  0.41868900  0.18692800  0.71622700  1
  N  N10  1  0.74862600  0.48997300  0.33888800  1
  N  N11  1  0.24862600  0.51002700  0.66111200  1
loop_
_geom_bond_atom_site_label_1
_geom_bond_atom_site_label_2
_geom_bond_distance
_geom_bond_site_symmetry_2
H0 N0 1.020162 1_555
H1 N1 1.020162 1_555
H2 N0 1.026860 1_555
H3 N1 1.026860 1_555
H4 N4 1.028033 1_555
H5 N5 1.028033 1_455
H6 N4 1.018487 1_555
H7 N5 1.018487 1_555
H8 N2 1.026710 1_555
H9 N3 1.026710 1_555
H10 N6 1.016253 1_455
H11 N7 1.016253 1_555
H12 N6 1.025124 1_555
H13 N7 1.025124 1_555
H14 N10 1.028989 1_555
H15 N11 1.028989 1_555
H16 N10 1.015642 1_555
H17 N11 1.015642 1_555
H18 N8 1.030136 1_455
H19 N9 1.030136 1_555
C0 N4 1.328310 1_555
C0 N0 1.332393 1_555
C0 N2 1.372185 1_555
C1 N5 1.328310 1_555
C1 N1 1.332393 1_555
C1 N3 1.372185 1_555
C2 N2 1.398235 1_555
C2 S2 1.682473 1_545
C2 S0 1.710380 1_545
C3 N3 1.398235 1_555
C3 S3 1.682473 1_565
C3 S1 1.710380 1_565
C4 N10 1.325836 1_555
C4 N6 1.329137 1_555
C4 N8 1.370363 1_555
C5 N11 1.325836 1_555
C5 N7 1.329137 1_555
C5 N9 1.370363 1_555
C6 N8 1.401235 1_555
C6 S6 1.681081 1_555
C6 S4 1.708603 1_665
C7 N9 1.401235 1_555
C7 S7 1.681081 1_555
C7 S5 1.708603 1_545
