# generated using pymatgen
data_Mg6ZrC
_symmetry_space_group_name_H-M   'P 1'
_cell_length_a   6.35903676
_cell_length_b   6.35903676
_cell_length_c   4.59009300
_cell_angle_alpha   90.00000000
_cell_angle_beta   90.00000000
_cell_angle_gamma   104.64210369
_symmetry_Int_Tables_number   1
_chemical_formula_structural   Mg6ZrC
_chemical_formula_sum   'Mg6 Zr1 C1'
_cell_volume   179.58322116
_cell_formula_units_Z   1
loop_
 _symmetry_equiv_pos_site_id
 _symmetry_equiv_pos_as_xyz
  1  'x, y, z'
loop_
 _atom_site_type_symbol
 _atom_site_label
 _atom_site_symmetry_multiplicity
 _atom_site_fract_x
 _atom_site_fract_y
 _atom_site_fract_z
 _atom_site_occupancy
  Mg  Mg0  1  0.78434700  0.60738000  0.00000000  1
  Mg  Mg1  1  0.39262000  0.21565300  0.00000000  1
  Mg  Mg2  1  0.29656900  0.70343100  0.00000000  1
  Mg  Mg3  1  0.57417600  0.87890400  0.50000000  1
  Mg  Mg4  1  0.12109600  0.42582400  0.50000000  1
  Mg  Mg5  1  0.08961200  0.91038800  0.50000000  1
  Zr  Zr0  1  0.86465600  0.13534400  0.00000000  1
  C  C0  1  0.87692500  0.12307500  0.50000000  1
loop_
_geom_bond_atom_site_label_1
_geom_bond_atom_site_label_2
_geom_bond_distance
_geom_bond_site_symmetry_2
Mg0 Mg1 3.045187 1_555
Mg0 Mg2 3.158617 1_655
Mg0 Zr0 3.169536 1_555
Mg0 Zr0 3.265844 1_565
Mg0 Mg5 3.295025 1_654
Mg0 Mg5 3.295025 1_655
Mg0 Mg2 3.309385 1_555
Mg0 Mg3 3.346838 1_555
Mg0 Mg3 3.346838 1_554
Mg1 Mg2 3.158617 1_545
Mg1 Zr0 3.169536 1_555
Mg1 Zr0 3.265844 1_455
Mg1 Mg5 3.295025 1_544
Mg1 Mg5 3.295025 1_545
Mg1 Mg2 3.309385 1_555
Mg1 Mg4 3.346838 1_554
Mg1 Mg4 3.346838 1_555
Mg2 Mg3 2.938164 1_555
Mg2 Mg4 2.938164 1_555
Mg2 Mg3 2.938164 1_554
Mg2 Mg4 2.938164 1_554
Mg2 Mg5 3.099487 1_555
Mg2 Mg5 3.099487 1_554
C0 Mg5 2.140843 1_645
C0 Mg3 2.146155 1_545
C0 Mg4 2.146155 1_655
C0 Zr0 2.298367 1_556
C0 Zr0 2.298367 1_555
