# generated using pymatgen
data_La9In5S21
_symmetry_space_group_name_H-M   'P 1'
_cell_length_a   12.09209238
_cell_length_b   12.09209238
_cell_length_c   12.09209148
_cell_angle_alpha   94.99290805
_cell_angle_beta   94.99290805
_cell_angle_gamma   94.99290724
_symmetry_Int_Tables_number   1
_chemical_formula_structural   La9In5S21
_chemical_formula_sum   'La18 In10 S42'
_cell_volume   1746.70598911
_cell_formula_units_Z   2
loop_
 _symmetry_equiv_pos_site_id
 _symmetry_equiv_pos_as_xyz
  1  'x, y, z'
loop_
 _atom_site_type_symbol
 _atom_site_label
 _atom_site_symmetry_multiplicity
 _atom_site_fract_x
 _atom_site_fract_y
 _atom_site_fract_z
 _atom_site_occupancy
  La  La0  1  0.43831800  0.21164500  0.58324100  1
  La  La1  1  0.11020000  0.87888800  0.25852400  1
  La  La2  1  0.77598700  0.54782400  0.92146400  1
  La  La3  1  0.54782400  0.92146400  0.77598700  1
  La  La4  1  0.21164500  0.58324100  0.43831800  1
  La  La5  1  0.87888800  0.25852400  0.11020000  1
  La  La6  1  0.25852400  0.11020000  0.87888800  1
  La  La7  1  0.92146400  0.77598700  0.54782400  1
  La  La8  1  0.58324100  0.43831800  0.21164500  1
  La  La9  1  0.22053600  0.44952100  0.07611000  1
  La  La10  1  0.88385400  0.11038600  0.73827500  1
  La  La11  1  0.55502300  0.78591600  0.40657900  1
  La  La12  1  0.11038600  0.73827500  0.88385400  1
  La  La13  1  0.78591600  0.40657900  0.55502300  1
  La  La14  1  0.44952100  0.07611000  0.22053600  1
  La  La15  1  0.40657900  0.55502300  0.78591600  1
  La  La16  1  0.07611000  0.22053600  0.44952100  1
  La  La17  1  0.73827500  0.88385400  0.11038600  1
  In  In0  1  0.88957100  0.55598500  0.22234500  1
  In  In1  1  0.55598500  0.22234500  0.88957100  1
  In  In2  1  0.22234500  0.88957100  0.55598500  1
  In  In3  1  0.38974600  0.72285400  0.05537100  1
  In  In4  1  0.05537100  0.38974600  0.72285400  1
  In  In5  1  0.72285400  0.05537100  0.38974600  1
  In  In6  1  0.00069700  0.00069700  0.00069700  1
  In  In7  1  0.68901200  0.68901200  0.68901200  1
  In  In8  1  0.18896900  0.18896900  0.18896900  1
  In  In9  1  0.50071500  0.50071500  0.50071500  1
  S  S0  1  0.95129200  0.80450700  0.05477200  1
  S  S1  1  0.61435600  0.47428600  0.70966900  1
  S  S2  1  0.27596900  0.12598900  0.37552300  1
  S  S3  1  0.12598900  0.37552300  0.27596900  1
  S  S4  1  0.80450700  0.05477200  0.95129200  1
  S  S5  1  0.47428600  0.70966900  0.61435600  1
  S  S6  1  0.70966900  0.61435600  0.47428600  1
  S  S7  1  0.37552300  0.27596900  0.12598900  1
  S  S8  1  0.05477200  0.95129200  0.80450700  1
  S  S9  1  0.42256300  0.56900400  0.31890700  1
  S  S10  1  0.08470800  0.22462600  0.98913000  1
  S  S11  1  0.74218300  0.89237100  0.64275700  1
  S  S12  1  0.22462600  0.98913000  0.08470800  1
  S  S13  1  0.89237100  0.64275700  0.74218300  1
  S  S14  1  0.56900400  0.31890700  0.42256300  1
  S  S15  1  0.64275700  0.74218300  0.89237100  1
  S  S16  1  0.31890700  0.42256300  0.56900400  1
  S  S17  1  0.98913000  0.08470800  0.22462600  1
  S  S18  1  0.80993700  0.38617900  0.30022900  1
  S  S19  1  0.48229800  0.04884700  0.96660200  1
  S  S20  1  0.14646500  0.71710400  0.63288800  1
  S  S21  1  0.71710400  0.63288800  0.14646500  1
  S  S22  1  0.38617900  0.30022900  0.80993700  1
  S  S23  1  0.04884700  0.96660200  0.48229800  1
  S  S24  1  0.96660200  0.48229800  0.04884700  1
  S  S25  1  0.63288800  0.14646500  0.71710400  1
  S  S26  1  0.30022900  0.80993700  0.38617900  1
  S  S27  1  0.34784600  0.78142100  0.86507500  1
  S  S28  1  0.02133700  0.44591900  0.52998400  1
  S  S29  1  0.68544300  0.11433400  0.19903800  1
  S  S30  1  0.44591900  0.52998400  0.02133700  1
  S  S31  1  0.11433400  0.19903800  0.68544300  1
  S  S32  1  0.78142100  0.86507500  0.34784600  1
  S  S33  1  0.19903800  0.68544300  0.11433400  1
  S  S34  1  0.86507500  0.34784600  0.78142100  1
  S  S35  1  0.52998400  0.02133700  0.44591900  1
  S  S36  1  0.68232400  0.35247700  0.01652900  1
  S  S37  1  0.35247700  0.01652900  0.68232400  1
  S  S38  1  0.01652900  0.68232400  0.35247700  1
  S  S39  1  0.51686900  0.85222200  0.18226600  1
  S  S40  1  0.18226600  0.51686900  0.85222200  1
  S  S41  1  0.85222200  0.18226600  0.51686900  1
loop_
_geom_bond_atom_site_label_1
_geom_bond_atom_site_label_2
_geom_bond_distance
_geom_bond_site_symmetry_2
La0 S37 2.891669 1_555
La0 S14 2.927596 1_555
La0 S25 2.942576 1_555
La0 S22 2.994411 1_555
La0 S16 3.048523 1_555
La0 S35 3.062806 1_555
La0 S2 3.093623 1_555
La1 S26 2.880645 1_555
La1 S38 2.906642 1_555
La1 S12 2.963432 1_555
La1 S23 2.997343 1_555
La1 S0 3.010128 1_455
La1 S17 3.035246 1_465
La1 S33 3.117551 1_555
La1 S2 3.560270 1_565
La2 S24 2.868011 1_556
La2 S36 2.901299 1_556
La2 S13 2.946366 1_555
La2 S21 2.990808 1_556
La2 S15 2.991148 1_555
La2 S1 3.098287 1_555
La2 S34 3.151791 1_555
La3 S19 2.868011 1_565
La3 S37 2.901299 1_565
La3 S15 2.946366 1_555
La3 S25 2.990808 1_565
La3 S11 2.991148 1_555
La3 S5 3.098287 1_555
La3 S27 3.151791 1_555
La4 S38 2.891669 1_555
La4 S16 2.927596 1_555
La4 S20 2.942576 1_555
La4 S26 2.994411 1_555
La4 S9 3.048523 1_555
La4 S28 3.062806 1_555
La4 S3 3.093623 1_555
La5 S18 2.880645 1_555
La5 S36 2.906642 1_555
La5 S17 2.963432 1_555
La5 S24 2.997344 1_555
La5 S4 3.010128 1_554
La5 S10 3.035245 1_654
La5 S29 3.117551 1_555
La5 S3 3.560270 1_655
La6 S22 2.880645 1_555
La6 S37 2.906642 1_555
La6 S10 2.963432 1_555
La6 S19 2.997344 1_555
La6 S8 3.010128 1_545
La6 S12 3.035245 1_546
La6 S31 3.117551 1_555
La6 S7 3.560269 1_556
La7 S23 2.868011 1_655
La7 S38 2.901299 1_655
La7 S11 2.946366 1_555
La7 S20 2.990808 1_655
La7 S13 2.991148 1_555
La7 S6 3.098287 1_555
La7 S32 3.151791 1_555
La8 S36 2.891669 1_555
La8 S9 2.927596 1_555
La8 S21 2.942576 1_555
La8 S18 2.994411 1_555
La8 S14 3.048522 1_555
La8 S30 3.062806 1_555
La8 S7 3.093624 1_555
La9 S33 2.887925 1_555
La9 S40 2.904822 1_554
La9 S3 2.937260 1_555
La9 S30 2.962715 1_555
La9 S7 2.998069 1_555
La9 S10 3.102133 1_554
La9 S24 3.122930 1_455
La10 S41 2.890360 1_555
La10 S34 2.905510 1_555
La10 S4 2.937188 1_555
La10 S31 3.038694 1_655
La10 S8 3.047289 1_645
La10 S11 3.091615 1_545
La10 S25 3.095151 1_555
La11 S35 2.891580 1_565
La11 S39 2.904824 1_555
La11 S5 2.964645 1_555
La11 S32 2.985941 1_555
La11 S9 3.009691 1_555
La11 S6 3.029061 1_555
La11 S26 3.110255 1_555
La11 S11 3.558505 1_555
La12 S40 2.890360 1_555
La12 S27 2.905510 1_555
La12 S8 2.937188 1_555
La12 S33 3.038693 1_556
La12 S0 3.047289 1_456
La12 S13 3.091615 1_455
La12 S20 3.095151 1_555
La13 S28 2.891580 1_655
La13 S41 2.904824 1_555
La13 S6 2.964645 1_555
La13 S34 2.985941 1_555
La13 S14 3.009691 1_555
La13 S1 3.029061 1_555
La13 S18 3.110255 1_555
La13 S13 3.558506 1_555
La14 S29 2.887925 1_555
La14 S39 2.904822 1_545
La14 S7 2.937260 1_555
La14 S35 2.962714 1_555
La14 S2 2.998069 1_555
La14 S12 3.102133 1_545
La14 S19 3.122930 1_554
La15 S30 2.891579 1_556
La15 S40 2.904824 1_555
La15 S1 2.964645 1_555
La15 S27 2.985941 1_555
La15 S16 3.009691 1_555
La15 S5 3.029061 1_555
La15 S22 3.110255 1_555
La15 S15 3.558506 1_555
La16 S31 2.887925 1_555
La16 S41 2.904822 1_455
La16 S2 2.937260 1_555
La16 S28 2.962715 1_555
La16 S3 2.998069 1_555
La16 S17 3.102133 1_455
La16 S23 3.122930 1_545
La17 S39 2.890360 1_555
La17 S32 2.905509 1_555
La17 S0 2.937188 1_555
La17 S29 3.038694 1_565
La17 S4 3.047289 1_564
La17 S15 3.091615 1_554
La17 S21 3.095151 1_555
In0 S38 2.433028 1_655
In0 S18 2.486077 1_555
In0 S21 2.491768 1_555
In0 S24 2.494435 1_555
In1 S36 2.433028 1_556
In1 S22 2.486077 1_555
In1 S25 2.491768 1_555
In1 S19 2.494435 1_555
In2 S37 2.433028 1_565
In2 S26 2.486077 1_555
In2 S20 2.491768 1_555
In2 S23 2.494435 1_555
In3 S39 2.432606 1_555
In3 S33 2.488303 1_555
In3 S27 2.489253 1_554
In3 S30 2.495445 1_555
In4 S40 2.432606 1_555
In4 S31 2.488303 1_555
In4 S34 2.489253 1_455
In4 S28 2.495445 1_555
In5 S41 2.432606 1_555
In5 S29 2.488303 1_555
In5 S32 2.489253 1_545
In5 S35 2.495445 1_555
In6 S8 2.550256 1_544
In6 S4 2.550256 1_454
In6 S0 2.550256 1_445
In6 S17 2.827618 1_455
In6 S12 2.827618 1_545
In6 S10 2.827618 1_554
In7 S15 2.607658 1_555
In7 S13 2.607658 1_555
In7 S11 2.607658 1_555
In7 S6 2.713527 1_555
In7 S5 2.713527 1_555
In7 S1 2.713527 1_555
In8 S2 2.607848 1_555
In8 S3 2.607848 1_555
In8 S7 2.607848 1_555
In8 S10 2.713001 1_554
In8 S12 2.713001 1_545
In8 S17 2.713001 1_455
In9 S9 2.549170 1_555
In9 S14 2.549170 1_555
In9 S16 2.549170 1_555
In9 S1 2.826170 1_555
In9 S5 2.826170 1_555
In9 S6 2.826171 1_555
