# generated using pymatgen
data_Ta2Ti2Co2C
_symmetry_space_group_name_H-M   'P 1'
_cell_length_a   8.15275776
_cell_length_b   8.15275776
_cell_length_c   8.15275776
_cell_angle_alpha   119.84754012
_cell_angle_beta   119.84754012
_cell_angle_gamma   90.26427173
_symmetry_Int_Tables_number   1
_chemical_formula_structural   Ta2Ti2Co2C
_chemical_formula_sum   'Ta8 Ti8 Co8 C4'
_cell_volume   384.05485888
_cell_formula_units_Z   4
loop_
 _symmetry_equiv_pos_site_id
 _symmetry_equiv_pos_as_xyz
  1  'x, y, z'
loop_
 _atom_site_type_symbol
 _atom_site_label
 _atom_site_symmetry_multiplicity
 _atom_site_fract_x
 _atom_site_fract_y
 _atom_site_fract_z
 _atom_site_occupancy
  Ta  Ta0  1  0.31176500  0.31176500  0.00000000  1
  Ta  Ta1  1  0.68823500  0.68823500  0.00000000  1
  Ta  Ta2  1  0.56148600  0.06148600  0.12297200  1
  Ta  Ta3  1  0.93851400  0.43851400  0.87702800  1
  Ta  Ta4  1  0.93851400  0.06148600  0.50000000  1
  Ta  Ta5  1  0.56148600  0.43851400  0.50000000  1
  Ta  Ta6  1  0.93779000  0.43779000  0.50000000  1
  Ta  Ta7  1  0.56221000  0.06221000  0.50000000  1
  Ti  Ti0  1  0.12414900  0.37531600  0.25116700  1
  Ti  Ti1  1  0.12701800  0.87585100  0.25116700  1
  Ti  Ti2  1  0.62468400  0.87585100  0.74883300  1
  Ti  Ti3  1  0.12414900  0.87298200  0.74883300  1
  Ti  Ti4  1  0.68584200  0.68584200  0.37168400  1
  Ti  Ti5  1  0.31415800  0.31415800  0.62831600  1
  Ti  Ti6  1  0.31415800  0.68584200  0.00000000  1
  Ti  Ti7  1  0.68584200  0.31415800  0.00000000  1
  Co  Co0  1  0.91541100  0.75000900  0.83459700  1
  Co  Co1  1  0.91918600  0.08458900  0.83459700  1
  Co  Co2  1  0.24999100  0.08458900  0.16540300  1
  Co  Co3  1  0.91541100  0.08081400  0.16540300  1
  Co  Co4  1  0.33400000  0.00154400  0.66754300  1
  Co  Co5  1  0.33354300  0.66600000  0.66754300  1
  Co  Co6  1  0.99845600  0.66600000  0.33245700  1
  Co  Co7  1  0.33400000  0.66645700  0.33245700  1
  C  C0  1  0.62240600  0.87124700  0.24884100  1
  C  C1  1  0.62643400  0.37759400  0.24884100  1
  C  C2  1  0.12875300  0.37759400  0.75115900  1
  C  C3  1  0.62240600  0.37356600  0.75115900  1
loop_
_geom_bond_atom_site_label_1
_geom_bond_atom_site_label_2
_geom_bond_distance
_geom_bond_site_symmetry_2
Co0 Ti2 2.499261 1_555
Co0 Ti1 2.499268 1_656
Co0 Ti3 2.501319 1_655
Co0 Co3 2.703190 1_566
Co0 Ta5 2.723675 1_555
Co0 Ta3 2.723680 1_555
Co0 Co2 2.727781 1_666
Co0 Co1 2.727781 1_565
Co0 Ta6 2.746268 1_555
Co0 Ta1 2.942077 1_556
Co0 Ti4 3.002439 1_555
Co0 Ti6 3.002446 1_656
Co1 Ti3 2.499265 1_645
Co1 Ti0 2.499265 1_656
Co1 Ti2 2.501323 1_545
Co1 Co2 2.703190 1_656
Co1 Ta4 2.723672 1_555
Co1 Ta3 2.723672 1_555
Co1 Co3 2.727790 1_556
Co1 Ta7 2.746264 1_555
Co1 Ta0 2.942074 1_656
Co1 Ti4 3.002442 1_545
Co1 Ti7 3.002442 1_556
Co2 Ti0 2.499261 1_555
Co2 Ti3 2.499268 1_544
Co2 Ti1 2.501319 1_545
Co2 Ta5 2.723675 1_555
Co2 Ta2 2.723680 1_555
Co2 Co3 2.727781 1_455
Co2 Ta7 2.746268 1_555
Co2 Ta0 2.942077 1_555
Co2 Ti5 3.002439 1_555
Co2 Ti6 3.002446 1_545
Co3 Ti2 2.499265 1_544
Co3 Ti1 2.499265 1_645
Co3 Ti0 2.501323 1_655
Co3 Ta4 2.723672 1_555
Co3 Ta2 2.723672 1_555
Co3 Ta6 2.746264 1_555
Co3 Ta1 2.942074 1_545
Co3 Ti5 3.002442 1_655
Co3 Ti7 3.002442 1_555
Co4 Ti1 2.498129 1_545
Co4 Ti2 2.498136 1_545
Co4 Ti3 2.503674 1_545
Co4 Ti5 2.718047 1_555
Co4 Ti7 2.718051 1_556
Co4 Ta0 2.728695 1_556
Co4 Co6 2.735594 1_445
Co4 Co5 2.735594 1_545
Co4 Co7 2.738172 1_545
Co4 Ta7 2.960686 1_555
Co4 Ta4 2.965776 1_455
Co4 Ta2 2.965783 1_556
Co5 Ti3 2.498131 1_555
Co5 Ti0 2.498131 1_555
Co5 Ti2 2.503669 1_555
Co5 Ti5 2.718055 1_555
Co5 Ti6 2.718055 1_556
Co5 Ta1 2.728699 1_556
Co5 Co7 2.735586 1_555
Co5 Co6 2.738172 1_455
Co5 Ta6 2.960690 1_455
Co5 Ta5 2.965779 1_555
Co5 Ta2 2.965779 1_566
Co6 Ti3 2.498129 1_655
Co6 Ti0 2.498136 1_655
Co6 Ti1 2.503674 1_655
Co6 Ti4 2.718047 1_555
Co6 Ti7 2.718051 1_555
Co6 Ta1 2.728695 1_555
Co6 Co7 2.735594 1_655
Co6 Ta6 2.960686 1_555
Co6 Ta4 2.965776 1_565
Co6 Ta3 2.965783 1_554
Co7 Ti1 2.498131 1_555
Co7 Ti2 2.498131 1_555
Co7 Ti0 2.503669 1_555
Co7 Ti6 2.718055 1_555
Co7 Ti4 2.718055 1_555
Co7 Ta0 2.728699 1_555
Co7 Ta7 2.960690 1_565
Co7 Ta5 2.965779 1_555
Co7 Ta3 2.965779 1_454
C0 Ti6 2.133967 1_555
C0 Ti4 2.133967 1_555
C0 Ta7 2.166019 1_565
C0 Ta1 2.169835 1_555
C0 Ta2 2.188438 1_565
C0 Ta4 2.188438 1_565
C1 Ti4 2.133967 1_555
C1 Ti7 2.133973 1_555
C1 Ta6 2.166025 1_555
C1 Ta0 2.169829 1_555
C1 Ta5 2.188432 1_555
C1 Ta2 2.188438 1_555
C2 Ti5 2.133967 1_555
C2 Ti6 2.133967 1_556
C2 Ta6 2.166019 1_455
C2 Ta0 2.169835 1_556
C2 Ta3 2.188438 1_455
C2 Ta4 2.188438 1_455
C3 Ti5 2.133967 1_555
C3 Ti7 2.133973 1_556
C3 Ta7 2.166025 1_555
C3 Ta1 2.169829 1_556
C3 Ta5 2.188432 1_555
C3 Ta3 2.188438 1_555
