# generated using pymatgen
data_Li9Mn2Co5O16
_symmetry_space_group_name_H-M   'P 1'
_cell_length_a   5.07316354
_cell_length_b   7.71548481
_cell_length_c   7.71548527
_cell_angle_alpha   96.53510363
_cell_angle_beta   76.63228360
_cell_angle_gamma   76.63228669
_symmetry_Int_Tables_number   1
_chemical_formula_structural   Li9Mn2Co5O16
_chemical_formula_sum   'Li9 Mn2 Co5 O16'
_cell_volume   281.35745739
_cell_formula_units_Z   1
loop_
 _symmetry_equiv_pos_site_id
 _symmetry_equiv_pos_as_xyz
  1  'x, y, z'
loop_
 _atom_site_type_symbol
 _atom_site_label
 _atom_site_symmetry_multiplicity
 _atom_site_fract_x
 _atom_site_fract_y
 _atom_site_fract_z
 _atom_site_occupancy
  Li  Li0  1  0.00914800  0.11543700  0.36865100  1
  Li  Li1  1  0.99085200  0.63134900  0.88456300  1
  Li  Li2  1  0.50130000  0.00003000  0.49427800  1
  Li  Li3  1  0.49870000  0.50572200  0.99997000  1
  Li  Li4  1  0.00142800  0.87862800  0.62625100  1
  Li  Li5  1  0.99857200  0.37374900  0.12137200  1
  Li  Li6  1  0.49617200  0.75371400  0.75899600  1
  Li  Li7  1  0.50382800  0.24100400  0.24628600  1
  Li  Li8  1  0.50000000  0.87503000  0.12497000  1
  Mn  Mn0  1  0.00000000  0.99682300  0.00317700  1
  Mn  Mn1  1  0.50000000  0.63116300  0.36883700  1
  Co  Co0  1  0.00000000  0.49997300  0.50002700  1
  Co  Co1  1  0.50000000  0.37361700  0.62638300  1
  Co  Co2  1  0.00000000  0.75105400  0.24894600  1
  Co  Co3  1  0.00000000  0.24765900  0.75234100  1
  Co  Co4  1  0.50000000  0.12217300  0.87782700  1
  O  O0  1  0.78214300  0.98888600  0.23791100  1
  O  O1  1  0.76056700  0.49626400  0.74226400  1
  O  O2  1  0.24615300  0.85303100  0.36856100  1
  O  O3  1  0.26795600  0.35822800  0.86474400  1
  O  O4  1  0.74554800  0.73932300  0.48225200  1
  O  O5  1  0.77362700  0.23912600  0.99633000  1
  O  O6  1  0.26469600  0.61447200  0.60911400  1
  O  O7  1  0.24989200  0.11614900  0.10143100  1
  O  O8  1  0.23943300  0.25773600  0.50373600  1
  O  O9  1  0.21785700  0.76208900  0.01111400  1
  O  O10  1  0.73204400  0.13525600  0.64177200  1
  O  O11  1  0.75384700  0.63143900  0.14696900  1
  O  O12  1  0.22637300  0.00367000  0.76087400  1
  O  O13  1  0.25445200  0.51774800  0.26067700  1
  O  O14  1  0.75010800  0.89856900  0.88385100  1
  O  O15  1  0.73530400  0.39088600  0.38552800  1
loop_
_geom_bond_atom_site_label_1
_geom_bond_atom_site_label_2
_geom_bond_distance
_geom_bond_site_symmetry_2
Li0 O0 2.032255 1_445
Li0 O2 2.101981 1_545
Li0 O8 2.133588 1_555
Li0 O7 2.140970 1_555
Li0 O10 2.213062 1_455
Li0 O15 2.225240 1_455
Li1 O9 2.032255 1_656
Li1 O11 2.101981 1_556
Li1 O1 2.133588 1_555
Li1 O14 2.140970 1_555
Li1 O3 2.213061 1_655
Li1 O6 2.225240 1_655
Li2 O4 2.083724 1_545
Li2 O8 2.103424 1_555
Li2 O0 2.133384 1_545
Li2 O10 2.159706 1_555
Li2 O12 2.195266 1_555
Li2 O2 2.216221 1_545
Li3 O13 2.083724 1_556
Li3 O1 2.103424 1_555
Li3 O9 2.133384 1_556
Li3 O3 2.159706 1_555
Li3 O5 2.195266 1_555
Li3 O11 2.216221 1_556
Li4 O12 2.034945 1_565
Li4 O2 2.046755 1_555
Li4 O14 2.065769 1_455
Li4 O10 2.102756 1_465
Li4 O6 2.133881 1_555
Li4 O4 2.261620 1_455
Li5 O5 2.034945 1_554
Li5 O11 2.046754 1_555
Li5 O7 2.065769 1_655
Li5 O3 2.102756 1_654
Li5 O15 2.133881 1_555
Li5 O13 2.261620 1_655
Li6 O12 2.087289 1_565
Li6 O1 2.095465 1_555
Li6 O9 2.107323 1_556
Li6 O6 2.190656 1_555
Li6 O4 2.191804 1_555
Li6 O14 2.198002 1_555
Li7 O5 2.087289 1_554
Li7 O8 2.095465 1_555
Li7 O0 2.107323 1_545
Li7 O15 2.190656 1_555
Li7 O13 2.191804 1_555
Li7 O7 2.198002 1_555
Li8 O7 2.048368 1_565
Li8 O14 2.048368 1_554
Li8 O11 2.067368 1_555
Li8 O2 2.067368 1_555
Li8 O0 2.136283 1_555
Li8 O9 2.136283 1_555
Mn0 O9 1.906904 1_555
Mn0 O0 1.906904 1_455
Mn0 O7 1.963334 1_565
Mn0 O14 1.963334 1_454
Mn0 O5 1.968357 1_464
Mn0 O12 1.968357 1_564
Mn1 O2 1.889846 1_555
Mn1 O11 1.889846 1_555
Mn1 O13 1.957654 1_555
Mn1 O4 1.957654 1_555
Mn1 O15 1.995117 1_555
Mn1 O6 1.995117 1_555
Co0 O8 1.986919 1_555
Co0 O1 1.986919 1_455
Co0 O4 2.032901 1_455
Co0 O13 2.032901 1_555
Co0 O6 2.047915 1_555
Co0 O15 2.047915 1_455
Co1 O10 1.973660 1_555
Co1 O3 1.973660 1_555
Co1 O6 2.000058 1_555
Co1 O15 2.000058 1_555
Co1 O1 2.091547 1_555
Co1 O8 2.091547 1_555
Co2 O0 1.933196 1_455
Co2 O9 1.933196 1_555
Co2 O11 1.962693 1_455
Co2 O2 1.962693 1_555
Co2 O13 1.982789 1_555
Co2 O4 1.982789 1_455
Co3 O12 1.982551 1_555
Co3 O5 1.982551 1_455
Co3 O1 2.039831 1_455
Co3 O8 2.039831 1_555
Co3 O10 2.059313 1_455
Co3 O3 2.059313 1_555
Co4 O14 1.903101 1_545
Co4 O7 1.903101 1_556
Co4 O3 1.954084 1_555
Co4 O10 1.954084 1_555
Co4 O12 2.134350 1_555
Co4 O5 2.134350 1_555
