# generated using pymatgen
data_ZnCuBi2O7
_symmetry_space_group_name_H-M   'P 1'
_cell_length_a   8.33275500
_cell_length_b   10.44846086
_cell_length_c   11.67875548
_cell_angle_alpha   97.55957336
_cell_angle_beta   90.00000000
_cell_angle_gamma   90.00000000
_symmetry_Int_Tables_number   1
_chemical_formula_structural   ZnCuBi2O7
_chemical_formula_sum   'Zn6 Cu6 Bi12 O42'
_cell_volume   1007.96714702
_cell_formula_units_Z   6
loop_
 _symmetry_equiv_pos_site_id
 _symmetry_equiv_pos_as_xyz
  1  'x, y, z'
loop_
 _atom_site_type_symbol
 _atom_site_label
 _atom_site_symmetry_multiplicity
 _atom_site_fract_x
 _atom_site_fract_y
 _atom_site_fract_z
 _atom_site_occupancy
  Zn  Zn0  1  0.46095500  0.13495800  0.58506200  1
  Zn  Zn1  1  0.95641400  0.50000000  0.75000000  1
  Zn  Zn2  1  0.46095500  0.86504200  0.91493800  1
  Zn  Zn3  1  0.04358600  0.50000000  0.25000000  1
  Zn  Zn4  1  0.53904500  0.86504200  0.41493800  1
  Zn  Zn5  1  0.53904500  0.13495800  0.08506200  1
  Cu  Cu0  1  0.90725500  0.79166000  0.42348800  1
  Cu  Cu1  1  0.09274500  0.20834000  0.57651200  1
  Cu  Cu2  1  0.40889300  0.50000000  0.25000000  1
  Cu  Cu3  1  0.90725500  0.20834000  0.07651200  1
  Cu  Cu4  1  0.59110700  0.50000000  0.75000000  1
  Cu  Cu5  1  0.09274500  0.79166000  0.92348800  1
  Bi  Bi0  1  0.21182400  0.19245400  0.30134900  1
  Bi  Bi1  1  0.74847200  0.16890100  0.36426700  1
  Bi  Bi2  1  0.25152800  0.16890100  0.86426700  1
  Bi  Bi3  1  0.78817600  0.19245400  0.80134900  1
  Bi  Bi4  1  0.27785600  0.51692800  0.97621200  1
  Bi  Bi5  1  0.74847200  0.83109900  0.13573300  1
  Bi  Bi6  1  0.72214400  0.51692800  0.47621200  1
  Bi  Bi7  1  0.25152800  0.83109900  0.63573300  1
  Bi  Bi8  1  0.27785600  0.48307200  0.52378800  1
  Bi  Bi9  1  0.72214400  0.48307200  0.02378800  1
  Bi  Bi10  1  0.78817600  0.80754600  0.69865100  1
  Bi  Bi11  1  0.21182400  0.80754600  0.19865100  1
  O  O0  1  0.72275300  0.23921600  0.98929100  1
  O  O1  1  0.76641200  0.85347000  0.31967200  1
  O  O2  1  0.86566900  0.00000000  0.75000000  1
  O  O3  1  0.92642000  0.52687500  0.11393300  1
  O  O4  1  0.40578500  0.94217500  0.55194900  1
  O  O5  1  0.93953100  0.27768800  0.68624400  1
  O  O6  1  0.35546700  0.32289900  0.96644600  1
  O  O7  1  0.07358000  0.52687500  0.61393300  1
  O  O8  1  0.75411400  0.43484000  0.83971100  1
  O  O9  1  0.40578500  0.05782500  0.94805100  1
  O  O10  1  0.75411400  0.56516000  0.66028900  1
  O  O11  1  0.46882500  0.56143700  0.87455000  1
  O  O12  1  0.99008500  0.82958900  0.06826300  1
  O  O13  1  0.06046900  0.27768800  0.18624400  1
  O  O14  1  0.64453300  0.67710100  0.03355400  1
  O  O15  1  0.35546700  0.67710100  0.53355400  1
  O  O16  1  0.93953100  0.72231200  0.81375600  1
  O  O17  1  0.59421500  0.05782500  0.44805100  1
  O  O18  1  0.27724700  0.23921600  0.48929100  1
  O  O19  1  0.53117500  0.43856300  0.12545000  1
  O  O20  1  0.44395600  0.80357500  0.26377500  1
  O  O21  1  0.24588600  0.56516000  0.16028900  1
  O  O22  1  0.00991500  0.82958900  0.56826300  1
  O  O23  1  0.24588600  0.43484000  0.33971100  1
  O  O24  1  0.92642000  0.47312500  0.38606700  1
  O  O25  1  0.53117500  0.56143700  0.37455000  1
  O  O26  1  0.07358000  0.47312500  0.88606700  1
  O  O27  1  0.55604400  0.80357500  0.76377500  1
  O  O28  1  0.55604400  0.19642500  0.73622500  1
  O  O29  1  0.00991500  0.17041100  0.93173700  1
  O  O30  1  0.06046900  0.72231200  0.31375600  1
  O  O31  1  0.72275300  0.76078400  0.51070900  1
  O  O32  1  0.13433100  0.00000000  0.25000000  1
  O  O33  1  0.23358800  0.85347000  0.81967200  1
  O  O34  1  0.59421500  0.94217500  0.05194900  1
  O  O35  1  0.99008500  0.17041100  0.43173700  1
  O  O36  1  0.27724700  0.76078400  0.01070900  1
  O  O37  1  0.76641200  0.14653000  0.18032800  1
  O  O38  1  0.46882500  0.43856300  0.62545000  1
  O  O39  1  0.64453300  0.32289900  0.46644600  1
  O  O40  1  0.23358800  0.14653000  0.68032800  1
  O  O41  1  0.44395600  0.19642500  0.23622500  1
loop_
_geom_bond_atom_site_label_1
_geom_bond_atom_site_label_2
_geom_bond_distance
_geom_bond_site_symmetry_2
Cu0 O1 1.862923 1_555
Cu0 O30 1.884933 1_655
Cu0 O22 1.889790 1_655
Cu0 O31 1.895199 1_555
Cu1 O40 1.862923 1_555
Cu1 O5 1.884933 1_455
Cu1 O35 1.889790 1_455
Cu1 O18 1.895199 1_555
Cu2 O25 1.822215 1_555
Cu2 O19 1.822215 1_555
Cu2 O23 1.895751 1_555
Cu2 O21 1.895751 1_555
Cu3 O37 1.862923 1_555
Cu3 O13 1.884933 1_655
Cu3 O29 1.889790 1_654
Cu3 O0 1.895199 1_554
Cu4 O11 1.822215 1_555
Cu4 O38 1.822215 1_555
Cu4 O8 1.895751 1_555
Cu4 O10 1.895751 1_555
Cu5 O33 1.862923 1_555
Cu5 O16 1.884933 1_455
Cu5 O12 1.889790 1_456
Cu5 O36 1.895199 1_556
Bi0 O41 2.080865 1_555
Bi0 O32 2.121985 1_555
Bi0 O13 2.122694 1_555
Bi0 O18 2.251989 1_555
Bi0 O35 2.424486 1_455
Bi0 O23 2.529151 1_555
Bi1 O17 2.062860 1_555
Bi1 O39 2.063482 1_555
Bi1 O37 2.135308 1_555
Bi1 O35 2.161308 1_555
Bi2 O9 2.062860 1_555
Bi2 O6 2.063482 1_555
Bi2 O40 2.135308 1_555
Bi2 O29 2.161308 1_555
Bi3 O28 2.080865 1_555
Bi3 O2 2.121985 1_555
Bi3 O5 2.122694 1_555
Bi3 O0 2.251989 1_555
Bi3 O29 2.424486 1_655
Bi3 O8 2.529151 1_555
Bi4 O26 2.021994 1_555
Bi4 O11 2.074470 1_555
Bi4 O6 2.116689 1_555
Bi4 O21 2.159046 1_556
Bi4 O36 2.526687 1_556
Bi5 O34 2.062860 1_555
Bi5 O14 2.063482 1_555
Bi5 O1 2.135308 1_555
Bi5 O12 2.161308 1_555
Bi6 O24 2.021994 1_555
Bi6 O25 2.074470 1_555
Bi6 O39 2.116689 1_555
Bi6 O10 2.159046 1_555
Bi6 O31 2.526687 1_555
Bi7 O4 2.062860 1_555
Bi7 O15 2.063482 1_555
Bi7 O33 2.135308 1_555
Bi7 O22 2.161308 1_555
Bi8 O7 2.021994 1_555
Bi8 O38 2.074470 1_555
Bi8 O15 2.116689 1_555
Bi8 O23 2.159046 1_555
Bi8 O18 2.526687 1_555
Bi9 O3 2.021994 1_555
Bi9 O19 2.074470 1_555
Bi9 O14 2.116689 1_555
Bi9 O8 2.159046 1_554
Bi9 O0 2.526687 1_554
Bi10 O27 2.080865 1_555
Bi10 O2 2.121985 1_565
Bi10 O16 2.122694 1_555
Bi10 O31 2.251989 1_555
Bi10 O22 2.424486 1_655
Bi10 O10 2.529151 1_555
Bi11 O20 2.080865 1_555
Bi11 O32 2.121985 1_565
Bi11 O30 2.122694 1_555
Bi11 O36 2.251989 1_555
Bi11 O12 2.424486 1_455
Bi11 O21 2.529151 1_555
O0 Zn5 2.258666 1_556
O1 Zn4 2.192387 1_555
O3 Zn3 1.916942 1_655
O4 Zn4 2.025740 1_555
O4 Zn0 2.052628 1_565
O5 Zn1 2.348323 1_555
O7 Zn1 1.916942 1_455
O8 Zn1 2.142555 1_555
O9 Zn5 2.025740 1_556
O9 Zn2 2.052628 1_545
O10 Zn1 2.142555 1_555
O13 Zn3 2.348323 1_555
O16 Zn1 2.348323 1_555
O17 Zn0 2.025740 1_555
O17 Zn4 2.052628 1_545
O18 Zn0 2.258666 1_555
O20 Zn4 1.964330 1_555
O21 Zn3 2.142555 1_555
O23 Zn3 2.142555 1_555
O24 Zn3 1.916942 1_655
O26 Zn1 1.916942 1_455
O27 Zn2 1.964330 1_555
O28 Zn0 1.964330 1_555
O30 Zn3 2.348323 1_555
O31 Zn4 2.258666 1_555
O33 Zn2 2.192387 1_555
O34 Zn2 2.025740 1_554
O34 Zn5 2.052628 1_565
O36 Zn2 2.258666 1_554
O37 Zn5 2.192387 1_555
O40 Zn0 2.192387 1_555
O41 Zn5 1.964330 1_555
