# generated using pymatgen
data_CsTe4
_symmetry_space_group_name_H-M   'P 1'
_cell_length_a   8.07230280
_cell_length_b   7.37083721
_cell_length_c   14.31801462
_cell_angle_alpha   90.00000000
_cell_angle_beta   94.95001879
_cell_angle_gamma   90.00000000
_symmetry_Int_Tables_number   1
_chemical_formula_structural   CsTe4
_chemical_formula_sum   'Cs4 Te16'
_cell_volume   848.73921806
_cell_formula_units_Z   4
loop_
 _symmetry_equiv_pos_site_id
 _symmetry_equiv_pos_as_xyz
  1  'x, y, z'
loop_
 _atom_site_type_symbol
 _atom_site_label
 _atom_site_symmetry_multiplicity
 _atom_site_fract_x
 _atom_site_fract_y
 _atom_site_fract_z
 _atom_site_occupancy
  Cs  Cs0  1  0.14240101  0.62214214  0.85018514  1
  Cs  Cs1  1  0.14240101  0.87785786  0.35018514  1
  Cs  Cs2  1  0.85759899  0.12214214  0.64981486  1
  Cs  Cs3  1  0.85759899  0.37785786  0.14981386  1
  Te  Te0  1  0.12391212  0.10854462  0.96659917  1
  Te  Te1  1  0.12391212  0.39145538  0.46659917  1
  Te  Te2  1  0.34736087  0.01587872  0.71049076  1
  Te  Te3  1  0.37726625  0.44496791  0.62504153  1
  Te  Te4  1  0.34736087  0.48412128  0.21049076  1
  Te  Te5  1  0.37726625  0.05503209  0.12504153  1
  Te  Te6  1  0.45984592  0.80508508  0.56942085  1
  Te  Te7  1  0.54015408  0.30508508  0.93057915  1
  Te  Te8  1  0.45984592  0.69491492  0.06942085  1
  Te  Te9  1  0.54015408  0.19491492  0.43057915  1
  Te  Te10  1  0.62273375  0.94496791  0.87495847  1
  Te  Te11  1  0.65263913  0.51587872  0.78950924  1
  Te  Te12  1  0.62273375  0.55503209  0.37495847  1
  Te  Te13  1  0.65263913  0.98412128  0.28950924  1
  Te  Te14  1  0.87608788  0.60854462  0.53340083  1
  Te  Te15  1  0.87608788  0.89145538  0.03340083  1
loop_
_geom_bond_atom_site_label_1
_geom_bond_atom_site_label_2
_geom_bond_distance
_geom_bond_site_symmetry_2
Cs0 Te8 3.914012 1_556
Cs0 Te0 3.961957 1_565
Cs0 Te2 3.966310 1_565
Cs0 Te11 4.050396 1_455
Cs0 Te15 4.051764 1_456
Cs0 Te7 4.056817 1_555
Cs0 Te3 4.092218 1_555
Cs0 Te0 4.144223 1_555
Cs0 Te11 4.353185 1_555
Cs1 Te6 3.914012 1_555
Cs1 Te1 3.961957 1_555
Cs1 Te4 3.966310 1_555
Cs1 Te13 4.050396 1_455
Cs1 Te14 4.051764 1_455
Cs1 Te9 4.056817 1_565
Cs1 Te5 4.092218 1_565
Cs1 Te1 4.144223 1_565
Cs1 Te13 4.353185 1_555
Cs2 Te9 3.914012 1_555
Cs2 Te14 3.961957 1_555
Cs2 Te11 3.966310 1_555
Cs2 Te2 4.050396 1_655
Cs2 Te1 4.051764 1_655
Cs2 Te6 4.056817 1_545
Cs2 Te10 4.092218 1_545
Cs2 Te14 4.144223 1_545
Cs2 Te2 4.353185 1_555
Cs3 Te7 3.914002 1_554
Cs3 Te15 3.961950 1_545
Cs3 Te13 3.966318 1_545
Cs3 Te4 4.050398 1_655
Cs3 Te0 4.051754 1_654
Cs3 Te8 4.056814 1_555
Cs3 Te12 4.092230 1_555
Cs3 Te15 4.144217 1_555
Cs3 Te4 4.353189 1_555
Te0 Te15 2.794190 1_446
Te0 Te5 2.946864 1_556
Te1 Te14 2.794190 1_455
Te1 Te3 2.946864 1_555
Te2 Te6 2.763117 1_545
Te2 Te3 3.407209 1_555
Te3 Te6 2.866331 1_555
Te4 Te8 2.763117 1_555
Te4 Te5 3.407209 1_555
Te5 Te8 2.866331 1_545
Te10 Te7 2.866331 1_565
Te10 Te15 2.946864 1_556
Te10 Te2 3.139493 1_565
Te10 Te11 3.407209 1_555
Te11 Te7 2.763117 1_555
Te11 Te3 3.139493 1_555
Te12 Te9 2.866331 1_555
Te12 Te14 2.946864 1_555
Te12 Te4 3.139493 1_555
Te12 Te13 3.407209 1_555
Te13 Te9 2.763117 1_565
Te13 Te5 3.139493 1_565
