# generated using pymatgen
data_LiAlGeO5
_symmetry_space_group_name_H-M   'P 1'
_cell_length_a   5.16856400
_cell_length_b   8.35125800
_cell_length_c   10.80659800
_cell_angle_alpha   90.00000000
_cell_angle_beta   90.00000000
_cell_angle_gamma   90.00000000
_symmetry_Int_Tables_number   1
_chemical_formula_structural   LiAlGeO5
_chemical_formula_sum   'Li4 Al4 Ge4 O20'
_cell_volume   466.45611985
_cell_formula_units_Z   4
loop_
 _symmetry_equiv_pos_site_id
 _symmetry_equiv_pos_as_xyz
  1  'x, y, z'
loop_
 _atom_site_type_symbol
 _atom_site_label
 _atom_site_symmetry_multiplicity
 _atom_site_fract_x
 _atom_site_fract_y
 _atom_site_fract_z
 _atom_site_occupancy
  Li  Li0  1  0.24700500  0.68134100  0.18959900  1
  Li  Li1  1  0.74700500  0.31865900  0.81040100  1
  Li  Li2  1  0.74700500  0.18134100  0.31040100  1
  Li  Li3  1  0.24700500  0.81865900  0.68959900  1
  Al  Al0  1  0.75149000  0.57792500  0.33734400  1
  Al  Al1  1  0.25149000  0.42207500  0.66265600  1
  Al  Al2  1  0.25149000  0.07792500  0.16265600  1
  Al  Al3  1  0.75149000  0.92207500  0.83734400  1
  Ge  Ge0  1  0.75105400  0.86786100  0.13776500  1
  Ge  Ge1  1  0.25105400  0.13213900  0.86223500  1
  Ge  Ge2  1  0.25105400  0.36786100  0.36223500  1
  Ge  Ge3  1  0.75105400  0.63213900  0.63776500  1
  O  O0  1  0.81376600  0.66807600  0.48117200  1
  O  O1  1  0.31376600  0.33192400  0.51882800  1
  O  O2  1  0.31376600  0.16807600  0.01882800  1
  O  O3  1  0.81376600  0.83192400  0.98117200  1
  O  O4  1  0.87531700  0.70224400  0.22034300  1
  O  O5  1  0.37531700  0.29775600  0.77965700  1
  O  O6  1  0.37531700  0.20224400  0.27965700  1
  O  O7  1  0.87531700  0.79775600  0.72034300  1
  O  O8  1  0.41772700  0.54249200  0.30962800  1
  O  O9  1  0.91772700  0.45750800  0.69037200  1
  O  O10  1  0.91772700  0.04249200  0.19037200  1
  O  O11  1  0.41772700  0.95750800  0.80962800  1
  O  O12  1  0.91856300  0.39088000  0.32895800  1
  O  O13  1  0.41856300  0.60912000  0.67104200  1
  O  O14  1  0.41856300  0.89088000  0.17104200  1
  O  O15  1  0.91856300  0.10912000  0.82895800  1
  O  O16  1  0.24367700  0.59142100  0.01102300  1
  O  O17  1  0.74367700  0.40857900  0.98897700  1
  O  O18  1  0.74367700  0.09142100  0.48897700  1
  O  O19  1  0.24367700  0.90857900  0.51102300  1
loop_
_geom_bond_atom_site_label_1
_geom_bond_atom_site_label_2
_geom_bond_distance
_geom_bond_site_symmetry_2
Li0 O8 1.950815 1_555
Li0 O4 1.957410 1_455
Li0 O14 1.971970 1_555
Li0 O16 2.070830 1_555
Li1 O9 1.950815 1_555
Li1 O5 1.957410 1_555
Li1 O15 1.971970 1_555
Li1 O17 2.070830 1_555
Li2 O10 1.950815 1_555
Li2 O6 1.957410 1_555
Li2 O12 1.971970 1_555
Li2 O18 2.070830 1_555
Li3 O11 1.950815 1_555
Li3 O7 1.957410 1_455
Li3 O13 1.971970 1_555
Li3 O19 2.070830 1_555
Al0 O4 1.756751 1_555
Al0 O0 1.756772 1_555
Al0 O8 1.775713 1_555
Al0 O12 1.787156 1_555
Al1 O5 1.756751 1_555
Al1 O1 1.756772 1_555
Al1 O9 1.775713 1_455
Al1 O13 1.787156 1_555
Al2 O6 1.756751 1_555
Al2 O2 1.756772 1_555
Al2 O10 1.775713 1_455
Al2 O14 1.787156 1_545
Al3 O7 1.756751 1_555
Al3 O3 1.756772 1_555
Al3 O11 1.775713 1_555
Al3 O15 1.787156 1_565
Ge0 O3 1.748943 1_554
Ge0 O14 1.766217 1_555
Ge0 O4 1.766875 1_555
Ge0 O10 1.786675 1_565
Ge1 O2 1.748943 1_556
Ge1 O15 1.766217 1_455
Ge1 O5 1.766875 1_555
Ge1 O11 1.786675 1_545
Ge2 O1 1.748943 1_555
Ge2 O12 1.766217 1_455
Ge2 O6 1.766875 1_555
Ge2 O8 1.786675 1_555
Ge3 O0 1.748943 1_555
Ge3 O13 1.766217 1_555
Ge3 O7 1.766875 1_555
Ge3 O9 1.786675 1_555
