# generated using pymatgen
data_Pr8Br13N3O
_symmetry_space_group_name_H-M   'P 1'
_cell_length_a   11.93584412
_cell_length_b   11.93584412
_cell_length_c   17.13769771
_cell_angle_alpha   62.85057910
_cell_angle_beta   62.85057910
_cell_angle_gamma   41.91540848
_symmetry_Int_Tables_number   1
_chemical_formula_structural   Pr8Br13N3O
_chemical_formula_sum   'Pr16 Br26 N6 O2'
_cell_volume   1423.03334800
_cell_formula_units_Z   2
loop_
 _symmetry_equiv_pos_site_id
 _symmetry_equiv_pos_as_xyz
  1  'x, y, z'
loop_
 _atom_site_type_symbol
 _atom_site_label
 _atom_site_symmetry_multiplicity
 _atom_site_fract_x
 _atom_site_fract_y
 _atom_site_fract_z
 _atom_site_occupancy
  Pr  Pr0  1  0.79836900  0.93962500  0.44467100  1
  Pr  Pr1  1  0.05438700  0.20489000  0.05565700  1
  Pr  Pr2  1  0.20489000  0.05438700  0.55565700  1
  Pr  Pr3  1  0.93962500  0.79836900  0.94467100  1
  Pr  Pr4  1  0.50983400  0.95442000  0.11201300  1
  Pr  Pr5  1  0.04567200  0.50060700  0.38577600  1
  Pr  Pr6  1  0.50060700  0.04567200  0.88577600  1
  Pr  Pr7  1  0.95442000  0.50983400  0.61201300  1
  Pr  Pr8  1  0.90124300  0.97247800  0.11263100  1
  Pr  Pr9  1  0.02740100  0.09878800  0.38647600  1
  Pr  Pr10  1  0.09878800  0.02740100  0.88647600  1
  Pr  Pr11  1  0.97247800  0.90124300  0.61263100  1
  Pr  Pr12  1  0.39091800  0.75119000  0.05998900  1
  Pr  Pr13  1  0.24506000  0.60789100  0.44076700  1
  Pr  Pr14  1  0.60789100  0.24506000  0.94076700  1
  Pr  Pr15  1  0.75119000  0.39091800  0.55998900  1
  Br  Br0  1  0.37354900  0.77523000  0.27159700  1
  Br  Br1  1  0.22582400  0.62561000  0.22673000  1
  Br  Br2  1  0.62561000  0.22582400  0.72673000  1
  Br  Br3  1  0.77523000  0.37354900  0.77159700  1
  Br  Br4  1  0.39688700  0.24756700  0.43774500  1
  Br  Br5  1  0.74845200  0.60464100  0.06241700  1
  Br  Br6  1  0.60464100  0.74845200  0.56241700  1
  Br  Br7  1  0.24756700  0.39688700  0.93774500  1
  Br  Br8  1  0.29479500  0.10511600  0.36162300  1
  Br  Br9  1  0.89405200  0.70449200  0.13936400  1
  Br  Br10  1  0.70449200  0.89405200  0.63936400  1
  Br  Br11  1  0.10511600  0.29479500  0.86162300  1
  Br  Br12  1  0.63694100  0.29479700  0.47141100  1
  Br  Br13  1  0.70635500  0.36339400  0.02943100  1
  Br  Br14  1  0.36339400  0.70635500  0.52943100  1
  Br  Br15  1  0.29479700  0.63694100  0.97141100  1
  Br  Br16  1  0.86896900  0.13176300  0.24945000  1
  Br  Br17  1  0.13176300  0.86896900  0.74945000  1
  Br  Br18  1  0.75644700  0.87214600  0.31574500  1
  Br  Br19  1  0.12878100  0.24257900  0.18264400  1
  Br  Br20  1  0.24257900  0.12878100  0.68264400  1
  Br  Br21  1  0.87214600  0.75644700  0.81574500  1
  Br  Br22  1  0.50112200  0.19649300  0.13769200  1
  Br  Br23  1  0.80365000  0.49861900  0.36396900  1
  Br  Br24  1  0.49861900  0.80365000  0.86396900  1
  Br  Br25  1  0.19649300  0.50112200  0.63769200  1
  N  N0  1  0.01010600  0.63433000  0.46892700  1
  N  N1  1  0.63433000  0.01010600  0.96892700  1
  N  N2  1  0.11564200  0.98147700  0.03632000  1
  N  N3  1  0.01860500  0.88626300  0.46482300  1
  N  N4  1  0.88626300  0.01860500  0.96482300  1
  N  N5  1  0.98147700  0.11564200  0.53632000  1
  O  O0  1  0.36316200  0.98937100  0.03213100  1
  O  O1  1  0.98937100  0.36316200  0.53213100  1
loop_
_geom_bond_atom_site_label_1
_geom_bond_atom_site_label_2
_geom_bond_distance
_geom_bond_site_symmetry_2
Br0 Pr13 3.156414 1_555
Br0 Pr4 3.237226 1_555
Br0 Pr9 3.410199 1_565
Br0 Pr12 3.667645 1_555
Br1 Pr12 3.105363 1_555
Br1 Pr5 3.161254 1_555
Br1 Pr8 3.409936 1_455
Br1 Pr13 3.679777 1_555
Br2 Pr15 3.105363 1_555
Br2 Pr6 3.161254 1_555
Br2 Pr11 3.409936 1_545
Br2 Pr14 3.679777 1_555
Br3 Pr14 3.156414 1_555
Br3 Pr7 3.237226 1_555
Br3 Pr10 3.410199 1_655
Br3 Pr15 3.667645 1_555
Br4 Pr5 3.098046 1_555
Br4 Pr13 3.209632 1_555
Br4 Pr0 3.224117 1_545
Br5 Pr4 3.097881 1_555
Br5 Pr12 3.202971 1_555
Br5 Pr1 3.209630 1_655
Br6 Pr7 3.097881 1_555
Br6 Pr15 3.202971 1_555
Br6 Pr2 3.209630 1_565
Br7 Pr6 3.098046 1_555
Br7 Pr14 3.209632 1_555
Br7 Pr3 3.224117 1_455
Br8 Pr2 2.906657 1_555
Br8 Pr9 3.076047 1_555
Br8 Pr5 3.326611 1_555
Br9 Pr3 2.919414 1_554
Br9 Pr8 3.079589 1_555
Br9 Pr4 3.236559 1_555
Br10 Pr0 2.919414 1_555
Br10 Pr11 3.079589 1_555
Br10 Pr7 3.236559 1_555
Br11 Pr1 2.906657 1_556
Br11 Pr10 3.076047 1_555
Br11 Pr6 3.326611 1_555
Br12 Pr9 3.162588 1_655
Br12 Pr13 3.248979 1_555
Br12 Pr0 3.271808 1_545
Br12 Pr15 3.359649 1_555
Br13 Pr8 3.164975 1_545
Br13 Pr1 3.204540 1_655
Br13 Pr12 3.217292 1_555
Br13 Pr14 3.426928 1_554
Br14 Pr11 3.164975 1_455
Br14 Pr2 3.204540 1_565
Br14 Pr15 3.217292 1_555
Br14 Pr13 3.426928 1_555
Br15 Pr10 3.162588 1_565
Br15 Pr14 3.248979 1_555
Br15 Pr3 3.271808 1_455
Br15 Pr12 3.359649 1_556
Br16 Pr1 3.195509 1_655
Br16 Pr0 3.234758 1_545
Br16 Pr9 3.368522 1_655
Br16 Pr8 3.378600 1_545
Br17 Pr2 3.195509 1_565
Br17 Pr3 3.234758 1_455
Br17 Pr10 3.368522 1_565
Br17 Pr11 3.378600 1_455
Br18 Pr0 3.002296 1_555
Br18 Pr5 3.027165 1_655
Br18 Pr8 3.212995 1_555
Br19 Pr1 2.996410 1_555
Br19 Pr4 3.078129 1_545
Br19 Pr9 3.220874 1_555
Br20 Pr2 2.996410 1_555
Br20 Pr7 3.078129 1_455
Br20 Pr10 3.220874 1_555
Br21 Pr3 3.002296 1_555
Br21 Pr6 3.027165 1_565
Br21 Pr11 3.212995 1_555
Br22 Pr14 2.956115 1_554
Br22 Pr4 3.037158 1_545
Br22 Pr8 3.211462 1_545
Br23 Pr15 2.943952 1_555
Br23 Pr5 3.095221 1_655
Br23 Pr9 3.216853 1_655
Br24 Pr12 2.943952 1_556
Br24 Pr6 3.095221 1_565
Br24 Pr10 3.216853 1_565
Br25 Pr13 2.956115 1_555
Br25 Pr7 3.037158 1_455
Br25 Pr11 3.211462 1_455
N0 Pr5 2.296448 1_555
N0 Pr7 2.306508 1_455
N0 Pr0 2.389321 1_455
N0 Pr13 2.404947 1_555
N1 Pr6 2.296448 1_555
N1 Pr4 2.306508 1_546
N1 Pr3 2.389321 1_545
N1 Pr14 2.404947 1_555
N2 Pr12 2.296356 1_555
N2 Pr1 2.332171 1_565
N2 Pr8 2.344593 1_455
N2 Pr10 2.440937 1_564
N3 Pr13 2.320106 1_555
N3 Pr9 2.325479 1_565
N3 Pr0 2.360303 1_455
N3 Pr11 2.397017 1_455
N4 Pr14 2.320106 1_555
N4 Pr10 2.325479 1_655
N4 Pr3 2.360303 1_545
N4 Pr8 2.397017 1_546
N5 Pr15 2.296356 1_555
N5 Pr2 2.332171 1_655
N5 Pr11 2.344593 1_545
N5 Pr9 2.440937 1_655
O0 Pr4 2.385808 1_555
O0 Pr6 2.404405 1_564
O0 Pr1 2.417334 1_565
O0 Pr12 2.433867 1_555
O1 Pr7 2.385808 1_555
O1 Pr5 2.404405 1_655
O1 Pr2 2.417334 1_655
O1 Pr15 2.433867 1_555
