# generated using pymatgen
data_Ag2Hg3P4Br3
_symmetry_space_group_name_H-M   'P 1'
_cell_length_a   8.93490145
_cell_length_b   8.32962249
_cell_length_c   8.32962200
_cell_angle_alpha   82.29161574
_cell_angle_beta   79.77985571
_cell_angle_gamma   79.77985711
_symmetry_Int_Tables_number   1
_chemical_formula_structural   Ag2Hg3P4Br3
_chemical_formula_sum   'Ag4 Hg6 P8 Br6'
_cell_volume   597.02867739
_cell_formula_units_Z   2
loop_
 _symmetry_equiv_pos_site_id
 _symmetry_equiv_pos_as_xyz
  1  'x, y, z'
loop_
 _atom_site_type_symbol
 _atom_site_label
 _atom_site_symmetry_multiplicity
 _atom_site_fract_x
 _atom_site_fract_y
 _atom_site_fract_z
 _atom_site_occupancy
  Ag  Ag0  1  0.51252200  0.50848500  0.98830500  1
  Ag  Ag1  1  0.48747800  0.01169500  0.49151500  1
  Ag  Ag2  1  0.68123000  0.65864800  0.64777500  1
  Ag  Ag3  1  0.31877000  0.35222500  0.34135200  1
  Hg  Hg0  1  0.77003200  0.76560900  0.13399100  1
  Hg  Hg1  1  0.76847300  0.12994900  0.76466900  1
  Hg  Hg2  1  0.11822600  0.75169600  0.75255800  1
  Hg  Hg3  1  0.23152700  0.23533100  0.87005100  1
  Hg  Hg4  1  0.22996800  0.86600900  0.23439100  1
  Hg  Hg5  1  0.88177400  0.24744200  0.24830400  1
  P  P0  1  0.93646800  0.93603100  0.93540100  1
  P  P1  1  0.06353200  0.06459900  0.06396900  1
  P  P2  1  0.57796000  0.58065400  0.25363700  1
  P  P3  1  0.57868500  0.25400600  0.58068300  1
  P  P4  1  0.28187200  0.56251100  0.56194300  1
  P  P5  1  0.42131500  0.41931700  0.74599400  1
  P  P6  1  0.42204000  0.74636300  0.41934600  1
  P  P7  1  0.71812800  0.43805700  0.43748900  1
  Br  Br0  1  0.46110400  0.85797800  0.85168000  1
  Br  Br1  1  0.85791500  0.86893000  0.45535900  1
  Br  Br2  1  0.85727700  0.46001700  0.86331300  1
  Br  Br3  1  0.53889600  0.14832000  0.14202200  1
  Br  Br4  1  0.14272300  0.13668700  0.53998300  1
  Br  Br5  1  0.14208500  0.54464100  0.13107000  1
loop_
_geom_bond_atom_site_label_1
_geom_bond_atom_site_label_2
_geom_bond_distance
_geom_bond_site_symmetry_2
Ag0 P5 2.547579 1_555
Ag0 P2 2.554902 1_556
Ag0 Br0 2.967007 1_555
Ag0 Br2 3.044489 1_555
Ag0 Br3 3.085600 1_556
Ag0 Br5 3.287152 1_556
Ag1 P3 2.547579 1_555
Ag1 P6 2.554902 1_545
Ag1 Br3 2.967007 1_555
Ag1 Br4 3.044489 1_555
Ag1 Br0 3.085600 1_545
Ag1 Br1 3.287152 1_545
Ag2 P7 2.645089 1_555
Ag2 Br1 2.731164 1_555
Ag2 Br2 2.777892 1_555
Ag2 Br0 2.814614 1_555
Ag2 P6 3.179243 1_555
Ag3 P4 2.645089 1_555
Ag3 Br5 2.731164 1_555
Ag3 Br4 2.777892 1_555
Ag3 Br3 2.814614 1_555
Ag3 P2 3.179243 1_555
Hg0 P0 2.491811 1_554
Hg0 P2 2.496247 1_555
Hg1 P0 2.483041 1_545
Hg1 P3 2.483455 1_555
Hg2 P4 2.484324 1_555
Hg2 P0 2.485812 1_455
Hg3 P1 2.483041 1_556
Hg3 P5 2.483455 1_555
Hg4 P1 2.491811 1_565
Hg4 P6 2.496247 1_555
Hg5 P7 2.484324 1_555
Hg5 P1 2.485812 1_655
P0 P1 2.180190 1_666
P2 P6 2.213048 1_555
P2 P7 2.233672 1_555
P3 P5 2.214436 1_555
P3 P7 2.232755 1_555
P4 P5 2.232755 1_555
P4 P6 2.233672 1_555
Br1 Hg0 3.182238 1_555
Br2 Hg1 3.236523 1_555
Br4 Hg3 3.236523 1_555
Br5 Hg4 3.182238 1_555
