# generated using pymatgen
data_Fe2Te4BrClO10
_symmetry_space_group_name_H-M   'P 1'
_cell_length_a   6.69254800
_cell_length_b   13.51190618
_cell_length_c   14.49746942
_cell_angle_alpha   107.69564173
_cell_angle_beta   90.00000000
_cell_angle_gamma   90.00000000
_symmetry_Int_Tables_number   1
_chemical_formula_structural   Fe2Te4BrClO10
_chemical_formula_sum   'Fe8 Te16 Br4 Cl4 O40'
_cell_volume   1248.96268916
_cell_formula_units_Z   4
loop_
 _symmetry_equiv_pos_site_id
 _symmetry_equiv_pos_as_xyz
  1  'x, y, z'
loop_
 _atom_site_type_symbol
 _atom_site_label
 _atom_site_symmetry_multiplicity
 _atom_site_fract_x
 _atom_site_fract_y
 _atom_site_fract_z
 _atom_site_occupancy
  Fe  Fe0  1  0.49748100  0.88264100  0.52092800  1
  Fe  Fe1  1  0.50251900  0.11735900  0.47907200  1
  Fe  Fe2  1  0.99748100  0.11735900  0.97907200  1
  Fe  Fe3  1  0.00251900  0.88264100  0.02092800  1
  Fe  Fe4  1  0.70782200  0.93547600  0.85588200  1
  Fe  Fe5  1  0.29217800  0.06452400  0.14411800  1
  Fe  Fe6  1  0.20782200  0.06452400  0.64411800  1
  Fe  Fe7  1  0.79217800  0.93547600  0.35588200  1
  Te  Te0  1  0.19241000  0.89125700  0.78577100  1
  Te  Te1  1  0.80759000  0.10874300  0.21422900  1
  Te  Te2  1  0.69241000  0.10874300  0.71422900  1
  Te  Te3  1  0.30759000  0.89125700  0.28577100  1
  Te  Te4  1  0.48156900  0.80203600  0.98132800  1
  Te  Te5  1  0.51843100  0.19796400  0.01867200  1
  Te  Te6  1  0.98156900  0.19796400  0.51867200  1
  Te  Te7  1  0.01843100  0.80203600  0.48132800  1
  Te  Te8  1  0.70625800  0.71956300  0.64085700  1
  Te  Te9  1  0.29374200  0.28043700  0.35914300  1
  Te  Te10  1  0.20625800  0.28043700  0.85914300  1
  Te  Te11  1  0.79374200  0.71956300  0.14085700  1
  Te  Te12  1  0.96509400  0.63482200  0.86244200  1
  Te  Te13  1  0.03490600  0.36517800  0.13755800  1
  Te  Te14  1  0.46509400  0.36517800  0.63755800  1
  Te  Te15  1  0.53490600  0.63482200  0.36244200  1
  Br  Br0  1  0.84860800  0.38527500  0.77988900  1
  Br  Br1  1  0.15139200  0.61472500  0.22011100  1
  Br  Br2  1  0.34860800  0.61472500  0.72011100  1
  Br  Br3  1  0.65139200  0.38527500  0.27988900  1
  Cl  Cl0  1  0.69949800  0.43502600  0.54903800  1
  Cl  Cl1  1  0.30050200  0.56497400  0.45096200  1
  Cl  Cl2  1  0.19949800  0.56497400  0.95096200  1
  Cl  Cl3  1  0.80050200  0.43502600  0.04903800  1
  O  O0  1  0.40802200  0.76807600  0.40894800  1
  O  O1  1  0.59197800  0.23192400  0.59105200  1
  O  O2  1  0.90802200  0.23192400  0.09105200  1
  O  O3  1  0.09197800  0.76807600  0.90894800  1
  O  O4  1  0.76951100  0.78819800  0.77410300  1
  O  O5  1  0.23048900  0.21180200  0.22589700  1
  O  O6  1  0.26951100  0.21180200  0.72589700  1
  O  O7  1  0.73048900  0.78819800  0.27410300  1
  O  O8  1  0.76008000  0.66313800  0.95555800  1
  O  O9  1  0.23992000  0.33686200  0.04444200  1
  O  O10  1  0.26008000  0.33686200  0.54444200  1
  O  O11  1  0.73992000  0.66313800  0.45555800  1
  O  O12  1  0.95051900  0.78634100  0.60857300  1
  O  O13  1  0.04948100  0.21365900  0.39142700  1
  O  O14  1  0.45051900  0.21365900  0.89142700  1
  O  O15  1  0.54948100  0.78634100  0.10857300  1
  O  O16  1  0.74908000  0.98687700  0.74592200  1
  O  O17  1  0.25092000  0.01312300  0.25407800  1
  O  O18  1  0.24908000  0.01312300  0.75407800  1
  O  O19  1  0.75092000  0.98687700  0.24592200  1
  O  O20  1  0.48559200  0.96105300  0.39776500  1
  O  O21  1  0.51440800  0.03894700  0.60223500  1
  O  O22  1  0.98559200  0.03894700  0.10223500  1
  O  O23  1  0.01440800  0.96105300  0.89776500  1
  O  O24  1  0.42510300  0.89997500  0.86311800  1
  O  O25  1  0.57489700  0.10002500  0.13688200  1
  O  O26  1  0.92510300  0.10002500  0.63688200  1
  O  O27  1  0.07489700  0.89997500  0.36311800  1
  O  O28  1  0.51730200  0.81525100  0.62161700  1
  O  O29  1  0.48269800  0.18474900  0.37838300  1
  O  O30  1  0.01730200  0.18474900  0.87838300  1
  O  O31  1  0.98269800  0.81525100  0.12161700  1
  O  O32  1  0.71347400  0.88619900  0.97985900  1
  O  O33  1  0.28652600  0.11380100  0.02014100  1
  O  O34  1  0.21347400  0.11380100  0.52014100  1
  O  O35  1  0.78652600  0.88619900  0.47985900  1
  O  O36  1  0.19966400  0.91171600  0.55201200  1
  O  O37  1  0.80033600  0.08828400  0.44798800  1
  O  O38  1  0.69966400  0.08828400  0.94798800  1
  O  O39  1  0.30033600  0.91171600  0.05201200  1
loop_
_geom_bond_atom_site_label_1
_geom_bond_atom_site_label_2
_geom_bond_distance
_geom_bond_site_symmetry_2
Fe0 O28 1.945662 1_555
Fe0 O0 1.965326 1_555
Fe0 O35 2.028866 1_555
Fe0 O36 2.054861 1_555
Fe0 O21 2.085513 1_565
Fe0 O20 2.338186 1_555
Fe1 O29 1.945662 1_555
Fe1 O1 1.965326 1_555
Fe1 O34 2.028866 1_555
Fe1 O37 2.054861 1_555
Fe1 O20 2.085513 1_545
Fe1 O21 2.338186 1_555
Fe2 O30 1.945662 1_655
Fe2 O2 1.965326 1_556
Fe2 O33 2.028866 1_656
Fe2 O38 2.054861 1_555
Fe2 O23 2.085513 1_645
Fe2 O22 2.338186 1_556
Fe3 O31 1.945662 1_455
Fe3 O3 1.965326 1_554
Fe3 O32 2.028866 1_454
Fe3 O39 2.054861 1_555
Fe3 O22 2.085513 1_465
Fe3 O23 2.338186 1_554
Fe4 O16 1.942413 1_555
Fe4 O24 1.962594 1_555
Fe4 O4 2.025317 1_555
Fe4 O38 2.091185 1_565
Fe4 O32 2.098272 1_555
Fe4 O23 2.137898 1_655
Fe5 O17 1.942413 1_555
Fe5 O25 1.962594 1_555
Fe5 O5 2.025317 1_555
Fe5 O39 2.091185 1_545
Fe5 O33 2.098272 1_555
Fe5 O22 2.137898 1_455
Fe6 O18 1.942413 1_555
Fe6 O26 1.962594 1_455
Fe6 O6 2.025317 1_555
Fe6 O36 2.091185 1_545
Fe6 O34 2.098272 1_555
Fe6 O21 2.137898 1_555
Fe7 O19 1.942413 1_555
Fe7 O27 1.962594 1_655
Fe7 O7 2.025317 1_555
Fe7 O37 2.091185 1_565
Fe7 O35 2.098272 1_555
Fe7 O20 2.137898 1_555
Br0 Te10 3.169469 1_655
Br0 Te14 3.252501 1_555
Br0 Te12 3.310026 1_555
Br1 Te11 3.169469 1_455
Br1 Te15 3.252501 1_555
Br1 Te13 3.310026 1_555
Br2 Te8 3.169469 1_555
Br2 Te12 3.252501 1_455
Br2 Te14 3.310026 1_555
Br3 Te9 3.169469 1_555
Br3 Te13 3.252501 1_655
Br3 Te15 3.310026 1_555
Cl0 Te14 2.394770 1_555
Cl1 Te15 2.394770 1_555
Cl2 Te12 2.394770 1_455
Cl3 Te13 2.394770 1_655
O0 Te15 1.918215 1_555
O1 Te14 1.918215 1_555
O2 Te13 1.918215 1_655
O3 Te12 1.918215 1_455
O4 Te8 1.918792 1_555
O5 Te9 1.918792 1_555
O6 Te10 1.918792 1_555
O7 Te11 1.918792 1_555
O8 Te12 1.880776 1_555
O8 Te11 2.569727 1_556
O8 Te4 2.590351 1_555
O9 Te13 1.880776 1_555
O9 Te10 2.569727 1_554
O9 Te5 2.590351 1_555
O10 Te14 1.880776 1_555
O10 Te9 2.569727 1_555
O10 Te6 2.590351 1_455
O11 Te15 1.880776 1_555
O11 Te8 2.569727 1_555
O11 Te7 2.590351 1_655
O12 Te7 1.972918 1_655
O12 Te8 1.990544 1_555
O13 Te6 1.972918 1_455
O13 Te9 1.990544 1_555
O14 Te5 1.972918 1_556
O14 Te10 1.990544 1_555
O15 Te4 1.972918 1_554
O15 Te11 1.990544 1_555
O16 Te2 1.877851 1_565
O17 Te3 1.877851 1_545
O18 Te0 1.877851 1_545
O19 Te1 1.877851 1_565
O20 Te3 2.003467 1_555
O21 Te2 2.003467 1_555
O22 Te1 2.003467 1_555
O23 Te0 2.003467 1_555
O24 Te0 1.901626 1_555
O24 Te4 2.491919 1_555
O25 Te1 1.901626 1_555
O25 Te5 2.491919 1_555
O26 Te2 1.901626 1_555
O26 Te6 2.491919 1_555
O27 Te3 1.901626 1_555
O27 Te7 2.491919 1_555
O28 Te8 1.888891 1_555
O29 Te9 1.888891 1_555
O30 Te10 1.888891 1_555
O31 Te11 1.888891 1_555
O32 Te4 1.928009 1_555
O33 Te5 1.928009 1_555
O34 Te6 1.928009 1_455
O35 Te7 1.928009 1_655
O36 Te7 1.947898 1_555
O37 Te6 1.947898 1_555
O38 Te5 1.947898 1_556
O39 Te4 1.947898 1_554
