# generated using pymatgen
data_K2SrCl4
_symmetry_space_group_name_H-M   'P 1'
_cell_length_a   9.49263271
_cell_length_b   9.49263271
_cell_length_c   9.49263301
_cell_angle_alpha   32.60765878
_cell_angle_beta   32.60765878
_cell_angle_gamma   32.60765979
_symmetry_Int_Tables_number   1
_chemical_formula_structural   K2SrCl4
_chemical_formula_sum   'K2 Sr1 Cl4'
_cell_volume   220.91395369
_cell_formula_units_Z   1
loop_
 _symmetry_equiv_pos_site_id
 _symmetry_equiv_pos_as_xyz
  1  'x, y, z'
loop_
 _atom_site_type_symbol
 _atom_site_label
 _atom_site_symmetry_multiplicity
 _atom_site_fract_x
 _atom_site_fract_y
 _atom_site_fract_z
 _atom_site_occupancy
  K  K0  1  0.77012900  0.77012900  0.77012900  1
  K  K1  1  0.22987100  0.22987100  0.22987100  1
  Sr  Sr0  1  0.00000000  0.00000000  0.00000000  1
  Cl  Cl0  1  0.89033800  0.89033800  0.89033800  1
  Cl  Cl1  1  0.10966200  0.10966200  0.10966200  1
  Cl  Cl2  1  0.64039500  0.64039500  0.64039500  1
  Cl  Cl3  1  0.35960500  0.35960500  0.35960500  1
loop_
_geom_bond_atom_site_label_1
_geom_bond_atom_site_label_2
_geom_bond_distance
_geom_bond_site_symmetry_2
Cl0 Sr0 2.954311 1_666
Cl0 K1 3.081662 1_665
Cl0 K1 3.081662 1_656
Cl0 K1 3.081662 1_566
Cl0 K0 3.238449 1_555
Cl1 Sr0 2.954311 1_555
Cl1 K0 3.081662 1_445
Cl1 K0 3.081662 1_544
Cl1 K0 3.081662 1_454
Cl1 K1 3.238449 1_555
Cl2 Sr0 3.157479 1_665
Cl2 Sr0 3.157479 1_566
Cl2 Sr0 3.157479 1_656
Cl2 K0 3.495054 1_555
Cl2 K1 3.713917 1_556
Cl2 K1 3.713918 1_565
Cl2 K1 3.713918 1_655
Cl3 Sr0 3.157479 1_556
Cl3 Sr0 3.157479 1_565
Cl3 Sr0 3.157479 1_655
Cl3 K1 3.495054 1_555
Cl3 K0 3.713917 1_554
Cl3 K0 3.713918 1_545
Cl3 K0 3.713918 1_455
