# generated using pymatgen
data_YVFe11H
_symmetry_space_group_name_H-M   'P 1'
_cell_length_a   4.71660900
_cell_length_b   6.42964260
_cell_length_c   6.42964260
_cell_angle_alpha   97.82189605
_cell_angle_beta   111.51754823
_cell_angle_gamma   68.48245177
_symmetry_Int_Tables_number   1
_chemical_formula_structural   YVFe11H
_chemical_formula_sum   'Y1 V1 Fe11 H1'
_cell_volume   168.75389267
_cell_formula_units_Z   1
loop_
 _symmetry_equiv_pos_site_id
 _symmetry_equiv_pos_as_xyz
  1  'x, y, z'
loop_
 _atom_site_type_symbol
 _atom_site_label
 _atom_site_symmetry_multiplicity
 _atom_site_fract_x
 _atom_site_fract_y
 _atom_site_fract_z
 _atom_site_occupancy
  Y  Y0  1  0.00534200  0.99465800  0.00534200  1
  V  V0  1  0.63081400  0.36918600  0.63081400  1
  Fe  Fe0  1  0.72755200  0.77244800  0.22755200  1
  Fe  Fe1  1  0.27185200  0.22814800  0.77185200  1
  Fe  Fe2  1  0.49917200  0.77583700  0.77418100  1
  Fe  Fe3  1  0.49917200  0.22581900  0.22416300  1
  Fe  Fe4  1  0.50090800  0.99943300  0.50112700  1
  Fe  Fe5  1  0.00078600  0.99943300  0.50112700  1
  Fe  Fe6  1  0.50090800  0.49887300  0.00056700  1
  Fe  Fe7  1  0.00078600  0.49887300  0.00056700  1
  Fe  Fe8  1  0.36383100  0.63616900  0.36383100  1
  Fe  Fe9  1  0.99910000  0.36006800  0.35826800  1
  Fe  Fe10  1  0.99910000  0.64173200  0.63993200  1
  H  H0  1  0.50067600  0.99932400  0.00067600  1
loop_
_geom_bond_atom_site_label_1
_geom_bond_atom_site_label_2
_geom_bond_distance
_geom_bond_site_symmetry_2
V0 Y0 3.171051 1_646
Fe0 H0 1.920912 1_555
Fe0 Fe6 2.429587 1_555
Fe0 Fe4 2.429587 1_555
Fe0 Fe7 2.429587 1_655
Fe0 Fe5 2.429587 1_655
Fe0 Fe9 2.588963 1_555
Fe0 Fe10 2.588963 1_555
Fe1 H0 1.937405 1_546
Fe1 Fe6 2.424248 1_556
Fe1 Fe4 2.424248 1_545
Fe1 Fe7 2.424248 1_556
Fe1 Fe5 2.424248 1_545
Fe1 Fe10 2.598020 1_455
Fe1 Fe9 2.598020 1_455
Fe1 V0 2.643401 1_555
Fe1 V0 2.643401 1_455
Fe2 H0 1.901559 1_556
Fe2 Fe4 2.419779 1_555
Fe2 Fe5 2.419780 1_555
Fe2 Fe6 2.444596 1_556
Fe2 Fe7 2.444596 1_656
Fe2 V0 2.577677 1_555
Fe3 H0 1.901559 1_545
Fe3 Fe6 2.419779 1_555
Fe3 Fe7 2.419780 1_555
Fe3 Fe4 2.444596 1_545
Fe3 Fe5 2.444596 1_645
Fe3 V0 2.577677 1_555
Fe3 Fe9 2.616784 1_555
Fe3 Fe9 2.616784 1_455
Fe4 Fe5 2.357729 1_655
Fe4 Fe5 2.358880 1_555
Fe4 Fe8 2.603931 1_555
Fe4 Fe9 2.604078 1_465
Fe4 V0 2.622374 1_565
Fe4 Y0 3.191566 1_555
Fe4 Y0 3.238359 1_656
Fe5 Fe8 2.603931 1_555
Fe5 Fe9 2.604078 1_465
Fe5 V0 2.622375 1_465
Fe5 Y0 3.191566 1_555
Fe5 Y0 3.238359 1_556
Fe6 Fe7 2.357729 1_655
Fe6 Fe7 2.358880 1_555
Fe6 Fe9 2.581349 1_555
Fe6 Fe8 2.603931 1_555
Fe6 V0 2.622374 1_554
Fe6 Y0 3.191566 1_555
Fe6 Y0 3.238359 1_645
Fe7 Fe9 2.581349 1_455
Fe7 Fe8 2.603931 1_555
Fe7 V0 2.622375 1_454
Fe7 Y0 3.191566 1_555
Fe7 Y0 3.238359 1_545
Fe8 V0 2.260490 1_555
Fe8 Fe9 2.879233 1_455
Fe8 Fe9 2.879233 1_555
Fe9 V0 2.867393 1_555
Fe9 V0 2.867393 1_655
Fe9 Y0 3.035977 1_645
Fe10 Fe9 2.380490 1_555
Fe10 Fe5 2.581349 1_655
Fe10 Fe4 2.581349 1_555
Fe10 Fe7 2.604078 1_656
Fe10 Fe6 2.604078 1_656
Fe10 Fe2 2.616784 1_555
Fe10 Fe2 2.616784 1_655
Fe10 V0 2.867393 1_555
Fe10 V0 2.867393 1_655
Fe10 Fe8 2.879233 1_655
Fe10 Fe8 2.879233 1_555
Fe10 Y0 3.035977 1_656
H0 Y0 2.358635 1_555
H0 Y0 2.358635 1_655
