# generated using pymatgen
data_Mg5Ti(BO5)2
_symmetry_space_group_name_H-M   'P 1'
_cell_length_a   3.04738400
_cell_length_b   9.38979700
_cell_length_c   12.46751200
_cell_angle_alpha   90.00000000
_cell_angle_beta   90.00000000
_cell_angle_gamma   90.00000000
_symmetry_Int_Tables_number   1
_chemical_formula_structural   Mg5Ti(BO5)2
_chemical_formula_sum   'Mg10 Ti2 B4 O20'
_cell_volume   356.74934233
_cell_formula_units_Z   2
loop_
 _symmetry_equiv_pos_site_id
 _symmetry_equiv_pos_as_xyz
  1  'x, y, z'
loop_
 _atom_site_type_symbol
 _atom_site_label
 _atom_site_symmetry_multiplicity
 _atom_site_fract_x
 _atom_site_fract_y
 _atom_site_fract_z
 _atom_site_occupancy
  Mg  Mg0  1  0.00000000  0.26523100  0.50442100  1
  Mg  Mg1  1  0.00000000  0.73476900  0.00442100  1
  Mg  Mg2  1  0.50000000  0.26563900  0.27902300  1
  Mg  Mg3  1  0.50000000  0.26103300  0.71461500  1
  Mg  Mg4  1  0.50000000  0.73896700  0.21461500  1
  Mg  Mg5  1  0.50000000  0.73436100  0.77902300  1
  Mg  Mg6  1  0.50000000  0.26480100  0.00423000  1
  Mg  Mg7  1  0.50000000  0.73519900  0.50423000  1
  Mg  Mg8  1  0.00000000  0.48562700  0.11747400  1
  Mg  Mg9  1  0.00000000  0.51437300  0.61747400  1
  Ti  Ti0  1  0.00000000  0.00994300  0.88436700  1
  Ti  Ti1  1  0.00000000  0.99005700  0.38436700  1
  B  B0  1  0.00000000  0.52682900  0.35983700  1
  B  B1  1  0.00000000  0.97910400  0.63997900  1
  B  B2  1  0.00000000  0.02089600  0.13997900  1
  B  B3  1  0.00000000  0.47317100  0.85983700  1
  O  O0  1  0.00000000  0.60250200  0.45472400  1
  O  O1  1  0.00000000  0.90573300  0.54043300  1
  O  O2  1  0.00000000  0.09426700  0.04043300  1
  O  O3  1  0.00000000  0.39749800  0.95472400  1
  O  O4  1  0.50000000  0.63870800  0.07449900  1
  O  O5  1  0.50000000  0.87686100  0.92141700  1
  O  O6  1  0.50000000  0.12313900  0.42141700  1
  O  O7  1  0.50000000  0.36129200  0.57449900  1
  O  O8  1  0.00000000  0.37636100  0.35849100  1
  O  O9  1  0.00000000  0.12362800  0.64331800  1
  O  O10  1  0.00000000  0.87637200  0.14331800  1
  O  O11  1  0.00000000  0.62363900  0.85849100  1
  O  O12  1  0.50000000  0.35196800  0.14309500  1
  O  O13  1  0.50000000  0.13513500  0.85589400  1
  O  O14  1  0.50000000  0.86486500  0.35589400  1
  O  O15  1  0.50000000  0.64803200  0.64309500  1
  O  O16  1  0.00000000  0.60263800  0.26461000  1
  O  O17  1  0.00000000  0.90469600  0.73957200  1
  O  O18  1  0.00000000  0.09530400  0.23957200  1
  O  O19  1  0.00000000  0.39736200  0.76461000  1
loop_
_geom_bond_atom_site_label_1
_geom_bond_atom_site_label_2
_geom_bond_distance
_geom_bond_site_symmetry_2
Mg0 O7 1.974482 1_555
Mg0 O7 1.974482 1_455
Mg0 O8 2.097385 1_555
Mg0 O9 2.183274 1_555
Mg0 O6 2.274355 1_455
Mg0 O6 2.274355 1_555
Mg1 O4 1.974482 1_455
Mg1 O4 1.974482 1_555
Mg1 O11 2.097385 1_554
Mg1 O10 2.183274 1_555
Mg1 O5 2.274355 1_554
Mg1 O5 2.274355 1_454
Mg2 O12 1.878575 1_555
Mg2 O8 2.093835 1_555
Mg2 O8 2.093835 1_655
Mg2 O6 2.223073 1_555
Mg2 O18 2.263112 1_655
Mg2 O18 2.263112 1_555
Mg3 O7 1.984416 1_555
Mg3 O19 2.085382 1_655
Mg3 O19 2.085382 1_555
Mg3 O13 2.121324 1_555
Mg3 O9 2.185498 1_555
Mg3 O9 2.185498 1_655
Mg4 O4 1.984416 1_555
Mg4 O16 2.085382 1_555
Mg4 O16 2.085382 1_655
Mg4 O14 2.121324 1_555
Mg4 O10 2.185498 1_655
Mg4 O10 2.185498 1_555
Mg5 O15 1.878575 1_555
Mg5 O11 2.093835 1_555
Mg5 O11 2.093835 1_655
Mg5 O5 2.223073 1_555
Mg5 O17 2.263112 1_555
Mg5 O17 2.263112 1_655
Mg6 O12 1.915023 1_555
Mg6 O3 2.062790 1_654
Mg6 O3 2.062790 1_554
Mg6 O13 2.214183 1_554
Mg6 O2 2.255983 1_655
Mg6 O2 2.255983 1_555
Mg7 O15 1.915023 1_555
Mg7 O0 2.062790 1_555
Mg7 O0 2.062790 1_655
Mg7 O14 2.214183 1_555
Mg7 O1 2.255983 1_655
Mg7 O1 2.255983 1_555
Mg8 O12 1.999694 1_455
Mg8 O12 1.999694 1_555
Mg8 O16 2.138284 1_555
Mg8 O4 2.162135 1_555
Mg8 O4 2.162135 1_455
Mg8 O3 2.191341 1_554
Mg9 O15 1.999694 1_455
Mg9 O15 1.999694 1_555
Mg9 O19 2.138284 1_555
Mg9 O7 2.162135 1_555
Mg9 O7 2.162135 1_455
Mg9 O0 2.191341 1_555
B0 O0 1.379995 1_555
B0 O16 1.384287 1_555
B0 O8 1.412964 1_555
B1 O9 1.357689 1_565
B1 O1 1.419487 1_555
B1 O17 1.424749 1_555
B2 O10 1.357689 1_545
B2 O2 1.419487 1_555
B2 O18 1.424749 1_555
B3 O3 1.379995 1_555
B3 O19 1.384287 1_555
B3 O11 1.412964 1_555
O1 Ti1 2.100687 1_555
O2 Ti0 2.100687 1_554
O5 Ti0 2.023991 1_665
O5 Ti0 2.023991 1_565
O6 Ti1 2.023991 1_645
O6 Ti1 2.023991 1_545
O13 Ti0 1.956915 1_655
O13 Ti0 1.956915 1_555
O14 Ti1 1.956915 1_655
O14 Ti1 1.956915 1_555
O17 Ti0 2.058033 1_565
O18 Ti1 2.058033 1_545
