# generated using pymatgen
data_MnCO3
_symmetry_space_group_name_H-M   'P 1'
_cell_length_a   5.33517700
_cell_length_b   5.97078200
_cell_length_c   6.93944847
_cell_angle_alpha   85.09257776
_cell_angle_beta   90.00000000
_cell_angle_gamma   90.00000000
_symmetry_Int_Tables_number   1
_chemical_formula_structural   MnCO3
_chemical_formula_sum   'Mn4 C4 O12'
_cell_volume   220.24702476
_cell_formula_units_Z   4
loop_
 _symmetry_equiv_pos_site_id
 _symmetry_equiv_pos_as_xyz
  1  'x, y, z'
loop_
 _atom_site_type_symbol
 _atom_site_label
 _atom_site_symmetry_multiplicity
 _atom_site_fract_x
 _atom_site_fract_y
 _atom_site_fract_z
 _atom_site_occupancy
  Mn  Mn0  1  0.22701300  0.41087700  0.90524900  1
  Mn  Mn1  1  0.72701300  0.58912300  0.59475100  1
  Mn  Mn2  1  0.77298700  0.58912300  0.09475100  1
  Mn  Mn3  1  0.27298700  0.41087700  0.40524900  1
  C  C0  1  0.39864600  0.93291000  0.95187700  1
  C  C1  1  0.89864600  0.06709000  0.54812300  1
  C  C2  1  0.60135400  0.06709000  0.04812300  1
  C  C3  1  0.10135400  0.93291000  0.45187700  1
  O  O0  1  0.44373900  0.72039900  0.95738800  1
  O  O1  1  0.94373900  0.27960100  0.54261200  1
  O  O2  1  0.55626100  0.27960100  0.04261200  1
  O  O3  1  0.05626100  0.72039900  0.45738800  1
  O  O4  1  0.21266500  0.03345500  0.87869600  1
  O  O5  1  0.71266500  0.96654500  0.62130400  1
  O  O6  1  0.78733500  0.96654500  0.12130400  1
  O  O7  1  0.28733500  0.03345500  0.37869600  1
  O  O8  1  0.91203000  0.57315400  0.83904000  1
  O  O9  1  0.41203000  0.42684600  0.66096000  1
  O  O10  1  0.08797000  0.42684600  0.16096000  1
  O  O11  1  0.58797000  0.57315400  0.33904000  1
loop_
_geom_bond_atom_site_label_1
_geom_bond_atom_site_label_2
_geom_bond_distance
_geom_bond_site_symmetry_2
Mn0 O10 1.933174 1_556
Mn0 O9 1.956938 1_555
Mn0 O8 1.974281 1_455
Mn0 O2 2.116792 1_556
Mn0 O0 2.235556 1_555
Mn0 O4 2.277968 1_555
Mn1 O11 1.933174 1_555
Mn1 O8 1.956938 1_555
Mn1 O9 1.974281 1_555
Mn1 O3 2.116792 1_655
Mn1 O1 2.235556 1_555
Mn1 O5 2.277968 1_555
Mn2 O8 1.933174 1_554
Mn2 O11 1.956938 1_555
Mn2 O10 1.974281 1_655
Mn2 O0 2.116792 1_554
Mn2 O2 2.235556 1_555
Mn2 O6 2.277968 1_555
Mn3 O9 1.933174 1_555
Mn3 O10 1.956938 1_555
Mn3 O11 1.974281 1_555
Mn3 O1 2.116792 1_455
Mn3 O3 2.235556 1_555
Mn3 O7 2.277968 1_555
C0 O4 1.245262 1_565
C0 O0 1.288812 1_555
C1 O5 1.245262 1_545
C1 O1 1.288812 1_555
C2 O6 1.245262 1_545
C2 O2 1.288812 1_555
C3 O7 1.245262 1_565
C3 O3 1.288812 1_555
