# generated using pymatgen
data_Zn(SnO2)2
_symmetry_space_group_name_H-M   'P 1'
_cell_length_a   6.99925500
_cell_length_b   6.22312000
_cell_length_c   12.37834946
_cell_angle_alpha   64.80353924
_cell_angle_beta   90.00000000
_cell_angle_gamma   90.00000000
_symmetry_Int_Tables_number   1
_chemical_formula_structural   Zn(SnO2)2
_chemical_formula_sum   'Zn4 Sn8 O16'
_cell_volume   487.86642459
_cell_formula_units_Z   4
loop_
 _symmetry_equiv_pos_site_id
 _symmetry_equiv_pos_as_xyz
  1  'x, y, z'
loop_
 _atom_site_type_symbol
 _atom_site_label
 _atom_site_symmetry_multiplicity
 _atom_site_fract_x
 _atom_site_fract_y
 _atom_site_fract_z
 _atom_site_occupancy
  Zn  Zn0  1  0.05197700  0.50000000  0.75000000  1
  Zn  Zn1  1  0.94802300  0.50000000  0.25000000  1
  Zn  Zn2  1  0.75982600  0.00000000  0.25000000  1
  Zn  Zn3  1  0.24017400  0.00000000  0.75000000  1
  Sn  Sn0  1  0.59717600  0.30271900  0.44745000  1
  Sn  Sn1  1  0.59717600  0.69728100  0.05255000  1
  Sn  Sn2  1  0.40282400  0.69728100  0.55255000  1
  Sn  Sn3  1  0.40282400  0.30271900  0.94745000  1
  Sn  Sn4  1  0.00000000  0.00000000  0.50000000  1
  Sn  Sn5  1  0.00000000  0.00000000  0.00000000  1
  Sn  Sn6  1  0.00000000  0.50000000  0.50000000  1
  Sn  Sn7  1  0.00000000  0.50000000  0.00000000  1
  O  O0  1  0.11424800  0.33695600  0.39772200  1
  O  O1  1  0.11424800  0.66304400  0.10227800  1
  O  O2  1  0.88575200  0.66304400  0.60227800  1
  O  O3  1  0.88575200  0.33695600  0.89772200  1
  O  O4  1  0.83382900  0.18723500  0.57491100  1
  O  O5  1  0.83382900  0.81276500  0.92508900  1
  O  O6  1  0.16617100  0.81276500  0.42508900  1
  O  O7  1  0.16617100  0.18723500  0.07491100  1
  O  O8  1  0.23296800  0.90390900  0.62134400  1
  O  O9  1  0.23296800  0.09609100  0.87865600  1
  O  O10  1  0.78716500  0.61389900  0.36282500  1
  O  O11  1  0.78716500  0.38610100  0.13717500  1
  O  O12  1  0.76703200  0.09609100  0.37865600  1
  O  O13  1  0.76703200  0.90390900  0.12134400  1
  O  O14  1  0.21283500  0.38610100  0.63717500  1
  O  O15  1  0.21283500  0.61389900  0.86282500  1
loop_
_geom_bond_atom_site_label_1
_geom_bond_atom_site_label_2
_geom_bond_distance
_geom_bond_site_symmetry_2
O0 Zn1 2.036422 1_455
O0 Sn6 2.089383 1_555
O0 Sn4 2.092594 1_555
O1 Zn1 2.036422 1_455
O1 Sn7 2.089383 1_555
O1 Sn5 2.092594 1_565
O2 Zn0 2.036422 1_655
O2 Sn6 2.089383 1_655
O2 Sn4 2.092594 1_665
O3 Zn0 2.036422 1_655
O3 Sn7 2.089383 1_656
O3 Sn5 2.092594 1_656
O4 Sn6 2.112875 1_655
O4 Sn4 2.119004 1_655
O4 Sn0 2.187236 1_555
O5 Sn7 2.112875 1_656
O5 Sn5 2.119004 1_666
O5 Sn1 2.187236 1_556
O6 Sn6 2.112875 1_555
O6 Sn4 2.119004 1_565
O6 Sn2 2.187236 1_555
O7 Sn7 2.112875 1_555
O7 Sn5 2.119004 1_555
O7 Sn3 2.187236 1_554
O8 Zn3 1.925408 1_565
O8 Sn4 2.123159 1_565
O8 Sn2 2.173555 1_555
O9 Zn3 1.925408 1_555
O9 Sn5 2.123159 1_556
O9 Sn3 2.173555 1_555
O10 Zn1 2.136198 1_555
O10 Sn6 2.140097 1_655
O10 Sn0 2.210995 1_555
O10 Zn2 2.214302 1_565
O11 Zn1 2.136198 1_555
O11 Sn7 2.140097 1_655
O11 Sn1 2.210995 1_555
O11 Zn2 2.214302 1_555
O12 Zn2 1.925408 1_555
O12 Sn4 2.123159 1_655
O12 Sn0 2.173555 1_555
O13 Zn2 1.925408 1_565
O13 Sn5 2.123159 1_665
O13 Sn1 2.173555 1_555
O14 Zn0 2.136198 1_555
O14 Sn6 2.140097 1_555
O14 Sn2 2.210995 1_555
O14 Zn3 2.214302 1_555
O15 Zn0 2.136198 1_555
O15 Sn7 2.140097 1_556
O15 Sn3 2.210995 1_555
O15 Zn3 2.214302 1_565
