# generated using pymatgen
data_SbH5(O2F3)2
_symmetry_space_group_name_H-M   'P 1'
_cell_length_a   6.79382300
_cell_length_b   7.99981046
_cell_length_c   8.33877679
_cell_angle_alpha   111.17266999
_cell_angle_beta   95.33130349
_cell_angle_gamma   113.98223551
_symmetry_Int_Tables_number   1
_chemical_formula_structural   SbH5(O2F3)2
_chemical_formula_sum   'Sb2 H10 O8 F12'
_cell_volume   370.53113637
_cell_formula_units_Z   2
loop_
 _symmetry_equiv_pos_site_id
 _symmetry_equiv_pos_as_xyz
  1  'x, y, z'
loop_
 _atom_site_type_symbol
 _atom_site_label
 _atom_site_symmetry_multiplicity
 _atom_site_fract_x
 _atom_site_fract_y
 _atom_site_fract_z
 _atom_site_occupancy
  Sb  Sb0  1  0.76331600  0.39503000  0.20255300  1
  Sb  Sb1  1  0.23510200  0.59761900  0.79476700  1
  H  H0  1  0.36153900  0.88803300  0.25345100  1
  H  H1  1  0.62488200  0.10241400  0.74529600  1
  H  H2  1  0.14289300  0.18899700  0.90103000  1
  H  H3  1  0.86575600  0.81336900  0.08008600  1
  H  H4  1  0.90886000  0.84081000  0.63320200  1
  H  H5  1  0.09400400  0.15320900  0.35364700  1
  H  H6  1  0.40456300  0.60771600  0.26853000  1
  H  H7  1  0.59576500  0.38369800  0.72133800  1
  H  H8  1  0.49360600  0.99244100  0.49808800  1
  H  H9  1  0.01503100  0.00331000  0.99018500  1
  O  O0  1  0.08271900  0.04161300  0.87362900  1
  O  O1  1  0.93567400  0.96084200  0.10902300  1
  O  O2  1  0.88232500  0.94422800  0.72429000  1
  O  O3  1  0.12373400  0.05012600  0.26597900  1
  O  O4  1  0.51712400  0.75154400  0.31142100  1
  O  O5  1  0.47844200  0.24157700  0.68038100  1
  O  O6  1  0.37713100  0.85043700  0.35419200  1
  O  O7  1  0.61228300  0.13604100  0.64151000  1
  F  F0  1  0.05843800  0.42034600  0.24189200  1
  F  F1  1  0.93913600  0.57094800  0.75686200  1
  F  F2  1  0.84960000  0.62445900  0.42874900  1
  F  F3  1  0.14759100  0.36708800  0.56981400  1
  F  F4  1  0.46422300  0.36292900  0.15403100  1
  F  F5  1  0.53436300  0.63091900  0.84321700  1
  F  F6  1  0.68112000  0.16979300  0.97231700  1
  F  F7  1  0.31541800  0.82315600  0.02384400  1
  F  F8  1  0.67459500  0.21456600  0.31219100  1
  F  F9  1  0.32193100  0.77736800  0.68426300  1
  F  F10  1  0.84541000  0.57969200  0.09310400  1
  F  F11  1  0.15542500  0.41368200  0.90611700  1
loop_
_geom_bond_atom_site_label_1
_geom_bond_atom_site_label_2
_geom_bond_distance
_geom_bond_site_symmetry_2
H0 O6 0.999622 1_555
H1 O7 1.000910 1_555
H2 O0 1.002841 1_555
H3 O1 0.996593 1_555
H4 O2 0.993304 1_555
H5 O3 0.991273 1_555
H6 O4 0.986526 1_555
H7 O5 0.988355 1_555
H8 O6 1.210218 1_555
H8 O7 1.214708 1_565
H9 O0 1.197356 1_555
H9 O1 1.257648 1_446
F0 Sb0 1.915300 1_455
F1 Sb1 1.916491 1_655
F2 Sb0 1.920730 1_555
F3 Sb1 1.917241 1_555
F4 Sb0 1.925251 1_555
F5 Sb1 1.922792 1_555
F6 Sb0 1.930908 1_556
F7 Sb1 1.928312 1_554
F8 Sb0 1.905733 1_555
F9 Sb1 1.906154 1_555
F10 Sb0 1.930047 1_555
F11 Sb1 1.937324 1_555
