# generated using pymatgen
data_Lu4MgNi
_symmetry_space_group_name_H-M   'P 1'
_cell_length_a   9.40773470
_cell_length_b   9.40773470
_cell_length_c   9.40773470
_cell_angle_alpha   60.00000000
_cell_angle_beta   60.00000000
_cell_angle_gamma   60.00000000
_symmetry_Int_Tables_number   1
_chemical_formula_structural   Lu4MgNi
_chemical_formula_sum   'Lu16 Mg4 Ni4'
_cell_volume   588.76256262
_cell_formula_units_Z   4
loop_
 _symmetry_equiv_pos_site_id
 _symmetry_equiv_pos_as_xyz
  1  'x, y, z'
loop_
 _atom_site_type_symbol
 _atom_site_label
 _atom_site_symmetry_multiplicity
 _atom_site_fract_x
 _atom_site_fract_y
 _atom_site_fract_z
 _atom_site_occupancy
  Lu  Lu0  1  0.59592000  0.59592000  0.59592000  1
  Lu  Lu1  1  0.59592000  0.59592000  0.21224000  1
  Lu  Lu2  1  0.59592000  0.21224000  0.59592000  1
  Lu  Lu3  1  0.21224000  0.59592000  0.59592000  1
  Lu  Lu4  1  0.06254600  0.43745400  0.43745400  1
  Lu  Lu5  1  0.43745400  0.06254600  0.06254600  1
  Lu  Lu6  1  0.43745400  0.06254600  0.43745400  1
  Lu  Lu7  1  0.06254600  0.43745400  0.06254600  1
  Lu  Lu8  1  0.43745400  0.43745400  0.06254600  1
  Lu  Lu9  1  0.06254600  0.06254600  0.43745400  1
  Lu  Lu10  1  0.18583600  0.81416400  0.81416400  1
  Lu  Lu11  1  0.81416400  0.18583600  0.18583600  1
  Lu  Lu12  1  0.81416400  0.18583600  0.81416400  1
  Lu  Lu13  1  0.18583600  0.81416400  0.18583600  1
  Lu  Lu14  1  0.81416400  0.81416400  0.18583600  1
  Lu  Lu15  1  0.18583600  0.18583600  0.81416400  1
  Mg  Mg0  1  0.82990600  0.82990600  0.82990600  1
  Mg  Mg1  1  0.82990600  0.82990600  0.51028100  1
  Mg  Mg2  1  0.82990600  0.51028100  0.82990600  1
  Mg  Mg3  1  0.51028100  0.82990600  0.82990600  1
  Ni  Ni0  1  0.39189100  0.39189100  0.39189100  1
  Ni  Ni1  1  0.39189100  0.39189100  0.82432700  1
  Ni  Ni2  1  0.39189100  0.82432700  0.39189100  1
  Ni  Ni3  1  0.82432700  0.39189100  0.39189100  1
loop_
_geom_bond_atom_site_label_1
_geom_bond_atom_site_label_2
_geom_bond_distance
_geom_bond_site_symmetry_2
Lu0 Ni1 2.724184 1_555
Lu0 Ni2 2.724184 1_555
Lu0 Ni3 2.724184 1_555
Lu0 Mg3 3.411594 1_555
Lu0 Mg2 3.411594 1_555
Lu0 Mg1 3.411594 1_555
Lu0 Lu14 3.418821 1_555
Lu0 Lu10 3.418821 1_555
Lu0 Lu12 3.418821 1_555
Lu1 Ni3 2.724184 1_555
Lu1 Ni2 2.724184 1_555
Lu1 Ni0 2.724184 1_555
Lu1 Mg0 3.411598 1_554
Lu1 Mg2 3.411602 1_554
Lu1 Mg3 3.411602 1_554
Lu1 Lu14 3.418821 1_555
Lu1 Lu13 3.418821 1_555
Lu1 Lu11 3.418821 1_555
Lu2 Ni3 2.724184 1_555
Lu2 Ni1 2.724184 1_555
Lu2 Ni0 2.724184 1_555
Lu2 Mg0 3.411598 1_545
Lu2 Mg3 3.411602 1_545
Lu2 Mg1 3.411602 1_545
Lu3 Ni1 2.724184 1_555
Lu3 Ni2 2.724184 1_555
Lu3 Ni0 2.724184 1_555
Lu3 Mg0 3.411598 1_455
Lu3 Mg1 3.411602 1_455
Lu3 Mg2 3.411602 1_455
Lu4 Ni3 2.737702 1_455
Lu4 Ni0 2.737702 1_555
Lu4 Mg2 3.440998 1_455
Lu4 Mg1 3.440998 1_455
Lu5 Ni2 2.737702 1_545
Lu5 Ni1 2.737702 1_554
Lu5 Mg0 3.441002 1_544
Lu5 Mg3 3.441006 1_544
Lu6 Ni2 2.737702 1_545
Lu6 Ni0 2.737702 1_555
Lu6 Mg1 3.440998 1_545
Lu6 Mg3 3.440998 1_545
Lu7 Ni3 2.737702 1_455
Lu7 Ni1 2.737702 1_554
Lu7 Mg0 3.441002 1_454
Lu7 Mg2 3.441006 1_454
Lu8 Ni1 2.737702 1_554
Lu8 Ni0 2.737702 1_555
Lu8 Mg3 3.440998 1_554
Lu8 Mg2 3.440998 1_554
Lu9 Ni2 2.737702 1_545
Lu9 Ni3 2.737702 1_455
Lu9 Mg0 3.441002 1_445
Lu9 Mg1 3.441006 1_445
Lu10 Mg3 3.207235 1_555
Lu10 Mg0 3.207244 1_455
Lu10 Ni2 3.413693 1_555
Lu10 Ni1 3.413693 1_555
Lu10 Lu3 3.418821 1_555
Lu10 Lu14 3.496592 1_456
Lu10 Lu12 3.496592 1_465
Lu10 Lu13 3.496592 1_556
Lu10 Lu15 3.496592 1_565
Lu10 Lu6 3.533328 1_565
Lu10 Lu8 3.533328 1_556
Lu10 Lu7 3.533328 1_556
Lu10 Lu9 3.533328 1_565
Lu11 Mg1 3.207240 1_545
Lu11 Mg2 3.207240 1_554
Lu11 Ni3 3.413693 1_555
Lu11 Ni0 3.413693 1_555
Lu11 Lu2 3.418821 1_555
Lu11 Lu14 3.496592 1_545
Lu11 Lu13 3.496592 1_645
Lu11 Lu15 3.496592 1_654
Lu11 Lu12 3.496592 1_554
Lu11 Lu9 3.533328 1_655
Lu11 Lu7 3.533328 1_655
Lu11 Lu6 3.533328 1_555
Lu11 Lu8 3.533328 1_555
Lu12 Mg2 3.207235 1_555
Lu12 Mg0 3.207244 1_545
Lu12 Ni3 3.413693 1_555
Lu12 Ni1 3.413693 1_555
Lu12 Lu2 3.418821 1_555
Lu12 Lu14 3.496592 1_546
Lu12 Lu15 3.496592 1_655
Lu12 Lu8 3.533328 1_556
Lu12 Lu4 3.533328 1_655
Lu12 Lu5 3.533328 1_556
Lu12 Lu9 3.533328 1_655
Lu13 Mg3 3.207240 1_554
Lu13 Mg1 3.207240 1_455
Lu13 Ni2 3.413693 1_555
Lu13 Ni0 3.413693 1_555
Lu13 Lu3 3.418821 1_555
Lu13 Lu14 3.496592 1_455
Lu13 Lu15 3.496592 1_564
Lu13 Lu5 3.533328 1_565
Lu13 Lu9 3.533328 1_565
Lu13 Lu4 3.533328 1_555
Lu13 Lu8 3.533328 1_555
Lu14 Mg1 3.207235 1_555
Lu14 Mg0 3.207244 1_554
Lu14 Ni2 3.413693 1_555
Lu14 Ni3 3.413693 1_555
Lu14 Lu6 3.533328 1_565
Lu14 Lu4 3.533328 1_655
Lu14 Lu5 3.533328 1_565
Lu14 Lu7 3.533328 1_655
Lu15 Mg2 3.207240 1_455
Lu15 Mg3 3.207240 1_545
Lu15 Ni1 3.413693 1_555
Lu15 Ni0 3.413693 1_555
Lu15 Lu2 3.418821 1_555
Lu15 Lu3 3.418821 1_555
Lu15 Lu7 3.533328 1_556
Lu15 Lu5 3.533328 1_556
Lu15 Lu4 3.533328 1_555
Lu15 Lu6 3.533328 1_555
Mg0 Mg1 3.006947 1_555
Mg0 Mg2 3.006947 1_555
Mg0 Mg3 3.006947 1_555
Mg1 Mg2 3.006947 1_555
Mg1 Mg3 3.006947 1_555
Mg2 Mg3 3.006947 1_555
