# generated using pymatgen
data_YbPr3Co34
_symmetry_space_group_name_H-M   'P 1'
_cell_length_a   6.31459430
_cell_length_b   6.31459430
_cell_length_c   12.63146519
_cell_angle_alpha   83.14570432
_cell_angle_beta   83.14570432
_cell_angle_gamma   83.12870575
_symmetry_Int_Tables_number   1
_chemical_formula_structural   YbPr3Co34
_chemical_formula_sum   'Yb1 Pr3 Co34'
_cell_volume   493.64842633
_cell_formula_units_Z   1
loop_
 _symmetry_equiv_pos_site_id
 _symmetry_equiv_pos_as_xyz
  1  'x, y, z'
loop_
 _atom_site_type_symbol
 _atom_site_label
 _atom_site_symmetry_multiplicity
 _atom_site_fract_x
 _atom_site_fract_y
 _atom_site_fract_z
 _atom_site_occupancy
  Yb  Yb0  1  0.34397400  0.34397400  0.67196600  1
  Pr  Pr0  1  0.34608200  0.34608200  0.17289600  1
  Pr  Pr1  1  0.65185300  0.65185300  0.82601700  1
  Pr  Pr2  1  0.65428600  0.65428600  0.32695200  1
  Co  Co0  1  0.71145100  0.28743100  0.50195100  1
  Co  Co1  1  0.71848600  0.28277600  0.99869200  1
  Co  Co2  1  0.28725500  0.00265500  0.85553300  1
  Co  Co3  1  0.28287800  0.99838400  0.35944900  1
  Co  Co4  1  0.00089400  0.71373600  0.64323200  1
  Co  Co5  1  0.00012900  0.71597800  0.14183700  1
  Co  Co6  1  0.71373600  0.00089400  0.64323200  1
  Co  Co7  1  0.71597800  0.00012900  0.14183700  1
  Co  Co8  1  0.00265500  0.28725500  0.85553300  1
  Co  Co9  1  0.99838400  0.28287800  0.35944900  1
  Co  Co10  1  0.28277600  0.71848600  0.99869200  1
  Co  Co11  1  0.28743100  0.71145100  0.50195100  1
  Co  Co12  1  0.65459200  0.65459200  0.57485800  1
  Co  Co13  1  0.65791600  0.65791600  0.07358900  1
  Co  Co14  1  0.65500900  0.14904100  0.82695500  1
  Co  Co15  1  0.65750600  0.14798400  0.32949100  1
  Co  Co16  1  0.14904100  0.65500900  0.82695500  1
  Co  Co17  1  0.14798400  0.65750600  0.32949100  1
  Co  Co18  1  0.34202800  0.34202800  0.92391900  1
  Co  Co19  1  0.34264800  0.34264800  0.42827300  1
  Co  Co20  1  0.34202000  0.85228200  0.67119500  1
  Co  Co21  1  0.34226300  0.85219500  0.17085400  1
  Co  Co22  1  0.85228200  0.34202000  0.67119500  1
  Co  Co23  1  0.85219500  0.34226300  0.17085400  1
  Co  Co24  1  0.00236100  0.00236100  0.74923200  1
  Co  Co25  1  0.99971300  0.99971300  0.25055300  1
  Co  Co26  1  0.00146900  0.49952300  0.50130200  1
  Co  Co27  1  0.00057600  0.50027100  0.99975700  1
  Co  Co28  1  0.50027100  0.00057600  0.99975700  1
  Co  Co29  1  0.49952300  0.00146900  0.50130200  1
  Co  Co30  1  0.09770300  0.09770300  0.54906500  1
  Co  Co31  1  0.09623500  0.09623500  0.04762100  1
  Co  Co32  1  0.90402000  0.90402000  0.95108900  1
  Co  Co33  1  0.90439900  0.90439900  0.45347300  1
loop_
_geom_bond_atom_site_label_1
_geom_bond_atom_site_label_2
_geom_bond_distance
_geom_bond_site_symmetry_2
Co0 Co29 2.374026 1_555
Co0 Co6 2.384939 1_555
Co0 Co26 2.393370 1_655
Co0 Co9 2.396904 1_555
Co0 Co22 2.486538 1_555
Co0 Co15 2.518667 1_555
Co0 Co12 2.565902 1_555
Co0 Co19 2.580074 1_555
Co0 Co33 2.679518 1_545
Co0 Co30 2.686155 1_655
Co0 Yb0 2.986518 1_555
Co0 Pr2 3.025071 1_555
Co1 Co28 2.377338 1_555
Co1 Co27 2.377996 1_655
Co1 Co7 2.384270 1_556
Co1 Co8 2.390840 1_655
Co1 Co23 2.508434 1_556
Co1 Co14 2.511063 1_555
Co1 Co13 2.623844 1_556
Co1 Co18 2.630928 1_555
Co1 Co32 2.637985 1_545
Co1 Co31 2.639149 1_656
Co1 Pr1 3.022755 1_555
Co1 Pr0 3.046578 1_556
Co2 Co24 2.370080 1_555
Co2 Co8 2.384655 1_555
Co2 Co28 2.388152 1_555
Co2 Co20 2.588419 1_545
Co2 Co31 2.676645 1_556
Co2 Co32 2.680503 1_445
Co2 Yb0 2.990593 1_555
Co2 Pr1 3.019678 1_545
Co3 Co9 2.383767 1_465
Co3 Co33 2.639737 1_455
Co3 Co30 2.647985 1_565
Co3 Pr2 3.025536 1_555
Co3 Pr0 3.046785 1_565
Co4 Co6 2.406089 1_465
Co4 Yb0 3.008631 1_555
Co4 Pr1 3.019501 1_455
Co5 Co7 2.380893 1_465
Co5 Pr0 3.024366 1_555
Co5 Pr2 3.025855 1_455
Co6 Yb0 3.008631 1_555
Co6 Pr1 3.019501 1_545
Co7 Pr0 3.024366 1_555
Co7 Pr2 3.025855 1_545
Co8 Yb0 2.990593 1_555
Co8 Pr1 3.019678 1_455
Co9 Pr2 3.025536 1_555
Co9 Pr0 3.046785 1_655
Co10 Co27 2.377338 1_555
Co10 Co28 2.377996 1_565
Co10 Co5 2.384270 1_556
Co10 Co2 2.390840 1_565
Co10 Co21 2.508434 1_556
Co10 Co16 2.511063 1_555
Co10 Co13 2.623844 1_556
Co10 Co18 2.630928 1_555
Co10 Co32 2.637985 1_455
Co10 Co31 2.639149 1_566
Co10 Pr1 3.022755 1_555
Co10 Pr0 3.046578 1_556
Co11 Co26 2.374026 1_555
Co11 Co4 2.384939 1_555
Co11 Co29 2.393370 1_565
Co11 Co3 2.396904 1_555
Co11 Co20 2.486538 1_555
Co11 Co17 2.518667 1_555
Co11 Co12 2.565902 1_555
Co11 Co19 2.580074 1_555
Co11 Co33 2.679518 1_455
Co11 Co30 2.686155 1_565
Co11 Yb0 2.986518 1_555
Co11 Pr2 3.025071 1_555
Co12 Co26 2.416210 1_655
Co12 Co29 2.416210 1_565
Co12 Co22 2.476813 1_555
Co12 Co20 2.476813 1_555
Co12 Co4 2.527944 1_655
Co12 Co6 2.527944 1_565
Co12 Co33 2.601592 1_555
Co12 Yb0 2.995162 1_555
Co12 Pr2 3.131879 1_555
Co12 Pr1 3.168481 1_555
Co13 Co27 2.401478 1_654
Co13 Co28 2.401478 1_564
Co13 Co21 2.485467 1_555
Co13 Co23 2.485467 1_555
Co13 Co7 2.501381 1_565
Co13 Co5 2.501381 1_655
Co13 Co32 2.579606 1_554
Co13 Pr0 3.012787 1_555
Co13 Pr1 3.136845 1_554
Co13 Pr2 3.195054 1_555
Co14 Co28 2.412402 1_555
Co14 Co24 2.418601 1_655
Co14 Co18 2.468470 1_555
Co14 Co22 2.472576 1_555
Co14 Co8 2.536516 1_655
Co14 Co2 2.571256 1_555
Co14 Co6 2.574496 1_555
Co14 Co32 2.598503 1_545
Co14 Yb0 2.994920 1_555
Co14 Pr1 3.143431 1_545
Co14 Pr1 3.171347 1_555
Co15 Co25 2.400986 1_545
Co15 Co29 2.405383 1_555
Co15 Co19 2.491990 1_555
Co15 Co9 2.492413 1_555
Co15 Co23 2.493552 1_555
Co15 Co33 2.585160 1_545
Co15 Co7 2.619810 1_555
Co15 Co3 2.620589 1_545
Co15 Pr0 3.015591 1_555
Co15 Pr2 3.124012 1_545
Co15 Pr2 3.191076 1_555
Co16 Co27 2.412402 1_555
Co16 Co24 2.418601 1_565
Co16 Co18 2.468470 1_555
Co16 Co20 2.472576 1_555
Co16 Co2 2.536516 1_565
Co16 Co8 2.571256 1_555
Co16 Co4 2.574496 1_555
Co16 Co32 2.598503 1_455
Co16 Yb0 2.994920 1_555
Co16 Pr1 3.143431 1_455
Co16 Pr1 3.171347 1_555
Co17 Co25 2.400986 1_455
Co17 Co26 2.405383 1_555
Co17 Co19 2.491990 1_555
Co17 Co3 2.492413 1_555
Co17 Co21 2.493552 1_555
Co17 Co33 2.585160 1_455
Co17 Co5 2.619810 1_555
Co17 Co9 2.620589 1_455
Co17 Pr0 3.015591 1_555
Co17 Pr2 3.124012 1_455
Co17 Pr2 3.191076 1_555
Co18 Co28 2.405201 1_555
Co18 Co27 2.405201 1_555
Co18 Co2 2.479674 1_555
Co18 Co8 2.479674 1_555
Co18 Co31 2.584207 1_556
Co18 Pr1 2.990875 1_555
Co18 Pr0 3.151282 1_556
Co18 Yb0 3.179654 1_555
Co19 Co29 2.388889 1_555
Co19 Co26 2.388889 1_555
Co19 Co9 2.519867 1_455
Co19 Co3 2.519867 1_545
Co19 Co30 2.560973 1_555
Co19 Pr2 3.017828 1_555
Co19 Yb0 3.080223 1_555
Co19 Pr0 3.220769 1_555
Co20 Co24 2.387874 1_565
Co20 Co29 2.390426 1_565
Co20 Co4 2.497291 1_555
Co20 Co30 2.566516 1_565
Co20 Co6 2.600955 1_565
Co20 Pr1 2.997341 1_555
Co20 Yb0 3.107517 1_565
Co20 Yb0 3.207162 1_555
Co21 Co28 2.402058 1_564
Co21 Co25 2.404575 1_455
Co21 Co5 2.500123 1_555
Co21 Co31 2.577431 1_565
Co21 Co7 2.610593 1_565
Co21 Co3 2.626147 1_555
Co21 Pr2 3.013570 1_555
Co21 Pr0 3.124877 1_565
Co21 Pr0 3.190148 1_555
Co22 Co24 2.387874 1_655
Co22 Co26 2.390426 1_655
Co22 Co6 2.497291 1_555
Co22 Co30 2.566516 1_655
Co22 Co8 2.588419 1_655
Co22 Co4 2.600955 1_655
Co22 Pr1 2.997341 1_555
Co22 Yb0 3.107517 1_655
Co22 Yb0 3.207162 1_555
Co23 Co27 2.402058 1_654
Co23 Co25 2.404575 1_545
Co23 Co7 2.500123 1_555
Co23 Co31 2.577431 1_655
Co23 Co5 2.610593 1_655
Co23 Co9 2.626147 1_555
Co23 Pr2 3.013570 1_555
Co23 Pr0 3.124877 1_655
Co23 Pr0 3.190148 1_555
Co24 Co8 2.370080 1_555
Co24 Co4 2.388303 1_545
Co24 Co6 2.388303 1_455
Co24 Co30 2.545151 1_555
Co24 Co32 2.570773 1_445
Co24 Yb0 3.219860 1_555
Co24 Pr1 3.299338 1_445
Co25 Co9 2.381183 1_565
Co25 Co3 2.381183 1_655
Co25 Co5 2.383521 1_655
Co25 Co7 2.383521 1_565
Co25 Co33 2.577711 1_555
Co25 Co31 2.580055 1_665
Co25 Pr2 3.252752 1_555
Co25 Pr0 3.263460 1_665
Co26 Co4 2.370633 1_555
Co26 Co9 2.383748 1_455
Co26 Co30 2.554308 1_555
Co26 Co33 2.573286 1_455
Co26 Yb0 3.223156 1_555
Co26 Pr2 3.276810 1_455
Co27 Co5 2.378562 1_556
Co27 Co8 2.388152 1_555
Co27 Co31 2.567078 1_556
Co27 Co32 2.567700 1_455
Co27 Pr0 3.257798 1_556
Co27 Pr1 3.275542 1_455
Co28 Co7 2.378562 1_556
Co28 Co31 2.567078 1_556
Co28 Co32 2.567700 1_545
Co28 Pr0 3.257798 1_556
Co28 Pr1 3.275542 1_545
Co29 Co6 2.370633 1_555
Co29 Co3 2.383748 1_545
Co29 Co30 2.554308 1_555
Co29 Co33 2.573286 1_545
Co29 Yb0 3.223156 1_555
Co29 Pr2 3.276810 1_545
Co30 Co33 2.344781 1_445
Co30 Co9 2.647985 1_455
Co30 Co6 2.675802 1_455
Co30 Co4 2.675802 1_545
Co30 Yb0 2.996301 1_555
Co31 Co32 2.343553 1_444
Co31 Co5 2.654132 1_545
Co31 Co7 2.654132 1_455
Co31 Co8 2.676645 1_554
Co31 Pr0 3.044594 1_555
Co32 Co5 2.660320 1_656
Co32 Co7 2.660320 1_566
Co32 Co8 2.680503 1_665
Co32 Pr1 3.061790 1_555
Co33 Co9 2.639737 1_565
Co33 Co4 2.655250 1_655
Co33 Co6 2.655250 1_565
Co33 Pr2 3.056898 1_555
