# generated using pymatgen
data_V6O13
_symmetry_space_group_name_H-M   'P 1'
_cell_length_a   6.36678087
_cell_length_b   6.36678087
_cell_length_c   10.29310381
_cell_angle_alpha   79.55377623
_cell_angle_beta   79.55377623
_cell_angle_gamma   34.17971382
_symmetry_Int_Tables_number   1
_chemical_formula_structural   V6O13
_chemical_formula_sum   'V6 O13'
_cell_volume   230.14588081
_cell_formula_units_Z   1
loop_
 _symmetry_equiv_pos_site_id
 _symmetry_equiv_pos_as_xyz
  1  'x, y, z'
loop_
 _atom_site_type_symbol
 _atom_site_label
 _atom_site_symmetry_multiplicity
 _atom_site_fract_x
 _atom_site_fract_y
 _atom_site_fract_z
 _atom_site_occupancy
  V  V0  1  0.65908900  0.65908900  0.63224100  1
  V  V1  1  0.83340600  0.83340600  0.35999500  1
  V  V2  1  0.95976600  0.95976600  0.63087600  1
  V  V3  1  0.53266600  0.53266600  0.36123400  1
  V  V4  1  0.89096300  0.89096300  0.99474100  1
  V  V5  1  0.59306500  0.59306500  0.99818600  1
  O  O0  1  0.80632700  0.80632700  0.58652800  1
  O  O1  1  0.86155500  0.86155500  0.19348200  1
  O  O2  1  0.06837300  0.06837300  0.99583200  1
  O  O3  1  0.92415600  0.92415600  0.79830700  1
  O  O4  1  0.68638200  0.68638200  0.40423500  1
  O  O5  1  0.12599300  0.12599300  0.61153400  1
  O  O6  1  0.63381600  0.63381600  0.79803900  1
  O  O7  1  0.57033200  0.57033200  0.19399100  1
  O  O8  1  0.36592200  0.36592200  0.38062400  1
  O  O9  1  0.49966900  0.49966900  0.58557500  1
  O  O10  1  0.99264000  0.99264000  0.40665200  1
  O  O11  1  0.75085600  0.75085600  0.99659800  1
  O  O12  1  0.42857600  0.42857600  0.99608100  1
loop_
_geom_bond_atom_site_label_1
_geom_bond_atom_site_label_2
_geom_bond_distance
_geom_bond_site_symmetry_2
O0 V0 1.764383 1_555
O0 V2 2.004881 1_555
O0 V1 2.292167 1_555
O1 V1 1.682909 1_555
O1 V4 2.008747 1_554
O2 V5 1.895880 1_545
O2 V5 1.895880 1_455
O2 V4 2.161471 1_445
O3 V2 1.695445 1_555
O3 V4 1.985312 1_555
O4 V1 1.760806 1_555
O4 V3 2.002606 1_555
O4 V0 2.307049 1_555
O5 V0 1.934155 1_455
O5 V0 1.934155 1_545
O5 V2 1.995035 1_445
O6 V0 1.675670 1_555
O6 V5 2.025465 1_555
O7 V3 1.695335 1_555
O7 V5 1.981666 1_554
O8 V1 1.932430 1_455
O8 V1 1.932430 1_545
O8 V3 2.001252 1_555
O9 V2 1.966743 1_455
O9 V2 1.966743 1_545
O9 V0 2.085491 1_555
O9 V3 2.267533 1_555
O10 V3 1.967275 1_565
O10 V3 1.967275 1_655
O10 V1 2.083248 1_555
O10 V2 2.266372 1_555
O11 V4 1.701764 1_555
O11 V5 1.917490 1_555
O12 V4 1.926877 1_545
O12 V4 1.926877 1_455
O12 V5 2.006270 1_555
