# generated using pymatgen
data_Li9Mn2Co5O16
_symmetry_space_group_name_H-M   'P 1'
_cell_length_a   6.33767930
_cell_length_b   6.34051089
_cell_length_c   7.44423242
_cell_angle_alpha   75.55967763
_cell_angle_beta   65.40090269
_cell_angle_gamma   71.83074051
_symmetry_Int_Tables_number   1
_chemical_formula_structural   Li9Mn2Co5O16
_chemical_formula_sum   'Li9 Mn2 Co5 O16'
_cell_volume   255.94202043
_cell_formula_units_Z   1
loop_
 _symmetry_equiv_pos_site_id
 _symmetry_equiv_pos_as_xyz
  1  'x, y, z'
loop_
 _atom_site_type_symbol
 _atom_site_label
 _atom_site_symmetry_multiplicity
 _atom_site_fract_x
 _atom_site_fract_y
 _atom_site_fract_z
 _atom_site_occupancy
  Li  Li0  1  0.06839488  0.44604604  0.81185277  1
  Li  Li1  1  0.68533207  0.80353498  0.92833752  1
  Li  Li2  1  0.31775253  0.20395194  0.05077514  1
  Li  Li3  1  0.94441277  0.55596476  0.18243613  1
  Li  Li4  1  0.18719864  0.31068866  0.44086526  1
  Li  Li5  1  0.78910455  0.68480908  0.58095065  1
  Li  Li6  1  0.44439597  0.05866146  0.68458188  1
  Li  Li7  1  0.55598276  0.93990496  0.32110152  1
  Li  Li8  1  0.38320926  0.62004693  0.86788368  1
  Mn  Mn0  1  0.00252918  0.99762979  0.99543738  1
  Mn  Mn1  1  0.25344539  0.74557572  0.24849957  1
  Co  Co0  1  0.74708651  0.25230450  0.75062402  1
  Co  Co1  1  0.12645047  0.87348406  0.62679657  1
  Co  Co2  1  0.49952047  0.50026272  0.50295119  1
  Co  Co3  1  0.87420361  0.12484787  0.37589717  1
  Co  Co4  1  0.62481838  0.37753922  0.12307463  1
  O  O0  1  0.08118501  0.14045977  0.72887183  1
  O  O1  1  0.72001768  0.50955998  0.85229849  1
  O  O2  1  0.31999227  0.90709241  0.98826245  1
  O  O3  1  0.95295268  0.26823936  0.10200870  1
  O  O4  1  0.20284404  0.01540924  0.35428270  1
  O  O5  1  0.82562147  0.38940725  0.47889099  1
  O  O6  1  0.45457723  0.77401612  0.58965963  1
  O  O7  1  0.57600484  0.64645304  0.22505129  1
  O  O8  1  0.02777233  0.74359121  0.90245650  1
  O  O9  1  0.67261364  0.10896947  0.02433660  1
  O  O10  1  0.29060127  0.47945861  0.16511387  1
  O  O11  1  0.92379545  0.85415906  0.26974448  1
  O  O12  1  0.17068488  0.60902829  0.52253530  1
  O  O13  1  0.79887887  0.98208640  0.64497917  1
  O  O14  1  0.42783929  0.34407333  0.76426993  1
  O  O15  1  0.55078164  0.23274078  0.39517300  1
loop_
_geom_bond_atom_site_label_1
_geom_bond_atom_site_label_2
_geom_bond_distance
_geom_bond_site_symmetry_2
Li0 O1 2.019945 1_455
Li0 O14 2.063215 1_555
Li0 O8 2.065809 1_555
Li0 O12 2.066917 1_555
Li0 O3 2.110939 1_456
Li0 O0 2.144681 1_555
Li1 O1 2.002534 1_555
Li1 O8 2.016348 1_655
Li1 O13 2.074207 1_555
Li1 O2 2.080689 1_555
Li1 O7 2.099982 1_556
Li1 O9 2.193766 1_566
Li2 O14 2.006903 1_554
Li2 O2 2.043107 1_544
Li2 O10 2.058578 1_555
Li2 O9 2.074928 1_555
Li2 O3 2.100615 1_455
Li2 O4 2.211395 1_555
Li3 O3 2.036115 1_555
Li3 O10 2.048809 1_655
Li3 O8 2.068094 1_654
Li3 O11 2.098182 1_555
Li3 O5 2.121938 1_555
Li3 O7 2.126035 1_555
Li4 O10 2.002547 1_555
Li4 O0 2.076521 1_555
Li4 O12 2.087096 1_555
Li4 O4 2.088862 1_555
Li4 O15 2.095403 1_555
Li4 O5 2.097048 1_455
Li5 O1 1.988557 1_555
Li5 O6 1.993753 1_555
Li5 O13 2.080701 1_555
Li5 O5 2.105211 1_555
Li5 O12 2.184566 1_655
Li5 O11 2.221097 1_555
Li6 O14 2.000734 1_555
Li6 O13 2.051724 1_545
Li6 O6 2.070323 1_545
Li6 O15 2.093613 1_555
Li6 O0 2.094130 1_555
Li6 O2 2.135630 1_545
Li7 O6 1.954312 1_555
Li7 O15 2.051802 1_565
Li7 O4 2.056630 1_565
Li7 O7 2.104771 1_555
Li7 O11 2.108792 1_555
Li7 O9 2.128268 1_565
Li8 O14 1.979807 1_555
Li8 O6 1.983527 1_555
Li8 O1 1.990587 1_555
Li8 O8 2.066801 1_555
Li8 O10 2.072754 1_556
Li8 O2 2.082255 1_555
Mn0 O8 1.844536 1_555
Mn0 O0 1.888942 1_565
Mn0 O2 1.893666 1_555
Mn0 O9 1.922813 1_466
Mn0 O11 1.937687 1_456
Mn0 O3 1.951218 1_466
Mn1 O10 1.854913 1_555
Mn1 O7 1.887037 1_555
Mn1 O2 1.891908 1_554
Mn1 O12 1.922956 1_555
Mn1 O11 1.935462 1_455
Mn1 O4 1.941545 1_565
Co0 O14 1.888579 1_555
Co0 O1 1.896319 1_555
Co0 O5 1.910476 1_555
Co0 O9 1.934876 1_556
Co0 O13 1.941155 1_545
Co0 O0 1.961609 1_655
Co1 O6 1.894506 1_555
Co1 O12 1.915037 1_555
Co1 O0 1.918941 1_565
Co1 O8 1.921018 1_555
Co1 O4 1.924362 1_565
Co1 O13 1.929622 1_455
Co2 O14 1.885573 1_555
Co2 O6 1.899457 1_555
Co2 O5 1.909483 1_555
Co2 O12 1.934165 1_555
Co2 O15 1.935078 1_555
Co2 O7 1.965416 1_555
Co3 O5 1.902434 1_555
Co3 O15 1.902531 1_555
Co3 O13 1.904932 1_545
Co3 O4 1.928951 1_655
Co3 O3 1.934954 1_555
Co3 O11 1.949919 1_545
Co4 O1 1.894409 1_554
Co4 O9 1.910233 1_555
Co4 O10 1.922885 1_555
Co4 O7 1.923608 1_555
Co4 O3 1.927052 1_555
Co4 O15 1.927661 1_555
