# generated using pymatgen
data_MgTe4Pb6(BrO3)4
_symmetry_space_group_name_H-M   'P 1'
_cell_length_a   5.79671196
_cell_length_b   9.59753769
_cell_length_c   12.13973639
_cell_angle_alpha   105.08155509
_cell_angle_beta   89.24555074
_cell_angle_gamma   108.53847579
_symmetry_Int_Tables_number   1
_chemical_formula_structural   MgTe4Pb6(BrO3)4
_chemical_formula_sum   'Mg1 Te4 Pb6 Br4 O12'
_cell_volume   616.49568674
_cell_formula_units_Z   1
loop_
 _symmetry_equiv_pos_site_id
 _symmetry_equiv_pos_as_xyz
  1  'x, y, z'
loop_
 _atom_site_type_symbol
 _atom_site_label
 _atom_site_symmetry_multiplicity
 _atom_site_fract_x
 _atom_site_fract_y
 _atom_site_fract_z
 _atom_site_occupancy
  Mg  Mg0  1  0.28677026  0.69127312  0.05490141  1
  Te  Te0  1  0.60187115  0.19471477  0.09092543  1
  Te  Te1  1  0.43076922  0.86198383  0.89590205  1
  Te  Te2  1  0.86120046  0.70703280  0.40978463  1
  Te  Te3  1  0.12044163  0.27404795  0.59708389  1
  Pb  Pb0  1  0.24655637  0.46330902  0.23363295  1
  Pb  Pb1  1  0.74917256  0.52551699  0.78390983  1
  Pb  Pb2  1  0.01503857  0.03567305  0.19357893  1
  Pb  Pb3  1  0.97180094  0.93211976  0.74812435  1
  Pb  Pb4  1  0.68040986  0.31295863  0.40489591  1
  Pb  Pb5  1  0.33474021  0.65393214  0.60183891  1
  Br  Br0  1  0.82694907  0.64970588  0.08701873  1
  Br  Br1  1  0.20865732  0.41547733  0.93181636  1
  Br  Br2  1  0.42518174  0.84752531  0.26366701  1
  Br  Br3  1  0.49836840  0.04096483  0.62290858  1
  O  O0  1  0.86373906  0.25946143  0.22288748  1
  O  O1  1  0.40670514  0.25635624  0.22275778  1
  O  O2  1  0.11654631  0.74893291  0.78514166  1
  O  O3  1  0.62182538  0.74165521  0.78179021  1
  O  O4  1  0.73872666  0.02562896  0.04562115  1
  O  O5  1  0.28601424  0.02626359  0.04064727  1
  O  O6  1  0.87044392  0.75883058  0.57061915  1
  O  O7  1  0.07034623  0.22101493  0.43759912  1
  O  O8  1  0.01823573  0.55641446  0.39462843  1
  O  O9  1  0.54669997  0.55846647  0.39191901  1
  O  O10  1  0.97099807  0.43123202  0.62364214  1
  O  O11  1  0.44012451  0.42379378  0.61632865  1
loop_
_geom_bond_atom_site_label_1
_geom_bond_atom_site_label_2
_geom_bond_distance
_geom_bond_site_symmetry_2
Mg0 Te1 2.800084 1_554
Mg0 Pb0 3.417865 1_555
Br0 Mg0 2.606378 1_655
Br0 Mg0 3.320152 1_555
Br1 Mg0 2.577130 1_556
Br2 Mg0 2.574156 1_555
Br3 Pb3 3.375709 1_445
Br3 Pb5 3.469095 1_545
O0 Te0 2.050105 1_555
O0 Pb0 2.425513 1_655
O0 Pb4 2.443312 1_555
O0 Pb2 2.510148 1_655
O1 Te0 2.019010 1_555
O1 Pb0 2.420163 1_555
O1 Pb2 2.517751 1_555
O1 Pb4 2.573056 1_555
O2 Te1 2.086030 1_555
O2 Pb3 2.314328 1_455
O2 Pb1 2.492699 1_455
O2 Pb5 2.643135 1_555
O3 Te1 2.102295 1_555
O3 Pb3 2.373401 1_555
O3 Pb1 2.418825 1_555
O3 Pb5 2.549163 1_555
O4 Te0 1.976870 1_555
O4 Pb2 2.385044 1_655
O4 Te1 2.402928 1_544
O5 Te0 1.993056 1_555
O5 Te1 2.374526 1_544
O5 Pb2 2.418347 1_555
O6 Te2 1.882267 1_555
O6 Pb3 2.302542 1_555
O7 Te3 1.870800 1_555
O7 Pb4 2.742218 1_455
O8 Te2 1.909467 1_455
O8 Pb0 2.478930 1_555
O8 Pb4 2.558422 1_455
O9 Te2 1.897434 1_555
O9 Pb0 2.391216 1_555
O9 Pb4 2.745044 1_555
O10 Te3 1.923733 1_655
O10 Pb1 2.452652 1_555
O10 Pb5 2.549160 1_655
O11 Te3 1.922826 1_555
O11 Pb1 2.500297 1_555
O11 Pb5 2.519078 1_555
