# generated using pymatgen
data_BaB2S3O13
_symmetry_space_group_name_H-M   'P 1'
_cell_length_a   4.49816200
_cell_length_b   12.65766500
_cell_length_c   17.55378500
_cell_angle_alpha   90.00000000
_cell_angle_beta   90.00000000
_cell_angle_gamma   90.00000000
_symmetry_Int_Tables_number   1
_chemical_formula_structural   BaB2S3O13
_chemical_formula_sum   'Ba4 B8 S12 O52'
_cell_volume   999.44629996
_cell_formula_units_Z   4
loop_
 _symmetry_equiv_pos_site_id
 _symmetry_equiv_pos_as_xyz
  1  'x, y, z'
loop_
 _atom_site_type_symbol
 _atom_site_label
 _atom_site_symmetry_multiplicity
 _atom_site_fract_x
 _atom_site_fract_y
 _atom_site_fract_z
 _atom_site_occupancy
  Ba  Ba0  1  0.97244200  0.25000000  0.78149600  1
  Ba  Ba1  1  0.52755800  0.25000000  0.28149600  1
  Ba  Ba2  1  0.02755800  0.75000000  0.21850400  1
  Ba  Ba3  1  0.47244200  0.75000000  0.71850400  1
  B  B0  1  0.56267100  0.15056900  0.07942700  1
  B  B1  1  0.93732900  0.34943100  0.57942700  1
  B  B2  1  0.43732900  0.65056900  0.92057300  1
  B  B3  1  0.06267100  0.84943100  0.42057300  1
  B  B4  1  0.43732900  0.84943100  0.92057300  1
  B  B5  1  0.06267100  0.65056900  0.42057300  1
  B  B6  1  0.56267100  0.34943100  0.07942700  1
  B  B7  1  0.93732900  0.15056900  0.57942700  1
  S  S0  1  0.44294400  0.06366600  0.64726200  1
  S  S1  1  0.05705600  0.43633400  0.14726200  1
  S  S2  1  0.55705600  0.56366600  0.35273800  1
  S  S3  1  0.94294400  0.93633400  0.85273800  1
  S  S4  1  0.55705600  0.93633400  0.35273800  1
  S  S5  1  0.94294400  0.56366600  0.85273800  1
  S  S6  1  0.44294400  0.43633400  0.64726200  1
  S  S7  1  0.05705600  0.06366600  0.14726200  1
  S  S8  1  0.36671600  0.25000000  0.95381500  1
  S  S9  1  0.13328400  0.25000000  0.45381500  1
  S  S10  1  0.63328400  0.75000000  0.04618500  1
  S  S11  1  0.86671600  0.75000000  0.54618500  1
  O  O0  1  0.96381600  0.25000000  0.61631600  1
  O  O1  1  0.53618400  0.25000000  0.11631600  1
  O  O2  1  0.03618400  0.75000000  0.38368400  1
  O  O3  1  0.46381600  0.75000000  0.88368400  1
  O  O4  1  0.48597300  0.15289700  0.99694200  1
  O  O5  1  0.01402700  0.34710300  0.49694200  1
  O  O6  1  0.51402700  0.65289700  0.00305800  1
  O  O7  1  0.98597300  0.84710300  0.50305800  1
  O  O8  1  0.51402700  0.84710300  0.00305800  1
  O  O9  1  0.98597300  0.65289700  0.50305800  1
  O  O10  1  0.48597300  0.34710300  0.99694200  1
  O  O11  1  0.01402700  0.15289700  0.49694200  1
  O  O12  1  0.47446900  0.13476300  0.71243900  1
  O  O13  1  0.02553100  0.36523700  0.21243900  1
  O  O14  1  0.52553100  0.63476300  0.28756100  1
  O  O15  1  0.97446900  0.86523700  0.78756100  1
  O  O16  1  0.52553100  0.86523700  0.28756100  1
  O  O17  1  0.97446900  0.63476300  0.78756100  1
  O  O18  1  0.47446900  0.36523700  0.71243900  1
  O  O19  1  0.02553100  0.13476300  0.21243900  1
  O  O20  1  0.49462300  0.25000000  0.87742600  1
  O  O21  1  0.00537700  0.25000000  0.37742600  1
  O  O22  1  0.50537700  0.75000000  0.12257400  1
  O  O23  1  0.99462300  0.75000000  0.62257400  1
  O  O24  1  0.04703600  0.25000000  0.95189800  1
  O  O25  1  0.45296400  0.25000000  0.45189800  1
  O  O26  1  0.95296400  0.75000000  0.04810200  1
  O  O27  1  0.54703600  0.75000000  0.54810200  1
  O  O28  1  0.51052500  0.95440700  0.66246000  1
  O  O29  1  0.98947500  0.54559300  0.16246000  1
  O  O30  1  0.48947500  0.45440700  0.33754000  1
  O  O31  1  0.01052500  0.04559300  0.83754000  1
  O  O32  1  0.48947500  0.04559300  0.33754000  1
  O  O33  1  0.01052500  0.45440700  0.83754000  1
  O  O34  1  0.51052500  0.54559300  0.66246000  1
  O  O35  1  0.98947500  0.95440700  0.16246000  1
  O  O36  1  0.12055300  0.06651000  0.61811100  1
  O  O37  1  0.37944700  0.43349000  0.11811100  1
  O  O38  1  0.87944700  0.56651000  0.38188900  1
  O  O39  1  0.62055300  0.93349000  0.88188900  1
  O  O40  1  0.87944700  0.93349000  0.38188900  1
  O  O41  1  0.62055300  0.56651000  0.88188900  1
  O  O42  1  0.12055300  0.43349000  0.61811100  1
  O  O43  1  0.37944700  0.06651000  0.11811100  1
  O  O44  1  0.62434000  0.10510800  0.57940300  1
  O  O45  1  0.87566000  0.39489200  0.07940300  1
  O  O46  1  0.37566000  0.60510800  0.42059700  1
  O  O47  1  0.12434000  0.89489200  0.92059700  1
  O  O48  1  0.37566000  0.89489200  0.42059700  1
  O  O49  1  0.12434000  0.60510800  0.92059700  1
  O  O50  1  0.62434000  0.39489200  0.57940300  1
  O  O51  1  0.87566000  0.10510800  0.07940300  1
loop_
_geom_bond_atom_site_label_1
_geom_bond_atom_site_label_2
_geom_bond_distance
_geom_bond_site_symmetry_2
Ba0 O20 2.730413 1_555
Ba0 O33 2.773333 1_655
Ba0 O31 2.773333 1_655
Ba0 O20 2.890113 1_655
Ba0 O0 2.899794 1_555
Ba0 O12 2.935046 1_555
Ba0 O18 2.935046 1_555
Ba0 O12 2.948987 1_655
Ba0 O18 2.948987 1_655
Ba0 O24 3.009960 1_655
Ba1 O21 2.730413 1_655
Ba1 O30 2.773333 1_555
Ba1 O32 2.773333 1_555
Ba1 O21 2.890113 1_555
Ba1 O1 2.899794 1_555
Ba1 O13 2.935046 1_655
Ba1 O19 2.935046 1_655
Ba1 O13 2.948987 1_555
Ba1 O19 2.948987 1_555
Ba1 O25 3.009960 1_555
Ba2 O22 2.730413 1_555
Ba2 O29 2.773333 1_455
Ba2 O35 2.773333 1_455
Ba2 O22 2.890113 1_455
Ba2 O2 2.899794 1_555
Ba2 O16 2.935046 1_555
Ba2 O14 2.935046 1_555
Ba2 O14 2.948987 1_455
Ba2 O16 2.948987 1_455
Ba2 O26 3.009960 1_455
Ba3 O23 2.730413 1_455
Ba3 O34 2.773333 1_555
Ba3 O28 2.773333 1_555
Ba3 O23 2.890113 1_555
Ba3 O3 2.899794 1_555
Ba3 O17 2.935046 1_455
Ba3 O15 2.935046 1_455
Ba3 O17 2.948987 1_555
Ba3 O15 2.948987 1_555
Ba3 O27 3.009960 1_555
B0 O1 1.420383 1_555
B0 O4 1.488750 1_554
B0 O43 1.507463 1_555
B0 O51 1.520932 1_555
B1 O0 1.420383 1_555
B1 O5 1.488750 1_655
B1 O42 1.507463 1_655
B1 O50 1.520932 1_555
B2 O3 1.420383 1_555
B2 O6 1.488750 1_556
B2 O41 1.507463 1_555
B2 O49 1.520932 1_555
B3 O2 1.420383 1_555
B3 O7 1.488750 1_455
B3 O40 1.507463 1_455
B3 O48 1.520932 1_555
B4 O3 1.420383 1_555
B4 O8 1.488750 1_556
B4 O39 1.507463 1_555
B4 O47 1.520932 1_555
B5 O2 1.420383 1_555
B5 O9 1.488750 1_455
B5 O38 1.507463 1_455
B5 O46 1.520932 1_555
B6 O1 1.420383 1_555
B6 O10 1.488750 1_554
B6 O37 1.507463 1_555
B6 O45 1.520932 1_555
B7 O0 1.420383 1_555
B7 O11 1.488750 1_655
B7 O36 1.507463 1_655
B7 O44 1.520932 1_555
O4 S8 1.539986 1_555
O5 S9 1.539986 1_555
O6 S10 1.539986 1_555
O7 S11 1.539986 1_555
O8 S10 1.539986 1_555
O9 S11 1.539986 1_555
O10 S8 1.539986 1_555
O11 S9 1.539986 1_555
O12 S0 1.462512 1_555
O13 S1 1.462512 1_555
O14 S2 1.462512 1_555
O15 S3 1.462512 1_555
O16 S4 1.462512 1_555
O17 S5 1.462512 1_555
O18 S6 1.462512 1_555
O19 S7 1.462512 1_555
O20 S8 1.459137 1_555
O21 S9 1.459137 1_555
O22 S10 1.459137 1_555
O23 S11 1.459137 1_555
O24 S8 1.438366 1_555
O25 S9 1.438366 1_555
O26 S10 1.438366 1_555
O27 S11 1.438366 1_555
O28 S0 1.440893 1_565
O29 S1 1.440893 1_655
O30 S2 1.440893 1_555
O31 S3 1.440893 1_445
O32 S4 1.440893 1_545
O33 S5 1.440893 1_455
O34 S6 1.440893 1_555
O35 S7 1.440893 1_665
O36 S0 1.538222 1_555
O37 S1 1.538222 1_555
O38 S2 1.538222 1_555
O39 S3 1.538222 1_555
O40 S4 1.538222 1_555
O41 S5 1.538222 1_555
O42 S6 1.538222 1_555
O43 S7 1.538222 1_555
O44 S0 1.536180 1_555
O45 S1 1.536180 1_655
O46 S2 1.536180 1_555
O47 S3 1.536180 1_455
O48 S4 1.536180 1_555
O49 S5 1.536180 1_455
O50 S6 1.536180 1_555
O51 S7 1.536180 1_655
