# generated using pymatgen
data_LiCe10(Pb3O)2
_symmetry_space_group_name_H-M   'P 1'
_cell_length_a   8.58776965
_cell_length_b   8.59192184
_cell_length_c   9.47621634
_cell_angle_alpha   117.56883362
_cell_angle_beta   117.57574275
_cell_angle_gamma   88.98675499
_symmetry_Int_Tables_number   1
_chemical_formula_structural   LiCe10(Pb3O)2
_chemical_formula_sum   'Li1 Ce10 Pb6 O2'
_cell_volume   531.93613222
_cell_formula_units_Z   1
loop_
 _symmetry_equiv_pos_site_id
 _symmetry_equiv_pos_as_xyz
  1  'x, y, z'
loop_
 _atom_site_type_symbol
 _atom_site_label
 _atom_site_symmetry_multiplicity
 _atom_site_fract_x
 _atom_site_fract_y
 _atom_site_fract_z
 _atom_site_occupancy
  Li  Li0  1  0.68414100  0.18415300  0.65602500  1
  Ce  Ce0  1  0.69794200  0.52610000  0.68301900  1
  Ce  Ce1  1  0.80499400  0.30543200  0.31016100  1
  Ce  Ce2  1  0.48584000  0.98623000  0.70428700  1
  Ce  Ce3  1  0.48629400  0.98610000  0.27609800  1
  Ce  Ce4  1  0.31158200  0.49750000  0.30938300  1
  Ce  Ce5  1  0.99633000  0.00107800  0.99373100  1
  Ce  Ce6  1  0.18274400  0.68257400  0.69060100  1
  Ce  Ce7  1  0.02610000  0.19843000  0.68311800  1
  Ce  Ce8  1  0.99733600  0.81079200  0.30894900  1
  Ce  Ce9  1  0.50093900  0.49627800  0.99364700  1
  Pb  Pb0  1  0.86625800  0.36597700  0.01742600  1
  Pb  Pb1  1  0.13885100  0.63851900  0.99732200  1
  Pb  Pb2  1  0.64799000  0.85193900  0.00085000  1
  Pb  Pb3  1  0.26546000  0.24672900  0.49846000  1
  Pb  Pb4  1  0.35175300  0.14818800  0.00104100  1
  Pb  Pb5  1  0.74682900  0.76545300  0.49863800  1
  O  O0  1  0.73988900  0.24003200  0.50914900  1
  O  O1  1  0.24060200  0.74037200  0.49666700  1
loop_
_geom_bond_atom_site_label_1
_geom_bond_atom_site_label_2
_geom_bond_distance
_geom_bond_site_symmetry_2
Li0 O0 1.908004 1_555
Li0 Pb0 2.605842 1_556
Li0 Pb3 3.339253 1_555
Li0 Pb5 3.341305 1_545
Ce0 O0 2.378089 1_555
Ce0 Pb2 3.231373 1_556
Ce0 Pb1 3.341579 1_655
Ce0 Pb5 3.390269 1_555
Ce0 Pb3 3.609732 1_555
Ce1 O0 2.480325 1_555
Ce1 Pb4 3.394522 1_555
Ce1 Pb2 3.398028 1_545
Ce1 Pb5 3.644631 1_555
Ce1 Pb3 3.647624 1_655
Ce2 O1 2.289681 1_555
Ce2 Pb4 3.238752 1_566
Ce2 Pb2 3.238761 1_556
Ce2 Pb3 3.587336 1_565
Ce2 Pb5 3.590442 1_555
Ce3 O0 2.373895 1_565
Ce3 Pb1 3.242681 1_554
Ce3 Pb2 3.251761 1_555
Ce3 Pb4 3.253167 1_565
Ce3 Pb5 3.497044 1_555
Ce3 Pb3 3.497593 1_565
Ce4 O1 2.324728 1_555
Ce4 Pb4 3.231651 1_555
Ce4 Pb1 3.406592 1_554
Ce4 Pb3 3.502873 1_555
Ce4 Pb5 3.572674 1_555
Ce5 Pb0 3.253350 1_556
Ce5 Pb4 3.283064 1_656
Ce5 Pb2 3.316292 1_546
Ce5 Pb1 3.335808 1_645
Ce5 Pb5 3.571470 1_545
Ce5 Pb3 3.642329 1_656
Ce6 O1 2.360030 1_555
Ce6 Pb1 3.281948 1_555
Ce6 Pb2 3.477742 1_556
Ce6 Pb4 3.481911 1_566
Ce6 Pb5 3.553891 1_455
Ce6 Pb3 3.554585 1_555
Ce7 O0 2.376911 1_455
Ce7 Pb4 3.231776 1_556
Ce7 Pb1 3.337600 1_555
Ce7 Pb3 3.390002 1_555
Ce7 Pb5 3.614040 1_445
Ce8 O1 2.325014 1_655
Ce8 Pb2 3.233893 1_555
Ce8 Pb1 3.406092 1_654
Ce8 Pb5 3.502713 1_555
Ce8 Pb3 3.578609 1_665
Ce9 Pb0 3.255981 1_556
Ce9 Pb2 3.286490 1_556
Ce9 Pb4 3.317163 1_556
Ce9 Pb1 3.330229 1_555
Ce9 Pb3 3.572248 1_555
Ce9 Pb5 3.644260 1_556
