# generated using pymatgen
data_AsH9C2S(NO)4
_symmetry_space_group_name_H-M   'P 1'
_cell_length_a   4.82476400
_cell_length_b   8.44563599
_cell_length_c   11.69117886
_cell_angle_alpha   88.86914127
_cell_angle_beta   86.26408880
_cell_angle_gamma   87.11611611
_symmetry_Int_Tables_number   1
_chemical_formula_structural   AsH9C2S(NO)4
_chemical_formula_sum   'As2 H18 C4 S2 N8 O8'
_cell_volume   474.71536065
_cell_formula_units_Z   2
loop_
 _symmetry_equiv_pos_site_id
 _symmetry_equiv_pos_as_xyz
  1  'x, y, z'
loop_
 _atom_site_type_symbol
 _atom_site_label
 _atom_site_symmetry_multiplicity
 _atom_site_fract_x
 _atom_site_fract_y
 _atom_site_fract_z
 _atom_site_occupancy
  As  As0  1  0.73749100  0.34432400  0.39344600  1
  As  As1  1  0.26250900  0.65567600  0.60655400  1
  H  H0  1  0.67813600  0.40421600  0.58328100  1
  H  H1  1  0.32186400  0.59578400  0.41671900  1
  H  H2  1  0.30244500  0.23615800  0.36403400  1
  H  H3  1  0.69755500  0.76384200  0.63596600  1
  H  H4  1  0.85441500  0.62668400  0.25444500  1
  H  H5  1  0.14558500  0.37331600  0.74555500  1
  H  H6  1  0.10305600  0.42411800  0.19050300  1
  H  H7  1  0.89694400  0.57588200  0.80949700  1
  H  H8  1  0.32232000  0.43482300  0.06562700  1
  H  H9  1  0.67768000  0.56517700  0.93437300  1
  H  H10  1  0.64313500  0.98513800  0.35772300  1
  H  H11  1  0.35686500  0.01486200  0.64227700  1
  H  H12  1  0.67200100  0.77824700  0.37979000  1
  H  H13  1  0.32799900  0.22175300  0.62021000  1
  H  H14  1  0.14895100  0.96320100  0.11967100  1
  H  H15  1  0.85104900  0.03679900  0.88032900  1
  H  H16  1  0.99120900  0.09705100  0.22641400  1
  H  H17  1  0.00879100  0.90294900  0.77358600  1
  C  C0  1  0.16442900  0.65011100  0.12381000  1
  C  C1  1  0.83557100  0.34988900  0.87619000  1
  C  C2  1  0.90736100  0.86115700  0.24285600  1
  C  C3  1  0.09263900  0.13884300  0.75714400  1
  S  S0  1  0.34499300  0.76223100  0.02684900  1
  S  S1  1  0.65500700  0.23776900  0.97315100  1
  N  N0  1  0.97498700  0.70876900  0.20910600  1
  N  N1  1  0.02501300  0.29123100  0.79089400  1
  N  N2  1  0.18539000  0.49217300  0.12365000  1
  N  N3  1  0.81461000  0.50782700  0.87635000  1
  N  N4  1  0.71625000  0.87563900  0.33059900  1
  N  N5  1  0.28375000  0.12436100  0.66940100  1
  N  N6  1  0.01890200  0.98544200  0.19152300  1
  N  N7  1  0.98109800  0.01455800  0.80847700  1
  O  O0  1  0.60310400  0.52244400  0.34896600  1
  O  O1  1  0.39689600  0.47755600  0.65103400  1
  O  O2  1  0.02136300  0.27738200  0.31158100  1
  O  O3  1  0.97863700  0.72261800  0.68841900  1
  O  O4  1  0.83307500  0.34408600  0.53594600  1
  O  O5  1  0.16692500  0.65591400  0.46405400  1
  O  O6  1  0.49004500  0.19621800  0.39504900  1
  O  O7  1  0.50995500  0.80378200  0.60495100  1
loop_
_geom_bond_atom_site_label_1
_geom_bond_atom_site_label_2
_geom_bond_distance
_geom_bond_site_symmetry_2
As0 O0 1.693744 1_555
As0 O2 1.698276 1_655
As0 O4 1.757302 1_555
As0 O6 1.771080 1_555
As1 O1 1.693744 1_555
As1 O3 1.698276 1_455
As1 O5 1.757302 1_555
As1 O7 1.771080 1_555
H0 O4 1.020762 1_555
H0 O1 1.626976 1_555
H1 O5 1.020762 1_555
H1 O0 1.626976 1_555
H2 O6 1.035247 1_555
H2 O2 1.545597 1_555
H3 O7 1.035247 1_555
H3 O3 1.545597 1_555
H4 N0 1.042057 1_555
H5 N1 1.042057 1_555
H6 N2 1.031419 1_555
H7 N3 1.031419 1_555
H8 N2 1.026452 1_555
H9 N3 1.026452 1_555
H10 N4 1.021962 1_555
H11 N5 1.021962 1_555
H12 N4 1.017784 1_555
H13 N5 1.017784 1_555
H14 N6 1.029720 1_555
H15 N7 1.029720 1_555
H16 N6 1.033519 1_645
H17 N7 1.033519 1_465
C0 N2 1.332661 1_555
C0 N0 1.389400 1_455
C0 S0 1.688960 1_555
C1 N3 1.332661 1_555
C1 N1 1.389400 1_655
C1 S1 1.688960 1_555
C2 N6 1.319649 1_655
C2 N4 1.337091 1_555
C2 N0 1.370973 1_555
C3 N7 1.319649 1_455
C3 N5 1.337091 1_555
C3 N1 1.370973 1_555
