# generated using pymatgen
data_Ca2ScReO6
_symmetry_space_group_name_H-M   'P 1'
_cell_length_a   5.64664400
_cell_length_b   5.69479500
_cell_length_c   8.00900600
_cell_angle_alpha   90.00000000
_cell_angle_beta   90.00000000
_cell_angle_gamma   90.00000000
_symmetry_Int_Tables_number   1
_chemical_formula_structural   Ca2ScReO6
_chemical_formula_sum   'Ca4 Sc2 Re2 O12'
_cell_volume   257.54144140
_cell_formula_units_Z   2
loop_
 _symmetry_equiv_pos_site_id
 _symmetry_equiv_pos_as_xyz
  1  'x, y, z'
loop_
 _atom_site_type_symbol
 _atom_site_label
 _atom_site_symmetry_multiplicity
 _atom_site_fract_x
 _atom_site_fract_y
 _atom_site_fract_z
 _atom_site_occupancy
  Ca  Ca0  1  0.00000000  0.46312900  0.25226100  1
  Ca  Ca1  1  0.00000000  0.53687100  0.74773900  1
  Ca  Ca2  1  0.50000000  0.96312900  0.24773900  1
  Ca  Ca3  1  0.50000000  0.03687100  0.75226100  1
  Sc  Sc0  1  0.00000000  0.00000000  0.00000000  1
  Sc  Sc1  1  0.50000000  0.50000000  0.50000000  1
  Re  Re0  1  0.00000000  0.00000000  0.50000000  1
  Re  Re1  1  0.50000000  0.50000000  0.00000000  1
  O  O0  1  0.50000000  0.51315100  0.24388600  1
  O  O1  1  0.50000000  0.48684900  0.75611400  1
  O  O2  1  0.00000000  0.01315100  0.25611400  1
  O  O3  1  0.00000000  0.98684900  0.74388600  1
  O  O4  1  0.24525000  0.24318300  0.49881300  1
  O  O5  1  0.24525000  0.75681700  0.50118700  1
  O  O6  1  0.74525000  0.74318300  0.00118700  1
  O  O7  1  0.74525000  0.25681700  0.99881300  1
  O  O8  1  0.25475000  0.25681700  0.99881300  1
  O  O9  1  0.25475000  0.74318300  0.00118700  1
  O  O10  1  0.75475000  0.75681700  0.50118700  1
  O  O11  1  0.75475000  0.24318300  0.49881300  1
loop_
_geom_bond_atom_site_label_1
_geom_bond_atom_site_label_2
_geom_bond_distance
_geom_bond_site_symmetry_2
Ca0 O2 2.562718 1_555
Ca0 O4 2.717691 1_555
Ca0 O11 2.717691 1_455
Ca0 O8 2.751362 1_554
Ca0 O7 2.751362 1_454
Ca0 O0 2.838449 1_455
Ca0 O0 2.838449 1_555
Ca0 O9 2.942161 1_555
Ca0 O6 2.942161 1_455
Ca0 O10 2.947822 1_455
Ca0 O5 2.947822 1_555
Ca1 O3 2.562718 1_555
Ca1 O10 2.717691 1_455
Ca1 O5 2.717691 1_555
Ca1 O9 2.751362 1_556
Ca1 O6 2.751362 1_456
Ca1 O1 2.838449 1_455
Ca1 O1 2.838449 1_555
Ca1 O8 2.942161 1_555
Ca1 O7 2.942161 1_455
Ca1 O4 2.947822 1_555
Ca1 O11 2.947822 1_455
Ca2 O0 2.562718 1_555
Ca2 O6 2.717691 1_555
Ca2 O9 2.717691 1_555
Ca2 O10 2.751362 1_555
Ca2 O5 2.751362 1_555
Ca2 O2 2.838449 1_565
Ca2 O2 2.838449 1_665
Ca2 O4 2.942161 1_565
Ca2 O11 2.942161 1_565
Ca2 O7 2.947822 1_564
Ca2 O8 2.947822 1_564
Ca3 O1 2.562718 1_555
Ca3 O8 2.717691 1_555
Ca3 O7 2.717691 1_555
Ca3 O4 2.751362 1_555
Ca3 O11 2.751362 1_555
Ca3 O3 2.838449 1_645
Ca3 O3 2.838449 1_545
Ca3 O10 2.942161 1_545
Ca3 O5 2.942161 1_545
Ca3 O9 2.947822 1_546
Ca3 O6 2.947822 1_546
O0 Re1 1.954720 1_555
O0 Sc1 2.052585 1_555
O1 Re1 1.954720 1_556
O1 Sc1 2.052585 1_555
O2 Re0 1.954720 1_555
O2 Sc0 2.052585 1_555
O3 Re0 1.954720 1_565
O3 Sc0 2.052585 1_566
O4 Re0 1.958509 1_555
O4 Sc1 2.051411 1_555
O5 Re0 1.958509 1_565
O5 Sc1 2.051411 1_555
O6 Re1 1.958509 1_555
O6 Sc0 2.051411 1_665
O7 Re1 1.958509 1_556
O7 Sc0 2.051411 1_656
O8 Re1 1.958509 1_556
O8 Sc0 2.051411 1_556
O9 Re1 1.958509 1_555
O9 Sc0 2.051411 1_565
O10 Re0 1.958509 1_665
O10 Sc1 2.051411 1_555
O11 Re0 1.958509 1_655
O11 Sc1 2.051411 1_555
