# generated using pymatgen
data_Tb5Pb4
_symmetry_space_group_name_H-M   'P 1'
_cell_length_a   8.25045400
_cell_length_b   8.33050400
_cell_length_c   15.81590300
_cell_angle_alpha   90.00000000
_cell_angle_beta   90.00000000
_cell_angle_gamma   90.00000000
_symmetry_Int_Tables_number   1
_chemical_formula_structural   Tb5Pb4
_chemical_formula_sum   'Tb20 Pb16'
_cell_volume   1087.03397296
_cell_formula_units_Z   4
loop_
 _symmetry_equiv_pos_site_id
 _symmetry_equiv_pos_as_xyz
  1  'x, y, z'
loop_
 _atom_site_type_symbol
 _atom_site_label
 _atom_site_symmetry_multiplicity
 _atom_site_fract_x
 _atom_site_fract_y
 _atom_site_fract_z
 _atom_site_occupancy
  Tb  Tb0  1  0.37687600  0.84076800  0.88006100  1
  Tb  Tb1  1  0.87687600  0.65923200  0.61993900  1
  Tb  Tb2  1  0.62312400  0.15923200  0.38006100  1
  Tb  Tb3  1  0.12312400  0.34076800  0.11993900  1
  Tb  Tb4  1  0.62312400  0.15923200  0.11993900  1
  Tb  Tb5  1  0.12312400  0.34076800  0.38006100  1
  Tb  Tb6  1  0.37687600  0.84076800  0.61993900  1
  Tb  Tb7  1  0.87687600  0.65923200  0.88006100  1
  Tb  Tb8  1  0.53381400  0.32254100  0.89966200  1
  Tb  Tb9  1  0.03381400  0.17745900  0.60033800  1
  Tb  Tb10  1  0.46618600  0.67745900  0.39966200  1
  Tb  Tb11  1  0.96618600  0.82254100  0.10033800  1
  Tb  Tb12  1  0.46618600  0.67745900  0.10033800  1
  Tb  Tb13  1  0.96618600  0.82254100  0.39966200  1
  Tb  Tb14  1  0.53381400  0.32254100  0.60033800  1
  Tb  Tb15  1  0.03381400  0.17745900  0.89966200  1
  Tb  Tb16  1  0.20826100  0.50368700  0.75000000  1
  Tb  Tb17  1  0.70826100  0.99631300  0.75000000  1
  Tb  Tb18  1  0.79173900  0.49631300  0.25000000  1
  Tb  Tb19  1  0.29173900  0.00368700  0.25000000  1
  Pb  Pb0  1  0.28123900  0.03204500  0.04254900  1
  Pb  Pb1  1  0.78123900  0.46795500  0.45745100  1
  Pb  Pb2  1  0.71876100  0.96795500  0.54254900  1
  Pb  Pb3  1  0.21876100  0.53204500  0.95745100  1
  Pb  Pb4  1  0.71876100  0.96795500  0.95745100  1
  Pb  Pb5  1  0.21876100  0.53204500  0.54254900  1
  Pb  Pb6  1  0.28123900  0.03204500  0.45745100  1
  Pb  Pb7  1  0.78123900  0.46795500  0.04254900  1
  Pb  Pb8  1  0.57192200  0.62719300  0.75000000  1
  Pb  Pb9  1  0.07192200  0.87280700  0.75000000  1
  Pb  Pb10  1  0.42807800  0.37280700  0.25000000  1
  Pb  Pb11  1  0.92807800  0.12719300  0.25000000  1
  Pb  Pb12  1  0.34375800  0.15032600  0.75000000  1
  Pb  Pb13  1  0.84375800  0.34967400  0.75000000  1
  Pb  Pb14  1  0.65624200  0.84967400  0.25000000  1
  Pb  Pb15  1  0.15624200  0.65032600  0.25000000  1
loop_
_geom_bond_atom_site_label_1
_geom_bond_atom_site_label_2
_geom_bond_distance
_geom_bond_site_symmetry_2
Pb0 Tb0 3.125058 1_544
Pb0 Tb3 3.132759 1_555
Pb0 Tb4 3.252253 1_555
Pb0 Tb11 3.261574 1_445
Pb0 Tb15 3.277453 1_554
Pb0 Tb19 3.290659 1_555
Pb0 Tb12 3.448063 1_545
Pb0 Tb8 3.912269 1_554
Pb1 Tb1 3.125058 1_555
Pb1 Tb2 3.132759 1_555
Pb1 Tb5 3.252253 1_655
Pb1 Tb10 3.261574 1_555
Pb1 Tb14 3.277453 1_555
Pb1 Tb18 3.290659 1_555
Pb1 Tb13 3.448063 1_555
Pb1 Tb9 3.912269 1_655
Pb2 Tb2 3.125058 1_565
Pb2 Tb1 3.132759 1_555
Pb2 Tb6 3.252253 1_555
Pb2 Tb9 3.261574 1_665
Pb2 Tb13 3.277453 1_555
Pb2 Tb17 3.290659 1_555
Pb2 Tb14 3.448063 1_565
Pb2 Tb10 3.912269 1_555
Pb3 Tb3 3.125058 1_556
Pb3 Tb0 3.132759 1_555
Pb3 Tb7 3.252253 1_455
Pb3 Tb8 3.261574 1_555
Pb3 Tb12 3.277453 1_556
Pb3 Tb16 3.290659 1_555
Pb3 Tb15 3.448063 1_555
Pb3 Tb11 3.912269 1_456
Pb4 Tb4 3.125058 1_566
Pb4 Tb7 3.132759 1_555
Pb4 Tb0 3.252253 1_555
Pb4 Tb15 3.261574 1_665
Pb4 Tb11 3.277453 1_556
Pb4 Tb17 3.290659 1_555
Pb4 Tb8 3.448063 1_565
Pb4 Tb12 3.912269 1_556
Pb5 Tb5 3.125058 1_555
Pb5 Tb6 3.132759 1_555
Pb5 Tb1 3.252253 1_455
Pb5 Tb14 3.261574 1_555
Pb5 Tb10 3.277453 1_555
Pb5 Tb16 3.290659 1_555
Pb5 Tb9 3.448063 1_555
Pb5 Tb13 3.912269 1_455
Pb6 Tb6 3.125058 1_545
Pb6 Tb5 3.132759 1_555
Pb6 Tb2 3.252253 1_555
Pb6 Tb13 3.261574 1_445
Pb6 Tb9 3.277453 1_555
Pb6 Tb19 3.290659 1_555
Pb6 Tb10 3.448063 1_545
Pb6 Tb14 3.912269 1_555
Pb7 Tb7 3.125058 1_554
Pb7 Tb4 3.132759 1_555
Pb7 Tb3 3.252253 1_655
Pb7 Tb12 3.261574 1_555
Pb7 Tb8 3.277453 1_554
Pb7 Tb18 3.290659 1_555
Pb7 Tb11 3.448063 1_555
Pb7 Tb15 3.912269 1_654
Pb8 Tb0 3.160138 1_555
Pb8 Tb6 3.160138 1_555
Pb8 Tb16 3.171873 1_555
Pb8 Tb7 3.260816 1_555
Pb8 Tb1 3.260816 1_555
Pb8 Tb17 3.274242 1_555
Pb8 Tb8 3.484636 1_555
Pb8 Tb14 3.484636 1_555
Pb9 Tb7 3.160138 1_455
Pb9 Tb1 3.160138 1_455
Pb9 Tb17 3.171873 1_455
Pb9 Tb0 3.260816 1_555
Pb9 Tb6 3.260816 1_555
Pb9 Tb16 3.274242 1_555
Pb9 Tb15 3.484636 1_565
Pb9 Tb9 3.484636 1_565
Pb10 Tb2 3.160138 1_555
Pb10 Tb4 3.160138 1_555
Pb10 Tb18 3.171873 1_555
Pb10 Tb5 3.260816 1_555
Pb10 Tb3 3.260816 1_555
Pb10 Tb19 3.274242 1_555
Pb10 Tb10 3.484636 1_555
Pb10 Tb12 3.484636 1_555
Pb11 Tb5 3.160138 1_655
Pb11 Tb3 3.160138 1_655
Pb11 Tb19 3.171873 1_655
Pb11 Tb2 3.260816 1_555
Pb11 Tb4 3.260816 1_555
Pb11 Tb18 3.274242 1_555
Pb11 Tb13 3.484636 1_545
Pb11 Tb11 3.484636 1_545
Pb12 Tb16 3.148801 1_555
Pb12 Tb8 3.181169 1_555
Pb12 Tb14 3.181169 1_555
Pb12 Tb17 3.269564 1_545
Pb12 Tb0 3.310003 1_545
Pb12 Tb6 3.310003 1_545
Pb12 Tb15 3.491866 1_555
Pb12 Tb9 3.491866 1_555
Pb13 Tb17 3.148801 1_545
Pb13 Tb15 3.181169 1_655
Pb13 Tb9 3.181169 1_655
Pb13 Tb16 3.269564 1_655
Pb13 Tb7 3.310003 1_555
Pb13 Tb1 3.310003 1_555
Pb13 Tb8 3.491866 1_555
Pb13 Tb14 3.491866 1_555
Pb14 Tb18 3.148801 1_555
Pb14 Tb10 3.181169 1_555
Pb14 Tb12 3.181169 1_555
Pb14 Tb19 3.269564 1_565
Pb14 Tb2 3.310003 1_565
Pb14 Tb4 3.310003 1_565
Pb14 Tb13 3.491866 1_555
Pb14 Tb11 3.491866 1_555
Pb15 Tb19 3.148801 1_565
Pb15 Tb13 3.181169 1_455
Pb15 Tb11 3.181169 1_455
Pb15 Tb18 3.269564 1_455
Pb15 Tb5 3.310003 1_555
Pb15 Tb3 3.310003 1_555
Pb15 Tb10 3.491866 1_555
Pb15 Tb12 3.491866 1_555
