# generated using pymatgen
data_Th(CoAs)2
_symmetry_space_group_name_H-M   'P 1'
_cell_length_a   4.18977750
_cell_length_b   4.18977750
_cell_length_c   9.24333019
_cell_angle_alpha   90.00000000
_cell_angle_beta   90.00000000
_cell_angle_gamma   90.00000000
_symmetry_Int_Tables_number   1
_chemical_formula_structural   Th(CoAs)2
_chemical_formula_sum   'Th2 Co4 As4'
_cell_volume   162.25959495
_cell_formula_units_Z   2
loop_
 _symmetry_equiv_pos_site_id
 _symmetry_equiv_pos_as_xyz
  1  'x, y, z'
loop_
 _atom_site_type_symbol
 _atom_site_label
 _atom_site_symmetry_multiplicity
 _atom_site_fract_x
 _atom_site_fract_y
 _atom_site_fract_z
 _atom_site_occupancy
  Th  Th0  1  0.75000000  0.75000000  0.24453496  1
  Th  Th1  1  0.25000000  0.25000000  0.75546504  1
  Co  Co0  1  0.75000000  0.25000000  -0.00000000  1
  Co  Co1  1  0.25000000  0.75000000  -0.00000000  1
  Co  Co2  1  0.75000000  0.75000000  0.61158096  1
  Co  Co3  1  0.25000000  0.25000000  0.38841904  1
  As  As0  1  0.75000000  0.25000000  0.50000000  1
  As  As1  1  0.25000000  0.75000000  0.50000000  1
  As  As2  1  0.75000000  0.75000000  0.86829746  1
  As  As3  1  0.25000000  0.25000000  0.13170254  1
loop_
_geom_bond_atom_site_label_1
_geom_bond_atom_site_label_2
_geom_bond_distance
_geom_bond_site_symmetry_2
Co0 Th1 3.081817 1_554
Co0 Th1 3.081817 1_654
Co0 Th0 3.081817 1_555
Co0 Th0 3.081817 1_545
Co1 Th1 3.081817 1_554
Co1 Th0 3.081817 1_455
Co1 Th1 3.081817 1_564
Co1 Th0 3.081817 1_555
Co2 Th1 3.247450 1_555
Co2 Th1 3.247450 1_655
Co2 Th1 3.247450 1_665
Co2 Th1 3.247450 1_565
Co3 Th0 3.247450 1_555
Co3 Th0 3.247450 1_545
Co3 Th0 3.247450 1_445
Co3 Th0 3.247450 1_455
As0 Co3 2.335017 1_555
As0 Co2 2.335017 1_545
As0 Co3 2.335017 1_655
As0 Co2 2.335017 1_555
As0 Th1 3.156663 1_555
As0 Th1 3.156663 1_655
As0 Th0 3.156663 1_555
As0 Th0 3.156663 1_545
As1 Co3 2.335017 1_555
As1 Co3 2.335017 1_565
As1 Co2 2.335017 1_455
As1 Co2 2.335017 1_555
As1 Th0 3.156663 1_455
As1 Th1 3.156663 1_555
As1 Th0 3.156663 1_555
As1 Th1 3.156663 1_565
As2 Co2 2.372915 1_555
As2 Co0 2.422922 1_556
As2 Co0 2.422922 1_566
As2 Co1 2.422922 1_556
As2 Co1 2.422922 1_656
As2 Th1 3.140837 1_555
As2 Th1 3.140837 1_655
As2 Th1 3.140837 1_665
As2 Th1 3.140837 1_565
As3 Co3 2.372915 1_555
As3 Co0 2.422922 1_455
As3 Co0 2.422922 1_555
As3 Co1 2.422922 1_545
As3 Co1 2.422922 1_555
As3 Th0 3.140837 1_455
As3 Th0 3.140837 1_555
As3 Th0 3.140837 1_445
As3 Th0 3.140837 1_545
