# generated using pymatgen
data_Ba3WN4
_symmetry_space_group_name_H-M   'P 1'
_cell_length_a   10.49033680
_cell_length_b   10.95657348
_cell_length_c   12.27183546
_cell_angle_alpha   90.00000000
_cell_angle_beta   90.00000000
_cell_angle_gamma   90.00000000
_symmetry_Int_Tables_number   1
_chemical_formula_structural   Ba3WN4
_chemical_formula_sum   'Ba24 W8 N32'
_cell_volume   1410.50201553
_cell_formula_units_Z   8
loop_
 _symmetry_equiv_pos_site_id
 _symmetry_equiv_pos_as_xyz
  1  'x, y, z'
loop_
 _atom_site_type_symbol
 _atom_site_label
 _atom_site_symmetry_multiplicity
 _atom_site_fract_x
 _atom_site_fract_y
 _atom_site_fract_z
 _atom_site_occupancy
  Ba  Ba0  1  0.87598599  0.97002586  0.14348171  1
  Ba  Ba1  1  0.37598599  0.02997414  0.35651829  1
  Ba  Ba2  1  0.62401401  0.47002586  0.85651829  1
  Ba  Ba3  1  0.12401401  0.52997414  0.64348171  1
  Ba  Ba4  1  0.12401401  0.02997414  0.85651829  1
  Ba  Ba5  1  0.62401401  0.97002586  0.64348171  1
  Ba  Ba6  1  0.37598599  0.52997414  0.14348171  1
  Ba  Ba7  1  0.87598599  0.47002586  0.35651829  1
  Ba  Ba8  1  0.70021495  0.27702007  0.11933971  1
  Ba  Ba9  1  0.20021495  0.72297993  0.38066029  1
  Ba  Ba10  1  0.79978505  0.77702007  0.88066029  1
  Ba  Ba11  1  0.29978505  0.22297993  0.61933971  1
  Ba  Ba12  1  0.29978505  0.72297993  0.88066029  1
  Ba  Ba13  1  0.79978505  0.27702007  0.61933971  1
  Ba  Ba14  1  0.20021495  0.22297993  0.11933971  1
  Ba  Ba15  1  0.70021495  0.77702007  0.38066029  1
  Ba  Ba16  1  0.53229901  0.87482336  0.10555570  1
  Ba  Ba17  1  0.03229901  0.62517664  0.10555570  1
  Ba  Ba18  1  0.96770099  0.87482336  0.60555570  1
  Ba  Ba19  1  0.46770099  0.12517664  0.89444430  1
  Ba  Ba20  1  0.46770099  0.62517664  0.60555570  1
  Ba  Ba21  1  0.96770099  0.37482336  0.89444430  1
  Ba  Ba22  1  0.03229901  0.12517664  0.39444430  1
  Ba  Ba23  1  0.53229901  0.37482336  0.39444430  1
  W  W0  1  0.69954873  0.59559599  0.11390538  1
  W  W1  1  0.19954873  0.40440401  0.38609462  1
  W  W2  1  0.80045127  0.09559599  0.88609462  1
  W  W3  1  0.30045127  0.90440401  0.61390538  1
  W  W4  1  0.30045127  0.40440401  0.88609462  1
  W  W5  1  0.80045127  0.59559599  0.61390538  1
  W  W6  1  0.19954873  0.90440401  0.11390538  1
  W  W7  1  0.69954873  0.09559599  0.38609462  1
  N  N0  1  0.79046465  0.22650053  0.32297018  1
  N  N1  1  0.29046465  0.77349947  0.17702982  1
  N  N2  1  0.70953535  0.72650053  0.67702982  1
  N  N3  1  0.20953535  0.27349947  0.82297018  1
  N  N4  1  0.20953535  0.77349947  0.67702982  1
  N  N5  1  0.70953535  0.22650053  0.82297018  1
  N  N6  1  0.29046465  0.27349947  0.32297018  1
  N  N7  1  0.79046465  0.72650053  0.17702982  1
  N  N8  1  0.81197072  0.49352701  0.03694455  1
  N  N9  1  0.31197072  0.50647299  0.46305545  1
  N  N10  1  0.68802928  0.99352701  0.96305545  1
  N  N11  1  0.18802928  0.00647299  0.53694455  1
  N  N12  1  0.18802928  0.50647299  0.96305545  1
  N  N13  1  0.68802928  0.49352701  0.53694455  1
  N  N14  1  0.31197072  0.00647299  0.03694455  1
  N  N15  1  0.62208051  0.99716018  0.28067011  1
  N  N16  1  0.57506819  0.15249396  0.48435807  1
  N  N17  1  0.07506819  0.84750604  0.01564193  1
  N  N18  1  0.92493181  0.65249396  0.51564193  1
  N  N19  1  0.42493181  0.34750604  0.98435807  1
  N  N20  1  0.42493181  0.84750604  0.51564193  1
  N  N21  1  0.92493181  0.15249396  0.98435807  1
  N  N22  1  0.07506819  0.34750604  0.48435807  1
  N  N23  1  0.57506819  0.65249396  0.01564193  1
  N  N24  1  0.62208051  0.49716018  0.21932989  1
  N  N25  1  0.12208051  0.50283982  0.28067011  1
  N  N26  1  0.87791949  0.99716018  0.78067011  1
  N  N27  1  0.37791949  0.00283982  0.71932989  1
  N  N28  1  0.37791949  0.50283982  0.78067011  1
  N  N29  1  0.87791949  0.49716018  0.71932989  1
  N  N30  1  0.12208051  0.00283982  0.21932989  1
  N  N31  1  0.81197072  0.99352701  0.46305545  1
loop_
_geom_bond_atom_site_label_1
_geom_bond_atom_site_label_2
_geom_bond_distance
_geom_bond_site_symmetry_2
Ba0 N30 2.767738 1_665
Ba0 N21 2.841431 1_564
Ba0 N7 2.844939 1_555
Ba0 N17 2.936807 1_655
Ba0 N10 2.975992 1_554
Ba0 N15 3.165005 1_555
Ba1 N15 2.767738 1_545
Ba1 N20 2.841431 1_545
Ba1 N6 2.844939 1_555
Ba1 N16 2.936807 1_555
Ba1 N11 2.975992 1_555
Ba1 N30 3.165005 1_555
Ba2 N28 2.767738 1_555
Ba2 N23 2.841431 1_556
Ba2 N5 2.844939 1_555
Ba2 N19 2.936807 1_555
Ba2 N8 2.975992 1_556
Ba2 N29 3.165005 1_555
Ba3 N29 2.767738 1_455
Ba3 N22 2.841431 1_555
Ba3 N4 2.844939 1_555
Ba3 N18 2.936807 1_455
Ba3 N9 2.975992 1_555
Ba3 N28 3.165005 1_555
Ba4 N26 2.767738 1_445
Ba4 N17 2.841431 1_546
Ba4 N3 2.844939 1_555
Ba4 N21 2.936807 1_455
Ba4 N14 2.975992 1_556
Ba4 N27 3.165005 1_555
Ba5 N27 2.767738 1_565
Ba5 N16 2.841431 1_565
Ba5 N2 2.844939 1_555
Ba5 N20 2.936807 1_555
Ba5 N31 2.975992 1_555
Ba5 N26 3.165005 1_555
Ba6 N24 2.767738 1_555
Ba6 N19 2.841431 1_554
Ba6 N1 2.844939 1_555
Ba6 N23 2.936807 1_555
Ba6 N12 2.975992 1_554
Ba6 N25 3.165005 1_555
Ba7 N25 2.767738 1_655
Ba7 N18 2.841431 1_555
Ba7 N0 2.844939 1_555
Ba7 N22 2.936807 1_655
Ba7 N13 2.975992 1_555
Ba7 N24 3.165005 1_555
Ba8 N0 2.728978 1_555
Ba8 N24 2.827574 1_555
Ba8 N8 2.832672 1_555
Ba8 N21 3.187877 1_554
Ba8 N19 3.417570 1_554
Ba9 N1 2.728978 1_555
Ba9 N25 2.827574 1_555
Ba9 N9 2.832672 1_555
Ba9 N20 3.187877 1_555
Ba9 N18 3.417570 1_455
Ba10 N2 2.728978 1_555
Ba10 N26 2.827574 1_555
Ba10 N10 2.832672 1_555
Ba10 N23 3.187877 1_556
Ba10 N17 3.417570 1_656
Ba11 N3 2.728978 1_555
Ba11 N27 2.827574 1_555
Ba11 N11 2.832672 1_555
Ba11 N22 3.187877 1_555
Ba11 N16 3.417570 1_555
Ba12 N4 2.728978 1_555
Ba12 N28 2.827574 1_555
Ba12 N12 2.832672 1_555
Ba12 N17 3.187877 1_556
Ba12 N23 3.417570 1_556
Ba13 N5 2.728978 1_555
Ba13 N29 2.827574 1_555
Ba13 N13 2.832672 1_555
Ba13 N16 3.187877 1_555
Ba13 N22 3.417570 1_655
Ba14 N6 2.728978 1_555
Ba14 N30 2.827574 1_555
Ba14 N14 2.832672 1_555
Ba14 N19 3.187877 1_554
Ba14 N21 3.417570 1_454
Ba15 N7 2.728978 1_555
Ba15 N15 2.827574 1_555
Ba15 N31 2.832672 1_555
Ba15 N18 3.187877 1_555
Ba15 N20 3.417570 1_555
Ba16 N15 2.702185 1_555
Ba16 N23 2.711595 1_555
Ba16 N10 2.723686 1_554
Ba16 N14 2.851619 1_565
Ba16 N1 2.904786 1_555
Ba16 N7 3.277943 1_555
Ba17 N25 2.702185 1_555
Ba17 N17 2.711595 1_555
Ba17 N12 2.723686 1_554
Ba17 N8 2.851619 1_455
Ba17 N7 2.904786 1_455
Ba17 N1 3.277943 1_555
Ba18 N26 2.702185 1_555
Ba18 N18 2.711595 1_555
Ba18 N31 2.723686 1_555
Ba18 N11 2.851619 1_665
Ba18 N4 2.904786 1_655
Ba18 N2 3.277943 1_555
Ba19 N27 2.702185 1_555
Ba19 N19 2.711595 1_555
Ba19 N14 2.723686 1_556
Ba19 N10 2.851619 1_545
Ba19 N5 2.904786 1_555
Ba19 N3 3.277943 1_555
Ba20 N28 2.702185 1_555
Ba20 N20 2.711595 1_555
Ba20 N9 2.723686 1_555
Ba20 N13 2.851619 1_555
Ba20 N2 2.904786 1_555
Ba20 N4 3.277943 1_555
Ba21 N29 2.702185 1_555
Ba21 N21 2.711595 1_555
Ba21 N8 2.723686 1_556
Ba21 N12 2.851619 1_655
Ba21 N3 2.904786 1_655
Ba21 N5 3.277943 1_555
Ba22 N30 2.702185 1_555
Ba22 N22 2.711595 1_555
Ba22 N11 2.723686 1_555
Ba22 N31 2.851619 1_445
Ba22 N0 2.904786 1_455
Ba22 N6 3.277943 1_555
Ba23 N24 2.702185 1_555
Ba23 N16 2.711595 1_555
Ba23 N13 2.723686 1_555
Ba23 N9 2.851619 1_555
Ba23 N6 2.904786 1_555
Ba23 N0 3.277943 1_555
N0 W7 1.888603 1_555
N1 W6 1.888603 1_555
N2 W5 1.888603 1_555
N3 W4 1.888603 1_555
N4 W3 1.888603 1_555
N5 W2 1.888603 1_555
N6 W1 1.888603 1_555
N7 W0 1.888603 1_555
N8 W0 1.879759 1_555
N9 W1 1.879759 1_555
N10 W2 1.879759 1_565
N11 W3 1.879759 1_545
N12 W4 1.879759 1_555
N13 W5 1.879759 1_555
N14 W6 1.879759 1_545
N15 W7 1.870141 1_565
N16 W7 1.883611 1_555
N17 W6 1.883611 1_555
N18 W5 1.883611 1_555
N19 W4 1.883611 1_555
N20 W3 1.883611 1_555
N21 W2 1.883611 1_555
N22 W1 1.883611 1_555
N23 W0 1.883611 1_555
N24 W0 1.870141 1_555
N25 W1 1.870141 1_555
N26 W2 1.870141 1_565
N27 W3 1.870141 1_545
N28 W4 1.870141 1_555
N29 W5 1.870141 1_555
N30 W6 1.870141 1_545
N31 W7 1.879759 1_565
