# generated using pymatgen
data_V3O8
_symmetry_space_group_name_H-M   'P 1'
_cell_length_a   13.27213317
_cell_length_b   13.27213317
_cell_length_c   8.59124865
_cell_angle_alpha   82.28820202
_cell_angle_beta   82.28820202
_cell_angle_gamma   17.86166783
_symmetry_Int_Tables_number   1
_chemical_formula_structural   V3O8
_chemical_formula_sum   'V6 O16'
_cell_volume   459.87050454
_cell_formula_units_Z   2
loop_
 _symmetry_equiv_pos_site_id
 _symmetry_equiv_pos_as_xyz
  1  'x, y, z'
loop_
 _atom_site_type_symbol
 _atom_site_label
 _atom_site_symmetry_multiplicity
 _atom_site_fract_x
 _atom_site_fract_y
 _atom_site_fract_z
 _atom_site_occupancy
  V  V0  1  0.13438600  0.13438600  0.65868900  1
  V  V1  1  0.10767300  0.10767300  0.07350800  1
  V  V2  1  0.88319100  0.88319100  0.85259600  1
  V  V3  1  0.90796000  0.90796000  0.44886800  1
  V  V4  1  0.02233000  0.02233000  0.76999300  1
  V  V5  1  0.04404600  0.04404600  0.35865400  1
  O  O0  1  0.03750700  0.03750700  0.14544800  1
  O  O1  1  0.06654100  0.06654100  0.57390200  1
  O  O2  1  0.97576800  0.97576800  0.45935200  1
  O  O3  1  0.95497500  0.95497500  0.84876100  1
  O  O4  1  0.08355100  0.08355100  0.85885500  1
  O  O5  1  0.11665200  0.11665200  0.27199000  1
  O  O6  1  0.87235300  0.87235300  0.64593900  1
  O  O7  1  0.88598100  0.88598100  0.27817900  1
  O  O8  1  0.18319500  0.18319500  0.48675800  1
  O  O9  1  0.17011400  0.17011400  0.95496000  1
  O  O10  1  0.82237500  0.82237500  0.98650100  1
  O  O11  1  0.78314900  0.78314900  0.47041700  1
  O  O12  1  0.18694500  0.18694500  0.79372000  1
  O  O13  1  0.21880700  0.21880700  0.37110200  1
  O  O14  1  0.76167800  0.76167800  0.60739500  1
  O  O15  1  0.78082500  0.78082500  0.08440900  1
loop_
_geom_bond_atom_site_label_1
_geom_bond_atom_site_label_2
_geom_bond_distance
_geom_bond_site_symmetry_2
O0 V1 1.859670 1_555
O0 V5 1.862760 1_555
O1 V4 1.910897 1_555
O1 V0 2.011898 1_555
O1 V5 2.015942 1_555
O2 V3 1.792550 1_555
O2 V5 1.879687 1_665
O3 V4 1.803536 1_665
O3 V2 1.878161 1_555
O4 V4 1.868955 1_555
O4 V0 2.027671 1_555
O4 V1 2.029249 1_556
O5 V1 1.752783 1_555
O5 V5 1.947847 1_555
O6 V3 1.819029 1_555
O6 V2 1.835768 1_555
O7 V3 1.646877 1_555
O8 V0 1.818336 1_555
O9 V1 1.806982 1_556
O10 O15 1.282832 1_556
O10 V2 1.835277 1_555
O11 O14 1.233644 1_555
O12 O9 1.395571 1_555
O12 V0 1.918247 1_555
O13 O8 1.267779 1_555
