# generated using pymatgen
data_La2Ta3(SO4)2
_symmetry_space_group_name_H-M   'P 1'
_cell_length_a   7.70039100
_cell_length_b   9.96495200
_cell_length_c   11.89782900
_cell_angle_alpha   90.00000000
_cell_angle_beta   90.00000000
_cell_angle_gamma   90.00000000
_symmetry_Int_Tables_number   1
_chemical_formula_structural   La2Ta3(SO4)2
_chemical_formula_sum   'La8 Ta12 S8 O32'
_cell_volume   912.96832811
_cell_formula_units_Z   4
loop_
 _symmetry_equiv_pos_site_id
 _symmetry_equiv_pos_as_xyz
  1  'x, y, z'
loop_
 _atom_site_type_symbol
 _atom_site_label
 _atom_site_symmetry_multiplicity
 _atom_site_fract_x
 _atom_site_fract_y
 _atom_site_fract_z
 _atom_site_occupancy
  La  La0  1  0.00000000  0.79305600  0.66444200  1
  La  La1  1  0.50000000  0.70694400  0.16444200  1
  La  La2  1  0.50000000  0.29305600  0.83555800  1
  La  La3  1  0.00000000  0.72990800  0.15473300  1
  La  La4  1  0.00000000  0.27009200  0.84526700  1
  La  La5  1  0.50000000  0.22990800  0.34526700  1
  La  La6  1  0.00000000  0.20694400  0.33555800  1
  La  La7  1  0.50000000  0.77009200  0.65473300  1
  Ta  Ta0  1  0.25020400  0.13638900  0.58086800  1
  Ta  Ta1  1  0.25020400  0.86361100  0.41913200  1
  Ta  Ta2  1  0.24979600  0.63638900  0.91913200  1
  Ta  Ta3  1  0.24979600  0.36361100  0.08086800  1
  Ta  Ta4  1  0.75020400  0.63638900  0.91913200  1
  Ta  Ta5  1  0.74979600  0.13638900  0.58086800  1
  Ta  Ta6  1  0.74979600  0.86361100  0.41913200  1
  Ta  Ta7  1  0.28640900  0.00000000  0.00000000  1
  Ta  Ta8  1  0.21359100  0.50000000  0.50000000  1
  Ta  Ta9  1  0.71359100  0.00000000  0.00000000  1
  Ta  Ta10  1  0.78640900  0.50000000  0.50000000  1
  Ta  Ta11  1  0.75020400  0.36361100  0.08086800  1
  S  S0  1  0.50000000  0.98211800  0.84685300  1
  S  S1  1  0.50000000  0.01788200  0.15314700  1
  S  S2  1  0.00000000  0.48211800  0.65314700  1
  S  S3  1  0.00000000  0.51788200  0.34685300  1
  S  S4  1  0.50000000  0.48108900  0.63220100  1
  S  S5  1  0.50000000  0.51891100  0.36779900  1
  S  S6  1  0.00000000  0.98108900  0.86779900  1
  S  S7  1  0.00000000  0.01891100  0.13220100  1
  O  O0  1  0.50000000  0.36600400  0.05364300  1
  O  O1  1  0.50000000  0.63399600  0.94635700  1
  O  O2  1  0.00000000  0.86600400  0.44635700  1
  O  O3  1  0.00000000  0.13399600  0.55364300  1
  O  O4  1  0.50000000  0.15104200  0.54922500  1
  O  O5  1  0.50000000  0.84895800  0.45077500  1
  O  O6  1  0.00000000  0.65104200  0.95077500  1
  O  O7  1  0.00000000  0.34895800  0.04922500  1
  O  O8  1  0.74996700  0.78689800  0.27660100  1
  O  O9  1  0.74996700  0.21310200  0.72339900  1
  O  O10  1  0.75003300  0.28689800  0.22339900  1
  O  O11  1  0.75003300  0.71310200  0.77660100  1
  O  O12  1  0.25003300  0.21310200  0.72339900  1
  O  O13  1  0.25003300  0.78689800  0.27660100  1
  O  O14  1  0.26543300  0.19697800  0.97503300  1
  O  O15  1  0.24996700  0.71310200  0.77660100  1
  O  O16  1  0.75552500  0.55617900  0.10304700  1
  O  O17  1  0.75552500  0.44382100  0.89695300  1
  O  O18  1  0.74447500  0.05617900  0.39695300  1
  O  O19  1  0.74447500  0.94382100  0.60304700  1
  O  O20  1  0.24447500  0.44382100  0.89695300  1
  O  O21  1  0.24447500  0.55617900  0.10304700  1
  O  O22  1  0.25552500  0.94382100  0.60304700  1
  O  O23  1  0.25552500  0.05617900  0.39695300  1
  O  O24  1  0.73456700  0.80302200  0.02496700  1
  O  O25  1  0.73456700  0.19697800  0.97503300  1
  O  O26  1  0.76543300  0.30302200  0.47503300  1
  O  O27  1  0.76543300  0.69697800  0.52496700  1
  O  O28  1  0.23456700  0.30302200  0.47503300  1
  O  O29  1  0.23456700  0.69697800  0.52496700  1
  O  O30  1  0.26543300  0.80302200  0.02496700  1
  O  O31  1  0.24996700  0.28689800  0.22339900  1
loop_
_geom_bond_atom_site_label_1
_geom_bond_atom_site_label_2
_geom_bond_distance
_geom_bond_site_symmetry_2
La0 O15 2.473978 1_555
La0 O11 2.473978 1_455
La0 O22 2.581144 1_555
La0 O19 2.581144 1_455
La0 O27 2.633055 1_455
La0 O29 2.633055 1_555
La0 O2 2.694640 1_555
La0 S6 3.060215 1_555
La0 S2 3.101395 1_555
La1 O13 2.473978 1_555
La1 O8 2.473978 1_555
La1 O16 2.581144 1_555
La1 O21 2.581144 1_555
La1 O24 2.633055 1_555
La1 O30 2.633055 1_555
La1 O1 2.694640 1_554
La1 S5 3.060215 1_555
La1 S1 3.101395 1_565
La2 O12 2.473978 1_555
La2 O9 2.473978 1_555
La2 O20 2.581144 1_555
La2 O17 2.581144 1_555
La2 O25 2.633055 1_555
La2 O14 2.633055 1_555
La2 O0 2.694640 1_556
La2 S4 3.060215 1_555
La2 S0 3.101395 1_545
La3 O8 2.476265 1_455
La3 O13 2.476265 1_555
La3 O6 2.550745 1_554
La3 O16 2.630443 1_455
La3 O21 2.630443 1_555
La3 O30 2.663126 1_555
La3 O24 2.663126 1_455
La3 S7 2.892352 1_565
La3 S3 3.112712 1_555
La4 O9 2.476265 1_455
La4 O12 2.476265 1_555
La4 O7 2.550745 1_556
La4 O20 2.630443 1_555
La4 O17 2.630443 1_455
La4 O14 2.663126 1_555
La4 O25 2.663126 1_455
La4 S6 2.892352 1_545
La4 S2 3.112712 1_555
La5 O10 2.476265 1_555
La5 O31 2.476265 1_555
La5 O4 2.550745 1_555
La5 O23 2.630443 1_555
La5 O18 2.630443 1_555
La5 O28 2.663126 1_555
La5 O26 2.663126 1_555
La5 S5 2.892352 1_555
La5 S1 3.112712 1_555
La6 O31 2.473978 1_555
La6 O10 2.473978 1_455
La6 O18 2.581144 1_455
La6 O23 2.581144 1_555
La6 O26 2.633055 1_455
La6 O28 2.633055 1_555
La6 O3 2.694640 1_555
La6 S7 3.060215 1_555
La6 S3 3.101395 1_555
La7 O11 2.476265 1_555
La7 O15 2.476265 1_555
La7 O5 2.550745 1_555
La7 O19 2.630443 1_555
La7 O22 2.630443 1_555
La7 O27 2.663126 1_555
La7 O29 2.663126 1_555
La7 S4 2.892352 1_555
La7 S0 3.112712 1_555
S0 Ta7 2.461100 1_566
S0 Ta9 2.461100 1_566
S1 Ta9 2.461100 1_555
S1 Ta7 2.461100 1_555
S2 Ta10 2.461100 1_455
S2 Ta8 2.461100 1_555
S3 Ta8 2.461100 1_555
S3 Ta10 2.461100 1_455
S4 Ta8 2.715438 1_555
S4 Ta10 2.715438 1_555
S5 Ta10 2.715438 1_555
S5 Ta8 2.715438 1_555
S6 Ta9 2.715438 1_466
S6 Ta7 2.715438 1_566
S7 Ta9 2.715438 1_455
S7 Ta7 2.715438 1_555
O0 Ta3 1.953854 1_555
O0 Ta11 1.953854 1_555
O1 Ta2 1.953854 1_555
O1 Ta4 1.953854 1_555
O2 Ta6 1.953854 1_455
O2 Ta1 1.953854 1_555
O3 Ta5 1.953854 1_455
O3 Ta0 1.953854 1_555
O4 Ta5 1.965456 1_555
O4 Ta0 1.965456 1_555
O5 Ta1 1.965456 1_555
O5 Ta6 1.965456 1_555
O6 Ta2 1.965456 1_555
O6 Ta4 1.965456 1_455
O7 Ta3 1.965456 1_555
O7 Ta11 1.965456 1_455
O8 Ta6 1.860146 1_555
O9 Ta5 1.860146 1_555
O10 Ta11 1.860146 1_555
O11 Ta4 1.860146 1_555
O12 Ta0 1.860146 1_555
O13 Ta1 1.860146 1_555
O14 Ta7 1.991787 1_556
O14 Ta3 2.087421 1_556
O15 Ta2 1.860146 1_555
O16 Ta11 1.937423 1_555
O16 Ta4 2.329960 1_554
O17 Ta4 1.937423 1_555
O17 Ta11 2.329960 1_556
O18 Ta6 1.937423 1_545
O18 Ta5 2.329960 1_555
O19 Ta5 1.937423 1_565
O19 Ta6 2.329960 1_555
O20 Ta2 1.937423 1_555
O20 Ta3 2.329960 1_556
O21 Ta3 1.937423 1_555
O21 Ta2 2.329960 1_554
O22 Ta0 1.937423 1_565
O22 Ta1 2.329960 1_555
O23 Ta1 1.937423 1_545
O23 Ta0 2.329960 1_555
O24 Ta9 1.991787 1_565
O24 Ta4 2.087421 1_554
O25 Ta9 1.991787 1_556
O25 Ta11 2.087421 1_556
O26 Ta10 1.991787 1_555
O26 Ta5 2.087421 1_555
O27 Ta10 1.991787 1_555
O27 Ta6 2.087421 1_555
O28 Ta8 1.991787 1_555
O28 Ta0 2.087421 1_555
O29 Ta8 1.991787 1_555
O29 Ta1 2.087421 1_555
O30 Ta7 1.991787 1_565
O30 Ta2 2.087421 1_554
O31 Ta3 1.860146 1_555
