# generated using pymatgen
data_RbHfMg14O15
_symmetry_space_group_name_H-M   'P 1'
_cell_length_a   8.70670826
_cell_length_b   8.89137651
_cell_length_c   4.43136810
_cell_angle_alpha   90.00000000
_cell_angle_beta   90.00000000
_cell_angle_gamma   90.00000000
_symmetry_Int_Tables_number   1
_chemical_formula_structural   RbHfMg14O15
_chemical_formula_sum   'Rb1 Hf1 Mg14 O15'
_cell_volume   343.05268331
_cell_formula_units_Z   1
loop_
 _symmetry_equiv_pos_site_id
 _symmetry_equiv_pos_as_xyz
  1  'x, y, z'
loop_
 _atom_site_type_symbol
 _atom_site_label
 _atom_site_symmetry_multiplicity
 _atom_site_fract_x
 _atom_site_fract_y
 _atom_site_fract_z
 _atom_site_occupancy
  Rb  Rb0  1  0.04576371  0.00000000  -0.00000000  1
  Hf  Hf0  1  0.50637282  0.50000000  -0.00000000  1
  Mg  Mg0  1  0.99277936  0.50000000  -0.00000000  1
  Mg  Mg1  1  0.49362993  0.00000000  -0.00000000  1
  Mg  Mg2  1  0.99394525  0.25106291  0.50000000  1
  Mg  Mg3  1  0.99394525  0.74893709  0.50000000  1
  Mg  Mg4  1  0.50213723  0.24081726  0.50000000  1
  Mg  Mg5  1  0.50213723  0.75918274  0.50000000  1
  Mg  Mg6  1  0.26620557  0.00000000  0.50000000  1
  Mg  Mg7  1  0.23827958  0.50000000  0.50000000  1
  Mg  Mg8  1  0.74707263  0.00000000  0.50000000  1
  Mg  Mg9  1  0.75917355  0.50000000  0.50000000  1
  Mg  Mg10  1  0.24672229  0.26204623  -0.00000000  1
  Mg  Mg11  1  0.24672229  0.73795377  -0.00000000  1
  Mg  Mg12  1  0.75774672  0.23607317  -0.00000000  1
  Mg  Mg13  1  0.75774672  0.76392683  0.00000000  1
  O  O0  1  0.25628807  0.50000000  -0.00000000  1
  O  O1  1  0.72459685  0.00000000  -0.00000000  1
  O  O2  1  0.74747034  0.50000000  -0.00000000  1
  O  O3  1  0.24895665  0.25484963  0.50000000  1
  O  O4  1  0.24895665  0.74515037  0.50000000  1
  O  O5  1  0.74624832  0.25437762  0.50000000  1
  O  O6  1  0.74624832  0.74562238  0.50000000  1
  O  O7  1  0.97284396  0.00000000  0.50000000  1
  O  O8  1  0.99860234  0.50000000  0.50000000  1
  O  O9  1  0.50476999  0.00000000  0.50000000  1
  O  O10  1  0.50191749  0.50000000  0.50000000  1
  O  O11  1  0.99743909  0.27904729  -0.00000000  1
  O  O12  1  0.99743909  0.72095271  0.00000000  1
  O  O13  1  0.50392136  0.26000343  -0.00000000  1
  O  O14  1  0.50392136  0.73999657  0.00000000  1
loop_
_geom_bond_atom_site_label_1
_geom_bond_atom_site_label_2
_geom_bond_distance
_geom_bond_site_symmetry_2
Hf0 O2 2.099166 1_555
Hf0 O14 2.134007 1_555
Hf0 O13 2.134007 1_555
Hf0 O0 2.177415 1_555
Hf0 O10 2.216024 1_555
Hf0 O10 2.216024 1_554
Mg0 O11 1.964993 1_555
Mg0 O12 1.964993 1_555
Mg0 O2 2.135834 1_555
Mg0 O8 2.216264 1_554
Mg0 O8 2.216264 1_555
Mg0 O0 2.294293 1_655
Mg1 O1 2.010962 1_555
Mg1 O9 2.217806 1_555
Mg1 O9 2.217806 1_554
Mg1 O13 2.313524 1_555
Mg1 O14 2.313524 1_545
Mg2 O5 2.156826 1_555
Mg2 O8 2.213765 1_555
Mg2 O3 2.220565 1_655
Mg2 O11 2.229819 1_556
Mg2 O11 2.229819 1_555
Mg2 O7 2.239842 1_555
Mg3 O6 2.156826 1_555
Mg3 O8 2.213765 1_555
Mg3 O4 2.220565 1_655
Mg3 O12 2.229819 1_556
Mg3 O12 2.229819 1_555
Mg3 O7 2.239842 1_565
Mg4 O5 2.128821 1_555
Mg4 O9 2.141320 1_555
Mg4 O3 2.207898 1_555
Mg4 O13 2.222296 1_555
Mg4 O13 2.222296 1_556
Mg4 O10 2.304492 1_555
Mg5 O6 2.128821 1_555
Mg5 O9 2.141320 1_565
Mg5 O4 2.207898 1_555
Mg5 O14 2.222296 1_556
Mg5 O14 2.222296 1_555
Mg5 O10 2.304492 1_555
Mg6 O9 2.077111 1_555
Mg6 O4 2.270935 1_545
Mg6 O3 2.270935 1_555
Mg6 O7 2.554214 1_455
Mg7 O8 2.086800 1_455
Mg7 O3 2.181706 1_555
Mg7 O4 2.181706 1_555
Mg7 O0 2.221225 1_555
Mg7 O0 2.221225 1_556
Mg7 O10 2.295418 1_555
Mg8 O7 1.965725 1_555
Mg8 O9 2.109658 1_555
Mg8 O1 2.224309 1_556
Mg8 O1 2.224309 1_555
Mg8 O6 2.261779 1_545
Mg8 O5 2.261779 1_555
Mg9 O8 2.084637 1_555
Mg9 O5 2.186819 1_555
Mg9 O6 2.186819 1_555
Mg9 O2 2.218026 1_556
Mg9 O2 2.218026 1_555
Mg9 O10 2.239853 1_555
Mg10 O0 2.117375 1_555
Mg10 O11 2.175694 1_455
Mg10 O3 2.216693 1_555
Mg10 O3 2.216693 1_554
Mg10 O13 2.239431 1_555
Mg11 O0 2.117375 1_555
Mg11 O12 2.175694 1_455
Mg11 O4 2.216693 1_554
Mg11 O4 2.216693 1_555
Mg11 O14 2.239431 1_555
Mg12 O1 2.118766 1_555
Mg12 O11 2.121623 1_555
Mg12 O13 2.220202 1_555
Mg12 O5 2.223908 1_554
Mg12 O5 2.223908 1_555
Mg12 O2 2.348378 1_555
Mg13 O1 2.118766 1_565
Mg13 O12 2.121623 1_555
Mg13 O14 2.220202 1_555
Mg13 O6 2.223908 1_554
Mg13 O6 2.223908 1_555
Mg13 O2 2.348378 1_555
O1 Rb0 2.796306 1_655
O7 Rb0 2.304852 1_656
O7 Rb0 2.304852 1_655
O11 Rb0 2.516537 1_655
O12 Rb0 2.516537 1_665
