# generated using pymatgen
data_Na2Au
_symmetry_space_group_name_H-M   'P 1'
_cell_length_a   5.61695073
_cell_length_b   5.87450861
_cell_length_c   5.87450892
_cell_angle_alpha   76.78775884
_cell_angle_beta   61.44002229
_cell_angle_gamma   61.44003678
_symmetry_Int_Tables_number   1
_chemical_formula_structural   Na2Au
_chemical_formula_sum   'Na4 Au2'
_cell_volume   149.53625511
_cell_formula_units_Z   2
loop_
 _symmetry_equiv_pos_site_id
 _symmetry_equiv_pos_as_xyz
  1  'x, y, z'
loop_
 _atom_site_type_symbol
 _atom_site_label
 _atom_site_symmetry_multiplicity
 _atom_site_fract_x
 _atom_site_fract_y
 _atom_site_fract_z
 _atom_site_occupancy
  Na  Na0  1  0.82530624  0.50000000  0.84938552  1
  Na  Na1  1  0.67469376  0.15061448  0.50000000  1
  Na  Na2  1  0.17469376  0.50000000  0.15061448  1
  Na  Na3  1  0.32530624  0.84938552  0.50000000  1
  Au  Au0  1  0.75000000  0.00000000  -0.00000000  1
  Au  Au1  1  0.25000000  0.00000000  -0.00000000  1
loop_
_geom_bond_atom_site_label_1
_geom_bond_atom_site_label_2
_geom_bond_distance
_geom_bond_site_symmetry_2
Na0 Na2 3.209852 1_556
Na0 Na2 3.209872 1_656
Na0 Na2 3.605436 1_655
Na0 Na1 3.793027 1_555
Na0 Na3 3.793035 1_655
Na0 Na3 3.793036 1_555
Na0 Na1 3.793044 1_655
Na0 Na3 3.810380 1_556
Na0 Na1 3.810380 1_556
Na0 Na3 3.810381 1_645
Na0 Na1 3.810381 1_565
Na1 Na3 3.209852 1_645
Na1 Na3 3.209872 1_545
Na1 Na3 3.605437 1_555
Na1 Na2 3.793035 1_655
Na1 Na2 3.793036 1_555
Na1 Na2 3.810380 1_556
Na1 Na2 3.810381 1_645
Na2 Na3 3.793027 1_555
Na2 Na3 3.793044 1_455
Na2 Na3 3.810380 1_554
Na2 Na3 3.810381 1_545
Au0 Au1 2.808475 1_555
Au0 Au1 2.808475 1_655
Au0 Na3 3.038316 1_644
Au0 Na0 3.038316 1_554
Au0 Na2 3.038317 1_555
Au0 Na1 3.038317 1_554
Au0 Na3 3.038321 1_545
Au0 Na0 3.038322 1_544
Au0 Na1 3.038322 1_555
Au0 Na2 3.038322 1_645
Au1 Na1 3.038316 1_455
Au1 Na2 3.038316 1_545
Au1 Na0 3.038317 1_544
Au1 Na3 3.038317 1_545
Au1 Na1 3.038321 1_554
Au1 Na2 3.038322 1_555
Au1 Na3 3.038322 1_544
Au1 Na0 3.038322 1_454
