# generated using pymatgen
data_Sb5(PO4)6
_symmetry_space_group_name_H-M   'P 1'
_cell_length_a   8.69427600
_cell_length_b   8.80465624
_cell_length_c   8.95251029
_cell_angle_alpha   104.75174454
_cell_angle_beta   111.67280383
_cell_angle_gamma   110.91579603
_symmetry_Int_Tables_number   1
_chemical_formula_structural   Sb5(PO4)6
_chemical_formula_sum   'Sb5 P6 O24'
_cell_volume   532.69304277
_cell_formula_units_Z   1
loop_
 _symmetry_equiv_pos_site_id
 _symmetry_equiv_pos_as_xyz
  1  'x, y, z'
loop_
 _atom_site_type_symbol
 _atom_site_label
 _atom_site_symmetry_multiplicity
 _atom_site_fract_x
 _atom_site_fract_y
 _atom_site_fract_z
 _atom_site_occupancy
  Sb  Sb0  1  0.95677900  0.28088200  0.44522600  1
  Sb  Sb1  1  0.31327900  0.49251400  0.02342800  1
  Sb  Sb2  1  0.02857700  0.82995600  0.47642300  1
  Sb  Sb3  1  0.68698100  0.67383200  0.69853800  1
  Sb  Sb4  1  0.55384300  0.07480000  0.89744800  1
  P  P0  1  0.64052900  0.39566700  0.22946800  1
  P  P1  1  0.36332700  0.28605800  0.67157300  1
  P  P2  1  0.73551900  0.84080100  0.11401000  1
  P  P3  1  0.13318500  0.73404600  0.85038600  1
  P  P4  1  0.25122100  0.60694500  0.37668600  1
  P  P5  1  0.87870200  0.11982600  0.75602100  1
  O  O0  1  0.14717300  0.56654700  0.87905900  1
  O  O1  1  0.42676200  0.68575900  0.56851200  1
  O  O2  1  0.68233500  0.34241000  0.07264500  1
  O  O3  1  0.66687700  0.28446200  0.33155100  1
  O  O4  1  0.55524700  0.72262200  0.11687600  1
  O  O5  1  0.94588900  0.70434300  0.85789700  1
  O  O6  1  0.09649800  0.69469600  0.65732900  1
  O  O7  1  0.17651000  0.74383900  0.38542700  1
  O  O8  1  0.72802600  0.14490300  0.79414600  1
  O  O9  1  0.32384000  0.39561100  0.80465600  1
  O  O10  1  0.90054200  0.81168800  0.20566900  1
  O  O11  1  0.09579600  0.41413200  0.30825700  1
  O  O12  1  0.67959200  0.80080000  0.91498200  1
  O  O13  1  0.77078600  0.60135500  0.35557400  1
  O  O14  1  0.78347900  0.04274300  0.20078800  1
  O  O15  1  0.30449400  0.91712100  0.99077000  1
  O  O16  1  0.55419800  0.41527100  0.69394800  1
  O  O17  1  0.37952600  0.12749200  0.71209800  1
  O  O18  1  0.85985700  0.93077900  0.72985200  1
  O  O19  1  0.18486300  0.19758500  0.48561800  1
  O  O20  1  0.33232900  0.62405500  0.24833000  1
  O  O21  1  0.07767000  0.26083700  0.93001400  1
  O  O22  1  0.43188600  0.36539500  0.14278300  1
  O  O23  1  0.85992500  0.13626900  0.58553200  1
loop_
_geom_bond_atom_site_label_1
_geom_bond_atom_site_label_2
_geom_bond_distance
_geom_bond_site_symmetry_2
O0 P3 1.597943 1_555
O0 Sb1 1.975728 1_556
O1 P4 1.568784 1_555
O1 Sb3 2.184325 1_555
O2 P0 1.576842 1_555
O2 Sb4 2.050412 1_554
O3 P0 1.519072 1_555
O3 Sb0 2.359663 1_555
O4 P2 1.555241 1_555
O4 Sb1 2.006006 1_555
O5 P3 1.584418 1_655
O5 Sb3 2.043445 1_555
O6 P3 1.554964 1_555
O6 Sb2 2.273315 1_555
O7 P4 1.558626 1_555
O7 Sb2 2.012067 1_555
O8 P5 1.542656 1_555
O8 Sb4 2.046314 1_555
O9 P1 1.555977 1_555
O9 Sb1 1.977396 1_556
O10 P2 1.515814 1_555
O10 Sb2 2.195702 1_655
O11 P4 1.518006 1_555
O11 Sb0 2.270628 1_455
O12 P2 1.566367 1_556
O12 Sb3 2.012127 1_555
O13 P0 1.544969 1_555
O13 Sb2 2.030807 1_655
O14 P2 1.570583 1_545
O14 Sb0 2.104194 1_555
O15 P3 1.505889 1_555
O15 Sb4 2.665481 1_565
O16 P1 1.542322 1_555
O16 Sb3 2.134930 1_555
O17 P1 1.568823 1_555
O17 Sb4 2.074167 1_555
O17 Sb2 2.710632 1_545
O18 P5 1.559042 1_565
O18 Sb3 2.096140 1_555
O19 P1 1.534428 1_555
O19 Sb0 2.290161 1_455
O20 P4 1.565644 1_555
O20 Sb1 1.962626 1_555
O21 P5 1.565787 1_455
O21 Sb1 1.984687 1_556
O22 P0 1.572755 1_555
O22 Sb1 2.019178 1_555
O23 P5 1.524002 1_555
O23 Sb0 2.176756 1_555
