# generated using pymatgen
data_KFe3As4(HO8)2
_symmetry_space_group_name_H-M   'P 1'
_cell_length_a   10.26574457
_cell_length_b   10.26574457
_cell_length_c   11.13827601
_cell_angle_alpha   80.14294745
_cell_angle_beta   80.14294745
_cell_angle_gamma   38.02410208
_symmetry_Int_Tables_number   1
_chemical_formula_structural   KFe3As4(HO8)2
_chemical_formula_sum   'K2 Fe6 As8 H4 O32'
_cell_volume   711.10867394
_cell_formula_units_Z   2
loop_
 _symmetry_equiv_pos_site_id
 _symmetry_equiv_pos_as_xyz
  1  'x, y, z'
loop_
 _atom_site_type_symbol
 _atom_site_label
 _atom_site_symmetry_multiplicity
 _atom_site_fract_x
 _atom_site_fract_y
 _atom_site_fract_z
 _atom_site_occupancy
  K  K0  1  0.16221600  0.83778400  0.25000000  1
  K  K1  1  0.83778400  0.16221600  0.75000000  1
  Fe  Fe0  1  0.50000000  0.00000000  0.50000000  1
  Fe  Fe1  1  0.00000000  0.50000000  0.00000000  1
  Fe  Fe2  1  0.33149800  0.36788600  0.22501900  1
  Fe  Fe3  1  0.63211400  0.66850200  0.27498100  1
  Fe  Fe4  1  0.66850200  0.63211400  0.77498100  1
  Fe  Fe5  1  0.36788600  0.33149800  0.72501900  1
  As  As0  1  0.58247800  0.25876600  0.44825700  1
  As  As1  1  0.74123400  0.41752200  0.05174300  1
  As  As2  1  0.41752200  0.74123400  0.55174300  1
  As  As3  1  0.25876600  0.58247800  0.94825700  1
  As  As4  1  0.17908000  0.21536600  0.27015600  1
  As  As5  1  0.78463400  0.82092000  0.22984400  1
  As  As6  1  0.82092000  0.78463400  0.72984400  1
  As  As7  1  0.21536600  0.17908000  0.77015600  1
  H  H0  1  0.79583200  0.27659000  0.40344500  1
  H  H1  1  0.72341000  0.20416800  0.09655500  1
  H  H2  1  0.20416800  0.72341000  0.59655500  1
  H  H3  1  0.27659000  0.79583200  0.90344500  1
  O  O0  1  0.41207600  0.42570400  0.33427100  1
  O  O1  1  0.57429600  0.58792400  0.16572900  1
  O  O2  1  0.58792400  0.57429600  0.66572900  1
  O  O3  1  0.42570400  0.41207600  0.83427100  1
  O  O4  1  0.66908100  0.03151900  0.46531300  1
  O  O5  1  0.96848100  0.33091900  0.03468700  1
  O  O6  1  0.33091900  0.96848100  0.53468700  1
  O  O7  1  0.03151900  0.66908100  0.96531300  1
  O  O8  1  0.47003600  0.38591000  0.58103300  1
  O  O9  1  0.61409000  0.52996400  0.91896700  1
  O  O10  1  0.52996400  0.61409000  0.41896700  1
  O  O11  1  0.38591000  0.47003600  0.08103300  1
  O  O12  1  0.82186700  0.15988200  0.41002400  1
  O  O13  1  0.84011800  0.17813300  0.08997600  1
  O  O14  1  0.17813300  0.84011800  0.58997600  1
  O  O15  1  0.15988200  0.82186700  0.91002400  1
  O  O16  1  0.32615400  0.96556700  0.25159600  1
  O  O17  1  0.03443300  0.67384600  0.24840400  1
  O  O18  1  0.67384600  0.03443300  0.74840400  1
  O  O19  1  0.96556700  0.32615400  0.75159600  1
  O  O20  1  0.92530200  0.36655500  0.31486300  1
  O  O21  1  0.63344500  0.07469800  0.18513700  1
  O  O22  1  0.07469800  0.63344500  0.68513700  1
  O  O23  1  0.36655500  0.92530200  0.81486300  1
  O  O24  1  0.28719100  0.23379600  0.36275400  1
  O  O25  1  0.76620400  0.71280900  0.13724600  1
  O  O26  1  0.71280900  0.76620400  0.63724600  1
  O  O27  1  0.23379600  0.28719100  0.86275400  1
  O  O28  1  0.20505500  0.32012400  0.13892600  1
  O  O29  1  0.67987600  0.79494500  0.36107400  1
  O  O30  1  0.79494500  0.67987600  0.86107400  1
  O  O31  1  0.32012400  0.20505500  0.63892600  1
loop_
_geom_bond_atom_site_label_1
_geom_bond_atom_site_label_2
_geom_bond_distance
_geom_bond_site_symmetry_2
K0 O0 2.779426 1_555
K0 O1 2.779426 1_555
K0 O12 2.828759 1_465
K0 O13 2.828759 1_465
K0 O16 2.837221 1_555
K0 O17 2.837221 1_555
K0 O10 3.218981 1_555
K0 O11 3.218981 1_555
K1 O3 2.779426 1_555
K1 O2 2.779426 1_555
K1 O14 2.828759 1_645
K1 O15 2.828759 1_645
K1 O19 2.837221 1_555
K1 O18 2.837221 1_555
K1 O8 3.218981 1_555
K1 O9 3.218981 1_555
Fe0 O6 1.969570 1_545
Fe0 O4 1.969570 1_555
Fe0 O29 2.061128 1_545
Fe0 O31 2.061128 1_555
Fe0 O26 2.120450 1_545
Fe0 O24 2.120450 1_555
Fe1 O5 1.969570 1_455
Fe1 O7 1.969570 1_554
Fe1 O28 2.061128 1_555
Fe1 O30 2.061128 1_454
Fe1 O25 2.120450 1_455
Fe1 O27 2.120450 1_554
Fe2 O0 1.970483 1_555
Fe2 O11 2.006000 1_555
Fe2 O17 2.037244 1_555
Fe2 O21 2.037664 1_555
Fe2 O28 2.105872 1_555
Fe2 O24 2.116548 1_555
Fe3 O1 1.970483 1_555
Fe3 O10 2.006000 1_555
Fe3 O16 2.037244 1_555
Fe3 O20 2.037664 1_555
Fe3 O29 2.105872 1_555
Fe3 O25 2.116548 1_555
Fe4 O2 1.970483 1_555
Fe4 O9 2.006000 1_555
Fe4 O19 2.037244 1_555
Fe4 O23 2.037664 1_555
Fe4 O30 2.105872 1_555
Fe4 O26 2.116548 1_555
Fe5 O3 1.970483 1_555
Fe5 O8 2.006000 1_555
Fe5 O18 2.037244 1_555
Fe5 O22 2.037664 1_555
Fe5 O31 2.105872 1_555
Fe5 O27 2.116548 1_555
As0 O0 1.703293 1_555
As0 O4 1.705050 1_555
As0 O8 1.710523 1_555
As0 O12 1.763662 1_555
As1 O1 1.703293 1_555
As1 O5 1.705050 1_555
As1 O9 1.710523 1_554
As1 O13 1.763662 1_555
As2 O2 1.703293 1_555
As2 O6 1.705050 1_555
As2 O10 1.710523 1_555
As2 O14 1.763662 1_555
As3 O3 1.703293 1_555
As3 O7 1.705050 1_555
As3 O11 1.710523 1_556
As3 O15 1.763662 1_555
As4 O16 1.694991 1_545
As4 O20 1.701171 1_455
As4 O24 1.766589 1_555
As4 O28 1.773212 1_555
As5 O17 1.694991 1_655
As5 O21 1.701171 1_565
As5 O25 1.766589 1_555
As5 O29 1.773212 1_555
As6 O18 1.694991 1_565
As6 O22 1.701171 1_655
As6 O26 1.766589 1_555
As6 O30 1.773212 1_555
As7 O19 1.694991 1_455
As7 O23 1.701171 1_545
As7 O27 1.766589 1_555
As7 O31 1.773212 1_555
H0 O12 0.992160 1_555
H1 O13 0.992160 1_555
H2 O14 0.992160 1_555
H3 O15 0.992160 1_555
