# generated using pymatgen
data_ZnPd4
_symmetry_space_group_name_H-M   'P 1'
_cell_length_a   22.15932376
_cell_length_b   22.15932376
_cell_length_c   22.15932378
_cell_angle_alpha   14.66148916
_cell_angle_beta   14.66148916
_cell_angle_gamma   14.66149136
_symmetry_Int_Tables_number   1
_chemical_formula_structural   ZnPd4
_chemical_formula_sum   'Zn8 Pd32'
_cell_volume   606.97980774
_cell_formula_units_Z   8
loop_
 _symmetry_equiv_pos_site_id
 _symmetry_equiv_pos_as_xyz
  1  'x, y, z'
loop_
 _atom_site_type_symbol
 _atom_site_label
 _atom_site_symmetry_multiplicity
 _atom_site_fract_x
 _atom_site_fract_y
 _atom_site_fract_z
 _atom_site_occupancy
  Zn  Zn0_0  1  0.00000000  0.00000000  0.00000000  1
  Zn  Zn0_1  1  0.00000000  0.00000000  0.50000000  1
  Zn  Zn0_2  1  0.00000000  0.50000000  0.00000000  1
  Zn  Zn0_3  1  0.00000000  0.50000000  0.50000000  1
  Zn  Zn0_4  1  0.50000000  0.00000000  0.00000000  1
  Zn  Zn0_5  1  0.50000000  0.00000000  0.50000000  1
  Zn  Zn0_6  1  0.50000000  0.50000000  0.00000000  1
  Zn  Zn0_7  1  0.50000000  0.50000000  0.50000000  1
  Pd  Pd0_0  1  0.30221200  0.30221200  0.30221200  1
  Pd  Pd0_1  1  0.30221200  0.30221200  0.80221200  1
  Pd  Pd0_2  1  0.30221200  0.80221200  0.30221200  1
  Pd  Pd0_3  1  0.30221200  0.80221200  0.80221200  1
  Pd  Pd0_4  1  0.80221200  0.30221200  0.30221200  1
  Pd  Pd0_5  1  0.80221200  0.30221200  0.80221200  1
  Pd  Pd0_6  1  0.80221200  0.80221200  0.30221200  1
  Pd  Pd0_7  1  0.80221200  0.80221200  0.80221200  1
  Pd  Pd1_0  1  0.10059200  0.10059200  0.10059200  1
  Pd  Pd1_1  1  0.10059200  0.10059200  0.60059200  1
  Pd  Pd1_2  1  0.10059200  0.60059200  0.10059200  1
  Pd  Pd1_3  1  0.10059200  0.60059200  0.60059200  1
  Pd  Pd1_4  1  0.60059200  0.10059200  0.10059200  1
  Pd  Pd1_5  1  0.60059200  0.10059200  0.60059200  1
  Pd  Pd1_6  1  0.60059200  0.60059200  0.10059200  1
  Pd  Pd1_7  1  0.60059200  0.60059200  0.60059200  1
  Pd  Pd2_0  1  0.39940800  0.39940800  0.39940800  1
  Pd  Pd2_1  1  0.39940800  0.39940800  0.89940800  1
  Pd  Pd2_2  1  0.39940800  0.89940800  0.39940800  1
  Pd  Pd2_3  1  0.39940800  0.89940800  0.89940800  1
  Pd  Pd2_4  1  0.89940800  0.39940800  0.39940800  1
  Pd  Pd2_5  1  0.89940800  0.39940800  0.89940800  1
  Pd  Pd2_6  1  0.89940800  0.89940800  0.39940800  1
  Pd  Pd2_7  1  0.89940800  0.89940800  0.89940800  1
  Pd  Pd3_0  1  0.19778800  0.19778800  0.19778800  1
  Pd  Pd3_1  1  0.19778800  0.19778800  0.69778800  1
  Pd  Pd3_2  1  0.19778800  0.69778800  0.19778800  1
  Pd  Pd3_3  1  0.19778800  0.69778800  0.69778800  1
  Pd  Pd3_4  1  0.69778800  0.19778800  0.19778800  1
  Pd  Pd3_5  1  0.69778800  0.19778800  0.69778800  1
  Pd  Pd3_6  1  0.69778800  0.69778800  0.19778800  1
  Pd  Pd3_7  1  0.69778800  0.69778800  0.69778800  1
loop_
_geom_bond_atom_site_label_1
_geom_bond_atom_site_label_2
_geom_bond_distance
_geom_bond_site_symmetry_2
Pd0_0 Zn0_6 2.617671 1_555
Pd0_0 Zn0_5 2.617672 1_555
Pd0_0 Zn0_3 2.617672 1_555
Pd0_0 Pd1_1 2.819021 1_555
Pd0_0 Pd1_2 2.819021 1_555
Pd0_0 Pd1_4 2.819021 1_555
Pd0_1 Zn0_7 2.617671 1_555
Pd0_1 Zn0_2 2.617672 1_556
Pd0_1 Zn0_4 2.617672 1_556
Pd0_1 Pd1_0 2.819021 1_556
Pd0_1 Pd1_3 2.819021 1_555
Pd0_1 Pd1_5 2.819021 1_555
Pd0_2 Zn0_4 2.617671 1_565
Pd0_2 Zn0_7 2.617672 1_555
Pd0_2 Zn0_1 2.617672 1_565
Pd0_2 Pd1_3 2.819021 1_555
Pd0_2 Pd1_0 2.819021 1_565
Pd0_2 Pd1_6 2.819021 1_555
Pd0_3 Zn0_5 2.617671 1_565
Pd0_3 Zn0_6 2.617672 1_556
Pd0_3 Zn0_0 2.617672 1_566
Pd0_3 Pd1_2 2.819021 1_556
Pd0_3 Pd1_7 2.819021 1_555
Pd0_3 Pd1_1 2.819021 1_565
Pd0_4 Zn0_2 2.617671 1_655
Pd0_4 Zn0_7 2.617672 1_555
Pd0_4 Zn0_1 2.617672 1_655
Pd0_4 Pd1_5 2.819021 1_555
Pd0_4 Pd1_0 2.819021 1_655
Pd0_4 Pd1_6 2.819021 1_555
Pd0_5 Zn0_3 2.617671 1_655
Pd0_5 Zn0_6 2.617672 1_556
Pd0_5 Zn0_0 2.617672 1_656
Pd0_5 Pd1_4 2.819021 1_556
Pd0_5 Pd1_7 2.819021 1_555
Pd0_5 Pd1_1 2.819021 1_655
Pd0_6 Zn0_0 2.617671 1_665
Pd0_6 Zn0_3 2.617672 1_655
Pd0_6 Zn0_5 2.617672 1_565
Pd0_6 Pd1_7 2.819021 1_555
Pd0_6 Pd1_2 2.819021 1_655
Pd0_6 Pd1_4 2.819021 1_565
Pd0_7 Zn0_1 2.617671 1_665
Pd0_7 Zn0_2 2.617672 1_656
Pd0_7 Zn0_4 2.617672 1_566
Pd0_7 Pd1_6 2.819021 1_556
Pd0_7 Pd1_5 2.819021 1_565
Pd0_7 Pd1_3 2.819021 1_655
Pd1_0 Pd2_6 2.795698 1_445
Pd1_0 Pd2_5 2.795698 1_454
Pd1_0 Pd2_3 2.795698 1_544
Pd1_0 Pd1_3 2.827460 1_554
Pd1_0 Pd1_5 2.827460 1_554
Pd1_0 Pd1_3 2.827460 1_545
Pd1_0 Pd1_5 2.827460 1_455
Pd1_0 Pd1_6 2.827460 1_455
Pd1_0 Pd1_6 2.827460 1_545
Pd1_1 Pd2_7 2.795698 1_445
Pd1_1 Pd2_4 2.795698 1_455
Pd1_1 Pd2_2 2.795698 1_545
Pd1_1 Pd1_4 2.827460 1_555
Pd1_1 Pd1_2 2.827460 1_555
Pd1_1 Pd1_2 2.827460 1_546
Pd1_1 Pd1_4 2.827460 1_456
Pd1_1 Pd1_7 2.827460 1_455
Pd1_1 Pd1_7 2.827460 1_545
Pd1_2 Pd2_4 2.795698 1_455
Pd1_2 Pd2_7 2.795698 1_454
Pd1_2 Pd2_1 2.795698 1_554
Pd1_2 Pd1_7 2.827460 1_455
Pd1_2 Pd1_7 2.827460 1_554
Pd1_2 Pd1_4 2.827460 1_555
Pd1_2 Pd1_4 2.827460 1_465
Pd1_3 Pd2_5 2.795698 1_455
Pd1_3 Pd2_6 2.795698 1_455
Pd1_3 Pd2_0 2.795698 1_555
Pd1_3 Pd1_6 2.827460 1_555
Pd1_3 Pd1_6 2.827460 1_456
Pd1_3 Pd1_5 2.827460 1_555
Pd1_3 Pd1_5 2.827460 1_465
Pd1_4 Pd2_2 2.795698 1_545
Pd1_4 Pd2_7 2.795698 1_544
Pd1_4 Pd2_1 2.795698 1_554
Pd1_4 Pd1_7 2.827460 1_545
Pd1_4 Pd1_7 2.827460 1_554
Pd1_5 Pd2_3 2.795698 1_545
Pd1_5 Pd2_6 2.795698 1_545
Pd1_5 Pd2_0 2.795698 1_555
Pd1_5 Pd1_6 2.827460 1_555
Pd1_5 Pd1_6 2.827460 1_546
Pd1_6 Pd2_0 2.795698 1_555
Pd1_6 Pd2_5 2.795698 1_554
Pd1_6 Pd2_3 2.795698 1_554
Pd1_7 Pd2_1 2.795698 1_555
Pd1_7 Pd2_4 2.795698 1_555
Pd1_7 Pd2_2 2.795698 1_555
Pd2_0 Pd3_1 2.819021 1_555
Pd2_0 Pd3_4 2.819021 1_555
Pd2_0 Pd3_2 2.819021 1_555
Pd2_0 Pd2_3 2.827460 1_545
Pd2_0 Pd2_5 2.827460 1_455
Pd2_0 Pd2_3 2.827460 1_554
Pd2_0 Pd2_5 2.827460 1_554
Pd2_0 Pd2_6 2.827460 1_455
Pd2_0 Pd2_6 2.827460 1_545
Pd2_1 Pd3_0 2.819021 1_556
Pd2_1 Pd3_5 2.819021 1_555
Pd2_1 Pd3_3 2.819021 1_555
Pd2_1 Pd2_2 2.827460 1_555
Pd2_1 Pd2_4 2.827460 1_456
Pd2_1 Pd2_2 2.827460 1_546
Pd2_1 Pd2_4 2.827460 1_555
Pd2_1 Pd2_7 2.827460 1_455
Pd2_1 Pd2_7 2.827460 1_545
Pd2_2 Pd3_3 2.819021 1_555
Pd2_2 Pd3_0 2.819021 1_565
Pd2_2 Pd3_6 2.819021 1_555
Pd2_2 Pd2_7 2.827460 1_455
Pd2_2 Pd2_7 2.827460 1_554
Pd2_2 Pd2_4 2.827460 1_465
Pd2_2 Pd2_4 2.827460 1_555
Pd2_3 Pd3_2 2.819021 1_556
Pd2_3 Pd3_7 2.819021 1_555
Pd2_3 Pd3_1 2.819021 1_565
Pd2_3 Pd2_6 2.827460 1_555
Pd2_3 Pd2_6 2.827460 1_456
Pd2_3 Pd2_5 2.827460 1_465
Pd2_3 Pd2_5 2.827460 1_555
Pd2_4 Pd3_5 2.819021 1_555
Pd2_4 Pd3_0 2.819021 1_655
Pd2_4 Pd3_6 2.819021 1_555
Pd2_4 Pd2_7 2.827460 1_554
Pd2_4 Pd2_7 2.827460 1_545
Pd2_5 Pd3_4 2.819021 1_556
Pd2_5 Pd3_7 2.819021 1_555
Pd2_5 Pd3_1 2.819021 1_655
Pd2_5 Pd2_6 2.827460 1_555
Pd2_5 Pd2_6 2.827460 1_546
Pd2_6 Pd3_7 2.819021 1_555
Pd2_6 Pd3_2 2.819021 1_655
Pd2_6 Pd3_4 2.819021 1_565
Pd2_7 Pd3_6 2.819021 1_556
Pd2_7 Pd3_3 2.819021 1_655
Pd2_7 Pd3_5 2.819021 1_565
Pd3_0 Zn0_1 2.617671 1_555
Pd3_0 Zn0_4 2.617672 1_555
Pd3_0 Zn0_2 2.617672 1_555
Pd3_1 Zn0_0 2.617671 1_556
Pd3_1 Zn0_3 2.617672 1_555
Pd3_1 Zn0_5 2.617672 1_555
Pd3_2 Zn0_3 2.617671 1_555
Pd3_2 Zn0_0 2.617672 1_565
Pd3_2 Zn0_6 2.617672 1_555
Pd3_3 Zn0_2 2.617671 1_556
Pd3_3 Zn0_1 2.617672 1_565
Pd3_3 Zn0_7 2.617672 1_555
Pd3_4 Zn0_5 2.617671 1_555
Pd3_4 Zn0_0 2.617672 1_655
Pd3_4 Zn0_6 2.617672 1_555
Pd3_5 Zn0_4 2.617671 1_556
Pd3_5 Zn0_1 2.617672 1_655
Pd3_5 Zn0_7 2.617672 1_555
Pd3_6 Zn0_7 2.617671 1_555
Pd3_6 Zn0_4 2.617672 1_565
Pd3_6 Zn0_2 2.617672 1_655
Pd3_7 Zn0_6 2.617671 1_556
Pd3_7 Zn0_5 2.617672 1_565
Pd3_7 Zn0_3 2.617672 1_655
