# generated using pymatgen
data_Ga7Pt3
_symmetry_space_group_name_H-M   'P 1'
_cell_length_a   7.61967683
_cell_length_b   7.61967683
_cell_length_c   7.61967683
_cell_angle_alpha   109.47122063
_cell_angle_beta   109.47122063
_cell_angle_gamma   109.47122063
_symmetry_Int_Tables_number   1
_chemical_formula_structural   Ga7Pt3
_chemical_formula_sum   'Ga14 Pt6'
_cell_volume   340.55539615
_cell_formula_units_Z   2
loop_
 _symmetry_equiv_pos_site_id
 _symmetry_equiv_pos_as_xyz
  1  'x, y, z'
loop_
 _atom_site_type_symbol
 _atom_site_label
 _atom_site_symmetry_multiplicity
 _atom_site_fract_x
 _atom_site_fract_y
 _atom_site_fract_z
 _atom_site_occupancy
  Ga  Ga0  1  0.50000000  0.75000000  0.25000000  1
  Ga  Ga1  1  0.75000000  0.50000000  0.25000000  1
  Ga  Ga2  1  0.25000000  0.75000000  0.50000000  1
  Ga  Ga3  1  0.25000000  0.50000000  0.75000000  1
  Ga  Ga4  1  0.50000000  0.25000000  0.75000000  1
  Ga  Ga5  1  0.75000000  0.25000000  0.50000000  1
  Ga  Ga6  1  0.67160662  -0.00000000  0.00000000  1
  Ga  Ga7  1  -0.00000000  0.67160662  -0.00000000  1
  Ga  Ga8  1  0.00000000  -0.00000000  0.67160662  1
  Ga  Ga9  1  0.32839338  0.32839338  0.32839338  1
  Ga  Ga10  1  0.32839338  -0.00000000  -0.00000000  1
  Ga  Ga11  1  -0.00000000  0.32839338  0.00000000  1
  Ga  Ga12  1  -0.00000000  -0.00000000  0.32839338  1
  Ga  Ga13  1  0.67160662  0.67160662  0.67160662  1
  Pt  Pt0  1  -0.00000000  0.34109053  0.34109053  1
  Pt  Pt1  1  0.65890947  0.00000000  0.65890947  1
  Pt  Pt2  1  0.65890947  0.65890947  0.00000000  1
  Pt  Pt3  1  0.00000000  0.65890947  0.65890947  1
  Pt  Pt4  1  0.34109053  -0.00000000  0.34109053  1
  Pt  Pt5  1  0.34109053  0.34109053  -0.00000000  1
loop_
_geom_bond_atom_site_label_1
_geom_bond_atom_site_label_2
_geom_bond_distance
_geom_bond_site_symmetry_2
Ga0 Pt2 2.606363 1_555
Ga0 Pt5 2.606363 1_555
Ga0 Pt4 2.606363 1_565
Ga0 Pt1 2.606363 1_565
Ga1 Pt2 2.606363 1_555
Ga1 Pt5 2.606363 1_555
Ga1 Pt3 2.606363 1_655
Ga1 Pt0 2.606363 1_655
Ga2 Pt0 2.606363 1_555
Ga2 Pt4 2.606363 1_565
Ga2 Pt3 2.606363 1_555
Ga2 Pt1 2.606363 1_565
Ga3 Pt5 2.606363 1_556
Ga3 Pt0 2.606363 1_555
Ga3 Pt3 2.606363 1_555
Ga3 Pt2 2.606363 1_556
Ga4 Pt2 2.606363 1_556
Ga4 Pt4 2.606363 1_555
Ga4 Pt5 2.606363 1_556
Ga4 Pt1 2.606363 1_555
Ga5 Pt3 2.606363 1_655
Ga5 Pt4 2.606363 1_555
Ga5 Pt1 2.606363 1_555
Ga5 Pt0 2.606363 1_655
Ga6 Pt1 2.568370 1_554
Ga6 Pt0 2.568370 1_655
Ga6 Pt2 2.568370 1_545
Ga7 Pt3 2.568370 1_554
Ga7 Pt2 2.568370 1_455
Ga7 Pt4 2.568370 1_565
Ga8 Pt3 2.568370 1_545
Ga8 Pt1 2.568370 1_455
Ga8 Pt5 2.568370 1_556
Ga9 Pt0 2.568370 1_555
Ga9 Pt4 2.568370 1_555
Ga9 Pt5 2.568370 1_555
Ga10 Pt3 2.568370 1_544
Ga10 Pt4 2.568370 1_555
Ga10 Pt5 2.568370 1_555
Ga10 Ga6 2.615174 1_555
Ga10 Ga8 2.889351 1_554
Ga10 Ga7 2.889351 1_545
Ga10 Ga9 2.889351 1_555
Ga11 Pt1 2.568370 1_454
Ga11 Pt0 2.568370 1_555
Ga11 Pt5 2.568370 1_555
Ga11 Ga7 2.615174 1_555
Ga11 Ga8 2.889351 1_554
Ga11 Ga6 2.889351 1_455
Ga11 Ga9 2.889351 1_555
Ga12 Pt2 2.568370 1_445
Ga12 Pt0 2.568370 1_555
Ga12 Pt4 2.568370 1_555
Ga12 Ga8 2.615174 1_555
Ga12 Ga6 2.889351 1_455
Ga12 Ga7 2.889351 1_545
Ga12 Ga9 2.889351 1_555
Ga13 Pt3 2.568370 1_655
Ga13 Pt2 2.568370 1_556
Ga13 Pt1 2.568370 1_565
Ga13 Ga9 2.615174 1_555
Ga13 Ga6 2.889351 1_566
Ga13 Ga7 2.889351 1_656
Ga13 Ga8 2.889351 1_665
Pt0 Pt3 2.796312 1_555
Pt1 Pt4 2.796312 1_555
Pt2 Pt5 2.796312 1_555
