# generated using pymatgen
data_CaMg6Ga
_symmetry_space_group_name_H-M   'P 1'
_cell_length_a   5.15244400
_cell_length_b   6.36440300
_cell_length_c   11.60795200
_cell_angle_alpha   90.00000000
_cell_angle_beta   90.00000000
_cell_angle_gamma   90.00000000
_symmetry_Int_Tables_number   1
_chemical_formula_structural   CaMg6Ga
_chemical_formula_sum   'Ca2 Mg12 Ga2'
_cell_volume   380.65063240
_cell_formula_units_Z   2
loop_
 _symmetry_equiv_pos_site_id
 _symmetry_equiv_pos_as_xyz
  1  'x, y, z'
loop_
 _atom_site_type_symbol
 _atom_site_label
 _atom_site_symmetry_multiplicity
 _atom_site_fract_x
 _atom_site_fract_y
 _atom_site_fract_z
 _atom_site_occupancy
  Ca  Ca0  1  0.50000000  0.50000000  0.67160700  1
  Ca  Ca1  1  0.50000000  0.00000000  0.17160700  1
  Mg  Mg0  1  0.50000000  0.74821400  0.92002000  1
  Mg  Mg1  1  0.50000000  0.25178600  0.92002000  1
  Mg  Mg2  1  0.00000000  0.24023700  0.58141700  1
  Mg  Mg3  1  0.00000000  0.75976300  0.58141700  1
  Mg  Mg4  1  0.00000000  0.50000000  0.83952200  1
  Mg  Mg5  1  0.00000000  0.00000000  0.82710600  1
  Mg  Mg6  1  0.50000000  0.24821400  0.42002000  1
  Mg  Mg7  1  0.50000000  0.75178600  0.42002000  1
  Mg  Mg8  1  0.00000000  0.74023700  0.08141700  1
  Mg  Mg9  1  0.00000000  0.25976300  0.08141700  1
  Mg  Mg10  1  0.00000000  0.00000000  0.33952200  1
  Mg  Mg11  1  0.00000000  0.50000000  0.32710600  1
  Ga  Ga0  1  0.50000000  0.00000000  0.65888800  1
  Ga  Ga1  1  0.50000000  0.50000000  0.15888800  1
loop_
_geom_bond_atom_site_label_1
_geom_bond_atom_site_label_2
_geom_bond_distance
_geom_bond_site_symmetry_2
Ca0 Ga0 3.185625 1_565
Ca0 Ga0 3.185625 1_555
Ca0 Mg4 3.230496 1_555
Ca0 Mg4 3.230496 1_655
Ca0 Mg3 3.235144 1_655
Ca0 Mg3 3.235144 1_555
Ca0 Mg2 3.235144 1_655
Ca0 Mg2 3.235144 1_555
Ca0 Mg0 3.287934 1_555
Ca0 Mg1 3.287934 1_555
Ca0 Mg7 3.331170 1_555
Ca0 Mg6 3.331170 1_555
Ca1 Ga1 3.185625 1_555
Ca1 Ga1 3.185625 1_545
Ca1 Mg10 3.230496 1_555
Ca1 Mg10 3.230496 1_655
Ca1 Mg9 3.235144 1_555
Ca1 Mg9 3.235144 1_655
Ca1 Mg8 3.235144 1_545
Ca1 Mg8 3.235144 1_645
Ca1 Mg6 3.287934 1_555
Ca1 Mg7 3.287934 1_545
Ca1 Mg1 3.331170 1_554
Ca1 Mg0 3.331170 1_544
Mg0 Mg1 3.159468 1_555
Mg0 Mg4 3.163165 1_655
Mg0 Mg4 3.163165 1_555
Mg0 Mg8 3.185821 1_656
Mg0 Mg8 3.185821 1_556
Mg0 Mg1 3.204935 1_565
Mg0 Mg5 3.219949 1_565
Mg0 Mg5 3.219949 1_665
Mg1 Mg4 3.163165 1_655
Mg1 Mg4 3.163165 1_555
Mg1 Mg9 3.185821 1_556
Mg1 Mg9 3.185821 1_656
Mg1 Mg5 3.219949 1_655
Mg1 Mg5 3.219949 1_555
Mg2 Mg3 3.057930 1_545
Mg2 Mg6 3.185821 1_455
Mg2 Mg6 3.185821 1_555
Mg2 Mg5 3.235944 1_555
Mg2 Mg3 3.306473 1_555
Mg2 Mg4 3.421933 1_555
Mg3 Mg7 3.185821 1_455
Mg3 Mg7 3.185821 1_555
Mg3 Mg5 3.235944 1_565
Mg3 Mg4 3.421933 1_555
Mg4 Mg5 3.185464 1_565
Mg4 Mg5 3.185464 1_555
Mg4 Mg8 3.197197 1_556
Mg4 Mg9 3.197197 1_556
Mg5 Mg9 3.383441 1_556
Mg5 Mg8 3.383441 1_546
Mg6 Mg7 3.159468 1_545
Mg6 Mg7 3.204935 1_555
Mg8 Mg9 3.057930 1_555
Mg8 Mg9 3.306473 1_565
Mg10 Mg6 3.163165 1_555
Mg10 Mg6 3.163165 1_455
Mg10 Mg7 3.163165 1_545
Mg10 Mg7 3.163165 1_445
Mg10 Mg11 3.185464 1_555
Mg10 Mg11 3.185464 1_545
Mg10 Mg2 3.197197 1_555
Mg10 Mg3 3.197197 1_545
Mg10 Mg9 3.421933 1_555
Mg10 Mg8 3.421933 1_545
Mg11 Mg7 3.219949 1_455
Mg11 Mg6 3.219949 1_455
Mg11 Mg7 3.219949 1_555
Mg11 Mg6 3.219949 1_555
Mg11 Mg8 3.235944 1_555
Mg11 Mg9 3.235944 1_555
Mg11 Mg3 3.383441 1_555
Mg11 Mg2 3.383441 1_555
Ga0 Mg2 3.127836 1_555
Ga0 Mg2 3.127836 1_655
Ga0 Mg3 3.127836 1_645
Ga0 Mg3 3.127836 1_545
Ga0 Mg7 3.191207 1_545
Ga0 Mg6 3.191207 1_555
Ga0 Mg5 3.232619 1_555
Ga0 Mg5 3.232619 1_655
Ga1 Mg8 3.127836 1_555
Ga1 Mg8 3.127836 1_655
Ga1 Mg9 3.127836 1_655
Ga1 Mg9 3.127836 1_555
Ga1 Mg0 3.191207 1_554
Ga1 Mg1 3.191207 1_554
Ga1 Mg11 3.232619 1_655
Ga1 Mg11 3.232619 1_555
