# generated using pymatgen
data_TiZn10(B4Rh9)2
_symmetry_space_group_name_H-M   'P 1'
_cell_length_a   17.88707800
_cell_length_b   17.88707800
_cell_length_c   2.89884300
_cell_angle_alpha   90.00000000
_cell_angle_beta   90.00000000
_cell_angle_gamma   90.00000000
_symmetry_Int_Tables_number   1
_chemical_formula_structural   TiZn10(B4Rh9)2
_chemical_formula_sum   'Ti2 Zn20 B16 Rh36'
_cell_volume   927.47774287
_cell_formula_units_Z   2
loop_
 _symmetry_equiv_pos_site_id
 _symmetry_equiv_pos_as_xyz
  1  'x, y, z'
loop_
 _atom_site_type_symbol
 _atom_site_label
 _atom_site_symmetry_multiplicity
 _atom_site_fract_x
 _atom_site_fract_y
 _atom_site_fract_z
 _atom_site_occupancy
  Ti  Ti0  1  0.00000000  0.00000000  0.00000000  1
  Ti  Ti1  1  0.50000000  0.50000000  0.00000000  1
  Zn  Zn0  1  0.55028700  0.05028700  0.00000000  1
  Zn  Zn1  1  0.44971300  0.94971300  0.00000000  1
  Zn  Zn2  1  0.05028700  0.44971300  0.00000000  1
  Zn  Zn3  1  0.94971300  0.55028700  0.00000000  1
  Zn  Zn4  1  0.03197400  0.18831900  0.00000000  1
  Zn  Zn5  1  0.96802600  0.81168100  0.00000000  1
  Zn  Zn6  1  0.18831900  0.96802600  0.00000000  1
  Zn  Zn7  1  0.53197400  0.31168100  0.00000000  1
  Zn  Zn8  1  0.81168100  0.03197400  0.00000000  1
  Zn  Zn9  1  0.46802600  0.68831900  0.00000000  1
  Zn  Zn10  1  0.68831900  0.53197400  0.00000000  1
  Zn  Zn11  1  0.31168100  0.46802600  0.00000000  1
  Zn  Zn12  1  0.20942100  0.70942100  0.00000000  1
  Zn  Zn13  1  0.79057900  0.29057900  0.00000000  1
  Zn  Zn14  1  0.70942100  0.79057900  0.00000000  1
  Zn  Zn15  1  0.29057900  0.20942100  0.00000000  1
  Zn  Zn16  1  0.66860900  0.16860900  0.00000000  1
  Zn  Zn17  1  0.33139100  0.83139100  0.00000000  1
  Zn  Zn18  1  0.16860900  0.33139100  0.00000000  1
  Zn  Zn19  1  0.83139100  0.66860900  0.00000000  1
  B  B0  1  0.33487100  0.03871200  0.00000000  1
  B  B1  1  0.66512900  0.96128800  0.00000000  1
  B  B2  1  0.03871200  0.66512900  0.00000000  1
  B  B3  1  0.83487100  0.46128800  0.00000000  1
  B  B4  1  0.96128800  0.33487100  0.00000000  1
  B  B5  1  0.16512900  0.53871200  0.00000000  1
  B  B6  1  0.53871200  0.83487100  0.00000000  1
  B  B7  1  0.46128800  0.16512900  0.00000000  1
  B  B8  1  0.17021500  0.12647000  0.00000000  1
  B  B9  1  0.82978500  0.87353000  0.00000000  1
  B  B10  1  0.12647000  0.82978500  0.00000000  1
  B  B11  1  0.67021500  0.37353000  0.00000000  1
  B  B12  1  0.87353000  0.17021500  0.00000000  1
  B  B13  1  0.32978500  0.62647000  0.00000000  1
  B  B14  1  0.62647000  0.67021500  0.00000000  1
  B  B15  1  0.37353000  0.32978500  0.00000000  1
  Rh  Rh0  1  0.25556800  0.08771700  0.50000000  1
  Rh  Rh1  1  0.74443200  0.91228300  0.50000000  1
  Rh  Rh2  1  0.08771700  0.74443200  0.50000000  1
  Rh  Rh3  1  0.75556800  0.41228300  0.50000000  1
  Rh  Rh4  1  0.91228300  0.25556800  0.50000000  1
  Rh  Rh5  1  0.24443200  0.58771700  0.50000000  1
  Rh  Rh6  1  0.58771700  0.75556800  0.50000000  1
  Rh  Rh7  1  0.41228300  0.24443200  0.50000000  1
  Rh  Rh8  1  0.04750200  0.32583700  0.50000000  1
  Rh  Rh9  1  0.95249800  0.67416300  0.50000000  1
  Rh  Rh10  1  0.32583700  0.95249800  0.50000000  1
  Rh  Rh11  1  0.54750200  0.17416300  0.50000000  1
  Rh  Rh12  1  0.67416300  0.04750200  0.50000000  1
  Rh  Rh13  1  0.45249800  0.82583700  0.50000000  1
  Rh  Rh14  1  0.82583700  0.54750200  0.50000000  1
  Rh  Rh15  1  0.17416300  0.45249800  0.50000000  1
  Rh  Rh16  1  0.15887900  0.21143400  0.50000000  1
  Rh  Rh17  1  0.84112100  0.78856600  0.50000000  1
  Rh  Rh18  1  0.21143400  0.84112100  0.50000000  1
  Rh  Rh19  1  0.65887900  0.28856600  0.50000000  1
  Rh  Rh20  1  0.78856600  0.15887900  0.50000000  1
  Rh  Rh21  1  0.34112100  0.71143400  0.50000000  1
  Rh  Rh22  1  0.71143400  0.65887900  0.50000000  1
  Rh  Rh23  1  0.28856600  0.34112100  0.50000000  1
  Rh  Rh24  1  0.09970200  0.06726200  0.50000000  1
  Rh  Rh25  1  0.90029800  0.93273800  0.50000000  1
  Rh  Rh26  1  0.06726200  0.90029800  0.50000000  1
  Rh  Rh27  1  0.59970200  0.43273800  0.50000000  1
  Rh  Rh28  1  0.93273800  0.09970200  0.50000000  1
  Rh  Rh29  1  0.40029800  0.56726200  0.50000000  1
  Rh  Rh30  1  0.56726200  0.59970200  0.50000000  1
  Rh  Rh31  1  0.43273800  0.40029800  0.50000000  1
  Rh  Rh32  1  0.08201000  0.58201000  0.50000000  1
  Rh  Rh33  1  0.91799000  0.41799000  0.50000000  1
  Rh  Rh34  1  0.58201000  0.91799000  0.50000000  1
  Rh  Rh35  1  0.41799000  0.08201000  0.50000000  1
loop_
_geom_bond_atom_site_label_1
_geom_bond_atom_site_label_2
_geom_bond_distance
_geom_bond_site_symmetry_2
Zn0 Zn1 2.544135 1_545
Zn2 Zn3 2.544135 1_455
B0 Rh10 2.122512 1_544
B0 Rh10 2.122512 1_545
B0 Rh0 2.209369 1_554
B0 Rh0 2.209369 1_555
B0 Rh35 2.216095 1_554
B0 Rh35 2.216095 1_555
B0 Zn1 2.598833 1_545
B1 Rh12 2.122512 1_564
B1 Rh12 2.122512 1_565
B1 Rh1 2.209369 1_554
B1 Rh1 2.209369 1_555
B1 Rh34 2.216095 1_555
B1 Rh34 2.216095 1_554
B1 Zn0 2.598833 1_565
B2 Rh9 2.122512 1_454
B2 Rh9 2.122512 1_455
B2 Rh2 2.209369 1_555
B2 Rh2 2.209369 1_554
B2 Rh32 2.216095 1_555
B2 Rh32 2.216095 1_554
B2 Zn3 2.598833 1_455
B3 Rh14 2.122512 1_554
B3 Rh14 2.122512 1_555
B3 Rh3 2.209369 1_554
B3 Rh3 2.209369 1_555
B3 Rh33 2.216095 1_555
B3 Rh33 2.216095 1_554
B3 Zn3 2.598833 1_555
B4 Rh8 2.122512 1_655
B4 Rh8 2.122512 1_654
B4 Rh4 2.209369 1_555
B4 Rh4 2.209369 1_554
B4 Rh33 2.216095 1_554
B4 Rh33 2.216095 1_555
B4 Zn2 2.598833 1_655
B5 Rh15 2.122512 1_554
B5 Rh15 2.122512 1_555
B5 Rh5 2.209369 1_555
B5 Rh5 2.209369 1_554
B5 Rh32 2.216095 1_555
B5 Rh32 2.216095 1_554
B5 Zn2 2.598833 1_555
B6 Rh13 2.122512 1_555
B6 Rh13 2.122512 1_554
B6 Rh6 2.209369 1_555
B6 Rh6 2.209369 1_554
B6 Rh34 2.216095 1_554
B6 Rh34 2.216095 1_555
B6 Zn1 2.598833 1_555
B7 Rh11 2.122512 1_555
B7 Rh11 2.122512 1_554
B7 Rh7 2.209369 1_554
B7 Rh7 2.209369 1_555
B7 Rh35 2.216095 1_554
B7 Rh35 2.216095 1_555
B7 Zn0 2.598833 1_555
B8 Rh16 2.109882 1_555
B8 Rh16 2.109882 1_554
B8 Rh24 2.193908 1_554
B8 Rh24 2.193908 1_555
B8 Rh0 2.216344 1_555
B8 Rh0 2.216344 1_554
B8 Zn15 2.614719 1_555
B8 Zn4 2.708925 1_555
B9 Rh17 2.109882 1_554
B9 Rh17 2.109882 1_555
B9 Rh25 2.193908 1_555
B9 Rh25 2.193908 1_554
B9 Rh1 2.216344 1_555
B9 Rh1 2.216344 1_554
B9 Zn14 2.614719 1_555
B9 Zn5 2.708925 1_555
B10 Rh18 2.109882 1_555
B10 Rh18 2.109882 1_554
B10 Rh26 2.193908 1_554
B10 Rh26 2.193908 1_555
B10 Rh2 2.216344 1_555
B10 Rh2 2.216344 1_554
B10 Zn12 2.614719 1_555
B10 Zn6 2.708925 1_555
B11 Rh19 2.109882 1_555
B11 Rh19 2.109882 1_554
B11 Rh27 2.193908 1_555
B11 Rh27 2.193908 1_554
B11 Rh3 2.216344 1_555
B11 Rh3 2.216344 1_554
B11 Zn13 2.614719 1_555
B11 Zn7 2.708925 1_555
B12 Rh20 2.109882 1_555
B12 Rh20 2.109882 1_554
B12 Rh28 2.193908 1_555
B12 Rh28 2.193908 1_554
B12 Rh4 2.216344 1_555
B12 Rh4 2.216344 1_554
B12 Zn13 2.614719 1_555
B12 Zn8 2.708925 1_555
B13 Rh21 2.109882 1_554
B13 Rh21 2.109882 1_555
B13 Rh29 2.193908 1_554
B13 Rh29 2.193908 1_555
B13 Rh5 2.216344 1_555
B13 Rh5 2.216344 1_554
B13 Zn12 2.614719 1_555
B13 Zn9 2.708925 1_555
B14 Rh22 2.109882 1_554
B14 Rh22 2.109882 1_555
B14 Rh30 2.193908 1_555
B14 Rh30 2.193908 1_554
B14 Rh6 2.216344 1_555
B14 Rh6 2.216344 1_554
B14 Zn14 2.614719 1_555
B14 Zn10 2.708925 1_555
B15 Rh23 2.109882 1_555
B15 Rh23 2.109882 1_554
B15 Rh31 2.193908 1_554
B15 Rh31 2.193908 1_555
B15 Rh7 2.216344 1_554
B15 Rh7 2.216344 1_555
B15 Zn15 2.614719 1_555
B15 Zn11 2.708925 1_555
Rh0 Zn15 2.689242 1_556
Rh0 Zn15 2.689242 1_555
Rh0 Zn6 2.851545 1_545
Rh0 Zn6 2.851545 1_546
Rh1 Zn14 2.689242 1_555
Rh1 Zn14 2.689242 1_556
Rh1 Zn8 2.851545 1_566
Rh1 Zn8 2.851545 1_565
Rh2 Zn12 2.689242 1_556
Rh2 Zn12 2.689242 1_555
Rh2 Zn5 2.851545 1_456
Rh2 Zn5 2.851545 1_455
Rh3 Zn13 2.689242 1_555
Rh3 Zn13 2.689242 1_556
Rh3 Zn10 2.851545 1_555
Rh3 Zn10 2.851545 1_556
Rh4 Zn13 2.689242 1_555
Rh4 Zn13 2.689242 1_556
Rh4 Zn4 2.851545 1_656
Rh4 Zn4 2.851545 1_655
Rh5 Zn12 2.689242 1_556
Rh5 Zn12 2.689242 1_555
Rh5 Zn11 2.851545 1_556
Rh5 Zn11 2.851545 1_555
Rh6 Zn14 2.689242 1_555
Rh6 Zn14 2.689242 1_556
Rh6 Zn9 2.851545 1_556
Rh6 Zn9 2.851545 1_555
Rh7 Zn15 2.689242 1_556
Rh7 Zn15 2.689242 1_555
Rh7 Zn7 2.851545 1_556
Rh7 Zn7 2.851545 1_555
Rh8 Zn18 2.608320 1_555
Rh8 Zn18 2.608320 1_556
Rh8 Zn2 2.648204 1_556
Rh8 Zn2 2.648204 1_555
Rh8 Zn4 2.868547 1_555
Rh8 Zn4 2.868547 1_556
Rh9 Zn19 2.608320 1_555
Rh9 Zn19 2.608320 1_556
Rh9 Zn3 2.648204 1_556
Rh9 Zn3 2.648204 1_555
Rh9 Zn5 2.868547 1_556
Rh9 Zn5 2.868547 1_555
Rh10 Zn17 2.608320 1_556
Rh10 Zn17 2.608320 1_555
Rh10 Zn1 2.648204 1_555
Rh10 Zn1 2.648204 1_556
Rh10 Zn6 2.868547 1_555
Rh10 Zn6 2.868547 1_556
Rh11 Zn16 2.608320 1_556
Rh11 Zn16 2.608320 1_555
Rh11 Zn0 2.648204 1_555
Rh11 Zn0 2.648204 1_556
Rh11 Zn7 2.868547 1_556
Rh11 Zn7 2.868547 1_555
Rh12 Zn16 2.608320 1_556
Rh12 Zn16 2.608320 1_555
Rh12 Zn0 2.648204 1_556
Rh12 Zn0 2.648204 1_555
Rh12 Zn8 2.868547 1_555
Rh12 Zn8 2.868547 1_556
Rh13 Zn17 2.608320 1_555
Rh13 Zn17 2.608320 1_556
Rh13 Zn1 2.648204 1_556
Rh13 Zn1 2.648204 1_555
Rh13 Zn9 2.868547 1_556
Rh13 Zn9 2.868547 1_555
Rh14 Zn19 2.608320 1_555
Rh14 Zn19 2.608320 1_556
Rh14 Zn3 2.648204 1_556
Rh14 Zn3 2.648204 1_555
Rh14 Zn10 2.868547 1_555
Rh14 Zn10 2.868547 1_556
Rh15 Zn18 2.608320 1_555
Rh15 Zn18 2.608320 1_556
Rh15 Zn2 2.648204 1_555
Rh15 Zn2 2.648204 1_556
Rh15 Zn11 2.868547 1_555
Rh15 Zn11 2.868547 1_556
Rh16 Zn18 2.595199 1_555
Rh16 Zn18 2.595199 1_556
Rh16 Zn4 2.724791 1_556
Rh16 Zn4 2.724791 1_555
Rh16 Zn15 2.766148 1_556
Rh16 Zn15 2.766148 1_555
Rh17 Zn19 2.595199 1_556
Rh17 Zn19 2.595199 1_555
Rh17 Zn5 2.724791 1_555
Rh17 Zn5 2.724791 1_556
Rh17 Zn14 2.766148 1_555
Rh17 Zn14 2.766148 1_556
Rh18 Zn17 2.595199 1_556
Rh18 Zn17 2.595199 1_555
Rh18 Zn6 2.724791 1_555
Rh18 Zn6 2.724791 1_556
Rh18 Zn12 2.766148 1_555
Rh18 Zn12 2.766148 1_556
Rh19 Zn16 2.595199 1_556
Rh19 Zn16 2.595199 1_555
Rh19 Zn7 2.724791 1_556
Rh19 Zn7 2.724791 1_555
Rh19 Zn13 2.766148 1_556
Rh19 Zn13 2.766148 1_555
Rh20 Zn16 2.595199 1_556
Rh20 Zn16 2.595199 1_555
Rh20 Zn8 2.724791 1_555
Rh20 Zn8 2.724791 1_556
Rh20 Zn13 2.766148 1_556
Rh20 Zn13 2.766148 1_555
Rh21 Zn17 2.595199 1_555
Rh21 Zn17 2.595199 1_556
Rh21 Zn9 2.724791 1_555
Rh21 Zn9 2.724791 1_556
Rh21 Zn12 2.766148 1_555
Rh21 Zn12 2.766148 1_556
Rh22 Zn19 2.595199 1_556
Rh22 Zn19 2.595199 1_555
Rh22 Zn10 2.724791 1_556
Rh22 Zn10 2.724791 1_555
Rh22 Zn14 2.766148 1_555
Rh22 Zn14 2.766148 1_556
Rh23 Zn18 2.595199 1_555
Rh23 Zn18 2.595199 1_556
Rh23 Zn11 2.724791 1_555
Rh23 Zn11 2.724791 1_556
Rh23 Zn15 2.766148 1_556
Rh23 Zn15 2.766148 1_555
Rh24 Ti0 2.593985 1_555
Rh24 Ti0 2.593985 1_556
Rh24 Zn6 2.786420 1_545
Rh24 Zn6 2.786420 1_546
Rh24 Zn4 2.873537 1_556
Rh24 Zn4 2.873537 1_555
Rh25 Ti0 2.593985 1_665
Rh25 Ti0 2.593985 1_666
Rh25 Zn8 2.786420 1_565
Rh25 Zn8 2.786420 1_566
Rh25 Zn5 2.873537 1_555
Rh25 Zn5 2.873537 1_556
Rh26 Ti0 2.593985 1_566
Rh26 Ti0 2.593985 1_565
Rh26 Zn5 2.786420 1_455
Rh26 Zn5 2.786420 1_456
Rh26 Zn6 2.873537 1_556
Rh26 Zn6 2.873537 1_555
Rh27 Ti1 2.593985 1_555
Rh27 Ti1 2.593985 1_556
Rh27 Zn10 2.786420 1_556
Rh27 Zn10 2.786420 1_555
Rh27 Zn7 2.873537 1_556
Rh27 Zn7 2.873537 1_555
Rh28 Ti0 2.593985 1_656
Rh28 Ti0 2.593985 1_655
Rh28 Zn4 2.786420 1_656
Rh28 Zn4 2.786420 1_655
Rh28 Zn8 2.873537 1_555
Rh28 Zn8 2.873537 1_556
Rh29 Ti1 2.593985 1_555
Rh29 Ti1 2.593985 1_556
Rh29 Zn11 2.786420 1_555
Rh29 Zn11 2.786420 1_556
Rh29 Zn9 2.873537 1_555
Rh29 Zn9 2.873537 1_556
Rh30 Ti1 2.593985 1_555
Rh30 Ti1 2.593985 1_556
Rh30 Zn9 2.786420 1_555
Rh30 Zn9 2.786420 1_556
Rh30 Zn10 2.873537 1_555
Rh30 Zn10 2.873537 1_556
Rh31 Ti1 2.593985 1_555
Rh31 Ti1 2.593985 1_556
Rh31 Zn7 2.786420 1_555
Rh31 Zn7 2.786420 1_556
Rh31 Zn11 2.873537 1_556
Rh31 Zn11 2.873537 1_555
Rh32 Zn2 2.832434 1_556
Rh32 Zn2 2.832434 1_555
Rh32 Zn3 2.832434 1_456
Rh32 Zn3 2.832434 1_455
Rh33 Zn3 2.832434 1_555
Rh33 Zn3 2.832434 1_556
Rh33 Zn2 2.832434 1_655
Rh33 Zn2 2.832434 1_656
Rh34 Zn1 2.832434 1_555
Rh34 Zn1 2.832434 1_556
Rh34 Zn0 2.832434 1_566
Rh34 Zn0 2.832434 1_565
Rh35 Zn0 2.832434 1_556
Rh35 Zn0 2.832434 1_555
Rh35 Zn1 2.832434 1_546
Rh35 Zn1 2.832434 1_545
