# generated using pymatgen
data_Zn3Co2(Si2O7)2
_symmetry_space_group_name_H-M   'P 1'
_cell_length_a   9.26080206
_cell_length_b   9.26080206
_cell_length_c   9.81465650
_cell_angle_alpha   59.77885908
_cell_angle_beta   59.77885908
_cell_angle_gamma   48.36635751
_symmetry_Int_Tables_number   1
_chemical_formula_structural   Zn3Co2(Si2O7)2
_chemical_formula_sum   'Zn6 Co4 Si8 O28'
_cell_volume   524.68338426
_cell_formula_units_Z   2
loop_
 _symmetry_equiv_pos_site_id
 _symmetry_equiv_pos_as_xyz
  1  'x, y, z'
loop_
 _atom_site_type_symbol
 _atom_site_label
 _atom_site_symmetry_multiplicity
 _atom_site_fract_x
 _atom_site_fract_y
 _atom_site_fract_z
 _atom_site_occupancy
  Zn  Zn0  1  0.06950100  0.26384700  0.11016100  1
  Zn  Zn1  1  0.73615300  0.93049900  0.38983900  1
  Zn  Zn2  1  0.26384700  0.06950100  0.61016100  1
  Zn  Zn3  1  0.38788700  0.61211300  0.75000000  1
  Zn  Zn4  1  0.93049900  0.73615300  0.88983900  1
  Zn  Zn5  1  0.61211300  0.38788700  0.25000000  1
  Co  Co0  1  0.78930800  0.21069200  0.75000000  1
  Co  Co1  1  0.21069200  0.78930800  0.25000000  1
  Co  Co2  1  0.00000000  0.00000000  0.00000000  1
  Co  Co3  1  0.00000000  0.00000000  0.50000000  1
  Si  Si0  1  0.54126400  0.08905500  0.70780800  1
  Si  Si1  1  0.08905500  0.54126400  0.20780800  1
  Si  Si2  1  0.52134900  0.24050300  0.10184700  1
  Si  Si3  1  0.24050300  0.52134900  0.60184700  1
  Si  Si4  1  0.91094500  0.45873600  0.79219200  1
  Si  Si5  1  0.47865100  0.75949700  0.89815300  1
  Si  Si6  1  0.75949700  0.47865100  0.39815300  1
  Si  Si7  1  0.45873600  0.91094500  0.29219200  1
  O  O0  1  0.83257700  0.30198300  0.32869600  1
  O  O1  1  0.97024800  0.88952900  0.41175900  1
  O  O2  1  0.45018400  0.64278400  0.09251900  1
  O  O3  1  0.88952900  0.97024800  0.91175900  1
  O  O4  1  0.23701300  0.98439400  0.30417000  1
  O  O5  1  0.05737400  0.51582000  0.62280800  1
  O  O6  1  0.64278400  0.45018400  0.59251900  1
  O  O7  1  0.01560600  0.76298700  0.19583000  1
  O  O8  1  0.94262600  0.48418000  0.37719200  1
  O  O9  1  0.62362000  0.68154000  0.27361600  1
  O  O10  1  0.02975200  0.11047100  0.58824100  1
  O  O11  1  0.76298700  0.01560600  0.69583000  1
  O  O12  1  0.48418000  0.94262600  0.87719200  1
  O  O13  1  0.30198300  0.83257700  0.82869600  1
  O  O14  1  0.68154000  0.62362000  0.77361600  1
  O  O15  1  0.98439400  0.23701300  0.80417000  1
  O  O16  1  0.91201300  0.48798000  0.94233600  1
  O  O17  1  0.37638000  0.31846000  0.72638400  1
  O  O18  1  0.51202000  0.08798700  0.55766400  1
  O  O19  1  0.31846000  0.37638000  0.22638400  1
  O  O20  1  0.51582000  0.05737400  0.12280800  1
  O  O21  1  0.11047100  0.02975200  0.08824100  1
  O  O22  1  0.48798000  0.91201300  0.44233600  1
  O  O23  1  0.54981600  0.35721600  0.90748100  1
  O  O24  1  0.08798700  0.51202000  0.05766400  1
  O  O25  1  0.35721600  0.54981600  0.40748100  1
  O  O26  1  0.69801700  0.16742300  0.17130400  1
  O  O27  1  0.16742300  0.69801700  0.67130400  1
loop_
_geom_bond_atom_site_label_1
_geom_bond_atom_site_label_2
_geom_bond_distance
_geom_bond_site_symmetry_2
Co0 O10 1.875818 1_655
Co0 O3 1.875818 1_545
Co0 O6 1.952125 1_555
Co0 O23 1.952125 1_555
Co0 O11 2.299699 1_555
Co0 O15 2.299699 1_555
Co1 O21 1.875818 1_565
Co1 O1 1.875818 1_455
Co1 O25 1.952125 1_555
Co1 O2 1.952125 1_555
Co1 O4 2.299699 1_555
Co1 O7 2.299699 1_555
Co2 O21 1.838284 1_555
Co2 O3 1.838284 1_444
Co2 O15 2.035682 1_454
Co2 O7 2.035682 1_545
Co2 O26 2.276213 1_455
Co2 O13 2.276213 1_544
Co3 O10 1.838284 1_555
Co3 O1 1.838284 1_445
Co3 O4 2.035682 1_545
Co3 O11 2.035682 1_455
Co3 O27 2.276213 1_545
Co3 O0 2.276213 1_455
O0 Si6 1.669306 1_555
O0 Zn5 2.051491 1_555
O0 Zn0 2.129479 1_655
O1 Zn1 2.045599 1_555
O2 Si5 1.635091 1_554
O2 Zn5 2.041273 1_555
O3 Zn4 2.045599 1_555
O4 Si7 1.635348 1_555
O4 Zn0 2.325554 1_565
O5 Si3 1.635435 1_555
O5 Si4 1.637212 1_455
O6 Si6 1.635091 1_555
O6 Zn3 2.041273 1_555
O7 Si1 1.635348 1_555
O7 Zn1 2.325554 1_455
O8 Si6 1.635435 1_555
O8 Si1 1.637212 1_655
O9 Si7 1.636312 1_555
O9 Si6 1.643957 1_555
O10 Zn2 2.045599 1_555
O11 Si0 1.635348 1_555
O11 Zn4 2.325554 1_545
O12 Si5 1.635435 1_555
O12 Si0 1.637212 1_565
O13 Si5 1.669306 1_555
O13 Zn3 2.051491 1_555
O13 Zn2 2.129479 1_565
O14 Si4 1.636312 1_555
O14 Si5 1.643957 1_555
O15 Si4 1.635348 1_555
O15 Zn2 2.325554 1_655
O16 Si4 1.632470 1_555
O16 Zn0 2.025520 1_656
O16 Zn4 2.195177 1_555
O17 Si0 1.636312 1_555
O17 Si3 1.643957 1_555
O18 Si0 1.632470 1_555
O18 Zn1 2.025520 1_545
O18 Zn2 2.195177 1_555
O19 Si1 1.636312 1_555
O19 Si2 1.643957 1_555
O20 Si2 1.635435 1_555
O20 Si7 1.637212 1_545
O21 Zn0 2.045599 1_555
O22 Si7 1.632470 1_555
O22 Zn2 2.025520 1_565
O22 Zn1 2.195177 1_555
O23 Si2 1.635091 1_556
O23 Zn3 2.041273 1_555
O24 Si1 1.632470 1_555
O24 Zn4 2.025520 1_454
O24 Zn0 2.195177 1_555
O25 Si3 1.635091 1_555
O25 Zn5 2.041273 1_555
O26 Si2 1.669306 1_555
O26 Zn5 2.051491 1_555
O26 Zn1 2.129479 1_545
O27 Si3 1.669306 1_555
O27 Zn3 2.051491 1_555
O27 Zn4 2.129479 1_455
