# generated using pymatgen
data_ErOs3
_symmetry_space_group_name_H-M   'P 1'
_cell_length_a   5.77833037
_cell_length_b   5.77833037
_cell_length_c   4.60243900
_cell_angle_alpha   90.00000000
_cell_angle_beta   90.00000000
_cell_angle_gamma   120.00000425
_symmetry_Int_Tables_number   1
_chemical_formula_structural   ErOs3
_chemical_formula_sum   'Er2 Os6'
_cell_volume   133.08324797
_cell_formula_units_Z   2
loop_
 _symmetry_equiv_pos_site_id
 _symmetry_equiv_pos_as_xyz
  1  'x, y, z'
loop_
 _atom_site_type_symbol
 _atom_site_label
 _atom_site_symmetry_multiplicity
 _atom_site_fract_x
 _atom_site_fract_y
 _atom_site_fract_z
 _atom_site_occupancy
  Er  Er0  1  0.33333300  0.66666700  0.75000000  1
  Er  Er1  1  0.66666700  0.33333300  0.25000000  1
  Os  Os0  1  0.16028800  0.32057500  0.25000000  1
  Os  Os1  1  0.67942500  0.83971200  0.25000000  1
  Os  Os2  1  0.16028800  0.83971200  0.25000000  1
  Os  Os3  1  0.83971200  0.67942500  0.75000000  1
  Os  Os4  1  0.32057500  0.16028800  0.75000000  1
  Os  Os5  1  0.83971200  0.16028800  0.75000000  1
loop_
_geom_bond_atom_site_label_1
_geom_bond_atom_site_label_2
_geom_bond_distance
_geom_bond_site_symmetry_2
Er0 Os2 2.880118 1_555
Er0 Os2 2.880118 1_556
Er0 Os1 2.880124 1_555
Er0 Os1 2.880124 1_556
Er0 Os0 2.880124 1_556
Er0 Os0 2.880124 1_555
Er0 Os5 2.889870 1_565
Er0 Os5 2.889870 1_455
Er0 Os3 2.889870 1_555
Er0 Os4 2.889870 1_555
Er0 Os4 2.889870 1_565
Er0 Os3 2.889870 1_455
Er1 Os5 2.880118 1_555
Er1 Os5 2.880118 1_554
Er1 Os4 2.880124 1_555
Er1 Os3 2.880124 1_554
Er1 Os3 2.880124 1_555
Er1 Os4 2.880124 1_554
Er1 Os2 2.889870 1_655
Er1 Os2 2.889870 1_545
Er1 Os1 2.889870 1_555
Er1 Os0 2.889870 1_555
Er1 Os0 2.889870 1_655
Er1 Os1 2.889870 1_545
Os0 Os1 2.778585 1_445
Os0 Os2 2.778585 1_545
Os0 Os4 2.805192 1_555
Os0 Os4 2.805192 1_554
Os0 Os5 2.805198 1_455
Os0 Os5 2.805198 1_454
Os0 Os1 2.999745 1_555
Os0 Os2 2.999745 1_555
Os1 Os2 2.778585 1_655
Os1 Os3 2.805192 1_554
Os1 Os3 2.805192 1_555
Os1 Os5 2.805198 1_565
Os1 Os5 2.805198 1_564
Os1 Os2 2.999745 1_555
Os2 Os3 2.805198 1_455
Os2 Os3 2.805198 1_454
Os2 Os4 2.805198 1_565
Os2 Os4 2.805198 1_564
Os3 Os4 2.778585 1_665
Os3 Os5 2.778585 1_565
Os3 Os4 2.999745 1_555
Os3 Os5 2.999745 1_555
Os4 Os5 2.778585 1_455
Os4 Os5 2.999745 1_555
