# generated using pymatgen
data_Zn3Hg
_symmetry_space_group_name_H-M   'P 1'
_cell_length_a   5.74706400
_cell_length_b   5.72600530
_cell_length_c   20.95969600
_cell_angle_alpha   90.00000000
_cell_angle_beta   90.00000000
_cell_angle_gamma   59.87826690
_symmetry_Int_Tables_number   1
_chemical_formula_structural   Zn3Hg
_chemical_formula_sum   'Zn24 Hg8'
_cell_volume   596.59464196
_cell_formula_units_Z   8
loop_
 _symmetry_equiv_pos_site_id
 _symmetry_equiv_pos_as_xyz
  1  'x, y, z'
loop_
 _atom_site_type_symbol
 _atom_site_label
 _atom_site_symmetry_multiplicity
 _atom_site_fract_x
 _atom_site_fract_y
 _atom_site_fract_z
 _atom_site_occupancy
  Zn  Zn0_0  1  0.33226500  0.33546950  0.31250000  1
  Zn  Zn0_1  1  0.33226500  0.33546950  0.81250000  1
  Zn  Zn0_2  1  0.33226500  0.83546950  0.31250000  1
  Zn  Zn0_3  1  0.33226500  0.83546950  0.81250000  1
  Zn  Zn0_4  1  0.83226500  0.33546950  0.31250000  1
  Zn  Zn0_5  1  0.83226500  0.33546950  0.81250000  1
  Zn  Zn0_6  1  0.83226500  0.83546950  0.31250000  1
  Zn  Zn0_7  1  0.83226500  0.83546950  0.81250000  1
  Zn  Zn1_0  1  0.17124400  0.15751250  0.20733700  1
  Zn  Zn1_1  1  0.17124400  0.15751250  0.70733700  1
  Zn  Zn1_2  1  0.17124400  0.65751250  0.20733700  1
  Zn  Zn1_3  1  0.17124400  0.65751250  0.70733700  1
  Zn  Zn1_4  1  0.67124400  0.15751250  0.20733700  1
  Zn  Zn1_5  1  0.67124400  0.15751250  0.70733700  1
  Zn  Zn1_6  1  0.67124400  0.65751250  0.20733700  1
  Zn  Zn1_7  1  0.67124400  0.65751250  0.70733700  1
  Zn  Zn2_0  1  0.17124400  0.15751250  0.41766300  1
  Zn  Zn2_1  1  0.17124400  0.15751250  0.91766300  1
  Zn  Zn2_2  1  0.17124400  0.65751250  0.41766300  1
  Zn  Zn2_3  1  0.17124400  0.65751250  0.91766300  1
  Zn  Zn2_4  1  0.67124400  0.15751250  0.41766300  1
  Zn  Zn2_5  1  0.67124400  0.15751250  0.91766300  1
  Zn  Zn2_6  1  0.67124400  0.65751250  0.41766300  1
  Zn  Zn2_7  1  0.67124400  0.65751250  0.91766300  1
  Hg  Hg0_0  1  0.32524750  0.34950550  0.06250000  1
  Hg  Hg0_1  1  0.32524750  0.34950550  0.56250000  1
  Hg  Hg0_2  1  0.32524750  0.84950550  0.06250000  1
  Hg  Hg0_3  1  0.32524750  0.84950550  0.56250000  1
  Hg  Hg0_4  1  0.82524750  0.34950550  0.06250000  1
  Hg  Hg0_5  1  0.82524750  0.34950550  0.56250000  1
  Hg  Hg0_6  1  0.82524750  0.84950550  0.06250000  1
  Hg  Hg0_7  1  0.82524750  0.84950550  0.56250000  1
loop_
_geom_bond_atom_site_label_1
_geom_bond_atom_site_label_2
_geom_bond_distance
_geom_bond_site_symmetry_2
Zn0_0 Zn1_2 2.720748 1_555
Zn0_0 Zn2_2 2.720748 1_555
Zn0_0 Zn1_0 2.774806 1_555
Zn0_0 Zn2_0 2.774806 1_555
Zn0_0 Zn2_4 2.774809 1_555
Zn0_0 Zn1_4 2.774809 1_555
Zn0_0 Zn0_6 2.863003 1_455
Zn0_0 Zn0_2 2.863003 1_555
Zn0_0 Zn0_2 2.863003 1_545
Zn0_0 Zn0_6 2.863003 1_545
Zn0_0 Zn0_4 2.873532 1_555
Zn0_0 Zn0_4 2.873532 1_455
Zn0_1 Zn1_3 2.720748 1_555
Zn0_1 Zn2_3 2.720748 1_555
Zn0_1 Zn1_1 2.774806 1_555
Zn0_1 Zn2_1 2.774806 1_555
Zn0_1 Zn1_5 2.774809 1_555
Zn0_1 Zn2_5 2.774809 1_555
Zn0_1 Zn0_7 2.863003 1_455
Zn0_1 Zn0_3 2.863003 1_545
Zn0_1 Zn0_7 2.863003 1_545
Zn0_1 Zn0_3 2.863003 1_555
Zn0_1 Zn0_5 2.873532 1_555
Zn0_1 Zn0_5 2.873532 1_455
Zn0_2 Zn2_0 2.720748 1_565
Zn0_2 Zn1_0 2.720748 1_565
Zn0_2 Zn2_2 2.774806 1_555
Zn0_2 Zn1_2 2.774806 1_555
Zn0_2 Zn2_6 2.774809 1_555
Zn0_2 Zn1_6 2.774809 1_555
Zn0_2 Zn0_4 2.863003 1_555
Zn0_2 Zn0_4 2.863003 1_465
Zn0_2 Zn0_6 2.873532 1_455
Zn0_2 Zn0_6 2.873532 1_555
Zn0_3 Zn1_1 2.720748 1_565
Zn0_3 Zn2_1 2.720748 1_565
Zn0_3 Zn1_3 2.774806 1_555
Zn0_3 Zn2_3 2.774806 1_555
Zn0_3 Zn1_7 2.774809 1_555
Zn0_3 Zn2_7 2.774809 1_555
Zn0_3 Zn0_5 2.863003 1_555
Zn0_3 Zn0_5 2.863003 1_465
Zn0_3 Zn0_7 2.873532 1_455
Zn0_3 Zn0_7 2.873532 1_555
Zn0_4 Zn2_6 2.720748 1_555
Zn0_4 Zn1_6 2.720748 1_555
Zn0_4 Zn2_4 2.774806 1_555
Zn0_4 Zn1_4 2.774806 1_555
Zn0_4 Zn2_0 2.774809 1_655
Zn0_4 Zn1_0 2.774809 1_655
Zn0_4 Zn0_6 2.863003 1_545
Zn0_4 Zn0_6 2.863003 1_555
Zn0_5 Zn1_7 2.720748 1_555
Zn0_5 Zn2_7 2.720748 1_555
Zn0_5 Zn1_5 2.774806 1_555
Zn0_5 Zn2_5 2.774806 1_555
Zn0_5 Zn1_1 2.774809 1_655
Zn0_5 Zn2_1 2.774809 1_655
Zn0_5 Zn0_7 2.863003 1_545
Zn0_5 Zn0_7 2.863003 1_555
Zn0_6 Zn2_4 2.720748 1_565
Zn0_6 Zn1_4 2.720748 1_565
Zn0_6 Zn2_6 2.774806 1_555
Zn0_6 Zn1_6 2.774806 1_555
Zn0_6 Zn2_2 2.774809 1_655
Zn0_6 Zn1_2 2.774809 1_655
Zn0_7 Zn1_5 2.720748 1_565
Zn0_7 Zn2_5 2.720748 1_565
Zn0_7 Zn1_7 2.774806 1_555
Zn0_7 Zn2_7 2.774806 1_555
Zn0_7 Zn1_3 2.774809 1_655
Zn0_7 Zn2_3 2.774809 1_655
Zn1_0 Zn1_6 2.863003 1_545
Zn1_0 Zn1_2 2.863003 1_545
Zn1_0 Zn1_2 2.863003 1_555
Zn1_0 Zn1_6 2.863003 1_455
Zn1_0 Zn1_4 2.873532 1_555
Zn1_0 Zn1_4 2.873532 1_455
Zn1_1 Zn1_3 2.863003 1_545
Zn1_1 Zn1_7 2.863003 1_545
Zn1_1 Zn1_7 2.863003 1_455
Zn1_1 Zn1_3 2.863003 1_555
Zn1_1 Zn1_5 2.873532 1_455
Zn1_1 Zn1_5 2.873532 1_555
Zn1_2 Zn1_4 2.863003 1_465
Zn1_2 Zn1_4 2.863003 1_555
Zn1_2 Zn1_6 2.873532 1_455
Zn1_2 Zn1_6 2.873532 1_555
Zn1_3 Zn1_5 2.863003 1_465
Zn1_3 Zn1_5 2.863003 1_555
Zn1_3 Zn1_7 2.873532 1_455
Zn1_3 Zn1_7 2.873532 1_555
Zn1_4 Zn1_6 2.863003 1_545
Zn1_4 Zn1_6 2.863003 1_555
Zn1_5 Zn1_7 2.863003 1_545
Zn1_5 Zn1_7 2.863003 1_555
Zn2_0 Zn2_2 2.863003 1_545
Zn2_0 Zn2_6 2.863003 1_545
Zn2_0 Zn2_2 2.863003 1_555
Zn2_0 Zn2_6 2.863003 1_455
Zn2_0 Zn2_4 2.873532 1_455
Zn2_0 Zn2_4 2.873532 1_555
Zn2_1 Zn2_3 2.863003 1_545
Zn2_1 Zn2_7 2.863003 1_545
Zn2_1 Zn2_3 2.863003 1_555
Zn2_1 Zn2_7 2.863003 1_455
Zn2_1 Zn2_5 2.873532 1_555
Zn2_1 Zn2_5 2.873532 1_455
Zn2_2 Zn2_4 2.863003 1_465
Zn2_2 Zn2_4 2.863003 1_555
Zn2_2 Zn2_6 2.873532 1_455
Zn2_2 Zn2_6 2.873532 1_555
Zn2_3 Zn2_5 2.863003 1_465
Zn2_3 Zn2_5 2.863003 1_555
Zn2_3 Zn2_7 2.873532 1_455
Zn2_3 Zn2_7 2.873532 1_555
Zn2_4 Zn2_6 2.863003 1_545
Zn2_4 Zn2_6 2.863003 1_555
Zn2_5 Zn2_7 2.863003 1_545
Zn2_5 Zn2_7 2.863003 1_555
Hg0_0 Hg0_6 2.863003 1_455
Hg0_0 Hg0_2 2.863003 1_555
Hg0_0 Hg0_2 2.863003 1_545
Hg0_0 Hg0_6 2.863003 1_545
Hg0_0 Hg0_4 2.873532 1_555
Hg0_0 Hg0_4 2.873532 1_455
Hg0_1 Hg0_7 2.863003 1_545
Hg0_1 Hg0_3 2.863003 1_555
Hg0_1 Hg0_3 2.863003 1_545
Hg0_1 Hg0_7 2.863003 1_455
Hg0_1 Hg0_5 2.873532 1_555
Hg0_1 Hg0_5 2.873532 1_455
Hg0_2 Hg0_4 2.863003 1_465
Hg0_2 Hg0_4 2.863003 1_555
Hg0_2 Hg0_6 2.873532 1_555
Hg0_2 Hg0_6 2.873532 1_455
Hg0_3 Hg0_5 2.863003 1_465
Hg0_3 Hg0_5 2.863003 1_555
Hg0_3 Hg0_7 2.873532 1_555
Hg0_3 Hg0_7 2.873532 1_455
Hg0_4 Hg0_6 2.863003 1_555
Hg0_4 Hg0_6 2.863003 1_545
Hg0_5 Hg0_7 2.863003 1_545
Hg0_5 Hg0_7 2.863003 1_555
