# generated using pymatgen
data_Eu2VO4
_symmetry_space_group_name_H-M   'P 1'
_cell_length_a   3.81492180
_cell_length_b   3.81492477
_cell_length_c   6.77146417
_cell_angle_alpha   106.36116732
_cell_angle_beta   106.36115917
_cell_angle_gamma   90.00001271
_symmetry_Int_Tables_number   1
_chemical_formula_structural   Eu2VO4
_chemical_formula_sum   'Eu2 V1 O4'
_cell_volume   90.39193654
_cell_formula_units_Z   1
loop_
 _symmetry_equiv_pos_site_id
 _symmetry_equiv_pos_as_xyz
  1  'x, y, z'
loop_
 _atom_site_type_symbol
 _atom_site_label
 _atom_site_symmetry_multiplicity
 _atom_site_fract_x
 _atom_site_fract_y
 _atom_site_fract_z
 _atom_site_occupancy
  Eu  Eu0  1  0.64449933  0.64449833  0.28899866  1
  Eu  Eu1  1  0.35549829  0.35549929  0.71099759  1
  V  V0  1  0.00001260  0.00001260  0.00002519  1
  O  O0  1  0.83464639  0.83464739  0.66929278  1
  O  O1  1  0.16537545  0.16537645  0.33075190  1
  O  O2  1  0.99998447  0.49998247  0.99996694  1
  O  O3  1  0.49998447  0.99998347  0.99996694  1
loop_
_geom_bond_atom_site_label_1
_geom_bond_atom_site_label_2
_geom_bond_distance
_geom_bond_site_symmetry_2
Eu0 O0 2.361988 1_555
Eu0 O2 2.619351 1_454
Eu0 O3 2.619352 1_544
Eu0 O2 2.619356 1_554
Eu0 O3 2.619357 1_554
Eu0 O1 2.709989 1_655
Eu0 O1 2.709992 1_555
Eu0 O1 2.709997 1_665
Eu0 O1 2.710000 1_565
Eu1 O1 2.361687 1_555
Eu1 O2 2.619084 1_455
Eu1 O3 2.619088 1_555
Eu1 O3 2.619090 1_545
Eu1 O2 2.619092 1_555
Eu1 O0 2.709963 1_445
Eu1 O0 2.709966 1_455
Eu1 O0 2.709966 1_545
Eu1 O0 2.709968 1_555
O0 V0 2.054163 1_666
O1 V0 2.054127 1_555
O2 V0 1.907459 1_656
O2 V0 1.907466 1_666
O3 V0 1.907457 1_666
O3 V0 1.907465 1_566
