# generated using pymatgen
data_Ho2Zn17
_symmetry_space_group_name_H-M   'P 1'
_cell_length_a   9.06534200
_cell_length_b   9.06534160
_cell_length_c   8.65023200
_cell_angle_alpha   90.00000000
_cell_angle_beta   90.00000000
_cell_angle_gamma   120.00000147
_symmetry_Int_Tables_number   1
_chemical_formula_structural   Ho2Zn17
_chemical_formula_sum   'Ho4 Zn34'
_cell_volume   615.63988348
_cell_formula_units_Z   2
loop_
 _symmetry_equiv_pos_site_id
 _symmetry_equiv_pos_as_xyz
  1  'x, y, z'
loop_
 _atom_site_type_symbol
 _atom_site_label
 _atom_site_symmetry_multiplicity
 _atom_site_fract_x
 _atom_site_fract_y
 _atom_site_fract_z
 _atom_site_occupancy
  Ho  Ho0  1  0.00000000  0.00000000  0.25000000  1
  Ho  Ho1  1  0.00000000  0.00000000  0.75000000  1
  Ho  Ho2  1  0.33333300  0.66666700  0.75000000  1
  Ho  Ho3  1  0.66666700  0.33333300  0.25000000  1
  Zn  Zn0  1  0.33333300  0.66666700  0.40291700  1
  Zn  Zn1  1  0.66666700  0.33333300  0.59708300  1
  Zn  Zn2  1  0.66666700  0.33333300  0.90291700  1
  Zn  Zn3  1  0.33333300  0.66666700  0.09708300  1
  Zn  Zn4  1  0.50000000  0.50000000  0.50000000  1
  Zn  Zn5  1  0.50000000  0.00000000  0.50000000  1
  Zn  Zn6  1  0.00000000  0.50000000  0.50000000  1
  Zn  Zn7  1  0.50000000  0.50000000  0.00000000  1
  Zn  Zn8  1  0.50000000  0.00000000  0.00000000  1
  Zn  Zn9  1  0.00000000  0.50000000  0.00000000  1
  Zn  Zn10  1  0.32939400  0.36020300  0.25000000  1
  Zn  Zn11  1  0.63979700  0.96919100  0.25000000  1
  Zn  Zn12  1  0.03080900  0.67060600  0.25000000  1
  Zn  Zn13  1  0.63979700  0.67060600  0.25000000  1
  Zn  Zn14  1  0.03080900  0.36020300  0.25000000  1
  Zn  Zn15  1  0.32939400  0.96919100  0.25000000  1
  Zn  Zn16  1  0.67060600  0.63979700  0.75000000  1
  Zn  Zn17  1  0.36020300  0.03080900  0.75000000  1
  Zn  Zn18  1  0.96919100  0.32939400  0.75000000  1
  Zn  Zn19  1  0.36020300  0.32939400  0.75000000  1
  Zn  Zn20  1  0.96919100  0.63979700  0.75000000  1
  Zn  Zn21  1  0.67060600  0.03080900  0.75000000  1
  Zn  Zn22  1  0.16120200  0.83879800  0.51686400  1
  Zn  Zn23  1  0.16120200  0.32240300  0.51686400  1
  Zn  Zn24  1  0.67759700  0.83879800  0.51686400  1
  Zn  Zn25  1  0.83879800  0.16120200  0.48313600  1
  Zn  Zn26  1  0.83879800  0.67759700  0.48313600  1
  Zn  Zn27  1  0.32240300  0.16120200  0.48313600  1
  Zn  Zn28  1  0.83879800  0.16120200  0.01686400  1
  Zn  Zn29  1  0.83879800  0.67759700  0.01686400  1
  Zn  Zn30  1  0.32240300  0.16120200  0.01686400  1
  Zn  Zn31  1  0.16120200  0.83879800  0.98313600  1
  Zn  Zn32  1  0.16120200  0.32240300  0.98313600  1
  Zn  Zn33  1  0.67759700  0.83879800  0.98313600  1
loop_
_geom_bond_atom_site_label_1
_geom_bond_atom_site_label_2
_geom_bond_distance
_geom_bond_site_symmetry_2
Ho0 Zn14 3.135061 1_555
Ho0 Zn10 3.135061 1_555
Ho0 Zn12 3.135061 1_545
Ho0 Zn13 3.135061 1_445
Ho0 Zn15 3.135061 1_545
Ho0 Zn11 3.135061 1_445
Ho0 Zn29 3.236295 1_445
Ho0 Zn26 3.236295 1_445
Ho0 Zn30 3.236295 1_555
Ho0 Zn27 3.236295 1_555
Ho0 Zn25 3.236301 1_455
Ho0 Zn28 3.236301 1_455
Ho0 Zn23 3.425708 1_555
Ho0 Zn32 3.425708 1_554
Ho0 Zn33 3.425708 1_444
Ho0 Zn24 3.425708 1_445
Ho0 Zn22 3.425714 1_545
Ho0 Zn31 3.425714 1_544
Ho1 Zn16 3.135061 1_445
Ho1 Zn20 3.135061 1_445
Ho1 Zn19 3.135061 1_555
Ho1 Zn18 3.135061 1_455
Ho1 Zn21 3.135061 1_455
Ho1 Zn17 3.135061 1_555
Ho1 Zn23 3.236295 1_555
Ho1 Zn32 3.236295 1_555
Ho1 Zn24 3.236295 1_445
Ho1 Zn33 3.236295 1_445
Ho1 Zn22 3.236301 1_545
Ho1 Zn31 3.236301 1_545
Ho1 Zn26 3.425708 1_445
Ho1 Zn29 3.425708 1_446
Ho1 Zn27 3.425708 1_555
Ho1 Zn30 3.425708 1_556
Ho1 Zn28 3.425714 1_456
Ho1 Zn25 3.425714 1_455
Ho2 Zn0 3.002348 1_555
Ho2 Zn3 3.002348 1_556
Ho2 Zn17 3.186270 1_565
Ho2 Zn20 3.186270 1_455
Ho2 Zn21 3.186274 1_565
Ho2 Zn18 3.186274 1_455
Ho2 Zn19 3.186279 1_555
Ho2 Zn16 3.186279 1_555
Ho2 Zn31 3.372209 1_555
Ho2 Zn22 3.372209 1_555
Ho2 Zn32 3.372221 1_555
Ho2 Zn23 3.372221 1_555
Ho2 Zn24 3.372221 1_555
Ho2 Zn33 3.372221 1_555
Ho2 Zn8 3.394851 1_566
Ho2 Zn5 3.394851 1_565
Ho2 Zn6 3.394851 1_555
Ho2 Zn9 3.394851 1_556
Ho2 Zn7 3.394857 1_556
Ho2 Zn4 3.394857 1_555
Ho3 Zn2 3.002348 1_554
Ho3 Zn1 3.002348 1_555
Ho3 Zn11 3.186270 1_545
Ho3 Zn14 3.186270 1_655
Ho3 Zn15 3.186274 1_545
Ho3 Zn12 3.186274 1_655
Ho3 Zn13 3.186279 1_555
Ho3 Zn10 3.186279 1_555
Ho3 Zn25 3.372209 1_555
Ho3 Zn28 3.372209 1_555
Ho3 Zn26 3.372221 1_555
Ho3 Zn29 3.372221 1_555
Ho3 Zn30 3.372221 1_555
Ho3 Zn27 3.372221 1_555
Ho3 Zn5 3.394851 1_555
Ho3 Zn8 3.394851 1_555
Ho3 Zn9 3.394851 1_655
Ho3 Zn6 3.394851 1_655
Ho3 Zn7 3.394857 1_555
Ho3 Zn4 3.394857 1_555
Zn0 Zn3 2.645535 1_555
Zn0 Zn5 2.748382 1_565
Zn0 Zn6 2.748382 1_555
Zn0 Zn4 2.748389 1_555
Zn0 Zn22 2.876862 1_555
Zn0 Zn23 2.876876 1_555
Zn0 Zn24 2.876876 1_555
Zn0 Zn15 3.061067 1_555
Zn0 Zn12 3.061068 1_555
Zn0 Zn14 3.061072 1_555
Zn0 Zn11 3.061072 1_555
Zn0 Zn10 3.061076 1_555
Zn0 Zn13 3.061076 1_555
Zn1 Zn2 2.645535 1_555
Zn1 Zn5 2.748382 1_555
Zn1 Zn6 2.748382 1_655
Zn1 Zn4 2.748389 1_555
Zn1 Zn25 2.876862 1_555
Zn1 Zn26 2.876876 1_555
Zn1 Zn27 2.876876 1_555
Zn1 Zn21 3.061067 1_555
Zn1 Zn18 3.061068 1_555
Zn1 Zn20 3.061072 1_555
Zn1 Zn17 3.061072 1_555
Zn1 Zn16 3.061076 1_555
Zn1 Zn19 3.061076 1_555
Zn2 Zn8 2.748382 1_556
Zn2 Zn9 2.748382 1_656
Zn2 Zn7 2.748389 1_556
Zn2 Zn28 2.876862 1_556
Zn2 Zn29 2.876876 1_556
Zn2 Zn30 2.876876 1_556
Zn2 Zn21 3.061067 1_555
Zn2 Zn20 3.061072 1_555
Zn3 Zn8 2.748382 1_565
Zn3 Zn9 2.748382 1_555
Zn3 Zn7 2.748389 1_555
Zn3 Zn31 2.876862 1_554
Zn3 Zn32 2.876876 1_554
Zn3 Zn33 2.876876 1_554
Zn10 Zn7 2.591270 1_555
Zn10 Zn4 2.591270 1_555
Zn10 Zn30 2.685358 1_555
Zn10 Zn27 2.685358 1_555
Zn10 Zn32 2.692320 1_554
Zn10 Zn23 2.692320 1_555
Zn10 Zn14 2.706775 1_555
Zn10 Zn13 2.813909 1_555
Zn10 Zn3 3.061076 1_555
Zn11 Zn5 2.591270 1_565
Zn11 Zn8 2.591270 1_565
Zn11 Zn28 2.685360 1_565
Zn11 Zn25 2.685360 1_565
Zn11 Zn24 2.692325 1_555
Zn11 Zn33 2.692325 1_554
Zn11 Zn13 2.706775 1_555
Zn11 Zn15 2.813909 1_555
Zn11 Zn3 3.061072 1_555
Zn12 Zn9 2.591270 1_555
Zn12 Zn6 2.591270 1_555
Zn12 Zn29 2.685364 1_455
Zn12 Zn26 2.685364 1_455
Zn12 Zn22 2.692321 1_555
Zn12 Zn31 2.692321 1_554
Zn12 Zn15 2.706775 1_555
Zn12 Zn14 2.813909 1_555
Zn12 Zn3 3.061068 1_555
Zn13 Zn7 2.591270 1_555
Zn13 Zn4 2.591270 1_555
Zn13 Zn26 2.685358 1_555
Zn13 Zn29 2.685358 1_555
Zn13 Zn24 2.692320 1_555
Zn13 Zn33 2.692320 1_554
Zn13 Zn3 3.061076 1_555
Zn14 Zn9 2.591270 1_555
Zn14 Zn6 2.591270 1_555
Zn14 Zn25 2.685360 1_455
Zn14 Zn28 2.685360 1_455
Zn14 Zn32 2.692325 1_554
Zn14 Zn23 2.692325 1_555
Zn14 Zn3 3.061072 1_555
Zn15 Zn5 2.591270 1_565
Zn15 Zn8 2.591270 1_565
Zn15 Zn30 2.685364 1_565
Zn15 Zn27 2.685364 1_565
Zn15 Zn22 2.692321 1_555
Zn15 Zn31 2.692321 1_554
Zn15 Zn3 3.061067 1_555
Zn16 Zn7 2.591270 1_556
Zn16 Zn4 2.591270 1_555
Zn16 Zn24 2.685358 1_555
Zn16 Zn33 2.685358 1_555
Zn16 Zn26 2.692320 1_555
Zn16 Zn29 2.692320 1_556
Zn16 Zn20 2.706775 1_555
Zn16 Zn19 2.813909 1_555
Zn16 Zn2 3.061076 1_555
Zn17 Zn5 2.591270 1_555
Zn17 Zn8 2.591270 1_556
Zn17 Zn22 2.685360 1_545
Zn17 Zn31 2.685360 1_545
Zn17 Zn30 2.692325 1_556
Zn17 Zn27 2.692325 1_555
Zn17 Zn19 2.706775 1_555
Zn17 Zn21 2.813909 1_555
Zn17 Zn2 3.061072 1_555
Zn18 Zn6 2.591270 1_655
Zn18 Zn9 2.591270 1_656
Zn18 Zn23 2.685364 1_655
Zn18 Zn32 2.685364 1_655
Zn18 Zn25 2.692321 1_555
Zn18 Zn28 2.692321 1_556
Zn18 Zn21 2.706775 1_555
Zn18 Zn20 2.813909 1_555
Zn18 Zn2 3.061068 1_555
Zn19 Zn7 2.591270 1_556
Zn19 Zn4 2.591270 1_555
Zn19 Zn23 2.685358 1_555
Zn19 Zn32 2.685358 1_555
Zn19 Zn30 2.692320 1_556
Zn19 Zn27 2.692320 1_555
Zn19 Zn2 3.061076 1_555
Zn20 Zn9 2.591270 1_656
Zn20 Zn6 2.591270 1_655
Zn20 Zn31 2.685360 1_655
Zn20 Zn22 2.685360 1_655
Zn20 Zn29 2.692325 1_556
Zn20 Zn26 2.692325 1_555
Zn21 Zn8 2.591270 1_556
Zn21 Zn5 2.591270 1_555
Zn21 Zn24 2.685364 1_545
Zn21 Zn33 2.685364 1_545
Zn21 Zn25 2.692321 1_555
Zn21 Zn28 2.692321 1_556
Zn22 Zn27 2.547894 1_565
Zn22 Zn26 2.547894 1_455
Zn22 Zn6 2.664874 1_555
Zn22 Zn5 2.664874 1_565
Zn23 Zn27 2.547878 1_555
Zn23 Zn25 2.547894 1_455
Zn23 Zn4 2.664875 1_555
Zn23 Zn6 2.664882 1_555
Zn24 Zn26 2.547878 1_555
Zn24 Zn25 2.547894 1_565
Zn24 Zn4 2.664875 1_555
Zn24 Zn5 2.664882 1_565
Zn25 Zn6 2.664874 1_655
Zn25 Zn5 2.664874 1_555
Zn26 Zn4 2.664875 1_555
Zn26 Zn6 2.664882 1_655
Zn27 Zn4 2.664875 1_555
Zn27 Zn5 2.664882 1_555
Zn28 Zn33 2.547894 1_544
Zn28 Zn32 2.547894 1_654
Zn28 Zn9 2.664874 1_655
Zn28 Zn8 2.664874 1_555
Zn29 Zn33 2.547878 1_554
Zn29 Zn31 2.547894 1_654
Zn29 Zn7 2.664875 1_555
Zn29 Zn9 2.664882 1_655
Zn30 Zn32 2.547878 1_554
Zn30 Zn31 2.547894 1_544
Zn30 Zn7 2.664875 1_555
Zn30 Zn8 2.664882 1_555
Zn31 Zn9 2.664874 1_556
Zn31 Zn8 2.664874 1_566
Zn32 Zn7 2.664875 1_556
Zn32 Zn9 2.664882 1_556
Zn33 Zn7 2.664875 1_556
Zn33 Zn8 2.664882 1_566
