# generated using pymatgen
data_LiSn
_symmetry_space_group_name_H-M   'P 1'
_cell_length_a   4.42796245
_cell_length_b   4.42849859
_cell_length_c   13.22088552
_cell_angle_alpha   99.76776242
_cell_angle_beta   99.76787900
_cell_angle_gamma   90.11584441
_symmetry_Int_Tables_number   1
_chemical_formula_structural   LiSn
_chemical_formula_sum   'Li6 Sn6'
_cell_volume   251.66256428
_cell_formula_units_Z   6
loop_
 _symmetry_equiv_pos_site_id
 _symmetry_equiv_pos_as_xyz
  1  'x, y, z'
loop_
 _atom_site_type_symbol
 _atom_site_label
 _atom_site_symmetry_multiplicity
 _atom_site_fract_x
 _atom_site_fract_y
 _atom_site_fract_z
 _atom_site_occupancy
  Li  Li0  1  0.03763888  0.78802130  0.57557973  1
  Li  Li1  1  0.28801563  0.53764302  0.07555018  1
  Li  Li2  1  0.96236112  0.21197770  0.42441927  1
  Li  Li3  1  0.71198437  0.46235798  0.92444982  1
  Li  Li4  1  0.12502051  0.37491097  0.75001830  1
  Li  Li5  1  0.87497949  0.62508903  0.24998170  1
  Sn  Sn0  1  0.62476474  0.87540241  0.75017795  1
  Sn  Sn1  1  0.37523526  0.12459759  0.24982205  1
  Sn  Sn2  1  0.20395888  0.95479797  0.90817902  1
  Sn  Sn3  1  0.45469555  0.70387530  0.40803870  1
  Sn  Sn4  1  0.79604112  0.04520203  0.09182198  1
  Sn  Sn5  1  0.54530345  0.29612370  0.59196130  1
loop_
_geom_bond_atom_site_label_1
_geom_bond_atom_site_label_2
_geom_bond_distance
_geom_bond_site_symmetry_2
Li0 Li2 2.941655 1_455
Li0 Li2 2.946118 1_465
Li0 Sn3 3.079628 1_455
Li0 Sn3 3.092943 1_555
Li0 Sn5 3.132432 1_565
Li0 Sn5 3.137812 1_455
Li0 Sn5 3.140067 1_555
Li0 Sn5 3.142812 1_465
Li0 Li4 3.143685 1_565
Li0 Sn0 3.145404 1_555
Li0 Li4 3.153889 1_555
Li0 Sn0 3.154708 1_455
Li1 Li3 2.940971 1_454
Li1 Li3 2.945381 1_554
Li1 Sn2 3.078295 1_544
Li1 Sn2 3.091624 1_554
Li1 Sn4 3.132116 1_565
Li1 Sn4 3.137940 1_455
Li1 Sn4 3.139890 1_465
Li1 Sn1 3.142628 1_565
Li1 Sn4 3.142802 1_555
Li1 Li5 3.143637 1_555
Li1 Sn1 3.151905 1_555
Li1 Li5 3.153430 1_455
Li2 Sn5 3.079632 1_655
Li2 Sn5 3.092957 1_555
Li2 Sn3 3.132438 1_545
Li2 Sn3 3.137805 1_655
Li2 Sn3 3.140070 1_555
Li2 Sn3 3.142808 1_645
Li2 Li5 3.143675 1_545
Li2 Sn1 3.145396 1_555
Li2 Li5 3.153882 1_555
Li2 Sn1 3.154697 1_655
Li3 Sn4 3.078299 1_566
Li3 Sn4 3.091638 1_556
Li3 Sn2 3.132121 1_545
Li3 Sn2 3.137933 1_655
Li3 Sn2 3.139893 1_645
Li3 Sn0 3.142631 1_545
Li3 Sn2 3.142798 1_555
Li3 Li4 3.143637 1_555
Li3 Sn0 3.151902 1_555
Li3 Li4 3.153430 1_655
Li4 Sn5 3.001097 1_455
Li4 Sn2 3.002611 1_555
Li4 Sn5 3.004409 1_555
Li4 Sn2 3.005088 1_545
Li4 Sn0 3.127836 1_445
Li4 Sn0 3.128297 1_555
Li4 Sn0 3.132054 1_545
Li4 Sn0 3.136738 1_455
Li5 Sn3 3.001094 1_655
Li5 Sn4 3.002604 1_555
Li5 Sn3 3.004412 1_555
Li5 Sn4 3.005077 1_565
Li5 Sn1 3.127836 1_665
Li5 Sn1 3.128297 1_555
Li5 Sn1 3.132054 1_565
Li5 Sn1 3.136738 1_655
Sn0 Sn2 2.998990 1_655
Sn0 Sn5 3.001012 1_555
Sn0 Sn2 3.005540 1_555
Sn0 Sn5 3.007651 1_565
Sn1 Sn4 2.998983 1_455
Sn1 Sn3 3.001009 1_555
Sn1 Sn4 3.005529 1_555
Sn1 Sn3 3.007655 1_545
