# generated using pymatgen
data_Li3Co2O5
_symmetry_space_group_name_H-M   'P 1'
_cell_length_a   5.04625000
_cell_length_b   5.10060991
_cell_length_c   7.68498388
_cell_angle_alpha   82.66033493
_cell_angle_beta   72.95011196
_cell_angle_gamma   71.17761410
_symmetry_Int_Tables_number   1
_chemical_formula_structural   Li3Co2O5
_chemical_formula_sum   'Li6 Co4 O10'
_cell_volume   178.87679320
_cell_formula_units_Z   2
loop_
 _symmetry_equiv_pos_site_id
 _symmetry_equiv_pos_as_xyz
  1  'x, y, z'
loop_
 _atom_site_type_symbol
 _atom_site_label
 _atom_site_symmetry_multiplicity
 _atom_site_fract_x
 _atom_site_fract_y
 _atom_site_fract_z
 _atom_site_occupancy
  Li  Li0  1  0.00000000  0.50000000  0.50000000  1
  Li  Li1  1  0.59615200  0.49987200  0.30345500  1
  Li  Li2  1  0.20156600  0.49895100  0.10078900  1
  Li  Li3  1  0.79843400  0.50104900  0.89921100  1
  Li  Li4  1  0.40384800  0.50012800  0.69654500  1
  Li  Li5  1  0.50000000  0.00000000  0.50000000  1
  Co  Co0  1  0.89699000  0.99782500  0.69568000  1
  Co  Co1  1  0.10301000  0.00217500  0.30432000  1
  Co  Co2  1  0.69491200  0.99819200  0.10463400  1
  Co  Co3  1  0.30508800  0.00180800  0.89536600  1
  O  O0  1  0.66035600  0.77910900  0.70650400  1
  O  O1  1  0.22844800  0.76749500  0.49058700  1
  O  O2  1  0.86408300  0.77831800  0.28855100  1
  O  O3  1  0.44235600  0.76497900  0.09599800  1
  O  O4  1  0.03938800  0.77337000  0.88961600  1
  O  O5  1  0.33964400  0.22089100  0.29349600  1
  O  O6  1  0.96061200  0.22663000  0.11038400  1
  O  O7  1  0.55764400  0.23502100  0.90400200  1
  O  O8  1  0.13591700  0.22168200  0.71144900  1
  O  O9  1  0.77155200  0.23250500  0.50941300  1
loop_
_geom_bond_atom_site_label_1
_geom_bond_atom_site_label_2
_geom_bond_distance
_geom_bond_site_symmetry_2
Li0 O1 2.033853 1_555
Li0 O9 2.033853 1_455
Li0 O8 2.135914 1_555
Li0 O2 2.135914 1_455
Li0 O0 2.211458 1_455
Li0 O5 2.211458 1_555
Li1 O3 2.114279 1_555
Li1 O9 2.153960 1_555
Li1 O1 2.162602 1_555
Li1 O6 2.191018 1_555
Li1 O2 2.228215 1_555
Li1 O5 2.231734 1_555
Li2 O5 2.030024 1_555
Li2 O3 2.084197 1_555
Li2 O6 2.103396 1_455
Li2 O2 2.128680 1_455
Li2 O7 2.166524 1_554
Li2 O4 2.172994 1_554
Li3 O0 2.030024 1_555
Li3 O7 2.084197 1_555
Li3 O4 2.103396 1_655
Li3 O8 2.128680 1_655
Li3 O3 2.166524 1_556
Li3 O6 2.172994 1_556
Li4 O7 2.114279 1_555
Li4 O1 2.153960 1_555
Li4 O9 2.162602 1_555
Li4 O4 2.191018 1_555
Li4 O8 2.228215 1_555
Li4 O0 2.231734 1_555
Li5 O5 2.037308 1_555
Li5 O0 2.037308 1_545
Li5 O9 2.101922 1_555
Li5 O1 2.101922 1_545
Li5 O2 2.161671 1_545
Li5 O8 2.161671 1_555
Co0 O0 1.858760 1_555
Co0 O9 1.867409 1_565
Co0 O4 1.926018 1_655
Co0 O8 1.944592 1_665
Co0 O1 2.078766 1_655
Co0 O7 2.123571 1_565
Co1 O5 1.858760 1_555
Co1 O1 1.867409 1_545
Co1 O6 1.926018 1_455
Co1 O2 1.944592 1_445
Co1 O9 2.078766 1_455
Co1 O3 2.123571 1_545
Co2 O2 1.915459 1_555
Co2 O7 1.981620 1_564
Co2 O3 2.022780 1_555
Co2 O5 2.047489 1_565
Co2 O6 2.052625 1_565
Co2 O4 2.140245 1_654
Co3 O8 1.915459 1_555
Co3 O3 1.981620 1_546
Co3 O7 2.022780 1_555
Co3 O0 2.047489 1_545
Co3 O4 2.052625 1_545
Co3 O6 2.140245 1_456
