# generated using pymatgen
data_NaTl
_symmetry_space_group_name_H-M   'P 1'
_cell_length_a   9.57702083
_cell_length_b   9.57702083
_cell_length_c   7.66829380
_cell_angle_alpha   90.00000000
_cell_angle_beta   90.00000000
_cell_angle_gamma   92.80333370
_symmetry_Int_Tables_number   1
_chemical_formula_structural   NaTl
_chemical_formula_sum   'Na12 Tl12'
_cell_volume   702.48907411
_cell_formula_units_Z   12
loop_
 _symmetry_equiv_pos_site_id
 _symmetry_equiv_pos_as_xyz
  1  'x, y, z'
loop_
 _atom_site_type_symbol
 _atom_site_label
 _atom_site_symmetry_multiplicity
 _atom_site_fract_x
 _atom_site_fract_y
 _atom_site_fract_z
 _atom_site_occupancy
  Na  Na0  1  0.94177797  0.55822203  0.25000000  1
  Na  Na1  1  0.55822203  0.94177797  0.75000000  1
  Na  Na2  1  0.05822203  0.44177797  0.75000000  1
  Na  Na3  1  0.44177797  0.05822203  0.25000000  1
  Na  Na4  1  0.15618803  0.15618803  0.00000000  1
  Na  Na5  1  0.65618803  0.65618803  0.50000000  1
  Na  Na6  1  0.84381197  0.84381197  0.00000000  1
  Na  Na7  1  0.34381197  0.34381197  0.50000000  1
  Na  Na8  1  0.21087754  0.78912246  0.93923173  1
  Na  Na9  1  0.78912246  0.21087754  0.06076827  1
  Na  Na10  1  0.28912346  0.71087754  0.43923173  1
  Na  Na11  1  0.71087754  0.28912346  0.56076827  1
  Tl  Tl0  1  0.24963834  0.47213116  0.11966938  1
  Tl  Tl1  1  0.47213116  0.24963834  0.88033062  1
  Tl  Tl2  1  0.97213116  0.74963834  0.61966938  1
  Tl  Tl3  1  0.74963834  0.97213116  0.38033062  1
  Tl  Tl4  1  0.75036166  0.52786884  0.88033062  1
  Tl  Tl5  1  0.52786884  0.75036166  0.11966938  1
  Tl  Tl6  1  0.02786884  0.25036166  0.38033062  1
  Tl  Tl7  1  0.25036166  0.02786884  0.61966938  1
  Tl  Tl8  1  0.56734092  0.43265908  0.20587138  1
  Tl  Tl9  1  0.43265908  0.56734092  0.79412862  1
  Tl  Tl10  1  0.93265908  0.06734092  0.70587138  1
  Tl  Tl11  1  0.06734092  0.93265908  0.29412862  1
loop_
_geom_bond_atom_site_label_1
_geom_bond_atom_site_label_2
_geom_bond_distance
_geom_bond_site_symmetry_2
Na0 Tl0 3.257204 1_655
Na0 Tl6 3.257204 1_655
Na0 Tl4 3.380637 1_554
Na0 Tl2 3.380637 1_555
Na0 Na5 3.505313 1_555
Na0 Na6 3.505313 1_555
Na0 Na9 3.851377 1_555
Na0 Na10 3.851385 1_655
Na1 Tl7 3.257204 1_565
Na1 Tl1 3.257204 1_565
Na1 Tl5 3.380637 1_556
Na1 Tl3 3.380637 1_555
Na1 Na5 3.505313 1_555
Na1 Na6 3.505313 1_556
Na1 Na8 3.851377 1_555
Na1 Na11 3.851385 1_565
Na2 Tl4 3.257204 1_455
Na2 Tl2 3.257204 1_455
Na2 Tl0 3.380637 1_556
Na2 Tl6 3.380637 1_555
Na2 Na7 3.505313 1_555
Na2 Na4 3.505313 1_556
Na2 Na8 3.851377 1_555
Na3 Tl5 3.257204 1_545
Na3 Tl3 3.257204 1_545
Na3 Tl1 3.380637 1_554
Na3 Tl7 3.380637 1_555
Na3 Na4 3.505313 1_555
Na3 Na7 3.505313 1_555
Na3 Na9 3.851377 1_555
Na4 Tl10 3.196206 1_454
Na4 Tl11 3.196206 1_545
Na4 Tl1 3.245554 1_554
Na4 Tl0 3.245554 1_555
Na4 Tl7 3.307261 1_554
Na4 Tl6 3.307261 1_555
Na4 Na8 3.609650 1_544
Na4 Na9 3.609650 1_455
Na5 Tl8 3.196206 1_555
Na5 Tl9 3.196206 1_555
Na5 Tl3 3.245554 1_555
Na5 Tl2 3.245554 1_555
Na5 Tl5 3.307261 1_555
Na5 Tl4 3.307261 1_555
Na6 Tl11 3.196206 1_655
Na6 Tl10 3.196206 1_564
Na6 Tl4 3.245554 1_554
Na6 Tl5 3.245554 1_555
Na6 Tl3 3.307261 1_555
Na6 Tl2 3.307261 1_554
Na6 Na8 3.609650 1_654
Na6 Na9 3.609650 1_565
Na7 Tl8 3.196206 1_555
Na7 Tl9 3.196206 1_555
Na7 Tl6 3.245554 1_555
Na7 Tl7 3.245554 1_555
Na7 Tl0 3.307261 1_555
Na7 Tl1 3.307261 1_555
Na8 Tl9 3.271419 1_555
Na8 Tl2 3.360260 1_455
Na8 Tl7 3.360260 1_565
Na8 Tl11 3.372016 1_556
Na8 Tl0 3.373247 1_556
Na8 Tl5 3.373247 1_556
Na9 Tl8 3.271419 1_555
Na9 Tl3 3.360260 1_545
Na9 Tl6 3.360260 1_655
Na9 Tl10 3.372016 1_554
Na9 Tl1 3.373247 1_554
Na9 Tl4 3.373247 1_554
Na10 Tl11 3.271425 1_555
Na10 Tl5 3.360253 1_555
Na10 Tl0 3.360260 1_555
Na10 Tl9 3.372012 1_555
Na10 Tl7 3.373248 1_565
Na10 Tl2 3.373255 1_455
Na10 Na5 3.609641 1_555
Na10 Na7 3.609648 1_555
Na10 Na3 3.851374 1_565
Na11 Tl10 3.271425 1_555
Na11 Tl4 3.360253 1_555
Na11 Tl1 3.360260 1_555
Na11 Tl8 3.372012 1_555
Na11 Tl6 3.373248 1_655
Na11 Tl3 3.373255 1_545
Na11 Na5 3.609641 1_555
Na11 Na7 3.609648 1_555
Na11 Na2 3.851374 1_655
Tl0 Tl8 3.154369 1_555
Tl0 Tl9 3.158972 1_554
Tl1 Tl9 3.154369 1_555
Tl1 Tl8 3.158972 1_556
Tl4 Tl9 3.154369 1_555
Tl4 Tl8 3.158972 1_556
Tl5 Tl8 3.154369 1_555
Tl5 Tl9 3.158972 1_554
Tl10 Tl2 3.154369 1_545
Tl10 Tl7 3.154369 1_655
Tl10 Tl3 3.158972 1_545
Tl10 Tl6 3.158972 1_655
Tl11 Tl3 3.154369 1_455
Tl11 Tl6 3.154369 1_565
Tl11 Tl2 3.158972 1_455
Tl11 Tl7 3.158972 1_565
