# generated using pymatgen
data_La3RuBr3
_symmetry_space_group_name_H-M   'P 1'
_cell_length_a   10.57664528
_cell_length_b   10.57664528
_cell_length_c   10.57664528
_cell_angle_alpha   109.47122063
_cell_angle_beta   109.47122063
_cell_angle_gamma   109.47122063
_symmetry_Int_Tables_number   1
_chemical_formula_structural   La3RuBr3
_chemical_formula_sum   'La12 Ru4 Br12'
_cell_volume   910.79770365
_cell_formula_units_Z   4
loop_
 _symmetry_equiv_pos_site_id
 _symmetry_equiv_pos_as_xyz
  1  'x, y, z'
loop_
 _atom_site_type_symbol
 _atom_site_label
 _atom_site_symmetry_multiplicity
 _atom_site_fract_x
 _atom_site_fract_y
 _atom_site_fract_z
 _atom_site_occupancy
  La  La0  1  0.26569700  0.75000000  0.23430300  1
  La  La1  1  0.48430300  0.75000000  0.01569700  1
  La  La2  1  0.23430300  0.46860500  0.48430300  1
  La  La3  1  0.01569700  0.03139500  0.26569700  1
  La  La4  1  0.23430300  0.26569700  0.75000000  1
  La  La5  1  0.01569700  0.48430300  0.75000000  1
  La  La6  1  0.48430300  0.23430300  0.46860500  1
  La  La7  1  0.26569700  0.01569700  0.03139500  1
  La  La8  1  0.75000000  0.23430300  0.26569700  1
  La  La9  1  0.75000000  0.01569700  0.48430300  1
  La  La10  1  0.46860500  0.48430300  0.23430300  1
  La  La11  1  0.03139500  0.26569700  0.01569700  1
  Ru  Ru0  1  0.50000000  0.00000000  0.25000000  1
  Ru  Ru1  1  0.25000000  0.50000000  0.00000000  1
  Ru  Ru2  1  0.00000000  0.25000000  0.50000000  1
  Ru  Ru3  1  0.25000000  0.25000000  0.25000000  1
  Br  Br0  1  0.25000000  0.99319500  0.50680500  1
  Br  Br1  1  0.51361100  0.50680500  0.75680500  1
  Br  Br2  1  0.25000000  0.75680500  0.74319500  1
  Br  Br3  1  0.98638900  0.74319500  0.99319500  1
  Br  Br4  1  0.99319500  0.50680500  0.25000000  1
  Br  Br5  1  0.74319500  0.99319500  0.98638900  1
  Br  Br6  1  0.75680500  0.74319500  0.25000000  1
  Br  Br7  1  0.50680500  0.75680500  0.51361100  1
  Br  Br8  1  0.50680500  0.25000000  0.99319500  1
  Br  Br9  1  0.75680500  0.51361100  0.50680500  1
  Br  Br10  1  0.74319500  0.25000000  0.75680500  1
  Br  Br11  1  0.99319500  0.98638900  0.74319500  1
loop_
_geom_bond_atom_site_label_1
_geom_bond_atom_site_label_2
_geom_bond_distance
_geom_bond_site_symmetry_2
La0 Ru1 2.867924 1_555
La0 Ru0 2.867924 1_565
La1 Ru1 2.867924 1_555
La1 Ru0 2.867924 1_565
La2 Ru2 2.867918 1_555
La2 Ru3 2.867918 1_555
La3 Ru2 2.867918 1_555
La3 Ru3 2.867918 1_555
La4 Ru1 2.867924 1_556
La4 Ru2 2.867924 1_555
La5 Ru2 2.867924 1_555
La5 Ru1 2.867924 1_556
La6 Ru3 2.867918 1_555
La6 Ru0 2.867918 1_555
La7 Ru0 2.867918 1_555
La7 Ru3 2.867918 1_555
La8 Ru2 2.867924 1_655
La8 Ru0 2.867924 1_555
La9 Ru0 2.867924 1_555
La9 Ru2 2.867924 1_655
La10 Ru3 2.867918 1_555
La10 Ru1 2.867918 1_555
La11 Ru1 2.867918 1_555
La11 Ru3 2.867918 1_555
Br0 La6 3.154178 1_565
Br0 La3 3.154178 1_565
Br0 La0 3.257596 1_555
Br0 La4 3.257596 1_565
Br1 La2 3.154172 1_555
Br1 La4 3.154178 1_555
Br1 La6 3.257597 1_555
Br1 La1 3.257603 1_556
Br2 La1 3.154171 1_556
Br2 La5 3.154171 1_555
Br2 La2 3.257603 1_555
Br2 La7 3.257603 1_566
Br3 La7 3.154172 1_666
Br3 La0 3.154178 1_656
Br3 La3 3.257597 1_666
Br3 La5 3.257603 1_655
Br4 La2 3.154178 1_655
Br4 La11 3.154178 1_655
Br4 La8 3.257596 1_555
Br4 La0 3.257596 1_655
Br5 La3 3.154172 1_666
Br5 La8 3.154178 1_566
Br5 La11 3.257597 1_666
Br5 La1 3.257603 1_556
Br6 La1 3.154171 1_555
Br6 La9 3.154171 1_565
Br6 La10 3.257603 1_555
Br6 La3 3.257603 1_665
Br7 La10 3.154172 1_555
Br7 La0 3.154178 1_555
Br7 La2 3.257597 1_555
Br7 La9 3.257603 1_565
Br8 La10 3.154178 1_556
Br8 La7 3.154178 1_556
Br8 La4 3.257596 1_555
Br8 La8 3.257596 1_556
Br9 La6 3.154172 1_555
Br9 La8 3.154178 1_555
Br9 La10 3.257597 1_555
Br9 La5 3.257603 1_655
Br10 La9 3.154171 1_555
Br10 La5 3.154171 1_655
Br10 La6 3.257603 1_555
Br10 La11 3.257603 1_656
Br11 La11 3.154172 1_666
Br11 La4 3.154178 1_665
Br11 La7 3.257597 1_666
Br11 La9 3.257603 1_565
