# generated using pymatgen
data_Si2WO6
_symmetry_space_group_name_H-M   'P 1'
_cell_length_a   6.74695490
_cell_length_b   6.74695490
_cell_length_c   5.44042835
_cell_angle_alpha   75.24900574
_cell_angle_beta   75.24900574
_cell_angle_gamma   86.24068213
_symmetry_Int_Tables_number   1
_chemical_formula_structural   Si2WO6
_chemical_formula_sum   'Si4 W2 O12'
_cell_volume   231.60014011
_cell_formula_units_Z   2
loop_
 _symmetry_equiv_pos_site_id
 _symmetry_equiv_pos_as_xyz
  1  'x, y, z'
loop_
 _atom_site_type_symbol
 _atom_site_label
 _atom_site_symmetry_multiplicity
 _atom_site_fract_x
 _atom_site_fract_y
 _atom_site_fract_z
 _atom_site_occupancy
  Si  Si0  1  0.77524600  0.61259800  0.75695700  1
  Si  Si1  1  0.38740200  0.22475400  0.74304300  1
  Si  Si2  1  0.61259800  0.77524600  0.25695700  1
  Si  Si3  1  0.22475400  0.38740200  0.24304300  1
  W  W0  1  0.89378300  0.10621700  0.75000000  1
  W  W1  1  0.10621700  0.89378300  0.25000000  1
  O  O0  1  0.64343300  0.63761100  0.53728300  1
  O  O1  1  0.36238900  0.35656700  0.96271700  1
  O  O2  1  0.35656700  0.36238900  0.46271700  1
  O  O3  1  0.63761100  0.64343300  0.03728300  1
  O  O4  1  0.88709400  0.39296700  0.79592800  1
  O  O5  1  0.60703300  0.11290600  0.70407200  1
  O  O6  1  0.11290600  0.60703300  0.20407200  1
  O  O7  1  0.39296700  0.88709400  0.29592800  1
  O  O8  1  0.81138000  0.94186800  0.13900300  1
  O  O9  1  0.05813200  0.18862000  0.36099700  1
  O  O10  1  0.94186800  0.81138000  0.63900300  1
  O  O11  1  0.18862000  0.05813200  0.86099700  1
loop_
_geom_bond_atom_site_label_1
_geom_bond_atom_site_label_2
_geom_bond_distance
_geom_bond_site_symmetry_2
O0 Si2 1.626827 1_555
O0 Si0 1.632965 1_555
O1 Si3 1.626827 1_556
O1 Si1 1.632965 1_555
O2 Si1 1.626827 1_555
O2 Si3 1.632965 1_555
O3 Si0 1.626827 1_554
O3 Si2 1.632965 1_555
O4 Si0 1.607832 1_555
O4 W0 2.009098 1_555
O5 Si1 1.607832 1_555
O5 W0 2.009098 1_555
O6 Si3 1.607832 1_555
O6 W1 2.009098 1_555
O7 Si2 1.607832 1_555
O7 W1 2.009098 1_555
O8 Si2 1.693049 1_555
O8 W0 2.074655 1_564
O8 W1 2.203263 1_655
O9 Si3 1.693049 1_555
O9 W0 2.074655 1_455
O9 W1 2.203263 1_545
O10 Si0 1.693049 1_555
O10 W1 2.074655 1_655
O10 W0 2.203263 1_565
O11 Si1 1.693049 1_555
O11 W1 2.074655 1_546
O11 W0 2.203263 1_455
