# generated using pymatgen
data_Y5B4Rh15
_symmetry_space_group_name_H-M   'P 1'
_cell_length_a   4.21902200
_cell_length_b   4.21902200
_cell_length_c   20.63377400
_cell_angle_alpha   90.00000000
_cell_angle_beta   90.00000000
_cell_angle_gamma   90.00000000
_symmetry_Int_Tables_number   1
_chemical_formula_structural   Y5B4Rh15
_chemical_formula_sum   'Y5 B4 Rh15'
_cell_volume   367.28420286
_cell_formula_units_Z   1
loop_
 _symmetry_equiv_pos_site_id
 _symmetry_equiv_pos_as_xyz
  1  'x, y, z'
loop_
 _atom_site_type_symbol
 _atom_site_label
 _atom_site_symmetry_multiplicity
 _atom_site_fract_x
 _atom_site_fract_y
 _atom_site_fract_z
 _atom_site_occupancy
  Y  Y0  1  0.00000000  0.00000000  0.90336600  1
  Y  Y1  1  0.00000000  0.00000000  0.09663400  1
  Y  Y2  1  0.00000000  0.00000000  0.29897600  1
  Y  Y3  1  0.00000000  0.00000000  0.50000000  1
  Y  Y4  1  0.00000000  0.00000000  0.70102400  1
  B  B0  1  0.50000000  0.50000000  0.18950300  1
  B  B1  1  0.50000000  0.50000000  0.39767700  1
  B  B2  1  0.50000000  0.50000000  0.60232300  1
  B  B3  1  0.50000000  0.50000000  0.81049700  1
  Rh  Rh0  1  0.50000000  0.50000000  0.90989200  1
  Rh  Rh1  1  0.50000000  0.50000000  0.09010800  1
  Rh  Rh2  1  0.50000000  0.50000000  0.29603200  1
  Rh  Rh3  1  0.50000000  0.50000000  0.50000000  1
  Rh  Rh4  1  0.50000000  0.50000000  0.70396800  1
  Rh  Rh5  1  0.50000000  0.00000000  0.00000000  1
  Rh  Rh6  1  0.50000000  0.00000000  0.19767800  1
  Rh  Rh7  1  0.50000000  0.00000000  0.39935000  1
  Rh  Rh8  1  0.50000000  0.00000000  0.60065000  1
  Rh  Rh9  1  0.50000000  0.00000000  0.80232200  1
  Rh  Rh10  1  0.00000000  0.50000000  0.00000000  1
  Rh  Rh11  1  0.00000000  0.50000000  0.19767800  1
  Rh  Rh12  1  0.00000000  0.50000000  0.39935000  1
  Rh  Rh13  1  0.00000000  0.50000000  0.60065000  1
  Rh  Rh14  1  0.00000000  0.50000000  0.80232200  1
loop_
_geom_bond_atom_site_label_1
_geom_bond_atom_site_label_2
_geom_bond_distance
_geom_bond_site_symmetry_2
B0 Rh1 2.050894 1_555
B0 Rh6 2.116244 1_555
B0 Rh11 2.116244 1_555
B0 Rh6 2.116244 1_565
B0 Rh11 2.116244 1_655
B0 Rh2 2.198095 1_555
B1 Rh2 2.097320 1_555
B1 Rh7 2.109793 1_555
B1 Rh12 2.109793 1_555
B1 Rh12 2.109793 1_655
B1 Rh7 2.109793 1_565
B1 Rh3 2.111310 1_555
B2 Rh4 2.097320 1_555
B2 Rh8 2.109793 1_565
B2 Rh13 2.109793 1_555
B2 Rh8 2.109793 1_555
B2 Rh13 2.109793 1_655
B2 Rh3 2.111310 1_555
B3 Rh0 2.050894 1_555
B3 Rh9 2.116244 1_565
B3 Rh9 2.116244 1_555
B3 Rh14 2.116244 1_555
B3 Rh14 2.116244 1_655
B3 Rh4 2.198095 1_555
Rh0 Y0 2.986336 1_655
Rh0 Y0 2.986336 1_555
Rh0 Y0 2.986336 1_565
Rh0 Y0 2.986336 1_665
Rh1 Y1 2.986336 1_565
Rh1 Y1 2.986336 1_665
Rh1 Y1 2.986336 1_555
Rh1 Y1 2.986336 1_655
Rh2 Y2 2.983917 1_655
Rh2 Y2 2.983917 1_555
Rh2 Y2 2.983917 1_565
Rh2 Y2 2.983917 1_665
Rh3 Y3 2.983299 1_555
Rh3 Y3 2.983299 1_565
Rh3 Y3 2.983299 1_655
Rh3 Y3 2.983299 1_665
Rh4 Y4 2.983917 1_555
Rh4 Y4 2.983917 1_565
Rh4 Y4 2.983917 1_655
Rh4 Y4 2.983917 1_665
Rh5 Y0 2.902718 1_554
Rh5 Y1 2.902718 1_555
Rh5 Y1 2.902718 1_655
Rh5 Y0 2.902718 1_654
Rh6 Y1 2.965961 1_555
Rh6 Y1 2.965961 1_655
Rh6 Y2 2.969647 1_555
Rh6 Y2 2.969647 1_655
Rh7 Y2 2.956259 1_555
Rh7 Y2 2.956259 1_655
Rh7 Y3 2.960252 1_555
Rh7 Y3 2.960252 1_655
Rh8 Y4 2.956259 1_655
Rh8 Y4 2.956259 1_555
Rh8 Y3 2.960252 1_655
Rh8 Y3 2.960252 1_555
Rh9 Y0 2.965961 1_655
Rh9 Y0 2.965961 1_555
Rh9 Y4 2.969647 1_555
Rh9 Y4 2.969647 1_655
Rh10 Y0 2.902718 1_564
Rh10 Y0 2.902718 1_554
Rh10 Y1 2.902718 1_565
Rh10 Y1 2.902718 1_555
Rh11 Y1 2.965961 1_565
Rh11 Y1 2.965961 1_555
Rh11 Y2 2.969647 1_555
Rh11 Y2 2.969647 1_565
Rh12 Y2 2.956259 1_555
Rh12 Y2 2.956259 1_565
Rh12 Y3 2.960252 1_555
Rh12 Y3 2.960252 1_565
Rh13 Y4 2.956259 1_555
Rh13 Y4 2.956259 1_565
Rh13 Y3 2.960252 1_555
Rh13 Y3 2.960252 1_565
Rh14 Y0 2.965961 1_555
Rh14 Y0 2.965961 1_565
Rh14 Y4 2.969647 1_555
Rh14 Y4 2.969647 1_565
