# generated using pymatgen
data_Dy2MnCoO6
_symmetry_space_group_name_H-M   'P 1'
_cell_length_a   3.77657611
_cell_length_b   5.74227200
_cell_length_c   12.26915550
_cell_angle_alpha   90.00000000
_cell_angle_beta   98.95963877
_cell_angle_gamma   90.00000000
_symmetry_Int_Tables_number   1
_chemical_formula_structural   Dy2MnCoO6
_chemical_formula_sum   'Dy4 Mn2 Co2 O12'
_cell_volume   262.82395389
_cell_formula_units_Z   2
loop_
 _symmetry_equiv_pos_site_id
 _symmetry_equiv_pos_as_xyz
  1  'x, y, z'
loop_
 _atom_site_type_symbol
 _atom_site_label
 _atom_site_symmetry_multiplicity
 _atom_site_fract_x
 _atom_site_fract_y
 _atom_site_fract_z
 _atom_site_occupancy
  Dy  Dy0  1  0.58096700  0.64037200  0.24040800  1
  Dy  Dy1  1  0.91903300  0.14037200  0.25959200  1
  Dy  Dy2  1  0.41903300  0.35962800  0.75959200  1
  Dy  Dy3  1  0.08096700  0.85962800  0.74040800  1
  Mn  Mn0  1  0.50000000  0.50000000  0.50000000  1
  Mn  Mn1  1  0.00000000  0.00000000  0.00000000  1
  Co  Co0  1  0.50000000  0.50000000  0.00000000  1
  Co  Co1  1  0.00000000  0.00000000  0.50000000  1
  O  O0  1  0.77918700  0.73687200  0.07462000  1
  O  O1  1  0.72081300  0.23687200  0.42538000  1
  O  O2  1  0.26562800  0.24092300  0.58097600  1
  O  O3  1  0.23437200  0.74092300  0.91902400  1
  O  O4  1  0.22081300  0.26312800  0.92538000  1
  O  O5  1  0.27918700  0.76312800  0.57462000  1
  O  O6  1  0.73437200  0.75907700  0.41902400  1
  O  O7  1  0.76562800  0.25907700  0.08097600  1
  O  O8  1  0.37324600  0.98006800  0.21680300  1
  O  O9  1  0.12675400  0.48006800  0.28319700  1
  O  O10  1  0.62675400  0.01993200  0.78319700  1
  O  O11  1  0.87324600  0.51993200  0.71680300  1
loop_
_geom_bond_atom_site_label_1
_geom_bond_atom_site_label_2
_geom_bond_distance
_geom_bond_site_symmetry_2
Dy0 O9 2.084692 1_555
Dy0 O8 2.105577 1_555
Dy0 O9 2.243762 1_655
Dy0 O6 2.281960 1_555
Dy0 O0 2.340772 1_555
Dy1 O8 2.084692 1_645
Dy1 O9 2.105577 1_655
Dy1 O8 2.243762 1_545
Dy1 O7 2.281960 1_555
Dy1 O1 2.340772 1_555
Dy2 O11 2.084692 1_555
Dy2 O10 2.105577 1_555
Dy2 O11 2.243762 1_455
Dy2 O2 2.281960 1_555
Dy2 O4 2.340772 1_555
Dy3 O10 2.084692 1_465
Dy3 O11 2.105577 1_455
Dy3 O10 2.243762 1_565
Dy3 O3 2.281960 1_555
Dy3 O5 2.340772 1_555
Mn0 O5 2.013550 1_555
Mn0 O1 2.013550 1_555
Mn0 O6 2.063402 1_555
Mn0 O2 2.063402 1_555
Mn1 O0 2.013550 1_445
Mn1 O4 2.013550 1_554
Mn1 O7 2.063402 1_455
Mn1 O3 2.063402 1_544
Co0 O0 1.870645 1_555
Co0 O4 1.870645 1_554
Co0 O7 1.896545 1_555
Co0 O3 1.896545 1_554
Co1 O5 1.870645 1_545
Co1 O1 1.870645 1_455
Co1 O6 1.896545 1_445
Co1 O2 1.896545 1_555
