# generated using pymatgen
data_LiSm(PO3)4
_symmetry_space_group_name_H-M   'P 1'
_cell_length_a   9.02292995
_cell_length_b   9.02292995
_cell_length_c   9.81486023
_cell_angle_alpha   57.09932925
_cell_angle_beta   57.09932925
_cell_angle_gamma   46.60428165
_symmetry_Int_Tables_number   1
_chemical_formula_structural   LiSm(PO3)4
_chemical_formula_sum   'Li2 Sm2 P8 O24'
_cell_volume   468.18645107
_cell_formula_units_Z   2
loop_
 _symmetry_equiv_pos_site_id
 _symmetry_equiv_pos_as_xyz
  1  'x, y, z'
loop_
 _atom_site_type_symbol
 _atom_site_label
 _atom_site_symmetry_multiplicity
 _atom_site_fract_x
 _atom_site_fract_y
 _atom_site_fract_z
 _atom_site_occupancy
  Li  Li0  1  0.79744500  0.20255500  0.75000000  1
  Li  Li1  1  0.20255500  0.79744500  0.25000000  1
  Sm  Sm0  1  0.70055500  0.29944500  0.25000000  1
  Sm  Sm1  1  0.29944500  0.70055500  0.75000000  1
  P  P0  1  0.19270200  0.08349100  0.33794700  1
  P  P1  1  0.91650900  0.80729800  0.16205300  1
  P  P2  1  0.80729800  0.91650900  0.66205300  1
  P  P3  1  0.08349100  0.19270200  0.83794700  1
  P  P4  1  0.80316700  0.49238600  0.40254900  1
  P  P5  1  0.50761400  0.19683300  0.09745100  1
  P  P6  1  0.19683300  0.50761400  0.59745100  1
  P  P7  1  0.49238600  0.80316700  0.90254900  1
  O  O0  1  0.33006500  0.89716900  0.45397700  1
  O  O1  1  0.10283100  0.66993500  0.04602300  1
  O  O2  1  0.66993500  0.10283100  0.54602300  1
  O  O3  1  0.89716900  0.33006500  0.95397700  1
  O  O4  1  0.03784400  0.28043900  0.41478400  1
  O  O5  1  0.71956100  0.96215600  0.08521600  1
  O  O6  1  0.96215600  0.71956100  0.58521600  1
  O  O7  1  0.28043900  0.03784400  0.91478400  1
  O  O8  1  0.66624300  0.48128600  0.58274600  1
  O  O9  1  0.51871400  0.33375700  0.91725400  1
  O  O10  1  0.33375700  0.51871400  0.41725400  1
  O  O11  1  0.48128600  0.66624300  0.08274600  1
  O  O12  1  0.74381800  0.51286500  0.27460700  1
  O  O13  1  0.48713500  0.25618200  0.22539300  1
  O  O14  1  0.25618200  0.48713500  0.72539300  1
  O  O15  1  0.51286500  0.74381800  0.77460700  1
  O  O16  1  0.07001700  0.06242900  0.29672000  1
  O  O17  1  0.93757100  0.92998300  0.20328000  1
  O  O18  1  0.92998300  0.93757100  0.70328000  1
  O  O19  1  0.06242900  0.07001700  0.79672000  1
  O  O20  1  0.32829000  0.16030200  0.15707600  1
  O  O21  1  0.83969800  0.67171000  0.34292400  1
  O  O22  1  0.67171000  0.83969800  0.84292400  1
  O  O23  1  0.16030200  0.32829000  0.65707600  1
loop_
_geom_bond_atom_site_label_1
_geom_bond_atom_site_label_2
_geom_bond_distance
_geom_bond_site_symmetry_2
Li0 O9 1.989069 1_555
Li0 O8 1.989069 1_555
Li0 O18 2.005854 1_545
Li0 O19 2.005854 1_655
Li1 O10 1.989069 1_555
Li1 O11 1.989069 1_555
Li1 O17 2.005854 1_455
Li1 O16 2.005854 1_565
O0 P0 1.499922 1_565
O0 Sm1 2.422180 1_555
O1 P1 1.499922 1_455
O1 Sm1 2.422180 1_554
O2 P2 1.499922 1_545
O2 Sm0 2.422180 1_555
O3 P3 1.499922 1_655
O3 Sm0 2.422180 1_556
O4 P0 1.605712 1_555
O4 P4 1.617995 1_455
O5 P1 1.605712 1_555
O5 P5 1.617995 1_565
O6 P2 1.605712 1_555
O6 P6 1.617995 1_655
O7 P3 1.605712 1_555
O7 P7 1.617995 1_545
O8 P4 1.506051 1_555
O8 Sm1 2.488239 1_555
O9 P5 1.506051 1_556
O9 Sm1 2.488239 1_555
O10 P6 1.506051 1_555
O10 Sm0 2.488239 1_555
O11 P7 1.506051 1_554
O11 Sm0 2.488239 1_555
O12 P4 1.496749 1_555
O12 Sm0 2.357856 1_555
O13 P5 1.496749 1_555
O13 Sm0 2.357856 1_555
O14 P6 1.496749 1_555
O14 Sm1 2.357856 1_555
O15 P7 1.496749 1_555
O15 Sm1 2.357856 1_555
O16 P0 1.511444 1_555
O16 Sm0 2.587694 1_455
O17 P1 1.511444 1_555
O17 Sm0 2.587694 1_565
O18 P2 1.511444 1_555
O18 Sm1 2.587694 1_655
O19 P3 1.511444 1_555
O19 Sm1 2.587694 1_545
O20 P5 1.601168 1_555
O20 P0 1.611687 1_555
O21 P4 1.601168 1_555
O21 P1 1.611687 1_555
O22 P7 1.601168 1_555
O22 P2 1.611687 1_555
O23 P6 1.601168 1_555
O23 P3 1.611687 1_555
