# generated using pymatgen
data_CaTaBiO5
_symmetry_space_group_name_H-M   'P 1'
_cell_length_a   5.63017100
_cell_length_b   11.51552600
_cell_length_c   16.53440800
_cell_angle_alpha   90.00000000
_cell_angle_beta   90.00000000
_cell_angle_gamma   90.00000000
_symmetry_Int_Tables_number   1
_chemical_formula_structural   CaTaBiO5
_chemical_formula_sum   'Ca8 Ta8 Bi8 O40'
_cell_volume   1071.99810019
_cell_formula_units_Z   8
loop_
 _symmetry_equiv_pos_site_id
 _symmetry_equiv_pos_as_xyz
  1  'x, y, z'
loop_
 _atom_site_type_symbol
 _atom_site_label
 _atom_site_symmetry_multiplicity
 _atom_site_fract_x
 _atom_site_fract_y
 _atom_site_fract_z
 _atom_site_occupancy
  Ca  Ca0  1  0.50171000  0.36001800  0.55090800  1
  Ca  Ca1  1  0.00171000  0.13998200  0.55090800  1
  Ca  Ca2  1  0.00171000  0.63998200  0.94909200  1
  Ca  Ca3  1  0.99829000  0.36001800  0.05090800  1
  Ca  Ca4  1  0.49829000  0.13998200  0.05090800  1
  Ca  Ca5  1  0.99829000  0.86001800  0.44909200  1
  Ca  Ca6  1  0.49829000  0.63998200  0.44909200  1
  Ca  Ca7  1  0.50171000  0.86001800  0.94909200  1
  Ta  Ta0  1  0.98799700  0.39939700  0.40291000  1
  Ta  Ta1  1  0.51200300  0.89939700  0.59709000  1
  Ta  Ta2  1  0.01200300  0.60060300  0.59709000  1
  Ta  Ta3  1  0.48799700  0.10060300  0.40291000  1
  Ta  Ta4  1  0.01200300  0.10060300  0.90291000  1
  Ta  Ta5  1  0.98799700  0.89939700  0.09709000  1
  Ta  Ta6  1  0.51200300  0.39939700  0.90291000  1
  Ta  Ta7  1  0.48799700  0.60060300  0.09709000  1
  Bi  Bi0  1  0.94629000  0.84158900  0.77428200  1
  Bi  Bi1  1  0.05371000  0.15841100  0.22571800  1
  Bi  Bi2  1  0.55371000  0.34158900  0.22571800  1
  Bi  Bi3  1  0.05371000  0.65841100  0.27428200  1
  Bi  Bi4  1  0.44629000  0.15841100  0.72571800  1
  Bi  Bi5  1  0.44629000  0.65841100  0.77428200  1
  Bi  Bi6  1  0.55371000  0.84158900  0.27428200  1
  Bi  Bi7  1  0.94629000  0.34158900  0.72571800  1
  O  O0  1  0.92927100  0.32026000  0.30384500  1
  O  O1  1  0.29799100  0.04472200  0.94202600  1
  O  O2  1  0.20200900  0.54472200  0.05797400  1
  O  O3  1  0.24266200  0.77309600  0.84762400  1
  O  O4  1  0.25733800  0.27309600  0.15237600  1
  O  O5  1  0.92927100  0.82026000  0.19615500  1
  O  O6  1  0.25733800  0.77309600  0.34762400  1
  O  O7  1  0.57072900  0.82026000  0.69615500  1
  O  O8  1  0.29799100  0.54472200  0.55797400  1
  O  O9  1  0.07072900  0.67974000  0.69615500  1
  O  O10  1  0.57072900  0.32026000  0.80384500  1
  O  O11  1  0.64853300  0.19202400  0.47724200  1
  O  O12  1  0.79799100  0.95527800  0.55797400  1
  O  O13  1  0.75733800  0.72690400  0.34762400  1
  O  O14  1  0.17456400  0.02936000  0.12584500  1
  O  O15  1  0.79799100  0.45527800  0.94202600  1
  O  O16  1  0.07072900  0.17974000  0.80384500  1
  O  O17  1  0.74266200  0.22690400  0.65237600  1
  O  O18  1  0.14853300  0.80797600  0.02275800  1
  O  O19  1  0.20200900  0.04472200  0.44202600  1
  O  O20  1  0.35146700  0.80797600  0.52275800  1
  O  O21  1  0.82543600  0.97064000  0.87415500  1
  O  O22  1  0.75733800  0.22690400  0.15237600  1
  O  O23  1  0.67456400  0.97064000  0.37415500  1
  O  O24  1  0.35146700  0.30797600  0.97724200  1
  O  O25  1  0.14853300  0.30797600  0.47724200  1
  O  O26  1  0.70200900  0.45527800  0.44202600  1
  O  O27  1  0.70200900  0.95527800  0.05797400  1
  O  O28  1  0.67456400  0.47064000  0.12584500  1
  O  O29  1  0.85146700  0.69202400  0.52275800  1
  O  O30  1  0.85146700  0.19202400  0.97724200  1
  O  O31  1  0.64853300  0.69202400  0.02275800  1
  O  O32  1  0.82543600  0.47064000  0.62584500  1
  O  O33  1  0.74266200  0.72690400  0.84762400  1
  O  O34  1  0.24266200  0.27309600  0.65237600  1
  O  O35  1  0.17456400  0.52936000  0.37415500  1
  O  O36  1  0.32543600  0.52936000  0.87415500  1
  O  O37  1  0.42927100  0.17974000  0.30384500  1
  O  O38  1  0.32543600  0.02936000  0.62584500  1
  O  O39  1  0.42927100  0.67974000  0.19615500  1
loop_
_geom_bond_atom_site_label_1
_geom_bond_atom_site_label_2
_geom_bond_distance
_geom_bond_site_symmetry_2
Ca0 O26 2.390850 1_555
Ca0 O25 2.407624 1_555
Ca0 O8 2.419333 1_555
Ca0 O11 2.430917 1_555
Ca0 O34 2.437992 1_555
Ca0 O32 2.545575 1_555
Ca0 O17 2.646659 1_555
Ca1 O19 2.390850 1_555
Ca1 O11 2.407624 1_455
Ca1 O12 2.419333 1_445
Ca1 O25 2.430917 1_555
Ca1 O17 2.437992 1_455
Ca1 O38 2.545575 1_555
Ca1 O34 2.646659 1_555
Ca2 O2 2.390850 1_556
Ca2 O31 2.407624 1_456
Ca2 O15 2.419333 1_455
Ca2 O18 2.430917 1_556
Ca2 O33 2.437992 1_455
Ca2 O36 2.545575 1_555
Ca2 O3 2.646659 1_555
Ca3 O15 2.390850 1_554
Ca3 O24 2.407624 1_654
Ca3 O2 2.419333 1_655
Ca3 O30 2.430917 1_554
Ca3 O4 2.437992 1_655
Ca3 O28 2.545575 1_555
Ca3 O22 2.646659 1_555
Ca4 O1 2.390850 1_554
Ca4 O30 2.407624 1_554
Ca4 O27 2.419333 1_545
Ca4 O24 2.430917 1_554
Ca4 O22 2.437992 1_555
Ca4 O14 2.545575 1_555
Ca4 O4 2.646659 1_555
Ca5 O12 2.390850 1_555
Ca5 O20 2.407624 1_655
Ca5 O19 2.419333 1_665
Ca5 O29 2.430917 1_555
Ca5 O6 2.437992 1_655
Ca5 O23 2.545575 1_555
Ca5 O13 2.646659 1_555
Ca6 O8 2.390850 1_555
Ca6 O29 2.407624 1_555
Ca6 O26 2.419333 1_555
Ca6 O20 2.430917 1_555
Ca6 O13 2.437992 1_555
Ca6 O35 2.545575 1_555
Ca6 O6 2.646659 1_555
Ca7 O27 2.390850 1_556
Ca7 O18 2.407624 1_556
Ca7 O1 2.419333 1_565
Ca7 O31 2.430917 1_556
Ca7 O3 2.437992 1_555
Ca7 O21 2.545575 1_555
Ca7 O33 2.646659 1_555
Bi0 O33 2.128161 1_555
Bi0 O3 2.208386 1_655
Bi0 O21 2.323440 1_555
Bi0 O9 2.373442 1_655
Bi0 O7 2.489985 1_555
Bi1 O4 2.128161 1_555
Bi1 O22 2.208386 1_455
Bi1 O14 2.323440 1_555
Bi1 O0 2.373442 1_455
Bi1 O37 2.489985 1_555
Bi2 O22 2.128161 1_555
Bi2 O4 2.208386 1_555
Bi2 O28 2.323440 1_555
Bi2 O37 2.373442 1_555
Bi2 O0 2.489985 1_555
Bi3 O6 2.128161 1_555
Bi3 O13 2.208386 1_455
Bi3 O35 2.323440 1_555
Bi3 O5 2.373442 1_455
Bi3 O39 2.489985 1_555
Bi4 O34 2.128161 1_555
Bi4 O17 2.208386 1_555
Bi4 O38 2.323440 1_555
Bi4 O10 2.373442 1_555
Bi4 O16 2.489985 1_555
Bi5 O3 2.128161 1_555
Bi5 O33 2.208386 1_555
Bi5 O36 2.323440 1_555
Bi5 O7 2.373442 1_555
Bi5 O9 2.489985 1_555
Bi6 O13 2.128161 1_555
Bi6 O6 2.208386 1_555
Bi6 O23 2.323440 1_555
Bi6 O39 2.373442 1_555
Bi6 O5 2.489985 1_555
Bi7 O17 2.128161 1_555
Bi7 O34 2.208386 1_655
Bi7 O32 2.323440 1_555
Bi7 O16 2.373442 1_655
Bi7 O10 2.489985 1_555
O0 Ta0 1.903360 1_555
O1 Ta4 1.850678 1_555
O2 Ta7 1.850678 1_555
O5 Ta5 1.903360 1_555
O7 Ta1 1.903360 1_555
O8 Ta2 1.850678 1_555
O9 Ta2 1.903360 1_555
O10 Ta6 1.903360 1_555
O11 Ta3 1.853583 1_555
O12 Ta1 1.850678 1_555
O14 Ta5 1.889229 1_445
O15 Ta6 1.850678 1_555
O16 Ta4 1.903360 1_555
O18 Ta5 1.853583 1_455
O19 Ta3 1.850678 1_555
O20 Ta1 1.853583 1_555
O21 Ta4 1.889229 1_665
O23 Ta3 1.889229 1_565
O24 Ta6 1.853583 1_555
O25 Ta0 1.853583 1_455
O26 Ta0 1.850678 1_555
O27 Ta5 1.850678 1_555
O28 Ta7 1.889229 1_555
O29 Ta2 1.853583 1_655
O30 Ta4 1.853583 1_655
O31 Ta7 1.853583 1_555
O32 Ta2 1.889229 1_655
O35 Ta0 1.889229 1_455
O36 Ta6 1.889229 1_555
O37 Ta3 1.903360 1_555
O38 Ta1 1.889229 1_545
O39 Ta7 1.903360 1_555
