# generated using pymatgen
data_TbRe2
_symmetry_space_group_name_H-M   'P 1'
_cell_length_a   5.41660335
_cell_length_b   5.41660335
_cell_length_c   8.82736737
_cell_angle_alpha   90.00000000
_cell_angle_beta   90.00000000
_cell_angle_gamma   120.00107791
_symmetry_Int_Tables_number   1
_chemical_formula_structural   TbRe2
_chemical_formula_sum   'Tb4 Re8'
_cell_volume   224.29065728
_cell_formula_units_Z   4
loop_
 _symmetry_equiv_pos_site_id
 _symmetry_equiv_pos_as_xyz
  1  'x, y, z'
loop_
 _atom_site_type_symbol
 _atom_site_label
 _atom_site_symmetry_multiplicity
 _atom_site_fract_x
 _atom_site_fract_y
 _atom_site_fract_z
 _atom_site_occupancy
  Tb  Tb0  1  0.66666759  0.33333241  0.56234085  1
  Tb  Tb1  1  0.33333241  0.66666759  0.43765915  1
  Tb  Tb2  1  0.33333241  0.66666759  0.06234085  1
  Tb  Tb3  1  0.66666759  0.33333241  0.93765915  1
  Re  Re0  1  -0.00000000  -0.00000000  0.50000000  1
  Re  Re1  1  -0.00000000  -0.00000000  -0.00000000  1
  Re  Re2  1  0.17075858  0.34152329  0.75000000  1
  Re  Re3  1  0.17074586  0.82925414  0.75000000  1
  Re  Re4  1  0.65847671  0.82924142  0.75000000  1
  Re  Re5  1  0.82924142  0.65847671  0.25000000  1
  Re  Re6  1  0.82925414  0.17074586  0.25000000  1
  Re  Re7  1  0.34152329  0.17075858  0.25000000  1
loop_
_geom_bond_atom_site_label_1
_geom_bond_atom_site_label_2
_geom_bond_distance
_geom_bond_site_symmetry_2
Re0 Re6 2.726956 1_455
Re0 Re3 2.726956 1_545
Re0 Re5 2.727028 1_445
Re0 Re2 2.727028 1_555
Re0 Re7 2.727028 1_555
Re0 Re4 2.727028 1_445
Re0 Tb0 3.175298 1_555
Re0 Tb0 3.175298 1_445
Re0 Tb1 3.175298 1_555
Re0 Tb1 3.175298 1_445
Re0 Tb1 3.175335 1_545
Re0 Tb0 3.175335 1_455
Re1 Re3 2.726956 1_544
Re1 Re6 2.726956 1_455
Re1 Re5 2.727028 1_445
Re1 Re4 2.727028 1_444
Re1 Re7 2.727028 1_555
Re1 Re2 2.727028 1_554
Re1 Tb3 3.175298 1_554
Re1 Tb2 3.175298 1_445
Re1 Tb3 3.175298 1_444
Re1 Tb2 3.175298 1_555
Re1 Tb3 3.175335 1_454
Re1 Tb2 3.175335 1_545
Re2 Re4 2.641733 1_555
Re2 Re3 2.641879 1_555
Re2 Re3 2.774724 1_545
Re2 Re4 2.774782 1_445
Re2 Tb1 3.150892 1_555
Re2 Tb2 3.150892 1_556
Re2 Tb3 3.174957 1_455
Re2 Tb0 3.174957 1_455
Re2 Tb0 3.174999 1_555
Re2 Tb3 3.174999 1_555
Re3 Re4 2.641879 1_555
Re3 Re4 2.774724 1_455
Re3 Tb2 3.150970 1_556
Re3 Tb1 3.150970 1_555
Re3 Tb0 3.174939 1_455
Re3 Tb3 3.174939 1_455
Re3 Tb3 3.174939 1_565
Re3 Tb0 3.174939 1_565
Re4 Tb1 3.150892 1_555
Re4 Tb2 3.150892 1_556
Re4 Tb3 3.174957 1_565
Re4 Tb0 3.174957 1_565
Re4 Tb0 3.174999 1_555
Re4 Tb3 3.174999 1_555
Re5 Re7 2.641733 1_555
Re5 Re6 2.641879 1_555
Re5 Re6 2.774724 1_565
Re5 Re7 2.774782 1_665
Re5 Tb3 3.150892 1_554
Re5 Tb0 3.150892 1_555
Re5 Tb1 3.174957 1_655
Re5 Tb2 3.174957 1_655
Re5 Tb1 3.174999 1_555
Re5 Tb2 3.174999 1_555
Re6 Re7 2.641879 1_555
Re6 Re7 2.774724 1_655
Re6 Tb3 3.150970 1_554
Re6 Tb0 3.150970 1_555
Re6 Tb2 3.174939 1_545
Re6 Tb1 3.174939 1_545
Re6 Tb2 3.174939 1_655
Re6 Tb1 3.174939 1_655
Re7 Tb3 3.150892 1_554
Re7 Tb0 3.150892 1_555
Re7 Tb1 3.174957 1_545
Re7 Tb2 3.174957 1_545
Re7 Tb1 3.174999 1_555
Re7 Tb2 3.174999 1_555
