# generated using pymatgen
data_FeSeO3F
_symmetry_space_group_name_H-M   'P 1'
_cell_length_a   5.27528900
_cell_length_b   5.05116200
_cell_length_c   12.51793027
_cell_angle_alpha   74.17788028
_cell_angle_beta   90.00000000
_cell_angle_gamma   90.00000000
_symmetry_Int_Tables_number   1
_chemical_formula_structural   FeSeO3F
_chemical_formula_sum   'Fe4 Se4 O12 F4'
_cell_volume   320.91947785
_cell_formula_units_Z   4
loop_
 _symmetry_equiv_pos_site_id
 _symmetry_equiv_pos_as_xyz
  1  'x, y, z'
loop_
 _atom_site_type_symbol
 _atom_site_label
 _atom_site_symmetry_multiplicity
 _atom_site_fract_x
 _atom_site_fract_y
 _atom_site_fract_z
 _atom_site_occupancy
  Fe  Fe0  1  0.75374400  0.38578300  0.57136900  1
  Fe  Fe1  1  0.74625600  0.38578300  0.07136900  1
  Fe  Fe2  1  0.24625600  0.61421700  0.42863100  1
  Fe  Fe3  1  0.25374400  0.61421700  0.92863100  1
  Se  Se0  1  0.85781600  0.18108700  0.83377100  1
  Se  Se1  1  0.64218400  0.18108700  0.33377100  1
  Se  Se2  1  0.14218400  0.81891300  0.16622900  1
  Se  Se3  1  0.35781600  0.81891300  0.66622900  1
  O  O0  1  0.12694400  0.98048700  0.84620900  1
  O  O1  1  0.37305600  0.98048700  0.34620900  1
  O  O2  1  0.87305600  0.01951300  0.15379100  1
  O  O3  1  0.62694400  0.01951300  0.65379100  1
  O  O4  1  0.93872000  0.38643700  0.92456800  1
  O  O5  1  0.56128000  0.38643700  0.42456800  1
  O  O6  1  0.06128000  0.61356300  0.07543200  1
  O  O7  1  0.43872000  0.61356300  0.57543200  1
  O  O8  1  0.92312400  0.41534400  0.70852300  1
  O  O9  1  0.57687600  0.41534400  0.20852300  1
  O  O10  1  0.07687600  0.58465600  0.29147700  1
  O  O11  1  0.42312400  0.58465600  0.79147700  1
  F  F0  1  0.06496300  0.25942900  0.50956900  1
  F  F1  1  0.43503700  0.25942900  0.00956900  1
  F  F2  1  0.93503700  0.74057100  0.49043100  1
  F  F3  1  0.56496300  0.74057100  0.99043100  1
loop_
_geom_bond_atom_site_label_1
_geom_bond_atom_site_label_2
_geom_bond_distance
_geom_bond_site_symmetry_2
Fe0 O3 1.973293 1_555
Fe0 O8 1.976910 1_555
Fe0 O7 2.029776 1_555
Fe0 O5 2.098685 1_555
Fe1 O2 1.973293 1_555
Fe1 O9 1.976910 1_555
Fe1 O6 2.029776 1_655
Fe1 O4 2.098685 1_554
Fe2 O1 1.973293 1_555
Fe2 O10 1.976910 1_555
Fe2 O5 2.029776 1_555
Fe2 O7 2.098685 1_555
Fe3 O0 1.973293 1_555
Fe3 O11 1.976910 1_555
Fe3 O4 2.029776 1_455
Fe3 O6 2.098685 1_556
O0 Se0 1.726425 1_465
O1 Se1 1.726425 1_565
O2 Se2 1.726425 1_645
O3 Se3 1.726425 1_545
O4 Se0 1.786832 1_555
O5 Se1 1.786832 1_555
O6 Se2 1.786832 1_555
O7 Se3 1.786832 1_555
O8 Se0 1.722011 1_555
O9 Se1 1.722011 1_555
O10 Se2 1.722011 1_555
O11 Se3 1.722011 1_555
F0 Fe0 1.992602 1_455
F0 Fe2 2.040259 1_555
F1 Fe1 1.992602 1_555
F1 Fe3 2.040259 1_554
F2 Fe2 1.992602 1_655
F2 Fe0 2.040259 1_555
F3 Fe3 1.992602 1_555
F3 Fe1 2.040259 1_556
