# generated using pymatgen
data_KNaCa2(SiO3)8
_symmetry_space_group_name_H-M   'P 1'
_cell_length_a   24.01951900
_cell_length_b   6.83678400
_cell_length_c   7.08866147
_cell_angle_alpha   89.94333193
_cell_angle_beta   90.00000000
_cell_angle_gamma   90.00000000
_symmetry_Int_Tables_number   1
_chemical_formula_structural   KNaCa2(SiO3)8
_chemical_formula_sum   'K2 Na2 Ca4 Si16 O48'
_cell_volume   1164.07292777
_cell_formula_units_Z   2
loop_
 _symmetry_equiv_pos_site_id
 _symmetry_equiv_pos_as_xyz
  1  'x, y, z'
loop_
 _atom_site_type_symbol
 _atom_site_label
 _atom_site_symmetry_multiplicity
 _atom_site_fract_x
 _atom_site_fract_y
 _atom_site_fract_z
 _atom_site_occupancy
  K  K0  1  0.75664500  0.91793100  0.25099900  1
  K  K1  1  0.25664500  0.08206900  0.74900100  1
  Na  Na0  1  0.50288800  0.47139300  0.48984000  1
  Na  Na1  1  0.00288800  0.52860700  0.51016000  1
  Ca  Ca0  1  0.49563800  0.94731400  0.24765200  1
  Ca  Ca1  1  0.99563800  0.05268600  0.75234800  1
  Ca  Ca2  1  0.51296800  0.04033300  0.75854600  1
  Ca  Ca3  1  0.01296800  0.95966700  0.24145400  1
  Si  Si0  1  0.89601600  0.43530200  0.75372600  1
  Si  Si1  1  0.39601600  0.56469800  0.24627400  1
  Si  Si2  1  0.89149500  0.78872200  0.47441300  1
  Si  Si3  1  0.89103400  0.79010100  0.02993000  1
  Si  Si4  1  0.39149500  0.21127800  0.52558700  1
  Si  Si5  1  0.39103400  0.20989900  0.97007000  1
  Si  Si6  1  0.68858900  0.04460800  0.75281600  1
  Si  Si7  1  0.18858900  0.95539200  0.24718400  1
  Si  Si8  1  0.61415400  0.43123600  0.75243100  1
  Si  Si9  1  0.11415400  0.56876400  0.24756900  1
  Si  Si10  1  0.62111400  0.78306500  0.47336200  1
  Si  Si11  1  0.62050000  0.78735600  0.03085500  1
  Si  Si12  1  0.12111400  0.21693500  0.52663800  1
  Si  Si13  1  0.12050000  0.21264400  0.96914500  1
  Si  Si14  1  0.82279700  0.04768400  0.75337000  1
  Si  Si15  1  0.32279700  0.95231600  0.24663000  1
  O  O0  1  0.64057500  0.76301900  0.25213400  1
  O  O1  1  0.14057500  0.23698100  0.74786600  1
  O  O2  1  0.62972900  0.56737300  0.56687900  1
  O  O3  1  0.62226700  0.56795400  0.94056600  1
  O  O4  1  0.12972900  0.43262700  0.43312100  1
  O  O5  1  0.12226700  0.43204600  0.05943400  1
  O  O6  1  0.66918300  0.93250900  0.55971900  1
  O  O7  1  0.67352000  0.91440200  0.93967900  1
  O  O8  1  0.16918300  0.06749100  0.44028100  1
  O  O9  1  0.17352000  0.08559800  0.06032100  1
  O  O10  1  0.87228700  0.77196200  0.25272800  1
  O  O11  1  0.37228700  0.22803800  0.74727200  1
  O  O12  1  0.55865000  0.86776800  0.49934500  1
  O  O13  1  0.56234700  0.89972600  0.00916900  1
  O  O14  1  0.05865000  0.13223200  0.50065500  1
  O  O15  1  0.06234700  0.10027400  0.99083100  1
  O  O16  1  0.75558100  0.06429900  0.74239600  1
  O  O17  1  0.25558100  0.93570100  0.25760400  1
  O  O18  1  0.97993500  0.29214700  0.29028700  1
  O  O19  1  0.47993500  0.70785300  0.70971300  1
  O  O20  1  0.66277600  0.26188500  0.76506900  1
  O  O21  1  0.16277600  0.73811500  0.23493100  1
  O  O22  1  0.55391700  0.33625100  0.72852100  1
  O  O23  1  0.05391700  0.66374900  0.27147900  1
  O  O24  1  0.80292400  0.34770400  0.29688000  1
  O  O25  1  0.30292400  0.65229600  0.70312000  1
  O  O26  1  0.63420600  0.25954700  0.25560600  1
  O  O27  1  0.13420600  0.74045300  0.74439400  1
  O  O28  1  0.58322400  0.27011200  0.26600800  1
  O  O29  1  0.08322400  0.72988800  0.73399200  1
  O  O30  1  0.95706900  0.34519400  0.73298200  1
  O  O31  1  0.45706900  0.65480600  0.26701800  1
  O  O32  1  0.95438200  0.86463100  0.50386300  1
  O  O33  1  0.94963300  0.89654500  0.99831900  1
  O  O34  1  0.45438200  0.13536900  0.49613700  1
  O  O35  1  0.44963300  0.10345500  0.00168100  1
  O  O36  1  0.84309000  0.93724100  0.56091100  1
  O  O37  1  0.83795500  0.91969300  0.94130200  1
  O  O38  1  0.34309000  0.06275900  0.43908900  1
  O  O39  1  0.33795500  0.08030700  0.05869800  1
  O  O40  1  0.88177100  0.57250200  0.56778600  1
  O  O41  1  0.88687300  0.56946700  0.94306400  1
  O  O42  1  0.38177100  0.42749800  0.43221400  1
  O  O43  1  0.38687300  0.43053300  0.05693600  1
  O  O44  1  0.84714300  0.26699300  0.76360600  1
  O  O45  1  0.34714300  0.73300700  0.23639400  1
  O  O46  1  0.77342200  0.46870400  0.37766300  1
  O  O47  1  0.27342200  0.53129600  0.62233700  1
loop_
_geom_bond_atom_site_label_1
_geom_bond_atom_site_label_2
_geom_bond_distance
_geom_bond_site_symmetry_2
K0 O37 2.938352 1_554
K0 O10 2.951520 1_555
K0 O7 2.976129 1_554
K0 O0 2.982345 1_555
K0 O36 3.025806 1_555
K0 O6 3.035268 1_555
K0 O24 3.158595 1_565
K0 O46 3.224253 1_555
K1 O39 2.938352 1_556
K1 O11 2.951520 1_555
K1 O9 2.976129 1_556
K1 O1 2.982345 1_555
K1 O38 3.025806 1_555
K1 O8 3.035268 1_555
K1 O25 3.158595 1_545
K1 O47 3.224253 1_555
Na0 O22 2.283749 1_555
Na0 O31 2.296638 1_555
Na0 O19 2.313367 1_555
Na0 O34 2.576222 1_555
Na0 O28 2.852895 1_555
Na1 O23 2.283749 1_555
Na1 O30 2.296638 1_455
Na1 O18 2.313367 1_455
Na1 O32 2.576222 1_455
Na1 O29 2.852895 1_555
Ca0 O31 2.208120 1_555
Ca0 O35 2.323167 1_565
Ca0 O13 2.352071 1_555
Ca0 O34 2.396265 1_565
Ca0 O12 2.401630 1_555
Ca0 O28 3.051847 1_565
Ca1 O30 2.208120 1_555
Ca1 O33 2.323167 1_545
Ca1 O15 2.352071 1_655
Ca1 O32 2.396265 1_545
Ca1 O14 2.401630 1_655
Ca1 O29 3.051847 1_645
Ca2 O22 2.259405 1_555
Ca2 O35 2.339326 1_556
Ca2 O13 2.341730 1_546
Ca2 O34 2.420761 1_555
Ca2 O19 2.432670 1_545
Ca2 O12 2.444620 1_545
Ca3 O23 2.259405 1_555
Ca3 O33 2.339326 1_454
Ca3 O15 2.341730 1_564
Ca3 O32 2.420761 1_455
Ca3 O18 2.432670 1_465
Ca3 O14 2.444620 1_565
O0 Si10 1.642253 1_555
O0 Si11 1.649271 1_555
O1 Si12 1.642253 1_555
O1 Si13 1.649271 1_555
O2 Si10 1.629386 1_555
O2 Si8 1.653439 1_555
O3 Si11 1.631977 1_556
O3 Si8 1.640939 1_555
O4 Si12 1.629386 1_555
O4 Si9 1.653439 1_555
O5 Si13 1.631977 1_554
O5 Si9 1.640939 1_555
O6 Si6 1.637169 1_565
O6 Si10 1.659206 1_555
O7 Si6 1.635757 1_565
O7 Si11 1.671196 1_556
O8 Si7 1.637169 1_545
O8 Si12 1.659206 1_555
O9 Si7 1.635757 1_545
O9 Si13 1.671196 1_554
O10 Si2 1.641889 1_555
O10 Si3 1.646836 1_555
O11 Si4 1.641889 1_555
O11 Si5 1.646836 1_555
O12 Si10 1.618812 1_555
O13 Si11 1.601460 1_555
O14 Si12 1.618812 1_555
O15 Si13 1.601460 1_555
O16 Si6 1.616420 1_555
O16 Si14 1.620350 1_555
O17 Si7 1.616420 1_555
O17 Si15 1.620350 1_555
O20 Si6 1.612097 1_555
O20 Si8 1.646905 1_555
O21 Si7 1.612097 1_555
O21 Si9 1.646905 1_555
O22 Si8 1.595014 1_555
O23 Si9 1.595014 1_555
O24 O46 1.230995 1_555
O25 O47 1.230995 1_555
O26 O28 1.228910 1_555
O27 O29 1.228910 1_555
O30 Si0 1.597446 1_555
O31 Si1 1.597446 1_555
O32 Si2 1.610834 1_555
O33 Si3 1.600187 1_556
O34 Si4 1.610834 1_555
O35 Si5 1.600187 1_554
O36 Si14 1.634323 1_565
O36 Si2 1.661325 1_555
O37 Si14 1.634222 1_565
O37 Si3 1.674526 1_556
O38 Si15 1.634323 1_545
O38 Si4 1.661325 1_555
O39 Si15 1.634222 1_545
O39 Si5 1.674526 1_554
O40 Si2 1.635829 1_555
O40 Si0 1.652810 1_555
O41 Si3 1.632894 1_556
O41 Si0 1.641158 1_555
O42 Si4 1.635829 1_555
O42 Si1 1.652810 1_555
O43 Si5 1.632894 1_554
O43 Si1 1.641158 1_555
O44 Si14 1.611072 1_555
O44 Si0 1.645264 1_555
O45 Si15 1.611072 1_555
O45 Si1 1.645264 1_555
