# generated using pymatgen
data_U3Ni3(SnSb)2
_symmetry_space_group_name_H-M   'P 1'
_cell_length_a   8.05611645
_cell_length_b   8.05611645
_cell_length_c   8.05611645
_cell_angle_alpha   109.47122063
_cell_angle_beta   109.47122063
_cell_angle_gamma   109.47122063
_symmetry_Int_Tables_number   1
_chemical_formula_structural   U3Ni3(SnSb)2
_chemical_formula_sum   'U6 Ni6 Sn4 Sb4'
_cell_volume   402.49020396
_cell_formula_units_Z   2
loop_
 _symmetry_equiv_pos_site_id
 _symmetry_equiv_pos_as_xyz
  1  'x, y, z'
loop_
 _atom_site_type_symbol
 _atom_site_label
 _atom_site_symmetry_multiplicity
 _atom_site_fract_x
 _atom_site_fract_y
 _atom_site_fract_z
 _atom_site_occupancy
  U  U0  1  0.75000000  0.37489000  0.62489000  1
  U  U1  1  0.25000000  0.12511000  0.87511000  1
  U  U2  1  0.12511000  0.87511000  0.25000000  1
  U  U3  1  0.37489000  0.62489000  0.75000000  1
  U  U4  1  0.62489000  0.75000000  0.37489000  1
  U  U5  1  0.87511000  0.25000000  0.12511000  1
  Ni  Ni0  1  0.75000000  0.87376300  0.12376300  1
  Ni  Ni1  1  0.25000000  0.62623700  0.37623700  1
  Ni  Ni2  1  0.62623700  0.37623700  0.25000000  1
  Ni  Ni3  1  0.87376300  0.12376300  0.75000000  1
  Ni  Ni4  1  0.12376300  0.75000000  0.87376300  1
  Ni  Ni5  1  0.37623700  0.25000000  0.62623700  1
  Sn  Sn0  1  0.17096800  0.50000000  0.00000000  1
  Sn  Sn1  1  0.32903200  0.32903200  0.32903200  1
  Sn  Sn2  1  0.00000000  0.17096800  0.50000000  1
  Sn  Sn3  1  0.50000000  0.00000000  0.17096800  1
  Sb  Sb0  1  0.83258000  0.83258000  0.83258000  1
  Sb  Sb1  1  0.66742000  0.50000000  0.00000000  1
  Sb  Sb2  1  0.00000000  0.66742000  0.50000000  1
  Sb  Sb3  1  0.50000000  0.00000000  0.66742000  1
loop_
_geom_bond_atom_site_label_1
_geom_bond_atom_site_label_2
_geom_bond_distance
_geom_bond_site_symmetry_2
Ni0 Sb1 2.593098 1_555
Ni0 Sb0 2.593098 1_554
Ni0 Sn3 2.617908 1_565
Ni0 Sn2 2.617908 1_665
Ni0 U3 2.844008 1_554
Ni0 U2 2.844008 1_655
Ni0 U5 2.852567 1_565
Ni0 U4 2.852567 1_555
Ni1 Sb2 2.593098 1_555
Ni1 Sb3 2.593098 1_565
Ni1 Sn1 2.617908 1_555
Ni1 Sn0 2.617908 1_555
Ni1 U3 2.844008 1_555
Ni1 U2 2.844008 1_555
Ni1 U5 2.852567 1_455
Ni1 U4 2.852567 1_555
Ni2 Sb1 2.593098 1_555
Ni2 Sb2 2.593098 1_655
Ni2 Sn1 2.617908 1_555
Ni2 Sn3 2.617908 1_555
Ni2 U4 2.844008 1_555
Ni2 U5 2.844008 1_555
Ni2 U1 2.852567 1_554
Ni2 U0 2.852567 1_555
Ni3 Sb3 2.593098 1_555
Ni3 Sb0 2.593098 1_545
Ni3 Sn0 2.617908 1_656
Ni3 Sn2 2.617908 1_655
Ni3 U5 2.844008 1_556
Ni3 U4 2.844008 1_545
Ni3 U0 2.852567 1_555
Ni3 U1 2.852567 1_655
Ni4 Sb2 2.593098 1_555
Ni4 Sb0 2.593098 1_455
Ni4 Sn3 2.617908 1_566
Ni4 Sn0 2.617908 1_556
Ni4 U0 2.844008 1_455
Ni4 U1 2.844008 1_565
Ni4 U2 2.852567 1_556
Ni4 U3 2.852567 1_555
Ni5 Sb3 2.593098 1_555
Ni5 Sb1 2.593098 1_556
Ni5 Sn1 2.617908 1_555
Ni5 Sn2 2.617908 1_555
Ni5 U0 2.844008 1_555
Ni5 U1 2.844008 1_555
Ni5 U2 2.852567 1_545
Ni5 U3 2.852567 1_555
Sn0 U1 3.197224 1_554
Sn0 U3 3.197224 1_554
Sn0 U4 3.197224 1_555
Sn0 U5 3.241553 1_455
Sn0 U0 3.241553 1_454
Sn0 U2 3.241553 1_555
Sn1 U1 3.197224 1_554
Sn1 U5 3.197224 1_455
Sn1 U2 3.197224 1_545
Sn1 U0 3.241553 1_555
Sn1 U3 3.241553 1_555
Sn1 U4 3.241553 1_555
Sn2 U5 3.197224 1_455
Sn2 U3 3.197224 1_555
Sn2 U0 3.197224 1_455
Sn2 U2 3.241553 1_545
Sn2 U4 3.241553 1_445
Sn2 U1 3.241553 1_555
Sn3 U2 3.197224 1_545
Sn3 U4 3.197224 1_545
Sn3 U0 3.197224 1_555
Sn3 U3 3.241553 1_544
Sn3 U1 3.241553 1_554
Sn3 U5 3.241553 1_555
Sb0 U4 3.216717 1_555
Sb0 U0 3.216717 1_555
Sb0 U3 3.216717 1_555
Sb0 U1 3.223326 1_665
Sb0 U5 3.223326 1_566
Sb0 U2 3.223326 1_656
Sb1 U0 3.216717 1_554
Sb1 U5 3.216717 1_555
Sb1 U2 3.216717 1_655
Sb1 U4 3.223326 1_555
Sb1 U3 3.223326 1_554
Sb1 U1 3.223326 1_554
Sb2 U4 3.216717 1_455
Sb2 U2 3.216717 1_555
Sb2 U1 3.216717 1_565
Sb2 U0 3.223326 1_455
Sb2 U3 3.223326 1_555
Sb2 U5 3.223326 1_455
Sb3 U3 3.216717 1_545
Sb3 U1 3.216717 1_555
Sb3 U5 3.216717 1_556
Sb3 U4 3.223326 1_545
Sb3 U0 3.223326 1_555
Sb3 U2 3.223326 1_545
