# generated using pymatgen
data_GdErRu2
_symmetry_space_group_name_H-M   'P 1'
_cell_length_a   4.78109430
_cell_length_b   4.78109430
_cell_length_c   4.78109430
_cell_angle_alpha   60.00000000
_cell_angle_beta   60.00000000
_cell_angle_gamma   60.00000000
_symmetry_Int_Tables_number   1
_chemical_formula_structural   GdErRu2
_chemical_formula_sum   'Gd1 Er1 Ru2'
_cell_volume   77.27996746
_cell_formula_units_Z   1
loop_
 _symmetry_equiv_pos_site_id
 _symmetry_equiv_pos_as_xyz
  1  'x, y, z'
loop_
 _atom_site_type_symbol
 _atom_site_label
 _atom_site_symmetry_multiplicity
 _atom_site_fract_x
 _atom_site_fract_y
 _atom_site_fract_z
 _atom_site_occupancy
  Gd  Gd0  1  -0.00000000  -0.00000000  -0.00000000  1
  Er  Er0  1  0.50000000  0.50000000  0.50000000  1
  Ru  Ru0  1  0.25000000  0.25000000  0.25000000  1
  Ru  Ru1  1  0.75000000  0.75000000  0.75000000  1
loop_
_geom_bond_atom_site_label_1
_geom_bond_atom_site_label_2
_geom_bond_distance
_geom_bond_site_symmetry_2
Gd0 Ru0 2.927810 1_455
Gd0 Ru1 2.927810 1_544
Gd0 Ru0 2.927810 1_545
Gd0 Ru1 2.927810 1_454
Gd0 Ru0 2.927810 1_555
Gd0 Ru1 2.927810 1_444
Gd0 Ru0 2.927810 1_554
Gd0 Ru1 2.927810 1_445
Er0 Ru0 2.927810 1_655
Er0 Ru1 2.927810 1_455
Er0 Ru1 2.927810 1_554
Er0 Ru0 2.927810 1_565
Er0 Ru0 2.927810 1_555
Er0 Ru0 2.927810 1_556
Er0 Ru1 2.927810 1_555
Er0 Ru1 2.927810 1_545
