# generated using pymatgen
data_Li2VO2F
_symmetry_space_group_name_H-M   'P 1'
_cell_length_a   2.96174928
_cell_length_b   9.90804742
_cell_length_c   8.32549523
_cell_angle_alpha   65.03858163
_cell_angle_beta   90.00018349
_cell_angle_gamma   89.99835302
_symmetry_Int_Tables_number   1
_chemical_formula_structural   Li2VO2F
_chemical_formula_sum   'Li8 V4 O8 F4'
_cell_volume   221.49218356
_cell_formula_units_Z   4
loop_
 _symmetry_equiv_pos_site_id
 _symmetry_equiv_pos_as_xyz
  1  'x, y, z'
loop_
 _atom_site_type_symbol
 _atom_site_label
 _atom_site_symmetry_multiplicity
 _atom_site_fract_x
 _atom_site_fract_y
 _atom_site_fract_z
 _atom_site_occupancy
  Li  Li0  1  0.00000400  0.33281500  0.83268400  1
  Li  Li1  1  0.00000100  0.33243700  0.33358500  1
  Li  Li2  1  0.49998500  0.50051400  0.00063200  1
  Li  Li3  1  0.49998000  0.50085700  0.49977300  1
  Li  Li4  1  0.99997300  0.64495400  0.67586300  1
  Li  Li5  1  0.99997500  0.64508400  0.17579700  1
  Li  Li6  1  0.49999800  0.18834700  0.15749300  1
  Li  Li7  1  0.50002100  0.18815700  0.65756700  1
  V  V0  1  0.00003300  0.01159300  0.49746000  1
  V  V1  1  0.50002200  0.82171600  0.33584400  1
  V  V2  1  0.99996600  0.01159300  0.99767900  1
  V  V3  1  0.50001400  0.82177000  0.83563100  1
  O  O0  1  0.49998700  0.16005800  0.91967700  1
  O  O1  1  0.50001100  0.16020400  0.41996100  1
  O  O2  1  0.00000100  0.67332200  0.91365700  1
  O  O3  1  0.00002300  0.67312500  0.41333800  1
  O  O4  1  0.50004100  0.84704200  0.57441000  1
  O  O5  1  0.49997700  0.84700900  0.07463200  1
  O  O6  1  0.00000600  0.98637700  0.75864700  1
  O  O7  1  0.00000600  0.98629900  0.25888200  1
  F  F0  1  0.50000200  0.49483100  0.75299200  1
  F  F1  1  0.49998200  0.49465300  0.25297700  1
  F  F2  1  0.99999200  0.33858400  0.08037300  1
  F  F3  1  0.00000000  0.33865700  0.58044500  1
loop_
_geom_bond_atom_site_label_1
_geom_bond_atom_site_label_2
_geom_bond_distance
_geom_bond_site_symmetry_2
Li0 O0 2.144942 1_555
Li0 O0 2.145082 1_455
Li1 O1 2.141594 1_555
Li1 O1 2.141624 1_455
Li2 O2 2.145275 1_554
Li2 O2 2.145411 1_654
Li3 O3 2.141712 1_555
Li3 O3 2.141959 1_655
Li4 O3 2.083285 1_655
Li4 O2 2.113783 1_655
Li4 O4 2.342522 1_555
Li4 O4 2.342853 1_655
Li5 O2 2.079899 1_654
Li5 O3 2.109982 1_655
Li5 O5 2.341512 1_555
Li5 O5 2.341596 1_655
Li6 O1 2.082900 1_555
Li6 O0 2.113551 1_554
Li6 O7 2.342386 1_645
Li6 O7 2.342432 1_545
Li7 O0 2.080076 1_555
Li7 O1 2.110059 1_555
Li7 O6 2.340479 1_645
Li7 O6 2.340612 1_545
O0 V2 1.992980 1_555
O0 V2 1.993139 1_455
O1 V0 1.993859 1_555
O1 V0 1.993890 1_655
O2 V3 1.992900 1_455
O2 V3 1.993023 1_555
O3 V1 1.993724 1_455
O3 V1 1.993785 1_555
O4 V3 2.081540 1_555
O4 V0 2.092823 1_565
O4 V0 2.092859 1_665
O4 V1 2.104407 1_555
O5 V1 2.081399 1_555
O5 V2 2.093041 1_464
O5 V2 2.093064 1_564
O5 V3 2.107562 1_554
O6 V0 2.081437 1_565
O6 V3 2.093177 1_555
O6 V3 2.093213 1_455
O6 V2 2.107701 1_465
O7 V2 2.081322 1_464
O7 V1 2.093043 1_555
O7 V1 2.093046 1_455
O7 V0 2.104343 1_565
F0 Li4 2.002872 1_555
F0 Li4 2.002933 1_455
F0 Li0 2.076297 1_655
F0 Li0 2.076358 1_555
F0 Li3 2.083680 1_555
F0 Li2 2.086112 1_556
F1 Li5 2.004743 1_455
F1 Li5 2.004778 1_555
F1 Li2 2.077058 1_555
F1 Li1 2.077547 1_555
F1 Li1 2.077558 1_655
F1 Li3 2.081386 1_555
F2 Li6 2.003568 1_655
F2 Li6 2.003608 1_555
F2 Li2 2.075761 1_555
F2 Li2 2.075801 1_655
F2 Li1 2.083145 1_655
F2 Li0 2.086899 1_654
F3 Li7 2.005160 1_455
F3 Li7 2.005186 1_555
F3 Li0 2.076251 1_555
F3 Li3 2.077442 1_555
F3 Li3 2.077457 1_455
F3 Li1 2.081989 1_555
