# generated using pymatgen
data_ZrH8Pb(C3O8)2
_symmetry_space_group_name_H-M   'P 1'
_cell_length_a   14.87875400
_cell_length_b   9.75665100
_cell_length_c   10.22928151
_cell_angle_alpha   74.66949791
_cell_angle_beta   90.00000000
_cell_angle_gamma   90.00000000
_symmetry_Int_Tables_number   1
_chemical_formula_structural   ZrH8Pb(C3O8)2
_chemical_formula_sum   'Zr4 H32 Pb4 C24 O64'
_cell_volume   1432.11282511
_cell_formula_units_Z   4
loop_
 _symmetry_equiv_pos_site_id
 _symmetry_equiv_pos_as_xyz
  1  'x, y, z'
loop_
 _atom_site_type_symbol
 _atom_site_label
 _atom_site_symmetry_multiplicity
 _atom_site_fract_x
 _atom_site_fract_y
 _atom_site_fract_z
 _atom_site_occupancy
  Zr  Zr0  1  0.88911200  0.68400700  0.12170800  1
  Zr  Zr1  1  0.38911200  0.81599300  0.87829200  1
  Zr  Zr2  1  0.11088800  0.31599300  0.87829200  1
  Zr  Zr3  1  0.61088800  0.18400700  0.12170800  1
  H  H0  1  0.91482500  0.32374200  0.86066600  1
  H  H1  1  0.41482500  0.17625800  0.13933400  1
  H  H2  1  0.08517500  0.67625800  0.13933400  1
  H  H3  1  0.58517500  0.82374200  0.86066600  1
  H  H4  1  0.94759400  0.38596200  0.98727100  1
  H  H5  1  0.44759400  0.11403800  0.01272900  1
  H  H6  1  0.05240600  0.61403800  0.01272900  1
  H  H7  1  0.55240600  0.88596200  0.98727100  1
  H  H8  1  0.63144400  0.07136400  0.50460800  1
  H  H9  1  0.13144400  0.42863600  0.49539200  1
  H  H10  1  0.36855600  0.92863600  0.49539200  1
  H  H11  1  0.86855600  0.57136400  0.50460800  1
  H  H12  1  0.65120300  0.14613000  0.62211700  1
  H  H13  1  0.15120300  0.35387000  0.37788300  1
  H  H14  1  0.34879700  0.85387000  0.37788300  1
  H  H15  1  0.84879700  0.64613000  0.62211700  1
  H  H16  1  0.69283100  0.66411400  0.13346900  1
  H  H17  1  0.19283100  0.83588600  0.86653100  1
  H  H18  1  0.30716900  0.33588600  0.86653100  1
  H  H19  1  0.80716900  0.16411400  0.13346900  1
  H  H20  1  0.72093800  0.55460900  0.04689100  1
  H  H21  1  0.22093800  0.94539100  0.95310900  1
  H  H22  1  0.27906200  0.44539100  0.95310900  1
  H  H23  1  0.77906200  0.05460900  0.04689100  1
  H  H24  1  0.82956700  0.22389200  0.77406400  1
  H  H25  1  0.32956700  0.27610800  0.22593600  1
  H  H26  1  0.17043300  0.77610800  0.22593600  1
  H  H27  1  0.67043300  0.72389200  0.77406400  1
  H  H28  1  0.83364900  0.39455400  0.70122400  1
  H  H29  1  0.33364900  0.10544600  0.29877600  1
  H  H30  1  0.16635100  0.60544600  0.29877600  1
  H  H31  1  0.66635100  0.89455400  0.70122400  1
  Pb  Pb0  1  0.86186500  0.06570800  0.51774900  1
  Pb  Pb1  1  0.36186500  0.43429200  0.48225100  1
  Pb  Pb2  1  0.13813500  0.93429200  0.48225100  1
  Pb  Pb3  1  0.63813500  0.56570800  0.51774900  1
  C  C0  1  0.06813200  0.12591400  0.68861000  1
  C  C1  1  0.56813200  0.37408600  0.31139000  1
  C  C2  1  0.93186800  0.87408600  0.31139000  1
  C  C3  1  0.43186800  0.62591400  0.68861000  1
  C  C4  1  0.17067000  0.15131800  0.67574000  1
  C  C5  1  0.67067000  0.34868200  0.32426000  1
  C  C6  1  0.82933000  0.84868200  0.32426000  1
  C  C7  1  0.32933000  0.65131800  0.67574000  1
  C  C8  1  0.87278000  0.79621500  0.81012800  1
  C  C9  1  0.37278000  0.70378500  0.18987200  1
  C  C10  1  0.12722000  0.20378500  0.18987200  1
  C  C11  1  0.62722000  0.29621500  0.81012800  1
  C  C12  1  0.85095700  0.92806800  0.86140300  1
  C  C13  1  0.35095700  0.57193200  0.13859700  1
  C  C14  1  0.14904300  0.07193200  0.13859700  1
  C  C15  1  0.64904300  0.42806800  0.86140300  1
  C  C16  1  0.89940300  0.35414200  0.22812300  1
  C  C17  1  0.39940300  0.14585800  0.77187700  1
  C  C18  1  0.10059700  0.64585800  0.77187700  1
  C  C19  1  0.60059700  0.85414200  0.22812300  1
  C  C20  1  0.91498300  0.40915800  0.35490400  1
  C  C21  1  0.41498300  0.09084200  0.64509600  1
  C  C22  1  0.08501700  0.59084200  0.64509600  1
  C  C23  1  0.58501700  0.90915800  0.35490400  1
  O  O0  1  0.03021200  0.06016800  0.61315100  1
  O  O1  1  0.53021200  0.43983200  0.38684900  1
  O  O2  1  0.96978800  0.93983200  0.38684900  1
  O  O3  1  0.46978800  0.56016800  0.61315100  1
  O  O4  1  0.03055100  0.17610700  0.77790900  1
  O  O5  1  0.53055100  0.32389300  0.22209100  1
  O  O6  1  0.96944900  0.82389300  0.22209100  1
  O  O7  1  0.46944900  0.67610700  0.77790900  1
  O  O8  1  0.79944800  0.77043600  0.25091100  1
  O  O9  1  0.29944800  0.72956400  0.74908900  1
  O  O10  1  0.20055200  0.22956400  0.74908900  1
  O  O11  1  0.70055200  0.27043600  0.25091100  1
  O  O12  1  0.78245900  0.90096000  0.39991500  1
  O  O13  1  0.28245900  0.59904000  0.60008500  1
  O  O14  1  0.21754100  0.09904000  0.60008500  1
  O  O15  1  0.71754100  0.40096000  0.39991500  1
  O  O16  1  0.88815600  0.68265100  0.90430500  1
  O  O17  1  0.38815600  0.81734900  0.09569500  1
  O  O18  1  0.11184400  0.31734900  0.09569500  1
  O  O19  1  0.61184400  0.18265100  0.90430500  1
  O  O20  1  0.87360100  0.80608100  0.68543000  1
  O  O21  1  0.37360100  0.69391900  0.31457000  1
  O  O22  1  0.12639900  0.19391900  0.31457000  1
  O  O23  1  0.62639900  0.30608100  0.68543000  1
  O  O24  1  0.85204000  0.90487600  0.99160700  1
  O  O25  1  0.35204000  0.59512400  0.00839300  1
  O  O26  1  0.14796000  0.09512400  0.00839300  1
  O  O27  1  0.64796000  0.40487600  0.99160700  1
  O  O28  1  0.83344500  0.04367500  0.77836200  1
  O  O29  1  0.33344500  0.45632500  0.22163800  1
  O  O30  1  0.16655500  0.95632500  0.22163800  1
  O  O31  1  0.66655500  0.54367500  0.77836200  1
  O  O32  1  0.89505500  0.45394900  0.11594900  1
  O  O33  1  0.39505500  0.04605100  0.88405100  1
  O  O34  1  0.10494500  0.54605100  0.88405100  1
  O  O35  1  0.60494500  0.95394900  0.11594900  1
  O  O36  1  0.89117200  0.22453300  0.23852800  1
  O  O37  1  0.39117200  0.27546700  0.76147200  1
  O  O38  1  0.10882800  0.77546700  0.76147200  1
  O  O39  1  0.60882800  0.72453300  0.23852800  1
  O  O40  1  0.92807300  0.32650000  0.46810300  1
  O  O41  1  0.42807300  0.17350000  0.53189700  1
  O  O42  1  0.07192700  0.67350000  0.53189700  1
  O  O43  1  0.57192700  0.82650000  0.46810300  1
  O  O44  1  0.91152900  0.54653400  0.32959300  1
  O  O45  1  0.41152900  0.95346600  0.67040700  1
  O  O46  1  0.08847100  0.45346600  0.67040700  1
  O  O47  1  0.58847100  0.04653400  0.32959300  1
  O  O48  1  0.97042600  0.33442000  0.92236700  1
  O  O49  1  0.47042600  0.16558000  0.07763300  1
  O  O50  1  0.02957400  0.66558000  0.07763300  1
  O  O51  1  0.52957400  0.83442000  0.92236700  1
  O  O52  1  0.67143100  0.06943300  0.58184000  1
  O  O53  1  0.17143100  0.43056700  0.41816000  1
  O  O54  1  0.32856900  0.93056700  0.41816000  1
  O  O55  1  0.82856900  0.56943300  0.58184000  1
  O  O56  1  0.74415100  0.62364200  0.09363000  1
  O  O57  1  0.24415100  0.87635800  0.90637000  1
  O  O58  1  0.25584900  0.37635800  0.90637000  1
  O  O59  1  0.75584900  0.12364200  0.09363000  1
  O  O60  1  0.83228300  0.32002700  0.78877900  1
  O  O61  1  0.33228300  0.17997300  0.21122100  1
  O  O62  1  0.16771700  0.67997300  0.21122100  1
  O  O63  1  0.66771700  0.82002700  0.78877900  1
loop_
_geom_bond_atom_site_label_1
_geom_bond_atom_site_label_2
_geom_bond_distance
_geom_bond_site_symmetry_2
H0 O48 1.062245 1_555
H0 O60 1.436814 1_555
H1 O49 1.062245 1_555
H1 O61 1.436814 1_555
H2 O50 1.062245 1_555
H2 O62 1.436814 1_555
H3 O51 1.062245 1_555
H3 O63 1.436814 1_555
H4 O48 0.992786 1_555
H5 O49 0.992786 1_555
H6 O50 0.992786 1_555
H7 O51 0.992786 1_555
H8 O52 0.985191 1_555
H9 O53 0.985191 1_555
H10 O54 0.985191 1_555
H11 O55 0.985191 1_555
H12 O52 0.991622 1_555
H13 O53 0.991622 1_555
H14 O54 0.991622 1_555
H15 O55 0.991622 1_555
H16 O56 0.995058 1_555
H17 O57 0.995058 1_555
H18 O58 0.995058 1_555
H19 O59 0.995058 1_555
H20 O56 0.985795 1_555
H21 O57 0.985795 1_555
H22 O58 0.985795 1_555
H23 O59 0.985795 1_555
H24 O60 0.989296 1_555
H25 O61 0.989296 1_555
H26 O62 0.989296 1_555
H27 O63 0.989296 1_555
H28 O60 0.993440 1_555
H29 O61 0.993440 1_555
H30 O62 0.993440 1_555
H31 O63 0.993440 1_555
C0 O0 1.259932 1_555
C0 O4 1.274142 1_555
C1 O1 1.259932 1_555
C1 O5 1.274142 1_555
C2 O2 1.259932 1_555
C2 O6 1.274142 1_555
C3 O3 1.259932 1_555
C3 O7 1.274142 1_555
C4 O14 1.246652 1_555
C4 O10 1.283092 1_555
C5 O15 1.246652 1_555
C5 O11 1.283092 1_555
C6 O12 1.246652 1_555
C6 O8 1.283092 1_555
C7 O13 1.246652 1_555
C7 O9 1.283092 1_555
C8 O20 1.253623 1_555
C8 O16 1.282054 1_555
C9 O21 1.253623 1_555
C9 O17 1.282054 1_555
C10 O22 1.253623 1_555
C10 O18 1.282054 1_555
C11 O23 1.253623 1_555
C11 O19 1.282054 1_555
C12 O28 1.247023 1_565
C12 O24 1.290752 1_555
C13 O29 1.247023 1_555
C13 O25 1.290752 1_555
C14 O30 1.247023 1_545
C14 O26 1.290752 1_555
C15 O31 1.247023 1_555
C15 O27 1.290752 1_555
C16 O36 1.246693 1_555
C16 O32 1.295477 1_555
C17 O37 1.246693 1_555
C17 O33 1.295477 1_555
C18 O38 1.246693 1_555
C18 O34 1.295477 1_555
C19 O39 1.246693 1_555
C19 O35 1.295477 1_555
C20 O40 1.239098 1_555
C20 O44 1.297174 1_555
C21 O41 1.239098 1_555
C21 O45 1.297174 1_545
C22 O42 1.239098 1_555
C22 O46 1.297174 1_555
C23 O43 1.239098 1_555
C23 O47 1.297174 1_565
O0 Pb2 2.597937 1_545
O0 Pb0 2.683540 1_455
O1 Pb3 2.597937 1_555
O1 Pb1 2.683540 1_555
O2 Pb0 2.597937 1_565
O2 Pb2 2.683540 1_655
O3 Pb1 2.597937 1_555
O3 Pb3 2.683540 1_555
O4 Zr2 2.255432 1_555
O5 Zr3 2.255432 1_555
O6 Zr0 2.255432 1_555
O7 Zr1 2.255432 1_555
O8 Zr0 2.197034 1_555
O9 Zr1 2.197034 1_555
O10 Zr2 2.197034 1_555
O11 Zr3 2.197034 1_555
O12 Pb0 2.541048 1_565
O13 Pb1 2.541048 1_555
O14 Pb2 2.541048 1_545
O15 Pb3 2.541048 1_555
O16 Zr0 2.227456 1_556
O17 Zr1 2.227456 1_554
O18 Zr2 2.227456 1_554
O19 Zr3 2.227456 1_556
O20 Pb0 2.663020 1_565
O21 Pb1 2.663020 1_555
O22 Pb2 2.663020 1_545
O23 Pb3 2.663020 1_555
O24 Zr0 2.280942 1_556
O25 Zr1 2.280942 1_554
O26 Zr2 2.280942 1_554
O27 Zr3 2.280942 1_556
O28 Pb0 2.651212 1_555
O29 Pb1 2.651212 1_555
O30 Pb2 2.651212 1_555
O31 Pb3 2.651212 1_555
O32 Zr0 2.262613 1_555
O33 Zr1 2.262613 1_545
O34 Zr2 2.262613 1_555
O35 Zr3 2.262613 1_565
O40 Pb0 2.649396 1_555
O41 Pb1 2.649396 1_555
O42 Pb2 2.649396 1_555
O43 Pb3 2.649396 1_555
O44 Zr0 2.219041 1_555
O45 Zr1 2.219041 1_555
O46 Zr2 2.219041 1_555
O47 Zr3 2.219041 1_555
O48 Zr2 2.155489 1_655
O49 Zr3 2.155489 1_555
O50 Zr0 2.155489 1_455
O51 Zr1 2.155489 1_555
O56 Zr0 2.273933 1_555
O57 Zr1 2.273933 1_555
O58 Zr2 2.273933 1_555
O59 Zr3 2.273933 1_555
