# generated using pymatgen
data_TeMoWSeS2
_symmetry_space_group_name_H-M   'P 1'
_cell_length_a   3.30596193
_cell_length_b   3.30596193
_cell_length_c   37.65785600
_cell_angle_alpha   90.00000000
_cell_angle_beta   90.00000000
_cell_angle_gamma   119.99999868
_symmetry_Int_Tables_number   1
_chemical_formula_structural   TeMoWSeS2
_chemical_formula_sum   'Te2 Mo2 W2 Se2 S4'
_cell_volume   356.43629869
_cell_formula_units_Z   2
loop_
 _symmetry_equiv_pos_site_id
 _symmetry_equiv_pos_as_xyz
  1  'x, y, z'
loop_
 _atom_site_type_symbol
 _atom_site_label
 _atom_site_symmetry_multiplicity
 _atom_site_fract_x
 _atom_site_fract_y
 _atom_site_fract_z
 _atom_site_occupancy
  Te  Te0  1  0.33333300  0.66666700  0.33264000  1
  Te  Te1  1  0.33333300  0.66666700  0.23098100  1
  Mo  Mo0  1  0.33333300  0.66666700  0.46968800  1
  Mo  Mo1  1  0.66666700  0.33333300  0.28179700  1
  W  W0  1  0.33333300  0.66666700  0.09388500  1
  W  W1  1  0.66666700  0.33333300  0.65754100  1
  Se  Se0  1  0.33333300  0.66666700  0.70244900  1
  Se  Se1  1  0.33333300  0.66666700  0.61262600  1
  S  S0  1  0.66666700  0.33333300  0.05314300  1
  S  S1  1  0.66666700  0.33333300  0.42912700  1
  S  S2  1  0.66666700  0.33333300  0.13463900  1
  S  S3  1  0.66666700  0.33333300  0.51023300  1
loop_
_geom_bond_atom_site_label_1
_geom_bond_atom_site_label_2
_geom_bond_distance
_geom_bond_site_symmetry_2
Mo0 S3 2.444249 1_455
Mo0 S3 2.444249 1_565
Mo0 S3 2.444254 1_555
Mo0 S1 2.444626 1_455
Mo0 S1 2.444626 1_565
Mo0 S1 2.444630 1_555
Mo1 Te1 2.702789 1_545
Mo1 Te1 2.702789 1_655
Mo1 Te1 2.702793 1_555
Mo1 Te0 2.703509 1_655
Mo1 Te0 2.703509 1_545
Mo1 Te0 2.703513 1_555
Se0 W1 2.550112 1_455
Se0 W1 2.550112 1_565
Se0 W1 2.550116 1_555
Se1 W1 2.550287 1_455
Se1 W1 2.550287 1_565
Se1 W1 2.550291 1_555
S0 W0 2.448890 1_545
S0 W0 2.448890 1_655
S0 W0 2.448895 1_555
S2 W0 2.449173 1_545
S2 W0 2.449173 1_655
S2 W0 2.449178 1_555
