# generated using pymatgen
data_Rb3Th
_symmetry_space_group_name_H-M   'P 1'
_cell_length_a   6.26599900
_cell_length_b   6.26599900
_cell_length_c   6.26599900
_cell_angle_alpha   90.00000000
_cell_angle_beta   90.00000000
_cell_angle_gamma   90.00000000
_symmetry_Int_Tables_number   1
_chemical_formula_structural   Rb3Th
_chemical_formula_sum   'Rb3 Th1'
_cell_volume   246.02031131
_cell_formula_units_Z   1
loop_
 _symmetry_equiv_pos_site_id
 _symmetry_equiv_pos_as_xyz
  1  'x, y, z'
loop_
 _atom_site_type_symbol
 _atom_site_label
 _atom_site_symmetry_multiplicity
 _atom_site_fract_x
 _atom_site_fract_y
 _atom_site_fract_z
 _atom_site_occupancy
  Rb  Rb0  1  0.00000000  0.50000000  0.50000000  1
  Rb  Rb1  1  0.50000000  0.00000000  0.50000000  1
  Rb  Rb2  1  0.50000000  0.50000000  0.00000000  1
  Th  Th0  1  0.00000000  0.00000000  0.00000000  1
loop_
_geom_bond_atom_site_label_1
_geom_bond_atom_site_label_2
_geom_bond_distance
_geom_bond_site_symmetry_2
Rb0 Rb1 4.430730 1_555
Rb0 Th0 4.430730 1_556
Rb0 Rb2 4.430730 1_455
Rb0 Th0 4.430730 1_565
Rb0 Rb2 4.430730 1_456
Rb0 Rb2 4.430730 1_556
Rb0 Rb1 4.430730 1_565
Rb0 Th0 4.430730 1_555
Rb0 Th0 4.430730 1_566
Rb0 Rb2 4.430730 1_555
Rb0 Rb1 4.430730 1_465
Rb0 Rb1 4.430730 1_455
Rb1 Th0 4.430730 1_556
Rb1 Th0 4.430730 1_656
Rb1 Rb2 4.430730 1_556
Rb1 Th0 4.430730 1_655
Rb1 Th0 4.430730 1_555
Rb1 Rb2 4.430730 1_546
Rb1 Rb2 4.430730 1_545
Rb1 Rb2 4.430730 1_555
Rb2 Th0 4.430730 1_565
Rb2 Th0 4.430730 1_665
Rb2 Th0 4.430730 1_655
Rb2 Th0 4.430730 1_555
