# generated using pymatgen
data_Sr2YMnCu2O7
_symmetry_space_group_name_H-M   'P 1'
_cell_length_a   5.43753757
_cell_length_b   5.44006103
_cell_length_c   12.38521439
_cell_angle_alpha   102.72403267
_cell_angle_beta   102.68299143
_cell_angle_gamma   89.96421403
_symmetry_Int_Tables_number   1
_chemical_formula_structural   Sr2YMnCu2O7
_chemical_formula_sum   'Sr4 Y2 Mn2 Cu4 O14'
_cell_volume   348.20563093
_cell_formula_units_Z   2
loop_
 _symmetry_equiv_pos_site_id
 _symmetry_equiv_pos_as_xyz
  1  'x, y, z'
loop_
 _atom_site_type_symbol
 _atom_site_label
 _atom_site_symmetry_multiplicity
 _atom_site_fract_x
 _atom_site_fract_y
 _atom_site_fract_z
 _atom_site_occupancy
  Sr  Sr0  1  0.33073800  0.34357900  0.70121200  1
  Sr  Sr1  1  0.62956200  0.65728800  0.29854700  1
  Sr  Sr2  1  0.83088900  0.85841200  0.70107100  1
  Sr  Sr3  1  0.12951900  0.14213000  0.29856800  1
  Y  Y0  1  0.98304100  0.00047200  0.99977200  1
  Y  Y1  1  0.48312000  0.50050800  0.99979900  1
  Mn  Mn0  1  0.27428900  0.68515200  0.50011800  1
  Mn  Mn1  1  0.77446200  0.31627500  0.49982100  1
  Cu  Cu0  1  0.91223300  0.43067000  0.85889000  1
  Cu  Cu1  1  0.05322800  0.57025200  0.14033700  1
  Cu  Cu2  1  0.41245800  0.92948400  0.85923700  1
  Cu  Cu3  1  0.55331300  0.07166900  0.14065900  1
  O  O0  1  0.13222200  0.34026600  0.49973300  1
  O  O1  1  0.63244700  0.66050900  0.49975500  1
  O  O2  1  0.17770900  0.19573300  0.87537800  1
  O  O3  1  0.30288800  0.80584600  0.12458600  1
  O  O4  1  0.67821500  0.18081000  0.87521000  1
  O  O5  1  0.80298800  0.82035500  0.12449800  1
  O  O6  1  0.66321200  0.68031800  0.87506800  1
  O  O7  1  0.78806000  0.32056700  0.12479600  1
  O  O8  1  0.16298300  0.69528500  0.87506800  1
  O  O9  1  0.28797000  0.30664000  0.12440100  1
  O  O10  1  0.30279700  0.83812600  0.65536600  1
  O  O11  1  0.64801600  0.16323100  0.34459600  1
  O  O12  1  0.80387100  0.31968800  0.65530300  1
  O  O13  1  0.14812200  0.68316700  0.34509000  1
loop_
_geom_bond_atom_site_label_1
_geom_bond_atom_site_label_2
_geom_bond_distance
_geom_bond_site_symmetry_2
Mn0 O13 1.889402 1_555
Mn0 O10 1.891576 1_555
Mn0 O1 1.952944 1_555
Mn0 O0 2.028091 1_555
Mn1 O11 1.891320 1_555
Mn1 O12 1.892930 1_555
Mn1 O0 1.950043 1_655
Mn1 O1 2.025274 1_555
Cu0 O6 1.927442 1_555
Cu0 O8 1.930500 1_655
Cu0 O2 1.934473 1_655
Cu0 O4 1.934881 1_555
Cu0 O12 2.397279 1_555
Cu1 O9 1.925720 1_555
Cu1 O7 1.930390 1_455
Cu1 O5 1.933695 1_455
Cu1 O3 1.937053 1_555
Cu1 O13 2.411229 1_555
Cu2 O8 1.931536 1_555
Cu2 O6 1.931897 1_555
Cu2 O2 1.936334 1_565
Cu2 O4 1.937640 1_565
Cu2 O10 2.400948 1_555
Cu3 O7 1.931514 1_555
Cu3 O9 1.933830 1_555
Cu3 O3 1.934334 1_545
Cu3 O5 1.936178 1_545
Cu3 O11 2.401652 1_555
O0 Sr3 2.484031 1_555
O0 Sr0 2.487923 1_555
O1 Sr1 2.484801 1_555
O1 Sr2 2.485503 1_555
O2 Y1 2.373957 1_555
O2 Y0 2.461868 1_455
O2 Sr0 2.746915 1_555
O2 Sr2 2.838283 1_445
O3 Y1 2.374942 1_554
O3 Y0 2.464454 1_464
O3 Sr1 2.745020 1_555
O3 Sr3 2.834065 1_565
O4 Y0 2.373102 1_555
O4 Y1 2.462816 1_555
O4 Sr2 2.744976 1_545
O4 Sr0 2.836998 1_555
O5 Y0 2.374234 1_564
O5 Y1 2.465441 1_554
O5 Sr3 2.743199 1_665
O5 Sr1 2.838838 1_555
O6 Y1 2.373474 1_555
O6 Y0 2.466290 1_565
O6 Sr0 2.796021 1_555
O6 Sr2 2.863132 1_555
O7 Y1 2.375417 1_554
O7 Y0 2.466740 1_554
O7 Sr1 2.793748 1_555
O7 Sr3 2.860932 1_655
O8 Y0 2.373006 1_465
O8 Y1 2.465233 1_555
O8 Sr2 2.797135 1_455
O8 Sr0 2.859147 1_555
O9 Y0 2.377600 1_454
O9 Y1 2.461153 1_554
O9 Sr3 2.804242 1_555
O9 Sr1 2.858947 1_555
O10 Sr0 2.679773 1_565
O10 Sr2 2.743540 1_455
O10 Sr2 2.799527 1_555
O10 Sr0 2.866724 1_555
O11 Sr1 2.682267 1_545
O11 Sr3 2.748217 1_555
O11 Sr3 2.796296 1_655
O11 Sr1 2.865109 1_555
O12 Sr2 2.688754 1_545
O12 Sr0 2.751042 1_555
O12 Sr0 2.792889 1_655
O12 Sr2 2.857275 1_555
O13 Sr3 2.680295 1_565
O13 Sr1 2.748413 1_455
O13 Sr1 2.798512 1_555
O13 Sr3 2.869288 1_555
