# generated using pymatgen
data_CrFeN2
_symmetry_space_group_name_H-M   'P 1'
_cell_length_a   4.65246400
_cell_length_b   9.70999100
_cell_length_c   13.13630100
_cell_angle_alpha   90.00000000
_cell_angle_beta   90.00000000
_cell_angle_gamma   90.00000000
_symmetry_Int_Tables_number   1
_chemical_formula_structural   CrFeN2
_chemical_formula_sum   'Cr16 Fe16 N32'
_cell_volume   593.43743634
_cell_formula_units_Z   16
loop_
 _symmetry_equiv_pos_site_id
 _symmetry_equiv_pos_as_xyz
  1  'x, y, z'
loop_
 _atom_site_type_symbol
 _atom_site_label
 _atom_site_symmetry_multiplicity
 _atom_site_fract_x
 _atom_site_fract_y
 _atom_site_fract_z
 _atom_site_occupancy
  Cr  Cr0  1  0.24691800  0.01705000  0.46840600  1
  Cr  Cr1  1  0.74691800  0.48295000  0.53159400  1
  Cr  Cr2  1  0.75308200  0.51705000  0.03159400  1
  Cr  Cr3  1  0.25308200  0.98295000  0.96840600  1
  Cr  Cr4  1  0.75308200  0.98295000  0.53159400  1
  Cr  Cr5  1  0.25308200  0.51705000  0.46840600  1
  Cr  Cr6  1  0.24691800  0.48295000  0.96840600  1
  Cr  Cr7  1  0.74691800  0.01705000  0.03159400  1
  Cr  Cr8  1  0.22285600  0.35169200  0.31644900  1
  Cr  Cr9  1  0.72285600  0.14830800  0.68355000  1
  Cr  Cr10  1  0.77714400  0.85169200  0.18355100  1
  Cr  Cr11  1  0.27714400  0.64830800  0.81645000  1
  Cr  Cr12  1  0.77714400  0.64830800  0.68355000  1
  Cr  Cr13  1  0.27714400  0.85169200  0.31644900  1
  Cr  Cr14  1  0.22285600  0.14830800  0.81645000  1
  Cr  Cr15  1  0.72285600  0.35169200  0.18355100  1
  Fe  Fe0  1  0.83572300  0.04982400  0.30409700  1
  Fe  Fe1  1  0.33572300  0.45017600  0.69590300  1
  Fe  Fe2  1  0.16427700  0.54982400  0.19590300  1
  Fe  Fe3  1  0.66427700  0.95017600  0.80409700  1
  Fe  Fe4  1  0.16427700  0.95017600  0.69590300  1
  Fe  Fe5  1  0.66427700  0.54982400  0.30409700  1
  Fe  Fe6  1  0.83572300  0.45017600  0.80409700  1
  Fe  Fe7  1  0.33572300  0.04982400  0.19590300  1
  Fe  Fe8  1  0.78769200  0.25379300  0.42689300  1
  Fe  Fe9  1  0.28769200  0.24620700  0.57310700  1
  Fe  Fe10  1  0.21230800  0.75379300  0.07310700  1
  Fe  Fe11  1  0.71230800  0.74620700  0.92689300  1
  Fe  Fe12  1  0.21230800  0.74620700  0.57310700  1
  Fe  Fe13  1  0.71230800  0.75379300  0.42689300  1
  Fe  Fe14  1  0.78769200  0.24620700  0.92689300  1
  Fe  Fe15  1  0.28769200  0.25379300  0.07310700  1
  N  N0  1  0.05565400  0.35424700  0.49189200  1
  N  N1  1  0.55565400  0.14575300  0.50810800  1
  N  N2  1  0.94434600  0.85424700  0.00810800  1
  N  N3  1  0.44434600  0.64575300  0.99189200  1
  N  N4  1  0.94434600  0.64575300  0.50810800  1
  N  N5  1  0.44434600  0.85424700  0.49189200  1
  N  N6  1  0.05565400  0.14575300  0.99189200  1
  N  N7  1  0.55565400  0.35424700  0.00810800  1
  N  N8  1  0.56314300  0.41188700  0.39962000  1
  N  N9  1  0.06314300  0.08811300  0.60038000  1
  N  N10  1  0.43685700  0.91188700  0.10038000  1
  N  N11  1  0.93685700  0.58811300  0.89962000  1
  N  N12  1  0.43685700  0.58811300  0.60038000  1
  N  N13  1  0.93685700  0.91188700  0.39962000  1
  N  N14  1  0.56314300  0.08811300  0.89962000  1
  N  N15  1  0.06314300  0.41188700  0.10038000  1
  N  N16  1  0.90480100  0.24314500  0.29536000  1
  N  N17  1  0.40480100  0.25685500  0.70464000  1
  N  N18  1  0.09519900  0.74314500  0.20464000  1
  N  N19  1  0.59519900  0.75685500  0.79536000  1
  N  N20  1  0.09519900  0.75685500  0.70464000  1
  N  N21  1  0.59519900  0.74314500  0.29536000  1
  N  N22  1  0.90480100  0.25685500  0.79536000  1
  N  N23  1  0.40480100  0.24314500  0.20464000  1
  N  N24  1  0.56245400  0.52549200  0.16824100  1
  N  N25  1  0.06245400  0.97450800  0.83175900  1
  N  N26  1  0.43754600  0.02549200  0.33175900  1
  N  N27  1  0.93754600  0.47450800  0.66824100  1
  N  N28  1  0.43754600  0.47450800  0.83175900  1
  N  N29  1  0.93754600  0.02549200  0.16824100  1
  N  N30  1  0.56245400  0.97450800  0.66824100  1
  N  N31  1  0.06245400  0.52549200  0.33175900  1
loop_
_geom_bond_atom_site_label_1
_geom_bond_atom_site_label_2
_geom_bond_distance
_geom_bond_site_symmetry_2
Cr0 N5 1.854145 1_545
Cr0 N1 1.974072 1_555
Cr0 N13 1.984977 1_445
Cr0 N26 2.003858 1_555
Cr0 N9 2.052488 1_555
Cr1 N4 1.854145 1_555
Cr1 N0 1.974072 1_655
Cr1 N12 1.984977 1_555
Cr1 N27 2.003858 1_555
Cr1 N8 2.052488 1_555
Cr2 N7 1.854145 1_555
Cr2 N3 1.974072 1_554
Cr2 N15 1.984977 1_655
Cr2 N24 2.003858 1_555
Cr2 N11 2.052488 1_554
Cr3 N6 1.854145 1_565
Cr3 N2 1.974072 1_456
Cr3 N14 1.984977 1_565
Cr3 N25 2.003858 1_555
Cr3 N10 2.052488 1_556
Cr4 N1 1.854145 1_565
Cr4 N5 1.974072 1_555
Cr4 N9 1.984977 1_665
Cr4 N30 2.003858 1_555
Cr4 N13 2.052488 1_555
Cr5 N0 1.854145 1_555
Cr5 N4 1.974072 1_455
Cr5 N8 1.984977 1_555
Cr5 N31 2.003858 1_555
Cr5 N12 2.052488 1_555
Cr6 N3 1.854145 1_555
Cr6 N7 1.974072 1_556
Cr6 N11 1.984977 1_455
Cr6 N28 2.003858 1_555
Cr6 N15 2.052488 1_556
Cr7 N2 1.854145 1_545
Cr7 N6 1.974072 1_654
Cr7 N10 1.984977 1_545
Cr7 N29 2.003858 1_555
Cr7 N14 2.052488 1_554
Cr8 N16 1.837735 1_455
Cr8 N31 1.856163 1_555
Cr8 N23 1.996169 1_555
Cr8 N8 2.010412 1_555
Cr8 N0 2.432542 1_555
Cr9 N17 1.837737 1_555
Cr9 N30 1.856161 1_545
Cr9 N22 1.996179 1_555
Cr9 N9 2.010404 1_655
Cr9 N1 2.432529 1_555
Cr10 N18 1.837735 1_655
Cr10 N29 1.856163 1_565
Cr10 N21 1.996169 1_555
Cr10 N10 2.010412 1_555
Cr10 N2 2.432542 1_555
Cr11 N19 1.837737 1_555
Cr11 N28 1.856161 1_555
Cr11 N20 1.996179 1_555
Cr11 N11 2.010404 1_455
Cr11 N3 2.432529 1_555
Cr12 N20 1.837737 1_655
Cr12 N27 1.856161 1_555
Cr12 N19 1.996179 1_555
Cr12 N12 2.010404 1_555
Cr12 N4 2.432529 1_555
Cr13 N21 1.837735 1_555
Cr13 N26 1.856163 1_565
Cr13 N18 1.996169 1_555
Cr13 N13 2.010412 1_455
Cr13 N5 2.432542 1_555
Cr14 N22 1.837737 1_455
Cr14 N25 1.856161 1_545
Cr14 N17 1.996179 1_555
Cr14 N14 2.010404 1_555
Cr14 N6 2.432529 1_555
Cr15 N23 1.837735 1_555
Cr15 N24 1.856163 1_555
Cr15 N16 1.996169 1_555
Cr15 N15 2.010412 1_655
Cr15 N7 2.432542 1_555
Fe0 N29 1.861504 1_555
Fe0 N13 1.894694 1_545
Fe0 N26 1.902534 1_555
Fe0 N16 1.907913 1_555
Fe1 N28 1.861504 1_555
Fe1 N12 1.894694 1_555
Fe1 N27 1.902534 1_455
Fe1 N17 1.907913 1_555
Fe2 N31 1.861504 1_555
Fe2 N15 1.894694 1_555
Fe2 N24 1.902534 1_555
Fe2 N18 1.907913 1_555
Fe3 N30 1.861504 1_555
Fe3 N14 1.894694 1_565
Fe3 N25 1.902534 1_655
Fe3 N19 1.907913 1_555
Fe4 N25 1.861504 1_555
Fe4 N9 1.894694 1_565
Fe4 N30 1.902534 1_555
Fe4 N20 1.907913 1_555
Fe5 N24 1.861504 1_555
Fe5 N8 1.894694 1_555
Fe5 N31 1.902534 1_655
Fe5 N21 1.907913 1_555
Fe6 N27 1.861504 1_555
Fe6 N11 1.894694 1_555
Fe6 N28 1.902534 1_555
Fe6 N22 1.907913 1_555
Fe7 N26 1.861504 1_555
Fe7 N10 1.894694 1_545
Fe7 N29 1.902534 1_455
Fe7 N23 1.907913 1_555
Fe8 N0 1.798525 1_655
Fe8 N16 1.814673 1_555
Fe8 N1 1.845039 1_555
Fe8 N8 1.891103 1_555
Fe9 N1 1.798525 1_555
Fe9 N17 1.814673 1_555
Fe9 N0 1.845039 1_555
Fe9 N9 1.891103 1_555
Fe10 N2 1.798525 1_455
Fe10 N18 1.814673 1_555
Fe10 N3 1.845039 1_554
Fe10 N10 1.891103 1_555
Fe11 N3 1.798525 1_555
Fe11 N19 1.814673 1_555
Fe11 N2 1.845039 1_556
Fe11 N11 1.891103 1_555
Fe12 N4 1.798525 1_455
Fe12 N20 1.814673 1_555
Fe12 N5 1.845039 1_555
Fe12 N12 1.891103 1_555
Fe13 N5 1.798525 1_555
Fe13 N21 1.814673 1_555
Fe13 N4 1.845039 1_555
Fe13 N13 1.891103 1_555
Fe14 N6 1.798525 1_655
Fe14 N22 1.814673 1_555
Fe14 N7 1.845039 1_556
Fe14 N14 1.891103 1_555
Fe15 N7 1.798525 1_555
Fe15 N23 1.814673 1_555
Fe15 N6 1.845039 1_554
Fe15 N15 1.891103 1_555
