# generated using pymatgen
data_LuAu4
_symmetry_space_group_name_H-M   'P 1'
_cell_length_a   4.13264519
_cell_length_b   5.15958136
_cell_length_c   5.15958136
_cell_angle_alpha   80.77066577
_cell_angle_beta   66.39162914
_cell_angle_gamma   66.39162914
_symmetry_Int_Tables_number   1
_chemical_formula_structural   LuAu4
_chemical_formula_sum   'Lu1 Au4'
_cell_volume   92.37116735
_cell_formula_units_Z   1
loop_
 _symmetry_equiv_pos_site_id
 _symmetry_equiv_pos_as_xyz
  1  'x, y, z'
loop_
 _atom_site_type_symbol
 _atom_site_label
 _atom_site_symmetry_multiplicity
 _atom_site_fract_x
 _atom_site_fract_y
 _atom_site_fract_z
 _atom_site_occupancy
  Lu  Lu0  1  0.00000000  0.00000000  -0.00000000  1
  Au  Au0  1  0.60117440  0.59897424  0.19867597  1
  Au  Au1  1  0.39882560  0.40102576  0.80132403  1
  Au  Au2  1  0.20014864  0.19867597  0.40102576  1
  Au  Au3  1  0.79985136  0.80132403  0.59897424  1
loop_
_geom_bond_atom_site_label_1
_geom_bond_atom_site_label_2
_geom_bond_distance
_geom_bond_site_symmetry_2
Au0 Au1 2.945259 1_554
Au0 Au1 2.945264 1_654
Au0 Lu0 2.957459 1_565
Au0 Lu0 2.957462 1_665
Au0 Au3 2.960820 1_455
Au0 Au2 2.960823 1_655
Au0 Au2 2.960823 1_555
Au0 Au3 2.960827 1_555
Au0 Lu0 2.983512 1_655
Au0 Au2 2.992285 1_565
Au0 Au3 2.992285 1_554
Au0 Au1 2.998928 1_555
Au1 Lu0 2.957459 1_656
Au1 Lu0 2.957462 1_556
Au1 Au2 2.960820 1_655
Au1 Au3 2.960823 1_455
Au1 Au3 2.960823 1_555
Au1 Au2 2.960827 1_555
Au1 Lu0 2.983512 1_566
Au1 Au3 2.992285 1_545
Au1 Au2 2.992285 1_556
Au2 Au3 2.945259 1_445
Au2 Au3 2.945264 1_545
Au2 Lu0 2.957460 1_555
Au2 Lu0 2.957461 1_655
Au2 Lu0 2.983512 1_556
Au2 Au3 2.998928 1_455
Au3 Lu0 2.957460 1_666
Au3 Lu0 2.957461 1_566
Au3 Lu0 2.983512 1_665
