# generated using pymatgen
data_Te2Mo3W(Se2S)2
_symmetry_space_group_name_H-M   'P 1'
_cell_length_a   3.34445612
_cell_length_b   3.34445612
_cell_length_c   38.04925300
_cell_angle_alpha   90.00000000
_cell_angle_beta   90.00000000
_cell_angle_gamma   120.00000244
_symmetry_Int_Tables_number   1
_chemical_formula_structural   Te2Mo3W(Se2S)2
_chemical_formula_sum   'Te2 Mo3 W1 Se4 S2'
_cell_volume   368.57660157
_cell_formula_units_Z   1
loop_
 _symmetry_equiv_pos_site_id
 _symmetry_equiv_pos_as_xyz
  1  'x, y, z'
loop_
 _atom_site_type_symbol
 _atom_site_label
 _atom_site_symmetry_multiplicity
 _atom_site_fract_x
 _atom_site_fract_y
 _atom_site_fract_z
 _atom_site_occupancy
  Te  Te0  1  0.33333300  0.66666700  0.33166300  1
  Te  Te1  1  0.33333300  0.66666700  0.23188100  1
  Mo  Mo0  1  0.33333300  0.66666700  0.09391400  1
  Mo  Mo1  1  0.33333300  0.66666700  0.46967600  1
  Mo  Mo2  1  0.66666700  0.33333300  0.28175900  1
  W  W0  1  0.66666700  0.33333300  0.65752700  1
  Se  Se0  1  0.33333300  0.66666700  0.70151400  1
  Se  Se1  1  0.66666700  0.33333300  0.42592000  1
  Se  Se2  1  0.66666700  0.33333300  0.51347500  1
  Se  Se3  1  0.33333300  0.66666700  0.61356300  1
  S  S0  1  0.66666700  0.33333300  0.05406700  1
  S  S1  1  0.66666700  0.33333300  0.13379000  1
loop_
_geom_bond_atom_site_label_1
_geom_bond_atom_site_label_2
_geom_bond_distance
_geom_bond_site_symmetry_2
Mo0 S0 2.455028 1_455
Mo0 S0 2.455028 1_565
Mo0 S0 2.455032 1_555
Mo0 S1 2.455709 1_455
Mo0 S1 2.455709 1_565
Mo0 S1 2.455714 1_555
Mo1 Se1 2.549567 1_455
Mo1 Se1 2.549567 1_565
Mo1 Se1 2.549571 1_555
Mo1 Se2 2.550635 1_565
Mo1 Se2 2.550635 1_455
Mo1 Se2 2.550640 1_555
Mo2 Te1 2.707430 1_655
Mo2 Te1 2.707430 1_545
Mo2 Te1 2.707434 1_555
Mo2 Te0 2.708124 1_545
Mo2 Te0 2.708124 1_655
Mo2 Te0 2.708128 1_555
Se0 W0 2.555315 1_455
Se0 W0 2.555315 1_565
Se0 W0 2.555319 1_555
Se3 W0 2.554742 1_455
Se3 W0 2.554742 1_565
Se3 W0 2.554746 1_555
