# generated using pymatgen
data_BaReH7
_symmetry_space_group_name_H-M   'P 1'
_cell_length_a   3.70078308
_cell_length_b   5.06106397
_cell_length_c   9.99488300
_cell_angle_alpha   90.00000000
_cell_angle_beta   90.00000000
_cell_angle_gamma   74.39454924
_symmetry_Int_Tables_number   1
_chemical_formula_structural   BaReH7
_chemical_formula_sum   'Ba2 Re2 H14'
_cell_volume   180.30228429
_cell_formula_units_Z   2
loop_
 _symmetry_equiv_pos_site_id
 _symmetry_equiv_pos_as_xyz
  1  'x, y, z'
loop_
 _atom_site_type_symbol
 _atom_site_label
 _atom_site_symmetry_multiplicity
 _atom_site_fract_x
 _atom_site_fract_y
 _atom_site_fract_z
 _atom_site_occupancy
  Ba  Ba0  1  0.00000000  0.00000000  0.00000000  1
  Ba  Ba1  1  0.00000000  0.00000000  0.50000000  1
  Re  Re0  1  0.62148000  0.57194200  0.25000000  1
  Re  Re1  1  0.37852000  0.42805800  0.75000000  1
  H  H0  1  0.54106300  0.92491700  0.25000000  1
  H  H1  1  0.45893700  0.07508300  0.75000000  1
  H  H2  1  0.67836900  0.61308700  0.42130700  1
  H  H3  1  0.32163100  0.38691300  0.92130700  1
  H  H4  1  0.32163100  0.38691300  0.57869300  1
  H  H5  1  0.67836900  0.61308700  0.07869300  1
  H  H6  1  0.43205000  0.36986300  0.34332800  1
  H  H7  1  0.56795000  0.63013700  0.84332800  1
  H  H8  1  0.56795000  0.63013700  0.65667200  1
  H  H9  1  0.43205000  0.36986300  0.15667200  1
  H  H10  1  0.12102400  0.70425800  0.25000000  1
  H  H11  1  0.87897600  0.29574200  0.75000000  1
  H  H12  1  0.91550200  0.24989800  0.25000000  1
  H  H13  1  0.08449800  0.75010200  0.75000000  1
loop_
_geom_bond_atom_site_label_1
_geom_bond_atom_site_label_2
_geom_bond_distance
_geom_bond_site_symmetry_2
Ba0 H3 2.669073 1_554
Ba0 H5 2.669073 1_445
Ba0 H12 2.779963 1_455
Ba0 H13 2.779963 1_544
Ba0 H3 2.847945 1_454
Ba0 H5 2.847945 1_545
Ba0 H9 2.873515 1_455
Ba0 H7 2.873515 1_544
Ba0 H11 2.885107 1_454
Ba0 H10 2.885107 1_545
Ba1 H4 2.669073 1_555
Ba1 H2 2.669073 1_445
Ba1 H12 2.779963 1_455
Ba1 H13 2.779963 1_545
Ba1 H4 2.847945 1_455
Ba1 H2 2.847945 1_545
Ba1 H8 2.873515 1_545
Ba1 H6 2.873515 1_455
Ba1 H11 2.885107 1_455
Ba1 H10 2.885107 1_545
H0 Re0 1.730277 1_555
H1 Re1 1.730277 1_555
H2 Re0 1.744386 1_555
H3 Re1 1.744386 1_555
H4 Re1 1.744386 1_555
H5 Re0 1.744386 1_555
H6 Re0 1.671321 1_555
H7 Re1 1.671321 1_555
H8 Re1 1.671321 1_555
H9 Re0 1.671321 1_555
H10 Re0 1.792024 1_555
H10 Re0 2.128902 1_455
H11 Re1 1.792024 1_555
H11 Re1 2.128902 1_655
H12 Re0 1.698921 1_555
H13 Re1 1.698921 1_555
