# generated using pymatgen
data_Nb6Fe7
_symmetry_space_group_name_H-M   'P 1'
_cell_length_a   4.88438569
_cell_length_b   4.88438600
_cell_length_c   9.20306590
_cell_angle_alpha   74.61121942
_cell_angle_beta   74.61121789
_cell_angle_gamma   59.99999790
_symmetry_Int_Tables_number   1
_chemical_formula_structural   Nb6Fe7
_chemical_formula_sum   'Nb6 Fe7'
_cell_volume   180.99759384
_cell_formula_units_Z   1
loop_
 _symmetry_equiv_pos_site_id
 _symmetry_equiv_pos_as_xyz
  1  'x, y, z'
loop_
 _atom_site_type_symbol
 _atom_site_label
 _atom_site_symmetry_multiplicity
 _atom_site_fract_x
 _atom_site_fract_y
 _atom_site_fract_z
 _atom_site_occupancy
  Nb  Nb0  1  0.83297100  0.83297100  0.50108700  1
  Nb  Nb1  1  0.16702900  0.16702900  0.49891300  1
  Nb  Nb2  1  0.65381600  0.65381600  0.03855300  1
  Nb  Nb3  1  0.34618400  0.34618400  0.96144700  1
  Nb  Nb4  1  0.55035700  0.55035700  0.34892800  1
  Nb  Nb5  1  0.44964300  0.44964300  0.65107200  1
  Fe  Fe0  1  0.00000000  0.00000000  0.00000000  1
  Fe  Fe1  1  0.90957200  0.40484100  0.77601600  1
  Fe  Fe2  1  0.40484100  0.90957200  0.77601600  1
  Fe  Fe3  1  0.90957200  0.90957200  0.77601600  1
  Fe  Fe4  1  0.09042800  0.59515900  0.22398400  1
  Fe  Fe5  1  0.59515900  0.09042800  0.22398400  1
  Fe  Fe6  1  0.09042800  0.09042800  0.22398400  1
loop_
_geom_bond_atom_site_label_1
_geom_bond_atom_site_label_2
_geom_bond_distance
_geom_bond_site_symmetry_2
Nb0 Nb1 2.820066 1_565
Nb0 Nb1 2.820066 1_655
Nb0 Nb1 2.820066 1_665
Nb0 Nb5 3.111075 1_555
Nb0 Nb5 3.111079 1_655
Nb0 Nb5 3.111079 1_565
Nb0 Nb4 3.119167 1_655
Nb0 Nb4 3.119167 1_565
Nb0 Nb4 3.119171 1_555
Nb1 Nb4 3.111075 1_555
Nb1 Nb4 3.111079 1_455
Nb1 Nb4 3.111079 1_545
Nb1 Nb5 3.119167 1_455
Nb1 Nb5 3.119167 1_545
Nb1 Nb5 3.119171 1_555
Nb2 Nb4 2.718999 1_555
Nb2 Nb3 2.899769 1_654
Nb2 Nb3 2.899769 1_564
Nb2 Nb3 2.899777 1_554
Nb3 Nb5 2.718999 1_555
Nb4 Nb5 2.646892 1_555
Fe0 Fe3 2.408486 1_444
Fe0 Fe6 2.408486 1_555
Fe0 Fe2 2.408489 1_544
Fe0 Fe5 2.408489 1_455
Fe0 Fe4 2.408489 1_545
Fe0 Fe1 2.408489 1_454
Fe0 Nb3 2.840151 1_554
Fe0 Nb2 2.840151 1_445
Fe0 Nb3 2.840155 1_454
Fe0 Nb2 2.840155 1_545
Fe0 Nb3 2.840156 1_544
Fe0 Nb2 2.840156 1_455
Fe1 Fe2 2.419085 1_645
Fe1 Fe3 2.419085 1_545
Fe1 Fe2 2.465301 1_555
Fe1 Fe3 2.465301 1_555
Fe1 Nb5 2.676291 1_655
Fe1 Nb5 2.676291 1_555
Fe1 Nb2 2.704725 1_556
Fe1 Nb0 2.797618 1_555
Fe1 Nb1 2.800631 1_655
Fe1 Nb3 2.933134 1_655
Fe1 Nb3 2.933142 1_555
Fe2 Fe3 2.419085 1_455
Fe2 Fe3 2.465301 1_555
Fe2 Nb5 2.676291 1_565
Fe2 Nb5 2.676291 1_555
Fe2 Nb2 2.704725 1_556
Fe2 Nb0 2.797618 1_555
Fe2 Nb1 2.800631 1_565
Fe2 Nb3 2.933134 1_565
Fe2 Nb3 2.933142 1_555
Fe3 Nb5 2.676291 1_655
Fe3 Nb5 2.676291 1_565
Fe3 Nb2 2.704725 1_556
Fe3 Nb0 2.797621 1_555
Fe3 Nb1 2.800629 1_665
Fe3 Nb3 2.933138 1_565
Fe3 Nb3 2.933138 1_655
Fe4 Fe5 2.419085 1_465
Fe4 Fe6 2.419085 1_565
Fe4 Fe5 2.465301 1_555
Fe4 Fe6 2.465301 1_555
Fe4 Nb4 2.676291 1_455
Fe4 Nb4 2.676291 1_555
Fe4 Nb3 2.704725 1_554
Fe4 Nb1 2.797618 1_555
Fe4 Nb0 2.800631 1_455
Fe4 Nb2 2.933134 1_455
Fe4 Nb2 2.933142 1_555
Fe5 Fe6 2.419085 1_655
Fe5 Fe6 2.465301 1_555
Fe5 Nb4 2.676291 1_555
Fe5 Nb4 2.676291 1_545
Fe5 Nb3 2.704725 1_554
Fe5 Nb1 2.797618 1_555
Fe5 Nb0 2.800631 1_545
Fe5 Nb2 2.933134 1_545
Fe5 Nb2 2.933142 1_555
Fe6 Nb4 2.676291 1_455
Fe6 Nb4 2.676291 1_545
Fe6 Nb3 2.704725 1_554
Fe6 Nb1 2.797621 1_555
Fe6 Nb0 2.800629 1_445
Fe6 Nb2 2.933138 1_545
Fe6 Nb2 2.933138 1_455
