# generated using pymatgen
data_VCrO4
_symmetry_space_group_name_H-M   'P 1'
_cell_length_a   6.59574223
_cell_length_b   6.59573972
_cell_length_c   6.82949198
_cell_angle_alpha   77.05933490
_cell_angle_beta   77.05938285
_cell_angle_gamma   84.11601358
_symmetry_Int_Tables_number   1
_chemical_formula_structural   VCrO4
_chemical_formula_sum   'V4 Cr4 O16'
_cell_volume   281.77972201
_cell_formula_units_Z   4
loop_
 _symmetry_equiv_pos_site_id
 _symmetry_equiv_pos_as_xyz
  1  'x, y, z'
loop_
 _atom_site_type_symbol
 _atom_site_label
 _atom_site_symmetry_multiplicity
 _atom_site_fract_x
 _atom_site_fract_y
 _atom_site_fract_z
 _atom_site_occupancy
  V  V0  1  0.72659603  0.72659574  0.39801799  1
  V  V1  1  0.27340292  0.27340327  0.60198339  1
  V  V2  1  0.74935989  0.25064035  -0.00000033  1
  V  V3  1  0.25064099  0.74935958  -0.00000025  1
  Cr  Cr0  1  0.20237132  0.20237120  0.14285690  1
  Cr  Cr1  1  0.79762875  0.79762839  0.85714288  1
  Cr  Cr2  1  0.82018386  0.17981611  0.49999986  1
  Cr  Cr3  1  0.17981649  0.82018393  0.49999981  1
  O  O0  1  0.20427598  0.52637066  0.52737736  1
  O  O1  1  0.47362865  0.79572552  0.47262254  1
  O  O2  1  0.79572561  0.47362854  0.47262295  1
  O  O3  1  0.52637052  0.20427662  0.52737694  1
  O  O4  1  0.10739337  0.80194416  0.79807523  1
  O  O5  1  0.19805588  0.89260655  0.20192476  1
  O  O6  1  0.89260666  0.19805615  0.20192492  1
  O  O7  1  0.80194416  0.10739259  0.79807520  1
  O  O8  1  0.86082166  0.86082166  0.54139931  1
  O  O9  1  0.13917808  0.13917793  0.45860054  1
  O  O10  1  0.20573494  0.20573479  0.86239582  1
  O  O11  1  0.79426353  0.79426300  0.13760578  1
  O  O12  1  0.79276233  0.49992580  0.88861880  1
  O  O13  1  0.20723956  0.50007390  0.11138014  1
  O  O14  1  0.50007413  0.20723831  0.11138030  1
  O  O15  1  0.49992669  0.79276226  0.88861918  1
loop_
_geom_bond_atom_site_label_1
_geom_bond_atom_site_label_2
_geom_bond_distance
_geom_bond_site_symmetry_2
Cr0 O10 1.905729 1_554
Cr0 O13 1.929670 1_555
Cr0 O14 1.929672 1_555
Cr0 O5 1.993877 1_545
Cr0 O6 1.993878 1_455
Cr0 O9 2.056185 1_555
Cr1 O11 1.905737 1_556
Cr1 O15 1.929666 1_555
Cr1 O12 1.929669 1_555
Cr1 O7 1.993874 1_565
Cr1 O4 1.993878 1_655
Cr1 O8 2.056184 1_555
Cr2 O2 1.898317 1_555
Cr2 O3 1.898324 1_555
Cr2 O6 1.962981 1_555
Cr2 O7 1.962984 1_555
Cr2 O9 2.056817 1_655
Cr2 O8 2.056817 1_545
Cr3 O1 1.898316 1_555
Cr3 O0 1.898322 1_555
Cr3 O5 1.962982 1_555
Cr3 O4 1.962984 1_555
Cr3 O9 2.056815 1_565
Cr3 O8 2.056821 1_455
O0 V1 1.678905 1_555
O1 V0 1.678909 1_555
O2 V0 1.678907 1_555
O3 V1 1.678907 1_555
O4 V3 1.793573 1_556
O5 V3 1.793573 1_555
O6 V2 1.793573 1_555
O7 V2 1.793574 1_556
O8 V0 1.861105 1_555
O9 V1 1.861107 1_555
O10 V1 1.700358 1_555
O11 V0 1.700356 1_555
O12 V2 1.674169 1_556
O13 V3 1.674169 1_555
O14 V2 1.674171 1_555
O15 V3 1.674171 1_556
