# generated using pymatgen
data_Mg2Fe3O8
_symmetry_space_group_name_H-M   'P 1'
_cell_length_a   5.91614444
_cell_length_b   5.91614444
_cell_length_c   4.92846427
_cell_angle_alpha   71.99261924
_cell_angle_beta   71.99261924
_cell_angle_gamma   58.71281127
_symmetry_Int_Tables_number   1
_chemical_formula_structural   Mg2Fe3O8
_chemical_formula_sum   'Mg2 Fe3 O8'
_cell_volume   137.83015032
_cell_formula_units_Z   1
loop_
 _symmetry_equiv_pos_site_id
 _symmetry_equiv_pos_as_xyz
  1  'x, y, z'
loop_
 _atom_site_type_symbol
 _atom_site_label
 _atom_site_symmetry_multiplicity
 _atom_site_fract_x
 _atom_site_fract_y
 _atom_site_fract_z
 _atom_site_occupancy
  Mg  Mg0  1  0.72292800  0.72292800  0.33969800  1
  Mg  Mg1  1  0.27707200  0.27707200  0.66030200  1
  Fe  Fe0  1  0.00000000  0.00000000  0.50000000  1
  Fe  Fe1  1  0.74157400  0.25842600  0.00000000  1
  Fe  Fe2  1  0.25842600  0.74157400  0.00000000  1
  O  O0  1  0.39362200  0.39362200  0.93418900  1
  O  O1  1  0.60637800  0.60637800  0.06581100  1
  O  O2  1  0.89233000  0.89233000  0.92595100  1
  O  O3  1  0.10767000  0.10767000  0.07404900  1
  O  O4  1  0.34515500  0.88445900  0.60424500  1
  O  O5  1  0.88445900  0.34515500  0.60424500  1
  O  O6  1  0.11554100  0.65484500  0.39575500  1
  O  O7  1  0.65484500  0.11554100  0.39575500  1
loop_
_geom_bond_atom_site_label_1
_geom_bond_atom_site_label_2
_geom_bond_distance
_geom_bond_site_symmetry_2
Mg0 O5 2.087714 1_555
Mg0 O4 2.087714 1_555
Mg0 O1 2.101838 1_555
Mg0 O2 2.164044 1_554
Mg0 O6 2.233824 1_655
Mg0 O7 2.233824 1_565
Mg1 O7 2.087714 1_555
Mg1 O6 2.087714 1_555
Mg1 O0 2.101838 1_555
Mg1 O3 2.164044 1_556
Mg1 O4 2.233824 1_545
Mg1 O5 2.233824 1_455
Fe0 O7 1.970445 1_455
Fe0 O6 1.970445 1_545
Fe0 O5 1.970445 1_455
Fe0 O4 1.970445 1_545
Fe0 O2 1.996596 1_445
Fe0 O3 1.996596 1_555
Fe1 O0 1.877439 1_554
Fe1 O1 1.877439 1_555
Fe1 O5 1.895916 1_554
Fe1 O7 1.895916 1_555
Fe1 O3 1.975029 1_655
Fe1 O2 1.975029 1_544
Fe2 O0 1.877439 1_554
Fe2 O1 1.877439 1_555
Fe2 O4 1.895916 1_554
Fe2 O6 1.895916 1_555
Fe2 O3 1.975029 1_565
Fe2 O2 1.975029 1_454
