# generated using pymatgen
data_Sr8Mn6Cu4Se4O15
_symmetry_space_group_name_H-M   'P 1'
_cell_length_a   17.96139805
_cell_length_b   17.96139805
_cell_length_c   5.62668111
_cell_angle_alpha   89.91743066
_cell_angle_beta   89.91743066
_cell_angle_gamma   161.97540666
_symmetry_Int_Tables_number   1
_chemical_formula_structural   Sr8Mn6Cu4Se4O15
_chemical_formula_sum   'Sr8 Mn6 Cu4 Se4 O15'
_cell_volume   561.65530905
_cell_formula_units_Z   1
loop_
 _symmetry_equiv_pos_site_id
 _symmetry_equiv_pos_as_xyz
  1  'x, y, z'
loop_
 _atom_site_type_symbol
 _atom_site_label
 _atom_site_symmetry_multiplicity
 _atom_site_fract_x
 _atom_site_fract_y
 _atom_site_fract_z
 _atom_site_occupancy
  Sr  Sr0  1  0.41429600  0.09257500  0.25343700  1
  Sr  Sr1  1  0.90742500  0.58570400  0.74656300  1
  Sr  Sr2  1  0.58570400  0.90742500  0.74656300  1
  Sr  Sr3  1  0.09257500  0.41429600  0.25343700  1
  Sr  Sr4  1  0.31262000  0.20156500  0.25704900  1
  Sr  Sr5  1  0.79843500  0.68738000  0.74295100  1
  Sr  Sr6  1  0.68738000  0.79843500  0.74295100  1
  Sr  Sr7  1  0.20156500  0.31262000  0.25704900  1
  Mn  Mn0  1  0.35538600  0.13504700  0.75478700  1
  Mn  Mn1  1  0.86495300  0.64461400  0.24521300  1
  Mn  Mn2  1  0.64461400  0.86495300  0.24521300  1
  Mn  Mn3  1  0.13504700  0.35538600  0.75478700  1
  Mn  Mn4  1  0.74436800  0.74436800  0.25564900  1
  Mn  Mn5  1  0.25563200  0.25563200  0.74435100  1
  Cu  Cu0  1  0.75009200  0.24990800  0.50000000  1
  Cu  Cu1  1  0.25009200  0.74990800  0.00000000  1
  Cu  Cu2  1  0.24990800  0.75009200  0.50000000  1
  Cu  Cu3  1  0.74990800  0.25009200  0.00000000  1
  Se  Se0  1  0.45771800  0.04309700  0.74990800  1
  Se  Se1  1  0.95690300  0.54228200  0.25009200  1
  Se  Se2  1  0.54228200  0.95690300  0.25009200  1
  Se  Se3  1  0.04309700  0.45771800  0.74990800  1
  O  O0  1  0.26421900  0.15819300  0.78887700  1
  O  O1  1  0.84180700  0.73578100  0.21112300  1
  O  O2  1  0.73578100  0.84180700  0.21112300  1
  O  O3  1  0.15819300  0.26421900  0.78887700  1
  O  O4  1  0.61238900  0.38761100  0.50000000  1
  O  O5  1  0.12208100  0.87791900  0.00000000  1
  O  O6  1  0.11774400  0.88225600  0.50000000  1
  O  O7  1  0.61773800  0.38226200  0.00000000  1
  O  O8  1  0.38761100  0.61238900  0.50000000  1
  O  O9  1  0.87791900  0.12208100  0.00000000  1
  O  O10  1  0.88225600  0.11774400  0.50000000  1
  O  O11  1  0.38226200  0.61773800  0.00000000  1
  O  O12  1  0.50000000  0.50000000  0.50000000  1
  O  O13  1  0.50000000  0.50000000  0.00000000  1
  O  O14  1  0.00000000  0.00000000  0.50000000  1
loop_
_geom_bond_atom_site_label_1
_geom_bond_atom_site_label_2
_geom_bond_distance
_geom_bond_site_symmetry_2
Mn0 O5 1.987788 1_546
Mn0 O7 2.016855 1_556
Mn0 O6 2.016904 1_545
Mn0 O4 2.019687 1_555
Mn0 O0 2.045731 1_555
Mn1 O5 1.987788 1_655
Mn1 O7 2.016855 1_555
Mn1 O6 2.016904 1_655
Mn1 O4 2.019687 1_555
Mn1 O1 2.045731 1_555
Mn2 O9 1.987788 1_565
Mn2 O11 2.016855 1_555
Mn2 O10 2.016904 1_565
Mn2 O8 2.019687 1_555
Mn2 O2 2.045731 1_555
Mn3 O9 1.987788 1_456
Mn3 O11 2.016855 1_556
Mn3 O10 2.016904 1_455
Mn3 O8 2.019687 1_555
Mn3 O3 2.045731 1_555
Mn4 O2 1.913574 1_555
Mn4 O1 1.913574 1_555
Mn4 O12 1.935569 1_555
Mn4 O14 1.998985 1_665
Mn4 O13 1.999113 1_555
Mn5 O3 1.913574 1_555
Mn5 O0 1.913574 1_555
Mn5 O12 1.935569 1_555
Mn5 O14 1.998985 1_555
Mn5 O13 1.999113 1_556
Cu0 Se1 2.493481 1_555
Cu0 Se0 2.493481 1_555
Cu0 Se2 2.506665 1_545
Cu0 Se3 2.506665 1_655
Cu1 Se1 2.496621 1_455
Cu1 Se0 2.496621 1_564
Cu1 Se2 2.504653 1_555
Cu1 Se3 2.504653 1_554
Cu2 Se2 2.493481 1_555
Cu2 Se3 2.493481 1_555
Cu2 Se1 2.506665 1_455
Cu2 Se0 2.506665 1_565
Cu3 Se2 2.496621 1_545
Cu3 Se3 2.496621 1_654
Cu3 Se1 2.504653 1_555
Cu3 Se0 2.504653 1_554
Se0 Sr1 3.241975 1_555
Se0 Sr0 3.243288 1_555
Se0 Sr0 3.277825 1_556
Se0 Sr1 3.279593 1_445
Se1 Sr0 3.241975 1_555
Se1 Sr1 3.243288 1_555
Se1 Sr1 3.277825 1_554
Se1 Sr0 3.279593 1_665
Se2 Sr3 3.241975 1_555
Se2 Sr2 3.243288 1_555
Se2 Sr2 3.277825 1_554
Se2 Sr3 3.279593 1_665
Se3 Sr2 3.241975 1_555
Se3 Sr3 3.243288 1_555
Se3 Sr3 3.277825 1_556
Se3 Sr2 3.279593 1_445
O0 Sr4 2.650744 1_556
O0 Sr5 2.651705 1_445
O0 Sr5 3.002074 1_555
O0 Sr4 3.002504 1_555
O1 Sr5 2.650744 1_554
O1 Sr4 2.651705 1_665
O1 Sr4 3.002074 1_555
O1 Sr5 3.002504 1_555
O2 Sr6 2.650744 1_554
O2 Sr7 2.651705 1_665
O2 Sr7 3.002074 1_555
O2 Sr6 3.002504 1_555
O3 Sr7 2.650744 1_556
O3 Sr6 2.651705 1_445
O3 Sr6 3.002074 1_555
O3 Sr7 3.002504 1_555
O4 Sr1 2.615846 1_555
O4 Sr0 2.615846 1_555
O4 Sr5 2.800249 1_555
O4 Sr4 2.800249 1_555
O5 Sr1 2.449036 1_454
O5 Sr0 2.449036 1_565
O5 Sr4 3.130326 1_565
O5 Sr5 3.130326 1_454
O6 Sr1 2.502447 1_455
O6 Sr0 2.502447 1_565
O6 Sr5 2.966124 1_455
O6 Sr4 2.966124 1_565
O7 Sr1 2.502582 1_554
O7 Sr0 2.502582 1_555
O7 Sr4 2.965728 1_555
O7 Sr5 2.965728 1_554
O8 Sr2 2.615846 1_555
O8 Sr3 2.615846 1_555
O8 Sr6 2.800249 1_555
O8 Sr7 2.800249 1_555
O9 Sr2 2.449036 1_544
O9 Sr3 2.449036 1_655
O9 Sr7 3.130326 1_655
O9 Sr6 3.130326 1_544
O10 Sr2 2.502447 1_545
O10 Sr3 2.502447 1_655
O10 Sr6 2.966124 1_545
O10 Sr7 2.966124 1_655
O11 Sr2 2.502582 1_554
O11 Sr3 2.502582 1_555
O11 Sr7 2.965728 1_555
O11 Sr6 2.965728 1_554
O12 Sr5 2.766346 1_555
O12 Sr6 2.766346 1_555
O12 Sr4 2.766346 1_555
O12 Sr7 2.766346 1_555
O13 Sr4 2.793758 1_555
O13 Sr7 2.793758 1_555
O13 Sr5 2.793758 1_554
O13 Sr6 2.793758 1_554
O14 Sr6 2.794009 1_445
O14 Sr5 2.794009 1_445
O14 Sr7 2.794009 1_555
O14 Sr4 2.794009 1_555
