# generated using pymatgen
data_Mg30CrFeO32
_symmetry_space_group_name_H-M   'P 1'
_cell_length_a   8.57741200
_cell_length_b   8.57741200
_cell_length_c   8.49862600
_cell_angle_alpha   90.00000000
_cell_angle_beta   90.00000000
_cell_angle_gamma   90.00000000
_symmetry_Int_Tables_number   1
_chemical_formula_structural   Mg30CrFeO32
_chemical_formula_sum   'Mg30 Cr1 Fe1 O32'
_cell_volume   625.26088333
_cell_formula_units_Z   1
loop_
 _symmetry_equiv_pos_site_id
 _symmetry_equiv_pos_as_xyz
  1  'x, y, z'
loop_
 _atom_site_type_symbol
 _atom_site_label
 _atom_site_symmetry_multiplicity
 _atom_site_fract_x
 _atom_site_fract_y
 _atom_site_fract_z
 _atom_site_occupancy
  Mg  Mg0  1  0.50000000  0.00000000  0.00000000  1
  Mg  Mg1  1  0.00000000  0.50000000  0.00000000  1
  Mg  Mg2  1  0.00000000  0.00000000  0.50000000  1
  Mg  Mg3  1  0.50000000  0.00000000  0.50000000  1
  Mg  Mg4  1  0.00000000  0.50000000  0.50000000  1
  Mg  Mg5  1  0.50000000  0.50000000  0.50000000  1
  Mg  Mg6  1  0.24904300  0.24904300  0.00000000  1
  Mg  Mg7  1  0.75095700  0.24904300  0.00000000  1
  Mg  Mg8  1  0.24904300  0.75095700  0.00000000  1
  Mg  Mg9  1  0.75095700  0.75095700  0.00000000  1
  Mg  Mg10  1  0.24978500  0.24978500  0.50000000  1
  Mg  Mg11  1  0.75021500  0.24978500  0.50000000  1
  Mg  Mg12  1  0.24978500  0.75021500  0.50000000  1
  Mg  Mg13  1  0.75021500  0.75021500  0.50000000  1
  Mg  Mg14  1  0.25088200  0.00000000  0.24967300  1
  Mg  Mg15  1  0.74911800  0.00000000  0.24967300  1
  Mg  Mg16  1  0.24827300  0.50000000  0.24943100  1
  Mg  Mg17  1  0.75172700  0.50000000  0.24943100  1
  Mg  Mg18  1  0.25088200  0.00000000  0.75032700  1
  Mg  Mg19  1  0.74911800  0.00000000  0.75032700  1
  Mg  Mg20  1  0.24827300  0.50000000  0.75056900  1
  Mg  Mg21  1  0.75172700  0.50000000  0.75056900  1
  Mg  Mg22  1  0.00000000  0.25088200  0.24967300  1
  Mg  Mg23  1  0.50000000  0.24827300  0.24943100  1
  Mg  Mg24  1  0.00000000  0.74911800  0.24967300  1
  Mg  Mg25  1  0.50000000  0.75172700  0.24943100  1
  Mg  Mg26  1  0.00000000  0.25088200  0.75032700  1
  Mg  Mg27  1  0.50000000  0.24827300  0.75056900  1
  Mg  Mg28  1  0.00000000  0.74911800  0.75032700  1
  Mg  Mg29  1  0.50000000  0.75172700  0.75056900  1
  Cr  Cr0  1  0.50000000  0.50000000  0.00000000  1
  Fe  Fe0  1  0.00000000  0.00000000  0.00000000  1
  O  O0  1  0.00000000  0.00000000  0.25099700  1
  O  O1  1  0.50000000  0.00000000  0.25233500  1
  O  O2  1  0.00000000  0.50000000  0.25233500  1
  O  O3  1  0.50000000  0.50000000  0.24857300  1
  O  O4  1  0.00000000  0.00000000  0.74900300  1
  O  O5  1  0.50000000  0.00000000  0.74766500  1
  O  O6  1  0.00000000  0.50000000  0.74766500  1
  O  O7  1  0.50000000  0.50000000  0.75142700  1
  O  O8  1  0.24986600  0.24986600  0.24995900  1
  O  O9  1  0.75013400  0.24986600  0.24995900  1
  O  O10  1  0.24986600  0.75013400  0.24995900  1
  O  O11  1  0.75013400  0.75013400  0.24995900  1
  O  O12  1  0.24986600  0.24986600  0.75004100  1
  O  O13  1  0.75013400  0.24986600  0.75004100  1
  O  O14  1  0.24986600  0.75013400  0.75004100  1
  O  O15  1  0.75013400  0.75013400  0.75004100  1
  O  O16  1  0.25471000  0.00000000  0.00000000  1
  O  O17  1  0.74529000  0.00000000  0.00000000  1
  O  O18  1  0.24125600  0.50000000  0.00000000  1
  O  O19  1  0.75874400  0.50000000  0.00000000  1
  O  O20  1  0.24945700  0.00000000  0.50000000  1
  O  O21  1  0.75054300  0.00000000  0.50000000  1
  O  O22  1  0.25082000  0.50000000  0.50000000  1
  O  O23  1  0.74918000  0.50000000  0.50000000  1
  O  O24  1  0.00000000  0.25471000  0.00000000  1
  O  O25  1  0.50000000  0.24125600  0.00000000  1
  O  O26  1  0.00000000  0.74529000  0.00000000  1
  O  O27  1  0.50000000  0.75874400  0.00000000  1
  O  O28  1  0.00000000  0.24945700  0.50000000  1
  O  O29  1  0.50000000  0.25082000  0.50000000  1
  O  O30  1  0.00000000  0.75054300  0.50000000  1
  O  O31  1  0.50000000  0.74918000  0.50000000  1
loop_
_geom_bond_atom_site_label_1
_geom_bond_atom_site_label_2
_geom_bond_distance
_geom_bond_site_symmetry_2
Mg0 O25 2.069352 1_555
Mg0 O27 2.069352 1_545
Mg0 O17 2.103953 1_555
Mg0 O16 2.103953 1_555
Mg0 O1 2.144501 1_555
Mg0 O5 2.144501 1_554
Mg1 O19 2.069352 1_455
Mg1 O18 2.069352 1_555
Mg1 O24 2.103953 1_555
Mg1 O26 2.103953 1_555
Mg1 O6 2.144501 1_554
Mg1 O2 2.144501 1_555
Mg2 O0 2.116183 1_555
Mg2 O4 2.116183 1_555
Mg2 O28 2.139695 1_555
Mg2 O30 2.139695 1_545
Mg2 O21 2.139695 1_455
Mg2 O20 2.139695 1_555
Mg3 O1 2.104812 1_555
Mg3 O5 2.104812 1_555
Mg3 O21 2.149011 1_555
Mg3 O20 2.149011 1_555
Mg3 O29 2.151386 1_555
Mg3 O31 2.151386 1_545
Mg4 O6 2.104812 1_555
Mg4 O2 2.104812 1_555
Mg4 O28 2.149011 1_555
Mg4 O30 2.149011 1_555
Mg4 O22 2.151386 1_555
Mg4 O23 2.151386 1_455
Mg5 O7 2.136784 1_555
Mg5 O3 2.136784 1_555
Mg5 O31 2.137320 1_555
Mg5 O23 2.137320 1_555
Mg5 O22 2.137320 1_555
Mg5 O29 2.137320 1_555
Mg6 O8 2.124332 1_555
Mg6 O12 2.124332 1_554
Mg6 O24 2.136697 1_555
Mg6 O16 2.136697 1_555
Mg6 O25 2.153598 1_555
Mg6 O18 2.153598 1_555
Mg7 O9 2.124332 1_555
Mg7 O13 2.124332 1_554
Mg7 O17 2.136697 1_555
Mg7 O24 2.136697 1_655
Mg7 O25 2.153598 1_555
Mg7 O19 2.153598 1_555
Mg8 O10 2.124332 1_555
Mg8 O14 2.124332 1_554
Mg8 O26 2.136697 1_555
Mg8 O16 2.136697 1_565
Mg8 O18 2.153598 1_555
Mg8 O27 2.153598 1_555
Mg9 O11 2.124332 1_555
Mg9 O15 2.124332 1_554
Mg9 O26 2.136697 1_655
Mg9 O17 2.136697 1_565
Mg9 O19 2.153598 1_555
Mg9 O27 2.153598 1_555
Mg10 O12 2.125005 1_555
Mg10 O8 2.125005 1_555
Mg10 O20 2.142511 1_555
Mg10 O28 2.142511 1_555
Mg10 O22 2.146216 1_555
Mg10 O29 2.146216 1_555
Mg11 O9 2.125005 1_555
Mg11 O13 2.125005 1_555
Mg11 O21 2.142511 1_555
Mg11 O28 2.142511 1_655
Mg11 O23 2.146216 1_555
Mg11 O29 2.146216 1_555
Mg12 O14 2.125005 1_555
Mg12 O10 2.125005 1_555
Mg12 O30 2.142511 1_555
Mg12 O20 2.142511 1_565
Mg12 O22 2.146216 1_555
Mg12 O31 2.146216 1_555
Mg13 O11 2.125005 1_555
Mg13 O15 2.125005 1_555
Mg13 O21 2.142511 1_565
Mg13 O30 2.142511 1_655
Mg13 O23 2.146216 1_555
Mg13 O31 2.146216 1_555
Mg14 O16 2.122131 1_555
Mg14 O20 2.127471 1_555
Mg14 O1 2.136907 1_555
Mg14 O8 2.143223 1_555
Mg14 O10 2.143223 1_545
Mg14 O0 2.151948 1_555
Mg15 O17 2.122131 1_555
Mg15 O21 2.127471 1_555
Mg15 O1 2.136907 1_555
Mg15 O9 2.143223 1_555
Mg15 O11 2.143223 1_545
Mg15 O0 2.151948 1_655
Mg16 O18 2.120675 1_555
Mg16 O22 2.129604 1_555
Mg16 O2 2.129683 1_555
Mg16 O10 2.145551 1_555
Mg16 O8 2.145551 1_555
Mg16 O3 2.159179 1_555
Mg17 O19 2.120675 1_555
Mg17 O23 2.129604 1_555
Mg17 O2 2.129683 1_655
Mg17 O11 2.145551 1_555
Mg17 O9 2.145551 1_555
Mg17 O3 2.159179 1_555
Mg18 O16 2.122131 1_556
Mg18 O20 2.127471 1_555
Mg18 O5 2.136907 1_555
Mg18 O14 2.143223 1_545
Mg18 O12 2.143223 1_555
Mg18 O4 2.151948 1_555
Mg19 O17 2.122131 1_556
Mg19 O21 2.127471 1_555
Mg19 O5 2.136907 1_555
Mg19 O13 2.143223 1_555
Mg19 O15 2.143223 1_545
Mg19 O4 2.151948 1_655
Mg20 O18 2.120675 1_556
Mg20 O22 2.129604 1_555
Mg20 O6 2.129683 1_555
Mg20 O12 2.145551 1_555
Mg20 O14 2.145551 1_555
Mg20 O7 2.159179 1_555
Mg21 O19 2.120675 1_556
Mg21 O23 2.129604 1_555
Mg21 O6 2.129683 1_655
Mg21 O13 2.145551 1_555
Mg21 O15 2.145551 1_555
Mg21 O7 2.159179 1_555
Mg22 O24 2.122131 1_555
Mg22 O28 2.127471 1_555
Mg22 O2 2.136907 1_555
Mg22 O8 2.143223 1_555
Mg22 O9 2.143223 1_455
Mg22 O0 2.151948 1_555
Mg23 O25 2.120675 1_555
Mg23 O29 2.129604 1_555
Mg23 O1 2.129683 1_555
Mg23 O8 2.145551 1_555
Mg23 O9 2.145551 1_555
Mg23 O3 2.159179 1_555
Mg24 O26 2.122131 1_555
Mg24 O30 2.127471 1_555
Mg24 O2 2.136907 1_555
Mg24 O11 2.143223 1_455
Mg24 O10 2.143223 1_555
Mg24 O0 2.151948 1_565
Mg25 O27 2.120675 1_555
Mg25 O31 2.129604 1_555
Mg25 O1 2.129683 1_565
Mg25 O10 2.145551 1_555
Mg25 O11 2.145551 1_555
Mg25 O3 2.159179 1_555
Mg26 O24 2.122131 1_556
Mg26 O28 2.127471 1_555
Mg26 O6 2.136907 1_555
Mg26 O12 2.143223 1_555
Mg26 O13 2.143223 1_455
Mg26 O4 2.151948 1_555
Mg27 O25 2.120675 1_556
Mg27 O29 2.129604 1_555
Mg27 O5 2.129683 1_555
Mg27 O13 2.145551 1_555
Mg27 O12 2.145551 1_555
Mg27 O7 2.159179 1_555
Mg28 O26 2.122131 1_556
Mg28 O30 2.127471 1_555
Mg28 O6 2.136907 1_555
Mg28 O14 2.143223 1_555
Mg28 O15 2.143223 1_455
Mg28 O4 2.151948 1_565
Mg29 O27 2.120675 1_556
Mg29 O31 2.129604 1_555
Mg29 O5 2.129683 1_565
Mg29 O14 2.145551 1_555
Mg29 O15 2.145551 1_555
Mg29 O7 2.159179 1_555
Cr0 O3 2.112529 1_555
Cr0 O7 2.112529 1_554
Cr0 O25 2.219354 1_555
Cr0 O18 2.219354 1_555
Cr0 O19 2.219354 1_555
Cr0 O27 2.219354 1_555
Fe0 O0 2.133130 1_555
Fe0 O4 2.133130 1_554
Fe0 O17 2.184753 1_455
Fe0 O26 2.184753 1_545
Fe0 O24 2.184753 1_555
Fe0 O16 2.184753 1_555
