# generated using pymatgen
data_Na2InCuF6
_symmetry_space_group_name_H-M   'P 1'
_cell_length_a   6.01015167
_cell_length_b   6.01015167
_cell_length_c   6.01015167
_cell_angle_alpha   60.00000000
_cell_angle_beta   60.00000000
_cell_angle_gamma   60.00000000
_symmetry_Int_Tables_number   1
_chemical_formula_structural   Na2InCuF6
_chemical_formula_sum   'Na2 In1 Cu1 F6'
_cell_volume   153.51163496
_cell_formula_units_Z   1
loop_
 _symmetry_equiv_pos_site_id
 _symmetry_equiv_pos_as_xyz
  1  'x, y, z'
loop_
 _atom_site_type_symbol
 _atom_site_label
 _atom_site_symmetry_multiplicity
 _atom_site_fract_x
 _atom_site_fract_y
 _atom_site_fract_z
 _atom_site_occupancy
  Na  Na0  1  0.75000000  0.75000000  0.75000000  1
  Na  Na1  1  0.25000000  0.25000000  0.25000000  1
  In  In0  1  0.00000000  0.00000000  0.00000000  1
  Cu  Cu0  1  0.50000000  0.50000000  0.50000000  1
  F  F0  1  0.75059100  0.24940900  0.24940900  1
  F  F1  1  0.24940900  0.24940900  0.75059100  1
  F  F2  1  0.24940900  0.75059100  0.75059100  1
  F  F3  1  0.24940900  0.75059100  0.24940900  1
  F  F4  1  0.75059100  0.24940900  0.75059100  1
  F  F5  1  0.75059100  0.75059100  0.24940900  1
loop_
_geom_bond_atom_site_label_1
_geom_bond_atom_site_label_2
_geom_bond_distance
_geom_bond_site_symmetry_2
Cu0 F3 2.129933 1_555
Cu0 F0 2.129933 1_555
Cu0 F1 2.129933 1_555
Cu0 F4 2.129933 1_555
Cu0 F2 2.129933 1_555
Cu0 F5 2.129933 1_555
F0 In0 2.119886 1_655
F0 Na1 3.005080 1_555
F0 Na0 3.005080 1_545
F0 Na1 3.005080 1_655
F0 Na0 3.005080 1_554
F1 In0 2.119886 1_556
F1 Na1 3.005080 1_555
F1 Na0 3.005080 1_545
F1 Na0 3.005080 1_455
F1 Na1 3.005080 1_556
F2 In0 2.119886 1_566
F2 Na0 3.005080 1_455
F2 Na1 3.005080 1_565
F2 Na0 3.005080 1_555
F2 Na1 3.005080 1_556
F3 In0 2.119886 1_565
F3 Na1 3.005080 1_555
F3 Na0 3.005080 1_455
F3 Na1 3.005080 1_565
F3 Na0 3.005080 1_554
F4 In0 2.119886 1_656
F4 Na0 3.005080 1_545
F4 Na1 3.005080 1_655
F4 Na0 3.005080 1_555
F4 Na1 3.005080 1_556
F5 In0 2.119886 1_665
F5 Na1 3.005080 1_565
F5 Na1 3.005080 1_655
F5 Na0 3.005080 1_555
F5 Na0 3.005080 1_554
