# generated using pymatgen
data_CaYMg30O32
_symmetry_space_group_name_H-M   'P 1'
_cell_length_a   8.64786000
_cell_length_b   8.64786000
_cell_length_c   8.69702400
_cell_angle_alpha   90.00000000
_cell_angle_beta   90.00000000
_cell_angle_gamma   90.00000000
_symmetry_Int_Tables_number   1
_chemical_formula_structural   CaYMg30O32
_chemical_formula_sum   'Ca1 Y1 Mg30 O32'
_cell_volume   650.41113685
_cell_formula_units_Z   1
loop_
 _symmetry_equiv_pos_site_id
 _symmetry_equiv_pos_as_xyz
  1  'x, y, z'
loop_
 _atom_site_type_symbol
 _atom_site_label
 _atom_site_symmetry_multiplicity
 _atom_site_fract_x
 _atom_site_fract_y
 _atom_site_fract_z
 _atom_site_occupancy
  Ca  Ca0  1  0.00000000  0.00000000  0.00000000  1
  Y  Y0  1  0.00000000  0.00000000  0.50000000  1
  Mg  Mg0  1  0.00000000  0.50000000  0.00000000  1
  Mg  Mg1  1  0.00000000  0.50000000  0.50000000  1
  Mg  Mg2  1  0.50000000  0.00000000  0.00000000  1
  Mg  Mg3  1  0.50000000  0.00000000  0.50000000  1
  Mg  Mg4  1  0.50000000  0.50000000  0.00000000  1
  Mg  Mg5  1  0.50000000  0.50000000  0.50000000  1
  Mg  Mg6  1  0.00000000  0.25908700  0.24627300  1
  Mg  Mg7  1  0.00000000  0.25908700  0.75372700  1
  Mg  Mg8  1  0.00000000  0.74091300  0.24627300  1
  Mg  Mg9  1  0.00000000  0.74091300  0.75372700  1
  Mg  Mg10  1  0.50000000  0.25100600  0.24929600  1
  Mg  Mg11  1  0.50000000  0.25100600  0.75070400  1
  Mg  Mg12  1  0.50000000  0.74899400  0.24929600  1
  Mg  Mg13  1  0.50000000  0.74899400  0.75070400  1
  Mg  Mg14  1  0.25908700  0.00000000  0.24627300  1
  Mg  Mg15  1  0.25908700  0.00000000  0.75372700  1
  Mg  Mg16  1  0.25100600  0.50000000  0.24929600  1
  Mg  Mg17  1  0.25100600  0.50000000  0.75070400  1
  Mg  Mg18  1  0.74091300  0.00000000  0.24627300  1
  Mg  Mg19  1  0.74091300  0.00000000  0.75372700  1
  Mg  Mg20  1  0.74899400  0.50000000  0.24929600  1
  Mg  Mg21  1  0.74899400  0.50000000  0.75070400  1
  Mg  Mg22  1  0.25356000  0.25356000  0.00000000  1
  Mg  Mg23  1  0.25639600  0.25639600  0.50000000  1
  Mg  Mg24  1  0.25356000  0.74644000  0.00000000  1
  Mg  Mg25  1  0.25639600  0.74360400  0.50000000  1
  Mg  Mg26  1  0.74644000  0.25356000  0.00000000  1
  Mg  Mg27  1  0.74360400  0.25639600  0.50000000  1
  Mg  Mg28  1  0.74644000  0.74644000  0.00000000  1
  Mg  Mg29  1  0.74360400  0.74360400  0.50000000  1
  O  O0  1  0.26285400  0.00000000  0.00000000  1
  O  O1  1  0.25957500  0.00000000  0.50000000  1
  O  O2  1  0.25157500  0.50000000  0.00000000  1
  O  O3  1  0.25106900  0.50000000  0.50000000  1
  O  O4  1  0.73714600  0.00000000  0.00000000  1
  O  O5  1  0.74042500  0.00000000  0.50000000  1
  O  O6  1  0.74842500  0.50000000  0.00000000  1
  O  O7  1  0.74893100  0.50000000  0.50000000  1
  O  O8  1  0.24892300  0.24892300  0.25050500  1
  O  O9  1  0.24892300  0.24892300  0.74949500  1
  O  O10  1  0.24892300  0.75107700  0.25050500  1
  O  O11  1  0.24892300  0.75107700  0.74949500  1
  O  O12  1  0.75107700  0.24892300  0.25050500  1
  O  O13  1  0.75107700  0.24892300  0.74949500  1
  O  O14  1  0.75107700  0.75107700  0.25050500  1
  O  O15  1  0.75107700  0.75107700  0.74949500  1
  O  O16  1  0.00000000  0.00000000  0.25129900  1
  O  O17  1  0.00000000  0.00000000  0.74870100  1
  O  O18  1  0.00000000  0.50000000  0.25100500  1
  O  O19  1  0.00000000  0.50000000  0.74899500  1
  O  O20  1  0.50000000  0.00000000  0.25100500  1
  O  O21  1  0.50000000  0.00000000  0.74899500  1
  O  O22  1  0.50000000  0.50000000  0.25050700  1
  O  O23  1  0.50000000  0.50000000  0.74949300  1
  O  O24  1  0.00000000  0.26285400  0.00000000  1
  O  O25  1  0.00000000  0.25957500  0.50000000  1
  O  O26  1  0.00000000  0.73714600  0.00000000  1
  O  O27  1  0.00000000  0.74042500  0.50000000  1
  O  O28  1  0.50000000  0.25157500  0.00000000  1
  O  O29  1  0.50000000  0.25106900  0.50000000  1
  O  O30  1  0.50000000  0.74842500  0.00000000  1
  O  O31  1  0.50000000  0.74893100  0.50000000  1
loop_
_geom_bond_atom_site_label_1
_geom_bond_atom_site_label_2
_geom_bond_distance
_geom_bond_site_symmetry_2
Ca0 O16 2.185553 1_555
Ca0 O17 2.185553 1_554
Ca0 O0 2.273125 1_555
Ca0 O24 2.273125 1_555
Ca0 O26 2.273125 1_545
Ca0 O4 2.273125 1_455
Mg0 O26 2.050805 1_555
Mg0 O24 2.050805 1_555
Mg0 O6 2.175585 1_455
Mg0 O2 2.175585 1_555
Mg0 O18 2.182997 1_555
Mg0 O19 2.182997 1_554
Mg1 O27 2.079162 1_555
Mg1 O25 2.079162 1_555
Mg1 O19 2.165515 1_555
Mg1 O18 2.165515 1_555
Mg1 O3 2.171210 1_555
Mg1 O7 2.171210 1_455
Mg2 O4 2.050805 1_555
Mg2 O0 2.050805 1_555
Mg2 O28 2.175585 1_555
Mg2 O30 2.175585 1_545
Mg2 O20 2.182997 1_555
Mg2 O21 2.182997 1_554
Mg3 O1 2.079162 1_555
Mg3 O5 2.079162 1_555
Mg3 O21 2.165515 1_555
Mg3 O20 2.165515 1_555
Mg3 O31 2.171210 1_545
Mg3 O29 2.171210 1_555
Mg4 O30 2.148345 1_555
Mg4 O2 2.148345 1_555
Mg4 O28 2.148345 1_555
Mg4 O6 2.148345 1_555
Mg4 O22 2.178665 1_555
Mg4 O23 2.178665 1_554
Mg5 O7 2.152720 1_555
Mg5 O29 2.152720 1_555
Mg5 O31 2.152720 1_555
Mg5 O3 2.152720 1_555
Mg5 O23 2.169847 1_555
Mg5 O22 2.169847 1_555
Mg6 O18 2.083788 1_555
Mg6 O24 2.142090 1_555
Mg6 O8 2.154759 1_555
Mg6 O12 2.154759 1_455
Mg6 O25 2.206674 1_555
Mg6 O16 2.240974 1_555
Mg7 O19 2.083788 1_555
Mg7 O24 2.142090 1_556
Mg7 O9 2.154759 1_555
Mg7 O13 2.154759 1_455
Mg7 O25 2.206674 1_555
Mg7 O17 2.240974 1_555
Mg8 O18 2.083788 1_555
Mg8 O26 2.142090 1_555
Mg8 O10 2.154759 1_555
Mg8 O14 2.154759 1_455
Mg8 O27 2.206674 1_555
Mg8 O16 2.240974 1_565
Mg9 O19 2.083788 1_555
Mg9 O26 2.142090 1_556
Mg9 O11 2.154759 1_555
Mg9 O15 2.154759 1_455
Mg9 O27 2.206674 1_555
Mg9 O17 2.240974 1_565
Mg10 O22 2.153291 1_555
Mg10 O28 2.168139 1_555
Mg10 O20 2.170716 1_555
Mg10 O12 2.171379 1_555
Mg10 O8 2.171379 1_555
Mg10 O29 2.180379 1_555
Mg11 O23 2.153291 1_555
Mg11 O28 2.168139 1_556
Mg11 O21 2.170716 1_555
Mg11 O13 2.171379 1_555
Mg11 O9 2.171379 1_555
Mg11 O29 2.180379 1_555
Mg12 O22 2.153291 1_555
Mg12 O30 2.168139 1_555
Mg12 O20 2.170716 1_565
Mg12 O14 2.171379 1_555
Mg12 O10 2.171379 1_555
Mg12 O31 2.180379 1_555
Mg13 O23 2.153291 1_555
Mg13 O30 2.168139 1_556
Mg13 O21 2.170716 1_565
Mg13 O15 2.171379 1_555
Mg13 O11 2.171379 1_555
Mg13 O31 2.180379 1_555
Mg14 O20 2.083788 1_555
Mg14 O0 2.142090 1_555
Mg14 O8 2.154759 1_555
Mg14 O10 2.154759 1_545
Mg14 O1 2.206674 1_555
Mg14 O16 2.240974 1_555
Mg15 O21 2.083788 1_555
Mg15 O0 2.142090 1_556
Mg15 O9 2.154759 1_555
Mg15 O11 2.154759 1_545
Mg15 O1 2.206674 1_555
Mg15 O17 2.240974 1_555
Mg16 O22 2.153291 1_555
Mg16 O2 2.168139 1_555
Mg16 O18 2.170716 1_555
Mg16 O10 2.171379 1_555
Mg16 O8 2.171379 1_555
Mg16 O3 2.180379 1_555
Mg17 O23 2.153291 1_555
Mg17 O2 2.168139 1_556
Mg17 O19 2.170716 1_555
Mg17 O11 2.171379 1_555
Mg17 O9 2.171379 1_555
Mg17 O3 2.180379 1_555
Mg18 O20 2.083788 1_555
Mg18 O4 2.142090 1_555
Mg18 O12 2.154759 1_555
Mg18 O14 2.154759 1_545
Mg18 O5 2.206674 1_555
Mg18 O16 2.240974 1_655
Mg19 O21 2.083788 1_555
Mg19 O4 2.142090 1_556
Mg19 O13 2.154759 1_555
Mg19 O15 2.154759 1_545
Mg19 O5 2.206674 1_555
Mg19 O17 2.240974 1_655
Mg20 O22 2.153291 1_555
Mg20 O6 2.168139 1_555
Mg20 O18 2.170716 1_655
Mg20 O14 2.171379 1_555
Mg20 O12 2.171379 1_555
Mg20 O7 2.180379 1_555
Mg21 O23 2.153291 1_555
Mg21 O6 2.168139 1_556
Mg21 O19 2.170716 1_655
Mg21 O15 2.171379 1_555
Mg21 O13 2.171379 1_555
Mg21 O7 2.180379 1_555
Mg22 O2 2.131248 1_555
Mg22 O28 2.131248 1_555
Mg22 O8 2.179386 1_555
Mg22 O9 2.179386 1_554
Mg22 O24 2.194224 1_555
Mg22 O0 2.194224 1_555
Mg23 O29 2.107157 1_555
Mg23 O3 2.107157 1_555
Mg23 O9 2.171788 1_555
Mg23 O8 2.171788 1_555
Mg23 O25 2.217447 1_555
Mg23 O1 2.217447 1_555
Mg24 O30 2.131248 1_555
Mg24 O2 2.131248 1_555
Mg24 O10 2.179386 1_555
Mg24 O11 2.179386 1_554
Mg24 O0 2.194224 1_565
Mg24 O26 2.194224 1_555
Mg25 O3 2.107157 1_555
Mg25 O31 2.107157 1_555
Mg25 O11 2.171788 1_555
Mg25 O10 2.171788 1_555
Mg25 O27 2.217447 1_555
Mg25 O1 2.217447 1_565
Mg26 O6 2.131248 1_555
Mg26 O28 2.131248 1_555
Mg26 O12 2.179386 1_555
Mg26 O13 2.179386 1_554
Mg26 O24 2.194224 1_655
Mg26 O4 2.194224 1_555
Mg27 O29 2.107157 1_555
Mg27 O7 2.107157 1_555
Mg27 O13 2.171788 1_555
Mg27 O12 2.171788 1_555
Mg27 O5 2.217447 1_555
Mg27 O25 2.217447 1_655
Mg28 O30 2.131248 1_555
Mg28 O6 2.131248 1_555
Mg28 O14 2.179386 1_555
Mg28 O15 2.179386 1_554
Mg28 O4 2.194224 1_565
Mg28 O26 2.194224 1_655
Mg29 O31 2.107157 1_555
Mg29 O7 2.107157 1_555
Mg29 O15 2.171788 1_555
Mg29 O14 2.171788 1_555
Mg29 O27 2.217447 1_655
Mg29 O5 2.217447 1_565
O1 Y0 2.244768 1_555
O5 Y0 2.244768 1_655
O16 Y0 2.162959 1_555
O17 Y0 2.162959 1_555
O25 Y0 2.244768 1_555
O27 Y0 2.244768 1_565
