# generated using pymatgen
data_Cr9FeB6
_symmetry_space_group_name_H-M   'P 1'
_cell_length_a   6.29976196
_cell_length_b   6.29976196
_cell_length_c   6.29976196
_cell_angle_alpha   129.40285320
_cell_angle_beta   129.40285320
_cell_angle_gamma   74.36322383
_symmetry_Int_Tables_number   1
_chemical_formula_structural   Cr9FeB6
_chemical_formula_sum   'Cr9 Fe1 B6'
_cell_volume   145.50499707
_cell_formula_units_Z   1
loop_
 _symmetry_equiv_pos_site_id
 _symmetry_equiv_pos_as_xyz
  1  'x, y, z'
loop_
 _atom_site_type_symbol
 _atom_site_label
 _atom_site_symmetry_multiplicity
 _atom_site_fract_x
 _atom_site_fract_y
 _atom_site_fract_z
 _atom_site_occupancy
  Cr  Cr0  1  0.52152700  0.02503200  0.84217600  1
  Cr  Cr1  1  0.18285600  0.67935100  0.15782400  1
  Cr  Cr2  1  0.02503200  0.18285600  0.50350500  1
  Cr  Cr3  1  0.67935100  0.52152700  0.49649500  1
  Cr  Cr4  1  0.47847300  0.97496800  0.15782400  1
  Cr  Cr5  1  0.81714400  0.32064900  0.84217600  1
  Cr  Cr6  1  0.97496800  0.81714400  0.49649500  1
  Cr  Cr7  1  0.32064900  0.47847300  0.50350500  1
  Cr  Cr8  1  0.50000000  0.50000000  0.00000000  1
  Fe  Fe0  1  0.00000000  0.00000000  0.00000000  1
  B  B0  1  0.88434200  0.37637300  0.26071500  1
  B  B1  1  0.11565800  0.62362700  0.73928500  1
  B  B2  1  0.37637300  0.11565800  0.49203200  1
  B  B3  1  0.62362700  0.88434200  0.50796800  1
  B  B4  1  0.25121600  0.25121600  0.00000000  1
  B  B5  1  0.74878400  0.74878400  0.00000000  1
loop_
_geom_bond_atom_site_label_1
_geom_bond_atom_site_label_2
_geom_bond_distance
_geom_bond_site_symmetry_2
Cr0 Fe0 2.497455 1_656
Cr1 Fe0 2.497455 1_565
Cr2 Fe0 2.497455 1_555
Cr3 Fe0 2.497455 1_666
Cr4 Fe0 2.497455 1_565
Cr5 Fe0 2.497455 1_656
Cr6 Fe0 2.497455 1_666
Cr7 Fe0 2.497455 1_555
B0 B1 1.823031 1_655
B0 Fe0 2.119999 1_655
B0 Cr7 2.162164 1_655
B0 Cr2 2.162164 1_655
B0 Cr8 2.173802 1_555
B0 Cr5 2.177746 1_554
B0 Cr0 2.177746 1_554
B0 Cr3 2.187333 1_555
B0 Cr6 2.187333 1_555
B1 Fe0 2.119999 1_566
B1 Cr6 2.162164 1_455
B1 Cr3 2.162164 1_455
B1 Cr8 2.173802 1_556
B1 Cr4 2.177746 1_556
B1 Cr1 2.177746 1_556
B1 Cr7 2.187333 1_555
B1 Cr2 2.187333 1_555
B2 B3 1.823031 1_545
B2 Fe0 2.120002 1_555
B2 Cr1 2.162163 1_545
B2 Cr4 2.162170 1_545
B2 Cr8 2.173799 1_556
B2 Cr2 2.177742 1_555
B2 Cr7 2.177749 1_555
B2 Cr0 2.187327 1_555
B2 Cr5 2.187334 1_555
B3 Fe0 2.120002 1_666
B3 Cr5 2.162163 1_565
B3 Cr0 2.162170 1_565
B3 Cr8 2.173799 1_555
B3 Cr6 2.177742 1_555
B3 Cr3 2.177749 1_555
B3 Cr4 2.187327 1_555
B3 Cr1 2.187334 1_555
B4 Cr0 2.227462 1_554
B4 Cr2 2.227462 1_554
B4 Cr1 2.227462 1_555
B4 Cr3 2.227462 1_555
B4 Cr7 2.261258 1_555
B4 Cr6 2.261258 1_444
B4 Cr4 2.261258 1_545
B4 Cr5 2.261258 1_454
B4 Cr8 2.497379 1_555
B4 Fe0 2.521792 1_555
B5 Cr5 2.227462 1_554
B5 Cr7 2.227462 1_554
B5 Cr4 2.227462 1_555
B5 Cr6 2.227462 1_555
B5 Cr0 2.261258 1_564
B5 Cr1 2.261258 1_655
B5 Cr2 2.261258 1_665
B5 Cr3 2.261258 1_554
B5 Cr8 2.497379 1_555
B5 Fe0 2.521792 1_665
