# generated using pymatgen
data_TaW
_symmetry_space_group_name_H-M   'P 1'
_cell_length_a   5.63126217
_cell_length_b   5.63126217
_cell_length_c   9.04279682
_cell_angle_alpha   90.00000000
_cell_angle_beta   90.00000000
_cell_angle_gamma   110.04226796
_symmetry_Int_Tables_number   1
_chemical_formula_structural   TaW
_chemical_formula_sum   'Ta8 W8'
_cell_volume   269.39115888
_cell_formula_units_Z   8
loop_
 _symmetry_equiv_pos_site_id
 _symmetry_equiv_pos_as_xyz
  1  'x, y, z'
loop_
 _atom_site_type_symbol
 _atom_site_label
 _atom_site_symmetry_multiplicity
 _atom_site_fract_x
 _atom_site_fract_y
 _atom_site_fract_z
 _atom_site_occupancy
  Ta  Ta0_0  1  0.00000000  0.00000000  0.00000000  1
  Ta  Ta0_1  1  0.00000000  0.00000000  0.50000000  1
  Ta  Ta0_2  1  0.00000000  0.50000000  0.00000000  1
  Ta  Ta0_3  1  0.00000000  0.50000000  0.50000000  1
  Ta  Ta0_4  1  0.50000000  0.00000000  0.00000000  1
  Ta  Ta0_5  1  0.50000000  0.00000000  0.50000000  1
  Ta  Ta0_6  1  0.50000000  0.50000000  0.00000000  1
  Ta  Ta0_7  1  0.50000000  0.50000000  0.50000000  1
  W  W0_0  1  0.25000000  0.25000000  0.25000000  1
  W  W0_1  1  0.25000000  0.25000000  0.75000000  1
  W  W0_2  1  0.25000000  0.75000000  0.25000000  1
  W  W0_3  1  0.25000000  0.75000000  0.75000000  1
  W  W0_4  1  0.75000000  0.25000000  0.25000000  1
  W  W0_5  1  0.75000000  0.25000000  0.75000000  1
  W  W0_6  1  0.75000000  0.75000000  0.25000000  1
  W  W0_7  1  0.75000000  0.75000000  0.75000000  1
loop_
_geom_bond_atom_site_label_1
_geom_bond_atom_site_label_2
_geom_bond_distance
_geom_bond_site_symmetry_2
Ta0_0 W0_0 2.777800 1_555
Ta0_0 W0_1 2.777800 1_554
Ta0_0 W0_6 2.777800 1_445
Ta0_0 W0_7 2.777800 1_444
Ta0_0 Ta0_4 2.815631 1_555
Ta0_0 Ta0_2 2.815631 1_555
Ta0_0 Ta0_2 2.815631 1_545
Ta0_0 Ta0_4 2.815631 1_455
Ta0_1 W0_0 2.777800 1_555
Ta0_1 W0_1 2.777800 1_555
Ta0_1 W0_6 2.777800 1_445
Ta0_1 W0_7 2.777800 1_445
Ta0_1 Ta0_5 2.815631 1_455
Ta0_1 Ta0_5 2.815631 1_555
Ta0_1 Ta0_3 2.815631 1_545
Ta0_1 Ta0_3 2.815631 1_555
Ta0_2 W0_3 2.777800 1_554
Ta0_2 W0_5 2.777800 1_454
Ta0_2 W0_4 2.777800 1_455
Ta0_2 W0_2 2.777800 1_555
Ta0_2 Ta0_6 2.815631 1_555
Ta0_2 Ta0_6 2.815631 1_455
Ta0_3 W0_4 2.777800 1_455
Ta0_3 W0_3 2.777800 1_555
Ta0_3 W0_2 2.777800 1_555
Ta0_3 W0_5 2.777800 1_455
Ta0_3 Ta0_7 2.815631 1_555
Ta0_3 Ta0_7 2.815631 1_455
Ta0_4 W0_4 2.777800 1_555
Ta0_4 W0_2 2.777800 1_545
Ta0_4 W0_3 2.777800 1_544
Ta0_4 W0_5 2.777800 1_554
Ta0_4 Ta0_6 2.815631 1_545
Ta0_4 Ta0_6 2.815631 1_555
Ta0_5 W0_4 2.777800 1_555
Ta0_5 W0_2 2.777800 1_545
Ta0_5 W0_5 2.777800 1_555
Ta0_5 W0_3 2.777800 1_545
Ta0_5 Ta0_7 2.815631 1_545
Ta0_5 Ta0_7 2.815631 1_555
Ta0_6 W0_7 2.777800 1_554
Ta0_6 W0_6 2.777800 1_555
Ta0_6 W0_0 2.777800 1_555
Ta0_6 W0_1 2.777800 1_554
Ta0_7 W0_6 2.777800 1_555
Ta0_7 W0_7 2.777800 1_555
Ta0_7 W0_0 2.777800 1_555
Ta0_7 W0_1 2.777800 1_555
W0_0 W0_4 2.815631 1_555
W0_0 W0_2 2.815631 1_545
W0_0 W0_4 2.815631 1_455
W0_0 W0_2 2.815631 1_555
W0_1 W0_3 2.815631 1_555
W0_1 W0_5 2.815631 1_455
W0_1 W0_3 2.815631 1_545
W0_1 W0_5 2.815631 1_555
W0_2 W0_6 2.815631 1_555
W0_2 W0_6 2.815631 1_455
W0_3 W0_7 2.815631 1_555
W0_3 W0_7 2.815631 1_455
W0_4 W0_6 2.815631 1_555
W0_4 W0_6 2.815631 1_545
W0_5 W0_7 2.815631 1_555
W0_5 W0_7 2.815631 1_545
