# generated using pymatgen
data_Ba6Si6CN14
_symmetry_space_group_name_H-M   'P 1'
_cell_length_a   16.54270854
_cell_length_b   16.54270854
_cell_length_c   5.54167000
_cell_angle_alpha   90.00000000
_cell_angle_beta   90.00000000
_cell_angle_gamma   120.00000216
_symmetry_Int_Tables_number   1
_chemical_formula_structural   Ba6Si6CN14
_chemical_formula_sum   'Ba18 Si18 C3 N42'
_cell_volume   1313.36221927
_cell_formula_units_Z   3
loop_
 _symmetry_equiv_pos_site_id
 _symmetry_equiv_pos_as_xyz
  1  'x, y, z'
loop_
 _atom_site_type_symbol
 _atom_site_label
 _atom_site_symmetry_multiplicity
 _atom_site_fract_x
 _atom_site_fract_y
 _atom_site_fract_z
 _atom_site_occupancy
  Ba  Ba0  1  0.51154900  0.68334700  0.50000000  1
  Ba  Ba1  1  0.31665300  0.82820200  0.50000000  1
  Ba  Ba2  1  0.17179800  0.48845100  0.50000000  1
  Ba  Ba3  1  0.48988100  0.13776400  0.50000000  1
  Ba  Ba4  1  0.86223600  0.35211700  0.50000000  1
  Ba  Ba5  1  0.64788300  0.51011900  0.50000000  1
  Ba  Ba6  1  0.52406300  0.84052200  0.00000000  1
  Ba  Ba7  1  0.15947800  0.68354000  0.00000000  1
  Ba  Ba8  1  0.31646000  0.47593700  0.00000000  1
  Ba  Ba9  1  0.65280700  0.16182500  0.00000000  1
  Ba  Ba10  1  0.83817500  0.49098200  0.00000000  1
  Ba  Ba11  1  0.50901800  0.34719300  0.00000000  1
  Ba  Ba12  1  0.84031000  0.82783400  0.50000000  1
  Ba  Ba13  1  0.17216600  0.01247700  0.50000000  1
  Ba  Ba14  1  0.98752300  0.15969000  0.50000000  1
  Ba  Ba15  1  0.82436400  0.01927400  0.00000000  1
  Ba  Ba16  1  0.98072600  0.80509000  0.00000000  1
  Ba  Ba17  1  0.19491000  0.17563600  0.00000000  1
  Si  Si0  1  0.55048100  0.97842500  0.50000000  1
  Si  Si1  1  0.02157500  0.57205600  0.50000000  1
  Si  Si2  1  0.42794400  0.44951900  0.50000000  1
  Si  Si3  1  0.35467800  0.11622200  0.00000000  1
  Si  Si4  1  0.88377800  0.23845600  0.00000000  1
  Si  Si5  1  0.76154400  0.64532200  0.00000000  1
  Si  Si6  1  0.35519800  0.23912400  0.50000000  1
  Si  Si7  1  0.76087600  0.11607400  0.50000000  1
  Si  Si8  1  0.88392600  0.64480200  0.50000000  1
  Si  Si9  1  0.42816200  0.97874800  0.00000000  1
  Si  Si10  1  0.02125200  0.44941400  0.00000000  1
  Si  Si11  1  0.55058600  0.57183800  0.00000000  1
  Si  Si12  1  0.68724000  0.90447500  0.50000000  1
  Si  Si13  1  0.09552500  0.78276500  0.50000000  1
  Si  Si14  1  0.21723500  0.31276000  0.50000000  1
  Si  Si15  1  0.68861800  0.78251100  0.00000000  1
  Si  Si16  1  0.21748900  0.90610700  0.00000000  1
  Si  Si17  1  0.09389300  0.31138200  0.00000000  1
  C  C0  1  0.00000000  0.00000000  0.00000000  1
  C  C1  1  0.33333300  0.66666700  0.00000000  1
  C  C2  1  0.66666700  0.33333300  0.50000000  1
  N  N0  1  0.44427500  0.09091900  0.00000000  1
  N  N1  1  0.90908100  0.35335700  0.00000000  1
  N  N2  1  0.64664300  0.55572500  0.00000000  1
  N  N3  1  0.66666700  0.33333300  0.27516000  1
  N  N4  1  0.66666700  0.33333300  0.72484000  1
  N  N5  1  0.64576200  0.09142900  0.50000000  1
  N  N6  1  0.90857100  0.55433300  0.50000000  1
  N  N7  1  0.44566700  0.35423800  0.50000000  1
  N  N8  1  0.57532900  0.88849700  0.50000000  1
  N  N9  1  0.11150300  0.68683300  0.50000000  1
  N  N10  1  0.31316700  0.42467100  0.50000000  1
  N  N11  1  0.70063900  0.85021500  0.24950900  1
  N  N12  1  0.14978500  0.85042400  0.24950900  1
  N  N13  1  0.70063900  0.85021500  0.75049100  1
  N  N14  1  0.14957600  0.29936100  0.24950900  1
  N  N15  1  0.14978500  0.85042400  0.75049100  1
  N  N16  1  0.14957600  0.29936100  0.75049100  1
  N  N17  1  0.36732400  0.18476800  0.24847600  1
  N  N18  1  0.81523200  0.18255600  0.24847600  1
  N  N19  1  0.36732400  0.18476800  0.75152400  1
  N  N20  1  0.81744400  0.63267600  0.24847600  1
  N  N21  1  0.81523200  0.18255600  0.75152400  1
  N  N22  1  0.81744400  0.63267600  0.75152400  1
  N  N23  1  0.33333300  0.66666700  0.22493500  1
  N  N24  1  0.33333300  0.66666700  0.77506500  1
  N  N25  1  0.00000000  0.00000000  0.22485600  1
  N  N26  1  0.00000000  0.00000000  0.77514400  1
  N  N27  1  0.77636100  0.01964700  0.50000000  1
  N  N28  1  0.98035300  0.75671400  0.50000000  1
  N  N29  1  0.24328600  0.22363900  0.50000000  1
  N  N30  1  0.57591300  0.68689300  0.00000000  1
  N  N31  1  0.31310700  0.88902000  0.00000000  1
  N  N32  1  0.11098000  0.42408700  0.00000000  1
  N  N33  1  0.48272000  0.96609900  0.25058600  1
  N  N34  1  0.03390100  0.51662100  0.25058600  1
  N  N35  1  0.48272000  0.96609900  0.74941400  1
  N  N36  1  0.48337900  0.51728000  0.25058600  1
  N  N37  1  0.03390100  0.51662100  0.74941400  1
  N  N38  1  0.48337900  0.51728000  0.74941400  1
  N  N39  1  0.77873500  0.75776600  0.00000000  1
  N  N40  1  0.24223400  0.02096900  0.00000000  1
  N  N41  1  0.97903100  0.22126500  0.00000000  1
loop_
_geom_bond_atom_site_label_1
_geom_bond_atom_site_label_2
_geom_bond_distance
_geom_bond_site_symmetry_2
Ba0 N38 2.897316 1_555
Ba0 N36 2.897316 1_555
Ba0 N30 2.958414 1_555
Ba0 N30 2.958414 1_556
Ba0 N8 3.008315 1_555
Ba0 N24 3.205921 1_555
Ba0 N23 3.205921 1_555
Ba0 N13 3.270614 1_555
Ba0 N11 3.270614 1_555
Ba1 N33 2.897316 1_555
Ba1 N35 2.897316 1_555
Ba1 N31 2.958414 1_555
Ba1 N31 2.958414 1_556
Ba1 N9 3.008312 1_555
Ba1 N23 3.205906 1_555
Ba1 N24 3.205906 1_555
Ba1 N12 3.270614 1_555
Ba1 N15 3.270614 1_555
Ba2 N34 2.897316 1_555
Ba2 N37 2.897316 1_555
Ba2 N32 2.958414 1_556
Ba2 N32 2.958414 1_555
Ba2 N10 3.008300 1_555
Ba2 N23 3.205915 1_555
Ba2 N24 3.205915 1_555
Ba2 N16 3.270614 1_555
Ba2 N14 3.270614 1_555
Ba3 N17 2.869564 1_555
Ba3 N19 2.869564 1_555
Ba3 N0 2.874474 1_556
Ba3 N0 2.874474 1_555
Ba3 N5 3.035421 1_555
Ba3 C2 3.091613 1_555
Ba3 N35 3.106848 1_545
Ba3 N33 3.106848 1_545
Ba3 N3 3.333251 1_555
Ba3 N4 3.333251 1_555
Ba4 N21 2.869564 1_555
Ba4 N18 2.869564 1_555
Ba4 N1 2.874472 1_555
Ba4 N1 2.874472 1_556
Ba4 N6 3.035421 1_555
Ba4 C2 3.091606 1_555
Ba4 N37 3.106848 1_655
Ba4 N34 3.106848 1_655
Ba4 N3 3.333244 1_555
Ba4 N4 3.333244 1_555
Ba5 N22 2.869564 1_555
Ba5 N20 2.869564 1_555
Ba5 N2 2.874476 1_555
Ba5 N2 2.874476 1_556
Ba5 N7 3.035421 1_555
Ba5 C2 3.091623 1_555
Ba5 N38 3.106848 1_555
Ba5 N36 3.106848 1_555
Ba5 N4 3.333260 1_555
Ba5 N3 3.333260 1_555
Ba6 N33 2.851744 1_555
Ba6 N35 2.851744 1_554
Ba6 N8 2.890252 1_554
Ba6 N8 2.890252 1_555
Ba6 C1 3.025287 1_555
Ba6 N30 3.061785 1_555
Ba6 N13 3.162544 1_554
Ba6 N11 3.162544 1_555
Ba6 N23 3.272027 1_555
Ba6 N24 3.272027 1_554
Ba7 N37 2.851734 1_554
Ba7 N34 2.851734 1_555
Ba7 N9 2.890257 1_554
Ba7 N9 2.890257 1_555
Ba7 C1 3.025268 1_555
Ba7 N31 3.061796 1_555
Ba7 N15 3.162558 1_554
Ba7 N12 3.162558 1_555
Ba7 N24 3.272010 1_554
Ba7 N23 3.272010 1_555
Ba8 N38 2.851730 1_554
Ba8 N36 2.851730 1_555
Ba8 N10 2.890248 1_554
Ba8 N10 2.890248 1_555
Ba8 C1 3.025301 1_555
Ba8 N32 3.061801 1_555
Ba8 N16 3.162550 1_554
Ba8 N14 3.162550 1_555
Ba8 N24 3.272040 1_554
Ba8 N23 3.272040 1_555
Ba9 N18 2.883033 1_555
Ba9 N21 2.883033 1_554
Ba9 N5 2.985221 1_555
Ba9 N5 2.985221 1_554
Ba9 N0 3.038058 1_555
Ba9 N3 3.126811 1_555
Ba9 N4 3.126811 1_554
Ba9 N35 3.349416 1_544
Ba9 N33 3.349416 1_545
Ba10 N20 2.883033 1_555
Ba10 N22 2.883033 1_554
Ba10 N6 2.985221 1_555
Ba10 N6 2.985221 1_554
Ba10 N1 3.038042 1_555
Ba10 N4 3.126817 1_554
Ba10 N3 3.126817 1_555
Ba10 N37 3.349416 1_654
Ba10 N34 3.349416 1_655
Ba11 N19 2.883033 1_554
Ba11 N17 2.883033 1_555
Ba11 N7 2.985221 1_555
Ba11 N7 2.985221 1_554
Ba11 N2 3.038055 1_555
Ba11 N3 3.126826 1_555
Ba11 N4 3.126826 1_554
Ba11 N36 3.349416 1_555
Ba11 N38 3.349416 1_554
Ba12 N11 2.873682 1_555
Ba12 N13 2.873682 1_555
Ba12 N39 2.979591 1_556
Ba12 N39 2.979591 1_555
Ba12 N28 3.078453 1_555
Ba12 N25 3.145044 1_665
Ba12 N26 3.145044 1_665
Ba12 N22 3.359698 1_555
Ba12 N20 3.359698 1_555
Ba13 N15 2.873696 1_545
Ba13 N12 2.873696 1_545
Ba13 N40 2.979593 1_555
Ba13 N40 2.979593 1_556
Ba13 N29 3.078438 1_555
Ba13 N26 3.145037 1_555
Ba13 N25 3.145037 1_555
Ba13 N17 3.359691 1_555
Ba13 N19 3.359691 1_555
Ba14 N16 2.873690 1_655
Ba14 N14 2.873690 1_655
Ba14 N41 2.979587 1_555
Ba14 N41 2.979587 1_556
Ba14 N27 3.078441 1_555
Ba14 N25 3.145052 1_655
Ba14 N26 3.145052 1_655
Ba14 N18 3.359683 1_555
Ba14 N21 3.359683 1_555
Ba15 N13 2.863284 1_544
Ba15 N11 2.863284 1_545
Ba15 N27 2.883238 1_555
Ba15 N27 2.883238 1_554
Ba15 N41 3.026950 1_555
Ba15 C0 3.077331 1_655
Ba15 N18 3.102098 1_555
Ba15 N21 3.102098 1_554
Ba15 N26 3.320041 1_654
Ba15 N25 3.320041 1_655
Ba16 N12 2.863284 1_655
Ba16 N15 2.863284 1_654
Ba16 N28 2.883238 1_555
Ba16 N28 2.883238 1_554
Ba16 N39 3.026950 1_555
Ba16 C0 3.077331 1_665
Ba16 N20 3.102098 1_555
Ba16 N22 3.102098 1_554
Ba16 N26 3.320041 1_664
Ba16 N25 3.320041 1_665
Ba17 N16 2.863284 1_554
Ba17 N14 2.863284 1_555
Ba17 N29 2.883238 1_555
Ba17 N29 2.883238 1_554
Ba17 N40 3.026950 1_555
Ba17 C0 3.077331 1_555
Ba17 N17 3.102098 1_555
Ba17 N19 3.102098 1_554
Ba17 N26 3.320041 1_554
Ba17 N25 3.320041 1_555
C0 N26 1.246078 1_554
C0 N25 1.246078 1_555
C1 N23 1.246516 1_555
C1 N24 1.246516 1_554
C2 N3 1.245989 1_555
C2 N4 1.245989 1_555
N0 Si3 1.729875 1_555
N0 Si9 1.737737 1_545
N1 Si4 1.729891 1_555
N1 Si10 1.737730 1_655
N2 Si5 1.729886 1_555
N2 Si11 1.737720 1_555
N5 Si7 1.736718 1_555
N5 Si0 1.741409 1_545
N6 Si8 1.736718 1_555
N6 Si1 1.741409 1_655
N7 Si6 1.736718 1_555
N7 Si2 1.741409 1_555
N8 Si0 1.730196 1_555
N8 Si12 1.734324 1_555
N9 Si1 1.730207 1_555
N9 Si13 1.734308 1_555
N10 Si2 1.730213 1_555
N10 Si14 1.734318 1_555
N11 Si12 1.726476 1_555
N11 Si15 1.727162 1_555
N12 Si13 1.726476 1_555
N12 Si16 1.727162 1_555
N13 Si12 1.726476 1_555
N13 Si15 1.727162 1_556
N14 Si14 1.726476 1_555
N14 Si17 1.727162 1_555
N15 Si13 1.726476 1_555
N15 Si16 1.727162 1_556
N16 Si14 1.726476 1_555
N16 Si17 1.727162 1_556
N17 Si6 1.723955 1_555
N17 Si3 1.728702 1_555
N18 Si7 1.723955 1_555
N18 Si4 1.728702 1_555
N19 Si6 1.723955 1_555
N19 Si3 1.728702 1_556
N20 Si8 1.723955 1_555
N20 Si5 1.728702 1_555
N21 Si7 1.723955 1_555
N21 Si4 1.728702 1_556
N22 Si8 1.723955 1_555
N22 Si5 1.728702 1_556
N27 Si12 1.730505 1_545
N27 Si7 1.737467 1_555
N28 Si13 1.730505 1_655
N28 Si8 1.737467 1_555
N29 Si14 1.730505 1_555
N29 Si6 1.737467 1_555
N30 Si11 1.732260 1_555
N30 Si15 1.740415 1_555
N31 Si9 1.732260 1_555
N31 Si16 1.740415 1_555
N32 Si10 1.732260 1_555
N32 Si17 1.740415 1_555
N33 Si9 1.724994 1_555
N33 Si0 1.726248 1_555
N34 Si10 1.724994 1_555
N34 Si1 1.726248 1_555
N35 Si9 1.724994 1_556
N35 Si0 1.726248 1_555
N36 Si11 1.724994 1_555
N36 Si2 1.726248 1_555
N37 Si10 1.724994 1_556
N37 Si1 1.726248 1_555
N38 Si11 1.724994 1_556
N38 Si2 1.726248 1_555
N39 Si15 1.732120 1_555
N39 Si5 1.735500 1_555
N40 Si16 1.732120 1_545
N40 Si3 1.735499 1_555
N41 Si17 1.732120 1_655
N41 Si4 1.735500 1_555
