# generated using pymatgen
data_YbHfF7
_symmetry_space_group_name_H-M   'P 1'
_cell_length_a   6.04214800
_cell_length_b   6.01591073
_cell_length_c   8.10564797
_cell_angle_alpha   99.71430703
_cell_angle_beta   90.00000000
_cell_angle_gamma   90.00000000
_symmetry_Int_Tables_number   1
_chemical_formula_structural   YbHfF7
_chemical_formula_sum   'Yb2 Hf2 F14'
_cell_volume   290.40775828
_cell_formula_units_Z   2
loop_
 _symmetry_equiv_pos_site_id
 _symmetry_equiv_pos_as_xyz
  1  'x, y, z'
loop_
 _atom_site_type_symbol
 _atom_site_label
 _atom_site_symmetry_multiplicity
 _atom_site_fract_x
 _atom_site_fract_y
 _atom_site_fract_z
 _atom_site_occupancy
  Yb  Yb0  1  0.70318600  0.68546000  0.70315200  1
  Yb  Yb1  1  0.20318600  0.31454000  0.29684800  1
  Hf  Hf0  1  0.70413300  0.82487400  0.23593100  1
  Hf  Hf1  1  0.20413300  0.17512600  0.76406900  1
  F  F0  1  0.94768900  0.49560700  0.49867300  1
  F  F1  1  0.44768900  0.50439300  0.50132700  1
  F  F2  1  0.42729000  0.93765700  0.77468200  1
  F  F3  1  0.92729000  0.06234300  0.22531800  1
  F  F4  1  0.95649500  0.96386000  0.77666500  1
  F  F5  1  0.45649500  0.03614000  0.22333500  1
  F  F6  1  0.97642100  0.43141100  0.75059800  1
  F  F7  1  0.47642100  0.56858900  0.24940200  1
  F  F8  1  0.70495800  0.72223600  0.98856100  1
  F  F9  1  0.20495800  0.27776400  0.01143900  1
  F  F10  1  0.70397100  0.88218200  0.48490900  1
  F  F11  1  0.20397100  0.11781800  0.51509100  1
  F  F12  1  0.45221700  0.41042700  0.75080700  1
  F  F13  1  0.95221700  0.58957300  0.24919300  1
loop_
_geom_bond_atom_site_label_1
_geom_bond_atom_site_label_2
_geom_bond_distance
_geom_bond_site_symmetry_2
F0 Yb0 2.365421 1_555
F0 Yb1 2.375832 1_655
F1 Yb1 2.365421 1_555
F1 Yb0 2.375832 1_555
F2 Hf1 1.976813 1_565
F2 Yb0 2.262761 1_555
F3 Hf0 1.976813 1_545
F3 Yb1 2.262761 1_655
F4 Hf1 1.976957 1_665
F4 Yb0 2.272850 1_555
F5 Hf0 1.976957 1_545
F5 Yb1 2.272850 1_555
F6 Hf1 2.082994 1_655
F6 Yb0 2.325430 1_555
F7 Hf0 2.082994 1_555
F7 Yb1 2.325430 1_555
F8 Hf0 1.995964 1_556
F8 Yb0 2.286541 1_555
F9 Hf1 1.995964 1_554
F9 Yb1 2.286541 1_555
F10 Hf0 1.989196 1_555
F10 Yb0 2.288336 1_555
F11 Hf1 1.989196 1_555
F11 Yb1 2.288336 1_555
F12 Hf1 2.076914 1_555
F12 Yb0 2.324210 1_555
F13 Hf0 2.076914 1_555
F13 Yb1 2.324210 1_655
