# generated using pymatgen
data_Hf3TaFe8
_symmetry_space_group_name_H-M   'P 1'
_cell_length_a   4.94351674
_cell_length_b   4.94351723
_cell_length_c   8.06256995
_cell_angle_alpha   89.99999899
_cell_angle_beta   89.99998777
_cell_angle_gamma   119.99922461
_symmetry_Int_Tables_number   1
_chemical_formula_structural   Hf3TaFe8
_chemical_formula_sum   'Hf3 Ta1 Fe8'
_cell_volume   170.63950446
_cell_formula_units_Z   1
loop_
 _symmetry_equiv_pos_site_id
 _symmetry_equiv_pos_as_xyz
  1  'x, y, z'
loop_
 _atom_site_type_symbol
 _atom_site_label
 _atom_site_symmetry_multiplicity
 _atom_site_fract_x
 _atom_site_fract_y
 _atom_site_fract_z
 _atom_site_occupancy
  Hf  Hf0  1  0.33333221  0.66666746  0.44112097  1
  Hf  Hf1  1  0.33333219  0.66666767  0.06145975  1
  Hf  Hf2  1  0.66666794  0.33333213  0.93547416  1
  Ta  Ta0  1  0.66666807  0.33333113  0.56035556  1
  Fe  Fe0  1  -0.00000089  0.00000032  0.50044185  1
  Fe  Fe1  1  -0.00000089  -0.00000100  1.00018239  1
  Fe  Fe2  1  0.16797115  0.33594061  0.74801874  1
  Fe  Fe3  1  0.16797063  0.83203045  0.74801903  1
  Fe  Fe4  1  0.66405934  0.83202933  0.74801828  1
  Fe  Fe5  1  0.83200507  0.66401031  0.25230476  1
  Fe  Fe6  1  0.83200548  0.16799603  0.25230399  1
  Fe  Fe7  1  0.33599171  0.16799655  0.25230450  1
loop_
_geom_bond_atom_site_label_1
_geom_bond_atom_site_label_2
_geom_bond_distance
_geom_bond_site_symmetry_2
Hf0 Ta0 3.011701 1_565
Hf0 Ta0 3.011703 1_455
Hf0 Ta0 3.011704 1_555
Hf0 Hf1 3.061045 1_555
Hf1 Hf2 3.029514 1_554
Hf1 Hf2 3.029517 1_454
Hf1 Hf2 3.029518 1_564
Hf2 Ta0 3.024420 1_555
Fe0 Fe3 2.460276 1_545
Fe0 Fe4 2.460276 1_445
Fe0 Fe2 2.460281 1_555
Fe0 Fe6 2.464064 1_455
Fe0 Fe5 2.464071 1_445
Fe0 Fe7 2.464079 1_555
Fe0 Hf0 2.893923 1_545
Fe0 Hf0 2.893960 1_445
Fe0 Hf0 2.893961 1_555
Fe0 Ta0 2.894699 1_455
Fe0 Ta0 2.894762 1_555
Fe0 Ta0 2.894763 1_445
Fe1 Fe6 2.490216 1_456
Fe1 Fe5 2.490226 1_446
Fe1 Fe7 2.490235 1_556
Fe1 Fe3 2.490366 1_545
Fe1 Fe4 2.490380 1_445
Fe1 Fe2 2.490382 1_555
Fe1 Hf1 2.896565 1_546
Fe1 Hf1 2.896608 1_446
Fe1 Hf1 2.896616 1_556
Fe1 Hf2 2.901411 1_455
Fe1 Hf2 2.901455 1_445
Fe1 Hf2 2.901463 1_555
Fe2 Fe3 2.452430 1_555
Fe2 Fe4 2.452450 1_555
Fe2 Fe3 2.491087 1_545
Fe2 Fe4 2.491124 1_445
Fe2 Hf0 2.850862 1_555
Fe2 Hf1 2.896770 1_556
Fe2 Hf2 2.897229 1_455
Fe2 Hf2 2.897238 1_555
Fe2 Ta0 2.898101 1_455
Fe2 Ta0 2.898114 1_555
Fe3 Fe4 2.452426 1_555
Fe3 Fe4 2.491091 1_455
Fe3 Hf0 2.850851 1_555
Fe3 Hf1 2.896754 1_556
Fe3 Hf2 2.897255 1_565
Fe3 Hf2 2.897259 1_455
Fe3 Ta0 2.898129 1_565
Fe3 Ta0 2.898138 1_455
Fe4 Hf0 2.850860 1_555
Fe4 Hf1 2.896773 1_556
Fe4 Hf2 2.897229 1_565
Fe4 Hf2 2.897242 1_555
Fe4 Ta0 2.898095 1_565
Fe4 Ta0 2.898116 1_555
Fe5 Fe6 2.452056 1_555
Fe5 Fe7 2.452080 1_555
Fe5 Fe6 2.491461 1_565
Fe5 Fe7 2.491495 1_665
Fe5 Ta0 2.858834 1_555
Fe5 Hf0 2.902967 1_655
Fe5 Hf0 2.902978 1_555
Fe5 Hf1 2.911577 1_655
Fe5 Hf1 2.911591 1_555
Fe5 Hf2 2.920541 1_554
Fe6 Fe7 2.452054 1_555
Fe6 Fe7 2.491463 1_655
Fe6 Ta0 2.858817 1_555
Fe6 Hf0 2.902997 1_655
Fe6 Hf0 2.903004 1_545
Fe6 Hf1 2.911601 1_655
Fe6 Hf1 2.911609 1_545
Fe6 Hf2 2.920518 1_554
Fe7 Ta0 2.858830 1_555
Fe7 Hf0 2.902971 1_545
Fe7 Hf0 2.902977 1_555
Fe7 Hf1 2.911579 1_545
Fe7 Hf1 2.911587 1_555
Fe7 Hf2 2.920534 1_554
