# generated using pymatgen
data_Ba6Ca15Cu18Hg3O43
_symmetry_space_group_name_H-M   'P 1'
_cell_length_a   5.47928865
_cell_length_b   8.64144251
_cell_length_c   26.04899905
_cell_angle_alpha   93.79224511
_cell_angle_beta   83.96288168
_cell_angle_gamma   71.51625916
_symmetry_Int_Tables_number   1
_chemical_formula_structural   Ba6Ca15Cu18Hg3O43
_chemical_formula_sum   'Ba6 Ca15 Cu18 Hg3 O43'
_cell_volume   1156.78992498
_cell_formula_units_Z   1
loop_
 _symmetry_equiv_pos_site_id
 _symmetry_equiv_pos_as_xyz
  1  'x, y, z'
loop_
 _atom_site_type_symbol
 _atom_site_label
 _atom_site_symmetry_multiplicity
 _atom_site_fract_x
 _atom_site_fract_y
 _atom_site_fract_z
 _atom_site_occupancy
  Ba  Ba0  1  0.23507458  0.63243845  0.89741139  1
  Ba  Ba1  1  0.90478156  0.29812650  0.89231038  1
  Ba  Ba2  1  0.57211188  0.96345565  0.89232159  1
  Ba  Ba3  1  0.76122212  0.36987835  0.10767841  1
  Ba  Ba4  1  0.42855144  0.03520650  0.10768962  1
  Ba  Ba5  1  0.09825842  0.70089455  0.10258861  1
  Ca  Ca0  1  0.32979429  0.58511835  0.75529406  1
  Ca  Ca1  1  0.99745259  0.25117198  0.75392183  1
  Ca  Ca2  1  0.66402596  0.91807242  0.75387566  1
  Ca  Ca3  1  0.66930704  0.41526058  0.24612434  1
  Ca  Ca4  1  0.33588041  0.08216102  0.24607817  1
  Ca  Ca5  1  0.00353971  0.74821565  0.24470594  1
  Ca  Ca6  1  0.41540385  0.54235087  0.62684143  1
  Ca  Ca7  1  0.08231679  0.20881645  0.62655097  1
  Ca  Ca8  1  0.74899263  0.87547316  0.62654058  1
  Ca  Ca9  1  0.58434037  0.45785984  0.37345942  1
  Ca  Ca10  1  0.25101721  0.12451755  0.37344903  1
  Ca  Ca11  1  0.91792915  0.79098213  0.37315857  1
  Ca  Ca12  1  0.49986220  0.50019619  0.50007940  1
  Ca  Ca13  1  0.16666700  0.16666700  0.50000000  1
  Ca  Ca14  1  0.83347080  0.83313681  0.49992060  1
  Cu  Cu0  1  0.20789544  0.89558441  0.68862370  1
  Cu  Cu1  1  0.87417994  0.56298940  0.68865072  1
  Cu  Cu2  1  0.54060554  0.23015796  0.68863196  1
  Cu  Cu3  1  0.45915306  0.77034360  0.31134928  1
  Cu  Cu4  1  0.12543756  0.43774859  0.31137630  1
  Cu  Cu5  1  0.79272846  0.10317604  0.31136804  1
  Cu  Cu6  1  0.29184466  0.85377469  0.56253499  1
  Cu  Cu7  1  0.95820356  0.52106615  0.56252672  1
  Cu  Cu8  1  0.62486220  0.18776157  0.56251503  1
  Cu  Cu9  1  0.37512944  0.81226685  0.43747328  1
  Cu  Cu10  1  0.04148834  0.47955831  0.43746501  1
  Cu  Cu11  1  0.70847180  0.14557243  0.43748497  1
  Cu  Cu12  1  0.12370017  0.93754231  0.81505836  1
  Cu  Cu13  1  0.78959406  0.60516950  0.81564137  1
  Cu  Cu14  1  0.45618016  0.27257641  0.81506327  1
  Cu  Cu15  1  0.54373894  0.72816350  0.18435863  1
  Cu  Cu16  1  0.20963383  0.39579169  0.18494164  1
  Cu  Cu17  1  0.87715284  0.06075659  0.18493673  1
  Hg  Hg0  1  0.66666700  0.66666700  0.00000000  1
  Hg  Hg1  1  0.32702596  0.34602171  -0.00007463  1
  Hg  Hg2  1  0.00630704  0.98731129  0.00007463  1
  O  O0  1  0.45982642  0.77198587  0.81179975  1
  O  O1  1  0.12431494  0.43594454  0.81179215  1
  O  O2  1  0.79178404  0.10412721  0.81251846  1
  O  O3  1  0.95638696  0.77198587  0.81179975  1
  O  O4  1  0.62794837  0.43594454  0.81179215  1
  O  O5  1  0.29157128  0.10412721  0.81251846  1
  O  O6  1  0.87350658  0.56134713  0.18820025  1
  O  O7  1  0.54154996  0.22920679  0.18748154  1
  O  O8  1  0.20901806  0.89738846  0.18820785  1
  O  O9  1  0.37694604  0.56134713  0.18820025  1
  O  O10  1  0.04176272  0.22920679  0.18748154  1
  O  O11  1  0.70538463  0.89738846  0.18820785  1
  O  O12  1  0.54104313  0.72979053  0.68771283  1
  O  O13  1  0.20810817  0.39560400  0.68770542  1
  O  O14  1  0.87552910  0.06225086  0.68779746  1
  O  O15  1  0.04145251  0.72979053  0.68771283  1
  O  O16  1  0.70858241  0.39560400  0.68770542  1
  O  O17  1  0.37442358  0.06225086  0.68779746  1
  O  O18  1  0.79228987  0.60354247  0.31228717  1
  O  O19  1  0.45780490  0.27108314  0.31220254  1
  O  O20  1  0.12522483  0.93772900  0.31229458  1
  O  O21  1  0.29188049  0.60354247  0.31228717  1
  O  O22  1  0.95891042  0.27108314  0.31220254  1
  O  O23  1  0.62475059  0.93772900  0.31229458  1
  O  O24  1  0.62482515  0.68761698  0.56257162  1
  O  O25  1  0.29115659  0.35424329  0.56255742  1
  O  O26  1  0.95893775  0.02072513  0.56258578  1
  O  O27  1  0.12498526  0.68761698  0.56257162  1
  O  O28  1  0.79204270  0.35424329  0.56255742  1
  O  O29  1  0.45775234  0.02072513  0.56258578  1
  O  O30  1  0.70850785  0.64571602  0.43742838  1
  O  O31  1  0.37439625  0.31260887  0.43741422  1
  O  O32  1  0.04217641  0.97908971  0.43744258  1
  O  O33  1  0.20834774  0.64571602  0.43742838  1
  O  O34  1  0.87558166  0.31260887  0.43741422  1
  O  O35  1  0.54129030  0.97908971  0.43744258  1
  O  O36  1  0.04904413  0.98128666  0.92062508  1
  O  O37  1  0.72007358  0.63995864  0.91989519  1
  O  O38  1  0.39006172  0.29916967  0.92070589  1
  O  O39  1  0.61326042  0.69337536  0.08010481  1
  O  O40  1  0.28428887  0.35204634  0.07937492  1
  O  O41  1  0.94327128  0.03416333  0.07929411  1
  O  O42  1  0.16666700  0.66666700  0.00000000  1
loop_
_geom_bond_atom_site_label_1
_geom_bond_atom_site_label_2
_geom_bond_distance
_geom_bond_site_symmetry_2
Ba0 O42 2.642685 1_556
Ba0 O37 2.800192 1_455
Ba0 O37 2.800203 1_555
Ba0 O38 2.858697 1_555
Ba0 O36 2.858853 1_555
Ba0 O1 2.943275 1_555
Ba0 O4 2.943278 1_555
Ba0 O3 2.943420 1_455
Ba0 O0 2.943420 1_555
Ba1 O36 2.771769 1_645
Ba1 O37 2.817255 1_555
Ba1 O4 2.823568 1_555
Ba1 O1 2.823568 1_655
Ba1 O2 2.825216 1_555
Ba1 O5 2.825219 1_655
Ba1 O38 2.836450 1_655
Ba1 O38 2.836455 1_555
Ba2 O38 2.772013 1_565
Ba2 O37 2.817613 1_555
Ba2 O3 2.823742 1_555
Ba2 O0 2.823747 1_555
Ba2 O2 2.825515 1_565
Ba2 O5 2.825515 1_565
Ba2 O36 2.835834 1_655
Ba2 O36 2.835839 1_555
Ba3 O41 2.772021 1_555
Ba3 O39 2.817613 1_555
Ba3 O6 2.823740 1_555
Ba3 O9 2.823742 1_555
Ba3 O7 2.825515 1_555
Ba3 O10 2.825515 1_655
Ba3 O40 2.835832 1_655
Ba3 O40 2.835842 1_555
Ba4 O40 2.771769 1_555
Ba4 O39 2.817248 1_545
Ba4 O8 2.823568 1_545
Ba4 O11 2.823568 1_545
Ba4 O10 2.825219 1_555
Ba4 O7 2.825224 1_555
Ba4 O41 2.836450 1_455
Ba4 O41 2.836455 1_555
Ba5 O42 2.642685 1_555
Ba5 O39 2.800194 1_455
Ba5 O39 2.800200 1_555
Ba5 O41 2.858697 1_465
Ba5 O40 2.858853 1_555
Ba5 O8 2.943275 1_555
Ba5 O11 2.943278 1_455
Ba5 O6 2.943420 1_455
Ba5 O9 2.943420 1_555
Ca0 O0 2.432584 1_555
Ca0 O3 2.432591 1_455
Ca0 O4 2.432681 1_555
Ca0 O1 2.432684 1_555
Ca0 O12 2.604203 1_555
Ca0 O15 2.604209 1_555
Ca0 O16 2.604647 1_555
Ca0 O13 2.604650 1_555
Ca1 O4 2.431224 1_555
Ca1 O1 2.431227 1_655
Ca1 O2 2.452981 1_555
Ca1 O5 2.452987 1_655
Ca1 O14 2.576829 1_555
Ca1 O17 2.576835 1_655
Ca1 O16 2.577719 1_555
Ca1 O13 2.577722 1_655
Ca2 O3 2.432000 1_555
Ca2 O0 2.432003 1_555
Ca2 O5 2.454015 1_565
Ca2 O2 2.454019 1_565
Ca2 O17 2.576368 1_565
Ca2 O14 2.576371 1_565
Ca2 O15 2.576860 1_655
Ca2 O12 2.576863 1_555
Ca3 O9 2.432000 1_555
Ca3 O6 2.432003 1_555
Ca3 O7 2.454009 1_555
Ca3 O10 2.454016 1_655
Ca3 O19 2.576362 1_555
Ca3 O22 2.576368 1_555
Ca3 O21 2.576860 1_555
Ca3 O18 2.576863 1_555
Ca4 O11 2.431224 1_545
Ca4 O8 2.431227 1_545
Ca4 O10 2.452987 1_555
Ca4 O7 2.452990 1_555
Ca4 O22 2.576835 1_455
Ca4 O19 2.576838 1_555
Ca4 O23 2.577719 1_545
Ca4 O20 2.577722 1_545
Ca5 O9 2.432591 1_555
Ca5 O6 2.432594 1_455
Ca5 O8 2.432675 1_555
Ca5 O11 2.432681 1_455
Ca5 O21 2.604209 1_555
Ca5 O18 2.604212 1_455
Ca5 O20 2.604641 1_555
Ca5 O23 2.604647 1_455
Ca6 O12 2.491717 1_555
Ca6 O15 2.491720 1_555
Ca6 O16 2.492446 1_555
Ca6 O13 2.492446 1_555
Ca6 O24 2.546092 1_555
Ca6 O27 2.546095 1_555
Ca6 O28 2.547797 1_555
Ca6 O25 2.547797 1_555
Ca7 O13 2.492862 1_555
Ca7 O16 2.492865 1_455
Ca7 O17 2.496042 1_555
Ca7 O14 2.496042 1_455
Ca7 O29 2.539806 1_555
Ca7 O26 2.539806 1_455
Ca7 O25 2.540701 1_555
Ca7 O28 2.540704 1_455
Ca8 O12 2.493040 1_555
Ca8 O15 2.493040 1_655
Ca8 O17 2.496709 1_565
Ca8 O14 2.496715 1_565
Ca8 O24 2.540813 1_555
Ca8 O27 2.540813 1_655
Ca8 O29 2.542285 1_565
Ca8 O26 2.542291 1_565
Ca9 O21 2.493040 1_555
Ca9 O18 2.493040 1_555
Ca9 O19 2.496706 1_555
Ca9 O22 2.496709 1_555
Ca9 O30 2.540813 1_555
Ca9 O33 2.540813 1_555
Ca9 O31 2.542282 1_555
Ca9 O34 2.542285 1_555
Ca10 O23 2.492865 1_545
Ca10 O20 2.492871 1_545
Ca10 O19 2.496042 1_555
Ca10 O22 2.496042 1_455
Ca10 O31 2.539806 1_555
Ca10 O34 2.539806 1_455
Ca10 O35 2.540704 1_545
Ca10 O32 2.540710 1_545
Ca11 O18 2.491717 1_555
Ca11 O21 2.491720 1_655
Ca11 O20 2.492446 1_655
Ca11 O23 2.492446 1_555
Ca11 O30 2.546092 1_555
Ca11 O33 2.546095 1_655
Ca11 O35 2.547797 1_555
Ca11 O32 2.547797 1_655
Ca12 O24 2.516082 1_555
Ca12 O27 2.516085 1_555
Ca12 O25 2.518283 1_555
Ca12 O28 2.518283 1_555
Ca12 O33 2.518384 1_555
Ca12 O30 2.518384 1_555
Ca12 O31 2.521424 1_555
Ca12 O34 2.521427 1_555
Ca13 O25 2.516670 1_555
Ca13 O35 2.516673 1_545
Ca13 O28 2.516673 1_455
Ca13 O32 2.516679 1_545
Ca13 O26 2.517083 1_455
Ca13 O34 2.517083 1_455
Ca13 O29 2.517083 1_555
Ca13 O31 2.517083 1_555
Ca14 O30 2.516082 1_555
Ca14 O33 2.516085 1_655
Ca14 O32 2.518283 1_655
Ca14 O35 2.518283 1_555
Ca14 O24 2.518384 1_555
Ca14 O27 2.518384 1_655
Ca14 O29 2.521427 1_565
Ca14 O26 2.521433 1_565
Cu0 O15 1.927030 1_555
Cu0 O12 1.927030 1_555
Cu0 O14 1.934046 1_465
Cu0 O17 1.934053 1_565
Cu1 O13 1.936052 1_655
Cu1 O16 1.936052 1_555
Cu1 O15 1.938012 1_655
Cu1 O12 1.938016 1_555
Cu2 O16 1.930280 1_555
Cu2 O13 1.930284 1_555
Cu2 O14 1.942316 1_555
Cu2 O17 1.942316 1_555
Cu3 O23 1.936052 1_555
Cu3 O20 1.936052 1_555
Cu3 O21 1.938012 1_555
Cu3 O18 1.938016 1_555
Cu4 O21 1.927030 1_555
Cu4 O18 1.927030 1_455
Cu4 O22 1.934042 1_455
Cu4 O19 1.934046 1_555
Cu5 O20 1.930284 1_645
Cu5 O23 1.930292 1_545
Cu5 O22 1.942316 1_555
Cu5 O19 1.942316 1_555
Cu6 O27 1.931297 1_555
Cu6 O24 1.931297 1_555
Cu6 O26 1.933725 1_465
Cu6 O29 1.933733 1_565
Cu7 O28 1.933727 1_555
Cu7 O25 1.933727 1_655
Cu7 O27 1.934033 1_655
Cu7 O24 1.934037 1_555
Cu8 O28 1.935048 1_555
Cu8 O25 1.935052 1_555
Cu8 O29 1.939057 1_555
Cu8 O26 1.939057 1_555
Cu9 O35 1.933727 1_555
Cu9 O32 1.933727 1_555
Cu9 O33 1.934033 1_555
Cu9 O30 1.934037 1_555
Cu10 O33 1.931297 1_555
Cu10 O30 1.931297 1_455
Cu10 O34 1.933722 1_455
Cu10 O31 1.933725 1_555
Cu11 O32 1.935052 1_645
Cu11 O35 1.935060 1_545
Cu11 O34 1.939057 1_555
Cu11 O31 1.939057 1_555
Cu12 O0 1.930361 1_555
Cu12 O3 1.930369 1_455
Cu12 O5 1.939605 1_565
Cu12 O2 1.939605 1_465
Cu13 O4 1.937401 1_555
Cu13 O1 1.937405 1_655
Cu13 O0 1.938671 1_555
Cu13 O3 1.938671 1_555
Cu13 O37 2.685581 1_555
Cu14 O4 1.930694 1_555
Cu14 O1 1.930694 1_555
Cu14 O5 1.941411 1_555
Cu14 O2 1.941414 1_555
Cu15 O11 1.937401 1_555
Cu15 O8 1.937405 1_555
Cu15 O6 1.938671 1_555
Cu15 O9 1.938671 1_555
Cu15 O39 2.685581 1_555
Cu16 O9 1.930357 1_555
Cu16 O6 1.930361 1_455
Cu16 O10 1.939605 1_555
Cu16 O7 1.939605 1_555
Cu17 O11 1.930694 1_545
Cu17 O8 1.930694 1_645
Cu17 O7 1.941414 1_555
Cu17 O10 1.941422 1_655
Hg0 O39 2.063502 1_555
Hg0 O37 2.063502 1_554
Hg0 O42 2.739644 1_655
Hg0 O42 2.739644 1_555
Hg1 O38 2.047561 1_554
Hg1 O40 2.053482 1_555
Hg1 O42 2.627697 1_555
Hg2 O41 2.047561 1_465
Hg2 O36 2.053482 1_554
Hg2 O42 2.627689 1_555
