# generated using pymatgen
data_CeMg6Mo
_symmetry_space_group_name_H-M   'P 1'
_cell_length_a   4.76771300
_cell_length_b   6.40887300
_cell_length_c   11.70687000
_cell_angle_alpha   90.00000000
_cell_angle_beta   90.00000000
_cell_angle_gamma   90.00000000
_symmetry_Int_Tables_number   1
_chemical_formula_structural   CeMg6Mo
_chemical_formula_sum   'Ce2 Mg12 Mo2'
_cell_volume   357.71122271
_cell_formula_units_Z   2
loop_
 _symmetry_equiv_pos_site_id
 _symmetry_equiv_pos_as_xyz
  1  'x, y, z'
loop_
 _atom_site_type_symbol
 _atom_site_label
 _atom_site_symmetry_multiplicity
 _atom_site_fract_x
 _atom_site_fract_y
 _atom_site_fract_z
 _atom_site_occupancy
  Ce  Ce0  1  0.00000000  0.50000000  0.29525000  1
  Ce  Ce1  1  0.00000000  0.00000000  0.79525000  1
  Mg  Mg0  1  0.00000000  0.74506300  0.07112500  1
  Mg  Mg1  1  0.00000000  0.25493700  0.07112500  1
  Mg  Mg2  1  0.00000000  0.00000000  0.33527100  1
  Mg  Mg3  1  0.50000000  0.24635400  0.42602800  1
  Mg  Mg4  1  0.50000000  0.75364600  0.42602800  1
  Mg  Mg5  1  0.50000000  0.00000000  0.17461800  1
  Mg  Mg6  1  0.00000000  0.24506300  0.57112500  1
  Mg  Mg7  1  0.00000000  0.75493700  0.57112500  1
  Mg  Mg8  1  0.00000000  0.50000000  0.83527100  1
  Mg  Mg9  1  0.50000000  0.74635400  0.92602800  1
  Mg  Mg10  1  0.50000000  0.25364600  0.92602800  1
  Mg  Mg11  1  0.50000000  0.50000000  0.67461800  1
  Mo  Mo0  1  0.50000000  0.50000000  0.20055500  1
  Mo  Mo1  1  0.50000000  0.00000000  0.70055500  1
loop_
_geom_bond_atom_site_label_1
_geom_bond_atom_site_label_2
_geom_bond_distance
_geom_bond_site_symmetry_2
Ce0 Mo0 2.629016 1_455
Ce0 Mo0 2.629016 1_555
Ce0 Mg1 3.057949 1_555
Ce0 Mg0 3.057949 1_555
Ce0 Mg2 3.238507 1_565
Ce0 Mg2 3.238507 1_555
Ce0 Mg4 3.266384 1_455
Ce0 Mg4 3.266384 1_555
Ce0 Mg3 3.266384 1_555
Ce0 Mg3 3.266384 1_455
Ce0 Mg6 3.619395 1_555
Ce0 Mg7 3.619395 1_555
Ce1 Mo1 2.629016 1_555
Ce1 Mo1 2.629016 1_455
Ce1 Mg6 3.057949 1_555
Ce1 Mg7 3.057949 1_545
Ce1 Mg8 3.238507 1_545
Ce1 Mg8 3.238507 1_555
Ce1 Mg9 3.266384 1_445
Ce1 Mg9 3.266384 1_545
Ce1 Mg10 3.266384 1_455
Ce1 Mg10 3.266384 1_555
Ce1 Mg1 3.619395 1_556
Ce1 Mg0 3.619395 1_546
Mg0 Mg9 2.927147 1_554
Mg0 Mg9 2.927147 1_454
Mg0 Mg5 3.133718 1_565
Mg0 Mg5 3.133718 1_465
Mg0 Mg1 3.141155 1_555
Mg0 Mg8 3.176548 1_554
Mg0 Mo0 3.231931 1_455
Mg0 Mo0 3.231931 1_555
Mg0 Mg1 3.267718 1_565
Mg1 Mg10 2.927147 1_454
Mg1 Mg10 2.927147 1_554
Mg1 Mg5 3.133718 1_455
Mg1 Mg5 3.133718 1_555
Mg1 Mg8 3.176548 1_554
Mg1 Mo0 3.231931 1_455
Mg1 Mo0 3.231931 1_555
Mg2 Mg5 3.036440 1_455
Mg2 Mg5 3.036440 1_555
Mg2 Mg3 3.050313 1_555
Mg2 Mg4 3.050313 1_545
Mg2 Mg3 3.050313 1_455
Mg2 Mg4 3.050313 1_445
Mg2 Mg6 3.176548 1_555
Mg2 Mg7 3.176548 1_545
Mg3 Mg6 2.927147 1_555
Mg3 Mg6 2.927147 1_655
Mg3 Mo0 3.099988 1_555
Mg3 Mg4 3.157703 1_545
Mg3 Mg4 3.251170 1_555
Mg3 Mg5 3.339961 1_555
Mg3 Mo1 3.580728 1_555
Mg4 Mg7 2.927147 1_655
Mg4 Mg7 2.927147 1_555
Mg4 Mo0 3.099988 1_555
Mg4 Mg5 3.339961 1_565
Mg4 Mo1 3.580728 1_565
Mg5 Mo0 3.218790 1_545
Mg5 Mo0 3.218790 1_555
Mg5 Mg9 3.333445 1_544
Mg6 Mg7 3.141155 1_545
Mg6 Mo1 3.231931 1_555
Mg6 Mo1 3.231931 1_455
Mg6 Mg7 3.267718 1_555
Mg7 Mo1 3.231931 1_465
Mg7 Mo1 3.231931 1_565
Mg8 Mg9 3.050313 1_455
Mg8 Mg9 3.050313 1_555
Mg9 Mo1 3.099988 1_565
Mg9 Mo0 3.580728 1_556
Mg10 Mg8 3.050313 1_555
Mg10 Mg8 3.050313 1_655
Mg10 Mo1 3.099988 1_555
Mg10 Mg9 3.157703 1_555
Mg10 Mg9 3.251170 1_545
Mg10 Mg5 3.333445 1_556
Mg10 Mg11 3.339961 1_555
Mg10 Mo0 3.580728 1_556
Mg11 Mg8 3.036440 1_655
Mg11 Mg8 3.036440 1_555
Mg11 Mg6 3.133718 1_655
Mg11 Mg7 3.133718 1_555
Mg11 Mg7 3.133718 1_655
Mg11 Mg6 3.133718 1_555
Mg11 Mo1 3.218790 1_565
Mg11 Mo1 3.218790 1_555
Mg11 Mg3 3.333445 1_555
Mg11 Mg4 3.333445 1_555
Mg11 Mg9 3.339961 1_555
