# generated using pymatgen
data_Nd3(GaNi3)2
_symmetry_space_group_name_H-M   'P 1'
_cell_length_a   7.84691069
_cell_length_b   7.84691069
_cell_length_c   7.84691069
_cell_angle_alpha   109.47122063
_cell_angle_beta   109.47122063
_cell_angle_gamma   109.47122063
_symmetry_Int_Tables_number   1
_chemical_formula_structural   Nd3(GaNi3)2
_chemical_formula_sum   'Nd6 Ga4 Ni12'
_cell_volume   371.94115774
_cell_formula_units_Z   2
loop_
 _symmetry_equiv_pos_site_id
 _symmetry_equiv_pos_as_xyz
  1  'x, y, z'
loop_
 _atom_site_type_symbol
 _atom_site_label
 _atom_site_symmetry_multiplicity
 _atom_site_fract_x
 _atom_site_fract_y
 _atom_site_fract_z
 _atom_site_occupancy
  Nd  Nd0  1  0.71119500  0.71119500  0.00000000  1
  Nd  Nd1  1  0.28880500  0.00000000  0.28880500  1
  Nd  Nd2  1  0.00000000  0.28880500  0.28880500  1
  Nd  Nd3  1  0.28880500  0.28880500  0.00000000  1
  Nd  Nd4  1  0.71119500  0.00000000  0.71119500  1
  Nd  Nd5  1  0.00000000  0.71119500  0.71119500  1
  Ga  Ga0  1  0.00000000  0.00000000  0.50000000  1
  Ga  Ga1  1  0.00000000  0.50000000  0.00000000  1
  Ga  Ga2  1  0.50000000  0.00000000  0.00000000  1
  Ga  Ga3  1  0.50000000  0.50000000  0.50000000  1
  Ni  Ni0  1  0.33737600  0.33737600  0.67475100  1
  Ni  Ni1  1  0.66262400  0.00000000  0.33737600  1
  Ni  Ni2  1  0.00000000  0.66262400  0.33737600  1
  Ni  Ni3  1  0.66262400  0.33737600  0.00000000  1
  Ni  Ni4  1  0.33737600  0.67475100  0.33737600  1
  Ni  Ni5  1  0.00000000  0.33737600  0.66262400  1
  Ni  Ni6  1  0.33737600  0.66262400  0.00000000  1
  Ni  Ni7  1  0.33737600  0.00000000  0.66262400  1
  Ni  Ni8  1  0.67475100  0.33737600  0.33737600  1
  Ni  Ni9  1  0.66262400  0.66262400  0.32524900  1
  Ni  Ni10  1  0.66262400  0.32524900  0.66262400  1
  Ni  Ni11  1  0.32524900  0.66262400  0.66262400  1
loop_
_geom_bond_atom_site_label_1
_geom_bond_atom_site_label_2
_geom_bond_distance
_geom_bond_site_symmetry_2
Nd0 Ni6 2.829193 1_555
Nd0 Ni3 2.829193 1_555
Nd0 Ni0 2.829194 1_554
Nd0 Ni9 2.829200 1_555
Nd0 Ni10 3.088419 1_554
Nd0 Ni11 3.088419 1_554
Nd0 Ni1 3.088424 1_565
Nd0 Ni2 3.088424 1_655
Nd0 Nd4 3.700733 1_564
Nd0 Nd5 3.700733 1_654
Nd0 Nd2 3.700733 1_665
Nd0 Nd1 3.700733 1_665
Nd1 Ni1 2.829193 1_555
Nd1 Ni7 2.829193 1_555
Nd1 Ni10 2.829194 1_555
Nd1 Ni4 2.829200 1_545
Nd1 Ni0 3.088419 1_555
Nd1 Ni8 3.088419 1_555
Nd1 Ni2 3.088424 1_545
Nd1 Ni6 3.088424 1_545
Nd1 Nd5 3.700733 1_544
Nd1 Nd3 3.700733 1_555
Nd1 Nd2 3.700733 1_555
Nd2 Ni2 2.829193 1_555
Nd2 Ni5 2.829193 1_555
Nd2 Ni11 2.829194 1_555
Nd2 Ni8 2.829200 1_455
Nd2 Ni0 3.088419 1_555
Nd2 Ni4 3.088419 1_555
Nd2 Ni1 3.088424 1_455
Nd2 Ni3 3.088424 1_455
Nd2 Nd4 3.700733 1_454
Nd2 Nd3 3.700733 1_555
Nd3 Ni6 2.829193 1_555
Nd3 Ni3 2.829193 1_555
Nd3 Ni9 2.829194 1_555
Nd3 Ni0 2.829200 1_554
Nd3 Ni8 3.088419 1_555
Nd3 Ni4 3.088419 1_555
Nd3 Ni7 3.088424 1_554
Nd3 Ni5 3.088424 1_554
Nd3 Nd5 3.700733 1_544
Nd3 Nd4 3.700733 1_454
Nd4 Ni1 2.829193 1_555
Nd4 Ni7 2.829193 1_555
Nd4 Ni4 2.829194 1_545
Nd4 Ni10 2.829200 1_555
Nd4 Ni9 3.088419 1_545
Nd4 Ni11 3.088419 1_545
Nd4 Ni3 3.088424 1_556
Nd4 Ni5 3.088424 1_655
Nd4 Nd5 3.700733 1_645
Nd5 Ni2 2.829193 1_555
Nd5 Ni5 2.829193 1_555
Nd5 Ni8 2.829194 1_455
Nd5 Ni11 2.829200 1_555
Nd5 Ni9 3.088419 1_455
Nd5 Ni10 3.088419 1_455
Nd5 Ni7 3.088424 1_565
Nd5 Ni6 3.088424 1_556
Ga0 Ni2 2.526805 1_545
Ga0 Ni1 2.526805 1_455
Ga0 Ni7 2.526805 1_555
Ga0 Ni5 2.526805 1_555
Ga0 Ni9 2.526806 1_445
Ga0 Ni0 2.526806 1_555
Ga0 Nd3 3.222726 1_556
Ga0 Nd0 3.222726 1_445
Ga0 Nd1 3.222726 1_555
Ga0 Nd2 3.222726 1_555
Ga0 Nd5 3.222726 1_545
Ga0 Nd4 3.222726 1_455
Ga1 Ni6 2.526805 1_555
Ga1 Ni5 2.526805 1_554
Ga1 Ni3 2.526805 1_455
Ga1 Ni2 2.526805 1_555
Ga1 Ni4 2.526806 1_555
Ga1 Ni10 2.526806 1_454
Ga1 Nd5 3.222726 1_554
Ga1 Nd3 3.222726 1_555
Ga1 Nd4 3.222726 1_454
Ga1 Nd0 3.222726 1_455
Ga1 Nd2 3.222726 1_555
Ga1 Nd1 3.222726 1_565
Ga2 Ni7 2.526805 1_554
Ga2 Ni6 2.526805 1_545
Ga2 Ni3 2.526805 1_555
Ga2 Ni1 2.526805 1_555
Ga2 Ni11 2.526806 1_544
Ga2 Ni8 2.526806 1_555
Ga2 Nd3 3.222726 1_555
Ga2 Nd1 3.222726 1_555
Ga2 Nd5 3.222726 1_544
Ga2 Nd2 3.222726 1_655
Ga2 Nd4 3.222726 1_554
Ga2 Nd0 3.222726 1_545
Ga3 Ni10 2.526798 1_555
Ga3 Ni4 2.526798 1_555
Ga3 Ni8 2.526798 1_555
Ga3 Ni11 2.526798 1_555
Ga3 Ni9 2.526798 1_555
Ga3 Ni0 2.526798 1_555
Ga3 Nd0 3.222726 1_556
Ga3 Nd3 3.222726 1_555
Ga3 Nd5 3.222726 1_655
Ga3 Nd2 3.222726 1_555
Ga3 Nd4 3.222726 1_565
Ga3 Nd1 3.222726 1_555
Ni0 Ni10 2.617170 1_555
Ni0 Ni11 2.617170 1_555
Ni0 Ni5 2.617178 1_555
Ni0 Ni7 2.617178 1_555
Ni0 Ni6 2.947022 1_556
Ni0 Ni3 2.947022 1_556
Ni1 Ni6 2.617175 1_545
Ni1 Ni5 2.617175 1_655
Ni1 Ni8 2.617178 1_555
Ni1 Ni9 2.617178 1_545
Ni1 Ni10 2.947022 1_555
Ni1 Ni4 2.947022 1_545
Ni2 Ni3 2.617175 1_455
Ni2 Ni7 2.617175 1_565
Ni2 Ni9 2.617178 1_455
Ni2 Ni4 2.617178 1_555
Ni2 Ni8 2.947022 1_455
Ni3 Ni7 2.617175 1_554
Ni3 Ni8 2.617178 1_555
Ni3 Ni9 2.947022 1_555
Ni4 Ni9 2.617170 1_555
Ni4 Ni6 2.617178 1_555
Ni4 Ni7 2.947022 1_565
Ni5 Ni6 2.617175 1_556
Ni5 Ni8 2.947022 1_455
Ni6 Ni9 2.947022 1_555
Ni8 Ni9 2.617170 1_555
Ni10 Ni8 2.617170 1_555
Ni10 Ni3 2.617178 1_556
Ni10 Ni5 2.617178 1_655
Ni10 Ni7 2.947022 1_555
Ni11 Ni4 2.617170 1_555
Ni11 Ni7 2.617178 1_565
Ni11 Ni6 2.617178 1_556
Ni11 Ni5 2.947022 1_555
Ni11 Ni2 2.947022 1_555
