# generated using pymatgen
data_Sm7Pt3
_symmetry_space_group_name_H-M   'P 1'
_cell_length_a   6.44387200
_cell_length_b   10.06331292
_cell_length_c   10.06331292
_cell_angle_alpha   119.88321172
_cell_angle_beta   90.00000000
_cell_angle_gamma   90.00000000
_symmetry_Int_Tables_number   1
_chemical_formula_structural   Sm7Pt3
_chemical_formula_sum   'Sm14 Pt6'
_cell_volume   565.80839028
_cell_formula_units_Z   2
loop_
 _symmetry_equiv_pos_site_id
 _symmetry_equiv_pos_as_xyz
  1  'x, y, z'
loop_
 _atom_site_type_symbol
 _atom_site_label
 _atom_site_symmetry_multiplicity
 _atom_site_fract_x
 _atom_site_fract_y
 _atom_site_fract_z
 _atom_site_occupancy
  Sm  Sm0  1  0.45558700  0.33333500  0.66666500  1
  Sm  Sm1  1  0.95558700  0.66666500  0.33333500  1
  Sm  Sm2  1  0.24854300  0.12742800  0.87257200  1
  Sm  Sm3  1  0.24821700  0.74541200  0.87274800  1
  Sm  Sm4  1  0.24821700  0.12725200  0.25458800  1
  Sm  Sm5  1  0.74854300  0.87257200  0.12742800  1
  Sm  Sm6  1  0.74821700  0.25458800  0.12725200  1
  Sm  Sm7  1  0.74821700  0.87274800  0.74541200  1
  Sm  Sm8  1  0.44191200  0.53769100  0.46230900  1
  Sm  Sm9  1  0.44188700  0.92425500  0.46213900  1
  Sm  Sm10  1  0.44188700  0.53786100  0.07574500  1
  Sm  Sm11  1  0.94191200  0.46230900  0.53769100  1
  Sm  Sm12  1  0.94188700  0.07574500  0.53786100  1
  Sm  Sm13  1  0.94188700  0.46213900  0.92425500  1
  Pt  Pt0  1  0.18888600  0.81088500  0.18911500  1
  Pt  Pt1  1  0.18893200  0.37829900  0.18922800  1
  Pt  Pt2  1  0.18893200  0.81077200  0.62170100  1
  Pt  Pt3  1  0.68888600  0.18911500  0.81088500  1
  Pt  Pt4  1  0.68893200  0.62170100  0.81077200  1
  Pt  Pt5  1  0.68893200  0.18922800  0.37829900  1
loop_
_geom_bond_atom_site_label_1
_geom_bond_atom_site_label_2
_geom_bond_distance
_geom_bond_site_symmetry_2
Pt0 Sm9 2.895666 1_555
Pt0 Sm10 2.895666 1_555
Pt0 Sm1 2.927747 1_455
Pt0 Sm3 2.937002 1_554
Pt0 Sm4 2.937002 1_565
Pt0 Sm5 3.034174 1_455
Pt1 Sm10 2.892534 1_555
Pt1 Sm8 2.896541 1_555
Pt1 Sm1 2.931153 1_455
Pt1 Sm4 2.935455 1_555
Pt1 Sm2 2.942639 1_554
Pt1 Sm6 3.038133 1_455
Pt2 Sm9 2.892534 1_555
Pt2 Sm8 2.896541 1_555
Pt2 Sm1 2.931153 1_455
Pt2 Sm3 2.935455 1_555
Pt2 Sm2 2.942639 1_565
Pt2 Sm7 3.038133 1_455
Pt3 Sm13 2.895666 1_555
Pt3 Sm12 2.895666 1_555
Pt3 Sm0 2.927747 1_555
Pt3 Sm7 2.937002 1_545
Pt3 Sm6 2.937002 1_556
Pt3 Sm2 3.034174 1_555
Pt4 Sm13 2.892534 1_555
Pt4 Sm11 2.896541 1_555
Pt4 Sm0 2.931153 1_555
Pt4 Sm7 2.935455 1_555
Pt4 Sm5 2.942639 1_556
Pt4 Sm3 3.038133 1_555
Pt5 Sm12 2.892534 1_555
Pt5 Sm11 2.896541 1_555
Pt5 Sm0 2.931153 1_555
Pt5 Sm6 2.935455 1_555
Pt5 Sm5 2.942639 1_545
Pt5 Sm4 3.038133 1_555
