# generated using pymatgen
data_TiCuHg2
_symmetry_space_group_name_H-M   'P 1'
_cell_length_a   4.66564893
_cell_length_b   4.66564893
_cell_length_c   4.66564893
_cell_angle_alpha   60.00000000
_cell_angle_beta   60.00000000
_cell_angle_gamma   60.00000000
_symmetry_Int_Tables_number   1
_chemical_formula_structural   TiCuHg2
_chemical_formula_sum   'Ti1 Cu1 Hg2'
_cell_volume   71.81599369
_cell_formula_units_Z   1
loop_
 _symmetry_equiv_pos_site_id
 _symmetry_equiv_pos_as_xyz
  1  'x, y, z'
loop_
 _atom_site_type_symbol
 _atom_site_label
 _atom_site_symmetry_multiplicity
 _atom_site_fract_x
 _atom_site_fract_y
 _atom_site_fract_z
 _atom_site_occupancy
  Ti  Ti0  1  0.75000000  0.75000000  0.75000000  1
  Cu  Cu0  1  0.50000000  0.50000000  0.50000000  1
  Hg  Hg0  1  0.00000000  0.00000000  0.00000000  1
  Hg  Hg1  1  0.25000000  0.25000000  0.25000000  1
loop_
_geom_bond_atom_site_label_1
_geom_bond_atom_site_label_2
_geom_bond_distance
_geom_bond_site_symmetry_2
Cu0 Hg1 2.857115 1_556
Cu0 Hg1 2.857115 1_555
Cu0 Ti0 2.857115 1_455
Cu0 Hg1 2.857115 1_655
Cu0 Ti0 2.857115 1_555
Cu0 Hg1 2.857115 1_565
Cu0 Ti0 2.857115 1_554
Cu0 Ti0 2.857115 1_545
Hg0 Hg1 2.857115 1_554
Hg0 Hg1 2.857115 1_555
Hg0 Ti0 2.857115 1_454
Hg0 Ti0 2.857115 1_544
Hg0 Ti0 2.857115 1_444
Hg0 Ti0 2.857115 1_445
Hg0 Hg1 2.857115 1_545
Hg0 Hg1 2.857115 1_455
Hg1 Ti0 3.299112 1_455
Hg1 Ti0 3.299112 1_454
Hg1 Ti0 3.299112 1_544
Hg1 Ti0 3.299112 1_554
Hg1 Ti0 3.299112 1_545
Hg1 Ti0 3.299112 1_445
