# generated using pymatgen
data_Ba2Tl2Zn3(CoO3)4
_symmetry_space_group_name_H-M   'P 1'
_cell_length_a   3.81837131
_cell_length_b   3.81837199
_cell_length_c   21.12073436
_cell_angle_alpha   95.18626879
_cell_angle_beta   95.18626979
_cell_angle_gamma   89.99998999
_symmetry_Int_Tables_number   1
_chemical_formula_structural   Ba2Tl2Zn3(CoO3)4
_chemical_formula_sum   'Ba2 Tl2 Zn3 Co4 O12'
_cell_volume   305.41294866
_cell_formula_units_Z   1
loop_
 _symmetry_equiv_pos_site_id
 _symmetry_equiv_pos_as_xyz
  1  'x, y, z'
loop_
 _atom_site_type_symbol
 _atom_site_label
 _atom_site_symmetry_multiplicity
 _atom_site_fract_x
 _atom_site_fract_y
 _atom_site_fract_z
 _atom_site_occupancy
  Ba  Ba0  1  0.15294200  0.15294200  0.30588400  1
  Ba  Ba1  1  0.84705800  0.84705800  0.69411600  1
  Tl  Tl0  1  0.72209500  0.72209500  0.44419100  1
  Tl  Tl1  1  0.27790500  0.27790500  0.55580900  1
  Zn  Zn0  1  0.07150100  0.07150100  0.14300100  1
  Zn  Zn1  1  0.92849900  0.92849900  0.85699900  1
  Zn  Zn2  1  0.00000000  0.00000000  0.00000000  1
  Co  Co0  1  0.53503800  0.53503800  0.07007500  1
  Co  Co1  1  0.40210300  0.40210300  0.80420700  1
  Co  Co2  1  0.59789700  0.59789700  0.19579300  1
  Co  Co3  1  0.46496200  0.46496200  0.92992500  1
  O  O0  1  0.39708200  0.89708200  0.79416400  1
  O  O1  1  0.53372500  0.03372500  0.06745200  1
  O  O2  1  0.22689400  0.22689400  0.45378900  1
  O  O3  1  0.96627500  0.46627500  0.93254800  1
  O  O4  1  0.77310600  0.77310600  0.54621100  1
  O  O5  1  0.10291800  0.60291800  0.20583600  1
  O  O6  1  0.60291800  0.10291800  0.20583600  1
  O  O7  1  0.32764000  0.32764000  0.65528000  1
  O  O8  1  0.89708200  0.39708200  0.79416400  1
  O  O9  1  0.03372500  0.53372500  0.06745200  1
  O  O10  1  0.46627500  0.96627500  0.93254800  1
  O  O11  1  0.67236000  0.67236000  0.34472000  1
loop_
_geom_bond_atom_site_label_1
_geom_bond_atom_site_label_2
_geom_bond_distance
_geom_bond_site_symmetry_2
Ba0 O11 2.819891 1_545
Ba0 O11 2.819891 1_455
Ba0 O11 2.819892 1_445
Ba0 O11 2.819892 1_555
Ba0 O6 2.834988 1_455
Ba0 O6 2.834988 1_555
Ba0 O5 2.834988 1_555
Ba0 O5 2.834988 1_545
Ba0 O2 3.098232 1_555
Ba1 O7 2.819891 1_565
Ba1 O7 2.819891 1_655
Ba1 O7 2.819892 1_665
Ba1 O7 2.819892 1_555
Ba1 O0 2.834988 1_655
Ba1 O0 2.834988 1_555
Ba1 O8 2.834988 1_555
Ba1 O8 2.834988 1_565
Ba1 O4 3.098232 1_555
Co0 O9 1.909970 1_655
Co0 O1 1.909971 1_565
Co0 O9 1.909982 1_555
Co0 O1 1.909982 1_555
Co1 O8 1.920740 1_455
Co1 O0 1.920740 1_545
Co1 O8 1.920743 1_555
Co1 O0 1.920744 1_555
Co2 O5 1.920740 1_655
Co2 O6 1.920740 1_565
Co2 O5 1.920743 1_555
Co2 O6 1.920744 1_555
Co3 O3 1.909970 1_455
Co3 O10 1.909971 1_545
Co3 O3 1.909982 1_555
Co3 O10 1.909982 1_555
O0 Zn1 2.318933 1_555
O0 Zn1 2.318936 1_455
O1 Zn2 2.375162 1_555
O1 Zn2 2.375168 1_655
O1 Zn0 2.479810 1_555
O1 Zn0 2.479819 1_655
O2 Tl1 2.137058 1_555
O2 Tl0 2.707472 1_455
O2 Tl0 2.707472 1_545
O2 Tl0 2.707472 1_555
O2 Tl0 2.707472 1_445
O3 Zn2 2.375162 1_666
O3 Zn2 2.375168 1_656
O3 Zn1 2.479811 1_555
O3 Zn1 2.479819 1_545
O4 Tl0 2.137058 1_555
O4 Tl1 2.707472 1_655
O4 Tl1 2.707472 1_565
O4 Tl1 2.707472 1_555
O4 Tl1 2.707472 1_665
O5 Zn0 2.318933 1_555
O5 Zn0 2.318937 1_565
O6 Zn0 2.318933 1_555
O6 Zn0 2.318936 1_655
O7 Tl1 2.083663 1_555
O8 Zn1 2.318933 1_555
O8 Zn1 2.318937 1_545
O9 Zn2 2.375162 1_555
O9 Zn2 2.375168 1_565
O9 Zn0 2.479811 1_555
O9 Zn0 2.479819 1_565
O10 Zn2 2.375162 1_666
O10 Zn2 2.375168 1_566
O10 Zn1 2.479810 1_555
O10 Zn1 2.479819 1_455
O11 Tl0 2.083663 1_555
