# generated using pymatgen
data_Nd(GePt)2
_symmetry_space_group_name_H-M   'P 1'
_cell_length_a   4.38765200
_cell_length_b   4.39822300
_cell_length_c   10.09584700
_cell_angle_alpha   90.00000000
_cell_angle_beta   90.00000000
_cell_angle_gamma   90.00000000
_symmetry_Int_Tables_number   1
_chemical_formula_structural   Nd(GePt)2
_chemical_formula_sum   'Nd2 Ge4 Pt4'
_cell_volume   194.82836256
_cell_formula_units_Z   2
loop_
 _symmetry_equiv_pos_site_id
 _symmetry_equiv_pos_as_xyz
  1  'x, y, z'
loop_
 _atom_site_type_symbol
 _atom_site_label
 _atom_site_symmetry_multiplicity
 _atom_site_fract_x
 _atom_site_fract_y
 _atom_site_fract_z
 _atom_site_occupancy
  Nd  Nd0  1  0.25699800  0.00000000  0.74732700  1
  Nd  Nd1  1  0.75699800  0.50000000  0.25267300  1
  Ge  Ge0  1  0.23276800  0.00000000  0.13207300  1
  Ge  Ge1  1  0.73276800  0.50000000  0.86792700  1
  Ge  Ge2  1  0.27527700  0.50000000  0.49952700  1
  Ge  Ge3  1  0.77527700  0.00000000  0.50047300  1
  Pt  Pt0  1  0.27545400  0.00000000  0.37613400  1
  Pt  Pt1  1  0.77545400  0.50000000  0.62386600  1
  Pt  Pt2  1  0.23150300  0.50000000  0.99966800  1
  Pt  Pt3  1  0.73150300  0.00000000  0.00033200  1
loop_
_geom_bond_atom_site_label_1
_geom_bond_atom_site_label_2
_geom_bond_distance
_geom_bond_site_symmetry_2
Nd0 Pt1 3.294516 1_445
Nd0 Pt1 3.294516 1_455
Nd0 Pt3 3.295302 1_556
Nd0 Pt2 3.367321 1_555
Nd0 Pt2 3.367321 1_545
Nd0 Pt1 3.400654 1_555
Nd0 Pt1 3.400654 1_545
Nd0 Pt3 3.441025 1_456
Nd1 Pt0 3.294516 1_555
Nd1 Pt0 3.294516 1_565
Nd1 Pt2 3.295302 1_654
Nd1 Pt3 3.367321 1_555
Nd1 Pt3 3.367321 1_565
Nd1 Pt0 3.400654 1_655
Nd1 Pt0 3.400654 1_665
Nd1 Pt2 3.441025 1_554
Ge0 Pt0 2.471110 1_555
Ge0 Pt3 2.560771 1_555
Ge0 Pt3 2.570264 1_455
Ge0 Pt2 2.573519 1_554
Ge0 Pt2 2.573519 1_544
Ge0 Nd1 3.267454 1_455
Ge0 Nd1 3.267454 1_445
Ge0 Nd1 3.407225 1_555
Ge0 Nd1 3.407225 1_545
Ge1 Pt1 2.471110 1_555
Ge1 Pt2 2.560771 1_655
Ge1 Pt2 2.570264 1_555
Ge1 Pt3 2.573519 1_566
Ge1 Pt3 2.573519 1_556
Ge1 Nd0 3.267454 1_555
Ge1 Nd0 3.267454 1_565
Ge1 Nd0 3.407225 1_665
Ge1 Nd0 3.407225 1_655
Ge2 Pt1 2.526908 1_455
Ge2 Pt0 2.527450 1_555
Ge2 Pt0 2.527450 1_565
Ge2 Pt1 2.528256 1_555
Ge2 Nd1 3.267793 1_555
Ge2 Nd0 3.331859 1_555
Ge2 Nd0 3.331859 1_565
Ge2 Nd1 3.373761 1_455
Ge3 Pt0 2.526908 1_555
Ge3 Pt1 2.527450 1_555
Ge3 Pt1 2.527450 1_545
Ge3 Pt0 2.528256 1_655
Ge3 Nd0 3.267793 1_655
Ge3 Nd1 3.331859 1_555
Ge3 Nd1 3.331859 1_545
Ge3 Nd0 3.373761 1_555
