# generated using pymatgen
data_KInH8(CO3)4
_symmetry_space_group_name_H-M   'P 1'
_cell_length_a   9.16126167
_cell_length_b   9.16126167
_cell_length_c   9.16126167
_cell_angle_alpha   103.92240499
_cell_angle_beta   103.92240499
_cell_angle_gamma   121.25077167
_symmetry_Int_Tables_number   1
_chemical_formula_structural   KInH8(CO3)4
_chemical_formula_sum   'K2 In2 H16 C8 O24'
_cell_volume   572.81816316
_cell_formula_units_Z   2
loop_
 _symmetry_equiv_pos_site_id
 _symmetry_equiv_pos_as_xyz
  1  'x, y, z'
loop_
 _atom_site_type_symbol
 _atom_site_label
 _atom_site_symmetry_multiplicity
 _atom_site_fract_x
 _atom_site_fract_y
 _atom_site_fract_z
 _atom_site_occupancy
  K  K0  1  0.50000000  0.50000000  0.00000000  1
  K  K1  1  0.75000000  0.25000000  0.50000000  1
  In  In0  1  0.00000000  0.00000000  0.00000000  1
  In  In1  1  0.25000000  0.75000000  0.50000000  1
  H  H0  1  0.11526700  0.19489100  0.58305100  1
  H  H1  1  0.61184000  0.53221600  0.41694900  1
  H  H2  1  0.78221600  0.86526700  0.42037600  1
  H  H3  1  0.44489100  0.36184000  0.57962400  1
  H  H4  1  0.13473300  0.55510900  0.91694900  1
  H  H5  1  0.63816000  0.21778400  0.08305100  1
  H  H6  1  0.46778400  0.88473300  0.07962400  1
  H  H7  1  0.80510900  0.38816000  0.92037600  1
  H  H8  1  0.84466900  0.99242900  0.32501500  1
  H  H9  1  0.66741400  0.51965400  0.67498500  1
  H  H10  1  0.76965400  0.59466900  0.35224000  1
  H  H11  1  0.24242900  0.41741400  0.64776000  1
  H  H12  1  0.40533100  0.75757100  0.17498500  1
  H  H13  1  0.58258600  0.23034600  0.82501500  1
  H  H14  1  0.48034600  0.15533100  0.14776000  1
  H  H15  1  0.00757100  0.33258600  0.85224000  1
  C  C0  1  0.02173900  0.79714000  0.22968900  1
  C  C1  1  0.56745100  0.79205000  0.77031100  1
  C  C2  1  0.04205000  0.77173900  0.72459900  1
  C  C3  1  0.04714000  0.31745100  0.27540100  1
  C  C4  1  0.22826100  0.95286000  0.27031100  1
  C  C5  1  0.68254900  0.95795000  0.72968900  1
  C  C6  1  0.20795000  0.97826100  0.77540100  1
  C  C7  1  0.20286000  0.43254900  0.22459900  1
  O  O0  1  0.89366700  0.78467400  0.12413000  1
  O  O1  1  0.66054400  0.76953600  0.87587000  1
  O  O2  1  0.01953600  0.64366700  0.60899200  1
  O  O3  1  0.03467400  0.41054400  0.39100800  1
  O  O4  1  0.35633300  0.96532600  0.37586900  1
  O  O5  1  0.58945600  0.98046400  0.62413000  1
  O  O6  1  0.23046400  0.10633300  0.89100800  1
  O  O7  1  0.21532600  0.33945600  0.10899200  1
  O  O8  1  0.99533900  0.69285800  0.30611200  1
  O  O9  1  0.38674500  0.68922700  0.69388800  1
  O  O10  1  0.93922700  0.74533900  0.80248100  1
  O  O11  1  0.94285800  0.13674500  0.19751900  1
  O  O12  1  0.25466100  0.05714200  0.19388800  1
  O  O13  1  0.86325500  0.06077300  0.80611200  1
  O  O14  1  0.31077300  0.00466100  0.69751900  1
  O  O15  1  0.30714200  0.61325500  0.30248100  1
  O  O16  1  0.24801600  0.31286500  0.64583400  1
  O  O17  1  0.66703100  0.60218200  0.35416600  1
  O  O18  1  0.85218200  0.99801600  0.43515000  1
  O  O19  1  0.56286500  0.41703100  0.56485000  1
  O  O20  1  0.00198400  0.43713500  0.85416600  1
  O  O21  1  0.58296900  0.14781800  0.14583400  1
  O  O22  1  0.39781800  0.75198400  0.06485000  1
  O  O23  1  0.68713500  0.33296900  0.93515000  1
loop_
_geom_bond_atom_site_label_1
_geom_bond_atom_site_label_2
_geom_bond_distance
_geom_bond_site_symmetry_2
K0 O7 2.818101 1_555
K0 O1 2.818101 1_554
K0 O0 2.818107 1_555
K0 O6 2.818108 1_554
K0 O17 2.899699 1_555
K0 O16 2.899699 1_554
K0 O22 2.899700 1_555
K0 O23 2.899701 1_554
K1 O3 2.818101 1_655
K1 O5 2.818101 1_545
K1 O4 2.818106 1_545
K1 O2 2.818108 1_655
K1 O20 2.899699 1_655
K1 O21 2.899699 1_555
K1 O18 2.899700 1_545
K1 O19 2.899701 1_555
In0 O13 2.272277 1_454
In0 O11 2.272277 1_455
In0 O12 2.272282 1_555
In0 O10 2.272282 1_444
In0 O0 2.398388 1_445
In0 O6 2.398389 1_554
In0 O1 2.398389 1_444
In0 O7 2.398389 1_555
In1 O9 2.272277 1_555
In1 O15 2.272277 1_555
In1 O8 2.272282 1_455
In1 O14 2.272282 1_565
In1 O2 2.398389 1_555
In1 O5 2.398389 1_555
In1 O3 2.398389 1_555
In1 O4 2.398395 1_555
H0 O16 0.989148 1_555
H1 O17 0.989148 1_555
H2 O18 0.989151 1_555
H3 O19 0.989144 1_555
H4 O20 0.989148 1_555
H5 O21 0.989148 1_555
H6 O22 0.989151 1_555
H7 O23 0.989144 1_555
H8 O18 0.981562 1_555
H9 O19 0.981566 1_555
H10 O17 0.981571 1_555
H11 O16 0.981571 1_555
H12 O22 0.981562 1_555
H13 O23 0.981566 1_555
H14 O21 0.981571 1_555
H15 O20 0.981571 1_555
C0 O0 1.259637 1_455
C0 O8 1.274754 1_455
C1 O1 1.259644 1_555
C1 O9 1.274761 1_555
C2 O2 1.259638 1_555
C2 O10 1.274754 1_455
C3 O3 1.259644 1_555
C3 O11 1.274761 1_455
C4 O4 1.259632 1_555
C4 O12 1.274754 1_565
C5 O5 1.259644 1_555
C5 O13 1.274761 1_565
C6 O6 1.259638 1_565
C6 O14 1.274754 1_565
C7 O7 1.259644 1_555
C7 O15 1.274761 1_555
