# generated using pymatgen
data_Ba(AlGa)2
_symmetry_space_group_name_H-M   'P 1'
_cell_length_a   6.40732936
_cell_length_b   6.40732936
_cell_length_c   6.40732936
_cell_angle_alpha   138.86659994
_cell_angle_beta   138.86659994
_cell_angle_gamma   59.57831905
_symmetry_Int_Tables_number   1
_chemical_formula_structural   Ba(AlGa)2
_chemical_formula_sum   'Ba1 Al2 Ga2'
_cell_volume   112.69140715
_cell_formula_units_Z   1
loop_
 _symmetry_equiv_pos_site_id
 _symmetry_equiv_pos_as_xyz
  1  'x, y, z'
loop_
 _atom_site_type_symbol
 _atom_site_label
 _atom_site_symmetry_multiplicity
 _atom_site_fract_x
 _atom_site_fract_y
 _atom_site_fract_z
 _atom_site_occupancy
  Ba  Ba0  1  -0.00000000  -0.00000000  -0.00000000  1
  Al  Al0  1  0.75000000  0.25000000  0.50000000  1
  Al  Al1  1  0.25000000  0.75000000  0.50000000  1
  Ga  Ga0  1  0.37970628  0.37970628  0.00000000  1
  Ga  Ga1  1  0.62029372  0.62029372  -0.00000000  1
loop_
_geom_bond_atom_site_label_1
_geom_bond_atom_site_label_2
_geom_bond_distance
_geom_bond_site_symmetry_2
Ba0 Ga0 3.452925 1_444
Ba0 Ga1 3.452925 1_444
Ba0 Ga0 3.452925 1_455
Ba0 Ga0 3.452925 1_556
Ba0 Ga1 3.452925 1_556
Ba0 Ga1 3.452925 1_455
Ba0 Ga1 3.452925 1_545
Ba0 Ga0 3.452925 1_545
Al0 Ga1 2.673440 1_556
Al0 Ga0 2.673440 1_656
Al0 Ga1 2.673440 1_545
Al0 Ga0 2.673440 1_555
Al0 Ba0 3.577247 1_656
Al0 Ba0 3.577247 1_655
Al0 Ba0 3.577247 1_666
Al0 Ba0 3.577247 1_555
Al1 Ga1 2.673440 1_556
Al1 Ga1 2.673440 1_455
Al1 Ga0 2.673440 1_555
Al1 Ga0 2.673440 1_566
Al1 Ba0 3.577247 1_555
Al1 Ba0 3.577247 1_566
Al1 Ba0 3.577247 1_565
Al1 Ba0 3.577247 1_666
Ga0 Ga1 2.675651 1_555
