# generated using pymatgen
data_PrMn2SiGe
_symmetry_space_group_name_H-M   'P 1'
_cell_length_a   6.10745362
_cell_length_b   6.10745362
_cell_length_c   6.10745362
_cell_angle_alpha   141.84620372
_cell_angle_beta   141.84620372
_cell_angle_gamma   55.06053504
_symmetry_Int_Tables_number   1
_chemical_formula_structural   PrMn2SiGe
_chemical_formula_sum   'Pr1 Mn2 Si1 Ge1'
_cell_volume   86.32011608
_cell_formula_units_Z   1
loop_
 _symmetry_equiv_pos_site_id
 _symmetry_equiv_pos_as_xyz
  1  'x, y, z'
loop_
 _atom_site_type_symbol
 _atom_site_label
 _atom_site_symmetry_multiplicity
 _atom_site_fract_x
 _atom_site_fract_y
 _atom_site_fract_z
 _atom_site_occupancy
  Pr  Pr0  1  0.99818700  0.99818700  0.00000000  1
  Mn  Mn0  1  0.75376000  0.25376000  0.50000000  1
  Mn  Mn1  1  0.25376000  0.75376000  0.50000000  1
  Si  Si0  1  0.37247200  0.37247200  0.00000000  1
  Ge  Ge0  1  0.62182000  0.62182000  0.00000000  1
loop_
_geom_bond_atom_site_label_1
_geom_bond_atom_site_label_2
_geom_bond_distance
_geom_bond_site_symmetry_2
Pr0 Si0 3.134235 1_554
Pr0 Si0 3.134235 1_655
Pr0 Si0 3.134235 1_565
Pr0 Si0 3.134235 1_666
Mn0 Si0 2.374451 1_656
Mn0 Si0 2.374451 1_555
Mn0 Pr0 3.315758 1_545
Mn0 Pr0 3.315758 1_556
Mn0 Pr0 3.412933 1_445
Mn0 Pr0 3.412933 1_546
Mn1 Si0 2.374451 1_566
Mn1 Si0 2.374451 1_555
Mn1 Pr0 3.315758 1_455
Mn1 Pr0 3.315758 1_556
Mn1 Pr0 3.412933 1_456
Mn1 Pr0 3.412933 1_445
Ge0 Mn1 2.455001 1_655
Ge0 Mn0 2.455001 1_565
Ge0 Mn1 2.455001 1_554
Ge0 Mn0 2.455001 1_554
Ge0 Si0 2.700881 1_555
Ge0 Pr0 3.124503 1_444
Ge0 Pr0 3.124503 1_545
Ge0 Pr0 3.124503 1_455
Ge0 Pr0 3.124503 1_556
