# generated using pymatgen
data_Sm(SiPt)2
_symmetry_space_group_name_H-M   'P 1'
_cell_length_a   4.21017390
_cell_length_b   4.21017390
_cell_length_c   9.86681392
_cell_angle_alpha   90.00000000
_cell_angle_beta   90.00000000
_cell_angle_gamma   90.00000000
_symmetry_Int_Tables_number   1
_chemical_formula_structural   Sm(SiPt)2
_chemical_formula_sum   'Sm2 Si4 Pt4'
_cell_volume   174.89484426
_cell_formula_units_Z   2
loop_
 _symmetry_equiv_pos_site_id
 _symmetry_equiv_pos_as_xyz
  1  'x, y, z'
loop_
 _atom_site_type_symbol
 _atom_site_label
 _atom_site_symmetry_multiplicity
 _atom_site_fract_x
 _atom_site_fract_y
 _atom_site_fract_z
 _atom_site_occupancy
  Sm  Sm0  1  0.75000000  0.75000000  0.74448788  1
  Sm  Sm1  1  0.25000000  0.25000000  0.25551212  1
  Si  Si0  1  0.75000000  0.75000000  0.13311032  1
  Si  Si1  1  0.25000000  0.75000000  0.50000000  1
  Si  Si2  1  0.25000000  0.25000000  0.86688968  1
  Si  Si3  1  0.75000000  0.25000000  0.50000000  1
  Pt  Pt0  1  0.25000000  0.25000000  0.62239022  1
  Pt  Pt1  1  0.75000000  0.25000000  -0.00000000  1
  Pt  Pt2  1  0.25000000  0.75000000  0.00000000  1
  Pt  Pt3  1  0.75000000  0.75000000  0.37760978  1
loop_
_geom_bond_atom_site_label_1
_geom_bond_atom_site_label_2
_geom_bond_distance
_geom_bond_site_symmetry_2
Si0 Sm1 3.212687 1_565
Si0 Sm1 3.212687 1_655
Si0 Sm1 3.212687 1_665
Si0 Sm1 3.212687 1_555
Si1 Sm1 3.201665 1_565
Si1 Sm1 3.201665 1_555
Si1 Sm0 3.201665 1_455
Si1 Sm0 3.201665 1_555
Si2 Sm0 3.212687 1_445
Si2 Sm0 3.212687 1_545
Si2 Sm0 3.212687 1_455
Si2 Sm0 3.212687 1_555
Si3 Sm0 3.201665 1_545
Si3 Sm1 3.201665 1_655
Si3 Sm1 3.201665 1_555
Si3 Sm0 3.201665 1_555
Pt0 Si2 2.412431 1_555
Pt0 Si1 2.426869 1_545
Pt0 Si3 2.426869 1_455
Pt0 Si3 2.426869 1_555
Pt0 Si1 2.426869 1_555
Pt0 Sm0 3.211560 1_455
Pt0 Sm0 3.211560 1_555
Pt0 Sm0 3.211560 1_445
Pt0 Sm0 3.211560 1_545
Pt1 Si0 2.481198 1_555
Pt1 Si2 2.481198 1_654
Pt1 Si0 2.481198 1_545
Pt1 Si2 2.481198 1_554
Pt1 Sm1 3.284401 1_655
Pt1 Sm0 3.284401 1_554
Pt1 Sm1 3.284401 1_555
Pt1 Sm0 3.284401 1_544
Pt2 Si2 2.481198 1_564
Pt2 Si0 2.481198 1_555
Pt2 Si2 2.481198 1_554
Pt2 Si0 2.481198 1_455
Pt2 Sm0 3.284401 1_554
Pt2 Sm1 3.284401 1_555
Pt2 Sm0 3.284401 1_454
Pt2 Sm1 3.284401 1_565
Pt3 Si0 2.412431 1_555
Pt3 Si1 2.426869 1_655
Pt3 Si3 2.426869 1_565
Pt3 Si3 2.426869 1_555
Pt3 Si1 2.426869 1_555
Pt3 Sm1 3.211560 1_665
Pt3 Sm1 3.211560 1_555
Pt3 Sm1 3.211560 1_565
Pt3 Sm1 3.211560 1_655
