# generated using pymatgen
data_Rb2U(SeO6)2
_symmetry_space_group_name_H-M   'P 1'
_cell_length_a   7.71988900
_cell_length_b   11.87136000
_cell_length_c   13.97653600
_cell_angle_alpha   90.00000000
_cell_angle_beta   90.00000000
_cell_angle_gamma   90.00000000
_symmetry_Int_Tables_number   1
_chemical_formula_structural   Rb2U(SeO6)2
_chemical_formula_sum   'Rb8 U4 Se8 O48'
_cell_volume   1280.88776878
_cell_formula_units_Z   4
loop_
 _symmetry_equiv_pos_site_id
 _symmetry_equiv_pos_as_xyz
  1  'x, y, z'
loop_
 _atom_site_type_symbol
 _atom_site_label
 _atom_site_symmetry_multiplicity
 _atom_site_fract_x
 _atom_site_fract_y
 _atom_site_fract_z
 _atom_site_occupancy
  Rb  Rb0  1  0.25972600  0.38056700  0.97379400  1
  Rb  Rb1  1  0.75972600  0.61943300  0.02620600  1
  Rb  Rb2  1  0.75972600  0.88056700  0.52620600  1
  Rb  Rb3  1  0.25972600  0.11943300  0.47379400  1
  Rb  Rb4  1  0.79425000  0.35242600  0.55333000  1
  Rb  Rb5  1  0.29425000  0.64757400  0.44667000  1
  Rb  Rb6  1  0.29425000  0.85242600  0.94667000  1
  Rb  Rb7  1  0.79425000  0.14757400  0.05333000  1
  U  U0  1  0.09869000  0.59712300  0.74967400  1
  U  U1  1  0.59869000  0.40287700  0.25032600  1
  U  U2  1  0.59869000  0.09712300  0.75032600  1
  U  U3  1  0.09869000  0.90287700  0.24967400  1
  Se  Se0  1  0.76269200  0.38717500  0.83255200  1
  Se  Se1  1  0.26269200  0.61282500  0.16744800  1
  Se  Se2  1  0.26269200  0.88717500  0.66744800  1
  Se  Se3  1  0.76269200  0.11282500  0.33255200  1
  Se  Se4  1  0.26912100  0.30919500  0.68867200  1
  Se  Se5  1  0.76912100  0.69080500  0.31132800  1
  Se  Se6  1  0.76912100  0.80919500  0.81132800  1
  Se  Se7  1  0.26912100  0.19080500  0.18867200  1
  O  O0  1  0.09509900  0.60754000  0.87977900  1
  O  O1  1  0.59509900  0.39246000  0.12022100  1
  O  O2  1  0.59509900  0.10754000  0.62022100  1
  O  O3  1  0.09509900  0.89246000  0.37977900  1
  O  O4  1  0.10377900  0.58367100  0.61960200  1
  O  O5  1  0.60377900  0.41632900  0.38039800  1
  O  O6  1  0.60377900  0.08367100  0.88039800  1
  O  O7  1  0.10377900  0.91632900  0.11960100  1
  O  O8  1  0.09417900  0.25193200  0.63948100  1
  O  O9  1  0.59417900  0.74806800  0.36051900  1
  O  O10  1  0.59417900  0.75193200  0.86051900  1
  O  O11  1  0.09417900  0.24806800  0.13948100  1
  O  O12  1  0.58156100  0.44248800  0.87517100  1
  O  O13  1  0.08156100  0.55751200  0.12482900  1
  O  O14  1  0.08156100  0.94248800  0.62482900  1
  O  O15  1  0.58156100  0.05751200  0.37517100  1
  O  O16  1  0.72100300  0.27538500  0.75905900  1
  O  O17  1  0.22100300  0.72461500  0.24094100  1
  O  O18  1  0.22100300  0.77538500  0.74094100  1
  O  O19  1  0.72100300  0.22461500  0.25905900  1
  O  O20  1  0.85621500  0.47822300  0.75478800  1
  O  O21  1  0.35621500  0.52177700  0.24521200  1
  O  O22  1  0.35621500  0.97822300  0.74521200  1
  O  O23  1  0.85621500  0.02177700  0.25478800  1
  O  O24  1  0.21395200  0.41768600  0.76281100  1
  O  O25  1  0.71395200  0.58231400  0.23718900  1
  O  O26  1  0.71395200  0.91768600  0.73718900  1
  O  O27  1  0.21395200  0.08231400  0.26281100  1
  O  O28  1  0.42166500  0.59628300  0.75741000  1
  O  O29  1  0.92166500  0.40371700  0.24259000  1
  O  O30  1  0.92166500  0.09628300  0.74259000  1
  O  O31  1  0.42166500  0.90371700  0.25741000  1
  O  O32  1  0.35950600  0.21827300  0.76784100  1
  O  O33  1  0.85950600  0.78172700  0.23215900  1
  O  O34  1  0.85950600  0.71827300  0.73215900  1
  O  O35  1  0.35950600  0.28172700  0.26784100  1
  O  O36  1  0.89477200  0.34862600  0.91946400  1
  O  O37  1  0.39477200  0.65137400  0.08053600  1
  O  O38  1  0.39477200  0.84862600  0.58053600  1
  O  O39  1  0.89477200  0.15137400  0.41946400  1
  O  O40  1  0.40566600  0.35103500  0.60494800  1
  O  O41  1  0.90566600  0.64896500  0.39505200  1
  O  O42  1  0.90566600  0.85103500  0.89505200  1
  O  O43  1  0.40566600  0.14896500  0.10494800  1
  O  O44  1  0.64228600  0.58918000  0.56422300  1
  O  O45  1  0.14228600  0.41082000  0.43577700  1
  O  O46  1  0.14228600  0.08918000  0.93577700  1
  O  O47  1  0.64228600  0.91082000  0.06422300  1
loop_
_geom_bond_atom_site_label_1
_geom_bond_atom_site_label_2
_geom_bond_distance
_geom_bond_site_symmetry_2
O0 U0 1.822828 1_555
O0 Rb0 3.256073 1_555
O0 Rb1 3.303242 1_456
O0 Rb6 3.418936 1_555
O1 U1 1.822828 1_555
O1 Rb1 3.256073 1_555
O1 Rb0 3.303242 1_554
O1 Rb7 3.418936 1_555
O2 U2 1.822828 1_555
O2 Rb2 3.256073 1_545
O2 Rb3 3.303242 1_555
O2 Rb4 3.418936 1_555
O3 U3 1.822828 1_555
O3 Rb3 3.256073 1_565
O3 Rb2 3.303242 1_455
O3 Rb5 3.418936 1_555
O4 U0 1.825379 1_555
O4 Rb5 2.929072 1_555
O5 U1 1.825379 1_555
O5 Rb4 2.929072 1_555
O6 U2 1.825379 1_555
O6 Rb7 2.929072 1_556
O7 U3 1.825393 1_555
O7 Rb6 2.929060 1_554
O8 Se4 1.660944 1_555
O8 Rb4 2.869539 1_455
O8 Rb3 3.077345 1_555
O9 Se5 1.660944 1_555
O9 Rb5 2.869539 1_555
O9 Rb2 3.077345 1_555
O10 Se6 1.660944 1_555
O10 Rb6 2.869539 1_555
O10 Rb1 3.077345 1_556
O11 Se7 1.660944 1_555
O11 Rb7 2.869539 1_455
O11 Rb0 3.077345 1_554
O12 Se0 1.655678 1_555
O12 Rb0 2.934834 1_555
O12 Rb1 3.280287 1_556
O13 Se1 1.655678 1_555
O13 Rb1 2.934834 1_455
O13 Rb0 3.280287 1_554
O14 Se2 1.655678 1_555
O14 Rb2 2.934834 1_455
O14 Rb3 3.280287 1_565
O15 Se3 1.655678 1_555
O15 Rb3 2.934834 1_555
O15 Rb2 3.280287 1_545
O16 Se0 1.708761 1_555
O16 U2 2.320527 1_555
O16 Rb4 3.069854 1_555
O17 Se1 1.708761 1_555
O17 U3 2.320527 1_555
O17 Rb5 3.069854 1_555
O18 Se2 1.708761 1_555
O18 U0 2.320527 1_555
O18 Rb6 3.069854 1_555
O19 Se3 1.708761 1_555
O19 U1 2.320527 1_555
O19 Rb7 3.069854 1_555
O20 Se0 1.694350 1_555
O20 U0 2.345504 1_655
O20 Rb4 3.222903 1_555
O21 Se1 1.694350 1_555
O21 U1 2.345504 1_555
O21 Rb5 3.222903 1_555
O22 Se2 1.694350 1_555
O22 U2 2.345504 1_565
O22 Rb6 3.222903 1_555
O23 Se3 1.694350 1_555
O23 U3 2.345504 1_645
O23 Rb7 3.222903 1_555
O24 Se4 1.707013 1_555
O24 U0 2.315828 1_555
O24 Rb0 3.002421 1_555
O25 Se5 1.707013 1_555
O25 U1 2.315828 1_555
O25 Rb1 3.002421 1_555
O26 Se6 1.707013 1_555
O26 U2 2.315828 1_565
O26 Rb2 3.002421 1_555
O27 Se7 1.707013 1_555
O27 U3 2.315828 1_545
O27 Rb3 3.002421 1_555
O28 U0 2.495694 1_555
O29 U1 2.495694 1_555
O30 U2 2.495694 1_555
O31 U3 2.495694 1_555
O32 Se4 1.695956 1_555
O32 U2 2.353265 1_555
O33 Se5 1.695956 1_555
O33 U3 2.353265 1_655
O34 Se6 1.695956 1_555
O34 U0 2.353265 1_655
O35 Se7 1.695956 1_555
O35 U1 2.353265 1_555
O36 Se0 1.650655 1_555
O36 Rb0 2.942474 1_655
O36 Rb7 3.130401 1_556
O37 Se1 1.650655 1_555
O37 Rb1 2.942474 1_555
O37 Rb6 3.130401 1_554
O38 Se2 1.650655 1_555
O38 Rb2 2.942474 1_555
O38 Rb5 3.130401 1_555
O39 Se3 1.650655 1_555
O39 Rb3 2.942474 1_655
O39 Rb4 3.130401 1_555
O40 Se4 1.651412 1_555
O40 Rb4 3.085401 1_555
O41 Se5 1.651412 1_555
O41 Rb5 3.085401 1_655
O42 Se6 1.651412 1_555
O42 Rb6 3.085401 1_655
O43 Se7 1.651412 1_555
O43 Rb7 3.085401 1_555
O44 Rb4 3.049406 1_555
O44 Rb5 3.224722 1_555
O45 Rb5 3.049406 1_555
O45 Rb4 3.224722 1_455
O46 Rb6 3.049406 1_545
O46 Rb7 3.224722 1_456
O47 Rb7 3.049406 1_565
O47 Rb6 3.224722 1_554
