# generated using pymatgen
data_NaSrPb2
_symmetry_space_group_name_H-M   'P 1'
_cell_length_a   12.72521725
_cell_length_b   13.55329269
_cell_length_c   13.55329272
_cell_angle_alpha   61.66241620
_cell_angle_beta   62.00132573
_cell_angle_gamma   62.00132570
_symmetry_Int_Tables_number   1
_chemical_formula_structural   NaSrPb2
_chemical_formula_sum   'Na1 Sr1 Pb2'
_cell_volume   1722.70675759
_cell_formula_units_Z   1
loop_
 _symmetry_equiv_pos_site_id
 _symmetry_equiv_pos_as_xyz
  1  'x, y, z'
loop_
 _atom_site_type_symbol
 _atom_site_label
 _atom_site_symmetry_multiplicity
 _atom_site_fract_x
 _atom_site_fract_y
 _atom_site_fract_z
 _atom_site_occupancy
  Na  Na0  1  0.00000000  0.00000000  0.00000000  1
  Sr  Sr0  1  0.50000000  0.00000000  0.00000000  1
  Pb  Pb0  1  0.75271238  -0.00000000  0.00000000  1
  Pb  Pb1  1  0.24728762  0.00000000  -0.00000000  1
loop_
_geom_bond_atom_site_label_1
_geom_bond_atom_site_label_2
_geom_bond_distance
_geom_bond_site_symmetry_2
Na0 Pb0 3.146789 1_455
Na0 Pb1 3.146789 1_555
Pb0 Sr0 3.215820 1_555
Pb1 Sr0 3.215820 1_555
