# generated using pymatgen
data_HfMg14Si
_symmetry_space_group_name_H-M   'P 1'
_cell_length_a   6.27388821
_cell_length_b   6.27388771
_cell_length_c   10.21376133
_cell_angle_alpha   90.00000000
_cell_angle_beta   90.00000000
_cell_angle_gamma   120.00000256
_symmetry_Int_Tables_number   1
_chemical_formula_structural   HfMg14Si
_chemical_formula_sum   'Hf1 Mg14 Si1'
_cell_volume   348.16879423
_cell_formula_units_Z   1
loop_
 _symmetry_equiv_pos_site_id
 _symmetry_equiv_pos_as_xyz
  1  'x, y, z'
loop_
 _atom_site_type_symbol
 _atom_site_label
 _atom_site_symmetry_multiplicity
 _atom_site_fract_x
 _atom_site_fract_y
 _atom_site_fract_z
 _atom_site_occupancy
  Hf  Hf0  1  0.16666700  0.33333300  0.62500000  1
  Mg  Mg0  1  0.16449437  0.83224668  0.12500000  1
  Mg  Mg1  1  0.17136054  0.83567977  0.62500000  1
  Mg  Mg2  1  0.66775332  0.33550563  0.12500000  1
  Mg  Mg3  1  0.66432023  0.32863946  0.62500000  1
  Mg  Mg4  1  0.66775332  0.83224668  0.12500000  1
  Mg  Mg5  1  0.66432023  0.83567977  0.62500000  1
  Mg  Mg6  1  0.32812044  0.17187956  0.37339051  1
  Mg  Mg7  1  0.32812044  0.17187956  0.87660949  1
  Mg  Mg8  1  0.32812044  0.65624188  0.37339051  1
  Mg  Mg9  1  0.32812044  0.65624188  0.87660949  1
  Mg  Mg10  1  0.84375812  0.17187956  0.37339051  1
  Mg  Mg11  1  0.84375812  0.17187956  0.87660949  1
  Mg  Mg12  1  0.83333300  0.66666700  0.38067867  1
  Mg  Mg13  1  0.83333300  0.66666700  0.86932133  1
  Si  Si0  1  0.16666700  0.33333300  0.12500000  1
loop_
_geom_bond_atom_site_label_1
_geom_bond_atom_site_label_2
_geom_bond_distance
_geom_bond_site_symmetry_2
Hf0 Mg6 3.111660 1_555
Hf0 Mg7 3.111660 1_555
Hf0 Mg8 3.111666 1_555
Hf0 Mg9 3.111666 1_555
Hf0 Mg10 3.111666 1_455
Hf0 Mg11 3.111666 1_455
Hf0 Mg1 3.137048 1_555
Hf0 Mg5 3.137048 1_555
Hf0 Mg1 3.137048 1_545
Hf0 Mg5 3.137048 1_445
Hf0 Mg3 3.137048 1_555
Hf0 Mg3 3.137048 1_455
Mg0 Mg2 3.116498 1_455
Mg0 Mg4 3.116498 1_455
Mg0 Si0 3.136966 1_555
Mg0 Si0 3.136966 1_565
Mg0 Mg8 3.137377 1_555
Mg0 Mg9 3.137377 1_554
Mg0 Mg6 3.137383 1_565
Mg0 Mg7 3.137383 1_564
Mg0 Mg2 3.157390 1_565
Mg0 Mg4 3.157390 1_555
Mg0 Mg12 3.171302 1_455
Mg0 Mg13 3.171302 1_454
Mg1 Mg3 3.092774 1_565
Mg1 Mg5 3.092774 1_555
Mg1 Mg12 3.098450 1_455
Mg1 Mg13 3.098450 1_455
Mg1 Mg8 3.153743 1_555
Mg1 Mg9 3.153743 1_555
Mg1 Mg7 3.153750 1_565
Mg1 Mg6 3.153750 1_565
Mg1 Mg3 3.181114 1_455
Mg1 Mg5 3.181114 1_455
Mg2 Mg4 3.116498 1_555
Mg2 Si0 3.136966 1_655
Mg2 Si0 3.136966 1_555
Mg2 Mg7 3.137384 1_554
Mg2 Mg6 3.137384 1_555
Mg2 Mg4 3.157390 1_545
Mg3 Mg5 3.092774 1_545
Mg3 Mg6 3.153750 1_555
Mg3 Mg7 3.153750 1_555
Mg3 Mg5 3.181114 1_555
Mg4 Si0 3.136966 1_665
Mg4 Si0 3.136966 1_555
Mg4 Mg9 3.137383 1_554
Mg4 Mg8 3.137383 1_555
Mg5 Mg8 3.153749 1_555
Mg5 Mg9 3.153749 1_555
Mg6 Mg8 3.038835 1_555
Mg6 Si0 3.084562 1_555
Mg6 Mg8 3.235053 1_545
Mg7 Mg9 3.038835 1_555
Mg7 Si0 3.084562 1_556
Mg7 Mg9 3.235053 1_545
Mg8 Si0 3.084568 1_555
Mg9 Si0 3.084568 1_556
Mg10 Mg8 3.038835 1_655
Mg10 Mg6 3.038835 1_655
Mg10 Si0 3.084568 1_655
Mg10 Mg2 3.137377 1_555
Mg10 Mg4 3.137383 1_545
Mg10 Mg12 3.138338 1_545
Mg10 Mg12 3.138338 1_555
Mg10 Mg3 3.153743 1_555
Mg10 Mg5 3.153749 1_545
Mg10 Mg8 3.235053 1_545
Mg10 Mg6 3.235053 1_555
Mg11 Mg9 3.038835 1_655
Mg11 Mg7 3.038835 1_655
Mg11 Si0 3.084568 1_656
Mg11 Mg2 3.137377 1_556
Mg11 Mg4 3.137383 1_546
Mg11 Mg13 3.138338 1_545
Mg11 Mg13 3.138338 1_555
Mg11 Mg3 3.153743 1_555
Mg11 Mg5 3.153749 1_545
Mg11 Mg9 3.235053 1_545
Mg11 Mg7 3.235053 1_555
Mg12 Mg5 3.098444 1_555
Mg12 Mg3 3.098450 1_555
Mg12 Mg6 3.138338 1_665
Mg12 Mg6 3.138338 1_555
Mg12 Mg8 3.138338 1_655
Mg12 Mg8 3.138338 1_555
Mg12 Mg4 3.171296 1_555
Mg12 Mg2 3.171302 1_555
Mg13 Mg5 3.098444 1_555
Mg13 Mg3 3.098450 1_555
Mg13 Mg7 3.138338 1_665
Mg13 Mg7 3.138338 1_555
Mg13 Mg9 3.138338 1_655
Mg13 Mg9 3.138338 1_555
Mg13 Mg4 3.171296 1_556
Mg13 Mg2 3.171302 1_556
