# generated using pymatgen
data_MnAlCuPd
_symmetry_space_group_name_H-M   'P 1'
_cell_length_a   3.02710400
_cell_length_b   3.02710400
_cell_length_c   6.11296500
_cell_angle_alpha   90.00000000
_cell_angle_beta   90.00000000
_cell_angle_gamma   90.00000000
_symmetry_Int_Tables_number   1
_chemical_formula_structural   MnAlCuPd
_chemical_formula_sum   'Mn1 Al1 Cu1 Pd1'
_cell_volume   56.01529057
_cell_formula_units_Z   1
loop_
 _symmetry_equiv_pos_site_id
 _symmetry_equiv_pos_as_xyz
  1  'x, y, z'
loop_
 _atom_site_type_symbol
 _atom_site_label
 _atom_site_symmetry_multiplicity
 _atom_site_fract_x
 _atom_site_fract_y
 _atom_site_fract_z
 _atom_site_occupancy
  Mn  Mn0  1  0.00000000  0.00000000  0.48521900  1
  Al  Al0  1  0.00000000  0.00000000  0.00726900  1
  Cu  Cu0  1  0.50000000  0.50000000  0.24512400  1
  Pd  Pd0  1  0.50000000  0.50000000  0.76238800  1
loop_
_geom_bond_atom_site_label_1
_geom_bond_atom_site_label_2
_geom_bond_distance
_geom_bond_site_symmetry_2
Mn0 Pd0 2.729911 1_455
Mn0 Pd0 2.729911 1_555
Mn0 Pd0 2.729911 1_545
Mn0 Pd0 2.729911 1_445
Al0 Cu0 2.587623 1_545
Al0 Cu0 2.587623 1_555
Al0 Cu0 2.587623 1_445
Al0 Cu0 2.587623 1_455
Al0 Pd0 2.611998 1_544
Al0 Pd0 2.611998 1_554
Al0 Pd0 2.611998 1_444
Al0 Pd0 2.611998 1_454
Cu0 Mn0 2.595342 1_655
Cu0 Mn0 2.595342 1_565
Cu0 Mn0 2.595342 1_665
Cu0 Mn0 2.595342 1_555
