# generated using pymatgen
data_Yb4SmS5
_symmetry_space_group_name_H-M   'P 1'
_cell_length_a   16.00020646
_cell_length_b   16.00020646
_cell_length_c   16.00020631
_cell_angle_alpha   13.74423603
_cell_angle_beta   13.74423603
_cell_angle_gamma   13.74423774
_symmetry_Int_Tables_number   1
_chemical_formula_structural   Yb4SmS5
_chemical_formula_sum   'Yb4 Sm1 S5'
_cell_volume   201.20303431
_cell_formula_units_Z   1
loop_
 _symmetry_equiv_pos_site_id
 _symmetry_equiv_pos_as_xyz
  1  'x, y, z'
loop_
 _atom_site_type_symbol
 _atom_site_label
 _atom_site_symmetry_multiplicity
 _atom_site_fract_x
 _atom_site_fract_y
 _atom_site_fract_z
 _atom_site_occupancy
  Yb  Yb0  1  0.09823027  0.09823027  0.09823027  1
  Yb  Yb1  1  0.69899563  0.69899563  0.69899563  1
  Yb  Yb2  1  0.30100437  0.30100437  0.30100437  1
  Yb  Yb3  1  0.90176973  0.90176973  0.90176973  1
  Sm  Sm0  1  0.50000000  0.50000000  0.50000000  1
  S  S0  1  0.60154203  0.60154203  0.60154203  1
  S  S1  1  0.39845797  0.39845797  0.39845797  1
  S  S2  1  0.00000000  0.00000000  0.00000000  1
  S  S3  1  0.20370223  0.20370223  0.20370223  1
  S  S4  1  0.79629777  0.79629777  0.79629777  1
loop_
_geom_bond_atom_site_label_1
_geom_bond_atom_site_label_2
_geom_bond_distance
_geom_bond_site_symmetry_2
S0 Yb2 2.705150 1_556
S0 Yb2 2.705151 1_565
S0 Yb2 2.705151 1_655
S0 Yb3 2.713670 1_554
S0 Yb3 2.713670 1_545
S0 Yb3 2.713670 1_455
S1 Yb1 2.705150 1_554
S1 Yb1 2.705151 1_545
S1 Yb1 2.705151 1_455
S1 Yb0 2.713670 1_556
S1 Yb0 2.713670 1_565
S1 Yb0 2.713670 1_655
S2 Yb1 2.692423 1_445
S2 Yb2 2.692423 1_554
S2 Yb1 2.692424 1_544
S2 Yb1 2.692424 1_454
S2 Yb2 2.692424 1_545
S2 Yb2 2.692424 1_455
S3 Yb3 2.667482 1_445
S3 Yb3 2.667483 1_544
S3 Yb3 2.667483 1_454
S3 Sm0 2.826127 1_554
S3 Sm0 2.826127 1_545
S3 Sm0 2.826127 1_455
S4 Yb0 2.667482 1_665
S4 Yb0 2.667483 1_566
S4 Yb0 2.667483 1_656
S4 Sm0 2.826127 1_556
S4 Sm0 2.826127 1_565
S4 Sm0 2.826127 1_655
