# generated using pymatgen
data_MnH12N8O15
_symmetry_space_group_name_H-M   'P 1'
_cell_length_a   12.75001700
_cell_length_b   8.20917200
_cell_length_c   14.96455300
_cell_angle_alpha   90.00000000
_cell_angle_beta   90.00000000
_cell_angle_gamma   90.00000000
_symmetry_Int_Tables_number   1
_chemical_formula_structural   MnH12N8O15
_chemical_formula_sum   'Mn4 H48 N32 O60'
_cell_volume   1566.29610426
_cell_formula_units_Z   4
loop_
 _symmetry_equiv_pos_site_id
 _symmetry_equiv_pos_as_xyz
  1  'x, y, z'
loop_
 _atom_site_type_symbol
 _atom_site_label
 _atom_site_symmetry_multiplicity
 _atom_site_fract_x
 _atom_site_fract_y
 _atom_site_fract_z
 _atom_site_occupancy
  Mn  Mn0  1  0.43197100  0.51209600  0.28782800  1
  Mn  Mn1  1  0.56802900  0.48790400  0.78782800  1
  Mn  Mn2  1  0.06802900  0.51209600  0.78782800  1
  Mn  Mn3  1  0.93197100  0.48790400  0.28782800  1
  H  H0  1  0.43511500  0.88257300  0.76150500  1
  H  H1  1  0.56488500  0.11742700  0.26150500  1
  H  H2  1  0.06488500  0.88257300  0.26150500  1
  H  H3  1  0.93511500  0.11742700  0.76150500  1
  H  H4  1  0.42793300  0.98155200  0.86129000  1
  H  H5  1  0.57206700  0.01844800  0.36129000  1
  H  H6  1  0.07206700  0.98155200  0.36129000  1
  H  H7  1  0.92793300  0.01844800  0.86129000  1
  H  H8  1  0.44806600  0.08451700  0.76312600  1
  H  H9  1  0.55193400  0.91548300  0.26312600  1
  H  H10  1  0.05193400  0.08451700  0.26312600  1
  H  H11  1  0.94806600  0.91548300  0.76312600  1
  H  H12  1  0.54246300  0.96530400  0.80694800  1
  H  H13  1  0.45753700  0.03469600  0.30694800  1
  H  H14  1  0.95753700  0.96530400  0.30694800  1
  H  H15  1  0.04246300  0.03469600  0.80694800  1
  H  H16  1  0.33427100  0.31457900  0.06180500  1
  H  H17  1  0.66572900  0.68542100  0.56180500  1
  H  H18  1  0.16572900  0.31457900  0.56180500  1
  H  H19  1  0.83427100  0.68542100  0.06180500  1
  H  H20  1  0.29654100  0.19924000  0.14962500  1
  H  H21  1  0.70345900  0.80076000  0.64962500  1
  H  H22  1  0.20345900  0.19924000  0.64962500  1
  H  H23  1  0.79654100  0.80076000  0.14962500  1
  H  H24  1  0.33687800  0.10965000  0.05213600  1
  H  H25  1  0.66312200  0.89035000  0.55213600  1
  H  H26  1  0.16312200  0.10965000  0.55213600  1
  H  H27  1  0.83687800  0.89035000  0.05213600  1
  H  H28  1  0.22064600  0.21332500  0.05744000  1
  H  H29  1  0.77935400  0.78667500  0.55744000  1
  H  H30  1  0.27935400  0.21332500  0.55744000  1
  H  H31  1  0.72064600  0.78667500  0.05744000  1
  H  H32  1  0.82146800  0.16208000  0.46250000  1
  H  H33  1  0.17853200  0.83792000  0.96250000  1
  H  H34  1  0.67853200  0.16208000  0.96250000  1
  H  H35  1  0.32146800  0.83792000  0.46250000  1
  H  H36  1  0.85042900  0.34399700  0.51025200  1
  H  H37  1  0.14957100  0.65600300  0.01025200  1
  H  H38  1  0.64957100  0.34399700  0.01025200  1
  H  H39  1  0.35042900  0.65600300  0.51025200  1
  H  H40  1  0.79166600  0.19885200  0.57107500  1
  H  H41  1  0.20833400  0.80114800  0.07107500  1
  H  H42  1  0.70833400  0.19885200  0.07107500  1
  H  H43  1  0.29166600  0.80114800  0.57107500  1
  H  H44  1  0.72479300  0.29784700  0.49023700  1
  H  H45  1  0.27520700  0.70215300  0.99023700  1
  H  H46  1  0.77520700  0.29784700  0.99023700  1
  H  H47  1  0.22479300  0.70215300  0.49023700  1
  N  N0  1  0.46286800  0.97912200  0.79798300  1
  N  N1  1  0.53713200  0.02087800  0.29798300  1
  N  N2  1  0.03713200  0.97912200  0.29798300  1
  N  N3  1  0.96286800  0.02087800  0.79798300  1
  N  N4  1  0.29658900  0.20816300  0.08067500  1
  N  N5  1  0.70341100  0.79183700  0.58067500  1
  N  N6  1  0.20341100  0.20816300  0.58067500  1
  N  N7  1  0.79658900  0.79183700  0.08067500  1
  N  N8  1  0.79712700  0.24918500  0.50743300  1
  N  N9  1  0.20287300  0.75081500  0.00743300  1
  N  N10  1  0.70287300  0.24918500  0.00743300  1
  N  N11  1  0.29712700  0.75081500  0.50743300  1
  N  N12  1  0.28895600  0.28241500  0.33814400  1
  N  N13  1  0.71104400  0.71758500  0.83814400  1
  N  N14  1  0.21104400  0.28241500  0.83814400  1
  N  N15  1  0.78895600  0.71758500  0.33814400  1
  N  N16  1  0.56701300  0.53940100  0.15015700  1
  N  N17  1  0.43298700  0.46059900  0.65015700  1
  N  N18  1  0.93298700  0.53940100  0.65015700  1
  N  N19  1  0.06701300  0.46059900  0.15015700  1
  N  N20  1  0.56266700  0.49126600  0.43021800  1
  N  N21  1  0.43733300  0.50873400  0.93021800  1
  N  N22  1  0.93733300  0.49126600  0.93021800  1
  N  N23  1  0.06266700  0.50873400  0.43021800  1
  N  N24  1  0.29943900  0.75178700  0.22596000  1
  N  N25  1  0.70056100  0.24821300  0.72596000  1
  N  N26  1  0.20056100  0.75178700  0.72596000  1
  N  N27  1  0.79943900  0.24821300  0.22596000  1
  N  N28  1  0.50463800  0.96567100  0.02156100  1
  N  N29  1  0.49536200  0.03432900  0.52156100  1
  N  N30  1  0.99536200  0.96567100  0.52156100  1
  N  N31  1  0.00463800  0.03432900  0.02156100  1
  O  O0  1  0.30346000  0.41908500  0.37781000  1
  O  O1  1  0.69654000  0.58091500  0.87781000  1
  O  O2  1  0.19654000  0.41908500  0.87781000  1
  O  O3  1  0.80346000  0.58091500  0.37781000  1
  O  O4  1  0.34863900  0.25571600  0.26935800  1
  O  O5  1  0.65136100  0.74428400  0.76935800  1
  O  O6  1  0.15136100  0.25571600  0.76935800  1
  O  O7  1  0.84863900  0.74428400  0.26935800  1
  O  O8  1  0.22344700  0.18305900  0.36369400  1
  O  O9  1  0.77655300  0.81694100  0.86369400  1
  O  O10  1  0.27655300  0.18305900  0.86369400  1
  O  O11  1  0.72344700  0.81694100  0.36369400  1
  O  O12  1  0.55658100  0.65318200  0.20854100  1
  O  O13  1  0.44341900  0.34681800  0.70854100  1
  O  O14  1  0.94341900  0.65318200  0.70854100  1
  O  O15  1  0.05658100  0.34681800  0.20854100  1
  O  O16  1  0.51769500  0.40647300  0.16510300  1
  O  O17  1  0.48230500  0.59352700  0.66510300  1
  O  O18  1  0.98230500  0.40647300  0.66510300  1
  O  O19  1  0.01769500  0.59352700  0.16510300  1
  O  O20  1  0.62205200  0.55806700  0.08223100  1
  O  O21  1  0.37794800  0.44193300  0.58223100  1
  O  O22  1  0.87794800  0.55806700  0.58223100  1
  O  O23  1  0.12205200  0.44193300  0.08223100  1
  O  O24  1  0.56048100  0.38205300  0.36932000  1
  O  O25  1  0.43951900  0.61794700  0.86932000  1
  O  O26  1  0.93951900  0.38205300  0.86932000  1
  O  O27  1  0.06048100  0.61794700  0.36932000  1
  O  O28  1  0.50297000  0.61492200  0.41988500  1
  O  O29  1  0.49703000  0.38507800  0.91988500  1
  O  O30  1  0.99703000  0.61492200  0.91988500  1
  O  O31  1  0.00297000  0.38507800  0.41988500  1
  O  O32  1  0.62088400  0.47716500  0.49701300  1
  O  O33  1  0.37911600  0.52283500  0.99701300  1
  O  O34  1  0.87911600  0.47716500  0.99701300  1
  O  O35  1  0.12088400  0.52283500  0.49701300  1
  O  O36  1  0.35076800  0.77844900  0.29763700  1
  O  O37  1  0.64923200  0.22155100  0.79763700  1
  O  O38  1  0.14923200  0.77844900  0.79763700  1
  O  O39  1  0.85076800  0.22155100  0.29763700  1
  O  O40  1  0.31027000  0.61220900  0.18911400  1
  O  O41  1  0.68973000  0.38779100  0.68911400  1
  O  O42  1  0.18973000  0.61220900  0.68911400  1
  O  O43  1  0.81027000  0.38779100  0.18911400  1
  O  O44  1  0.24069400  0.85786900  0.19210300  1
  O  O45  1  0.75930600  0.14213100  0.69210300  1
  O  O46  1  0.25930600  0.85786900  0.69210300  1
  O  O47  1  0.74069400  0.14213100  0.19210300  1
  O  O48  1  0.51401400  0.99548900  0.10332000  1
  O  O49  1  0.48598600  0.00451100  0.60332000  1
  O  O50  1  0.98598600  0.99548900  0.60332000  1
  O  O51  1  0.01401400  0.00451100  0.10332000  1
  O  O52  1  0.41243200  0.96886900  0.98551100  1
  O  O53  1  0.58756800  0.03113100  0.48551100  1
  O  O54  1  0.08756800  0.96886900  0.48551100  1
  O  O55  1  0.91243200  0.03113100  0.98551100  1
  O  O56  1  0.58351000  0.93484500  0.97298200  1
  O  O57  1  0.41649000  0.06515500  0.47298200  1
  O  O58  1  0.91649000  0.93484500  0.47298200  1
  O  O59  1  0.08351000  0.06515500  0.97298200  1
loop_
_geom_bond_atom_site_label_1
_geom_bond_atom_site_label_2
_geom_bond_distance
_geom_bond_site_symmetry_2
Mn0 O0 2.254087 1_555
Mn0 O40 2.294629 1_555
Mn0 O12 2.296392 1_555
Mn0 O24 2.304671 1_555
Mn0 O16 2.306351 1_555
Mn0 O28 2.331792 1_555
Mn0 O4 2.373793 1_555
Mn0 O36 2.423721 1_555
Mn1 O1 2.254087 1_555
Mn1 O41 2.294629 1_555
Mn1 O13 2.296392 1_555
Mn1 O25 2.304671 1_555
Mn1 O17 2.306351 1_555
Mn1 O29 2.331792 1_555
Mn1 O5 2.373793 1_555
Mn1 O37 2.423721 1_555
Mn2 O2 2.254087 1_555
Mn2 O42 2.294629 1_555
Mn2 O14 2.296392 1_455
Mn2 O26 2.304671 1_455
Mn2 O18 2.306351 1_455
Mn2 O30 2.331792 1_455
Mn2 O6 2.373793 1_555
Mn2 O38 2.423721 1_555
Mn3 O3 2.254087 1_555
Mn3 O43 2.294629 1_555
Mn3 O15 2.296392 1_655
Mn3 O27 2.304671 1_655
Mn3 O19 2.306351 1_655
Mn3 O31 2.331792 1_655
Mn3 O7 2.373793 1_555
Mn3 O39 2.423721 1_555
H0 N0 1.025372 1_555
H1 N1 1.025372 1_555
H2 N2 1.025372 1_555
H3 N3 1.025372 1_555
H4 N0 1.047039 1_555
H5 N1 1.047039 1_555
H6 N2 1.047039 1_555
H7 N3 1.047039 1_555
H8 N0 1.027757 1_545
H9 N1 1.027757 1_565
H10 N2 1.027757 1_545
H11 N3 1.027757 1_565
H12 N0 1.029932 1_555
H13 N1 1.029932 1_555
H14 N2 1.029932 1_655
H15 N3 1.029932 1_455
H16 N4 1.036206 1_555
H17 N5 1.036206 1_555
H18 N6 1.036206 1_555
H19 N7 1.036206 1_555
H20 N4 1.034403 1_555
H21 N5 1.034403 1_555
H22 N6 1.034403 1_555
H23 N7 1.034403 1_555
H24 N4 1.048941 1_555
H25 N5 1.048941 1_555
H26 N6 1.048941 1_555
H27 N7 1.048941 1_555
H28 N4 1.029683 1_555
H29 N5 1.029683 1_555
H30 N6 1.029683 1_555
H31 N7 1.029683 1_555
H32 N8 1.029442 1_555
H33 N9 1.029442 1_556
H34 N10 1.029442 1_556
H35 N11 1.029442 1_555
H36 N8 1.034134 1_555
H37 N9 1.034134 1_555
H38 N10 1.034134 1_555
H39 N11 1.034134 1_555
H40 N8 1.040477 1_555
H41 N9 1.040477 1_555
H42 N10 1.040477 1_555
H43 N11 1.040477 1_555
H44 N8 1.037479 1_555
H45 N9 1.037479 1_556
H46 N10 1.037479 1_556
H47 N11 1.037479 1_555
N12 O8 1.228441 1_555
N12 O0 1.282695 1_555
N12 O4 1.298716 1_555
N13 O9 1.228441 1_555
N13 O1 1.282695 1_555
N13 O5 1.298716 1_555
N14 O10 1.228441 1_555
N14 O2 1.282695 1_555
N14 O6 1.298716 1_555
N15 O11 1.228441 1_555
N15 O3 1.282695 1_555
N15 O7 1.298716 1_555
N16 O20 1.244655 1_555
N16 O16 1.279140 1_555
N16 O12 1.285874 1_555
N17 O21 1.244655 1_555
N17 O17 1.279140 1_555
N17 O13 1.285874 1_555
N18 O22 1.244655 1_555
N18 O18 1.279140 1_555
N18 O14 1.285874 1_555
N19 O23 1.244655 1_555
N19 O19 1.279140 1_555
N19 O15 1.285874 1_555
N20 O32 1.250390 1_555
N20 O28 1.278161 1_555
N20 O24 1.278696 1_555
N21 O33 1.250390 1_555
N21 O29 1.278161 1_555
N21 O25 1.278696 1_555
N22 O34 1.250390 1_555
N22 O30 1.278161 1_555
N22 O26 1.278696 1_555
N23 O35 1.250390 1_555
N23 O31 1.278161 1_555
N23 O27 1.278696 1_555
N24 O44 1.255417 1_555
N24 O36 1.275424 1_555
N24 O40 1.279061 1_555
N25 O45 1.255417 1_555
N25 O37 1.275424 1_555
N25 O41 1.279061 1_555
N26 O46 1.255417 1_555
N26 O38 1.275424 1_555
N26 O42 1.279061 1_555
N27 O47 1.255417 1_555
N27 O39 1.275424 1_555
N27 O43 1.279061 1_555
N28 O48 1.253447 1_555
N28 O56 1.266405 1_554
N28 O52 1.293762 1_554
N29 O49 1.253447 1_555
N29 O57 1.266405 1_555
N29 O53 1.293762 1_555
N30 O50 1.253447 1_555
N30 O58 1.266405 1_555
N30 O54 1.293762 1_655
N31 O51 1.253447 1_555
N31 O59 1.266405 1_554
N31 O55 1.293762 1_454
