# generated using pymatgen
data_Pr12Ni6Pb
_symmetry_space_group_name_H-M   'P 1'
_cell_length_a   8.78465725
_cell_length_b   8.78465725
_cell_length_c   8.78465725
_cell_angle_alpha   109.47122063
_cell_angle_beta   109.47122063
_cell_angle_gamma   109.47122063
_symmetry_Int_Tables_number   1
_chemical_formula_structural   Pr12Ni6Pb
_chemical_formula_sum   'Pr12 Ni6 Pb1'
_cell_volume   521.85827429
_cell_formula_units_Z   1
loop_
 _symmetry_equiv_pos_site_id
 _symmetry_equiv_pos_as_xyz
  1  'x, y, z'
loop_
 _atom_site_type_symbol
 _atom_site_label
 _atom_site_symmetry_multiplicity
 _atom_site_fract_x
 _atom_site_fract_y
 _atom_site_fract_z
 _atom_site_occupancy
  Pr  Pr0  1  0.81354950  0.69100353  0.50455303  1
  Pr  Pr1  1  0.18645050  0.30899647  0.49544697  1
  Pr  Pr2  1  0.18645050  0.69100353  0.87745402  1
  Pr  Pr3  1  0.81354950  0.30899647  0.12254598  1
  Pr  Pr4  1  0.69100353  0.50455303  0.81354950  1
  Pr  Pr5  1  0.30899647  0.49544697  0.18645050  1
  Pr  Pr6  1  0.69100353  0.87745402  0.18645050  1
  Pr  Pr7  1  0.30899647  0.12254598  0.81354950  1
  Pr  Pr8  1  0.50455303  0.81354950  0.69100353  1
  Pr  Pr9  1  0.49544697  0.18645050  0.30899647  1
  Pr  Pr10  1  0.12254598  0.81354950  0.30899647  1
  Pr  Pr11  1  0.87745402  0.18645050  0.69100353  1
  Ni  Ni0  1  0.88074206  0.38074206  0.50000000  1
  Ni  Ni1  1  0.11925794  0.61925794  0.50000000  1
  Ni  Ni2  1  0.38074206  0.50000000  0.88074206  1
  Ni  Ni3  1  0.61925794  0.50000000  0.11925794  1
  Ni  Ni4  1  0.50000000  0.88074206  0.38074206  1
  Ni  Ni5  1  0.50000000  0.11925794  0.61925794  1
  Pb  Pb0  1  0.00000000  0.00000000  0.00000000  1
loop_
_geom_bond_atom_site_label_1
_geom_bond_atom_site_label_2
_geom_bond_distance
_geom_bond_site_symmetry_2
Ni0 Ni1 2.419421 1_655
Ni0 Pr9 2.763685 1_555
Ni0 Pr11 2.763685 1_555
Ni0 Pr3 2.965497 1_555
Ni0 Pr2 2.965497 1_655
Ni0 Pr1 2.965497 1_655
Ni0 Pr0 2.965497 1_555
Ni1 Pr8 2.763685 1_555
Ni1 Pr10 2.763685 1_555
Ni1 Pr2 2.965497 1_555
Ni1 Pr3 2.965497 1_455
Ni1 Pr1 2.965497 1_555
Ni1 Pr0 2.965497 1_455
Ni2 Ni3 2.419421 1_556
Ni2 Pr1 2.763685 1_555
Ni2 Pr2 2.763685 1_555
Ni2 Pr7 2.965497 1_555
Ni2 Pr6 2.965497 1_556
Ni2 Pr5 2.965497 1_556
Ni2 Pr4 2.965497 1_555
Ni3 Pr0 2.763685 1_555
Ni3 Pr3 2.763685 1_555
Ni3 Pr6 2.965497 1_555
Ni3 Pr7 2.965497 1_554
Ni3 Pr5 2.965497 1_555
Ni3 Pr4 2.965497 1_554
Ni4 Ni5 2.419421 1_565
Ni4 Pr5 2.763685 1_555
Ni4 Pr6 2.763685 1_555
Ni4 Pr10 2.965497 1_555
Ni4 Pr11 2.965497 1_565
Ni4 Pr9 2.965497 1_565
Ni4 Pr8 2.965497 1_555
Ni5 Pr4 2.763685 1_555
Ni5 Pr7 2.763685 1_555
Ni5 Pr11 2.965497 1_555
Ni5 Pr10 2.965497 1_545
Ni5 Pr9 2.965497 1_555
Ni5 Pr8 2.965497 1_545
Pb0 Pr4 3.660756 1_444
Pb0 Pr0 3.660756 1_444
Pb0 Pr8 3.660756 1_444
Pb0 Pr1 3.660756 1_555
Pb0 Pr9 3.660756 1_555
Pb0 Pr5 3.660756 1_555
Pb0 Pr6 3.660756 1_445
Pb0 Pr2 3.660756 1_544
Pb0 Pr11 3.660756 1_454
Pb0 Pr7 3.660756 1_554
Pb0 Pr10 3.660756 1_545
Pb0 Pr3 3.660756 1_455
