# generated using pymatgen
data_KTiNbO5
_symmetry_space_group_name_H-M   'P 1'
_cell_length_a   3.82199100
_cell_length_b   6.54346600
_cell_length_c   18.73839100
_cell_angle_alpha   90.00000000
_cell_angle_beta   90.00000000
_cell_angle_gamma   90.00000000
_symmetry_Int_Tables_number   1
_chemical_formula_structural   KTiNbO5
_chemical_formula_sum   'K4 Ti4 Nb4 O20'
_cell_volume   468.62969774
_cell_formula_units_Z   4
loop_
 _symmetry_equiv_pos_site_id
 _symmetry_equiv_pos_as_xyz
  1  'x, y, z'
loop_
 _atom_site_type_symbol
 _atom_site_label
 _atom_site_symmetry_multiplicity
 _atom_site_fract_x
 _atom_site_fract_y
 _atom_site_fract_z
 _atom_site_occupancy
  K  K0  1  0.25000000  0.78768800  0.19368400  1
  K  K1  1  0.25000000  0.28768800  0.30631600  1
  K  K2  1  0.75000000  0.21231200  0.80631600  1
  K  K3  1  0.75000000  0.71231200  0.69368400  1
  Ti  Ti0  1  0.25000000  0.31716200  0.96529100  1
  Ti  Ti1  1  0.25000000  0.81716200  0.53470900  1
  Ti  Ti2  1  0.75000000  0.68283800  0.03470900  1
  Ti  Ti3  1  0.75000000  0.18283800  0.46529100  1
  Nb  Nb0  1  0.25000000  0.77100500  0.88968000  1
  Nb  Nb1  1  0.25000000  0.27100500  0.61032000  1
  Nb  Nb2  1  0.75000000  0.22899500  0.11032000  1
  Nb  Nb3  1  0.75000000  0.72899500  0.38968000  1
  O  O0  1  0.25000000  0.46659700  0.88013700  1
  O  O1  1  0.25000000  0.96659700  0.61986300  1
  O  O2  1  0.75000000  0.53340300  0.11986300  1
  O  O3  1  0.75000000  0.03340300  0.38013700  1
  O  O4  1  0.25000000  0.83315400  0.79566000  1
  O  O5  1  0.25000000  0.33315400  0.70434000  1
  O  O6  1  0.75000000  0.16684600  0.20434000  1
  O  O7  1  0.75000000  0.66684600  0.29566000  1
  O  O8  1  0.25000000  0.64601300  0.01025100  1
  O  O9  1  0.25000000  0.14601300  0.48974900  1
  O  O10  1  0.75000000  0.35398700  0.98974900  1
  O  O11  1  0.75000000  0.85398700  0.51025100  1
  O  O12  1  0.25000000  0.23361600  0.07828300  1
  O  O13  1  0.25000000  0.73361600  0.42171700  1
  O  O14  1  0.75000000  0.76638400  0.92171700  1
  O  O15  1  0.75000000  0.26638400  0.57828300  1
  O  O16  1  0.25000000  0.06973600  0.92403700  1
  O  O17  1  0.25000000  0.56973600  0.57596300  1
  O  O18  1  0.75000000  0.93026400  0.07596300  1
  O  O19  1  0.75000000  0.43026400  0.42403700  1
loop_
_geom_bond_atom_site_label_1
_geom_bond_atom_site_label_2
_geom_bond_distance
_geom_bond_site_symmetry_2
K0 O7 2.815770 1_555
K0 O7 2.815770 1_455
K0 O2 2.886861 1_455
K0 O2 2.886861 1_555
K0 O18 3.064031 1_455
K0 O18 3.064031 1_555
K0 O6 3.138020 1_565
K0 O6 3.138020 1_465
K1 O6 2.815770 1_555
K1 O6 2.815770 1_455
K1 O3 2.886861 1_455
K1 O3 2.886861 1_555
K1 O19 3.064031 1_555
K1 O19 3.064031 1_455
K1 O7 3.138020 1_555
K1 O7 3.138020 1_455
K2 O5 2.815770 1_655
K2 O5 2.815770 1_555
K2 O0 2.886861 1_555
K2 O0 2.886861 1_655
K2 O16 3.064031 1_655
K2 O16 3.064031 1_555
K2 O4 3.138020 1_545
K2 O4 3.138020 1_645
K3 O4 2.815770 1_555
K3 O4 2.815770 1_655
K3 O1 2.886861 1_555
K3 O1 2.886861 1_655
K3 O17 3.064031 1_655
K3 O17 3.064031 1_555
K3 O5 3.138020 1_655
K3 O5 3.138020 1_555
Nb0 O4 1.808110 1_555
Nb0 O0 1.999894 1_555
Nb0 O14 2.003298 1_455
Nb0 O14 2.003298 1_555
Nb0 O16 2.058025 1_565
Nb0 O8 2.402789 1_556
Nb1 O5 1.808110 1_555
Nb1 O1 1.999894 1_545
Nb1 O15 2.003298 1_455
Nb1 O15 2.003298 1_555
Nb1 O17 2.058025 1_555
Nb1 O9 2.402789 1_555
Nb2 O6 1.808110 1_555
Nb2 O2 1.999894 1_555
Nb2 O12 2.003298 1_555
Nb2 O12 2.003298 1_655
Nb2 O18 2.058025 1_545
Nb2 O10 2.402789 1_554
Nb3 O7 1.808110 1_555
Nb3 O3 1.999894 1_565
Nb3 O13 2.003298 1_655
Nb3 O13 2.003298 1_555
Nb3 O19 2.058025 1_555
Nb3 O11 2.402789 1_555
O0 Ti0 1.871425 1_555
O1 Ti1 1.871425 1_555
O2 Ti2 1.871425 1_555
O3 Ti3 1.871425 1_555
O8 Ti2 1.979901 1_455
O8 Ti2 1.979901 1_555
O8 Ti0 2.310870 1_554
O9 Ti3 1.979901 1_455
O9 Ti3 1.979901 1_555
O9 Ti1 2.310870 1_545
O10 Ti0 1.979901 1_655
O10 Ti0 1.979901 1_555
O10 Ti2 2.310870 1_556
O11 Ti1 1.979901 1_655
O11 Ti1 1.979901 1_555
O11 Ti3 2.310870 1_565
O12 Ti0 2.186726 1_554
O13 Ti1 2.186726 1_555
O14 Ti2 2.186726 1_556
O15 Ti3 2.186726 1_555
O16 Ti0 1.794107 1_555
O17 Ti1 1.794107 1_555
O18 Ti2 1.794107 1_555
O19 Ti3 1.794107 1_555
