# generated using pymatgen
data_SmBiW2O9
_symmetry_space_group_name_H-M   'P 1'
_cell_length_a   3.93670100
_cell_length_b   5.81326800
_cell_length_c   33.34176900
_cell_angle_alpha   90.00000000
_cell_angle_beta   90.00000000
_cell_angle_gamma   90.00000000
_symmetry_Int_Tables_number   1
_chemical_formula_structural   SmBiW2O9
_chemical_formula_sum   'Sm4 Bi4 W8 O36'
_cell_volume   763.02964935
_cell_formula_units_Z   4
loop_
 _symmetry_equiv_pos_site_id
 _symmetry_equiv_pos_as_xyz
  1  'x, y, z'
loop_
 _atom_site_type_symbol
 _atom_site_label
 _atom_site_symmetry_multiplicity
 _atom_site_fract_x
 _atom_site_fract_y
 _atom_site_fract_z
 _atom_site_occupancy
  Sm  Sm0  1  0.73895900  0.25000000  0.33377700  1
  Sm  Sm1  1  0.76104100  0.25000000  0.83377700  1
  Sm  Sm2  1  0.26104100  0.75000000  0.66622300  1
  Sm  Sm3  1  0.23895900  0.75000000  0.16622300  1
  Bi  Bi0  1  0.71698000  0.75000000  0.52591800  1
  Bi  Bi1  1  0.78302000  0.75000000  0.02591800  1
  Bi  Bi2  1  0.28302000  0.25000000  0.47408200  1
  Bi  Bi3  1  0.21698000  0.25000000  0.97408200  1
  W  W0  1  0.27117700  0.75000000  0.29320200  1
  W  W1  1  0.22882300  0.75000000  0.79320200  1
  W  W2  1  0.72882300  0.25000000  0.70679800  1
  W  W3  1  0.77117700  0.25000000  0.20679800  1
  W  W4  1  0.76637200  0.75000000  0.42159500  1
  W  W5  1  0.73362800  0.75000000  0.92159500  1
  W  W6  1  0.23362800  0.25000000  0.57840500  1
  W  W7  1  0.26637200  0.25000000  0.07840500  1
  O  O0  1  0.74308600  0.52135700  0.47116700  1
  O  O1  1  0.75691400  0.97864300  0.97116700  1
  O  O2  1  0.25691400  0.02135700  0.52883300  1
  O  O3  1  0.24308600  0.47864300  0.02883300  1
  O  O4  1  0.25691400  0.47864300  0.52883300  1
  O  O5  1  0.24308600  0.02135700  0.02883300  1
  O  O6  1  0.74308600  0.97864300  0.47116700  1
  O  O7  1  0.75691400  0.52135700  0.97116700  1
  O  O8  1  0.74181400  0.50408000  0.38787900  1
  O  O9  1  0.75818600  0.99592000  0.88787900  1
  O  O10  1  0.25818600  0.00408000  0.61212100  1
  O  O11  1  0.24181400  0.49592000  0.11212100  1
  O  O12  1  0.25818600  0.49592000  0.61212100  1
  O  O13  1  0.24181400  0.00408000  0.11212100  1
  O  O14  1  0.74181400  0.99592000  0.38787900  1
  O  O15  1  0.75818600  0.50408000  0.88787900  1
  O  O16  1  0.23821100  0.02620000  0.32088400  1
  O  O17  1  0.26178900  0.47380000  0.82088400  1
  O  O18  1  0.76178900  0.52620000  0.67911600  1
  O  O19  1  0.73821100  0.97380000  0.17911600  1
  O  O20  1  0.76178900  0.97380000  0.67911600  1
  O  O21  1  0.73821100  0.52620000  0.17911600  1
  O  O22  1  0.23821100  0.47380000  0.32088400  1
  O  O23  1  0.26178900  0.02620000  0.82088400  1
  O  O24  1  0.24760700  0.75000000  0.42807700  1
  O  O25  1  0.25239300  0.75000000  0.92807700  1
  O  O26  1  0.75239300  0.25000000  0.57192300  1
  O  O27  1  0.74760700  0.25000000  0.07192300  1
  O  O28  1  0.73627200  0.25000000  0.26063800  1
  O  O29  1  0.76372800  0.25000000  0.76063800  1
  O  O30  1  0.26372800  0.75000000  0.73936200  1
  O  O31  1  0.23627200  0.75000000  0.23936200  1
  O  O32  1  0.74777500  0.75000000  0.29748000  1
  O  O33  1  0.75222500  0.75000000  0.79748000  1
  O  O34  1  0.25222500  0.25000000  0.70252000  1
  O  O35  1  0.24777500  0.25000000  0.20252000  1
loop_
_geom_bond_atom_site_label_1
_geom_bond_atom_site_label_2
_geom_bond_distance
_geom_bond_site_symmetry_2
Bi0 O6 2.260458 1_555
Bi0 O0 2.260458 1_555
Bi0 O2 2.403767 1_565
Bi0 O4 2.403767 1_555
Bi0 O2 2.648747 1_665
Bi0 O4 2.648747 1_655
Bi1 O1 2.260458 1_554
Bi1 O7 2.260458 1_554
Bi1 O5 2.403767 1_665
Bi1 O3 2.403767 1_655
Bi1 O5 2.648747 1_565
Bi1 O3 2.648747 1_555
Bi2 O4 2.260458 1_555
Bi2 O2 2.260458 1_555
Bi2 O0 2.403767 1_555
Bi2 O6 2.403767 1_545
Bi2 O0 2.648747 1_455
Bi2 O6 2.648747 1_445
Bi3 O3 2.260458 1_556
Bi3 O5 2.260458 1_556
Bi3 O7 2.403767 1_455
Bi3 O1 2.403767 1_445
Bi3 O7 2.648747 1_555
Bi3 O1 2.648747 1_545
O0 W4 2.122943 1_555
O1 W5 2.122943 1_555
O2 W6 2.122943 1_555
O3 W7 2.122943 1_555
O4 W6 2.122943 1_555
O5 W7 2.122943 1_555
O6 W4 2.122943 1_555
O7 W5 2.122943 1_555
O8 W4 1.821213 1_555
O8 Sm0 2.331450 1_555
O9 W5 1.821213 1_555
O9 Sm1 2.331450 1_565
O10 W6 1.821213 1_555
O10 Sm2 2.331450 1_545
O11 W7 1.821213 1_555
O11 Sm3 2.331450 1_555
O12 W6 1.821213 1_555
O12 Sm2 2.331450 1_555
O13 W7 1.821213 1_555
O13 Sm3 2.331450 1_545
O14 W4 1.821213 1_555
O14 Sm0 2.331450 1_565
O15 W5 1.821213 1_555
O15 Sm1 2.331450 1_555
O16 W0 1.856540 1_545
O16 Sm0 2.395879 1_455
O16 Sm0 2.400713 1_555
O17 W1 1.856540 1_555
O17 Sm1 2.395879 1_555
O17 Sm1 2.400713 1_455
O18 W2 1.856540 1_555
O18 Sm2 2.395879 1_655
O18 Sm2 2.400713 1_555
O19 W3 1.856540 1_565
O19 Sm3 2.395879 1_555
O19 Sm3 2.400713 1_655
O20 W2 1.856540 1_565
O20 Sm2 2.395879 1_655
O20 Sm2 2.400713 1_555
O21 W3 1.856540 1_555
O21 Sm3 2.395879 1_555
O21 Sm3 2.400713 1_655
O22 W0 1.856540 1_555
O22 Sm0 2.395879 1_455
O22 Sm0 2.400713 1_555
O23 W1 1.856540 1_545
O23 Sm1 2.395879 1_555
O23 Sm1 2.400713 1_455
O24 W4 1.906766 1_455
O24 W4 2.053627 1_555
O25 W5 1.906766 1_555
O25 W5 2.053627 1_455
O26 W6 1.906766 1_655
O26 W6 2.053627 1_555
O27 W7 1.906766 1_555
O27 W7 2.053627 1_655
O28 W3 1.800372 1_555
O28 Sm0 2.438607 1_555
O29 W2 1.800372 1_555
O29 Sm1 2.438607 1_555
O30 W1 1.800372 1_555
O30 Sm2 2.438607 1_555
O31 W0 1.800372 1_555
O31 Sm3 2.438607 1_555
O32 W0 1.881638 1_555
O32 W0 2.065408 1_655
O33 W1 1.881638 1_655
O33 W1 2.065408 1_555
O34 W2 1.881638 1_555
O34 W2 2.065408 1_455
O35 W3 1.881638 1_455
O35 W3 2.065408 1_555
