# generated using pymatgen
data_CrAgO2
_symmetry_space_group_name_H-M   'P 1'
_cell_length_a   5.24061637
_cell_length_b   6.02893798
_cell_length_c   6.42854121
_cell_angle_alpha   76.44197870
_cell_angle_beta   82.08118488
_cell_angle_gamma   89.99207646
_symmetry_Int_Tables_number   1
_chemical_formula_structural   CrAgO2
_chemical_formula_sum   'Cr4 Ag4 O8'
_cell_volume   195.45993976
_cell_formula_units_Z   4
loop_
 _symmetry_equiv_pos_site_id
 _symmetry_equiv_pos_as_xyz
  1  'x, y, z'
loop_
 _atom_site_type_symbol
 _atom_site_label
 _atom_site_symmetry_multiplicity
 _atom_site_fract_x
 _atom_site_fract_y
 _atom_site_fract_z
 _atom_site_occupancy
  Cr  Cr0  1  0.00077900  0.99982700  0.99545300  1
  Cr  Cr1  1  0.50077800  0.25243600  0.99547300  1
  Cr  Cr2  1  0.50077200  0.75241400  0.99550000  1
  Cr  Cr3  1  0.00078300  0.49984700  0.99547900  1
  Ag  Ag0  1  0.41998600  0.12986100  0.48027200  1
  Ag  Ag1  1  0.92000300  0.88000200  0.48028600  1
  Ag  Ag2  1  0.41997500  0.62986100  0.48027500  1
  Ag  Ag3  1  0.92000000  0.37999900  0.48028100  1
  O  O0  1  0.36088600  0.04331100  0.83237500  1
  O  O1  1  0.86087700  0.79053000  0.83239000  1
  O  O2  1  0.36086100  0.54328900  0.83238700  1
  O  O3  1  0.86086000  0.29050500  0.83238200  1
  O  O4  1  0.13883800  0.20656900  0.16888700  1
  O  O5  1  0.63889200  0.95899000  0.16884800  1
  O  O6  1  0.13884300  0.70656200  0.16887000  1
  O  O7  1  0.63886700  0.45899600  0.16884200  1
loop_
_geom_bond_atom_site_label_1
_geom_bond_atom_site_label_2
_geom_bond_distance
_geom_bond_site_symmetry_2
Cr0 O0 2.013795 1_565
Cr0 O3 2.014422 1_465
Cr0 O1 2.015148 1_455
Cr0 O5 2.046666 1_456
Cr0 O6 2.046989 1_556
Cr0 O4 2.047980 1_566
Cr1 O3 2.013707 1_555
Cr1 O0 2.014511 1_555
Cr1 O2 2.015242 1_555
Cr1 O7 2.046932 1_556
Cr1 O4 2.046954 1_556
Cr1 O5 2.047799 1_546
Cr2 O1 2.013854 1_555
Cr2 O2 2.014623 1_555
Cr2 O0 2.015461 1_565
Cr2 O6 2.046795 1_556
Cr2 O5 2.046973 1_556
Cr2 O7 2.047549 1_556
Cr3 O2 2.013694 1_555
Cr3 O1 2.014457 1_455
Cr3 O3 2.015555 1_455
Cr3 O7 2.046715 1_456
Cr3 O4 2.047004 1_556
Cr3 O6 2.047659 1_556
Ag0 O0 2.178252 1_555
Ag0 O5 2.592134 1_545
Ag0 O7 2.601294 1_555
Ag0 O4 2.601959 1_555
Ag1 O1 2.178258 1_555
Ag1 O4 2.592120 1_665
Ag1 O6 2.600966 1_655
Ag1 O5 2.602102 1_555
Ag2 O2 2.178307 1_555
Ag2 O7 2.592134 1_555
Ag2 O5 2.601326 1_555
Ag2 O6 2.602006 1_555
Ag3 O3 2.178240 1_555
Ag3 O6 2.592161 1_655
Ag3 O4 2.600814 1_655
Ag3 O7 2.602185 1_555
