# generated using pymatgen
data_Pr5Zr3(Ni4As3)4
_symmetry_space_group_name_H-M   'P 1'
_cell_length_a   12.82914124
_cell_length_b   12.82914124
_cell_length_c   4.01198900
_cell_angle_alpha   90.00000000
_cell_angle_beta   90.00000000
_cell_angle_gamma   119.99999607
_symmetry_Int_Tables_number   1
_chemical_formula_structural   Pr5Zr3(Ni4As3)4
_chemical_formula_sum   'Pr5 Zr3 Ni16 As12'
_cell_volume   571.85451612
_cell_formula_units_Z   1
loop_
 _symmetry_equiv_pos_site_id
 _symmetry_equiv_pos_as_xyz
  1  'x, y, z'
loop_
 _atom_site_type_symbol
 _atom_site_label
 _atom_site_symmetry_multiplicity
 _atom_site_fract_x
 _atom_site_fract_y
 _atom_site_fract_z
 _atom_site_occupancy
  Pr  Pr0  1  0.81260100  0.00000000  0.50000000  1
  Pr  Pr1  1  0.00000000  0.81260100  0.50000000  1
  Pr  Pr2  1  0.18739900  0.18739900  0.50000000  1
  Pr  Pr3  1  0.33333300  0.66666700  0.00000000  1
  Pr  Pr4  1  0.66666700  0.33333300  0.00000000  1
  Zr  Zr0  1  0.43098300  0.00000000  0.00000000  1
  Zr  Zr1  1  0.00000000  0.43098300  0.00000000  1
  Zr  Zr2  1  0.56901700  0.56901700  0.00000000  1
  Ni  Ni0  1  0.27579400  0.00000000  0.50000000  1
  Ni  Ni1  1  0.00000000  0.27579400  0.50000000  1
  Ni  Ni2  1  0.72420600  0.72420600  0.50000000  1
  Ni  Ni3  1  0.62048900  0.80673400  0.00000000  1
  Ni  Ni4  1  0.19326600  0.81375600  0.00000000  1
  Ni  Ni5  1  0.18624400  0.37951100  0.00000000  1
  Ni  Ni6  1  0.37951100  0.18624400  0.00000000  1
  Ni  Ni7  1  0.80673400  0.62048900  0.00000000  1
  Ni  Ni8  1  0.81375600  0.19326600  0.00000000  1
  Ni  Ni9  1  0.51489200  0.88141200  0.50000000  1
  Ni  Ni10  1  0.11858800  0.63348000  0.50000000  1
  Ni  Ni11  1  0.36652000  0.48510800  0.50000000  1
  Ni  Ni12  1  0.48510800  0.36652000  0.50000000  1
  Ni  Ni13  1  0.88141200  0.51489200  0.50000000  1
  Ni  Ni14  1  0.63348000  0.11858800  0.50000000  1
  Ni  Ni15  1  0.00000000  0.00000000  0.00000000  1
  As  As0  1  0.18083000  0.00000000  0.00000000  1
  As  As1  1  0.00000000  0.18083000  0.00000000  1
  As  As2  1  0.81917000  0.81917000  0.00000000  1
  As  As3  1  0.52587500  0.69701500  0.50000000  1
  As  As4  1  0.30298500  0.82886000  0.50000000  1
  As  As5  1  0.17114000  0.47412500  0.50000000  1
  As  As6  1  0.47412500  0.17114000  0.50000000  1
  As  As7  1  0.69701500  0.52587500  0.50000000  1
  As  As8  1  0.82886000  0.30298500  0.50000000  1
  As  As9  1  0.63684700  0.00000000  0.00000000  1
  As  As10  1  0.00000000  0.63684700  0.00000000  1
  As  As11  1  0.36315300  0.36315300  0.00000000  1
loop_
_geom_bond_atom_site_label_1
_geom_bond_atom_site_label_2
_geom_bond_distance
_geom_bond_site_symmetry_2
Ni0 Zr0 2.826281 1_556
Ni0 Zr0 2.826281 1_555
Ni0 Pr2 3.129290 1_555
Ni0 Pr1 3.129290 1_545
Ni1 Zr1 2.826281 1_556
Ni1 Zr1 2.826281 1_555
Ni1 Pr2 3.129290 1_555
Ni1 Pr0 3.129290 1_455
Ni2 Zr2 2.826281 1_555
Ni2 Zr2 2.826281 1_556
Ni2 Pr0 3.129290 1_565
Ni2 Pr1 3.129290 1_655
Ni3 Zr2 2.779011 1_555
Ni3 Pr0 3.183572 1_565
Ni3 Pr0 3.183572 1_564
Ni3 Pr3 3.190725 1_555
Ni4 Zr0 2.779008 1_565
Ni4 Pr1 3.183567 1_555
Ni4 Pr1 3.183567 1_554
Ni4 Pr3 3.190725 1_555
Ni5 Zr1 2.778999 1_555
Ni5 Pr2 3.183577 1_555
Ni5 Pr2 3.183577 1_554
Ni5 Pr3 3.190725 1_555
Ni6 Zr0 2.778999 1_555
Ni6 Pr2 3.183577 1_555
Ni6 Pr2 3.183577 1_554
Ni6 Pr4 3.190725 1_555
Ni7 Zr2 2.779011 1_555
Ni7 Pr1 3.183572 1_655
Ni7 Pr1 3.183572 1_654
Ni7 Pr4 3.190725 1_555
Ni8 Zr1 2.779008 1_655
Ni8 Pr0 3.183567 1_555
Ni8 Pr0 3.183567 1_554
Ni8 Pr4 3.190725 1_555
Ni9 Zr0 3.022444 1_565
Ni9 Zr0 3.022444 1_566
Ni9 Pr3 3.259192 1_555
Ni9 Pr3 3.259192 1_556
Ni9 Pr0 3.330368 1_565
Ni10 Zr1 3.022444 1_556
Ni10 Zr1 3.022444 1_555
Ni10 Pr3 3.259188 1_555
Ni10 Pr3 3.259188 1_556
Ni10 Pr1 3.330368 1_555
Ni11 Zr2 3.022444 1_555
Ni11 Zr2 3.022444 1_556
Ni11 Pr3 3.259198 1_556
Ni11 Pr3 3.259198 1_555
Ni11 Pr2 3.330368 1_555
Ni12 Zr2 3.022444 1_555
Ni12 Zr2 3.022444 1_556
Ni12 Pr4 3.259198 1_555
Ni12 Pr4 3.259198 1_556
Ni12 Pr2 3.330368 1_555
Ni13 Zr1 3.022444 1_655
Ni13 Zr1 3.022444 1_656
Ni13 Pr4 3.259192 1_555
Ni13 Pr4 3.259192 1_556
Ni13 Pr1 3.330368 1_655
Ni14 Zr0 3.022444 1_556
Ni14 Zr0 3.022444 1_555
Ni14 Pr4 3.259188 1_555
Ni14 Pr4 3.259188 1_556
Ni14 Pr0 3.330368 1_555
Ni15 Pr1 3.131140 1_544
Ni15 Pr1 3.131140 1_545
Ni15 Pr0 3.131140 1_454
Ni15 Pr0 3.131140 1_455
Ni15 Pr2 3.131140 1_554
Ni15 Pr2 3.131140 1_555
As0 Ni15 2.319894 1_555
As0 Ni0 2.346974 1_555
As0 Ni0 2.346974 1_554
As0 Ni4 2.472985 1_545
As0 Ni6 2.472992 1_555
As0 Pr2 3.099763 1_554
As0 Pr2 3.099763 1_555
As0 Pr1 3.099763 1_545
As0 Pr1 3.099763 1_544
As1 Ni15 2.319894 1_555
As1 Ni1 2.346974 1_555
As1 Ni1 2.346974 1_554
As1 Ni8 2.472985 1_455
As1 Ni5 2.472992 1_555
As1 Pr2 3.099763 1_554
As1 Pr2 3.099763 1_555
As1 Pr0 3.099763 1_455
As1 Pr0 3.099763 1_454
As2 Ni15 2.319894 1_665
As2 Ni2 2.346974 1_555
As2 Ni2 2.346974 1_554
As2 Ni3 2.472998 1_555
As2 Ni7 2.472998 1_555
As2 Pr1 3.099763 1_654
As2 Pr0 3.099763 1_565
As2 Pr0 3.099763 1_564
As2 Pr1 3.099763 1_655
As3 Ni2 2.389175 1_555
As3 Ni3 2.402111 1_555
As3 Ni3 2.402111 1_556
As3 Ni9 2.439161 1_555
As3 Ni11 2.452016 1_555
As3 Zr2 2.817041 1_555
As3 Zr2 2.817041 1_556
As3 Pr3 3.052132 1_556
As3 Pr3 3.052132 1_555
As4 Ni0 2.389175 1_565
As4 Ni4 2.402113 1_556
As4 Ni4 2.402113 1_555
As4 Ni10 2.439161 1_555
As4 Ni9 2.452016 1_555
As4 Zr0 2.817041 1_566
As4 Zr0 2.817041 1_565
As4 Pr3 3.052122 1_555
As4 Pr3 3.052122 1_556
As5 Ni1 2.389175 1_555
As5 Ni5 2.402106 1_555
As5 Ni5 2.402106 1_556
As5 Ni11 2.439161 1_555
As5 Ni10 2.452016 1_555
As5 Zr1 2.817041 1_556
As5 Zr1 2.817041 1_555
As5 Pr3 3.052128 1_556
As5 Pr3 3.052128 1_555
As6 Ni0 2.389175 1_555
As6 Ni6 2.402106 1_555
As6 Ni6 2.402106 1_556
As6 Ni12 2.439161 1_555
As6 Ni14 2.452016 1_555
As6 Zr0 2.817041 1_556
As6 Zr0 2.817041 1_555
As6 Pr4 3.052128 1_555
As6 Pr4 3.052128 1_556
As7 Ni2 2.389175 1_555
As7 Ni7 2.402111 1_556
As7 Ni7 2.402111 1_555
As7 Ni13 2.439161 1_555
As7 Ni12 2.452016 1_555
As7 Zr2 2.817041 1_555
As7 Zr2 2.817041 1_556
As7 Pr4 3.052132 1_555
As7 Pr4 3.052132 1_556
As8 Ni1 2.389175 1_655
As8 Ni8 2.402113 1_555
As8 Ni8 2.402113 1_556
As8 Ni14 2.439161 1_555
As8 Ni13 2.452016 1_555
As8 Zr1 2.817041 1_655
As8 Zr1 2.817041 1_656
As8 Pr4 3.052122 1_555
As8 Pr4 3.052122 1_556
As9 Ni3 2.381452 1_545
As9 Ni8 2.381458 1_555
As9 Ni14 2.531047 1_554
As9 Ni14 2.531047 1_555
As9 Ni9 2.531047 1_544
As9 Ni9 2.531047 1_545
As9 Zr0 2.641058 1_555
As9 Pr0 3.017949 1_554
As9 Pr0 3.017949 1_555
As10 Ni7 2.381452 1_455
As10 Ni4 2.381458 1_555
As10 Ni10 2.531047 1_555
As10 Ni10 2.531047 1_554
As10 Ni13 2.531047 1_454
As10 Ni13 2.531047 1_455
As10 Zr1 2.641058 1_555
As10 Pr1 3.017949 1_555
As10 Pr1 3.017949 1_554
As11 Ni6 2.381465 1_555
As11 Ni5 2.381465 1_555
As11 Ni11 2.531047 1_555
As11 Ni12 2.531047 1_554
As11 Ni12 2.531047 1_555
As11 Ni11 2.531047 1_554
As11 Zr2 2.641058 1_555
As11 Pr2 3.017949 1_555
As11 Pr2 3.017949 1_554
