# generated using pymatgen
data_TbCrB4
_symmetry_space_group_name_H-M   'P 1'
_cell_length_a   5.94376900
_cell_length_b   11.48440300
_cell_length_c   3.46056500
_cell_angle_alpha   90.00000000
_cell_angle_beta   90.00000000
_cell_angle_gamma   90.00000000
_symmetry_Int_Tables_number   1
_chemical_formula_structural   TbCrB4
_chemical_formula_sum   'Tb4 Cr4 B16'
_cell_volume   236.22037659
_cell_formula_units_Z   4
loop_
 _symmetry_equiv_pos_site_id
 _symmetry_equiv_pos_as_xyz
  1  'x, y, z'
loop_
 _atom_site_type_symbol
 _atom_site_label
 _atom_site_symmetry_multiplicity
 _atom_site_fract_x
 _atom_site_fract_y
 _atom_site_fract_z
 _atom_site_occupancy
  Tb  Tb0  1  0.62507800  0.34912000  0.00000000  1
  Tb  Tb1  1  0.37492200  0.65088000  0.00000000  1
  Tb  Tb2  1  0.12507800  0.15088000  0.00000000  1
  Tb  Tb3  1  0.87492200  0.84912000  0.00000000  1
  Cr  Cr0  1  0.62201900  0.07912100  0.00000000  1
  Cr  Cr1  1  0.37798100  0.92087900  0.00000000  1
  Cr  Cr2  1  0.12201900  0.42087900  0.00000000  1
  Cr  Cr3  1  0.87798100  0.57912100  0.00000000  1
  B  B0  1  0.78070100  0.18360700  0.50000000  1
  B  B1  1  0.21929900  0.81639300  0.50000000  1
  B  B2  1  0.28070100  0.31639300  0.50000000  1
  B  B3  1  0.71929900  0.68360700  0.50000000  1
  B  B4  1  0.86258300  0.03261500  0.50000000  1
  B  B5  1  0.13741700  0.96738500  0.50000000  1
  B  B6  1  0.36258300  0.46738500  0.50000000  1
  B  B7  1  0.63741700  0.53261500  0.50000000  1
  B  B8  1  0.88720200  0.45348500  0.50000000  1
  B  B9  1  0.11279800  0.54651500  0.50000000  1
  B  B10  1  0.38720200  0.04651500  0.50000000  1
  B  B11  1  0.61279800  0.95348500  0.50000000  1
  B  B12  1  0.97604500  0.30881600  0.50000000  1
  B  B13  1  0.02395500  0.69118400  0.50000000  1
  B  B14  1  0.47604500  0.19118400  0.50000000  1
  B  B15  1  0.52395500  0.80881600  0.50000000  1
loop_
_geom_bond_atom_site_label_1
_geom_bond_atom_site_label_2
_geom_bond_distance
_geom_bond_site_symmetry_2
B0 B4 1.801057 1_555
B0 B14 1.812894 1_555
B0 B12 1.848190 1_555
B0 Cr0 2.307238 1_555
B0 Cr0 2.307238 1_556
B0 Tb2 2.706461 1_655
B0 Tb2 2.706461 1_656
B0 Tb0 2.731774 1_555
B0 Tb0 2.731774 1_556
B1 B5 1.801057 1_555
B1 B15 1.812894 1_555
B1 B13 1.848190 1_555
B1 Cr1 2.307238 1_556
B1 Cr1 2.307238 1_555
B1 Tb3 2.706461 1_456
B1 Tb3 2.706461 1_455
B1 Tb1 2.731774 1_555
B1 Tb1 2.731774 1_556
B2 B6 1.801057 1_555
B2 Cr2 2.307238 1_556
B2 Cr2 2.307238 1_555
B2 Tb0 2.706461 1_555
B2 Tb0 2.706461 1_556
B2 Tb2 2.731774 1_555
B2 Tb2 2.731774 1_556
B3 B7 1.801057 1_555
B3 Cr3 2.307238 1_556
B3 Cr3 2.307238 1_555
B3 Tb1 2.706461 1_555
B3 Tb1 2.706461 1_556
B3 Tb3 2.731774 1_556
B3 Tb3 2.731774 1_555
B4 B5 1.797130 1_645
B4 Cr0 2.307298 1_555
B4 Cr0 2.307298 1_556
B4 Tb2 2.696822 1_655
B4 Tb2 2.696822 1_656
B4 Tb3 2.727654 1_545
B4 Tb3 2.727654 1_546
B5 Cr1 2.307298 1_555
B5 Cr1 2.307298 1_556
B5 Tb3 2.696822 1_455
B5 Tb3 2.696822 1_456
B5 Tb2 2.727654 1_566
B5 Tb2 2.727654 1_565
B6 B9 1.740711 1_555
B6 B7 1.797130 1_555
B6 Cr2 2.307298 1_556
B6 Cr2 2.307298 1_555
B6 Tb0 2.696822 1_556
B6 Tb0 2.696822 1_555
B6 Tb1 2.727654 1_556
B6 Tb1 2.727654 1_555
B7 B8 1.740711 1_555
B7 Cr3 2.307298 1_556
B7 Cr3 2.307298 1_555
B7 Tb1 2.696822 1_555
B7 Tb1 2.696822 1_556
B7 Tb0 2.727654 1_555
B7 Tb0 2.727654 1_556
B8 B9 1.714483 1_655
B8 Cr3 2.253599 1_555
B8 Cr3 2.253599 1_556
B8 Cr2 2.254345 1_655
B8 Cr2 2.254345 1_656
B8 Tb0 2.618745 1_555
B8 Tb0 2.618745 1_556
B9 Cr2 2.253599 1_555
B9 Cr2 2.253599 1_556
B9 Cr3 2.254345 1_456
B9 Cr3 2.254345 1_455
B9 Tb1 2.618745 1_555
B9 Tb1 2.618745 1_556
B10 B11 1.714483 1_545
B10 B5 1.740711 1_545
B10 B14 1.743337 1_555
B10 Cr1 2.253599 1_545
B10 Cr1 2.253599 1_546
B10 Cr0 2.254345 1_555
B10 Cr0 2.254345 1_556
B10 Tb2 2.618745 1_555
B10 Tb2 2.618745 1_556
B11 B4 1.740711 1_565
B11 B15 1.743337 1_555
B11 Cr0 2.253599 1_566
B11 Cr0 2.253599 1_565
B11 Cr1 2.254345 1_556
B11 Cr1 2.254345 1_555
B11 Tb3 2.618745 1_556
B11 Tb3 2.618745 1_555
B12 B8 1.743337 1_555
B12 B2 1.812894 1_655
B12 Cr2 2.324431 1_655
B12 Cr2 2.324431 1_656
B12 Tb2 2.658651 1_655
B12 Tb2 2.658651 1_656
B12 Tb0 2.749509 1_555
B12 Tb0 2.749509 1_556
B13 B9 1.743337 1_555
B13 B3 1.812894 1_455
B13 Cr3 2.324431 1_456
B13 Cr3 2.324431 1_455
B13 Tb3 2.658651 1_455
B13 Tb3 2.658651 1_456
B13 Tb1 2.749509 1_555
B13 Tb1 2.749509 1_556
B14 B2 1.848190 1_555
B14 Cr0 2.324431 1_555
B14 Cr0 2.324431 1_556
B14 Tb0 2.658651 1_555
B14 Tb0 2.658651 1_556
B14 Tb2 2.749509 1_556
B14 Tb2 2.749509 1_555
B15 B3 1.848190 1_555
B15 Cr1 2.324431 1_555
B15 Cr1 2.324431 1_556
B15 Tb1 2.658651 1_555
B15 Tb1 2.658651 1_556
B15 Tb3 2.749509 1_556
B15 Tb3 2.749509 1_555
