# generated using pymatgen
data_HoTmRu2
_symmetry_space_group_name_H-M   'P 1'
_cell_length_a   4.73517333
_cell_length_b   4.73517333
_cell_length_c   4.73517333
_cell_angle_alpha   60.00000000
_cell_angle_beta   60.00000000
_cell_angle_gamma   60.00000000
_symmetry_Int_Tables_number   1
_chemical_formula_structural   HoTmRu2
_chemical_formula_sum   'Ho1 Tm1 Ru2'
_cell_volume   75.07453383
_cell_formula_units_Z   1
loop_
 _symmetry_equiv_pos_site_id
 _symmetry_equiv_pos_as_xyz
  1  'x, y, z'
loop_
 _atom_site_type_symbol
 _atom_site_label
 _atom_site_symmetry_multiplicity
 _atom_site_fract_x
 _atom_site_fract_y
 _atom_site_fract_z
 _atom_site_occupancy
  Ho  Ho0  1  0.50000000  0.50000000  0.50000000  1
  Tm  Tm0  1  0.00000000  0.00000000  -0.00000000  1
  Ru  Ru0  1  0.25000000  0.25000000  0.25000000  1
  Ru  Ru1  1  0.75000000  0.75000000  0.75000000  1
loop_
_geom_bond_atom_site_label_1
_geom_bond_atom_site_label_2
_geom_bond_distance
_geom_bond_site_symmetry_2
Ho0 Ru1 2.899690 1_455
Ho0 Ru0 2.899690 1_655
Ho0 Ru0 2.899690 1_556
Ho0 Ru1 2.899690 1_555
Ho0 Ru1 2.899690 1_545
Ho0 Ru1 2.899690 1_554
Ho0 Ru0 2.899690 1_565
Ho0 Ru0 2.899690 1_555
Ru0 Tm0 2.899690 1_655
Ru0 Tm0 2.899690 1_556
Ru0 Tm0 2.899690 1_565
Ru0 Tm0 2.899690 1_555
Ru1 Tm0 2.899690 1_566
Ru1 Tm0 2.899690 1_656
Ru1 Tm0 2.899690 1_665
Ru1 Tm0 2.899690 1_666
