# generated using pymatgen
data_NdSmFe4Co13
_symmetry_space_group_name_H-M   'P 1'
_cell_length_a   6.35399949
_cell_length_b   6.35399949
_cell_length_c   6.35399916
_cell_angle_alpha   82.88075346
_cell_angle_beta   82.88075346
_cell_angle_gamma   82.88075372
_symmetry_Int_Tables_number   1
_chemical_formula_structural   NdSmFe4Co13
_chemical_formula_sum   'Nd1 Sm1 Fe4 Co13'
_cell_volume   251.05133485
_cell_formula_units_Z   1
loop_
 _symmetry_equiv_pos_site_id
 _symmetry_equiv_pos_as_xyz
  1  'x, y, z'
loop_
 _atom_site_type_symbol
 _atom_site_label
 _atom_site_symmetry_multiplicity
 _atom_site_fract_x
 _atom_site_fract_y
 _atom_site_fract_z
 _atom_site_occupancy
  Nd  Nd0  1  0.34359100  0.34359100  0.34359100  1
  Sm  Sm0  1  0.65653800  0.65653800  0.65653800  1
  Fe  Fe0  1  0.00167300  0.00167300  0.49540100  1
  Fe  Fe1  1  0.00167300  0.49540100  0.00167300  1
  Fe  Fe2  1  0.49540100  0.00167300  0.00167300  1
  Fe  Fe3  1  0.90733500  0.90733500  0.90733500  1
  Co  Co0  1  0.71435700  0.28613100  0.99984700  1
  Co  Co1  1  0.28613100  0.99984700  0.71435700  1
  Co  Co2  1  0.99984700  0.71435700  0.28613100  1
  Co  Co3  1  0.71435700  0.99984700  0.28613100  1
  Co  Co4  1  0.99984700  0.28613100  0.71435700  1
  Co  Co5  1  0.28613100  0.71435700  0.99984700  1
  Co  Co6  1  0.65694500  0.65694500  0.15292300  1
  Co  Co7  1  0.65694500  0.15292300  0.65694500  1
  Co  Co8  1  0.15292300  0.65694500  0.65694500  1
  Co  Co9  1  0.34407700  0.34407700  0.84269400  1
  Co  Co10  1  0.34407700  0.84269400  0.34407700  1
  Co  Co11  1  0.84269400  0.34407700  0.34407700  1
  Co  Co12  1  0.09546000  0.09546000  0.09546000  1
loop_
_geom_bond_atom_site_label_1
_geom_bond_atom_site_label_2
_geom_bond_distance
_geom_bond_site_symmetry_2
Fe0 Fe3 2.623132 1_445
Fe0 Nd0 3.240589 1_555
Fe0 Sm0 3.278055 1_445
Fe1 Fe3 2.623132 1_454
Fe1 Nd0 3.240589 1_555
Fe1 Sm0 3.278055 1_454
Fe2 Fe3 2.623132 1_544
Fe2 Nd0 3.240589 1_555
Fe2 Sm0 3.278055 1_544
Fe3 Sm0 3.083293 1_555
Co0 Fe1 2.389949 1_656
Co0 Co4 2.401161 1_555
Co0 Co3 2.407839 1_546
Co0 Fe2 2.411775 1_556
Co0 Co11 2.510113 1_556
Co0 Co7 2.515411 1_555
Co0 Co6 2.626331 1_556
Co0 Co9 2.635265 1_555
Co0 Fe3 2.661312 1_545
Co0 Co12 2.675014 1_656
Co0 Sm0 3.023976 1_555
Co0 Nd0 3.027022 1_556
Co1 Fe2 2.389949 1_566
Co1 Co5 2.401161 1_555
Co1 Co4 2.407839 1_465
Co1 Fe0 2.411774 1_565
Co1 Co9 2.510113 1_565
Co1 Co8 2.515411 1_555
Co1 Co7 2.626331 1_565
Co1 Co10 2.635265 1_555
Co1 Fe3 2.661312 1_455
Co1 Co12 2.675014 1_566
Co1 Sm0 3.023976 1_555
Co1 Nd0 3.027022 1_565
Co2 Fe0 2.389949 1_665
Co2 Co3 2.401161 1_555
Co2 Co5 2.407839 1_654
Co2 Fe1 2.411774 1_655
Co2 Co6 2.515411 1_555
Co2 Co8 2.626331 1_655
Co2 Fe3 2.661312 1_554
Co2 Sm0 3.023976 1_555
Co2 Nd0 3.027022 1_655
Co3 Fe0 2.389949 1_665
Co3 Fe2 2.411774 1_565
Co3 Co6 2.515411 1_555
Co3 Co7 2.626331 1_565
Co3 Fe3 2.661312 1_554
Co3 Sm0 3.023976 1_555
Co3 Nd0 3.027022 1_565
Co4 Fe1 2.389949 1_656
Co4 Fe0 2.411774 1_655
Co4 Co9 2.510113 1_655
Co4 Co7 2.515411 1_555
Co4 Co8 2.626331 1_655
Co4 Fe3 2.661312 1_545
Co4 Sm0 3.023976 1_555
Co4 Nd0 3.027022 1_655
Co5 Fe2 2.389949 1_566
Co5 Fe1 2.411775 1_556
Co5 Co8 2.515411 1_555
Co5 Co6 2.626331 1_556
Co5 Co9 2.635265 1_555
Co5 Fe3 2.661312 1_455
Co5 Sm0 3.023976 1_555
Co5 Nd0 3.027022 1_556
Co6 Fe2 2.437314 1_565
Co6 Fe1 2.437314 1_655
Co6 Fe3 2.625668 1_554
Co6 Nd0 3.030368 1_555
Co6 Sm0 3.154673 1_554
Co6 Sm0 3.199331 1_555
Co7 Fe2 2.437314 1_556
Co7 Fe0 2.437314 1_655
Co7 Co9 2.448566 1_555
Co7 Fe3 2.625668 1_545
Co7 Nd0 3.030368 1_555
Co7 Sm0 3.154673 1_545
Co7 Sm0 3.199331 1_555
Co8 Fe1 2.437314 1_556
Co8 Fe0 2.437314 1_565
Co8 Co9 2.448566 1_555
Co8 Fe3 2.625668 1_455
Co8 Nd0 3.030368 1_555
Co8 Sm0 3.154673 1_455
Co8 Sm0 3.199331 1_555
Co9 Fe1 2.419873 1_556
Co9 Fe2 2.419873 1_556
Co9 Sm0 3.015857 1_555
Co9 Nd0 3.172069 1_555
Co9 Nd0 3.181937 1_556
Co10 Fe2 2.419873 1_565
Co10 Fe0 2.419873 1_565
Co10 Co8 2.448566 1_555
Co10 Co6 2.448566 1_555
Co10 Co5 2.510113 1_554
Co10 Co2 2.510113 1_455
Co10 Co12 2.632728 1_565
Co10 Co3 2.635265 1_555
Co10 Sm0 3.015857 1_555
Co10 Nd0 3.172069 1_555
Co10 Nd0 3.181937 1_565
Co11 Fe1 2.419873 1_655
Co11 Fe0 2.419873 1_655
Co11 Co7 2.448566 1_555
Co11 Co6 2.448566 1_555
Co11 Co3 2.510113 1_545
Co11 Co12 2.632728 1_655
Co11 Co4 2.635265 1_555
Co11 Co2 2.635265 1_555
Co11 Sm0 3.015857 1_555
Co11 Nd0 3.172069 1_555
Co11 Nd0 3.181937 1_655
Co12 Fe3 2.312804 1_444
Co12 Fe0 2.550561 1_555
Co12 Fe2 2.550561 1_555
Co12 Fe1 2.550561 1_555
Co12 Co9 2.632728 1_554
Co12 Co4 2.675014 1_454
Co12 Co2 2.675014 1_445
Co12 Co3 2.675014 1_445
Co12 Co5 2.675014 1_544
Co12 Nd0 3.050517 1_555
