# generated using pymatgen
data_Zn(CuO2)2
_symmetry_space_group_name_H-M   'P 1'
_cell_length_a   5.92536005
_cell_length_b   5.92536005
_cell_length_c   14.50973505
_cell_angle_alpha   89.73649066
_cell_angle_beta   89.73649066
_cell_angle_gamma   60.21583397
_symmetry_Int_Tables_number   1
_chemical_formula_structural   Zn(CuO2)2
_chemical_formula_sum   'Zn6 Cu12 O24'
_cell_volume   442.13399102
_cell_formula_units_Z   6
loop_
 _symmetry_equiv_pos_site_id
 _symmetry_equiv_pos_as_xyz
  1  'x, y, z'
loop_
 _atom_site_type_symbol
 _atom_site_label
 _atom_site_symmetry_multiplicity
 _atom_site_fract_x
 _atom_site_fract_y
 _atom_site_fract_z
 _atom_site_occupancy
  Zn  Zn0  1  0.66054800  0.66054800  0.04124300  1
  Zn  Zn1  1  0.33332700  0.33332700  0.33284400  1
  Zn  Zn2  1  0.16634800  0.16634800  0.16773600  1
  Zn  Zn3  1  0.66686500  0.66686500  0.66701700  1
  Zn  Zn4  1  0.50035100  0.50035100  0.49998000  1
  Zn  Zn5  1  0.83401200  0.83401200  0.83226300  1
  Cu  Cu0  1  0.16605200  0.66760400  0.16697200  1
  Cu  Cu1  1  0.99659200  0.99659200  0.37781100  1
  Cu  Cu2  1  0.00010000  0.00010000  0.99995200  1
  Cu  Cu3  1  0.66760400  0.16605200  0.16697200  1
  Cu  Cu4  1  0.50008600  0.00048200  0.49993300  1
  Cu  Cu5  1  0.33026600  0.33026600  0.70826500  1
  Cu  Cu6  1  0.00048200  0.50008600  0.49993300  1
  Cu  Cu7  1  0.83398400  0.33274800  0.83288300  1
  Cu  Cu8  1  0.67019300  0.67019300  0.29116400  1
  Cu  Cu9  1  0.33274800  0.83398400  0.83288300  1
  Cu  Cu10  1  0.00382200  0.00382200  0.62289400  1
  Cu  Cu11  1  0.33498800  0.33498800  0.95801100  1
  O  O0  1  0.29561400  0.83992800  0.08543500  1
  O  O1  1  0.99281400  0.99281400  0.24537900  1
  O  O2  1  0.83992800  0.29561400  0.08543500  1
  O  O3  1  0.84354600  0.84354600  0.08696500  1
  O  O4  1  0.64282400  0.16582000  0.42296500  1
  O  O5  1  0.49729900  0.49729900  0.24228400  1
  O  O6  1  0.32696100  0.32696100  0.57709500  1
  O  O7  1  0.50363100  0.02201800  0.24313700  1
  O  O8  1  0.16582000  0.64282400  0.42296500  1
  O  O9  1  0.34213200  0.34213200  0.09159800  1
  O  O10  1  0.17222800  0.17222800  0.42307000  1
  O  O11  1  0.02201800  0.50363100  0.24313700  1
  O  O12  1  0.98140400  0.49620200  0.75562400  1
  O  O13  1  0.82820200  0.82820200  0.57717000  1
  O  O14  1  0.83541800  0.35768000  0.57698500  1
  O  O15  1  0.49620200  0.98140400  0.75562400  1
  O  O16  1  0.65867700  0.65867700  0.90381200  1
  O  O17  1  0.67330700  0.67330700  0.42261400  1
  O  O18  1  0.50220900  0.50220900  0.75447300  1
  O  O19  1  0.35768000  0.83541800  0.57698500  1
  O  O20  1  0.16022200  0.16022200  0.91679500  1
  O  O21  1  0.16425400  0.70099300  0.91674500  1
  O  O22  1  0.00939500  0.00939500  0.75802300  1
  O  O23  1  0.70099300  0.16425400  0.91674500  1
loop_
_geom_bond_atom_site_label_1
_geom_bond_atom_site_label_2
_geom_bond_distance
_geom_bond_site_symmetry_2
Cu0 O11 1.923267 1_555
Cu0 O0 1.947037 1_555
Cu0 O9 2.003455 1_555
Cu0 O1 2.026216 1_455
Cu0 O5 2.026505 1_555
Cu0 O3 2.028877 1_455
Cu1 O10 1.919885 1_665
Cu1 O1 1.922149 1_555
Cu1 O4 1.932356 1_565
Cu1 O8 1.932356 1_655
Cu2 O23 1.959861 1_455
Cu2 O21 1.959861 1_545
Cu2 O2 1.965558 1_456
Cu2 O0 1.965558 1_546
Cu2 O20 2.032108 1_555
Cu2 O3 2.036755 1_446
Cu3 O7 1.923267 1_555
Cu3 O2 1.947037 1_555
Cu3 O9 2.003455 1_555
Cu3 O1 2.026216 1_545
Cu3 O5 2.026505 1_555
Cu3 O3 2.028877 1_545
Cu4 O19 1.928658 1_545
Cu4 O4 1.930482 1_555
Cu4 O6 2.021383 1_555
Cu4 O10 2.024562 1_555
Cu4 O17 2.025585 1_545
Cu4 O13 2.028731 1_545
Cu5 O18 1.889264 1_555
Cu5 O6 1.903724 1_555
Cu5 O12 1.919879 1_455
Cu5 O15 1.919879 1_545
Cu6 O14 1.928658 1_455
Cu6 O8 1.930482 1_555
Cu6 O6 2.021383 1_555
Cu6 O10 2.024562 1_555
Cu6 O17 2.025585 1_455
Cu6 O13 2.028731 1_455
Cu7 O12 1.944024 1_555
Cu7 O23 1.964690 1_555
Cu7 O16 1.970624 1_555
Cu7 O22 1.990342 1_655
Cu7 O18 2.053368 1_555
Cu7 O20 2.076346 1_655
Cu8 O17 1.907742 1_555
Cu8 O5 1.912610 1_555
Cu8 O7 1.937662 1_565
Cu8 O11 1.937662 1_655
Cu9 O15 1.944024 1_555
Cu9 O21 1.964690 1_555
Cu9 O16 1.970624 1_555
Cu9 O22 1.990342 1_565
Cu9 O18 2.053368 1_555
Cu9 O20 2.076346 1_565
Cu10 O13 1.922083 1_445
Cu10 O14 1.936604 1_455
Cu10 O19 1.936604 1_545
Cu10 O22 1.961822 1_555
Cu11 O20 1.891860 1_555
Cu11 O9 1.940084 1_556
Cu11 O21 1.974648 1_555
Cu11 O23 1.974648 1_555
O0 Zn0 1.981637 1_555
O0 Zn2 2.072369 1_565
O1 Zn2 2.100683 1_665
O2 Zn0 1.981637 1_555
O2 Zn2 2.072369 1_655
O3 Zn0 1.993234 1_555
O4 Zn4 2.059084 1_555
O4 Zn1 2.063968 1_555
O5 Zn1 2.128128 1_555
O6 Zn4 2.095370 1_555
O7 Zn2 2.058139 1_555
O7 Zn1 2.067821 1_555
O8 Zn4 2.059084 1_555
O8 Zn1 2.063968 1_555
O9 Zn2 2.108765 1_555
O10 Zn1 2.102036 1_555
O11 Zn2 2.058139 1_555
O11 Zn1 2.067821 1_555
O12 Zn5 2.068990 1_555
O12 Zn3 2.070462 1_555
O13 Zn3 2.100551 1_555
O14 Zn4 2.061342 1_555
O14 Zn3 2.062181 1_555
O15 Zn5 2.068990 1_555
O15 Zn3 2.070462 1_555
O16 Zn0 1.994282 1_556
O16 Zn5 2.070981 1_555
O17 Zn4 2.093544 1_555
O18 Zn3 2.106402 1_555
O19 Zn4 2.061342 1_555
O19 Zn3 2.062181 1_555
O21 Zn5 2.105672 1_455
O22 Zn5 2.091070 1_445
O23 Zn5 2.105672 1_545
