# generated using pymatgen
data_Zr3BiF15
_symmetry_space_group_name_H-M   'P 1'
_cell_length_a   8.15725838
_cell_length_b   8.15723758
_cell_length_c   8.15547839
_cell_angle_alpha   79.77316879
_cell_angle_beta   79.77285336
_cell_angle_gamma   99.39711334
_symmetry_Int_Tables_number   1
_chemical_formula_structural   Zr3BiF15
_chemical_formula_sum   'Zr6 Bi2 F30'
_cell_volume   514.82310117
_cell_formula_units_Z   2
loop_
 _symmetry_equiv_pos_site_id
 _symmetry_equiv_pos_as_xyz
  1  'x, y, z'
loop_
 _atom_site_type_symbol
 _atom_site_label
 _atom_site_symmetry_multiplicity
 _atom_site_fract_x
 _atom_site_fract_y
 _atom_site_fract_z
 _atom_site_occupancy
  Zr  Zr0  1  0.75563321  0.24436728  0.25000386  1
  Zr  Zr1  1  0.24436507  0.75563129  0.74999845  1
  Zr  Zr2  1  0.74111790  0.67822560  0.67489546  1
  Zr  Zr3  1  0.32177415  0.25888450  0.82510046  1
  Zr  Zr4  1  0.25888166  0.32177606  0.32510398  1
  Zr  Zr5  1  0.67822633  0.74111525  0.17489898  1
  Bi  Bi0  1  0.17841139  0.82159388  0.24999592  1
  Bi  Bi1  1  0.82158866  0.17840830  0.75000460  1
  F  F0  1  0.46723890  0.53276221  0.24999909  1
  F  F1  1  0.74676928  0.94690211  0.97304018  1
  F  F2  1  0.05309922  0.25322925  0.52696452  1
  F  F3  1  0.25323142  0.05309763  0.02695924  1
  F  F4  1  0.94690074  0.74677064  0.47303556  1
  F  F5  1  0.53276149  0.46723765  0.75000008  1
  F  F6  1  0.22545576  0.49776030  0.77628873  1
  F  F7  1  0.23205465  0.71309591  0.00051969  1
  F  F8  1  0.99043456  0.73075515  0.77684043  1
  F  F9  1  0.73075673  0.99043672  0.27684142  1
  F  F10  1  0.71309588  0.23205466  0.50052258  1
  F  F11  1  0.49776147  0.22545682  0.27628925  1
  F  F12  1  0.77454638  0.50223820  0.22371131  1
  F  F13  1  0.76794551  0.28690352  0.99948096  1
  F  F14  1  0.00956361  0.26924436  0.22315990  1
  F  F15  1  0.26924342  0.00956201  0.72315855  1
  F  F16  1  0.28690420  0.76794540  0.49947837  1
  F  F17  1  0.50223664  0.77454402  0.72371105  1
  F  F18  1  0.53128938  0.15383885  0.81814019  1
  F  F19  1  0.19565355  0.06564984  0.35881605  1
  F  F20  1  0.64746204  0.68190749  0.44538407  1
  F  F21  1  0.68190735  0.64746303  0.94538433  1
  F  F22  1  0.06565100  0.19565329  0.85881733  1
  F  F23  1  0.15383886  0.53129076  0.31813967  1
  F  F24  1  0.46871104  0.84616109  0.18185956  1
  F  F25  1  0.80434673  0.93435087  0.64118289  1
  F  F26  1  0.35253809  0.31809247  0.55461547  1
  F  F27  1  0.31809288  0.35253671  0.05461550  1
  F  F28  1  0.93434984  0.80434686  0.14118227  1
  F  F29  1  0.84616100  0.46871004  0.68186005  1
loop_
_geom_bond_atom_site_label_1
_geom_bond_atom_site_label_2
_geom_bond_distance
_geom_bond_site_symmetry_2
Bi0 F3 2.292813 1_565
Bi0 F4 2.292861 1_455
Bi0 F24 2.301047 1_555
Bi0 F23 2.301069 1_555
Bi0 F19 2.313233 1_565
Bi0 F28 2.313254 1_455
Bi0 F7 2.358835 1_555
Bi0 F16 2.358868 1_555
Bi1 F1 2.292821 1_545
Bi1 F2 2.292863 1_655
Bi1 F18 2.301042 1_555
Bi1 F29 2.301058 1_555
Bi1 F25 2.313251 1_545
Bi1 F22 2.313256 1_655
Bi1 F13 2.358824 1_555
Bi1 F10 2.358864 1_555
F0 Zr5 2.127597 1_555
F0 Zr4 2.127612 1_555
F1 Zr5 2.055725 1_556
F2 Zr4 2.055709 1_555
F3 Zr3 2.055725 1_554
F4 Zr2 2.055708 1_555
F5 Zr3 2.127597 1_555
F5 Zr2 2.127617 1_555
F6 Zr1 2.053458 1_555
F6 Zr3 2.215461 1_555
F7 Zr1 1.992199 1_554
F8 Zr1 2.016346 1_655
F8 Zr2 2.335233 1_555
F9 Zr0 2.016345 1_565
F9 Zr5 2.335250 1_555
F10 Zr0 1.992174 1_555
F11 Zr0 2.053471 1_555
F11 Zr4 2.215497 1_555
F12 Zr0 2.053452 1_555
F12 Zr5 2.215478 1_555
F13 Zr0 1.992209 1_556
F14 Zr0 2.016343 1_455
F14 Zr4 2.335241 1_555
F15 Zr1 2.016343 1_545
F15 Zr3 2.335256 1_555
F16 Zr1 1.992183 1_555
F17 Zr1 2.053466 1_555
F17 Zr2 2.215505 1_555
F18 Zr3 2.029640 1_555
F19 Zr4 2.024967 1_555
F20 Zr5 2.132584 1_555
F20 Zr2 2.140894 1_555
F21 Zr2 2.132615 1_555
F21 Zr5 2.140899 1_556
F22 Zr3 2.024945 1_555
F23 Zr4 2.029619 1_555
F24 Zr5 2.029641 1_555
F25 Zr2 2.024960 1_555
F26 Zr3 2.132584 1_555
F26 Zr4 2.140896 1_555
F27 Zr4 2.132614 1_555
F27 Zr3 2.140902 1_554
F28 Zr5 2.024948 1_555
F29 Zr2 2.029627 1_555
