# generated using pymatgen
data_CsSi2Mo3P6O25
_symmetry_space_group_name_H-M   'P 1'
_cell_length_a   8.45598987
_cell_length_b   8.45598987
_cell_length_c   18.19295400
_cell_angle_alpha   90.00000000
_cell_angle_beta   90.00000000
_cell_angle_gamma   119.99999896
_symmetry_Int_Tables_number   1
_chemical_formula_structural   CsSi2Mo3P6O25
_chemical_formula_sum   'Cs2 Si4 Mo6 P12 O50'
_cell_volume   1126.58188947
_cell_formula_units_Z   2
loop_
 _symmetry_equiv_pos_site_id
 _symmetry_equiv_pos_as_xyz
  1  'x, y, z'
loop_
 _atom_site_type_symbol
 _atom_site_label
 _atom_site_symmetry_multiplicity
 _atom_site_fract_x
 _atom_site_fract_y
 _atom_site_fract_z
 _atom_site_occupancy
  Cs  Cs0  1  0.66666700  0.33333300  0.75000000  1
  Cs  Cs1  1  0.33333300  0.66666700  0.25000000  1
  Si  Si0  1  0.00000000  0.00000000  0.58781000  1
  Si  Si1  1  0.00000000  0.00000000  0.41219000  1
  Si  Si2  1  0.00000000  0.00000000  0.91219000  1
  Si  Si3  1  0.00000000  0.00000000  0.08781000  1
  Mo  Mo0  1  0.66666700  0.33333300  0.52112000  1
  Mo  Mo1  1  0.33333300  0.66666700  0.47888000  1
  Mo  Mo2  1  0.66666700  0.33333300  0.97888000  1
  Mo  Mo3  1  0.33333300  0.66666700  0.02112000  1
  Mo  Mo4  1  0.33333300  0.66666700  0.75000000  1
  Mo  Mo5  1  0.66666700  0.33333300  0.25000000  1
  P  P0  1  0.32963600  0.37833200  0.60917200  1
  P  P1  1  0.67036400  0.62166800  0.39082800  1
  P  P2  1  0.62166800  0.95130400  0.60917200  1
  P  P3  1  0.32963600  0.95130400  0.89082800  1
  P  P4  1  0.37833200  0.04869600  0.39082800  1
  P  P5  1  0.67036400  0.04869600  0.10917200  1
  P  P6  1  0.04869600  0.67036400  0.60917200  1
  P  P7  1  0.62166800  0.67036400  0.89082800  1
  P  P8  1  0.95130400  0.32963600  0.39082800  1
  P  P9  1  0.37833200  0.32963600  0.10917200  1
  P  P10  1  0.04869600  0.37833200  0.89082800  1
  P  P11  1  0.95130400  0.62166800  0.10917200  1
  O  O0  1  0.25317200  0.44307200  0.54640700  1
  O  O1  1  0.74682800  0.55692800  0.45359300  1
  O  O2  1  0.55692800  0.81010000  0.54640700  1
  O  O3  1  0.25317200  0.81010000  0.95359300  1
  O  O4  1  0.44307200  0.18990000  0.45359300  1
  O  O5  1  0.74682800  0.18990000  0.04640700  1
  O  O6  1  0.18990000  0.74682800  0.54640700  1
  O  O7  1  0.55692800  0.74682800  0.95359300  1
  O  O8  1  0.81010000  0.25317200  0.45359300  1
  O  O9  1  0.44307200  0.25317200  0.04640700  1
  O  O10  1  0.18990000  0.44307200  0.95359300  1
  O  O11  1  0.81010000  0.55692800  0.04640700  1
  O  O12  1  0.33780900  0.46069200  0.68369700  1
  O  O13  1  0.66219100  0.53930800  0.31630300  1
  O  O14  1  0.53930800  0.87711700  0.68369700  1
  O  O15  1  0.33780900  0.87711700  0.81630300  1
  O  O16  1  0.46069200  0.12288300  0.31630300  1
  O  O17  1  0.66219100  0.12288300  0.18369700  1
  O  O18  1  0.12288300  0.66219100  0.68369700  1
  O  O19  1  0.53930800  0.66219100  0.81630300  1
  O  O20  1  0.87711700  0.33780900  0.31630300  1
  O  O21  1  0.46069200  0.33780900  0.18369700  1
  O  O22  1  0.12288300  0.46069200  0.81630300  1
  O  O23  1  0.87711700  0.53930800  0.18369700  1
  O  O24  1  0.00000000  0.00000000  0.50000000  1
  O  O25  1  0.00000000  0.00000000  0.00000000  1
  O  O26  1  0.59767500  0.11532900  0.58971800  1
  O  O27  1  0.40232500  0.88467100  0.41028200  1
  O  O28  1  0.88467100  0.48234600  0.58971800  1
  O  O29  1  0.59767500  0.48234600  0.91028200  1
  O  O30  1  0.11532900  0.51765400  0.41028200  1
  O  O31  1  0.40232500  0.51765400  0.08971800  1
  O  O32  1  0.51765400  0.40232500  0.58971800  1
  O  O33  1  0.88467100  0.40232500  0.91028200  1
  O  O34  1  0.48234600  0.59767500  0.41028200  1
  O  O35  1  0.11532900  0.59767500  0.08971800  1
  O  O36  1  0.51765400  0.11532900  0.91028200  1
  O  O37  1  0.48234600  0.88467100  0.08971800  1
  O  O38  1  0.83561000  0.02854100  0.61917200  1
  O  O39  1  0.16439000  0.97145900  0.38082800  1
  O  O40  1  0.97145900  0.80706900  0.61917200  1
  O  O41  1  0.83561000  0.80706900  0.88082800  1
  O  O42  1  0.02854100  0.19293100  0.38082800  1
  O  O43  1  0.16439000  0.19293100  0.11917200  1
  O  O44  1  0.19293100  0.16439000  0.61917200  1
  O  O45  1  0.97145900  0.16439000  0.88082800  1
  O  O46  1  0.80706900  0.83561000  0.38082800  1
  O  O47  1  0.02854100  0.83561000  0.11917200  1
  O  O48  1  0.19293100  0.02854100  0.88082800  1
  O  O49  1  0.80706900  0.97145900  0.11917200  1
loop_
_geom_bond_atom_site_label_1
_geom_bond_atom_site_label_2
_geom_bond_distance
_geom_bond_site_symmetry_2
Cs0 O33 3.341592 1_555
Cs0 O26 3.341592 1_555
Cs0 O28 3.341593 1_555
Cs0 O36 3.341593 1_555
Cs0 O29 3.341596 1_555
Cs0 O32 3.341596 1_555
Cs0 O14 3.652745 1_545
Cs0 O22 3.652745 1_655
Cs0 O15 3.652747 1_545
Cs0 O18 3.652747 1_655
Cs0 O12 3.652752 1_555
Cs0 O19 3.652752 1_555
Cs1 O35 3.341592 1_555
Cs1 O27 3.341592 1_555
Cs1 O37 3.341593 1_555
Cs1 O30 3.341593 1_555
Cs1 O34 3.341596 1_555
Cs1 O31 3.341596 1_555
Cs1 O23 3.652745 1_455
Cs1 O16 3.652745 1_565
Cs1 O20 3.652747 1_455
Cs1 O17 3.652747 1_565
Cs1 O13 3.652752 1_555
Cs1 O21 3.652752 1_555
Mo0 O26 2.054427 1_555
Mo0 O28 2.054428 1_555
Mo0 O32 2.054433 1_555
Mo0 O8 2.064437 1_555
Mo0 O4 2.064442 1_555
Mo0 O1 2.064443 1_555
Mo1 O27 2.054427 1_555
Mo1 O30 2.054428 1_555
Mo1 O34 2.054433 1_555
Mo1 O6 2.064437 1_555
Mo1 O2 2.064442 1_555
Mo1 O0 2.064443 1_555
Mo2 O33 2.054427 1_555
Mo2 O36 2.054428 1_555
Mo2 O29 2.054433 1_555
Mo2 O5 2.064437 1_556
Mo2 O11 2.064442 1_556
Mo2 O9 2.064443 1_556
Mo3 O35 2.054427 1_555
Mo3 O37 2.054428 1_555
Mo3 O31 2.054433 1_555
Mo3 O3 2.064437 1_554
Mo3 O10 2.064442 1_554
Mo3 O7 2.064443 1_554
Mo4 O18 2.134468 1_555
Mo4 O15 2.134468 1_555
Mo4 O22 2.134472 1_555
Mo4 O14 2.134472 1_555
Mo4 O19 2.134475 1_555
Mo4 O12 2.134475 1_555
Mo5 O17 2.134468 1_555
Mo5 O20 2.134468 1_555
Mo5 O16 2.134472 1_555
Mo5 O23 2.134472 1_555
Mo5 O21 2.134475 1_555
Mo5 O13 2.134475 1_555
O0 P0 1.541302 1_555
O1 P1 1.541302 1_555
O2 P2 1.541302 1_555
O3 P3 1.541302 1_555
O4 P4 1.541302 1_555
O5 P5 1.541302 1_555
O6 P6 1.541302 1_555
O7 P7 1.541302 1_555
O8 P8 1.541302 1_555
O9 P9 1.541302 1_555
O10 P10 1.541302 1_555
O11 P11 1.541302 1_555
O12 P0 1.509948 1_555
O13 P1 1.509948 1_555
O14 P2 1.509948 1_555
O15 P3 1.509948 1_555
O16 P4 1.509948 1_555
O17 P5 1.509948 1_555
O18 P6 1.509948 1_555
O19 P7 1.509948 1_555
O20 P8 1.509948 1_555
O21 P9 1.509948 1_555
O22 P10 1.509948 1_555
O23 P11 1.509948 1_555
O24 Si1 1.597523 1_555
O24 Si0 1.597523 1_555
O25 Si3 1.597523 1_555
O25 Si2 1.597523 1_554
O26 P2 1.539992 1_545
O27 P4 1.539992 1_565
O28 P6 1.539992 1_655
O29 P7 1.539992 1_555
O30 P8 1.539992 1_455
O31 P9 1.539992 1_555
O32 P0 1.539992 1_555
O33 P10 1.539992 1_655
O34 P1 1.539992 1_555
O35 P11 1.539992 1_455
O36 P3 1.539992 1_545
O37 P5 1.539992 1_565
O38 P2 1.597161 1_545
O38 Si0 1.628374 1_655
O39 P4 1.597161 1_565
O39 Si1 1.628374 1_565
O40 P6 1.597161 1_655
O40 Si0 1.628374 1_665
O41 P7 1.597161 1_555
O41 Si2 1.628374 1_665
O42 P8 1.597161 1_455
O42 Si1 1.628374 1_555
O43 P9 1.597161 1_555
O43 Si3 1.628374 1_555
O44 P0 1.597161 1_555
O44 Si0 1.628374 1_555
O45 P10 1.597161 1_655
O45 Si2 1.628374 1_655
O46 P1 1.597161 1_555
O46 Si1 1.628374 1_665
O47 P11 1.597161 1_455
O47 Si3 1.628374 1_565
O48 P3 1.597161 1_545
O48 Si2 1.628374 1_555
O49 P5 1.597161 1_565
O49 Si3 1.628374 1_665
