# generated using pymatgen
data_Zr2GaN3
_symmetry_space_group_name_H-M   'P 1'
_cell_length_a   6.17836567
_cell_length_b   10.67217817
_cell_length_c   10.34272488
_cell_angle_alpha   89.99999736
_cell_angle_beta   96.26513422
_cell_angle_gamma   149.73154969
_symmetry_Int_Tables_number   1
_chemical_formula_structural   Zr2GaN3
_chemical_formula_sum   'Zr8 Ga4 N12'
_cell_volume   335.59249339
_cell_formula_units_Z   4
loop_
 _symmetry_equiv_pos_site_id
 _symmetry_equiv_pos_as_xyz
  1  'x, y, z'
loop_
 _atom_site_type_symbol
 _atom_site_label
 _atom_site_symmetry_multiplicity
 _atom_site_fract_x
 _atom_site_fract_y
 _atom_site_fract_z
 _atom_site_occupancy
  Zr  Zr0  1  0.52327700  0.14290200  0.79627900  1
  Zr  Zr1  1  0.47672300  0.61962600  0.70372100  1
  Zr  Zr2  1  0.47672300  0.85709800  0.20372100  1
  Zr  Zr3  1  0.52327700  0.38037400  0.29627900  1
  Zr  Zr4  1  0.79808700  0.02325000  0.56116700  1
  Zr  Zr5  1  0.20191300  0.22516300  0.93883300  1
  Zr  Zr6  1  0.20191300  0.97675000  0.43883300  1
  Zr  Zr7  1  0.79808700  0.77483700  0.06116700  1
  Ga  Ga0  1  0.92059600  0.56541900  0.61765600  1
  Ga  Ga1  1  0.07940400  0.64482400  0.88234400  1
  Ga  Ga2  1  0.07940400  0.43458100  0.38234400  1
  Ga  Ga3  1  0.92059600  0.35517600  0.11765600  1
  N  N0  1  0.00000000  0.75062000  0.75000000  1
  N  N1  1  0.00000000  0.24938000  0.25000000  1
  N  N2  1  0.77557000  0.21210500  0.60707100  1
  N  N3  1  0.22443000  0.43653500  0.89292900  1
  N  N4  1  0.22443000  0.78789500  0.39292900  1
  N  N5  1  0.77557000  0.56346500  0.10707100  1
  N  N6  1  0.37312400  0.09742400  0.99466900  1
  N  N7  1  0.62687600  0.72430000  0.50533100  1
  N  N8  1  0.62687600  0.90257600  0.00533100  1
  N  N9  1  0.37312400  0.27570000  0.49466900  1
  N  N10  1  0.00000000  0.02850100  0.75000000  1
  N  N11  1  0.00000000  0.97149900  0.25000000  1
loop_
_geom_bond_atom_site_label_1
_geom_bond_atom_site_label_2
_geom_bond_distance
_geom_bond_site_symmetry_2
Ga0 N9 1.901289 1_555
Ga0 N0 2.049232 1_655
Ga1 N8 1.901290 1_556
Ga1 N0 2.049224 1_555
Ga2 N7 1.901289 1_555
Ga2 N1 2.049232 1_555
Ga3 N6 1.901290 1_554
Ga3 N1 2.049224 1_655
N0 Zr0 2.119171 1_565
N0 Zr1 2.119178 1_455
N1 Zr2 2.119171 1_445
N1 Zr3 2.119178 1_555
N2 Zr4 2.192197 1_555
N2 Zr6 2.274868 1_545
N2 Zr1 2.278442 1_655
N2 Zr0 2.341359 1_555
N3 Zr5 2.192197 1_555
N3 Zr7 2.274869 1_556
N3 Zr0 2.278439 1_455
N3 Zr1 2.341362 1_555
N4 Zr6 2.192197 1_555
N4 Zr4 2.274868 1_565
N4 Zr3 2.278442 1_455
N4 Zr2 2.341359 1_555
N5 Zr7 2.192197 1_555
N5 Zr5 2.274869 1_554
N5 Zr2 2.278439 1_655
N5 Zr3 2.341362 1_555
N6 Zr7 2.086467 1_446
N6 Zr0 2.223549 1_555
N6 Zr5 2.380863 1_555
N7 Zr6 2.086467 1_655
N7 Zr1 2.223547 1_555
N7 Zr4 2.380863 1_565
N8 Zr5 2.086467 1_664
N8 Zr2 2.223549 1_555
N8 Zr7 2.380863 1_555
N9 Zr4 2.086467 1_455
N9 Zr3 2.223547 1_555
N9 Zr6 2.380863 1_545
N10 Zr4 2.172843 1_455
N10 Zr5 2.172843 1_555
N10 Zr1 2.239652 1_445
N10 Zr0 2.239659 1_555
N11 Zr6 2.172843 1_555
N11 Zr7 2.172843 1_455
N11 Zr3 2.239652 1_565
N11 Zr2 2.239659 1_455
