# generated using pymatgen
data_Tl3VSe4
_symmetry_space_group_name_H-M   'P 1'
_cell_length_a   6.78854522
_cell_length_b   6.78854522
_cell_length_c   6.78854522
_cell_angle_alpha   109.47122063
_cell_angle_beta   109.47122063
_cell_angle_gamma   109.47122063
_symmetry_Int_Tables_number   1
_chemical_formula_structural   Tl3VSe4
_chemical_formula_sum   'Tl3 V1 Se4'
_cell_volume   240.82870759
_cell_formula_units_Z   1
loop_
 _symmetry_equiv_pos_site_id
 _symmetry_equiv_pos_as_xyz
  1  'x, y, z'
loop_
 _atom_site_type_symbol
 _atom_site_label
 _atom_site_symmetry_multiplicity
 _atom_site_fract_x
 _atom_site_fract_y
 _atom_site_fract_z
 _atom_site_occupancy
  Tl  Tl0  1  0.50000000  0.50000000  -0.00000000  1
  Tl  Tl1  1  0.50000000  -0.00000000  0.50000000  1
  Tl  Tl2  1  0.00000000  0.50000000  0.50000000  1
  V  V0  1  0.00000000  -0.00000000  -0.00000000  1
  Se  Se0  1  0.66378625  0.66378625  0.66378625  1
  Se  Se1  1  0.33621375  0.00000000  0.00000000  1
  Se  Se2  1  -0.00000000  0.33621375  -0.00000000  1
  Se  Se3  1  -0.00000000  -0.00000000  0.33621375  1
loop_
_geom_bond_atom_site_label_1
_geom_bond_atom_site_label_2
_geom_bond_distance
_geom_bond_site_symmetry_2
Se0 V0 2.282402 1_666
Se0 Tl2 3.200211 1_655
Se0 Tl1 3.200211 1_565
Se0 Tl0 3.200211 1_556
Se1 V0 2.282402 1_555
Se1 Tl2 3.200211 1_544
Se1 Tl0 3.200211 1_555
Se1 Tl1 3.200211 1_555
Se2 V0 2.282402 1_555
Se2 Tl0 3.200211 1_555
Se2 Tl2 3.200211 1_555
Se2 Tl1 3.200211 1_454
Se3 V0 2.282402 1_555
Se3 Tl1 3.200211 1_555
Se3 Tl0 3.200211 1_445
Se3 Tl2 3.200211 1_555
