# generated using pymatgen
data_Li2Fe3F8
_symmetry_space_group_name_H-M   'P 1'
_cell_length_a   5.54247600
_cell_length_b   6.22814550
_cell_length_c   9.75189689
_cell_angle_alpha   74.59356425
_cell_angle_beta   85.46084839
_cell_angle_gamma   88.71902031
_symmetry_Int_Tables_number   1
_chemical_formula_structural   Li2Fe3F8
_chemical_formula_sum   'Li4 Fe6 F16'
_cell_volume   323.51432653
_cell_formula_units_Z   2
loop_
 _symmetry_equiv_pos_site_id
 _symmetry_equiv_pos_as_xyz
  1  'x, y, z'
loop_
 _atom_site_type_symbol
 _atom_site_label
 _atom_site_symmetry_multiplicity
 _atom_site_fract_x
 _atom_site_fract_y
 _atom_site_fract_z
 _atom_site_occupancy
  Li  Li0  1  0.29680600  0.21335000  0.83553000  1
  Li  Li1  1  0.79725600  0.92583100  0.83457200  1
  Li  Li2  1  0.20274400  0.07416900  0.16542800  1
  Li  Li3  1  0.70319400  0.78665000  0.16447000  1
  Fe  Fe0  1  0.24231300  0.86388200  0.53599800  1
  Fe  Fe1  1  0.74396600  0.60658400  0.53215500  1
  Fe  Fe2  1  0.25603400  0.39341600  0.46784500  1
  Fe  Fe3  1  0.75768700  0.13611800  0.46400200  1
  Fe  Fe4  1  0.24855700  0.64382100  0.99921300  1
  Fe  Fe5  1  0.75144300  0.35617900  0.00078700  1
  F  F0  1  0.09214700  0.43053400  0.88492700  1
  F  F1  1  0.60601200  0.66180600  0.88953200  1
  F  F2  1  0.13353000  0.93153500  0.86059100  1
  F  F3  1  0.62513000  0.17802100  0.86244500  1
  F  F4  1  0.42904000  0.11276400  0.59121800  1
  F  F5  1  0.92571100  0.31212600  0.59426600  1
  F  F6  1  0.39564900  0.54994100  0.62037700  1
  F  F7  1  0.89228100  0.85030600  0.61739700  1
  F  F8  1  0.10771900  0.14969400  0.38260300  1
  F  F9  1  0.60435100  0.45005900  0.37962300  1
  F  F10  1  0.07428900  0.68787400  0.40573400  1
  F  F11  1  0.57096000  0.88723600  0.40878200  1
  F  F12  1  0.37487000  0.82197900  0.13755500  1
  F  F13  1  0.86647000  0.06846500  0.13940900  1
  F  F14  1  0.39398800  0.33819400  0.11046800  1
  F  F15  1  0.90785300  0.56946600  0.11507300  1
loop_
_geom_bond_atom_site_label_1
_geom_bond_atom_site_label_2
_geom_bond_distance
_geom_bond_site_symmetry_2
F0 Li0 1.881361 1_555
F0 Fe5 2.116663 1_456
F0 Fe4 2.179283 1_555
F1 Li1 1.906443 1_555
F1 Fe5 2.103003 1_556
F1 Fe4 2.166227 1_555
F2 Li1 1.903145 1_455
F2 Li0 1.940989 1_565
F2 Fe4 2.059888 1_555
F3 Li0 1.858959 1_555
F3 Li1 1.889400 1_545
F3 Fe5 2.126260 1_556
F4 Fe0 2.089793 1_545
F4 Fe2 2.100604 1_555
F4 Fe3 2.106290 1_555
F5 Fe1 2.041720 1_555
F5 Fe2 2.116751 1_655
F5 Fe3 2.157643 1_555
F6 Fe1 2.048879 1_555
F6 Fe0 2.098564 1_555
F6 Fe2 2.179016 1_555
F7 Fe0 2.031982 1_655
F7 Fe1 2.122561 1_555
F7 Fe3 2.159930 1_565
F7 Li1 2.307747 1_555
F8 Fe3 2.031982 1_455
F8 Fe2 2.122561 1_555
F8 Fe0 2.159930 1_545
F8 Li2 2.307747 1_555
F9 Fe2 2.048879 1_555
F9 Fe3 2.098564 1_555
F9 Fe1 2.179016 1_555
F10 Fe2 2.041720 1_555
F10 Fe1 2.116751 1_455
F10 Fe0 2.157643 1_555
F11 Fe3 2.089793 1_565
F11 Fe1 2.100604 1_555
F11 Fe0 2.106290 1_555
F12 Li3 1.858959 1_555
F12 Li2 1.889400 1_565
F12 Fe4 2.126260 1_554
F13 Li2 1.903145 1_655
F13 Li3 1.940989 1_545
F13 Fe5 2.059888 1_555
F14 Li2 1.906443 1_555
F14 Fe4 2.103003 1_554
F14 Fe5 2.166227 1_555
F15 Li3 1.881361 1_555
F15 Fe4 2.116663 1_654
F15 Fe5 2.179283 1_555
