# generated using pymatgen
data_Nd(NiO2)2
_symmetry_space_group_name_H-M   'P 1'
_cell_length_a   6.03067700
_cell_length_b   5.57791300
_cell_length_c   6.51211852
_cell_angle_alpha   90.00000000
_cell_angle_beta   117.58312657
_cell_angle_gamma   90.00000000
_symmetry_Int_Tables_number   1
_chemical_formula_structural   Nd(NiO2)2
_chemical_formula_sum   'Nd2 Ni4 O8'
_cell_volume   194.16030264
_cell_formula_units_Z   2
loop_
 _symmetry_equiv_pos_site_id
 _symmetry_equiv_pos_as_xyz
  1  'x, y, z'
loop_
 _atom_site_type_symbol
 _atom_site_label
 _atom_site_symmetry_multiplicity
 _atom_site_fract_x
 _atom_site_fract_y
 _atom_site_fract_z
 _atom_site_occupancy
  Nd  Nd0  1  0.00000000  0.00000000  0.00000000  1
  Nd  Nd1  1  0.50000000  0.50000000  0.00000000  1
  Ni  Ni0  1  0.68794600  0.90673700  0.37589200  1
  Ni  Ni1  1  0.31205400  0.09326300  0.62410800  1
  Ni  Ni2  1  0.81205400  0.40673700  0.62410800  1
  Ni  Ni3  1  0.18794600  0.59326300  0.37589200  1
  O  O0  1  0.14659000  0.25000000  0.79318000  1
  O  O1  1  0.85341000  0.75000000  0.20682000  1
  O  O2  1  0.35341000  0.75000000  0.20682000  1
  O  O3  1  0.64659000  0.25000000  0.79318000  1
  O  O4  1  0.66656200  0.24310800  0.33312300  1
  O  O5  1  0.33343800  0.75689200  0.66687700  1
  O  O6  1  0.83343800  0.74310800  0.66687700  1
  O  O7  1  0.16656200  0.25689200  0.33312300  1
loop_
_geom_bond_atom_site_label_1
_geom_bond_atom_site_label_2
_geom_bond_distance
_geom_bond_site_symmetry_2
Nd0 O2 2.375434 1_545
Nd0 O3 2.375434 1_454
Nd0 O1 2.375434 1_445
Nd0 O0 2.375434 1_554
Nd0 O6 2.397980 1_444
Nd0 O7 2.397980 1_555
Nd1 O0 2.375434 1_554
Nd1 O1 2.375434 1_555
Nd1 O2 2.375434 1_555
Nd1 O3 2.375434 1_554
Nd1 O5 2.397980 1_554
Nd1 O4 2.397980 1_555
Ni0 O4 1.892418 1_565
Ni0 O6 1.911525 1_555
Ni0 O2 1.997433 1_555
Ni0 O1 1.997433 1_555
Ni1 O5 1.892418 1_545
Ni1 O7 1.911525 1_555
Ni1 O3 1.997433 1_555
Ni1 O0 1.997433 1_555
Ni2 O6 1.892418 1_555
Ni2 O4 1.911525 1_555
Ni2 O0 1.997433 1_655
Ni2 O3 1.997433 1_555
Ni3 O7 1.892418 1_555
Ni3 O5 1.911525 1_555
Ni3 O1 1.997433 1_455
Ni3 O2 1.997433 1_555
