# generated using pymatgen
data_CaMg
_symmetry_space_group_name_H-M   'P 1'
_cell_length_a   3.88971274
_cell_length_b   5.66257774
_cell_length_c   5.68420253
_cell_angle_alpha   90.00000000
_cell_angle_beta   90.00000000
_cell_angle_gamma   90.00000000
_symmetry_Int_Tables_number   1
_chemical_formula_structural   CaMg
_chemical_formula_sum   'Ca2 Mg2'
_cell_volume   125.19911250
_cell_formula_units_Z   2
loop_
 _symmetry_equiv_pos_site_id
 _symmetry_equiv_pos_as_xyz
  1  'x, y, z'
loop_
 _atom_site_type_symbol
 _atom_site_label
 _atom_site_symmetry_multiplicity
 _atom_site_fract_x
 _atom_site_fract_y
 _atom_site_fract_z
 _atom_site_occupancy
  Ca  Ca0  1  0.50000000  0.75000000  0.25456969  1
  Ca  Ca1  1  0.50000000  0.25000000  0.74543031  1
  Mg  Mg0  1  -0.00000000  0.75000000  0.75771155  1
  Mg  Mg1  1  -0.00000000  0.25000000  0.24228845  1
loop_
_geom_bond_atom_site_label_1
_geom_bond_atom_site_label_2
_geom_bond_distance
_geom_bond_site_symmetry_2
Ca0 Mg0 3.429112 1_654
Ca0 Mg0 3.429112 1_554
Ca0 Mg1 3.435627 1_555
Ca0 Mg1 3.435627 1_655
Ca0 Mg1 3.435627 1_565
Ca0 Mg1 3.435627 1_665
Ca0 Mg0 3.458589 1_555
Ca0 Mg0 3.458589 1_655
Ca1 Mg1 3.429112 1_656
Ca1 Mg1 3.429112 1_556
Ca1 Mg0 3.435627 1_545
Ca1 Mg0 3.435627 1_655
Ca1 Mg0 3.435627 1_645
Ca1 Mg0 3.435627 1_555
Ca1 Mg1 3.458589 1_555
Ca1 Mg1 3.458589 1_655
