# generated using pymatgen
data_MgCu4H8(CO5)2
_symmetry_space_group_name_H-M   'P 1'
_cell_length_a   5.95206561
_cell_length_b   6.16769029
_cell_length_c   7.77623164
_cell_angle_alpha   93.47277830
_cell_angle_beta   111.29656078
_cell_angle_gamma   92.19386753
_symmetry_Int_Tables_number   1
_chemical_formula_structural   MgCu4H8(CO5)2
_chemical_formula_sum   'Mg1 Cu4 H8 C2 O10'
_cell_volume   264.92878389
_cell_formula_units_Z   1
loop_
 _symmetry_equiv_pos_site_id
 _symmetry_equiv_pos_as_xyz
  1  'x, y, z'
loop_
 _atom_site_type_symbol
 _atom_site_label
 _atom_site_symmetry_multiplicity
 _atom_site_fract_x
 _atom_site_fract_y
 _atom_site_fract_z
 _atom_site_occupancy
  Mg  Mg0  1  0.24000960  0.15150812  0.51162348  1
  Cu  Cu0  1  0.01659490  0.01181939  0.04048264  1
  Cu  Cu1  1  0.98894895  0.57127359  0.97165043  1
  Cu  Cu2  1  0.46215706  0.80405703  0.99406532  1
  Cu  Cu3  1  0.51326209  0.29492090  0.98354597  1
  H  H0  1  0.47927168  0.68873183  0.63514698  1
  H  H1  1  0.67368718  0.36282196  0.39758338  1
  H  H2  1  0.86994247  0.86359132  0.71770768  1
  H  H3  1  0.16074855  0.34392032  0.21356832  1
  H  H4  1  0.84719834  0.55160313  0.22704547  1
  H  H5  1  0.14169867  0.08541694  0.79508002  1
  H  H6  1  0.75373024  0.05917943  0.23772004  1
  H  H7  1  0.21339223  0.51258592  0.76836669  1
  C  C0  1  0.29170295  0.66876651  0.53143339  1
  C  C1  1  0.71704507  0.23385625  0.49625494  1
  O  O0  1  0.21477850  0.81921010  0.42713164  1
  O  O1  1  0.60965807  0.22669679  0.60853220  1
  O  O2  1  0.84142591  0.82748842  0.82916289  1
  O  O3  1  0.20975757  0.19677521  0.24296271  1
  O  O4  1  0.16533483  0.49355715  0.52758416  1
  O  O5  1  0.87126162  0.10077593  0.48469688  1
  O  O6  1  0.75981961  0.53650600  0.09243805  1
  O  O7  1  0.30217989  0.08898458  0.78749639  1
  O  O8  1  0.68796056  0.04432266  0.10004732  1
  O  O9  1  0.27051646  0.53200753  0.90645101  1
loop_
_geom_bond_atom_site_label_1
_geom_bond_atom_site_label_2
_geom_bond_distance
_geom_bond_site_symmetry_2
Mg0 O3 2.067911 1_555
Mg0 O1 2.073374 1_555
Mg0 O0 2.096750 1_545
Mg0 O7 2.102916 1_555
Mg0 O5 2.136495 1_455
Mg0 O4 2.178011 1_555
Cu0 O3 1.862615 1_555
Cu0 O2 1.875716 1_444
Cu0 O8 2.181232 1_455
Cu1 O6 1.928897 1_556
Cu1 O9 1.938501 1_655
Cu1 O2 2.026709 1_555
Cu2 O8 1.891162 1_566
Cu2 O9 1.931619 1_555
Cu2 O6 2.416502 1_556
Cu2 O7 2.436039 1_565
Cu3 O7 1.941099 1_555
Cu3 O6 1.966697 1_556
Cu3 O8 1.974659 1_556
Cu3 O9 2.055234 1_555
H2 O2 0.978216 1_555
H3 O3 0.978747 1_555
H4 O6 0.981765 1_555
H5 O7 0.977663 1_555
H6 O8 0.994342 1_555
H7 O9 0.999524 1_555
C0 H0 1.111489 1_555
C0 O0 1.257937 1_555
C0 O4 1.285263 1_555
C1 H1 1.110789 1_555
C1 O1 1.257245 1_555
C1 O5 1.277894 1_555
