# generated using pymatgen
data_DyErFe14B
_symmetry_space_group_name_H-M   'P 1'
_cell_length_a   8.72027600
_cell_length_b   8.72027600
_cell_length_c   11.92570000
_cell_angle_alpha   90.00000000
_cell_angle_beta   90.00000000
_cell_angle_gamma   90.00000000
_symmetry_Int_Tables_number   1
_chemical_formula_structural   DyErFe14B
_chemical_formula_sum   'Dy4 Er4 Fe56 B4'
_cell_volume   906.86855143
_cell_formula_units_Z   4
loop_
 _symmetry_equiv_pos_site_id
 _symmetry_equiv_pos_as_xyz
  1  'x, y, z'
loop_
 _atom_site_type_symbol
 _atom_site_label
 _atom_site_symmetry_multiplicity
 _atom_site_fract_x
 _atom_site_fract_y
 _atom_site_fract_z
 _atom_site_occupancy
  Dy  Dy0  1  0.23256400  0.76743600  0.50000000  1
  Dy  Dy1  1  0.76743600  0.23256400  0.50000000  1
  Dy  Dy2  1  0.26743600  0.26743600  0.00000000  1
  Dy  Dy3  1  0.73256400  0.73256400  0.00000000  1
  Er  Er0  1  0.64211500  0.64211500  0.50000000  1
  Er  Er1  1  0.35788500  0.35788500  0.50000000  1
  Er  Er2  1  0.85788500  0.14211500  0.00000000  1
  Er  Er3  1  0.14211500  0.85788500  0.00000000  1
  Fe  Fe0  1  0.18270900  0.81729100  0.25378600  1
  Fe  Fe1  1  0.81729100  0.18270900  0.25378600  1
  Fe  Fe2  1  0.31729100  0.31729100  0.75378600  1
  Fe  Fe3  1  0.68270900  0.68270900  0.75378600  1
  Fe  Fe4  1  0.81729100  0.18270900  0.74621400  1
  Fe  Fe5  1  0.18270900  0.81729100  0.74621400  1
  Fe  Fe6  1  0.68270900  0.68270900  0.24621400  1
  Fe  Fe7  1  0.31729100  0.31729100  0.24621400  1
  Fe  Fe8  1  0.40263100  0.59736900  0.29810300  1
  Fe  Fe9  1  0.59736900  0.40263100  0.29810300  1
  Fe  Fe10  1  0.09736900  0.09736900  0.79810300  1
  Fe  Fe11  1  0.90263100  0.90263100  0.79810300  1
  Fe  Fe12  1  0.59736900  0.40263100  0.70189700  1
  Fe  Fe13  1  0.40263100  0.59736900  0.70189700  1
  Fe  Fe14  1  0.90263100  0.90263100  0.20189700  1
  Fe  Fe15  1  0.09736900  0.09736900  0.20189700  1
  Fe  Fe16  1  0.14140300  0.53738600  0.32538000  1
  Fe  Fe17  1  0.85859700  0.46261400  0.32538000  1
  Fe  Fe18  1  0.35859700  0.03738600  0.82538000  1
  Fe  Fe19  1  0.64140300  0.96261400  0.82538000  1
  Fe  Fe20  1  0.85859700  0.46261400  0.67462000  1
  Fe  Fe21  1  0.14140300  0.53738600  0.67462000  1
  Fe  Fe22  1  0.64140300  0.96261400  0.17462000  1
  Fe  Fe23  1  0.35859700  0.03738600  0.17462000  1
  Fe  Fe24  1  0.53738600  0.14140300  0.32538000  1
  Fe  Fe25  1  0.46261400  0.85859700  0.32538000  1
  Fe  Fe26  1  0.03738600  0.35859700  0.82538000  1
  Fe  Fe27  1  0.96261400  0.64140300  0.82538000  1
  Fe  Fe28  1  0.46261400  0.85859700  0.67462000  1
  Fe  Fe29  1  0.53738600  0.14140300  0.67462000  1
  Fe  Fe30  1  0.96261400  0.64140300  0.17462000  1
  Fe  Fe31  1  0.03738600  0.35859700  0.17462000  1
  Fe  Fe32  1  0.50000000  0.50000000  0.11425200  1
  Fe  Fe33  1  0.00000000  0.00000000  0.61425200  1
  Fe  Fe34  1  0.50000000  0.50000000  0.88574800  1
  Fe  Fe35  1  0.00000000  0.00000000  0.38574800  1
  Fe  Fe36  1  0.93314100  0.72387900  0.37390500  1
  Fe  Fe37  1  0.06685900  0.27612100  0.37390500  1
  Fe  Fe38  1  0.56685900  0.22387900  0.87390500  1
  Fe  Fe39  1  0.43314100  0.77612100  0.87390500  1
  Fe  Fe40  1  0.06685900  0.27612100  0.62609500  1
  Fe  Fe41  1  0.93314100  0.72387900  0.62609500  1
  Fe  Fe42  1  0.43314100  0.77612100  0.12609500  1
  Fe  Fe43  1  0.56685900  0.22387900  0.12609500  1
  Fe  Fe44  1  0.72387900  0.93314100  0.37390500  1
  Fe  Fe45  1  0.27612100  0.06685900  0.37390500  1
  Fe  Fe46  1  0.22387900  0.56685900  0.87390500  1
  Fe  Fe47  1  0.77612100  0.43314100  0.87390500  1
  Fe  Fe48  1  0.27612100  0.06685900  0.62609500  1
  Fe  Fe49  1  0.72387900  0.93314100  0.62609500  1
  Fe  Fe50  1  0.77612100  0.43314100  0.12609500  1
  Fe  Fe51  1  0.22387900  0.56685900  0.12609500  1
  Fe  Fe52  1  0.00000000  0.50000000  0.50000000  1
  Fe  Fe53  1  0.50000000  0.00000000  0.00000000  1
  Fe  Fe54  1  0.50000000  0.00000000  0.50000000  1
  Fe  Fe55  1  0.00000000  0.50000000  0.00000000  1
  B  B0  1  0.87211000  0.87211000  0.50000000  1
  B  B1  1  0.12789000  0.12789000  0.50000000  1
  B  B2  1  0.62789000  0.37211000  0.00000000  1
  B  B3  1  0.37211000  0.62789000  0.00000000  1
loop_
_geom_bond_atom_site_label_1
_geom_bond_atom_site_label_2
_geom_bond_distance
_geom_bond_site_symmetry_2
Dy0 Fe21 2.998840 1_555
Dy0 Fe16 2.998840 1_555
Dy0 Fe28 2.998840 1_555
Dy0 Fe25 2.998840 1_555
Dy0 Fe0 2.999953 1_555
Dy0 Fe5 2.999953 1_555
Dy0 Fe41 3.036970 1_455
Dy0 Fe48 3.036970 1_565
Dy0 Fe36 3.036970 1_455
Dy0 Fe45 3.036970 1_565
Dy0 Fe54 3.090572 1_565
Dy0 Fe52 3.090572 1_555
Dy0 Fe35 3.175256 1_565
Dy0 Fe33 3.175256 1_565
Dy0 Fe13 3.193131 1_555
Dy0 Fe8 3.193131 1_555
Dy1 Fe17 2.998840 1_555
Dy1 Fe20 2.998840 1_555
Dy1 Fe24 2.998840 1_555
Dy1 Fe29 2.998840 1_555
Dy1 Fe1 2.999953 1_555
Dy1 Fe4 2.999953 1_555
Dy1 Fe49 3.036970 1_545
Dy1 Fe40 3.036970 1_655
Dy1 Fe37 3.036970 1_655
Dy1 Fe44 3.036970 1_545
Dy1 Fe54 3.090572 1_555
Dy1 Fe52 3.090572 1_655
Dy1 Fe35 3.175256 1_655
Dy1 Fe33 3.175256 1_655
Dy1 Fe12 3.193131 1_555
Dy1 Fe9 3.193131 1_555
Dy2 Fe31 2.998840 1_555
Dy2 Fe18 2.998840 1_554
Dy2 Fe23 2.998840 1_555
Dy2 Fe26 2.998840 1_554
Dy2 Fe7 2.999953 1_555
Dy2 Fe2 2.999953 1_554
Dy2 Fe38 3.036970 1_554
Dy2 Fe46 3.036970 1_554
Dy2 Fe43 3.036970 1_555
Dy2 Fe51 3.036970 1_555
Dy2 Fe55 3.090572 1_555
Dy2 Fe53 3.090572 1_555
Dy2 Fe32 3.175256 1_555
Dy2 Fe34 3.175256 1_554
Dy2 Fe10 3.193131 1_554
Dy2 Fe15 3.193131 1_555
Dy3 Fe30 2.998840 1_555
Dy3 Fe27 2.998840 1_554
Dy3 Fe22 2.998840 1_555
Dy3 Fe19 2.998840 1_554
Dy3 Fe6 2.999953 1_555
Dy3 Fe3 2.999953 1_554
Dy3 Fe47 3.036970 1_554
Dy3 Fe39 3.036970 1_554
Dy3 Fe42 3.036970 1_555
Dy3 Fe50 3.036970 1_555
Dy3 Fe55 3.090572 1_655
Dy3 Fe53 3.090572 1_565
Dy3 Fe32 3.175256 1_555
Dy3 Fe34 3.175256 1_554
Dy3 Fe14 3.193131 1_555
Dy3 Fe11 3.193131 1_554
Er0 Fe49 3.034843 1_555
Er0 Fe41 3.034843 1_555
Er0 Fe44 3.034843 1_555
Er0 Fe36 3.034843 1_555
Er0 Fe3 3.067699 1_555
Er0 Fe6 3.067699 1_555
Er0 Fe13 3.211052 1_555
Er0 Fe8 3.211052 1_555
Er0 Fe12 3.211052 1_555
Er0 Fe9 3.211052 1_555
Er0 Fe17 3.217226 1_555
Er0 Fe28 3.217226 1_555
Er0 Fe25 3.217226 1_555
Er0 Fe20 3.217226 1_555
Er0 Fe52 3.357910 1_655
Er0 Fe54 3.357910 1_565
Er1 Fe48 3.034843 1_555
Er1 Fe45 3.034843 1_555
Er1 Fe40 3.034843 1_555
Er1 Fe37 3.034843 1_555
Er1 Fe2 3.067699 1_555
Er1 Fe7 3.067699 1_555
Er1 Fe8 3.211052 1_555
Er1 Fe12 3.211052 1_555
Er1 Fe9 3.211052 1_555
Er1 Fe13 3.211052 1_555
Er1 Fe21 3.217226 1_555
Er1 Fe16 3.217226 1_555
Er1 Fe24 3.217226 1_555
Er1 Fe29 3.217226 1_555
Er1 Fe54 3.357910 1_555
Er1 Fe52 3.357910 1_555
Er2 Fe47 3.034843 1_554
Er2 Fe43 3.034843 1_555
Er2 Fe38 3.034843 1_554
Er2 Fe50 3.034843 1_555
Er2 Fe4 3.067699 1_554
Er2 Fe1 3.067699 1_555
Er2 Fe14 3.211052 1_545
Er2 Fe11 3.211052 1_544
Er2 Fe15 3.211052 1_655
Er2 Fe10 3.211052 1_654
Er2 Fe26 3.217226 1_654
Er2 Fe31 3.217226 1_655
Er2 Fe22 3.217226 1_545
Er2 Fe19 3.217226 1_544
Er2 Fe53 3.357910 1_555
Er2 Fe55 3.357910 1_655
Er3 Fe51 3.034843 1_555
Er3 Fe39 3.034843 1_554
Er3 Fe46 3.034843 1_554
Er3 Fe42 3.034843 1_555
Er3 Fe5 3.067699 1_554
Er3 Fe0 3.067699 1_555
Er3 Fe14 3.211052 1_455
Er3 Fe11 3.211052 1_454
Er3 Fe10 3.211052 1_564
Er3 Fe15 3.211052 1_565
Er3 Fe23 3.217226 1_565
Er3 Fe18 3.217226 1_564
Er3 Fe27 3.217226 1_454
Er3 Fe30 3.217226 1_455
Er3 Fe53 3.357910 1_565
Er3 Fe55 3.357910 1_555
Fe0 Fe16 2.610838 1_555
Fe0 Fe25 2.610838 1_555
Fe0 Fe14 2.627138 1_455
Fe0 Fe15 2.627138 1_565
Fe0 Fe23 2.632021 1_565
Fe0 Fe30 2.632021 1_455
Fe0 Fe51 2.686441 1_555
Fe0 Fe42 2.686441 1_555
Fe0 Fe36 2.729816 1_455
Fe0 Fe45 2.729816 1_565
Fe0 Fe35 2.748398 1_565
Fe0 Fe8 2.763166 1_555
Fe1 Fe24 2.610838 1_555
Fe1 Fe17 2.610838 1_555
Fe1 Fe14 2.627138 1_545
Fe1 Fe15 2.627138 1_655
Fe1 Fe31 2.632021 1_655
Fe1 Fe22 2.632021 1_545
Fe1 Fe43 2.686441 1_555
Fe1 Fe50 2.686441 1_555
Fe1 Fe44 2.729816 1_545
Fe1 Fe37 2.729816 1_655
Fe1 Fe35 2.748398 1_655
Fe1 Fe9 2.763166 1_555
Fe2 Fe26 2.610838 1_555
Fe2 Fe29 2.632021 1_555
Fe2 Fe21 2.632021 1_555
Fe2 Fe40 2.686441 1_555
Fe2 Fe48 2.686441 1_555
Fe2 Fe38 2.729816 1_555
Fe2 Fe46 2.729816 1_555
Fe2 Fe34 2.748398 1_555
Fe3 Fe49 2.686441 1_555
Fe3 Fe41 2.686441 1_555
Fe3 Fe47 2.729816 1_555
Fe3 Fe39 2.729816 1_555
Fe3 Fe34 2.748398 1_555
Fe4 Fe47 2.686441 1_555
Fe4 Fe49 2.729816 1_545
Fe4 Fe40 2.729816 1_655
Fe6 Fe9 2.627138 1_555
Fe6 Fe8 2.627138 1_555
Fe7 Fe8 2.627138 1_555
Fe7 Fe9 2.627138 1_555
Fe8 Fe9 2.401574 1_555
Fe10 Fe26 2.359791 1_555
Fe10 Fe18 2.359791 1_555
Fe10 Fe11 2.401574 1_445
Fe10 Fe33 2.499835 1_555
Fe10 Fe48 2.590065 1_555
Fe10 Fe40 2.590065 1_555
Fe10 Fe5 2.627138 1_545
Fe10 Fe4 2.627138 1_455
Fe10 Fe2 2.763166 1_555
Fe11 Fe27 2.359791 1_555
Fe11 Fe19 2.359791 1_555
Fe11 Fe33 2.499835 1_665
Fe11 Fe49 2.590065 1_555
Fe11 Fe41 2.590065 1_555
Fe11 Fe5 2.627138 1_655
Fe11 Fe4 2.627138 1_565
Fe11 Fe3 2.763166 1_555
Fe12 Fe29 2.359791 1_555
Fe12 Fe20 2.359791 1_555
Fe12 Fe13 2.401574 1_555
Fe12 Fe34 2.499835 1_555
Fe12 Fe47 2.590065 1_555
Fe12 Fe38 2.590065 1_555
Fe12 Fe3 2.627138 1_555
Fe12 Fe2 2.627138 1_555
Fe12 Fe4 2.763166 1_555
Fe13 Fe28 2.359791 1_555
Fe13 Fe21 2.359791 1_555
Fe13 Fe34 2.499835 1_555
Fe13 Fe39 2.590065 1_555
Fe13 Fe46 2.590065 1_555
Fe13 Fe3 2.627138 1_555
Fe13 Fe2 2.627138 1_555
Fe13 Fe5 2.763166 1_555
Fe14 Fe30 2.359791 1_555
Fe14 Fe22 2.359791 1_555
Fe14 Fe15 2.401574 1_665
Fe14 Fe35 2.499835 1_665
Fe14 Fe36 2.590065 1_555
Fe14 Fe44 2.590065 1_555
Fe14 Fe6 2.763166 1_555
Fe15 Fe23 2.359791 1_555
Fe15 Fe31 2.359791 1_555
Fe15 Fe35 2.499835 1_555
Fe15 Fe45 2.590065 1_555
Fe15 Fe37 2.590065 1_555
Fe15 Fe7 2.763166 1_555
Fe16 Fe8 2.359791 1_555
Fe16 Fe37 2.438875 1_555
Fe16 Fe52 2.442011 1_555
Fe16 Fe51 2.496320 1_555
Fe16 Fe36 2.505568 1_455
Fe16 Fe31 2.546767 1_555
Fe16 Fe30 2.546767 1_455
Fe16 Fe17 2.550887 1_455
Fe16 Fe7 2.632021 1_555
Fe17 Fe9 2.359791 1_555
Fe17 Fe36 2.438875 1_555
Fe17 Fe52 2.442011 1_655
Fe17 Fe50 2.496320 1_555
Fe17 Fe37 2.505568 1_655
Fe17 Fe30 2.546767 1_555
Fe17 Fe31 2.546767 1_655
Fe17 Fe6 2.632021 1_555
Fe18 Fe39 2.438875 1_545
Fe18 Fe53 2.442011 1_556
Fe18 Fe48 2.496320 1_555
Fe18 Fe38 2.505568 1_555
Fe18 Fe28 2.546767 1_545
Fe18 Fe29 2.546767 1_555
Fe18 Fe19 2.550887 1_545
Fe18 Fe2 2.610838 1_555
Fe18 Fe5 2.632021 1_545
Fe19 Fe38 2.438875 1_565
Fe19 Fe53 2.442011 1_566
Fe19 Fe49 2.496320 1_555
Fe19 Fe39 2.505568 1_555
Fe19 Fe28 2.546767 1_555
Fe19 Fe29 2.546767 1_565
Fe19 Fe3 2.610838 1_555
Fe19 Fe4 2.632021 1_565
Fe20 Fe41 2.438875 1_555
Fe20 Fe52 2.442011 1_655
Fe20 Fe47 2.496320 1_555
Fe20 Fe40 2.505568 1_655
Fe20 Fe26 2.546767 1_655
Fe20 Fe27 2.546767 1_555
Fe20 Fe21 2.550887 1_655
Fe20 Fe4 2.610838 1_555
Fe20 Fe3 2.632021 1_555
Fe21 Fe40 2.438875 1_555
Fe21 Fe52 2.442011 1_555
Fe21 Fe46 2.496320 1_555
Fe21 Fe41 2.505568 1_455
Fe21 Fe27 2.546767 1_455
Fe21 Fe26 2.546767 1_555
Fe21 Fe5 2.610838 1_555
Fe22 Fe43 2.438875 1_565
Fe22 Fe53 2.442011 1_565
Fe22 Fe44 2.496320 1_555
Fe22 Fe42 2.505568 1_555
Fe22 Fe25 2.546767 1_555
Fe22 Fe24 2.546767 1_565
Fe22 Fe23 2.550887 1_565
Fe22 Fe6 2.610838 1_555
Fe23 Fe42 2.438875 1_545
Fe23 Fe53 2.442011 1_555
Fe23 Fe45 2.496320 1_555
Fe23 Fe43 2.505568 1_555
Fe23 Fe25 2.546767 1_545
Fe23 Fe24 2.546767 1_555
Fe23 Fe7 2.610838 1_555
Fe24 Fe9 2.359791 1_555
Fe24 Fe45 2.438875 1_555
Fe24 Fe54 2.442011 1_555
Fe24 Fe43 2.496320 1_555
Fe24 Fe44 2.505568 1_545
Fe24 Fe25 2.550887 1_545
Fe24 Fe7 2.632021 1_555
Fe25 Fe8 2.359791 1_555
Fe25 Fe44 2.438875 1_555
Fe25 Fe54 2.442011 1_565
Fe25 Fe42 2.496320 1_555
Fe25 Fe45 2.505568 1_565
Fe25 Fe6 2.632021 1_555
Fe26 Fe47 2.438875 1_455
Fe26 Fe55 2.442011 1_556
Fe26 Fe40 2.496320 1_555
Fe26 Fe46 2.505568 1_555
Fe26 Fe27 2.550887 1_455
Fe26 Fe4 2.632021 1_455
Fe27 Fe46 2.438875 1_655
Fe27 Fe55 2.442011 1_656
Fe27 Fe41 2.496320 1_555
Fe27 Fe47 2.505568 1_555
Fe27 Fe3 2.610838 1_555
Fe27 Fe5 2.632021 1_655
Fe28 Fe49 2.438875 1_555
Fe28 Fe54 2.442011 1_565
Fe28 Fe39 2.496320 1_555
Fe28 Fe48 2.505568 1_565
Fe28 Fe29 2.550887 1_565
Fe28 Fe5 2.610838 1_555
Fe28 Fe3 2.632021 1_555
Fe29 Fe48 2.438875 1_555
Fe29 Fe54 2.442011 1_555
Fe29 Fe38 2.496320 1_555
Fe29 Fe49 2.505568 1_545
Fe29 Fe4 2.610838 1_555
Fe30 Fe51 2.438875 1_655
Fe30 Fe55 2.442011 1_655
Fe30 Fe36 2.496320 1_555
Fe30 Fe50 2.505568 1_555
Fe30 Fe31 2.550887 1_655
Fe30 Fe6 2.610838 1_555
Fe31 Fe50 2.438875 1_455
Fe31 Fe55 2.442011 1_555
Fe31 Fe37 2.496320 1_555
Fe31 Fe51 2.505568 1_555
Fe31 Fe7 2.610838 1_555
Fe32 Fe9 2.499835 1_555
Fe32 Fe8 2.499835 1_555
Fe32 Fe6 2.748398 1_555
Fe32 Fe7 2.748398 1_555
Fe33 Fe4 2.748398 1_455
Fe33 Fe5 2.748398 1_545
Fe36 Fe52 2.532326 1_655
Fe36 Fe6 2.686441 1_555
Fe37 Fe52 2.532326 1_555
Fe37 Fe7 2.686441 1_555
Fe38 Fe53 2.532326 1_556
Fe38 Fe4 2.686441 1_555
Fe39 Fe53 2.532326 1_566
Fe39 Fe5 2.686441 1_555
Fe40 Fe52 2.532326 1_555
Fe41 Fe52 2.532326 1_655
Fe41 Fe5 2.729816 1_655
Fe42 Fe53 2.532326 1_565
Fe42 Fe8 2.590065 1_555
Fe42 Fe6 2.729816 1_555
Fe43 Fe53 2.532326 1_555
Fe43 Fe9 2.590065 1_555
Fe43 Fe7 2.729816 1_555
Fe44 Fe54 2.532326 1_565
Fe44 Fe6 2.686441 1_555
Fe45 Fe54 2.532326 1_555
Fe45 Fe7 2.686441 1_555
Fe46 Fe55 2.532326 1_556
Fe46 Fe5 2.686441 1_555
Fe47 Fe55 2.532326 1_656
Fe48 Fe54 2.532326 1_555
Fe48 Fe5 2.729816 1_545
Fe49 Fe54 2.532326 1_565
Fe50 Fe55 2.532326 1_655
Fe50 Fe9 2.590065 1_555
Fe50 Fe6 2.729816 1_555
Fe51 Fe55 2.532326 1_555
Fe51 Fe8 2.590065 1_555
Fe51 Fe7 2.729816 1_555
B0 Fe36 2.053150 1_555
B0 Fe49 2.053150 1_555
B0 Fe41 2.053150 1_555
B0 Fe44 2.053150 1_555
B0 Fe35 2.084228 1_665
B0 Fe33 2.084228 1_665
B0 Er0 2.836375 1_555
B1 Fe40 2.053150 1_555
B1 Fe37 2.053150 1_555
B1 Fe48 2.053150 1_555
B1 Fe45 2.053150 1_555
B1 Fe35 2.084228 1_555
B1 Fe33 2.084228 1_555
B1 Er1 2.836375 1_555
B2 Fe43 2.053150 1_555
B2 Fe47 2.053150 1_554
B2 Fe38 2.053150 1_554
B2 Fe50 2.053150 1_555
B2 Fe32 2.084228 1_555
B2 Fe34 2.084228 1_554
B2 Er2 2.836375 1_555
B3 Fe46 2.053150 1_554
B3 Fe51 2.053150 1_555
B3 Fe39 2.053150 1_554
B3 Fe42 2.053150 1_555
B3 Fe32 2.084228 1_555
B3 Fe34 2.084228 1_554
B3 Er3 2.836375 1_555
