# generated using pymatgen
data_BaCaSmSbO6
_symmetry_space_group_name_H-M   'P 1'
_cell_length_a   8.44987693
_cell_length_b   8.44604468
_cell_length_c   8.47195828
_cell_angle_alpha   90.00000000
_cell_angle_beta   90.00000000
_cell_angle_gamma   90.00000000
_symmetry_Int_Tables_number   1
_chemical_formula_structural   BaCaSmSbO6
_chemical_formula_sum   'Ba4 Ca4 Sm4 Sb4 O24'
_cell_volume   604.62704123
_cell_formula_units_Z   4
loop_
 _symmetry_equiv_pos_site_id
 _symmetry_equiv_pos_as_xyz
  1  'x, y, z'
loop_
 _atom_site_type_symbol
 _atom_site_label
 _atom_site_symmetry_multiplicity
 _atom_site_fract_x
 _atom_site_fract_y
 _atom_site_fract_z
 _atom_site_occupancy
  Ba  Ba0  1  -0.00000000  -0.00000000  -0.00000000  1
  Ba  Ba1  1  0.50000000  0.50000000  0.50000000  1
  Ba  Ba2  1  0.50000000  -0.00000000  -0.00000000  1
  Ba  Ba3  1  0.00000000  -0.00000000  0.50000000  1
  Ca  Ca0  1  -0.00000000  0.50000000  0.50000000  1
  Ca  Ca1  1  0.50000000  -0.00000000  0.50000000  1
  Ca  Ca2  1  0.50000000  0.50000000  -0.00000000  1
  Ca  Ca3  1  0.00000000  0.50000000  -0.00000000  1
  Sm  Sm0  1  0.25174554  0.25470840  0.25098056  1
  Sm  Sm1  1  0.74825446  0.74529160  0.25098056  1
  Sm  Sm2  1  0.74825446  0.25470840  0.74901944  1
  Sm  Sm3  1  0.25174554  0.74529160  0.74901944  1
  Sb  Sb0  1  0.75086592  0.74344784  0.74838051  1
  Sb  Sb1  1  0.24913408  0.25655216  0.74838051  1
  Sb  Sb2  1  0.24913408  0.74344784  0.25161949  1
  Sb  Sb3  1  0.75086592  0.25655216  0.25161949  1
  O  O0  1  0.98511666  0.22703105  0.28151231  1
  O  O1  1  0.01488334  0.77296895  0.28151231  1
  O  O2  1  0.01488334  0.22703105  0.71848769  1
  O  O3  1  0.98511666  0.77296895  0.71848769  1
  O  O4  1  0.27265431  0.98044987  0.21842273  1
  O  O5  1  0.27265431  0.01955013  0.78157727  1
  O  O6  1  0.72734569  0.01955013  0.21842273  1
  O  O7  1  0.72734569  0.98044987  0.78157727  1
  O  O8  1  0.20863523  0.29759263  0.98239702  1
  O  O9  1  0.79136477  0.29759263  0.01760298  1
  O  O10  1  0.20863523  0.70240737  0.01760298  1
  O  O11  1  0.79136477  0.70240737  0.98239702  1
  O  O12  1  0.51925919  0.29941856  0.20451448  1
  O  O13  1  0.48074081  0.70058144  0.20451448  1
  O  O14  1  0.48074081  0.29941856  0.79548552  1
  O  O15  1  0.51925919  0.70058144  0.79548552  1
  O  O16  1  0.21141169  0.51495737  0.30664465  1
  O  O17  1  0.21141169  0.48504263  0.69335535  1
  O  O18  1  0.78858831  0.48504263  0.30664465  1
  O  O19  1  0.78858831  0.51495737  0.69335535  1
  O  O20  1  0.30249901  0.21158023  0.51788327  1
  O  O21  1  0.69750099  0.21158023  0.48211673  1
  O  O22  1  0.30249901  0.78841977  0.48211673  1
  O  O23  1  0.69750099  0.78841977  0.51788327  1
loop_
_geom_bond_atom_site_label_1
_geom_bond_atom_site_label_2
_geom_bond_distance
_geom_bond_site_symmetry_2
Ba0 O7 2.959634 1_444
Ba0 O6 2.959634 1_455
Ba0 O5 2.959634 1_554
Ba0 O4 2.959634 1_545
Ba0 O1 3.062795 1_545
Ba0 O2 3.062795 1_554
Ba0 O0 3.062795 1_455
Ba0 O3 3.062795 1_444
Ba0 O11 3.073726 1_444
Ba0 O9 3.073726 1_455
Ba0 O10 3.073726 1_545
Ba0 O8 3.073726 1_554
Ba1 O18 2.940371 1_555
Ba1 O19 2.940371 1_555
Ba1 O16 2.940371 1_555
Ba1 O17 2.940371 1_555
Ba1 O20 2.956716 1_555
Ba1 O23 2.956716 1_555
Ba1 O21 2.956716 1_555
Ba1 O22 2.956716 1_555
Ba1 O14 3.027085 1_555
Ba1 O12 3.027085 1_555
Ba1 O13 3.027085 1_555
Ba1 O15 3.027085 1_555
Ba2 O4 2.672434 1_545
Ba2 O5 2.672434 1_554
Ba2 O7 2.672434 1_544
Ba2 O6 2.672434 1_555
Ba2 O13 3.069832 1_545
Ba2 O15 3.069832 1_544
Ba2 O12 3.069832 1_555
Ba2 O14 3.069832 1_554
Ba3 O1 2.668136 1_545
Ba3 O0 2.668136 1_455
Ba3 O2 2.668136 1_555
Ba3 O3 2.668136 1_445
Ba3 O21 3.122487 1_455
Ba3 O20 3.122487 1_555
Ba3 O23 3.122487 1_445
Ba3 O22 3.122487 1_545
Ba3 O7 3.320521 1_445
Ba3 O6 3.320521 1_455
Ba3 O5 3.320521 1_555
Ba3 O4 3.320521 1_545
Ca0 O18 2.427048 1_455
Ca0 O16 2.427048 1_555
Ca0 O17 2.427048 1_555
Ca0 O19 2.427048 1_455
Ca0 O1 2.959299 1_555
Ca0 O3 2.959299 1_455
Ca0 O0 2.959299 1_455
Ca0 O2 2.959299 1_555
Ca1 O20 2.449790 1_555
Ca1 O21 2.449790 1_555
Ca1 O23 2.449790 1_545
Ca1 O22 2.449790 1_545
Ca1 O5 3.067301 1_555
Ca1 O6 3.067301 1_555
Ca1 O4 3.067301 1_545
Ca1 O7 3.067301 1_545
Ca2 O14 2.428695 1_554
Ca2 O13 2.428695 1_555
Ca2 O15 2.428695 1_554
Ca2 O12 2.428695 1_555
Ca3 O9 2.460231 1_455
Ca3 O11 2.460231 1_454
Ca3 O8 2.460231 1_554
Ca3 O10 2.460231 1_555
O0 Sb3 2.011042 1_555
O0 Sm0 2.279798 1_655
O1 Sb2 2.011042 1_555
O1 Sm1 2.279798 1_455
O2 Sb1 2.011042 1_555
O2 Sm2 2.279798 1_455
O3 Sb0 2.011042 1_555
O3 Sm3 2.279798 1_655
O4 Sb2 2.031137 1_555
O4 Sm0 2.339445 1_565
O5 Sb1 2.031137 1_555
O5 Sm3 2.339445 1_545
O6 Sb3 2.031137 1_555
O6 Sm1 2.339445 1_545
O7 Sb0 2.031137 1_555
O7 Sm2 2.339445 1_565
O8 Sb1 2.041538 1_555
O8 Sm0 2.332694 1_556
O9 Sb3 2.041538 1_555
O9 Sm2 2.332694 1_554
O10 Sb2 2.041538 1_555
O10 Sm3 2.332694 1_554
O11 Sb0 2.041538 1_555
O11 Sm1 2.332694 1_556
O12 Sb3 2.029871 1_555
O12 Sm0 2.325346 1_555
O13 Sb2 2.029871 1_555
O13 Sm1 2.325346 1_555
O14 Sb1 2.029871 1_555
O14 Sm2 2.325346 1_555
O15 Sb0 2.029871 1_555
O15 Sm3 2.325346 1_555
O16 Sb2 2.010771 1_555
O16 Sm0 2.273781 1_555
O17 Sb1 2.010771 1_555
O17 Sm3 2.273781 1_555
O18 Sb3 2.010771 1_555
O18 Sm1 2.273781 1_555
O19 Sb0 2.010771 1_555
O19 Sm2 2.273781 1_555
O20 Sb1 2.039827 1_555
O20 Sm0 2.330146 1_555
O21 Sb3 2.039827 1_555
O21 Sm2 2.330146 1_555
O22 Sb2 2.039827 1_555
O22 Sm3 2.330146 1_555
O23 Sb0 2.039827 1_555
O23 Sm1 2.330146 1_555
