# generated using pymatgen
data_HoAlCu
_symmetry_space_group_name_H-M   'P 1'
_cell_length_a   6.96769776
_cell_length_b   6.96769776
_cell_length_c   3.98324902
_cell_angle_alpha   90.00000000
_cell_angle_beta   90.00000000
_cell_angle_gamma   120.00005123
_symmetry_Int_Tables_number   1
_chemical_formula_structural   HoAlCu
_chemical_formula_sum   'Ho3 Al3 Cu3'
_cell_volume   167.47364500
_cell_formula_units_Z   3
loop_
 _symmetry_equiv_pos_site_id
 _symmetry_equiv_pos_as_xyz
  1  'x, y, z'
loop_
 _atom_site_type_symbol
 _atom_site_label
 _atom_site_symmetry_multiplicity
 _atom_site_fract_x
 _atom_site_fract_y
 _atom_site_fract_z
 _atom_site_occupancy
  Ho  Ho0  1  0.41514231  0.41514231  0.50000000  1
  Ho  Ho1  1  0.58485769  0.00000000  0.50000000  1
  Ho  Ho2  1  0.00000000  0.58485769  0.50000000  1
  Al  Al0  1  0.76654051  0.76654051  0.00000000  1
  Al  Al1  1  0.23345949  0.00000000  0.00000000  1
  Al  Al2  1  0.00000000  0.23345949  -0.00000000  1
  Cu  Cu0  1  -0.00000000  -0.00000000  0.50000000  1
  Cu  Cu1  1  0.66666700  0.33333300  0.00000000  1
  Cu  Cu2  1  0.33333300  0.66666700  0.00000000  1
loop_
_geom_bond_atom_site_label_1
_geom_bond_atom_site_label_2
_geom_bond_distance
_geom_bond_site_symmetry_2
Al0 Cu0 2.571505 1_664
Al0 Cu0 2.571505 1_665
Al0 Cu2 2.737671 1_555
Al0 Cu1 2.737671 1_555
Al0 Al2 2.817483 1_665
Al0 Al1 2.817483 1_665
Al0 Ho0 3.156169 1_555
Al0 Ho0 3.156169 1_554
Al0 Ho1 3.205370 1_565
Al0 Ho1 3.205370 1_564
Al0 Ho2 3.205370 1_655
Al0 Ho2 3.205370 1_654
Al1 Cu0 2.571505 1_555
Al1 Cu0 2.571505 1_554
Al1 Cu2 2.737665 1_545
Al1 Cu1 2.737667 1_555
Al1 Al2 2.817485 1_555
Al1 Ho1 3.156170 1_554
Al1 Ho1 3.156170 1_555
Al1 Ho2 3.205369 1_545
Al1 Ho2 3.205369 1_544
Al1 Ho0 3.205369 1_555
Al1 Ho0 3.205369 1_554
Al2 Cu0 2.571505 1_555
Al2 Cu0 2.571505 1_554
Al2 Cu1 2.737665 1_455
Al2 Cu2 2.737667 1_555
Al2 Ho2 3.156170 1_554
Al2 Ho2 3.156170 1_555
Al2 Ho1 3.205369 1_454
Al2 Ho1 3.205369 1_455
Al2 Ho0 3.205369 1_555
Al2 Ho0 3.205369 1_554
Cu0 Ho0 2.892584 1_555
Cu0 Ho2 2.892586 1_545
Cu0 Ho1 2.892586 1_455
Cu1 Ho1 2.891692 1_555
Cu1 Ho1 2.891692 1_554
Cu1 Ho2 2.891692 1_655
Cu1 Ho2 2.891692 1_654
Cu1 Ho0 2.891697 1_555
Cu1 Ho0 2.891697 1_554
Cu2 Ho2 2.891692 1_554
Cu2 Ho2 2.891692 1_555
Cu2 Ho1 2.891692 1_565
Cu2 Ho1 2.891692 1_564
Cu2 Ho0 2.891697 1_555
Cu2 Ho0 2.891697 1_554
