# generated using pymatgen
data_Mg4Si3
_symmetry_space_group_name_H-M   'P 1'
_cell_length_a   5.28441000
_cell_length_b   6.78924317
_cell_length_c   7.97082858
_cell_angle_alpha   68.85574554
_cell_angle_beta   86.25391970
_cell_angle_gamma   84.76387081
_symmetry_Int_Tables_number   1
_chemical_formula_structural   Mg4Si3
_chemical_formula_sum   'Mg8 Si6'
_cell_volume   265.44284351
_cell_formula_units_Z   2
loop_
 _symmetry_equiv_pos_site_id
 _symmetry_equiv_pos_as_xyz
  1  'x, y, z'
loop_
 _atom_site_type_symbol
 _atom_site_label
 _atom_site_symmetry_multiplicity
 _atom_site_fract_x
 _atom_site_fract_y
 _atom_site_fract_z
 _atom_site_occupancy
  Mg  Mg0  1  0.77914000  0.26294700  0.26011100  1
  Mg  Mg1  1  0.58226900  0.06485900  0.01285700  1
  Mg  Mg2  1  0.16781500  0.41674200  0.44051500  1
  Mg  Mg3  1  0.62314000  0.43926100  0.62164000  1
  Mg  Mg4  1  0.57940900  0.64817400  0.89854600  1
  Mg  Mg5  1  0.34831000  0.93330900  0.41900800  1
  Mg  Mg6  1  0.87382700  0.01005200  0.65969500  1
  Mg  Mg7  1  0.08211300  0.76564800  0.06907200  1
  Si  Si0  1  0.58942900  0.65879200  0.24918000  1
  Si  Si1  1  0.27287000  0.34031300  0.11983700  1
  Si  Si2  1  0.05077900  0.23157700  0.90252600  1
  Si  Si3  1  0.87255200  0.80233000  0.40874800  1
  Si  Si4  1  0.06756300  0.60542900  0.71729400  1
  Si  Si5  1  0.36062400  0.07068600  0.72087100  1
loop_
_geom_bond_atom_site_label_1
_geom_bond_atom_site_label_2
_geom_bond_distance
_geom_bond_site_symmetry_2
Mg0 Si0 2.754258 1_555
Mg0 Si1 2.789005 1_655
Mg0 Si1 2.897270 1_555
Mg0 Si3 2.923814 1_545
Mg0 Si2 3.174479 1_654
Mg1 Si5 2.659209 1_554
Mg1 Si1 2.703312 1_555
Mg1 Si0 2.719177 1_545
Mg1 Si2 2.773626 1_654
Mg1 Si2 2.994536 1_554
Mg2 Si5 2.761285 1_555
Mg2 Si1 2.798178 1_555
Mg2 Si3 2.860009 1_455
Mg2 Si0 2.899405 1_555
Mg2 Si4 2.924239 1_555
Mg3 Si5 2.806084 1_555
Mg3 Si0 2.809881 1_555
Mg3 Si3 2.824143 1_555
Mg3 Si4 2.950877 1_655
Mg3 Si2 3.147958 1_655
Mg3 Si4 3.193282 1_555
Mg4 Si1 2.772872 1_556
Mg4 Si0 2.825692 1_556
Mg4 Si5 2.872051 1_565
Mg4 Si4 2.916278 1_655
Mg4 Si4 3.231685 1_555
Mg5 Si3 2.757814 1_455
Mg5 Si3 2.836422 1_555
Mg5 Si0 2.844441 1_555
Mg5 Si5 2.883397 1_565
Mg5 Si1 2.941148 1_565
Mg5 Si4 3.022058 1_555
Mg6 Si4 2.728294 1_645
Mg6 Si5 2.743478 1_655
Mg6 Si5 2.744139 1_555
Mg6 Si3 2.833468 1_545
Mg6 Si2 3.078329 1_655
Mg7 Si1 2.863166 1_555
Mg7 Si0 2.910447 1_455
Mg7 Si3 2.943340 1_455
Mg7 Si2 2.949540 1_564
Mg7 Si0 3.028346 1_555
Mg7 Si5 3.167649 1_564
Si0 Si3 2.492946 1_555
Si1 Si2 2.503799 1_554
Si2 Si4 2.439366 1_555
Si2 Si5 2.544687 1_555
Si3 Si4 2.570093 1_655
