# generated using pymatgen
data_Ca4Fe5(Si3O14)2
_symmetry_space_group_name_H-M   'P 1'
_cell_length_a   6.03036814
_cell_length_b   8.88621443
_cell_length_c   10.35685334
_cell_angle_alpha   94.98502709
_cell_angle_beta   73.90324722
_cell_angle_gamma   88.49979991
_symmetry_Int_Tables_number   1
_chemical_formula_structural   Ca4Fe5(Si3O14)2
_chemical_formula_sum   'Ca4 Fe5 Si6 O28'
_cell_volume   530.48534228
_cell_formula_units_Z   1
loop_
 _symmetry_equiv_pos_site_id
 _symmetry_equiv_pos_as_xyz
  1  'x, y, z'
loop_
 _atom_site_type_symbol
 _atom_site_label
 _atom_site_symmetry_multiplicity
 _atom_site_fract_x
 _atom_site_fract_y
 _atom_site_fract_z
 _atom_site_occupancy
  Ca  Ca0  1  0.84956500  0.74042200  0.32450900  1
  Ca  Ca1  1  0.15043500  0.25957800  0.67549100  1
  Ca  Ca2  1  0.66211100  0.80816200  0.68643300  1
  Ca  Ca3  1  0.33788900  0.19183800  0.31356700  1
  Fe  Fe0  1  0.74274600  0.74512900  0.01112500  1
  Fe  Fe1  1  0.75003700  0.25602200  0.98659500  1
  Fe  Fe2  1  0.25725400  0.25487100  0.98887500  1
  Fe  Fe3  1  0.24996300  0.74397800  0.01340500  1
  Fe  Fe4  1  0.50000000  0.50000000  0.50000000  1
  Si  Si0  1  0.09297000  0.94601900  0.81615600  1
  Si  Si1  1  0.90703000  0.05398100  0.18384400  1
  Si  Si2  1  0.41510900  0.53524500  0.19755900  1
  Si  Si3  1  0.58489100  0.46475500  0.80244100  1
  Si  Si4  1  0.24838100  0.84565300  0.50727700  1
  Si  Si5  1  0.75161900  0.15434700  0.49272300  1
  O  O0  1  0.54774200  0.62053400  0.90773200  1
  O  O1  1  0.45225800  0.37946600  0.09226800  1
  O  O2  1  0.03001400  0.62916300  0.95154600  1
  O  O3  1  0.96998600  0.37083700  0.04845400  1
  O  O4  1  0.48079700  0.73991100  0.50288200  1
  O  O5  1  0.98847900  0.23631600  0.49516400  1
  O  O6  1  0.51920300  0.26008900  0.49711800  1
  O  O7  1  0.01152100  0.76368400  0.50483600  1
  O  O8  1  0.31282500  0.95001000  0.38194400  1
  O  O9  1  0.68717500  0.04999000  0.61805600  1
  O  O10  1  0.46418400  0.85846500  0.06953000  1
  O  O11  1  0.53581600  0.14153500  0.93047000  1
  O  O12  1  0.30021800  0.85407500  0.85380400  1
  O  O13  1  0.14690800  0.14152500  0.14769100  1
  O  O14  1  0.69978200  0.14592500  0.14619600  1
  O  O15  1  0.85309200  0.85847500  0.85230900  1
  O  O16  1  0.94321400  0.87618200  0.11670500  1
  O  O17  1  0.05678600  0.12381800  0.88329500  1
  O  O18  1  0.64657600  0.63563000  0.16986100  1
  O  O19  1  0.80244800  0.36459100  0.82457000  1
  O  O20  1  0.35342400  0.36437000  0.83013900  1
  O  O21  1  0.19755200  0.63540900  0.17543000  1
  O  O22  1  0.22109400  0.51086200  0.62531200  1
  O  O23  1  0.77890600  0.48913800  0.37468800  1
  O  O24  1  0.63721900  0.52680900  0.65187200  1
  O  O25  1  0.36278100  0.47319100  0.34812800  1
  O  O26  1  0.18401900  0.96381000  0.65206200  1
  O  O27  1  0.81598100  0.03619000  0.34793800  1
loop_
_geom_bond_atom_site_label_1
_geom_bond_atom_site_label_2
_geom_bond_distance
_geom_bond_site_symmetry_2
Ca0 O7 2.332278 1_655
Ca0 O21 2.347075 1_655
Ca0 O23 2.359338 1_555
Ca0 O18 2.412170 1_555
Ca0 O4 2.466182 1_555
Ca0 O16 2.493829 1_555
Ca0 O27 2.615660 1_565
Ca1 O5 2.332278 1_455
Ca1 O19 2.347075 1_455
Ca1 O22 2.359338 1_555
Ca1 O20 2.412170 1_555
Ca1 O6 2.466182 1_555
Ca1 O17 2.493829 1_555
Ca1 O26 2.615660 1_545
Ca2 O9 2.316118 1_565
Ca2 O15 2.338430 1_555
Ca2 O12 2.380471 1_555
Ca2 O7 2.400616 1_655
Ca2 O4 2.482765 1_555
Ca2 O24 2.509061 1_555
Ca3 O8 2.316118 1_545
Ca3 O13 2.338430 1_555
Ca3 O14 2.380471 1_555
Ca3 O5 2.400616 1_455
Ca3 O6 2.482765 1_555
Ca3 O25 2.509061 1_555
Fe0 O10 1.855834 1_555
Fe0 O2 1.909692 1_654
Fe0 O18 1.940293 1_555
Fe0 O15 1.969477 1_554
Fe0 O0 2.077440 1_554
Fe0 O16 2.144472 1_555
Fe1 O11 1.850450 1_555
Fe1 O3 1.907653 1_556
Fe1 O14 1.949381 1_556
Fe1 O19 1.962093 1_555
Fe1 O1 2.055264 1_556
Fe1 O17 2.125300 1_655
Fe2 O11 1.855834 1_555
Fe2 O3 1.909692 1_456
Fe2 O20 1.940293 1_555
Fe2 O13 1.969477 1_556
Fe2 O1 2.077440 1_556
Fe2 O17 2.144472 1_555
Fe3 O10 1.850450 1_555
Fe3 O2 1.907653 1_554
Fe3 O12 1.949381 1_554
Fe3 O21 1.962093 1_555
Fe3 O0 2.055264 1_554
Fe3 O16 2.125300 1_455
Fe4 O23 1.811576 1_555
Fe4 O22 1.811576 1_555
Fe4 O24 1.970402 1_555
Fe4 O25 1.970402 1_555
Fe4 O6 2.129178 1_555
Fe4 O4 2.129178 1_555
O0 Si3 1.655760 1_555
O1 Si2 1.655760 1_555
O4 Si4 1.654567 1_555
O5 Si5 1.625635 1_555
O6 Si5 1.654567 1_555
O7 Si4 1.625635 1_555
O8 Si4 1.626121 1_555
O9 Si5 1.626121 1_555
O12 Si0 1.629004 1_555
O13 Si1 1.626989 1_455
O14 Si1 1.629004 1_555
O15 Si0 1.626989 1_655
O16 Si1 1.653565 1_565
O17 Si0 1.653565 1_545
O18 Si2 1.647424 1_555
O19 Si3 1.645302 1_555
O20 Si3 1.647424 1_555
O21 Si2 1.645302 1_555
O24 Si3 1.649583 1_555
O25 Si2 1.649583 1_555
O26 Si0 1.657876 1_555
O26 Si4 1.698215 1_555
O27 Si1 1.657876 1_555
O27 Si5 1.698215 1_555
