# generated using pymatgen
data_Al2Cu
_symmetry_space_group_name_H-M   'P 1'
_cell_length_a   8.21036400
_cell_length_b   8.21036400
_cell_length_c   5.78262600
_cell_angle_alpha   90.00000000
_cell_angle_beta   90.00000000
_cell_angle_gamma   90.00000000
_symmetry_Int_Tables_number   1
_chemical_formula_structural   Al2Cu
_chemical_formula_sum   'Al16 Cu8'
_cell_volume   389.80726399
_cell_formula_units_Z   8
loop_
 _symmetry_equiv_pos_site_id
 _symmetry_equiv_pos_as_xyz
  1  'x, y, z'
loop_
 _atom_site_type_symbol
 _atom_site_label
 _atom_site_symmetry_multiplicity
 _atom_site_fract_x
 _atom_site_fract_y
 _atom_site_fract_z
 _atom_site_occupancy
  Al  Al0_0  1  0.25000000  0.00000000  0.25000000  1
  Al  Al0_1  1  0.25000000  0.00000000  0.75000000  1
  Al  Al0_2  1  0.25000000  0.50000000  0.25000000  1
  Al  Al0_3  1  0.25000000  0.50000000  0.75000000  1
  Al  Al0_4  1  0.75000000  0.00000000  0.25000000  1
  Al  Al0_5  1  0.75000000  0.00000000  0.75000000  1
  Al  Al0_6  1  0.75000000  0.50000000  0.25000000  1
  Al  Al0_7  1  0.75000000  0.50000000  0.75000000  1
  Al  Al1_0  1  0.00000000  0.25000000  0.25000000  1
  Al  Al1_1  1  0.00000000  0.25000000  0.75000000  1
  Al  Al1_2  1  0.00000000  0.75000000  0.25000000  1
  Al  Al1_3  1  0.00000000  0.75000000  0.75000000  1
  Al  Al1_4  1  0.50000000  0.25000000  0.25000000  1
  Al  Al1_5  1  0.50000000  0.25000000  0.75000000  1
  Al  Al1_6  1  0.50000000  0.75000000  0.25000000  1
  Al  Al1_7  1  0.50000000  0.75000000  0.75000000  1
  Cu  Cu0_0  1  0.00000000  0.00000000  0.00000000  1
  Cu  Cu0_1  1  0.00000000  0.00000000  0.50000000  1
  Cu  Cu0_2  1  0.00000000  0.50000000  0.00000000  1
  Cu  Cu0_3  1  0.00000000  0.50000000  0.50000000  1
  Cu  Cu0_4  1  0.50000000  0.00000000  0.00000000  1
  Cu  Cu0_5  1  0.50000000  0.00000000  0.50000000  1
  Cu  Cu0_6  1  0.50000000  0.50000000  0.00000000  1
  Cu  Cu0_7  1  0.50000000  0.50000000  0.50000000  1
loop_
_geom_bond_atom_site_label_1
_geom_bond_atom_site_label_2
_geom_bond_distance
_geom_bond_site_symmetry_2
Al0_0 Cu0_4 2.510588 1_555
Al0_0 Cu0_1 2.510588 1_555
Al0_0 Cu0_5 2.510588 1_555
Al0_0 Cu0_0 2.510588 1_555
Al0_0 Al0_1 2.891313 1_555
Al0_0 Al0_1 2.891313 1_554
Al0_0 Al1_6 2.902802 1_545
Al0_0 Al1_0 2.902802 1_555
Al0_0 Al1_4 2.902802 1_555
Al0_0 Al1_2 2.902802 1_545
Al0_1 Cu0_0 2.510588 1_556
Al0_1 Cu0_1 2.510588 1_555
Al0_1 Cu0_5 2.510588 1_555
Al0_1 Cu0_4 2.510588 1_556
Al0_1 Al1_3 2.902802 1_545
Al0_1 Al1_7 2.902802 1_545
Al0_1 Al1_1 2.902802 1_555
Al0_1 Al1_5 2.902802 1_555
Al0_2 Cu0_6 2.510588 1_555
Al0_2 Cu0_2 2.510588 1_555
Al0_2 Cu0_3 2.510588 1_555
Al0_2 Cu0_7 2.510588 1_555
Al0_2 Al0_3 2.891313 1_555
Al0_2 Al0_3 2.891313 1_554
Al0_2 Al1_2 2.902802 1_555
Al0_2 Al1_0 2.902802 1_555
Al0_2 Al1_6 2.902802 1_555
Al0_2 Al1_4 2.902802 1_555
Al0_3 Cu0_2 2.510588 1_556
Al0_3 Cu0_6 2.510588 1_556
Al0_3 Cu0_3 2.510588 1_555
Al0_3 Cu0_7 2.510588 1_555
Al0_3 Al1_3 2.902802 1_555
Al0_3 Al1_7 2.902802 1_555
Al0_3 Al1_1 2.902802 1_555
Al0_3 Al1_5 2.902802 1_555
Al0_4 Cu0_0 2.510588 1_655
Al0_4 Cu0_4 2.510588 1_555
Al0_4 Cu0_5 2.510588 1_555
Al0_4 Cu0_1 2.510588 1_655
Al0_4 Al0_5 2.891313 1_554
Al0_4 Al0_5 2.891313 1_555
Al0_4 Al1_6 2.902802 1_545
Al0_4 Al1_2 2.902802 1_645
Al0_4 Al1_0 2.902802 1_655
Al0_4 Al1_4 2.902802 1_555
Al0_5 Cu0_5 2.510588 1_555
Al0_5 Cu0_4 2.510588 1_556
Al0_5 Cu0_0 2.510588 1_656
Al0_5 Cu0_1 2.510588 1_655
Al0_5 Al1_1 2.902802 1_655
Al0_5 Al1_7 2.902802 1_545
Al0_5 Al1_5 2.902802 1_555
Al0_5 Al1_3 2.902802 1_645
Al0_6 Cu0_6 2.510588 1_555
Al0_6 Cu0_2 2.510588 1_655
Al0_6 Cu0_3 2.510588 1_655
Al0_6 Cu0_7 2.510588 1_555
Al0_6 Al0_7 2.891313 1_555
Al0_6 Al0_7 2.891313 1_554
Al0_6 Al1_6 2.902802 1_555
Al0_6 Al1_0 2.902802 1_655
Al0_6 Al1_2 2.902802 1_655
Al0_6 Al1_4 2.902802 1_555
Al0_7 Cu0_2 2.510588 1_656
Al0_7 Cu0_6 2.510588 1_556
Al0_7 Cu0_3 2.510588 1_655
Al0_7 Cu0_7 2.510588 1_555
Al0_7 Al1_1 2.902802 1_655
Al0_7 Al1_7 2.902802 1_555
Al0_7 Al1_3 2.902802 1_655
Al0_7 Al1_5 2.902802 1_555
Al1_0 Cu0_1 2.510588 1_555
Al1_0 Cu0_2 2.510588 1_555
Al1_0 Cu0_0 2.510588 1_555
Al1_0 Cu0_3 2.510588 1_555
Al1_0 Al1_1 2.891313 1_554
Al1_0 Al1_1 2.891313 1_555
Al1_1 Cu0_2 2.510588 1_556
Al1_1 Cu0_0 2.510588 1_556
Al1_1 Cu0_1 2.510588 1_555
Al1_1 Cu0_3 2.510588 1_555
Al1_2 Cu0_1 2.510588 1_565
Al1_2 Cu0_0 2.510588 1_565
Al1_2 Cu0_2 2.510588 1_555
Al1_2 Cu0_3 2.510588 1_555
Al1_2 Al1_3 2.891313 1_555
Al1_2 Al1_3 2.891313 1_554
Al1_3 Cu0_0 2.510588 1_566
Al1_3 Cu0_2 2.510588 1_556
Al1_3 Cu0_1 2.510588 1_565
Al1_3 Cu0_3 2.510588 1_555
Al1_4 Cu0_6 2.510588 1_555
Al1_4 Cu0_4 2.510588 1_555
Al1_4 Cu0_5 2.510588 1_555
Al1_4 Cu0_7 2.510588 1_555
Al1_4 Al1_5 2.891313 1_554
Al1_4 Al1_5 2.891313 1_555
Al1_5 Cu0_5 2.510588 1_555
Al1_5 Cu0_4 2.510588 1_556
Al1_5 Cu0_6 2.510588 1_556
Al1_5 Cu0_7 2.510588 1_555
Al1_6 Cu0_4 2.510588 1_565
Al1_6 Cu0_6 2.510588 1_555
Al1_6 Cu0_5 2.510588 1_565
Al1_6 Cu0_7 2.510588 1_555
Al1_6 Al1_7 2.891313 1_555
Al1_6 Al1_7 2.891313 1_554
Al1_7 Cu0_5 2.510588 1_565
Al1_7 Cu0_4 2.510588 1_566
Al1_7 Cu0_6 2.510588 1_556
Al1_7 Cu0_7 2.510588 1_555
