# generated using pymatgen
data_Ho2SbO2
_symmetry_space_group_name_H-M   'P 1'
_cell_length_a   7.12871778
_cell_length_b   7.12871778
_cell_length_c   7.12871778
_cell_angle_alpha   148.97599092
_cell_angle_beta   149.00173174
_cell_angle_gamma   44.42770550
_symmetry_Int_Tables_number   1
_chemical_formula_structural   Ho2SbO2
_chemical_formula_sum   'Ho2 Sb1 O2'
_cell_volume   95.87461554
_cell_formula_units_Z   1
loop_
 _symmetry_equiv_pos_site_id
 _symmetry_equiv_pos_as_xyz
  1  'x, y, z'
loop_
 _atom_site_type_symbol
 _atom_site_label
 _atom_site_symmetry_multiplicity
 _atom_site_fract_x
 _atom_site_fract_y
 _atom_site_fract_z
 _atom_site_occupancy
  Ho  Ho0  1  0.33364429  0.31929673  0.98565244  1
  Ho  Ho1  1  0.66635571  0.65200716  0.98565244  1
  Sb  Sb0  1  0.00000000  0.98265315  0.98265315  1
  O  O0  1  0.74994574  0.23546722  0.48552148  1
  O  O1  1  0.25005426  0.73557575  0.48552148  1
loop_
_geom_bond_atom_site_label_1
_geom_bond_atom_site_label_2
_geom_bond_distance
_geom_bond_site_symmetry_2
Ho0 O0 2.202129 1_455
Ho0 O0 2.202129 1_556
Ho0 O1 2.202314 1_556
Ho0 O1 2.203178 1_545
Ho0 Sb0 3.470097 1_656
Ho0 Sb0 3.470097 1_555
Ho0 Sb0 3.482641 1_544
Ho0 Sb0 3.482641 1_645
Ho1 O1 2.202131 1_656
Ho1 O1 2.202134 1_555
Ho1 O0 2.202319 1_566
Ho1 O0 2.203180 1_555
Ho1 Sb0 3.470093 1_656
Ho1 Sb0 3.470095 1_555
Ho1 Sb0 3.482635 1_645
Ho1 Sb0 3.482637 1_544
