# generated using pymatgen
data_MnFeSiO4
_symmetry_space_group_name_H-M   'P 1'
_cell_length_a   4.93289300
_cell_length_b   6.27828100
_cell_length_c   10.58583800
_cell_angle_alpha   90.00000000
_cell_angle_beta   90.00000000
_cell_angle_gamma   90.00000000
_symmetry_Int_Tables_number   1
_chemical_formula_structural   MnFeSiO4
_chemical_formula_sum   'Mn4 Fe4 Si4 O16'
_cell_volume   327.84433862
_cell_formula_units_Z   4
loop_
 _symmetry_equiv_pos_site_id
 _symmetry_equiv_pos_as_xyz
  1  'x, y, z'
loop_
 _atom_site_type_symbol
 _atom_site_label
 _atom_site_symmetry_multiplicity
 _atom_site_fract_x
 _atom_site_fract_y
 _atom_site_fract_z
 _atom_site_occupancy
  Mn  Mn0  1  0.50000000  0.00000000  0.50000000  1
  Mn  Mn1  1  0.00000000  0.50000000  0.00000000  1
  Mn  Mn2  1  0.50000000  0.50000000  0.50000000  1
  Mn  Mn3  1  0.00000000  0.00000000  0.00000000  1
  Fe  Fe0  1  0.48234400  0.75000000  0.78011500  1
  Fe  Fe1  1  0.01765600  0.75000000  0.28011500  1
  Fe  Fe2  1  0.51765600  0.25000000  0.21988500  1
  Fe  Fe3  1  0.98234400  0.25000000  0.71988500  1
  Si  Si0  1  0.92935300  0.75000000  0.59846600  1
  Si  Si1  1  0.57064700  0.75000000  0.09846600  1
  Si  Si2  1  0.07064700  0.25000000  0.40153400  1
  Si  Si3  1  0.42935300  0.25000000  0.90153400  1
  O  O0  1  0.78784000  0.96049200  0.66652600  1
  O  O1  1  0.71216000  0.53950800  0.16652600  1
  O  O2  1  0.21216000  0.46049200  0.33347400  1
  O  O3  1  0.28784000  0.03950800  0.83347400  1
  O  O4  1  0.21216000  0.03950800  0.33347400  1
  O  O5  1  0.28784000  0.46049200  0.83347400  1
  O  O6  1  0.78784000  0.53950800  0.66652600  1
  O  O7  1  0.71216000  0.96049200  0.16652600  1
  O  O8  1  0.70565900  0.75000000  0.95355100  1
  O  O9  1  0.79434100  0.75000000  0.45355100  1
  O  O10  1  0.29434100  0.25000000  0.04644900  1
  O  O11  1  0.20565900  0.25000000  0.54644900  1
  O  O12  1  0.26063300  0.75000000  0.59579400  1
  O  O13  1  0.23936700  0.75000000  0.09579400  1
  O  O14  1  0.73936700  0.25000000  0.40420600  1
  O  O15  1  0.76063300  0.25000000  0.90420600  1
loop_
_geom_bond_atom_site_label_1
_geom_bond_atom_site_label_2
_geom_bond_distance
_geom_bond_site_symmetry_2
Mn0 O9 2.193966 1_545
Mn0 O11 2.193966 1_555
Mn0 O12 2.210450 1_545
Mn0 O14 2.210450 1_555
Mn0 O4 2.277086 1_555
Mn0 O0 2.277086 1_545
Mn1 O10 2.193966 1_555
Mn1 O8 2.193966 1_454
Mn1 O13 2.210450 1_555
Mn1 O15 2.210450 1_454
Mn1 O1 2.277086 1_455
Mn1 O5 2.277086 1_554
Mn2 O9 2.193966 1_555
Mn2 O11 2.193966 1_555
Mn2 O12 2.210450 1_555
Mn2 O14 2.210450 1_555
Mn2 O6 2.277086 1_555
Mn2 O2 2.277086 1_555
Mn3 O10 2.193966 1_555
Mn3 O8 2.193966 1_444
Mn3 O13 2.210450 1_545
Mn3 O15 2.210450 1_454
Mn3 O7 2.277086 1_445
Mn3 O3 2.277086 1_554
Fe0 O3 2.131513 1_565
Fe0 O5 2.131513 1_555
Fe0 O8 2.141090 1_555
Fe0 O12 2.236801 1_555
Fe0 O0 2.337364 1_555
Fe0 O6 2.337364 1_555
Fe1 O4 2.131513 1_565
Fe1 O2 2.131513 1_555
Fe1 O9 2.141090 1_455
Fe1 O13 2.236801 1_555
Fe1 O7 2.337364 1_455
Fe1 O1 2.337364 1_455
Fe2 O1 2.131513 1_555
Fe2 O7 2.131513 1_545
Fe2 O10 2.141090 1_555
Fe2 O14 2.236801 1_555
Fe2 O2 2.337364 1_555
Fe2 O4 2.337364 1_555
Fe3 O6 2.131513 1_555
Fe3 O0 2.131513 1_545
Fe3 O11 2.141090 1_655
Fe3 O15 2.236801 1_555
Fe3 O5 2.337364 1_655
Fe3 O3 2.337364 1_655
O0 Si0 1.659161 1_555
O1 Si1 1.659161 1_555
O2 Si2 1.659161 1_555
O3 Si3 1.659161 1_555
O4 Si2 1.659161 1_555
O5 Si3 1.659161 1_555
O6 Si0 1.659161 1_555
O7 Si1 1.659161 1_555
O8 Si1 1.672380 1_556
O9 Si0 1.672380 1_555
O10 Si3 1.672380 1_554
O11 Si2 1.672380 1_555
O12 Si0 1.634414 1_455
O13 Si1 1.634414 1_555
O14 Si2 1.634414 1_655
O15 Si3 1.634414 1_555
