# generated using pymatgen
data_NiSn2Au
_symmetry_space_group_name_H-M   'P 1'
_cell_length_a   3.60426161
_cell_length_b   3.60426161
_cell_length_c   7.36801600
_cell_angle_alpha   90.00000000
_cell_angle_beta   90.00000000
_cell_angle_gamma   119.99999278
_symmetry_Int_Tables_number   1
_chemical_formula_structural   NiSn2Au
_chemical_formula_sum   'Ni1 Sn2 Au1'
_cell_volume   82.89223221
_cell_formula_units_Z   1
loop_
 _symmetry_equiv_pos_site_id
 _symmetry_equiv_pos_as_xyz
  1  'x, y, z'
loop_
 _atom_site_type_symbol
 _atom_site_label
 _atom_site_symmetry_multiplicity
 _atom_site_fract_x
 _atom_site_fract_y
 _atom_site_fract_z
 _atom_site_occupancy
  Ni  Ni0  1  0.00000000  0.00000000  0.00000000  1
  Sn  Sn0  1  0.33333300  0.66666700  0.77839600  1
  Sn  Sn1  1  0.33333300  0.66666700  0.22160400  1
  Au  Au0  1  0.66666700  0.33333300  0.50000000  1
loop_
_geom_bond_atom_site_label_1
_geom_bond_atom_site_label_2
_geom_bond_distance
_geom_bond_site_symmetry_2
Ni0 Sn1 2.645033 1_545
Ni0 Sn0 2.645033 1_544
Ni0 Sn0 2.645036 1_444
Ni0 Sn1 2.645036 1_445
Ni0 Sn1 2.645036 1_555
Ni0 Sn0 2.645036 1_554
Au0 Sn1 2.921944 1_545
Au0 Sn0 2.921944 1_545
Au0 Sn0 2.921944 1_655
Au0 Sn1 2.921944 1_655
Au0 Sn1 2.921948 1_555
Au0 Sn0 2.921948 1_555
