# generated using pymatgen
data_Na2Ca(PO4)2
_symmetry_space_group_name_H-M   'P 1'
_cell_length_a   7.24746300
_cell_length_b   5.50503900
_cell_length_c   9.16357454
_cell_angle_alpha   80.95897530
_cell_angle_beta   90.00000000
_cell_angle_gamma   90.00000000
_symmetry_Int_Tables_number   1
_chemical_formula_structural   Na2Ca(PO4)2
_chemical_formula_sum   'Na4 Ca2 P4 O16'
_cell_volume   361.06208448
_cell_formula_units_Z   2
loop_
 _symmetry_equiv_pos_site_id
 _symmetry_equiv_pos_as_xyz
  1  'x, y, z'
loop_
 _atom_site_type_symbol
 _atom_site_label
 _atom_site_symmetry_multiplicity
 _atom_site_fract_x
 _atom_site_fract_y
 _atom_site_fract_z
 _atom_site_occupancy
  Na  Na0  1  0.98387100  0.93683100  0.24189400  1
  Na  Na1  1  0.48387100  0.06316900  0.75810600  1
  Na  Na2  1  0.22794700  0.32527600  0.38374000  1
  Na  Na3  1  0.72794700  0.67472400  0.61626000  1
  Ca  Ca0  1  0.50357400  0.80280100  0.23278600  1
  Ca  Ca1  1  0.00357400  0.19719900  0.76721400  1
  P  P0  1  0.72111500  0.23761400  0.42444100  1
  P  P1  1  0.22111500  0.76238600  0.57555900  1
  P  P2  1  0.35835200  0.30639100  0.03669300  1
  P  P3  1  0.85835200  0.69360900  0.96330700  1
  O  O0  1  0.36469500  0.57240500  0.06952300  1
  O  O1  1  0.86469500  0.42759500  0.93047700  1
  O  O2  1  0.69363500  0.96753700  0.39956100  1
  O  O3  1  0.19363500  0.03246300  0.60043900  1
  O  O4  1  0.90062200  0.33963400  0.34225500  1
  O  O5  1  0.40062200  0.66036600  0.65774500  1
  O  O6  1  0.55501800  0.40107100  0.36899400  1
  O  O7  1  0.05501800  0.59892900  0.63100600  1
  O  O8  1  0.74910900  0.24545800  0.59201900  1
  O  O9  1  0.24910900  0.75454200  0.40798100  1
  O  O10  1  0.24670000  0.13925500  0.15712200  1
  O  O11  1  0.74670000  0.86074500  0.84287800  1
  O  O12  1  0.28171300  0.29475800  0.88097300  1
  O  O13  1  0.78171300  0.70524200  0.11902700  1
  O  O14  1  0.05455000  0.80960800  0.95019500  1
  O  O15  1  0.55455000  0.19039200  0.04980500  1
loop_
_geom_bond_atom_site_label_1
_geom_bond_atom_site_label_2
_geom_bond_distance
_geom_bond_site_symmetry_2
Na0 O10 2.280700 1_665
Na0 O13 2.343242 1_555
Na0 O9 2.557070 1_655
Na0 O2 2.572424 1_555
Na0 O4 2.601499 1_565
Na0 O14 2.913114 1_654
Na1 O11 2.280700 1_545
Na1 O12 2.343242 1_555
Na1 O8 2.557070 1_555
Na1 O3 2.572424 1_555
Na1 O5 2.601499 1_545
Na1 O15 2.913114 1_556
Na2 O3 2.365877 1_555
Na2 O4 2.401877 1_455
Na2 O6 2.406990 1_555
Na2 O9 2.412925 1_555
Na2 O10 2.459248 1_555
Na3 O2 2.365877 1_555
Na3 O5 2.401877 1_555
Na3 O7 2.406990 1_655
Na3 O8 2.412925 1_555
Na3 O11 2.459248 1_555
Ca0 O0 2.335886 1_555
Ca0 O2 2.343281 1_555
Ca0 O13 2.369500 1_555
Ca0 O6 2.391709 1_555
Ca0 O9 2.432088 1_555
Ca0 O15 2.525132 1_565
Ca0 O10 2.640760 1_565
Ca1 O1 2.335886 1_455
Ca1 O3 2.343281 1_555
Ca1 O12 2.369500 1_555
Ca1 O7 2.391709 1_555
Ca1 O8 2.432088 1_455
Ca1 O14 2.525132 1_545
Ca1 O11 2.640760 1_445
O0 P2 1.541297 1_555
O1 P3 1.541297 1_555
O2 P0 1.552000 1_565
O3 P1 1.552000 1_545
O4 P0 1.562754 1_555
O5 P1 1.562754 1_555
O6 P0 1.540541 1_555
O7 P1 1.540541 1_555
O8 P0 1.556270 1_555
O9 P1 1.556270 1_555
O10 P2 1.549222 1_555
O11 P3 1.549222 1_555
O12 P2 1.541922 1_556
O13 P3 1.541922 1_554
O14 P3 1.555639 1_455
O15 P2 1.555639 1_555
