# generated using pymatgen
data_KYb(MoO4)2
_symmetry_space_group_name_H-M   'P 1'
_cell_length_a   5.11545200
_cell_length_b   8.08237200
_cell_length_c   18.83837700
_cell_angle_alpha   90.00000000
_cell_angle_beta   90.00000000
_cell_angle_gamma   90.00000000
_symmetry_Int_Tables_number   1
_chemical_formula_structural   KYb(MoO4)2
_chemical_formula_sum   'K4 Yb4 Mo8 O32'
_cell_volume   778.87243356
_cell_formula_units_Z   4
loop_
 _symmetry_equiv_pos_site_id
 _symmetry_equiv_pos_as_xyz
  1  'x, y, z'
loop_
 _atom_site_type_symbol
 _atom_site_label
 _atom_site_symmetry_multiplicity
 _atom_site_fract_x
 _atom_site_fract_y
 _atom_site_fract_z
 _atom_site_occupancy
  K  K0  1  0.00000000  0.75000000  0.77022100  1
  K  K1  1  0.00000000  0.25000000  0.22977900  1
  K  K2  1  0.50000000  0.25000000  0.72977900  1
  K  K3  1  0.50000000  0.75000000  0.27022100  1
  Yb  Yb0  1  0.00000000  0.75000000  0.00666200  1
  Yb  Yb1  1  0.00000000  0.25000000  0.99333800  1
  Yb  Yb2  1  0.50000000  0.25000000  0.49333800  1
  Yb  Yb3  1  0.50000000  0.75000000  0.50666200  1
  Mo  Mo0  1  0.01362300  0.51441200  0.39830300  1
  Mo  Mo1  1  0.98637700  0.48558800  0.60169700  1
  Mo  Mo2  1  0.48637700  0.01441200  0.10169700  1
  Mo  Mo3  1  0.98637700  0.98558800  0.39830300  1
  Mo  Mo4  1  0.51362300  0.98558800  0.89830300  1
  Mo  Mo5  1  0.01362300  0.01441200  0.60169700  1
  Mo  Mo6  1  0.51362300  0.48558800  0.10169700  1
  Mo  Mo7  1  0.48637700  0.51441200  0.89830300  1
  O  O0  1  0.11253600  0.97760100  0.31179600  1
  O  O1  1  0.88746400  0.02239900  0.68820400  1
  O  O2  1  0.38746400  0.47760100  0.18820400  1
  O  O3  1  0.88746400  0.52239900  0.31179600  1
  O  O4  1  0.61253600  0.52239900  0.81179600  1
  O  O5  1  0.11253600  0.47760100  0.68820400  1
  O  O6  1  0.61253600  0.02239900  0.18820400  1
  O  O7  1  0.38746400  0.97760100  0.81179600  1
  O  O8  1  0.27422500  0.83693300  0.10025200  1
  O  O9  1  0.72577500  0.16306700  0.89974800  1
  O  O10  1  0.22577500  0.33693300  0.39974800  1
  O  O11  1  0.72577500  0.66306700  0.10025200  1
  O  O12  1  0.77422500  0.66306700  0.60025200  1
  O  O13  1  0.27422500  0.33693300  0.89974800  1
  O  O14  1  0.77422500  0.16306700  0.39974800  1
  O  O15  1  0.22577500  0.83693300  0.60025200  1
  O  O16  1  0.25333100  0.50317800  0.03470800  1
  O  O17  1  0.74666900  0.49682200  0.96529200  1
  O  O18  1  0.24666900  0.00317800  0.46529200  1
  O  O19  1  0.74666900  0.99682200  0.03470800  1
  O  O20  1  0.75333100  0.99682200  0.53470800  1
  O  O21  1  0.25333100  0.00317800  0.96529200  1
  O  O22  1  0.75333100  0.49682200  0.46529200  1
  O  O23  1  0.24666900  0.50317800  0.53470800  1
  O  O24  1  0.23559300  0.69282400  0.40719900  1
  O  O25  1  0.76440700  0.30717600  0.59280100  1
  O  O26  1  0.26440700  0.19282400  0.09280100  1
  O  O27  1  0.76440700  0.80717600  0.40719900  1
  O  O28  1  0.73559300  0.80717600  0.90719900  1
  O  O29  1  0.23559300  0.19282400  0.59280100  1
  O  O30  1  0.73559300  0.30717600  0.09280100  1
  O  O31  1  0.26440700  0.69282400  0.90719900  1
loop_
_geom_bond_atom_site_label_1
_geom_bond_atom_site_label_2
_geom_bond_distance
_geom_bond_site_symmetry_2
K0 O1 2.750601 1_465
K0 O5 2.750601 1_555
K0 O4 2.815300 1_455
K0 O7 2.815300 1_555
K0 O31 2.949858 1_555
K0 O28 2.949858 1_455
K1 O0 2.750601 1_545
K1 O3 2.750601 1_455
K1 O2 2.815300 1_555
K1 O6 2.815300 1_455
K1 O26 2.949858 1_555
K1 O30 2.949858 1_455
K2 O4 2.750601 1_555
K2 O7 2.750601 1_545
K2 O1 2.815300 1_555
K2 O5 2.815300 1_555
K2 O29 2.949858 1_555
K2 O25 2.949858 1_555
K3 O2 2.750601 1_555
K3 O6 2.750601 1_565
K3 O3 2.815300 1_555
K3 O0 2.815300 1_555
K3 O27 2.949858 1_555
K3 O24 2.949858 1_555
Mo0 O3 1.753973 1_455
Mo0 O10 1.798935 1_555
Mo0 O22 1.840024 1_455
Mo0 O24 1.843023 1_555
Mo1 O5 1.753973 1_655
Mo1 O12 1.798935 1_555
Mo1 O23 1.840024 1_655
Mo1 O25 1.843023 1_555
Mo2 O6 1.753973 1_555
Mo2 O8 1.798935 1_545
Mo2 O19 1.840024 1_545
Mo2 O26 1.843023 1_555
Mo3 O0 1.753973 1_655
Mo3 O14 1.798935 1_565
Mo3 O18 1.840024 1_665
Mo3 O27 1.843023 1_555
Mo4 O7 1.753973 1_555
Mo4 O9 1.798935 1_565
Mo4 O21 1.840024 1_565
Mo4 O28 1.843023 1_555
Mo5 O1 1.753973 1_455
Mo5 O15 1.798935 1_545
Mo5 O20 1.840024 1_445
Mo5 O29 1.843023 1_555
Mo6 O2 1.753973 1_555
Mo6 O11 1.798935 1_555
Mo6 O16 1.840024 1_555
Mo6 O30 1.843023 1_555
Mo7 O4 1.753973 1_555
Mo7 O13 1.798935 1_555
Mo7 O17 1.840024 1_555
Mo7 O31 1.843023 1_555
O8 Yb0 2.360074 1_555
O9 Yb1 2.360074 1_655
O10 Yb2 2.360074 1_555
O11 Yb0 2.360074 1_655
O12 Yb3 2.360074 1_555
O13 Yb1 2.360074 1_555
O14 Yb2 2.360074 1_555
O15 Yb3 2.360074 1_555
O16 Yb0 2.436835 1_555
O16 Yb1 2.544405 1_554
O17 Yb1 2.436835 1_655
O17 Yb0 2.544405 1_656
O18 Yb2 2.436835 1_555
O18 Yb3 2.544405 1_545
O19 Yb0 2.436835 1_655
O19 Yb1 2.544405 1_664
O20 Yb3 2.436835 1_555
O20 Yb2 2.544405 1_565
O21 Yb1 2.436835 1_555
O21 Yb0 2.544405 1_546
O22 Yb2 2.436835 1_555
O22 Yb3 2.544405 1_555
O23 Yb3 2.436835 1_555
O23 Yb2 2.544405 1_555
O24 Yb3 2.356652 1_555
O25 Yb2 2.356652 1_555
O26 Yb1 2.356652 1_554
O27 Yb3 2.356652 1_555
O28 Yb0 2.356652 1_656
O29 Yb2 2.356652 1_555
O30 Yb1 2.356652 1_654
O31 Yb0 2.356652 1_556
