# generated using pymatgen
data_Ba4Na(IrO4)3
_symmetry_space_group_name_H-M   'P 1'
_cell_length_a   7.17752502
_cell_length_b   7.17752502
_cell_length_c   7.17752502
_cell_angle_alpha   109.47122063
_cell_angle_beta   109.47122063
_cell_angle_gamma   109.47122063
_symmetry_Int_Tables_number   1
_chemical_formula_structural   Ba4Na(IrO4)3
_chemical_formula_sum   'Ba4 Na1 Ir3 O12'
_cell_volume   284.64414415
_cell_formula_units_Z   1
loop_
 _symmetry_equiv_pos_site_id
 _symmetry_equiv_pos_as_xyz
  1  'x, y, z'
loop_
 _atom_site_type_symbol
 _atom_site_label
 _atom_site_symmetry_multiplicity
 _atom_site_fract_x
 _atom_site_fract_y
 _atom_site_fract_z
 _atom_site_occupancy
  Ba  Ba0  1  0.00000000  0.50000000  0.00000000  1
  Ba  Ba1  1  0.50000000  0.50000000  0.50000000  1
  Ba  Ba2  1  0.00000000  0.00000000  0.50000000  1
  Ba  Ba3  1  0.50000000  0.00000000  0.00000000  1
  Na  Na0  1  0.00000000  0.00000000  0.00000000  1
  Ir  Ir0  1  0.50000000  0.50000000  0.00000000  1
  Ir  Ir1  1  0.50000000  0.00000000  0.50000000  1
  Ir  Ir2  1  0.00000000  0.50000000  0.50000000  1
  O  O0  1  0.25000000  0.75000000  0.50000000  1
  O  O1  1  0.72993100  0.72993100  0.00000000  1
  O  O2  1  0.27006900  0.27006900  0.00000000  1
  O  O3  1  0.75000000  0.25000000  0.50000000  1
  O  O4  1  0.27006900  0.00000000  0.27006900  1
  O  O5  1  0.72993100  0.00000000  0.72993100  1
  O  O6  1  0.25000000  0.50000000  0.75000000  1
  O  O7  1  0.75000000  0.50000000  0.25000000  1
  O  O8  1  0.50000000  0.75000000  0.25000000  1
  O  O9  1  0.00000000  0.72993100  0.72993100  1
  O  O10  1  0.50000000  0.25000000  0.75000000  1
  O  O11  1  0.00000000  0.27006900  0.27006900  1
loop_
_geom_bond_atom_site_label_1
_geom_bond_atom_site_label_2
_geom_bond_distance
_geom_bond_site_symmetry_2
Ba0 O6 2.930212 1_554
Ba0 O0 2.930212 1_555
Ba0 O7 2.930212 1_455
Ba0 O3 2.930212 1_454
Ba0 O8 2.930212 1_555
Ba0 O10 2.930212 1_454
Ba0 O2 2.934929 1_555
Ba0 O1 2.934929 1_455
Ba0 O5 2.934929 1_454
Ba0 O4 2.934929 1_565
Ba0 O9 2.934929 1_554
Ba0 O11 2.934929 1_555
Ba1 O0 2.930212 1_555
Ba1 O7 2.930212 1_555
Ba1 O8 2.930212 1_555
Ba1 O10 2.930212 1_555
Ba1 O3 2.930212 1_555
Ba1 O6 2.930212 1_555
Ba1 O1 2.934929 1_556
Ba1 O2 2.934929 1_555
Ba1 O5 2.934929 1_565
Ba1 O9 2.934929 1_655
Ba1 O4 2.934929 1_555
Ba1 O11 2.934929 1_555
Ba2 O0 2.930212 1_545
Ba2 O7 2.930212 1_445
Ba2 O10 2.930212 1_555
Ba2 O3 2.930212 1_455
Ba2 O8 2.930212 1_445
Ba2 O6 2.930212 1_555
Ba2 O1 2.934929 1_445
Ba2 O2 2.934929 1_556
Ba2 O5 2.934929 1_455
Ba2 O4 2.934929 1_555
Ba2 O9 2.934929 1_545
Ba2 O11 2.934929 1_555
Ba3 O8 2.930212 1_545
Ba3 O7 2.930212 1_555
Ba3 O10 2.930212 1_554
Ba3 O0 2.930212 1_544
Ba3 O6 2.930212 1_544
Ba3 O3 2.930212 1_555
Ba3 O2 2.934929 1_555
Ba3 O1 2.934929 1_545
Ba3 O4 2.934929 1_555
Ba3 O9 2.934929 1_544
Ba3 O11 2.934929 1_655
Ba3 O5 2.934929 1_554
Na0 O4 2.238303 1_555
Na0 O9 2.238303 1_544
Na0 O1 2.238303 1_445
Na0 O2 2.238303 1_555
Na0 O11 2.238303 1_555
Na0 O5 2.238303 1_454
Ir0 O2 1.905643 1_555
Ir0 O1 1.905643 1_555
Ir0 O7 2.071973 1_555
Ir0 O10 2.071973 1_554
Ir0 O8 2.071973 1_555
Ir0 O6 2.071973 1_554
Ir1 O5 1.905643 1_555
Ir1 O4 1.905643 1_555
Ir1 O8 2.071973 1_545
Ir1 O0 2.071973 1_545
Ir1 O10 2.071973 1_555
Ir1 O3 2.071973 1_555
Ir2 O11 1.905643 1_555
Ir2 O9 1.905643 1_555
Ir2 O7 2.071973 1_455
Ir2 O3 2.071973 1_455
Ir2 O0 2.071973 1_555
Ir2 O6 2.071973 1_555
