# generated using pymatgen
data_Na12MnCu2H16(SO4)8
_symmetry_space_group_name_H-M   'P 1'
_cell_length_a   9.79202392
_cell_length_b   13.06348276
_cell_length_c   13.27477916
_cell_angle_alpha   90.00000000
_cell_angle_beta   91.00333929
_cell_angle_gamma   90.00000000
_symmetry_Int_Tables_number   1
_chemical_formula_structural   Na12MnCu2H16(SO4)8
_chemical_formula_sum   'Na24 Mn2 Cu4 H32 S16 O64'
_cell_volume   1697.82199029
_cell_formula_units_Z   2
loop_
 _symmetry_equiv_pos_site_id
 _symmetry_equiv_pos_as_xyz
  1  'x, y, z'
loop_
 _atom_site_type_symbol
 _atom_site_label
 _atom_site_symmetry_multiplicity
 _atom_site_fract_x
 _atom_site_fract_y
 _atom_site_fract_z
 _atom_site_occupancy
  Na  Na0  1  0.83323841  0.04321392  0.57780418  1
  Na  Na1  1  0.33323841  0.45678608  0.07780418  1
  Na  Na2  1  0.16676159  0.95678608  0.42219582  1
  Na  Na3  1  0.66676159  0.54321392  0.92219582  1
  Na  Na4  1  0.98223660  0.27482277  0.55448459  1
  Na  Na5  1  0.48223660  0.22517723  0.05448459  1
  Na  Na6  1  0.01776340  0.72517723  0.44551541  1
  Na  Na7  1  0.51776340  0.77482277  0.94551541  1
  Na  Na8  1  0.56495020  0.15037351  0.73556026  1
  Na  Na9  1  0.06495020  0.34962649  0.23556026  1
  Na  Na10  1  0.43504980  0.84962649  0.26443974  1
  Na  Na11  1  0.93504980  0.65037351  0.76443974  1
  Na  Na12  1  0.78249416  0.90617057  0.79893181  1
  Na  Na13  1  0.28249416  0.59382943  0.29893181  1
  Na  Na14  1  0.21750584  0.09382943  0.20106819  1
  Na  Na15  1  0.71750584  0.40617057  0.70106819  1
  Na  Na16  1  0.34864532  0.38137577  0.61791507  1
  Na  Na17  1  0.84864532  0.11862423  0.11791507  1
  Na  Na18  1  0.65135468  0.61862423  0.38208493  1
  Na  Na19  1  0.15135468  0.88137577  0.88208493  1
  Na  Na20  1  0.22205028  0.05562803  0.66821705  1
  Na  Na21  1  0.72205028  0.44437197  0.16821705  1
  Na  Na22  1  0.77794972  0.94437197  0.33178295  1
  Na  Na23  1  0.27794972  0.55562803  0.83178295  1
  Mn  Mn0  1  0.50000000  0.00000000  0.50000000  1
  Mn  Mn1  1  0.00000000  0.50000000  0.00000000  1
  Cu  Cu0  1  0.96759533  0.25232799  0.87465701  1
  Cu  Cu1  1  0.46759533  0.24767201  0.37465701  1
  Cu  Cu2  1  0.03240467  0.74767201  0.12534299  1
  Cu  Cu3  1  0.53240467  0.75232799  0.62534299  1
  H  H0  1  0.15547413  0.85844087  0.61037604  1
  H  H1  1  0.65547413  0.64155913  0.11037604  1
  H  H2  1  0.84452587  0.14155913  0.38962396  1
  H  H3  1  0.34452587  0.35844087  0.88962396  1
  H  H4  1  0.99569747  0.87560331  0.60320432  1
  H  H5  1  0.49569747  0.62439669  0.10320432  1
  H  H6  1  0.00430253  0.12439669  0.39679568  1
  H  H7  1  0.50430253  0.37560331  0.89679568  1
  H  H8  1  0.51615251  0.02597412  0.89489835  1
  H  H9  1  0.01615251  0.47402588  0.39489835  1
  H  H10  1  0.48384749  0.97402588  0.10510165  1
  H  H11  1  0.98384749  0.52597412  0.60510165  1
  H  H12  1  0.63092281  0.09445190  0.93767382  1
  H  H13  1  0.13092281  0.40554810  0.43767382  1
  H  H14  1  0.36907719  0.90554810  0.06232618  1
  H  H15  1  0.86907719  0.59445190  0.56232618  1
  H  H16  1  0.26401323  0.24895493  0.77026947  1
  H  H17  1  0.76401323  0.25104507  0.27026947  1
  H  H18  1  0.73598677  0.75104507  0.22973053  1
  H  H19  1  0.23598677  0.74895493  0.72973053  1
  H  H20  1  0.32238187  0.17529805  0.85230591  1
  H  H21  1  0.82238187  0.32470195  0.35230591  1
  H  H22  1  0.67761813  0.82470195  0.14769409  1
  H  H23  1  0.17761813  0.67529805  0.64769409  1
  H  H24  1  0.61509478  0.50792865  0.56210759  1
  H  H25  1  0.11509478  0.99207135  0.06210759  1
  H  H26  1  0.38490522  0.49207135  0.43789241  1
  H  H27  1  0.88490522  0.00792865  0.93789241  1
  H  H28  1  0.71094616  0.43414741  0.50004219  1
  H  H29  1  0.21094616  0.06585259  0.00004219  1
  H  H30  1  0.28905384  0.56585259  0.49995781  1
  H  H31  1  0.78905384  0.93414741  -0.00004219  1
  S  S0  1  0.61048320  0.24743585  0.51338527  1
  S  S1  1  0.11048320  0.25256415  0.01338527  1
  S  S2  1  0.38951680  0.75256415  0.48661473  1
  S  S3  1  0.88951680  0.74743585  0.98661473  1
  S  S4  1  0.93894855  0.11440079  0.77540441  1
  S  S5  1  0.43894855  0.38559921  0.27540441  1
  S  S6  1  0.06105145  0.88559921  0.22459559  1
  S  S7  1  0.56105145  0.61440079  0.72459559  1
  S  S8  1  0.45325513  0.88731651  0.72044293  1
  S  S9  1  0.95325513  0.61268349  0.22044293  1
  S  S10  1  0.54674487  0.11268349  0.27955707  1
  S  S11  1  0.04674487  0.38731651  0.77955707  1
  S  S12  1  0.27471822  0.18574811  0.44322933  1
  S  S13  1  0.77471822  0.31425189  0.94322933  1
  S  S14  1  0.72528178  0.81425189  0.55677067  1
  S  S15  1  0.22528178  0.68574811  0.05677067  1
  O  O0  1  0.75090962  0.29565510  0.49723718  1
  O  O1  1  0.25090962  0.20434490  0.99723718  1
  O  O2  1  0.24909038  0.70434490  0.50276282  1
  O  O3  1  0.74909038  0.79565510  0.00276282  1
  O  O4  1  0.55820877  0.29353634  0.61104086  1
  O  O5  1  0.05820877  0.20646366  0.11104086  1
  O  O6  1  0.44179123  0.70646366  0.38895914  1
  O  O7  1  0.94179123  0.79353634  0.88895914  1
  O  O8  1  0.00148176  0.01731503  0.82103174  1
  O  O9  1  0.50148176  0.48268497  0.32103174  1
  O  O10  1  0.99851824  0.98268497  0.17896826  1
  O  O11  1  0.49851824  0.51731503  0.67896826  1
  O  O12  1  0.00511281  0.13137131  0.67337027  1
  O  O13  1  0.50511281  0.36862869  0.17337027  1
  O  O14  1  0.99488719  0.86862869  0.32662973  1
  O  O15  1  0.49488719  0.63137131  0.82662973  1
  O  O16  1  0.30121115  0.87908919  0.74511879  1
  O  O17  1  0.80121115  0.62091081  0.24511879  1
  O  O18  1  0.69878885  0.12091081  0.25488121  1
  O  O19  1  0.19878885  0.37908919  0.75488121  1
  O  O20  1  0.21305626  0.25633911  0.51957550  1
  O  O21  1  0.71305626  0.24366089  0.01957550  1
  O  O22  1  0.78694374  0.74366089  0.48042450  1
  O  O23  1  0.28694374  0.75633911  0.98042450  1
  O  O24  1  0.30519932  0.08394900  0.49997984  1
  O  O25  1  0.80519932  0.41605100  0.99997984  1
  O  O26  1  0.69480068  0.91605100  0.50002016  1
  O  O27  1  0.19480068  0.58394900  0.00002016  1
  O  O28  1  0.08509133  0.89874096  0.57568764  1
  O  O29  1  0.58509133  0.60125904  0.07568764  1
  O  O30  1  0.91490867  0.10125904  0.42431236  1
  O  O31  1  0.41490867  0.39874096  0.92431236  1
  O  O32  1  0.63433660  0.13346265  0.53697566  1
  O  O33  1  0.13433660  0.36653735  0.03697566  1
  O  O34  1  0.36566340  0.86653735  0.46302434  1
  O  O35  1  0.86566340  0.63346265  0.96302434  1
  O  O36  1  0.46695096  0.99055724  0.66479871  1
  O  O37  1  0.96695096  0.50944276  0.16479871  1
  O  O38  1  0.53304904  0.00944276  0.33520129  1
  O  O39  1  0.03304904  0.49055724  0.83520129  1
  O  O40  1  0.53304782  0.90003222  0.81910123  1
  O  O41  1  0.03304782  0.59996778  0.31910123  1
  O  O42  1  0.46695218  0.09996778  0.18089877  1
  O  O43  1  0.96695218  0.40003222  0.68089877  1
  O  O44  1  0.53485658  0.09723845  0.91560115  1
  O  O45  1  0.03485658  0.40276155  0.41560115  1
  O  O46  1  0.46514342  0.90276155  0.08439885  1
  O  O47  1  0.96514342  0.59723845  0.58439885  1
  O  O48  1  0.32127437  0.18678827  0.77922916  1
  O  O49  1  0.82127437  0.31321173  0.27922916  1
  O  O50  1  0.67872563  0.81321173  0.22077084  1
  O  O51  1  0.17872563  0.68678827  0.72077084  1
  O  O52  1  0.78998642  0.08736065  0.75186607  1
  O  O53  1  0.28998642  0.41263935  0.25186607  1
  O  O54  1  0.21001358  0.91263935  0.24813393  1
  O  O55  1  0.71001358  0.58736065  0.74813393  1
  O  O56  1  0.16465799  0.15671243  0.36429386  1
  O  O57  1  0.66465799  0.34328757  0.86429386  1
  O  O58  1  0.83534201  0.84328757  0.63570614  1
  O  O59  1  0.33534201  0.65671243  0.13570614  1
  O  O60  1  0.69637224  0.50667699  0.51901031  1
  O  O61  1  0.19637224  0.99332301  0.01901031  1
  O  O62  1  0.30362776  0.49332301  0.48098969  1
  O  O63  1  0.80362776  0.00667699  0.98098969  1
loop_
_geom_bond_atom_site_label_1
_geom_bond_atom_site_label_2
_geom_bond_distance
_geom_bond_site_symmetry_2
Na0 O30 2.328794 1_555
Na0 O32 2.332398 1_555
Na0 O26 2.369459 1_545
Na0 O12 2.386081 1_655
Na0 O52 2.425957 1_555
Na0 O58 2.722467 1_545
Na1 O31 2.328794 1_554
Na1 O33 2.332398 1_555
Na1 O27 2.369459 1_555
Na1 O13 2.386081 1_555
Na1 O53 2.425957 1_555
Na1 O59 2.722467 1_555
Na2 O28 2.328794 1_555
Na2 O34 2.332398 1_555
Na2 O24 2.369459 1_565
Na2 O14 2.386081 1_455
Na2 O54 2.425957 1_555
Na2 O56 2.722467 1_565
Na3 O29 2.328794 1_556
Na3 O35 2.332398 1_555
Na3 O25 2.369459 1_555
Na3 O15 2.386081 1_555
Na3 O55 2.425957 1_555
Na3 O57 2.722467 1_555
Na4 O20 2.327703 1_655
Na4 O43 2.350044 1_555
Na4 O0 2.392121 1_555
Na4 O12 2.457690 1_655
Na4 O45 2.547768 1_655
Na5 O21 2.327703 1_555
Na5 O42 2.350044 1_555
Na5 O1 2.392121 1_554
Na5 O13 2.457690 1_555
Na5 O44 2.547768 1_554
Na6 O22 2.327703 1_455
Na6 O41 2.350044 1_555
Na6 O2 2.392121 1_555
Na6 O14 2.457690 1_455
Na6 O47 2.547768 1_455
Na7 O23 2.327703 1_555
Na7 O40 2.350044 1_555
Na7 O3 2.392121 1_556
Na7 O15 2.457690 1_555
Na7 O46 2.547768 1_556
Na8 O52 2.358693 1_555
Na8 O36 2.475961 1_545
Na8 O4 2.496098 1_555
Na8 O48 2.510808 1_555
Na8 O44 2.511061 1_555
Na8 O32 2.742724 1_555
Na9 O53 2.358693 1_555
Na9 O37 2.475961 1_455
Na9 O5 2.496098 1_555
Na9 O49 2.510808 1_455
Na9 O45 2.511061 1_555
Na9 O33 2.742724 1_555
Na10 O54 2.358693 1_555
Na10 O38 2.475961 1_565
Na10 O6 2.496098 1_555
Na10 O50 2.510808 1_555
Na10 O46 2.511061 1_555
Na10 O34 2.742724 1_555
Na11 O55 2.358693 1_555
Na11 O39 2.475961 1_655
Na11 O7 2.496098 1_555
Na11 O51 2.510808 1_655
Na11 O47 2.511061 1_555
Na11 O35 2.742724 1_555
Na12 O58 2.382610 1_555
Na12 O7 2.441530 1_555
Na12 O52 2.449471 1_565
Na12 O40 2.463177 1_555
Na12 O8 2.601981 1_665
Na13 O59 2.382610 1_555
Na13 O6 2.441530 1_555
Na13 O53 2.449471 1_555
Na13 O41 2.463177 1_555
Na13 O9 2.601981 1_555
Na14 O56 2.382610 1_555
Na14 O5 2.441530 1_555
Na14 O54 2.449471 1_545
Na14 O42 2.463177 1_555
Na14 O10 2.601981 1_445
Na15 O57 2.382610 1_555
Na15 O4 2.441530 1_555
Na15 O55 2.449471 1_555
Na15 O43 2.463177 1_555
Na15 O11 2.601981 1_555
Na16 O4 2.354257 1_555
Na16 O19 2.356570 1_555
Na16 O62 2.368290 1_555
Na16 O11 2.433627 1_555
Na16 O20 2.464603 1_555
Na17 O5 2.354257 1_655
Na17 O18 2.356570 1_555
Na17 O63 2.368290 1_554
Na17 O10 2.433627 1_545
Na17 O21 2.464603 1_555
Na18 O6 2.354257 1_555
Na18 O17 2.356570 1_555
Na18 O60 2.368290 1_555
Na18 O9 2.433627 1_555
Na18 O22 2.464603 1_555
Na19 O7 2.354257 1_455
Na19 O16 2.356570 1_555
Na19 O61 2.368290 1_556
Na19 O8 2.433627 1_565
Na19 O23 2.464603 1_555
Na20 O12 2.345483 1_555
Na20 O24 2.418917 1_555
Na20 O48 2.449759 1_555
Na20 O36 2.545430 1_545
Na20 O16 2.633229 1_545
Na20 O28 2.729474 1_545
Na21 O13 2.345483 1_555
Na21 O25 2.418917 1_554
Na21 O49 2.449759 1_555
Na21 O37 2.545430 1_555
Na21 O17 2.633229 1_555
Na21 O29 2.729474 1_555
Na22 O14 2.345483 1_555
Na22 O26 2.418917 1_555
Na22 O50 2.449759 1_555
Na22 O38 2.545430 1_565
Na22 O18 2.633229 1_565
Na22 O30 2.729474 1_565
Na23 O15 2.345483 1_555
Na23 O27 2.418917 1_556
Na23 O51 2.449759 1_555
Na23 O39 2.545430 1_555
Na23 O19 2.633229 1_555
Na23 O31 2.729474 1_555
Mn0 O24 2.200270 1_555
Mn0 O26 2.200270 1_545
Mn0 O36 2.220501 1_545
Mn0 O38 2.220501 1_555
Mn0 O32 2.233475 1_555
Mn0 O34 2.233475 1_545
Mn1 O27 2.200270 1_555
Mn1 O25 2.200270 1_454
Mn1 O37 2.220501 1_455
Mn1 O39 2.220501 1_554
Mn1 O33 2.233475 1_555
Mn1 O35 2.233475 1_454
Cu0 S4 2.246823 1_555
Cu0 S13 2.260583 1_555
Cu0 S1 2.293222 1_656
Cu0 S11 2.310482 1_655
Cu1 S5 2.246823 1_555
Cu1 S12 2.260583 1_555
Cu1 S0 2.293222 1_555
Cu1 S10 2.310482 1_555
Cu2 S6 2.246823 1_555
Cu2 S15 2.260583 1_555
Cu2 S3 2.293222 1_454
Cu2 S9 2.310482 1_455
Cu3 S7 2.246823 1_555
Cu3 S14 2.260583 1_555
Cu3 S2 2.293222 1_555
Cu3 S8 2.310482 1_555
H0 O28 0.976253 1_555
H1 O29 0.976253 1_555
H2 O30 0.976253 1_555
H3 O31 0.976253 1_555
H4 O28 1.001108 1_655
H4 O58 1.689271 1_555
H5 O29 1.001108 1_555
H5 O59 1.689271 1_555
H6 O30 1.001108 1_455
H6 O56 1.689271 1_555
H7 O31 1.001108 1_555
H7 O57 1.689271 1_555
H8 O44 0.986913 1_555
H9 O45 0.986913 1_555
H10 O46 0.986913 1_555
H11 O47 0.986913 1_555
H12 O44 0.981026 1_555
H13 O45 0.981026 1_555
H14 O46 0.981026 1_555
H15 O47 0.981026 1_555
H16 O48 0.992837 1_555
H17 O49 0.992837 1_555
H18 O50 0.992837 1_555
H19 O51 0.992837 1_555
H20 O48 0.981494 1_555
H21 O49 0.981494 1_555
H22 O50 0.981494 1_555
H23 O51 0.981494 1_555
H24 O60 0.988398 1_555
H24 Na15 2.471990 1_555
H25 O61 0.988398 1_555
H25 Na14 2.471990 1_565
H26 O62 0.988398 1_555
H26 Na13 2.471990 1_555
H27 O63 0.988398 1_555
H27 Na12 2.471990 1_545
H28 O60 0.991343 1_555
H29 O61 0.991343 1_545
H30 O62 0.991343 1_555
H31 O63 0.991343 1_564
O0 S0 1.530964 1_555
O1 S1 1.530964 1_556
O2 S2 1.530964 1_555
O3 S3 1.530964 1_554
O4 S0 1.525935 1_555
O5 S1 1.525935 1_555
O6 S2 1.525935 1_555
O7 S3 1.525935 1_555
O8 S4 1.528839 1_455
O9 S5 1.528839 1_555
O10 S6 1.528839 1_655
O11 S7 1.528839 1_555
O12 S4 1.527825 1_455
O13 S5 1.527825 1_555
O14 S6 1.527825 1_655
O15 S7 1.527825 1_555
O16 S8 1.533790 1_555
O17 S9 1.533790 1_555
O18 S10 1.533790 1_555
O19 S11 1.533790 1_555
O20 S12 1.504502 1_555
O21 S13 1.504502 1_554
O22 S14 1.504502 1_555
O23 S15 1.504502 1_556
O24 S12 1.554751 1_555
O25 S13 1.554751 1_555
O26 S14 1.554751 1_555
O27 S15 1.554751 1_555
O32 S0 1.538456 1_555
O33 S1 1.538456 1_555
O34 S2 1.538456 1_555
O35 S3 1.538456 1_555
O36 S8 1.544677 1_555
O37 S9 1.544677 1_555
O38 S10 1.544677 1_555
O39 S11 1.544677 1_555
O40 S8 1.522322 1_555
O41 S9 1.522322 1_455
O42 S10 1.522322 1_555
O43 S11 1.522322 1_655
O52 S4 1.527771 1_555
O53 S5 1.527771 1_555
O54 S6 1.527771 1_555
O55 S7 1.527771 1_555
O56 S12 1.537459 1_555
O57 S13 1.537459 1_555
O58 S14 1.537459 1_555
O59 S15 1.537459 1_555
