# generated using pymatgen
data_Ba2ThCrTe7
_symmetry_space_group_name_H-M   'P 1'
_cell_length_a   6.26263700
_cell_length_b   12.80632700
_cell_length_c   19.10762100
_cell_angle_alpha   90.00000000
_cell_angle_beta   90.00000000
_cell_angle_gamma   90.00000000
_symmetry_Int_Tables_number   1
_chemical_formula_structural   Ba2ThCrTe7
_chemical_formula_sum   'Ba8 Th4 Cr4 Te28'
_cell_volume   1532.45752121
_cell_formula_units_Z   4
loop_
 _symmetry_equiv_pos_site_id
 _symmetry_equiv_pos_as_xyz
  1  'x, y, z'
loop_
 _atom_site_type_symbol
 _atom_site_label
 _atom_site_symmetry_multiplicity
 _atom_site_fract_x
 _atom_site_fract_y
 _atom_site_fract_z
 _atom_site_occupancy
  Ba  Ba0  1  0.25000000  0.32212300  0.94397300  1
  Ba  Ba1  1  0.25000000  0.82212300  0.55602700  1
  Ba  Ba2  1  0.75000000  0.67787700  0.05602700  1
  Ba  Ba3  1  0.75000000  0.17787700  0.44397300  1
  Ba  Ba4  1  0.25000000  0.44681400  0.27552600  1
  Ba  Ba5  1  0.25000000  0.94681400  0.22447400  1
  Ba  Ba6  1  0.75000000  0.55318600  0.72447400  1
  Ba  Ba7  1  0.75000000  0.05318600  0.77552600  1
  Th  Th0  1  0.25000000  0.29163800  0.62459800  1
  Th  Th1  1  0.25000000  0.79163800  0.87540200  1
  Th  Th2  1  0.75000000  0.70836200  0.37540200  1
  Th  Th3  1  0.75000000  0.20836200  0.12459800  1
  Cr  Cr0  1  0.00000000  0.00000000  0.00000000  1
  Cr  Cr1  1  0.50000000  0.50000000  0.50000000  1
  Cr  Cr2  1  0.50000000  0.00000000  0.00000000  1
  Cr  Cr3  1  0.00000000  0.50000000  0.50000000  1
  Te  Te0  1  0.00235400  0.07547800  0.60157400  1
  Te  Te1  1  0.49764600  0.57547800  0.89842600  1
  Te  Te2  1  0.50235400  0.92452200  0.39842600  1
  Te  Te3  1  0.99764600  0.42452200  0.10157400  1
  Te  Te4  1  0.99764600  0.92452200  0.39842600  1
  Te  Te5  1  0.50235400  0.42452200  0.10157400  1
  Te  Te6  1  0.49764600  0.07547800  0.60157400  1
  Te  Te7  1  0.00235400  0.57547800  0.89842600  1
  Te  Te8  1  0.00275500  0.30686300  0.77129000  1
  Te  Te9  1  0.49724500  0.80686300  0.72871000  1
  Te  Te10  1  0.50275500  0.69313700  0.22871000  1
  Te  Te11  1  0.99724500  0.19313700  0.27129000  1
  Te  Te12  1  0.99724500  0.69313700  0.22871000  1
  Te  Te13  1  0.50275500  0.19313700  0.27129000  1
  Te  Te14  1  0.49724500  0.30686300  0.77129000  1
  Te  Te15  1  0.00275500  0.80686300  0.72871000  1
  Te  Te16  1  0.25000000  0.04152000  0.88202500  1
  Te  Te17  1  0.25000000  0.54152000  0.61797500  1
  Te  Te18  1  0.75000000  0.95848000  0.11797500  1
  Te  Te19  1  0.75000000  0.45848000  0.38202500  1
  Te  Te20  1  0.25000000  0.32924800  0.45924500  1
  Te  Te21  1  0.25000000  0.82924800  0.04075500  1
  Te  Te22  1  0.75000000  0.67075200  0.54075500  1
  Te  Te23  1  0.75000000  0.17075200  0.95924500  1
  Te  Te24  1  0.25000000  0.63745100  0.41549600  1
  Te  Te25  1  0.25000000  0.13745100  0.08450400  1
  Te  Te26  1  0.75000000  0.36254900  0.58450400  1
  Te  Te27  1  0.75000000  0.86254900  0.91549600  1
loop_
_geom_bond_atom_site_label_1
_geom_bond_atom_site_label_2
_geom_bond_distance
_geom_bond_site_symmetry_2
Ba0 Te25 3.578191 1_556
Ba0 Te5 3.644960 1_556
Ba0 Te3 3.644960 1_456
Ba0 Te8 3.650049 1_555
Ba0 Te14 3.650049 1_555
Ba0 Te23 3.694336 1_555
Ba0 Te23 3.694336 1_455
Ba0 Te1 3.699979 1_555
Ba0 Te7 3.699979 1_555
Ba0 Te16 3.783423 1_555
Ba1 Te24 3.578191 1_555
Ba1 Te2 3.644960 1_555
Ba1 Te4 3.644960 1_455
Ba1 Te9 3.650049 1_555
Ba1 Te15 3.650049 1_555
Ba1 Te22 3.694336 1_455
Ba1 Te22 3.694336 1_555
Ba1 Te0 3.699979 1_565
Ba1 Te6 3.699979 1_565
Ba1 Te17 3.783423 1_555
Ba2 Te27 3.578191 1_554
Ba2 Te7 3.644960 1_654
Ba2 Te1 3.644960 1_554
Ba2 Te10 3.650049 1_555
Ba2 Te12 3.650049 1_555
Ba2 Te21 3.694336 1_655
Ba2 Te21 3.694336 1_555
Ba2 Te3 3.699979 1_555
Ba2 Te5 3.699979 1_555
Ba2 Te18 3.783423 1_555
Ba3 Te26 3.578191 1_555
Ba3 Te6 3.644960 1_555
Ba3 Te0 3.644960 1_655
Ba3 Te13 3.650049 1_555
Ba3 Te11 3.650049 1_555
Ba3 Te20 3.694336 1_655
Ba3 Te20 3.694336 1_555
Ba3 Te4 3.699979 1_545
Ba3 Te2 3.699979 1_545
Ba3 Te19 3.783423 1_555
Ba4 Te11 3.614696 1_455
Ba4 Te13 3.614696 1_555
Ba4 Te24 3.621209 1_555
Ba4 Te12 3.640968 1_455
Ba4 Te10 3.640968 1_555
Ba4 Te5 3.691459 1_555
Ba4 Te3 3.691459 1_455
Ba4 Te19 3.737441 1_555
Ba4 Te19 3.737441 1_455
Ba4 Te20 3.819678 1_555
Ba5 Te10 3.614696 1_555
Ba5 Te12 3.614696 1_455
Ba5 Te25 3.621209 1_565
Ba5 Te11 3.640968 1_465
Ba5 Te13 3.640968 1_565
Ba5 Te4 3.691459 1_455
Ba5 Te2 3.691459 1_555
Ba5 Te18 3.737441 1_555
Ba5 Te18 3.737441 1_455
Ba5 Te21 3.819678 1_555
Ba6 Te15 3.614696 1_655
Ba6 Te9 3.614696 1_555
Ba6 Te26 3.621209 1_555
Ba6 Te14 3.640968 1_555
Ba6 Te8 3.640968 1_655
Ba6 Te1 3.691459 1_555
Ba6 Te7 3.691459 1_655
Ba6 Te17 3.737441 1_655
Ba6 Te17 3.737441 1_555
Ba6 Te22 3.819678 1_555
Ba7 Te14 3.614696 1_555
Ba7 Te8 3.614696 1_655
Ba7 Te27 3.621209 1_545
Ba7 Te9 3.640968 1_545
Ba7 Te15 3.640968 1_645
Ba7 Te6 3.691459 1_555
Ba7 Te0 3.691459 1_655
Ba7 Te16 3.737441 1_555
Ba7 Te16 3.737441 1_655
Ba7 Te23 3.819678 1_555
Cr0 Te18 2.795627 1_445
Cr0 Te16 2.795627 1_554
Cr0 Te23 2.799892 1_454
Cr0 Te21 2.799892 1_545
Cr0 Te25 2.856029 1_555
Cr0 Te27 2.856029 1_444
Cr1 Te19 2.795627 1_555
Cr1 Te17 2.795627 1_555
Cr1 Te20 2.799892 1_555
Cr1 Te22 2.799892 1_555
Cr1 Te26 2.856029 1_555
Cr1 Te24 2.856029 1_555
Cr2 Te18 2.795627 1_545
Cr2 Te16 2.795627 1_554
Cr2 Te23 2.799892 1_554
Cr2 Te21 2.799892 1_545
Cr2 Te25 2.856029 1_555
Cr2 Te27 2.856029 1_544
Cr3 Te19 2.795627 1_455
Cr3 Te17 2.795627 1_555
Cr3 Te20 2.799892 1_555
Cr3 Te22 2.799892 1_455
Cr3 Te26 2.856029 1_455
Cr3 Te24 2.856029 1_555
Te0 Te6 3.101834 1_555
Te0 Te6 3.160803 1_455
Te0 Th0 3.203421 1_555
Te1 Te7 3.101834 1_555
Te1 Te7 3.160803 1_655
Te1 Th1 3.203421 1_555
Te2 Te4 3.101834 1_555
Te2 Te4 3.160803 1_455
Te2 Th2 3.203421 1_555
Te3 Te5 3.101834 1_555
Te3 Te5 3.160803 1_655
Te3 Th3 3.203421 1_555
Te4 Th2 3.203421 1_555
Te5 Th3 3.203421 1_555
Te6 Th0 3.203421 1_555
Te7 Th1 3.203421 1_555
Te8 Th0 3.208118 1_555
Te9 Th1 3.208118 1_555
Te10 Te12 3.096811 1_555
Te10 Te12 3.165826 1_455
Te10 Th2 3.208118 1_555
Te11 Te13 3.096811 1_555
Te11 Te13 3.165826 1_655
Te11 Th3 3.208118 1_555
Te12 Th2 3.208118 1_555
Te13 Th3 3.208118 1_555
Te14 Te8 3.096811 1_555
Te14 Te8 3.165826 1_655
Te14 Th0 3.208118 1_555
Te15 Te9 3.096811 1_555
Te15 Te9 3.165826 1_455
Te15 Th1 3.208118 1_555
Te16 Th1 3.202572 1_545
Te17 Th0 3.202572 1_555
Te18 Th3 3.202572 1_565
Te19 Th2 3.202572 1_555
Te20 Th0 3.196004 1_555
Te21 Th1 3.196004 1_554
Te22 Th2 3.196004 1_555
Te23 Th3 3.196004 1_556
Te24 Th2 3.349139 1_455
Te24 Th2 3.349139 1_555
Te25 Th3 3.349139 1_455
Te25 Th3 3.349139 1_555
Te26 Th0 3.349139 1_555
Te26 Th0 3.349139 1_655
Te27 Th1 3.349139 1_555
Te27 Th1 3.349139 1_655
