# generated using pymatgen
data_Co(H3Br)2
_symmetry_space_group_name_H-M   'P 1'
_cell_length_a   7.34591159
_cell_length_b   4.96748600
_cell_length_c   8.88894512
_cell_angle_alpha   90.00000000
_cell_angle_beta   96.30320412
_cell_angle_gamma   90.00000000
_symmetry_Int_Tables_number   1
_chemical_formula_structural   Co(H3Br)2
_chemical_formula_sum   'Co2 H12 Br4'
_cell_volume   322.40310568
_cell_formula_units_Z   2
loop_
 _symmetry_equiv_pos_site_id
 _symmetry_equiv_pos_as_xyz
  1  'x, y, z'
loop_
 _atom_site_type_symbol
 _atom_site_label
 _atom_site_symmetry_multiplicity
 _atom_site_fract_x
 _atom_site_fract_y
 _atom_site_fract_z
 _atom_site_occupancy
  Co  Co0  1  0.00000000  0.25000000  0.00000000  1
  Co  Co1  1  0.00000000  0.75000000  0.00000000  1
  H  H0  1  0.33225500  0.00000000  0.54392900  1
  H  H1  1  0.66774500  0.50000000  0.45607100  1
  H  H2  1  0.04678400  0.00000000  0.83561900  1
  H  H3  1  0.95321600  0.50000000  0.16438100  1
  H  H4  1  0.42867800  0.00000000  0.52521900  1
  H  H5  1  0.57132200  0.50000000  0.47478100  1
  H  H6  1  0.06196600  0.00000000  0.11601600  1
  H  H7  1  0.93803400  0.50000000  0.88398400  1
  H  H8  1  0.94628200  0.00000000  0.43213600  1
  H  H9  1  0.05371800  0.50000000  0.56786400  1
  H  H10  1  0.13755600  0.00000000  0.90004200  1
  H  H11  1  0.86244400  0.50000000  0.09995800  1
  Br  Br0  1  0.16185500  0.50000000  0.44178300  1
  Br  Br1  1  0.83814500  0.00000000  0.55821700  1
  Br  Br2  1  0.27853800  0.50000000  0.04461900  1
  Br  Br3  1  0.72146200  0.00000000  0.95538100  1
loop_
_geom_bond_atom_site_label_1
_geom_bond_atom_site_label_2
_geom_bond_distance
_geom_bond_site_symmetry_2
Co0 H7 1.646168 1_454
Co0 H6 1.646168 1_555
Co0 H11 1.884123 1_455
Co0 H10 1.884123 1_554
Co0 H3 1.976271 1_455
Co0 H2 1.976271 1_554
Co1 H7 1.646168 1_454
Co1 H6 1.646168 1_565
Co1 H10 1.884123 1_564
Co1 H11 1.884123 1_455
Co1 H3 1.976271 1_455
Co1 H2 1.976271 1_564
H0 H4 0.745142 1_555
H1 H5 0.745142 1_555
H10 H2 0.829886 1_555
H11 H3 0.829886 1_555
Br0 H9 1.443097 1_555
Br1 H8 1.443097 1_555
Br2 Co0 2.389130 1_555
Br2 Co1 2.389130 1_555
Br3 Co0 2.389130 1_656
Br3 Co1 2.389130 1_646
