# generated using pymatgen
data_Rb2Cr2O5
_symmetry_space_group_name_H-M   'P 1'
_cell_length_a   10.83344858
_cell_length_b   10.83344858
_cell_length_c   10.83344858
_cell_angle_alpha   150.78393654
_cell_angle_beta   149.94296290
_cell_angle_gamma   42.41213594
_symmetry_Int_Tables_number   1
_chemical_formula_structural   Rb2Cr2O5
_chemical_formula_sum   'Rb4 Cr4 O10'
_cell_volume   310.07373540
_cell_formula_units_Z   2
loop_
 _symmetry_equiv_pos_site_id
 _symmetry_equiv_pos_as_xyz
  1  'x, y, z'
loop_
 _atom_site_type_symbol
 _atom_site_label
 _atom_site_symmetry_multiplicity
 _atom_site_fract_x
 _atom_site_fract_y
 _atom_site_fract_z
 _atom_site_occupancy
  Rb  Rb0  1  0.88989500  0.39279400  0.50272800  1
  Rb  Rb1  1  0.11010500  0.61283400  0.50290000  1
  Rb  Rb2  1  0.39006600  0.89279400  0.50290000  1
  Rb  Rb3  1  0.60993400  0.11283400  0.50272800  1
  Cr  Cr0  1  0.00000000  0.00001600  0.00001600  1
  Cr  Cr1  1  0.50000000  0.50001600  0.00001600  1
  Cr  Cr2  1  0.67727400  0.71848300  0.89575700  1
  Cr  Cr3  1  0.32272600  0.21848300  0.04120900  1
  O  O0  1  0.25155800  0.25195600  0.50016500  1
  O  O1  1  0.74844200  0.24860700  0.00039800  1
  O  O2  1  0.25179100  0.75195600  0.00039800  1
  O  O3  1  0.74820900  0.74860700  0.50016500  1
  O  O4  1  0.87823800  0.84472200  0.07732900  1
  O  O5  1  0.12176200  0.19909000  0.96648400  1
  O  O6  1  0.26739300  0.34472200  0.96648400  1
  O  O7  1  0.73260700  0.69909000  0.07732900  1
  O  O8  1  0.59604000  0.39549700  0.49153700  1
  O  O9  1  0.40396000  0.89549700  0.79945800  1
loop_
_geom_bond_atom_site_label_1
_geom_bond_atom_site_label_2
_geom_bond_distance
_geom_bond_site_symmetry_2
Cr0 O3 1.959106 1_444
Cr0 O2 1.959106 1_545
Cr0 O1 1.960190 1_455
Cr0 O0 1.960190 1_555
Cr1 O1 1.959106 1_555
Cr1 O0 1.959106 1_554
Cr1 O2 1.960190 1_555
Cr1 O3 1.960190 1_555
Cr2 O4 1.663426 1_556
Cr2 O7 1.663436 1_556
Cr2 O9 1.814809 1_555
Cr2 O8 1.823010 1_555
Cr3 O6 1.663426 1_554
Cr3 O5 1.663434 1_554
Cr3 O8 1.814810 1_555
Cr3 O9 1.823008 1_544
O0 Rb3 2.931158 1_555
O0 Rb1 2.943400 1_555
O0 Rb2 2.982463 1_545
O0 Rb0 2.994490 1_455
O1 Rb2 2.931158 1_544
O1 Rb0 2.943398 1_555
O1 Rb3 2.982463 1_554
O1 Rb1 2.994492 1_655
O2 Rb1 2.931151 1_554
O2 Rb3 2.943405 1_565
O2 Rb0 2.982455 1_454
O2 Rb2 2.994500 1_555
O3 Rb0 2.931153 1_555
O3 Rb2 2.943405 1_555
O3 Rb1 2.982453 1_655
O3 Rb3 2.994500 1_565
O4 Rb2 2.844754 1_655
O4 Rb0 2.973865 1_565
O4 Rb0 3.159769 1_554
O4 Rb2 3.403815 1_554
O5 Rb3 2.844752 1_455
O5 Rb1 2.973868 1_556
O5 Rb1 3.159757 1_545
O5 Rb3 3.403808 1_556
O6 Rb0 2.844757 1_455
O6 Rb2 2.973863 1_556
O6 Rb2 3.159762 1_545
O6 Rb0 3.403822 1_556
O7 Rb1 2.844749 1_655
O7 Rb3 2.973861 1_565
O7 Rb3 3.159756 1_554
O7 Rb1 3.403820 1_554
O8 Rb3 3.057837 1_555
O8 Rb0 3.057847 1_555
O9 Rb1 3.057838 1_555
O9 Rb2 3.057847 1_555
