# generated using pymatgen
data_CaFe6(OF2)4
_symmetry_space_group_name_H-M   'P 1'
_cell_length_a   9.00859571
_cell_length_b   6.31496011
_cell_length_c   6.10775924
_cell_angle_alpha   64.93917496
_cell_angle_beta   60.10769099
_cell_angle_gamma   63.01675192
_symmetry_Int_Tables_number   1
_chemical_formula_structural   CaFe6(OF2)4
_chemical_formula_sum   'Ca1 Fe6 O4 F8'
_cell_volume   259.53012455
_cell_formula_units_Z   1
loop_
 _symmetry_equiv_pos_site_id
 _symmetry_equiv_pos_as_xyz
  1  'x, y, z'
loop_
 _atom_site_type_symbol
 _atom_site_label
 _atom_site_symmetry_multiplicity
 _atom_site_fract_x
 _atom_site_fract_y
 _atom_site_fract_z
 _atom_site_occupancy
  Ca  Ca0  1  0.09718000  0.93080600  0.40708100  1
  Fe  Fe0  1  0.81209500  0.54973200  0.64443500  1
  Fe  Fe1  1  0.64157500  0.36226400  0.28755400  1
  Fe  Fe2  1  0.36002500  0.71955000  0.69762300  1
  Fe  Fe3  1  0.20423700  0.34753000  0.38596300  1
  Fe  Fe4  1  0.54056400  0.98452400  0.01610000  1
  Fe  Fe5  1  0.97453800  0.96957000  0.01489100  1
  O  O0  1  0.34021500  0.00033500  0.37528600  1
  O  O1  1  0.66680900  0.63473100  0.96028400  1
  O  O2  1  0.99397300  0.23348000  0.64514400  1
  O  O3  1  0.00453300  0.67345800  0.36300100  1
  F  F0  1  0.63925300  0.09865000  0.62168400  1
  F  F1  1  0.35448300  0.40482700  0.99750200  1
  F  F2  1  0.25613000  0.92282300  0.96148000  1
  F  F3  1  0.92360200  0.22514100  0.18740900  1
  F  F4  1  0.64084400  0.58139400  0.51178600  1
  F  F5  1  0.08661500  0.71663100  0.81601900  1
  F  F6  1  0.34377800  0.46826400  0.44314900  1
  F  F7  1  0.69455100  0.09295700  0.10111400  1
loop_
_geom_bond_atom_site_label_1
_geom_bond_atom_site_label_2
_geom_bond_distance
_geom_bond_site_symmetry_2
Ca0 F3 2.245245 1_465
Ca0 F5 2.257177 1_555
Ca0 O3 2.288155 1_555
Ca0 O0 2.323857 1_565
Ca0 F2 2.372013 1_554
Ca0 O2 2.454850 1_465
Ca0 F6 2.751317 1_555
Fe0 O1 1.856265 1_555
Fe0 O3 1.921381 1_655
Fe0 O2 1.924426 1_555
Fe1 O1 1.999030 1_554
Fe2 O0 2.039019 1_565
Fe3 O2 1.973817 1_455
Fe3 O0 1.978947 1_555
Fe3 O3 2.034527 1_555
Fe4 O0 2.038562 1_565
Fe4 O1 2.064171 1_554
Fe5 O2 2.142527 1_564
Fe5 O3 2.199151 1_655
F0 Fe1 2.011836 1_555
F0 Fe4 2.022123 1_546
F1 Fe3 2.026942 1_556
F1 Fe2 2.054817 1_555
F1 Fe4 2.400949 1_546
F2 Fe2 2.068767 1_555
F2 Fe5 2.281630 1_456
F3 Fe5 2.052384 1_545
F3 Fe1 2.117131 1_555
F4 Fe0 1.976128 1_555
F4 Fe2 2.103163 1_555
F4 Fe1 2.319243 1_555
F5 Fe5 2.000985 1_456
F5 Fe2 2.201007 1_555
F6 Fe3 1.953583 1_555
F6 Fe1 2.217293 1_555
F7 Fe5 2.118158 1_545
F7 Fe4 2.131664 1_545
F7 Fe1 2.186123 1_555
