# generated using pymatgen
data_CsPr2Ag3Te5
_symmetry_space_group_name_H-M   'P 1'
_cell_length_a   8.58432970
_cell_length_b   8.58432970
_cell_length_c   19.05321300
_cell_angle_alpha   90.00000000
_cell_angle_beta   90.00000000
_cell_angle_gamma   147.80067266
_symmetry_Int_Tables_number   1
_chemical_formula_structural   CsPr2Ag3Te5
_chemical_formula_sum   'Cs2 Pr4 Ag6 Te10'
_cell_volume   748.16827738
_cell_formula_units_Z   2
loop_
 _symmetry_equiv_pos_site_id
 _symmetry_equiv_pos_as_xyz
  1  'x, y, z'
loop_
 _atom_site_type_symbol
 _atom_site_label
 _atom_site_symmetry_multiplicity
 _atom_site_fract_x
 _atom_site_fract_y
 _atom_site_fract_z
 _atom_site_occupancy
  Cs  Cs0  1  0.56009100  0.43990900  0.25000000  1
  Cs  Cs1  1  0.43990900  0.56009100  0.75000000  1
  Pr  Pr0  1  0.69114100  0.30885900  0.90690400  1
  Pr  Pr1  1  0.30885900  0.69114100  0.09309600  1
  Pr  Pr2  1  0.69114100  0.30885900  0.59309600  1
  Pr  Pr3  1  0.30885900  0.69114100  0.40690400  1
  Ag  Ag0  1  0.84153600  0.15846400  0.25000000  1
  Ag  Ag1  1  0.15846400  0.84153600  0.75000000  1
  Ag  Ag2  1  0.08495200  0.91504800  0.46937500  1
  Ag  Ag3  1  0.91504800  0.08495200  0.53062500  1
  Ag  Ag4  1  0.08495200  0.91504800  0.03062500  1
  Ag  Ag5  1  0.91504800  0.08495200  0.96937500  1
  Te  Te0  1  0.06135600  0.93864400  0.88078300  1
  Te  Te1  1  0.93864400  0.06135600  0.11921700  1
  Te  Te2  1  0.06135600  0.93864400  0.61921700  1
  Te  Te3  1  0.93864400  0.06135600  0.38078300  1
  Te  Te4  1  0.67553300  0.32446700  0.42707800  1
  Te  Te5  1  0.32446700  0.67553300  0.57292200  1
  Te  Te6  1  0.67553300  0.32446700  0.07292200  1
  Te  Te7  1  0.32446700  0.67553300  0.92707800  1
  Te  Te8  1  0.24638400  0.75361600  0.25000000  1
  Te  Te9  1  0.75361600  0.24638400  0.75000000  1
loop_
_geom_bond_atom_site_label_1
_geom_bond_atom_site_label_2
_geom_bond_distance
_geom_bond_site_symmetry_2
Cs0 Te4 3.874198 1_555
Cs0 Te6 3.874198 1_555
Cs0 Te8 3.887150 1_655
Cs0 Te8 3.887150 1_545
Cs0 Te3 3.986142 1_565
Cs0 Te3 3.986142 1_455
Cs0 Te1 3.986142 1_565
Cs0 Te1 3.986142 1_455
Cs1 Te7 3.874198 1_555
Cs1 Te5 3.874198 1_555
Cs1 Te9 3.887150 1_565
Cs1 Te9 3.887150 1_455
Cs1 Te2 3.986142 1_655
Cs1 Te0 3.986142 1_655
Cs1 Te0 3.986142 1_545
Cs1 Te2 3.986142 1_545
Pr0 Te9 3.162165 1_555
Pr0 Te6 3.173637 1_556
Pr0 Te0 3.240023 1_655
Pr0 Te0 3.240023 1_545
Pr0 Te7 3.263634 1_655
Pr0 Te7 3.263634 1_545
Pr1 Te8 3.162165 1_555
Pr1 Te7 3.173637 1_554
Pr1 Te1 3.240023 1_565
Pr1 Te1 3.240023 1_455
Pr1 Te6 3.263634 1_565
Pr1 Te6 3.263634 1_455
Pr2 Te9 3.162165 1_555
Pr2 Te4 3.173637 1_555
Pr2 Te2 3.240023 1_655
Pr2 Te2 3.240023 1_545
Pr2 Te5 3.263634 1_655
Pr2 Te5 3.263634 1_545
Pr3 Te8 3.162165 1_555
Pr3 Te5 3.173637 1_555
Pr3 Te3 3.240023 1_565
Pr3 Te3 3.240023 1_455
Pr3 Te4 3.263634 1_565
Pr3 Te4 3.263634 1_455
Ag0 Te8 2.851379 1_545
Ag0 Te8 2.851379 1_655
Ag0 Te3 2.962279 1_555
Ag0 Te1 2.962279 1_555
Ag1 Te9 2.851379 1_565
Ag1 Te9 2.851379 1_455
Ag1 Te0 2.962279 1_555
Ag1 Te2 2.962279 1_555
Ag2 Te2 2.881381 1_555
Ag2 Te4 2.923837 1_565
Ag2 Te4 2.923837 1_455
Ag2 Te3 2.945115 1_465
Ag3 Te3 2.881381 1_555
Ag3 Te5 2.923837 1_655
Ag3 Te5 2.923837 1_545
Ag3 Te2 2.945115 1_645
Ag4 Te0 2.881381 1_554
Ag4 Te6 2.923837 1_565
Ag4 Te6 2.923837 1_455
Ag4 Te1 2.945115 1_465
Ag5 Te1 2.881381 1_556
Ag5 Te7 2.923837 1_655
Ag5 Te7 2.923837 1_545
Ag5 Te0 2.945115 1_645
