# generated using pymatgen
data_Be(GaO2)2
_symmetry_space_group_name_H-M   'P 1'
_cell_length_a   3.03395400
_cell_length_b   7.78447500
_cell_length_c   7.85704818
_cell_angle_alpha   60.83877007
_cell_angle_beta   90.00000000
_cell_angle_gamma   90.00000000
_symmetry_Int_Tables_number   1
_chemical_formula_structural   Be(GaO2)2
_chemical_formula_sum   'Be2 Ga4 O8'
_cell_volume   162.04562977
_cell_formula_units_Z   2
loop_
 _symmetry_equiv_pos_site_id
 _symmetry_equiv_pos_as_xyz
  1  'x, y, z'
loop_
 _atom_site_type_symbol
 _atom_site_label
 _atom_site_symmetry_multiplicity
 _atom_site_fract_x
 _atom_site_fract_y
 _atom_site_fract_z
 _atom_site_occupancy
  Be  Be0  1  0.75000000  0.82484000  0.76920300  1
  Be  Be1  1  0.25000000  0.17516000  0.23079700  1
  Ga  Ga0  1  0.75000000  0.79076100  0.40354400  1
  Ga  Ga1  1  0.75000000  0.40958900  0.83997200  1
  Ga  Ga2  1  0.25000000  0.20923900  0.59645600  1
  Ga  Ga3  1  0.25000000  0.59041100  0.16002800  1
  O  O0  1  0.75000000  0.67759700  0.67255400  1
  O  O1  1  0.25000000  0.32240300  0.32744600  1
  O  O2  1  0.75000000  0.30093300  0.66981900  1
  O  O3  1  0.75000000  0.67612300  0.00983800  1
  O  O4  1  0.75000000  0.05842300  0.28372000  1
  O  O5  1  0.25000000  0.69906700  0.33018100  1
  O  O6  1  0.25000000  0.32387700  0.99016200  1
  O  O7  1  0.25000000  0.94157700  0.71628000  1
loop_
_geom_bond_atom_site_label_1
_geom_bond_atom_site_label_2
_geom_bond_distance
_geom_bond_site_symmetry_2
Be0 O0 1.654899 1_555
Be0 O3 1.667881 1_556
Be0 O7 1.712214 1_655
Be0 O7 1.712214 1_555
Be1 O1 1.654899 1_555
Be1 O6 1.667881 1_554
Be1 O4 1.712214 1_555
Be1 O4 1.712214 1_455
Ga0 O4 1.821012 1_565
Ga0 O0 1.851730 1_555
Ga0 O5 1.882534 1_655
Ga0 O5 1.882534 1_555
Ga1 O6 1.836196 1_555
Ga1 O6 1.836196 1_655
Ga1 O0 1.846211 1_555
Ga1 O2 1.898612 1_555
Ga2 O7 1.821012 1_545
Ga2 O1 1.851730 1_555
Ga2 O2 1.882534 1_455
Ga2 O2 1.882534 1_555
Ga3 O3 1.836196 1_555
Ga3 O3 1.836196 1_455
Ga3 O1 1.846211 1_555
Ga3 O5 1.898612 1_555
