# generated using pymatgen
data_Zr5CdPb3
_symmetry_space_group_name_H-M   'P 1'
_cell_length_a   8.87500965
_cell_length_b   8.87500965
_cell_length_c   6.00575805
_cell_angle_alpha   90.00000000
_cell_angle_beta   90.00000000
_cell_angle_gamma   119.99999488
_symmetry_Int_Tables_number   1
_chemical_formula_structural   Zr5CdPb3
_chemical_formula_sum   'Zr10 Cd2 Pb6'
_cell_volume   409.67187953
_cell_formula_units_Z   2
loop_
 _symmetry_equiv_pos_site_id
 _symmetry_equiv_pos_as_xyz
  1  'x, y, z'
loop_
 _atom_site_type_symbol
 _atom_site_label
 _atom_site_symmetry_multiplicity
 _atom_site_fract_x
 _atom_site_fract_y
 _atom_site_fract_z
 _atom_site_occupancy
  Zr  Zr0  1  0.66666700  0.33333300  -0.00000000  1
  Zr  Zr1  1  0.33333300  0.66666700  -0.00000000  1
  Zr  Zr2  1  0.33333300  0.66666700  0.50000000  1
  Zr  Zr3  1  0.66666700  0.33333300  0.50000000  1
  Zr  Zr4  1  0.71984491  0.71984491  0.75000000  1
  Zr  Zr5  1  0.28015509  0.00000000  0.75000000  1
  Zr  Zr6  1  0.00000000  0.28015509  0.75000000  1
  Zr  Zr7  1  0.28015509  0.28015509  0.25000000  1
  Zr  Zr8  1  0.71984491  -0.00000000  0.25000000  1
  Zr  Zr9  1  -0.00000000  0.71984491  0.25000000  1
  Cd  Cd0  1  -0.00000000  0.00000000  -0.00000000  1
  Cd  Cd1  1  -0.00000000  0.00000000  0.50000000  1
  Pb  Pb0  1  0.37958858  0.37958858  0.75000000  1
  Pb  Pb1  1  0.62041142  0.00000000  0.75000000  1
  Pb  Pb2  1  0.00000000  0.62041142  0.75000000  1
  Pb  Pb3  1  0.62041142  0.62041142  0.25000000  1
  Pb  Pb4  1  0.37958858  -0.00000000  0.25000000  1
  Pb  Pb5  1  -0.00000000  0.37958858  0.25000000  1
loop_
_geom_bond_atom_site_label_1
_geom_bond_atom_site_label_2
_geom_bond_distance
_geom_bond_site_symmetry_2
Zr0 Zr3 3.002879 1_554
Zr0 Zr3 3.002879 1_555
Zr0 Zr6 3.553167 1_654
Zr0 Zr8 3.553167 1_555
Zr0 Zr5 3.553172 1_554
Zr0 Zr9 3.553172 1_655
Zr0 Zr7 3.553175 1_555
Zr0 Zr4 3.553175 1_554
Zr1 Zr2 3.002879 1_555
Zr1 Zr2 3.002879 1_554
Zr1 Zr5 3.553167 1_564
Zr1 Zr9 3.553167 1_555
Zr1 Zr8 3.553172 1_565
Zr1 Zr6 3.553172 1_554
Zr1 Zr7 3.553175 1_555
Zr1 Zr4 3.553175 1_554
Zr2 Zr5 3.553167 1_565
Zr2 Zr9 3.553167 1_555
Zr2 Zr8 3.553172 1_565
Zr2 Zr6 3.553172 1_555
Zr2 Zr7 3.553175 1_555
Zr2 Zr4 3.553175 1_555
Zr3 Zr8 3.553167 1_555
Zr3 Zr6 3.553167 1_655
Zr3 Zr5 3.553172 1_555
Zr3 Zr9 3.553172 1_655
Zr3 Zr7 3.553175 1_555
Zr3 Zr4 3.553175 1_555
Cd0 Zr9 2.904548 1_545
Cd0 Zr8 2.904548 1_455
Cd0 Zr5 2.904548 1_554
Cd0 Zr6 2.904548 1_554
Cd0 Zr4 2.904549 1_444
Cd0 Zr7 2.904549 1_555
Cd0 Cd1 3.002879 1_555
Cd0 Cd1 3.002879 1_554
Cd1 Zr9 2.904548 1_545
Cd1 Zr8 2.904548 1_455
Cd1 Zr6 2.904548 1_555
Cd1 Zr5 2.904548 1_555
Cd1 Zr4 2.904549 1_445
Cd1 Zr7 2.904549 1_555
Pb0 Zr4 3.019778 1_555
Pb0 Zr5 3.025724 1_555
Pb0 Zr6 3.025724 1_555
Pb0 Zr7 3.129863 1_555
Pb0 Zr7 3.129863 1_556
Pb0 Zr1 3.155975 1_556
Pb0 Zr3 3.155975 1_555
Pb0 Zr2 3.155975 1_555
Pb0 Zr0 3.155975 1_556
Pb1 Zr5 3.019778 1_555
Pb1 Zr4 3.025723 1_545
Pb1 Zr6 3.025724 1_655
Pb1 Zr8 3.129863 1_556
Pb1 Zr8 3.129863 1_555
Pb1 Zr3 3.155968 1_555
Pb1 Zr0 3.155968 1_556
Pb1 Zr1 3.155971 1_546
Pb1 Zr2 3.155971 1_545
Pb2 Zr6 3.019778 1_555
Pb2 Zr4 3.025723 1_455
Pb2 Zr5 3.025724 1_565
Pb2 Zr9 3.129863 1_556
Pb2 Zr9 3.129863 1_555
Pb2 Zr1 3.155968 1_556
Pb2 Zr2 3.155968 1_555
Pb2 Zr3 3.155971 1_455
Pb2 Zr0 3.155971 1_456
Pb3 Zr7 3.019778 1_555
Pb3 Zr9 3.025724 1_655
Pb3 Zr8 3.025724 1_565
Pb3 Zr4 3.129863 1_555
Pb3 Zr4 3.129863 1_554
Pb3 Zr3 3.155975 1_555
Pb3 Zr0 3.155975 1_555
Pb3 Zr2 3.155975 1_555
Pb3 Zr1 3.155975 1_555
Pb4 Zr8 3.019778 1_555
Pb4 Zr7 3.025723 1_555
Pb4 Zr9 3.025724 1_545
Pb4 Zr5 3.129863 1_555
Pb4 Zr5 3.129863 1_554
Pb4 Zr1 3.155968 1_545
Pb4 Zr2 3.155968 1_545
Pb4 Zr3 3.155971 1_555
Pb4 Zr0 3.155971 1_555
Pb5 Zr9 3.019778 1_555
Pb5 Zr7 3.025723 1_555
Pb5 Zr8 3.025724 1_455
Pb5 Zr6 3.129863 1_554
Pb5 Zr6 3.129863 1_555
Pb5 Zr3 3.155968 1_455
Pb5 Zr0 3.155968 1_455
Pb5 Zr2 3.155971 1_555
Pb5 Zr1 3.155971 1_555
