# generated using pymatgen
data_Ho(SiPt)2
_symmetry_space_group_name_H-M   'P 1'
_cell_length_a   4.14149509
_cell_length_b   4.14149509
_cell_length_c   9.91303081
_cell_angle_alpha   90.00000000
_cell_angle_beta   90.00000000
_cell_angle_gamma   90.00000000
_symmetry_Int_Tables_number   1
_chemical_formula_structural   Ho(SiPt)2
_chemical_formula_sum   'Ho2 Si4 Pt4'
_cell_volume   170.02812186
_cell_formula_units_Z   2
loop_
 _symmetry_equiv_pos_site_id
 _symmetry_equiv_pos_as_xyz
  1  'x, y, z'
loop_
 _atom_site_type_symbol
 _atom_site_label
 _atom_site_symmetry_multiplicity
 _atom_site_fract_x
 _atom_site_fract_y
 _atom_site_fract_z
 _atom_site_occupancy
  Ho  Ho0  1  0.75000000  0.75000000  0.74676089  1
  Ho  Ho1  1  0.25000000  0.25000000  0.25323911  1
  Si  Si0  1  0.75000000  0.75000000  0.13537811  1
  Si  Si1  1  0.25000000  0.75000000  0.50000000  1
  Si  Si2  1  0.25000000  0.25000000  0.86462189  1
  Si  Si3  1  0.75000000  0.25000000  0.50000000  1
  Pt  Pt0  1  0.25000000  0.25000000  0.62538142  1
  Pt  Pt1  1  0.75000000  0.25000000  -0.00000000  1
  Pt  Pt2  1  0.25000000  0.75000000  -0.00000000  1
  Pt  Pt3  1  0.75000000  0.75000000  0.37461858  1
loop_
_geom_bond_atom_site_label_1
_geom_bond_atom_site_label_2
_geom_bond_distance
_geom_bond_site_symmetry_2
Ho0 Si2 3.152944 1_655
Ho0 Si2 3.152944 1_555
Ho0 Si2 3.152944 1_565
Ho0 Si2 3.152944 1_665
Ho0 Pt0 3.166034 1_555
Ho0 Pt0 3.166034 1_655
Ho0 Pt0 3.166034 1_565
Ho0 Pt0 3.166034 1_665
Ho0 Si3 3.204939 1_565
Ho0 Si3 3.204939 1_555
Ho0 Si1 3.204939 1_555
Ho0 Si1 3.204939 1_655
Ho0 Pt1 3.254219 1_566
Ho0 Pt1 3.254219 1_556
Ho0 Pt2 3.254219 1_556
Ho0 Pt2 3.254219 1_656
Ho1 Si0 3.152944 1_445
Ho1 Si0 3.152944 1_555
Ho1 Si0 3.152944 1_545
Ho1 Si0 3.152944 1_455
Ho1 Pt3 3.166034 1_555
Ho1 Pt3 3.166034 1_545
Ho1 Pt3 3.166034 1_445
Ho1 Pt3 3.166034 1_455
Ho1 Si3 3.204939 1_455
Ho1 Si3 3.204939 1_555
Ho1 Si1 3.204939 1_555
Ho1 Si1 3.204939 1_545
Ho1 Pt1 3.254219 1_455
Ho1 Pt2 3.254219 1_555
Ho1 Pt1 3.254219 1_555
Ho1 Pt2 3.254219 1_545
Pt0 Si2 2.371598 1_555
Pt0 Si3 2.415123 1_555
Pt0 Si3 2.415123 1_455
Pt0 Si1 2.415123 1_555
Pt0 Si1 2.415123 1_545
Pt1 Si0 2.467586 1_555
Pt1 Si2 2.467586 1_654
Pt1 Si0 2.467586 1_545
Pt1 Si2 2.467586 1_554
Pt2 Si2 2.467586 1_564
Pt2 Si0 2.467586 1_555
Pt2 Si2 2.467586 1_554
Pt2 Si0 2.467586 1_455
Pt3 Si0 2.371598 1_555
Pt3 Si3 2.415123 1_565
Pt3 Si3 2.415123 1_555
Pt3 Si1 2.415123 1_555
Pt3 Si1 2.415123 1_655
