# generated using pymatgen
data_Li9Mn7O16
_symmetry_space_group_name_H-M   'P 1'
_cell_length_a   6.00534739
_cell_length_b   6.00534739
_cell_length_c   10.64079390
_cell_angle_alpha   69.94454054
_cell_angle_beta   69.94454054
_cell_angle_gamma   57.46812501
_symmetry_Int_Tables_number   1
_chemical_formula_structural   Li9Mn7O16
_chemical_formula_sum   'Li9 Mn7 O16'
_cell_volume   297.76939644
_cell_formula_units_Z   1
loop_
 _symmetry_equiv_pos_site_id
 _symmetry_equiv_pos_as_xyz
  1  'x, y, z'
loop_
 _atom_site_type_symbol
 _atom_site_label
 _atom_site_symmetry_multiplicity
 _atom_site_fract_x
 _atom_site_fract_y
 _atom_site_fract_z
 _atom_site_occupancy
  Li  Li0  1  0.00000000  0.50000000  0.00000000  1
  Li  Li1  1  0.50000000  0.00000000  0.00000000  1
  Li  Li2  1  0.24874200  0.24874200  0.75582100  1
  Li  Li3  1  0.74343300  0.74343300  0.76141700  1
  Li  Li4  1  0.50000000  0.00000000  0.50000000  1
  Li  Li5  1  0.00000000  0.50000000  0.50000000  1
  Li  Li6  1  0.75125800  0.75125800  0.24417900  1
  Li  Li7  1  0.25656700  0.25656700  0.23858300  1
  Li  Li8  1  0.50000000  0.50000000  0.00000000  1
  Mn  Mn0  1  0.00000000  0.00000000  0.00000000  1
  Mn  Mn1  1  0.24889100  0.74608900  0.24402500  1
  Mn  Mn2  1  0.25391100  0.75110900  0.75597500  1
  Mn  Mn3  1  0.75110900  0.25391100  0.75597500  1
  Mn  Mn4  1  0.50000000  0.50000000  0.50000000  1
  Mn  Mn5  1  0.00000000  0.00000000  0.50000000  1
  Mn  Mn6  1  0.74608900  0.24889100  0.24402500  1
  O  O0  1  0.12491700  0.65050900  0.12380300  1
  O  O1  1  0.65050900  0.12491700  0.12380300  1
  O  O2  1  0.38564200  0.38564200  0.86077600  1
  O  O3  1  0.88012000  0.88012000  0.86380500  1
  O  O4  1  0.63815500  0.13967200  0.61679600  1
  O  O5  1  0.13967200  0.63815500  0.61679600  1
  O  O6  1  0.88632700  0.88632700  0.36229900  1
  O  O7  1  0.38192800  0.38192800  0.36280400  1
  O  O8  1  0.87508300  0.34949100  0.87619700  1
  O  O9  1  0.34949100  0.87508300  0.87619700  1
  O  O10  1  0.11367300  0.11367300  0.63770100  1
  O  O11  1  0.61807200  0.61807200  0.63719600  1
  O  O12  1  0.36184500  0.86032800  0.38320400  1
  O  O13  1  0.86032800  0.36184500  0.38320400  1
  O  O14  1  0.61435800  0.61435800  0.13922400  1
  O  O15  1  0.11988000  0.11988000  0.13619500  1
loop_
_geom_bond_atom_site_label_1
_geom_bond_atom_site_label_2
_geom_bond_distance
_geom_bond_site_symmetry_2
Li0 O15 2.123336 1_555
Li0 O3 2.123336 1_454
Li0 O2 2.159596 1_554
Li0 O14 2.159596 1_455
Li0 O0 2.310602 1_555
Li0 O8 2.310602 1_454
Li1 O15 2.123336 1_555
Li1 O3 2.123336 1_544
Li1 O2 2.159596 1_554
Li1 O14 2.159596 1_545
Li1 O1 2.310602 1_555
Li1 O9 2.310602 1_544
Li2 O9 2.035202 1_545
Li2 O8 2.035202 1_455
Li2 O2 2.141371 1_555
Li2 O4 2.175016 1_555
Li2 O5 2.175016 1_555
Li2 O10 2.236466 1_555
Li3 O8 2.093427 1_555
Li3 O9 2.093427 1_555
Li3 O3 2.118024 1_555
Li3 O11 2.203472 1_555
Li3 O4 2.228869 1_565
Li3 O5 2.228869 1_655
Li4 O11 2.135166 1_545
Li4 O7 2.135166 1_555
Li4 O10 2.155598 1_555
Li4 O6 2.155598 1_545
Li4 O4 2.259889 1_555
Li4 O12 2.259889 1_545
Li5 O11 2.135166 1_455
Li5 O7 2.135166 1_555
Li5 O10 2.155598 1_555
Li5 O6 2.155598 1_455
Li5 O5 2.259889 1_555
Li5 O13 2.259889 1_455
Li6 O0 2.035202 1_655
Li6 O1 2.035202 1_565
Li6 O14 2.141371 1_555
Li6 O13 2.175016 1_555
Li6 O12 2.175016 1_555
Li6 O6 2.236466 1_555
Li7 O0 2.093427 1_555
Li7 O1 2.093427 1_555
Li7 O15 2.118024 1_555
Li7 O7 2.203472 1_555
Li7 O13 2.228869 1_455
Li7 O12 2.228869 1_545
Li8 O8 2.053754 1_554
Li8 O9 2.053754 1_554
Li8 O0 2.053754 1_555
Li8 O1 2.053754 1_555
Li8 O14 2.245181 1_555
Li8 O2 2.245181 1_554
Mn0 O0 1.947123 1_545
Mn0 O9 1.947123 1_544
Mn0 O1 1.947123 1_455
Mn0 O8 1.947123 1_454
Mn0 O15 2.263936 1_555
Mn0 O3 2.263936 1_444
Mn1 O14 1.935299 1_555
Mn1 O6 1.977176 1_455
Mn1 O15 1.982003 1_565
Mn1 O7 1.983929 1_555
Mn1 O0 2.033891 1_555
Mn1 O12 2.238401 1_555
Mn2 O2 1.935299 1_555
Mn2 O10 1.977176 1_565
Mn2 O3 1.982003 1_455
Mn2 O11 1.983929 1_555
Mn2 O9 2.033891 1_555
Mn2 O5 2.238401 1_555
Mn3 O2 1.935299 1_555
Mn3 O10 1.977176 1_655
Mn3 O3 1.982003 1_545
Mn3 O11 1.983929 1_555
Mn3 O8 2.033891 1_555
Mn3 O4 2.238401 1_555
Mn4 O5 1.961413 1_555
Mn4 O4 1.961413 1_555
Mn4 O12 1.961413 1_555
Mn4 O13 1.961413 1_555
Mn4 O11 2.257753 1_555
Mn4 O7 2.257753 1_555
Mn5 O13 1.967849 1_455
Mn5 O12 1.967849 1_545
Mn5 O5 1.967849 1_545
Mn5 O4 1.967849 1_455
Mn5 O10 2.225359 1_555
Mn5 O6 2.225359 1_445
Mn6 O14 1.935299 1_555
Mn6 O6 1.977176 1_545
Mn6 O15 1.982003 1_655
Mn6 O7 1.983929 1_555
Mn6 O1 2.033891 1_555
Mn6 O13 2.238401 1_555
