# generated using pymatgen
data_Sr2VN2
_symmetry_space_group_name_H-M   'P 1'
_cell_length_a   6.36365275
_cell_length_b   11.57780692
_cell_length_c   12.90530200
_cell_angle_alpha   90.00000000
_cell_angle_beta   90.00000000
_cell_angle_gamma   24.53849434
_symmetry_Int_Tables_number   1
_chemical_formula_structural   Sr2VN2
_chemical_formula_sum   'Sr8 V4 N8'
_cell_volume   394.88223368
_cell_formula_units_Z   4
loop_
 _symmetry_equiv_pos_site_id
 _symmetry_equiv_pos_as_xyz
  1  'x, y, z'
loop_
 _atom_site_type_symbol
 _atom_site_label
 _atom_site_symmetry_multiplicity
 _atom_site_fract_x
 _atom_site_fract_y
 _atom_site_fract_z
 _atom_site_occupancy
  Sr  Sr0  1  0.00000000  0.45786800  0.85150400  1
  Sr  Sr1  1  0.00000000  0.54213200  0.14849600  1
  Sr  Sr2  1  0.00000000  0.04213200  0.35150400  1
  Sr  Sr3  1  0.00000000  0.95786800  0.64849600  1
  Sr  Sr4  1  0.00000000  0.14912100  0.94064500  1
  Sr  Sr5  1  0.00000000  0.85087900  0.05935500  1
  Sr  Sr6  1  0.00000000  0.35087900  0.44064500  1
  Sr  Sr7  1  0.00000000  0.64912100  0.55935500  1
  V  V0  1  0.00000000  0.26871800  0.67908100  1
  V  V1  1  0.00000000  0.73128200  0.32091900  1
  V  V2  1  0.00000000  0.23128200  0.17908100  1
  V  V3  1  0.00000000  0.76871800  0.82091900  1
  N  N0  1  0.00000000  0.41583700  0.63931200  1
  N  N1  1  0.00000000  0.58416300  0.36068800  1
  N  N2  1  0.00000000  0.08416300  0.13931200  1
  N  N3  1  0.00000000  0.91583700  0.86068800  1
  N  N4  1  0.00000000  0.16753500  0.57629900  1
  N  N5  1  0.00000000  0.83246500  0.42370100  1
  N  N6  1  0.00000000  0.33246500  0.07629900  1
  N  N7  1  0.00000000  0.66753500  0.92370100  1
loop_
_geom_bond_atom_site_label_1
_geom_bond_atom_site_label_2
_geom_bond_distance
_geom_bond_site_symmetry_2
N0 V0 1.778957 1_555
N0 Sr6 2.671886 1_555
N0 Sr3 2.689894 1_645
N0 Sr3 2.689894 1_455
N0 Sr0 2.781304 1_555
N0 Sr7 2.891316 1_555
N1 V1 1.778957 1_555
N1 Sr7 2.671886 1_555
N1 Sr2 2.689894 1_465
N1 Sr2 2.689894 1_655
N1 Sr1 2.781304 1_555
N1 Sr6 2.891316 1_555
N2 V2 1.778957 1_555
N2 Sr4 2.671886 1_554
N2 Sr1 2.689894 1_455
N2 Sr1 2.689894 1_645
N2 Sr2 2.781304 1_555
N2 Sr5 2.891316 1_545
N3 V3 1.778957 1_555
N3 Sr5 2.671886 1_556
N3 Sr0 2.689894 1_655
N3 Sr0 2.689894 1_465
N3 Sr3 2.781304 1_555
N3 Sr4 2.891316 1_565
N4 V0 1.769684 1_555
N4 Sr3 2.600152 1_545
N4 Sr7 2.660440 1_455
N4 Sr7 2.660440 1_645
N4 Sr6 2.751498 1_555
N4 Sr2 3.244082 1_555
N5 V1 1.769684 1_555
N5 Sr2 2.600152 1_565
N5 Sr6 2.660440 1_655
N5 Sr6 2.660440 1_465
N5 Sr7 2.751498 1_555
N5 Sr3 3.244082 1_555
N6 V2 1.769684 1_555
N6 Sr1 2.600152 1_555
N6 Sr5 2.660440 1_645
N6 Sr5 2.660440 1_455
N6 Sr4 2.751498 1_554
N6 Sr0 3.244082 1_554
N7 V3 1.769684 1_555
N7 Sr0 2.600152 1_555
N7 Sr4 2.660440 1_465
N7 Sr4 2.660440 1_655
N7 Sr5 2.751498 1_556
N7 Sr1 3.244082 1_556
