# generated using pymatgen
data_Mg(ScSe2)2
_symmetry_space_group_name_H-M   'P 1'
_cell_length_a   8.16945400
_cell_length_b   7.71829200
_cell_length_c   11.31957600
_cell_angle_alpha   90.00000000
_cell_angle_beta   90.00000000
_cell_angle_gamma   90.00000000
_symmetry_Int_Tables_number   1
_chemical_formula_structural   Mg(ScSe2)2
_chemical_formula_sum   'Mg4 Sc8 Se16'
_cell_volume   713.74716505
_cell_formula_units_Z   4
loop_
 _symmetry_equiv_pos_site_id
 _symmetry_equiv_pos_as_xyz
  1  'x, y, z'
loop_
 _atom_site_type_symbol
 _atom_site_label
 _atom_site_symmetry_multiplicity
 _atom_site_fract_x
 _atom_site_fract_y
 _atom_site_fract_z
 _atom_site_occupancy
  Mg  Mg0  1  0.17128100  0.25000000  0.39737100  1
  Mg  Mg1  1  0.82871900  0.75000000  0.60262900  1
  Mg  Mg2  1  0.32871900  0.75000000  0.89737100  1
  Mg  Mg3  1  0.67128100  0.25000000  0.10262900  1
  Sc  Sc0  1  0.00073800  0.75000000  0.29361100  1
  Sc  Sc1  1  0.99926200  0.25000000  0.70638900  1
  Sc  Sc2  1  0.49926200  0.25000000  0.79361100  1
  Sc  Sc3  1  0.50073800  0.75000000  0.20638900  1
  Sc  Sc4  1  0.06247600  0.25000000  0.01022300  1
  Sc  Sc5  1  0.93752400  0.75000000  0.98977700  1
  Sc  Sc6  1  0.43752400  0.75000000  0.51022300  1
  Sc  Sc7  1  0.56247600  0.25000000  0.48977700  1
  Se  Se0  1  0.09811400  0.52369000  0.84152500  1
  Se  Se1  1  0.90188600  0.47631000  0.15847500  1
  Se  Se2  1  0.40188600  0.47631000  0.34152500  1
  Se  Se3  1  0.59811400  0.52369000  0.65847500  1
  Se  Se4  1  0.59811400  0.97631000  0.65847500  1
  Se  Se5  1  0.40188600  0.02369000  0.34152500  1
  Se  Se6  1  0.90188600  0.02369000  0.15847500  1
  Se  Se7  1  0.09811400  0.97631000  0.84152500  1
  Se  Se8  1  0.88511100  0.25000000  0.48914500  1
  Se  Se9  1  0.11488900  0.75000000  0.51085500  1
  Se  Se10  1  0.61488900  0.75000000  0.98914500  1
  Se  Se11  1  0.38511100  0.25000000  0.01085500  1
  Se  Se12  1  0.21434200  0.75000000  0.11771100  1
  Se  Se13  1  0.78565800  0.25000000  0.88228900  1
  Se  Se14  1  0.28565800  0.25000000  0.61771100  1
  Se  Se15  1  0.71434200  0.75000000  0.38228900  1
loop_
_geom_bond_atom_site_label_1
_geom_bond_atom_site_label_2
_geom_bond_distance
_geom_bond_site_symmetry_2
Mg0 Se8 2.558271 1_455
Mg0 Se5 2.645716 1_555
Mg0 Se2 2.645716 1_555
Mg0 Se14 2.663440 1_555
Mg1 Se9 2.558271 1_655
Mg1 Se3 2.645716 1_555
Mg1 Se4 2.645716 1_555
Mg1 Se15 2.663440 1_555
Mg2 Se10 2.558271 1_555
Mg2 Se0 2.645716 1_555
Mg2 Se7 2.645716 1_555
Mg2 Se12 2.663440 1_556
Mg3 Se11 2.558271 1_555
Mg3 Se1 2.645716 1_555
Mg3 Se6 2.645716 1_555
Mg3 Se13 2.663440 1_554
Sc0 Se15 2.545938 1_455
Sc0 Se9 2.629995 1_555
Sc0 Se12 2.647575 1_555
Sc0 Se1 2.730276 1_455
Sc0 Se6 2.730276 1_465
Sc1 Se14 2.545938 1_655
Sc1 Se8 2.629995 1_555
Sc1 Se13 2.647575 1_555
Sc1 Se7 2.730276 1_645
Sc1 Se0 2.730276 1_655
Sc2 Se13 2.545938 1_555
Sc2 Se11 2.629995 1_556
Sc2 Se14 2.647575 1_555
Sc2 Se4 2.730276 1_545
Sc2 Se3 2.730276 1_555
Sc3 Se12 2.545938 1_555
Sc3 Se10 2.629995 1_554
Sc3 Se15 2.647575 1_555
Sc3 Se2 2.730276 1_555
Sc3 Se5 2.730276 1_565
Sc4 Se11 2.635761 1_555
Sc4 Se13 2.685392 1_454
Sc4 Se1 2.754707 1_455
Sc4 Se6 2.754707 1_455
Sc4 Se7 2.862449 1_544
Sc4 Se0 2.862449 1_554
Sc5 Se10 2.635761 1_555
Sc5 Se12 2.685392 1_656
Sc5 Se0 2.754707 1_655
Sc5 Se7 2.754707 1_655
Sc5 Se1 2.862449 1_556
Sc5 Se6 2.862449 1_566
Sc6 Se9 2.635761 1_555
Sc6 Se15 2.685392 1_555
Sc6 Se3 2.754707 1_555
Sc6 Se4 2.754707 1_555
Sc6 Se2 2.862449 1_555
Sc6 Se5 2.862449 1_565
Sc7 Se8 2.635761 1_555
Sc7 Se14 2.685392 1_555
Sc7 Se2 2.754707 1_555
Sc7 Se5 2.754707 1_555
Sc7 Se4 2.862449 1_545
Sc7 Se3 2.862449 1_555
