# generated using pymatgen
data_CoH7C4(NO3)2
_symmetry_space_group_name_H-M   'P 1'
_cell_length_a   9.03960300
_cell_length_b   9.53639000
_cell_length_c   12.06139700
_cell_angle_alpha   90.00000000
_cell_angle_beta   90.00000000
_cell_angle_gamma   90.00000000
_symmetry_Int_Tables_number   1
_chemical_formula_structural   CoH7C4(NO3)2
_chemical_formula_sum   'Co4 H28 C16 N8 O24'
_cell_volume   1039.75489525
_cell_formula_units_Z   4
loop_
 _symmetry_equiv_pos_site_id
 _symmetry_equiv_pos_as_xyz
  1  'x, y, z'
loop_
 _atom_site_type_symbol
 _atom_site_label
 _atom_site_symmetry_multiplicity
 _atom_site_fract_x
 _atom_site_fract_y
 _atom_site_fract_z
 _atom_site_occupancy
  Co  Co0  1  0.75000000  0.25183600  0.25000000  1
  Co  Co1  1  0.75000000  0.24816400  0.75000000  1
  Co  Co2  1  0.25000000  0.74816400  0.75000000  1
  Co  Co3  1  0.25000000  0.75183600  0.25000000  1
  H  H0  1  0.55665400  0.18695100  0.34540300  1
  H  H1  1  0.55665400  0.31304900  0.65459700  1
  H  H2  1  0.94334600  0.18695100  0.15459700  1
  H  H3  1  0.94334600  0.31304900  0.84540300  1
  H  H4  1  0.44334600  0.81304900  0.65459700  1
  H  H5  1  0.44334600  0.68695100  0.34540300  1
  H  H6  1  0.05665400  0.81304900  0.84540300  1
  H  H7  1  0.05665400  0.68695100  0.15459700  1
  H  H8  1  0.63385500  0.02540700  0.38612000  1
  H  H9  1  0.63385500  0.47459300  0.61388000  1
  H  H10  1  0.86614500  0.02540700  0.11388000  1
  H  H11  1  0.86614500  0.47459300  0.88612000  1
  H  H12  1  0.36614500  0.97459300  0.61388000  1
  H  H13  1  0.36614500  0.52540700  0.38612000  1
  H  H14  1  0.13385500  0.97459300  0.88612000  1
  H  H15  1  0.13385500  0.52540700  0.11388000  1
  H  H16  1  0.62007300  0.58123600  0.23506100  1
  H  H17  1  0.62007300  0.91876400  0.76493900  1
  H  H18  1  0.87992700  0.58123600  0.26493900  1
  H  H19  1  0.87992700  0.91876400  0.73506100  1
  H  H20  1  0.37992700  0.41876400  0.76493900  1
  H  H21  1  0.37992700  0.08123600  0.23506100  1
  H  H22  1  0.12007300  0.41876400  0.73506100  1
  H  H23  1  0.12007300  0.08123600  0.26493900  1
  H  H24  1  0.83642900  0.25000000  0.00000000  1
  H  H25  1  0.66357100  0.25000000  0.50000000  1
  H  H26  1  0.16357100  0.75000000  0.00000000  1
  H  H27  1  0.33642900  0.75000000  0.50000000  1
  C  C0  1  0.54903800  0.51212600  0.28603000  1
  C  C1  1  0.54903800  0.98787400  0.71397000  1
  C  C2  1  0.95096200  0.51212600  0.21397000  1
  C  C3  1  0.95096200  0.98787400  0.78603000  1
  C  C4  1  0.45096200  0.48787400  0.71397000  1
  C  C5  1  0.45096200  0.01212600  0.28603000  1
  C  C6  1  0.04903800  0.48787400  0.78603000  1
  C  C7  1  0.04903800  0.01212600  0.21397000  1
  C  C8  1  0.71227400  0.25000000  0.00000000  1
  C  C9  1  0.78772600  0.25000000  0.50000000  1
  C  C10  1  0.28772600  0.75000000  0.00000000  1
  C  C11  1  0.21227400  0.75000000  0.50000000  1
  C  C12  1  0.31563600  0.25000000  0.00000000  1
  C  C13  1  0.18436400  0.25000000  0.50000000  1
  C  C14  1  0.68436400  0.75000000  0.00000000  1
  C  C15  1  0.81563600  0.75000000  0.50000000  1
  N  N0  1  0.56085600  0.07992800  0.33850000  1
  N  N1  1  0.56085600  0.42007200  0.66150000  1
  N  N2  1  0.93914400  0.07992800  0.16150000  1
  N  N3  1  0.93914400  0.42007200  0.83850000  1
  N  N4  1  0.43914400  0.92007200  0.66150000  1
  N  N5  1  0.43914400  0.57992800  0.33850000  1
  N  N6  1  0.06085600  0.92007200  0.83850000  1
  N  N7  1  0.06085600  0.57992800  0.16150000  1
  O  O0  1  0.64959300  0.22848100  0.09249700  1
  O  O1  1  0.64959300  0.27151900  0.90750300  1
  O  O2  1  0.85040700  0.22848100  0.40750300  1
  O  O3  1  0.85040700  0.27151900  0.59249700  1
  O  O4  1  0.35040700  0.77151900  0.90750300  1
  O  O5  1  0.35040700  0.72848100  0.09249700  1
  O  O6  1  0.14959300  0.77151900  0.59249700  1
  O  O7  1  0.14959300  0.72848100  0.40750300  1
  O  O8  1  0.57032900  0.38319700  0.29274100  1
  O  O9  1  0.57032900  0.11680300  0.70725900  1
  O  O10  1  0.92967100  0.38319700  0.20725900  1
  O  O11  1  0.92967100  0.11680300  0.79274100  1
  O  O12  1  0.42967100  0.61680300  0.70725900  1
  O  O13  1  0.42967100  0.88319700  0.29274100  1
  O  O14  1  0.07032900  0.61680300  0.79274100  1
  O  O15  1  0.07032900  0.88319700  0.20725900  1
  O  O16  1  0.31178800  0.34454600  0.06258600  1
  O  O17  1  0.31178800  0.15545400  0.93741400  1
  O  O18  1  0.18821200  0.34454600  0.43741400  1
  O  O19  1  0.18821200  0.15545400  0.56258600  1
  O  O20  1  0.68821200  0.65545400  0.93741400  1
  O  O21  1  0.68821200  0.84454600  0.06258600  1
  O  O22  1  0.81178800  0.65545400  0.56258600  1
  O  O23  1  0.81178800  0.84454600  0.43741400  1
loop_
_geom_bond_atom_site_label_1
_geom_bond_atom_site_label_2
_geom_bond_distance
_geom_bond_site_symmetry_2
Co0 O10 2.114927 1_555
Co0 O8 2.114927 1_555
Co0 O2 2.117144 1_555
Co0 O0 2.117144 1_555
Co0 H0 2.182126 1_555
Co0 H2 2.182126 1_555
Co1 O11 2.114927 1_555
Co1 O9 2.114927 1_555
Co1 O1 2.117144 1_555
Co1 O3 2.117144 1_555
Co1 H3 2.182126 1_555
Co1 H1 2.182126 1_555
Co2 O12 2.114927 1_555
Co2 O14 2.114927 1_555
Co2 O4 2.117144 1_555
Co2 O6 2.117144 1_555
Co2 H4 2.182126 1_555
Co2 H6 2.182126 1_555
Co3 O13 2.114927 1_555
Co3 O15 2.114927 1_555
Co3 O5 2.117144 1_555
Co3 O7 2.117144 1_555
Co3 H5 2.182126 1_555
Co3 H7 2.182126 1_555
H0 N0 1.024708 1_555
H1 N1 1.024708 1_555
H2 N2 1.024708 1_555
H3 N3 1.024708 1_555
H4 N4 1.024708 1_555
H5 N5 1.024708 1_555
H6 N6 1.024708 1_555
H7 N7 1.024708 1_555
H8 N0 1.017678 1_555
H9 N1 1.017678 1_555
H10 N2 1.017678 1_555
H11 N3 1.017678 1_555
H12 N4 1.017678 1_555
H13 N5 1.017678 1_555
H14 N6 1.017678 1_555
H15 N7 1.017678 1_555
C0 H16 1.106623 1_555
C0 O8 1.247119 1_555
C0 N5 1.343662 1_555
C1 H17 1.106623 1_555
C1 O9 1.247119 1_565
C1 N4 1.343662 1_555
C2 H18 1.106623 1_555
C2 O10 1.247119 1_555
C2 N7 1.343662 1_655
C3 H19 1.106623 1_555
C3 O11 1.247119 1_565
C3 N6 1.343662 1_655
C4 H20 1.106623 1_555
C4 O12 1.247119 1_555
C4 N1 1.343662 1_555
C5 H21 1.106623 1_555
C5 O13 1.247119 1_545
C5 N0 1.343662 1_555
C6 H22 1.106623 1_555
C6 O14 1.247119 1_555
C6 N3 1.343662 1_455
C7 H23 1.106623 1_555
C7 O15 1.247119 1_545
C7 N2 1.343662 1_455
C8 H24 1.122312 1_555
C8 O0 1.267999 1_555
C8 O1 1.267999 1_554
C9 H25 1.122312 1_555
C9 O3 1.267999 1_555
C9 O2 1.267999 1_555
C10 H26 1.122312 1_555
C10 O4 1.267999 1_554
C10 O5 1.267999 1_555
C11 H27 1.122312 1_555
C11 O6 1.267999 1_555
C11 O7 1.267999 1_555
C12 O16 1.176426 1_555
C12 O17 1.176426 1_554
C13 O19 1.176426 1_555
C13 O18 1.176426 1_555
C14 O21 1.176426 1_555
C14 O20 1.176426 1_554
C15 O22 1.176426 1_555
C15 O23 1.176426 1_555
