# generated using pymatgen
data_HgPb2Br3O2
_symmetry_space_group_name_H-M   'P 1'
_cell_length_a   7.85475100
_cell_length_b   8.34704433
_cell_length_c   14.85016800
_cell_angle_alpha   90.00000000
_cell_angle_beta   90.00000000
_cell_angle_gamma   118.06747042
_symmetry_Int_Tables_number   1
_chemical_formula_structural   HgPb2Br3O2
_chemical_formula_sum   'Hg4 Pb8 Br12 O8'
_cell_volume   859.13047419
_cell_formula_units_Z   4
loop_
 _symmetry_equiv_pos_site_id
 _symmetry_equiv_pos_as_xyz
  1  'x, y, z'
loop_
 _atom_site_type_symbol
 _atom_site_label
 _atom_site_symmetry_multiplicity
 _atom_site_fract_x
 _atom_site_fract_y
 _atom_site_fract_z
 _atom_site_occupancy
  Hg  Hg0  1  0.42556500  0.33017100  0.14366900  1
  Hg  Hg1  1  0.09539400  0.66982900  0.85633100  1
  Hg  Hg2  1  0.92556500  0.33017100  0.35633100  1
  Hg  Hg3  1  0.59539400  0.66982900  0.64366900  1
  Pb  Pb0  1  0.30613600  0.82527200  0.09979900  1
  Pb  Pb1  1  0.48086400  0.17472800  0.90020100  1
  Pb  Pb2  1  0.80613600  0.82527200  0.40020100  1
  Pb  Pb3  1  0.98086400  0.17472800  0.59979900  1
  Pb  Pb4  1  0.79487500  0.17513500  0.07638400  1
  Pb  Pb5  1  0.61973900  0.82486500  0.92361600  1
  Pb  Pb6  1  0.29487500  0.17513500  0.42361600  1
  Pb  Pb7  1  0.11973900  0.82486500  0.57638400  1
  Br  Br0  1  0.40883600  0.54517100  0.25540200  1
  Br  Br1  1  0.86366500  0.45482900  0.74459800  1
  Br  Br2  1  0.90883600  0.54517100  0.24459800  1
  Br  Br3  1  0.36366500  0.45482900  0.75540200  1
  Br  Br4  1  0.20743000  0.41346700  0.99911900  1
  Br  Br5  1  0.79396300  0.58653300  0.00088100  1
  Br  Br6  1  0.70743000  0.41346700  0.50088100  1
  Br  Br7  1  0.29396300  0.58653300  0.49911900  1
  Br  Br8  1  0.01752400  0.04139400  0.20660100  1
  Br  Br9  1  0.97613000  0.95860600  0.79339900  1
  Br  Br10  1  0.51752400  0.04139400  0.29339900  1
  Br  Br11  1  0.47613000  0.95860600  0.70660100  1
  O  O0  1  0.48044600  0.14922500  0.06549000  1
  O  O1  1  0.33122100  0.85077500  0.93451000  1
  O  O2  1  0.98044600  0.14922500  0.43451000  1
  O  O3  1  0.83122100  0.85077500  0.56549000  1
  O  O4  1  0.61464000  0.87470800  0.07075100  1
  O  O5  1  0.73993100  0.12529200  0.92924900  1
  O  O6  1  0.11464000  0.87470800  0.42924900  1
  O  O7  1  0.23993100  0.12529200  0.57075100  1
loop_
_geom_bond_atom_site_label_1
_geom_bond_atom_site_label_2
_geom_bond_distance
_geom_bond_site_symmetry_2
Hg0 O0 2.104178 1_555
Hg1 O1 2.104178 1_555
Hg2 O2 2.104178 1_555
Hg3 O3 2.104178 1_555
Br0 Hg0 2.492577 1_555
Br1 Hg1 2.492577 1_655
Br2 Hg2 2.492577 1_555
Br3 Hg3 2.492577 1_555
Br4 Hg0 3.024568 1_556
Br4 Pb4 3.115876 1_456
Br5 Hg1 3.024568 1_654
Br5 Pb5 3.115882 1_554
Br6 Hg2 3.024568 1_555
Br6 Pb6 3.115876 1_555
Br7 Hg3 3.024568 1_555
Br7 Pb7 3.115882 1_555
Br8 Hg0 3.112241 1_555
Br8 Pb4 3.143445 1_455
Br9 Hg1 3.112241 1_655
Br9 Pb5 3.143450 1_555
Br10 Hg2 3.112241 1_555
Br10 Pb6 3.143445 1_555
Br11 Hg3 3.112241 1_555
Br11 Pb7 3.143450 1_555
O0 Pb4 2.381182 1_555
O0 Pb0 2.441751 1_545
O0 Pb1 2.463652 1_554
O1 Pb5 2.381175 1_555
O1 Pb1 2.441751 1_565
O1 Pb0 2.463652 1_556
O2 Pb6 2.381182 1_655
O2 Pb2 2.441751 1_545
O2 Pb3 2.463652 1_555
O3 Pb7 2.381175 1_655
O3 Pb3 2.441751 1_565
O3 Pb2 2.463652 1_555
O4 Pb4 2.226861 1_565
O4 Pb5 2.228118 1_554
O4 Pb0 2.299435 1_555
O5 Pb5 2.226861 1_545
O5 Pb4 2.228120 1_556
O5 Pb1 2.299428 1_555
O6 Pb6 2.226861 1_565
O6 Pb7 2.228118 1_555
O6 Pb2 2.299435 1_455
O7 Pb7 2.226861 1_545
O7 Pb6 2.228120 1_555
O7 Pb3 2.299428 1_455
