# generated using pymatgen
data_Cs
_symmetry_space_group_name_H-M   'P 1'
_cell_length_a   10.22011621
_cell_length_b   10.57049037
_cell_length_c   10.57049037
_cell_angle_alpha   69.66998118
_cell_angle_beta   73.27175167
_cell_angle_gamma   106.72824833
_symmetry_Int_Tables_number   1
_chemical_formula_structural   Cs
_chemical_formula_sum   Cs8
_cell_volume   924.92954256
_cell_formula_units_Z   8
loop_
 _symmetry_equiv_pos_site_id
 _symmetry_equiv_pos_as_xyz
  1  'x, y, z'
loop_
 _atom_site_type_symbol
 _atom_site_label
 _atom_site_symmetry_multiplicity
 _atom_site_fract_x
 _atom_site_fract_y
 _atom_site_fract_z
 _atom_site_occupancy
  Cs  Cs0_0  1  0.25000000  0.00000000  0.00000000  1
  Cs  Cs0_1  1  0.25000000  0.00000000  0.50000000  1
  Cs  Cs0_2  1  0.25000000  0.50000000  0.00000000  1
  Cs  Cs0_3  1  0.25000000  0.50000000  0.50000000  1
  Cs  Cs0_4  1  0.75000000  0.00000000  0.00000000  1
  Cs  Cs0_5  1  0.75000000  0.00000000  0.50000000  1
  Cs  Cs0_6  1  0.75000000  0.50000000  1.00000000  1
  Cs  Cs0_7  1  0.75000000  0.50000000  0.50000000  1
loop_
_geom_bond_atom_site_label_1
_geom_bond_atom_site_label_2
_geom_bond_distance
_geom_bond_site_symmetry_2
Cs0_0 Cs0_4 5.110058 1_455
Cs0_0 Cs0_4 5.110058 1_555
Cs0_0 Cs0_1 5.285245 1_555
Cs0_0 Cs0_1 5.285245 1_554
Cs0_0 Cs0_2 5.285245 1_545
Cs0_0 Cs0_2 5.285245 1_555
Cs0_1 Cs0_5 5.110058 1_455
Cs0_1 Cs0_5 5.110058 1_555
Cs0_1 Cs0_3 5.285245 1_555
Cs0_1 Cs0_3 5.285245 1_545
Cs0_2 Cs0_6 5.110058 1_454
Cs0_2 Cs0_6 5.110058 1_554
Cs0_2 Cs0_3 5.285245 1_555
Cs0_2 Cs0_3 5.285245 1_554
Cs0_3 Cs0_7 5.110058 1_455
Cs0_3 Cs0_7 5.110058 1_555
Cs0_4 Cs0_6 5.285245 1_554
Cs0_4 Cs0_5 5.285245 1_555
Cs0_4 Cs0_6 5.285245 1_544
Cs0_4 Cs0_5 5.285245 1_554
Cs0_5 Cs0_7 5.285245 1_545
Cs0_5 Cs0_7 5.285245 1_555
Cs0_6 Cs0_7 5.285245 1_555
Cs0_6 Cs0_7 5.285245 1_556
