# generated using pymatgen
data_EuCuSn2
_symmetry_space_group_name_H-M   'P 1'
_cell_length_a   9.87199456
_cell_length_b   9.87199456
_cell_length_c   4.51001969
_cell_angle_alpha   90.00000000
_cell_angle_beta   90.00000000
_cell_angle_gamma   153.55220861
_symmetry_Int_Tables_number   1
_chemical_formula_structural   EuCuSn2
_chemical_formula_sum   'Eu2 Cu2 Sn4'
_cell_volume   195.75869576
_cell_formula_units_Z   2
loop_
 _symmetry_equiv_pos_site_id
 _symmetry_equiv_pos_as_xyz
  1  'x, y, z'
loop_
 _atom_site_type_symbol
 _atom_site_label
 _atom_site_symmetry_multiplicity
 _atom_site_fract_x
 _atom_site_fract_y
 _atom_site_fract_z
 _atom_site_occupancy
  Eu  Eu0  1  0.60794676  0.39205324  0.25000000  1
  Eu  Eu1  1  0.39207141  0.60792859  0.75000000  1
  Cu  Cu0  1  0.17489624  0.82510376  0.75000000  1
  Cu  Cu1  1  0.82507568  0.17492432  0.25000000  1
  Sn  Sn0  1  0.24932909  0.75067091  0.25000000  1
  Sn  Sn1  1  0.75065801  0.24934199  0.75000000  1
  Sn  Sn2  1  0.04333150  0.95666850  0.75000000  1
  Sn  Sn3  1  0.95669131  0.04330869  0.25000000  1
loop_
_geom_bond_atom_site_label_1
_geom_bond_atom_site_label_2
_geom_bond_distance
_geom_bond_site_symmetry_2
Eu0 Sn2 3.424519 1_655
Eu0 Sn2 3.424519 1_654
Eu0 Sn2 3.424519 1_545
Eu0 Sn2 3.424519 1_544
Eu0 Sn0 3.533312 1_655
Eu0 Sn0 3.533312 1_545
Eu0 Sn1 3.550912 1_555
Eu0 Sn1 3.550912 1_554
Eu0 Sn3 3.681258 1_565
Eu0 Sn3 3.681258 1_455
Eu1 Sn3 3.424551 1_456
Eu1 Sn3 3.424551 1_455
Eu1 Sn3 3.424551 1_565
Eu1 Sn3 3.424551 1_566
Eu1 Sn1 3.533772 1_565
Eu1 Sn1 3.533772 1_455
Eu1 Sn0 3.551374 1_555
Eu1 Sn0 3.551374 1_556
Eu1 Sn2 3.681328 1_655
Eu1 Sn2 3.681328 1_545
Cu0 Sn2 2.528733 1_555
Cu0 Sn0 2.670539 1_555
Cu0 Sn0 2.670539 1_556
Cu0 Sn1 2.687063 1_565
Cu0 Sn1 2.687063 1_455
Cu0 Eu0 3.441044 1_456
Cu0 Eu0 3.441044 1_455
Cu0 Eu0 3.441044 1_565
Cu0 Eu0 3.441044 1_566
Cu1 Sn3 2.529712 1_555
Cu1 Sn1 2.670383 1_555
Cu1 Sn1 2.670383 1_554
Cu1 Sn0 2.686905 1_545
Cu1 Sn0 2.686905 1_655
Cu1 Eu1 3.441376 1_545
Cu1 Eu1 3.441376 1_655
Cu1 Eu1 3.441376 1_654
Cu1 Eu1 3.441376 1_544
Sn2 Sn3 2.803243 1_466
Sn2 Sn3 2.803243 1_465
