# generated using pymatgen
data_Ga2SbTe4Cl7
_symmetry_space_group_name_H-M   'P 1'
_cell_length_a   19.52447900
_cell_length_b   7.35612000
_cell_length_c   14.74501727
_cell_angle_alpha   64.15283005
_cell_angle_beta   90.00000000
_cell_angle_gamma   90.00000000
_symmetry_Int_Tables_number   1
_chemical_formula_structural   Ga2SbTe4Cl7
_chemical_formula_sum   'Ga8 Sb4 Te16 Cl28'
_cell_volume   1905.88558587
_cell_formula_units_Z   4
loop_
 _symmetry_equiv_pos_site_id
 _symmetry_equiv_pos_as_xyz
  1  'x, y, z'
loop_
 _atom_site_type_symbol
 _atom_site_label
 _atom_site_symmetry_multiplicity
 _atom_site_fract_x
 _atom_site_fract_y
 _atom_site_fract_z
 _atom_site_occupancy
  Ga  Ga0  1  0.27965400  0.93112000  0.76527200  1
  Ga  Ga1  1  0.22034600  0.93112000  0.26527200  1
  Ga  Ga2  1  0.72034600  0.06888000  0.23472800  1
  Ga  Ga3  1  0.77965400  0.06888000  0.73472800  1
  Ga  Ga4  1  0.14683700  0.26487600  0.55514300  1
  Ga  Ga5  1  0.35316300  0.26487600  0.05514300  1
  Ga  Ga6  1  0.85316300  0.73512400  0.44485700  1
  Ga  Ga7  1  0.64683700  0.73512400  0.94485700  1
  Sb  Sb0  1  0.98269000  0.18027900  0.08379100  1
  Sb  Sb1  1  0.51731000  0.18027900  0.58379100  1
  Sb  Sb2  1  0.01731000  0.81972100  0.91620900  1
  Sb  Sb3  1  0.48269000  0.81972100  0.41620900  1
  Te  Te0  1  0.92047700  0.49053300  0.90708200  1
  Te  Te1  1  0.57952300  0.49053300  0.40708200  1
  Te  Te2  1  0.07952300  0.50946700  0.09291800  1
  Te  Te3  1  0.42047700  0.50946700  0.59291800  1
  Te  Te4  1  0.98450600  0.44031200  0.75016500  1
  Te  Te5  1  0.51549400  0.44031200  0.25016500  1
  Te  Te6  1  0.01549400  0.55968800  0.24983500  1
  Te  Te7  1  0.48450600  0.55968800  0.74983500  1
  Te  Te8  1  0.11237500  0.45989800  0.81752300  1
  Te  Te9  1  0.38762500  0.45989800  0.31752300  1
  Te  Te10  1  0.88762500  0.54010200  0.18247700  1
  Te  Te11  1  0.61237500  0.54010200  0.68247700  1
  Te  Te12  1  0.10169300  0.10027100  0.99276000  1
  Te  Te13  1  0.39830700  0.10027100  0.49276000  1
  Te  Te14  1  0.89830700  0.89972900  0.00724000  1
  Te  Te15  1  0.60169300  0.89972900  0.50724000  1
  Cl  Cl0  1  0.26739800  0.76067800  0.67767400  1
  Cl  Cl1  1  0.23260200  0.76067800  0.17767400  1
  Cl  Cl2  1  0.73260200  0.23932200  0.32232600  1
  Cl  Cl3  1  0.76739800  0.23932200  0.82232600  1
  Cl  Cl4  1  0.38640700  0.99224600  0.78611500  1
  Cl  Cl5  1  0.11359300  0.99224600  0.28611500  1
  Cl  Cl6  1  0.61359300  0.00775400  0.21388500  1
  Cl  Cl7  1  0.88640700  0.00775400  0.71388500  1
  Cl  Cl8  1  0.21846600  0.81487400  0.90226100  1
  Cl  Cl9  1  0.28153400  0.81487400  0.40226100  1
  Cl  Cl10  1  0.78153400  0.18512600  0.09773900  1
  Cl  Cl11  1  0.71846600  0.18512600  0.59773900  1
  Cl  Cl12  1  0.23792600  0.25443400  0.66424800  1
  Cl  Cl13  1  0.26207400  0.25443400  0.16424800  1
  Cl  Cl14  1  0.76207400  0.74556600  0.33575200  1
  Cl  Cl15  1  0.73792600  0.74556600  0.83575200  1
  Cl  Cl16  1  0.09364000  0.53983500  0.53388900  1
  Cl  Cl17  1  0.40636000  0.53983500  0.03388900  1
  Cl  Cl18  1  0.90636000  0.46016500  0.46611100  1
  Cl  Cl19  1  0.59364000  0.46016500  0.96611100  1
  Cl  Cl20  1  0.08502900  0.99811200  0.63773400  1
  Cl  Cl21  1  0.41497100  0.99811200  0.13773400  1
  Cl  Cl22  1  0.91497100  0.00188800  0.36226600  1
  Cl  Cl23  1  0.58502900  0.00188800  0.86226600  1
  Cl  Cl24  1  0.19686800  0.28727900  0.41942600  1
  Cl  Cl25  1  0.30313200  0.28727900  0.91942600  1
  Cl  Cl26  1  0.80313200  0.71272100  0.58057400  1
  Cl  Cl27  1  0.69686800  0.71272100  0.08057400  1
loop_
_geom_bond_atom_site_label_1
_geom_bond_atom_site_label_2
_geom_bond_distance
_geom_bond_site_symmetry_2
Sb0 Te12 2.869734 1_654
Sb0 Te0 2.878904 1_554
Sb0 Te2 3.120989 1_655
Sb0 Te14 3.206041 1_545
Sb1 Te13 2.869734 1_555
Sb1 Te1 2.878904 1_555
Sb1 Te3 3.120989 1_555
Sb1 Te15 3.206041 1_545
Sb2 Te14 2.869734 1_456
Sb2 Te2 2.878904 1_556
Sb2 Te0 3.120989 1_455
Sb2 Te12 3.206041 1_565
Sb3 Te15 2.869734 1_555
Sb3 Te3 2.878904 1_555
Sb3 Te1 3.120989 1_555
Sb3 Te13 3.206041 1_565
Te0 Te4 2.792496 1_555
Te1 Te5 2.792496 1_555
Te2 Te6 2.792496 1_555
Te3 Te7 2.792496 1_555
Te4 Te8 2.713827 1_655
Te5 Te9 2.713827 1_555
Te10 Te6 2.713827 1_655
Te10 Te14 2.785345 1_555
Te11 Te7 2.713827 1_555
Te11 Te15 2.785345 1_555
Te12 Te8 2.785345 1_555
Te13 Te9 2.785345 1_555
Cl0 Ga0 2.170169 1_555
Cl1 Ga1 2.170169 1_555
Cl2 Ga2 2.170169 1_555
Cl3 Ga3 2.170169 1_555
Cl4 Ga0 2.182069 1_555
Cl5 Ga1 2.182069 1_555
Cl6 Ga2 2.182069 1_555
Cl7 Ga3 2.182069 1_555
Cl8 Ga0 2.175406 1_555
Cl9 Ga1 2.175406 1_555
Cl10 Ga2 2.175406 1_555
Cl11 Ga3 2.175406 1_555
Cl12 Ga0 2.334536 1_545
Cl12 Ga4 2.376801 1_555
Cl13 Ga1 2.334536 1_545
Cl13 Ga5 2.376801 1_555
Cl14 Ga2 2.334536 1_565
Cl14 Ga6 2.376801 1_555
Cl15 Ga3 2.334536 1_565
Cl15 Ga7 2.376801 1_555
Cl16 Ga4 2.171481 1_555
Cl17 Ga5 2.171481 1_555
Cl18 Ga6 2.171481 1_555
Cl19 Ga7 2.171481 1_555
Cl20 Ga4 2.169427 1_565
Cl21 Ga5 2.169427 1_565
Cl22 Ga6 2.169427 1_545
Cl23 Ga7 2.169427 1_545
Cl24 Ga4 2.167579 1_555
Cl25 Ga5 2.167579 1_556
Cl26 Ga6 2.167579 1_555
Cl27 Ga7 2.167579 1_554
