# generated using pymatgen
data_MgZn2
_symmetry_space_group_name_H-M   'P 1'
_cell_length_a   4.97278736
_cell_length_b   4.97278736
_cell_length_c   4.77289700
_cell_angle_alpha   90.00000000
_cell_angle_beta   90.00000000
_cell_angle_gamma   119.99999152
_symmetry_Int_Tables_number   1
_chemical_formula_structural   MgZn2
_chemical_formula_sum   'Mg2 Zn4'
_cell_volume   102.21450019
_cell_formula_units_Z   2
loop_
 _symmetry_equiv_pos_site_id
 _symmetry_equiv_pos_as_xyz
  1  'x, y, z'
loop_
 _atom_site_type_symbol
 _atom_site_label
 _atom_site_symmetry_multiplicity
 _atom_site_fract_x
 _atom_site_fract_y
 _atom_site_fract_z
 _atom_site_occupancy
  Mg  Mg0  1  0.66666700  0.33333300  0.50000000  1
  Mg  Mg1  1  0.33333300  0.66666700  0.50000000  1
  Zn  Zn0  1  0.00000000  0.31962000  0.00000000  1
  Zn  Zn1  1  0.68038000  0.68038000  0.00000000  1
  Zn  Zn2  1  0.31962000  0.00000000  0.00000000  1
  Zn  Zn3  1  0.00000000  0.00000000  0.50000000  1
loop_
_geom_bond_atom_site_label_1
_geom_bond_atom_site_label_2
_geom_bond_distance
_geom_bond_site_symmetry_2
Mg0 Zn3 2.871037 1_655
Mg0 Mg1 2.871037 1_545
Mg0 Mg1 2.871037 1_655
Mg0 Zn3 2.871042 1_555
Mg0 Zn3 2.871042 1_665
Mg0 Mg1 2.871046 1_555
Mg0 Zn0 2.925823 1_655
Mg0 Zn0 2.925823 1_656
Mg0 Zn2 2.925824 1_556
Mg0 Zn2 2.925824 1_555
Mg0 Zn1 2.925826 1_556
Mg0 Zn1 2.925826 1_555
Mg1 Zn3 2.871037 1_565
Mg1 Zn3 2.871042 1_665
Mg1 Zn3 2.871042 1_555
Mg1 Zn2 2.925823 1_566
Mg1 Zn2 2.925823 1_565
Mg1 Zn0 2.925824 1_555
Mg1 Zn0 2.925824 1_556
Mg1 Zn1 2.925826 1_556
Mg1 Zn1 2.925826 1_555
Zn0 Zn2 2.752925 1_555
Zn0 Zn1 2.752926 1_445
Zn0 Zn3 2.867287 1_554
Zn0 Zn3 2.867287 1_555
Zn0 Zn1 2.931882 1_455
Zn0 Zn2 2.931883 1_455
Zn0 Zn2 2.931883 1_565
Zn0 Zn1 2.931883 1_555
Zn1 Zn2 2.752926 1_665
Zn1 Zn3 2.867287 1_664
Zn1 Zn3 2.867287 1_665
Zn1 Zn2 2.931882 1_565
Zn1 Zn2 2.931883 1_555
Zn2 Zn3 2.867287 1_554
Zn2 Zn3 2.867287 1_555
