# generated using pymatgen
data_Ga41Mo8
_symmetry_space_group_name_H-M   'P 1'
_cell_length_a   9.44833813
_cell_length_b   9.44833813
_cell_length_c   9.44833929
_cell_angle_alpha   94.95562657
_cell_angle_beta   94.95562659
_cell_angle_gamma   94.95562776
_symmetry_Int_Tables_number   1
_chemical_formula_structural   Ga41Mo8
_chemical_formula_sum   'Ga41 Mo8'
_cell_volume   833.41887641
_cell_formula_units_Z   1
loop_
 _symmetry_equiv_pos_site_id
 _symmetry_equiv_pos_as_xyz
  1  'x, y, z'
loop_
 _atom_site_type_symbol
 _atom_site_label
 _atom_site_symmetry_multiplicity
 _atom_site_fract_x
 _atom_site_fract_y
 _atom_site_fract_z
 _atom_site_occupancy
  Ga  Ga0  1  0.00000000  -0.00000000  0.00000000  1
  Ga  Ga1  1  0.50000000  0.50000000  0.50000000  1
  Ga  Ga2  1  0.50000000  -0.00000000  0.50000000  1
  Ga  Ga3  1  0.00000000  0.50000000  0.50000000  1
  Ga  Ga4  1  0.50000000  0.50000000  0.00000000  1
  Ga  Ga5  1  0.63350994  0.26943125  0.60982412  1
  Ga  Ga6  1  0.26943125  0.60982412  0.63350994  1
  Ga  Ga7  1  0.60982412  0.63350994  0.26943125  1
  Ga  Ga8  1  0.36649006  0.73056875  0.39017588  1
  Ga  Ga9  1  0.73056875  0.39017588  0.36649006  1
  Ga  Ga10  1  0.39017588  0.36649006  0.73056875  1
  Ga  Ga11  1  0.77981078  0.67561698  0.53887541  1
  Ga  Ga12  1  0.67561698  0.53887541  0.77981078  1
  Ga  Ga13  1  0.53887541  0.77981078  0.67561698  1
  Ga  Ga14  1  0.22018922  0.32438302  0.46112459  1
  Ga  Ga15  1  0.32438302  0.46112459  0.22018922  1
  Ga  Ga16  1  0.46112459  0.22018922  0.32438302  1
  Ga  Ga17  1  0.07803256  0.77671463  0.44910141  1
  Ga  Ga18  1  0.77671463  0.44910141  0.07803256  1
  Ga  Ga19  1  0.44910141  0.07803256  0.77671463  1
  Ga  Ga20  1  0.92196744  0.22328537  0.55089859  1
  Ga  Ga21  1  0.22328537  0.55089859  0.92196744  1
  Ga  Ga22  1  0.55089859  0.92196744  0.22328537  1
  Ga  Ga23  1  0.78464327  0.96755560  0.59843208  1
  Ga  Ga24  1  0.96755560  0.59843208  0.78464327  1
  Ga  Ga25  1  0.59843208  0.78464327  0.96755560  1
  Ga  Ga26  1  0.21535673  0.03244440  0.40156792  1
  Ga  Ga27  1  0.03244440  0.40156792  0.21535673  1
  Ga  Ga28  1  0.40156792  0.21535673  0.03244440  1
  Ga  Ga29  1  0.74602435  0.06011083  0.87834052  1
  Ga  Ga30  1  0.06011083  0.87834052  0.74602435  1
  Ga  Ga31  1  0.87834052  0.74602435  0.06011083  1
  Ga  Ga32  1  0.25397565  0.93988917  0.12165948  1
  Ga  Ga33  1  0.93988917  0.12165948  0.25397565  1
  Ga  Ga34  1  0.12165948  0.25397565  0.93988917  1
  Ga  Ga35  1  0.17689276  0.12490789  0.67970380  1
  Ga  Ga36  1  0.12490789  0.67970380  0.17689276  1
  Ga  Ga37  1  0.67970380  0.17689276  0.12490789  1
  Ga  Ga38  1  0.82310724  0.87509211  0.32029620  1
  Ga  Ga39  1  0.87509211  0.32029620  0.82310724  1
  Ga  Ga40  1  0.32029620  0.82310724  0.87509211  1
  Mo  Mo0  1  0.80170191  0.80170191  0.80170191  1
  Mo  Mo1  1  0.19829809  0.19829809  0.19829809  1
  Mo  Mo2  1  0.61306098  0.29216046  0.88740126  1
  Mo  Mo3  1  0.29216046  0.88740126  0.61306098  1
  Mo  Mo4  1  0.88740126  0.61306098  0.29216046  1
  Mo  Mo5  1  0.38693902  0.70783954  0.11259874  1
  Mo  Mo6  1  0.70783954  0.11259874  0.38693902  1
  Mo  Mo7  1  0.11259874  0.38693902  0.70783954  1
loop_
_geom_bond_atom_site_label_1
_geom_bond_atom_site_label_2
_geom_bond_distance
_geom_bond_site_symmetry_2
Ga0 Ga31 2.697012 1_445
Ga0 Ga34 2.697012 1_554
Ga0 Ga32 2.697012 1_545
Ga0 Ga29 2.697012 1_454
Ga0 Ga30 2.697013 1_544
Ga0 Ga33 2.697013 1_455
Ga0 Mo0 2.951536 1_444
Ga0 Mo1 2.951536 1_555
Ga1 Ga5 2.837778 1_555
Ga1 Ga8 2.837778 1_555
Ga1 Ga9 2.837778 1_555
Ga1 Ga6 2.837778 1_555
Ga1 Ga10 2.837778 1_555
Ga1 Ga7 2.837778 1_555
Ga1 Ga14 2.974322 1_555
Ga1 Ga11 2.974322 1_555
Ga1 Ga16 2.974323 1_555
Ga1 Ga13 2.974323 1_555
Ga1 Ga15 2.974323 1_555
Ga1 Ga12 2.974323 1_555
Ga2 Mo3 2.515363 1_545
Ga2 Mo6 2.515363 1_555
Ga3 Mo4 2.515363 1_455
Ga3 Mo7 2.515363 1_555
Ga4 Mo2 2.515363 1_554
Ga4 Mo5 2.515363 1_555
Ga5 Mo2 2.638013 1_555
Ga5 Mo6 2.649516 1_555
Ga6 Mo3 2.638012 1_555
Ga6 Mo7 2.649516 1_555
Ga7 Mo4 2.638012 1_555
Ga7 Mo5 2.649516 1_555
Ga8 Mo5 2.638013 1_555
Ga8 Mo3 2.649516 1_555
Ga9 Mo6 2.638012 1_555
Ga9 Mo4 2.649516 1_555
Ga10 Mo7 2.638012 1_555
Ga10 Mo2 2.649516 1_555
Ga10 Ga35 2.889703 1_555
Ga11 Mo0 2.643142 1_555
Ga11 Mo4 2.663018 1_555
Ga11 Ga38 2.944451 1_555
Ga12 Mo0 2.643141 1_555
Ga12 Mo2 2.663017 1_555
Ga12 Ga39 2.944451 1_555
Ga13 Mo0 2.643142 1_555
Ga13 Mo3 2.663017 1_555
Ga13 Ga40 2.944451 1_555
Ga14 Mo1 2.643142 1_555
Ga14 Mo7 2.663018 1_555
Ga14 Ga35 2.944451 1_555
Ga15 Mo1 2.643141 1_555
Ga15 Mo5 2.663017 1_555
Ga15 Ga36 2.944451 1_555
Ga16 Mo1 2.643142 1_555
Ga16 Mo6 2.663017 1_555
Ga16 Ga37 2.944451 1_555
Ga17 Mo3 2.529777 1_555
Ga17 Mo4 2.548550 1_455
Ga17 Ga36 2.740568 1_555
Ga17 Ga38 2.867457 1_455
Ga18 Mo4 2.529777 1_555
Ga18 Mo2 2.548550 1_554
Ga18 Ga37 2.740568 1_555
Ga18 Ga39 2.867457 1_554
Ga19 Mo2 2.529777 1_555
Ga19 Mo3 2.548550 1_545
Ga19 Ga35 2.740568 1_555
Ga19 Ga40 2.867457 1_545
Ga20 Mo6 2.529777 1_555
Ga20 Mo7 2.548550 1_655
Ga20 Ga39 2.740568 1_555
Ga20 Ga35 2.867457 1_655
Ga21 Mo7 2.529777 1_555
Ga21 Mo5 2.548550 1_556
Ga21 Ga40 2.740568 1_555
Ga21 Ga36 2.867457 1_556
Ga22 Mo5 2.529777 1_555
Ga22 Mo6 2.548550 1_565
Ga22 Ga38 2.740568 1_555
Ga22 Ga37 2.867457 1_565
Ga23 Mo0 2.584623 1_555
Ga23 Mo6 2.606161 1_565
Ga23 Ga38 2.761246 1_555
Ga24 Mo0 2.584623 1_555
Ga24 Mo7 2.606161 1_655
Ga24 Ga39 2.761246 1_555
Ga25 Mo0 2.584623 1_555
Ga25 Mo5 2.606161 1_556
Ga25 Ga40 2.761246 1_555
Ga26 Mo1 2.584623 1_555
Ga26 Mo3 2.606161 1_545
Ga26 Ga35 2.761246 1_555
Ga27 Mo1 2.584623 1_555
Ga27 Mo4 2.606161 1_455
Ga27 Ga36 2.761246 1_555
Ga28 Mo1 2.584623 1_555
Ga28 Mo2 2.606161 1_554
Ga28 Ga37 2.761246 1_555
Ga29 Mo0 2.597005 1_545
Ga29 Mo2 2.618126 1_555
Ga29 Ga37 2.639122 1_556
Ga29 Ga39 2.759793 1_555
Ga30 Mo0 2.597005 1_455
Ga30 Mo3 2.618126 1_555
Ga30 Ga35 2.639122 1_565
Ga30 Ga40 2.759793 1_555
Ga31 Mo0 2.597005 1_554
Ga31 Mo4 2.618126 1_555
Ga31 Ga36 2.639122 1_655
Ga31 Ga38 2.759793 1_555
Ga32 Mo1 2.597005 1_565
Ga32 Mo5 2.618126 1_555
Ga32 Ga40 2.639122 1_554
Ga32 Ga36 2.759793 1_555
Ga33 Mo1 2.597005 1_655
Ga33 Mo6 2.618126 1_555
Ga33 Ga38 2.639122 1_545
Ga33 Ga37 2.759793 1_555
Ga34 Mo1 2.597005 1_556
Ga34 Mo7 2.618126 1_555
Ga34 Ga39 2.639122 1_455
Ga34 Ga35 2.759793 1_555
Ga35 Mo7 2.596748 1_555
Ga35 Mo3 2.629623 1_545
Ga36 Mo5 2.596748 1_555
Ga36 Mo4 2.629623 1_455
Ga36 Ga8 2.889703 1_555
Ga37 Mo6 2.596748 1_555
Ga37 Mo2 2.629623 1_554
Ga37 Ga9 2.889703 1_555
Ga38 Mo4 2.596748 1_555
Ga38 Mo6 2.629623 1_565
Ga38 Ga7 2.889703 1_555
Ga39 Mo2 2.596748 1_555
Ga39 Mo7 2.629623 1_655
Ga39 Ga5 2.889703 1_555
Ga40 Mo3 2.596748 1_555
Ga40 Mo5 2.629623 1_556
Ga40 Ga6 2.889703 1_555
