# generated using pymatgen
data_LuGe2Os
_symmetry_space_group_name_H-M   'P 1'
_cell_length_a   8.35533500
_cell_length_b   9.63303000
_cell_length_c   10.55251900
_cell_angle_alpha   90.00000000
_cell_angle_beta   90.00000000
_cell_angle_gamma   90.00000000
_symmetry_Int_Tables_number   1
_chemical_formula_structural   LuGe2Os
_chemical_formula_sum   'Lu12 Ge24 Os12'
_cell_volume   849.34263038
_cell_formula_units_Z   12
loop_
 _symmetry_equiv_pos_site_id
 _symmetry_equiv_pos_as_xyz
  1  'x, y, z'
loop_
 _atom_site_type_symbol
 _atom_site_label
 _atom_site_symmetry_multiplicity
 _atom_site_fract_x
 _atom_site_fract_y
 _atom_site_fract_z
 _atom_site_occupancy
  Lu  Lu0  1  0.24559800  0.82256100  0.44965300  1
  Lu  Lu1  1  0.24559800  0.17743900  0.55034700  1
  Lu  Lu2  1  0.75440200  0.32256100  0.05034700  1
  Lu  Lu3  1  0.75440200  0.67743900  0.94965300  1
  Lu  Lu4  1  0.75440200  0.17743900  0.55034700  1
  Lu  Lu5  1  0.75440200  0.82256100  0.44965300  1
  Lu  Lu6  1  0.24559800  0.67743900  0.94965300  1
  Lu  Lu7  1  0.24559800  0.32256100  0.05034700  1
  Lu  Lu8  1  0.00000000  0.83549800  0.17710900  1
  Lu  Lu9  1  0.00000000  0.16450200  0.82289100  1
  Lu  Lu10  1  0.00000000  0.33549800  0.32289100  1
  Lu  Lu11  1  0.00000000  0.66450200  0.67710900  1
  Ge  Ge0  1  0.34747700  0.84276600  0.18003900  1
  Ge  Ge1  1  0.34747700  0.15723400  0.81996100  1
  Ge  Ge2  1  0.65252300  0.34276600  0.31996100  1
  Ge  Ge3  1  0.65252300  0.65723400  0.68003900  1
  Ge  Ge4  1  0.65252300  0.15723400  0.81996100  1
  Ge  Ge5  1  0.65252300  0.84276600  0.18003900  1
  Ge  Ge6  1  0.34747700  0.65723400  0.68003900  1
  Ge  Ge7  1  0.34747700  0.34276600  0.31996100  1
  Ge  Ge8  1  0.50000000  0.54760000  0.11694100  1
  Ge  Ge9  1  0.50000000  0.45240000  0.88305900  1
  Ge  Ge10  1  0.50000000  0.04760000  0.38305900  1
  Ge  Ge11  1  0.50000000  0.95240000  0.61694100  1
  Ge  Ge12  1  0.00000000  0.53599900  0.11785100  1
  Ge  Ge13  1  0.00000000  0.46400100  0.88214900  1
  Ge  Ge14  1  0.00000000  0.03599900  0.38214900  1
  Ge  Ge15  1  0.00000000  0.96400100  0.61785100  1
  Ge  Ge16  1  0.50000000  0.62754200  0.40469600  1
  Ge  Ge17  1  0.50000000  0.37245800  0.59530400  1
  Ge  Ge18  1  0.50000000  0.12754200  0.09530400  1
  Ge  Ge19  1  0.50000000  0.87245800  0.90469600  1
  Ge  Ge20  1  0.00000000  0.63089900  0.39992300  1
  Ge  Ge21  1  0.00000000  0.36910100  0.60007700  1
  Ge  Ge22  1  0.00000000  0.13089900  0.10007700  1
  Ge  Ge23  1  0.00000000  0.86910100  0.89992300  1
  Os  Os0  1  0.24986000  0.58950300  0.23641300  1
  Os  Os1  1  0.24986000  0.41049700  0.76358700  1
  Os  Os2  1  0.75014000  0.08950300  0.26358700  1
  Os  Os3  1  0.75014000  0.91049700  0.73641300  1
  Os  Os4  1  0.75014000  0.41049700  0.76358700  1
  Os  Os5  1  0.75014000  0.58950300  0.23641300  1
  Os  Os6  1  0.24986000  0.91049700  0.73641300  1
  Os  Os7  1  0.24986000  0.08950300  0.26358700  1
  Os  Os8  1  0.24831300  0.50000000  0.50000000  1
  Os  Os9  1  0.75168700  0.00000000  0.00000000  1
  Os  Os10  1  0.75168700  0.50000000  0.50000000  1
  Os  Os11  1  0.24831300  0.00000000  0.00000000  1
loop_
_geom_bond_atom_site_label_1
_geom_bond_atom_site_label_2
_geom_bond_distance
_geom_bond_site_symmetry_2
Lu0 Os6 3.142571 1_555
Lu0 Os8 3.152415 1_555
Lu0 Os0 3.178840 1_555
Lu0 Os7 3.235563 1_565
Lu1 Os7 3.142571 1_555
Lu1 Os8 3.152415 1_555
Lu1 Os1 3.178840 1_555
Lu1 Os6 3.235563 1_545
Lu2 Os4 3.142571 1_554
Lu2 Os9 3.152415 1_555
Lu2 Os2 3.178840 1_555
Lu2 Os5 3.235563 1_555
Lu3 Os5 3.142571 1_556
Lu3 Os9 3.152415 1_566
Lu3 Os3 3.178840 1_555
Lu3 Os4 3.235563 1_555
Lu4 Os2 3.142571 1_555
Lu4 Os10 3.152415 1_555
Lu4 Os4 3.178840 1_555
Lu4 Os3 3.235563 1_545
Lu5 Os3 3.142571 1_555
Lu5 Os10 3.152415 1_555
Lu5 Os5 3.178840 1_555
Lu5 Os2 3.235563 1_565
Lu6 Os0 3.142571 1_556
Lu6 Os11 3.152415 1_566
Lu6 Os6 3.178840 1_555
Lu6 Os1 3.235563 1_555
Lu7 Os1 3.142571 1_554
Lu7 Os11 3.152415 1_555
Lu7 Os7 3.178840 1_555
Lu7 Os0 3.235563 1_555
Lu8 Os11 3.210704 1_565
Lu8 Os9 3.210704 1_465
Lu8 Os5 3.219526 1_455
Lu8 Os0 3.219526 1_555
Lu8 Os2 3.343370 1_465
Lu8 Os7 3.343370 1_565
Lu9 Os11 3.210704 1_556
Lu9 Os9 3.210704 1_456
Lu9 Os4 3.219526 1_455
Lu9 Os1 3.219526 1_555
Lu9 Os3 3.343370 1_445
Lu9 Os6 3.343370 1_545
Lu10 Os8 3.210704 1_555
Lu10 Os10 3.210704 1_455
Lu10 Os2 3.219526 1_455
Lu10 Os7 3.219526 1_555
Lu10 Os5 3.343370 1_455
Lu10 Os0 3.343370 1_555
Lu11 Os8 3.210704 1_555
Lu11 Os10 3.210704 1_455
Lu11 Os6 3.219526 1_555
Lu11 Os3 3.219526 1_455
Lu11 Os4 3.343370 1_455
Lu11 Os1 3.343370 1_555
Ge0 Ge5 2.548762 1_555
Ge0 Os11 2.567122 1_565
Ge0 Os0 2.640307 1_555
Ge0 Os7 2.663049 1_565
Ge0 Lu8 2.904295 1_555
Ge0 Lu0 2.976090 1_555
Ge0 Lu6 3.028444 1_554
Ge1 Ge4 2.548762 1_555
Ge1 Os11 2.567122 1_556
Ge1 Os1 2.640307 1_555
Ge1 Os6 2.663049 1_545
Ge1 Lu9 2.904295 1_555
Ge1 Lu1 2.976090 1_555
Ge1 Lu7 3.028444 1_556
Ge2 Ge7 2.548762 1_555
Ge2 Os10 2.567122 1_555
Ge2 Os2 2.640307 1_555
Ge2 Os5 2.663049 1_555
Ge2 Lu10 2.904295 1_655
Ge2 Lu2 2.976090 1_555
Ge2 Lu4 3.028444 1_555
Ge3 Ge6 2.548762 1_555
Ge3 Os10 2.567122 1_555
Ge3 Os3 2.640307 1_555
Ge3 Os4 2.663049 1_555
Ge3 Lu11 2.904295 1_655
Ge3 Lu3 2.976090 1_555
Ge3 Lu5 3.028444 1_555
Ge4 Os9 2.567122 1_556
Ge4 Os4 2.640307 1_555
Ge4 Os3 2.663049 1_545
Ge4 Lu9 2.904295 1_655
Ge4 Lu4 2.976090 1_555
Ge4 Lu2 3.028444 1_556
Ge5 Os9 2.567122 1_565
Ge5 Os5 2.640307 1_555
Ge5 Os2 2.663049 1_565
Ge5 Lu8 2.904295 1_655
Ge5 Lu5 2.976090 1_555
Ge5 Lu3 3.028444 1_554
Ge6 Os8 2.567122 1_555
Ge6 Os6 2.640307 1_555
Ge6 Os1 2.663049 1_555
Ge6 Lu11 2.904295 1_555
Ge6 Lu6 2.976090 1_555
Ge6 Lu0 3.028444 1_555
Ge7 Os8 2.567122 1_555
Ge7 Os7 2.640307 1_555
Ge7 Os0 2.663049 1_555
Ge7 Lu10 2.904295 1_555
Ge7 Lu7 2.976090 1_555
Ge7 Lu1 3.028444 1_555
Ge8 Os0 2.473963 1_555
Ge8 Os5 2.473963 1_555
Ge8 Ge9 2.632917 1_554
Ge8 Lu3 3.032971 1_554
Ge8 Lu6 3.032971 1_554
Ge8 Lu2 3.116321 1_555
Ge8 Lu7 3.116321 1_555
Ge9 Os1 2.473963 1_555
Ge9 Os4 2.473963 1_555
Ge9 Lu2 3.032971 1_556
Ge9 Lu7 3.032971 1_556
Ge9 Lu3 3.116321 1_555
Ge9 Lu6 3.116321 1_555
Ge10 Os7 2.473963 1_555
Ge10 Os2 2.473963 1_555
Ge10 Ge11 2.632917 1_545
Ge10 Lu4 3.032971 1_555
Ge10 Lu1 3.032971 1_555
Ge10 Lu5 3.116321 1_545
Ge10 Lu0 3.116321 1_545
Ge11 Os6 2.473963 1_555
Ge11 Os3 2.473963 1_555
Ge11 Lu5 3.032971 1_555
Ge11 Lu0 3.032971 1_555
Ge11 Lu4 3.116321 1_565
Ge11 Lu1 3.116321 1_565
Ge12 Os5 2.487831 1_455
Ge12 Os0 2.487831 1_555
Ge12 Ge13 2.582138 1_554
Ge12 Lu10 2.900341 1_555
Ge12 Lu8 2.952072 1_555
Ge12 Lu7 2.990938 1_555
Ge12 Lu2 2.990938 1_455
Ge12 Lu6 3.036056 1_554
Ge12 Lu3 3.036056 1_454
Ge13 Os4 2.487831 1_455
Ge13 Os1 2.487831 1_555
Ge13 Lu11 2.900341 1_555
Ge13 Lu9 2.952072 1_555
Ge13 Lu6 2.990938 1_555
Ge13 Lu3 2.990938 1_455
Ge13 Lu7 3.036056 1_556
Ge13 Lu2 3.036056 1_456
Ge14 Os2 2.487831 1_455
Ge14 Os7 2.487831 1_555
Ge14 Ge15 2.582138 1_545
Ge14 Lu8 2.900341 1_545
Ge14 Lu10 2.952072 1_555
Ge14 Lu0 2.990938 1_545
Ge14 Lu5 2.990938 1_445
Ge14 Lu1 3.036056 1_555
Ge14 Lu4 3.036056 1_455
Ge15 Os3 2.487831 1_455
Ge15 Os6 2.487831 1_555
Ge15 Lu9 2.900341 1_565
Ge15 Lu11 2.952072 1_555
Ge15 Lu1 2.990938 1_565
Ge15 Lu4 2.990938 1_465
Ge15 Lu0 3.036056 1_555
Ge15 Lu5 3.036056 1_455
Ge16 Os10 2.635002 1_555
Ge16 Os8 2.635002 1_555
Ge16 Os0 2.766927 1_555
Ge16 Os5 2.766927 1_555
Ge16 Lu5 2.876200 1_555
Ge16 Lu0 2.876200 1_555
Ge17 Os10 2.635002 1_555
Ge17 Os8 2.635002 1_555
Ge17 Os1 2.766927 1_555
Ge17 Os4 2.766927 1_555
Ge17 Lu4 2.876200 1_555
Ge17 Lu1 2.876200 1_555
Ge18 Os9 2.635002 1_555
Ge18 Os11 2.635002 1_555
Ge18 Os7 2.766927 1_555
Ge18 Os2 2.766927 1_555
Ge18 Lu2 2.876200 1_555
Ge18 Lu7 2.876200 1_555
Ge19 Os9 2.635002 1_566
Ge19 Os11 2.635002 1_566
Ge19 Os6 2.766927 1_555
Ge19 Os3 2.766927 1_555
Ge19 Lu3 2.876200 1_555
Ge19 Lu6 2.876200 1_555
Ge20 Os8 2.647606 1_555
Ge20 Os10 2.647606 1_455
Ge20 Os5 2.737610 1_455
Ge20 Os0 2.737610 1_555
Ge20 Lu0 2.809820 1_555
Ge20 Lu5 2.809820 1_455
Ge20 Lu11 2.942867 1_555
Ge20 Lu10 2.959435 1_555
Ge20 Lu8 3.068037 1_555
Ge21 Os8 2.647606 1_555
Ge21 Os10 2.647606 1_455
Ge21 Os1 2.737610 1_555
Ge21 Os4 2.737610 1_455
Ge21 Lu1 2.809820 1_555
Ge21 Lu4 2.809820 1_455
Ge21 Lu10 2.942867 1_555
Ge21 Lu11 2.959435 1_555
Ge21 Lu9 3.068037 1_555
Ge22 Os11 2.647606 1_555
Ge22 Os9 2.647606 1_455
Ge22 Os2 2.737610 1_455
Ge22 Os7 2.737610 1_555
Ge22 Lu7 2.809820 1_555
Ge22 Lu2 2.809820 1_455
Ge22 Lu9 2.942867 1_554
Ge22 Lu8 2.959435 1_545
Ge22 Lu10 3.068037 1_555
Ge23 Os11 2.647606 1_566
Ge23 Os9 2.647606 1_466
Ge23 Os6 2.737610 1_555
Ge23 Os3 2.737610 1_455
Ge23 Lu6 2.809820 1_555
Ge23 Lu3 2.809820 1_455
Ge23 Lu8 2.942867 1_556
Ge23 Lu9 2.959435 1_565
Ge23 Lu11 3.068037 1_555
Os0 Os8 2.912097 1_555
Os1 Os8 2.912097 1_555
Os2 Os9 2.912097 1_555
Os3 Os9 2.912097 1_566
Os10 Os4 2.912097 1_555
Os10 Os5 2.912097 1_555
Os11 Os6 2.912097 1_544
Os11 Os7 2.912097 1_555
