# generated using pymatgen
data_MgCr2Fe3Ni(PO4)6
_symmetry_space_group_name_H-M   'P 1'
_cell_length_a   8.60066059
_cell_length_b   8.60063920
_cell_length_c   8.60055931
_cell_angle_alpha   60.39369462
_cell_angle_beta   60.39379245
_cell_angle_gamma   60.39363876
_symmetry_Int_Tables_number   1
_chemical_formula_structural   MgCr2Fe3Ni(PO4)6
_chemical_formula_sum   'Mg1 Cr2 Fe3 Ni1 P6 O24'
_cell_volume   453.86223628
_cell_formula_units_Z   1
loop_
 _symmetry_equiv_pos_site_id
 _symmetry_equiv_pos_as_xyz
  1  'x, y, z'
loop_
 _atom_site_type_symbol
 _atom_site_label
 _atom_site_symmetry_multiplicity
 _atom_site_fract_x
 _atom_site_fract_y
 _atom_site_fract_z
 _atom_site_occupancy
  Mg  Mg0  1  0.24477260  0.24478145  0.24477866  1
  Cr  Cr0  1  0.99585697  0.99589857  0.99588065  1
  Cr  Cr1  1  0.50491791  0.50490547  0.50489762  1
  Fe  Fe0  1  0.12694184  0.12695956  0.12696030  1
  Fe  Fe1  1  0.36789900  0.36789951  0.36789674  1
  Fe  Fe2  1  0.64970564  0.64969882  0.64969181  1
  Ni  Ni0  1  0.85441011  0.85441907  0.85443105  1
  P  P0  1  0.04347152  0.74873482  0.45874157  1
  P  P1  1  0.45873365  0.04347172  0.74873674  1
  P  P2  1  0.74873907  0.45873483  0.04347307  1
  P  P3  1  0.25023282  0.55255527  0.94883764  1
  P  P4  1  0.55255268  0.94883634  0.25023163  1
  P  P5  1  0.94884178  0.25022620  0.55255759  1
  O  O0  1  0.11754961  0.31586723  0.48896500  1
  O  O1  1  0.31588089  0.48896210  0.11754524  1
  O  O2  1  0.05350116  0.88783416  0.24962327  1
  O  O3  1  0.48896616  0.11754942  0.31586681  1
  O  O4  1  0.99977546  0.83718302  0.59432389  1
  O  O5  1  0.25408082  0.59723534  0.44323481  1
  O  O6  1  0.24961614  0.05349810  0.88782812  1
  O  O7  1  0.44323833  0.25407683  0.59723037  1
  O  O8  1  0.18631192  0.39065490  0.99882488  1
  O  O9  1  0.59723060  0.44323783  0.25407968  1
  O  O10  1  0.09902762  0.75221488  0.93591304  1
  O  O11  1  0.39065215  0.99882795  0.18630932  1
  O  O12  1  0.59429845  0.99978695  0.83719831  1
  O  O13  1  0.88783375  0.24961908  0.05349875  1
  O  O14  1  0.40971658  0.56636728  0.74960188  1
  O  O15  1  0.83719545  0.59430588  0.99978739  1
  O  O16  1  0.56636632  0.74959846  0.40971823  1
  O  O17  1  0.75222015  0.93590018  0.09903299  1
  O  O18  1  0.74961043  0.40971821  0.56635529  1
  O  O19  1  0.99883081  0.18630433  0.39065532  1
  O  O20  1  0.51846726  0.90456174  0.65206636  1
  O  O21  1  0.93590580  0.09902838  0.75222112  1
  O  O22  1  0.65208460  0.51847033  0.90455264  1
  O  O23  1  0.90456197  0.65207680  0.51845624  1
loop_
_geom_bond_atom_site_label_1
_geom_bond_atom_site_label_2
_geom_bond_distance
_geom_bond_site_symmetry_2
Mg0 O8 2.026536 1_554
Mg0 O19 2.026536 1_455
Mg0 O11 2.026582 1_545
Mg0 O0 2.078163 1_555
Mg0 O1 2.078232 1_555
Mg0 O3 2.078237 1_555
Cr0 O21 2.055074 1_565
Cr0 O17 2.055101 1_556
Cr0 O10 2.055290 1_655
Cr0 O13 2.116816 1_566
Cr0 O6 2.117006 1_665
Cr0 O2 2.117029 1_656
Cr1 O16 2.085113 1_555
Cr1 O18 2.085135 1_555
Cr1 O14 2.085204 1_555
Cr1 O9 2.141777 1_555
Cr1 O5 2.141892 1_555
Cr1 O7 2.141901 1_555
Fe0 O13 2.054958 1_455
Fe0 O2 2.054993 1_545
Fe0 O6 2.055111 1_554
Fe0 O19 2.176473 1_455
Fe0 O8 2.176579 1_554
Fe0 O11 2.176608 1_545
Fe1 O7 1.999187 1_555
Fe1 O9 1.999198 1_555
Fe1 O5 1.999216 1_555
Fe1 O1 2.048601 1_555
Fe1 O3 2.048650 1_555
Fe1 O0 2.048664 1_555
Fe2 O23 1.912044 1_555
Fe2 O22 1.912055 1_555
Fe2 O20 1.912077 1_555
Fe2 O16 2.147728 1_555
Fe2 O18 2.147772 1_555
Fe2 O14 2.147816 1_555
Ni0 O15 1.992629 1_555
Ni0 O4 1.992631 1_555
Ni0 O12 1.992674 1_555
Ni0 O17 2.170341 1_556
Ni0 O21 2.170457 1_565
Ni0 O10 2.170458 1_655
O0 P5 1.563148 1_455
O1 P3 1.563166 1_554
O2 P0 1.579896 1_555
O3 P4 1.563163 1_545
O4 P0 1.496884 1_655
O5 P0 1.611709 1_555
O6 P1 1.579895 1_555
O7 P1 1.611703 1_555
O8 P3 1.535360 1_555
O9 P2 1.611712 1_555
O10 P3 1.549205 1_555
O11 P4 1.535352 1_555
O12 P1 1.496879 1_565
O13 P2 1.579887 1_555
O14 P3 1.571400 1_555
O15 P2 1.496898 1_556
O16 P4 1.571422 1_555
O17 P4 1.549227 1_555
O18 P5 1.571415 1_555
O19 P5 1.535360 1_555
O20 P1 1.528232 1_565
O21 P5 1.549191 1_555
O22 P2 1.528198 1_556
O23 P0 1.528211 1_655
