# generated using pymatgen
data_CaSnS3
_symmetry_space_group_name_H-M   'P 1'
_cell_length_a   6.80576442
_cell_length_b   6.80576442
_cell_length_c   25.42455400
_cell_angle_alpha   90.00000000
_cell_angle_beta   90.00000000
_cell_angle_gamma   120.00000407
_symmetry_Int_Tables_number   1
_chemical_formula_structural   CaSnS3
_chemical_formula_sum   'Ca8 Sn8 S24'
_cell_volume   1019.85347728
_cell_formula_units_Z   8
loop_
 _symmetry_equiv_pos_site_id
 _symmetry_equiv_pos_as_xyz
  1  'x, y, z'
loop_
 _atom_site_type_symbol
 _atom_site_label
 _atom_site_symmetry_multiplicity
 _atom_site_fract_x
 _atom_site_fract_y
 _atom_site_fract_z
 _atom_site_occupancy
  Ca  Ca0  1  0.00000000  0.00000000  0.50000000  1
  Ca  Ca1  1  0.00000000  0.00000000  0.00000000  1
  Ca  Ca2  1  0.00000000  0.00000000  0.25000000  1
  Ca  Ca3  1  0.00000000  0.00000000  0.75000000  1
  Ca  Ca4  1  0.33333300  0.66666700  0.41373600  1
  Ca  Ca5  1  0.66666700  0.33333300  0.58626400  1
  Ca  Ca6  1  0.66666700  0.33333300  0.91373600  1
  Ca  Ca7  1  0.33333300  0.66666700  0.08626400  1
  Sn  Sn0  1  0.33333300  0.66666700  0.93359400  1
  Sn  Sn1  1  0.66666700  0.33333300  0.06640600  1
  Sn  Sn2  1  0.66666700  0.33333300  0.43359400  1
  Sn  Sn3  1  0.33333300  0.66666700  0.56640600  1
  Sn  Sn4  1  0.33333300  0.66666700  0.81139100  1
  Sn  Sn5  1  0.66666700  0.33333300  0.18860900  1
  Sn  Sn6  1  0.66666700  0.33333300  0.31139100  1
  Sn  Sn7  1  0.33333300  0.66666700  0.68860900  1
  S  S0  1  0.50000000  0.50000000  0.50000000  1
  S  S1  1  0.50000000  0.00000000  0.50000000  1
  S  S2  1  0.00000000  0.50000000  0.50000000  1
  S  S3  1  0.50000000  0.50000000  0.00000000  1
  S  S4  1  0.50000000  0.00000000  0.00000000  1
  S  S5  1  0.00000000  0.50000000  0.00000000  1
  S  S6  1  0.49775400  0.50224600  0.25000000  1
  S  S7  1  0.49775400  0.99550700  0.25000000  1
  S  S8  1  0.00449300  0.50224600  0.25000000  1
  S  S9  1  0.50224600  0.49775400  0.75000000  1
  S  S10  1  0.50224600  0.00449300  0.75000000  1
  S  S11  1  0.99550700  0.49775400  0.75000000  1
  S  S12  1  0.83836300  0.16163700  0.37727000  1
  S  S13  1  0.83836300  0.67672600  0.37727000  1
  S  S14  1  0.32327400  0.16163700  0.37727000  1
  S  S15  1  0.16163700  0.83836300  0.62273000  1
  S  S16  1  0.16163700  0.32327400  0.62273000  1
  S  S17  1  0.67672600  0.83836300  0.62273000  1
  S  S18  1  0.16163700  0.83836300  0.87727000  1
  S  S19  1  0.16163700  0.32327400  0.87727000  1
  S  S20  1  0.67672600  0.83836300  0.87727000  1
  S  S21  1  0.83836300  0.16163700  0.12273000  1
  S  S22  1  0.83836300  0.67672600  0.12273000  1
  S  S23  1  0.32327400  0.16163700  0.12273000  1
loop_
_geom_bond_atom_site_label_1
_geom_bond_atom_site_label_2
_geom_bond_distance
_geom_bond_site_symmetry_2
Ca0 S0 3.402882 1_445
Ca0 S0 3.402882 1_555
Ca0 S1 3.402882 1_555
Ca0 S2 3.402882 1_555
Ca0 S1 3.402882 1_455
Ca0 S2 3.402882 1_545
Ca1 S3 3.402882 1_555
Ca1 S3 3.402882 1_445
Ca1 S4 3.402882 1_455
Ca1 S4 3.402882 1_555
Ca1 S5 3.402882 1_555
Ca1 S5 3.402882 1_545
Ca2 S8 3.402982 1_555
Ca2 S7 3.402982 1_445
Ca2 S6 3.402985 1_555
Ca2 S6 3.402985 1_445
Ca2 S8 3.402989 1_545
Ca2 S7 3.402989 1_545
Ca3 S11 3.402982 1_445
Ca3 S10 3.402982 1_555
Ca3 S9 3.402985 1_445
Ca3 S9 3.402985 1_555
Ca3 S11 3.402989 1_455
Ca3 S10 3.402989 1_455
Ca4 S1 2.944502 1_565
Ca4 S2 2.944502 1_555
Ca4 S0 2.944506 1_555
Ca5 S2 2.944502 1_655
Ca5 S1 2.944502 1_555
Ca5 S0 2.944506 1_555
Ca6 S5 2.944502 1_656
Ca6 S4 2.944502 1_556
Ca6 S3 2.944506 1_556
Ca7 S4 2.944502 1_565
Ca7 S5 2.944502 1_555
Ca7 S3 2.944506 1_555
S0 Sn3 2.590441 1_555
S0 Sn2 2.590441 1_555
S1 Sn3 2.590437 1_545
S1 Sn2 2.590437 1_555
S2 Sn3 2.590437 1_555
S2 Sn2 2.590437 1_455
S3 Sn0 2.590441 1_554
S3 Sn1 2.590441 1_555
S4 Sn0 2.590437 1_544
S4 Sn1 2.590437 1_555
S5 Sn0 2.590437 1_554
S5 Sn1 2.590437 1_455
S6 Sn6 2.529987 1_555
S6 Sn5 2.529987 1_555
S7 Sn6 2.529987 1_565
S7 Sn5 2.529987 1_565
S8 Sn6 2.529987 1_455
S8 Sn5 2.529987 1_455
S9 Sn7 2.529987 1_555
S9 Sn4 2.529987 1_555
S10 Sn4 2.529987 1_545
S10 Sn7 2.529987 1_545
S11 Sn7 2.529987 1_655
S11 Sn4 2.529987 1_655
S12 Sn2 2.479313 1_555
S12 Sn6 2.627123 1_555
S13 Sn2 2.479318 1_555
S13 Sn6 2.627127 1_555
S14 Sn2 2.479318 1_555
S14 Sn6 2.627127 1_555
S15 Sn3 2.479313 1_555
S15 Sn7 2.627123 1_555
S16 Sn3 2.479318 1_555
S16 Sn7 2.627127 1_555
S17 Sn3 2.479318 1_555
S17 Sn7 2.627127 1_555
S18 Sn0 2.479313 1_555
S18 Sn4 2.627123 1_555
S19 Sn0 2.479318 1_555
S19 Sn4 2.627127 1_555
S20 Sn0 2.479318 1_555
S20 Sn4 2.627127 1_555
S21 Sn1 2.479313 1_555
S21 Sn5 2.627123 1_555
S22 Sn1 2.479318 1_555
S22 Sn5 2.627127 1_555
S23 Sn1 2.479318 1_555
S23 Sn5 2.627127 1_555
