# generated using pymatgen
data_Dy8Rh5C12
_symmetry_space_group_name_H-M   'P 1'
_cell_length_a   3.55696400
_cell_length_b   7.41835704
_cell_length_c   14.08287679
_cell_angle_alpha   93.91510600
_cell_angle_beta   97.25507520
_cell_angle_gamma   90.00000000
_symmetry_Int_Tables_number   1
_chemical_formula_structural   Dy8Rh5C12
_chemical_formula_sum   'Dy8 Rh5 C12'
_cell_volume   367.75310501
_cell_formula_units_Z   1
loop_
 _symmetry_equiv_pos_site_id
 _symmetry_equiv_pos_as_xyz
  1  'x, y, z'
loop_
 _atom_site_type_symbol
 _atom_site_label
 _atom_site_symmetry_multiplicity
 _atom_site_fract_x
 _atom_site_fract_y
 _atom_site_fract_z
 _atom_site_occupancy
  Dy  Dy0  1  0.29371300  0.88399800  0.58742600  1
  Dy  Dy1  1  0.70628700  0.11600200  0.41257400  1
  Dy  Dy2  1  0.30042600  0.39077800  0.60085200  1
  Dy  Dy3  1  0.69957400  0.60922200  0.39914800  1
  Dy  Dy4  1  0.41193600  0.17167800  0.82387300  1
  Dy  Dy5  1  0.58806400  0.82832200  0.17612700  1
  Dy  Dy6  1  0.45293800  0.70308100  0.90587500  1
  Dy  Dy7  1  0.54706200  0.29691900  0.09412500  1
  Rh  Rh0  1  0.00000000  0.00000000  0.00000000  1
  Rh  Rh1  1  0.10996300  0.49255300  0.21992500  1
  Rh  Rh2  1  0.89003700  0.50744700  0.78007500  1
  Rh  Rh3  1  0.11661500  0.12770300  0.23322900  1
  Rh  Rh4  1  0.88338500  0.87229700  0.76677100  1
  C  C0  1  0.02268200  0.75531900  0.04536500  1
  C  C1  1  0.97731800  0.24468100  0.95463500  1
  C  C2  1  0.04782700  0.61393200  0.09565500  1
  C  C3  1  0.95217300  0.38606800  0.90434500  1
  C  C4  1  0.16829900  0.34724400  0.33659900  1
  C  C5  1  0.83170100  0.65275600  0.66340100  1
  C  C6  1  0.21647300  0.36473900  0.43294600  1
  C  C7  1  0.78352700  0.63526100  0.56705400  1
  C  C8  1  0.15867900  0.87367200  0.31735700  1
  C  C9  1  0.84132100  0.12632800  0.68264300  1
  C  C10  1  0.20718500  0.86902100  0.41437000  1
  C  C11  1  0.79281500  0.13097900  0.58563000  1
loop_
_geom_bond_atom_site_label_1
_geom_bond_atom_site_label_2
_geom_bond_distance
_geom_bond_site_symmetry_2
Dy2 Rh2 3.143663 1_555
Dy2 Rh2 3.143665 1_455
Dy3 Rh1 3.143663 1_555
Dy3 Rh1 3.143665 1_655
Dy4 Rh4 2.913406 1_445
Dy4 Rh4 2.913406 1_545
Dy5 Rh3 2.913406 1_565
Dy5 Rh3 2.913406 1_665
Dy6 Rh2 2.829612 1_555
Dy6 Rh2 2.829617 1_455
Dy6 Rh4 2.975063 1_555
Dy6 Rh4 2.975068 1_455
Dy6 Rh0 3.056962 1_666
Dy6 Rh0 3.056964 1_566
Dy7 Rh1 2.829612 1_555
Dy7 Rh1 2.829617 1_655
Dy7 Rh3 2.975063 1_555
Dy7 Rh3 2.975068 1_655
Dy7 Rh0 3.056962 1_555
Dy7 Rh0 3.056964 1_655
C0 C2 1.301972 1_555
C0 Rh0 1.963339 1_565
C0 Dy5 2.580145 1_455
C0 Dy5 2.580150 1_555
C0 Dy6 2.647000 1_454
C0 Dy6 2.647004 1_554
C1 C3 1.301972 1_555
C1 Rh0 1.963339 1_656
C1 Dy4 2.580145 1_655
C1 Dy4 2.580150 1_555
C1 Dy7 2.647000 1_656
C1 Dy7 2.647004 1_556
C2 Rh1 2.009950 1_555
C2 Dy5 2.590392 1_455
C2 Dy5 2.590397 1_555
C2 Dy7 2.947389 1_555
C2 Dy7 2.947389 1_455
C3 Rh2 2.009950 1_555
C3 Dy4 2.590392 1_655
C3 Dy4 2.590397 1_555
C3 Dy6 2.947389 1_655
C3 Dy6 2.947389 1_555
C4 C6 1.343301 1_555
C4 Rh1 2.015091 1_555
C4 Rh3 2.100973 1_555
C4 Dy3 2.733086 1_455
C4 Dy3 2.733088 1_555
C4 Dy1 2.735485 1_455
C4 Dy1 2.735488 1_555
C5 C7 1.343301 1_555
C5 Rh2 2.015091 1_555
C5 Rh4 2.100973 1_555
C5 Dy2 2.733086 1_655
C5 Dy2 2.733088 1_555
C5 Dy0 2.735485 1_655
C5 Dy0 2.735488 1_555
C6 Dy2 2.340320 1_555
C6 Dy1 2.564477 1_555
C6 Dy1 2.564477 1_455
C6 Dy3 2.606375 1_555
C6 Dy3 2.606375 1_455
C7 Dy3 2.340320 1_555
C7 Dy0 2.564477 1_655
C7 Dy0 2.564477 1_555
C7 Dy2 2.606375 1_655
C7 Dy2 2.606375 1_555
C8 Rh3 2.288554 1_565
C8 Dy5 2.660364 1_555
C8 Dy5 2.660364 1_455
C8 Dy3 2.936966 1_555
C8 Dy3 2.936968 1_455
C9 Rh4 2.288554 1_545
C9 Dy4 2.660364 1_655
C9 Dy4 2.660364 1_555
C9 Dy2 2.936966 1_555
C9 Dy2 2.936968 1_655
C10 C8 1.358095 1_555
C10 Dy0 2.412514 1_555
C10 Dy1 2.554777 1_465
C10 Dy1 2.554777 1_565
C10 Dy3 2.620347 1_455
C10 Dy3 2.620347 1_555
C11 C9 1.358095 1_555
C11 Dy1 2.412514 1_555
C11 Dy0 2.554777 1_545
C11 Dy0 2.554777 1_645
C11 Dy2 2.620347 1_555
C11 Dy2 2.620347 1_655
