# generated using pymatgen
data_AgMo6Cl13
_symmetry_space_group_name_H-M   'P 1'
_cell_length_a   8.91584120
_cell_length_b   9.07814561
_cell_length_c   13.94163675
_cell_angle_alpha   96.15722940
_cell_angle_beta   102.52433128
_cell_angle_gamma   113.24068014
_symmetry_Int_Tables_number   1
_chemical_formula_structural   AgMo6Cl13
_chemical_formula_sum   'Ag2 Mo12 Cl26'
_cell_volume   988.52311127
_cell_formula_units_Z   2
loop_
 _symmetry_equiv_pos_site_id
 _symmetry_equiv_pos_as_xyz
  1  'x, y, z'
loop_
 _atom_site_type_symbol
 _atom_site_label
 _atom_site_symmetry_multiplicity
 _atom_site_fract_x
 _atom_site_fract_y
 _atom_site_fract_z
 _atom_site_occupancy
  Ag  Ag0  1  0.03880370  0.26861716  0.77417217  1
  Ag  Ag1  1  0.96119630  0.73138284  0.22582783  1
  Mo  Mo0  1  0.31484413  0.38250960  0.54223164  1
  Mo  Mo1  1  0.68515587  0.61749040  0.45776836  1
  Mo  Mo2  1  0.36223811  0.54822747  0.40186970  1
  Mo  Mo3  1  0.63776189  0.45177253  0.59813030  1
  Mo  Mo4  1  0.70166214  0.99812693  0.06510336  1
  Mo  Mo5  1  0.29833786  0.00187307  0.93489664  1
  Mo  Mo6  1  0.60480764  0.22534472  0.02460310  1
  Mo  Mo7  1  0.39519236  0.77465528  0.97539690  1
  Mo  Mo8  1  0.45831251  0.31317637  0.41169902  1
  Mo  Mo9  1  0.54168749  0.68682363  0.58830098  1
  Mo  Mo10  1  0.44607102  0.01259706  0.11993649  1
  Mo  Mo11  1  0.55392898  0.98740294  0.88006351  1
  Cl  Cl0  1  0.06666878  0.21946642  0.59539137  1
  Cl  Cl1  1  0.93333122  0.78053358  0.40460863  1
  Cl  Cl2  1  0.23246402  0.61428133  0.53143251  1
  Cl  Cl3  1  0.76753598  0.38571867  0.46856749  1
  Cl  Cl4  1  0.74437422  0.52437152  0.06168538  1
  Cl  Cl5  1  0.25562578  0.47562848  0.93831462  1
  Cl  Cl6  1  0.15692385  0.79592075  0.02901606  1
  Cl  Cl7  1  0.84307615  0.20407925  0.97098394  1
  Cl  Cl8  1  0.41539456  0.16299774  0.54938106  1
  Cl  Cl9  1  0.58460544  0.83700226  0.45061894  1
  Cl  Cl10  1  0.50998321  0.48115764  0.28327568  1
  Cl  Cl11  1  0.49001679  0.51884236  0.71672432  1
  Cl  Cl12  1  0.35228654  0.22293527  0.07373795  1
  Cl  Cl13  1  0.64771346  0.77706473  0.92626205  1
  Cl  Cl14  1  0.53967989  0.79484580  0.15360116  1
  Cl  Cl15  1  0.46032011  0.20515420  0.84639884  1
  Cl  Cl16  1  0.38779833  0.04743044  0.29101831  1
  Cl  Cl17  1  0.61220167  0.95256956  0.70898169  1
  Cl  Cl18  1  0.74219898  0.22543443  0.20013746  1
  Cl  Cl19  1  0.25780102  0.77456557  0.79986254  1
  Cl  Cl20  1  0.96552230  0.98706800  0.14935119  1
  Cl  Cl21  1  0.03447770  0.01293200  0.85064881  1
  Cl  Cl22  1  0.15318846  0.25615600  0.36484586  1
  Cl  Cl23  1  0.84681154  0.74384400  0.63515414  1
  Cl  Cl24  1  0.17867908  0.59816973  0.26423358  1
  Cl  Cl25  1  0.82132092  0.40183027  0.73576642  1
loop_
_geom_bond_atom_site_label_1
_geom_bond_atom_site_label_2
_geom_bond_distance
_geom_bond_site_symmetry_2
Ag0 Cl0 2.567263 1_555
Ag0 Cl5 2.607171 1_555
Ag0 Cl21 2.646523 1_555
Ag0 Cl25 2.654856 1_455
Ag1 Cl1 2.567263 1_555
Ag1 Cl4 2.607171 1_555
Ag1 Cl20 2.646523 1_555
Ag1 Cl24 2.654856 1_655
Cl0 Mo0 2.449076 1_555
Cl1 Mo1 2.449076 1_555
Cl2 Mo9 2.484024 1_555
Cl2 Mo2 2.486516 1_555
Cl2 Mo0 2.495758 1_555
Cl3 Mo8 2.484024 1_555
Cl3 Mo3 2.486516 1_555
Cl3 Mo1 2.495758 1_555
Cl4 Mo6 2.436986 1_555
Cl5 Mo7 2.436986 1_555
Cl6 Mo7 2.467884 1_554
Cl6 Mo10 2.483521 1_565
Cl6 Mo5 2.488088 1_564
Cl7 Mo6 2.467884 1_556
Cl7 Mo11 2.483521 1_545
Cl7 Mo4 2.488088 1_546
Cl8 Mo8 2.481508 1_555
Cl8 Mo3 2.489314 1_555
Cl8 Mo0 2.489671 1_555
Cl9 Mo9 2.481508 1_555
Cl9 Mo2 2.489314 1_555
Cl9 Mo1 2.489671 1_555
Cl10 Mo1 2.463722 1_555
Cl10 Mo8 2.476364 1_555
Cl10 Mo2 2.490233 1_555
Cl11 Mo0 2.463722 1_555
Cl11 Mo9 2.476364 1_555
Cl11 Mo3 2.490233 1_555
Cl12 Mo5 2.450854 1_554
Cl12 Mo10 2.459764 1_555
Cl12 Mo6 2.484342 1_555
Cl13 Mo4 2.450854 1_556
Cl13 Mo11 2.459764 1_555
Cl13 Mo7 2.484342 1_555
Cl14 Mo10 2.481057 1_565
Cl14 Mo4 2.484248 1_555
Cl14 Mo7 2.488680 1_554
Cl15 Mo11 2.481057 1_545
Cl15 Mo5 2.484248 1_555
Cl15 Mo6 2.488680 1_556
Cl16 Mo8 2.553358 1_555
Cl16 Mo10 2.562077 1_555
Cl17 Mo9 2.553358 1_555
Cl17 Mo11 2.562077 1_555
Cl18 Mo10 2.486878 1_555
Cl18 Mo6 2.487593 1_555
Cl18 Mo4 2.493177 1_545
Cl19 Mo11 2.486878 1_555
Cl19 Mo7 2.487593 1_555
Cl19 Mo5 2.493177 1_565
Cl20 Mo4 2.436668 1_555
Cl21 Mo5 2.436668 1_555
Cl22 Mo0 2.459652 1_555
Cl22 Mo8 2.478071 1_555
Cl22 Mo2 2.481872 1_555
Cl23 Mo1 2.459652 1_555
Cl23 Mo9 2.478071 1_555
Cl23 Mo3 2.481872 1_555
Cl24 Mo2 2.444631 1_555
Cl25 Mo3 2.444631 1_555
