# generated using pymatgen
data_Ba3LiTi3O8
_symmetry_space_group_name_H-M   'P 1'
_cell_length_a   5.85113891
_cell_length_b   5.72130938
_cell_length_c   7.08951112
_cell_angle_alpha   88.79880907
_cell_angle_beta   89.15880742
_cell_angle_gamma   120.11561696
_symmetry_Int_Tables_number   1
_chemical_formula_structural   Ba3LiTi3O8
_chemical_formula_sum   'Ba3 Li1 Ti3 O8'
_cell_volume   205.16143353
_cell_formula_units_Z   1
loop_
 _symmetry_equiv_pos_site_id
 _symmetry_equiv_pos_as_xyz
  1  'x, y, z'
loop_
 _atom_site_type_symbol
 _atom_site_label
 _atom_site_symmetry_multiplicity
 _atom_site_fract_x
 _atom_site_fract_y
 _atom_site_fract_z
 _atom_site_occupancy
  Ba  Ba0  1  0.05767484  0.02176889  0.03031359  1
  Ba  Ba1  1  0.27611377  0.64548898  0.63670700  1
  Ba  Ba2  1  0.66659739  0.33338146  0.33335395  1
  Li  Li0  1  0.66766122  0.83307286  0.83346359  1
  Ti  Ti0  1  0.98301517  0.01081804  0.51488409  1
  Ti  Ti1  1  0.35031758  0.65610138  0.15180029  1
  Ti  Ti2  1  0.66683666  0.33334671  0.83342628  1
  O  O0  1  0.01687321  0.51034058  0.00424274  1
  O  O1  1  0.16642748  0.33336975  0.33334633  1
  O  O2  1  0.51248925  0.99574328  0.99756959  1
  O  O3  1  0.66640569  0.83331255  0.33327637  1
  O  O4  1  0.31587577  0.15615491  0.66213814  1
  O  O5  1  0.51620182  0.51250744  0.99483400  1
  O  O6  1  0.82070678  0.67072097  0.66890586  1
  O  O7  1  0.81680138  0.15387418  0.67177319  1
loop_
_geom_bond_atom_site_label_1
_geom_bond_atom_site_label_2
_geom_bond_distance
_geom_bond_site_symmetry_2
Ba0 Li0 2.450548 1_444
Ba0 O1 2.694610 1_555
Ba0 O5 2.745142 1_554
Ba0 O2 2.745705 1_544
Ba0 O0 2.824154 1_545
Ba0 O3 2.880716 1_445
Ba0 O4 2.884627 1_554
Ba0 O0 2.924720 1_555
Ba1 Li0 2.456727 1_555
Ba1 O1 2.697708 1_555
Ba1 O6 2.746423 1_455
Ba1 O7 2.749766 1_455
Ba1 O4 2.822063 1_565
Ba1 O3 2.879868 1_555
Ba1 O0 2.882818 1_556
Ba1 O4 2.925450 1_555
Ba2 O3 2.860498 1_545
Ba2 O3 2.860812 1_555
Ba2 O4 2.888758 1_555
Ba2 O0 2.889261 1_655
Ba2 O7 2.906514 1_555
Ba2 O5 2.906589 1_554
Ba2 O1 2.924608 1_655
Ba2 O1 2.926531 1_555
Ba2 O6 2.950646 1_555
Ba2 O2 2.952890 1_544
Li0 O5 1.925920 1_555
Li0 O7 1.928575 1_565
Li0 O6 1.968549 1_555
Li0 O2 1.976469 1_555
O0 Ti1 2.014969 1_555
O0 Ti2 2.174795 1_454
O1 Ti0 2.021427 1_455
O1 Ti1 2.022294 1_555
O2 Ti1 1.975375 1_556
O2 Ti2 2.006250 1_565
O3 Ti1 2.084863 1_555
O3 Ti0 2.087541 1_565
O4 Ti0 2.011327 1_455
O4 Ti2 2.180616 1_555
O5 Ti1 1.913683 1_556
O5 Ti2 2.015721 1_555
O6 Ti0 1.976484 1_565
O6 Ti2 2.006898 1_555
O7 Ti0 1.912601 1_555
O7 Ti2 2.015357 1_555
