# generated using pymatgen
data_NdSiPt
_symmetry_space_group_name_H-M   'P 1'
_cell_length_a   7.80663313
_cell_length_b   7.80663313
_cell_length_c   7.80663313
_cell_angle_alpha   148.69886794
_cell_angle_beta   148.69886794
_cell_angle_gamma   44.85474647
_symmetry_Int_Tables_number   1
_chemical_formula_structural   NdSiPt
_chemical_formula_sum   'Nd2 Si2 Pt2'
_cell_volume   128.02086600
_cell_formula_units_Z   2
loop_
 _symmetry_equiv_pos_site_id
 _symmetry_equiv_pos_as_xyz
  1  'x, y, z'
loop_
 _atom_site_type_symbol
 _atom_site_label
 _atom_site_symmetry_multiplicity
 _atom_site_fract_x
 _atom_site_fract_y
 _atom_site_fract_z
 _atom_site_occupancy
  Nd  Nd0  1  0.74893404  0.24893404  0.50000000  1
  Nd  Nd1  1  0.99893404  0.99893404  -0.00000000  1
  Si  Si0  1  0.16847635  0.66847635  0.50000000  1
  Si  Si1  1  0.41847635  0.41847635  -0.00000000  1
  Pt  Pt0  1  0.33658961  0.83658961  0.50000000  1
  Pt  Pt1  1  0.58658961  0.58658961  0.00000000  1
loop_
_geom_bond_atom_site_label_1
_geom_bond_atom_site_label_2
_geom_bond_distance
_geom_bond_site_symmetry_2
Nd0 Pt1 3.150382 1_545
Nd0 Pt1 3.150382 1_556
Nd0 Si0 3.196683 1_544
Nd0 Si0 3.196683 1_555
Nd0 Si0 3.196683 1_656
Nd0 Si0 3.196683 1_645
Nd0 Si1 3.228388 1_656
Nd0 Si1 3.228388 1_555
Nd0 Pt0 3.235866 1_645
Nd0 Pt0 3.235866 1_555
Nd0 Pt0 3.235866 1_656
Nd0 Pt0 3.235866 1_544
Nd1 Pt0 3.150382 1_554
Nd1 Pt0 3.150382 1_655
Nd1 Si1 3.196683 1_554
Nd1 Si1 3.196683 1_655
Nd1 Si1 3.196683 1_666
Nd1 Si1 3.196683 1_565
Nd1 Si0 3.228388 1_654
Nd1 Si0 3.228388 1_665
Nd1 Pt1 3.235866 1_655
Nd1 Pt1 3.235866 1_565
Nd1 Pt1 3.235866 1_666
Nd1 Pt1 3.235866 1_554
Pt0 Si1 2.414933 1_566
Pt0 Si1 2.414933 1_555
Pt0 Si0 2.426268 1_555
Pt1 Si0 2.414933 1_655
Pt1 Si0 2.414933 1_554
Pt1 Si1 2.426268 1_555
