# generated using pymatgen
data_MgZr3U7O20
_symmetry_space_group_name_H-M   'P 1'
_cell_length_a   3.80467398
_cell_length_b   6.70140999
_cell_length_c   17.07988523
_cell_angle_alpha   98.26848864
_cell_angle_beta   100.89240293
_cell_angle_gamma   91.51843726
_symmetry_Int_Tables_number   1
_chemical_formula_structural   MgZr3U7O20
_chemical_formula_sum   'Mg1 Zr3 U7 O20'
_cell_volume   422.54341066
_cell_formula_units_Z   1
loop_
 _symmetry_equiv_pos_site_id
 _symmetry_equiv_pos_as_xyz
  1  'x, y, z'
loop_
 _atom_site_type_symbol
 _atom_site_label
 _atom_site_symmetry_multiplicity
 _atom_site_fract_x
 _atom_site_fract_y
 _atom_site_fract_z
 _atom_site_occupancy
  Mg  Mg0  1  0.33230665  0.10209687  0.89964135  1
  Zr  Zr0  1  0.53828261  0.83497855  0.76405615  1
  Zr  Zr1  1  0.18466480  0.40499959  0.40168379  1
  Zr  Zr2  1  0.38942265  0.47149219  0.03186668  1
  U  U0  1  0.99409181  0.39280606  0.78308501  1
  U  U1  1  0.85851211  0.63702411  0.58392822  1
  U  U2  1  0.70360216  0.90157443  0.39923235  1
  U  U3  1  0.35007484  0.13895849  0.58262847  1
  U  U4  1  0.05356640  0.66024841  0.21587363  1
  U  U5  1  0.56040022  0.16942671  0.21966163  1
  U  U6  1  0.92124193  0.91687133  0.02337017  1
  O  O0  1  0.81218853  0.95924001  0.88843696  1
  O  O1  1  0.38932291  0.75280400  0.98997743  1
  O  O2  1  0.81695679  0.94991984  0.53793423  1
  O  O3  1  0.41078954  0.83251428  0.63539298  1
  O  O4  1  0.52799985  0.56075584  0.80864458  1
  O  O5  1  0.13051530  0.37073388  0.91259248  1
  O  O6  1  0.99442309  0.71837743  0.73067120  1
  O  O7  1  0.16530854  0.71121990  0.35679774  1
  O  O8  1  0.89339421  0.31354182  0.64400962  1
  O  O9  1  0.59233205  0.84796035  0.25834737  1
  O  O10  1  0.31199582  0.45420481  0.53930618  1
  O  O11  1  0.73967749  0.57030140  0.44381233  1
  O  O12  1  0.35564480  0.13116336  0.77960778  1
  O  O13  1  0.67196289  0.21977545  0.35534666  1
  O  O14  1  0.50663622  0.46789604  0.16409348  1
  O  O15  1  0.10211136  0.35484734  0.26771214  1
  O  O16  1  0.24457107  0.09772073  0.44541205  1
  O  O17  1  0.93211190  0.58282428  0.06827081  1
  O  O18  1  0.01353812  0.99517381  0.15912836  1
  O  O19  1  0.47546235  0.15510171  0.02366919  1
loop_
_geom_bond_atom_site_label_1
_geom_bond_atom_site_label_2
_geom_bond_distance
_geom_bond_site_symmetry_2
Mg0 O5 1.975387 1_555
Mg0 O19 2.060978 1_556
Mg0 O12 2.105166 1_555
Mg0 O0 2.111549 1_545
Mg0 O0 2.138428 1_445
O0 Zr0 2.213834 1_555
O0 U6 2.323191 1_556
O1 Zr2 2.110377 1_556
O1 U6 2.212537 1_556
O1 U6 2.238978 1_456
O2 U2 2.299759 1_555
O2 U3 2.302659 1_665
O2 U1 2.341640 1_555
O2 U3 2.386741 1_565
O3 Zr0 2.156636 1_555
O3 U3 2.358311 1_565
O3 U1 2.393525 1_455
O3 U1 2.396574 1_555
O4 Zr0 2.090110 1_555
O4 U0 2.204326 1_555
O4 U0 2.232949 1_455
O5 Zr2 2.094541 1_556
O5 U0 2.201903 1_455
O6 Zr0 2.065252 1_555
O6 Zr0 2.134849 1_655
O6 U1 2.438987 1_555
O6 U0 2.474608 1_555
O7 Zr1 2.289868 1_555
O7 U2 2.319835 1_555
O7 U4 2.336666 1_555
O7 U2 2.360586 1_455
O8 U0 2.313824 1_555
O8 U3 2.332600 1_555
O8 U3 2.435212 1_655
O8 U1 2.524595 1_555
O9 U4 2.312863 1_555
O9 U2 2.335993 1_555
O9 U5 2.342052 1_565
O9 U4 2.350276 1_655
O10 Zr1 2.281855 1_555
O10 U1 2.323602 1_455
O10 U1 2.324416 1_555
O10 U3 2.335996 1_555
O11 Zr1 2.223009 1_655
O11 Zr1 2.297050 1_555
O11 U1 2.324685 1_555
O11 U2 2.447411 1_555
O12 Zr0 2.117610 1_545
O12 U0 2.258064 1_455
O12 U0 2.944164 1_555
O13 Zr1 2.231111 1_655
O13 U5 2.249553 1_555
O13 U2 2.358533 1_545
O13 Zr1 2.449165 1_555
O14 Zr2 2.221599 1_555
O14 U5 2.331869 1_555
O14 U4 2.368185 1_655
O14 U4 2.404416 1_555
O15 Zr1 2.224668 1_555
O15 U5 2.323167 1_455
O15 U4 2.342244 1_555
O15 U5 2.370687 1_555
O16 U3 2.276499 1_555
O16 Zr1 2.291937 1_555
O16 U2 2.351814 1_445
O16 U2 2.396689 1_545
O17 Zr2 2.077208 1_655
O17 Zr2 2.122781 1_555
O17 U4 2.451361 1_655
O17 U6 2.467350 1_555
O18 U6 2.260031 1_455
O18 U5 2.339356 1_565
O18 U5 2.416192 1_465
O18 U4 2.566752 1_555
O19 Zr2 2.142661 1_555
O19 U6 2.360037 1_545
O19 U6 2.609648 1_445
