# generated using pymatgen
data_Er3(SiNi3)2
_symmetry_space_group_name_H-M   'P 1'
_cell_length_a   7.55609243
_cell_length_b   7.55609243
_cell_length_c   7.55609243
_cell_angle_alpha   109.47122063
_cell_angle_beta   109.47122063
_cell_angle_gamma   109.47122063
_symmetry_Int_Tables_number   1
_chemical_formula_structural   Er3(SiNi3)2
_chemical_formula_sum   'Er6 Si4 Ni12'
_cell_volume   332.10077959
_cell_formula_units_Z   2
loop_
 _symmetry_equiv_pos_site_id
 _symmetry_equiv_pos_as_xyz
  1  'x, y, z'
loop_
 _atom_site_type_symbol
 _atom_site_label
 _atom_site_symmetry_multiplicity
 _atom_site_fract_x
 _atom_site_fract_y
 _atom_site_fract_z
 _atom_site_occupancy
  Er  Er0  1  0.71612500  0.71612500  0.00000000  1
  Er  Er1  1  0.28387500  0.00000000  0.28387500  1
  Er  Er2  1  0.00000000  0.28387500  0.28387500  1
  Er  Er3  1  0.28387500  0.28387500  0.00000000  1
  Er  Er4  1  0.71612500  0.00000000  0.71612500  1
  Er  Er5  1  0.00000000  0.71612500  0.71612500  1
  Si  Si0  1  0.00000000  0.00000000  0.50000000  1
  Si  Si1  1  0.00000000  0.50000000  0.00000000  1
  Si  Si2  1  0.50000000  0.00000000  0.00000000  1
  Si  Si3  1  0.50000000  0.50000000  0.50000000  1
  Ni  Ni0  1  0.33123700  0.33123700  0.66247500  1
  Ni  Ni1  1  0.66876300  0.00000000  0.33123700  1
  Ni  Ni2  1  0.00000000  0.66876300  0.33123700  1
  Ni  Ni3  1  0.66876300  0.33123700  0.00000000  1
  Ni  Ni4  1  0.33123700  0.66247500  0.33123700  1
  Ni  Ni5  1  0.00000000  0.33123700  0.66876300  1
  Ni  Ni6  1  0.33123700  0.66876300  0.00000000  1
  Ni  Ni7  1  0.33123700  0.00000000  0.66876300  1
  Ni  Ni8  1  0.66247500  0.33123700  0.33123700  1
  Ni  Ni9  1  0.66876300  0.66876300  0.33752500  1
  Ni  Ni10  1  0.66876300  0.33752500  0.66876300  1
  Ni  Ni11  1  0.33752500  0.66876300  0.66876300  1
loop_
_geom_bond_atom_site_label_1
_geom_bond_atom_site_label_2
_geom_bond_distance
_geom_bond_site_symmetry_2
Er0 Ni9 2.809287 1_555
Er0 Ni0 2.809292 1_554
Er0 Ni6 2.809294 1_555
Er0 Ni3 2.809294 1_555
Er0 Ni1 2.919445 1_565
Er0 Ni2 2.919445 1_655
Er0 Ni10 2.919449 1_554
Er0 Ni11 2.919449 1_554
Er0 Si3 3.098889 1_554
Er0 Si1 3.098889 1_655
Er0 Si2 3.098889 1_565
Er0 Si0 3.098889 1_665
Er1 Ni4 2.809287 1_545
Er1 Ni10 2.809292 1_555
Er1 Ni1 2.809294 1_555
Er1 Ni7 2.809294 1_555
Er1 Ni2 2.919445 1_545
Er1 Ni6 2.919445 1_545
Er1 Ni8 2.919449 1_555
Er1 Ni0 2.919449 1_555
Er1 Si2 3.098889 1_555
Er1 Si3 3.098889 1_555
Er1 Si0 3.098889 1_555
Er1 Si1 3.098889 1_545
Er2 Ni8 2.809287 1_455
Er2 Ni11 2.809292 1_555
Er2 Ni2 2.809294 1_555
Er2 Ni5 2.809294 1_555
Er2 Ni3 2.919445 1_455
Er2 Ni1 2.919445 1_455
Er2 Ni0 2.919449 1_555
Er2 Ni4 2.919449 1_555
Er2 Si1 3.098889 1_555
Er2 Si3 3.098889 1_555
Er2 Si0 3.098889 1_555
Er2 Si2 3.098889 1_455
Er3 Ni0 2.809287 1_554
Er3 Ni9 2.809292 1_555
Er3 Ni6 2.809294 1_555
Er3 Ni3 2.809294 1_555
Er3 Ni7 2.919445 1_554
Er3 Ni5 2.919445 1_554
Er3 Ni8 2.919449 1_555
Er3 Ni4 2.919449 1_555
Er3 Si0 3.098889 1_554
Er3 Si2 3.098889 1_555
Er3 Si3 3.098889 1_555
Er3 Si1 3.098889 1_555
Er4 Ni10 2.809287 1_555
Er4 Ni4 2.809292 1_545
Er4 Ni7 2.809294 1_555
Er4 Ni1 2.809294 1_555
Er4 Ni3 2.919445 1_556
Er4 Ni5 2.919445 1_655
Er4 Ni11 2.919449 1_545
Er4 Ni9 2.919449 1_545
Er4 Si2 3.098889 1_556
Er4 Si3 3.098889 1_545
Er4 Si1 3.098889 1_656
Er4 Si0 3.098889 1_655
Er5 Ni11 2.809287 1_555
Er5 Ni8 2.809292 1_455
Er5 Ni2 2.809294 1_555
Er5 Ni5 2.809294 1_555
Er5 Ni6 2.919445 1_556
Er5 Ni7 2.919445 1_565
Er5 Ni10 2.919449 1_455
Er5 Ni9 2.919449 1_455
Er5 Si0 3.098889 1_565
Er5 Si2 3.098889 1_566
Er5 Si3 3.098889 1_455
Er5 Si1 3.098889 1_556
Ni0 Si0 2.400552 1_555
Ni0 Si3 2.400560 1_555
Ni0 Ni5 2.519093 1_555
Ni0 Ni7 2.519093 1_555
Ni0 Ni11 2.519101 1_555
Ni0 Ni10 2.519101 1_555
Ni1 Si2 2.400554 1_555
Ni1 Si0 2.400554 1_655
Ni1 Ni9 2.519093 1_545
Ni1 Ni8 2.519093 1_555
Ni1 Ni6 2.519096 1_545
Ni1 Ni5 2.519096 1_655
Ni2 Si1 2.400554 1_555
Ni2 Si0 2.400554 1_565
Ni2 Ni9 2.519093 1_455
Ni2 Ni4 2.519093 1_555
Ni2 Ni7 2.519096 1_565
Ni2 Ni3 2.519096 1_455
Ni3 Si2 2.400554 1_555
Ni3 Si1 2.400554 1_655
Ni3 Ni8 2.519093 1_555
Ni3 Ni7 2.519096 1_554
Ni4 Si1 2.400552 1_555
Ni4 Si3 2.400560 1_555
Ni4 Ni6 2.519093 1_555
Ni4 Ni9 2.519101 1_555
Ni5 Si1 2.400554 1_556
Ni5 Si0 2.400554 1_555
Ni5 Ni6 2.519096 1_556
Ni6 Si2 2.400554 1_565
Ni6 Si1 2.400554 1_555
Ni7 Si2 2.400554 1_556
Ni7 Si0 2.400554 1_555
Ni8 Si2 2.400552 1_555
Ni8 Si3 2.400560 1_555
Ni8 Ni9 2.519101 1_555
Ni9 Si0 2.400552 1_665
Ni9 Si3 2.400560 1_555
Ni10 Si1 2.400552 1_656
Ni10 Si3 2.400560 1_555
Ni10 Ni3 2.519093 1_556
Ni10 Ni5 2.519093 1_655
Ni10 Ni8 2.519101 1_555
Ni11 Si2 2.400552 1_566
Ni11 Si3 2.400560 1_555
Ni11 Ni6 2.519093 1_556
Ni11 Ni7 2.519093 1_565
Ni11 Ni4 2.519101 1_555
