# generated using pymatgen
data_AlH15Br3N5
_symmetry_space_group_name_H-M   'P 1'
_cell_length_a   7.02794100
_cell_length_b   11.08162600
_cell_length_c   14.09773000
_cell_angle_alpha   90.00000000
_cell_angle_beta   90.00000000
_cell_angle_gamma   90.00000000
_symmetry_Int_Tables_number   1
_chemical_formula_structural   AlH15Br3N5
_chemical_formula_sum   'Al4 H60 Br12 N20'
_cell_volume   1097.94550344
_cell_formula_units_Z   4
loop_
 _symmetry_equiv_pos_site_id
 _symmetry_equiv_pos_as_xyz
  1  'x, y, z'
loop_
 _atom_site_type_symbol
 _atom_site_label
 _atom_site_symmetry_multiplicity
 _atom_site_fract_x
 _atom_site_fract_y
 _atom_site_fract_z
 _atom_site_occupancy
  Al  Al0  1  0.82518300  0.75000000  0.10862000  1
  Al  Al1  1  0.67481700  0.75000000  0.60862000  1
  Al  Al2  1  0.17481700  0.25000000  0.89138000  1
  Al  Al3  1  0.32518200  0.25000000  0.39138000  1
  H  H0  1  0.98064600  0.75000000  0.27712300  1
  H  H1  1  0.51935400  0.75000000  0.77712300  1
  H  H2  1  0.01935400  0.25000000  0.72287700  1
  H  H3  1  0.48064600  0.25000000  0.22287700  1
  H  H4  1  0.12470800  0.67524300  0.20649100  1
  H  H5  1  0.37529200  0.82475700  0.70649100  1
  H  H6  1  0.87529200  0.17524300  0.79350900  1
  H  H7  1  0.62470800  0.32475700  0.29350900  1
  H  H8  1  0.87529200  0.32475700  0.79350900  1
  H  H9  1  0.62470800  0.17524300  0.29350900  1
  H  H10  1  0.12470800  0.82475700  0.20649100  1
  H  H11  1  0.37529200  0.67524300  0.70649100  1
  H  H12  1  0.46685200  0.75000000  0.04527900  1
  H  H13  1  0.03314800  0.75000000  0.54527900  1
  H  H14  1  0.53314800  0.25000000  0.95472100  1
  H  H15  1  0.96685200  0.25000000  0.45472100  1
  H  H16  1  0.89691500  0.67575100  0.47069500  1
  H  H17  1  0.60308500  0.82424900  0.97069500  1
  H  H18  1  0.10308500  0.17575100  0.52930500  1
  H  H19  1  0.39691500  0.32424900  0.02930500  1
  H  H20  1  0.10308500  0.32424900  0.52930500  1
  H  H21  1  0.39691500  0.17575100  0.02930500  1
  H  H22  1  0.89691500  0.82424900  0.47069500  1
  H  H23  1  0.60308500  0.67575100  0.97069500  1
  H  H24  1  0.67343200  0.75000000  0.28426200  1
  H  H25  1  0.82656800  0.75000000  0.78426200  1
  H  H26  1  0.32656800  0.25000000  0.71573800  1
  H  H27  1  0.17343200  0.25000000  0.21573800  1
  H  H28  1  0.53688300  0.67537300  0.21047100  1
  H  H29  1  0.96311700  0.82462700  0.71047100  1
  H  H30  1  0.46311700  0.17537300  0.78952900  1
  H  H31  1  0.03688300  0.32462700  0.28952900  1
  H  H32  1  0.46311700  0.32462700  0.78952900  1
  H  H33  1  0.03688300  0.17537300  0.28952900  1
  H  H34  1  0.53688300  0.82462700  0.21047100  1
  H  H35  1  0.96311700  0.67537300  0.71047100  1
  H  H36  1  0.75753100  0.52523600  0.05935500  1
  H  H37  1  0.74246900  0.97476400  0.55935500  1
  H  H38  1  0.24246900  0.02523600  0.94064500  1
  H  H39  1  0.25753100  0.47476400  0.44064500  1
  H  H40  1  0.24246900  0.47476400  0.94064500  1
  H  H41  1  0.25753100  0.02523600  0.44064500  1
  H  H42  1  0.75753100  0.97476400  0.05935500  1
  H  H43  1  0.74246900  0.52523600  0.55935500  1
  H  H44  1  0.96840100  0.53390100  0.11001200  1
  H  H45  1  0.53159900  0.96609900  0.61001200  1
  H  H46  1  0.03159900  0.03390100  0.88998800  1
  H  H47  1  0.46840100  0.46609900  0.38998800  1
  H  H48  1  0.03159900  0.46609900  0.88998800  1
  H  H49  1  0.46840100  0.03390100  0.38998800  1
  H  H50  1  0.96840100  0.96609900  0.11001200  1
  H  H51  1  0.53159900  0.53390100  0.61001200  1
  H  H52  1  0.77657600  0.53516000  0.17586800  1
  H  H53  1  0.72342400  0.96484000  0.67586800  1
  H  H54  1  0.22342400  0.03516000  0.82413200  1
  H  H55  1  0.27657600  0.46484000  0.32413200  1
  H  H56  1  0.22342400  0.46484000  0.82413200  1
  H  H57  1  0.27657600  0.03516000  0.32413200  1
  H  H58  1  0.77657600  0.96484000  0.17586800  1
  H  H59  1  0.72342400  0.53516000  0.67586800  1
  Br  Br0  1  0.44153700  0.75000000  0.47327000  1
  Br  Br1  1  0.05846300  0.75000000  0.97327000  1
  Br  Br2  1  0.55846300  0.25000000  0.52673000  1
  Br  Br3  1  0.94153700  0.25000000  0.02673000  1
  Br  Br4  1  0.83922900  0.50187800  0.35394100  1
  Br  Br5  1  0.66077100  0.99812200  0.85394100  1
  Br  Br6  1  0.16077100  0.00187800  0.64605900  1
  Br  Br7  1  0.33922900  0.49812200  0.14605900  1
  Br  Br8  1  0.16077100  0.49812200  0.64605900  1
  Br  Br9  1  0.33922900  0.00187800  0.14605900  1
  Br  Br10  1  0.83922900  0.99812200  0.35394100  1
  Br  Br11  1  0.66077100  0.50187800  0.85394100  1
  N  N0  1  0.03747500  0.75000000  0.21023500  1
  N  N1  1  0.46252500  0.75000000  0.71023500  1
  N  N2  1  0.96252500  0.25000000  0.78976500  1
  N  N3  1  0.53747500  0.25000000  0.28976500  1
  N  N4  1  0.60026400  0.75000000  0.01494200  1
  N  N5  1  0.89973600  0.75000000  0.51494200  1
  N  N6  1  0.39973600  0.25000000  0.98505800  1
  N  N7  1  0.10026400  0.25000000  0.48505800  1
  N  N8  1  0.62421600  0.75000000  0.21556700  1
  N  N9  1  0.87578400  0.75000000  0.71556700  1
  N  N10  1  0.37578400  0.25000000  0.78443300  1
  N  N11  1  0.12421600  0.25000000  0.28443300  1
  N  N12  1  0.83147800  0.56721000  0.11290800  1
  N  N13  1  0.66852200  0.93279000  0.61290800  1
  N  N14  1  0.16852200  0.06721000  0.88709200  1
  N  N15  1  0.33147800  0.43279000  0.38709200  1
  N  N16  1  0.16852200  0.43279000  0.88709200  1
  N  N17  1  0.33147800  0.06721000  0.38709200  1
  N  N18  1  0.83147800  0.93279000  0.11290800  1
  N  N19  1  0.66852200  0.56721000  0.61290800  1
loop_
_geom_bond_atom_site_label_1
_geom_bond_atom_site_label_2
_geom_bond_distance
_geom_bond_site_symmetry_2
Al0 N12 2.026995 1_555
Al0 N18 2.026995 1_555
Al0 N4 2.059800 1_555
Al0 N8 2.065918 1_555
Al0 N0 2.068372 1_655
Al0 Br1 2.515719 1_654
Al1 N19 2.026995 1_555
Al1 N13 2.026995 1_555
Al1 N5 2.059800 1_555
Al1 N9 2.065918 1_555
Al1 N1 2.068372 1_555
Al1 Br0 2.515719 1_555
Al2 N16 2.026995 1_555
Al2 N14 2.026995 1_555
Al2 N6 2.059800 1_555
Al2 N10 2.065918 1_555
Al2 N2 2.068372 1_455
Al2 Br3 2.515719 1_456
Al3 N17 2.026995 1_555
Al3 N15 2.026995 1_555
Al3 N7 2.059795 1_555
Al3 N11 2.065913 1_555
Al3 N3 2.068378 1_555
Al3 Br2 2.515723 1_555
H0 N0 1.024062 1_655
H1 N1 1.024062 1_555
H2 N2 1.024062 1_455
H3 N3 1.024062 1_555
H4 N0 1.031956 1_555
H5 N1 1.031956 1_555
H6 N2 1.031956 1_555
H7 N3 1.031956 1_555
H8 N2 1.031956 1_555
H9 N3 1.031956 1_555
H10 N0 1.031956 1_555
H11 N1 1.031956 1_555
H12 N4 1.030548 1_555
H13 N5 1.030548 1_455
H14 N6 1.030548 1_555
H15 N7 1.030548 1_655
H16 N5 1.032713 1_555
H17 N4 1.032713 1_556
H18 N7 1.032713 1_555
H19 N6 1.032713 1_554
H20 N7 1.032713 1_555
H21 N6 1.032713 1_554
H22 N5 1.032713 1_555
H23 N4 1.032713 1_556
H24 N8 1.028358 1_555
H25 N9 1.028358 1_555
H26 N10 1.028358 1_555
H27 N11 1.028358 1_555
H28 N8 1.032369 1_555
H29 N9 1.032369 1_555
H30 N10 1.032369 1_555
H31 N11 1.032369 1_555
H32 N10 1.032369 1_555
H33 N11 1.032369 1_555
H34 N8 1.032369 1_555
H35 N9 1.032369 1_555
H36 N12 1.027826 1_555
H37 N13 1.027826 1_555
H38 N14 1.027826 1_555
H39 N15 1.027826 1_555
H40 N16 1.027826 1_555
H41 N17 1.027826 1_555
H42 N18 1.027826 1_555
H43 N19 1.027826 1_555
H44 N12 1.031460 1_555
H45 N13 1.031460 1_555
H46 N14 1.031460 1_555
H47 N15 1.031460 1_555
H48 N16 1.031460 1_555
H49 N17 1.031460 1_555
H50 N18 1.031460 1_555
H51 N19 1.031460 1_555
H52 N12 1.030943 1_555
H53 N13 1.030943 1_555
H54 N14 1.030943 1_555
H55 N15 1.030943 1_555
H56 N16 1.030943 1_555
H57 N17 1.030943 1_555
H58 N18 1.030943 1_555
H59 N19 1.030943 1_555
