# generated using pymatgen
data_Sm5Ir3
_symmetry_space_group_name_H-M   'P 1'
_cell_length_a   6.48148756
_cell_length_b   11.07656112
_cell_length_c   11.07702177
_cell_angle_alpha   90.00000885
_cell_angle_beta   90.00035795
_cell_angle_gamma   90.00002938
_symmetry_Int_Tables_number   1
_chemical_formula_structural   Sm5Ir3
_chemical_formula_sum   'Sm20 Ir12'
_cell_volume   795.24811676
_cell_formula_units_Z   4
loop_
 _symmetry_equiv_pos_site_id
 _symmetry_equiv_pos_as_xyz
  1  'x, y, z'
loop_
 _atom_site_type_symbol
 _atom_site_label
 _atom_site_symmetry_multiplicity
 _atom_site_fract_x
 _atom_site_fract_y
 _atom_site_fract_z
 _atom_site_occupancy
  Sm  Sm0  1  0.38645107  0.83993384  0.54245651  1
  Sm  Sm1  1  0.88644839  0.66006710  0.54246056  1
  Sm  Sm2  1  0.88645455  0.83993166  0.95753547  1
  Sm  Sm3  1  0.38645223  0.66007000  0.95753155  1
  Sm  Sm4  1  0.88647881  0.54243839  0.83989680  1
  Sm  Sm5  1  0.38647680  0.95756578  0.83990174  1
  Sm  Sm6  1  0.38647938  0.54243551  0.66010086  1
  Sm  Sm7  1  0.88647701  0.95756811  0.66009574  1
  Sm  Sm8  1  0.61354627  0.16013401  0.45762342  1
  Sm  Sm9  1  0.11354769  0.33986249  0.45761935  1
  Sm  Sm10  1  0.11354174  0.16013983  0.04238563  1
  Sm  Sm11  1  0.61354311  0.33985904  0.04238837  1
  Sm  Sm12  1  0.11356719  0.45758712  0.16010907  1
  Sm  Sm13  1  0.61356749  0.04240813  0.16010437  1
  Sm  Sm14  1  0.61356885  0.45759303  0.33989098  1
  Sm  Sm15  1  0.11356980  0.04240442  0.33989489  1
  Sm  Sm16  1  0.50002758  0.75000092  0.24999747  1
  Sm  Sm17  1  0.00002762  0.75000050  0.24999968  1
  Sm  Sm18  1  0.00003213  0.24999860  0.74999859  1
  Sm  Sm19  1  0.50003191  0.24999865  0.75000076  1
  Ir  Ir0  1  0.24996952  0.90362499  0.09631250  1
  Ir  Ir1  1  0.74996848  0.59637304  0.09630643  1
  Ir  Ir2  1  0.74996802  0.90362073  0.40368134  1
  Ir  Ir3  1  0.24996688  0.59637575  0.40368610  1
  Ir  Ir4  1  0.74997682  0.09638190  0.90357454  1
  Ir  Ir5  1  0.24997841  0.40362098  0.90357805  1
  Ir  Ir6  1  0.24997892  0.09637762  0.59643390  1
  Ir  Ir7  1  0.74997927  0.40362355  0.59642923  1
  Ir  Ir8  1  0.12755666  0.75001049  0.74999002  1
  Ir  Ir9  1  0.62755720  0.75001034  0.74998903  1
  Ir  Ir10  1  0.87240140  0.24998983  0.25001262  1
  Ir  Ir11  1  0.37240880  0.24999264  0.25001646  1
loop_
_geom_bond_atom_site_label_1
_geom_bond_atom_site_label_2
_geom_bond_distance
_geom_bond_site_symmetry_2
Sm0 Sm16 3.468299 1_555
Sm1 Sm17 3.468323 1_655
Sm10 Sm18 3.467218 1_554
Sm11 Sm19 3.467230 1_554
Sm12 Sm17 3.467524 1_555
Sm13 Sm16 3.467468 1_545
Sm14 Sm16 3.467477 1_555
Sm15 Sm17 3.467441 1_545
Sm16 Sm17 3.240744 1_555
Sm16 Sm17 3.240744 1_655
Sm16 Sm3 3.468353 1_554
Sm17 Sm2 3.468334 1_454
Sm18 Sm19 3.240742 1_555
Sm18 Sm19 3.240745 1_455
Sm18 Sm9 3.467170 1_555
Sm18 Sm7 3.467758 1_445
Sm18 Sm4 3.467841 1_455
Sm19 Sm8 3.467151 1_555
Sm19 Sm5 3.467780 1_545
Sm19 Sm6 3.467812 1_555
Ir0 Sm2 2.900357 1_454
Ir0 Sm13 2.901073 1_565
Ir0 Sm17 2.901399 1_555
Ir0 Sm16 2.901792 1_555
Ir0 Sm5 3.034296 1_554
Ir0 Sm10 3.035083 1_565
Ir0 Sm3 3.228567 1_554
Ir0 Sm15 3.228731 1_565
Ir1 Sm3 2.900362 1_554
Ir1 Sm12 2.901124 1_655
Ir1 Sm16 2.901444 1_555
Ir1 Sm17 2.901870 1_655
Ir1 Sm4 3.034276 1_554
Ir1 Sm11 3.035049 1_555
Ir1 Sm2 3.228554 1_554
Ir1 Sm14 3.228754 1_555
Ir2 Sm0 2.900355 1_555
Ir2 Sm15 2.901089 1_665
Ir2 Sm16 2.901330 1_555
Ir2 Sm17 2.901763 1_655
Ir2 Sm7 3.034340 1_555
Ir2 Sm8 3.035090 1_565
Ir2 Sm1 3.228537 1_555
Ir2 Sm13 3.228715 1_565
Ir3 Sm1 2.900372 1_455
Ir3 Sm14 2.901109 1_555
Ir3 Sm17 2.901376 1_555
Ir3 Sm16 2.901843 1_555
Ir3 Sm6 3.034336 1_555
Ir3 Sm9 3.035066 1_555
Ir3 Sm0 3.228537 1_555
Ir3 Sm12 3.228720 1_555
Ir4 Sm5 2.900430 1_545
Ir4 Sm19 2.900612 1_555
Ir4 Sm10 2.900995 1_656
Ir4 Sm18 2.901037 1_655
Ir4 Sm2 3.034582 1_545
Ir4 Sm13 3.035417 1_556
Ir4 Sm11 3.227933 1_556
Ir4 Sm7 3.228132 1_545
Ir5 Sm4 2.900460 1_455
Ir5 Sm18 2.900689 1_555
Ir5 Sm11 2.901000 1_556
Ir5 Sm19 2.901076 1_555
Ir5 Sm3 3.034544 1_555
Ir5 Sm12 3.035417 1_556
Ir5 Sm10 3.227942 1_556
Ir5 Sm6 3.228122 1_555
Ir6 Sm7 2.900379 1_445
Ir6 Sm18 2.900599 1_555
Ir6 Sm19 2.900985 1_555
Ir6 Sm8 2.901015 1_555
Ir6 Sm0 3.034542 1_545
Ir6 Sm15 3.035500 1_555
Ir6 Sm9 3.227999 1_555
Ir6 Sm5 3.228007 1_545
Ir7 Sm6 2.900410 1_555
Ir7 Sm19 2.900670 1_555
Ir7 Sm18 2.901028 1_655
Ir7 Sm9 2.901030 1_655
Ir7 Sm1 3.034514 1_555
Ir7 Sm14 3.035487 1_555
Ir7 Sm8 3.227999 1_555
Ir7 Sm4 3.228022 1_555
Ir8 Sm7 2.952730 1_455
Ir8 Sm1 2.952824 1_455
Ir8 Sm2 2.952874 1_455
Ir8 Sm4 2.952901 1_455
Ir8 Sm0 3.015398 1_555
Ir8 Sm3 3.015517 1_555
Ir8 Sm5 3.015561 1_555
Ir8 Sm6 3.015662 1_555
Ir8 Ir9 3.240740 1_455
Ir8 Ir9 3.240747 1_555
Ir9 Sm0 2.952770 1_555
Ir9 Sm5 2.952789 1_555
Ir9 Sm6 2.952848 1_555
Ir9 Sm3 2.952930 1_555
Ir9 Sm1 3.015417 1_555
Ir9 Sm2 3.015494 1_555
Ir9 Sm7 3.015521 1_555
Ir9 Sm4 3.015694 1_555
Ir10 Sm15 2.953230 1_655
Ir10 Sm9 2.953357 1_655
Ir10 Sm12 2.953408 1_655
Ir10 Sm10 2.953442 1_655
Ir10 Sm13 3.015460 1_555
Ir10 Sm14 3.015536 1_555
Ir10 Sm8 3.015662 1_555
Ir10 Sm11 3.015821 1_555
Ir10 Ir11 3.240696 1_555
Ir10 Ir11 3.240792 1_655
Ir11 Sm8 2.953277 1_555
Ir11 Sm14 2.953300 1_555
Ir11 Sm13 2.953306 1_555
Ir11 Sm11 2.953492 1_555
Ir11 Sm15 3.015432 1_555
Ir11 Sm12 3.015595 1_555
Ir11 Sm9 3.015669 1_555
Ir11 Sm10 3.015847 1_555
