# generated using pymatgen
data_NaMg6B
_symmetry_space_group_name_H-M   'P 1'
_cell_length_a   4.83436900
_cell_length_b   6.34063400
_cell_length_c   10.94276500
_cell_angle_alpha   90.00000000
_cell_angle_beta   90.00000000
_cell_angle_gamma   90.00000000
_symmetry_Int_Tables_number   1
_chemical_formula_structural   NaMg6B
_chemical_formula_sum   'Na2 Mg12 B2'
_cell_volume   335.42818653
_cell_formula_units_Z   2
loop_
 _symmetry_equiv_pos_site_id
 _symmetry_equiv_pos_as_xyz
  1  'x, y, z'
loop_
 _atom_site_type_symbol
 _atom_site_label
 _atom_site_symmetry_multiplicity
 _atom_site_fract_x
 _atom_site_fract_y
 _atom_site_fract_z
 _atom_site_occupancy
  Na  Na0  1  0.50000000  0.00000000  0.83560400  1
  Na  Na1  1  0.50000000  0.50000000  0.33560400  1
  Mg  Mg0  1  0.50000000  0.24863800  0.58643400  1
  Mg  Mg1  1  0.50000000  0.75136200  0.58643400  1
  Mg  Mg2  1  0.00000000  0.23170700  0.41079500  1
  Mg  Mg3  1  0.00000000  0.76829300  0.41079500  1
  Mg  Mg4  1  0.00000000  0.00000000  0.66435500  1
  Mg  Mg5  1  0.00000000  0.00000000  0.17510500  1
  Mg  Mg6  1  0.50000000  0.74863800  0.08643400  1
  Mg  Mg7  1  0.50000000  0.25136200  0.08643400  1
  Mg  Mg8  1  0.00000000  0.73170700  0.91079500  1
  Mg  Mg9  1  0.00000000  0.26829300  0.91079500  1
  Mg  Mg10  1  0.00000000  0.50000000  0.16435500  1
  Mg  Mg11  1  0.00000000  0.50000000  0.67510500  1
  B  B0  1  0.50000000  0.00000000  0.33048200  1
  B  B1  1  0.50000000  0.50000000  0.83048200  1
loop_
_geom_bond_atom_site_label_1
_geom_bond_atom_site_label_2
_geom_bond_distance
_geom_bond_site_symmetry_2
Mg0 Mg4 3.009195 1_655
Mg0 Mg4 3.009195 1_555
Mg0 Mg11 3.053597 1_655
Mg0 Mg11 3.053597 1_555
Mg0 Mg2 3.090032 1_655
Mg0 Mg2 3.090032 1_555
Mg0 Na0 3.149574 1_555
Mg0 Na1 3.173951 1_555
Mg1 Mg4 3.009195 1_665
Mg1 Mg4 3.009195 1_565
Mg1 Mg11 3.053597 1_655
Mg1 Mg11 3.053597 1_555
Mg1 Mg3 3.090032 1_555
Mg1 Mg3 3.090032 1_655
Mg1 Na0 3.149574 1_565
Mg1 Na1 3.173951 1_555
Mg2 Mg3 2.938339 1_545
Mg2 Mg5 2.968201 1_555
Mg2 Na1 3.068172 1_555
Mg2 Na1 3.068172 1_455
Mg2 Mg4 3.139606 1_555
Mg2 Mg3 3.402295 1_555
Mg3 Mg5 2.968201 1_565
Mg3 Na1 3.068172 1_555
Mg3 Na1 3.068172 1_455
Mg3 Mg4 3.139606 1_565
Mg4 Na0 3.058500 1_455
Mg4 Na0 3.058500 1_555
Mg4 Mg8 3.188461 1_545
Mg4 Mg9 3.188461 1_555
Mg5 Mg7 3.053597 1_455
Mg5 Mg7 3.053597 1_555
Mg5 Mg6 3.053597 1_445
Mg5 Mg6 3.053597 1_545
Mg5 Mg9 3.355473 1_554
Mg5 Mg8 3.355473 1_544
Mg6 Mg8 3.090032 1_654
Mg6 Mg8 3.090032 1_554
Mg6 Na1 3.149574 1_555
Mg6 Na0 3.173951 1_564
Mg7 Mg9 3.090032 1_654
Mg7 Mg9 3.090032 1_554
Mg7 Na1 3.149574 1_555
Mg7 Na0 3.173951 1_554
Mg8 Mg9 2.938339 1_555
Mg8 Na0 3.068172 1_565
Mg8 Na0 3.068172 1_465
Mg8 Mg9 3.402295 1_565
Mg9 Na0 3.068172 1_555
Mg9 Na0 3.068172 1_455
Mg10 Mg6 3.009195 1_455
Mg10 Mg6 3.009195 1_555
Mg10 Mg7 3.009195 1_455
Mg10 Mg7 3.009195 1_555
Mg10 Na1 3.058500 1_555
Mg10 Na1 3.058500 1_455
Mg10 Mg8 3.139606 1_554
Mg10 Mg9 3.139606 1_554
Mg10 Mg5 3.172499 1_555
Mg10 Mg5 3.172499 1_565
Mg10 Mg2 3.188461 1_555
Mg10 Mg3 3.188461 1_555
Mg11 Mg8 2.968201 1_555
Mg11 Mg9 2.968201 1_555
Mg11 Mg4 3.172499 1_565
Mg11 Mg4 3.172499 1_555
Mg11 Mg3 3.355473 1_555
Mg11 Mg2 3.355473 1_555
B0 Mg5 2.955274 1_555
B0 Mg5 2.955274 1_655
B0 Mg2 2.962028 1_555
B0 Mg3 2.962028 1_645
B0 Mg3 2.962028 1_545
B0 Mg2 2.962028 1_655
B0 Na1 3.170812 1_545
B0 Na1 3.170812 1_555
B1 Mg11 2.955274 1_655
B1 Mg11 2.955274 1_555
B1 Mg9 2.962028 1_655
B1 Mg8 2.962028 1_555
B1 Mg8 2.962028 1_655
B1 Mg9 2.962028 1_555
B1 Na0 3.170812 1_555
B1 Na0 3.170812 1_565
