# generated using pymatgen
data_Ta2Zn2FeO8
_symmetry_space_group_name_H-M   'P 1'
_cell_length_a   5.94948548
_cell_length_b   10.62502159
_cell_length_c   11.45312370
_cell_angle_alpha   62.79020526
_cell_angle_beta   75.05196063
_cell_angle_gamma   90.04054690
_symmetry_Int_Tables_number   1
_chemical_formula_structural   Ta2Zn2FeO8
_chemical_formula_sum   'Ta8 Zn8 Fe4 O32'
_cell_volume   616.12464100
_cell_formula_units_Z   4
loop_
 _symmetry_equiv_pos_site_id
 _symmetry_equiv_pos_as_xyz
  1  'x, y, z'
loop_
 _atom_site_type_symbol
 _atom_site_label
 _atom_site_symmetry_multiplicity
 _atom_site_fract_x
 _atom_site_fract_y
 _atom_site_fract_z
 _atom_site_occupancy
  Ta  Ta0  1  0.04186600  0.01784000  0.23047800  1
  Ta  Ta1  1  0.04083000  0.51783200  0.23083800  1
  Ta  Ta2  1  0.27189800  0.73230900  0.76865500  1
  Ta  Ta3  1  0.27226200  0.23234900  0.76867000  1
  Ta  Ta4  1  0.95825200  0.98234200  0.76861900  1
  Ta  Ta5  1  0.95765200  0.48184900  0.76902900  1
  Ta  Ta6  1  0.72826900  0.26767100  0.23065000  1
  Ta  Ta7  1  0.72804800  0.76761200  0.23122400  1
  Zn  Zn0  1  0.87041800  0.83296000  0.56316700  1
  Zn  Zn1  1  0.87033900  0.33294700  0.56330900  1
  Zn  Zn2  1  0.43602400  0.91782600  0.43489900  1
  Zn  Zn3  1  0.43577400  0.41767500  0.43496600  1
  Zn  Zn4  1  0.12896200  0.16727700  0.43592700  1
  Zn  Zn5  1  0.12868100  0.66716300  0.43628900  1
  Zn  Zn6  1  0.56427700  0.08279700  0.56378100  1
  Zn  Zn7  1  0.56409800  0.58262500  0.56407200  1
  Fe  Fe0  1  0.64666900  0.62642800  0.00060000  1
  Fe  Fe1  1  0.35279000  0.87594000  0.00049600  1
  Fe  Fe2  1  0.64706900  0.12560700  0.00045700  1
  Fe  Fe3  1  0.35206700  0.37622800  0.00056200  1
  O  O0  1  0.04524600  0.39560200  0.13881000  1
  O  O1  1  0.04606900  0.89435400  0.13969900  1
  O  O2  1  0.18089400  0.85464200  0.85876600  1
  O  O3  1  0.18082700  0.35427800  0.85904300  1
  O  O4  1  0.95955800  0.60426400  0.85893100  1
  O  O5  1  0.96003800  0.10463600  0.85867600  1
  O  O6  1  0.81444200  0.14442000  0.13947100  1
  O  O7  1  0.81426500  0.64505700  0.13922400  1
  O  O8  1  0.31176200  0.14431600  0.11899400  1
  O  O9  1  0.31099200  0.64423500  0.11984500  1
  O  O10  1  0.43716400  0.61033200  0.88139200  1
  O  O11  1  0.43920300  0.11052700  0.88004300  1
  O  O12  1  0.68032900  0.86093100  0.88036300  1
  O  O13  1  0.68023200  0.35955600  0.88072800  1
  O  O14  1  0.56867900  0.39371200  0.11920800  1
  O  O15  1  0.56966700  0.89426900  0.11920700  1
  O  O16  1  0.92695600  0.10689500  0.35406800  1
  O  O17  1  0.92601200  0.60666400  0.35456900  1
  O  O18  1  0.28131200  0.14335400  0.64441100  1
  O  O19  1  0.28125000  0.64317400  0.64463700  1
  O  O20  1  0.71973400  0.85673800  0.35450600  1
  O  O21  1  0.71949700  0.35668600  0.35422000  1
  O  O22  1  0.07207600  0.89308100  0.64473300  1
  O  O23  1  0.07214300  0.39328500  0.64465900  1
  O  O24  1  0.45604900  0.12698800  0.38663800  1
  O  O25  1  0.45567700  0.62697200  0.38670100  1
  O  O26  1  0.84372600  0.12399700  0.61129600  1
  O  O27  1  0.84342800  0.62375200  0.61176200  1
  O  O28  1  0.54313700  0.87374700  0.61168500  1
  O  O29  1  0.54313100  0.37393000  0.61136300  1
  O  O30  1  0.15762100  0.87684400  0.38670500  1
  O  O31  1  0.15726400  0.37686400  0.38669900  1
loop_
_geom_bond_atom_site_label_1
_geom_bond_atom_site_label_2
_geom_bond_distance
_geom_bond_site_symmetry_2
Fe0 O10 2.130278 1_554
Fe0 O7 2.158223 1_555
Fe0 O9 2.172371 1_555
Fe0 O14 2.185397 1_555
Fe0 O12 2.205398 1_554
Fe0 O4 2.223798 1_554
Fe1 O12 2.129276 1_554
Fe1 O1 2.166791 1_555
Fe1 O15 2.167527 1_555
Fe1 O9 2.176564 1_555
Fe1 O11 2.206301 1_564
Fe1 O2 2.219023 1_554
Fe2 O11 2.130426 1_554
Fe2 O6 2.162204 1_555
Fe2 O8 2.170821 1_555
Fe2 O15 2.172919 1_545
Fe2 O13 2.200150 1_554
Fe2 O5 2.219278 1_554
Fe3 O13 2.137151 1_554
Fe3 O14 2.162358 1_555
Fe3 O0 2.165443 1_555
Fe3 O8 2.178035 1_555
Fe3 O10 2.200734 1_554
Fe3 O3 2.217354 1_554
O0 Ta1 2.008930 1_555
O0 Ta6 2.043520 1_455
O1 Ta0 2.009277 1_565
O1 Ta7 2.043146 1_455
O2 Ta2 1.996802 1_555
O2 Ta4 2.022002 1_455
O3 Ta3 1.995586 1_555
O3 Ta5 2.023333 1_455
O4 Ta5 1.995691 1_555
O4 Ta2 2.022851 1_655
O5 Ta4 1.995899 1_545
O5 Ta3 2.020868 1_655
O6 Ta6 2.010882 1_555
O6 Ta0 2.043072 1_655
O7 Ta7 2.011425 1_555
O7 Ta1 2.044584 1_655
O8 Ta0 1.839746 1_555
O9 Ta1 1.839774 1_555
O10 Ta2 1.854729 1_555
O11 Ta3 1.853224 1_555
O12 Ta4 1.852445 1_555
O13 Ta5 1.853821 1_555
O14 Ta6 1.840618 1_555
O15 Ta7 1.841578 1_555
O16 Zn4 1.966020 1_655
O16 Ta0 2.023078 1_655
O16 Ta6 2.229382 1_555
O17 Zn5 1.968347 1_655
O17 Ta1 2.022461 1_655
O17 Ta7 2.226919 1_555
O18 Zn6 1.960566 1_555
O18 Ta3 2.028190 1_555
O18 Ta4 2.236925 1_445
O19 Zn7 1.959709 1_555
O19 Ta2 2.026580 1_555
O19 Ta5 2.240859 1_455
O20 Zn2 1.965826 1_555
O20 Ta7 2.019809 1_555
O20 Ta0 2.233413 1_665
O21 Zn3 1.966922 1_555
O21 Ta6 2.021450 1_555
O21 Ta1 2.229875 1_655
O22 Zn0 1.960363 1_455
O22 Ta4 2.026600 1_455
O22 Ta2 2.236488 1_555
O23 Zn1 1.960317 1_455
O23 Ta5 2.025975 1_455
O23 Ta3 2.238974 1_555
O24 Zn4 1.986021 1_555
O24 Zn2 2.025057 1_545
O24 Ta6 2.027516 1_555
O24 Zn6 2.134121 1_555
O25 Zn5 1.985618 1_555
O25 Ta7 2.025906 1_555
O25 Zn3 2.026450 1_555
O25 Zn7 2.136817 1_555
O26 Zn6 1.983814 1_555
O26 Zn1 2.023545 1_555
O26 Ta4 2.032471 1_545
O26 Zn4 2.126339 1_655
O27 Zn7 1.984089 1_555
O27 Zn0 2.024494 1_555
O27 Ta5 2.031937 1_555
O27 Zn5 2.126857 1_655
O28 Zn0 1.987768 1_555
O28 Zn6 2.024833 1_565
O28 Ta2 2.030703 1_555
O28 Zn2 2.126958 1_555
O29 Zn1 1.987428 1_555
O29 Zn7 2.022912 1_555
O29 Ta3 2.031291 1_555
O29 Zn3 2.124378 1_555
O30 Zn2 1.981973 1_555
O30 Ta0 2.026310 1_565
O30 Zn5 2.026705 1_555
O30 Zn0 2.139451 1_455
O31 Zn3 1.982419 1_555
O31 Ta1 2.025859 1_555
O31 Zn4 2.026691 1_555
O31 Zn1 2.139543 1_455
