# generated using pymatgen
data_In(IO4)3
_symmetry_space_group_name_H-M   'P 1'
_cell_length_a   7.20721500
_cell_length_b   7.27441967
_cell_length_c   10.47918619
_cell_angle_alpha   87.73199924
_cell_angle_beta   106.14791709
_cell_angle_gamma   98.35172092
_symmetry_Int_Tables_number   1
_chemical_formula_structural   In(IO4)3
_chemical_formula_sum   'In2 I6 O24'
_cell_volume   522.13348018
_cell_formula_units_Z   2
loop_
 _symmetry_equiv_pos_site_id
 _symmetry_equiv_pos_as_xyz
  1  'x, y, z'
loop_
 _atom_site_type_symbol
 _atom_site_label
 _atom_site_symmetry_multiplicity
 _atom_site_fract_x
 _atom_site_fract_y
 _atom_site_fract_z
 _atom_site_occupancy
  In  In0  1  0.50000000  0.00000000  0.00000000  1
  In  In1  1  0.50000000  0.00000000  0.50000000  1
  I  I0  1  0.16123700  0.10026300  0.67634000  1
  I  I1  1  0.83876300  0.89973700  0.32366000  1
  I  I2  1  0.00960400  0.73741800  0.99746800  1
  I  I3  1  0.99039600  0.26258200  0.00253200  1
  I  I4  1  0.33663300  0.57558600  0.80710700  1
  I  I5  1  0.66336700  0.42441400  0.19289300  1
  O  O0  1  0.40320500  0.11366400  0.79808400  1
  O  O1  1  0.59679500  0.88633600  0.20191600  1
  O  O2  1  0.21612100  0.99691600  0.53293600  1
  O  O3  1  0.78387900  0.00308400  0.46706400  1
  O  O4  1  0.19105900  0.34173500  0.62419100  1
  O  O5  1  0.80894100  0.65826500  0.37580900  1
  O  O6  1  0.19656500  0.95040300  0.01553000  1
  O  O7  1  0.80343500  0.04959700  0.98447000  1
  O  O8  1  0.96720500  0.73411800  0.16109100  1
  O  O9  1  0.03279500  0.26588200  0.83890900  1
  O  O10  1  0.19122800  0.57162400  0.03071600  1
  O  O11  1  0.80877200  0.42837600  0.96928400  1
  O  O12  1  0.49893300  0.63784700  0.66160900  1
  O  O13  1  0.50106700  0.36215300  0.33839100  1
  O  O14  1  0.52663100  0.73165300  0.92759900  1
  O  O15  1  0.47336900  0.26834700  0.07240100  1
  O  O16  1  0.14706100  0.72245400  0.75177300  1
  O  O17  1  0.85293900  0.27754600  0.24822700  1
  O  O18  1  0.59684500  0.81379500  0.67043800  1
  O  O19  1  0.40315500  0.18620500  0.32956200  1
  O  O20  1  0.65063600  0.27937600  0.62261600  1
  O  O21  1  0.34936400  0.72062400  0.37738400  1
  O  O22  1  0.26334400  0.59406700  0.43351700  1
  O  O23  1  0.73665600  0.40593300  0.56648300  1
loop_
_geom_bond_atom_site_label_1
_geom_bond_atom_site_label_2
_geom_bond_distance
_geom_bond_site_symmetry_2
In0 O15 2.174880 1_555
In0 O14 2.174880 1_544
In0 O0 2.203513 1_554
In0 O1 2.203513 1_545
In0 O7 2.214360 1_554
In0 O6 2.214360 1_545
In1 O2 2.164368 1_545
In1 O3 2.164368 1_555
In1 O18 2.213971 1_545
In1 O19 2.213971 1_555
In1 O21 2.397853 1_545
In1 O20 2.397853 1_555
I0 O4 1.819354 1_555
I0 O0 1.844253 1_555
I0 O2 1.867186 1_545
I0 O9 2.564038 1_555
I1 O5 1.819354 1_555
I1 O1 1.844253 1_555
I1 O3 1.867186 1_565
I1 O8 2.564038 1_555
I2 O8 1.822083 1_456
I2 O10 1.860410 1_556
I2 O6 1.877986 1_556
I2 O11 2.470982 1_455
I3 O9 1.822083 1_654
I3 O11 1.860410 1_554
I3 O7 1.877986 1_554
I3 O10 2.470982 1_655
I4 O16 1.810729 1_555
I4 O14 1.859686 1_555
I4 O12 2.163700 1_555
I4 O4 2.507938 1_555
I5 O17 1.810729 1_555
I5 O15 1.859686 1_555
I5 O13 2.163700 1_555
I5 O5 2.507938 1_555
O12 O18 1.362132 1_555
O13 O19 1.362132 1_555
O20 O23 1.253838 1_555
O21 O22 1.253838 1_555
