# generated using pymatgen
data_Li4MnCo2O7
_symmetry_space_group_name_H-M   'P 1'
_cell_length_a   2.97088700
_cell_length_b   5.08463892
_cell_length_c   16.78204030
_cell_angle_alpha   88.88476216
_cell_angle_beta   87.71728363
_cell_angle_gamma   88.70738156
_symmetry_Int_Tables_number   1
_chemical_formula_structural   Li4MnCo2O7
_chemical_formula_sum   'Li8 Mn2 Co4 O14'
_cell_volume   253.19824996
_cell_formula_units_Z   2
loop_
 _symmetry_equiv_pos_site_id
 _symmetry_equiv_pos_as_xyz
  1  'x, y, z'
loop_
 _atom_site_type_symbol
 _atom_site_label
 _atom_site_symmetry_multiplicity
 _atom_site_fract_x
 _atom_site_fract_y
 _atom_site_fract_z
 _atom_site_occupancy
  Li  Li0  1  0.91803600  0.62491600  0.14391800  1
  Li  Li1  1  0.36484200  0.78844500  0.28581700  1
  Li  Li2  1  0.78760700  0.93102100  0.42767600  1
  Li  Li3  1  0.21642200  0.07265800  0.57084700  1
  Li  Li4  1  0.64521400  0.21510500  0.71281600  1
  Li  Li5  1  0.07398400  0.36138900  0.85549100  1
  Li  Li6  1  0.48966400  0.49234800  0.00539900  1
  Li  Li7  1  0.44265800  0.15877300  0.14164900  1
  Mn  Mn0  1  0.99670300  0.01192900  0.00583200  1
  Mn  Mn1  1  0.14275000  0.70804300  0.71310900  1
  Co  Co0  1  0.86844300  0.28250600  0.28072100  1
  Co  Co1  1  0.28410600  0.42692800  0.42715500  1
  Co  Co2  1  0.71435600  0.56870300  0.56739900  1
  Co  Co3  1  0.56094000  0.85088800  0.85864700  1
  O  O0  1  0.48664800  0.84576800  0.06344200  1
  O  O1  1  0.88860200  0.99887700  0.22509200  1
  O  O2  1  0.29877700  0.13530000  0.35739500  1
  O  O3  1  0.71391200  0.26702100  0.49916400  1
  O  O4  1  0.19092200  0.41095600  0.64068100  1
  O  O5  1  0.56827200  0.54191700  0.78528800  1
  O  O6  1  0.01808700  0.70750300  0.92664000  1
  O  O7  1  0.42603200  0.45888600  0.22104200  1
  O  O8  1  0.85135400  0.57046000  0.35624400  1
  O  O9  1  0.23791300  0.72579900  0.49654700  1
  O  O10  1  0.71815600  0.87332200  0.63976300  1
  O  O11  1  0.11182500  0.01148700  0.78821100  1
  O  O12  1  0.51037200  0.15452300  0.93712900  1
  O  O13  1  0.97340400  0.30453000  0.06688600  1
loop_
_geom_bond_atom_site_label_1
_geom_bond_atom_site_label_2
_geom_bond_distance
_geom_bond_site_symmetry_2
Li0 O7 2.094481 1_555
Li0 O13 2.098812 1_555
Li0 O7 2.172822 1_655
Li0 O0 2.177484 1_555
Li0 O1 2.358557 1_555
Li0 O0 2.404889 1_655
Li1 O7 2.015960 1_555
Li1 O1 2.046780 1_455
Li1 O1 2.123903 1_555
Li1 O2 2.154050 1_565
Li1 O8 2.174239 1_555
Li1 O8 2.198695 1_455
Li2 O9 2.056135 1_655
Li2 O3 2.109028 1_565
Li2 O2 2.144702 1_565
Li2 O2 2.158012 1_665
Li2 O8 2.210384 1_555
Li2 O9 2.229627 1_555
Li3 O4 2.098468 1_555
Li3 O10 2.107567 1_445
Li3 O3 2.118083 1_555
Li3 O10 2.147163 1_545
Li3 O3 2.163983 1_455
Li3 O9 2.177958 1_545
Li4 O4 2.073960 1_555
Li4 O5 2.081386 1_555
Li4 O10 2.148223 1_545
Li4 O11 2.149069 1_655
Li4 O4 2.226015 1_655
Li4 O11 2.246602 1_555
Li5 O5 2.065896 1_555
Li5 O11 2.124110 1_555
Li5 O5 2.127098 1_455
Li5 O6 2.145510 1_555
Li5 O12 2.165200 1_555
Li5 O12 2.372285 1_455
Li6 O13 2.014941 1_555
Li6 O13 2.056893 1_455
Li6 O0 2.060312 1_555
Li6 O12 2.081638 1_554
Li6 O6 2.220062 1_554
Li6 O6 2.294392 1_654
Li7 O13 2.030644 1_455
Li7 O7 2.043708 1_555
Li7 O0 2.081071 1_545
Li7 O1 2.105245 1_545
Li7 O13 2.113920 1_555
Li7 O1 2.272407 1_445
Mn0 O13 1.821297 1_555
Mn0 O0 1.947317 1_645
Mn0 O0 1.963154 1_545
Mn0 O12 1.998870 1_554
Mn0 O12 2.015214 1_654
Mn0 O6 2.057956 1_644
Mn1 O5 1.952665 1_555
Mn1 O4 1.956428 1_555
Mn1 O10 1.961664 1_455
Mn1 O11 2.009375 1_565
Mn1 O5 2.225794 1_455
Mn1 O10 2.236192 1_555
Co0 O1 1.731760 1_545
Co0 O7 1.884573 1_555
Co0 O8 1.953567 1_555
Co0 O2 1.975052 1_655
Co0 O7 2.109829 1_655
Co0 O2 2.219549 1_555
Co1 O2 1.905737 1_555
Co1 O8 1.909829 1_455
Co1 O9 1.931599 1_555
Co1 O3 1.946734 1_555
Co1 O8 2.156552 1_555
Co1 O3 2.202691 1_455
Co2 O3 1.932066 1_555
Co2 O10 1.987223 1_555
Co2 O9 2.025210 1_555
Co2 O4 2.051690 1_655
Co2 O9 2.083980 1_655
Co2 O4 2.107025 1_555
Co3 O6 1.929888 1_655
Co3 O11 1.970600 1_565
Co3 O5 2.013897 1_555
Co3 O12 2.047869 1_565
Co3 O6 2.075716 1_555
Co3 O11 2.147373 1_665
