# generated using pymatgen
data_Cs3Re6(S4Cl3)2
_symmetry_space_group_name_H-M   'P 1'
_cell_length_a   13.06526600
_cell_length_b   9.34625300
_cell_length_c   11.25433383
_cell_angle_alpha   72.96772957
_cell_angle_beta   90.00000000
_cell_angle_gamma   90.00000000
_symmetry_Int_Tables_number   1
_chemical_formula_structural   Cs3Re6(S4Cl3)2
_chemical_formula_sum   'Cs6 Re12 S16 Cl12'
_cell_volume   1314.00506536
_cell_formula_units_Z   2
loop_
 _symmetry_equiv_pos_site_id
 _symmetry_equiv_pos_as_xyz
  1  'x, y, z'
loop_
 _atom_site_type_symbol
 _atom_site_label
 _atom_site_symmetry_multiplicity
 _atom_site_fract_x
 _atom_site_fract_y
 _atom_site_fract_z
 _atom_site_occupancy
  Cs  Cs0  1  0.25918600  0.47661700  0.63545300  1
  Cs  Cs1  1  0.74081400  0.52338300  0.36454700  1
  Cs  Cs2  1  0.75918600  0.52338300  0.86454700  1
  Cs  Cs3  1  0.24081400  0.47661700  0.13545300  1
  Cs  Cs4  1  0.50000000  0.00000000  0.50000000  1
  Cs  Cs5  1  0.00000000  0.00000000  0.00000000  1
  Re  Re0  1  0.45620800  0.88336900  0.90031000  1
  Re  Re1  1  0.54379200  0.11663100  0.09969000  1
  Re  Re2  1  0.95620800  0.11663100  0.59969000  1
  Re  Re3  1  0.04379200  0.88336900  0.40031000  1
  Re  Re4  1  0.05303400  0.86268700  0.63663800  1
  Re  Re5  1  0.94696600  0.13731300  0.36336200  1
  Re  Re6  1  0.55303400  0.13731300  0.86336200  1
  Re  Re7  1  0.44696600  0.86268700  0.13663800  1
  Re  Re8  1  0.87469300  0.89660600  0.52609800  1
  Re  Re9  1  0.12530700  0.10339400  0.47390200  1
  Re  Re10  1  0.37469300  0.10339400  0.97390200  1
  Re  Re11  1  0.62530700  0.89660600  0.02609800  1
  S  S0  1  0.89208600  0.88684200  0.74146900  1
  S  S1  1  0.10791400  0.11315800  0.25853100  1
  S  S2  1  0.39208600  0.11315800  0.75853100  1
  S  S3  1  0.60791400  0.88684200  0.24146900  1
  S  S4  1  0.20585000  0.86256400  0.50960700  1
  S  S5  1  0.79415000  0.13743600  0.49039300  1
  S  S6  1  0.70585000  0.13743600  0.99039300  1
  S  S7  1  0.29415000  0.86256400  0.00960700  1
  S  S8  1  0.62535500  0.92620300  0.80596200  1
  S  S9  1  0.37464500  0.07379700  0.19403800  1
  S  S10  1  0.12535500  0.07379700  0.69403800  1
  S  S11  1  0.87464500  0.92620300  0.30596200  1
  S  S12  1  0.97396300  0.67073000  0.55706400  1
  S  S13  1  0.02603700  0.32927000  0.44293600  1
  S  S14  1  0.47396300  0.32927000  0.94293600  1
  S  S15  1  0.52603700  0.67073000  0.05706400  1
  Cl  Cl0  1  0.40483000  0.72927000  0.76895600  1
  Cl  Cl1  1  0.59517000  0.27073000  0.23104400  1
  Cl  Cl2  1  0.90483000  0.27073000  0.73104400  1
  Cl  Cl3  1  0.09517000  0.72927000  0.26895600  1
  Cl  Cl4  1  0.11442300  0.67436500  0.82306400  1
  Cl  Cl5  1  0.88557700  0.32563500  0.17693600  1
  Cl  Cl6  1  0.61442300  0.32563500  0.67693600  1
  Cl  Cl7  1  0.38557700  0.67436500  0.32306400  1
  Cl  Cl8  1  0.71287300  0.75499100  0.56200000  1
  Cl  Cl9  1  0.28712700  0.24500900  0.43800000  1
  Cl  Cl10  1  0.21287300  0.24500900  0.93800000  1
  Cl  Cl11  1  0.78712700  0.75499100  0.06200000  1
loop_
_geom_bond_atom_site_label_1
_geom_bond_atom_site_label_2
_geom_bond_distance
_geom_bond_site_symmetry_2
Cs0 S4 3.536984 1_555
Cs0 S2 3.703598 1_555
Cs1 S5 3.536984 1_555
Cs1 S3 3.703598 1_555
Cs2 S6 3.536984 1_555
Cs2 S0 3.703598 1_555
Cs3 S7 3.536984 1_555
Cs3 S1 3.703598 1_555
Cs4 S2 3.657162 1_555
Cs4 S3 3.657162 1_545
Cs4 S8 3.691039 1_545
Cs4 S9 3.691039 1_555
Cs4 S5 4.043524 1_555
Cs4 S4 4.043524 1_545
Cs5 S1 3.657162 1_555
Cs5 S0 3.657162 1_444
Cs5 S11 3.691039 1_445
Cs5 S10 3.691039 1_554
Cs5 S6 4.043524 1_454
Cs5 S7 4.043524 1_545
Re0 S15 2.416686 1_556
Re0 S2 2.419261 1_565
Re0 S7 2.427723 1_556
Re0 S8 2.433638 1_555
Re1 S14 2.416686 1_554
Re1 S3 2.419261 1_545
Re1 S6 2.427723 1_554
Re1 S9 2.433638 1_555
Re2 S13 2.416686 1_655
Re2 S0 2.419261 1_545
Re2 S5 2.427723 1_555
Re2 S10 2.433638 1_655
Re3 S12 2.416686 1_455
Re3 S1 2.419261 1_565
Re3 S4 2.427723 1_555
Re3 S11 2.433638 1_455
Re4 S10 2.439243 1_565
Re4 S0 2.453737 1_455
Re4 S12 2.455448 1_455
Re4 S4 2.455850 1_555
Re5 S11 2.439243 1_545
Re5 S1 2.453737 1_655
Re5 S13 2.455448 1_655
Re5 S5 2.455850 1_555
Re6 S8 2.439243 1_545
Re6 S2 2.453737 1_555
Re6 S14 2.455448 1_555
Re6 S6 2.455850 1_555
Re7 S9 2.439243 1_565
Re7 S3 2.453737 1_555
Re7 S15 2.455448 1_555
Re7 S7 2.455850 1_555
Re8 S5 2.409428 1_565
Re8 S0 2.409455 1_555
Re8 S11 2.411010 1_555
Re8 S12 2.414405 1_555
Re9 S4 2.409428 1_545
Re9 S1 2.409455 1_555
Re9 S10 2.411010 1_555
Re9 S13 2.414405 1_555
Re10 S7 2.409428 1_546
Re10 S2 2.409455 1_555
Re10 S9 2.411010 1_556
Re10 S14 2.414405 1_555
Re11 S6 2.409428 1_564
Re11 S3 2.409455 1_555
Re11 S8 2.411010 1_554
Re11 S15 2.414405 1_555
Cl0 Re0 2.440814 1_555
Cl0 Cs4 3.553025 1_565
Cl0 Cs0 3.678704 1_555
Cl1 Re1 2.440814 1_555
Cl1 Cs4 3.553025 1_555
Cl1 Cs1 3.678704 1_555
Cl2 Re2 2.440814 1_555
Cl2 Cs5 3.553025 1_656
Cl2 Cs2 3.678704 1_555
Cl3 Re3 2.440814 1_555
Cl3 Cs5 3.553025 1_565
Cl3 Cs3 3.678704 1_555
Cl4 Re4 2.445391 1_555
Cl4 Cs0 3.706396 1_555
Cl4 Cs3 3.833611 1_556
Cl5 Re5 2.445391 1_555
Cl5 Cs1 3.706396 1_555
Cl5 Cs2 3.833611 1_554
Cl6 Re6 2.445391 1_555
Cl6 Cs2 3.706396 1_555
Cl6 Cs1 3.833611 1_555
Cl7 Re7 2.445391 1_555
Cl7 Cs3 3.706396 1_555
Cl7 Cs0 3.833611 1_555
Cl8 Re8 2.464089 1_555
Cl8 Cs2 3.511103 1_555
Cl8 Cs4 3.539755 1_565
Cl8 Cs1 3.546156 1_555
Cl9 Re9 2.464089 1_555
Cl9 Cs3 3.511103 1_555
Cl9 Cs4 3.539755 1_555
Cl9 Cs0 3.546156 1_555
Cl10 Re10 2.464089 1_555
Cl10 Cs0 3.511103 1_555
Cl10 Cs5 3.539755 1_556
Cl10 Cs3 3.546156 1_556
Cl11 Re11 2.464089 1_555
Cl11 Cs1 3.511103 1_555
Cl11 Cs5 3.539755 1_665
Cl11 Cs2 3.546156 1_554
