# generated using pymatgen
data_Al5(NiO4)3
_symmetry_space_group_name_H-M   'P 1'
_cell_length_a   5.68074400
_cell_length_b   5.69702803
_cell_length_c   14.07997630
_cell_angle_alpha   89.20318576
_cell_angle_beta   91.75302270
_cell_angle_gamma   119.87218828
_symmetry_Int_Tables_number   1
_chemical_formula_structural   Al5(NiO4)3
_chemical_formula_sum   'Al10 Ni6 O24'
_cell_volume   394.94826224
_cell_formula_units_Z   2
loop_
 _symmetry_equiv_pos_site_id
 _symmetry_equiv_pos_as_xyz
  1  'x, y, z'
loop_
 _atom_site_type_symbol
 _atom_site_label
 _atom_site_symmetry_multiplicity
 _atom_site_fract_x
 _atom_site_fract_y
 _atom_site_fract_z
 _atom_site_occupancy
  Al  Al0  1  0.16113900  0.82885900  0.83378300  1
  Al  Al1  1  0.50075000  0.99946900  0.99924500  1
  Al  Al2  1  0.51691400  0.00843900  0.62326500  1
  Al  Al3  1  0.66008900  0.33237100  0.83393200  1
  Al  Al4  1  0.84444400  0.67269400  0.29353700  1
  Al  Al5  1  0.99853400  0.99944200  0.49982000  1
  Al  Al6  1  0.15644200  0.32713200  0.70223100  1
  Al  Al7  1  0.83373600  0.16875000  0.16797300  1
  Al  Al8  1  0.34249100  0.67239700  0.16842100  1
  Al  Al9  1  0.48372500  0.98948300  0.37716800  1
  Ni  Ni0  1  0.17409800  0.32785900  0.96473800  1
  Ni  Ni1  1  0.83152500  0.66455100  0.66320700  1
  Ni  Ni2  1  0.66076800  0.82902200  0.83014500  1
  Ni  Ni3  1  0.16917100  0.33410900  0.33641900  1
  Ni  Ni4  1  0.99901800  0.49964400  0.49889600  1
  Ni  Ni5  1  0.34166600  0.16859900  0.16704200  1
  O  O0  1  0.33528800  0.69897100  0.91462500  1
  O  O1  1  0.49487000  0.99788000  0.75440900  1
  O  O2  1  0.79772600  0.15974800  0.91367500  1
  O  O3  1  0.34783700  0.14608400  0.90551200  1
  O  O4  1  0.99005400  0.50308800  0.75142300  1
  O  O5  1  0.69775700  0.35580100  0.58527300  1
  O  O6  1  0.49863100  0.48638900  0.75057200  1
  O  O7  1  0.83053700  0.66655500  0.89409400  1
  O  O8  1  0.17540700  0.85671700  0.57866900  1
  O  O9  1  0.85914000  0.68172200  0.42017800  1
  O  O10  1  0.99870700  0.98026400  0.74816900  1
  O  O11  1  0.69770700  0.84643700  0.58485600  1
  O  O12  1  0.01095600  0.02086800  0.24830000  1
  O  O13  1  0.30202300  0.15285300  0.41513200  1
  O  O14  1  0.82593000  0.14470000  0.42143200  1
  O  O15  1  0.15039900  0.35274400  0.10165600  1
  O  O16  1  0.14263000  0.32078500  0.57671900  1
  O  O17  1  0.50042900  0.50560900  0.24679200  1
  O  O18  1  0.01210700  0.49443500  0.24958100  1
  O  O19  1  0.30169000  0.64295400  0.41516200  1
  O  O20  1  0.64469200  0.85991000  0.09262900  1
  O  O21  1  0.21247900  0.86014300  0.09055200  1
  O  O22  1  0.51600000  0.99016200  0.25018300  1
  O  O23  1  0.64301500  0.29148000  0.08961700  1
loop_
_geom_bond_atom_site_label_1
_geom_bond_atom_site_label_2
_geom_bond_distance
_geom_bond_site_symmetry_2
Al0 O7 1.857177 1_455
Al0 O0 1.859783 1_555
Al0 O3 1.867311 1_565
Al0 O10 1.935046 1_455
Al0 O4 1.981890 1_455
Al0 O1 2.012867 1_555
Al1 O20 1.892708 1_556
Al1 O0 1.902393 1_555
Al1 O2 1.921132 1_565
Al1 O23 1.922620 1_566
Al1 O21 1.941683 1_556
Al1 O3 1.953450 1_565
Al2 O8 1.781915 1_545
Al2 O11 1.786380 1_545
Al2 O5 1.799096 1_555
Al2 O1 1.852683 1_545
Al3 O7 1.854214 1_555
Al3 O3 1.868931 1_555
Al3 O2 1.876342 1_555
Al3 O6 1.922480 1_555
Al3 O1 1.994831 1_545
Al3 O4 2.023579 1_555
Al4 O9 1.782760 1_555
Al4 O17 1.801138 1_555
Al4 O18 1.827183 1_655
Al4 O12 1.835113 1_665
Al5 O14 1.892369 1_565
Al5 O8 1.903604 1_655
Al5 O16 1.924053 1_665
Al5 O11 1.930301 1_555
Al5 O9 1.932655 1_555
Al5 O13 1.937481 1_665
Al6 O16 1.766621 1_555
Al6 O6 1.801255 1_555
Al6 O10 1.833673 1_445
Al6 O4 1.838805 1_455
Al7 O15 1.844946 1_655
Al7 O20 1.863976 1_545
Al7 O23 1.881460 1_555
Al7 O12 1.936802 1_655
Al7 O22 1.974507 1_545
Al7 O18 1.976088 1_655
Al8 O15 1.842852 1_555
Al8 O20 1.865663 1_555
Al8 O21 1.896402 1_555
Al8 O17 1.919627 1_555
Al8 O22 1.945541 1_555
Al8 O18 2.014879 1_555
Al9 O14 1.782766 1_565
Al9 O13 1.794990 1_565
Al9 O19 1.795496 1_555
Al9 O22 1.802648 1_555
Ni0 O15 1.948625 1_556
Ni0 O3 1.958167 1_555
Ni0 O0 1.968725 1_555
Ni0 O2 1.972520 1_455
Ni1 O5 1.883260 1_555
Ni1 O11 1.889493 1_555
Ni1 O10 1.963877 1_555
Ni1 O4 1.981133 1_555
Ni1 O6 2.077290 1_555
Ni1 O8 2.099322 1_655
Ni2 O7 1.846726 1_555
Ni2 O1 1.940049 1_555
Ni2 O2 2.020884 1_565
Ni2 O6 2.029932 1_555
Ni2 O0 2.031727 1_555
Ni2 O10 2.054323 1_555
Ni3 O13 1.886121 1_555
Ni3 O19 1.890904 1_555
Ni3 O18 1.959412 1_555
Ni3 O12 1.981770 1_555
Ni3 O17 2.089923 1_555
Ni3 O14 2.100022 1_455
Ni4 O16 1.909673 1_655
Ni4 O9 1.915997 1_555
Ni4 O19 1.926600 1_655
Ni4 O5 1.944762 1_555
Ni4 O14 2.064108 1_555
Ni4 O8 2.089983 1_655
Ni5 O21 1.872468 1_545
Ni5 O23 1.873023 1_555
Ni5 O17 2.008382 1_555
Ni5 O12 2.019022 1_555
Ni5 O15 2.043549 1_555
Ni5 O22 2.069630 1_545
