# generated using pymatgen
data_BaCr4O7
_symmetry_space_group_name_H-M   'P 1'
_cell_length_a   6.68976574
_cell_length_b   6.68976574
_cell_length_c   10.55129600
_cell_angle_alpha   90.00000000
_cell_angle_beta   90.00000000
_cell_angle_gamma   119.99999742
_symmetry_Int_Tables_number   1
_chemical_formula_structural   BaCr4O7
_chemical_formula_sum   'Ba2 Cr8 O14'
_cell_volume   408.93875421
_cell_formula_units_Z   2
loop_
 _symmetry_equiv_pos_site_id
 _symmetry_equiv_pos_as_xyz
  1  'x, y, z'
loop_
 _atom_site_type_symbol
 _atom_site_label
 _atom_site_symmetry_multiplicity
 _atom_site_fract_x
 _atom_site_fract_y
 _atom_site_fract_z
 _atom_site_occupancy
  Ba  Ba0  1  0.66666700  0.33333300  0.47571400  1
  Ba  Ba1  1  0.33333300  0.66666700  0.97571400  1
  Cr  Cr0  1  0.82810000  0.17190000  0.19065100  1
  Cr  Cr1  1  0.65620000  0.82810000  0.69065100  1
  Cr  Cr2  1  0.17190000  0.34380000  0.69065100  1
  Cr  Cr3  1  0.82810000  0.65620000  0.19065100  1
  Cr  Cr4  1  0.34380000  0.17190000  0.19065100  1
  Cr  Cr5  1  0.17190000  0.82810000  0.69065100  1
  Cr  Cr6  1  0.00000000  0.00000000  0.44235300  1
  Cr  Cr7  1  0.00000000  0.00000000  0.94235300  1
  O  O0  1  0.85563700  0.14436300  0.01732400  1
  O  O1  1  0.71127300  0.85563700  0.51732400  1
  O  O2  1  0.14436300  0.28872700  0.51732400  1
  O  O3  1  0.85563700  0.71127300  0.01732400  1
  O  O4  1  0.28872700  0.14436300  0.01732400  1
  O  O5  1  0.14436300  0.85563700  0.51732400  1
  O  O6  1  0.00000000  0.00000000  0.74536300  1
  O  O7  1  0.00000000  0.00000000  0.24536300  1
  O  O8  1  0.52733700  0.47266300  0.25556500  1
  O  O9  1  0.05467300  0.52733700  0.75556500  1
  O  O10  1  0.47266300  0.94532700  0.75556500  1
  O  O11  1  0.52733700  0.05467300  0.25556500  1
  O  O12  1  0.47266300  0.52733700  0.75556500  1
  O  O13  1  0.94532700  0.47266300  0.25556500  1
loop_
_geom_bond_atom_site_label_1
_geom_bond_atom_site_label_2
_geom_bond_distance
_geom_bond_site_symmetry_2
Ba0 O8 2.828783 1_555
Ba0 O13 2.828783 1_555
Ba0 O11 2.828783 1_555
Ba0 O1 3.383450 1_545
Ba0 O2 3.383450 1_655
Ba0 O5 3.383458 1_545
Ba0 O5 3.383458 1_655
Ba0 O2 3.383464 1_555
Ba0 O1 3.383464 1_555
Ba1 O12 2.828783 1_555
Ba1 O10 2.828783 1_555
Ba1 O9 2.828783 1_555
Ba1 O3 3.383450 1_456
Ba1 O4 3.383450 1_566
Ba1 O0 3.383458 1_566
Ba1 O0 3.383458 1_456
Ba1 O4 3.383464 1_556
Ba1 O3 3.383464 1_556
Cr0 O0 1.856450 1_555
Cr0 O13 1.885346 1_555
Cr0 O11 1.885346 1_555
Cr0 O7 2.073777 1_655
Cr1 O1 1.856449 1_555
Cr1 O12 1.885347 1_555
Cr1 O10 1.885352 1_555
Cr1 O6 2.073778 1_665
Cr2 O2 1.856449 1_555
Cr2 O12 1.885347 1_555
Cr2 O9 1.885352 1_555
Cr2 O6 2.073778 1_555
Cr3 O3 1.856449 1_555
Cr3 O8 1.885347 1_555
Cr3 O13 1.885352 1_555
Cr3 O7 2.073778 1_665
Cr4 O4 1.856449 1_555
Cr4 O8 1.885347 1_555
Cr4 O11 1.885352 1_555
Cr4 O7 2.073778 1_555
Cr5 O5 1.856450 1_555
Cr5 O10 1.885346 1_555
Cr5 O9 1.885346 1_555
Cr5 O6 2.073777 1_565
Cr6 O5 1.850349 1_545
Cr6 O2 1.850355 1_555
Cr6 O1 1.850355 1_445
Cr6 O7 2.078500 1_555
Cr7 O0 1.850349 1_456
Cr7 O4 1.850355 1_556
Cr7 O3 1.850355 1_446
Cr7 O6 2.078500 1_555
