# generated using pymatgen
data_CeAl4
_symmetry_space_group_name_H-M   'P 1'
_cell_length_a   8.78673411
_cell_length_b   8.78673411
_cell_length_c   8.78673411
_cell_angle_alpha   151.71060310
_cell_angle_beta   99.41759141
_cell_angle_gamma   87.46704920
_symmetry_Int_Tables_number   1
_chemical_formula_structural   CeAl4
_chemical_formula_sum   'Ce3 Al12'
_cell_volume   309.85123336
_cell_formula_units_Z   3
loop_
 _symmetry_equiv_pos_site_id
 _symmetry_equiv_pos_as_xyz
  1  'x, y, z'
loop_
 _atom_site_type_symbol
 _atom_site_label
 _atom_site_symmetry_multiplicity
 _atom_site_fract_x
 _atom_site_fract_y
 _atom_site_fract_z
 _atom_site_occupancy
  Ce  Ce0  1  0.99483700  0.00000000  0.99483700  1
  Ce  Ce1  1  0.33455100  0.33311000  0.00144100  1
  Ce  Ce2  1  0.66833100  0.66689000  0.00144100  1
  Al  Al0  1  0.39340100  0.00000000  0.39340100  1
  Al  Al1  1  0.61440900  0.00000000  0.61440900  1
  Al  Al2  1  0.74993400  0.50000000  0.24993400  1
  Al  Al3  1  0.25574400  0.50000000  0.75574400  1
  Al  Al4  1  0.08235700  0.83724900  0.24510800  1
  Al  Al5  1  0.40785800  0.16275100  0.24510800  1
  Al  Al6  1  0.05605700  0.67003700  0.38602000  1
  Al  Al7  1  0.71598300  0.32996300  0.38602000  1
  Al  Al8  1  0.27037100  0.66290000  0.60747100  1
  Al  Al9  1  0.94457100  0.33710000  0.60747100  1
  Al  Al10  1  0.57893300  0.82913600  0.74979700  1
  Al  Al11  1  0.92066200  0.17086400  0.74979700  1
loop_
_geom_bond_atom_site_label_1
_geom_bond_atom_site_label_2
_geom_bond_distance
_geom_bond_site_symmetry_2
Al0 Al1 2.511597 1_555
Al0 Al3 2.656662 1_544
Al0 Al3 2.656662 1_555
Al0 Al5 2.666623 1_555
Al0 Al4 2.666625 1_545
Al0 Ce1 3.257131 1_545
Al0 Ce1 3.257131 1_556
Al0 Ce2 3.257131 1_545
Al0 Ce2 3.257131 1_556
Al1 Al2 2.642467 1_545
Al1 Al2 2.642467 1_556
Al1 Al10 2.659793 1_545
Al1 Al11 2.659802 1_555
Al1 Ce2 3.278653 1_545
Al1 Ce1 3.278653 1_545
Al1 Ce1 3.278653 1_556
Al1 Ce2 3.278653 1_556
Al2 Al6 2.655846 1_655
Al2 Al7 2.655846 1_555
Al2 Ce0 3.515180 1_554
Al2 Ce0 3.515180 1_565
Al2 Ce1 3.530651 1_555
Al2 Ce2 3.530651 1_555
Al3 Al9 2.667948 1_455
Al3 Al8 2.667948 1_555
Al3 Ce1 3.505288 1_556
Al3 Ce2 3.505288 1_556
Al3 Ce0 3.660865 1_465
Al3 Ce0 3.660865 1_454
Al4 Al9 2.656528 1_454
Al4 Al9 2.656528 1_465
Al4 Al6 2.659425 1_555
Al4 Ce2 3.513884 1_455
Al4 Ce0 3.515684 1_464
Al4 Ce1 3.619276 1_555
Al4 Ce1 3.619276 1_566
Al5 Al8 2.656523 1_555
Al5 Al8 2.656527 1_544
Al5 Al7 2.659434 1_555
Al5 Ce1 3.513884 1_555
Al5 Ce0 3.515675 1_454
Al5 Ce2 3.619279 1_556
Al5 Ce2 3.619281 1_545
Al6 Al8 2.518263 1_555
Al6 Ce1 3.258656 1_566
Al6 Ce1 3.258656 1_555
Al6 Ce0 3.286583 1_465
Al6 Ce0 3.286583 1_454
Al7 Al9 2.518263 1_555
Al7 Ce2 3.258656 1_556
Al7 Ce2 3.258656 1_545
Al7 Ce0 3.286583 1_565
Al7 Ce0 3.286583 1_554
Al8 Ce0 3.244636 1_454
Al8 Ce0 3.244636 1_465
Al8 Ce1 3.276246 1_555
Al8 Ce1 3.276246 1_566
Al9 Ce0 3.244636 1_565
Al9 Ce0 3.244636 1_554
Al9 Ce2 3.276246 1_556
Al9 Ce2 3.276246 1_545
Al10 Al7 2.647119 1_555
Al10 Al7 2.647119 1_566
Al10 Al8 2.659284 1_555
Al10 Ce2 3.524566 1_556
Al10 Ce0 3.530131 1_565
Al10 Ce1 3.546689 1_555
Al10 Ce1 3.546689 1_566
Al11 Al6 2.647114 1_645
Al11 Al6 2.647118 1_656
Al11 Al9 2.659283 1_555
Al11 Ce1 3.524558 1_656
Al11 Ce0 3.530130 1_555
Al11 Ce2 3.546693 1_545
Al11 Ce2 3.546695 1_556
