# generated using pymatgen
data_Ce11In9Ni4
_symmetry_space_group_name_H-M   'P 1'
_cell_length_a   13.02048163
_cell_length_b   13.02048163
_cell_length_c   3.69603200
_cell_angle_alpha   90.00000000
_cell_angle_beta   90.00000000
_cell_angle_gamma   112.24577834
_symmetry_Int_Tables_number   1
_chemical_formula_structural   Ce11In9Ni4
_chemical_formula_sum   'Ce11 In9 Ni4'
_cell_volume   579.96039963
_cell_formula_units_Z   1
loop_
 _symmetry_equiv_pos_site_id
 _symmetry_equiv_pos_as_xyz
  1  'x, y, z'
loop_
 _atom_site_type_symbol
 _atom_site_label
 _atom_site_symmetry_multiplicity
 _atom_site_fract_x
 _atom_site_fract_y
 _atom_site_fract_z
 _atom_site_occupancy
  Ce  Ce0  1  0.41581700  0.07054500  0.00000000  1
  Ce  Ce1  1  0.58418300  0.92945500  0.00000000  1
  Ce  Ce2  1  0.07054500  0.41581700  0.00000000  1
  Ce  Ce3  1  0.92945500  0.58418300  0.00000000  1
  Ce  Ce4  1  0.15636400  0.84363600  0.00000000  1
  Ce  Ce5  1  0.84363600  0.15636400  0.00000000  1
  Ce  Ce6  1  0.37549700  0.62450300  0.00000000  1
  Ce  Ce7  1  0.62450300  0.37549700  0.00000000  1
  Ce  Ce8  1  0.31313700  0.31313700  0.00000000  1
  Ce  Ce9  1  0.68686300  0.68686300  0.00000000  1
  Ce  Ce10  1  0.00000000  0.00000000  0.00000000  1
  In  In0  1  0.36822000  0.83762800  0.50000000  1
  In  In1  1  0.63178000  0.16237200  0.50000000  1
  In  In2  1  0.83762800  0.36822000  0.50000000  1
  In  In3  1  0.16237200  0.63178000  0.50000000  1
  In  In4  1  0.22146800  0.08150000  0.50000000  1
  In  In5  1  0.77853200  0.91850000  0.50000000  1
  In  In6  1  0.08150000  0.22146800  0.50000000  1
  In  In7  1  0.91850000  0.77853200  0.50000000  1
  In  In8  1  0.50000000  0.50000000  0.50000000  1
  Ni  Ni0  1  0.45093800  0.25189500  0.50000000  1
  Ni  Ni1  1  0.54906200  0.74810500  0.50000000  1
  Ni  Ni2  1  0.25189500  0.45093800  0.50000000  1
  Ni  Ni3  1  0.74810500  0.54906200  0.50000000  1
loop_
_geom_bond_atom_site_label_1
_geom_bond_atom_site_label_2
_geom_bond_distance
_geom_bond_site_symmetry_2
Ce0 Ni0 2.895216 1_555
Ce0 Ni0 2.895216 1_554
Ce0 In4 3.179988 1_555
Ce0 In4 3.179988 1_554
Ce0 In1 3.194700 1_555
Ce0 In1 3.194700 1_554
Ce0 In0 3.401969 1_544
Ce0 In0 3.401969 1_545
Ce1 Ni1 2.895216 1_555
Ce1 Ni1 2.895216 1_554
Ce1 In5 3.179988 1_554
Ce1 In5 3.179988 1_555
Ce1 In0 3.194700 1_554
Ce1 In0 3.194700 1_555
Ce1 In1 3.401969 1_564
Ce1 In1 3.401969 1_565
Ce2 Ni2 2.895216 1_554
Ce2 Ni2 2.895216 1_555
Ce2 In6 3.179988 1_554
Ce2 In6 3.179988 1_555
Ce2 In3 3.194700 1_555
Ce2 In3 3.194700 1_554
Ce2 In2 3.401969 1_454
Ce2 In2 3.401969 1_455
Ce3 Ni3 2.895216 1_555
Ce3 Ni3 2.895216 1_554
Ce3 In7 3.179988 1_555
Ce3 In7 3.179988 1_554
Ce3 In2 3.194700 1_555
Ce3 In2 3.194700 1_554
Ce3 In3 3.401969 1_654
Ce3 In3 3.401969 1_655
Ce4 In3 3.345715 1_554
Ce4 In0 3.345715 1_555
Ce4 In0 3.345715 1_554
Ce4 In3 3.345715 1_555
Ce4 In4 3.426070 1_564
Ce4 In4 3.426070 1_565
Ce4 In7 3.426070 1_454
Ce4 In7 3.426070 1_455
Ce5 In2 3.345715 1_555
Ce5 In1 3.345715 1_554
Ce5 In2 3.345715 1_554
Ce5 In1 3.345715 1_555
Ce5 In6 3.426070 1_654
Ce5 In6 3.426070 1_655
Ce5 In5 3.426070 1_544
Ce5 In5 3.426070 1_545
Ce6 Ni1 2.891117 1_555
Ce6 Ni2 2.891117 1_554
Ce6 Ni2 2.891117 1_555
Ce6 Ni1 2.891117 1_554
Ce6 In8 3.265086 1_554
Ce6 In8 3.265086 1_555
Ce6 In3 3.365084 1_554
Ce6 In0 3.365084 1_555
Ce6 In0 3.365084 1_554
Ce6 In3 3.365084 1_555
Ce7 Ni0 2.891117 1_554
Ce7 Ni3 2.891117 1_555
Ce7 Ni0 2.891117 1_555
Ce7 Ni3 2.891117 1_554
Ce7 In8 3.265086 1_554
Ce7 In8 3.265086 1_555
Ce7 In1 3.365084 1_554
Ce7 In2 3.365084 1_555
Ce7 In1 3.365084 1_555
Ce7 In2 3.365084 1_554
Ce8 Ni2 2.890256 1_554
Ce8 Ni2 2.890256 1_555
Ce8 Ni0 2.890256 1_555
Ce8 Ni0 2.890256 1_554
Ce8 In8 3.282136 1_554
Ce8 In8 3.282136 1_555
Ce8 In6 3.348212 1_554
Ce8 In6 3.348212 1_555
Ce8 In4 3.348212 1_555
Ce8 In4 3.348212 1_554
Ce9 Ni3 2.890256 1_555
Ce9 Ni3 2.890256 1_554
Ce9 Ni1 2.890256 1_555
Ce9 Ni1 2.890256 1_554
Ce9 In8 3.282136 1_554
Ce9 In8 3.282136 1_555
Ce9 In7 3.348212 1_554
Ce9 In7 3.348212 1_555
Ce9 In5 3.348212 1_554
Ce9 In5 3.348212 1_555
Ce10 In6 3.246473 1_554
Ce10 In4 3.246473 1_554
Ce10 In5 3.246473 1_445
Ce10 In6 3.246473 1_555
Ce10 In4 3.246473 1_555
Ce10 In5 3.246473 1_444
Ce10 In7 3.246473 1_444
Ce10 In7 3.246473 1_445
In0 In3 2.988004 1_555
In0 Ni1 2.996869 1_555
In1 In2 2.988004 1_555
In1 Ni0 2.996869 1_555
In2 Ni3 2.996869 1_555
In3 Ni2 2.996869 1_555
In4 Ni0 2.971568 1_555
In4 In6 3.026125 1_555
In5 Ni1 2.971568 1_555
In5 In7 3.026125 1_555
In6 Ni2 2.971568 1_555
In7 Ni3 2.971568 1_555
In8 Ni3 3.046531 1_555
In8 Ni1 3.046531 1_555
In8 Ni2 3.046531 1_555
In8 Ni0 3.046531 1_555
