# generated using pymatgen
data_Ca2Mn2(SiO4)3
_symmetry_space_group_name_H-M   'P 1'
_cell_length_a   10.36532831
_cell_length_b   10.36532831
_cell_length_c   10.36532831
_cell_angle_alpha   109.17013959
_cell_angle_beta   109.17013959
_cell_angle_gamma   110.07507553
_symmetry_Int_Tables_number   1
_chemical_formula_structural   Ca2Mn2(SiO4)3
_chemical_formula_sum   'Ca8 Mn8 Si12 O48'
_cell_volume   857.21758415
_cell_formula_units_Z   4
loop_
 _symmetry_equiv_pos_site_id
 _symmetry_equiv_pos_as_xyz
  1  'x, y, z'
loop_
 _atom_site_type_symbol
 _atom_site_label
 _atom_site_symmetry_multiplicity
 _atom_site_fract_x
 _atom_site_fract_y
 _atom_site_fract_z
 _atom_site_occupancy
  Ca  Ca0  1  0.87500000  0.00418000  0.62918000  1
  Ca  Ca1  1  0.37500000  0.24582000  0.37082000  1
  Ca  Ca2  1  0.25418000  0.12500000  0.62918000  1
  Ca  Ca3  1  0.49582000  0.62500000  0.37082000  1
  Ca  Ca4  1  0.37500000  0.74582000  0.87082000  1
  Ca  Ca5  1  0.87500000  0.50418000  0.12918000  1
  Ca  Ca6  1  0.99582000  0.62500000  0.87082000  1
  Ca  Ca7  1  0.75418000  0.12500000  0.12918000  1
  Mn  Mn0  1  0.12500000  0.87500000  0.25000000  1
  Mn  Mn1  1  0.62500000  0.87500000  0.25000000  1
  Mn  Mn2  1  0.12500000  0.37500000  0.25000000  1
  Mn  Mn3  1  0.62500000  0.37500000  0.25000000  1
  Mn  Mn4  1  0.12500000  0.37500000  0.75000000  1
  Mn  Mn5  1  0.62500000  0.87500000  0.75000000  1
  Mn  Mn6  1  0.62500000  0.37500000  0.75000000  1
  Mn  Mn7  1  0.12500000  0.87500000  0.75000000  1
  Si  Si0  1  0.50000000  0.50000000  0.00000000  1
  Si  Si1  1  0.00044200  0.12500000  0.37544200  1
  Si  Si2  1  0.00000000  0.00000000  0.00000000  1
  Si  Si3  1  0.37500000  0.99955800  0.12455800  1
  Si  Si4  1  0.25000000  0.75000000  0.50000000  1
  Si  Si5  1  0.37500000  0.49955800  0.62455800  1
  Si  Si6  1  0.87500000  0.25044200  0.87544200  1
  Si  Si7  1  0.50044200  0.12500000  0.87544200  1
  Si  Si8  1  0.87500000  0.75044200  0.37544200  1
  Si  Si9  1  0.24955800  0.62500000  0.12455800  1
  Si  Si10  1  0.75000000  0.25000000  0.50000000  1
  Si  Si11  1  0.74955800  0.62500000  0.62455800  1
  O  O0  1  0.71379600  0.06597800  0.44608100  1
  O  O1  1  0.61559800  0.48232200  0.43898000  1
  O  O2  1  0.13440200  0.07338100  0.36672400  1
  O  O3  1  0.31858600  0.98628200  0.25229800  1
  O  O4  1  0.01601600  0.26371800  0.83230400  1
  O  O5  1  0.51771500  0.46379600  0.14781900  1
  O  O6  1  0.31597800  0.36989700  0.85218100  1
  O  O7  1  0.73232200  0.79334200  0.36672400  1
  O  O8  1  0.43371300  0.76601600  0.25229800  1
  O  O9  1  0.42661900  0.36559800  0.63327600  1
  O  O10  1  0.23628200  0.48398400  0.16769600  1
  O  O11  1  0.01767800  0.88440200  0.56102000  1
  O  O12  1  0.51371800  0.18141400  0.74770200  1
  O  O13  1  0.31628700  0.06858600  0.83230400  1
  O  O14  1  0.32338100  0.45665800  0.43898000  1
  O  O15  1  0.03620400  0.98228500  0.85218100  1
  O  O16  1  0.04334200  0.17661900  0.56102000  1
  O  O17  1  0.13010300  0.18402200  0.14781900  1
  O  O18  1  0.43141400  0.18371300  0.16769600  1
  O  O19  1  0.61989700  0.26771500  0.55391900  1
  O  O20  1  0.01771500  0.86989700  0.05391900  1
  O  O21  1  0.70665800  0.76767800  0.63327600  1
  O  O22  1  0.73398400  0.06628700  0.74770200  1
  O  O23  1  0.23228500  0.88010300  0.44608100  1
  O  O24  1  0.53620400  0.68402200  0.05391900  1
  O  O25  1  0.63440200  0.26767800  0.06102000  1
  O  O26  1  0.11559800  0.67661900  0.13327600  1
  O  O27  1  0.93141400  0.76371800  0.24770200  1
  O  O28  1  0.23398400  0.48628200  0.66769600  1
  O  O29  1  0.73228500  0.28620400  0.35218100  1
  O  O30  1  0.93402200  0.38010300  0.64781900  1
  O  O31  1  0.51767800  0.95665800  0.13327600  1
  O  O32  1  0.81628700  0.98398400  0.24770200  1
  O  O33  1  0.82338100  0.38440200  0.86672400  1
  O  O34  1  0.01371800  0.26601600  0.33230400  1
  O  O35  1  0.23232200  0.86559800  0.93898000  1
  O  O36  1  0.73628200  0.56858600  0.75229800  1
  O  O37  1  0.93371300  0.68141400  0.66769600  1
  O  O38  1  0.92661900  0.29334200  0.06102000  1
  O  O39  1  0.21379600  0.76771500  0.64781900  1
  O  O40  1  0.20665800  0.57338100  0.93898000  1
  O  O41  1  0.11989700  0.56597800  0.35218100  1
  O  O42  1  0.81858600  0.56628700  0.33230400  1
  O  O43  1  0.63010300  0.48228500  0.94608100  1
  O  O44  1  0.81597800  0.96379600  0.94608100  1
  O  O45  1  0.54334200  0.98232200  0.86672400  1
  O  O46  1  0.51601600  0.68371300  0.75229800  1
  O  O47  1  0.43402200  0.78620400  0.55391900  1
loop_
_geom_bond_atom_site_label_1
_geom_bond_atom_site_label_2
_geom_bond_distance
_geom_bond_site_symmetry_2
Ca0 O22 2.316481 1_555
Ca0 O4 2.316484 1_655
Ca0 O7 2.366084 1_545
Ca0 O11 2.366084 1_645
Ca0 O21 2.497295 1_545
Ca0 O16 2.497301 1_655
Ca0 O15 2.500946 1_645
Ca0 O0 2.500954 1_555
Ca1 O18 2.316483 1_555
Ca1 O3 2.316484 1_545
Ca1 O9 2.366080 1_555
Ca1 O14 2.366091 1_555
Ca1 O1 2.497295 1_555
Ca1 O2 2.497299 1_555
Ca1 O17 2.500949 1_555
Ca1 O19 2.500954 1_555
Ca2 O13 2.316483 1_555
Ca2 O12 2.316484 1_555
Ca2 O2 2.366080 1_555
Ca2 O16 2.366091 1_555
Ca2 O11 2.497295 1_545
Ca2 O9 2.497299 1_555
Ca2 O6 2.500949 1_555
Ca2 O23 2.500954 1_545
Ca3 O8 2.316481 1_555
Ca3 O10 2.316484 1_555
Ca3 O21 2.366084 1_555
Ca3 O1 2.366084 1_555
Ca3 O7 2.497295 1_555
Ca3 O14 2.497301 1_555
Ca3 O5 2.500946 1_555
Ca3 O47 2.500954 1_555
Ca4 O46 2.316481 1_555
Ca4 O28 2.316484 1_555
Ca4 O31 2.366084 1_556
Ca4 O35 2.366084 1_555
Ca4 O45 2.497295 1_555
Ca4 O40 2.497301 1_555
Ca4 O39 2.500946 1_555
Ca4 O24 2.500954 1_556
Ca5 O42 2.316483 1_555
Ca5 O27 2.316484 1_555
Ca5 O33 2.366080 1_554
Ca5 O38 2.366091 1_555
Ca5 O25 2.497295 1_555
Ca5 O26 2.497299 1_655
Ca5 O41 2.500949 1_655
Ca5 O43 2.500954 1_554
Ca6 O37 2.316483 1_555
Ca6 O36 2.316484 1_555
Ca6 O26 2.366080 1_656
Ca6 O40 2.366091 1_655
Ca6 O35 2.497295 1_655
Ca6 O33 2.497299 1_555
Ca6 O30 2.500949 1_555
Ca6 O20 2.500954 1_656
Ca7 O32 2.316481 1_545
Ca7 O34 2.316484 1_655
Ca7 O45 2.366084 1_544
Ca7 O25 2.366084 1_555
Ca7 O31 2.497295 1_545
Ca7 O38 2.497301 1_555
Ca7 O29 2.500946 1_555
Ca7 O44 2.500954 1_544
Mn0 O3 1.928489 1_555
Mn0 O27 1.928489 1_455
Mn0 O23 1.942916 1_555
Mn0 O20 1.942916 1_555
Mn0 O2 1.962832 1_565
Mn0 O26 1.962832 1_555
Mn1 O32 1.928481 1_555
Mn1 O8 1.928481 1_555
Mn1 O24 1.942916 1_555
Mn1 O0 1.942916 1_565
Mn1 O7 1.962841 1_555
Mn1 O31 1.962841 1_555
Mn2 O10 1.928489 1_555
Mn2 O34 1.928489 1_555
Mn2 O17 1.942914 1_555
Mn2 O41 1.942914 1_555
Mn2 O14 1.962835 1_555
Mn2 O38 1.962835 1_455
Mn3 O18 1.928484 1_555
Mn3 O42 1.928484 1_555
Mn3 O5 1.942911 1_555
Mn3 O29 1.942911 1_555
Mn3 O1 1.962841 1_555
Mn3 O25 1.962841 1_555
Mn4 O28 1.928489 1_555
Mn4 O4 1.928489 1_555
Mn4 O6 1.942914 1_555
Mn4 O30 1.942914 1_455
Mn4 O16 1.962835 1_555
Mn4 O40 1.962835 1_555
Mn5 O22 1.928481 1_565
Mn5 O46 1.928481 1_555
Mn5 O44 1.942916 1_555
Mn5 O47 1.942916 1_555
Mn5 O45 1.962841 1_555
Mn5 O21 1.962841 1_555
Mn6 O12 1.928489 1_555
Mn6 O36 1.928489 1_555
Mn6 O43 1.942916 1_555
Mn6 O19 1.942916 1_555
Mn6 O9 1.962832 1_555
Mn6 O33 1.962832 1_555
Mn7 O13 1.928484 1_565
Mn7 O37 1.928484 1_455
Mn7 O39 1.942911 1_555
Mn7 O15 1.942911 1_555
Mn7 O11 1.962841 1_555
Mn7 O35 1.962841 1_555
O0 Si10 1.662009 1_555
O1 Si11 1.668275 1_555
O2 Si1 1.668281 1_555
O3 Si3 1.639186 1_555
O4 Si6 1.639186 1_455
O5 Si0 1.662019 1_555
O6 Si0 1.662012 1_556
O7 Si8 1.668275 1_555
O8 Si9 1.639192 1_555
O9 Si5 1.668281 1_555
O10 Si9 1.639186 1_555
O11 Si8 1.668275 1_455
O12 Si7 1.639186 1_555
O13 Si7 1.639196 1_555
O14 Si5 1.668274 1_555
O15 Si2 1.662019 1_566
O16 Si1 1.668274 1_555
O17 Si2 1.662012 1_555
O18 Si3 1.639196 1_545
O19 Si10 1.662009 1_555
O20 Si2 1.662009 1_565
O21 Si11 1.668275 1_555
O22 Si6 1.639192 1_555
O23 Si4 1.662009 1_555
O24 Si0 1.662009 1_555
O25 Si7 1.668275 1_554
O26 Si9 1.668281 1_555
O27 Si8 1.639186 1_555
O28 Si5 1.639186 1_555
O29 Si10 1.662019 1_555
O30 Si10 1.662012 1_555
O31 Si3 1.668275 1_555
O32 Si1 1.639192 1_665
O33 Si6 1.668281 1_555
O34 Si1 1.639186 1_555
O35 Si3 1.668275 1_556
O36 Si11 1.639186 1_555
O37 Si11 1.639196 1_555
O38 Si6 1.668274 1_554
O39 Si4 1.662019 1_555
O40 Si9 1.668274 1_556
O41 Si4 1.662012 1_555
O42 Si8 1.639196 1_555
O43 Si0 1.662009 1_556
O44 Si2 1.662009 1_666
O45 Si7 1.668275 1_565
O46 Si5 1.639192 1_555
O47 Si4 1.662009 1_555
