# generated using pymatgen
data_NdGa2Co3
_symmetry_space_group_name_H-M   'P 1'
_cell_length_a   3.84892600
_cell_length_b   9.08644594
_cell_length_c   9.09145868
_cell_angle_alpha   119.98176418
_cell_angle_beta   90.00000000
_cell_angle_gamma   90.00000000
_symmetry_Int_Tables_number   1
_chemical_formula_structural   NdGa2Co3
_chemical_formula_sum   'Nd3 Ga6 Co9'
_cell_volume   275.40865517
_cell_formula_units_Z   3
loop_
 _symmetry_equiv_pos_site_id
 _symmetry_equiv_pos_as_xyz
  1  'x, y, z'
loop_
 _atom_site_type_symbol
 _atom_site_label
 _atom_site_symmetry_multiplicity
 _atom_site_fract_x
 _atom_site_fract_y
 _atom_site_fract_z
 _atom_site_occupancy
  Nd  Nd0  1  0.00000000  0.00001400  0.00000000  1
  Nd  Nd1  1  0.50000000  0.33332600  0.66666300  1
  Nd  Nd2  1  0.50000000  0.66666300  0.33333700  1
  Ga  Ga0  1  0.50000000  0.31230300  0.00000000  1
  Ga  Ga1  1  0.50000000  0.68793100  0.68798600  1
  Ga  Ga2  1  0.50000000  0.99994500  0.31201400  1
  Ga  Ga3  1  0.50000000  0.68769500  0.00000000  1
  Ga  Ga4  1  0.50000000  0.31206100  0.31202400  1
  Ga  Ga5  1  0.50000000  0.00003600  0.68797600  1
  Co  Co0  1  0.00000000  0.49999900  0.00000000  1
  Co  Co1  1  0.00000000  0.49999200  0.50000900  1
  Co  Co2  1  0.00000000  0.99998300  0.49999100  1
  Co  Co3  1  0.00000000  0.18240400  0.36481500  1
  Co  Co4  1  0.00000000  0.18262600  0.81766200  1
  Co  Co5  1  0.00000000  0.63500800  0.81765000  1
  Co  Co6  1  0.00000000  0.81759000  0.63518500  1
  Co  Co7  1  0.00000000  0.36496300  0.18233800  1
  Co  Co8  1  0.00000000  0.81735900  0.18235000  1
loop_
_geom_bond_atom_site_label_1
_geom_bond_atom_site_label_2
_geom_bond_distance
_geom_bond_site_symmetry_2
Ga0 Ga4 2.837853 1_555
Ga0 Ga5 2.837857 1_554
Ga0 Nd2 3.130355 1_555
Ga0 Nd1 3.130355 1_554
Ga0 Nd0 3.428632 1_655
Ga0 Nd0 3.428632 1_555
Ga1 Ga5 2.835971 1_565
Ga1 Ga3 2.837735 1_556
Ga1 Nd1 3.129732 1_555
Ga1 Nd2 3.132181 1_555
Ga1 Nd0 3.428117 1_566
Ga1 Nd0 3.428117 1_666
Ga2 Ga4 2.835980 1_565
Ga2 Ga3 2.837735 1_555
Ga2 Nd2 3.129732 1_555
Ga2 Nd1 3.132181 1_565
Ga2 Nd0 3.428117 1_665
Ga2 Nd0 3.428117 1_565
Ga3 Nd1 3.130400 1_554
Ga3 Nd2 3.130400 1_555
Ga3 Nd0 3.428857 1_565
Ga3 Nd0 3.428857 1_665
Ga4 Nd2 3.129746 1_555
Ga4 Nd1 3.132102 1_555
Ga4 Nd0 3.428020 1_555
Ga4 Nd0 3.428020 1_655
Ga5 Nd1 3.129755 1_555
Ga5 Nd2 3.132098 1_545
Ga5 Nd0 3.428016 1_656
Ga5 Nd0 3.428016 1_556
Co0 Co5 2.507177 1_554
Co0 Co8 2.507184 1_555
Co0 Co4 2.507271 1_554
Co0 Co7 2.507279 1_555
Co0 Ga0 2.571430 1_555
Co0 Ga0 2.571430 1_455
Co0 Ga3 2.571430 1_555
Co0 Ga3 2.571430 1_455
Co0 Nd1 3.254862 1_554
Co0 Nd1 3.254862 1_454
Co0 Nd2 3.254862 1_555
Co0 Nd2 3.254862 1_455
Co1 Co3 2.508645 1_555
Co1 Co6 2.508741 1_555
Co1 Co5 2.510719 1_555
Co1 Co7 2.510956 1_555
Co1 Ga1 2.573635 1_455
Co1 Ga1 2.573635 1_555
Co1 Ga4 2.573635 1_455
Co1 Ga4 2.573635 1_555
Co1 Nd1 3.253587 1_555
Co1 Nd1 3.253587 1_455
Co1 Nd2 3.253733 1_455
Co1 Nd2 3.253733 1_555
Co2 Co6 2.508637 1_555
Co2 Co3 2.508733 1_565
Co2 Co8 2.510719 1_555
Co2 Co4 2.510957 1_565
Co2 Ga2 2.573635 1_555
Co2 Ga2 2.573635 1_455
Co2 Ga5 2.573638 1_565
Co2 Ga5 2.573638 1_465
Co2 Nd2 3.253587 1_555
Co2 Nd2 3.253587 1_455
Co2 Nd1 3.253733 1_465
Co2 Nd1 3.253733 1_565
Co3 Ga4 2.426314 1_455
Co3 Ga4 2.426314 1_555
Co3 Ga2 2.426360 1_445
Co3 Ga2 2.426360 1_545
Co3 Nd0 2.872875 1_555
Co3 Nd1 3.058393 1_455
Co3 Nd1 3.058393 1_555
Co4 Ga0 2.426472 1_556
Co4 Ga0 2.426472 1_456
Co4 Ga5 2.427184 1_455
Co4 Ga5 2.427184 1_555
Co4 Nd0 2.872353 1_556
Co4 Nd1 3.056465 1_555
Co4 Nd1 3.056465 1_455
Co5 Ga3 2.426502 1_456
Co5 Ga3 2.426502 1_556
Co5 Ga1 2.427143 1_555
Co5 Ga1 2.427143 1_455
Co5 Nd0 2.872794 1_566
Co5 Nd1 3.056361 1_555
Co5 Nd1 3.056361 1_455
Co6 Ga5 2.426304 1_565
Co6 Ga5 2.426304 1_465
Co6 Ga1 2.426365 1_555
Co6 Ga1 2.426365 1_455
Co6 Nd0 2.872875 1_566
Co6 Nd2 3.058393 1_455
Co6 Nd2 3.058393 1_555
Co7 Ga0 2.426474 1_455
Co7 Ga0 2.426474 1_555
Co7 Ga4 2.427176 1_555
Co7 Ga4 2.427176 1_455
Co7 Nd0 2.872345 1_555
Co7 Nd2 3.056471 1_555
Co7 Nd2 3.056471 1_455
Co8 Ga3 2.426503 1_555
Co8 Ga3 2.426503 1_455
Co8 Ga2 2.427139 1_555
Co8 Ga2 2.427139 1_455
Co8 Nd0 2.872786 1_565
Co8 Nd2 3.056367 1_455
Co8 Nd2 3.056367 1_555
