# generated using pymatgen
data_Sr4Li3InGe6
_symmetry_space_group_name_H-M   'P 1'
_cell_length_a   10.17088614
_cell_length_b   10.17088614
_cell_length_c   7.34322625
_cell_angle_alpha   89.49066005
_cell_angle_beta   89.49066005
_cell_angle_gamma   26.50587908
_symmetry_Int_Tables_number   1
_chemical_formula_structural   Sr4Li3InGe6
_chemical_formula_sum   'Sr4 Li3 In1 Ge6'
_cell_volume   339.00272321
_cell_formula_units_Z   1
loop_
 _symmetry_equiv_pos_site_id
 _symmetry_equiv_pos_as_xyz
  1  'x, y, z'
loop_
 _atom_site_type_symbol
 _atom_site_label
 _atom_site_symmetry_multiplicity
 _atom_site_fract_x
 _atom_site_fract_y
 _atom_site_fract_z
 _atom_site_occupancy
  Sr  Sr0  1  0.65430700  0.65430700  0.24812400  1
  Sr  Sr1  1  0.34344200  0.34344200  0.76729600  1
  Sr  Sr2  1  0.44546900  0.44546900  0.25027100  1
  Sr  Sr3  1  0.55533000  0.55533000  0.74774000  1
  Li  Li0  1  0.19077200  0.19077200  0.56032500  1
  Li  Li1  1  0.81060100  0.81060100  0.05259000  1
  Li  Li2  1  0.19104800  0.19104800  0.93702400  1
  In  In0  1  0.80729200  0.80729200  0.44801500  1
  Ge  Ge0  1  0.27789100  0.27789100  0.23581600  1
  Ge  Ge1  1  0.72126800  0.72126800  0.75592300  1
  Ge  Ge2  1  0.94270100  0.94270100  0.92706800  1
  Ge  Ge3  1  0.05766600  0.05766600  0.07086000  1
  Ge  Ge4  1  0.94488700  0.94488700  0.58165600  1
  Ge  Ge5  1  0.05732300  0.05732300  0.41729200  1
loop_
_geom_bond_atom_site_label_1
_geom_bond_atom_site_label_2
_geom_bond_distance
_geom_bond_site_symmetry_2
Li0 Sr1 3.395814 1_555
Li1 Sr1 3.197438 1_654
Li1 Sr1 3.197438 1_564
Li2 Sr1 3.254140 1_555
In0 Li1 2.903836 1_555
In0 Li0 3.377105 1_565
In0 Li0 3.377105 1_655
In0 Sr0 3.378056 1_555
In0 Sr1 3.387718 1_655
In0 Sr1 3.387718 1_565
In0 Sr2 3.867542 1_565
In0 Sr2 3.867542 1_655
Ge0 Li1 2.765965 1_545
Ge0 Li1 2.765965 1_455
Ge0 Li2 2.799934 1_554
Ge0 In0 2.867098 1_455
Ge0 In0 2.867098 1_545
Ge0 Li0 2.928962 1_555
Ge0 Sr2 3.320714 1_555
Ge0 Sr0 3.380606 1_455
Ge0 Sr0 3.380606 1_545
Ge0 Sr1 3.666019 1_554
Ge1 Li2 2.747502 1_565
Ge1 Li2 2.747502 1_655
Ge1 Li0 2.807167 1_565
Ge1 Li0 2.807167 1_655
Ge1 In0 2.818351 1_555
Ge1 Li1 2.818661 1_556
Ge1 Sr3 3.286674 1_555
Ge1 Sr1 3.361426 1_565
Ge1 Sr1 3.361426 1_655
Ge2 Ge3 2.518016 1_666
Ge2 Ge4 2.536412 1_555
Ge2 Li1 2.765291 1_556
Ge2 Sr1 3.273815 1_565
Ge2 Sr1 3.273815 1_655
Ge2 Sr2 3.327899 1_566
Ge2 Sr2 3.327899 1_656
Ge2 Sr3 3.477114 1_655
Ge2 Sr3 3.477114 1_565
Ge3 Ge5 2.543876 1_555
Ge3 Li2 2.809478 1_554
Ge3 Sr0 3.292123 1_455
Ge3 Sr0 3.292123 1_545
Ge3 Sr3 3.327278 1_454
Ge3 Sr3 3.327278 1_544
Ge3 Sr2 3.471892 1_455
Ge3 Sr2 3.471892 1_545
Ge4 Ge5 2.522657 1_665
Ge4 In0 2.904163 1_555
Ge4 Sr1 3.358503 1_655
Ge4 Sr1 3.358503 1_565
Ge4 Sr2 3.370156 1_565
Ge4 Sr2 3.370156 1_655
Ge4 Sr3 3.428531 1_655
Ge4 Sr3 3.428531 1_565
Ge5 Li0 2.852294 1_555
Ge5 Sr0 3.259418 1_545
Ge5 Sr0 3.259418 1_455
Ge5 Sr3 3.365219 1_545
Ge5 Sr3 3.365219 1_455
Ge5 Sr2 3.448989 1_545
Ge5 Sr2 3.448989 1_455
