# generated using pymatgen
data_MgMn6(OF2)4
_symmetry_space_group_name_H-M   'P 1'
_cell_length_a   5.42767957
_cell_length_b   8.30018935
_cell_length_c   5.57942489
_cell_angle_alpha   89.19715783
_cell_angle_beta   78.84726059
_cell_angle_gamma   93.68093230
_symmetry_Int_Tables_number   1
_chemical_formula_structural   MgMn6(OF2)4
_chemical_formula_sum   'Mg1 Mn6 O4 F8'
_cell_volume   246.01207269
_cell_formula_units_Z   1
loop_
 _symmetry_equiv_pos_site_id
 _symmetry_equiv_pos_as_xyz
  1  'x, y, z'
loop_
 _atom_site_type_symbol
 _atom_site_label
 _atom_site_symmetry_multiplicity
 _atom_site_fract_x
 _atom_site_fract_y
 _atom_site_fract_z
 _atom_site_occupancy
  Mg  Mg0  1  0.21449000  0.08255900  0.42170400  1
  Mn  Mn0  1  0.57721700  0.93150100  0.66456400  1
  Mn  Mn1  1  0.53033200  0.69342900  0.17219400  1
  Mn  Mn2  1  0.50407700  0.32872300  0.82689700  1
  Mn  Mn3  1  0.90951800  0.63938600  0.64919600  1
  Mn  Mn4  1  0.94503100  0.40693200  0.14166400  1
  Mn  Mn5  1  0.02006900  0.00050900  0.97380200  1
  O  O0  1  0.74608300  0.82765600  0.92435000  1
  O  O1  1  0.66817200  0.74207900  0.45092900  1
  O  O2  1  0.66665500  0.50652500  0.97364600  1
  O  O3  1  0.35526100  0.13392700  0.71156300  1
  F  F0  1  0.74798000  0.39944900  0.50614500  1
  F  F1  1  0.86698500  0.06762400  0.39017500  1
  F  F2  1  0.79891400  0.19893200  0.93563400  1
  F  F3  1  0.19975900  0.47486900  0.80705200  1
  F  F4  1  0.29974500  0.92896500  0.15759000  1
  F  F5  1  0.17644800  0.59023400  0.30531100  1
  F  F6  1  0.26131800  0.26285200  0.17946700  1
  F  F7  1  0.17861200  0.85884400  0.63103400  1
loop_
_geom_bond_atom_site_label_1
_geom_bond_atom_site_label_2
_geom_bond_distance
_geom_bond_site_symmetry_2
Mg0 O3 1.958718 1_555
Mn0 O1 2.015182 1_555
Mn0 O0 2.065012 1_555
Mn0 O3 2.119693 1_565
Mn1 O1 1.889521 1_555
Mn1 O0 1.920319 1_554
Mn1 O2 2.014887 1_554
Mn2 O3 1.934744 1_555
Mn2 O2 1.942464 1_555
Mn3 O1 2.084164 1_555
Mn3 O2 2.250553 1_555
Mn3 O0 2.303061 1_555
Mn4 O2 2.128770 1_554
Mn5 O0 2.059585 1_445
Mn5 O3 2.311527 1_555
F0 Mn2 2.062551 1_555
F0 Mn4 2.104707 1_555
F0 Mn3 2.337303 1_555
F1 Mg0 1.924267 1_655
F1 Mn0 2.210387 1_545
F1 Mn5 2.397201 1_654
F2 Mn5 2.131091 1_655
F2 Mn2 2.160590 1_555
F2 Mn4 2.272326 1_556
F3 Mn2 2.129841 1_555
F3 Mn4 2.141690 1_456
F3 Mn3 2.429258 1_455
F4 Mg0 1.968630 1_565
F4 Mn5 2.099831 1_564
F4 Mn1 2.396701 1_555
F5 Mn1 2.047850 1_555
F5 Mn4 2.227857 1_455
F5 Mn3 2.229190 1_455
F6 Mg0 1.972885 1_555
F6 Mn2 2.186171 1_554
F6 Mn4 2.195069 1_455
F7 Mg0 2.157501 1_565
F7 Mn3 2.248884 1_455
F7 Mn0 2.252028 1_555
F7 Mn5 2.310166 1_565
