# generated using pymatgen
data_Ho5Ge4
_symmetry_space_group_name_H-M   'P 1'
_cell_length_a   7.52519989
_cell_length_b   7.60892894
_cell_length_c   14.45725037
_cell_angle_alpha   90.00000000
_cell_angle_beta   90.00000000
_cell_angle_gamma   90.00000000
_symmetry_Int_Tables_number   1
_chemical_formula_structural   Ho5Ge4
_chemical_formula_sum   'Ho20 Ge16'
_cell_volume   827.80352400
_cell_formula_units_Z   4
loop_
 _symmetry_equiv_pos_site_id
 _symmetry_equiv_pos_as_xyz
  1  'x, y, z'
loop_
 _atom_site_type_symbol
 _atom_site_label
 _atom_site_symmetry_multiplicity
 _atom_site_fract_x
 _atom_site_fract_y
 _atom_site_fract_z
 _atom_site_occupancy
  Ho  Ho0  1  0.21472337  0.49796748  0.75000000  1
  Ho  Ho1  1  0.71472237  0.00203252  0.75000000  1
  Ho  Ho2  1  0.78527663  0.50203252  0.25000000  1
  Ho  Ho3  1  0.28527763  0.99796748  0.25000000  1
  Ho  Ho4  1  0.52958773  0.67647846  0.89838549  1
  Ho  Ho5  1  0.02958773  0.82352154  0.60161451  1
  Ho  Ho6  1  0.47041227  0.32352154  0.39838549  1
  Ho  Ho7  1  0.97041227  0.17647846  0.10161451  1
  Ho  Ho8  1  0.47041227  0.32352154  0.10161451  1
  Ho  Ho9  1  0.97041227  0.17647846  0.39838549  1
  Ho  Ho10  1  0.52958773  0.67647846  0.60161451  1
  Ho  Ho11  1  0.02958773  0.82352154  0.89838549  1
  Ho  Ho12  1  0.12082440  0.66088808  0.11705381  1
  Ho  Ho13  1  0.62082440  0.83911292  0.38294719  1
  Ho  Ho14  1  0.87917560  0.33911192  0.61705381  1
  Ho  Ho15  1  0.37917560  0.16088708  0.88294719  1
  Ho  Ho16  1  0.87917560  0.33911192  0.88294619  1
  Ho  Ho17  1  0.37917560  0.16088708  0.61705281  1
  Ho  Ho18  1  0.12082440  0.66088808  0.38294619  1
  Ho  Ho19  1  0.62082440  0.83911292  0.11705281  1
  Ge  Ge0  1  0.58249327  0.38275879  0.75000000  1
  Ge  Ge1  1  0.08249327  0.11724121  0.75000000  1
  Ge  Ge2  1  0.41750673  0.61724121  0.25000000  1
  Ge  Ge3  1  0.91750673  0.88275879  0.25000000  1
  Ge  Ge4  1  0.33548462  0.86166367  0.75000000  1
  Ge  Ge5  1  0.83548462  0.63833633  0.75000000  1
  Ge  Ge6  1  0.66451538  0.13833633  0.25000000  1
  Ge  Ge7  1  0.16451538  0.36166367  0.25000000  1
  Ge  Ge8  1  0.27978961  0.96833993  0.04419547  1
  Ge  Ge9  1  0.77978961  0.53166007  0.45580453  1
  Ge  Ge10  1  0.72021039  0.03166007  0.54419547  1
  Ge  Ge11  1  0.22021039  0.46833993  0.95580453  1
  Ge  Ge12  1  0.72021039  0.03166007  0.95580453  1
  Ge  Ge13  1  0.22021039  0.46833993  0.54419547  1
  Ge  Ge14  1  0.27978961  0.96833993  0.45580453  1
  Ge  Ge15  1  0.77978961  0.53166007  0.04419547  1
loop_
_geom_bond_atom_site_label_1
_geom_bond_atom_site_label_2
_geom_bond_distance
_geom_bond_site_symmetry_2
Ge0 Ge5 2.721441 1_555
Ge0 Ho0 2.903057 1_555
Ge0 Ho16 2.964624 1_555
Ge0 Ho14 2.964624 1_555
Ge0 Ho15 2.980812 1_555
Ge0 Ho17 2.980812 1_555
Ge0 Ho1 3.063048 1_555
Ge0 Ho4 3.123352 1_555
Ge0 Ho10 3.123352 1_555
Ge1 Ge4 2.721441 1_545
Ge1 Ho1 2.903065 1_455
Ge1 Ho17 2.964632 1_555
Ge1 Ho15 2.964632 1_555
Ge1 Ho16 2.980798 1_455
Ge1 Ho14 2.980798 1_455
Ge1 Ho0 3.063051 1_555
Ge1 Ho11 3.123352 1_545
Ge1 Ho5 3.123352 1_545
Ge2 Ge7 2.721441 1_555
Ge2 Ho2 2.903057 1_555
Ge2 Ho18 2.964624 1_555
Ge2 Ho12 2.964624 1_555
Ge2 Ho19 2.980812 1_555
Ge2 Ho13 2.980812 1_555
Ge2 Ho3 3.063048 1_555
Ge2 Ho8 3.123352 1_555
Ge2 Ho6 3.123352 1_555
Ge3 Ge6 2.721441 1_565
Ge3 Ho3 2.903065 1_655
Ge3 Ho19 2.964632 1_555
Ge3 Ho13 2.964632 1_555
Ge3 Ho12 2.980798 1_655
Ge3 Ho18 2.980798 1_655
Ge3 Ho2 3.063051 1_555
Ge3 Ho9 3.123352 1_565
Ge3 Ho7 3.123352 1_565
Ge4 Ho0 2.912730 1_555
Ge4 Ho4 2.953147 1_555
Ge4 Ho10 2.953147 1_555
Ge4 Ho17 2.997675 1_565
Ge4 Ho15 2.997675 1_565
Ge4 Ho1 3.047154 1_565
Ge4 Ho11 3.159939 1_555
Ge4 Ho5 3.159939 1_555
Ge5 Ho1 2.912732 1_565
Ge5 Ho11 2.953147 1_655
Ge5 Ho5 2.953147 1_655
Ge5 Ho14 2.997672 1_555
Ge5 Ho16 2.997672 1_555
Ge5 Ho0 3.047161 1_655
Ge5 Ho4 3.159939 1_555
Ge5 Ho10 3.159939 1_555
Ge6 Ho2 2.912730 1_555
Ge6 Ho6 2.953147 1_555
Ge6 Ho8 2.953147 1_555
Ge6 Ho13 2.997675 1_545
Ge6 Ho19 2.997675 1_545
Ge6 Ho3 3.047154 1_545
Ge6 Ho7 3.159939 1_555
Ge6 Ho9 3.159939 1_555
Ge7 Ho3 2.912732 1_545
Ge7 Ho9 2.953147 1_455
Ge7 Ho7 2.953147 1_455
Ge7 Ho12 2.997672 1_555
Ge7 Ho18 2.997672 1_555
Ge7 Ho2 3.047161 1_455
Ge7 Ho8 3.159939 1_555
Ge7 Ho6 3.159939 1_555
Ge8 Ho12 2.830760 1_555
Ge8 Ho15 2.853127 1_564
Ge8 Ho7 2.935543 1_465
Ge8 Ho19 2.943211 1_555
Ge8 Ho3 2.984181 1_555
Ge8 Ho11 3.033633 1_554
Ge8 Ho8 3.170268 1_565
Ge8 Ho4 3.592914 1_554
Ge9 Ho13 2.830761 1_555
Ge9 Ho14 2.853142 1_555
Ge9 Ho6 2.935543 1_555
Ge9 Ho18 2.943219 1_655
Ge9 Ho2 2.984181 1_555
Ge9 Ho10 3.033633 1_555
Ge9 Ho9 3.170268 1_555
Ge9 Ho5 3.592914 1_655
Ge10 Ho14 2.830760 1_555
Ge10 Ho13 2.853127 1_545
Ge10 Ho5 2.935543 1_645
Ge10 Ho17 2.943211 1_555
Ge10 Ho1 2.984181 1_555
Ge10 Ho9 3.033633 1_555
Ge10 Ho10 3.170268 1_545
Ge10 Ho6 3.592914 1_555
Ge11 Ho15 2.830761 1_555
Ge11 Ho12 2.853142 1_556
Ge11 Ho4 2.935543 1_555
Ge11 Ho16 2.943219 1_455
Ge11 Ho0 2.984181 1_555
Ge11 Ho8 3.033633 1_556
Ge11 Ho11 3.170268 1_555
Ge11 Ho7 3.592914 1_456
Ge12 Ho16 2.830760 1_555
Ge12 Ho19 2.853127 1_546
Ge12 Ho11 2.935543 1_645
Ge12 Ho15 2.943211 1_555
Ge12 Ho1 2.984181 1_555
Ge12 Ho7 3.033633 1_556
Ge12 Ho4 3.170268 1_545
Ge12 Ho8 3.592914 1_556
Ge13 Ho17 2.830761 1_555
Ge13 Ho18 2.853142 1_555
Ge13 Ho10 2.935543 1_555
Ge13 Ho14 2.943219 1_455
Ge13 Ho0 2.984181 1_555
Ge13 Ho6 3.033633 1_555
Ge13 Ho5 3.170268 1_555
Ge13 Ho9 3.592914 1_455
Ge14 Ho18 2.830760 1_555
Ge14 Ho17 2.853127 1_565
Ge14 Ho9 2.935543 1_465
Ge14 Ho13 2.943211 1_555
Ge14 Ho3 2.984181 1_555
Ge14 Ho5 3.033633 1_555
Ge14 Ho6 3.170268 1_565
Ge14 Ho10 3.592914 1_555
Ge15 Ho19 2.830761 1_555
Ge15 Ho16 2.853142 1_554
Ge15 Ho8 2.935543 1_555
Ge15 Ho12 2.943219 1_655
Ge15 Ho2 2.984181 1_555
Ge15 Ho4 3.033633 1_554
Ge15 Ho7 3.170268 1_555
Ge15 Ho11 3.592914 1_654
