# generated using pymatgen
data_InCuO3
_symmetry_space_group_name_H-M   'P 1'
_cell_length_a   6.04428266
_cell_length_b   6.04428266
_cell_length_c   6.04428237
_cell_angle_alpha   33.13839757
_cell_angle_beta   33.13839757
_cell_angle_gamma   33.13839528
_symmetry_Int_Tables_number   1
_chemical_formula_structural   InCuO3
_chemical_formula_sum   'In1 Cu1 O3'
_cell_volume   58.73804231
_cell_formula_units_Z   1
loop_
 _symmetry_equiv_pos_site_id
 _symmetry_equiv_pos_as_xyz
  1  'x, y, z'
loop_
 _atom_site_type_symbol
 _atom_site_label
 _atom_site_symmetry_multiplicity
 _atom_site_fract_x
 _atom_site_fract_y
 _atom_site_fract_z
 _atom_site_occupancy
  In  In0  1  0.49783100  0.49783100  0.49783100  1
  Cu  Cu0  1  0.00305300  0.00305300  0.00305300  1
  O  O0  1  0.11191000  0.11191000  0.11191000  1
  O  O1  1  0.89341200  0.89341200  0.89341200  1
  O  O2  1  0.34332800  0.34332800  0.34332800  1
loop_
_geom_bond_atom_site_label_1
_geom_bond_atom_site_label_2
_geom_bond_distance
_geom_bond_site_symmetry_2
In0 O0 2.184504 1_565
In0 O0 2.184504 1_655
In0 O0 2.184505 1_556
In0 O1 2.257709 1_455
In0 O1 2.257709 1_545
In0 O1 2.257710 1_554
In0 O2 2.645332 1_555
Cu0 O0 1.863802 1_555
Cu0 O1 1.877225 1_444
Cu0 O2 1.993865 1_455
Cu0 O2 1.993865 1_545
Cu0 O2 1.993865 1_554
