# generated using pymatgen
data_Li2TiCo3O8
_symmetry_space_group_name_H-M   'P 1'
_cell_length_a   5.76905051
_cell_length_b   5.74697139
_cell_length_c   9.36576268
_cell_angle_alpha   89.70606162
_cell_angle_beta   91.19680894
_cell_angle_gamma   60.30858724
_symmetry_Int_Tables_number   1
_chemical_formula_structural   Li2TiCo3O8
_chemical_formula_sum   'Li4 Ti2 Co6 O16'
_cell_volume   269.64695335
_cell_formula_units_Z   2
loop_
 _symmetry_equiv_pos_site_id
 _symmetry_equiv_pos_as_xyz
  1  'x, y, z'
loop_
 _atom_site_type_symbol
 _atom_site_label
 _atom_site_symmetry_multiplicity
 _atom_site_fract_x
 _atom_site_fract_y
 _atom_site_fract_z
 _atom_site_occupancy
  Li  Li0  1  0.67403100  0.66438500  0.88928700  1
  Li  Li1  1  0.32690800  0.33482100  0.39936800  1
  Li  Li2  1  0.00494300  0.99964100  0.99500000  1
  Li  Li3  1  0.99522700  0.00112100  0.49581200  1
  Ti  Ti0  1  0.64354700  0.68254700  0.50007100  1
  Ti  Ti1  1  0.33249800  0.33441100  0.99348300  1
  Co  Co0  1  0.34520000  0.82274900  0.21622000  1
  Co  Co1  1  0.16947000  0.65991100  0.71516500  1
  Co  Co2  1  0.16869500  0.17083900  0.71433100  1
  Co  Co3  1  0.84079500  0.34072700  0.21903100  1
  Co  Co4  1  0.65823600  0.17122900  0.71498500  1
  Co  Co5  1  0.82881400  0.83227700  0.21210900  1
  O  O0  1  0.32595500  0.83637300  0.60172400  1
  O  O1  1  0.18944200  0.65767400  0.09121000  1
  O  O2  1  0.50503900  0.52929200  0.33991900  1
  O  O3  1  0.48924400  0.47334600  0.83186400  1
  O  O4  1  0.64780300  0.68559000  0.10923400  1
  O  O5  1  0.33045200  0.33603900  0.61189500  1
  O  O6  1  0.02017000  0.97848800  0.30406500  1
  O  O7  1  0.00016600  0.99925800  0.80594400  1
  O  O8  1  0.82513600  0.33099400  0.59885100  1
  O  O9  1  0.67814400  0.16051800  0.09742500  1
  O  O10  1  0.50019100  0.96283700  0.34477300  1
  O  O11  1  0.04600700  0.47498700  0.83609700  1
  O  O12  1  0.95870000  0.52376200  0.34025900  1
  O  O13  1  0.48720900  0.03801700  0.83136600  1
  O  O14  1  0.18276600  0.15568500  0.09732800  1
  O  O15  1  0.82491100  0.84278100  0.60102200  1
loop_
_geom_bond_atom_site_label_1
_geom_bond_atom_site_label_2
_geom_bond_distance
_geom_bond_site_symmetry_2
Li0 O13 1.933278 1_565
Li0 O3 1.942330 1_555
Li0 O11 1.942749 1_655
Li0 O4 2.068467 1_556
Li1 O12 1.912459 1_455
Li1 O10 1.935552 1_545
Li1 O2 1.941763 1_555
Li1 O5 1.990239 1_555
Li2 O7 1.770322 1_555
Li2 O14 1.911609 1_566
Li2 O1 1.917463 1_556
Li2 O9 1.920240 1_466
Li3 O6 1.804820 1_645
Li3 O0 1.908533 1_645
Li3 O15 1.918707 1_545
Li3 O8 1.924470 1_555
Co0 O4 1.841438 1_555
Co0 O6 1.844837 1_555
Co0 O2 1.852421 1_555
Co0 O10 1.890869 1_555
Co0 O1 1.972355 1_555
Co0 O14 1.984276 1_565
Co1 O5 1.898923 1_555
Co1 O7 1.909156 1_555
Co1 O11 1.921154 1_555
Co1 O3 1.921381 1_555
Co1 O0 1.976927 1_555
Co1 O15 2.007178 1_455
Co2 O5 1.896936 1_555
Co2 O7 1.905187 1_545
Co2 O13 1.917914 1_555
Co2 O11 1.919732 1_555
Co2 O0 1.990802 1_545
Co2 O8 2.009553 1_455
Co3 O12 1.883370 1_555
Co3 O6 1.962992 1_645
Co3 O4 1.992569 1_555
Co3 O9 2.044606 1_555
Co3 O2 2.057409 1_555
Co3 O14 2.085723 1_655
Co4 O13 1.879455 1_555
Co4 O5 1.882876 1_555
Co4 O3 1.884285 1_555
Co4 O7 1.893017 1_645
Co4 O8 1.965317 1_555
Co4 O15 1.972885 1_545
Co5 O6 1.884974 1_655
Co5 O4 1.888882 1_555
Co5 O12 1.941670 1_555
Co5 O9 1.945136 1_565
Co5 O10 2.097563 1_555
Co5 O1 2.158554 1_655
O0 Ti0 1.876648 1_555
O1 Ti1 1.870917 1_554
O2 Ti0 2.079602 1_555
O3 Ti1 2.122862 1_555
O8 Ti0 1.969472 1_555
O9 Ti1 1.964032 1_554
O10 Ti0 2.000051 1_555
O11 Ti1 2.029873 1_555
O12 Ti0 2.205155 1_555
O13 Ti1 2.140211 1_555
O14 Ti1 1.910734 1_554
O15 Ti0 1.938753 1_555
