# generated using pymatgen
data_Cd4SF6
_symmetry_space_group_name_H-M   'P 1'
_cell_length_a   12.81208474
_cell_length_b   12.81208474
_cell_length_c   12.81208479
_cell_angle_alpha   17.52382160
_cell_angle_beta   17.52382160
_cell_angle_gamma   17.52382083
_symmetry_Int_Tables_number   1
_chemical_formula_structural   Cd4SF6
_chemical_formula_sum   'Cd4 S1 F6'
_cell_volume   166.41402839
_cell_formula_units_Z   1
loop_
 _symmetry_equiv_pos_site_id
 _symmetry_equiv_pos_as_xyz
  1  'x, y, z'
loop_
 _atom_site_type_symbol
 _atom_site_label
 _atom_site_symmetry_multiplicity
 _atom_site_fract_x
 _atom_site_fract_y
 _atom_site_fract_z
 _atom_site_occupancy
  Cd  Cd0  1  0.79173700  0.79173700  0.79173700  1
  Cd  Cd1  1  0.20826300  0.20826300  0.20826300  1
  Cd  Cd2  1  0.37402300  0.37402300  0.37402300  1
  Cd  Cd3  1  0.62597700  0.62597700  0.62597700  1
  S  S0  1  0.00000000  0.00000000  0.00000000  1
  F  F0  1  0.85426700  0.85426700  0.85426700  1
  F  F1  1  0.14573300  0.14573300  0.14573300  1
  F  F2  1  0.56299300  0.56299300  0.56299300  1
  F  F3  1  0.43700700  0.43700700  0.43700700  1
  F  F4  1  0.27036000  0.27036000  0.27036000  1
  F  F5  1  0.72964000  0.72964000  0.72964000  1
loop_
_geom_bond_atom_site_label_1
_geom_bond_atom_site_label_2
_geom_bond_distance
_geom_bond_site_symmetry_2
Cd0 F5 2.349564 1_555
Cd0 F0 2.365947 1_555
Cd0 F1 2.385333 1_656
Cd0 F1 2.385333 1_566
Cd0 F1 2.385334 1_665
Cd0 F3 2.394580 1_565
Cd0 F3 2.394580 1_655
Cd0 F3 2.394580 1_556
Cd1 F4 2.349564 1_555
Cd1 F1 2.365947 1_555
Cd1 F0 2.385333 1_454
Cd1 F0 2.385333 1_544
Cd1 F0 2.385334 1_445
Cd1 F2 2.394580 1_455
Cd1 F2 2.394580 1_545
Cd1 F2 2.394580 1_554
Cd2 F3 2.383125 1_555
Cd2 F5 2.406134 1_455
Cd2 F5 2.406134 1_545
Cd2 F5 2.406134 1_554
Cd2 S0 2.729263 1_565
Cd2 S0 2.729263 1_655
Cd2 S0 2.729263 1_556
Cd3 F2 2.383125 1_555
Cd3 F4 2.406134 1_655
Cd3 F4 2.406134 1_565
Cd3 F4 2.406134 1_556
Cd3 S0 2.729263 1_566
Cd3 S0 2.729263 1_656
Cd3 S0 2.729263 1_665
