# generated using pymatgen
data_DyMn2O4
_symmetry_space_group_name_H-M   'P 1'
_cell_length_a   6.39686978
_cell_length_b   6.39686978
_cell_length_c   6.39686978
_cell_angle_alpha   60.00000000
_cell_angle_beta   60.00000000
_cell_angle_gamma   60.00000000
_symmetry_Int_Tables_number   1
_chemical_formula_structural   DyMn2O4
_chemical_formula_sum   'Dy2 Mn4 O8'
_cell_volume   185.09195051
_cell_formula_units_Z   2
loop_
 _symmetry_equiv_pos_site_id
 _symmetry_equiv_pos_as_xyz
  1  'x, y, z'
loop_
 _atom_site_type_symbol
 _atom_site_label
 _atom_site_symmetry_multiplicity
 _atom_site_fract_x
 _atom_site_fract_y
 _atom_site_fract_z
 _atom_site_occupancy
  Dy  Dy0  1  0.75000000  0.75000000  0.75000000  1
  Dy  Dy1  1  0.50000000  0.50000000  0.50000000  1
  Mn  Mn0  1  0.12500000  0.12500000  0.62500000  1
  Mn  Mn1  1  0.12500000  0.62500000  0.12500000  1
  Mn  Mn2  1  0.62500000  0.12500000  0.12500000  1
  Mn  Mn3  1  0.12500000  0.12500000  0.12500000  1
  O  O0  1  0.36206700  0.36206700  0.36206700  1
  O  O1  1  0.33620100  0.88793300  0.88793300  1
  O  O2  1  0.88793300  0.88793300  0.33620100  1
  O  O3  1  0.88793300  0.33620100  0.88793300  1
  O  O4  1  0.36206700  0.36206700  0.91379900  1
  O  O5  1  0.36206700  0.91379900  0.36206700  1
  O  O6  1  0.88793300  0.88793300  0.88793300  1
  O  O7  1  0.91379900  0.36206700  0.36206700  1
loop_
_geom_bond_atom_site_label_1
_geom_bond_atom_site_label_2
_geom_bond_distance
_geom_bond_site_symmetry_2
Dy0 O6 2.161281 1_555
Dy0 O3 2.161281 1_555
Dy0 O2 2.161281 1_555
Dy0 O1 2.161281 1_555
Dy1 O5 2.161281 1_555
Dy1 O7 2.161281 1_555
Dy1 O4 2.161281 1_555
Dy1 O0 2.161281 1_555
Mn0 O0 2.151009 1_555
Mn0 O3 2.151009 1_455
Mn0 O1 2.151009 1_545
Mn0 O6 2.151009 1_445
Mn0 O5 2.151009 1_545
Mn0 O7 2.151009 1_455
Mn1 O0 2.151009 1_555
Mn1 O1 2.151009 1_554
Mn1 O2 2.151009 1_455
Mn1 O6 2.151009 1_454
Mn1 O4 2.151009 1_554
Mn1 O7 2.151009 1_455
Mn2 O0 2.151009 1_555
Mn2 O3 2.151009 1_554
Mn2 O2 2.151009 1_545
Mn2 O6 2.151009 1_544
Mn2 O4 2.151009 1_554
Mn2 O5 2.151009 1_545
Mn3 O7 2.151009 1_455
Mn3 O4 2.151009 1_554
Mn3 O5 2.151009 1_545
Mn3 O1 2.151009 1_544
Mn3 O2 2.151009 1_445
Mn3 O3 2.151009 1_454
