# generated using pymatgen
data_KCa3Mg3Al(SiO3)8
_symmetry_space_group_name_H-M   'P 1'
_cell_length_a   9.00156100
_cell_length_b   5.32344400
_cell_length_c   9.78370807
_cell_angle_alpha   74.71824925
_cell_angle_beta   90.00000000
_cell_angle_gamma   90.00000000
_symmetry_Int_Tables_number   1
_chemical_formula_structural   KCa3Mg3Al(SiO3)8
_chemical_formula_sum   'K1 Ca3 Mg3 Al1 Si8 O24'
_cell_volume   452.25138761
_cell_formula_units_Z   1
loop_
 _symmetry_equiv_pos_site_id
 _symmetry_equiv_pos_as_xyz
  1  'x, y, z'
loop_
 _atom_site_type_symbol
 _atom_site_label
 _atom_site_symmetry_multiplicity
 _atom_site_fract_x
 _atom_site_fract_y
 _atom_site_fract_z
 _atom_site_occupancy
  K  K0  1  0.81114900  0.50000000  0.50000000  1
  Ca  Ca0  1  0.30172800  0.00000000  0.00000000  1
  Ca  Ca1  1  0.19406300  0.00000000  0.50000000  1
  Ca  Ca2  1  0.69570700  0.50000000  0.00000000  1
  Mg  Mg0  1  0.40651800  0.50000000  0.50000000  1
  Mg  Mg1  1  0.90532600  0.00000000  0.00000000  1
  Mg  Mg2  1  0.09147300  0.50000000  0.00000000  1
  Al  Al0  1  0.59828500  0.00000000  0.50000000  1
  Si  Si0  1  0.09266400  0.68660200  0.28498000  1
  Si  Si1  1  0.59331800  0.18439200  0.78186500  1
  Si  Si2  1  0.09266400  0.31339800  0.71502000  1
  Si  Si3  1  0.59331800  0.81560800  0.21813500  1
  Si  Si4  1  0.90339700  0.81580200  0.71419900  1
  Si  Si5  1  0.41017900  0.30716400  0.21584200  1
  Si  Si6  1  0.90339700  0.18419800  0.28580100  1
  Si  Si7  1  0.41017900  0.69283600  0.78415800  1
  O  O0  1  0.01919400  0.38669800  0.34264400  1
  O  O1  1  0.52048700  0.88663600  0.85506900  1
  O  O2  1  0.01919400  0.61330200  0.65735600  1
  O  O3  1  0.52048700  0.11336400  0.14493100  1
  O  O4  1  0.98869100  0.10245200  0.65332400  1
  O  O5  1  0.48135100  0.60834800  0.15839800  1
  O  O6  1  0.98869100  0.89754800  0.34667600  1
  O  O7  1  0.48135100  0.39165200  0.84160200  1
  O  O8  1  0.08961000  0.77523900  0.11310300  1
  O  O9  1  0.57541800  0.24751400  0.61063600  1
  O  O10  1  0.08961000  0.22476100  0.88689700  1
  O  O11  1  0.57541800  0.75248600  0.38936400  1
  O  O12  1  0.90450200  0.72549300  0.88610100  1
  O  O13  1  0.42520700  0.21270800  0.38823200  1
  O  O14  1  0.90450200  0.27450700  0.11389900  1
  O  O15  1  0.42520700  0.78729200  0.61176800  1
  O  O16  1  0.24834600  0.69830600  0.36408800  1
  O  O17  1  0.74904200  0.21281100  0.85617700  1
  O  O18  1  0.24834600  0.30169400  0.63591200  1
  O  O19  1  0.74904200  0.78718900  0.14382300  1
  O  O20  1  0.74326500  0.82658300  0.63728600  1
  O  O21  1  0.25320300  0.29091700  0.14138000  1
  O  O22  1  0.74326500  0.17341700  0.36271400  1
  O  O23  1  0.25320300  0.70908300  0.85862000  1
loop_
_geom_bond_atom_site_label_1
_geom_bond_atom_site_label_2
_geom_bond_distance
_geom_bond_site_symmetry_2
K0 O20 2.535936 1_555
K0 O22 2.535936 1_555
K0 O9 2.591136 1_555
K0 O11 2.591136 1_555
K0 O0 2.594327 1_655
K0 O2 2.594327 1_655
K0 O6 2.758569 1_555
K0 O4 2.758569 1_555
Ca0 O10 2.367269 1_554
Ca0 O8 2.367269 1_545
Ca0 O23 2.373122 1_544
Ca0 O21 2.373122 1_555
Ca0 O1 2.589118 1_544
Ca0 O3 2.589118 1_555
Ca0 O5 2.767620 1_545
Ca0 O7 2.767620 1_554
Ca1 O16 2.389994 1_545
Ca1 O18 2.389994 1_555
Ca1 O13 2.480801 1_555
Ca1 O15 2.480801 1_545
Ca1 O6 2.529137 1_445
Ca1 O4 2.529137 1_455
Ca1 O0 2.723051 1_555
Ca1 O2 2.723051 1_545
Ca2 O14 2.347353 1_555
Ca2 O12 2.347353 1_554
Ca2 O19 2.383656 1_555
Ca2 O17 2.383656 1_554
Ca2 O5 2.632225 1_555
Ca2 O7 2.632225 1_554
Ca2 O1 2.682582 1_554
Ca2 O3 2.682582 1_555
Mg0 O16 2.042018 1_555
Mg0 O18 2.042018 1_555
Mg0 O15 2.108231 1_555
Mg0 O13 2.108231 1_555
Mg0 O9 2.126696 1_555
Mg0 O11 2.126696 1_555
Mg1 O12 2.058082 1_544
Mg1 O14 2.058082 1_555
Mg1 O19 2.098144 1_545
Mg1 O17 2.098144 1_554
Mg1 O10 2.170240 1_654
Mg1 O8 2.170240 1_645
Mg2 O10 2.055799 1_554
Mg2 O8 2.055799 1_555
Mg2 O23 2.111875 1_554
Mg2 O21 2.111875 1_555
Mg2 O14 2.193219 1_455
Mg2 O12 2.193219 1_454
Al0 O9 1.924053 1_555
Al0 O11 1.924053 1_545
Al0 O22 1.925062 1_555
Al0 O20 1.925062 1_545
Al0 O15 2.062164 1_545
Al0 O13 2.062164 1_555
O0 Si0 1.682187 1_555
O0 Si6 1.695255 1_455
O1 Si1 1.690216 1_565
O1 Si7 1.705557 1_555
O2 Si2 1.682187 1_555
O2 Si4 1.695255 1_455
O3 Si3 1.690216 1_545
O3 Si5 1.705557 1_555
O4 Si4 1.671435 1_545
O4 Si2 1.690752 1_655
O5 Si5 1.679879 1_555
O5 Si3 1.707240 1_555
O6 Si6 1.671435 1_565
O6 Si0 1.690752 1_655
O7 Si7 1.679879 1_555
O7 Si1 1.707240 1_555
O8 Si0 1.622621 1_555
O9 Si1 1.627457 1_555
O10 Si2 1.622621 1_555
O11 Si3 1.627457 1_555
O12 Si4 1.622835 1_555
O13 Si5 1.633632 1_555
O14 Si6 1.622835 1_555
O15 Si7 1.633632 1_555
O16 Si0 1.610031 1_555
O17 Si1 1.604492 1_555
O18 Si2 1.610031 1_555
O19 Si3 1.604492 1_555
O20 Si4 1.620037 1_555
O21 Si5 1.602523 1_555
O22 Si6 1.620037 1_555
O23 Si7 1.602523 1_555
