# generated using pymatgen
data_Ca7OsN6
_symmetry_space_group_name_H-M   'P 1'
_cell_length_a   11.04632993
_cell_length_b   6.31269638
_cell_length_c   13.36048490
_cell_angle_alpha   90.00000000
_cell_angle_beta   90.00000000
_cell_angle_gamma   90.00000000
_symmetry_Int_Tables_number   1
_chemical_formula_structural   Ca7OsN6
_chemical_formula_sum   'Ca28 Os4 N24'
_cell_volume   931.65502931
_cell_formula_units_Z   4
loop_
 _symmetry_equiv_pos_site_id
 _symmetry_equiv_pos_as_xyz
  1  'x, y, z'
loop_
 _atom_site_type_symbol
 _atom_site_label
 _atom_site_symmetry_multiplicity
 _atom_site_fract_x
 _atom_site_fract_y
 _atom_site_fract_z
 _atom_site_occupancy
  Ca  Ca0  1  0.03587580  0.72591078  0.98159920  1
  Ca  Ca1  1  0.46412420  0.77408922  0.48159920  1
  Ca  Ca2  1  0.53587580  0.77408922  0.01840080  1
  Ca  Ca3  1  0.96412420  0.72591078  0.51840080  1
  Ca  Ca4  1  0.96412420  0.27408922  0.01840080  1
  Ca  Ca5  1  0.53587580  0.22591078  0.51840080  1
  Ca  Ca6  1  0.46412420  0.22591078  0.98159920  1
  Ca  Ca7  1  0.03587580  0.27408922  0.48159920  1
  Ca  Ca8  1  0.22267918  0.86779840  0.62928586  1
  Ca  Ca9  1  0.27732082  0.63220160  0.12928586  1
  Ca  Ca10  1  0.72267918  0.63220160  0.37071414  1
  Ca  Ca11  1  0.77732082  0.86779840  0.87071414  1
  Ca  Ca12  1  0.77732082  0.13220160  0.37071414  1
  Ca  Ca13  1  0.72267918  0.36779840  0.87071414  1
  Ca  Ca14  1  0.27732082  0.36779840  0.62928586  1
  Ca  Ca15  1  0.22267918  0.13220160  0.12928586  1
  Ca  Ca16  1  0.28980021  0.59959209  0.88839528  1
  Ca  Ca17  1  0.21019979  0.90040791  0.38839528  1
  Ca  Ca18  1  0.78980021  0.90040791  0.11160472  1
  Ca  Ca19  1  0.71019979  0.59959209  0.61160472  1
  Ca  Ca20  1  0.71019979  0.40040791  0.11160472  1
  Ca  Ca21  1  0.78980021  0.09959209  0.61160472  1
  Ca  Ca22  1  0.21019979  0.09959209  0.88839528  1
  Ca  Ca23  1  0.28980021  0.40040791  0.38839528  1
  Ca  Ca24  1  -0.00000000  0.43614735  0.75000000  1
  Ca  Ca25  1  0.50000000  0.06385265  0.25000000  1
  Ca  Ca26  1  -0.00000000  0.56385265  0.25000000  1
  Ca  Ca27  1  0.50000000  0.93614735  0.75000000  1
  Os  Os0  1  -0.00000000  0.92624604  0.75000000  1
  Os  Os1  1  0.50000000  0.57375396  0.25000000  1
  Os  Os2  1  -0.00000000  0.07375396  0.25000000  1
  Os  Os3  1  0.50000000  0.42624604  0.75000000  1
  N  N0  1  0.12896694  0.74227723  0.79903459  1
  N  N1  1  0.37103306  0.75772277  0.29903459  1
  N  N2  1  0.62896694  0.75772277  0.20096541  1
  N  N3  1  0.87103306  0.74227723  0.70096541  1
  N  N4  1  0.87103306  0.25772277  0.20096541  1
  N  N5  1  0.62896694  0.24227723  0.70096541  1
  N  N6  1  0.37103306  0.24227723  0.79903459  1
  N  N7  1  0.12896694  0.25772277  0.29903459  1
  N  N8  1  0.16777963  0.59500523  0.51282728  1
  N  N9  1  0.33222037  0.90499477  0.01282728  1
  N  N10  1  0.66777963  0.90499477  0.48717272  1
  N  N11  1  0.83222037  0.59500523  0.98717272  1
  N  N12  1  0.83222037  0.40499477  0.48717272  1
  N  N13  1  0.66777963  0.09500523  0.98717272  1
  N  N14  1  0.33222037  0.09500523  0.51282728  1
  N  N15  1  0.16777963  0.40499477  0.01282728  1
  N  N16  1  0.46896878  0.60462613  0.63672397  1
  N  N17  1  0.03103122  0.89537387  0.13672397  1
  N  N18  1  0.96896878  0.89537387  0.36327603  1
  N  N19  1  0.53103122  0.60462613  0.86327603  1
  N  N20  1  0.53103122  0.39537387  0.36327603  1
  N  N21  1  0.96896878  0.10462613  0.86327603  1
  N  N22  1  0.03103122  0.10462613  0.63672397  1
  N  N23  1  0.46896878  0.39537387  0.13672397  1
loop_
_geom_bond_atom_site_label_1
_geom_bond_atom_site_label_2
_geom_bond_distance
_geom_bond_site_symmetry_2
Ca0 N17 2.332960 1_556
Ca0 N11 2.397776 1_455
Ca0 N15 2.530045 1_556
Ca0 N0 2.649069 1_555
Ca0 N21 2.959874 1_465
Ca1 N16 2.332960 1_555
Ca1 N10 2.397776 1_555
Ca1 N14 2.530045 1_565
Ca1 N1 2.649069 1_555
Ca1 N20 2.959874 1_555
Ca2 N19 2.332960 1_554
Ca2 N9 2.397776 1_555
Ca2 N13 2.530045 1_564
Ca2 N2 2.649069 1_555
Ca2 N23 2.959874 1_555
Ca3 N18 2.332960 1_555
Ca3 N8 2.397776 1_655
Ca3 N12 2.530045 1_555
Ca3 N3 2.649069 1_555
Ca3 N22 2.959874 1_665
Ca4 N21 2.332960 1_554
Ca4 N15 2.397776 1_655
Ca4 N11 2.530045 1_554
Ca4 N4 2.649069 1_555
Ca4 N17 2.959874 1_645
Ca5 N20 2.332960 1_555
Ca5 N14 2.397776 1_555
Ca5 N10 2.530045 1_545
Ca5 N5 2.649069 1_555
Ca5 N16 2.959874 1_555
Ca6 N23 2.332960 1_556
Ca6 N13 2.397776 1_555
Ca6 N9 2.530045 1_546
Ca6 N6 2.649069 1_555
Ca6 N19 2.959874 1_555
Ca7 N22 2.332960 1_555
Ca7 N12 2.397776 1_455
Ca7 N8 2.530045 1_555
Ca7 N7 2.649069 1_555
Ca7 N18 2.959874 1_445
Ca8 N8 2.398795 1_555
Ca8 N14 2.437685 1_565
Ca8 N22 2.593585 1_565
Ca8 N0 2.615901 1_555
Ca9 N9 2.398795 1_555
Ca9 N15 2.437685 1_555
Ca9 N23 2.593585 1_555
Ca9 N1 2.615901 1_555
Ca10 N10 2.398795 1_555
Ca10 N12 2.437685 1_555
Ca10 N20 2.593585 1_555
Ca10 N2 2.615901 1_555
Ca11 N11 2.398795 1_555
Ca11 N13 2.437685 1_565
Ca11 N21 2.593585 1_565
Ca11 N3 2.615901 1_555
Ca12 N12 2.398795 1_555
Ca12 N10 2.437685 1_545
Ca12 N18 2.593585 1_545
Ca12 N4 2.615901 1_555
Ca13 N13 2.398795 1_555
Ca13 N11 2.437685 1_555
Ca13 N19 2.593585 1_555
Ca13 N5 2.615901 1_555
Ca14 N14 2.398795 1_555
Ca14 N8 2.437685 1_555
Ca14 N16 2.593585 1_555
Ca14 N6 2.615901 1_555
Ca15 N15 2.398795 1_555
Ca15 N9 2.437685 1_545
Ca15 N17 2.593585 1_545
Ca15 N7 2.615901 1_555
Ca16 N0 2.322301 1_555
Ca16 N15 2.467720 1_556
Ca16 N9 2.588482 1_556
Ca16 N19 2.685956 1_555
Ca16 N6 2.705257 1_555
Ca17 N1 2.322301 1_555
Ca17 N14 2.467720 1_565
Ca17 N8 2.588482 1_555
Ca17 N18 2.685956 1_455
Ca17 N7 2.705257 1_565
Ca18 N2 2.322301 1_555
Ca18 N13 2.467720 1_564
Ca18 N11 2.588482 1_554
Ca18 N17 2.685956 1_655
Ca18 N4 2.705257 1_565
Ca19 N3 2.322301 1_555
Ca19 N12 2.467720 1_555
Ca19 N10 2.588482 1_555
Ca19 N16 2.685956 1_555
Ca19 N5 2.705257 1_555
Ca20 N4 2.322301 1_555
Ca20 N11 2.467720 1_554
Ca20 N13 2.588482 1_554
Ca20 N23 2.685956 1_555
Ca20 N2 2.705257 1_555
Ca21 N5 2.322301 1_555
Ca21 N10 2.467720 1_545
Ca21 N12 2.588482 1_555
Ca21 N22 2.685956 1_655
Ca21 N3 2.705257 1_545
Ca22 N6 2.322301 1_555
Ca22 N9 2.467720 1_546
Ca22 N15 2.588482 1_556
Ca22 N21 2.685956 1_455
Ca22 N0 2.705257 1_545
Ca23 N7 2.322301 1_555
Ca23 N8 2.467720 1_555
Ca23 N14 2.588482 1_555
Ca23 N20 2.685956 1_555
Ca23 N1 2.705257 1_555
Ca24 N0 2.488631 1_555
Ca24 N3 2.488631 1_455
Ca24 N21 2.605327 1_455
Ca24 N22 2.605327 1_555
Ca25 N1 2.488631 1_545
Ca25 N2 2.488631 1_545
Ca25 N23 2.605327 1_555
Ca25 N20 2.605327 1_555
Ca26 N4 2.488631 1_455
Ca26 N7 2.488631 1_555
Ca26 N17 2.605327 1_555
Ca26 N18 2.605327 1_455
Ca27 N5 2.488631 1_565
Ca27 N6 2.488631 1_565
Ca27 N19 2.605327 1_555
Ca27 N16 2.605327 1_555
N0 Os0 1.951260 1_555
N1 Os1 1.951260 1_555
N2 Os1 1.951260 1_555
N3 Os0 1.951260 1_655
N4 Os2 1.951260 1_655
N5 Os3 1.951260 1_555
N6 Os3 1.951260 1_555
N7 Os2 1.951260 1_555
N16 Os3 1.917278 1_555
N17 Os2 1.917278 1_565
N18 Os2 1.917278 1_665
N19 Os3 1.917278 1_555
N20 Os1 1.917278 1_555
N21 Os0 1.917278 1_645
N22 Os0 1.917278 1_545
N23 Os1 1.917278 1_555
