# generated using pymatgen
data_Rb11Mn8O16
_symmetry_space_group_name_H-M   'P 1'
_cell_length_a   11.92446158
_cell_length_b   11.92446158
_cell_length_c   23.62950843
_cell_angle_alpha   97.89230509
_cell_angle_beta   97.89230509
_cell_angle_gamma   117.11687643
_symmetry_Int_Tables_number   1
_chemical_formula_structural   Rb11Mn8O16
_chemical_formula_sum   'Rb44 Mn32 O64'
_cell_volume   2885.14087764
_cell_formula_units_Z   4
loop_
 _symmetry_equiv_pos_site_id
 _symmetry_equiv_pos_as_xyz
  1  'x, y, z'
loop_
 _atom_site_type_symbol
 _atom_site_label
 _atom_site_symmetry_multiplicity
 _atom_site_fract_x
 _atom_site_fract_y
 _atom_site_fract_z
 _atom_site_occupancy
  Rb  Rb0  1  0.32299617  0.67700383  0.00000000  1
  Rb  Rb1  1  0.67700383  0.32299617  0.00000000  1
  Rb  Rb2  1  0.90831867  0.09168133  0.50000000  1
  Rb  Rb3  1  0.59168133  0.40831867  0.50000000  1
  Rb  Rb4  1  0.60270879  0.92691923  0.54316753  1
  Rb  Rb5  1  0.94045874  0.61624830  0.54316753  1
  Rb  Rb6  1  0.38375170  0.05954126  0.45683247  1
  Rb  Rb7  1  0.07308077  0.39729121  0.45683247  1
  Rb  Rb8  1  0.40371568  0.22435767  0.13882727  1
  Rb  Rb9  1  0.73511160  0.91446960  0.13882727  1
  Rb  Rb10  1  0.08553040  0.26488840  0.86117273  1
  Rb  Rb11  1  0.77564233  0.59628432  0.86117273  1
  Rb  Rb12  1  0.95593333  0.78422429  0.22695539  1
  Rb  Rb13  1  0.27102206  0.44273111  0.22695539  1
  Rb  Rb14  1  0.55726889  0.72897794  0.77304461  1
  Rb  Rb15  1  0.21577571  0.04406667  0.77304461  1
  Rb  Rb16  1  0.88404357  0.21377642  0.08888745  1
  Rb  Rb17  1  0.20484388  0.87511103  0.08888745  1
  Rb  Rb18  1  0.12488897  0.79515612  0.91111255  1
  Rb  Rb19  1  0.78622358  0.11595643  0.91111255  1
  Rb  Rb20  1  0.03136925  0.86422511  0.40413593  1
  Rb  Rb21  1  0.37276668  0.53991082  0.40413593  1
  Rb  Rb22  1  0.46008918  0.62723332  0.59586407  1
  Rb  Rb23  1  0.13577489  0.96863075  0.59586407  1
  Rb  Rb24  1  0.96894945  0.30552503  0.28110380  1
  Rb  Rb25  1  0.31215435  0.97557877  0.28110380  1
  Rb  Rb26  1  0.02442123  0.68784565  0.71889620  1
  Rb  Rb27  1  0.69447497  0.03105055  0.71889620  1
  Rb  Rb28  1  0.50509708  0.85389969  0.35411499  1
  Rb  Rb29  1  0.84901791  0.50021530  0.35411499  1
  Rb  Rb30  1  0.49978470  0.15098209  0.64588501  1
  Rb  Rb31  1  0.14610031  0.49490292  0.64588501  1
  Rb  Rb32  1  0.84306374  0.68623962  0.03573021  1
  Rb  Rb33  1  0.19266648  0.34949059  0.03573021  1
  Rb  Rb34  1  0.65050941  0.80733352  0.96426979  1
  Rb  Rb35  1  0.31376038  0.15693626  0.96426979  1
  Rb  Rb36  1  0.42905964  0.74624383  0.18008580  1
  Rb  Rb37  1  0.75102617  0.43384198  0.18008580  1
  Rb  Rb38  1  0.56615802  0.24897383  0.81991420  1
  Rb  Rb39  1  0.25375617  0.57094036  0.81991420  1
  Rb  Rb40  1  0.83586635  0.98372568  0.32368169  1
  Rb  Rb41  1  0.48781533  0.33995601  0.32368169  1
  Rb  Rb42  1  0.66004399  0.51218467  0.67631831  1
  Rb  Rb43  1  0.01627432  0.16413365  0.67631831  1
  Mn  Mn0  1  0.00000000  0.00000000  0.00000000  1
  Mn  Mn1  1  0.50000000  0.50000000  0.00000000  1
  Mn  Mn2  1  0.18818220  0.18818220  0.37636440  1
  Mn  Mn3  1  0.81181780  0.81181780  0.62363560  1
  Mn  Mn4  1  0.62476186  0.62476186  0.24952373  1
  Mn  Mn5  1  0.37523814  0.37523814  0.75047627  1
  Mn  Mn6  1  0.06333834  0.06333834  0.12667667  1
  Mn  Mn7  1  0.93666166  0.93666166  0.87332333  1
  Mn  Mn8  1  0.25102630  0.25102630  0.50205260  1
  Mn  Mn9  1  0.74897370  0.74897370  0.49794740  1
  Mn  Mn10  1  0.12492692  0.12492692  0.24985383  1
  Mn  Mn11  1  0.87507308  0.87507308  0.75014617  1
  Mn  Mn12  1  0.56177356  0.56177356  0.12354712  1
  Mn  Mn13  1  0.43822644  0.43822644  0.87645288  1
  Mn  Mn14  1  0.31281326  0.31281326  0.62562652  1
  Mn  Mn15  1  0.68718674  0.68718674  0.37437348  1
  Mn  Mn16  1  0.90517350  0.40517350  0.81034699  1
  Mn  Mn17  1  0.59482650  0.09482650  0.18965301  1
  Mn  Mn18  1  0.09308330  0.59308330  0.18616661  1
  Mn  Mn19  1  0.40691670  0.90691670  0.81383339  1
  Mn  Mn20  1  0.15611540  0.65611540  0.31223080  1
  Mn  Mn21  1  0.34388460  0.84388460  0.68776920  1
  Mn  Mn22  1  0.96832299  0.46832299  0.93664599  1
  Mn  Mn23  1  0.53167701  0.03167701  0.06335401  1
  Mn  Mn24  1  0.21943876  0.71943876  0.43887753  1
  Mn  Mn25  1  0.28056124  0.78056124  0.56112247  1
  Mn  Mn26  1  0.78157295  0.28157295  0.56314591  1
  Mn  Mn27  1  0.71842705  0.21842705  0.43685409  1
  Mn  Mn28  1  0.03112988  0.53112988  0.06225976  1
  Mn  Mn29  1  0.46887012  0.96887012  0.93774024  1
  Mn  Mn30  1  0.84345480  0.34345480  0.68690959  1
  Mn  Mn31  1  0.65654520  0.15654520  0.31309041  1
  O  O0  1  0.32437728  0.67562272  0.50000000  1
  O  O1  1  0.17562272  0.82437728  0.50000000  1
  O  O2  1  0.64535883  0.14535883  0.50000000  1
  O  O3  1  0.85464117  0.35464117  0.50000000  1
  O  O4  1  0.49377255  0.48399118  0.18656002  1
  O  O5  1  0.69278746  0.70256884  0.18656002  1
  O  O6  1  0.29743116  0.30721254  0.81343998  1
  O  O7  1  0.51600882  0.50622745  0.81343998  1
  O  O8  1  0.37167455  0.94536031  0.00551879  1
  O  O9  1  0.63384424  0.06015849  0.00551879  1
  O  O10  1  0.93984151  0.36615576  0.99448121  1
  O  O11  1  0.05463969  0.62832545  0.99448121  1
  O  O12  1  0.09147282  0.02885688  0.31851792  1
  O  O13  1  0.22704510  0.28966103  0.31851792  1
  O  O14  1  0.71033897  0.77295490  0.68148208  1
  O  O15  1  0.97114312  0.90852718  0.68148208  1
  O  O16  1  0.65664646  0.17678196  0.12608011  1
  O  O17  1  0.46943365  0.94929816  0.12608011  1
  O  O18  1  0.05070184  0.53056635  0.87391989  1
  O  O19  1  0.82321804  0.34335354  0.87391989  1
  O  O20  1  0.52235918  0.60421528  0.30725665  1
  O  O21  1  0.78489747  0.70304137  0.30725665  1
  O  O22  1  0.29695863  0.21510253  0.69274335  1
  O  O23  1  0.39578472  0.47764082  0.69274335  1
  O  O24  1  0.81947574  0.22510516  0.37943690  1
  O  O25  1  0.55996117  0.15433174  0.37943690  1
  O  O26  1  0.84566826  0.44003883  0.62056310  1
  O  O27  1  0.77489484  0.18052426  0.62056310  1
  O  O28  1  0.11131424  0.55511724  0.36921445  1
  O  O29  1  0.25790021  0.81409721  0.36921445  1
  O  O30  1  0.18590279  0.74209979  0.63078555  1
  O  O31  1  0.44488276  0.88868576  0.63078555  1
  O  O32  1  0.90377398  0.95092129  0.05958323  1
  O  O33  1  0.15580925  0.10866194  0.05958323  1
  O  O34  1  0.89133806  0.84419075  0.94041677  1
  O  O35  1  0.04907871  0.09622602  0.94041677  1
  O  O36  1  0.33700585  0.30708961  0.43892834  1
  O  O37  1  0.10192249  0.13183873  0.43892834  1
  O  O38  1  0.86816127  0.89807751  0.56107166  1
  O  O39  1  0.69291039  0.66299415  0.56107166  1
  O  O40  1  0.55461311  0.65979028  0.06595719  1
  O  O41  1  0.51134408  0.40616691  0.06595719  1
  O  O42  1  0.59383309  0.48865592  0.93404281  1
  O  O43  1  0.34020972  0.44538689  0.93404281  1
  O  O44  1  0.00385793  0.54299404  0.24917473  1
  O  O45  1  0.24531680  0.70618069  0.24917473  1
  O  O46  1  0.29381931  0.75468320  0.75082527  1
  O  O47  1  0.45700596  0.99614207  0.75082527  1
  O  O48  1  0.62967327  0.24454636  0.24689331  1
  O  O49  1  0.61722004  0.00234695  0.24689331  1
  O  O50  1  0.99765305  0.38277996  0.75310669  1
  O  O51  1  0.75545364  0.37032673  0.75310669  1
  O  O52  1  0.00303591  0.14617288  0.18629431  1
  O  O53  1  0.18325840  0.04012143  0.18629431  1
  O  O54  1  0.95987857  0.81674160  0.81370569  1
  O  O55  1  0.85382712  0.99696409  0.81370569  1
  O  O56  1  0.96304790  0.59495455  0.12855230  1
  O  O57  1  0.16550440  0.53359775  0.12855230  1
  O  O58  1  0.46640225  0.83449560  0.87144770  1
  O  O59  1  0.40504545  0.03695210  0.87144770  1
  O  O60  1  0.39234748  0.26781077  0.55956777  1
  O  O61  1  0.16722029  0.29175700  0.55956777  1
  O  O62  1  0.70824300  0.83277971  0.44043223  1
  O  O63  1  0.73218923  0.60765252  0.44043223  1
loop_
_geom_bond_atom_site_label_1
_geom_bond_atom_site_label_2
_geom_bond_distance
_geom_bond_site_symmetry_2
Mn0 O34 1.923315 1_444
Mn0 O35 1.923315 1_554
Mn0 O32 1.923315 1_445
Mn0 O33 1.923315 1_555
Mn1 O41 2.063559 1_555
Mn1 O43 2.063559 1_554
Mn1 O40 2.063559 1_555
Mn1 O42 2.063559 1_554
Mn2 O13 1.914264 1_555
Mn2 O12 1.914264 1_555
Mn2 O37 1.937867 1_555
Mn2 O36 1.937867 1_555
Mn3 O14 1.914264 1_555
Mn3 O15 1.914264 1_555
Mn3 O39 1.937867 1_555
Mn3 O38 1.937867 1_555
Mn4 O20 1.920593 1_555
Mn4 O21 1.920593 1_555
Mn4 O4 1.938247 1_555
Mn4 O5 1.938247 1_555
Mn5 O23 1.920593 1_555
Mn5 O22 1.920593 1_555
Mn5 O7 1.938247 1_555
Mn5 O6 1.938247 1_555
Mn6 O53 2.005197 1_555
Mn6 O52 2.005197 1_555
Mn6 O33 2.047811 1_555
Mn6 O32 2.047811 1_445
Mn7 O54 2.005197 1_555
Mn7 O55 2.005197 1_555
Mn7 O34 2.047811 1_555
Mn7 O35 2.047811 1_665
Mn8 O60 1.927639 1_555
Mn8 O61 1.927639 1_555
Mn8 O36 1.947287 1_555
Mn8 O37 1.947287 1_555
Mn9 O63 1.927639 1_555
Mn9 O62 1.927639 1_555
Mn9 O39 1.947287 1_555
Mn9 O38 1.947287 1_555
Mn10 O53 2.067157 1_555
Mn10 O52 2.067157 1_555
Mn10 O13 2.091791 1_555
Mn10 O12 2.091791 1_555
Mn11 O54 2.067157 1_555
Mn11 O55 2.067157 1_555
Mn11 O14 2.091791 1_555
Mn11 O15 2.091791 1_555
Mn12 O41 1.929008 1_555
Mn12 O40 1.929008 1_555
Mn12 O5 1.939078 1_555
Mn12 O4 1.939078 1_555
Mn13 O43 1.929008 1_555
Mn13 O42 1.929008 1_555
Mn13 O6 1.939078 1_555
Mn13 O7 1.939078 1_555
Mn14 O60 2.065050 1_555
Mn14 O61 2.065050 1_555
Mn14 O22 2.073042 1_555
Mn14 O23 2.073042 1_555
Mn15 O63 2.065050 1_555
Mn15 O62 2.065050 1_555
Mn15 O21 2.073042 1_555
Mn15 O20 2.073042 1_555
Mn16 O50 1.922420 1_555
Mn16 O51 1.922420 1_555
Mn16 O18 1.950797 1_655
Mn16 O19 1.950797 1_555
Mn17 O49 1.922420 1_555
Mn17 O48 1.922420 1_555
Mn17 O17 1.950797 1_545
Mn17 O16 1.950797 1_555
Mn18 O56 1.928322 1_455
Mn18 O57 1.928322 1_555
Mn18 O44 1.950735 1_555
Mn18 O45 1.950735 1_555
Mn19 O59 1.928322 1_565
Mn19 O58 1.928322 1_555
Mn19 O47 1.950735 1_555
Mn19 O46 1.950735 1_555
Mn20 O29 1.898754 1_555
Mn20 O28 1.898754 1_555
Mn20 O45 1.951540 1_555
Mn20 O44 1.951540 1_555
Mn21 O31 1.898754 1_555
Mn21 O30 1.898754 1_555
Mn21 O47 1.951540 1_555
Mn21 O46 1.951540 1_555
Mn22 O10 1.916956 1_555
Mn22 O11 1.916956 1_655
Mn22 O19 1.936500 1_555
Mn22 O18 1.936500 1_655
Mn23 O9 1.916956 1_555
Mn23 O8 1.916956 1_545
Mn23 O16 1.936500 1_555
Mn23 O17 1.936500 1_545
Mn24 O1 2.057119 1_555
Mn24 O0 2.057119 1_555
Mn24 O28 2.107070 1_555
Mn24 O29 2.107070 1_555
Mn25 O1 2.057119 1_555
Mn25 O0 2.057119 1_555
Mn25 O31 2.107070 1_555
Mn25 O30 2.107070 1_555
Mn26 O26 1.920975 1_555
Mn26 O27 1.920975 1_555
Mn26 O2 1.940800 1_555
Mn26 O3 1.940800 1_555
Mn27 O25 1.920975 1_555
Mn27 O24 1.920975 1_555
Mn27 O3 1.940800 1_555
Mn27 O2 1.940800 1_555
Mn28 O56 2.068143 1_455
Mn28 O57 2.068143 1_555
Mn28 O10 2.079372 1_454
Mn28 O11 2.079372 1_554
Mn29 O58 2.068143 1_555
Mn29 O59 2.068143 1_565
Mn29 O9 2.079372 1_566
Mn29 O8 2.079372 1_556
Mn30 O26 2.065051 1_555
Mn30 O27 2.065051 1_555
Mn30 O50 2.066456 1_555
Mn30 O51 2.066456 1_555
Mn31 O25 2.065051 1_555
Mn31 O24 2.065051 1_555
Mn31 O49 2.066456 1_555
Mn31 O48 2.066456 1_555
O0 Rb22 2.878634 1_555
O0 Rb21 2.878634 1_555
O0 Rb4 3.193712 1_555
O0 Rb7 3.193712 1_555
O1 Rb20 2.878634 1_555
O1 Rb23 2.878634 1_555
O1 Rb6 3.193712 1_565
O1 Rb5 3.193712 1_455
O2 Rb6 2.783601 1_555
O2 Rb4 2.783601 1_545
O3 Rb7 2.783601 1_655
O3 Rb5 2.783601 1_555
O4 Rb8 2.772735 1_555
O4 Rb13 2.800424 1_555
O5 Rb9 2.772735 1_555
O5 Rb12 2.800424 1_555
O6 Rb10 2.772735 1_555
O6 Rb15 2.800424 1_555
O7 Rb11 2.772735 1_555
O7 Rb14 2.800424 1_555
O8 Rb17 2.924088 1_555
O8 Rb0 2.960623 1_555
O8 Rb18 3.023133 1_554
O8 Rb35 3.141801 1_564
O9 Rb16 2.924088 1_555
O9 Rb1 2.960622 1_555
O9 Rb19 3.023133 1_554
O9 Rb34 3.141801 1_544
O10 Rb19 2.924088 1_555
O10 Rb1 2.960622 1_556
O10 Rb16 3.023133 1_556
O10 Rb33 3.141801 1_656
O11 Rb18 2.924088 1_555
O11 Rb0 2.960623 1_556
O11 Rb17 3.023133 1_556
O11 Rb32 3.141801 1_456
O12 Rb40 2.866961 1_445
O12 Rb20 2.943952 1_545
O12 Rb12 2.968372 1_445
O12 Rb25 3.181001 1_545
O13 Rb41 2.866961 1_555
O13 Rb21 2.943952 1_555
O13 Rb13 2.968372 1_555
O13 Rb24 3.181001 1_455
O14 Rb42 2.866961 1_555
O14 Rb22 2.943952 1_555
O14 Rb14 2.968372 1_555
O14 Rb27 3.181001 1_565
O15 Rb43 2.866961 1_665
O15 Rb23 2.943952 1_655
O15 Rb15 2.968372 1_665
O15 Rb26 3.181001 1_655
O16 Rb37 2.770856 1_555
O16 Rb16 2.826682 1_555
O16 Rb8 3.357319 1_555
O17 Rb36 2.770856 1_555
O17 Rb17 2.826682 1_555
O17 Rb9 3.357320 1_555
O18 Rb39 2.770856 1_555
O18 Rb18 2.826682 1_555
O18 Rb10 3.357320 1_555
O19 Rb38 2.770856 1_555
O19 Rb19 2.826682 1_555
O19 Rb11 3.357319 1_555
O20 Rb13 2.909386 1_555
O20 Rb21 3.060556 1_555
O20 Rb41 3.073522 1_555
O20 Rb28 3.138300 1_555
O21 Rb12 2.909386 1_555
O21 Rb20 3.060556 1_655
O21 Rb40 3.073522 1_555
O21 Rb29 3.138300 1_555
O22 Rb15 2.909386 1_555
O22 Rb23 3.060556 1_545
O22 Rb43 3.073522 1_555
O22 Rb30 3.138300 1_555
O23 Rb14 2.909386 1_555
O23 Rb22 3.060556 1_555
O23 Rb42 3.073522 1_555
O23 Rb31 3.138300 1_555
O24 Rb7 2.914642 1_655
O24 Rb40 3.098518 1_545
O24 Rb24 3.112326 1_555
O24 Rb29 3.284432 1_555
O25 Rb6 2.914642 1_555
O25 Rb41 3.098518 1_555
O25 Rb25 3.112326 1_545
O25 Rb28 3.284432 1_545
O26 Rb5 2.914642 1_555
O26 Rb42 3.098518 1_555
O26 Rb26 3.112326 1_655
O26 Rb31 3.284432 1_655
O27 Rb4 2.914642 1_545
O27 Rb43 3.098518 1_655
O27 Rb27 3.112326 1_555
O27 Rb30 3.284432 1_555
O28 Rb29 2.846293 1_455
O28 Rb7 2.929720 1_555
O28 Rb24 2.965876 1_455
O28 Rb21 3.206816 1_555
O29 Rb28 2.846293 1_555
O29 Rb6 2.929720 1_565
O29 Rb25 2.965876 1_555
O29 Rb20 3.206816 1_555
O30 Rb31 2.846293 1_555
O30 Rb5 2.929720 1_455
O30 Rb26 2.965876 1_555
O30 Rb23 3.206816 1_555
O31 Rb30 2.846293 1_565
O31 Rb4 2.929720 1_555
O31 Rb27 2.965876 1_565
O31 Rb22 3.206816 1_555
O32 Rb32 2.849519 1_555
O32 Rb9 2.863730 1_555
O32 Rb34 3.079598 1_554
O32 Rb16 3.237329 1_565
O33 Rb33 2.849519 1_555
O33 Rb8 2.863730 1_555
O33 Rb35 3.079598 1_554
O33 Rb17 3.237329 1_545
O34 Rb34 2.849519 1_555
O34 Rb11 2.863730 1_555
O34 Rb32 3.079598 1_556
O34 Rb18 3.237329 1_655
O35 Rb35 2.849519 1_555
O35 Rb10 2.863730 1_555
O35 Rb33 3.079598 1_556
O35 Rb19 3.237329 1_455
O36 Rb3 2.781809 1_555
O36 Rb21 2.865178 1_555
O36 Rb6 3.313835 1_555
O37 Rb2 2.781809 1_455
O37 Rb20 2.865178 1_545
O37 Rb7 3.313835 1_555
O38 Rb2 2.781809 1_565
O38 Rb23 2.865178 1_655
O38 Rb4 3.313835 1_555
O39 Rb3 2.781809 1_555
O39 Rb22 2.865178 1_555
O39 Rb5 3.313835 1_555
O40 Rb9 2.899608 1_555
O40 Rb0 3.085748 1_555
O40 Rb34 3.202821 1_554
O41 Rb8 2.899608 1_555
O41 Rb1 3.085748 1_555
O41 Rb35 3.202821 1_554
O42 Rb11 2.899608 1_555
O42 Rb1 3.085748 1_556
O42 Rb32 3.202821 1_556
O43 Rb10 2.899608 1_555
O43 Rb0 3.085748 1_556
O43 Rb33 3.202821 1_556
O44 Rb37 2.817148 1_455
O44 Rb24 2.891258 1_455
O44 Rb29 3.250277 1_455
O44 Rb12 3.272257 1_455
O45 Rb36 2.817148 1_555
O45 Rb25 2.891258 1_555
O45 Rb28 3.250277 1_555
O45 Rb13 3.272257 1_555
O46 Rb39 2.817148 1_555
O46 Rb26 2.891258 1_555
O46 Rb31 3.250277 1_555
O46 Rb14 3.272257 1_555
O47 Rb38 2.817148 1_565
O47 Rb27 2.891258 1_565
O47 Rb30 3.250277 1_565
O47 Rb15 3.272257 1_565
O48 Rb37 2.882617 1_555
O48 Rb41 3.078725 1_555
O48 Rb8 3.344971 1_555
O48 Rb29 3.368163 1_555
O49 Rb36 2.882617 1_545
O49 Rb40 3.078725 1_545
O49 Rb9 3.344971 1_545
O49 Rb28 3.368163 1_545
O50 Rb39 2.882617 1_655
O50 Rb43 3.078725 1_655
O50 Rb10 3.344971 1_655
O50 Rb31 3.368163 1_655
O51 Rb38 2.882617 1_555
O51 Rb42 3.078725 1_555
O51 Rb11 3.344971 1_555
O51 Rb30 3.368163 1_555
O52 Rb24 2.929159 1_455
O52 Rb16 2.935355 1_455
O52 Rb9 3.035922 1_445
O52 Rb13 3.400342 1_555
O53 Rb25 2.929159 1_545
O53 Rb17 2.935355 1_545
O53 Rb8 3.035922 1_555
O53 Rb12 3.400342 1_445
O54 Rb26 2.929159 1_655
O54 Rb18 2.935355 1_655
O54 Rb11 3.035922 1_555
O54 Rb15 3.400342 1_665
O55 Rb27 2.929159 1_565
O55 Rb19 2.935355 1_565
O55 Rb10 3.035922 1_665
O55 Rb14 3.400342 1_555
O56 Rb37 2.936973 1_555
O56 Rb32 3.042414 1_555
O56 Rb12 3.048794 1_555
O57 Rb36 2.936973 1_555
O57 Rb33 3.042414 1_555
O57 Rb13 3.048794 1_555
O58 Rb39 2.936973 1_555
O58 Rb34 3.042414 1_555
O58 Rb14 3.048794 1_555
O59 Rb38 2.936973 1_555
O59 Rb35 3.042414 1_555
O59 Rb15 3.048794 1_555
O60 Rb3 2.893832 1_555
O60 Rb30 3.071145 1_555
O60 Rb6 3.180469 1_555
O61 Rb2 2.893832 1_455
O61 Rb31 3.071145 1_555
O61 Rb7 3.180469 1_555
O62 Rb2 2.893832 1_565
O62 Rb28 3.071145 1_555
O62 Rb4 3.180469 1_555
O63 Rb3 2.893832 1_555
O63 Rb29 3.071145 1_555
O63 Rb5 3.180469 1_555
