# generated using pymatgen
data_Cd3Au8
_symmetry_space_group_name_H-M   'P 1'
_cell_length_a   6.03818063
_cell_length_b   6.03818063
_cell_length_c   57.08546000
_cell_angle_alpha   90.00000000
_cell_angle_beta   90.00000000
_cell_angle_gamma   120.00000690
_symmetry_Int_Tables_number   1
_chemical_formula_structural   Cd3Au8
_chemical_formula_sum   'Cd24 Au64'
_cell_volume   1802.47109001
_cell_formula_units_Z   8
loop_
 _symmetry_equiv_pos_site_id
 _symmetry_equiv_pos_as_xyz
  1  'x, y, z'
loop_
 _atom_site_type_symbol
 _atom_site_label
 _atom_site_symmetry_multiplicity
 _atom_site_fract_x
 _atom_site_fract_y
 _atom_site_fract_z
 _atom_site_occupancy
  Cd  Cd0_0  1  0.00000000  0.00000000  0.35420150  1
  Cd  Cd0_1  1  0.00000000  0.00000000  0.85420150  1
  Cd  Cd0_2  1  0.00000000  0.50000000  0.35420150  1
  Cd  Cd0_3  1  0.00000000  0.50000000  0.85420150  1
  Cd  Cd0_4  1  0.50000000  0.00000000  0.35420150  1
  Cd  Cd0_5  1  0.50000000  0.00000000  0.85420150  1
  Cd  Cd0_6  1  0.50000000  0.50000000  0.35420150  1
  Cd  Cd0_7  1  0.50000000  0.50000000  0.85420150  1
  Cd  Cd1_0  1  0.00000000  0.00000000  0.27081250  1
  Cd  Cd1_1  1  0.00000000  0.00000000  0.77081250  1
  Cd  Cd1_2  1  0.00000000  0.50000000  0.27081250  1
  Cd  Cd1_3  1  0.00000000  0.50000000  0.77081250  1
  Cd  Cd1_4  1  0.50000000  0.00000000  0.27081250  1
  Cd  Cd1_5  1  0.50000000  0.00000000  0.77081250  1
  Cd  Cd1_6  1  0.50000000  0.50000000  0.27081250  1
  Cd  Cd1_7  1  0.50000000  0.50000000  0.77081250  1
  Cd  Cd2_0  1  0.00000000  0.00000000  0.18715600  1
  Cd  Cd2_1  1  0.00000000  0.00000000  0.68715600  1
  Cd  Cd2_2  1  0.00000000  0.50000000  0.18715600  1
  Cd  Cd2_3  1  0.00000000  0.50000000  0.68715600  1
  Cd  Cd2_4  1  0.50000000  0.00000000  0.18715600  1
  Cd  Cd2_5  1  0.50000000  0.00000000  0.68715600  1
  Cd  Cd2_6  1  0.50000000  0.50000000  0.18715600  1
  Cd  Cd2_7  1  0.50000000  0.50000000  0.68715600  1
  Au  Au0_0  1  0.00000000  0.00000000  0.10396050  1
  Au  Au0_1  1  0.00000000  0.00000000  0.60396050  1
  Au  Au0_2  1  0.00000000  0.50000000  0.10396050  1
  Au  Au0_3  1  0.00000000  0.50000000  0.60396050  1
  Au  Au0_4  1  0.50000000  0.00000000  0.10396050  1
  Au  Au0_5  1  0.50000000  0.00000000  0.60396050  1
  Au  Au0_6  1  0.50000000  0.50000000  0.10396050  1
  Au  Au0_7  1  0.50000000  0.50000000  0.60396050  1
  Au  Au1_0  1  0.00000000  0.00000000  0.02121550  1
  Au  Au1_1  1  0.00000000  0.00000000  0.52121550  1
  Au  Au1_2  1  0.00000000  0.50000000  0.02121550  1
  Au  Au1_3  1  0.00000000  0.50000000  0.52121550  1
  Au  Au1_4  1  0.50000000  0.00000000  0.02121550  1
  Au  Au1_5  1  0.50000000  0.00000000  0.52121550  1
  Au  Au1_6  1  0.50000000  0.50000000  0.02121550  1
  Au  Au1_7  1  0.50000000  0.50000000  0.52121550  1
  Au  Au2_0  1  0.33333350  0.16666650  0.47953250  1
  Au  Au2_1  1  0.33333350  0.16666650  0.97953250  1
  Au  Au2_2  1  0.33333350  0.66666650  0.47953250  1
  Au  Au2_3  1  0.33333350  0.66666650  0.97953250  1
  Au  Au2_4  1  0.83333350  0.16666650  0.47953250  1
  Au  Au2_5  1  0.83333350  0.16666650  0.97953250  1
  Au  Au2_6  1  0.83333350  0.66666650  0.47953250  1
  Au  Au2_7  1  0.83333350  0.66666650  0.97953250  1
  Au  Au3_0  1  0.33333350  0.16666650  0.39621200  1
  Au  Au3_1  1  0.33333350  0.16666650  0.89621200  1
  Au  Au3_2  1  0.33333350  0.66666650  0.39621200  1
  Au  Au3_3  1  0.33333350  0.66666650  0.89621200  1
  Au  Au3_4  1  0.83333350  0.16666650  0.39621200  1
  Au  Au3_5  1  0.83333350  0.16666650  0.89621200  1
  Au  Au3_6  1  0.83333350  0.66666650  0.39621200  1
  Au  Au3_7  1  0.83333350  0.66666650  0.89621200  1
  Au  Au4_0  1  0.33333350  0.16666650  0.31237100  1
  Au  Au4_1  1  0.33333350  0.16666650  0.81237100  1
  Au  Au4_2  1  0.33333350  0.66666650  0.31237100  1
  Au  Au4_3  1  0.33333350  0.66666650  0.81237100  1
  Au  Au4_4  1  0.83333350  0.16666650  0.31237100  1
  Au  Au4_5  1  0.83333350  0.16666650  0.81237100  1
  Au  Au4_6  1  0.83333350  0.66666650  0.31237100  1
  Au  Au4_7  1  0.83333350  0.66666650  0.81237100  1
  Au  Au5_0  1  0.33333350  0.16666650  0.22909700  1
  Au  Au5_1  1  0.33333350  0.16666650  0.72909700  1
  Au  Au5_2  1  0.33333350  0.66666650  0.22909700  1
  Au  Au5_3  1  0.33333350  0.66666650  0.72909700  1
  Au  Au5_4  1  0.83333350  0.16666650  0.22909700  1
  Au  Au5_5  1  0.83333350  0.16666650  0.72909700  1
  Au  Au5_6  1  0.83333350  0.66666650  0.22909700  1
  Au  Au5_7  1  0.83333350  0.66666650  0.72909700  1
  Au  Au6_0  1  0.33333350  0.16666650  0.14552150  1
  Au  Au6_1  1  0.33333350  0.16666650  0.64552150  1
  Au  Au6_2  1  0.33333350  0.66666650  0.14552150  1
  Au  Au6_3  1  0.33333350  0.66666650  0.64552150  1
  Au  Au6_4  1  0.83333350  0.16666650  0.14552150  1
  Au  Au6_5  1  0.83333350  0.16666650  0.64552150  1
  Au  Au6_6  1  0.83333350  0.66666650  0.14552150  1
  Au  Au6_7  1  0.83333350  0.66666650  0.64552150  1
  Au  Au7_0  1  0.33333350  0.16666650  0.06241900  1
  Au  Au7_1  1  0.33333350  0.16666650  0.56241900  1
  Au  Au7_2  1  0.33333350  0.66666650  0.06241900  1
  Au  Au7_3  1  0.33333350  0.66666650  0.56241900  1
  Au  Au7_4  1  0.83333350  0.16666650  0.06241900  1
  Au  Au7_5  1  0.83333350  0.16666650  0.56241900  1
  Au  Au7_6  1  0.83333350  0.66666650  0.06241900  1
  Au  Au7_7  1  0.83333350  0.66666650  0.56241900  1
loop_
_geom_bond_atom_site_label_1
_geom_bond_atom_site_label_2
_geom_bond_distance
_geom_bond_site_symmetry_2
Au0_0 Au7_4 2.943112 1_455
Au0_0 Au7_0 2.943113 1_555
Au0_0 Au7_6 2.943113 1_445
Au0_0 Au6_4 2.944009 1_455
Au0_0 Au6_6 2.944010 1_445
Au0_0 Au6_0 2.944010 1_555
Au0_0 Au0_6 3.019090 1_445
Au0_0 Au0_6 3.019090 1_555
Au0_0 Au0_4 3.019090 1_555
Au0_0 Au0_2 3.019090 1_555
Au0_0 Au0_2 3.019090 1_545
Au0_0 Au0_4 3.019090 1_455
Au0_1 Au7_5 2.943112 1_455
Au0_1 Au7_7 2.943113 1_445
Au0_1 Au7_1 2.943113 1_555
Au0_1 Au6_5 2.944009 1_455
Au0_1 Au6_7 2.944010 1_445
Au0_1 Au6_1 2.944010 1_555
Au0_1 Au0_7 3.019090 1_445
Au0_1 Au0_7 3.019090 1_555
Au0_1 Au0_5 3.019090 1_555
Au0_1 Au0_5 3.019090 1_455
Au0_1 Au0_3 3.019090 1_545
Au0_1 Au0_3 3.019090 1_555
Au0_2 Au7_6 2.943112 1_455
Au0_2 Au7_2 2.943113 1_555
Au0_2 Au7_4 2.943113 1_455
Au0_2 Au6_6 2.944009 1_455
Au0_2 Au6_4 2.944010 1_455
Au0_2 Au6_2 2.944010 1_555
Au0_2 Au0_4 3.019090 1_565
Au0_2 Au0_4 3.019090 1_455
Au0_2 Au0_6 3.019090 1_455
Au0_2 Au0_6 3.019090 1_555
Au0_3 Au7_7 2.943112 1_455
Au0_3 Au7_3 2.943113 1_555
Au0_3 Au7_5 2.943113 1_455
Au0_3 Au6_7 2.944009 1_455
Au0_3 Au6_3 2.944010 1_555
Au0_3 Au6_5 2.944010 1_455
Au0_3 Au0_5 3.019090 1_565
Au0_3 Au0_5 3.019090 1_455
Au0_3 Au0_7 3.019090 1_555
Au0_3 Au0_7 3.019090 1_455
Au0_4 Au7_0 2.943112 1_555
Au0_4 Au7_4 2.943113 1_555
Au0_4 Au7_2 2.943113 1_545
Au0_4 Au6_0 2.944009 1_555
Au0_4 Au6_4 2.944010 1_555
Au0_4 Au6_2 2.944010 1_545
Au0_4 Au0_6 3.019090 1_555
Au0_4 Au0_6 3.019090 1_545
Au0_5 Au7_1 2.943112 1_555
Au0_5 Au7_5 2.943113 1_555
Au0_5 Au7_3 2.943113 1_545
Au0_5 Au6_1 2.944009 1_555
Au0_5 Au6_5 2.944010 1_555
Au0_5 Au6_3 2.944010 1_545
Au0_5 Au0_7 3.019090 1_555
Au0_5 Au0_7 3.019090 1_545
Au0_6 Au7_2 2.943112 1_555
Au0_6 Au7_0 2.943113 1_555
Au0_6 Au7_6 2.943113 1_555
Au0_6 Au6_2 2.944009 1_555
Au0_6 Au6_6 2.944010 1_555
Au0_6 Au6_0 2.944010 1_555
Au0_7 Au7_3 2.943112 1_555
Au0_7 Au7_1 2.943113 1_555
Au0_7 Au7_7 2.943113 1_555
Au0_7 Au6_3 2.944009 1_555
Au0_7 Au6_7 2.944010 1_555
Au0_7 Au6_1 2.944010 1_555
Au1_0 Au7_4 2.927587 1_455
Au1_0 Au7_6 2.927589 1_445
Au1_0 Au7_0 2.927589 1_555
Au1_0 Au2_5 2.949624 1_454
Au1_0 Au2_7 2.949626 1_444
Au1_0 Au2_1 2.949626 1_554
Au1_0 Au1_6 3.019090 1_445
Au1_0 Au1_6 3.019090 1_555
Au1_0 Au1_4 3.019090 1_555
Au1_0 Au1_4 3.019090 1_455
Au1_0 Au1_2 3.019090 1_545
Au1_0 Au1_2 3.019090 1_555
Au1_1 Au7_5 2.927587 1_455
Au1_1 Au7_7 2.927589 1_445
Au1_1 Au7_1 2.927589 1_555
Au1_1 Au2_4 2.949624 1_455
Au1_1 Au2_6 2.949626 1_445
Au1_1 Au2_0 2.949626 1_555
Au1_1 Au1_7 3.019090 1_555
Au1_1 Au1_7 3.019090 1_445
Au1_1 Au1_5 3.019090 1_555
Au1_1 Au1_3 3.019090 1_555
Au1_1 Au1_3 3.019090 1_545
Au1_1 Au1_5 3.019090 1_455
Au1_2 Au7_6 2.927587 1_455
Au1_2 Au7_2 2.927589 1_555
Au1_2 Au7_4 2.927589 1_455
Au1_2 Au2_7 2.949624 1_454
Au1_2 Au2_5 2.949626 1_454
Au1_2 Au2_3 2.949626 1_554
Au1_2 Au1_4 3.019090 1_455
Au1_2 Au1_4 3.019090 1_565
Au1_2 Au1_6 3.019090 1_555
Au1_2 Au1_6 3.019090 1_455
Au1_3 Au7_7 2.927587 1_455
Au1_3 Au7_5 2.927589 1_455
Au1_3 Au7_3 2.927589 1_555
Au1_3 Au2_6 2.949624 1_455
Au1_3 Au2_4 2.949626 1_455
Au1_3 Au2_2 2.949626 1_555
Au1_3 Au1_5 3.019090 1_565
Au1_3 Au1_5 3.019090 1_455
Au1_3 Au1_7 3.019090 1_455
Au1_3 Au1_7 3.019090 1_555
Au1_4 Au7_0 2.927587 1_555
Au1_4 Au7_2 2.927589 1_545
Au1_4 Au7_4 2.927589 1_555
Au1_4 Au2_1 2.949624 1_554
Au1_4 Au2_3 2.949626 1_544
Au1_4 Au2_5 2.949626 1_554
Au1_4 Au1_6 3.019090 1_545
Au1_4 Au1_6 3.019090 1_555
Au1_5 Au7_1 2.927587 1_555
Au1_5 Au7_5 2.927589 1_555
Au1_5 Au7_3 2.927589 1_545
Au1_5 Au2_0 2.949624 1_555
Au1_5 Au2_2 2.949626 1_545
Au1_5 Au2_4 2.949626 1_555
Au1_5 Au1_7 3.019090 1_545
Au1_5 Au1_7 3.019090 1_555
Au1_6 Au7_2 2.927587 1_555
Au1_6 Au7_6 2.927589 1_555
Au1_6 Au7_0 2.927589 1_555
Au1_6 Au2_3 2.949624 1_554
Au1_6 Au2_7 2.949626 1_554
Au1_6 Au2_1 2.949626 1_554
Au1_7 Au7_3 2.927587 1_555
Au1_7 Au7_7 2.927589 1_555
Au1_7 Au7_1 2.927589 1_555
Au1_7 Au2_2 2.949624 1_555
Au1_7 Au2_6 2.949626 1_555
Au1_7 Au2_0 2.949626 1_555
Au2_0 Au2_6 3.019090 1_445
Au2_0 Au2_6 3.019090 1_555
Au2_0 Au2_2 3.019090 1_545
Au2_0 Au2_4 3.019090 1_455
Au2_0 Au2_2 3.019090 1_555
Au2_0 Au2_4 3.019090 1_555
Au2_1 Au2_7 3.019090 1_445
Au2_1 Au2_7 3.019090 1_555
Au2_1 Au2_5 3.019090 1_555
Au2_1 Au2_3 3.019090 1_555
Au2_1 Au2_3 3.019090 1_545
Au2_1 Au2_5 3.019090 1_455
Au2_2 Au2_4 3.019090 1_455
Au2_2 Au2_4 3.019090 1_565
Au2_2 Au2_6 3.019090 1_455
Au2_2 Au2_6 3.019090 1_555
Au2_3 Au2_5 3.019090 1_565
Au2_3 Au2_5 3.019090 1_455
Au2_3 Au2_7 3.019090 1_455
Au2_3 Au2_7 3.019090 1_555
Au2_4 Au2_6 3.019090 1_555
Au2_4 Au2_6 3.019090 1_545
Au2_5 Au2_7 3.019090 1_555
Au2_5 Au2_7 3.019090 1_545
Au3_0 Cd0_4 2.964727 1_555
Au3_0 Cd0_0 2.964728 1_555
Au3_0 Cd0_6 2.964728 1_555
Au3_1 Cd0_5 2.964727 1_555
Au3_1 Cd0_7 2.964728 1_555
Au3_1 Cd0_1 2.964728 1_555
Au3_2 Cd0_6 2.964727 1_555
Au3_2 Cd0_4 2.964728 1_565
Au3_2 Cd0_2 2.964728 1_555
Au3_3 Cd0_7 2.964727 1_555
Au3_3 Cd0_5 2.964728 1_565
Au3_3 Cd0_3 2.964728 1_555
Au3_4 Cd0_0 2.964727 1_655
Au3_4 Cd0_2 2.964728 1_655
Au3_4 Cd0_4 2.964728 1_555
Au3_5 Cd0_1 2.964727 1_655
Au3_5 Cd0_5 2.964728 1_555
Au3_5 Cd0_3 2.964728 1_655
Au3_6 Cd0_2 2.964727 1_655
Au3_6 Cd0_0 2.964728 1_665
Au3_6 Cd0_6 2.964728 1_555
Au3_7 Cd0_3 2.964727 1_655
Au3_7 Cd0_1 2.964728 1_665
Au3_7 Cd0_7 2.964728 1_555
Au4_0 Cd1_4 2.943894 1_555
Au4_0 Cd1_6 2.943895 1_555
Au4_0 Cd1_0 2.943895 1_555
Au4_0 Cd0_4 2.956421 1_555
Au4_0 Cd0_0 2.956423 1_555
Au4_0 Cd0_6 2.956423 1_555
Au4_1 Cd1_5 2.943894 1_555
Au4_1 Cd1_1 2.943895 1_555
Au4_1 Cd1_7 2.943895 1_555
Au4_1 Cd0_5 2.956421 1_555
Au4_1 Cd0_1 2.956423 1_555
Au4_1 Cd0_7 2.956423 1_555
Au4_2 Cd1_6 2.943894 1_555
Au4_2 Cd1_4 2.943895 1_565
Au4_2 Cd1_2 2.943895 1_555
Au4_2 Cd0_6 2.956421 1_555
Au4_2 Cd0_4 2.956423 1_565
Au4_2 Cd0_2 2.956423 1_555
Au4_3 Cd1_7 2.943894 1_555
Au4_3 Cd1_5 2.943895 1_565
Au4_3 Cd1_3 2.943895 1_555
Au4_3 Cd0_7 2.956421 1_555
Au4_3 Cd0_5 2.956423 1_565
Au4_3 Cd0_3 2.956423 1_555
Au4_4 Cd1_0 2.943894 1_655
Au4_4 Cd1_2 2.943895 1_655
Au4_4 Cd1_4 2.943895 1_555
Au4_4 Cd0_0 2.956421 1_655
Au4_4 Cd0_4 2.956423 1_555
Au4_4 Cd0_2 2.956423 1_655
Au4_5 Cd1_1 2.943894 1_655
Au4_5 Cd1_5 2.943895 1_555
Au4_5 Cd1_3 2.943895 1_655
Au4_5 Cd0_1 2.956421 1_655
Au4_5 Cd0_3 2.956423 1_655
Au4_5 Cd0_5 2.956423 1_555
Au4_6 Cd1_2 2.943894 1_655
Au4_6 Cd1_0 2.943895 1_665
Au4_6 Cd1_6 2.943895 1_555
Au4_6 Cd0_2 2.956421 1_655
Au4_6 Cd0_6 2.956423 1_555
Au4_6 Cd0_0 2.956423 1_665
Au4_7 Cd1_3 2.943894 1_655
Au4_7 Cd1_1 2.943895 1_665
Au4_7 Cd1_7 2.943895 1_555
Au4_7 Cd0_3 2.956421 1_655
Au4_7 Cd0_7 2.956423 1_555
Au4_7 Cd0_1 2.956423 1_665
Au5_0 Cd1_4 2.951121 1_555
Au5_0 Cd1_6 2.951123 1_555
Au5_0 Cd1_0 2.951123 1_555
Au5_0 Cd2_4 2.961518 1_555
Au5_0 Cd2_0 2.961520 1_555
Au5_0 Cd2_6 2.961520 1_555
Au5_1 Cd1_5 2.951121 1_555
Au5_1 Cd1_7 2.951123 1_555
Au5_1 Cd1_1 2.951123 1_555
Au5_1 Cd2_5 2.961518 1_555
Au5_1 Cd2_1 2.961520 1_555
Au5_1 Cd2_7 2.961520 1_555
Au5_2 Cd1_6 2.951121 1_555
Au5_2 Cd1_4 2.951123 1_565
Au5_2 Cd1_2 2.951123 1_555
Au5_2 Cd2_6 2.961518 1_555
Au5_2 Cd2_4 2.961520 1_565
Au5_2 Cd2_2 2.961520 1_555
Au5_3 Cd1_7 2.951121 1_555
Au5_3 Cd1_3 2.951123 1_555
Au5_3 Cd1_5 2.951123 1_565
Au5_3 Cd2_7 2.961518 1_555
Au5_3 Cd2_5 2.961520 1_565
Au5_3 Cd2_3 2.961520 1_555
Au5_4 Cd1_0 2.951121 1_655
Au5_4 Cd1_2 2.951123 1_655
Au5_4 Cd1_4 2.951123 1_555
Au5_4 Cd2_0 2.961518 1_655
Au5_4 Cd2_4 2.961520 1_555
Au5_4 Cd2_2 2.961520 1_655
Au5_5 Cd1_1 2.951121 1_655
Au5_5 Cd1_5 2.951123 1_555
Au5_5 Cd1_3 2.951123 1_655
Au5_5 Cd2_1 2.961518 1_655
Au5_5 Cd2_3 2.961520 1_655
Au5_5 Cd2_5 2.961520 1_555
Au5_6 Cd1_2 2.951121 1_655
Au5_6 Cd1_6 2.951123 1_555
Au5_6 Cd1_0 2.951123 1_665
Au5_6 Cd2_2 2.961518 1_655
Au5_6 Cd2_0 2.961520 1_665
Au5_6 Cd2_6 2.961520 1_555
Au5_7 Cd1_3 2.951121 1_655
Au5_7 Cd1_7 2.951123 1_555
Au5_7 Cd1_1 2.951123 1_665
Au5_7 Cd2_3 2.961518 1_655
Au5_7 Cd2_7 2.961520 1_555
Au5_7 Cd2_1 2.961520 1_665
Au6_0 Cd2_4 2.947391 1_555
Au6_0 Cd2_0 2.947393 1_555
Au6_0 Cd2_6 2.947393 1_555
Au6_1 Cd2_5 2.947391 1_555
Au6_1 Cd2_7 2.947393 1_555
Au6_1 Cd2_1 2.947393 1_555
Au6_2 Cd2_6 2.947391 1_555
Au6_2 Cd2_4 2.947393 1_565
Au6_2 Cd2_2 2.947393 1_555
Au6_3 Cd2_7 2.947391 1_555
Au6_3 Cd2_5 2.947393 1_565
Au6_3 Cd2_3 2.947393 1_555
Au6_4 Cd2_0 2.947391 1_655
Au6_4 Cd2_2 2.947393 1_655
Au6_4 Cd2_4 2.947393 1_555
Au6_5 Cd2_1 2.947391 1_655
Au6_5 Cd2_3 2.947393 1_655
Au6_5 Cd2_5 2.947393 1_555
Au6_6 Cd2_2 2.947391 1_655
Au6_6 Cd2_0 2.947393 1_665
Au6_6 Cd2_6 2.947393 1_555
Au6_7 Cd2_3 2.947391 1_655
Au6_7 Cd2_7 2.947393 1_555
Au6_7 Cd2_1 2.947393 1_665
Au7_0 Au7_6 3.019090 1_555
Au7_0 Au7_6 3.019090 1_445
Au7_0 Au7_4 3.019090 1_455
Au7_0 Au7_2 3.019090 1_555
Au7_0 Au7_2 3.019090 1_545
Au7_0 Au7_4 3.019090 1_555
Au7_1 Au7_7 3.019090 1_555
Au7_1 Au7_7 3.019090 1_445
Au7_1 Au7_5 3.019090 1_555
Au7_1 Au7_3 3.019090 1_545
Au7_1 Au7_3 3.019090 1_555
Au7_1 Au7_5 3.019090 1_455
Au7_2 Au7_4 3.019090 1_455
Au7_2 Au7_4 3.019090 1_565
Au7_2 Au7_6 3.019090 1_555
Au7_2 Au7_6 3.019090 1_455
Au7_3 Au7_5 3.019090 1_455
Au7_3 Au7_5 3.019090 1_565
Au7_3 Au7_7 3.019090 1_455
Au7_3 Au7_7 3.019090 1_555
Au7_4 Au7_6 3.019090 1_555
Au7_4 Au7_6 3.019090 1_545
Au7_5 Au7_7 3.019090 1_545
Au7_5 Au7_7 3.019090 1_555
