# generated using pymatgen
data_Ta3FeS6
_symmetry_space_group_name_H-M   'P 1'
_cell_length_a   5.74436288
_cell_length_b   5.74436283
_cell_length_c   11.85113972
_cell_angle_alpha   90.00004017
_cell_angle_beta   89.99992853
_cell_angle_gamma   119.99984288
_symmetry_Int_Tables_number   1
_chemical_formula_structural   Ta3FeS6
_chemical_formula_sum   'Ta6 Fe2 S12'
_cell_volume   338.66878406
_cell_formula_units_Z   2
loop_
 _symmetry_equiv_pos_site_id
 _symmetry_equiv_pos_as_xyz
  1  'x, y, z'
loop_
 _atom_site_type_symbol
 _atom_site_label
 _atom_site_symmetry_multiplicity
 _atom_site_fract_x
 _atom_site_fract_y
 _atom_site_fract_z
 _atom_site_occupancy
  Ta  Ta0  1  0.00000212  0.00000124  0.50002288  1
  Ta  Ta1  1  -0.00000154  -0.00000156  -0.00002365  1
  Ta  Ta2  1  0.33333345  0.66666736  0.50470657  1
  Ta  Ta3  1  0.66666754  0.33333385  0.49532444  1
  Ta  Ta4  1  0.66666546  0.33333401  0.00468338  1
  Ta  Ta5  1  0.33333313  0.66666545  0.99528735  1
  Fe  Fe0  1  0.33333362  0.66666643  0.24999372  1
  Fe  Fe1  1  0.66666559  0.33333345  0.75000644  1
  S  S0  1  0.33139092  0.33650903  0.13217730  1
  S  S1  1  0.66348844  0.99488174  0.13217649  1
  S  S2  1  0.00511696  0.66860601  0.13217719  1
  S  S3  1  0.33653654  0.33139199  0.86778721  1
  S  S4  1  0.99485482  0.66346238  0.86778763  1
  S  S5  1  0.66860656  0.00514500  0.86778703  1
  S  S6  1  0.66860200  0.66347173  0.63220911  1
  S  S7  1  0.33652786  0.00513117  0.63220856  1
  S  S8  1  0.99486848  0.33139778  0.63220930  1
  S  S9  1  0.66349391  0.66860571  0.36782587  1
  S  S10  1  0.00511354  0.33650791  0.36782629  1
  S  S11  1  0.33139861  0.99488934  0.36782589  1
loop_
_geom_bond_atom_site_label_1
_geom_bond_atom_site_label_2
_geom_bond_distance
_geom_bond_site_symmetry_2
Fe0 S0 2.350611 1_555
Fe0 S2 2.350616 1_555
Fe0 S1 2.350616 1_555
Fe0 S11 2.350742 1_555
Fe0 S10 2.350744 1_555
Fe0 S9 2.350746 1_555
Fe1 S3 2.350232 1_555
Fe1 S5 2.350235 1_555
Fe1 S4 2.350244 1_555
Fe1 S8 2.350404 1_555
Fe1 S6 2.350405 1_555
Fe1 S7 2.350412 1_555
S0 Ta4 2.455128 1_555
S0 Ta1 2.476962 1_555
S0 Ta5 2.491524 1_554
S1 Ta4 2.455133 1_565
S1 Ta1 2.476951 1_665
S1 Ta5 2.491523 1_554
S2 Ta4 2.455132 1_455
S2 Ta1 2.476959 1_565
S2 Ta5 2.491525 1_554
S3 Ta5 2.455235 1_555
S3 Ta1 2.476937 1_556
S3 Ta4 2.491453 1_556
S4 Ta5 2.455241 1_655
S4 Ta1 2.476923 1_666
S4 Ta4 2.491455 1_556
S5 Ta5 2.455246 1_545
S5 Ta1 2.476934 1_656
S5 Ta4 2.491459 1_556
S6 Ta2 2.455214 1_555
S6 Ta0 2.476910 1_665
S6 Ta3 2.491417 1_555
S7 Ta2 2.455209 1_545
S7 Ta0 2.476887 1_555
S7 Ta3 2.491419 1_555
S8 Ta2 2.455221 1_655
S8 Ta0 2.476902 1_655
S8 Ta3 2.491414 1_555
S9 Ta3 2.455149 1_555
S9 Ta0 2.476934 1_665
S9 Ta2 2.491476 1_555
S10 Ta3 2.455145 1_455
S10 Ta0 2.476923 1_555
S10 Ta2 2.491471 1_555
S11 Ta3 2.455144 1_565
S11 Ta0 2.476930 1_565
S11 Ta2 2.491470 1_555
