# generated using pymatgen
data_Tb2Sn5Rh3
_symmetry_space_group_name_H-M   'P 1'
_cell_length_a   13.44523711
_cell_length_b   13.44523711
_cell_length_c   7.24214000
_cell_angle_alpha   90.00000000
_cell_angle_beta   90.00000000
_cell_angle_gamma   160.88109505
_symmetry_Int_Tables_number   1
_chemical_formula_structural   Tb2Sn5Rh3
_chemical_formula_sum   'Tb4 Sn10 Rh6'
_cell_volume   428.79972246
_cell_formula_units_Z   2
loop_
 _symmetry_equiv_pos_site_id
 _symmetry_equiv_pos_as_xyz
  1  'x, y, z'
loop_
 _atom_site_type_symbol
 _atom_site_label
 _atom_site_symmetry_multiplicity
 _atom_site_fract_x
 _atom_site_fract_y
 _atom_site_fract_z
 _atom_site_occupancy
  Tb  Tb0  1  0.17165500  0.82834500  0.75566800  1
  Tb  Tb1  1  0.82834500  0.17165500  0.25566800  1
  Tb  Tb2  1  0.47646900  0.52353100  0.73443800  1
  Tb  Tb3  1  0.52353100  0.47646900  0.23443800  1
  Sn  Sn0  1  0.87965500  0.12034500  0.73426500  1
  Sn  Sn1  1  0.12034500  0.87965500  0.23426500  1
  Sn  Sn2  1  0.70539500  0.29460500  0.05044100  1
  Sn  Sn3  1  0.29460500  0.70539500  0.55044100  1
  Sn  Sn4  1  0.59691100  0.40308900  0.60964300  1
  Sn  Sn5  1  0.40308900  0.59691100  0.10964300  1
  Sn  Sn6  1  0.95242800  0.04757200  0.40187300  1
  Sn  Sn7  1  0.04757200  0.95242800  0.90187300  1
  Sn  Sn8  1  0.28999800  0.71000200  0.97637700  1
  Sn  Sn9  1  0.71000200  0.28999800  0.47637700  1
  Rh  Rh0  1  0.05008700  0.94991300  0.51840500  1
  Rh  Rh1  1  0.94991300  0.05008700  0.01840500  1
  Rh  Rh2  1  0.77668000  0.22332000  0.76558500  1
  Rh  Rh3  1  0.22332000  0.77668000  0.26558500  1
  Rh  Rh4  1  0.39360800  0.60639200  0.48130400  1
  Rh  Rh5  1  0.60639200  0.39360800  0.98130400  1
loop_
_geom_bond_atom_site_label_1
_geom_bond_atom_site_label_2
_geom_bond_distance
_geom_bond_site_symmetry_2
Sn0 Sn6 3.085223 1_555
Sn0 Tb2 3.402398 1_545
Sn0 Tb2 3.402398 1_655
Sn1 Sn7 3.085223 1_554
Sn1 Tb3 3.402398 1_565
Sn1 Tb3 3.402398 1_455
Sn2 Sn9 3.087106 1_555
Sn2 Sn8 3.210348 1_654
Sn2 Sn8 3.210348 1_544
Sn2 Tb0 3.216125 1_544
Sn2 Tb0 3.216125 1_654
Sn3 Sn8 3.087106 1_555
Sn3 Sn9 3.210348 1_565
Sn3 Sn9 3.210348 1_455
Sn3 Tb1 3.216125 1_455
Sn3 Tb1 3.216125 1_565
Sn4 Sn9 3.150322 1_555
Sn4 Tb0 3.167388 1_545
Sn4 Tb0 3.167388 1_655
Sn4 Tb2 3.319184 1_555
Sn4 Tb3 3.342136 1_555
Sn4 Sn7 3.343115 1_655
Sn4 Sn7 3.343115 1_545
Sn5 Sn8 3.150322 1_554
Sn5 Tb1 3.167388 1_565
Sn5 Tb1 3.167388 1_455
Sn5 Tb3 3.319184 1_555
Sn5 Tb2 3.342136 1_554
Sn5 Sn6 3.343115 1_565
Sn5 Sn6 3.343115 1_455
Sn6 Tb3 3.164007 1_545
Sn6 Tb3 3.164007 1_655
Sn6 Tb2 3.345574 1_545
Sn6 Tb2 3.345574 1_655
Sn6 Tb1 3.456490 1_555
Sn7 Tb2 3.164007 1_455
Sn7 Tb2 3.164007 1_565
Sn7 Tb3 3.345574 1_456
Sn7 Tb3 3.345574 1_566
Sn7 Tb0 3.456490 1_555
Sn8 Tb1 3.179754 1_456
Sn8 Tb1 3.179754 1_566
Sn8 Tb0 3.521737 1_555
Sn9 Tb0 3.179754 1_545
Sn9 Tb0 3.179754 1_655
Sn9 Tb1 3.521737 1_555
Rh0 Sn4 2.638927 1_455
Rh0 Sn4 2.638927 1_565
Rh0 Sn6 2.723678 1_465
Rh0 Sn1 2.775855 1_555
Rh0 Sn7 2.777930 1_555
Rh0 Tb3 3.116226 1_455
Rh0 Tb3 3.116226 1_565
Rh0 Tb2 3.353251 1_455
Rh0 Tb2 3.353251 1_565
Rh1 Sn5 2.638927 1_655
Rh1 Sn5 2.638927 1_545
Rh1 Sn7 2.723678 1_644
Rh1 Sn0 2.775855 1_554
Rh1 Sn6 2.777930 1_555
Rh1 Tb2 3.116226 1_544
Rh1 Tb2 3.116226 1_654
Rh1 Tb3 3.353251 1_545
Rh1 Tb3 3.353251 1_655
Rh2 Sn8 2.727794 1_545
Rh2 Sn8 2.727794 1_655
Rh2 Sn0 2.740000 1_555
Rh2 Sn9 2.740997 1_555
Rh2 Sn3 2.763926 1_545
Rh2 Sn3 2.763926 1_655
Rh2 Sn2 2.798026 1_556
Rh3 Sn9 2.727794 1_565
Rh3 Sn9 2.727794 1_455
Rh3 Sn1 2.740000 1_555
Rh3 Sn8 2.740997 1_554
Rh3 Sn2 2.763926 1_455
Rh3 Sn2 2.763926 1_565
Rh3 Sn3 2.798026 1_555
Rh4 Sn3 2.672590 1_555
Rh4 Sn5 2.703337 1_555
Rh4 Sn6 2.783767 1_565
Rh4 Sn6 2.783767 1_455
Rh4 Tb2 2.861566 1_555
Rh4 Sn0 2.911824 1_455
Rh4 Sn0 2.911824 1_565
Rh4 Tb1 3.263562 1_455
Rh4 Tb1 3.263562 1_565
Rh5 Sn2 2.672590 1_556
Rh5 Sn4 2.703337 1_555
Rh5 Sn7 2.783767 1_655
Rh5 Sn7 2.783767 1_545
Rh5 Tb3 2.861566 1_556
Rh5 Sn1 2.911824 1_546
Rh5 Sn1 2.911824 1_656
Rh5 Tb0 3.263562 1_545
Rh5 Tb0 3.263562 1_655
