# generated using pymatgen
data_Li9Mn2Co5O16
_symmetry_space_group_name_H-M   'P 1'
_cell_length_a   9.89778882
_cell_length_b   9.89778882
_cell_length_c   10.11677735
_cell_angle_alpha   86.88368942
_cell_angle_beta   86.88368942
_cell_angle_gamma   17.11515736
_symmetry_Int_Tables_number   1
_chemical_formula_structural   Li9Mn2Co5O16
_chemical_formula_sum   'Li9 Mn2 Co5 O16'
_cell_volume   291.23359153
_cell_formula_units_Z   1
loop_
 _symmetry_equiv_pos_site_id
 _symmetry_equiv_pos_as_xyz
  1  'x, y, z'
loop_
 _atom_site_type_symbol
 _atom_site_label
 _atom_site_symmetry_multiplicity
 _atom_site_fract_x
 _atom_site_fract_y
 _atom_site_fract_z
 _atom_site_occupancy
  Li  Li0  1  0.61078900  0.61078900  0.56333400  1
  Li  Li1  1  0.38921100  0.38921100  0.43666600  1
  Li  Li2  1  0.11886800  0.11886800  0.30696500  1
  Li  Li3  1  0.88392100  0.88392100  0.17794000  1
  Li  Li4  1  0.62157500  0.62157500  0.05872900  1
  Li  Li5  1  0.37842500  0.37842500  0.94127100  1
  Li  Li6  1  0.11607900  0.11607900  0.82206000  1
  Li  Li7  1  0.88113200  0.88113200  0.69303500  1
  Li  Li8  1  0.00000000  0.00000000  0.50000000  1
  Mn  Mn0  1  0.24977000  0.24977000  0.62657900  1
  Mn  Mn1  1  0.75023000  0.75023000  0.37342100  1
  Co  Co0  1  0.50081700  0.50081700  0.26264800  1
  Co  Co1  1  0.25180100  0.25180100  0.11945800  1
  Co  Co2  1  0.00000000  0.00000000  0.00000000  1
  Co  Co3  1  0.74819900  0.74819900  0.88054200  1
  Co  Co4  1  0.49918300  0.49918300  0.73735200  1
  O  O0  1  0.69530700  0.69530700  0.70104600  1
  O  O1  1  0.43965800  0.43965800  0.60853700  1
  O  O2  1  0.19770500  0.19770500  0.46273800  1
  O  O3  1  0.94044600  0.94044600  0.33615500  1
  O  O4  1  0.69549500  0.69549500  0.22565500  1
  O  O5  1  0.44436700  0.44436700  0.09580900  1
  O  O6  1  0.18983700  0.18983700  0.96629200  1
  O  O7  1  0.94356800  0.94356800  0.85078400  1
  O  O8  1  0.56034200  0.56034200  0.39146300  1
  O  O9  1  0.30469300  0.30469300  0.29895400  1
  O  O10  1  0.05643200  0.05643200  0.14921600  1
  O  O11  1  0.81016300  0.81016300  0.03370800  1
  O  O12  1  0.55563300  0.55563300  0.90419100  1
  O  O13  1  0.30450500  0.30450500  0.77434500  1
  O  O14  1  0.05955400  0.05955400  0.66384500  1
  O  O15  1  0.80229500  0.80229500  0.53726200  1
loop_
_geom_bond_atom_site_label_1
_geom_bond_atom_site_label_2
_geom_bond_distance
_geom_bond_site_symmetry_2
Li0 O14 2.024088 1_565
Li0 O14 2.024088 1_655
Li0 O8 2.046295 1_555
Li0 O0 2.220736 1_555
Li0 O2 2.430907 1_655
Li0 O2 2.430907 1_565
Li1 O3 2.024088 1_455
Li1 O3 2.024088 1_545
Li1 O1 2.046295 1_555
Li1 O9 2.220736 1_555
Li1 O15 2.430907 1_545
Li1 O15 2.430907 1_455
Li2 O8 2.026036 1_545
Li2 O8 2.026036 1_455
Li2 O10 2.062803 1_555
Li2 O4 2.227144 1_455
Li2 O4 2.227144 1_545
Li2 O2 2.265513 1_555
Li3 O3 1.995256 1_555
Li3 O5 2.037540 1_655
Li3 O5 2.037540 1_565
Li3 O11 2.108420 1_555
Li3 O9 2.421690 1_655
Li3 O9 2.421690 1_565
Li4 O12 2.081449 1_554
Li4 O10 2.122494 1_655
Li4 O10 2.122494 1_565
Li4 O6 2.166077 1_654
Li4 O6 2.166077 1_564
Li4 O4 2.283499 1_555
Li5 O5 2.081449 1_556
Li5 O7 2.122494 1_545
Li5 O7 2.122494 1_455
Li5 O11 2.166077 1_456
Li5 O11 2.166077 1_546
Li5 O13 2.283499 1_555
Li6 O14 1.995256 1_555
Li6 O12 2.037540 1_455
Li6 O12 2.037540 1_545
Li6 O6 2.108420 1_555
Li6 O0 2.421690 1_545
Li6 O0 2.421690 1_455
Li7 O1 2.026036 1_655
Li7 O1 2.026036 1_565
Li7 O7 2.062803 1_555
Li7 O13 2.227144 1_565
Li7 O13 2.227144 1_655
Li7 O15 2.265513 1_555
Li8 O14 2.078243 1_555
Li8 O3 2.078243 1_445
Li8 O1 2.151174 1_455
Li8 O1 2.151174 1_545
Li8 O8 2.151174 1_545
Li8 O8 2.151174 1_455
Mn0 O13 1.886500 1_555
Mn0 O0 1.945528 1_545
Mn0 O0 1.945528 1_455
Mn0 O15 1.985124 1_455
Mn0 O15 1.985124 1_545
Mn0 O2 1.992969 1_555
Mn1 O4 1.886500 1_555
Mn1 O9 1.945528 1_565
Mn1 O9 1.945528 1_655
Mn1 O2 1.985124 1_565
Mn1 O2 1.985124 1_655
Mn1 O15 1.992969 1_555
Co0 O8 1.795269 1_555
Co0 O3 2.005540 1_455
Co0 O3 2.005540 1_545
Co0 O5 2.067621 1_555
Co0 O10 2.129311 1_655
Co0 O10 2.129311 1_565
Co1 O6 2.019657 1_554
Co1 O11 2.029286 1_455
Co1 O11 2.029286 1_545
Co1 O4 2.099554 1_545
Co1 O4 2.099554 1_455
Co1 O9 2.139225 1_555
Co2 O10 1.918981 1_555
Co2 O7 1.918981 1_444
Co2 O12 2.044169 1_544
Co2 O12 2.044169 1_454
Co2 O5 2.044169 1_545
Co2 O5 2.044169 1_455
Co3 O11 2.019657 1_556
Co3 O6 2.029286 1_565
Co3 O6 2.029286 1_655
Co3 O13 2.099554 1_655
Co3 O13 2.099554 1_565
Co3 O0 2.139225 1_555
Co4 O1 1.795269 1_555
Co4 O14 2.005540 1_655
Co4 O14 2.005540 1_565
Co4 O12 2.067621 1_555
Co4 O7 2.129311 1_545
Co4 O7 2.129311 1_455
