# generated using pymatgen
data_Na5Ni2P2(CO7)2
_symmetry_space_group_name_H-M   'P 1'
_cell_length_a   5.22552600
_cell_length_b   11.07238820
_cell_length_c   11.11133052
_cell_angle_alpha   73.21960897
_cell_angle_beta   88.93191491
_cell_angle_gamma   88.91939053
_symmetry_Int_Tables_number   1
_chemical_formula_structural   Na5Ni2P2(CO7)2
_chemical_formula_sum   'Na10 Ni4 P4 C4 O28'
_cell_volume   615.34775537
_cell_formula_units_Z   2
loop_
 _symmetry_equiv_pos_site_id
 _symmetry_equiv_pos_as_xyz
  1  'x, y, z'
loop_
 _atom_site_type_symbol
 _atom_site_label
 _atom_site_symmetry_multiplicity
 _atom_site_fract_x
 _atom_site_fract_y
 _atom_site_fract_z
 _atom_site_occupancy
  Na  Na0  1  0.75533800  0.88216300  0.86816700  1
  Na  Na1  1  0.24930400  0.37842500  0.87765900  1
  Na  Na2  1  0.25550500  0.63041500  0.63527300  1
  Na  Na3  1  0.25033400  0.88933000  0.37445300  1
  Na  Na4  1  0.77198100  0.41283100  0.66622500  1
  Na  Na5  1  0.22801900  0.58716900  0.33377500  1
  Na  Na6  1  0.74449500  0.36958500  0.36472700  1
  Na  Na7  1  0.74966600  0.11067000  0.62554700  1
  Na  Na8  1  0.75069600  0.62157500  0.12234100  1
  Na  Na9  1  0.24466200  0.11783700  0.13183300  1
  Ni  Ni0  1  0.22192200  0.70211200  0.94809100  1
  Ni  Ni1  1  0.78035800  0.80037500  0.54788800  1
  Ni  Ni2  1  0.21964200  0.19962500  0.45211200  1
  Ni  Ni3  1  0.77807800  0.29788800  0.05190900  1
  P  P0  1  0.28299700  0.91410400  0.66620800  1
  P  P1  1  0.71717800  0.58361900  0.83625100  1
  P  P2  1  0.28282200  0.41638100  0.16374900  1
  P  P3  1  0.71700300  0.08589600  0.33379200  1
  C  C0  1  0.71254100  0.16106800  0.91089900  1
  C  C1  1  0.71533900  0.65635600  0.40768000  1
  C  C2  1  0.28745900  0.83893200  0.08910100  1
  C  C3  1  0.28466100  0.34364400  0.59232000  1
  O  O0  1  0.20396800  0.86431900  0.80812100  1
  O  O1  1  0.85796900  0.65945400  0.91030300  1
  O  O2  1  0.57904700  0.89718800  0.65372900  1
  O  O3  1  0.42010100  0.60004700  0.85333900  1
  O  O4  1  0.14658000  0.83781300  0.58977500  1
  O  O5  1  0.79399200  0.94531700  0.37905500  1
  O  O6  1  0.78532900  0.43977300  0.88219300  1
  O  O7  1  0.78469400  0.62441900  0.69408400  1
  O  O8  1  0.51679500  0.70333200  0.45209500  1
  O  O9  1  0.52294400  0.20793000  0.96232500  1
  O  O10  1  0.93988300  0.19131600  0.94003100  1
  O  O11  1  0.94093300  0.68319200  0.43963600  1
  O  O12  1  0.31139800  0.41639700  0.66365500  1
  O  O13  1  0.31595000  0.90472800  0.16316700  1
  O  O14  1  0.68405000  0.09527200  0.83683300  1
  O  O15  1  0.68860200  0.58360300  0.33634500  1
  O  O16  1  0.06011700  0.80868400  0.05996900  1
  O  O17  1  0.05906700  0.31680800  0.56036400  1
  O  O18  1  0.48320500  0.29666800  0.54790500  1
  O  O19  1  0.47705600  0.79207000  0.03767500  1
  O  O20  1  0.20600800  0.05468300  0.62094500  1
  O  O21  1  0.21467100  0.56022700  0.11780700  1
  O  O22  1  0.21530600  0.37558100  0.30591600  1
  O  O23  1  0.85342000  0.16218700  0.41022500  1
  O  O24  1  0.57989900  0.39995300  0.14666100  1
  O  O25  1  0.42095300  0.10281200  0.34627100  1
  O  O26  1  0.14203100  0.34054600  0.08969700  1
  O  O27  1  0.79603200  0.13568100  0.19187900  1
loop_
_geom_bond_atom_site_label_1
_geom_bond_atom_site_label_2
_geom_bond_distance
_geom_bond_site_symmetry_2
Na0 O14 2.307626 1_565
Na0 O19 2.350505 1_556
Na0 O1 2.424961 1_555
Na0 O0 2.445482 1_655
Na0 O2 2.529960 1_555
Na0 O16 2.610901 1_656
Na1 O12 2.309855 1_555
Na1 O9 2.327294 1_555
Na1 O26 2.330247 1_556
Na1 O6 2.509043 1_455
Na1 O3 2.565515 1_555
Na1 O10 2.577262 1_455
Na1 O6 2.899379 1_555
Na2 O4 2.268053 1_555
Na2 O12 2.312145 1_555
Na2 O8 2.376528 1_555
Na2 O3 2.513988 1_555
Na2 O7 2.530881 1_455
Na2 O11 2.670662 1_455
Na2 O7 2.848448 1_555
Na3 O13 2.323631 1_555
Na3 O4 2.349201 1_555
Na3 O8 2.415592 1_555
Na3 O5 2.455880 1_455
Na3 O25 2.474266 1_565
Na3 O11 2.736623 1_455
Na3 O5 2.923654 1_555
Na4 O17 2.315312 1_655
Na4 O12 2.406934 1_555
Na4 O7 2.452397 1_555
Na4 O6 2.504545 1_555
Na4 O18 2.604491 1_555
Na4 O12 2.819256 1_655
Na5 O11 2.315312 1_455
Na5 O15 2.406934 1_555
Na5 O22 2.452397 1_555
Na5 O21 2.504545 1_555
Na5 O8 2.604491 1_555
Na5 O15 2.819256 1_455
Na6 O23 2.268053 1_555
Na6 O15 2.312145 1_555
Na6 O18 2.376528 1_555
Na6 O24 2.513988 1_555
Na6 O22 2.530881 1_655
Na6 O17 2.670662 1_655
Na6 O22 2.848448 1_555
Na7 O14 2.323631 1_555
Na7 O23 2.349201 1_555
Na7 O18 2.415592 1_555
Na7 O20 2.455880 1_655
Na7 O2 2.474266 1_545
Na7 O17 2.736623 1_655
Na7 O20 2.923654 1_555
Na8 O15 2.309855 1_555
Na8 O19 2.327294 1_555
Na8 O1 2.330247 1_554
Na8 O21 2.509043 1_655
Na8 O24 2.565515 1_555
Na8 O16 2.577262 1_655
Na8 O21 2.899379 1_555
Na9 O13 2.307626 1_545
Na9 O9 2.350505 1_554
Na9 O26 2.424961 1_555
Na9 O27 2.445482 1_455
Na9 O25 2.529960 1_555
Na9 O10 2.610901 1_454
Ni0 O0 2.009858 1_555
Ni0 O3 2.014999 1_555
Ni0 O1 2.048064 1_455
Ni0 O21 2.077162 1_556
Ni0 O16 2.103049 1_556
Ni0 O19 2.105332 1_556
Ni1 O4 2.055537 1_655
Ni1 O2 2.068333 1_555
Ni1 O5 2.088257 1_555
Ni1 O7 2.146464 1_555
Ni1 O11 2.157961 1_555
Ni1 O8 2.226014 1_555
Ni2 O23 2.055537 1_455
Ni2 O25 2.068333 1_555
Ni2 O20 2.088257 1_555
Ni2 O22 2.146464 1_555
Ni2 O17 2.157961 1_555
Ni2 O18 2.226014 1_555
Ni3 O27 2.009858 1_555
Ni3 O24 2.014999 1_555
Ni3 O26 2.048064 1_655
Ni3 O6 2.077162 1_554
Ni3 O10 2.103049 1_554
Ni3 O9 2.105332 1_554
C0 O14 1.258981 1_555
C0 O9 1.306911 1_555
C0 O10 1.311560 1_555
C1 O15 1.293730 1_555
C1 O11 1.301456 1_555
C1 O8 1.303559 1_555
C2 O13 1.258981 1_555
C2 O19 1.306911 1_555
C2 O16 1.311560 1_555
C3 O12 1.293730 1_555
C3 O17 1.301456 1_555
C3 O18 1.303559 1_555
O0 P0 1.563091 1_555
O1 P1 1.538877 1_555
O2 P0 1.563214 1_555
O3 P1 1.573955 1_555
O4 P0 1.549998 1_555
O5 P3 1.539329 1_565
O6 P1 1.562078 1_555
O7 P1 1.548250 1_555
O20 P0 1.539329 1_545
O21 P2 1.562078 1_555
O22 P2 1.548250 1_555
O23 P3 1.549998 1_555
O24 P2 1.573955 1_555
O25 P3 1.563214 1_555
O26 P2 1.538877 1_555
O27 P3 1.563091 1_555
