# generated using pymatgen
data_Ti
_symmetry_space_group_name_H-M   'P 1'
_cell_length_a   11.90456123
_cell_length_b   12.43710609
_cell_length_c   11.91040035
_cell_angle_alpha   86.36424067
_cell_angle_beta   90.81893265
_cell_angle_gamma   88.06525782
_symmetry_Int_Tables_number   1
_chemical_formula_structural   Ti
_chemical_formula_sum   Ti100
_cell_volume   1758.64232859
_cell_formula_units_Z   100
loop_
 _symmetry_equiv_pos_site_id
 _symmetry_equiv_pos_as_xyz
  1  'x, y, z'
loop_
 _atom_site_type_symbol
 _atom_site_label
 _atom_site_symmetry_multiplicity
 _atom_site_fract_x
 _atom_site_fract_y
 _atom_site_fract_z
 _atom_site_occupancy
  Ti  Ti0  1  0.08660800  0.12624087  0.66065761  1
  Ti  Ti1  1  0.69433209  0.81697969  0.05486081  1
  Ti  Ti2  1  0.34588238  0.64060621  0.15447162  1
  Ti  Ti3  1  0.38801102  0.47671079  0.32492635  1
  Ti  Ti4  1  0.50955205  0.15511145  0.57521842  1
  Ti  Ti5  1  0.55845198  0.71013086  0.21787023  1
  Ti  Ti6  1  0.45555509  0.55841722  0.68602303  1
  Ti  Ti7  1  0.16535494  0.51740753  0.80930117  1
  Ti  Ti8  1  0.92326545  0.70715796  0.96544127  1
  Ti  Ti9  1  0.80298240  0.79214202  0.27198416  1
  Ti  Ti10  1  0.04085703  0.11639525  0.29192982  1
  Ti  Ti11  1  0.87292382  0.73619664  0.58254031  1
  Ti  Ti12  1  0.14793531  0.78451570  0.53235231  1
  Ti  Ti13  1  0.51913931  0.31759219  0.72797528  1
  Ti  Ti14  1  0.24388114  0.61265902  0.61620873  1
  Ti  Ti15  1  0.56816958  0.32276807  0.30097355  1
  Ti  Ti16  1  0.80282506  0.02726158  0.26467326  1
  Ti  Ti17  1  0.32602927  0.17653422  0.98488948  1
  Ti  Ti18  1  0.28808195  0.76959202  0.81425422  1
  Ti  Ti19  1  0.75161205  0.31932276  0.47750901  1
  Ti  Ti20  1  0.89373545  0.11667091  0.08858908  1
  Ti  Ti21  1  0.67863342  0.64460012  0.95475030  1
  Ti  Ti22  1  0.42738651  0.95057184  0.73361419  1
  Ti  Ti23  1  0.26130204  0.12616114  0.24026646  1
  Ti  Ti24  1  0.10715922  0.02768867  0.08914869  1
  Ti  Ti25  1  0.56300743  0.42150675  0.52341748  1
  Ti  Ti26  1  0.69341587  0.22117913  0.14449889  1
  Ti  Ti27  1  0.79769668  0.91760362  0.46717767  1
  Ti  Ti28  1  0.54298231  0.50336635  0.10588042  1
  Ti  Ti29  1  0.35026607  0.41781469  0.56819195  1
  Ti  Ti30  1  0.16847639  0.66166850  0.98525837  1
  Ti  Ti31  1  0.91170506  0.96908965  0.67903612  1
  Ti  Ti32  1  0.77407562  0.44291865  0.95187982  1
  Ti  Ti33  1  0.12593647  0.25578410  0.10432603  1
  Ti  Ti34  1  0.39376594  0.57764984  0.91622454  1
  Ti  Ti35  1  0.16419444  0.31540149  0.31483434  1
  Ti  Ti36  1  0.37609422  0.26604218  0.40776479  1
  Ti  Ti37  1  0.67757063  0.70644142  0.42655331  1
  Ti  Ti38  1  0.45707609  0.62960598  0.46585591  1
  Ti  Ti39  1  0.49441588  0.13453251  0.13622664  1
  Ti  Ti40  1  0.75570398  0.41400732  0.17814927  1
  Ti  Ti41  1  0.20373822  0.93106751  0.35089723  1
  Ti  Ti42  1  0.59128532  0.92890030  0.23082559  1
  Ti  Ti43  1  0.79157062  0.61320811  0.15639083  1
  Ti  Ti44  1  0.47165374  0.97601550  0.96945877  1
  Ti  Ti45  1  0.45234130  0.76180910  0.01237888  1
  Ti  Ti46  1  0.88258420  0.12094071  0.49184785  1
  Ti  Ti47  1  0.36471293  0.93915035  0.14006293  1
  Ti  Ti48  1  0.53572423  0.13126568  0.83372683  1
  Ti  Ti49  1  0.62828238  0.52770918  0.32376030  1
  Ti  Ti50  1  0.84470892  0.59426058  0.77522854  1
  Ti  Ti51  1  0.90498611  0.21543310  0.71166780  1
  Ti  Ti52  1  0.31149598  0.16705340  0.71677246  1
  Ti  Ti53  1  0.05462466  0.88892749  0.89216452  1
  Ti  Ti54  1  0.68865031  0.04203008  0.03888968  1
  Ti  Ti55  1  0.84547186  0.01958443  0.88013573  1
  Ti  Ti56  1  0.86256450  0.25401789  0.29626777  1
  Ti  Ti57  1  0.15151902  0.48761985  0.43668227  1
  Ti  Ti58  1  0.73889959  0.36921681  0.71502463  1
  Ti  Ti59  1  0.56234994  0.90490687  0.46193046  1
  Ti  Ti60  1  0.33655789  0.00693548  0.52945239  1
  Ti  Ti61  1  0.51911731  0.74662149  0.80344398  1
  Ti  Ti62  1  0.01050610  0.54728533  0.60182918  1
  Ti  Ti63  1  0.81137790  0.80132630  0.80508553  1
  Ti  Ti64  1  0.18905630  0.92960726  0.68618089  1
  Ti  Ti65  1  0.93710895  0.29625926  0.98821927  1
  Ti  Ti66  1  0.15297946  0.34135813  0.63163869  1
  Ti  Ti67  1  0.16735845  0.82731119  0.13050224  1
  Ti  Ti68  1  0.40124327  0.83058190  0.34179197  1
  Ti  Ti69  1  0.37079079  0.32060202  0.16515841  1
  Ti  Ti70  1  0.60218028  0.51427427  0.82174057  1
  Ti  Ti71  1  0.24812362  0.98674643  0.90277100  1
  Ti  Ti72  1  0.77146653  0.53615906  0.56406111  1
  Ti  Ti73  1  0.71895502  0.14720141  0.66498220  1
  Ti  Ti74  1  0.23396034  0.44088423  0.01713388  1
  Ti  Ti75  1  0.65055971  0.70949296  0.64794898  1
  Ti  Ti76  1  0.23108381  0.68917228  0.35163014  1
  Ti  Ti77  1  0.00398035  0.50703947  0.98749537  1
  Ti  Ti78  1  0.91124568  0.89394587  0.08600582  1
  Ti  Ti79  1  0.38852038  0.79180963  0.58594427  1
  Ti  Ti80  1  0.05007696  0.71234276  0.75861088  1
  Ti  Ti81  1  0.00187538  0.88400556  0.29034656  1
  Ti  Ti82  1  0.64074922  0.93027497  0.85301795  1
  Ti  Ti83  1  0.03894080  0.97008978  0.49529127  1
  Ti  Ti84  1  0.86252226  0.50749169  0.36224444  1
  Ti  Ti85  1  0.15409329  0.29073938  0.85930810  1
  Ti  Ti86  1  0.34940002  0.37415188  0.82586130  1
  Ti  Ti87  1  0.01252949  0.67635122  0.17482955  1
  Ti  Ti88  1  -0.00003596  0.67503062  0.40028066  1
  Ti  Ti89  1  0.97836442  0.32928903  0.49479928  1
  Ti  Ti90  1  0.74258404  0.22624297  0.89687091  1
  Ti  Ti91  1  0.65853066  0.94462524  0.64321578  1
  Ti  Ti92  1  0.53798145  0.31813381  0.97691210  1
  Ti  Ti93  1  0.04494170  0.11233269  0.88245758  1
  Ti  Ti94  1  0.17613331  0.52002734  0.21239448  1
  Ti  Ti95  1  0.98272464  0.41768039  0.19569554  1
  Ti  Ti96  1  0.18282591  0.16774430  0.47803320  1
  Ti  Ti97  1  0.65934015  0.12494896  0.40835824  1
  Ti  Ti98  1  0.44589263  0.06363495  0.34562658  1
  Ti  Ti99  1  0.96212407  0.40261769  0.78067871  1
loop_
_geom_bond_atom_site_label_1
_geom_bond_atom_site_label_2
_geom_bond_distance
_geom_bond_site_symmetry_2
Ti0 Ti51 2.497104 1_455
Ti0 Ti96 2.505672 1_555
Ti0 Ti93 2.690719 1_555
Ti0 Ti64 2.693380 1_545
Ti0 Ti66 2.816909 1_555
Ti0 Ti52 2.820520 1_555
Ti0 Ti31 2.904631 1_445
Ti0 Ti83 2.915555 1_545
Ti0 Ti46 3.135919 1_455
Ti0 Ti89 3.318877 1_455
Ti0 Ti85 3.331609 1_555
Ti1 Ti21 2.529397 1_554
Ti1 Ti82 2.763616 1_554
Ti1 Ti54 2.791836 1_565
Ti1 Ti78 2.811856 1_555
Ti1 Ti5 2.838963 1_555
Ti1 Ti42 2.857104 1_555
Ti1 Ti9 2.869150 1_555
Ti1 Ti43 2.932294 1_555
Ti1 Ti45 3.026821 1_555
Ti1 Ti8 3.231642 1_554
Ti1 Ti63 3.317108 1_554
Ti2 Ti45 2.570870 1_555
Ti2 Ti94 2.630921 1_555
Ti2 Ti5 2.810243 1_555
Ti2 Ti3 2.811620 1_555
Ti2 Ti76 2.821810 1_555
Ti2 Ti30 2.892189 1_554
Ti2 Ti28 2.940671 1_555
Ti2 Ti34 3.047619 1_554
Ti2 Ti67 3.091206 1_555
Ti3 Ti36 2.749507 1_555
Ti3 Ti38 2.753246 1_555
Ti3 Ti69 2.813704 1_555
Ti3 Ti94 2.858098 1_555
Ti3 Ti49 2.950673 1_555
Ti3 Ti57 3.133761 1_555
Ti3 Ti76 3.219271 1_555
Ti4 Ti73 2.694610 1_555
Ti4 Ti97 2.724100 1_555
Ti4 Ti60 2.878562 1_555
Ti4 Ti52 2.923245 1_555
Ti4 Ti48 3.084708 1_555
Ti4 Ti98 3.120880 1_555
Ti4 Ti91 3.167165 1_545
Ti5 Ti68 2.845212 1_555
Ti5 Ti9 3.187488 1_555
Ti6 Ti70 2.388140 1_555
Ti6 Ti61 2.917520 1_555
Ti6 Ti75 3.056425 1_555
Ti6 Ti86 3.065069 1_555
Ti6 Ti79 3.140230 1_555
Ti7 Ti74 2.700224 1_556
Ti7 Ti80 2.773389 1_555
Ti7 Ti86 2.773658 1_555
Ti7 Ti85 2.852169 1_555
Ti7 Ti99 2.877352 1_455
Ti7 Ti77 2.882746 1_555
Ti8 Ti87 2.696501 1_656
Ti8 Ti80 2.905923 1_655
Ti10 Ti56 2.684468 1_455
Ti10 Ti23 2.708975 1_555
Ti10 Ti24 2.829665 1_555
Ti10 Ti96 2.884910 1_555
Ti10 Ti83 2.936595 1_545
Ti10 Ti81 2.943893 1_545
Ti10 Ti35 2.945464 1_555
Ti10 Ti33 2.952263 1_555
Ti10 Ti20 2.968202 1_455
Ti10 Ti41 3.003303 1_545
Ti10 Ti46 3.059586 1_455
Ti10 Ti16 3.097648 1_455
Ti11 Ti27 2.686166 1_555
Ti11 Ti88 2.793536 1_655
Ti11 Ti75 2.794655 1_555
Ti11 Ti62 2.813628 1_655
Ti11 Ti72 2.821625 1_555
Ti11 Ti50 2.836242 1_555
Ti11 Ti63 2.916572 1_555
Ti11 Ti80 2.947158 1_655
Ti11 Ti37 3.003134 1_555
Ti11 Ti31 3.228184 1_555
Ti11 Ti12 3.402947 1_655
Ti12 Ti14 2.530299 1_555
Ti12 Ti83 2.618688 1_555
Ti12 Ti64 2.702972 1_555
Ti12 Ti76 2.706365 1_555
Ti12 Ti88 2.790338 1_555
Ti12 Ti41 2.838569 1_555
Ti12 Ti79 2.931062 1_555
Ti12 Ti80 3.046068 1_555
Ti13 Ti86 2.452050 1_555
Ti13 Ti48 2.566596 1_555
Ti13 Ti58 2.718946 1_555
Ti13 Ti25 2.749816 1_555
Ti13 Ti4 2.807623 1_555
Ti13 Ti29 2.938974 1_555
Ti13 Ti70 2.947259 1_555
Ti13 Ti92 2.970663 1_555
Ti13 Ti6 3.072450 1_555
Ti13 Ti52 3.157252 1_555
Ti14 Ti6 2.692679 1_555
Ti14 Ti7 2.712398 1_555
Ti14 Ti29 2.791528 1_555
Ti14 Ti79 2.869527 1_555
Ti14 Ti62 2.926692 1_555
Ti14 Ti57 2.944384 1_555
Ti14 Ti38 3.132224 1_555
Ti14 Ti80 3.149929 1_555
Ti14 Ti18 3.204384 1_555
Ti14 Ti76 3.233454 1_555
Ti15 Ti49 2.699605 1_555
Ti15 Ti36 2.724372 1_555
Ti15 Ti26 2.746563 1_555
Ti15 Ti69 2.835432 1_555
Ti15 Ti3 2.855935 1_555
Ti15 Ti97 2.871897 1_555
Ti15 Ti40 2.909588 1_555
Ti15 Ti25 2.990537 1_555
Ti15 Ti19 3.007123 1_555
Ti15 Ti28 3.131602 1_555
Ti15 Ti39 3.282386 1_555
Ti16 Ti20 2.580028 1_555
Ti16 Ti27 2.696980 1_545
Ti16 Ti97 2.744016 1_555
Ti16 Ti42 2.870953 1_545
Ti16 Ti81 2.916861 1_645
Ti16 Ti9 2.919915 1_545
Ti16 Ti26 2.976333 1_555
Ti16 Ti56 2.977117 1_555
Ti16 Ti54 2.988115 1_555
Ti16 Ti78 3.053680 1_545
Ti16 Ti46 3.159288 1_555
Ti17 Ti39 2.691974 1_556
Ti17 Ti71 2.793378 1_545
Ti17 Ti85 2.809074 1_555
Ti17 Ti69 2.936675 1_556
Ti17 Ti33 2.963994 1_556
Ti17 Ti44 3.005635 1_545
Ti17 Ti86 3.029281 1_555
Ti17 Ti92 3.124526 1_555
Ti17 Ti48 3.154715 1_555
Ti17 Ti23 3.177380 1_556
Ti17 Ti52 3.205442 1_555
Ti17 Ti24 3.447389 1_556
Ti18 Ti64 2.661266 1_555
Ti18 Ti61 2.761247 1_555
Ti18 Ti30 2.800445 1_555
Ti18 Ti34 2.853501 1_555
Ti18 Ti22 2.960138 1_555
Ti18 Ti79 2.986693 1_555
Ti18 Ti71 2.986745 1_555
Ti18 Ti80 3.019340 1_555
Ti18 Ti45 3.037736 1_556
Ti18 Ti53 3.279901 1_555
Ti19 Ti25 2.624085 1_555
Ti19 Ti56 2.701021 1_555
Ti19 Ti89 2.711901 1_555
Ti19 Ti97 2.852185 1_555
Ti19 Ti46 2.868261 1_555
Ti19 Ti58 2.939254 1_555
Ti19 Ti72 2.963113 1_555
Ti19 Ti84 2.992971 1_555
Ti19 Ti73 3.032201 1_555
Ti20 Ti65 2.537984 1_554
Ti20 Ti54 2.711872 1_555
Ti20 Ti24 2.736558 1_655
Ti20 Ti78 2.773014 1_545
Ti20 Ti26 2.786684 1_555
Ti20 Ti55 2.887646 1_554
Ti20 Ti93 3.067115 1_654
Ti20 Ti90 3.103440 1_554
Ti20 Ti56 3.113413 1_555
Ti20 Ti33 3.319479 1_655
Ti21 Ti70 2.519791 1_555
Ti21 Ti32 2.720919 1_555
Ti21 Ti43 2.735167 1_556
Ti21 Ti61 2.813037 1_555
Ti21 Ti28 2.967646 1_556
Ti21 Ti50 3.013231 1_555
Ti21 Ti8 3.042637 1_555
Ti21 Ti63 3.053208 1_555
Ti21 Ti45 3.125357 1_556
Ti22 Ti60 2.689042 1_565
Ti22 Ti79 2.772215 1_555
Ti22 Ti61 2.799601 1_555
Ti22 Ti82 2.888891 1_555
Ti22 Ti44 2.889642 1_555
Ti22 Ti64 2.908568 1_555
Ti22 Ti48 2.937197 1_565
Ti22 Ti91 2.969418 1_555
Ti22 Ti52 2.977486 1_565
Ti22 Ti71 2.998120 1_555
Ti22 Ti4 3.255656 1_565
Ti23 Ti98 2.586573 1_555
Ti23 Ti33 2.690030 1_555
Ti23 Ti35 2.788432 1_555
Ti23 Ti41 2.797469 1_545
Ti23 Ti69 2.884272 1_555
Ti23 Ti24 2.905788 1_555
Ti23 Ti47 2.924084 1_545
Ti23 Ti39 3.057625 1_555
Ti23 Ti96 3.064088 1_555
Ti23 Ti36 3.065413 1_555
Ti24 Ti67 2.584658 1_545
Ti24 Ti93 2.698835 1_554
Ti24 Ti71 2.862721 1_544
Ti24 Ti33 2.870026 1_555
Ti24 Ti78 2.911189 1_445
Ti24 Ti53 3.068940 1_544
Ti24 Ti81 3.193860 1_545
Ti24 Ti47 3.258102 1_545
Ti24 Ti41 3.437157 1_545
Ti25 Ti29 2.596897 1_555
Ti25 Ti49 2.779770 1_555
Ti25 Ti38 2.879011 1_555
Ti25 Ti6 2.937429 1_555
Ti25 Ti72 2.952660 1_555
Ti25 Ti58 3.098180 1_555
Ti25 Ti3 3.155493 1_555
Ti25 Ti36 3.335835 1_555
Ti25 Ti4 3.414257 1_555
Ti26 Ti40 2.587555 1_555
Ti26 Ti54 2.629021 1_555
Ti26 Ti39 2.638630 1_555
Ti26 Ti56 2.744848 1_555
Ti26 Ti92 2.881070 1_554
Ti26 Ti90 3.012226 1_554
Ti27 Ti91 2.721173 1_555
Ti27 Ti46 2.785915 1_565
Ti27 Ti59 2.811491 1_555
Ti27 Ti9 2.881184 1_555
Ti27 Ti31 2.963938 1_555
Ti27 Ti83 2.985447 1_655
Ti27 Ti97 3.050380 1_565
Ti27 Ti37 3.093751 1_555
Ti27 Ti81 3.272286 1_655
Ti28 Ti49 2.811069 1_555
Ti28 Ti40 2.831113 1_555
Ti28 Ti92 2.850576 1_554
Ti28 Ti34 2.936208 1_554
Ti28 Ti5 2.980925 1_555
Ti28 Ti69 3.165386 1_555
Ti28 Ti3 3.223214 1_555
Ti29 Ti6 2.647171 1_555
Ti29 Ti66 2.664887 1_555
Ti29 Ti36 2.782737 1_555
Ti29 Ti57 2.896199 1_555
Ti29 Ti3 2.987239 1_555
Ti29 Ti86 3.082749 1_555
Ti29 Ti38 3.147063 1_555
Ti29 Ti52 3.534379 1_555
Ti30 Ti67 2.772661 1_556
Ti30 Ti77 2.789840 1_555
Ti30 Ti74 2.829610 1_556
Ti30 Ti7 2.844591 1_555
Ti30 Ti87 2.954159 1_556
Ti30 Ti8 2.957864 1_455
Ti30 Ti34 2.990604 1_555
Ti30 Ti80 3.047369 1_555
Ti30 Ti94 3.131743 1_556
Ti30 Ti53 3.218088 1_555
Ti31 Ti55 2.638993 1_565
Ti31 Ti83 2.678885 1_655
Ti31 Ti63 2.802866 1_555
Ti31 Ti46 2.838528 1_565
Ti31 Ti91 3.065942 1_555
Ti31 Ti51 3.111219 1_565
Ti31 Ti53 3.126254 1_655
Ti31 Ti73 3.130351 1_565
Ti31 Ti64 3.320705 1_655
Ti31 Ti93 3.491149 1_665
Ti31 Ti80 3.608953 1_655
Ti32 Ti65 2.630220 1_555
Ti32 Ti70 2.643835 1_555
Ti32 Ti40 2.709094 1_556
Ti32 Ti90 2.849029 1_555
Ti32 Ti50 2.886497 1_555
Ti32 Ti77 2.909245 1_655
Ti32 Ti58 3.048599 1_555
Ti32 Ti99 3.099173 1_555
Ti32 Ti92 3.264465 1_555
Ti33 Ti65 2.639185 1_454
Ti33 Ti35 2.696179 1_555
Ti33 Ti74 2.822548 1_555
Ti33 Ti95 2.871288 1_455
Ti33 Ti85 2.948645 1_554
Ti33 Ti69 3.137475 1_555
Ti34 Ti45 2.731570 1_556
Ti34 Ti74 2.825164 1_556
Ti34 Ti70 2.846698 1_555
Ti34 Ti6 2.871351 1_555
Ti34 Ti86 2.874431 1_555
Ti34 Ti61 2.891121 1_555
Ti34 Ti7 3.120326 1_555
Ti35 Ti96 2.589852 1_555
Ti35 Ti57 2.663703 1_555
Ti35 Ti94 2.760652 1_555
Ti35 Ti36 2.773946 1_555
Ti35 Ti95 2.792225 1_455
Ti35 Ti69 3.058184 1_555
Ti35 Ti89 3.110445 1_455
Ti36 Ti96 2.757502 1_555
Ti36 Ti98 2.772705 1_555
Ti36 Ti4 2.796038 1_555
Ti36 Ti69 2.925251 1_555
Ti37 Ti9 2.586774 1_555
Ti37 Ti75 2.663502 1_555
Ti37 Ti49 2.682767 1_555
Ti37 Ti72 2.786546 1_555
Ti37 Ti5 2.840965 1_555
Ti37 Ti59 2.841033 1_555
Ti37 Ti38 2.858344 1_555
Ti38 Ti79 2.658880 1_555
Ti38 Ti6 2.714509 1_555
Ti38 Ti68 2.874777 1_555
Ti38 Ti49 2.969938 1_555
Ti38 Ti76 3.044769 1_555
Ti38 Ti5 3.315358 1_555
Ti38 Ti75 3.358757 1_555
Ti39 Ti98 2.669843 1_555
Ti39 Ti69 2.743298 1_555
Ti39 Ti54 2.842600 1_555
Ti39 Ti44 2.902209 1_544
Ti39 Ti47 2.921014 1_545
Ti39 Ti42 2.922026 1_545
Ti39 Ti92 2.939776 1_554
Ti40 Ti43 2.525974 1_555
Ti40 Ti56 2.641916 1_555
Ti40 Ti95 2.709817 1_555
Ti40 Ti49 2.747703 1_555
Ti40 Ti84 2.849561 1_555
Ti41 Ti81 2.595477 1_555
Ti41 Ti68 2.632090 1_555
Ti41 Ti83 2.679562 1_555
Ti41 Ti60 2.858710 1_565
Ti41 Ti76 3.014538 1_555
Ti41 Ti67 3.029555 1_555
Ti41 Ti47 3.179106 1_555
Ti41 Ti98 3.368310 1_565
Ti41 Ti96 3.397959 1_565
Ti42 Ti5 2.775426 1_555
Ti42 Ti59 2.777429 1_555
Ti42 Ti98 2.799245 1_565
Ti42 Ti54 2.885659 1_565
Ti42 Ti47 2.887203 1_555
Ti42 Ti68 2.903034 1_555
Ti42 Ti9 3.008988 1_555
Ti43 Ti9 2.696308 1_555
Ti43 Ti87 2.780089 1_655
Ti43 Ti84 2.812550 1_555
Ti43 Ti49 2.977360 1_555
Ti43 Ti8 2.980632 1_554
Ti43 Ti5 3.104032 1_555
Ti43 Ti95 3.280653 1_555
Ti44 Ti47 2.440295 1_556
Ti44 Ti82 2.530165 1_555
Ti44 Ti48 2.581135 1_565
Ti44 Ti45 2.698822 1_556
Ti44 Ti71 2.762593 1_555
Ti44 Ti54 2.863454 1_566
Ti45 Ti61 2.639366 1_554
Ti45 Ti5 2.766993 1_555
Ti45 Ti47 2.929347 1_555
Ti46 Ti83 2.595867 1_645
Ti46 Ti56 2.773254 1_555
Ti46 Ti97 2.821965 1_555
Ti46 Ti89 2.868070 1_555
Ti46 Ti73 2.882820 1_555
Ti46 Ti51 2.949297 1_555
Ti47 Ti68 2.702634 1_555
Ti47 Ti67 2.774994 1_555
Ti47 Ti98 3.136797 1_565
Ti47 Ti71 3.143987 1_554
Ti48 Ti82 2.751837 1_545
Ti48 Ti90 2.877737 1_555
Ti48 Ti92 2.969194 1_555
Ti48 Ti73 2.990087 1_555
Ti48 Ti52 2.999785 1_555
Ti48 Ti54 3.147939 1_556
Ti49 Ti5 2.628477 1_555
Ti49 Ti84 2.819696 1_555
Ti50 Ti63 2.639554 1_555
Ti50 Ti99 2.718788 1_555
Ti50 Ti72 2.796148 1_555
Ti50 Ti80 2.896980 1_655
Ti50 Ti8 2.900032 1_555
Ti50 Ti62 2.948552 1_655
Ti50 Ti75 3.015728 1_555
Ti50 Ti70 3.130844 1_555
Ti50 Ti58 3.225114 1_555
Ti50 Ti77 3.246499 1_655
Ti51 Ti73 2.466859 1_555
Ti51 Ti99 2.625195 1_555
Ti51 Ti58 2.706587 1_555
Ti51 Ti93 2.825962 1_655
Ti51 Ti90 2.960326 1_555
Ti51 Ti89 3.020631 1_555
Ti51 Ti55 3.162034 1_555
Ti52 Ti66 2.946020 1_555
Ti52 Ti85 2.997843 1_555
Ti52 Ti86 3.002030 1_555
Ti52 Ti60 3.094303 1_555
Ti52 Ti71 3.168205 1_545
Ti52 Ti96 3.209868 1_555
Ti52 Ti64 3.374954 1_545
Ti53 Ti71 2.646251 1_555
Ti53 Ti93 2.772011 1_565
Ti53 Ti80 2.793765 1_555
Ti53 Ti8 2.888820 1_455
Ti53 Ti78 2.893308 1_456
Ti53 Ti55 2.923641 1_465
Ti53 Ti64 2.974136 1_555
Ti53 Ti67 3.161062 1_556
Ti53 Ti63 3.304319 1_455
Ti54 Ti55 2.696495 1_554
Ti54 Ti82 2.750571 1_544
Ti54 Ti90 2.856800 1_554
Ti54 Ti78 3.197775 1_545
Ti55 Ti93 2.675299 1_655
Ti55 Ti82 2.735597 1_545
Ti55 Ti90 2.829388 1_555
Ti55 Ti78 2.905790 1_546
Ti55 Ti63 2.950257 1_545
Ti55 Ti73 3.250652 1_555
Ti56 Ti95 2.749658 1_555
Ti56 Ti89 2.939859 1_555
Ti56 Ti97 3.208566 1_555
Ti56 Ti84 3.296925 1_555
Ti57 Ti94 2.697825 1_555
Ti57 Ti62 2.726359 1_555
Ti57 Ti76 2.841253 1_555
Ti57 Ti66 2.856932 1_555
Ti57 Ti88 2.905420 1_555
Ti57 Ti89 2.957680 1_455
Ti58 Ti72 2.700922 1_555
Ti58 Ti90 2.712633 1_555
Ti58 Ti70 2.769655 1_555
Ti58 Ti99 2.811066 1_555
Ti58 Ti73 2.878360 1_555
Ti59 Ti91 2.513936 1_555
Ti59 Ti68 2.605635 1_555
Ti59 Ti98 2.674230 1_565
Ti59 Ti79 2.909107 1_555
Ti59 Ti97 3.040181 1_565
Ti59 Ti60 3.072944 1_565
Ti59 Ti75 3.316083 1_555
Ti60 Ti98 2.632994 1_555
Ti60 Ti96 2.699968 1_555
Ti60 Ti64 2.733656 1_545
Ti60 Ti79 2.764405 1_545
Ti61 Ti75 2.496831 1_555
Ti61 Ti82 2.834145 1_555
Ti61 Ti79 3.014118 1_555
Ti61 Ti70 3.016094 1_555
Ti62 Ti99 2.779497 1_455
Ti62 Ti88 2.792259 1_555
Ti62 Ti72 2.883952 1_455
Ti62 Ti80 2.906768 1_555
Ti62 Ti66 3.022637 1_555
Ti62 Ti7 3.057699 1_555
Ti62 Ti89 3.101085 1_455
Ti63 Ti8 2.516306 1_555
Ti63 Ti82 2.636901 1_555
Ti63 Ti75 2.964581 1_555
Ti63 Ti91 3.073938 1_555
Ti63 Ti80 3.084837 1_655
Ti64 Ti71 2.805099 1_555
Ti64 Ti83 2.879953 1_555
Ti64 Ti79 3.172786 1_555
Ti64 Ti80 3.290916 1_555
Ti65 Ti90 2.736595 1_555
Ti65 Ti99 2.753479 1_555
Ti65 Ti77 2.764831 1_655
Ti65 Ti93 2.946313 1_655
Ti65 Ti85 3.024782 1_655
Ti65 Ti95 3.028552 1_556
Ti66 Ti89 2.637258 1_455
Ti66 Ti85 2.744334 1_555
Ti66 Ti96 2.933171 1_555
Ti66 Ti99 3.010597 1_455
Ti66 Ti7 3.145453 1_555
Ti67 Ti87 2.708654 1_555
Ti67 Ti81 2.861164 1_555
Ti67 Ti76 3.121650 1_555
Ti67 Ti78 3.160859 1_455
Ti67 Ti71 3.425563 1_554
Ti68 Ti76 2.726061 1_555
Ti68 Ti79 2.924266 1_555
Ti68 Ti98 2.967502 1_565
Ti69 Ti74 2.723673 1_555
Ti69 Ti92 3.020180 1_554
Ti69 Ti94 3.415313 1_555
Ti70 Ti92 3.089500 1_555
Ti70 Ti75 3.162653 1_555
Ti71 Ti93 2.833542 1_565
Ti72 Ti84 2.690179 1_555
Ti72 Ti75 2.796803 1_555
Ti73 Ti91 2.670618 1_545
Ti73 Ti90 3.002389 1_555
Ti74 Ti94 2.672390 1_555
Ti74 Ti86 2.831887 1_554
Ti74 Ti77 2.842644 1_554
Ti74 Ti85 2.904920 1_554
Ti75 Ti91 2.926102 1_555
Ti75 Ti79 3.308652 1_555
Ti76 Ti88 2.828799 1_555
Ti76 Ti94 2.847431 1_555
Ti77 Ti8 2.633489 1_455
Ti77 Ti95 2.671276 1_456
Ti77 Ti99 2.901198 1_455
Ti78 Ti81 2.642041 1_655
Ti78 Ti8 2.808167 1_554
Ti78 Ti9 2.829639 1_555
Ti78 Ti87 3.045800 1_655
Ti81 Ti9 2.675610 1_455
Ti81 Ti83 2.762585 1_555
Ti81 Ti88 2.836055 1_555
Ti81 Ti87 3.002084 1_555
Ti82 Ti91 2.506374 1_555
Ti83 Ti96 3.041304 1_565
Ti84 Ti95 2.735774 1_555
Ti84 Ti88 2.748249 1_655
Ti84 Ti89 2.931559 1_555
Ti85 Ti86 2.603393 1_555
Ti85 Ti93 2.610584 1_555
Ti85 Ti99 2.755837 1_455
Ti86 Ti92 2.895163 1_555
Ti87 Ti88 2.690552 1_555
Ti87 Ti94 2.717078 1_555
Ti87 Ti9 3.112401 1_455
Ti87 Ti95 3.242790 1_455
Ti88 Ti9 3.056150 1_455
Ti89 Ti96 3.120193 1_655
Ti90 Ti92 2.857305 1_555
Ti94 Ti95 2.679179 1_455
Ti97 Ti98 2.783031 1_555
