# generated using pymatgen
data_Li3GeO4
_symmetry_space_group_name_H-M   'P 1'
_cell_length_a   5.13161600
_cell_length_b   6.39245200
_cell_length_c   11.11143700
_cell_angle_alpha   90.00000000
_cell_angle_beta   90.00000000
_cell_angle_gamma   90.00000000
_symmetry_Int_Tables_number   1
_chemical_formula_structural   Li3GeO4
_chemical_formula_sum   'Li12 Ge4 O16'
_cell_volume   364.49523436
_cell_formula_units_Z   4
loop_
 _symmetry_equiv_pos_site_id
 _symmetry_equiv_pos_as_xyz
  1  'x, y, z'
loop_
 _atom_site_type_symbol
 _atom_site_label
 _atom_site_symmetry_multiplicity
 _atom_site_fract_x
 _atom_site_fract_y
 _atom_site_fract_z
 _atom_site_occupancy
  Li  Li0  1  0.81035400  0.00291900  0.83280700  1
  Li  Li1  1  0.18964600  0.99708100  0.16719300  1
  Li  Li2  1  0.31035400  0.99708100  0.66719300  1
  Li  Li3  1  0.18964600  0.50291900  0.16719300  1
  Li  Li4  1  0.68964600  0.00291900  0.33280700  1
  Li  Li5  1  0.81035400  0.49708100  0.83280700  1
  Li  Li6  1  0.68964600  0.49708100  0.33280700  1
  Li  Li7  1  0.31035400  0.50291900  0.66719300  1
  Li  Li8  1  0.18767700  0.75000000  0.92208000  1
  Li  Li9  1  0.81232300  0.25000000  0.07792000  1
  Li  Li10  1  0.68767700  0.25000000  0.57792000  1
  Li  Li11  1  0.31232300  0.75000000  0.42208000  1
  Ge  Ge0  1  0.82002700  0.75000000  0.58552700  1
  Ge  Ge1  1  0.17997300  0.25000000  0.41447300  1
  Ge  Ge2  1  0.32002700  0.25000000  0.91447300  1
  Ge  Ge3  1  0.67997300  0.75000000  0.08552700  1
  O  O0  1  0.71107100  0.52157400  0.66265400  1
  O  O1  1  0.28892900  0.47842600  0.33734600  1
  O  O2  1  0.21107100  0.47842600  0.83734600  1
  O  O3  1  0.28892900  0.02157400  0.33734600  1
  O  O4  1  0.78892900  0.52157400  0.16265400  1
  O  O5  1  0.71107100  0.97842600  0.66265400  1
  O  O6  1  0.78892900  0.97842600  0.16265400  1
  O  O7  1  0.21107100  0.02157400  0.83734600  1
  O  O8  1  0.16392800  0.75000000  0.58614800  1
  O  O9  1  0.83607200  0.25000000  0.41385200  1
  O  O10  1  0.66392800  0.25000000  0.91385200  1
  O  O11  1  0.33607200  0.75000000  0.08614800  1
  O  O12  1  0.79181700  0.75000000  0.93411400  1
  O  O13  1  0.20818300  0.25000000  0.06588600  1
  O  O14  1  0.29181700  0.25000000  0.56588600  1
  O  O15  1  0.70818300  0.75000000  0.43411400  1
loop_
_geom_bond_atom_site_label_1
_geom_bond_atom_site_label_2
_geom_bond_distance
_geom_bond_site_symmetry_2
Li0 O5 1.964338 1_545
Li0 O10 1.967289 1_555
Li0 O12 1.972340 1_545
Li0 O7 2.060398 1_655
Li1 O3 1.964338 1_565
Li1 O11 1.967289 1_555
Li1 O13 1.972340 1_565
Li1 O6 2.060398 1_455
Li2 O7 1.964338 1_565
Li2 O8 1.967289 1_555
Li2 O14 1.972340 1_565
Li2 O5 2.060398 1_555
Li3 O1 1.964338 1_555
Li3 O11 1.967289 1_555
Li3 O13 1.972340 1_555
Li3 O4 2.060398 1_455
Li4 O6 1.964338 1_545
Li4 O9 1.967289 1_555
Li4 O15 1.972340 1_545
Li4 O3 2.060398 1_555
Li5 O0 1.964338 1_555
Li5 O10 1.967289 1_555
Li5 O12 1.972340 1_555
Li5 O2 2.060398 1_655
Li6 O4 1.964338 1_555
Li6 O9 1.967289 1_555
Li6 O15 1.972340 1_555
Li6 O1 2.060398 1_555
Li7 O2 1.964338 1_555
Li7 O8 1.967289 1_555
Li7 O14 1.972340 1_555
Li7 O0 2.060398 1_555
Li8 O11 1.975686 1_556
Li8 O7 1.978546 1_565
Li8 O2 1.978546 1_555
Li8 O12 2.035798 1_455
Li9 O10 1.975686 1_554
Li9 O4 1.978546 1_555
Li9 O6 1.978546 1_545
Li9 O13 2.035798 1_655
Li10 O9 1.975686 1_555
Li10 O0 1.978546 1_555
Li10 O5 1.978546 1_545
Li10 O14 2.035798 1_555
Li11 O8 1.975686 1_555
Li11 O3 1.978546 1_565
Li11 O1 1.978546 1_555
Li11 O15 2.035798 1_555
Ge0 O8 1.764781 1_655
Ge0 O15 1.777620 1_555
Ge0 O5 1.783043 1_555
Ge0 O0 1.783043 1_555
Ge1 O9 1.764781 1_455
Ge1 O14 1.777620 1_555
Ge1 O1 1.783043 1_555
Ge1 O3 1.783043 1_555
Ge2 O10 1.764781 1_555
Ge2 O13 1.777620 1_556
Ge2 O2 1.783043 1_555
Ge2 O7 1.783043 1_555
Ge3 O11 1.764781 1_555
Ge3 O12 1.777620 1_554
Ge3 O6 1.783043 1_555
Ge3 O4 1.783043 1_555
