# generated using pymatgen
data_Si7Ge
_symmetry_space_group_name_H-M   'P 1'
_cell_length_a   5.46539507
_cell_length_b   5.46539507
_cell_length_c   5.46539507
_cell_angle_alpha   90.00000000
_cell_angle_beta   90.00000000
_cell_angle_gamma   90.00000000
_symmetry_Int_Tables_number   1
_chemical_formula_structural   Si7Ge
_chemical_formula_sum   'Si7 Ge1'
_cell_volume   163.25431993
_cell_formula_units_Z   1
loop_
 _symmetry_equiv_pos_site_id
 _symmetry_equiv_pos_as_xyz
  1  'x, y, z'
loop_
 _atom_site_type_symbol
 _atom_site_label
 _atom_site_symmetry_multiplicity
 _atom_site_fract_x
 _atom_site_fract_y
 _atom_site_fract_z
 _atom_site_occupancy
  Si  Si0  1  0.25261521  0.25261521  0.25261521  1
  Si  Si1  1  0.00000000  0.50000000  0.50000000  1
  Si  Si2  1  0.50000000  0.50000000  -0.00000000  1
  Si  Si3  1  0.50000000  -0.00000000  0.50000000  1
  Si  Si4  1  0.74738479  0.25261521  0.74738479  1
  Si  Si5  1  0.74738479  0.74738479  0.25261521  1
  Si  Si6  1  0.25261521  0.74738479  0.74738479  1
  Ge  Ge0  1  0.00000000  0.00000000  -0.00000000  1
loop_
_geom_bond_atom_site_label_1
_geom_bond_atom_site_label_2
_geom_bond_distance
_geom_bond_site_symmetry_2
Si0 Si1 2.358449 1_555
Si0 Si3 2.358449 1_555
Si0 Si2 2.358449 1_555
Si1 Si4 2.358449 1_455
Si1 Si5 2.358449 1_455
Si1 Si6 2.358449 1_555
Si2 Si5 2.358449 1_555
Si2 Si6 2.358449 1_554
Si2 Si4 2.358449 1_554
Si3 Si4 2.358449 1_555
Si3 Si5 2.358449 1_545
Si3 Si6 2.358449 1_545
Ge0 Si6 2.391342 1_544
Ge0 Si4 2.391342 1_454
Ge0 Si5 2.391342 1_445
Ge0 Si0 2.391342 1_555
