# generated using pymatgen
data_NaMg6Si
_symmetry_space_group_name_H-M   'P 1'
_cell_length_a   5.01919700
_cell_length_b   6.33855400
_cell_length_c   11.11540900
_cell_angle_alpha   90.00000000
_cell_angle_beta   90.00000000
_cell_angle_gamma   90.00000000
_symmetry_Int_Tables_number   1
_chemical_formula_structural   NaMg6Si
_chemical_formula_sum   'Na2 Mg12 Si2'
_cell_volume   353.63063743
_cell_formula_units_Z   2
loop_
 _symmetry_equiv_pos_site_id
 _symmetry_equiv_pos_as_xyz
  1  'x, y, z'
loop_
 _atom_site_type_symbol
 _atom_site_label
 _atom_site_symmetry_multiplicity
 _atom_site_fract_x
 _atom_site_fract_y
 _atom_site_fract_z
 _atom_site_occupancy
  Na  Na0  1  0.50000000  0.50000000  0.16692100  1
  Na  Na1  1  0.50000000  0.00000000  0.66692100  1
  Mg  Mg0  1  0.50000000  0.25152600  0.41651700  1
  Mg  Mg1  1  0.50000000  0.74847400  0.41651700  1
  Mg  Mg2  1  0.00000000  0.75535700  0.08448200  1
  Mg  Mg3  1  0.00000000  0.24464300  0.08448200  1
  Mg  Mg4  1  0.00000000  0.00000000  0.33156800  1
  Mg  Mg5  1  0.00000000  0.50000000  0.33493500  1
  Mg  Mg6  1  0.50000000  0.75152600  0.91651700  1
  Mg  Mg7  1  0.50000000  0.24847400  0.91651700  1
  Mg  Mg8  1  0.00000000  0.25535700  0.58448200  1
  Mg  Mg9  1  0.00000000  0.74464300  0.58448200  1
  Mg  Mg10  1  0.00000000  0.50000000  0.83156800  1
  Mg  Mg11  1  0.00000000  0.00000000  0.83493500  1
  Si  Si0  1  0.50000000  0.00000000  0.16457500  1
  Si  Si1  1  0.50000000  0.50000000  0.66457500  1
loop_
_geom_bond_atom_site_label_1
_geom_bond_atom_site_label_2
_geom_bond_distance
_geom_bond_site_symmetry_2
Na0 Si0 3.169384 1_565
Na0 Si0 3.169384 1_555
Na1 Si1 3.169384 1_555
Na1 Si1 3.169384 1_545
Mg0 Mg5 3.098535 1_555
Mg0 Mg5 3.098535 1_655
Mg0 Mg4 3.119536 1_655
Mg0 Mg4 3.119536 1_555
Mg0 Mg8 3.127996 1_555
Mg0 Mg8 3.127996 1_655
Mg0 Mg1 3.149932 1_555
Mg0 Si1 3.175379 1_555
Mg0 Mg1 3.188622 1_545
Mg0 Na0 3.190235 1_555
Mg0 Na1 3.207620 1_555
Mg0 Si0 3.222465 1_555
Mg1 Mg5 3.098535 1_655
Mg1 Mg5 3.098535 1_555
Mg1 Mg4 3.119536 1_665
Mg1 Mg4 3.119536 1_565
Mg1 Mg9 3.127996 1_655
Mg1 Mg9 3.127996 1_555
Mg1 Si1 3.175379 1_555
Mg1 Na0 3.190235 1_555
Mg1 Na1 3.207620 1_565
Mg1 Si0 3.222465 1_565
Mg2 Si0 3.081441 1_565
Mg2 Si0 3.081441 1_465
Mg2 Mg3 3.101366 1_565
Mg2 Na0 3.123718 1_555
Mg2 Na0 3.123718 1_455
Mg2 Mg6 3.127996 1_554
Mg2 Mg6 3.127996 1_454
Mg2 Mg4 3.153993 1_565
Mg2 Mg5 3.220229 1_555
Mg2 Mg3 3.237188 1_555
Mg3 Si0 3.081441 1_455
Mg3 Si0 3.081441 1_555
Mg3 Na0 3.123718 1_555
Mg3 Na0 3.123718 1_455
Mg3 Mg7 3.127996 1_554
Mg3 Mg7 3.127996 1_454
Mg3 Mg4 3.153993 1_555
Mg3 Mg5 3.220229 1_555
Mg4 Si0 3.121465 1_555
Mg4 Si0 3.121465 1_455
Mg4 Mg5 3.169498 1_545
Mg4 Mg5 3.169498 1_555
Mg4 Mg8 3.243907 1_555
Mg4 Mg9 3.243907 1_545
Mg5 Na0 3.128227 1_555
Mg5 Na0 3.128227 1_455
Mg5 Mg9 3.177842 1_555
Mg5 Mg8 3.177842 1_555
Mg6 Mg7 3.149932 1_565
Mg6 Si0 3.175379 1_566
Mg6 Mg7 3.188622 1_555
Mg6 Na1 3.190235 1_565
Mg6 Na0 3.207620 1_556
Mg6 Si1 3.222465 1_555
Mg7 Si0 3.175379 1_556
Mg7 Na1 3.190235 1_555
Mg7 Na0 3.207620 1_556
Mg7 Si1 3.222465 1_555
Mg8 Si1 3.081441 1_455
Mg8 Si1 3.081441 1_555
Mg8 Mg9 3.101366 1_555
Mg8 Na1 3.123718 1_555
Mg8 Na1 3.123718 1_455
Mg8 Mg9 3.237188 1_545
Mg9 Si1 3.081441 1_455
Mg9 Si1 3.081441 1_555
Mg9 Na1 3.123718 1_465
Mg9 Na1 3.123718 1_565
Mg10 Mg6 3.119536 1_455
Mg10 Mg6 3.119536 1_555
Mg10 Mg7 3.119536 1_455
Mg10 Mg7 3.119536 1_555
Mg10 Si1 3.121465 1_455
Mg10 Si1 3.121465 1_555
Mg10 Mg9 3.153993 1_555
Mg10 Mg8 3.153993 1_555
Mg10 Mg11 3.169498 1_555
Mg10 Mg11 3.169498 1_565
Mg10 Mg2 3.243907 1_556
Mg10 Mg3 3.243907 1_556
Mg11 Mg7 3.098535 1_555
Mg11 Mg7 3.098535 1_455
Mg11 Mg6 3.098535 1_445
Mg11 Mg6 3.098535 1_545
Mg11 Na1 3.128227 1_455
Mg11 Na1 3.128227 1_555
Mg11 Mg3 3.177842 1_556
Mg11 Mg2 3.177842 1_546
Mg11 Mg8 3.220229 1_555
Mg11 Mg9 3.220229 1_545
