# generated using pymatgen
data_KEu2Cl5
_symmetry_space_group_name_H-M   'P 1'
_cell_length_a   7.82502241
_cell_length_b   8.79975137
_cell_length_c   12.61020527
_cell_angle_alpha   90.05246330
_cell_angle_beta   90.00000000
_cell_angle_gamma   90.00000000
_symmetry_Int_Tables_number   1
_chemical_formula_structural   KEu2Cl5
_chemical_formula_sum   'K4 Eu8 Cl20'
_cell_volume   868.31632404
_cell_formula_units_Z   4
loop_
 _symmetry_equiv_pos_site_id
 _symmetry_equiv_pos_as_xyz
  1  'x, y, z'
loop_
 _atom_site_type_symbol
 _atom_site_label
 _atom_site_symmetry_multiplicity
 _atom_site_fract_x
 _atom_site_fract_y
 _atom_site_fract_z
 _atom_site_occupancy
  K  K0  1  0.03795005  0.50676945  0.32939764  1
  K  K1  1  0.96204995  0.49323055  0.67060236  1
  K  K2  1  0.53795005  0.49323055  0.17060236  1
  K  K3  1  0.46204995  0.50676945  0.82939764  1
  Eu  Eu0  1  0.02237557  0.00110058  0.32223514  1
  Eu  Eu1  1  0.97762443  -0.00110058  0.67776486  1
  Eu  Eu2  1  0.52237557  -0.00110058  0.17776486  1
  Eu  Eu3  1  0.47762443  0.00110058  0.82223514  1
  Eu  Eu4  1  0.07034136  0.25014186  0.00646073  1
  Eu  Eu5  1  0.92965864  0.74985814  0.99353927  1
  Eu  Eu6  1  0.57034136  0.74985814  0.49353927  1
  Eu  Eu7  1  0.42965864  0.25014186  0.50646073  1
  Cl  Cl0  1  0.16605621  0.53723742  0.09145369  1
  Cl  Cl1  1  0.83394379  0.46276258  0.90854631  1
  Cl  Cl2  1  0.66605621  0.46276258  0.40854631  1
  Cl  Cl3  1  0.33394379  0.53723742  0.59145369  1
  Cl  Cl4  1  0.82964494  0.21707074  0.18279485  1
  Cl  Cl5  1  0.17035506  0.78292926  0.81720515  1
  Cl  Cl6  1  0.32964494  0.78292926  0.31720515  1
  Cl  Cl7  1  0.67035506  0.21707074  0.68279485  1
  Cl  Cl8  1  0.30486321  0.23029857  0.28343837  1
  Cl  Cl9  1  0.69513679  0.76970143  0.71656163  1
  Cl  Cl10  1  0.80486321  0.76970143  0.21656163  1
  Cl  Cl11  1  0.19513679  0.23029857  0.78343837  1
  Cl  Cl12  1  0.45395201  0.21910412  0.00238700  1
  Cl  Cl13  1  0.54604799  0.78089588  0.99761300  1
  Cl  Cl14  1  0.95395201  0.78089588  0.49761300  1
  Cl  Cl15  1  0.04604799  0.21910412  0.50238700  1
  Cl  Cl16  1  0.66048141  0.03939998  0.39939480  1
  Cl  Cl17  1  0.33951859  0.96060002  0.60060520  1
  Cl  Cl18  1  0.16048141  0.96060002  0.10060520  1
  Cl  Cl19  1  0.83951859  0.03939998  0.89939480  1
loop_
_geom_bond_atom_site_label_1
_geom_bond_atom_site_label_2
_geom_bond_distance
_geom_bond_site_symmetry_2
Cl0 Eu4 2.843809 1_555
Cl0 Eu5 2.907106 1_454
Cl0 K2 3.100869 1_555
Cl0 K0 3.175116 1_555
Cl1 Eu5 2.843809 1_555
Cl1 Eu4 2.907106 1_656
Cl1 K3 3.100869 1_555
Cl1 K1 3.175116 1_555
Cl2 Eu6 2.843809 1_555
Cl2 Eu7 2.907106 1_555
Cl2 K0 3.100869 1_655
Cl2 K2 3.175116 1_555
Cl3 Eu7 2.843809 1_555
Cl3 Eu6 2.907106 1_555
Cl3 K1 3.100869 1_455
Cl3 K3 3.175116 1_555
Cl4 Eu4 2.928774 1_655
Cl4 Eu0 2.997375 1_655
Cl4 Eu2 3.077455 1_555
Cl4 K2 3.337632 1_555
Cl4 K0 3.544674 1_655
Cl5 Eu5 2.928774 1_455
Cl5 Eu1 2.997375 1_465
Cl5 Eu3 3.077455 1_565
Cl5 K3 3.337632 1_555
Cl5 K1 3.544674 1_455
Cl6 Eu6 2.928774 1_555
Cl6 Eu2 2.997375 1_565
Cl6 Eu0 3.077455 1_565
Cl6 K0 3.337632 1_555
Cl6 K2 3.544674 1_555
Cl7 Eu7 2.928774 1_555
Cl7 Eu3 2.997375 1_555
Cl7 Eu1 3.077455 1_555
Cl7 K1 3.337632 1_555
Cl7 K3 3.544674 1_555
Cl8 Eu2 2.968843 1_555
Cl8 Eu7 2.982038 1_555
Cl8 Eu0 3.032354 1_555
Cl8 K0 3.257981 1_555
Cl8 K2 3.272713 1_555
Cl9 Eu3 2.968843 1_565
Cl9 Eu6 2.982038 1_555
Cl9 Eu1 3.032354 1_565
Cl9 K1 3.257981 1_555
Cl9 K3 3.272713 1_555
Cl10 Eu0 2.968843 1_665
Cl10 Eu5 2.982038 1_554
Cl10 Eu2 3.032354 1_565
Cl10 K2 3.257981 1_555
Cl10 K0 3.272713 1_655
Cl11 Eu1 2.968843 1_455
Cl11 Eu4 2.982038 1_556
Cl11 Eu3 3.032354 1_555
Cl11 K3 3.257981 1_555
Cl11 K1 3.272713 1_455
Cl12 Eu3 2.977811 1_554
Cl12 Eu2 2.990040 1_555
Cl12 Eu4 3.014595 1_555
Cl12 K2 3.277376 1_555
Cl12 K3 3.343751 1_554
Cl13 Eu2 2.977811 1_566
Cl13 Eu3 2.990040 1_565
Cl13 Eu5 3.014595 1_555
Cl13 K3 3.277376 1_555
Cl13 K2 3.343751 1_556
Cl14 Eu1 2.977811 1_565
Cl14 Eu0 2.990040 1_665
Cl14 Eu6 3.014595 1_555
Cl14 K0 3.277376 1_655
Cl14 K1 3.343751 1_555
Cl15 Eu0 2.977811 1_555
Cl15 Eu1 2.990040 1_455
Cl15 Eu7 3.014595 1_555
Cl15 K1 3.277376 1_455
Cl15 K0 3.343751 1_555
Cl16 Eu6 2.899005 1_545
Cl16 Eu7 2.918846 1_555
Cl16 Eu0 3.013133 1_655
Cl16 Eu2 3.017278 1_555
Cl17 Eu7 2.899005 1_565
Cl17 Eu6 2.918846 1_555
Cl17 Eu1 3.013133 1_465
Cl17 Eu3 3.017278 1_565
Cl18 Eu4 2.899005 1_565
Cl18 Eu5 2.918846 1_454
Cl18 Eu2 3.013133 1_565
Cl18 Eu0 3.017278 1_565
Cl19 Eu5 2.899005 1_545
Cl19 Eu4 2.918846 1_656
Cl19 Eu3 3.013133 1_555
Cl19 Eu1 3.017278 1_555
