# generated using pymatgen
data_Ba10Ho5(Cu5O11)3
_symmetry_space_group_name_H-M   'P 1'
_cell_length_a   5.50692000
_cell_length_b   13.14381663
_cell_length_c   13.95589809
_cell_angle_alpha   114.24334631
_cell_angle_beta   99.68353765
_cell_angle_gamma   90.70593316
_symmetry_Int_Tables_number   1
_chemical_formula_structural   Ba10Ho5(Cu5O11)3
_chemical_formula_sum   'Ba10 Ho5 Cu15 O33'
_cell_volume   904.21574388
_cell_formula_units_Z   1
loop_
 _symmetry_equiv_pos_site_id
 _symmetry_equiv_pos_as_xyz
  1  'x, y, z'
loop_
 _atom_site_type_symbol
 _atom_site_label
 _atom_site_symmetry_multiplicity
 _atom_site_fract_x
 _atom_site_fract_y
 _atom_site_fract_z
 _atom_site_occupancy
  Ba  Ba0  1  0.14461500  0.18954600  0.27170600  1
  Ba  Ba1  1  0.34352400  0.19070300  0.67406400  1
  Ba  Ba2  1  0.53647800  0.18226800  0.07294500  1
  Ba  Ba3  1  0.73273100  0.19068800  0.47842500  1
  Ba  Ba4  1  0.93121400  0.18945900  0.87989900  1
  Ba  Ba5  1  0.26726900  0.80931200  0.52157500  1
  Ba  Ba6  1  0.46352200  0.81773200  0.92705500  1
  Ba  Ba7  1  0.65647600  0.80929700  0.32593600  1
  Ba  Ba8  1  0.85538500  0.81045400  0.72829400  1
  Ba  Ba9  1  0.06878600  0.81054100  0.12010100  1
  Ho  Ho0  1  0.19936400  0.49963500  0.40014500  1
  Ho  Ho1  1  0.80063600  0.50036500  0.59985500  1
  Ho  Ho2  1  0.39998500  0.50123500  0.80067100  1
  Ho  Ho3  1  0.00000000  0.50000000  0.00000000  1
  Ho  Ho4  1  0.60001500  0.49876500  0.19932900  1
  Cu  Cu0  1  0.07141200  0.35714100  0.14281500  1
  Cu  Cu1  1  0.67270200  0.35849300  0.34346300  1
  Cu  Cu2  1  0.27059200  0.35949000  0.54341900  1
  Cu  Cu3  1  0.87339300  0.35947600  0.74438000  1
  Cu  Cu4  1  0.47060300  0.35870200  0.94329700  1
  Cu  Cu5  1  0.12660700  0.64052400  0.25562000  1
  Cu  Cu6  1  0.72940800  0.64051000  0.45658100  1
  Cu  Cu7  1  0.32729800  0.64150700  0.65653700  1
  Cu  Cu8  1  0.92858800  0.64285900  0.85718500  1
  Cu  Cu9  1  0.52939700  0.64129800  0.05670300  1
  Cu  Cu10  1  0.00000000  0.00000000  0.00000000  1
  Cu  Cu11  1  0.57990800  0.00001600  0.19393100  1
  Cu  Cu12  1  0.21353200  0.99996900  0.40466000  1
  Cu  Cu13  1  0.78646800  0.00003100  0.59534000  1
  Cu  Cu14  1  0.42009200  0.99998400  0.80606900  1
  O  O0  1  0.37615800  0.37994700  0.25256500  1
  O  O1  1  0.97648700  0.38025000  0.45229500  1
  O  O2  1  0.57585900  0.37818500  0.65138600  1
  O  O3  1  0.17623100  0.38034300  0.85190200  1
  O  O4  1  0.77493300  0.37958900  0.05116100  1
  O  O5  1  0.42414100  0.62181500  0.34861400  1
  O  O6  1  0.02351300  0.61975000  0.54770500  1
  O  O7  1  0.62384200  0.62005300  0.74743500  1
  O  O8  1  0.22506700  0.62041100  0.94883900  1
  O  O9  1  0.82376900  0.61965700  0.14809800  1
  O  O10  1  0.03215200  0.16007800  0.06406800  1
  O  O11  1  0.65198100  0.15267000  0.26844600  1
  O  O12  1  0.20909500  0.15235100  0.45421400  1
  O  O13  1  0.85174500  0.15237900  0.66764300  1
  O  O14  1  0.40904100  0.15258500  0.85367400  1
  O  O15  1  0.14825500  0.84762100  0.33235700  1
  O  O16  1  0.79090500  0.84764900  0.54578600  1
  O  O17  1  0.34801900  0.84733000  0.73155400  1
  O  O18  1  0.96784800  0.83992200  0.93593200  1
  O  O19  1  0.59095900  0.84741500  0.14632600  1
  O  O20  1  0.87660200  0.38182200  0.25277200  1
  O  O21  1  0.47640000  0.38106500  0.45253800  1
  O  O22  1  0.07597600  0.38074900  0.65234900  1
  O  O23  1  0.67585800  0.38094700  0.85230700  1
  O  O24  1  0.27641200  0.38176700  0.05256900  1
  O  O25  1  0.92402400  0.61925100  0.34765100  1
  O  O26  1  0.52360000  0.61893500  0.54746200  1
  O  O27  1  0.12339800  0.61817800  0.74722800  1
  O  O28  1  0.72358800  0.61823300  0.94743100  1
  O  O29  1  0.32414200  0.61905300  0.14769300  1
  O  O30  1  0.28570000  0.99997500  0.09777700  1
  O  O31  1  0.50000000  0.00000000  0.50000000  1
  O  O32  1  0.71430000  0.00002500  0.90222300  1
loop_
_geom_bond_atom_site_label_1
_geom_bond_atom_site_label_2
_geom_bond_distance
_geom_bond_site_symmetry_2
Ba0 O10 2.720166 1_555
Ba0 O11 2.739483 1_455
Ba0 O12 2.752317 1_555
Ba0 O11 2.846329 1_555
Ba0 O30 2.901610 1_545
Ba0 O0 2.923210 1_555
Ba0 O20 3.023946 1_455
Ba0 O1 3.024278 1_455
Ba0 O21 3.026942 1_555
Ba1 O14 2.719537 1_555
Ba1 O13 2.728319 1_455
Ba1 O12 2.858767 1_555
Ba1 O13 2.859495 1_555
Ba1 O2 2.916951 1_555
Ba1 O31 2.946775 1_555
Ba1 O3 2.994484 1_555
Ba1 O23 3.006236 1_555
Ba1 O22 3.010722 1_555
Ba2 O10 2.765562 1_555
Ba2 O10 2.766774 1_655
Ba2 O11 2.879930 1_555
Ba2 O14 2.880869 1_554
Ba2 O32 2.920486 1_554
Ba2 O30 2.920550 1_545
Ba2 O4 3.039935 1_555
Ba2 O0 3.044089 1_555
Ba2 O24 3.094456 1_555
Ba2 O20 3.094838 1_555
Ba3 O11 2.718186 1_555
Ba3 O12 2.727767 1_655
Ba3 O13 2.859069 1_555
Ba3 O12 2.860060 1_555
Ba3 O2 2.918045 1_555
Ba3 O31 2.947123 1_555
Ba3 O1 2.995198 1_555
Ba3 O21 3.007059 1_555
Ba3 O22 3.010940 1_655
Ba4 O10 2.721039 1_656
Ba4 O14 2.739091 1_655
Ba4 O13 2.752606 1_555
Ba4 O14 2.846692 1_555
Ba4 O32 2.900422 1_555
Ba4 O4 2.922042 1_556
Ba4 O24 3.024588 1_656
Ba4 O23 3.026782 1_555
Ba4 O3 3.027711 1_655
Ba5 O17 2.718186 1_555
Ba5 O16 2.727767 1_455
Ba5 O15 2.859069 1_555
Ba5 O16 2.860060 1_555
Ba5 O5 2.918045 1_555
Ba5 O31 2.947123 1_565
Ba5 O6 2.995198 1_555
Ba5 O26 3.007059 1_555
Ba5 O25 3.010940 1_455
Ba6 O18 2.765562 1_555
Ba6 O18 2.766774 1_455
Ba6 O17 2.879930 1_555
Ba6 O19 2.880869 1_556
Ba6 O30 2.920486 1_556
Ba6 O32 2.920550 1_565
Ba6 O8 3.039935 1_555
Ba6 O7 3.044089 1_555
Ba6 O28 3.094456 1_555
Ba6 O27 3.094838 1_555
Ba7 O19 2.719537 1_555
Ba7 O15 2.728319 1_655
Ba7 O16 2.858767 1_555
Ba7 O15 2.859495 1_555
Ba7 O5 2.916951 1_555
Ba7 O31 2.946775 1_565
Ba7 O9 2.994484 1_555
Ba7 O29 3.006236 1_555
Ba7 O25 3.010722 1_555
Ba8 O18 2.720166 1_555
Ba8 O17 2.739483 1_655
Ba8 O16 2.752317 1_555
Ba8 O17 2.846329 1_555
Ba8 O32 2.901610 1_565
Ba8 O7 2.923210 1_555
Ba8 O27 3.023946 1_655
Ba8 O6 3.024278 1_655
Ba8 O26 3.026942 1_555
Ba9 O18 2.721039 1_454
Ba9 O19 2.739091 1_455
Ba9 O15 2.752606 1_555
Ba9 O19 2.846692 1_555
Ba9 O30 2.900422 1_555
Ba9 O8 2.922042 1_554
Ba9 O28 3.024588 1_454
Ba9 O29 3.026782 1_555
Ba9 O9 3.027711 1_455
Ho0 O1 2.385237 1_455
Ho0 O6 2.389507 1_555
Ho0 O0 2.390852 1_555
Ho0 O5 2.413980 1_555
Ho0 O20 2.423657 1_455
Ho0 O21 2.431065 1_555
Ho0 O26 2.433600 1_555
Ho0 O25 2.436920 1_455
Ho1 O6 2.385237 1_655
Ho1 O1 2.389507 1_555
Ho1 O7 2.390852 1_555
Ho1 O2 2.413980 1_555
Ho1 O27 2.423657 1_655
Ho1 O26 2.431065 1_555
Ho1 O21 2.433600 1_555
Ho1 O22 2.436920 1_655
Ho2 O8 2.388446 1_555
Ho2 O7 2.392530 1_555
Ho2 O3 2.394884 1_555
Ho2 O2 2.417573 1_555
Ho2 O28 2.419408 1_555
Ho2 O27 2.419885 1_555
Ho2 O23 2.439989 1_555
Ho2 O22 2.443808 1_555
Ho3 O4 2.393356 1_455
Ho3 O8 2.393356 1_554
Ho3 O3 2.393769 1_554
Ho3 O9 2.393769 1_455
Ho3 O24 2.426763 1_555
Ho3 O28 2.426763 1_454
Ho3 O29 2.434770 1_555
Ho3 O23 2.434770 1_454
Ho4 O4 2.388446 1_555
Ho4 O0 2.392530 1_555
Ho4 O9 2.394884 1_555
Ho4 O5 2.417573 1_555
Ho4 O24 2.419408 1_555
Ho4 O20 2.419885 1_555
Ho4 O29 2.439989 1_555
Ho4 O25 2.443808 1_555
Cu0 O20 1.940249 1_455
Cu0 O24 1.941540 1_555
Cu0 O0 1.999514 1_555
Cu0 O4 2.002023 1_455
Cu0 O10 2.352031 1_555
Cu1 O20 1.935227 1_555
Cu1 O21 1.940218 1_555
Cu1 O0 1.990929 1_555
Cu1 O1 1.990995 1_555
Cu1 O11 2.460490 1_555
Cu2 O22 1.935043 1_555
Cu2 O21 1.935104 1_555
Cu2 O1 1.979349 1_455
Cu2 O2 1.997602 1_555
Cu2 O12 2.475687 1_555
Cu3 O23 1.934258 1_555
Cu3 O22 1.934334 1_655
Cu3 O3 1.979150 1_655
Cu3 O2 1.996525 1_555
Cu3 O13 2.475018 1_555
Cu4 O24 1.933403 1_556
Cu4 O23 1.937849 1_555
Cu4 O3 1.987318 1_555
Cu4 O4 1.987635 1_556
Cu4 O14 2.463917 1_555
Cu5 O29 1.934258 1_555
Cu5 O25 1.934334 1_455
Cu5 O9 1.979150 1_455
Cu5 O5 1.996525 1_555
Cu5 O15 2.475018 1_555
Cu6 O25 1.935043 1_555
Cu6 O26 1.935104 1_555
Cu6 O6 1.979349 1_655
Cu6 O5 1.997602 1_555
Cu6 O16 2.475687 1_555
Cu7 O27 1.935227 1_555
Cu7 O26 1.940218 1_555
Cu7 O7 1.990929 1_555
Cu7 O6 1.990995 1_555
Cu7 O17 2.460490 1_555
Cu8 O27 1.940249 1_655
Cu8 O28 1.941540 1_555
Cu8 O7 1.999514 1_555
Cu8 O8 2.002023 1_655
Cu8 O18 2.352031 1_555
Cu9 O28 1.933403 1_554
Cu9 O29 1.937849 1_555
Cu9 O9 1.987318 1_555
Cu9 O8 1.987635 1_554
Cu9 O19 2.463917 1_555
Cu10 O32 1.901455 1_454
Cu10 O30 1.901455 1_545
Cu10 O10 1.910599 1_555
Cu10 O18 1.910599 1_444
Cu11 O19 1.841313 1_545
Cu11 O11 1.841962 1_555
Cu11 O30 1.921899 1_545
Cu12 O15 1.832499 1_555
Cu12 O12 1.832971 1_565
Cu12 O31 1.884798 1_565
Cu13 O13 1.832499 1_555
Cu13 O16 1.832971 1_545
Cu13 O31 1.884798 1_555
Cu14 O14 1.841313 1_565
Cu14 O17 1.841962 1_555
Cu14 O32 1.921899 1_565
