# generated using pymatgen
data_SrMg14W
_symmetry_space_group_name_H-M   'P 1'
_cell_length_a   6.49043970
_cell_length_b   6.50237179
_cell_length_c   10.27044927
_cell_angle_alpha   90.00000000
_cell_angle_beta   90.00000000
_cell_angle_gamma   120.06083831
_symmetry_Int_Tables_number   1
_chemical_formula_structural   SrMg14W
_chemical_formula_sum   'Sr1 Mg14 W1'
_cell_volume   375.14522350
_cell_formula_units_Z   1
loop_
 _symmetry_equiv_pos_site_id
 _symmetry_equiv_pos_as_xyz
  1  'x, y, z'
loop_
 _atom_site_type_symbol
 _atom_site_label
 _atom_site_symmetry_multiplicity
 _atom_site_fract_x
 _atom_site_fract_y
 _atom_site_fract_z
 _atom_site_occupancy
  Sr  Sr0  1  0.15416417  0.32708159  0.12500000  1
  Mg  Mg0  1  0.17147936  0.33573918  0.62500000  1
  Mg  Mg1  1  0.16372909  0.83186405  0.62500000  1
  Mg  Mg2  1  0.65376494  0.31967896  0.12500000  1
  Mg  Mg3  1  0.66461591  0.33921475  0.62500000  1
  Mg  Mg4  1  0.65376494  0.83408498  0.12500000  1
  Mg  Mg5  1  0.66461591  0.82540016  0.62500000  1
  Mg  Mg6  1  0.33310568  0.15106990  0.37571239  1
  Mg  Mg7  1  0.33310568  0.15106990  0.87428761  1
  Mg  Mg8  1  0.33310568  0.68203678  0.37571239  1
  Mg  Mg9  1  0.33310568  0.68203678  0.87428761  1
  Mg  Mg10  1  0.82344770  0.16172435  0.39181421  1
  Mg  Mg11  1  0.82344770  0.16172435  0.85818579  1
  Mg  Mg12  1  0.85011972  0.67506036  0.35577294  1
  Mg  Mg13  1  0.85011972  0.67506036  0.89422706  1
  W  W0  1  0.19430811  0.84715356  0.12500000  1
loop_
_geom_bond_atom_site_label_1
_geom_bond_atom_site_label_2
_geom_bond_distance
_geom_bond_site_symmetry_2
Sr0 W0 3.258997 1_555
Sr0 W0 3.258997 1_545
Mg0 Mg10 3.091579 1_455
Mg0 Mg11 3.091579 1_455
Mg0 Mg5 3.189412 1_555
Mg0 Mg3 3.189413 1_555
Mg0 Mg6 3.218608 1_555
Mg0 Mg7 3.218608 1_555
Mg0 Mg8 3.218615 1_555
Mg0 Mg9 3.218615 1_555
Mg0 Mg1 3.251477 1_545
Mg0 Mg1 3.251477 1_555
Mg0 Mg5 3.301145 1_445
Mg0 Mg3 3.301145 1_455
Mg1 Mg8 3.128216 1_555
Mg1 Mg9 3.128216 1_555
Mg1 Mg7 3.128223 1_565
Mg1 Mg6 3.128223 1_565
Mg1 Mg3 3.218615 1_455
Mg1 Mg5 3.218616 1_455
Mg1 Mg3 3.272232 1_565
Mg1 Mg5 3.272232 1_555
Mg1 Mg12 3.278598 1_455
Mg1 Mg13 3.278598 1_455
Mg2 W0 3.025537 1_545
Mg2 Mg6 3.142893 1_555
Mg2 Mg7 3.142893 1_554
Mg2 Mg4 3.157513 1_545
Mg2 Sr0 3.223969 1_655
Mg2 Sr0 3.267006 1_555
Mg2 Mg4 3.344859 1_555
Mg2 W0 3.466576 1_655
Mg3 Mg5 3.161358 1_555
Mg3 Mg6 3.169265 1_555
Mg3 Mg7 3.169265 1_555
Mg3 Mg5 3.341013 1_545
Mg4 W0 3.025537 1_555
Mg4 Mg8 3.142893 1_555
Mg4 Mg9 3.142893 1_554
Mg4 Sr0 3.223968 1_665
Mg4 Sr0 3.267006 1_555
Mg4 W0 3.466577 1_655
Mg5 Mg8 3.169265 1_555
Mg5 Mg9 3.169265 1_555
Mg6 Mg8 3.049828 1_545
Mg6 W0 3.092499 1_545
Mg6 Sr0 3.258936 1_555
Mg6 Mg8 3.452544 1_555
Mg7 Mg9 3.049828 1_545
Mg7 W0 3.092499 1_546
Mg7 Sr0 3.258936 1_556
Mg7 Mg9 3.452544 1_555
Mg8 W0 3.092493 1_555
Mg8 Sr0 3.258943 1_555
Mg9 W0 3.092493 1_556
Mg9 Sr0 3.258943 1_556
Mg10 Mg3 3.053244 1_555
Mg10 Mg5 3.053251 1_545
Mg10 Mg8 3.152743 1_545
Mg10 Mg6 3.152743 1_555
Mg10 Mg12 3.275619 1_555
Mg10 Mg12 3.275619 1_545
Mg10 Mg2 3.303068 1_555
Mg10 Mg4 3.303075 1_545
Mg10 Sr0 3.310679 1_655
Mg10 Mg8 3.347233 1_655
Mg10 Mg6 3.347233 1_655
Mg11 Mg3 3.053244 1_555
Mg11 Mg5 3.053251 1_545
Mg11 Mg9 3.152743 1_545
Mg11 Mg7 3.152743 1_555
Mg11 Mg13 3.275619 1_555
Mg11 Mg13 3.275619 1_545
Mg11 Mg2 3.303068 1_556
Mg11 Mg4 3.303075 1_546
Mg11 Sr0 3.310679 1_656
Mg11 Mg9 3.347233 1_655
Mg11 Mg7 3.347233 1_655
Mg12 W0 3.058729 1_655
Mg12 Mg4 3.103418 1_555
Mg12 Mg2 3.103425 1_555
Mg12 Mg6 3.119045 1_665
Mg12 Mg8 3.119046 1_655
Mg12 Mg5 3.351133 1_555
Mg12 Mg3 3.351139 1_555
Mg12 Mg6 3.384800 1_555
Mg12 Mg8 3.384801 1_555
Mg13 W0 3.058729 1_656
Mg13 Mg4 3.103418 1_556
Mg13 Mg2 3.103425 1_556
Mg13 Mg7 3.119045 1_665
Mg13 Mg9 3.119046 1_655
Mg13 Mg5 3.351133 1_555
Mg13 Mg3 3.351139 1_555
Mg13 Mg7 3.384800 1_555
Mg13 Mg9 3.384801 1_555
