# generated using pymatgen
data_KZn(BO2)3
_symmetry_space_group_name_H-M   'P 1'
_cell_length_a   6.85122500
_cell_length_b   6.99623991
_cell_length_c   7.14773353
_cell_angle_alpha   63.19224697
_cell_angle_beta   72.76825624
_cell_angle_gamma   69.35818826
_symmetry_Int_Tables_number   1
_chemical_formula_structural   KZn(BO2)3
_chemical_formula_sum   'K2 Zn2 B6 O12'
_cell_volume   282.26793790
_cell_formula_units_Z   2
loop_
 _symmetry_equiv_pos_site_id
 _symmetry_equiv_pos_as_xyz
  1  'x, y, z'
loop_
 _atom_site_type_symbol
 _atom_site_label
 _atom_site_symmetry_multiplicity
 _atom_site_fract_x
 _atom_site_fract_y
 _atom_site_fract_z
 _atom_site_occupancy
  K  K0  1  0.74347300  0.20422100  0.42052800  1
  K  K1  1  0.25652700  0.79577900  0.57947200  1
  Zn  Zn0  1  0.32536500  0.14797400  0.87236200  1
  Zn  Zn1  1  0.67463500  0.85202600  0.12763800  1
  B  B0  1  0.24438300  0.31954700  0.43356100  1
  B  B1  1  0.75561700  0.68045300  0.56643900  1
  B  B2  1  0.29719900  0.68202700  0.16725700  1
  B  B3  1  0.70280100  0.31797300  0.83274300  1
  B  B4  1  0.09674000  0.49394600  0.09455600  1
  B  B5  1  0.90326000  0.50605400  0.90544400  1
  O  O0  1  0.13861000  0.41675700  0.91738200  1
  O  O1  1  0.86139000  0.58324300  0.08261800  1
  O  O2  1  0.27916400  0.14968100  0.61910500  1
  O  O3  1  0.72083600  0.85031900  0.38089500  1
  O  O4  1  0.37183800  0.85871400  0.11871900  1
  O  O5  1  0.62816200  0.14128600  0.88128100  1
  O  O6  1  0.80247000  0.32930300  0.96680400  1
  O  O7  1  0.19753000  0.67069700  0.03319600  1
  O  O8  1  0.13890800  0.31361500  0.29805500  1
  O  O9  1  0.86109200  0.68638500  0.70194500  1
  O  O10  1  0.32328200  0.50664900  0.36595200  1
  O  O11  1  0.67671800  0.49335100  0.63404800  1
loop_
_geom_bond_atom_site_label_1
_geom_bond_atom_site_label_2
_geom_bond_distance
_geom_bond_site_symmetry_2
K0 O3 2.676610 1_545
K0 O1 2.845220 1_555
K0 O8 2.853834 1_655
K0 O11 2.889471 1_555
K0 O6 2.891314 1_554
K0 O10 2.922830 1_555
K0 O5 3.009961 1_555
K0 O2 3.157800 1_555
K0 O9 3.185852 1_545
K1 O2 2.676610 1_565
K1 O0 2.845220 1_555
K1 O9 2.853834 1_455
K1 O10 2.889471 1_555
K1 O7 2.891314 1_556
K1 O11 2.922830 1_555
K1 O4 3.009961 1_555
K1 O3 3.157800 1_555
K1 O8 3.185852 1_565
B0 O2 1.339372 1_555
B0 O8 1.390724 1_555
B0 O10 1.418722 1_555
B1 O3 1.339372 1_555
B1 O9 1.390724 1_555
B1 O11 1.418722 1_555
B2 O4 1.365156 1_555
B2 O7 1.373002 1_555
B2 O10 1.406562 1_555
B3 O5 1.365156 1_555
B3 O6 1.373002 1_555
B3 O11 1.406562 1_555
B4 O8 1.458645 1_555
B4 O7 1.460058 1_555
B4 O0 1.506681 1_554
B4 O1 1.523394 1_455
B5 O9 1.458645 1_555
B5 O6 1.460058 1_555
B5 O1 1.506681 1_556
B5 O0 1.523394 1_655
O0 Zn0 1.970361 1_555
O1 Zn1 1.970361 1_555
O2 Zn0 1.922115 1_555
O3 Zn1 1.922115 1_555
O4 Zn0 1.990267 1_564
O4 Zn1 2.077777 1_555
O5 Zn1 1.990267 1_546
O5 Zn0 2.077777 1_555
