# generated using pymatgen
data_Mg7Si4
_symmetry_space_group_name_H-M   'P 1'
_cell_length_a   3.64239300
_cell_length_b   8.31142916
_cell_length_c   15.03166434
_cell_angle_alpha   94.90417742
_cell_angle_beta   90.20309395
_cell_angle_gamma   90.10575498
_symmetry_Int_Tables_number   1
_chemical_formula_structural   Mg7Si4
_chemical_formula_sum   'Mg14 Si8'
_cell_volume   453.39110988
_cell_formula_units_Z   2
loop_
 _symmetry_equiv_pos_site_id
 _symmetry_equiv_pos_as_xyz
  1  'x, y, z'
loop_
 _atom_site_type_symbol
 _atom_site_label
 _atom_site_symmetry_multiplicity
 _atom_site_fract_x
 _atom_site_fract_y
 _atom_site_fract_z
 _atom_site_occupancy
  Mg  Mg0  1  0.33850200  0.11777700  0.12676700  1
  Mg  Mg1  1  0.34367200  0.48114500  0.47691800  1
  Mg  Mg2  1  0.84694100  0.36188400  0.62265100  1
  Mg  Mg3  1  0.84012400  0.59923500  0.32426800  1
  Mg  Mg4  1  0.33829200  0.61228900  0.14406900  1
  Mg  Mg5  1  0.35370300  0.25491500  0.78098200  1
  Mg  Mg6  1  0.84374800  0.75748800  0.59517300  1
  Mg  Mg7  1  0.84334900  0.17050400  0.42912500  1
  Mg  Mg8  1  0.83803400  0.33497000  0.99167900  1
  Mg  Mg9  1  0.83752200  0.84824500  0.03853000  1
  Mg  Mg10  1  0.34174600  0.61179400  0.93240200  1
  Mg  Mg11  1  0.33170300  0.03796200  0.92439600  1
  Mg  Mg12  1  0.34138200  0.83675300  0.43488000  1
  Mg  Mg13  1  0.34546200  0.07278800  0.59497000  1
  Si  Si0  1  0.82813700  0.82004900  0.83768200  1
  Si  Si1  1  0.84048400  0.88394200  0.22328900  1
  Si  Si2  1  0.34023800  0.32359600  0.28874300  1
  Si  Si3  1  0.34944700  0.58226300  0.70166900  1
  Si  Si4  1  0.84986400  0.51472700  0.80069900  1
  Si  Si5  1  0.83910800  0.36514400  0.18554800  1
  Si  Si6  1  0.34201000  0.02174800  0.29720600  1
  Si  Si7  1  0.32649300  0.89437900  0.74474500  1
loop_
_geom_bond_atom_site_label_1
_geom_bond_atom_site_label_2
_geom_bond_distance
_geom_bond_site_symmetry_2
Mg0 Si6 2.747793 1_555
Mg0 Si5 2.827839 1_555
Mg0 Si5 2.833911 1_455
Mg0 Si2 2.853450 1_555
Mg0 Mg11 3.057557 1_554
Mg0 Mg9 3.093085 1_445
Mg0 Mg9 3.099281 1_545
Mg0 Si1 3.108144 1_445
Mg0 Si1 3.114774 1_545
Mg0 Mg8 3.364169 1_454
Mg0 Mg8 3.366508 1_554
Mg1 Si2 3.013655 1_555
Mg2 Si3 2.775774 1_555
Mg2 Si3 2.777789 1_655
Mg2 Si4 2.862729 1_555
Mg3 Si5 2.727595 1_555
Mg3 Si1 2.918488 1_555
Mg3 Si2 2.935542 1_555
Mg3 Si2 2.943642 1_655
Mg4 Si5 2.850853 1_455
Mg4 Si5 2.856665 1_555
Mg4 Si1 3.061260 1_555
Mg4 Si1 3.061741 1_455
Mg5 Si4 2.808786 1_555
Mg5 Si4 2.833343 1_455
Mg5 Si7 3.000899 1_545
Mg5 Si3 3.062449 1_555
Mg6 Si3 2.886964 1_555
Mg6 Si3 2.909300 1_655
Mg6 Si7 2.994733 1_655
Mg6 Si7 3.082146 1_555
Mg7 Si6 2.888272 1_555
Mg7 Si6 2.893858 1_655
Mg7 Si2 3.134508 1_655
Mg7 Si2 3.141705 1_555
Mg8 Si5 2.903494 1_556
Mg9 Si1 2.767683 1_555
Mg9 Si0 3.008189 1_554
Mg10 Si4 2.734321 1_455
Mg10 Si4 2.784579 1_555
Mg10 Si0 2.930836 1_555
Mg10 Si0 2.989551 1_455
Mg11 Si0 2.806082 1_545
Mg11 Si0 2.812598 1_445
Mg11 Si7 2.857536 1_545
Mg11 Mg5 2.927542 1_555
Mg11 Mg9 3.023852 1_446
Mg11 Mg9 3.045486 1_546
Mg11 Mg8 3.154738 1_455
Mg11 Mg8 3.171916 1_555
Mg12 Si6 2.681587 1_565
Mg13 Si7 2.800669 1_545
Si0 Si7 2.406169 1_655
Si0 Si7 2.409461 1_555
Si0 Si4 2.552427 1_555
Si1 Si6 2.375652 1_665
Si1 Si6 2.376410 1_565
Si2 Si5 2.435375 1_455
Si2 Si5 2.436490 1_555
Si2 Si6 2.522868 1_555
Si3 Si4 2.445540 1_555
Si3 Si4 2.449590 1_455
Si3 Si7 2.621021 1_555
