# generated using pymatgen
data_FePH5CO8
_symmetry_space_group_name_H-M   'P 1'
_cell_length_a   7.25861689
_cell_length_b   9.77514200
_cell_length_c   10.57211614
_cell_angle_alpha   90.00000000
_cell_angle_beta   99.87905977
_cell_angle_gamma   90.00000000
_symmetry_Int_Tables_number   1
_chemical_formula_structural   FePH5CO8
_chemical_formula_sum   'Fe4 P4 H20 C4 O32'
_cell_volume   739.01112786
_cell_formula_units_Z   4
loop_
 _symmetry_equiv_pos_site_id
 _symmetry_equiv_pos_as_xyz
  1  'x, y, z'
loop_
 _atom_site_type_symbol
 _atom_site_label
 _atom_site_symmetry_multiplicity
 _atom_site_fract_x
 _atom_site_fract_y
 _atom_site_fract_z
 _atom_site_occupancy
  Fe  Fe0  1  0.37818500  0.79399200  0.05824500  1
  Fe  Fe1  1  0.62181500  0.29399200  0.44175500  1
  Fe  Fe2  1  0.37818500  0.70600800  0.55824500  1
  Fe  Fe3  1  0.62181500  0.20600800  0.94175500  1
  P  P0  1  0.55060200  0.89176700  0.80090700  1
  P  P1  1  0.44939800  0.10823300  0.19909300  1
  P  P2  1  0.55060200  0.60823300  0.30090700  1
  P  P3  1  0.44939800  0.39176700  0.69909300  1
  H  H0  1  0.87333000  0.30386100  0.14539200  1
  H  H1  1  0.97928500  0.16861800  0.52864900  1
  H  H2  1  0.12667000  0.80386100  0.35460800  1
  H  H3  1  0.21701900  0.02045900  0.50132700  1
  H  H4  1  0.29817900  0.32965200  0.03660400  1
  H  H5  1  0.21701900  0.47954100  0.00132700  1
  H  H6  1  0.23305500  0.36531500  0.82095200  1
  H  H7  1  0.02071500  0.83138200  0.47135100  1
  H  H8  1  0.70182100  0.82965200  0.46339600  1
  H  H9  1  0.23305500  0.13468500  0.32095200  1
  H  H10  1  0.02071500  0.66861800  0.97135100  1
  H  H11  1  0.76694500  0.63468500  0.17904800  1
  H  H12  1  0.70182100  0.67034800  0.96339600  1
  H  H13  1  0.78298100  0.97954100  0.49867300  1
  H  H14  1  0.87333000  0.19613900  0.64539200  1
  H  H15  1  0.97928500  0.33138200  0.02864900  1
  H  H16  1  0.78298100  0.52045900  0.99867300  1
  H  H17  1  0.29817900  0.17034800  0.53660400  1
  H  H18  1  0.12667000  0.69613900  0.85460800  1
  H  H19  1  0.76694500  0.86531500  0.67904800  1
  C  C0  1  0.05401500  0.06934000  0.86525400  1
  C  C1  1  0.94598500  0.93066000  0.13474600  1
  C  C2  1  0.05401500  0.43066000  0.36525400  1
  C  C3  1  0.94598500  0.56934000  0.63474600  1
  O  O0  1  0.14745400  0.68010700  0.94726400  1
  O  O1  1  0.94889900  0.15820300  0.82886100  1
  O  O2  1  0.46839100  0.29666100  0.58495000  1
  O  O3  1  0.24527400  0.14893400  0.22932300  1
  O  O4  1  0.44933700  0.95694900  0.16335900  1
  O  O5  1  0.44933700  0.54305100  0.66335900  1
  O  O6  1  0.19365800  0.11824300  0.48359500  1
  O  O7  1  0.75472600  0.64893400  0.27067700  1
  O  O8  1  0.24527400  0.35106600  0.72932300  1
  O  O9  1  0.75472600  0.85106600  0.77067700  1
  O  O10  1  0.80634200  0.61824300  0.01640500  1
  O  O11  1  0.15943300  0.98201400  0.90328400  1
  O  O12  1  0.46839100  0.20333900  0.08495000  1
  O  O13  1  0.59541100  0.13586800  0.31950300  1
  O  O14  1  0.59541100  0.36413200  0.81950300  1
  O  O15  1  0.40458900  0.63586800  0.18049700  1
  O  O16  1  0.40458900  0.86413200  0.68049700  1
  O  O17  1  0.15943300  0.51798600  0.40328400  1
  O  O18  1  0.85254600  0.31989300  0.05273600  1
  O  O19  1  0.05110100  0.84179700  0.17113900  1
  O  O20  1  0.84056700  0.48201400  0.59671600  1
  O  O21  1  0.80634200  0.88175700  0.51640500  1
  O  O22  1  0.53160900  0.70333900  0.41505000  1
  O  O23  1  0.94889900  0.34179700  0.32886100  1
  O  O24  1  0.19365800  0.38175700  0.98359500  1
  O  O25  1  0.05110100  0.65820300  0.67113900  1
  O  O26  1  0.85254600  0.18010700  0.55273600  1
  O  O27  1  0.53160900  0.79666100  0.91505000  1
  O  O28  1  0.55066300  0.45694900  0.33664100  1
  O  O29  1  0.84056700  0.01798600  0.09671600  1
  O  O30  1  0.55066300  0.04305100  0.83664100  1
  O  O31  1  0.14745400  0.81989300  0.44726400  1
loop_
_geom_bond_atom_site_label_1
_geom_bond_atom_site_label_2
_geom_bond_distance
_geom_bond_site_symmetry_2
Fe0 O4 1.960141 1_555
Fe0 O15 2.002831 1_555
Fe0 O27 2.027611 1_554
Fe0 O0 2.178666 1_554
Fe1 O28 1.960141 1_555
Fe1 O13 2.002831 1_555
Fe1 O2 2.027611 1_555
Fe1 O26 2.178666 1_555
Fe2 O5 1.960141 1_555
Fe2 O16 2.002831 1_555
Fe2 O22 2.027611 1_555
Fe2 O31 2.178666 1_555
Fe3 O30 1.960141 1_555
Fe3 O14 2.002831 1_555
Fe3 O12 2.027611 1_556
Fe3 O18 2.178666 1_556
H0 O18 0.977838 1_555
H1 O26 1.002074 1_555
H2 O31 0.977838 1_555
H3 O6 0.983180 1_555
H4 O24 1.001592 1_554
H5 O24 0.983180 1_554
H6 O8 0.997573 1_555
H7 O31 1.002074 1_555
H8 O21 1.001592 1_555
H9 O3 0.997573 1_555
H10 O0 1.002074 1_555
H11 O7 0.997573 1_555
H12 O10 1.001592 1_556
H13 O21 0.983180 1_555
H14 O26 0.977838 1_555
H15 O18 1.002074 1_555
H16 O10 0.983180 1_556
H17 O6 1.001592 1_555
H18 O0 0.977838 1_555
H19 O9 0.997573 1_555
C0 O11 1.170586 1_545
C0 O1 1.176442 1_455
C1 O29 1.170586 1_565
C1 O19 1.176442 1_655
C2 O17 1.170586 1_555
C2 O23 1.176442 1_455
C3 O20 1.170586 1_555
C3 O25 1.176442 1_655
O2 P3 1.548093 1_555
O3 P1 1.618094 1_555
O4 P1 1.526296 1_565
O5 P3 1.526296 1_555
O7 P2 1.618094 1_555
O8 P3 1.618094 1_555
O9 P0 1.618094 1_555
O12 P1 1.548093 1_555
O13 P1 1.534212 1_555
O14 P3 1.534212 1_555
O15 P2 1.534212 1_555
O16 P0 1.534212 1_555
O22 P2 1.548093 1_555
O27 P0 1.548093 1_555
O28 P2 1.526296 1_555
O30 P0 1.526296 1_545
