# generated using pymatgen
data_Sm2Ge3Pt
_symmetry_space_group_name_H-M   'P 1'
_cell_length_a   4.12387500
_cell_length_b   4.39257200
_cell_length_c   7.28197300
_cell_angle_alpha   90.00000000
_cell_angle_beta   90.00000000
_cell_angle_gamma   90.00000000
_symmetry_Int_Tables_number   1
_chemical_formula_structural   Sm2Ge3Pt
_chemical_formula_sum   'Sm2 Ge3 Pt1'
_cell_volume   131.90870174
_cell_formula_units_Z   1
loop_
 _symmetry_equiv_pos_site_id
 _symmetry_equiv_pos_as_xyz
  1  'x, y, z'
loop_
 _atom_site_type_symbol
 _atom_site_label
 _atom_site_symmetry_multiplicity
 _atom_site_fract_x
 _atom_site_fract_y
 _atom_site_fract_z
 _atom_site_occupancy
  Sm  Sm0  1  0.00000000  0.50000000  0.00069000  1
  Sm  Sm1  1  0.00000000  0.00000000  0.49894100  1
  Ge  Ge0  1  0.50000000  0.00000000  0.83413200  1
  Ge  Ge1  1  0.50000000  0.00000000  0.17646600  1
  Ge  Ge2  1  0.50000000  0.50000000  0.66235500  1
  Pt  Pt0  1  0.50000000  0.50000000  0.32741700  1
loop_
_geom_bond_atom_site_label_1
_geom_bond_atom_site_label_2
_geom_bond_distance
_geom_bond_site_symmetry_2
Ge0 Ge1 2.492867 1_556
Ge0 Ge2 2.527521 1_555
Ge0 Ge2 2.527521 1_545
Ge0 Sm1 3.195206 1_655
Ge0 Sm1 3.195206 1_555
Ge0 Sm0 3.247509 1_646
Ge0 Sm0 3.247509 1_556
Ge0 Sm0 3.247509 1_656
Ge0 Sm0 3.247509 1_546
Ge1 Pt0 2.456005 1_545
Ge1 Pt0 2.456005 1_555
Ge1 Sm1 3.125041 1_655
Ge1 Sm1 3.125041 1_555
Ge1 Sm0 3.273171 1_555
Ge1 Sm0 3.273171 1_655
Ge1 Sm0 3.273171 1_545
Ge1 Sm0 3.273171 1_645
Ge2 Pt0 2.439009 1_555
Ge2 Sm0 3.212730 1_556
Ge2 Sm0 3.212730 1_656
Ge2 Sm1 3.239028 1_565
Ge2 Sm1 3.239028 1_555
Ge2 Sm1 3.239028 1_655
Ge2 Sm1 3.239028 1_665
Pt0 Sm0 3.148374 1_555
Pt0 Sm0 3.148374 1_655
Pt0 Sm1 3.261187 1_565
Pt0 Sm1 3.261187 1_655
Pt0 Sm1 3.261187 1_665
Pt0 Sm1 3.261187 1_555
