# generated using pymatgen
data_CuCl2
_symmetry_space_group_name_H-M   'P 1'
_cell_length_a   4.52064800
_cell_length_b   4.52064800
_cell_length_c   4.31771200
_cell_angle_alpha   90.00000000
_cell_angle_beta   90.00000000
_cell_angle_gamma   90.00000000
_symmetry_Int_Tables_number   1
_chemical_formula_structural   CuCl2
_chemical_formula_sum   'Cu1 Cl2'
_cell_volume   88.23787787
_cell_formula_units_Z   1
loop_
 _symmetry_equiv_pos_site_id
 _symmetry_equiv_pos_as_xyz
  1  'x, y, z'
loop_
 _atom_site_type_symbol
 _atom_site_label
 _atom_site_symmetry_multiplicity
 _atom_site_fract_x
 _atom_site_fract_y
 _atom_site_fract_z
 _atom_site_occupancy
  Cu  Cu0  1  0.00000000  0.00000000  0.00000000  1
  Cl  Cl0  1  0.50000000  0.00000000  0.00000000  1
  Cl  Cl1  1  0.00000000  0.50000000  0.00000000  1
loop_
_geom_bond_atom_site_label_1
_geom_bond_atom_site_label_2
_geom_bond_distance
_geom_bond_site_symmetry_2
Cl0 Cu0 2.260324 1_555
Cl0 Cu0 2.260324 1_655
Cl1 Cu0 2.260324 1_565
Cl1 Cu0 2.260324 1_555
