# generated using pymatgen
data_SrMg14Al
_symmetry_space_group_name_H-M   'P 1'
_cell_length_a   6.49992707
_cell_length_b   6.49992653
_cell_length_c   10.62232758
_cell_angle_alpha   90.00000000
_cell_angle_beta   90.00000000
_cell_angle_gamma   120.00000279
_symmetry_Int_Tables_number   1
_chemical_formula_structural   SrMg14Al
_chemical_formula_sum   'Sr1 Mg14 Al1'
_cell_volume   388.65766891
_cell_formula_units_Z   1
loop_
 _symmetry_equiv_pos_site_id
 _symmetry_equiv_pos_as_xyz
  1  'x, y, z'
loop_
 _atom_site_type_symbol
 _atom_site_label
 _atom_site_symmetry_multiplicity
 _atom_site_fract_x
 _atom_site_fract_y
 _atom_site_fract_z
 _atom_site_occupancy
  Sr  Sr0  1  0.16666700  0.33333300  0.62500000  1
  Mg  Mg0  1  0.16117407  0.83058653  0.12500000  1
  Mg  Mg1  1  0.17800543  0.83900222  0.62500000  1
  Mg  Mg2  1  0.66941347  0.33882593  0.12500000  1
  Mg  Mg3  1  0.66099778  0.32199457  0.62500000  1
  Mg  Mg4  1  0.66941347  0.83058653  0.12500000  1
  Mg  Mg5  1  0.66099778  0.83900222  0.62500000  1
  Mg  Mg6  1  0.33444430  0.16555570  0.36109551  1
  Mg  Mg7  1  0.33444430  0.16555570  0.88890449  1
  Mg  Mg8  1  0.33444430  0.66888959  0.36109551  1
  Mg  Mg9  1  0.33444430  0.66888959  0.88890449  1
  Mg  Mg10  1  0.83111041  0.16555570  0.36109551  1
  Mg  Mg11  1  0.83111041  0.16555570  0.88890449  1
  Mg  Mg12  1  0.83333300  0.66666700  0.38134562  1
  Mg  Mg13  1  0.83333300  0.66666700  0.86865438  1
  Al  Al0  1  0.16666700  0.33333300  0.12500000  1
loop_
_geom_bond_atom_site_label_1
_geom_bond_atom_site_label_2
_geom_bond_distance
_geom_bond_site_symmetry_2
Mg0 Mg9 3.137873 1_554
Mg0 Mg8 3.137873 1_555
Mg0 Mg7 3.137880 1_564
Mg0 Mg6 3.137880 1_565
Mg0 Mg2 3.196408 1_455
Mg0 Mg4 3.196408 1_455
Mg0 Mg12 3.289430 1_455
Mg0 Mg13 3.289430 1_454
Mg0 Mg2 3.303519 1_565
Mg0 Mg4 3.303519 1_555
Mg1 Mg3 3.139415 1_565
Mg1 Mg5 3.139415 1_555
Mg1 Mg13 3.234659 1_455
Mg1 Mg12 3.234659 1_455
Mg1 Sr0 3.250590 1_565
Mg1 Sr0 3.250590 1_555
Mg1 Mg8 3.352507 1_555
Mg1 Mg9 3.352507 1_555
Mg1 Mg6 3.352513 1_565
Mg1 Mg7 3.352513 1_565
Mg1 Mg3 3.360512 1_455
Mg1 Mg5 3.360512 1_455
Mg2 Mg7 3.137880 1_554
Mg2 Mg6 3.137880 1_555
Mg2 Mg4 3.196408 1_555
Mg2 Mg4 3.303519 1_545
Mg3 Mg5 3.139415 1_545
Mg3 Sr0 3.250590 1_555
Mg3 Sr0 3.250590 1_655
Mg3 Mg6 3.352513 1_555
Mg3 Mg7 3.352513 1_555
Mg3 Mg5 3.360512 1_555
Mg4 Mg9 3.137880 1_554
Mg4 Mg8 3.137880 1_555
Mg5 Sr0 3.250590 1_555
Mg5 Sr0 3.250590 1_665
Mg5 Mg8 3.352513 1_555
Mg5 Mg9 3.352513 1_555
Mg6 Mg8 3.228293 1_545
Mg6 Mg8 3.271633 1_555
Mg6 Sr0 3.380268 1_555
Mg7 Mg9 3.228293 1_545
Mg7 Mg9 3.271633 1_555
Mg7 Sr0 3.380268 1_555
Mg8 Sr0 3.380274 1_555
Mg9 Sr0 3.380274 1_555
Mg10 Mg2 3.137873 1_555
Mg10 Mg4 3.137880 1_545
Mg10 Mg8 3.228293 1_545
Mg10 Mg6 3.228293 1_555
Mg10 Mg12 3.257098 1_545
Mg10 Mg12 3.257098 1_555
Mg10 Mg8 3.271633 1_655
Mg10 Mg6 3.271634 1_655
Mg10 Mg3 3.352507 1_555
Mg10 Mg5 3.352513 1_545
Mg10 Sr0 3.380274 1_655
Mg11 Mg2 3.137873 1_556
Mg11 Mg4 3.137880 1_546
Mg11 Mg9 3.228293 1_545
Mg11 Mg7 3.228293 1_555
Mg11 Mg13 3.257098 1_545
Mg11 Mg13 3.257098 1_555
Mg11 Mg9 3.271633 1_655
Mg11 Mg7 3.271634 1_655
Mg11 Mg3 3.352507 1_555
Mg11 Mg5 3.352513 1_545
Mg11 Sr0 3.380274 1_655
Mg12 Mg5 3.234652 1_555
Mg12 Mg3 3.234659 1_555
Mg12 Mg6 3.257098 1_555
Mg12 Mg6 3.257098 1_665
Mg12 Mg8 3.257098 1_555
Mg12 Mg8 3.257098 1_655
Mg12 Mg4 3.289423 1_555
Mg12 Mg2 3.289430 1_555
Mg13 Mg5 3.234652 1_555
Mg13 Mg3 3.234659 1_555
Mg13 Mg7 3.257098 1_555
Mg13 Mg7 3.257098 1_665
Mg13 Mg9 3.257098 1_555
Mg13 Mg9 3.257098 1_655
Mg13 Mg4 3.289423 1_556
Mg13 Mg2 3.289430 1_556
Al0 Mg7 3.139636 1_554
Al0 Mg6 3.139636 1_555
Al0 Mg9 3.139643 1_554
Al0 Mg8 3.139643 1_555
Al0 Mg11 3.139643 1_454
Al0 Mg10 3.139643 1_455
Al0 Mg0 3.250110 1_555
Al0 Mg4 3.250110 1_445
Al0 Mg4 3.250110 1_555
Al0 Mg0 3.250110 1_545
Al0 Mg2 3.250111 1_455
Al0 Mg2 3.250111 1_555
