# generated using pymatgen
data_SmS2
_symmetry_space_group_name_H-M   'P 1'
_cell_length_a   3.93034100
_cell_length_b   3.93034100
_cell_length_c   8.12410500
_cell_angle_alpha   90.00000000
_cell_angle_beta   90.00000000
_cell_angle_gamma   90.00000000
_symmetry_Int_Tables_number   1
_chemical_formula_structural   SmS2
_chemical_formula_sum   'Sm2 S4'
_cell_volume   125.49776497
_cell_formula_units_Z   2
loop_
 _symmetry_equiv_pos_site_id
 _symmetry_equiv_pos_as_xyz
  1  'x, y, z'
loop_
 _atom_site_type_symbol
 _atom_site_label
 _atom_site_symmetry_multiplicity
 _atom_site_fract_x
 _atom_site_fract_y
 _atom_site_fract_z
 _atom_site_occupancy
  Sm  Sm0  1  0.00000000  0.50000000  0.72557000  1
  Sm  Sm1  1  0.50000000  0.00000000  0.27443000  1
  S  S0  1  0.00000000  0.00000000  0.00000000  1
  S  S1  1  0.50000000  0.50000000  0.00000000  1
  S  S2  1  0.00000000  0.50000000  0.36689100  1
  S  S3  1  0.50000000  0.00000000  0.63310900  1
loop_
_geom_bond_atom_site_label_1
_geom_bond_atom_site_label_2
_geom_bond_distance
_geom_bond_site_symmetry_2
S0 Sm0 2.971962 1_554
S0 Sm0 2.971962 1_544
S0 Sm1 2.971962 1_555
S0 Sm1 2.971962 1_455
S1 Sm0 2.971962 1_554
S1 Sm0 2.971962 1_654
S1 Sm1 2.971962 1_565
S1 Sm1 2.971962 1_555
S2 Sm1 2.878895 1_565
S2 Sm1 2.878895 1_555
S2 Sm1 2.878895 1_455
S2 Sm1 2.878895 1_465
S2 Sm0 2.913946 1_555
S3 Sm0 2.878895 1_655
S3 Sm0 2.878895 1_545
S3 Sm0 2.878895 1_645
S3 Sm0 2.878895 1_555
S3 Sm1 2.913946 1_555
