# generated using pymatgen
data_Er(PRu)2
_symmetry_space_group_name_H-M   'P 1'
_cell_length_a   4.02755134
_cell_length_b   4.02755061
_cell_length_c   5.51130694
_cell_angle_alpha   111.43158958
_cell_angle_beta   111.43158413
_cell_angle_gamma   90.00000390
_symmetry_Int_Tables_number   1
_chemical_formula_structural   Er(PRu)2
_chemical_formula_sum   'Er1 P2 Ru2'
_cell_volume   76.53900794
_cell_formula_units_Z   1
loop_
 _symmetry_equiv_pos_site_id
 _symmetry_equiv_pos_as_xyz
  1  'x, y, z'
loop_
 _atom_site_type_symbol
 _atom_site_label
 _atom_site_symmetry_multiplicity
 _atom_site_fract_x
 _atom_site_fract_y
 _atom_site_fract_z
 _atom_site_occupancy
  Er  Er0  1  0.00000000  0.00000000  0.00000000  1
  P  P0  1  0.62448889  0.62448889  0.24897777  1
  P  P1  1  0.37551111  0.37551111  0.75102223  1
  Ru  Ru0  1  0.75000000  0.25000000  0.50000000  1
  Ru  Ru1  1  0.25000000  0.75000000  0.50000000  1
loop_
_geom_bond_atom_site_label_1
_geom_bond_atom_site_label_2
_geom_bond_distance
_geom_bond_site_symmetry_2
Er0 P0 3.080701 1_555
Er0 P1 3.080701 1_444
Er0 P0 3.080701 1_455
Er0 P1 3.080701 1_544
Er0 P0 3.080702 1_545
Er0 P1 3.080702 1_454
Er0 P1 3.080702 1_554
Er0 P0 3.080702 1_445
Er0 Ru0 3.101817 1_444
Er0 Ru1 3.101817 1_555
Er0 Ru1 3.101817 1_444
Er0 Ru0 3.101817 1_555
Er0 Ru1 3.101818 1_544
Er0 Ru0 3.101818 1_455
Er0 Ru0 3.101818 1_454
Er0 Ru1 3.101818 1_545
P0 Ru0 2.336276 1_565
P0 Ru1 2.336277 1_655
P0 Ru0 2.336277 1_555
P0 Ru1 2.336277 1_555
P0 P1 2.349586 1_554
P1 Ru1 2.336276 1_545
P1 Ru0 2.336277 1_455
P1 Ru1 2.336277 1_555
P1 Ru0 2.336277 1_555
