# generated using pymatgen
data_RbLiSO4
_symmetry_space_group_name_H-M   'P 1'
_cell_length_a   5.24847449
_cell_length_b   9.04204789
_cell_length_c   17.35980091
_cell_angle_alpha   90.13664262
_cell_angle_beta   89.99996732
_cell_angle_gamma   90.00001739
_symmetry_Int_Tables_number   1
_chemical_formula_structural   RbLiSO4
_chemical_formula_sum   'Rb8 Li8 S8 O32'
_cell_volume   823.84099456
_cell_formula_units_Z   8
loop_
 _symmetry_equiv_pos_site_id
 _symmetry_equiv_pos_as_xyz
  1  'x, y, z'
loop_
 _atom_site_type_symbol
 _atom_site_label
 _atom_site_symmetry_multiplicity
 _atom_site_fract_x
 _atom_site_fract_y
 _atom_site_fract_z
 _atom_site_occupancy
  Rb  Rb0  1  0.74508653  0.22831445  0.75154277  1
  Rb  Rb1  1  0.24508638  0.77168508  0.74845718  1
  Rb  Rb2  1  0.25491408  0.77168543  0.24845702  1
  Rb  Rb3  1  0.75491330  0.22831214  0.25154278  1
  Rb  Rb4  1  0.76386244  0.26932245  0.00146006  1
  Rb  Rb5  1  0.26386125  0.73067821  0.49853975  1
  Rb  Rb6  1  0.23613976  0.73067923  0.99854011  1
  Rb  Rb7  1  0.73613909  0.26932194  0.50145990  1
  Li  Li0  1  0.25241922  0.41399251  0.65945545  1
  Li  Li1  1  0.75241955  0.58600735  0.84054439  1
  Li  Li2  1  0.74758179  0.58600903  0.34054487  1
  Li  Li3  1  0.24758177  0.41399048  0.15945560  1
  Li  Li4  1  0.25985634  0.08563413  0.90934210  1
  Li  Li5  1  0.75985613  0.91436606  0.59065806  1
  Li  Li6  1  0.74014379  0.91436613  0.09065822  1
  Li  Li7  1  0.24014374  0.08563373  0.40934170  1
  S  S0  1  0.25627787  0.07987659  0.60192918  1
  S  S1  1  0.75627864  0.92012360  0.89807090  1
  S  S2  1  0.74372219  0.92012325  0.39807109  1
  S  S3  1  0.24372173  0.07987653  0.10192890  1
  S  S4  1  0.25434458  0.41885347  0.85223451  1
  S  S5  1  0.75434455  0.58114681  0.64776549  1
  S  S6  1  0.74565409  0.58114585  0.14776561  1
  S  S7  1  0.24565385  0.41885407  0.35223447  1
  O  O0  1  0.24607194  0.08329244  0.51756225  1
  O  O1  1  0.74607181  0.91670802  0.98243782  1
  O  O2  1  0.75392925  0.91670824  0.48243791  1
  O  O3  1  0.25392929  0.08329172  0.01756210  1
  O  O4  1  0.25261835  0.40612909  0.76794278  1
  O  O5  1  0.75261793  0.59387120  0.73205722  1
  O  O6  1  0.74738126  0.59387032  0.23205738  1
  O  O7  1  0.24738087  0.40612969  0.26794276  1
  O  O8  1  0.35808293  0.22126419  0.63043257  1
  O  O9  1  0.85808393  0.77873595  0.86956772  1
  O  O10  1  0.64191787  0.77873514  0.36956827  1
  O  O11  1  0.14191759  0.22126460  0.13043173  1
  O  O12  1  0.35885148  0.28220018  0.88542998  1
  O  O13  1  0.85885184  0.71780018  0.61457013  1
  O  O14  1  0.64114988  0.71780022  0.11457074  1
  O  O15  1  0.14114979  0.28219970  0.38542930  1
  O  O16  1  -0.00179048  0.05515775  0.63299682  1
  O  O17  1  0.49821059  0.94484247  0.86700311  1
  O  O18  1  0.00178927  0.94484413  0.36700218  1
  O  O19  1  0.50178855  0.05515560  0.13299781  1
  O  O20  1  -0.00813167  0.44249302  0.88017041  1
  O  O21  1  0.49186850  0.55750708  0.61982953  1
  O  O22  1  0.00812928  0.55750553  0.11982846  1
  O  O23  1  0.50812887  0.44249478  0.38017150  1
  O  O24  1  0.42511307  0.95879379  0.62723069  1
  O  O25  1  0.92511423  0.04120635  0.87276941  1
  O  O26  1  0.57488619  0.04120576  0.37276907  1
  O  O27  1  0.07488540  0.95879418  0.12723102  1
  O  O28  1  0.41496959  0.54507509  0.87572740  1
  O  O29  1  0.91496997  0.45492537  0.62427263  1
  O  O30  1  0.58503015  0.45492365  0.12427311  1
  O  O31  1  0.08502979  0.54507603  0.37572707  1
loop_
_geom_bond_atom_site_label_1
_geom_bond_atom_site_label_2
_geom_bond_distance
_geom_bond_site_symmetry_2
Li0 O4 1.884830 1_555
Li0 O8 1.895803 1_555
Li0 O29 1.909941 1_455
Li0 O21 1.934115 1_555
Li1 O5 1.884827 1_555
Li1 O9 1.895808 1_555
Li1 O28 1.909944 1_555
Li1 O20 1.934113 1_655
Li2 O6 1.884832 1_555
Li2 O10 1.895787 1_555
Li2 O31 1.909932 1_655
Li2 O23 1.934130 1_555
Li3 O7 1.884826 1_555
Li3 O11 1.895788 1_555
Li3 O30 1.909935 1_555
Li3 O22 1.934137 1_555
Li4 O3 1.879105 1_556
Li4 O12 1.898631 1_555
Li4 O25 1.910471 1_455
Li4 O17 1.929091 1_545
Li5 O2 1.879108 1_555
Li5 O13 1.898630 1_555
Li5 O24 1.910475 1_555
Li5 O16 1.929087 1_665
Li6 O1 1.879112 1_554
Li6 O14 1.898629 1_555
Li6 O27 1.910470 1_655
Li6 O19 1.929085 1_565
Li7 O0 1.879115 1_555
Li7 O15 1.898630 1_555
Li7 O26 1.910472 1_555
Li7 O18 1.929083 1_545
O0 S0 1.465971 1_555
O0 Rb7 3.086344 1_555
O0 Rb7 3.173761 1_455
O0 Rb5 3.205987 1_545
O1 S1 1.465971 1_555
O1 Rb6 3.086345 1_655
O1 Rb6 3.173753 1_555
O1 Rb4 3.205988 1_566
O2 S2 1.465970 1_555
O2 Rb5 3.086350 1_555
O2 Rb5 3.173759 1_655
O2 Rb7 3.205981 1_565
O3 S3 1.465969 1_555
O3 Rb4 3.086350 1_455
O3 Rb4 3.173767 1_555
O3 Rb6 3.205970 1_544
O4 S4 1.467558 1_555
O4 Rb0 3.056899 1_555
O4 Rb0 3.124032 1_455
O4 Rb1 3.323676 1_555
O5 S5 1.467558 1_555
O5 Rb1 3.056896 1_655
O5 Rb1 3.124028 1_555
O5 Rb0 3.323683 1_555
O6 S6 1.467559 1_555
O6 Rb2 3.056896 1_555
O6 Rb2 3.124038 1_655
O6 Rb3 3.323695 1_555
O7 S7 1.467558 1_555
O7 Rb3 3.056909 1_455
O7 Rb3 3.124049 1_555
O7 Rb2 3.323674 1_555
O8 S0 1.470277 1_555
O8 Rb0 2.923937 1_555
O8 Rb7 3.023811 1_555
O9 S1 1.470277 1_555
O9 Rb1 2.923935 1_655
O9 Rb6 3.023807 1_655
O10 S2 1.470276 1_555
O10 Rb2 2.923951 1_555
O10 Rb5 3.023796 1_555
O11 S3 1.470276 1_555
O11 Rb3 2.923948 1_455
O11 Rb4 3.023797 1_455
O12 S4 1.470750 1_555
O12 Rb4 2.930952 1_556
O12 Rb0 3.121454 1_555
O13 S5 1.470750 1_555
O13 Rb5 2.930948 1_655
O13 Rb1 3.121450 1_655
O14 S6 1.470749 1_555
O14 Rb6 2.930956 1_554
O14 Rb2 3.121443 1_555
O15 S7 1.470748 1_555
O15 Rb7 2.930955 1_455
O15 Rb3 3.121454 1_455
O16 S0 1.475121 1_555
O16 Rb0 2.904488 1_455
O16 Rb7 3.298052 1_455
O16 Rb1 3.505820 1_545
O17 S1 1.475121 1_555
O17 Rb1 2.904494 1_555
O17 Rb6 3.298047 1_555
O17 Rb0 3.505812 1_565
O18 S2 1.475125 1_455
O18 Rb2 2.904492 1_555
O18 Rb5 3.298072 1_555
O18 Rb3 3.505777 1_465
O19 S3 1.475125 1_555
O19 Rb3 2.904480 1_555
O19 Rb4 3.298082 1_555
O19 Rb2 3.505785 1_545
O20 S4 1.475860 1_555
O20 Rb4 2.886686 1_456
O20 Rb0 3.223899 1_455
O21 S5 1.475860 1_555
O21 Rb5 2.886694 1_555
O21 Rb1 3.223897 1_555
O22 S6 1.475863 1_455
O22 Rb6 2.886695 1_554
O22 Rb2 3.223924 1_555
O23 S7 1.475863 1_555
O23 Rb7 2.886692 1_555
O23 Rb3 3.223939 1_555
O24 S0 1.476179 1_565
O24 Rb1 2.863717 1_555
O24 Rb5 3.152732 1_555
O25 S1 1.476179 1_545
O25 Rb0 2.863719 1_555
O25 Rb4 3.152731 1_556
O26 S2 1.476183 1_545
O26 Rb3 2.863703 1_555
O26 Rb7 3.152735 1_555
O27 S3 1.476182 1_565
O27 Rb2 2.863716 1_555
O27 Rb6 3.152731 1_554
O28 S4 1.475597 1_555
O28 Rb6 2.868067 1_555
O28 Rb1 3.145864 1_555
O29 S5 1.475597 1_555
O29 Rb7 2.868066 1_555
O29 Rb0 3.145867 1_555
O30 S6 1.475596 1_555
O30 Rb4 2.868060 1_555
O30 Rb3 3.145866 1_555
O31 S7 1.475595 1_555
O31 Rb5 2.868060 1_555
O31 Rb2 3.145859 1_555
