# generated using pymatgen
data_Yb5P12Ir19
_symmetry_space_group_name_H-M   'P 1'
_cell_length_a   12.61832087
_cell_length_b   12.61832087
_cell_length_c   3.93629185
_cell_angle_alpha   90.00000000
_cell_angle_beta   90.00000000
_cell_angle_gamma   120.00043355
_symmetry_Int_Tables_number   1
_chemical_formula_structural   Yb5P12Ir19
_chemical_formula_sum   'Yb5 P12 Ir19'
_cell_volume   542.77415455
_cell_formula_units_Z   1
loop_
 _symmetry_equiv_pos_site_id
 _symmetry_equiv_pos_as_xyz
  1  'x, y, z'
loop_
 _atom_site_type_symbol
 _atom_site_label
 _atom_site_symmetry_multiplicity
 _atom_site_fract_x
 _atom_site_fract_y
 _atom_site_fract_z
 _atom_site_occupancy
  Yb  Yb0  1  0.33333686  0.66667492  0.00000000  1
  Yb  Yb1  1  0.66667492  0.33333686  0.00000000  1
  Yb  Yb2  1  0.18145922  0.18145922  0.50000000  1
  Yb  Yb3  1  0.81853744  0.00000647  0.50000000  1
  Yb  Yb4  1  0.00000647  0.81853744  0.50000000  1
  P  P0  1  0.82236619  0.82236619  0.00000000  1
  P  P1  1  0.17762242  0.99998384  0.00000000  1
  P  P2  1  0.99998384  0.17762242  0.00000000  1
  P  P3  1  0.31263762  0.82946303  0.50000000  1
  P  P4  1  0.17052564  0.48317103  0.50000000  1
  P  P5  1  0.51683001  0.68736895  0.50000000  1
  P  P6  1  0.82946303  0.31263762  0.50000000  1
  P  P7  1  0.48317103  0.17052564  0.50000000  1
  P  P8  1  0.68736895  0.51683001  0.50000000  1
  P  P9  1  0.35432606  0.35432606  0.00000000  1
  P  P10  1  0.64568931  0.00000878  0.00000000  1
  P  P11  1  0.00000878  0.64568931  0.00000000  1
  Ir  Ir0  1  0.19241430  0.81919529  0.00000000  1
  Ir  Ir1  1  0.18078286  0.37321254  0.00000000  1
  Ir  Ir2  1  0.62678153  0.80759965  0.00000000  1
  Ir  Ir3  1  0.81919529  0.19241430  0.00000000  1
  Ir  Ir4  1  0.37321254  0.18078286  0.00000000  1
  Ir  Ir5  1  0.80759965  0.62678153  0.00000000  1
  Ir  Ir6  1  0.71550387  0.71550387  0.50000000  1
  Ir  Ir7  1  0.28450485  0.99998361  0.50000000  1
  Ir  Ir8  1  0.99998361  0.28450485  0.50000000  1
  Ir  Ir9  1  0.13528651  0.64051875  0.50000000  1
  Ir  Ir10  1  0.35948231  0.49477857  0.50000000  1
  Ir  Ir11  1  0.50523366  0.86472264  0.50000000  1
  Ir  Ir12  1  0.64051875  0.13528651  0.50000000  1
  Ir  Ir13  1  0.49477857  0.35948231  0.50000000  1
  Ir  Ir14  1  0.86472264  0.50523366  0.50000000  1
  Ir  Ir15  1  0.53363959  0.53363959  0.00000000  1
  Ir  Ir16  1  0.46637058  0.99999153  0.00000000  1
  Ir  Ir17  1  0.99999153  0.46637058  0.00000000  1
  Ir  Ir18  1  0.99998954  0.99998954  0.00000000  1
loop_
_geom_bond_atom_site_label_1
_geom_bond_atom_site_label_2
_geom_bond_distance
_geom_bond_site_symmetry_2
P0 Yb4 3.001441 1_655
P0 Yb3 3.001441 1_564
P0 Yb4 3.001441 1_654
P0 Yb3 3.001441 1_565
P1 Yb4 3.001206 1_554
P1 Yb4 3.001206 1_555
P1 Yb2 3.001464 1_565
P1 Yb2 3.001464 1_564
P2 Yb3 3.001206 1_555
P2 Yb3 3.001206 1_554
P2 Yb2 3.001464 1_655
P2 Yb2 3.001464 1_654
P3 Yb0 2.949189 1_555
P3 Yb0 2.949189 1_556
P4 Yb0 2.949357 1_555
P4 Yb0 2.949357 1_556
P5 Yb0 2.949261 1_556
P5 Yb0 2.949261 1_555
P6 Yb1 2.949189 1_555
P6 Yb1 2.949189 1_556
P7 Yb1 2.949357 1_556
P7 Yb1 2.949357 1_555
P8 Yb1 2.949261 1_556
P8 Yb1 2.949261 1_555
P9 Yb2 2.937951 1_555
P9 Yb2 2.937951 1_554
P10 Yb3 2.937798 1_554
P10 Yb3 2.937798 1_555
P11 Yb4 2.937798 1_554
P11 Yb4 2.937798 1_555
Ir0 P11 2.317799 1_555
Ir0 P1 2.380069 1_555
Ir0 P3 2.448504 1_554
Ir0 P3 2.448504 1_555
Ir0 Ir7 2.788742 1_555
Ir0 Ir7 2.788742 1_554
Ir0 Ir9 2.801996 1_554
Ir0 Ir9 2.801996 1_555
Ir0 Ir16 3.044349 1_555
Ir0 Yb4 3.122184 1_555
Ir0 Yb4 3.122184 1_554
Ir0 Yb0 3.207523 1_555
Ir1 P9 2.318189 1_555
Ir1 P2 2.380178 1_455
Ir1 P4 2.448482 1_554
Ir1 P4 2.448482 1_555
Ir1 Ir8 2.788826 1_455
Ir1 Ir8 2.788826 1_454
Ir1 Ir10 2.802177 1_555
Ir1 Ir10 2.802177 1_554
Ir1 Ir17 3.044294 1_455
Ir1 Yb2 3.122308 1_554
Ir1 Yb2 3.122308 1_555
Ir1 Yb0 3.207721 1_555
Ir2 P10 2.317814 1_565
Ir2 P0 2.380260 1_555
Ir2 P5 2.448517 1_554
Ir2 P5 2.448517 1_555
Ir2 Ir6 2.788981 1_555
Ir2 Ir6 2.788981 1_554
Ir2 Yb3 3.122196 1_565
Ir2 Yb3 3.122196 1_564
Ir2 Yb0 3.207522 1_555
Ir3 P10 2.317799 1_555
Ir3 P2 2.380069 1_555
Ir3 P6 2.448504 1_555
Ir3 P6 2.448504 1_554
Ir3 Ir8 2.788742 1_555
Ir3 Ir8 2.788742 1_554
Ir3 Yb3 3.122184 1_554
Ir3 Yb3 3.122184 1_555
Ir3 Yb1 3.207523 1_555
Ir4 P9 2.318189 1_555
Ir4 P1 2.380178 1_545
Ir4 P7 2.448482 1_555
Ir4 P7 2.448482 1_554
Ir4 Ir7 2.788826 1_544
Ir4 Ir7 2.788826 1_545
Ir4 Yb2 3.122308 1_555
Ir4 Yb2 3.122308 1_554
Ir4 Yb1 3.207721 1_555
Ir5 P11 2.317814 1_655
Ir5 P0 2.380260 1_555
Ir5 P8 2.448517 1_555
Ir5 P8 2.448517 1_554
Ir5 Ir6 2.788981 1_555
Ir5 Ir6 2.788981 1_554
Ir5 Yb4 3.122196 1_655
Ir5 Yb4 3.122196 1_654
Ir5 Yb1 3.207522 1_555
Ir6 P8 2.349623 1_555
Ir6 P5 2.349623 1_555
Ir6 P0 2.385753 1_556
Ir6 P0 2.385753 1_555
Ir6 Yb4 3.148112 1_655
Ir6 Yb3 3.148112 1_565
Ir7 P3 2.349381 1_555
Ir7 P7 2.349566 1_565
Ir7 P1 2.385903 1_555
Ir7 P1 2.385903 1_556
Ir7 Yb4 3.148018 1_555
Ir7 Yb2 3.148323 1_565
Ir8 P6 2.349381 1_555
Ir8 P4 2.349566 1_655
Ir8 P2 2.385903 1_556
Ir8 P2 2.385903 1_555
Ir8 Yb3 3.148018 1_555
Ir8 Yb2 3.148323 1_655
Ir9 P4 2.241128 1_555
Ir9 P3 2.314471 1_555
Ir9 P11 2.627356 1_556
Ir9 P11 2.627356 1_555
Ir9 Yb0 3.066435 1_555
Ir9 Yb0 3.066435 1_556
Ir9 Yb4 3.434271 1_555
Ir10 P5 2.241140 1_555
Ir10 P4 2.314559 1_555
Ir10 P9 2.627447 1_556
Ir10 P9 2.627447 1_555
Ir10 Ir15 2.804596 1_556
Ir10 Ir15 2.804596 1_555
Ir10 Ir13 2.956984 1_555
Ir10 Yb0 3.066397 1_555
Ir10 Yb0 3.066397 1_556
Ir10 Yb2 3.434465 1_555
Ir11 P3 2.241147 1_555
Ir11 P5 2.314542 1_555
Ir11 P10 2.627414 1_565
Ir11 P10 2.627414 1_566
Ir11 Ir2 2.801963 1_556
Ir11 Ir2 2.801963 1_555
Ir11 Ir16 2.804373 1_556
Ir11 Ir16 2.804373 1_555
Ir11 Ir12 2.956651 1_565
Ir11 Yb0 3.066420 1_555
Ir11 Yb0 3.066420 1_556
Ir11 Yb3 3.434305 1_565
Ir12 P7 2.241128 1_555
Ir12 P6 2.314471 1_555
Ir12 P10 2.627356 1_555
Ir12 P10 2.627356 1_556
Ir12 Ir3 2.801996 1_555
Ir12 Ir3 2.801996 1_556
Ir12 Ir16 2.804531 1_545
Ir12 Ir16 2.804531 1_546
Ir12 Yb1 3.066435 1_556
Ir12 Yb1 3.066435 1_555
Ir12 Yb3 3.434271 1_555
Ir13 P8 2.241140 1_555
Ir13 P7 2.314559 1_555
Ir13 P9 2.627447 1_556
Ir13 P9 2.627447 1_555
Ir13 Ir4 2.802177 1_555
Ir13 Ir4 2.802177 1_556
Ir13 Ir15 2.804596 1_556
Ir13 Ir15 2.804596 1_555
Ir13 Yb1 3.066397 1_556
Ir13 Yb1 3.066397 1_555
Ir13 Yb2 3.434465 1_555
Ir14 P6 2.241147 1_555
Ir14 P8 2.314542 1_555
Ir14 P11 2.627414 1_655
Ir14 P11 2.627414 1_656
Ir14 Ir5 2.801963 1_556
Ir14 Ir5 2.801963 1_555
Ir14 Ir17 2.804373 1_556
Ir14 Ir17 2.804373 1_555
Ir14 Ir9 2.956651 1_655
Ir14 Yb1 3.066420 1_556
Ir14 Yb1 3.066420 1_555
Ir14 Yb4 3.434305 1_655
Ir15 P9 2.262621 1_555
Ir15 P5 2.844801 1_554
Ir15 P8 2.844801 1_555
Ir15 P5 2.844801 1_555
Ir15 P8 2.844801 1_554
Ir15 Ir5 3.044444 1_555
Ir15 Ir2 3.044444 1_555
Ir16 P10 2.262592 1_565
Ir16 P3 2.844749 1_555
Ir16 P3 2.844749 1_554
Ir16 P7 2.844790 1_565
Ir16 P7 2.844790 1_564
Ir16 Ir4 3.044294 1_565
Ir17 P11 2.262592 1_655
Ir17 Ir9 2.804531 1_655
Ir17 Ir9 2.804531 1_654
Ir17 P6 2.844749 1_555
Ir17 P6 2.844749 1_554
Ir17 P4 2.844790 1_655
Ir17 P4 2.844790 1_654
Ir17 Ir3 3.044349 1_555
Ir18 P0 2.241294 1_555
Ir18 P2 2.241465 1_565
Ir18 P1 2.241465 1_655
Ir18 Yb4 3.019346 1_654
Ir18 Yb3 3.019346 1_565
Ir18 Yb3 3.019346 1_564
Ir18 Yb4 3.019346 1_655
Ir18 Yb2 3.019422 1_664
Ir18 Yb2 3.019422 1_665
