# generated using pymatgen
data_BaCdGeS4
_symmetry_space_group_name_H-M   'P 1'
_cell_length_a   12.60924337
_cell_length_b   12.60924337
_cell_length_c   12.86844494
_cell_angle_alpha   104.97138007
_cell_angle_beta   104.97138005
_cell_angle_gamma   118.21009159
_symmetry_Int_Tables_number   1
_chemical_formula_structural   BaCdGeS4
_chemical_formula_sum   'Ba8 Cd8 Ge8 S32'
_cell_volume   1558.15337873
_cell_formula_units_Z   8
loop_
 _symmetry_equiv_pos_site_id
 _symmetry_equiv_pos_as_xyz
  1  'x, y, z'
loop_
 _atom_site_type_symbol
 _atom_site_label
 _atom_site_symmetry_multiplicity
 _atom_site_fract_x
 _atom_site_fract_y
 _atom_site_fract_z
 _atom_site_occupancy
  S  S0  1  0.46715933  0.23043079  0.41002658  1
  S  S1  1  0.82040422  0.05713275  0.58997342  1
  S  S2  1  0.98043079  0.71715933  0.91002658  1
  S  S3  1  0.80713275  0.07040422  0.08997342  1
  S  S4  1  0.48365232  0.21379303  0.91137588  1
  S  S5  1  0.30241715  0.57227644  0.08862412  1
  S  S6  1  0.96379303  0.73365232  0.41137588  1
  S  S7  1  0.32227644  0.55241715  0.58862412  1
  S  S8  1  0.16506235  0.76755496  0.25049159  1
  S  S9  1  0.51706337  0.91457076  0.74950841  1
  S  S10  1  0.51755496  0.41506235  0.75049159  1
  S  S11  1  0.66457076  0.76706337  0.24950841  1
  S  S12  1  0.22493732  0.27209012  0.25017032  1
  S  S13  1  0.02191979  0.97476700  0.74982968  1
  S  S14  1  0.02209012  0.47493732  0.75017032  1
  S  S15  1  0.72476700  0.27191979  0.24982968  1
  S  S16  1  0.04231796  0.45507331  0.24734327  1
  S  S17  1  0.20773004  0.79497469  0.75265673  1
  S  S18  1  0.20507331  0.29231796  0.74734327  1
  S  S19  1  0.54497469  0.45773004  0.25265673  1
  S  S20  1  0.02291679  0.95401557  0.24817333  1
  S  S21  1  0.70584225  0.77474347  0.75182667  1
  S  S22  1  0.70401557  0.27291679  0.74817333  1
  S  S23  1  0.52474347  0.95584225  0.25182667  1
  S  S24  1  0.46100970  0.73058786  0.40874251  1
  S  S25  1  0.32184535  0.05226718  0.59125749  1
  S  S26  1  0.48058786  0.71100970  0.90874251  1
  S  S27  1  0.80226718  0.57184535  0.09125749  1
  S  S28  1  0.30786886  0.07173869  0.08883864  1
  S  S29  1  0.98290005  0.21903022  0.91116136  1
  S  S30  1  0.82173869  0.55786886  0.58883864  1
  S  S31  1  0.96903022  0.23290005  0.41116136  1
  Ge  Ge0  1  0.90044316  0.26495455  0.24994401  1
  Ge  Ge1  1  0.01501054  0.65049915  0.75005599  1
  Ge  Ge2  1  0.01495455  0.15044316  0.74994401  1
  Ge  Ge3  1  0.40049915  0.26501054  0.25005599  1
  Ge  Ge4  1  0.51322759  0.23365572  0.75057607  1
  Ge  Ge5  1  0.48307965  0.76265152  0.24942393  1
  Ge  Ge6  1  0.98365572  0.76322759  0.25057607  1
  Ge  Ge7  1  0.51265152  0.73307965  0.74942393  1
  Cd  Cd0  1  0.76457027  0.48632823  0.25202909  1
  Cd  Cd1  1  0.23429915  0.51254118  0.74797091  1
  Cd  Cd2  1  0.23632823  0.01457027  0.75202909  1
  Cd  Cd3  1  0.26254118  0.48429915  0.24797091  1
  Cd  Cd4  1  0.32894158  0.97985710  0.24921040  1
  Cd  Cd5  1  0.73064669  0.07973118  0.75078960  1
  Cd  Cd6  1  0.72985710  0.57894158  0.74921040  1
  Cd  Cd7  1  0.82973118  0.98064669  0.25078960  1
  Ba  Ba0  1  0.24832463  0.24037319  0.49694752  1
  Ba  Ba1  1  0.74342567  0.75137711  0.50305248  1
  Ba  Ba2  1  0.99037319  0.49832463  0.99694752  1
  Ba  Ba3  1  0.50137711  0.99342567  0.00305248  1
  Ba  Ba4  1  0.24058321  0.74058321  0.50000000  1
  Ba  Ba5  1  0.49058321  0.49058321  0.00000000  1
  Ba  Ba6  1  0.75140102  0.25140102  0.50000000  1
  Ba  Ba7  1  0.00140102  0.00140102  0.00000000  1
loop_
_geom_bond_atom_site_label_1
_geom_bond_atom_site_label_2
_geom_bond_distance
_geom_bond_site_symmetry_2
Ge0 S16 2.228495 1_655
Ge0 S3 2.247350 1_555
Ge0 S31 2.247672 1_555
Ge0 S15 2.257629 1_555
Ge1 S17 2.228495 1_555
Ge1 S2 2.247350 1_455
Ge1 S30 2.247672 1_455
Ge1 S14 2.257629 1_555
Ge2 S18 2.228495 1_555
Ge2 S1 2.247350 1_455
Ge2 S29 2.247672 1_455
Ge2 S13 2.257629 1_545
Ge3 S19 2.228495 1_555
Ge3 S0 2.247350 1_555
Ge3 S28 2.247672 1_555
Ge3 S12 2.257629 1_555
Ge4 S22 2.225712 1_555
Ge4 S25 2.249627 1_555
Ge4 S4 2.249829 1_555
Ge4 S10 2.262409 1_555
Ge5 S23 2.225712 1_555
Ge5 S24 2.249627 1_555
Ge5 S5 2.249829 1_555
Ge5 S11 2.262409 1_555
Ge6 S20 2.225712 1_655
Ge6 S27 2.249627 1_555
Ge6 S6 2.249829 1_555
Ge6 S8 2.262409 1_655
Ge7 S21 2.225712 1_555
Ge7 S26 2.249627 1_555
Ge7 S7 2.249829 1_555
Ge7 S9 2.262409 1_555
Cd0 S15 2.496414 1_555
Cd0 S27 2.616317 1_555
Cd0 S19 2.620339 1_555
Cd0 S6 2.620844 1_555
Cd1 S14 2.496414 1_555
Cd1 S26 2.616317 1_555
Cd1 S18 2.620339 1_555
Cd1 S7 2.620844 1_555
Cd2 S13 2.496414 1_545
Cd2 S25 2.616317 1_555
Cd2 S17 2.620339 1_545
Cd2 S4 2.620844 1_555
Cd3 S12 2.496414 1_555
Cd3 S24 2.616317 1_555
Cd3 S16 2.620339 1_555
Cd3 S5 2.620844 1_555
Cd4 S8 2.499423 1_555
Cd4 S0 2.618224 1_565
Cd4 S23 2.618679 1_555
Cd4 S28 2.629623 1_565
Cd5 S9 2.499423 1_545
Cd5 S1 2.618224 1_555
Cd5 S22 2.618679 1_555
Cd5 S29 2.629623 1_555
Cd6 S10 2.499423 1_555
Cd6 S2 2.618224 1_555
Cd6 S21 2.618679 1_555
Cd6 S30 2.629623 1_555
Cd7 S11 2.499423 1_555
Cd7 S3 2.618224 1_565
Cd7 S20 2.618679 1_655
Cd7 S31 2.629623 1_565
Ba0 S10 3.242883 1_555
Ba0 S12 3.258131 1_555
Ba0 S0 3.275678 1_555
Ba0 S25 3.307997 1_555
Ba0 S20 3.314885 1_545
Ba0 S31 3.354653 1_455
Ba0 S18 3.356224 1_555
Ba0 S7 3.362633 1_555
Ba1 S11 3.242883 1_555
Ba1 S13 3.258131 1_655
Ba1 S1 3.275678 1_565
Ba1 S24 3.307997 1_555
Ba1 S21 3.314885 1_555
Ba1 S30 3.354653 1_555
Ba1 S19 3.356224 1_555
Ba1 S6 3.362633 1_555
Ba2 S8 3.242883 1_656
Ba2 S14 3.258131 1_655
Ba2 S2 3.275678 1_555
Ba2 S27 3.307997 1_556
Ba2 S22 3.314885 1_555
Ba2 S29 3.354653 1_555
Ba2 S16 3.356224 1_656
Ba2 S5 3.362633 1_656
Ba3 S9 3.242883 1_554
Ba3 S15 3.258131 1_565
Ba3 S3 3.275678 1_565
Ba3 S26 3.307997 1_554
Ba3 S23 3.314885 1_555
Ba3 S28 3.354653 1_565
Ba3 S17 3.356224 1_554
Ba3 S4 3.362633 1_564
Ba4 S9 3.259178 1_555
Ba4 S8 3.259178 1_555
Ba4 S16 3.320437 1_555
Ba4 S17 3.320437 1_555
Ba4 S25 3.325839 1_565
Ba4 S24 3.325839 1_555
Ba4 S6 3.330585 1_455
Ba4 S7 3.330585 1_555
Ba5 S11 3.259178 1_555
Ba5 S10 3.259178 1_554
Ba5 S18 3.320437 1_554
Ba5 S19 3.320437 1_555
Ba5 S27 3.325839 1_555
Ba5 S26 3.325839 1_554
Ba5 S4 3.330585 1_554
Ba5 S5 3.330585 1_555
Ba6 S15 3.239988 1_555
Ba6 S14 3.239989 1_655
Ba6 S30 3.313603 1_555
Ba6 S31 3.313603 1_555
Ba6 S0 3.325335 1_555
Ba6 S1 3.325335 1_555
Ba6 S23 3.364700 1_545
Ba6 S22 3.364700 1_555
Ba7 S13 3.239988 1_544
Ba7 S12 3.239989 1_555
Ba7 S28 3.313603 1_555
Ba7 S29 3.313603 1_454
Ba7 S2 3.325335 1_444
Ba7 S3 3.325335 1_455
Ba7 S21 3.364700 1_444
Ba7 S20 3.364700 1_545
