# generated using pymatgen
data_Cu2PO5
_symmetry_space_group_name_H-M   'P 1'
_cell_length_a   8.61177750
_cell_length_b   7.30889313
_cell_length_c   6.21473800
_cell_angle_alpha   89.99757570
_cell_angle_beta   89.99810492
_cell_angle_gamma   90.10223585
_symmetry_Int_Tables_number   1
_chemical_formula_structural   Cu2PO5
_chemical_formula_sum   'Cu8 P4 O20'
_cell_volume   391.17090473
_cell_formula_units_Z   4
loop_
 _symmetry_equiv_pos_site_id
 _symmetry_equiv_pos_as_xyz
  1  'x, y, z'
loop_
 _atom_site_type_symbol
 _atom_site_label
 _atom_site_symmetry_multiplicity
 _atom_site_fract_x
 _atom_site_fract_y
 _atom_site_fract_z
 _atom_site_occupancy
  Cu  Cu0  1  0.50029600  0.99944900  0.73379400  1
  Cu  Cu1  1  0.00071100  0.49890000  0.76549700  1
  Cu  Cu2  1  0.50029500  0.99944300  0.26627000  1
  Cu  Cu3  1  0.00071100  0.49889900  0.23449900  1
  Cu  Cu4  1  0.76726200  0.21734000  0.50003200  1
  Cu  Cu5  1  0.22901300  0.78136900  0.50004000  1
  Cu  Cu6  1  0.27118000  0.28278600  0.99998700  1
  Cu  Cu7  1  0.72922800  0.71851100  0.99998100  1
  P  P0  1  0.75013000  0.29885400  0.99998300  1
  P  P1  1  0.25029700  0.70162000  0.99998600  1
  P  P2  1  0.25030500  0.20060000  0.50001900  1
  P  P3  1  0.75049400  0.79869200  0.50001400  1
  O  O0  1  0.62531200  0.38453900  0.49999500  1
  O  O1  1  0.37282500  0.61609700  0.49998900  1
  O  O2  1  0.12795100  0.11609200  0.99999000  1
  O  O3  1  0.87110300  0.88691700  0.99998300  1
  O  O4  1  0.65836300  0.47755400  0.99999800  1
  O  O5  1  0.34306600  0.52368000  0.99999300  1
  O  O6  1  0.15789700  0.02206900  0.50000000  1
  O  O7  1  0.84189100  0.97813700  0.49999000  1
  O  O8  1  0.63898500  0.13366200  0.99997700  1
  O  O9  1  0.36018400  0.86793200  0.99998000  1
  O  O10  1  0.14025000  0.36625000  0.50004000  1
  O  O11  1  0.86120500  0.63376500  0.50003500  1
  O  O12  1  0.86333600  0.29385300  0.79829100  1
  O  O13  1  0.13651500  0.70564300  0.79875700  1
  O  O14  1  0.36399100  0.20539700  0.70137000  1
  O  O15  1  0.63667700  0.79353200  0.70122200  1
  O  O16  1  0.13652100  0.70566700  0.20120200  1
  O  O17  1  0.86332700  0.29382700  0.20165200  1
  O  O18  1  0.63668600  0.79351000  0.29879100  1
  O  O19  1  0.36399000  0.20541500  0.29864100  1
loop_
_geom_bond_atom_site_label_1
_geom_bond_atom_site_label_2
_geom_bond_distance
_geom_bond_site_symmetry_2
Cu0 O14 1.921082 1_565
Cu0 O15 1.921407 1_555
Cu0 O9 2.261002 1_555
Cu0 O8 2.263053 1_565
Cu1 O12 1.918531 1_455
Cu1 O13 1.920295 1_555
Cu1 O10 2.260494 1_555
Cu1 O11 2.267369 1_455
Cu2 O19 1.921191 1_565
Cu2 O18 1.921513 1_555
Cu2 O9 2.261570 1_554
Cu2 O8 2.263458 1_564
Cu3 O17 1.918778 1_455
Cu3 O16 1.920473 1_555
Cu3 O10 2.260870 1_555
Cu3 O11 2.267710 1_455
Cu4 O0 1.730051 1_555
Cu4 O7 1.863771 1_545
Cu4 O12 2.105148 1_555
Cu4 O17 2.105639 1_555
Cu5 O1 1.731566 1_555
Cu5 O6 1.863836 1_565
Cu5 O13 2.094159 1_555
Cu5 O16 2.094848 1_555
Cu6 O2 1.732173 1_555
Cu6 O5 1.865290 1_555
Cu6 O14 2.098680 1_555
Cu6 O19 2.098849 1_556
Cu7 O3 1.732755 1_555
Cu7 O4 1.862840 1_555
Cu7 O15 2.094003 1_555
Cu7 O18 2.094207 1_556
O4 P0 1.527782 1_555
O5 P1 1.527539 1_555
O6 P2 1.527173 1_555
O7 P3 1.528390 1_555
O8 P0 1.539405 1_555
O9 P1 1.539155 1_555
O10 P2 1.538896 1_555
O11 P3 1.538239 1_555
O12 P0 1.588394 1_555
O13 P1 1.589071 1_555
O14 P2 1.589204 1_555
O15 P3 1.589204 1_555
O16 P1 1.588930 1_554
O17 P0 1.588287 1_554
O18 P3 1.589287 1_555
O19 P2 1.589280 1_555
