# generated using pymatgen
data_Mg17Al11Tl
_symmetry_space_group_name_H-M   'P 1'
_cell_length_a   9.17786347
_cell_length_b   9.17786347
_cell_length_c   9.20461950
_cell_angle_alpha   70.56945870
_cell_angle_beta   70.56945870
_cell_angle_gamma   109.11134154
_symmetry_Int_Tables_number   1
_chemical_formula_structural   Mg17Al11Tl
_chemical_formula_sum   'Mg17 Al11 Tl1'
_cell_volume   600.07613527
_cell_formula_units_Z   1
loop_
 _symmetry_equiv_pos_site_id
 _symmetry_equiv_pos_as_xyz
  1  'x, y, z'
loop_
 _atom_site_type_symbol
 _atom_site_label
 _atom_site_symmetry_multiplicity
 _atom_site_fract_x
 _atom_site_fract_y
 _atom_site_fract_z
 _atom_site_occupancy
  Mg  Mg0  1  0.99477900  0.99477900  0.34516100  1
  Mg  Mg1  1  0.60210700  0.60210700  0.71518200  1
  Mg  Mg2  1  0.34053900  0.34053900  0.66361900  1
  Mg  Mg3  1  0.00389200  0.00389200  0.99843700  1
  Mg  Mg4  1  0.30474700  0.30474700  0.28736600  1
  Mg  Mg5  1  0.68602900  0.39057900  0.99828400  1
  Mg  Mg6  1  0.00053200  0.68366500  0.60461700  1
  Mg  Mg7  1  0.59922600  0.27867000  0.40425200  1
  Mg  Mg8  1  0.00759300  0.65917400  0.99441800  1
  Mg  Mg9  1  0.71332200  0.31771600  0.68262000  1
  Mg  Mg10  1  0.39789700  0.99763700  0.31672500  1
  Mg  Mg11  1  0.99763700  0.39789700  0.31672500  1
  Mg  Mg12  1  0.31771600  0.71332200  0.68262000  1
  Mg  Mg13  1  0.65917400  0.00759300  0.99441800  1
  Mg  Mg14  1  0.27867000  0.59922600  0.40425200  1
  Mg  Mg15  1  0.68366500  0.00053200  0.60461700  1
  Mg  Mg16  1  0.39057900  0.68602900  0.99828400  1
  Al  Al0  1  0.82697500  0.82697500  0.79767400  1
  Al  Al1  1  0.36643400  0.18473900  0.00137300  1
  Al  Al2  1  0.18909500  0.00221200  0.63314000  1
  Al  Al3  1  0.82370900  0.63589000  0.37134300  1
  Al  Al4  1  0.36686400  0.00293100  0.81587200  1
  Al  Al5  1  0.18141200  0.81667000  0.18488200  1
  Al  Al6  1  0.81667000  0.18141200  0.18488200  1
  Al  Al7  1  0.00293100  0.36686400  0.81587200  1
  Al  Al8  1  0.63589000  0.82370900  0.37134300  1
  Al  Al9  1  0.00221200  0.18909500  0.63314000  1
  Al  Al10  1  0.18473900  0.36643400  0.00137300  1
  Tl  Tl0  1  0.62496000  0.62496000  0.17751400  1
loop_
_geom_bond_atom_site_label_1
_geom_bond_atom_site_label_2
_geom_bond_distance
_geom_bond_site_symmetry_2
Mg0 Mg4 3.025887 1_665
Mg0 Mg6 3.083017 1_655
Mg0 Mg15 3.083017 1_565
Mg0 Mg3 3.136822 1_664
Mg1 Mg2 3.081199 1_555
Mg1 Mg9 3.163194 1_555
Mg1 Mg12 3.163194 1_555
Mg1 Mg5 3.178251 1_555
Mg1 Mg16 3.178251 1_555
Mg1 Mg6 3.192536 1_655
Mg1 Mg15 3.192536 1_565
Mg2 Mg3 3.109481 1_555
Mg2 Mg7 3.110038 1_555
Mg3 Mg8 3.187381 1_545
Mg3 Tl0 3.370314 1_446
Mg4 Tl0 2.947297 1_555
Mg4 Mg5 3.248316 1_554
Mg4 Mg7 3.272036 1_555
Mg5 Mg9 3.141729 1_555
Mg5 Mg8 3.145786 1_655
Mg5 Mg6 3.188960 1_655
Mg5 Tl0 3.193508 1_556
Mg5 Mg7 3.253173 1_556
Mg6 Mg9 3.175445 1_455
Mg7 Tl0 3.046286 1_555
Mg7 Mg9 3.152860 1_555
Mg8 Tl0 3.203038 1_456
Mg10 Mg13 3.082685 1_564
Mg10 Mg12 3.152777 1_555
Mg10 Mg7 3.157255 1_565
Mg10 Mg4 3.158055 1_565
Mg10 Mg14 3.170227 1_555
Mg10 Mg5 3.186781 1_564
Mg10 Mg6 3.199108 1_555
Mg11 Mg8 3.082685 1_654
Mg11 Mg9 3.152777 1_555
Mg11 Mg14 3.157255 1_655
Mg11 Mg4 3.158055 1_655
Mg11 Mg7 3.170227 1_555
Mg11 Mg16 3.186781 1_654
Mg11 Mg15 3.199108 1_555
Mg12 Mg8 3.045481 1_555
Mg12 Mg16 3.141729 1_555
Mg12 Mg14 3.152860 1_555
Mg12 Mg6 3.172652 1_555
Mg12 Mg15 3.175445 1_565
Mg13 Mg9 3.045481 1_555
Mg13 Mg16 3.145786 1_545
Mg13 Mg3 3.187381 1_655
Mg13 Tl0 3.203038 1_546
Mg14 Tl0 3.046286 1_555
Mg14 Mg6 3.103596 1_555
Mg14 Mg2 3.110038 1_555
Mg14 Mg16 3.253173 1_554
Mg14 Mg4 3.272036 1_555
Mg15 Mg7 3.103596 1_555
Mg15 Mg9 3.172652 1_555
Mg15 Mg16 3.188960 1_545
Mg16 Tl0 3.193508 1_556
Mg16 Mg4 3.248316 1_556
Al0 Al2 2.730639 1_665
Al0 Al9 2.730639 1_665
Al0 Tl0 2.867474 1_556
Al0 Mg1 2.896781 1_555
Al0 Mg6 2.910102 1_655
Al0 Mg15 2.910102 1_565
Al0 Mg13 3.195726 1_565
Al0 Mg8 3.195726 1_655
Al0 Mg3 3.309706 1_665
Al1 Al10 2.717073 1_555
Al1 Al4 2.755925 1_554
Al1 Al5 2.772584 1_545
Al1 Mg5 2.907525 1_554
Al1 Mg10 3.003969 1_545
Al1 Mg9 3.015338 1_554
Al1 Mg2 3.085904 1_554
Al1 Mg4 3.131978 1_555
Al1 Mg0 3.153095 1_445
Al1 Mg3 3.209408 1_554
Al1 Mg1 3.218855 1_554
Al2 Al4 2.705024 1_555
Al2 Al9 2.794654 1_555
Al2 Mg10 2.928711 1_545
Al2 Mg4 2.984767 1_555
Al2 Mg6 3.018473 1_545
Al2 Mg8 3.108056 1_545
Al2 Mg2 3.108909 1_555
Al2 Mg7 3.155700 1_555
Al2 Mg12 3.199151 1_545
Al2 Mg3 3.231780 1_555
Al3 Al5 2.695578 1_655
Al3 Al8 2.808651 1_555
Al3 Mg9 2.885799 1_555
Al3 Tl0 2.947026 1_555
Al3 Mg1 2.983420 1_555
Al3 Mg0 3.034183 1_555
Al3 Mg7 3.096156 1_555
Al3 Mg6 3.148846 1_655
Al3 Mg11 3.170443 1_555
Al3 Mg8 3.210273 1_654
Al3 Mg3 3.282797 1_664
Al4 Al5 2.782332 1_546
Al4 Mg15 2.923064 1_555
Al4 Mg16 2.955398 1_545
Al4 Mg9 2.998998 1_555
Al4 Mg2 3.074020 1_555
Al4 Mg8 3.108056 1_545
Al4 Mg7 3.165161 1_555
Al4 Mg3 3.197831 1_555
Al4 Mg12 3.244200 1_545
Al5 Mg14 2.922549 1_555
Al5 Mg16 2.959144 1_554
Al5 Mg10 2.993887 1_555
Al5 Mg0 3.088579 1_455
Al5 Mg8 3.121653 1_554
Al5 Mg3 3.206822 1_564
Al5 Mg11 3.221745 1_455
Al5 Mg6 3.231197 1_555
Al6 Al8 2.695578 1_545
Al6 Al7 2.782332 1_654
Al6 Mg7 2.922549 1_555
Al6 Mg5 2.959144 1_554
Al6 Mg11 2.993887 1_555
Al6 Mg0 3.088579 1_545
Al6 Mg13 3.121653 1_554
Al6 Mg3 3.206822 1_654
Al6 Mg10 3.221745 1_545
Al6 Mg15 3.231197 1_555
Al7 Al9 2.705024 1_555
Al7 Mg6 2.923064 1_555
Al7 Mg5 2.955398 1_455
Al7 Mg12 2.998998 1_555
Al7 Mg2 3.074020 1_555
Al7 Mg13 3.108056 1_455
Al7 Mg14 3.165161 1_555
Al7 Mg3 3.197831 1_555
Al7 Mg9 3.244200 1_455
Al8 Mg12 2.885799 1_555
Al8 Tl0 2.947026 1_555
Al8 Mg1 2.983420 1_555
Al8 Mg0 3.034183 1_555
Al8 Mg14 3.096156 1_555
Al8 Mg15 3.148846 1_565
Al8 Mg10 3.170443 1_555
Al8 Mg13 3.210273 1_564
Al8 Mg3 3.282797 1_664
Al9 Mg11 2.928711 1_455
Al9 Mg4 2.984767 1_555
Al9 Mg15 3.018473 1_455
Al9 Mg13 3.108056 1_455
Al9 Mg2 3.108909 1_555
Al9 Mg14 3.155700 1_555
Al9 Mg9 3.199151 1_455
Al9 Mg3 3.231780 1_555
Al10 Al7 2.755925 1_554
Al10 Al6 2.772584 1_455
Al10 Mg16 2.907525 1_554
Al10 Mg11 3.003969 1_455
Al10 Mg12 3.015338 1_554
Al10 Mg2 3.085904 1_554
Al10 Mg4 3.131978 1_555
Al10 Mg0 3.153095 1_445
Al10 Mg3 3.209408 1_554
Al10 Mg1 3.218855 1_554
