# generated using pymatgen
data_Yb(MnAl2)4
_symmetry_space_group_name_H-M   'P 1'
_cell_length_a   5.17335200
_cell_length_b   6.72566472
_cell_length_c   6.72566472
_cell_angle_alpha   81.49385490
_cell_angle_beta   67.38122519
_cell_angle_gamma   67.38122519
_symmetry_Int_Tables_number   1
_chemical_formula_structural   Yb(MnAl2)4
_chemical_formula_sum   'Yb1 Mn4 Al8'
_cell_volume   199.39998885
_cell_formula_units_Z   1
loop_
 _symmetry_equiv_pos_site_id
 _symmetry_equiv_pos_as_xyz
  1  'x, y, z'
loop_
 _atom_site_type_symbol
 _atom_site_label
 _atom_site_symmetry_multiplicity
 _atom_site_fract_x
 _atom_site_fract_y
 _atom_site_fract_z
 _atom_site_occupancy
  Yb  Yb0  1  0.00000000  0.00000000  0.00000000  1
  Mn  Mn0  1  0.00000000  0.00000000  0.50000000  1
  Mn  Mn1  1  0.50000000  0.00000000  0.50000000  1
  Mn  Mn2  1  0.50000000  0.50000000  0.00000000  1
  Mn  Mn3  1  0.00000000  0.50000000  0.00000000  1
  Al  Al0  1  0.00000000  0.33176000  0.66824000  1
  Al  Al1  1  0.00000000  0.66824000  0.33176000  1
  Al  Al2  1  0.66824000  0.33176000  0.33176000  1
  Al  Al3  1  0.33176000  0.66824000  0.66824000  1
  Al  Al4  1  0.50000000  0.77354100  0.22645900  1
  Al  Al5  1  0.50000000  0.22645900  0.77354100  1
  Al  Al6  1  0.72645900  0.77354100  0.77354100  1
  Al  Al7  1  0.27354100  0.22645900  0.22645900  1
loop_
_geom_bond_atom_site_label_1
_geom_bond_atom_site_label_2
_geom_bond_distance
_geom_bond_site_symmetry_2
Mn0 Mn1 2.586676 1_455
Mn0 Mn1 2.586676 1_555
Mn0 Yb0 3.362832 1_555
Mn0 Yb0 3.362832 1_556
Mn1 Yb0 3.362832 1_556
Mn1 Yb0 3.362832 1_655
Mn2 Mn3 2.586676 1_655
Mn2 Mn3 2.586676 1_555
Mn2 Yb0 3.362832 1_655
Mn2 Yb0 3.362832 1_565
Mn3 Yb0 3.362832 1_565
Mn3 Yb0 3.362832 1_555
Al0 Mn0 2.646883 1_555
Al0 Mn1 2.646883 1_555
Al0 Mn3 2.646883 1_556
Al0 Mn2 2.646883 1_456
Al0 Al5 2.746937 1_555
Al0 Al5 2.746937 1_455
Al0 Al6 2.819569 1_455
Al0 Al7 2.819569 1_555
Al0 Yb0 2.912833 1_556
Al0 Al1 2.954274 1_555
Al1 Mn3 2.646883 1_555
Al1 Mn2 2.646883 1_555
Al1 Mn1 2.646883 1_465
Al1 Mn0 2.646883 1_565
Al1 Al4 2.746937 1_555
Al1 Al4 2.746937 1_455
Al1 Al6 2.819569 1_455
Al1 Al7 2.819569 1_555
Al1 Yb0 2.912833 1_565
Al2 Mn1 2.646883 1_555
Al2 Mn3 2.646883 1_655
Al2 Mn2 2.646883 1_555
Al2 Mn0 2.646883 1_655
Al2 Al7 2.746937 1_555
Al2 Al7 2.746937 1_655
Al2 Al5 2.819569 1_555
Al2 Al4 2.819569 1_555
Al2 Yb0 2.912833 1_655
Al2 Al3 2.954274 1_555
Al3 Mn3 2.646883 1_556
Al3 Mn0 2.646883 1_565
Al3 Mn2 2.646883 1_556
Al3 Mn1 2.646883 1_565
Al3 Al6 2.746937 1_555
Al3 Al6 2.746937 1_455
Al3 Al4 2.819569 1_555
Al3 Al5 2.819569 1_555
Al3 Yb0 2.912833 1_566
Al4 Mn1 2.556052 1_565
Al4 Mn3 2.556052 1_655
Al4 Mn2 2.556052 1_555
Al4 Mn0 2.556052 1_565
Al4 Al6 2.811876 1_554
Al4 Al7 2.811876 1_565
Al4 Yb0 3.262547 1_665
Al4 Yb0 3.262547 1_565
Al5 Mn3 2.556052 1_556
Al5 Mn0 2.556052 1_655
Al5 Mn1 2.556052 1_555
Al5 Mn2 2.556052 1_556
Al5 Al7 2.811876 1_556
Al5 Al6 2.811876 1_545
Al5 Yb0 3.262547 1_556
Al5 Yb0 3.262547 1_656
Al6 Mn1 2.556052 1_565
Al6 Mn3 2.556052 1_656
Al6 Mn0 2.556052 1_665
Al6 Mn2 2.556052 1_556
Al6 Yb0 3.262547 1_566
Al6 Yb0 3.262547 1_666
Al7 Mn3 2.556052 1_555
Al7 Mn0 2.556052 1_555
Al7 Mn2 2.556052 1_555
Al7 Mn1 2.556052 1_555
Al7 Yb0 3.262547 1_655
Al7 Yb0 3.262547 1_555
