# generated using pymatgen
data_Al3Ni5
_symmetry_space_group_name_H-M   'P 1'
_cell_length_a   3.72527337
_cell_length_b   4.94345816
_cell_length_c   4.94345975
_cell_angle_alpha   96.93144550
_cell_angle_beta   90.00000000
_cell_angle_gamma   90.00000000
_symmetry_Int_Tables_number   1
_chemical_formula_structural   Al3Ni5
_chemical_formula_sum   'Al3 Ni5'
_cell_volume   90.37206581
_cell_formula_units_Z   1
loop_
 _symmetry_equiv_pos_site_id
 _symmetry_equiv_pos_as_xyz
  1  'x, y, z'
loop_
 _atom_site_type_symbol
 _atom_site_label
 _atom_site_symmetry_multiplicity
 _atom_site_fract_x
 _atom_site_fract_y
 _atom_site_fract_z
 _atom_site_occupancy
  Al  Al0  1  -0.00000000  0.50000000  0.50000000  1
  Al  Al1  1  0.50000000  0.22126299  0.77873701  1
  Al  Al2  1  0.50000000  0.77873701  0.22126299  1
  Ni  Ni0  1  -0.00000000  0.00000000  0.00000000  1
  Ni  Ni1  1  -0.00000000  0.50000000  0.00000000  1
  Ni  Ni2  1  -0.00000000  0.00000000  0.50000000  1
  Ni  Ni3  1  0.50000000  0.27589205  0.27589205  1
  Ni  Ni4  1  0.50000000  0.72410795  0.72410795  1
loop_
_geom_bond_atom_site_label_1
_geom_bond_atom_site_label_2
_geom_bond_distance
_geom_bond_site_symmetry_2
Al0 Ni4 2.372323 1_455
Al0 Ni4 2.372323 1_555
Al0 Ni3 2.372323 1_555
Al0 Ni3 2.372323 1_455
Al0 Ni2 2.471729 1_565
Al0 Ni2 2.471729 1_555
Al0 Ni1 2.471730 1_555
Al0 Ni1 2.471730 1_556
Al1 Ni4 2.439847 1_545
Al1 Ni3 2.439848 1_556
Al1 Ni0 2.480121 1_656
Al1 Ni0 2.480121 1_556
Al1 Ni1 2.490125 1_556
Al1 Ni1 2.490125 1_656
Al1 Ni2 2.490125 1_555
Al1 Ni2 2.490125 1_655
Al1 Ni4 2.532612 1_555
Al1 Ni3 2.532613 1_555
Al2 Ni3 2.439847 1_565
Al2 Ni4 2.439848 1_554
Al2 Ni0 2.480121 1_665
Al2 Ni0 2.480121 1_565
Al2 Ni1 2.490125 1_655
Al2 Ni1 2.490125 1_555
Al2 Ni2 2.490125 1_665
Al2 Ni2 2.490125 1_565
Al2 Ni3 2.532612 1_555
Al2 Ni4 2.532613 1_555
Ni0 Ni1 2.471729 1_555
Ni0 Ni1 2.471729 1_545
Ni0 Ni2 2.471730 1_555
Ni0 Ni2 2.471730 1_554
Ni0 Ni3 2.596283 1_555
Ni0 Ni4 2.596283 1_544
Ni0 Ni4 2.596283 1_444
Ni0 Ni3 2.596283 1_455
Ni1 Ni4 2.630893 1_554
Ni1 Ni4 2.630893 1_454
Ni1 Ni3 2.630893 1_555
Ni1 Ni3 2.630893 1_455
Ni2 Ni4 2.630893 1_445
Ni2 Ni4 2.630893 1_545
Ni2 Ni3 2.630893 1_455
Ni2 Ni3 2.630893 1_555
