# generated using pymatgen
data_TmBe13
_symmetry_space_group_name_H-M   'P 1'
_cell_length_a   7.17870285
_cell_length_b   7.17870284
_cell_length_c   7.17870357
_cell_angle_alpha   59.99493649
_cell_angle_beta   59.99494310
_cell_angle_gamma   59.99493316
_symmetry_Int_Tables_number   1
_chemical_formula_structural   TmBe13
_chemical_formula_sum   'Tm2 Be26'
_cell_volume   261.56108089
_cell_formula_units_Z   2
loop_
 _symmetry_equiv_pos_site_id
 _symmetry_equiv_pos_as_xyz
  1  'x, y, z'
loop_
 _atom_site_type_symbol
 _atom_site_label
 _atom_site_symmetry_multiplicity
 _atom_site_fract_x
 _atom_site_fract_y
 _atom_site_fract_z
 _atom_site_occupancy
  Tm  Tm0  1  0.75000000  0.75000000  0.75000000  1
  Tm  Tm1  1  0.25000000  0.25000000  0.25000000  1
  Be  Be0  1  0.50000000  0.50000000  0.50000000  1
  Be  Be1  1  -0.00000000  -0.00000000  0.00000000  1
  Be  Be2  1  0.79045139  0.43765066  0.20958391  1
  Be  Be3  1  0.20954861  0.56234934  0.79041509  1
  Be  Be4  1  0.56231318  0.20956149  0.43770955  1
  Be  Be5  1  0.43768682  0.79043851  0.56229045  1
  Be  Be6  1  0.29041609  0.06234934  0.70954861  1
  Be  Be7  1  0.70958391  0.93765066  0.29045139  1
  Be  Be8  1  0.93770955  0.70956149  0.06231318  1
  Be  Be9  1  0.06229045  0.29043851  0.93768682  1
  Be  Be10  1  0.43765066  0.20958391  0.79045139  1
  Be  Be11  1  0.56234934  0.79041609  0.20954861  1
  Be  Be12  1  0.20956149  0.43770955  0.56231318  1
  Be  Be13  1  0.79043851  0.56229045  0.43768682  1
  Be  Be14  1  0.06234934  0.70954861  0.29041609  1
  Be  Be15  1  0.93765066  0.29045139  0.70958391  1
  Be  Be16  1  0.70956149  0.06231318  0.93770955  1
  Be  Be17  1  0.29043851  0.93768682  0.06229045  1
  Be  Be18  1  0.20958391  0.79045139  0.43765066  1
  Be  Be19  1  0.79041509  0.20954861  0.56234934  1
  Be  Be20  1  0.43770955  0.56231318  0.20956149  1
  Be  Be21  1  0.56229045  0.43768682  0.79043851  1
  Be  Be22  1  0.70954861  0.29041609  0.06234934  1
  Be  Be23  1  0.29045139  0.70958391  0.93765066  1
  Be  Be24  1  0.06231318  0.93770955  0.70956149  1
  Be  Be25  1  0.93768682  0.06229045  0.29043851  1
loop_
_geom_bond_atom_site_label_1
_geom_bond_atom_site_label_2
_geom_bond_distance
_geom_bond_site_symmetry_2
Be0 Be19 2.132253 1_555
Be0 Be3 2.132253 1_555
Be0 Be18 2.132257 1_555
Be0 Be11 2.132257 1_555
Be0 Be10 2.132257 1_555
Be0 Be2 2.132257 1_555
Be0 Be5 2.132315 1_555
Be0 Be4 2.132315 1_555
Be0 Be13 2.132315 1_555
Be0 Be12 2.132315 1_555
Be0 Be21 2.132315 1_555
Be0 Be20 2.132315 1_555
Be1 Be22 2.132257 1_455
Be1 Be23 2.132257 1_544
Be1 Be15 2.132257 1_454
Be1 Be14 2.132257 1_545
Be1 Be7 2.132257 1_445
Be1 Be6 2.132257 1_554
Be1 Be16 2.132315 1_454
Be1 Be17 2.132315 1_545
Be1 Be8 2.132315 1_445
Be1 Be9 2.132315 1_554
Be1 Be25 2.132315 1_455
Be1 Be24 2.132315 1_544
Be2 Be25 2.217144 1_555
Be2 Be22 2.217390 1_555
Be2 Be9 2.219380 1_654
Be2 Be8 2.219782 1_555
Be2 Be20 2.224150 1_555
Be2 Be4 2.315772 1_555
Be2 Tm1 2.983907 1_655
Be2 Tm0 2.984130 1_554
Be3 Be8 2.219384 1_456
Be3 Be9 2.219781 1_555
Be3 Be5 2.315772 1_555
Be3 Tm0 2.983904 1_455
Be3 Tm1 2.984135 1_556
Be4 Be6 2.219380 1_555
Be4 Be7 2.219782 1_545
Be4 Tm0 2.983826 1_545
Be4 Tm1 2.984299 1_555
Be5 Be7 2.219380 1_555
Be5 Be6 2.219782 1_565
Be5 Tm1 2.983826 1_565
Be5 Tm0 2.984299 1_555
Be6 Be9 2.315772 1_555
Be6 Tm1 2.983907 1_555
Be6 Tm0 2.984129 1_545
Be7 Be8 2.315772 1_555
Be7 Tm0 2.983907 1_555
Be7 Tm1 2.984129 1_565
Be8 Tm1 2.983826 1_655
Be8 Tm0 2.984300 1_554
Be9 Tm0 2.983826 1_455
Be9 Tm1 2.984300 1_556
Be10 Be9 2.217144 1_555
Be10 Be6 2.217390 1_555
Be10 Be17 2.219379 1_546
Be10 Be16 2.219782 1_555
Be10 Be19 2.224127 1_555
Be10 Be3 2.224131 1_555
Be10 Be4 2.224150 1_555
Be10 Be21 2.224199 1_555
Be10 Be12 2.315771 1_555
Be10 Tm1 2.983907 1_556
Be10 Tm0 2.984129 1_545
Be11 Be8 2.217144 1_555
Be11 Be7 2.217390 1_555
Be11 Be16 2.219379 1_564
Be11 Be17 2.219782 1_555
Be11 Be2 2.224133 1_555
Be11 Be18 2.224133 1_555
Be11 Be5 2.224150 1_555
Be11 Be20 2.224199 1_555
Be11 Be13 2.315771 1_555
Be11 Tm0 2.983907 1_554
Be11 Tm1 2.984129 1_565
Be12 Be6 2.217144 1_555
Be12 Be9 2.217217 1_555
Be12 Be14 2.219379 1_555
Be12 Be15 2.219782 1_455
Be12 Be4 2.224135 1_555
Be12 Be20 2.224136 1_555
Be12 Be18 2.224150 1_555
Be12 Be3 2.224193 1_555
Be12 Tm0 2.983826 1_455
Be12 Tm1 2.984300 1_555
Be13 Be7 2.217144 1_555
Be13 Be8 2.217217 1_555
Be13 Be15 2.219379 1_555
Be13 Be14 2.219782 1_655
Be13 Be5 2.224135 1_555
Be13 Be21 2.224136 1_555
Be13 Be19 2.224153 1_555
Be13 Be2 2.224200 1_555
Be13 Tm1 2.983826 1_655
Be13 Tm0 2.984300 1_555
Be14 Be20 2.217144 1_555
Be14 Be18 2.217390 1_555
Be14 Be7 2.224133 1_455
Be14 Be23 2.224133 1_554
Be14 Be25 2.224150 1_465
Be14 Be8 2.224200 1_455
Be14 Be17 2.315772 1_555
Be14 Tm1 2.983907 1_555
Be14 Tm0 2.984130 1_455
Be15 Be21 2.217144 1_555
Be15 Be19 2.217396 1_555
Be15 Be6 2.224133 1_655
Be15 Be22 2.224133 1_556
Be15 Be24 2.224150 1_645
Be15 Be9 2.224200 1_655
Be15 Be16 2.315772 1_555
Be15 Tm0 2.983907 1_555
Be15 Tm1 2.984130 1_655
Be16 Be19 2.217145 1_555
Be16 Be21 2.217217 1_555
Be16 Be8 2.224135 1_546
Be16 Be24 2.224135 1_645
Be16 Be7 2.224150 1_546
Be16 Be22 2.224199 1_556
Be16 Tm1 2.983826 1_556
Be16 Tm0 2.984300 1_545
Be17 Be18 2.217145 1_555
Be17 Be20 2.217217 1_555
Be17 Be9 2.224135 1_564
Be17 Be25 2.224135 1_465
Be17 Be6 2.224150 1_564
Be17 Be23 2.224199 1_554
Be17 Tm0 2.983826 1_554
Be17 Tm1 2.984300 1_565
Be18 Be25 2.219379 1_465
Be18 Be24 2.219782 1_555
Be18 Be3 2.224127 1_555
Be18 Be5 2.224199 1_555
Be18 Be20 2.315772 1_555
Be18 Tm1 2.983907 1_565
Be18 Tm0 2.984130 1_455
Be19 Be24 2.219384 1_645
Be19 Be25 2.219781 1_555
Be19 Be2 2.224131 1_555
Be19 Be4 2.224193 1_555
Be19 Be21 2.315772 1_555
Be19 Tm0 2.983904 1_545
Be19 Tm1 2.984135 1_655
Be20 Be22 2.219379 1_555
Be20 Be23 2.219782 1_554
Be20 Be4 2.224135 1_555
Be20 Tm0 2.983827 1_554
Be20 Tm1 2.984300 1_555
Be21 Be23 2.219379 1_555
Be21 Be22 2.219782 1_556
Be21 Be5 2.224135 1_555
Be21 Be3 2.224152 1_555
Be21 Tm1 2.983827 1_556
Be21 Tm0 2.984300 1_555
Be22 Be4 2.217145 1_555
Be22 Be7 2.224133 1_545
Be22 Be9 2.224150 1_654
Be22 Be25 2.315771 1_555
Be22 Tm1 2.983907 1_555
Be22 Tm0 2.984129 1_554
Be23 Be5 2.217145 1_555
Be23 Be3 2.217396 1_555
Be23 Be6 2.224133 1_565
Be23 Be8 2.224150 1_456
Be23 Be24 2.315771 1_555
Be23 Tm0 2.983907 1_555
Be23 Tm1 2.984129 1_556
Be24 Be3 2.217145 1_555
Be24 Be5 2.217217 1_555
Be24 Be8 2.224136 1_456
Be24 Be6 2.224199 1_565
Be24 Tm1 2.983827 1_565
Be24 Tm0 2.984300 1_455
Be25 Be4 2.217217 1_555
Be25 Be9 2.224136 1_654
Be25 Be7 2.224199 1_545
Be25 Tm0 2.983827 1_545
Be25 Tm1 2.984300 1_655
