# generated using pymatgen
data_Tb(Mo3S4)2
_symmetry_space_group_name_H-M   'P 1'
_cell_length_a   6.48566627
_cell_length_b   6.48564688
_cell_length_c   6.48573140
_cell_angle_alpha   89.41646345
_cell_angle_beta   89.41604185
_cell_angle_gamma   89.41619699
_symmetry_Int_Tables_number   1
_chemical_formula_structural   Tb(Mo3S4)2
_chemical_formula_sum   'Tb1 Mo6 S8'
_cell_volume   272.77193303
_cell_formula_units_Z   1
loop_
 _symmetry_equiv_pos_site_id
 _symmetry_equiv_pos_as_xyz
  1  'x, y, z'
loop_
 _atom_site_type_symbol
 _atom_site_label
 _atom_site_symmetry_multiplicity
 _atom_site_fract_x
 _atom_site_fract_y
 _atom_site_fract_z
 _atom_site_occupancy
  Tb  Tb0  1  -0.00000049  -0.00000112  0.00000256  1
  Mo  Mo0  1  0.77329020  0.57986834  0.43946370  1
  Mo  Mo1  1  0.43946325  0.77329077  0.57986590  1
  Mo  Mo2  1  0.57986845  0.43946011  0.77328776  1
  Mo  Mo3  1  0.22670603  0.42012989  0.56053394  1
  Mo  Mo4  1  0.56054084  0.22671007  0.42013295  1
  Mo  Mo5  1  0.42013571  0.56053807  0.22671452  1
  S  S0  1  0.76097550  0.76098422  0.76097419  1
  S  S1  1  0.23902300  0.23901694  0.23902625  1
  S  S2  1  0.24876535  0.63044768  0.87331220  1
  S  S3  1  0.87330785  0.24876794  0.63044303  1
  S  S4  1  0.63045508  0.87331158  0.24877524  1
  S  S5  1  0.75123272  0.36955167  0.12668756  1
  S  S6  1  0.12669167  0.75123255  0.36955665  1
  S  S7  1  0.36954485  0.12669129  0.75122355  1
loop_
_geom_bond_atom_site_label_1
_geom_bond_atom_site_label_2
_geom_bond_distance
_geom_bond_site_symmetry_2
Mo0 S0 2.403947 1_555
Mo0 S4 2.439114 1_555
Mo0 S5 2.462208 1_555
Mo0 S3 2.549541 1_555
Mo0 S6 2.591279 1_655
Mo1 S0 2.403929 1_555
Mo1 S2 2.439187 1_555
Mo1 S6 2.462157 1_555
Mo1 S4 2.549543 1_555
Mo1 S7 2.591262 1_565
Mo2 S0 2.403979 1_555
Mo2 S3 2.439120 1_555
Mo2 S7 2.462182 1_555
Mo2 S2 2.549583 1_555
Mo2 S5 2.591297 1_556
Mo3 S1 2.403922 1_555
Mo3 S7 2.439104 1_555
Mo3 S2 2.462224 1_555
Mo3 S6 2.549541 1_555
Mo3 S3 2.591256 1_455
Mo4 S1 2.403956 1_555
Mo4 S5 2.439159 1_555
Mo4 S3 2.462136 1_555
Mo4 S7 2.549552 1_555
Mo4 S4 2.591246 1_545
Mo5 S1 2.403980 1_555
Mo5 S6 2.439145 1_555
Mo5 S4 2.462190 1_555
Mo5 S5 2.549550 1_555
Mo5 S2 2.591330 1_554
S0 Tb0 2.712283 1_666
S1 Tb0 2.712277 1_555
S2 Tb0 2.992840 1_566
S3 Tb0 2.992929 1_656
S4 Tb0 2.992837 1_665
S5 Tb0 2.992842 1_655
S6 Tb0 2.992892 1_565
S7 Tb0 2.992873 1_556
