# generated using pymatgen
data_HfMg6Bi
_symmetry_space_group_name_H-M   'P 1'
_cell_length_a   5.20011400
_cell_length_b   6.52793500
_cell_length_c   10.98499800
_cell_angle_alpha   90.00000000
_cell_angle_beta   90.00000000
_cell_angle_gamma   90.00000000
_symmetry_Int_Tables_number   1
_chemical_formula_structural   HfMg6Bi
_chemical_formula_sum   'Hf2 Mg12 Bi2'
_cell_volume   372.89681005
_cell_formula_units_Z   2
loop_
 _symmetry_equiv_pos_site_id
 _symmetry_equiv_pos_as_xyz
  1  'x, y, z'
loop_
 _atom_site_type_symbol
 _atom_site_label
 _atom_site_symmetry_multiplicity
 _atom_site_fract_x
 _atom_site_fract_y
 _atom_site_fract_z
 _atom_site_occupancy
  Hf  Hf0  1  0.50000000  0.50000000  0.16606600  1
  Hf  Hf1  1  0.50000000  0.00000000  0.66606600  1
  Mg  Mg0  1  0.00000000  0.24996000  0.08293400  1
  Mg  Mg1  1  0.00000000  0.75004000  0.08293400  1
  Mg  Mg2  1  0.00000000  0.50000000  0.83450600  1
  Mg  Mg3  1  0.50000000  0.25875500  0.91997200  1
  Mg  Mg4  1  0.50000000  0.74124500  0.91997200  1
  Mg  Mg5  1  0.50000000  0.50000000  0.66423300  1
  Mg  Mg6  1  0.00000000  0.74996000  0.58293400  1
  Mg  Mg7  1  0.00000000  0.25004000  0.58293400  1
  Mg  Mg8  1  0.00000000  0.00000000  0.33450600  1
  Mg  Mg9  1  0.50000000  0.75875500  0.41997200  1
  Mg  Mg10  1  0.50000000  0.24124500  0.41997200  1
  Mg  Mg11  1  0.50000000  0.00000000  0.16423300  1
  Bi  Bi0  1  0.00000000  0.50000000  0.32938500  1
  Bi  Bi1  1  0.00000000  0.00000000  0.82938500  1
loop_
_geom_bond_atom_site_label_1
_geom_bond_atom_site_label_2
_geom_bond_distance
_geom_bond_site_symmetry_2
Hf0 Mg4 3.128602 1_554
Hf0 Mg3 3.128602 1_554
Hf0 Mg0 3.202884 1_555
Hf0 Mg1 3.202884 1_555
Hf0 Mg0 3.202884 1_655
Hf0 Mg1 3.202884 1_655
Hf0 Mg9 3.260763 1_555
Hf0 Mg10 3.260763 1_555
Hf0 Mg11 3.264030 1_555
Hf0 Mg11 3.264030 1_565
Hf1 Mg10 3.128602 1_555
Hf1 Mg9 3.128602 1_545
Hf1 Mg6 3.202884 1_645
Hf1 Mg6 3.202884 1_545
Hf1 Mg7 3.202884 1_655
Hf1 Mg7 3.202884 1_555
Hf1 Mg3 3.260763 1_555
Hf1 Mg4 3.260763 1_545
Hf1 Mg5 3.264030 1_555
Hf1 Mg5 3.264030 1_545
Mg0 Mg3 3.157243 1_454
Mg0 Mg3 3.157243 1_554
Mg0 Mg2 3.179868 1_554
Mg0 Mg11 3.196934 1_455
Mg0 Mg11 3.196934 1_555
Mg0 Mg8 3.209291 1_555
Mg0 Mg1 3.263445 1_545
Mg0 Mg1 3.264490 1_555
Mg1 Mg4 3.157243 1_554
Mg1 Mg4 3.157243 1_454
Mg1 Mg2 3.179868 1_554
Mg1 Mg11 3.196934 1_465
Mg1 Mg11 3.196934 1_565
Mg1 Mg8 3.209291 1_565
Mg2 Mg4 3.181481 1_455
Mg2 Mg4 3.181481 1_555
Mg2 Mg3 3.181481 1_555
Mg2 Mg3 3.181481 1_455
Mg2 Mg5 3.202948 1_455
Mg2 Mg5 3.202948 1_555
Mg2 Mg7 3.209291 1_555
Mg2 Mg6 3.209291 1_555
Mg3 Mg4 3.149663 1_555
Mg3 Mg5 3.220593 1_555
Mg3 Mg4 3.378272 1_545
Mg4 Mg5 3.220593 1_555
Mg5 Mg9 3.170612 1_555
Mg5 Mg7 3.196934 1_655
Mg5 Mg6 3.196934 1_555
Mg5 Mg6 3.196934 1_655
Mg5 Mg7 3.196934 1_555
Mg6 Mg9 3.157243 1_555
Mg6 Mg9 3.157243 1_455
Mg6 Mg8 3.179868 1_565
Mg6 Mg7 3.263445 1_555
Mg6 Mg7 3.264490 1_565
Mg7 Mg8 3.179868 1_555
Mg8 Mg9 3.181481 1_445
Mg8 Mg9 3.181481 1_545
Mg10 Mg9 3.149663 1_545
Mg10 Mg7 3.157243 1_555
Mg10 Mg7 3.157243 1_655
Mg10 Mg5 3.170612 1_555
Mg10 Mg8 3.181481 1_555
Mg10 Mg8 3.181481 1_655
Mg10 Mg11 3.220593 1_555
Mg10 Mg9 3.378272 1_555
Mg11 Mg3 3.170612 1_554
Mg11 Mg4 3.170612 1_544
Mg11 Mg8 3.202948 1_555
Mg11 Mg8 3.202948 1_655
Mg11 Mg9 3.220593 1_545
Bi0 Hf0 3.158947 1_455
Bi0 Hf0 3.158947 1_555
Bi0 Mg0 3.161250 1_555
Bi0 Mg1 3.161250 1_555
Bi0 Mg7 3.228011 1_555
Bi0 Mg6 3.228011 1_555
Bi0 Mg9 3.256332 1_455
Bi0 Mg9 3.256332 1_555
Bi0 Mg10 3.256332 1_555
Bi0 Mg10 3.256332 1_455
Bi0 Mg8 3.264452 1_565
Bi0 Mg8 3.264452 1_555
Bi1 Hf1 3.158947 1_555
Bi1 Hf1 3.158947 1_455
Bi1 Mg6 3.161250 1_545
Bi1 Mg7 3.161250 1_555
Bi1 Mg0 3.228011 1_556
Bi1 Mg1 3.228011 1_546
Bi1 Mg3 3.256332 1_555
Bi1 Mg3 3.256332 1_455
Bi1 Mg4 3.256332 1_545
Bi1 Mg4 3.256332 1_445
Bi1 Mg2 3.264452 1_545
Bi1 Mg2 3.264452 1_555
