# generated using pymatgen
data_K4U5B2O21
_symmetry_space_group_name_H-M   'P 1'
_cell_length_a   7.09137431
_cell_length_b   11.95304300
_cell_length_c   13.46210729
_cell_angle_alpha   90.00000000
_cell_angle_beta   90.10229359
_cell_angle_gamma   90.00000000
_symmetry_Int_Tables_number   1
_chemical_formula_structural   K4U5B2O21
_chemical_formula_sum   'K8 U10 B4 O42'
_cell_volume   1141.09354000
_cell_formula_units_Z   2
loop_
 _symmetry_equiv_pos_site_id
 _symmetry_equiv_pos_as_xyz
  1  'x, y, z'
loop_
 _atom_site_type_symbol
 _atom_site_label
 _atom_site_symmetry_multiplicity
 _atom_site_fract_x
 _atom_site_fract_y
 _atom_site_fract_z
 _atom_site_occupancy
  K  K0  1  0.49747300  0.33994800  0.91769300  1
  K  K1  1  0.50245400  0.84180900  0.58410200  1
  K  K2  1  0.50245400  0.65819100  0.08410200  1
  K  K3  1  0.49747300  0.16005200  0.41769300  1
  K  K4  1  0.49715800  0.50974200  0.36991500  1
  K  K5  1  0.50329000  0.01316200  0.12771300  1
  K  K6  1  0.50329000  0.48683800  0.62771300  1
  K  K7  1  0.49715800  0.99025800  0.86991500  1
  U  U0  1  0.00491700  0.62212600  0.25377400  1
  U  U1  1  0.99521300  0.12217600  0.24625200  1
  U  U2  1  0.99521300  0.37782400  0.74625200  1
  U  U3  1  0.00491700  0.87787400  0.75377400  1
  U  U4  1  0.99518800  0.65265700  0.53697300  1
  U  U5  1  0.00465700  0.15287000  0.96309900  1
  U  U6  1  0.00465700  0.34713000  0.46309900  1
  U  U7  1  0.99518800  0.84734300  0.03697300  1
  U  U8  1  0.00019800  0.50015300  0.99999700  1
  U  U9  1  0.00019800  0.99984700  0.49999700  1
  B  B0  1  0.97322000  0.84656800  0.30987300  1
  B  B1  1  0.02703000  0.34637000  0.19005500  1
  B  B2  1  0.02703000  0.15363000  0.69005500  1
  B  B3  1  0.97322000  0.65343200  0.80987300  1
  O  O0  1  0.25691900  0.65264000  0.54032700  1
  O  O1  1  0.74357900  0.15249300  0.96033500  1
  O  O2  1  0.74357900  0.34750700  0.46033500  1
  O  O3  1  0.25691900  0.84736000  0.04032700  1
  O  O4  1  0.95184600  0.54320300  0.83487400  1
  O  O5  1  0.04773100  0.04329100  0.66486500  1
  O  O6  1  0.04773100  0.45670900  0.16486500  1
  O  O7  1  0.95184600  0.95679700  0.33487400  1
  O  O8  1  0.98249600  0.81627800  0.21184100  1
  O  O9  1  0.01764400  0.31620500  0.28811300  1
  O  O10  1  0.01764400  0.18379500  0.78811300  1
  O  O11  1  0.98249600  0.68372200  0.71184100  1
  O  O12  1  0.00809900  0.53114500  0.40327600  1
  O  O13  1  0.99172800  0.03061900  0.09721600  1
  O  O14  1  0.99172800  0.46938100  0.59721600  1
  O  O15  1  0.00809900  0.96885500  0.90327600  1
  O  O16  1  0.26026300  0.51262000  0.98426300  1
  O  O17  1  0.73992900  0.01191100  0.51554300  1
  O  O18  1  0.73992900  0.48808900  0.01554300  1
  O  O19  1  0.26026300  0.98738000  0.48426300  1
  O  O20  1  0.00443700  0.34248500  0.91766100  1
  O  O21  1  0.99575200  0.84240700  0.58224600  1
  O  O22  1  0.99575200  0.65759300  0.08224600  1
  O  O23  1  0.00443700  0.15751500  0.41766100  1
  O  O24  1  0.73275000  0.65061400  0.53439800  1
  O  O25  1  0.26680100  0.15032100  0.96618700  1
  O  O26  1  0.26680100  0.34967900  0.46618700  1
  O  O27  1  0.73275000  0.84938600  0.03439800  1
  O  O28  1  0.26525000  0.63469000  0.25401700  1
  O  O29  1  0.73436700  0.13411600  0.24595100  1
  O  O30  1  0.73436700  0.36588400  0.74595100  1
  O  O31  1  0.26525000  0.86531000  0.75401700  1
  O  O32  1  0.98514700  0.76285700  0.38063100  1
  O  O33  1  0.01484700  0.26248800  0.11948100  1
  O  O34  1  0.01484700  0.23751200  0.61948100  1
  O  O35  1  0.98514700  0.73714300  0.88063100  1
  O  O36  1  0.74506700  0.61110100  0.25052200  1
  O  O37  1  0.25520800  0.10982600  0.24953500  1
  O  O38  1  0.25520800  0.39017400  0.74953500  1
  O  O39  1  0.74506700  0.88889900  0.75052200  1
  O  O40  1  0.51334000  0.35782600  0.19327500  1
  O  O41  1  0.51334000  0.14217400  0.69327500  1
loop_
_geom_bond_atom_site_label_1
_geom_bond_atom_site_label_2
_geom_bond_distance
_geom_bond_site_symmetry_2
K0 O18 2.796205 1_556
K0 O16 2.810344 1_555
K0 O25 2.871123 1_555
K0 O30 2.877054 1_555
K0 O1 2.896952 1_555
K0 O38 2.902180 1_555
K1 O19 2.788469 1_555
K1 O17 2.797744 1_565
K1 O31 2.855587 1_555
K1 O39 2.877893 1_555
K1 O24 2.888177 1_555
K1 O0 2.913435 1_555
K2 O16 2.788469 1_554
K2 O18 2.797744 1_555
K2 O28 2.855587 1_555
K2 O36 2.877893 1_555
K2 O27 2.888177 1_555
K2 O3 2.913435 1_555
K3 O17 2.796205 1_555
K3 O19 2.810344 1_545
K3 O26 2.871123 1_555
K3 O29 2.877054 1_555
K3 O2 2.896952 1_555
K3 O37 2.902180 1_555
K4 O36 2.674306 1_555
K4 O28 2.712980 1_555
K4 O26 2.831290 1_555
K4 O2 2.878927 1_555
K4 O40 2.994347 1_555
K4 O24 3.242892 1_555
K4 O0 3.331171 1_555
K5 O37 2.670166 1_555
K5 O29 2.701801 1_555
K5 O27 2.839964 1_545
K5 O3 2.890787 1_545
K5 O25 3.196190 1_554
K5 O1 3.281477 1_554
K6 O38 2.670166 1_555
K6 O30 2.701801 1_555
K6 O24 2.839964 1_555
K6 O0 2.890787 1_555
K6 O26 3.196190 1_555
K6 O2 3.281477 1_555
K7 O39 2.674306 1_555
K7 O31 2.712980 1_555
K7 O25 2.831290 1_565
K7 O1 2.878927 1_565
K7 O41 2.994347 1_565
K7 O27 3.242892 1_556
K7 O3 3.331171 1_556
B0 O7 1.368367 1_555
B0 O8 1.370174 1_555
B0 O32 1.383988 1_555
B1 O6 1.369739 1_555
B1 O9 1.370156 1_555
B1 O33 1.383875 1_555
B2 O5 1.369739 1_555
B2 O10 1.370156 1_555
B2 O34 1.383875 1_555
B3 O4 1.368367 1_555
B3 O11 1.370174 1_555
B3 O35 1.383988 1_555
O0 U4 1.856501 1_455
O1 U5 1.851715 1_655
O2 U6 1.851715 1_655
O3 U7 1.856501 1_455
O4 U8 2.306716 1_655
O4 U2 2.329570 1_555
O5 U9 2.303618 1_545
O5 U3 2.331419 1_545
O6 U8 2.303618 1_554
O6 U0 2.331419 1_555
O7 U9 2.306716 1_655
O7 U1 2.329570 1_565
O8 U7 2.385054 1_555
O8 U0 2.393597 1_655
O9 U6 2.386446 1_555
O9 U1 2.391948 1_455
O10 U5 2.386446 1_555
O10 U2 2.391948 1_455
O11 U4 2.385054 1_555
O11 U3 2.393597 1_655
O12 U0 2.287708 1_555
O12 U4 2.314732 1_455
O12 U6 2.342481 1_555
O13 U1 2.285499 1_555
O13 U5 2.324679 1_654
O13 U7 2.336147 1_545
O14 U2 2.285499 1_555
O14 U6 2.324679 1_655
O14 U4 2.336147 1_555
O15 U3 2.287708 1_555
O15 U7 2.314732 1_456
O15 U5 2.342481 1_565
O16 U8 1.862688 1_555
O17 U9 1.863451 1_645
O18 U8 1.863451 1_654
O19 U9 1.862688 1_555
O20 U8 2.186635 1_555
O20 U2 2.346667 1_455
O20 U5 2.347569 1_555
O21 U9 2.183714 1_655
O21 U3 2.348507 1_655
O21 U4 2.348551 1_555
O22 U8 2.183714 1_654
O22 U0 2.348507 1_655
O22 U7 2.348551 1_555
O23 U9 2.186635 1_545
O23 U1 2.346667 1_455
O23 U6 2.347569 1_555
O24 U4 1.861467 1_555
O25 U5 1.859601 1_555
O26 U6 1.859601 1_555
O27 U7 1.861467 1_555
O28 U0 1.852214 1_555
O29 U1 1.855251 1_555
O30 U2 1.855251 1_555
O31 U3 1.852214 1_555
O32 U0 2.401382 1_655
O32 U4 2.483817 1_555
O33 U1 2.396995 1_455
O33 U5 2.480621 1_554
O34 U2 2.396995 1_455
O34 U6 2.480621 1_555
O35 U3 2.401382 1_655
O35 U7 2.483817 1_556
O36 U0 1.847841 1_655
O37 U1 1.850071 1_455
O38 U2 1.850071 1_455
O39 U3 1.847841 1_655
