# generated using pymatgen
data_BeZn3S4
_symmetry_space_group_name_H-M   'P 1'
_cell_length_a   3.75161301
_cell_length_b   3.75161301
_cell_length_c   12.48649123
_cell_angle_alpha   81.35992244
_cell_angle_beta   98.64007756
_cell_angle_gamma   120.00000000
_symmetry_Int_Tables_number   1
_chemical_formula_structural   BeZn3S4
_chemical_formula_sum   'Be1 Zn3 S4'
_cell_volume   149.88999508
_cell_formula_units_Z   1
loop_
 _symmetry_equiv_pos_site_id
 _symmetry_equiv_pos_as_xyz
  1  'x, y, z'
loop_
 _atom_site_type_symbol
 _atom_site_label
 _atom_site_symmetry_multiplicity
 _atom_site_fract_x
 _atom_site_fract_y
 _atom_site_fract_z
 _atom_site_occupancy
  Be  Be0  1  0.25060400  0.74939600  0.75181100  1
  Zn  Zn0  1  0.99710200  0.00289800  0.99130600  1
  Zn  Zn1  1  0.75016500  0.24983500  0.25049400  1
  Zn  Zn2  1  0.50342800  0.49657200  0.51028300  1
  S  S0  1  0.06051100  0.93948900  0.18153300  1
  S  S1  1  0.81359600  0.18640400  0.44078700  1
  S  S2  1  0.56715200  0.43284800  0.70145600  1
  S  S3  1  0.30744400  0.69255600  0.92233100  1
loop_
_geom_bond_atom_site_label_1
_geom_bond_atom_site_label_2
_geom_bond_distance
_geom_bond_site_symmetry_2
Be0 S3 2.096917 1_555
Be0 S2 2.252768 1_555
Be0 S2 2.252771 1_565
Be0 S2 2.252771 1_455
S0 Zn1 2.326085 1_465
S0 Zn1 2.326088 1_455
S0 Zn1 2.326088 1_565
S0 Zn0 2.339258 1_464
S1 Zn2 2.328494 1_545
S1 Zn2 2.328494 1_655
S1 Zn2 2.328494 1_555
S1 Zn1 2.340070 1_555
S2 Zn2 2.350891 1_555
S3 Zn0 2.326149 1_565
S3 Zn0 2.326149 1_455
S3 Zn0 2.326152 1_465
