# generated using pymatgen
data_Tb2Co3Si5
_symmetry_space_group_name_H-M   'P 1'
_cell_length_a   7.92304304
_cell_length_b   7.92304304
_cell_length_c   7.92304304
_cell_angle_alpha   138.98434489
_cell_angle_beta   105.44779533
_cell_angle_gamma   88.80297231
_symmetry_Int_Tables_number   1
_chemical_formula_structural   Tb2Co3Si5
_chemical_formula_sum   'Tb4 Co6 Si10'
_cell_volume   301.59282845
_cell_formula_units_Z   2
loop_
 _symmetry_equiv_pos_site_id
 _symmetry_equiv_pos_as_xyz
  1  'x, y, z'
loop_
 _atom_site_type_symbol
 _atom_site_label
 _atom_site_symmetry_multiplicity
 _atom_site_fract_x
 _atom_site_fract_y
 _atom_site_fract_z
 _atom_site_occupancy
  Tb  Tb0  1  0.86759800  0.13395300  0.73364500  1
  Tb  Tb1  1  0.13240200  0.86604700  0.26635500  1
  Tb  Tb2  1  0.40030700  0.63395300  0.76635500  1
  Tb  Tb3  1  0.59969300  0.36604700  0.23364500  1
  Co  Co0  1  0.00000000  0.25000000  0.25000000  1
  Co  Co1  1  0.00000000  0.75000000  0.75000000  1
  Co  Co2  1  0.25383800  0.36171400  0.89212400  1
  Co  Co3  1  0.74616200  0.63828600  0.10787600  1
  Co  Co4  1  0.46959000  0.86171400  0.60787600  1
  Co  Co5  1  0.53041000  0.13828600  0.39212400  1
  Si  Si0  1  0.50000000  0.25000000  0.75000000  1
  Si  Si1  1  0.50000000  0.75000000  0.25000000  1
  Si  Si2  1  0.22701400  0.47701400  0.25000000  1
  Si  Si3  1  0.77298600  0.02298600  0.25000000  1
  Si  Si4  1  0.77298600  0.52298600  0.75000000  1
  Si  Si5  1  0.22701400  0.97701400  0.75000000  1
  Si  Si6  1  0.05681300  0.39928200  0.65753100  1
  Si  Si7  1  0.94318700  0.60071800  0.34246900  1
  Si  Si8  1  0.74175000  0.89928200  0.84246900  1
  Si  Si9  1  0.25825000  0.10071800  0.15753100  1
loop_
_geom_bond_atom_site_label_1
_geom_bond_atom_site_label_2
_geom_bond_distance
_geom_bond_site_symmetry_2
Co0 Si6 2.347786 1_555
Co0 Si7 2.347786 1_455
Co0 Si8 2.347791 1_444
Co0 Si9 2.347794 1_555
Co0 Si3 2.570095 1_455
Co0 Si2 2.570095 1_555
Co0 Co1 2.775722 1_555
Co0 Co1 2.775722 1_544
Co0 Tb3 3.280327 1_455
Co0 Tb2 3.280329 1_555
Co0 Tb1 3.280334 1_545
Co0 Tb0 3.280334 1_454
Co1 Si6 2.347786 1_555
Co1 Si7 2.347786 1_455
Co1 Si9 2.347791 1_566
Co1 Si8 2.347794 1_455
Co1 Si5 2.570095 1_555
Co1 Si4 2.570095 1_455
Co1 Tb2 3.280327 1_555
Co1 Tb3 3.280329 1_455
Co1 Tb1 3.280334 1_556
Co1 Tb0 3.280334 1_465
Co2 Si6 2.291277 1_555
Co2 Si5 2.307294 1_545
Co2 Si2 2.307294 1_556
Co2 Si0 2.334325 1_555
Co2 Si1 2.334325 1_556
Co2 Tb0 2.993706 1_455
Co2 Tb1 3.027208 1_556
Co2 Tb1 3.027208 1_545
Co3 Si7 2.291277 1_555
Co3 Si4 2.307294 1_554
Co3 Si3 2.307294 1_565
Co3 Si1 2.334325 1_555
Co3 Si0 2.334325 1_554
Co3 Tb1 2.993706 1_655
Co3 Tb0 3.027208 1_554
Co3 Tb0 3.027208 1_565
Co4 Si8 2.291271 1_555
Co4 Si5 2.307294 1_555
Co4 Si2 2.307294 1_555
Co4 Si1 2.334325 1_555
Co4 Si0 2.334325 1_565
Co4 Tb2 2.993709 1_555
Co4 Tb3 3.027207 1_566
Co4 Tb3 3.027212 1_555
Co5 Si9 2.291271 1_555
Co5 Si3 2.307294 1_555
Co5 Si4 2.307294 1_555
Co5 Si1 2.334325 1_545
Co5 Si0 2.334325 1_555
Co5 Tb3 2.993709 1_555
Co5 Tb2 3.027207 1_544
Co5 Tb2 3.027212 1_555
Si0 Tb3 3.042066 1_556
Si0 Tb1 3.042067 1_545
Si0 Tb0 3.042067 1_555
Si0 Tb2 3.042069 1_555
Si1 Tb2 3.042066 1_554
Si1 Tb1 3.042067 1_555
Si1 Tb0 3.042067 1_565
Si1 Tb3 3.042069 1_555
Si2 Si7 2.501268 1_455
Si2 Si9 2.501269 1_555
Si2 Si5 2.775722 1_544
Si2 Si5 2.775722 1_555
Si2 Tb1 3.071142 1_555
Si2 Tb3 3.071150 1_555
Si2 Tb2 3.093665 1_555
Si2 Tb0 3.093665 1_454
Si3 Si8 2.501266 1_544
Si3 Si6 2.501268 1_655
Si3 Si4 2.775722 1_544
Si3 Si4 2.775722 1_555
Si3 Tb0 3.071142 1_555
Si3 Tb2 3.071147 1_544
Si3 Tb3 3.093662 1_555
Si3 Tb1 3.093665 1_645
Si4 Si6 2.501268 1_655
Si4 Si8 2.501269 1_555
Si4 Tb0 3.071142 1_555
Si4 Tb2 3.071150 1_555
Si4 Tb3 3.093665 1_555
Si4 Tb1 3.093665 1_656
Si5 Si9 2.501266 1_566
Si5 Si7 2.501268 1_455
Si5 Tb1 3.071142 1_555
Si5 Tb3 3.071147 1_566
Si5 Tb2 3.093662 1_555
Si5 Tb0 3.093665 1_465
Si6 Tb2 2.854690 1_555
Si6 Tb1 2.989483 1_556
Si6 Tb1 2.989483 1_545
Si6 Tb0 3.091416 1_455
Si7 Tb3 2.854690 1_555
Si7 Tb0 2.989483 1_554
Si7 Tb0 2.989483 1_565
Si7 Tb1 3.091416 1_655
Si8 Tb0 2.854701 1_565
Si8 Tb3 2.989473 1_566
Si8 Tb3 2.989484 1_555
Si8 Tb2 3.091416 1_555
Si9 Tb1 2.854701 1_545
Si9 Tb2 2.989473 1_544
Si9 Tb2 2.989484 1_555
Si9 Tb3 3.091416 1_555
