# generated using pymatgen
data_Na2H4WO6
_symmetry_space_group_name_H-M   'P 1'
_cell_length_a   8.68538600
_cell_length_b   10.83210500
_cell_length_c   13.83891200
_cell_angle_alpha   90.00000000
_cell_angle_beta   90.00000000
_cell_angle_gamma   90.00000000
_symmetry_Int_Tables_number   1
_chemical_formula_structural   Na2H4WO6
_chemical_formula_sum   'Na16 H32 W8 O48'
_cell_volume   1301.97886140
_cell_formula_units_Z   8
loop_
 _symmetry_equiv_pos_site_id
 _symmetry_equiv_pos_as_xyz
  1  'x, y, z'
loop_
 _atom_site_type_symbol
 _atom_site_label
 _atom_site_symmetry_multiplicity
 _atom_site_fract_x
 _atom_site_fract_y
 _atom_site_fract_z
 _atom_site_occupancy
  Na  Na0  1  0.84510400  0.49570900  0.91290800  1
  Na  Na1  1  0.34510400  0.00429100  0.08709200  1
  Na  Na2  1  0.15489600  0.99570900  0.58709200  1
  Na  Na3  1  0.65489600  0.50429100  0.41290800  1
  Na  Na4  1  0.15489600  0.50429100  0.08709200  1
  Na  Na5  1  0.65489600  0.99570900  0.91290800  1
  Na  Na6  1  0.84510400  0.00429100  0.41290800  1
  Na  Na7  1  0.34510400  0.49570900  0.58709200  1
  Na  Na8  1  0.24206200  0.55340100  0.85207800  1
  Na  Na9  1  0.74206200  0.94659900  0.14792200  1
  Na  Na10  1  0.75793800  0.05340100  0.64792200  1
  Na  Na11  1  0.25793800  0.44659900  0.35207800  1
  Na  Na12  1  0.75793800  0.44659900  0.14792200  1
  Na  Na13  1  0.25793800  0.05340100  0.85207800  1
  Na  Na14  1  0.24206200  0.94659900  0.35207800  1
  Na  Na15  1  0.74206200  0.55340100  0.64792200  1
  H  H0  1  0.06475500  0.32972100  0.83559500  1
  H  H1  1  0.56475500  0.17027900  0.16440500  1
  H  H2  1  0.93524500  0.82972100  0.66440500  1
  H  H3  1  0.43524500  0.67027900  0.33559500  1
  H  H4  1  0.93524500  0.67027900  0.16440500  1
  H  H5  1  0.43524500  0.82972100  0.83559500  1
  H  H6  1  0.06475500  0.17027900  0.33559500  1
  H  H7  1  0.56475500  0.32972100  0.66440500  1
  H  H8  1  0.06905200  0.39220900  0.73381800  1
  H  H9  1  0.56905200  0.10779100  0.26618200  1
  H  H10  1  0.93094800  0.89220900  0.76618200  1
  H  H11  1  0.43094800  0.60779100  0.23381800  1
  H  H12  1  0.93094800  0.60779100  0.26618200  1
  H  H13  1  0.43094800  0.89220900  0.73381800  1
  H  H14  1  0.06905200  0.10779100  0.23381800  1
  H  H15  1  0.56905200  0.39220900  0.76618200  1
  H  H16  1  0.61932200  0.64880100  0.82829600  1
  H  H17  1  0.11932200  0.85119900  0.17170400  1
  H  H18  1  0.38067800  0.14880100  0.67170400  1
  H  H19  1  0.88067800  0.35119900  0.32829600  1
  H  H20  1  0.38067800  0.35119900  0.17170400  1
  H  H21  1  0.88067800  0.14880100  0.82829600  1
  H  H22  1  0.61932200  0.85119900  0.32829600  1
  H  H23  1  0.11932200  0.64880100  0.67170400  1
  H  H24  1  0.77536300  0.71834500  0.82362900  1
  H  H25  1  0.27536300  0.78165500  0.17637100  1
  H  H26  1  0.22463700  0.21834500  0.67637100  1
  H  H27  1  0.72463700  0.28165500  0.32362900  1
  H  H28  1  0.22463700  0.28165500  0.17637100  1
  H  H29  1  0.72463700  0.21834500  0.82362900  1
  H  H30  1  0.77536300  0.78165500  0.32362900  1
  H  H31  1  0.27536300  0.71834500  0.67637100  1
  W  W0  1  0.01358000  0.80137700  0.97551700  1
  W  W1  1  0.51358000  0.69862300  0.02448300  1
  W  W2  1  0.98642000  0.30137700  0.52448300  1
  W  W3  1  0.48642000  0.19862300  0.47551700  1
  W  W4  1  0.98642000  0.19862300  0.02448300  1
  W  W5  1  0.48642000  0.30137700  0.97551700  1
  W  W6  1  0.01358000  0.69862300  0.47551700  1
  W  W7  1  0.51358000  0.80137700  0.52448300  1
  O  O0  1  0.94890600  0.82140800  0.10025600  1
  O  O1  1  0.44890600  0.67859200  0.89974400  1
  O  O2  1  0.05109400  0.32140800  0.39974400  1
  O  O3  1  0.55109400  0.17859200  0.60025600  1
  O  O4  1  0.05109400  0.17859200  0.89974400  1
  O  O5  1  0.55109400  0.32140800  0.10025600  1
  O  O6  1  0.94890600  0.67859200  0.60025600  1
  O  O7  1  0.44890600  0.82140800  0.39974400  1
  O  O8  1  0.05878600  0.63909600  0.95771100  1
  O  O9  1  0.55878600  0.86090400  0.04228900  1
  O  O10  1  0.94121400  0.13909600  0.54228900  1
  O  O11  1  0.44121400  0.36090400  0.45771100  1
  O  O12  1  0.94121400  0.36090400  0.04228900  1
  O  O13  1  0.44121400  0.13909600  0.95771100  1
  O  O14  1  0.05878600  0.86090400  0.45771100  1
  O  O15  1  0.55878600  0.63909600  0.54228900  1
  O  O16  1  0.18423300  0.89414500  0.96035400  1
  O  O17  1  0.68423300  0.60585500  0.03964600  1
  O  O18  1  0.81576700  0.39414500  0.53964600  1
  O  O19  1  0.31576700  0.10585500  0.46035400  1
  O  O20  1  0.81576700  0.10585500  0.03964600  1
  O  O21  1  0.31576700  0.39414500  0.96035400  1
  O  O22  1  0.18423300  0.60585500  0.46035400  1
  O  O23  1  0.68423300  0.89414500  0.53964600  1
  O  O24  1  0.86883700  0.84799500  0.88613200  1
  O  O25  1  0.36883700  0.65200500  0.11386800  1
  O  O26  1  0.13116300  0.34799500  0.61386800  1
  O  O27  1  0.63116300  0.15200500  0.38613200  1
  O  O28  1  0.13116300  0.15200500  0.11386800  1
  O  O29  1  0.63116300  0.34799500  0.88613200  1
  O  O30  1  0.86883700  0.65200500  0.38613200  1
  O  O31  1  0.36883700  0.84799500  0.61386800  1
  O  O32  1  0.04717800  0.40980200  0.80274900  1
  O  O33  1  0.54717800  0.09019800  0.19725100  1
  O  O34  1  0.95282200  0.90980200  0.69725100  1
  O  O35  1  0.45282200  0.59019800  0.30274900  1
  O  O36  1  0.95282200  0.59019800  0.19725100  1
  O  O37  1  0.45282200  0.90980200  0.80274900  1
  O  O38  1  0.04717800  0.09019800  0.30274900  1
  O  O39  1  0.54717800  0.40980200  0.69725100  1
  O  O40  1  0.72490000  0.64128900  0.80148600  1
  O  O41  1  0.22490000  0.85871100  0.19851400  1
  O  O42  1  0.27510000  0.14128900  0.69851400  1
  O  O43  1  0.77510000  0.35871100  0.30148600  1
  O  O44  1  0.27510000  0.35871100  0.19851400  1
  O  O45  1  0.77510000  0.14128900  0.80148600  1
  O  O46  1  0.72490000  0.85871100  0.30148600  1
  O  O47  1  0.22490000  0.64128900  0.69851400  1
loop_
_geom_bond_atom_site_label_1
_geom_bond_atom_site_label_2
_geom_bond_distance
_geom_bond_site_symmetry_2
Na0 O40 2.440153 1_555
Na0 O12 2.456608 1_556
Na0 O29 2.479967 1_555
Na0 O8 2.498242 1_655
Na0 O32 2.504060 1_655
Na0 O17 2.540075 1_556
Na1 O41 2.440153 1_545
Na1 O13 2.456608 1_554
Na1 O28 2.479967 1_555
Na1 O9 2.498242 1_545
Na1 O33 2.504060 1_555
Na1 O16 2.540075 1_544
Na2 O42 2.440153 1_565
Na2 O14 2.456608 1_555
Na2 O31 2.479967 1_555
Na2 O10 2.498242 1_465
Na2 O34 2.504060 1_455
Na2 O19 2.540075 1_565
Na3 O43 2.440153 1_555
Na3 O15 2.456608 1_555
Na3 O30 2.479967 1_555
Na3 O11 2.498242 1_555
Na3 O35 2.504060 1_555
Na3 O18 2.540075 1_555
Na4 O44 2.440153 1_555
Na4 O8 2.456608 1_554
Na4 O25 2.479967 1_555
Na4 O12 2.498242 1_455
Na4 O36 2.504060 1_455
Na4 O21 2.540075 1_554
Na5 O45 2.440153 1_565
Na5 O9 2.456608 1_556
Na5 O24 2.479967 1_555
Na5 O13 2.498242 1_565
Na5 O37 2.504060 1_555
Na5 O20 2.540075 1_566
Na6 O46 2.440153 1_545
Na6 O10 2.456608 1_555
Na6 O27 2.479967 1_555
Na6 O14 2.498242 1_645
Na6 O38 2.504060 1_655
Na6 O23 2.540075 1_545
Na7 O47 2.440153 1_555
Na7 O11 2.456608 1_555
Na7 O26 2.479967 1_555
Na7 O15 2.498242 1_555
Na7 O39 2.504060 1_555
Na7 O22 2.540075 1_555
Na8 O47 2.333419 1_555
Na8 O1 2.345544 1_555
Na8 O8 2.352138 1_555
Na8 O21 2.372965 1_555
Na8 O32 2.398037 1_555
Na9 O46 2.333419 1_555
Na9 O0 2.345544 1_555
Na9 O9 2.352138 1_555
Na9 O20 2.372965 1_565
Na9 O33 2.398037 1_565
Na10 O45 2.333419 1_555
Na10 O3 2.345544 1_555
Na10 O10 2.352138 1_555
Na10 O23 2.372965 1_545
Na10 O34 2.398037 1_545
Na11 O44 2.333419 1_555
Na11 O2 2.345544 1_555
Na11 O11 2.352138 1_555
Na11 O22 2.372965 1_555
Na11 O35 2.398037 1_555
Na12 O43 2.333419 1_555
Na12 O5 2.345544 1_555
Na12 O12 2.352138 1_555
Na12 O17 2.372965 1_555
Na12 O36 2.398037 1_555
Na13 O42 2.333419 1_555
Na13 O4 2.345544 1_555
Na13 O13 2.352138 1_555
Na13 O16 2.372965 1_545
Na13 O37 2.398037 1_545
Na14 O41 2.333419 1_555
Na14 O7 2.345544 1_555
Na14 O14 2.352138 1_555
Na14 O19 2.372965 1_565
Na14 O38 2.398037 1_565
Na15 O40 2.333419 1_555
Na15 O6 2.345544 1_555
Na15 O15 2.352138 1_555
Na15 O18 2.372965 1_555
Na15 O39 2.398037 1_555
H0 O32 0.991154 1_555
H1 O33 0.991154 1_555
H2 O34 0.991154 1_555
H3 O35 0.991154 1_555
H4 O36 0.991154 1_555
H5 O37 0.991154 1_555
H6 O38 0.991154 1_555
H7 O39 0.991154 1_555
H8 O32 0.991157 1_555
H9 O33 0.991157 1_555
H10 O34 0.991157 1_555
H11 O35 0.991157 1_555
H12 O36 0.991157 1_555
H13 O37 0.991157 1_555
H14 O38 0.991157 1_555
H15 O39 0.991157 1_555
H16 O40 0.992543 1_555
H17 O41 0.992543 1_555
H18 O42 0.992543 1_555
H19 O43 0.992543 1_555
H20 O44 0.992543 1_555
H21 O45 0.992543 1_555
H22 O46 0.992543 1_555
H23 O47 0.992543 1_555
H24 O40 0.991307 1_555
H25 O41 0.991307 1_555
H26 O42 0.991307 1_555
H27 O43 0.991307 1_555
H28 O44 0.991307 1_555
H29 O45 0.991307 1_555
H30 O46 0.991307 1_555
H31 O47 0.991307 1_555
O0 W0 1.828265 1_654
O1 W1 1.828265 1_556
O2 W2 1.828265 1_455
O3 W3 1.828265 1_555
O4 W4 1.828265 1_456
O5 W5 1.828265 1_554
O6 W6 1.828265 1_655
O7 W7 1.828265 1_555
O8 W0 1.817938 1_555
O9 W1 1.817938 1_555
O10 W2 1.817938 1_555
O11 W3 1.817938 1_555
O12 W4 1.817938 1_555
O13 W5 1.817938 1_555
O14 W6 1.817938 1_555
O15 W7 1.817938 1_555
O16 W0 1.802964 1_555
O17 W1 1.802964 1_555
O18 W2 1.802964 1_555
O19 W3 1.802964 1_555
O20 W4 1.802964 1_555
O21 W5 1.802964 1_555
O22 W6 1.802964 1_555
O23 W7 1.802964 1_555
O24 W0 1.834548 1_655
O25 W1 1.834548 1_555
O26 W2 1.834548 1_455
O27 W3 1.834548 1_555
O28 W4 1.834548 1_455
O29 W5 1.834548 1_555
O30 W6 1.834548 1_655
O31 W7 1.834548 1_555
