# generated using pymatgen
data_Cs2Pd3Se4
_symmetry_space_group_name_H-M   'P 1'
_cell_length_a   6.47570604
_cell_length_b   6.47568257
_cell_length_c   7.98569785
_cell_angle_alpha   102.03435584
_cell_angle_beta   102.03454916
_cell_angle_gamma   119.09523038
_symmetry_Int_Tables_number   1
_chemical_formula_structural   Cs2Pd3Se4
_chemical_formula_sum   'Cs2 Pd3 Se4'
_cell_volume   266.71164612
_cell_formula_units_Z   1
loop_
 _symmetry_equiv_pos_site_id
 _symmetry_equiv_pos_as_xyz
  1  'x, y, z'
loop_
 _atom_site_type_symbol
 _atom_site_label
 _atom_site_symmetry_multiplicity
 _atom_site_fract_x
 _atom_site_fract_y
 _atom_site_fract_z
 _atom_site_occupancy
  Cs  Cs0  1  0.65379905  0.65379905  0.30766439  1
  Cs  Cs1  1  0.34620095  0.34620095  0.69233561  1
  Pd  Pd0  1  -0.00000000  -0.00000000  -0.00000000  1
  Pd  Pd1  1  0.50000000  -0.00000000  -0.00000000  1
  Pd  Pd2  1  -0.00000000  0.50000000  -0.00000000  1
  Se  Se0  1  0.05687305  0.72128612  0.77818878  1
  Se  Se1  1  0.94312695  0.27871388  0.22181122  1
  Se  Se2  1  0.27871488  0.94312795  0.22181122  1
  Se  Se3  1  0.72128512  0.05687205  0.77818878  1
loop_
_geom_bond_atom_site_label_1
_geom_bond_atom_site_label_2
_geom_bond_distance
_geom_bond_site_symmetry_2
Cs0 Se2 3.761277 1_555
Cs0 Se1 3.761277 1_555
Cs0 Se2 3.829851 1_545
Cs0 Se1 3.829869 1_455
Cs0 Se1 3.830864 1_565
Cs0 Se2 3.830883 1_655
Cs0 Se0 3.903672 1_655
Cs0 Se3 3.903675 1_565
Cs0 Pd1 3.936309 1_555
Cs0 Pd2 3.936316 1_555
Cs0 Pd1 3.937305 1_565
Cs0 Pd2 3.937317 1_655
Cs0 Pd0 3.972237 1_555
Cs0 Pd0 3.974214 1_665
Cs1 Se3 3.761277 1_555
Cs1 Se0 3.761277 1_555
Cs1 Se3 3.829851 1_565
Cs1 Se0 3.829869 1_655
Cs1 Se0 3.830864 1_545
Cs1 Se3 3.830883 1_455
Cs1 Se1 3.903672 1_455
Cs1 Se2 3.903675 1_545
Cs1 Pd1 3.936309 1_566
Cs1 Pd2 3.936316 1_656
Cs1 Pd1 3.937305 1_556
Cs1 Pd2 3.937317 1_556
Cs1 Pd0 3.972237 1_666
Cs1 Pd0 3.974214 1_556
Pd0 Se3 2.473073 1_454
Pd0 Se2 2.473073 1_545
Pd0 Se1 2.473074 1_455
Pd0 Se0 2.473074 1_544
Pd1 Se0 2.477880 1_544
Pd1 Se1 2.477880 1_555
Pd1 Se3 2.478683 1_554
Pd1 Se2 2.478683 1_545
Pd2 Se3 2.477880 1_454
Pd2 Se2 2.477880 1_555
Pd2 Se1 2.478681 1_455
Pd2 Se0 2.478681 1_554
