# generated using pymatgen
data_BaNa3(PO4)2
_symmetry_space_group_name_H-M   'P 1'
_cell_length_a   5.62273941
_cell_length_b   5.62273941
_cell_length_c   7.13822300
_cell_angle_alpha   90.00000000
_cell_angle_beta   90.00000000
_cell_angle_gamma   119.99999308
_symmetry_Int_Tables_number   1
_chemical_formula_structural   BaNa3(PO4)2
_chemical_formula_sum   'Ba1 Na3 P2 O8'
_cell_volume   195.44145455
_cell_formula_units_Z   1
loop_
 _symmetry_equiv_pos_site_id
 _symmetry_equiv_pos_as_xyz
  1  'x, y, z'
loop_
 _atom_site_type_symbol
 _atom_site_label
 _atom_site_symmetry_multiplicity
 _atom_site_fract_x
 _atom_site_fract_y
 _atom_site_fract_z
 _atom_site_occupancy
  Ba  Ba0  1  0.00000000  0.00000000  0.00000000  1
  Na  Na0  1  0.33333300  0.66666700  0.66887100  1
  Na  Na1  1  0.66666700  0.33333300  0.33112900  1
  Na  Na2  1  0.00000000  0.00000000  0.50000000  1
  P  P0  1  0.33333300  0.66666700  0.22071900  1
  P  P1  1  0.66666700  0.33333300  0.77928100  1
  O  O0  1  0.33333300  0.66666700  0.00354700  1
  O  O1  1  0.66666700  0.33333300  0.99645300  1
  O  O2  1  0.18405600  0.81594400  0.29783400  1
  O  O3  1  0.81594400  0.18405600  0.70216600  1
  O  O4  1  0.18405600  0.36811200  0.29783400  1
  O  O5  1  0.81594400  0.63188800  0.70216600  1
  O  O6  1  0.63188800  0.81594400  0.29783400  1
  O  O7  1  0.36811200  0.18405600  0.70216600  1
loop_
_geom_bond_atom_site_label_1
_geom_bond_atom_site_label_2
_geom_bond_distance
_geom_bond_site_symmetry_2
Ba0 O2 2.780818 1_545
Ba0 O3 2.780818 1_454
Ba0 O6 2.780818 1_445
Ba0 O4 2.780818 1_555
Ba0 O5 2.780818 1_444
Ba0 O7 2.780818 1_554
Ba0 O0 3.246385 1_545
Ba0 O1 3.246385 1_454
Ba0 O0 3.246391 1_555
Ba0 O1 3.246391 1_554
Ba0 O1 3.246391 1_444
Ba0 O0 3.246391 1_445
Na0 O0 2.388992 1_556
Na1 O1 2.388992 1_554
Na2 O3 2.301218 1_455
Na2 O2 2.301218 1_545
Na2 O7 2.301218 1_555
Na2 O5 2.301218 1_445
Na2 O6 2.301218 1_445
Na2 O4 2.301218 1_555
O0 P0 1.550222 1_555
O1 P1 1.550222 1_555
O2 P0 1.554514 1_555
O3 P1 1.554514 1_555
O4 P0 1.554519 1_555
O5 P1 1.554519 1_555
O6 P0 1.554519 1_555
O7 P1 1.554519 1_555
