# generated using pymatgen
data_ZnCu2SiSe4
_symmetry_space_group_name_H-M   'P 1'
_cell_length_a   6.85117012
_cell_length_b   6.85117012
_cell_length_c   6.85117012
_cell_angle_alpha   131.83448974
_cell_angle_beta   131.83448974
_cell_angle_gamma   70.49055828
_symmetry_Int_Tables_number   1
_chemical_formula_structural   ZnCu2SiSe4
_chemical_formula_sum   'Zn1 Cu2 Si1 Se4'
_cell_volume   174.92420143
_cell_formula_units_Z   1
loop_
 _symmetry_equiv_pos_site_id
 _symmetry_equiv_pos_as_xyz
  1  'x, y, z'
loop_
 _atom_site_type_symbol
 _atom_site_label
 _atom_site_symmetry_multiplicity
 _atom_site_fract_x
 _atom_site_fract_y
 _atom_site_fract_z
 _atom_site_occupancy
  Zn  Zn0  1  0.00000000  0.00000000  0.00000000  1
  Cu  Cu0  1  0.25000000  0.75000000  0.50000000  1
  Cu  Cu1  1  0.75000000  0.25000000  0.50000000  1
  Si  Si0  1  0.50000000  0.50000000  0.00000000  1
  Se  Se0  1  0.86181400  0.86181400  0.47257200  1
  Se  Se1  1  0.38924200  0.38924200  0.52742800  1
  Se  Se2  1  0.61075800  0.13818600  0.00000000  1
  Se  Se3  1  0.13818600  0.61075800  0.00000000  1
loop_
_geom_bond_atom_site_label_1
_geom_bond_atom_site_label_2
_geom_bond_distance
_geom_bond_site_symmetry_2
Cu0 Se2 2.420705 1_566
Cu0 Se0 2.420705 1_455
Cu0 Se3 2.420705 1_555
Cu0 Se1 2.420705 1_555
Cu1 Se2 2.420705 1_555
Cu1 Se3 2.420705 1_656
Cu1 Se0 2.420705 1_545
Cu1 Se1 2.420705 1_555
Se0 Si0 2.337549 1_555
Se0 Zn0 2.514282 1_666
Se1 Si0 2.337549 1_556
Se1 Zn0 2.514282 1_555
Se2 Si0 2.337549 1_555
Se2 Zn0 2.514282 1_655
Se3 Si0 2.337549 1_555
Se3 Zn0 2.514282 1_565
