# generated using pymatgen
data_LuMnSn2
_symmetry_space_group_name_H-M   'P 1'
_cell_length_a   8.96046400
_cell_length_b   10.25735000
_cell_length_c   11.27879000
_cell_angle_alpha   90.00000000
_cell_angle_beta   90.00000000
_cell_angle_gamma   90.00000000
_symmetry_Int_Tables_number   1
_chemical_formula_structural   LuMnSn2
_chemical_formula_sum   'Lu12 Mn12 Sn24'
_cell_volume   1036.64052998
_cell_formula_units_Z   12
loop_
 _symmetry_equiv_pos_site_id
 _symmetry_equiv_pos_as_xyz
  1  'x, y, z'
loop_
 _atom_site_type_symbol
 _atom_site_label
 _atom_site_symmetry_multiplicity
 _atom_site_fract_x
 _atom_site_fract_y
 _atom_site_fract_z
 _atom_site_occupancy
  Lu  Lu0  1  0.24043300  0.82851300  0.45234600  1
  Lu  Lu1  1  0.24043300  0.17148700  0.54765400  1
  Lu  Lu2  1  0.75956700  0.32851300  0.04765400  1
  Lu  Lu3  1  0.75956700  0.67148700  0.95234600  1
  Lu  Lu4  1  0.75956700  0.17148700  0.54765400  1
  Lu  Lu5  1  0.75956700  0.82851300  0.45234600  1
  Lu  Lu6  1  0.24043300  0.67148700  0.95234600  1
  Lu  Lu7  1  0.24043300  0.32851300  0.04765400  1
  Lu  Lu8  1  0.00000000  0.83471500  0.17902900  1
  Lu  Lu9  1  0.00000000  0.16528500  0.82097100  1
  Lu  Lu10  1  0.00000000  0.33471500  0.32097100  1
  Lu  Lu11  1  0.00000000  0.66528500  0.67902900  1
  Mn  Mn0  1  0.24919800  0.58860100  0.25092700  1
  Mn  Mn1  1  0.24919800  0.41139900  0.74907300  1
  Mn  Mn2  1  0.75080200  0.08860100  0.24907300  1
  Mn  Mn3  1  0.75080200  0.91139900  0.75092700  1
  Mn  Mn4  1  0.75080200  0.41139900  0.74907300  1
  Mn  Mn5  1  0.75080200  0.58860100  0.25092700  1
  Mn  Mn6  1  0.24919800  0.91139900  0.75092700  1
  Mn  Mn7  1  0.24919800  0.08860100  0.24907300  1
  Mn  Mn8  1  0.24404900  0.50000000  0.50000000  1
  Mn  Mn9  1  0.75595100  0.00000000  0.00000000  1
  Mn  Mn10  1  0.75595100  0.50000000  0.50000000  1
  Mn  Mn11  1  0.24404900  0.00000000  0.00000000  1
  Sn  Sn0  1  0.33665200  0.83776600  0.18128200  1
  Sn  Sn1  1  0.33665200  0.16223400  0.81871800  1
  Sn  Sn2  1  0.66334800  0.33776600  0.31871800  1
  Sn  Sn3  1  0.66334800  0.66223400  0.68128200  1
  Sn  Sn4  1  0.66334800  0.16223400  0.81871800  1
  Sn  Sn5  1  0.66334800  0.83776600  0.18128200  1
  Sn  Sn6  1  0.33665200  0.66223400  0.68128200  1
  Sn  Sn7  1  0.33665200  0.33776600  0.31871800  1
  Sn  Sn8  1  0.50000000  0.54223100  0.12362800  1
  Sn  Sn9  1  0.50000000  0.45776900  0.87637200  1
  Sn  Sn10  1  0.50000000  0.04223100  0.37637200  1
  Sn  Sn11  1  0.50000000  0.95776900  0.62362800  1
  Sn  Sn12  1  0.00000000  0.54054600  0.12277100  1
  Sn  Sn13  1  0.00000000  0.45945400  0.87722900  1
  Sn  Sn14  1  0.00000000  0.04054600  0.37722900  1
  Sn  Sn15  1  0.00000000  0.95945400  0.62277100  1
  Sn  Sn16  1  0.50000000  0.62825600  0.40573500  1
  Sn  Sn17  1  0.50000000  0.37174400  0.59426500  1
  Sn  Sn18  1  0.50000000  0.12825600  0.09426500  1
  Sn  Sn19  1  0.50000000  0.87174400  0.90573500  1
  Sn  Sn20  1  0.00000000  0.62887900  0.39781100  1
  Sn  Sn21  1  0.00000000  0.37112100  0.60218900  1
  Sn  Sn22  1  0.00000000  0.12887900  0.10218900  1
  Sn  Sn23  1  0.00000000  0.87112100  0.89781100  1
loop_
_geom_bond_atom_site_label_1
_geom_bond_atom_site_label_2
_geom_bond_distance
_geom_bond_site_symmetry_2
Lu0 Sn20 3.035272 1_555
Lu0 Sn16 3.147263 1_555
Lu0 Sn14 3.176377 1_565
Lu0 Sn0 3.177934 1_555
Lu0 Sn15 3.184360 1_555
Lu0 Sn6 3.212428 1_555
Lu0 Sn11 3.301424 1_555
Lu0 Sn10 3.308997 1_565
Lu1 Sn21 3.035272 1_555
Lu1 Sn17 3.147263 1_555
Lu1 Sn15 3.176377 1_545
Lu1 Sn1 3.177934 1_555
Lu1 Sn14 3.184360 1_555
Lu1 Sn7 3.212428 1_555
Lu1 Sn10 3.301424 1_555
Lu1 Sn11 3.308997 1_545
Lu2 Sn22 3.035272 1_655
Lu2 Sn18 3.147263 1_555
Lu2 Sn12 3.176377 1_655
Lu2 Sn2 3.177934 1_555
Lu2 Sn13 3.184360 1_654
Lu2 Sn4 3.212428 1_554
Lu2 Sn9 3.301424 1_554
Lu2 Sn8 3.308997 1_555
Lu3 Sn23 3.035272 1_655
Lu3 Sn19 3.147263 1_555
Lu3 Sn13 3.176377 1_655
Lu3 Sn3 3.177934 1_555
Lu3 Sn12 3.184360 1_656
Lu3 Sn5 3.212428 1_556
Lu3 Sn8 3.301424 1_556
Lu3 Sn9 3.308997 1_555
Lu4 Sn21 3.035272 1_655
Lu4 Sn17 3.147263 1_555
Lu4 Sn15 3.176377 1_645
Lu4 Sn4 3.177934 1_555
Lu4 Sn14 3.184360 1_655
Lu4 Sn2 3.212428 1_555
Lu4 Sn10 3.301424 1_555
Lu4 Sn11 3.308997 1_545
Lu5 Sn20 3.035272 1_655
Lu5 Sn16 3.147263 1_555
Lu5 Sn14 3.176377 1_665
Lu5 Sn5 3.177934 1_555
Lu5 Sn15 3.184360 1_655
Lu5 Sn3 3.212428 1_555
Lu5 Sn11 3.301424 1_555
Lu5 Sn10 3.308997 1_565
Lu6 Sn23 3.035272 1_555
Lu6 Sn19 3.147263 1_555
Lu6 Sn13 3.176377 1_555
Lu6 Sn6 3.177934 1_555
Lu6 Sn12 3.184360 1_556
Lu6 Sn0 3.212428 1_556
Lu6 Sn8 3.301424 1_556
Lu6 Sn9 3.308997 1_555
Lu7 Sn22 3.035272 1_555
Lu7 Sn18 3.147263 1_555
Lu7 Sn12 3.176377 1_555
Lu7 Sn7 3.177934 1_555
Lu7 Sn13 3.184360 1_554
Lu7 Sn1 3.212428 1_554
Lu7 Sn9 3.301424 1_554
Lu7 Sn8 3.308997 1_555
Lu8 Sn5 3.016827 1_455
Lu8 Sn0 3.016827 1_555
Lu8 Sn14 3.074861 1_565
Lu8 Sn12 3.083389 1_555
Lu8 Sn22 3.139341 1_565
Lu8 Sn23 3.193706 1_554
Lu8 Sn20 3.247577 1_555
Lu9 Sn4 3.016827 1_455
Lu9 Sn1 3.016827 1_555
Lu9 Sn15 3.074861 1_545
Lu9 Sn13 3.083389 1_555
Lu9 Sn23 3.139341 1_545
Lu9 Sn22 3.193706 1_556
Lu9 Sn21 3.247577 1_555
Lu10 Sn2 3.016827 1_455
Lu10 Sn7 3.016827 1_555
Lu10 Sn12 3.074861 1_555
Lu10 Sn14 3.083389 1_555
Lu10 Sn20 3.139341 1_555
Lu10 Sn21 3.193706 1_555
Lu10 Sn22 3.247577 1_555
Lu11 Sn3 3.016827 1_455
Lu11 Sn6 3.016827 1_555
Lu11 Sn13 3.074861 1_555
Lu11 Sn15 3.083389 1_555
Lu11 Sn21 3.139341 1_555
Lu11 Sn20 3.193706 1_555
Lu11 Sn23 3.247577 1_555
Mn0 Sn12 2.705227 1_555
Mn0 Sn8 2.708884 1_555
Mn0 Sn0 2.786230 1_555
Mn0 Sn7 2.796161 1_555
Mn0 Sn20 2.810913 1_555
Mn0 Sn16 2.874804 1_555
Mn1 Sn13 2.705227 1_555
Mn1 Sn9 2.708884 1_555
Mn1 Sn1 2.786230 1_555
Mn1 Sn6 2.796161 1_555
Mn1 Sn21 2.810913 1_555
Mn1 Sn17 2.874804 1_555
Mn2 Sn14 2.705227 1_655
Mn2 Sn10 2.708884 1_555
Mn2 Sn2 2.786230 1_555
Mn2 Sn5 2.796161 1_545
Mn2 Sn22 2.810913 1_655
Mn2 Sn18 2.874804 1_555
Mn3 Sn15 2.705227 1_655
Mn3 Sn11 2.708884 1_555
Mn3 Sn3 2.786230 1_555
Mn3 Sn4 2.796161 1_565
Mn3 Sn23 2.810913 1_655
Mn3 Sn19 2.874804 1_555
Mn4 Sn13 2.705227 1_655
Mn4 Sn9 2.708884 1_555
Mn4 Sn4 2.786230 1_555
Mn4 Sn3 2.796161 1_555
Mn4 Sn21 2.810913 1_655
Mn4 Sn17 2.874804 1_555
Mn5 Sn12 2.705227 1_655
Mn5 Sn8 2.708884 1_555
Mn5 Sn5 2.786230 1_555
Mn5 Sn2 2.796161 1_555
Mn5 Sn20 2.810913 1_655
Mn5 Sn16 2.874804 1_555
Mn6 Sn15 2.705227 1_555
Mn6 Sn11 2.708884 1_555
Mn6 Sn6 2.786230 1_555
Mn6 Sn1 2.796161 1_565
Mn6 Sn23 2.810913 1_555
Mn6 Sn19 2.874804 1_555
Mn7 Sn14 2.705227 1_555
Mn7 Sn10 2.708884 1_555
Mn7 Sn7 2.786230 1_555
Mn7 Sn0 2.796161 1_545
Mn7 Sn22 2.810913 1_555
Mn7 Sn18 2.874804 1_555
Mn8 Sn7 2.763742 1_555
Mn8 Sn6 2.763742 1_555
Mn8 Sn21 2.803220 1_555
Mn8 Sn20 2.803220 1_555
Mn8 Sn17 2.849731 1_555
Mn8 Sn16 2.849731 1_555
Mn9 Sn5 2.763742 1_545
Mn9 Sn4 2.763742 1_554
Mn9 Sn23 2.803220 1_644
Mn9 Sn22 2.803220 1_655
Mn9 Sn18 2.849731 1_555
Mn9 Sn19 2.849731 1_544
Mn10 Sn2 2.763742 1_555
Mn10 Sn3 2.763742 1_555
Mn10 Sn21 2.803220 1_655
Mn10 Sn20 2.803220 1_655
Mn10 Sn17 2.849731 1_555
Mn10 Sn16 2.849731 1_555
Mn11 Sn0 2.763742 1_545
Mn11 Sn1 2.763742 1_554
Mn11 Sn23 2.803220 1_544
Mn11 Sn22 2.803220 1_555
Mn11 Sn18 2.849731 1_555
Mn11 Sn19 2.849731 1_544
Sn0 Sn5 2.927348 1_555
Sn1 Sn4 2.927348 1_555
Sn2 Sn7 2.927348 1_555
Sn3 Sn6 2.927348 1_555
