# generated using pymatgen
data_MgP2H10(NO4)2
_symmetry_space_group_name_H-M   'P 1'
_cell_length_a   10.57887300
_cell_length_b   6.49416200
_cell_length_c   12.90839468
_cell_angle_alpha   75.91570025
_cell_angle_beta   90.00000000
_cell_angle_gamma   90.00000000
_symmetry_Int_Tables_number   1
_chemical_formula_structural   MgP2H10(NO4)2
_chemical_formula_sum   'Mg4 P8 H40 N8 O32'
_cell_volume   860.15963902
_cell_formula_units_Z   4
loop_
 _symmetry_equiv_pos_site_id
 _symmetry_equiv_pos_as_xyz
  1  'x, y, z'
loop_
 _atom_site_type_symbol
 _atom_site_label
 _atom_site_symmetry_multiplicity
 _atom_site_fract_x
 _atom_site_fract_y
 _atom_site_fract_z
 _atom_site_occupancy
  Mg  Mg0  1  0.69807200  0.95211400  0.65399100  1
  Mg  Mg1  1  0.19807200  0.04788600  0.84600900  1
  Mg  Mg2  1  0.30192800  0.04788600  0.34600900  1
  Mg  Mg3  1  0.80192800  0.95211400  0.15399100  1
  P  P0  1  0.96809900  0.72713700  0.60698200  1
  P  P1  1  0.46809900  0.27286300  0.89301800  1
  P  P2  1  0.03190100  0.27286300  0.39301800  1
  P  P3  1  0.53190100  0.72713700  0.10698200  1
  P  P4  1  0.68829000  0.96242300  0.91848100  1
  P  P5  1  0.18829000  0.03757700  0.58151900  1
  P  P6  1  0.31171000  0.03757700  0.08151900  1
  P  P7  1  0.81171000  0.96242300  0.41848100  1
  H  H0  1  0.54311500  0.69537000  0.93151500  1
  H  H1  1  0.04311500  0.30463000  0.56848500  1
  H  H2  1  0.45688500  0.30463000  0.06848500  1
  H  H3  1  0.95688500  0.69537000  0.43151500  1
  H  H4  1  0.18614800  0.67900000  0.61072000  1
  H  H5  1  0.68614800  0.32100000  0.88928000  1
  H  H6  1  0.81385200  0.32100000  0.38928000  1
  H  H7  1  0.31385200  0.67900000  0.11072000  1
  H  H8  1  0.94559900  0.96876100  0.89829500  1
  H  H9  1  0.44559900  0.03123900  0.60170500  1
  H  H10  1  0.05440100  0.03123900  0.10170500  1
  H  H11  1  0.55440100  0.96876100  0.39829500  1
  H  H12  1  0.96661000  0.92021700  0.78487100  1
  H  H13  1  0.46661000  0.07978300  0.71512900  1
  H  H14  1  0.03339000  0.07978300  0.21512900  1
  H  H15  1  0.53339000  0.92021700  0.28487100  1
  H  H16  1  0.82819500  0.34894900  0.63411700  1
  H  H17  1  0.32819500  0.65105100  0.86588300  1
  H  H18  1  0.17180500  0.65105100  0.36588300  1
  H  H19  1  0.67180500  0.34894900  0.13411700  1
  H  H20  1  0.71935500  0.35845400  0.54753600  1
  H  H21  1  0.21935500  0.64154600  0.95246400  1
  H  H22  1  0.28064500  0.64154600  0.45246400  1
  H  H23  1  0.78064500  0.35845400  0.04753600  1
  H  H24  1  0.56315700  0.59980600  0.74018000  1
  H  H25  1  0.06315700  0.40019400  0.75982000  1
  H  H26  1  0.43684300  0.40019400  0.25982000  1
  H  H27  1  0.93684300  0.59980600  0.24018000  1
  H  H28  1  0.65770700  0.51657600  0.66350100  1
  H  H29  1  0.15770700  0.48342400  0.83649900  1
  H  H30  1  0.34229300  0.48342400  0.33649900  1
  H  H31  1  0.84229300  0.51657600  0.16350100  1
  H  H32  1  0.91410000  0.43873600  0.88840900  1
  H  H33  1  0.41410000  0.56126400  0.61159100  1
  H  H34  1  0.08590000  0.56126400  0.11159100  1
  H  H35  1  0.58590000  0.43873600  0.38840900  1
  H  H36  1  0.81178600  0.62261900  0.86751000  1
  H  H37  1  0.31178600  0.37738100  0.63249000  1
  H  H38  1  0.18821400  0.37738100  0.13249000  1
  H  H39  1  0.68821400  0.62261900  0.36751000  1
  N  N0  1  0.58235200  0.78405900  0.97996500  1
  N  N1  1  0.08235200  0.21594100  0.52003500  1
  N  N2  1  0.41764800  0.21594100  0.02003500  1
  N  N3  1  0.91764800  0.78405900  0.47996500  1
  N  N4  1  0.11954200  0.79680600  0.60844900  1
  N  N5  1  0.61954200  0.20319400  0.89155100  1
  N  N6  1  0.88045800  0.20319400  0.39155100  1
  N  N7  1  0.38045800  0.79680600  0.10844900  1
  O  O0  1  0.88916100  0.86055100  0.66429000  1
  O  O1  1  0.38916100  0.13944900  0.83571000  1
  O  O2  1  0.11083900  0.13944900  0.33571000  1
  O  O3  1  0.61083900  0.86055100  0.16429000  1
  O  O4  1  0.96753000  0.48581900  0.64834100  1
  O  O5  1  0.46753000  0.51418100  0.85165900  1
  O  O6  1  0.03247000  0.51418100  0.35165900  1
  O  O7  1  0.53247000  0.48581900  0.14834100  1
  O  O8  1  0.80123200  0.97647100  0.98949600  1
  O  O9  1  0.30123200  0.02352900  0.51050400  1
  O  O10  1  0.19876800  0.02352900  0.01050400  1
  O  O11  1  0.69876800  0.97647100  0.48949600  1
  O  O12  1  0.71942800  0.89738600  0.81622800  1
  O  O13  1  0.21942800  0.10261400  0.68377200  1
  O  O14  1  0.28057200  0.10261400  0.18377200  1
  O  O15  1  0.78057200  0.89738600  0.31622800  1
  O  O16  1  0.01106100  0.94616600  0.84780000  1
  O  O17  1  0.51106100  0.05383400  0.65220000  1
  O  O18  1  0.98893900  0.05383400  0.15220000  1
  O  O19  1  0.48893900  0.94616600  0.34780000  1
  O  O20  1  0.74240300  0.29357400  0.62304100  1
  O  O21  1  0.24240300  0.70642600  0.87695900  1
  O  O22  1  0.25759700  0.70642600  0.37695900  1
  O  O23  1  0.75759700  0.29357400  0.12304100  1
  O  O24  1  0.61152600  0.64366600  0.67201000  1
  O  O25  1  0.11152600  0.35633400  0.82799000  1
  O  O26  1  0.38847400  0.35633400  0.32799000  1
  O  O27  1  0.88847400  0.64366600  0.17201000  1
  O  O28  1  0.82871400  0.47544900  0.90738100  1
  O  O29  1  0.32871400  0.52455100  0.59261900  1
  O  O30  1  0.17128600  0.52455100  0.09261900  1
  O  O31  1  0.67128600  0.47544900  0.40738100  1
loop_
_geom_bond_atom_site_label_1
_geom_bond_atom_site_label_2
_geom_bond_distance
_geom_bond_site_symmetry_2
Mg0 O12 2.049599 1_555
Mg0 O17 2.084084 1_565
Mg0 O11 2.090524 1_555
Mg0 O0 2.102205 1_555
Mg0 O24 2.162879 1_555
Mg0 O20 2.205824 1_565
Mg1 O13 2.049599 1_555
Mg1 O16 2.084084 1_545
Mg1 O10 2.090524 1_556
Mg1 O1 2.102205 1_555
Mg1 O25 2.162879 1_555
Mg1 O21 2.205824 1_545
Mg2 O14 2.049599 1_555
Mg2 O19 2.084084 1_545
Mg2 O9 2.090524 1_555
Mg2 O2 2.102205 1_555
Mg2 O26 2.162879 1_555
Mg2 O22 2.205824 1_545
Mg3 O15 2.049599 1_555
Mg3 O18 2.084084 1_565
Mg3 O8 2.090524 1_554
Mg3 O3 2.102205 1_555
Mg3 O27 2.162879 1_555
Mg3 O23 2.205824 1_565
H0 N0 1.034640 1_555
H1 N1 1.034640 1_555
H2 N2 1.034640 1_555
H3 N3 1.034640 1_555
H4 N4 1.035245 1_555
H5 N5 1.035245 1_555
H6 N6 1.035245 1_555
H7 N7 1.035245 1_555
H8 O16 0.986160 1_655
H9 O17 0.986160 1_555
H10 O18 0.986160 1_455
H11 O19 0.986160 1_555
H12 O16 0.987927 1_655
H13 O17 0.987927 1_555
H14 O18 0.987927 1_455
H15 O19 0.987927 1_555
H16 O20 0.999247 1_555
H17 O21 0.999247 1_555
H18 O22 0.999247 1_555
H19 O23 0.999247 1_555
H20 O20 0.993504 1_555
H21 O21 0.993504 1_555
H22 O22 0.993504 1_555
H23 O23 0.993504 1_555
H24 O24 0.997651 1_555
H25 O25 0.997651 1_555
H26 O26 0.997651 1_555
H27 O27 0.997651 1_555
H28 O24 0.987953 1_555
H29 O25 0.987953 1_555
H30 O26 0.987953 1_555
H31 O27 0.987953 1_555
H32 O28 0.980390 1_555
H33 O29 0.980390 1_555
H34 O30 0.980390 1_555
H35 O31 0.980390 1_555
H36 O28 0.985394 1_555
H37 O29 0.985394 1_555
H38 O30 0.985394 1_555
H39 O31 0.985394 1_555
N0 P4 1.667382 1_555
N0 P3 1.677724 1_556
N1 P5 1.667382 1_555
N1 P2 1.677724 1_555
N2 P6 1.667382 1_555
N2 P1 1.677724 1_554
N3 P7 1.667382 1_555
N3 P0 1.677724 1_555
N4 P0 1.666117 1_455
N4 P5 1.682288 1_565
N5 P1 1.666117 1_555
N5 P4 1.682288 1_545
N6 P2 1.666117 1_655
N6 P7 1.682288 1_545
N7 P3 1.666117 1_555
N7 P6 1.682288 1_565
O0 P0 1.518946 1_555
O1 P1 1.518946 1_555
O2 P2 1.518946 1_555
O3 P3 1.518946 1_555
O4 P0 1.527691 1_555
O5 P1 1.527691 1_555
O6 P2 1.527691 1_555
O7 P3 1.527691 1_555
O8 P4 1.522133 1_555
O9 P5 1.522133 1_555
O10 P6 1.522133 1_555
O11 P7 1.522133 1_555
O12 P4 1.516713 1_555
O13 P5 1.516713 1_555
O14 P6 1.516713 1_555
O15 P7 1.516713 1_555
