# generated using pymatgen
data_CrSi7N10
_symmetry_space_group_name_H-M   'P 1'
_cell_length_a   6.73594871
_cell_length_b   6.90526400
_cell_length_c   9.71030420
_cell_angle_alpha   90.00000000
_cell_angle_beta   104.14478059
_cell_angle_gamma   90.00000000
_symmetry_Int_Tables_number   1
_chemical_formula_structural   CrSi7N10
_chemical_formula_sum   'Cr2 Si14 N20'
_cell_volume   437.96653023
_cell_formula_units_Z   2
loop_
 _symmetry_equiv_pos_site_id
 _symmetry_equiv_pos_as_xyz
  1  'x, y, z'
loop_
 _atom_site_type_symbol
 _atom_site_label
 _atom_site_symmetry_multiplicity
 _atom_site_fract_x
 _atom_site_fract_y
 _atom_site_fract_z
 _atom_site_occupancy
  Cr  Cr0  1  0.92789500  0.92096300  0.65332400  1
  Cr  Cr1  1  0.92789500  0.07903700  0.15332400  1
  Si  Si0  1  0.54494100  0.98030600  0.82710400  1
  Si  Si1  1  0.54494100  0.01969400  0.32710400  1
  Si  Si2  1  0.35493900  0.01953200  0.02415900  1
  Si  Si3  1  0.35493900  0.98046800  0.52415900  1
  Si  Si4  1  0.11713200  0.39871800  0.07446600  1
  Si  Si5  1  0.11713200  0.60128200  0.57446600  1
  Si  Si6  1  0.66020900  0.36566600  0.99081200  1
  Si  Si7  1  0.66020900  0.63433400  0.49081200  1
  Si  Si8  1  0.84888400  0.62075900  0.81098400  1
  Si  Si9  1  0.84888400  0.37924100  0.31098400  1
  Si  Si10  1  0.30018000  0.62360100  0.88420200  1
  Si  Si11  1  0.30018000  0.37639900  0.38420200  1
  Si  Si12  1  0.48503900  0.36985100  0.68844700  1
  Si  Si13  1  0.48503900  0.63014900  0.18844700  1
  N  N0  1  0.74934200  0.84935000  0.80510700  1
  N  N1  1  0.74934200  0.15065000  0.30510700  1
  N  N2  1  0.56880600  0.13304100  0.97722300  1
  N  N3  1  0.56880600  0.86695900  0.47722300  1
  N  N4  1  0.33241400  0.86878800  0.87416100  1
  N  N5  1  0.33241400  0.13121200  0.37416100  1
  N  N6  1  0.15416000  0.15879200  0.04169800  1
  N  N7  1  0.15416000  0.84120800  0.54169800  1
  N  N8  1  0.28945200  0.50800700  0.72513400  1
  N  N9  1  0.28945200  0.49199300  0.22513400  1
  N  N10  1  0.45037500  0.12220000  0.67592500  1
  N  N11  1  0.45037500  0.87780000  0.17592500  1
  N  N12  1  0.88475000  0.37905000  0.13044300  1
  N  N13  1  0.88475000  0.62095000  0.63044300  1
  N  N14  1  0.07738100  0.57315500  0.93758300  1
  N  N15  1  0.07738100  0.42684500  0.43758300  1
  N  N16  1  0.70043500  0.42020400  0.82467500  1
  N  N17  1  0.70043500  0.57979600  0.32467500  1
  N  N18  1  0.49596700  0.53825000  0.02385200  1
  N  N19  1  0.49596700  0.46175000  0.52385200  1
loop_
_geom_bond_atom_site_label_1
_geom_bond_atom_site_label_2
_geom_bond_distance
_geom_bond_site_symmetry_2
Cr0 N13 2.096206 1_555
Cr0 N7 2.146746 1_655
Cr0 N0 2.174791 1_555
Cr0 N3 2.625307 1_555
Cr1 N12 2.096206 1_555
Cr1 N6 2.146746 1_655
Cr1 N1 2.174791 1_555
Cr1 N2 2.625307 1_554
N0 Si0 1.703750 1_555
N0 Si8 1.710480 1_555
N1 Si1 1.703750 1_555
N1 Si9 1.710480 1_555
N2 Si6 1.713795 1_555
N2 Si0 1.774414 1_545
N2 Si2 1.793960 1_556
N3 Si7 1.713795 1_555
N3 Si1 1.774414 1_565
N3 Si3 1.793960 1_555
N4 Si10 1.712752 1_555
N4 Si2 1.766355 1_566
N4 Si0 1.780699 1_555
N5 Si11 1.712752 1_555
N5 Si3 1.766355 1_545
N5 Si1 1.780699 1_555
N6 Si2 1.701585 1_555
N6 Si4 1.716703 1_555
N7 Si3 1.701585 1_555
N7 Si5 1.716703 1_555
N8 Si10 1.724410 1_555
N8 Si12 1.732665 1_555
N8 Si5 1.752895 1_555
N9 Si11 1.724410 1_555
N9 Si13 1.732665 1_555
N9 Si4 1.752895 1_555
N10 Si12 1.726226 1_555
N10 Si0 1.750365 1_545
N10 Si3 1.754953 1_545
N11 Si13 1.726226 1_555
N11 Si1 1.750365 1_565
N11 Si2 1.754953 1_565
N12 Si6 1.769818 1_554
N12 Si4 1.783239 1_655
N12 Si9 1.827227 1_555
N13 Si7 1.769818 1_555
N13 Si5 1.783239 1_655
N13 Si8 1.827227 1_555
N14 Si10 1.738538 1_555
N14 Si8 1.750281 1_455
N14 Si4 1.765038 1_556
N15 Si11 1.738538 1_555
N15 Si9 1.750281 1_455
N15 Si5 1.765038 1_555
N16 Si8 1.732179 1_555
N16 Si6 1.741102 1_555
N16 Si12 1.742929 1_555
N17 Si9 1.732179 1_555
N17 Si7 1.741102 1_555
N17 Si13 1.742929 1_555
N18 Si6 1.708977 1_554
N18 Si13 1.737837 1_555
N18 Si10 1.746831 1_554
N19 Si7 1.708977 1_555
N19 Si12 1.737837 1_555
N19 Si11 1.746831 1_555
