# generated using pymatgen
data_NaCeHf2O6
_symmetry_space_group_name_H-M   'P 1'
_cell_length_a   5.79897140
_cell_length_b   5.79897140
_cell_length_c   5.79897140
_cell_angle_alpha   60.00000000
_cell_angle_beta   60.00000000
_cell_angle_gamma   60.00000000
_symmetry_Int_Tables_number   1
_chemical_formula_structural   NaCeHf2O6
_chemical_formula_sum   'Na1 Ce1 Hf2 O6'
_cell_volume   137.89162908
_cell_formula_units_Z   1
loop_
 _symmetry_equiv_pos_site_id
 _symmetry_equiv_pos_as_xyz
  1  'x, y, z'
loop_
 _atom_site_type_symbol
 _atom_site_label
 _atom_site_symmetry_multiplicity
 _atom_site_fract_x
 _atom_site_fract_y
 _atom_site_fract_z
 _atom_site_occupancy
  Na  Na0  1  0.50000000  0.50000000  0.50000000  1
  Ce  Ce0  1  0.00000000  0.00000000  -0.00000000  1
  Hf  Hf0  1  0.25000000  0.25000000  0.25000000  1
  Hf  Hf1  1  0.75000000  0.75000000  0.75000000  1
  O  O0  1  0.00000000  0.00000000  0.50000000  1
  O  O1  1  0.50000000  0.50000000  -0.00000000  1
  O  O2  1  0.00000000  0.50000000  0.50000000  1
  O  O3  1  0.50000000  0.00000000  -0.00000000  1
  O  O4  1  0.00000000  0.50000000  -0.00000000  1
  O  O5  1  0.50000000  0.00000000  0.50000000  1
loop_
_geom_bond_atom_site_label_1
_geom_bond_atom_site_label_2
_geom_bond_distance
_geom_bond_site_symmetry_2
Na0 O2 2.899486 1_655
Na0 O5 2.899486 1_565
Na0 O2 2.899486 1_555
Na0 O3 2.899486 1_556
Na0 O1 2.899486 1_556
Na0 O0 2.899486 1_655
Na0 O3 2.899486 1_565
Na0 O1 2.899486 1_555
Na0 O4 2.899486 1_556
Na0 O0 2.899486 1_565
Na0 O5 2.899486 1_555
Na0 O4 2.899486 1_655
Ce0 O4 2.899486 1_545
Ce0 O3 2.899486 1_455
Ce0 O1 2.899486 1_545
Ce0 O0 2.899486 1_555
Ce0 O0 2.899486 1_554
Ce0 O2 2.899486 1_545
Ce0 O3 2.899486 1_555
Ce0 O1 2.899486 1_455
Ce0 O4 2.899486 1_555
Ce0 O5 2.899486 1_455
Ce0 O5 2.899486 1_554
Ce0 O2 2.899486 1_554
Hf0 O4 2.050246 1_555
Hf0 O1 2.050246 1_555
Hf0 O0 2.050246 1_555
Hf0 O5 2.050246 1_555
Hf0 O3 2.050246 1_555
Hf0 O2 2.050246 1_555
Hf1 O1 2.050246 1_556
Hf1 O0 2.050246 1_665
Hf1 O4 2.050246 1_656
Hf1 O3 2.050246 1_566
Hf1 O2 2.050246 1_655
Hf1 O5 2.050246 1_565
