# generated using pymatgen
data_HoHfF7
_symmetry_space_group_name_H-M   'P 1'
_cell_length_a   5.65179774
_cell_length_b   5.96753626
_cell_length_c   8.12598671
_cell_angle_alpha   102.70014761
_cell_angle_beta   90.00000000
_cell_angle_gamma   90.00000000
_symmetry_Int_Tables_number   1
_chemical_formula_structural   HoHfF7
_chemical_formula_sum   'Ho2 Hf2 F14'
_cell_volume   267.36231081
_cell_formula_units_Z   2
loop_
 _symmetry_equiv_pos_site_id
 _symmetry_equiv_pos_as_xyz
  1  'x, y, z'
loop_
 _atom_site_type_symbol
 _atom_site_label
 _atom_site_symmetry_multiplicity
 _atom_site_fract_x
 _atom_site_fract_y
 _atom_site_fract_z
 _atom_site_occupancy
  Ho  Ho0  1  0.69872669  0.65495149  0.68659930  1
  Ho  Ho1  1  0.19872669  0.34504851  0.31340070  1
  Hf  Hf0  1  0.70804704  0.81240281  0.22539069  1
  Hf  Hf1  1  0.20804704  0.18759719  0.77460931  1
  F  F0  1  0.89427468  0.45791479  0.47725319  1
  F  F1  1  0.39427468  0.54208521  0.52274681  1
  F  F2  1  0.43205566  0.92905849  0.76918361  1
  F  F3  1  0.93205566  0.07094151  0.23081639  1
  F  F4  1  0.95233171  0.95227227  0.75926414  1
  F  F5  1  0.45233171  0.04772773  0.24073586  1
  F  F6  1  0.98998858  0.45286899  0.78950124  1
  F  F7  1  0.48998858  0.54713101  0.21049876  1
  F  F8  1  0.69878342  0.75763141  0.97616452  1
  F  F9  1  0.19878342  0.24236859  0.02383548  1
  F  F10  1  0.70480569  0.86626411  0.47579224  1
  F  F11  1  0.20480569  0.13373589  0.52420776  1
  F  F12  1  0.49734653  0.38310218  0.78486884  1
  F  F13  1  0.99734653  0.61689782  0.21513116  1
loop_
_geom_bond_atom_site_label_1
_geom_bond_atom_site_label_2
_geom_bond_distance
_geom_bond_site_symmetry_2
F0 Ho0 2.149049 1_555
F0 Ho1 2.189278 1_655
F1 Ho1 2.149049 1_555
F1 Ho0 2.189278 1_555
F2 Hf1 1.988787 1_565
F2 Ho0 2.216959 1_555
F3 Hf0 1.988787 1_545
F3 Ho1 2.216959 1_655
F4 Hf1 1.999848 1_665
F4 Ho0 2.256206 1_555
F5 Hf0 1.999848 1_545
F5 Ho1 2.256206 1_555
F6 Hf1 1.988775 1_655
F6 Ho0 2.303623 1_555
F7 Hf0 1.988775 1_555
F7 Ho1 2.303623 1_555
F8 Hf0 1.979896 1_556
F8 Ho0 2.297418 1_555
F9 Hf1 1.979896 1_554
F9 Ho1 2.297418 1_555
F10 Hf0 1.989052 1_555
F10 Ho0 2.339994 1_555
F11 Hf1 1.989052 1_555
F11 Ho1 2.339994 1_555
F12 Hf1 1.999690 1_555
F12 Ho0 2.265929 1_555
F13 Hf0 1.999690 1_555
F13 Ho1 2.265929 1_655
