# generated using pymatgen
data_Ba2AlSn2F11
_symmetry_space_group_name_H-M   'P 1'
_cell_length_a   7.82754987
_cell_length_b   7.82754987
_cell_length_c   15.50017700
_cell_angle_alpha   90.00000000
_cell_angle_beta   90.00000000
_cell_angle_gamma   119.99999891
_symmetry_Int_Tables_number   1
_chemical_formula_structural   Ba2AlSn2F11
_chemical_formula_sum   'Ba6 Al3 Sn6 F33'
_cell_volume   822.46794466
_cell_formula_units_Z   3
loop_
 _symmetry_equiv_pos_site_id
 _symmetry_equiv_pos_as_xyz
  1  'x, y, z'
loop_
 _atom_site_type_symbol
 _atom_site_label
 _atom_site_symmetry_multiplicity
 _atom_site_fract_x
 _atom_site_fract_y
 _atom_site_fract_z
 _atom_site_occupancy
  Ba  Ba0  1  0.81171900  0.85215300  0.65409900  1
  Ba  Ba1  1  0.48122000  0.12221500  0.79196400  1
  Ba  Ba2  1  0.04043400  0.18828100  0.98743200  1
  Ba  Ba3  1  0.87778500  0.35900500  0.45863100  1
  Ba  Ba4  1  0.64099500  0.51878000  0.12529800  1
  Ba  Ba5  1  0.14784700  0.95956600  0.32076500  1
  Al  Al0  1  0.52104300  0.68975100  0.87154000  1
  Al  Al1  1  0.16870800  0.47895700  0.20487300  1
  Al  Al2  1  0.31024900  0.83129200  0.53820600  1
  Sn  Sn0  1  0.91871000  0.66892500  0.89366000  1
  Sn  Sn1  1  0.07225000  0.40884300  0.73294100  1
  Sn  Sn2  1  0.59115700  0.66340800  0.39960700  1
  Sn  Sn3  1  0.75021500  0.08129000  0.22699300  1
  Sn  Sn4  1  0.33659200  0.92775000  0.06627400  1
  Sn  Sn5  1  0.33107500  0.24978500  0.56032600  1
  F  F0  1  0.01071000  0.85311500  0.05569400  1
  F  F1  1  0.86951400  0.28921400  0.85133900  1
  F  F2  1  0.84240500  0.98929000  0.38902700  1
  F  F3  1  0.49864700  0.07359300  0.48945500  1
  F  F4  1  0.80578300  0.83797500  0.22095200  1
  F  F5  1  0.07004000  0.20363200  0.18789100  1
  F  F6  1  0.92640700  0.42505400  0.15612200  1
  F  F7  1  0.79636800  0.86640700  0.85455700  1
  F  F8  1  0.03219200  0.19421700  0.55428600  1
  F  F9  1  0.70971300  0.04359500  0.08856100  1
  F  F10  1  0.57494600  0.50135300  0.82278800  1
  F  F11  1  0.14688500  0.15759500  0.72236100  1
  F  F12  1  0.60213500  0.64500700  0.97448900  1
  F  F13  1  0.41033400  0.21596300  0.01442100  1
  F  F14  1  0.04287200  0.39786500  0.30782300  1
  F  F15  1  0.71078600  0.58030000  0.51800600  1
  F  F16  1  0.48864400  0.88699500  0.91481500  1
  F  F17  1  0.33388300  0.29028700  0.42189400  1
  F  F18  1  0.23933400  0.72882300  0.42979500  1
  F  F19  1  0.35499300  0.95712800  0.64115600  1
  F  F20  1  0.48948900  0.76066600  0.76312900  1
  F  F21  1  0.78403700  0.19437100  0.68108700  1
  F  F22  1  0.80562900  0.58966600  0.34775400  1
  F  F23  1  0.39835000  0.51135600  0.24814900  1
  F  F24  1  0.95640500  0.66611700  0.75522700  1
  F  F25  1  0.16202500  0.96780800  0.88761900  1
  F  F26  1  0.41970000  0.13048600  0.18467300  1
  F  F27  1  0.26653000  0.50451700  0.88635700  1
  F  F28  1  0.23798700  0.73347000  0.21969000  1
  F  F29  1  0.27117700  0.51051100  0.09646200  1
  F  F30  1  0.13359300  0.92996000  0.52122400  1
  F  F31  1  0.11300500  0.60165000  0.58148200  1
  F  F32  1  0.49548300  0.76201300  0.55302400  1
loop_
_geom_bond_atom_site_label_1
_geom_bond_atom_site_label_2
_geom_bond_distance
_geom_bond_site_symmetry_2
Ba0 F32 2.707979 1_555
Ba0 F11 2.728763 1_665
Ba0 F24 2.740337 1_555
Ba0 F8 2.814284 1_665
Ba0 F15 2.814423 1_555
Ba0 F20 2.815045 1_555
Ba0 F21 2.824528 1_565
Ba0 F30 3.070206 1_655
Ba0 F7 3.113612 1_555
Ba1 F19 2.614087 1_545
Ba1 F25 2.623336 1_545
Ba1 F16 2.669532 1_545
Ba1 F10 2.719673 1_555
Ba1 F21 2.748138 1_555
Ba1 F1 2.796529 1_555
Ba1 F20 2.897632 1_545
Ba1 F11 2.968872 1_555
Ba2 F27 2.707979 1_555
Ba2 F0 2.728763 1_546
Ba2 F9 2.740340 1_456
Ba2 F25 2.814284 1_545
Ba2 F1 2.814423 1_455
Ba2 F29 2.815045 1_556
Ba2 F13 2.824531 1_556
Ba2 F7 3.070204 1_445
Ba2 F5 3.113628 1_556
Ba3 F14 2.614087 1_655
Ba3 F8 2.623336 1_655
Ba3 F31 2.669535 1_655
Ba3 F3 2.719674 1_555
Ba3 F22 2.748138 1_555
Ba3 F15 2.796529 1_555
Ba3 F18 2.897634 1_655
Ba3 F2 2.968878 1_545
Ba4 F12 2.614101 1_554
Ba4 F4 2.623327 1_555
Ba4 F23 2.669537 1_555
Ba4 F6 2.719673 1_555
Ba4 F13 2.748138 1_555
Ba4 F26 2.796529 1_555
Ba4 F29 2.897634 1_555
Ba4 F0 2.968878 1_655
Ba5 F28 2.707979 1_555
Ba5 F2 2.728763 1_455
Ba5 F17 2.740340 1_565
Ba5 F4 2.814284 1_455
Ba5 F26 2.814412 1_565
Ba5 F18 2.815045 1_555
Ba5 F22 2.824531 1_455
Ba5 F5 3.070190 1_565
Ba5 F30 3.113628 1_555
Al0 F27 1.798718 1_555
Al0 F16 1.813709 1_555
Al0 F12 1.815003 1_555
Al0 F20 1.824813 1_555
Al0 F10 1.883081 1_555
Al0 F7 1.909415 1_555
Al1 F28 1.798718 1_555
Al1 F23 1.813707 1_555
Al1 F14 1.815016 1_555
Al1 F29 1.824813 1_555
Al1 F6 1.883074 1_455
Al1 F5 1.909414 1_555
Al2 F32 1.798720 1_555
Al2 F31 1.813710 1_555
Al2 F19 1.815016 1_555
Al2 F18 1.824813 1_555
Al2 F3 1.883074 1_565
Al2 F30 1.909406 1_555
F0 Sn4 2.320524 1_555
F1 Sn1 2.297195 1_655
F2 Sn2 2.320527 1_555
F3 Sn5 2.576489 1_555
F4 Sn3 2.157248 1_565
F5 Sn3 2.270300 1_455
F6 Sn3 2.576489 1_555
F7 Sn0 2.270297 1_555
F8 Sn5 2.157247 1_555
F9 Sn3 2.167520 1_555
F9 Sn4 2.612137 1_545
F10 Sn0 2.576495 1_555
F11 Sn1 2.320532 1_555
F13 Sn4 2.183232 1_545
F15 Sn2 2.297211 1_555
F17 Sn5 2.167519 1_555
F17 Sn2 2.612134 1_555
F21 Sn1 2.183239 1_655
F22 Sn2 2.183239 1_555
F24 Sn0 2.167536 1_555
F24 Sn1 2.612121 1_655
F25 Sn0 2.157248 1_455
F26 Sn4 2.297207 1_545
F30 Sn5 2.270299 1_565
