# generated using pymatgen
data_Ti2B
_symmetry_space_group_name_H-M   'P 1'
_cell_length_a   4.64929478
_cell_length_b   4.64929478
_cell_length_c   4.64929478
_cell_angle_alpha   105.03859052
_cell_angle_beta   105.03859052
_cell_angle_gamma   118.75471167
_symmetry_Int_Tables_number   1
_chemical_formula_structural   Ti2B
_chemical_formula_sum   'Ti4 B2'
_cell_volume   75.81888053
_cell_formula_units_Z   2
loop_
 _symmetry_equiv_pos_site_id
 _symmetry_equiv_pos_as_xyz
  1  'x, y, z'
loop_
 _atom_site_type_symbol
 _atom_site_label
 _atom_site_symmetry_multiplicity
 _atom_site_fract_x
 _atom_site_fract_y
 _atom_site_fract_z
 _atom_site_occupancy
  Ti  Ti0  1  0.66440000  0.16440000  0.82880000  1
  Ti  Ti1  1  0.33560000  0.83560000  0.17120000  1
  Ti  Ti2  1  0.83560000  0.66440000  0.50000000  1
  Ti  Ti3  1  0.16440000  0.33560000  0.50000000  1
  B  B0  1  0.75000000  0.75000000  0.00000000  1
  B  B1  1  0.25000000  0.25000000  0.00000000  1
loop_
_geom_bond_atom_site_label_1
_geom_bond_atom_site_label_2
_geom_bond_distance
_geom_bond_site_symmetry_2
B0 Ti1 2.423458 1_555
B0 Ti3 2.423458 1_665
B0 Ti1 2.423458 1_655
B0 Ti0 2.423458 1_554
B0 Ti0 2.423458 1_564
B0 Ti2 2.423458 1_554
B0 Ti2 2.423458 1_555
B0 Ti3 2.423458 1_554
B1 Ti3 2.423458 1_555
B1 Ti1 2.423458 1_545
B1 Ti0 2.423458 1_554
B1 Ti2 2.423458 1_555
B1 Ti3 2.423458 1_554
B1 Ti1 2.423458 1_555
B1 Ti0 2.423458 1_454
B1 Ti2 2.423458 1_444
