# generated using pymatgen
data_La3ZnCuRh2PbO12
_symmetry_space_group_name_H-M   'P 1'
_cell_length_a   5.59285600
_cell_length_b   5.74425524
_cell_length_c   7.94023567
_cell_angle_alpha   90.52373716
_cell_angle_beta   90.26686582
_cell_angle_gamma   90.63721085
_symmetry_Int_Tables_number   1
_chemical_formula_structural   La3ZnCuRh2PbO12
_chemical_formula_sum   'La3 Zn1 Cu1 Rh2 Pb1 O12'
_cell_volume   255.06498108
_cell_formula_units_Z   1
loop_
 _symmetry_equiv_pos_site_id
 _symmetry_equiv_pos_as_xyz
  1  'x, y, z'
loop_
 _atom_site_type_symbol
 _atom_site_label
 _atom_site_symmetry_multiplicity
 _atom_site_fract_x
 _atom_site_fract_y
 _atom_site_fract_z
 _atom_site_occupancy
  La  La0  1  0.51314500  0.05197700  0.24920600  1
  La  La1  1  0.01366000  0.44568600  0.74985400  1
  La  La2  1  0.48983200  0.94412800  0.75091500  1
  Zn  Zn0  1  0.00295500  0.99761100  0.49902400  1
  Cu  Cu0  1  0.49836300  0.50441600  0.00284600  1
  Rh  Rh0  1  0.49854700  0.50130400  0.49893700  1
  Rh  Rh1  1  0.00202400  0.00393700  0.00132700  1
  Pb  Pb0  1  0.99103000  0.55408800  0.25316500  1
  O  O0  1  0.08510800  0.95400100  0.24397000  1
  O  O1  1  0.39453800  0.47048800  0.25615800  1
  O  O2  1  0.90809400  0.03301700  0.75135000  1
  O  O3  1  0.59552700  0.52345000  0.74711300  1
  O  O4  1  0.80957400  0.29679900  0.05576000  1
  O  O5  1  0.68773700  0.79722600  0.45436500  1
  O  O6  1  0.20474000  0.69319400  0.54733800  1
  O  O7  1  0.30192600  0.20168700  0.95392800  1
  O  O8  1  0.19452800  0.71442900  0.94743600  1
  O  O9  1  0.30888300  0.20057500  0.54681000  1
  O  O10  1  0.79653200  0.31017000  0.44612900  1
  O  O11  1  0.70325900  0.80181500  0.04436800  1
loop_
_geom_bond_atom_site_label_1
_geom_bond_atom_site_label_2
_geom_bond_distance
_geom_bond_site_symmetry_2
La0 O5 2.410211 1_545
La0 O11 2.418318 1_545
La0 O0 2.453190 1_545
La0 O1 2.501169 1_555
La0 O10 2.653080 1_555
La0 O4 2.664017 1_555
La0 O9 2.761820 1_555
La0 O7 2.768711 1_554
La1 O3 2.385750 1_455
La1 O6 2.402750 1_555
La1 O8 2.402886 1_555
La1 O2 2.436665 1_455
La1 O7 2.693859 1_555
La1 O9 2.709783 1_555
La1 O10 2.795366 1_455
La1 O4 2.824227 1_456
La2 O2 2.388782 1_565
La2 O9 2.425326 1_565
La2 O7 2.428692 1_565
La2 O3 2.494062 1_555
La2 O8 2.629982 1_555
La2 O6 2.667445 1_555
La2 O5 2.736865 1_555
La2 O11 2.748279 1_556
Cu0 O11 2.069531 1_555
Cu0 O7 2.079189 1_554
Cu0 O1 2.106242 1_555
Cu0 O3 2.107970 1_554
Cu0 O8 2.141231 1_554
Cu0 O4 2.162613 1_555
O0 Rh1 2.003718 1_565
O0 Zn0 2.092178 1_555
O0 Pb0 2.352840 1_455
O1 Rh0 2.016645 1_555
O1 Pb0 2.312567 1_455
O2 Rh1 2.059591 1_656
O2 Zn0 2.083703 1_645
O3 Rh0 2.043886 1_555
O4 Rh1 2.051021 1_655
O4 Pb0 2.362323 1_555
O5 Rh0 2.027025 1_555
O5 Zn0 2.121397 1_655
O5 Pb0 2.723484 1_555
O6 Rh0 2.025163 1_555
O6 Zn0 2.128544 1_555
O6 Pb0 2.727952 1_455
O7 Rh1 2.053450 1_556
O8 Rh1 2.034447 1_566
O9 Rh0 2.056416 1_555
O9 Zn0 2.091003 1_545
O10 Rh0 2.048794 1_555
O10 Zn0 2.188186 1_645
O10 Pb0 2.348385 1_555
O11 Rh1 2.055798 1_665
O11 Pb0 2.726381 1_555
