# generated using pymatgen
data_NaMn2O4
_symmetry_space_group_name_H-M   'P 1'
_cell_length_a   6.67742781
_cell_length_b   6.67742781
_cell_length_c   15.94515761
_cell_angle_alpha   72.87135085
_cell_angle_beta   72.87135085
_cell_angle_gamma   51.85490269
_symmetry_Int_Tables_number   1
_chemical_formula_structural   NaMn2O4
_chemical_formula_sum   'Na6 Mn12 O24'
_cell_volume   528.30474802
_cell_formula_units_Z   6
loop_
 _symmetry_equiv_pos_site_id
 _symmetry_equiv_pos_as_xyz
  1  'x, y, z'
loop_
 _atom_site_type_symbol
 _atom_site_label
 _atom_site_symmetry_multiplicity
 _atom_site_fract_x
 _atom_site_fract_y
 _atom_site_fract_z
 _atom_site_occupancy
  Na  Na0  1  0.75096000  0.49784300  0.84195800  1
  Na  Na1  1  0.24411700  0.00479200  0.83661300  1
  Na  Na2  1  0.49784300  0.75096000  0.34195800  1
  Na  Na3  1  0.00479200  0.24411700  0.33661300  1
  Na  Na4  1  0.50951700  0.75465800  0.64210100  1
  Na  Na5  1  0.75465800  0.50951700  0.14210100  1
  Mn  Mn0  1  0.25145000  0.50272000  0.49775800  1
  Mn  Mn1  1  0.76135900  0.00792800  0.49669100  1
  Mn  Mn2  1  0.24279700  0.49389400  0.83117500  1
  Mn  Mn3  1  0.74562000  0.99671900  0.83078200  1
  Mn  Mn4  1  0.75500700  0.00024700  0.16602400  1
  Mn  Mn5  1  0.25076400  0.50474500  0.16579700  1
  Mn  Mn6  1  0.50272000  0.25145000  0.99775800  1
  Mn  Mn7  1  0.00792800  0.76135900  0.99669100  1
  Mn  Mn8  1  0.99671900  0.74562000  0.33078200  1
  Mn  Mn9  1  0.49389400  0.24279700  0.33117500  1
  Mn  Mn10  1  0.50474500  0.25076400  0.66579700  1
  Mn  Mn11  1  0.00024700  0.75500700  0.66602400  1
  O  O0  1  0.67506600  0.92051400  0.07799700  1
  O  O1  1  0.17117100  0.42852800  0.07503000  1
  O  O2  1  0.33846100  0.58717500  0.91175300  1
  O  O3  1  0.84247500  0.09793500  0.92393700  1
  O  O4  1  0.92051400  0.67506600  0.57799700  1
  O  O5  1  0.42852800  0.17117100  0.57503000  1
  O  O6  1  0.09793500  0.84247500  0.42393700  1
  O  O7  1  0.58717500  0.33846100  0.41175300  1
  O  O8  1  0.59279700  0.34354500  0.10123800  1
  O  O9  1  0.09496200  0.84455100  0.10224300  1
  O  O10  1  0.90779200  0.65256400  0.89998800  1
  O  O11  1  0.40056900  0.15801100  0.89917500  1
  O  O12  1  0.34354500  0.59279700  0.60123800  1
  O  O13  1  0.84455100  0.09496200  0.60224300  1
  O  O14  1  0.65256400  0.90779200  0.39998800  1
  O  O15  1  0.15801100  0.40056900  0.39917500  1
  O  O16  1  0.40918800  0.15730200  0.24348700  1
  O  O17  1  0.90041600  0.64957800  0.23177000  1
  O  O18  1  0.08927600  0.83181400  0.75518100  1
  O  O19  1  0.58050200  0.33988800  0.75501100  1
  O  O20  1  0.15730200  0.40918800  0.74348700  1
  O  O21  1  0.64957800  0.90041600  0.73177000  1
  O  O22  1  0.83181400  0.08927600  0.25518100  1
  O  O23  1  0.33988800  0.58050200  0.25501100  1
loop_
_geom_bond_atom_site_label_1
_geom_bond_atom_site_label_2
_geom_bond_distance
_geom_bond_site_symmetry_2
Na0 O10 2.343214 1_555
Na0 O3 2.368870 1_555
Na0 O2 2.395202 1_555
Na0 O20 2.496339 1_655
Na0 O21 2.538101 1_555
Na0 O19 2.757520 1_555
Na1 O11 2.380895 1_555
Na1 O3 2.401725 1_455
Na1 O2 2.432104 1_545
Na1 O20 2.458495 1_555
Na1 O21 2.509965 1_545
Na1 O18 2.690466 1_545
Na2 O14 2.343214 1_555
Na2 O6 2.368870 1_555
Na2 O7 2.395202 1_555
Na2 O16 2.496339 1_565
Na2 O17 2.538101 1_555
Na2 O23 2.757520 1_555
Na3 O15 2.380895 1_555
Na3 O6 2.401725 1_545
Na3 O7 2.432104 1_455
Na3 O16 2.458495 1_555
Na3 O17 2.509965 1_455
Na3 O22 2.690466 1_455
Na4 O12 2.267335 1_555
Na4 O4 2.392664 1_555
Na4 O5 2.429423 1_565
Na4 O21 2.568674 1_555
Na4 O19 2.660926 1_555
Na4 O18 2.678026 1_555
Na5 O8 2.267335 1_555
Na5 O0 2.392664 1_555
Na5 O1 2.429423 1_655
Na5 O17 2.568674 1_555
Na5 O23 2.660926 1_555
Na5 O22 2.678026 1_555
Mn0 O5 1.958370 1_555
Mn0 O6 1.961683 1_555
Mn0 O4 1.976098 1_455
Mn0 O7 2.036402 1_555
Mn0 O15 2.249559 1_555
Mn0 O12 2.258687 1_555
Mn1 O6 1.941484 1_645
Mn1 O5 1.965193 1_555
Mn1 O4 1.986625 1_545
Mn1 O7 2.013549 1_555
Mn1 O13 2.237108 1_555
Mn1 O14 2.284653 1_545
Mn2 O11 1.907194 1_555
Mn2 O10 1.908329 1_455
Mn2 O18 1.968350 1_555
Mn2 O19 1.968585 1_555
Mn2 O2 1.973112 1_555
Mn2 O20 1.983859 1_555
Mn3 O11 1.950452 1_565
Mn3 O10 1.951277 1_555
Mn3 O19 1.989754 1_565
Mn3 O18 1.990613 1_655
Mn3 O3 2.185991 1_565
Mn3 O21 2.240789 1_555
Mn4 O9 1.901511 1_645
Mn4 O8 1.921511 1_555
Mn4 O0 1.941933 1_545
Mn4 O17 1.967175 1_545
Mn4 O22 1.985293 1_555
Mn4 O16 2.012254 1_555
Mn5 O9 1.899549 1_555
Mn5 O8 1.914539 1_555
Mn5 O1 1.963984 1_555
Mn5 O17 1.967130 1_455
Mn5 O23 1.981939 1_555
Mn5 O16 2.020743 1_555
Mn6 O1 1.958370 1_556
Mn6 O3 1.961683 1_555
Mn6 O0 1.976098 1_546
Mn6 O2 2.036402 1_555
Mn6 O11 2.249559 1_555
Mn6 O8 2.258687 1_556
Mn7 O3 1.941484 1_465
Mn7 O1 1.965193 1_556
Mn7 O0 1.986625 1_456
Mn7 O2 2.013549 1_555
Mn7 O9 2.237108 1_556
Mn7 O10 2.284653 1_455
Mn8 O15 1.950452 1_655
Mn8 O14 1.951277 1_555
Mn8 O23 1.989754 1_655
Mn8 O22 1.990613 1_565
Mn8 O6 2.185991 1_655
Mn8 O17 2.240789 1_555
Mn9 O15 1.907194 1_555
Mn9 O14 1.908329 1_545
Mn9 O22 1.968350 1_555
Mn9 O23 1.968585 1_555
Mn9 O7 1.973112 1_555
Mn9 O16 1.983859 1_555
Mn10 O13 1.899549 1_555
Mn10 O12 1.914539 1_555
Mn10 O5 1.963984 1_555
Mn10 O21 1.967130 1_545
Mn10 O19 1.981939 1_555
Mn10 O20 2.020743 1_555
Mn11 O13 1.901511 1_465
Mn11 O12 1.921511 1_555
Mn11 O4 1.941933 1_455
Mn11 O21 1.967175 1_455
Mn11 O18 1.985293 1_555
Mn11 O20 2.012254 1_555
