# generated using pymatgen
data_Rb(YbS2)3
_symmetry_space_group_name_H-M   'P 1'
_cell_length_a   11.71132199
_cell_length_b   11.71132199
_cell_length_c   36.64033900
_cell_angle_alpha   90.00000000
_cell_angle_beta   90.00000000
_cell_angle_gamma   129.67828395
_symmetry_Int_Tables_number   1
_chemical_formula_structural   Rb(YbS2)3
_chemical_formula_sum   'Rb1 Yb3 S6'
_cell_volume   3867.76306644
_cell_formula_units_Z   1
loop_
 _symmetry_equiv_pos_site_id
 _symmetry_equiv_pos_as_xyz
  1  'x, y, z'
loop_
 _atom_site_type_symbol
 _atom_site_label
 _atom_site_symmetry_multiplicity
 _atom_site_fract_x
 _atom_site_fract_y
 _atom_site_fract_z
 _atom_site_occupancy
  Rb  Rb0  1  0.00000000  0.00000000  0.00000000  1
  Yb  Yb0  1  0.00000000  0.00000000  0.50000000  1
  Yb  Yb1  1  0.50000000  0.00000000  0.00000000  1
  Yb  Yb2  1  0.00000000  0.50000000  0.00000000  1
  S  S0  1  0.00000000  0.00000000  0.23069900  1
  S  S1  1  0.00000000  0.00000000  0.76930100  1
  S  S2  1  0.25231400  0.95850800  0.00000000  1
  S  S3  1  0.74768600  0.04149200  0.00000000  1
  S  S4  1  0.95850800  0.25231400  0.00000000  1
  S  S5  1  0.04149200  0.74768600  0.00000000  1
loop_
_geom_bond_atom_site_label_1
_geom_bond_atom_site_label_2
_geom_bond_distance
_geom_bond_site_symmetry_2
Rb0 S4 3.286531 1_455
Rb0 S2 3.286531 1_545
Rb0 S3 3.286531 1_455
Rb0 S5 3.286531 1_545
S2 S5 2.099449 1_555
S2 Yb1 2.617336 1_565
S3 S4 2.099449 1_555
S3 Yb1 2.617336 1_555
S4 Yb2 2.617336 1_655
S5 Yb2 2.617336 1_555
