# generated using pymatgen
data_MgH12C4(S2O3)2
_symmetry_space_group_name_H-M   'P 1'
_cell_length_a   5.91266000
_cell_length_b   9.23623704
_cell_length_c   13.46445097
_cell_angle_alpha   103.02557399
_cell_angle_beta   90.00000000
_cell_angle_gamma   108.66773190
_symmetry_Int_Tables_number   1
_chemical_formula_structural   MgH12C4(S2O3)2
_chemical_formula_sum   'Mg2 H24 C8 S8 O12'
_cell_volume   676.61918085
_cell_formula_units_Z   2
loop_
 _symmetry_equiv_pos_site_id
 _symmetry_equiv_pos_as_xyz
  1  'x, y, z'
loop_
 _atom_site_type_symbol
 _atom_site_label
 _atom_site_symmetry_multiplicity
 _atom_site_fract_x
 _atom_site_fract_y
 _atom_site_fract_z
 _atom_site_occupancy
  Mg  Mg0  1  0.58937500  0.00000000  0.25000000  1
  Mg  Mg1  1  0.41062500  0.00000000  0.75000000  1
  H  H0  1  0.73552900  0.81507700  0.34209600  1
  H  H1  1  0.92045200  0.18492300  0.15790400  1
  H  H2  1  0.26447100  0.18492300  0.65790400  1
  H  H3  1  0.07954800  0.81507700  0.84209600  1
  H  H4  1  0.70624600  0.72989900  0.22329200  1
  H  H5  1  0.97634700  0.27010100  0.27670800  1
  H  H6  1  0.29375400  0.27010100  0.77670800  1
  H  H7  1  0.02365300  0.72989900  0.72329200  1
  H  H8  1  0.48921200  0.24053700  0.19284500  1
  H  H9  1  0.24867500  0.75946300  0.30715500  1
  H  H10  1  0.51078800  0.75946300  0.80715500  1
  H  H11  1  0.75132500  0.24053700  0.69284500  1
  H  H12  1  0.24353200  0.14426300  0.23023800  1
  H  H13  1  0.09926800  0.85573700  0.26976200  1
  H  H14  1  0.75646800  0.85573700  0.76976200  1
  H  H15  1  0.90073200  0.14426300  0.73023800  1
  H  H16  1  0.65810500  0.83704200  0.05804500  1
  H  H17  1  0.82106300  0.16295800  0.44195500  1
  H  H18  1  0.34189500  0.16295800  0.94195500  1
  H  H19  1  0.17893700  0.83704200  0.55804500  1
  H  H20  1  0.40209500  0.86335100  0.05373700  1
  H  H21  1  0.53874400  0.13664900  0.44626300  1
  H  H22  1  0.59790500  0.13664900  0.94626300  1
  H  H23  1  0.46125600  0.86335100  0.55373700  1
  C  C0  1  0.38384600  0.50753000  0.44486600  1
  C  C1  1  0.87631600  0.49247000  0.05513400  1
  C  C2  1  0.61615400  0.49247000  0.55513400  1
  C  C3  1  0.12368400  0.50753000  0.94486600  1
  C  C4  1  0.38688800  0.38927700  0.50061900  1
  C  C5  1  0.99761100  0.61072300  0.99938100  1
  C  C6  1  0.61311200  0.61072300  0.49938100  1
  C  C7  1  0.00238900  0.38927700  0.00061900  1
  S  S0  1  0.20694300  0.20964100  0.50154000  1
  S  S1  1  0.99730200  0.79035900  0.99846000  1
  S  S2  1  0.79305700  0.79035900  0.49846000  1
  S  S3  1  0.00269800  0.20964100  0.00154000  1
  S  S4  1  0.19749900  0.51887700  0.35731400  1
  S  S5  1  0.67862200  0.48112300  0.14268600  1
  S  S6  1  0.80250100  0.48112300  0.64268600  1
  S  S7  1  0.32137800  0.51887700  0.85731400  1
  O  O0  1  0.75540100  0.83553400  0.27230800  1
  O  O1  1  0.91986600  0.16446600  0.22769200  1
  O  O2  1  0.24459900  0.16446600  0.72769200  1
  O  O3  1  0.08013400  0.83553400  0.77230800  1
  O  O4  1  0.40962900  0.14756600  0.21961900  1
  O  O5  1  0.26206300  0.85243400  0.28038100  1
  O  O6  1  0.59037100  0.85243400  0.78038100  1
  O  O7  1  0.73793700  0.14756700  0.71961900  1
  O  O8  1  0.55617200  0.89574600  0.09398400  1
  O  O9  1  0.66042600  0.10425400  0.40601600  1
  O  O10  1  0.44382800  0.10425400  0.90601600  1
  O  O11  1  0.33957400  0.89574600  0.59398400  1
loop_
_geom_bond_atom_site_label_1
_geom_bond_atom_site_label_2
_geom_bond_distance
_geom_bond_site_symmetry_2
Mg0 O5 2.081604 1_545
Mg0 O4 2.081604 1_555
Mg0 O9 2.084644 1_555
Mg0 O8 2.084644 1_545
Mg0 O1 2.126410 1_555
Mg0 O0 2.126414 1_545
Mg1 O6 2.081604 1_545
Mg1 O7 2.081608 1_555
Mg1 O10 2.084644 1_555
Mg1 O11 2.084644 1_545
Mg1 O3 2.126410 1_545
Mg1 O2 2.126414 1_555
H0 O0 0.999140 1_555
H1 O1 0.999140 1_555
H2 O2 0.999140 1_555
H3 O3 0.999140 1_555
H4 O0 1.000090 1_555
H5 O1 1.000090 1_555
H6 O2 1.000090 1_555
H7 O3 1.000090 1_555
H8 O4 0.984693 1_555
H9 O5 0.984693 1_555
H10 O6 0.984693 1_555
H11 O7 0.984685 1_555
H12 O4 0.984191 1_555
H13 O5 0.984197 1_555
H14 O6 0.984191 1_555
H15 O7 0.984200 1_555
H16 O8 0.991115 1_555
H17 O9 0.991115 1_555
H18 O10 0.991115 1_555
H19 O11 0.991115 1_555
H20 O8 0.982615 1_555
H21 O9 0.982615 1_555
H22 O10 0.982615 1_555
H23 O11 0.982615 1_555
C0 C4 1.462513 1_555
C0 C6 1.463668 1_555
C0 S4 1.656574 1_555
C1 C5 1.462513 1_554
C1 C7 1.463668 1_655
C1 S5 1.656574 1_555
C2 C6 1.462513 1_555
C2 C4 1.463668 1_555
C2 S6 1.656574 1_555
C3 C7 1.462513 1_556
C3 C5 1.463668 1_455
C3 S7 1.656574 1_555
C4 S0 1.662584 1_555
C5 S1 1.662584 1_555
C6 S2 1.662584 1_555
C7 S3 1.662584 1_555
