# generated using pymatgen
data_Ca4Al6SO16
_symmetry_space_group_name_H-M   'P 1'
_cell_length_a   7.94646724
_cell_length_b   7.94646724
_cell_length_c   7.94646724
_cell_angle_alpha   109.47122063
_cell_angle_beta   109.47122063
_cell_angle_gamma   109.47122063
_symmetry_Int_Tables_number   1
_chemical_formula_structural   Ca4Al6SO16
_chemical_formula_sum   'Ca4 Al6 S1 O16'
_cell_volume   386.27837982
_cell_formula_units_Z   1
loop_
 _symmetry_equiv_pos_site_id
 _symmetry_equiv_pos_as_xyz
  1  'x, y, z'
loop_
 _atom_site_type_symbol
 _atom_site_label
 _atom_site_symmetry_multiplicity
 _atom_site_fract_x
 _atom_site_fract_y
 _atom_site_fract_z
 _atom_site_occupancy
  Ca  Ca0  1  0.00000000  0.62355600  0.00000000  1
  Ca  Ca1  1  0.00000000  0.00000000  0.62355600  1
  Ca  Ca2  1  0.62355600  0.00000000  0.00000000  1
  Ca  Ca3  1  0.37644400  0.37644400  0.37644400  1
  Al  Al0  1  0.25000000  0.50000000  0.75000000  1
  Al  Al1  1  0.75000000  0.25000000  0.50000000  1
  Al  Al2  1  0.50000000  0.25000000  0.75000000  1
  Al  Al3  1  0.75000000  0.50000000  0.25000000  1
  Al  Al4  1  0.50000000  0.75000000  0.25000000  1
  Al  Al5  1  0.25000000  0.75000000  0.50000000  1
  S  S0  1  0.00000000  0.00000000  0.00000000  1
  O  O0  1  0.00000000  0.71734300  0.42472600  1
  O  O1  1  0.70738300  0.28265700  0.28265700  1
  O  O2  1  0.00000000  0.42472600  0.71734300  1
  O  O3  1  0.57527400  0.57527400  0.29261700  1
  O  O4  1  0.57527400  0.29261700  0.57527400  1
  O  O5  1  0.42472600  0.00000000  0.71734300  1
  O  O6  1  0.28265700  0.28265700  0.70738300  1
  O  O7  1  0.71734300  0.00000000  0.42472600  1
  O  O8  1  0.71734300  0.42472600  0.00000000  1
  O  O9  1  0.28265700  0.70738300  0.28265700  1
  O  O10  1  0.42472600  0.71734300  0.00000000  1
  O  O11  1  0.81207900  0.81207900  0.81207900  1
  O  O12  1  0.18792100  0.00000000  0.00000000  1
  O  O13  1  0.00000000  0.18792100  0.00000000  1
  O  O14  1  0.00000000  0.00000000  0.18792100  1
  O  O15  1  0.29261700  0.57527400  0.57527400  1
loop_
_geom_bond_atom_site_label_1
_geom_bond_atom_site_label_2
_geom_bond_distance
_geom_bond_site_symmetry_2
Ca0 O2 2.274984 1_554
Ca0 O8 2.274984 1_455
Ca0 O9 2.274984 1_555
Ca1 O7 2.274984 1_455
Ca1 O0 2.274984 1_545
Ca1 O6 2.274984 1_555
Ca2 O1 2.274984 1_555
Ca2 O10 2.274984 1_545
Ca2 O5 2.274984 1_554
Ca3 O15 2.274984 1_555
Ca3 O4 2.274984 1_555
Ca3 O3 2.274984 1_555
Al0 O2 1.769858 1_555
Al0 O10 1.769858 1_556
Al0 O15 1.769858 1_555
Al0 O6 1.769858 1_555
Al1 O7 1.769858 1_555
Al1 O2 1.769858 1_655
Al1 O1 1.769858 1_555
Al1 O4 1.769858 1_555
Al2 O8 1.769858 1_556
Al2 O5 1.769858 1_555
Al2 O6 1.769858 1_555
Al2 O4 1.769858 1_555
Al3 O0 1.769858 1_655
Al3 O8 1.769858 1_555
Al3 O1 1.769858 1_555
Al3 O3 1.769858 1_555
Al4 O10 1.769858 1_555
Al4 O7 1.769858 1_565
Al4 O9 1.769858 1_555
Al4 O3 1.769858 1_555
Al5 O0 1.769858 1_555
Al5 O5 1.769858 1_565
Al5 O15 1.769858 1_555
Al5 O9 1.769858 1_555
O11 S0 1.493308 1_666
O12 S0 1.493308 1_555
O13 S0 1.493308 1_555
O14 S0 1.493308 1_555
