# generated using pymatgen
data_CaAl2Si6(HO4)4
_symmetry_space_group_name_H-M   'P 1'
_cell_length_a   14.03166600
_cell_length_b   6.89781000
_cell_length_c   10.17725660
_cell_angle_alpha   68.38945203
_cell_angle_beta   90.00000000
_cell_angle_gamma   90.00000000
_symmetry_Int_Tables_number   1
_chemical_formula_structural   CaAl2Si6(HO4)4
_chemical_formula_sum   'Ca2 Al4 Si12 H8 O32'
_cell_volume   915.79461500
_cell_formula_units_Z   2
loop_
 _symmetry_equiv_pos_site_id
 _symmetry_equiv_pos_as_xyz
  1  'x, y, z'
loop_
 _atom_site_type_symbol
 _atom_site_label
 _atom_site_symmetry_multiplicity
 _atom_site_fract_x
 _atom_site_fract_y
 _atom_site_fract_z
 _atom_site_occupancy
  Ca  Ca0  1  0.71217000  0.65455000  0.24989800  1
  Ca  Ca1  1  0.28783000  0.65455000  0.74989800  1
  Al  Al0  1  0.49284100  0.58977700  0.19410600  1
  Al  Al1  1  0.50715900  0.58977700  0.69410600  1
  Al  Al2  1  0.85642900  0.98552400  0.04340200  1
  Al  Al3  1  0.14357100  0.98552400  0.54340200  1
  Si  Si0  1  0.97276300  0.61526800  0.25539300  1
  Si  Si1  1  0.02723700  0.61526800  0.75539300  1
  Si  Si2  1  0.87420600  0.95131300  0.73406100  1
  Si  Si3  1  0.12579400  0.95131300  0.23406100  1
  Si  Si4  1  0.46092800  0.30357200  0.00238700  1
  Si  Si5  1  0.53907200  0.30357200  0.50238700  1
  Si  Si6  1  0.34985200  0.93184000  0.21088900  1
  Si  Si7  1  0.65014800  0.93184000  0.71088900  1
  Si  Si8  1  0.62375000  0.00262200  0.99850600  1
  Si  Si9  1  0.37625000  0.00262200  0.49850600  1
  Si  Si10  1  0.99986600  0.32937900  0.07380000  1
  Si  Si11  1  0.00013400  0.32937900  0.57380000  1
  H  H0  1  0.73282600  0.49160200  0.05452800  1
  H  H1  1  0.26717400  0.49160200  0.55452800  1
  H  H2  1  0.75585500  0.56225000  0.53224500  1
  H  H3  1  0.24414500  0.56225000  0.03224500  1
  H  H4  1  0.64377100  0.94842600  0.33700900  1
  H  H5  1  0.35622900  0.94842600  0.83700900  1
  H  H6  1  0.79324500  0.26974900  0.36729200  1
  H  H7  1  0.20675500  0.26974900  0.86729200  1
  O  O0  1  0.98087200  0.42895000  0.19473300  1
  O  O1  1  0.01912800  0.42895000  0.69473300  1
  O  O2  1  0.96773200  0.51700500  0.42694300  1
  O  O3  1  0.03226800  0.51700500  0.92694300  1
  O  O4  1  0.88695500  0.94015800  0.89316100  1
  O  O5  1  0.11304500  0.94015800  0.39316100  1
  O  O6  1  0.38652600  0.10687100  0.06026300  1
  O  O7  1  0.61347400  0.10687100  0.56026300  1
  O  O8  1  0.37629600  0.01946900  0.33577600  1
  O  O9  1  0.62370400  0.01946900  0.83577600  1
  O  O10  1  0.39831400  0.70855900  0.24321000  1
  O  O11  1  0.60168600  0.70855900  0.74321000  1
  O  O12  1  0.73070500  0.98568000  0.06576400  1
  O  O13  1  0.26929500  0.98568000  0.56576400  1
  O  O14  1  0.90592800  0.20661000  0.05744800  1
  O  O15  1  0.09407200  0.20661000  0.55744800  1
  O  O16  1  0.45809200  0.44609100  0.09576100  1
  O  O17  1  0.54190800  0.44609100  0.59576100  1
  O  O18  1  0.57943500  0.78161200  0.10583800  1
  O  O19  1  0.42056500  0.78161200  0.60583800  1
  O  O20  1  0.76445800  0.91468300  0.69675200  1
  O  O21  1  0.23554200  0.91468300  0.19675200  1
  O  O22  1  0.56861300  0.20643700  0.00538400  1
  O  O23  1  0.43138700  0.20643700  0.50538400  1
  O  O24  1  0.57066000  0.44504100  0.33845200  1
  O  O25  1  0.42934000  0.44504100  0.83845200  1
  O  O26  1  0.90689800  0.17709000  0.61904500  1
  O  O27  1  0.09310200  0.17709000  0.11904500  1
  O  O28  1  0.93693300  0.77203100  0.70305300  1
  O  O29  1  0.06306700  0.77203100  0.20305300  1
  O  O30  1  0.87306600  0.74604300  0.19660100  1
  O  O31  1  0.12693400  0.74604300  0.69660100  1
loop_
_geom_bond_atom_site_label_1
_geom_bond_atom_site_label_2
_geom_bond_distance
_geom_bond_site_symmetry_2
Ca0 O18 2.332398 1_555
Ca0 O30 2.353144 1_555
Ca0 O12 2.375624 1_555
Ca0 O24 2.425702 1_555
Ca0 H0 2.635712 1_555
Ca0 H4 2.672075 1_555
Ca0 H6 2.725975 1_555
Ca0 H2 2.773195 1_555
Ca1 O19 2.332398 1_555
Ca1 O31 2.353144 1_555
Ca1 O13 2.375624 1_555
Ca1 O25 2.425702 1_555
Ca1 H1 2.635712 1_555
Ca1 H5 2.672075 1_555
Ca1 H7 2.725975 1_555
Ca1 H3 2.773195 1_556
Al0 O16 1.718289 1_555
Al0 O10 1.726823 1_555
Al0 O18 1.777283 1_555
Al0 O24 1.807435 1_555
Al1 O17 1.718289 1_555
Al1 O11 1.726823 1_555
Al1 O19 1.777283 1_555
Al1 O25 1.807435 1_555
Al2 O4 1.723891 1_554
Al2 O14 1.728892 1_565
Al2 O12 1.778788 1_555
Al2 O30 1.821281 1_555
Al3 O5 1.723891 1_555
Al3 O15 1.728892 1_565
Al3 O13 1.778788 1_555
Al3 O31 1.821281 1_555
O0 Si0 1.621788 1_555
O0 Si10 1.637130 1_555
O1 Si1 1.621788 1_555
O1 Si11 1.637130 1_555
O2 Si0 1.625093 1_555
O2 Si11 1.640339 1_655
O3 Si1 1.625093 1_555
O3 Si10 1.640339 1_456
O4 Si2 1.602487 1_555
O5 Si3 1.602487 1_555
O6 Si4 1.639846 1_555
O6 Si6 1.645949 1_545
O7 Si5 1.639846 1_555
O7 Si7 1.645949 1_545
O8 Si9 1.616960 1_555
O8 Si6 1.638411 1_545
O9 Si8 1.616960 1_555
O9 Si7 1.638411 1_545
O10 Si6 1.602965 1_555
O11 Si7 1.602965 1_555
O12 Si8 1.635711 1_564
O13 Si9 1.635711 1_565
O14 Si10 1.608117 1_555
O15 Si11 1.608117 1_555
O16 Si4 1.599746 1_555
O17 Si5 1.599746 1_555
O18 Si8 1.636247 1_564
O19 Si9 1.636247 1_565
O20 Si7 1.618621 1_555
O20 Si2 1.627919 1_555
O21 Si6 1.618621 1_555
O21 Si3 1.627919 1_555
O22 Si8 1.628630 1_554
O22 Si4 1.648612 1_555
O23 Si9 1.628630 1_555
O23 Si5 1.648612 1_555
O24 Si5 1.653194 1_555
O25 Si4 1.653194 1_556
O26 Si2 1.631936 1_545
O26 Si11 1.634240 1_655
O27 Si3 1.631936 1_545
O27 Si10 1.634240 1_455
O28 Si1 1.623056 1_655
O28 Si2 1.640442 1_555
O29 Si0 1.623056 1_455
O29 Si3 1.640442 1_555
O30 Si0 1.652611 1_555
O31 Si1 1.652611 1_555
