# generated using pymatgen
data_V4Co2N
_symmetry_space_group_name_H-M   'P 1'
_cell_length_a   7.64792552
_cell_length_b   7.64792552
_cell_length_c   7.64792552
_cell_angle_alpha   60.00000000
_cell_angle_beta   60.00000000
_cell_angle_gamma   60.00000000
_symmetry_Int_Tables_number   1
_chemical_formula_structural   V4Co2N
_chemical_formula_sum   'V16 Co8 N4'
_cell_volume   316.31220707
_cell_formula_units_Z   4
loop_
 _symmetry_equiv_pos_site_id
 _symmetry_equiv_pos_as_xyz
  1  'x, y, z'
loop_
 _atom_site_type_symbol
 _atom_site_label
 _atom_site_symmetry_multiplicity
 _atom_site_fract_x
 _atom_site_fract_y
 _atom_site_fract_z
 _atom_site_occupancy
  V  V0  1  0.12500000  0.62500000  0.62500000  1
  V  V1  1  0.62500000  0.12500000  0.62500000  1
  V  V2  1  0.62500000  0.62500000  0.12500000  1
  V  V3  1  0.62500000  0.62500000  0.62500000  1
  V  V4  1  0.81644400  0.81644400  0.18355600  1
  V  V5  1  0.18355600  0.18355600  0.81644400  1
  V  V6  1  0.81644400  0.18355600  0.81644400  1
  V  V7  1  0.18355600  0.81644400  0.18355600  1
  V  V8  1  0.18355600  0.81644400  0.81644400  1
  V  V9  1  0.81644400  0.18355600  0.18355600  1
  V  V10  1  0.43355600  0.43355600  0.06644400  1
  V  V11  1  0.06644400  0.06644400  0.43355600  1
  V  V12  1  0.43355600  0.06644400  0.43355600  1
  V  V13  1  0.06644400  0.43355600  0.06644400  1
  V  V14  1  0.06644400  0.43355600  0.43355600  1
  V  V15  1  0.43355600  0.06644400  0.06644400  1
  Co  Co0  1  0.75375900  0.41541400  0.41541400  1
  Co  Co1  1  0.41541400  0.75375900  0.41541400  1
  Co  Co2  1  0.41541400  0.41541400  0.75375900  1
  Co  Co3  1  0.41541400  0.41541400  0.41541400  1
  Co  Co4  1  0.49624100  0.83458600  0.83458600  1
  Co  Co5  1  0.83458600  0.49624100  0.83458600  1
  Co  Co6  1  0.83458600  0.83458600  0.49624100  1
  Co  Co7  1  0.83458600  0.83458600  0.83458600  1
  N  N0  1  0.62500000  0.12500000  0.12500000  1
  N  N1  1  0.12500000  0.62500000  0.12500000  1
  N  N2  1  0.12500000  0.12500000  0.62500000  1
  N  N3  1  0.12500000  0.12500000  0.12500000  1
loop_
_geom_bond_atom_site_label_1
_geom_bond_atom_site_label_2
_geom_bond_distance
_geom_bond_site_symmetry_2
Co0 V3 2.349614 1_555
Co0 V2 2.349620 1_555
Co0 V1 2.349620 1_555
Co0 V14 2.537738 1_655
Co0 V11 2.537742 1_655
Co0 V13 2.537742 1_655
Co0 Co2 2.587637 1_555
Co0 Co3 2.587637 1_555
Co0 Co1 2.587637 1_555
Co0 V4 2.821816 1_555
Co0 V6 2.821816 1_555
Co0 V9 2.821823 1_555
Co1 V3 2.349614 1_555
Co1 V2 2.349620 1_555
Co1 V0 2.349620 1_555
Co1 V12 2.537738 1_565
Co1 V11 2.537742 1_565
Co1 V15 2.537742 1_565
Co1 Co2 2.587637 1_555
Co1 Co3 2.587637 1_555
Co1 V8 2.821816 1_555
Co1 V4 2.821816 1_555
Co1 V7 2.821823 1_555
Co2 V3 2.349614 1_555
Co2 V1 2.349620 1_555
Co2 V0 2.349620 1_555
Co2 V10 2.537738 1_556
Co2 V15 2.537742 1_556
Co2 V13 2.537742 1_556
Co2 Co3 2.587637 1_555
Co2 V6 2.821816 1_555
Co2 V8 2.821816 1_555
Co2 V5 2.821823 1_555
Co3 V0 2.349616 1_555
Co3 V1 2.349616 1_555
Co3 V2 2.349616 1_555
Co3 V10 2.537745 1_555
Co3 V12 2.537745 1_555
Co3 V14 2.537745 1_555
Co3 V9 2.821820 1_555
Co3 V7 2.821820 1_555
Co3 V5 2.821820 1_555
Co4 V3 2.349614 1_555
Co4 V1 2.349620 1_565
Co4 V2 2.349620 1_556
Co4 V8 2.537738 1_555
Co4 V5 2.537742 1_565
Co4 V7 2.537742 1_556
Co4 Co5 2.587637 1_555
Co4 Co6 2.587637 1_555
Co4 Co7 2.587637 1_555
Co4 V10 2.821816 1_556
Co4 V12 2.821816 1_565
Co4 V15 2.821823 1_566
Co5 V3 2.349614 1_555
Co5 V2 2.349620 1_556
Co5 V0 2.349620 1_655
Co5 V6 2.537738 1_555
Co5 V9 2.537742 1_556
Co5 V5 2.537742 1_655
Co5 Co6 2.587637 1_555
Co5 Co7 2.587637 1_555
Co5 V10 2.821816 1_556
Co5 V14 2.821816 1_655
Co5 V13 2.821823 1_656
Co6 V3 2.349614 1_555
Co6 V1 2.349620 1_565
Co6 V0 2.349620 1_655
Co6 V4 2.537738 1_555
Co6 V7 2.537742 1_655
Co6 V9 2.537742 1_565
Co6 Co7 2.587637 1_555
Co6 V12 2.821816 1_565
Co6 V14 2.821816 1_655
Co6 V11 2.821823 1_665
Co7 V0 2.349616 1_655
Co7 V1 2.349616 1_565
Co7 V2 2.349616 1_556
Co7 V4 2.537745 1_556
Co7 V8 2.537745 1_655
Co7 V6 2.537745 1_565
Co7 V11 2.821820 1_665
Co7 V13 2.821820 1_656
Co7 V15 2.821820 1_566
N0 V9 2.014145 1_555
N0 V15 2.014145 1_555
N0 V4 2.014145 1_545
N0 V12 2.014145 1_555
N0 V6 2.014145 1_554
N0 V10 2.014145 1_555
N1 V7 2.014145 1_555
N1 V13 2.014145 1_555
N1 V14 2.014145 1_555
N1 V4 2.014145 1_455
N1 V8 2.014145 1_554
N1 V10 2.014145 1_555
N2 V5 2.014145 1_555
N2 V12 2.014145 1_555
N2 V6 2.014145 1_455
N2 V14 2.014145 1_555
N2 V8 2.014145 1_545
N2 V11 2.014145 1_555
N3 V15 2.014145 1_555
N3 V9 2.014145 1_455
N3 V13 2.014145 1_555
N3 V7 2.014145 1_545
N3 V11 2.014145 1_555
N3 V5 2.014145 1_554
