# generated using pymatgen
data_Ba2LaMn2O7
_symmetry_space_group_name_H-M   'P 1'
_cell_length_a   5.67717085
_cell_length_b   10.82766175
_cell_length_c   5.67679467
_cell_angle_alpha   105.19708702
_cell_angle_beta   90.00545235
_cell_angle_gamma   89.99858793
_symmetry_Int_Tables_number   1
_chemical_formula_structural   Ba2LaMn2O7
_chemical_formula_sum   'Ba4 La2 Mn4 O14'
_cell_volume   336.75229398
_cell_formula_units_Z   2
loop_
 _symmetry_equiv_pos_site_id
 _symmetry_equiv_pos_as_xyz
  1  'x, y, z'
loop_
 _atom_site_type_symbol
 _atom_site_label
 _atom_site_symmetry_multiplicity
 _atom_site_fract_x
 _atom_site_fract_y
 _atom_site_fract_z
 _atom_site_occupancy
  Ba  Ba0  1  0.00000000  0.36246400  0.68123900  1
  Ba  Ba1  1  0.50000000  0.36238400  0.18119800  1
  Ba  Ba2  1  0.49999900  0.63762700  0.81881000  1
  Ba  Ba3  1  0.99999800  0.63755200  0.31876800  1
  La  La0  1  0.00000000  0.00000400  0.50000100  1
  La  La1  1  0.50000100  0.00000100  0.00000100  1
  Mn  Mn0  1  0.00000000  0.81487900  0.90745200  1
  Mn  Mn1  1  0.00000500  0.18512500  0.09254300  1
  Mn  Mn2  1  0.49999900  0.81191800  0.40597900  1
  Mn  Mn3  1  0.50000000  0.18808000  0.59402300  1
  O  O0  1  0.50000000  0.00001100  0.50000700  1
  O  O1  1  0.00000000  0.00000000  0.00000100  1
  O  O2  1  0.99999900  0.62879900  0.81443800  1
  O  O3  1  0.49999900  0.62743400  0.31375500  1
  O  O4  1  0.50000000  0.37255700  0.68624200  1
  O  O5  1  0.00000100  0.37119300  0.18555900  1
  O  O6  1  0.75950900  0.82770100  0.67330400  1
  O  O7  1  0.24047600  0.82769900  0.15443700  1
  O  O8  1  0.75955400  0.82770200  0.15440700  1
  O  O9  1  0.24045800  0.82770500  0.67333600  1
  O  O10  1  0.75951200  0.17229500  0.84554700  1
  O  O11  1  0.24050300  0.17229200  0.32670700  1
  O  O12  1  0.75953200  0.17228700  0.32667100  1
  O  O13  1  0.24045600  0.17229000  0.84557700  1
loop_
_geom_bond_atom_site_label_1
_geom_bond_atom_site_label_2
_geom_bond_distance
_geom_bond_site_symmetry_2
Ba0 O2 2.782939 1_455
Ba0 O13 2.825008 1_555
Ba0 O10 2.825097 1_455
Ba0 O12 2.825230 1_455
Ba0 O11 2.825326 1_555
Ba0 O5 2.839610 1_556
Ba0 O5 2.840115 1_555
Ba0 O4 2.840544 1_555
Ba0 O4 2.840544 1_455
Ba1 O3 2.769512 1_555
Ba1 O12 2.824946 1_555
Ba1 O11 2.825032 1_555
Ba1 O13 2.825109 1_554
Ba1 O10 2.825203 1_554
Ba1 O5 2.840072 1_555
Ba1 O5 2.840083 1_655
Ba1 O4 2.840146 1_555
Ba1 O4 2.840628 1_554
Ba2 O4 2.769721 1_555
Ba2 O9 2.824809 1_555
Ba2 O6 2.824905 1_555
Ba2 O8 2.824962 1_556
Ba2 O7 2.825068 1_556
Ba2 O2 2.840084 1_455
Ba2 O2 2.840084 1_555
Ba2 O3 2.840160 1_555
Ba2 O3 2.840630 1_556
Ba3 O5 2.783190 1_655
Ba3 O8 2.824831 1_555
Ba3 O7 2.824944 1_655
Ba3 O9 2.825067 1_655
Ba3 O6 2.825165 1_555
Ba3 O2 2.839607 1_554
Ba3 O2 2.840134 1_555
Ba3 O3 2.840548 1_555
Ba3 O3 2.840559 1_655
La0 O13 2.696838 1_555
La0 O8 2.696951 1_445
La0 O12 2.696965 1_455
La0 O10 2.697006 1_455
La0 O9 2.697088 1_545
La0 O7 2.697103 1_545
La0 O11 2.697138 1_555
La0 O6 2.697259 1_445
La0 O1 2.838386 1_555
La0 O1 2.838409 1_556
La0 O0 2.838585 1_555
La0 O0 2.838585 1_455
La1 O12 2.697353 1_555
La1 O9 2.697431 1_544
La1 O11 2.697524 1_555
La1 O13 2.697531 1_554
La1 O6 2.697579 1_544
La1 O8 2.697588 1_545
La1 O10 2.697695 1_554
La1 O7 2.697754 1_545
La1 O0 2.838392 1_554
La1 O0 2.838403 1_555
La1 O1 2.838580 1_655
La1 O1 2.838591 1_555
Mn0 O1 1.934332 1_566
Mn0 O9 1.935531 1_555
Mn0 O8 1.935539 1_456
Mn0 O6 1.935597 1_455
Mn0 O7 1.935600 1_556
Mn0 O2 1.944353 1_455
Mn1 O1 1.934374 1_555
Mn1 O13 1.935588 1_554
Mn1 O12 1.935672 1_455
Mn1 O10 1.935699 1_454
Mn1 O11 1.935719 1_555
Mn1 O5 1.944228 1_555
Mn2 O3 1.927676 1_555
Mn2 O0 1.965387 1_565
Mn2 O6 2.089579 1_555
Mn2 O7 2.089625 1_555
Mn2 O9 2.090025 1_555
Mn2 O8 2.090079 1_555
Mn3 O4 1.927603 1_555
Mn3 O0 1.965136 1_555
Mn3 O11 2.089486 1_555
Mn3 O10 2.089520 1_555
Mn3 O12 2.089961 1_555
Mn3 O13 2.089980 1_555
