# generated using pymatgen
data_Ba4CoN4
_symmetry_space_group_name_H-M   'P 1'
_cell_length_a   7.33349616
_cell_length_b   6.80119152
_cell_length_c   9.70339729
_cell_angle_alpha   74.55358466
_cell_angle_beta   67.91261308
_cell_angle_gamma   68.43326201
_symmetry_Int_Tables_number   1
_chemical_formula_structural   Ba4CoN4
_chemical_formula_sum   'Ba8 Co2 N8'
_cell_volume   412.42237513
_cell_formula_units_Z   2
loop_
 _symmetry_equiv_pos_site_id
 _symmetry_equiv_pos_as_xyz
  1  'x, y, z'
loop_
 _atom_site_type_symbol
 _atom_site_label
 _atom_site_symmetry_multiplicity
 _atom_site_fract_x
 _atom_site_fract_y
 _atom_site_fract_z
 _atom_site_occupancy
  Ba  Ba0  1  0.81113200  0.60727600  0.15738700  1
  Ba  Ba1  1  0.18886800  0.39272400  0.84261300  1
  Ba  Ba2  1  0.67931500  0.17345000  0.03061100  1
  Ba  Ba3  1  0.32068500  0.82655000  0.96938900  1
  Ba  Ba4  1  0.77250600  0.43600800  0.65031000  1
  Ba  Ba5  1  0.22749400  0.56399200  0.34969000  1
  Ba  Ba6  1  0.24352500  0.94029800  0.55026400  1
  Ba  Ba7  1  0.75647500  0.05970200  0.44973600  1
  Co  Co0  1  0.81668300  0.81565300  0.78563700  1
  Co  Co1  1  0.18331700  0.18434700  0.21436300  1
  N  N0  1  0.97477200  0.72812300  0.60231100  1
  N  N1  1  0.02522800  0.27187700  0.39768900  1
  N  N2  1  0.99108300  0.84550700  0.86329800  1
  N  N3  1  0.00891700  0.15449300  0.13670200  1
  N  N4  1  0.74316100  0.58036000  0.90052300  1
  N  N5  1  0.25683900  0.41964000  0.09947700  1
  N  N6  1  0.38993400  0.94861300  0.23180600  1
  N  N7  1  0.61006600  0.05138700  0.76819400  1
loop_
_geom_bond_atom_site_label_1
_geom_bond_atom_site_label_2
_geom_bond_distance
_geom_bond_site_symmetry_2
Ba0 N4 2.781864 1_554
Ba0 N3 2.907539 1_655
Ba0 N5 2.926117 1_655
Ba0 N2 2.964300 1_554
Ba0 N6 3.065229 1_555
Ba0 N1 3.223751 1_655
Ba1 N5 2.781864 1_556
Ba1 N2 2.907539 1_455
Ba1 N4 2.926117 1_455
Ba1 N3 2.964300 1_556
Ba1 N7 3.065229 1_555
Ba1 N0 3.223751 1_455
Ba2 N5 2.841539 1_555
Ba2 N4 2.849356 1_554
Ba2 N2 2.868140 1_544
Ba2 N6 2.886710 1_545
Ba2 N3 2.913831 1_655
Ba2 N7 3.136776 1_554
Ba3 N4 2.841539 1_555
Ba3 N5 2.849356 1_556
Ba3 N3 2.868140 1_566
Ba3 N7 2.886710 1_565
Ba3 N2 2.913831 1_455
Ba3 N6 3.136776 1_556
Ba4 N1 2.685105 1_655
Ba4 N0 2.741953 1_555
Ba4 N4 2.761594 1_555
Ba4 N7 3.040170 1_555
Ba5 N0 2.685105 1_455
Ba5 N1 2.741953 1_555
Ba5 N5 2.761594 1_555
Ba5 N6 3.040170 1_555
Ba6 N0 2.678806 1_455
Ba6 N1 2.681448 1_565
Ba6 N6 2.856796 1_555
Ba6 N2 2.945275 1_455
Ba7 N1 2.678806 1_655
Ba7 N0 2.681448 1_545
Ba7 N7 2.856796 1_555
Ba7 N3 2.945275 1_655
Co0 N7 1.776906 1_565
Co0 N2 1.800576 1_555
Co0 N4 1.823830 1_555
Co0 N0 1.835387 1_555
Co1 N6 1.776906 1_545
Co1 N3 1.800576 1_555
Co1 N5 1.823830 1_555
Co1 N1 1.835387 1_555
