# generated using pymatgen
data_NaSi
_symmetry_space_group_name_H-M   'P 1'
_cell_length_a   6.31699732
_cell_length_b   6.31699732
_cell_length_c   10.86529706
_cell_angle_alpha   72.98288817
_cell_angle_beta   72.98288817
_cell_angle_gamma   62.79087334
_symmetry_Int_Tables_number   1
_chemical_formula_structural   NaSi
_chemical_formula_sum   'Na8 Si8'
_cell_volume   362.22458904
_cell_formula_units_Z   8
loop_
 _symmetry_equiv_pos_site_id
 _symmetry_equiv_pos_as_xyz
  1  'x, y, z'
loop_
 _atom_site_type_symbol
 _atom_site_label
 _atom_site_symmetry_multiplicity
 _atom_site_fract_x
 _atom_site_fract_y
 _atom_site_fract_z
 _atom_site_occupancy
  Na  Na0  1  0.88459500  0.34927700  0.88706800  1
  Na  Na1  1  0.65072300  0.11540500  0.61293200  1
  Na  Na2  1  0.11540500  0.65072300  0.11293200  1
  Na  Na3  1  0.34927700  0.88459500  0.38706800  1
  Na  Na4  1  0.41476500  0.24310100  0.90465200  1
  Na  Na5  1  0.75689900  0.58523500  0.59534800  1
  Na  Na6  1  0.58523500  0.75689900  0.09534800  1
  Na  Na7  1  0.24310100  0.41476500  0.40465200  1
  Si  Si0  1  0.15329100  0.05679100  0.65900400  1
  Si  Si1  1  0.94320900  0.84670900  0.84099600  1
  Si  Si2  1  0.84670900  0.94320900  0.34099600  1
  Si  Si3  1  0.05679100  0.15329100  0.15900400  1
  Si  Si4  1  0.23102500  0.63462500  0.67234600  1
  Si  Si5  1  0.36537500  0.76897500  0.82765400  1
  Si  Si6  1  0.76897500  0.36537500  0.32765400  1
  Si  Si7  1  0.63462500  0.23102500  0.17234600  1
loop_
_geom_bond_atom_site_label_1
_geom_bond_atom_site_label_2
_geom_bond_distance
_geom_bond_site_symmetry_2
Na0 Si7 3.085085 1_556
Na0 Si0 3.128136 1_655
Na0 Si3 3.155091 1_656
Na0 Si1 3.195823 1_545
Na0 Si1 3.208797 1_555
Na0 Si5 3.238672 1_555
Na0 Si4 3.411556 1_655
Na1 Si6 3.085085 1_555
Na1 Si1 3.128136 1_545
Na1 Si2 3.155091 1_545
Na1 Si0 3.195823 1_655
Na1 Si0 3.208797 1_555
Na1 Si4 3.238672 1_555
Na1 Si5 3.411556 1_545
Na2 Si5 3.085085 1_554
Na2 Si2 3.128136 1_455
Na2 Si1 3.155091 1_454
Na2 Si3 3.195823 1_565
Na2 Si3 3.208797 1_555
Na2 Si7 3.238672 1_555
Na2 Si6 3.411556 1_455
Na3 Si4 3.085085 1_555
Na3 Si3 3.128136 1_565
Na3 Si0 3.155091 1_565
Na3 Si2 3.195823 1_455
Na3 Si2 3.208797 1_555
Na3 Si6 3.238672 1_555
Na3 Si7 3.411556 1_565
Na4 Si4 3.044799 1_555
Na4 Si5 3.067713 1_555
Na4 Si3 3.109759 1_556
Na4 Si1 3.148046 1_545
Na4 Si5 3.498787 1_545
Na4 Si7 3.540088 1_556
Na5 Si5 3.044799 1_555
Na5 Si4 3.067713 1_555
Na5 Si2 3.109759 1_555
Na5 Si0 3.148046 1_655
Na5 Si4 3.498787 1_655
Na5 Si6 3.540088 1_555
Na6 Si6 3.044799 1_555
Na6 Si7 3.067713 1_555
Na6 Si1 3.109759 1_554
Na6 Si3 3.148046 1_565
Na6 Si7 3.498787 1_565
Na6 Si5 3.540088 1_554
Na7 Si7 3.044799 1_555
Na7 Si6 3.067713 1_555
Na7 Si0 3.109759 1_555
Na7 Si2 3.148046 1_455
Na7 Si6 3.498787 1_455
Na7 Si4 3.540088 1_555
Si0 Si5 2.391170 1_545
Si0 Si1 2.443568 1_445
Si0 Si4 2.447841 1_545
Si1 Si4 2.391170 1_655
Si1 Si5 2.447841 1_655
Si2 Si7 2.391170 1_565
Si2 Si3 2.443568 1_665
Si2 Si6 2.447841 1_565
Si3 Si6 2.391170 1_455
Si3 Si7 2.447841 1_455
Si4 Si5 2.573570 1_555
Si6 Si7 2.573570 1_555
