# generated using pymatgen
data_RbCoBr3
_symmetry_space_group_name_H-M   'P 1'
_cell_length_a   13.05552585
_cell_length_b   13.05552585
_cell_length_c   6.23035600
_cell_angle_alpha   90.00000000
_cell_angle_beta   90.00000000
_cell_angle_gamma   119.99999923
_symmetry_Int_Tables_number   1
_chemical_formula_structural   RbCoBr3
_chemical_formula_sum   'Rb6 Co6 Br18'
_cell_volume   919.67045711
_cell_formula_units_Z   6
loop_
 _symmetry_equiv_pos_site_id
 _symmetry_equiv_pos_as_xyz
  1  'x, y, z'
loop_
 _atom_site_type_symbol
 _atom_site_label
 _atom_site_symmetry_multiplicity
 _atom_site_fract_x
 _atom_site_fract_y
 _atom_site_fract_z
 _atom_site_occupancy
  Rb  Rb0  1  0.66590600  0.00000000  0.20459800  1
  Rb  Rb1  1  0.00000000  0.66590600  0.20459800  1
  Rb  Rb2  1  0.33409400  0.00000000  0.70459800  1
  Rb  Rb3  1  0.00000000  0.33409400  0.70459800  1
  Rb  Rb4  1  0.33409400  0.33409400  0.20459800  1
  Rb  Rb5  1  0.66590600  0.66590600  0.70459800  1
  Co  Co0  1  0.00000000  0.00000000  0.98737100  1
  Co  Co1  1  0.00000000  0.00000000  0.48737100  1
  Co  Co2  1  0.33333300  0.66666700  0.43384300  1
  Co  Co3  1  0.66666700  0.33333300  0.93384300  1
  Co  Co4  1  0.33333300  0.66666700  0.93384300  1
  Co  Co5  1  0.66666700  0.33333300  0.43384300  1
  Br  Br0  1  0.17599100  0.50875300  0.18341200  1
  Br  Br1  1  0.49124700  0.66723800  0.18341200  1
  Br  Br2  1  0.82400900  0.49124700  0.68341200  1
  Br  Br3  1  0.49124700  0.82400900  0.68341200  1
  Br  Br4  1  0.33276200  0.82400900  0.18341200  1
  Br  Br5  1  0.50875300  0.33276200  0.68341200  1
  Br  Br6  1  0.33276200  0.50875300  0.68341200  1
  Br  Br7  1  0.50875300  0.17599100  0.18341200  1
  Br  Br8  1  0.66723800  0.17599100  0.68341200  1
  Br  Br9  1  0.66723800  0.49124700  0.18341200  1
  Br  Br10  1  0.17599100  0.66723800  0.68341200  1
  Br  Br11  1  0.82400900  0.33276200  0.18341200  1
  Br  Br12  1  0.15749200  0.00000000  0.23912600  1
  Br  Br13  1  0.00000000  0.15749200  0.23912600  1
  Br  Br14  1  0.84250800  0.00000000  0.73912600  1
  Br  Br15  1  0.00000000  0.84250800  0.73912600  1
  Br  Br16  1  0.84250800  0.84250800  0.23912600  1
  Br  Br17  1  0.15749200  0.15749200  0.73912600  1
loop_
_geom_bond_atom_site_label_1
_geom_bond_atom_site_label_2
_geom_bond_distance
_geom_bond_site_symmetry_2
Br0 Co4 2.579300 1_554
Br0 Co2 2.582541 1_555
Br0 Rb3 3.760178 1_554
Br0 Rb4 3.766212 1_555
Br0 Rb1 3.770983 1_555
Br0 Rb3 3.972871 1_555
Br1 Co4 2.579305 1_554
Br1 Co2 2.582546 1_555
Br1 Rb5 3.760178 1_554
Br1 Rb0 3.766212 1_565
Br1 Rb4 3.770983 1_555
Br1 Rb5 3.972871 1_555
Br2 Co5 2.579300 1_555
Br2 Co3 2.582541 1_555
Br2 Rb1 3.760178 1_655
Br2 Rb5 3.766212 1_555
Br2 Rb3 3.770983 1_655
Br2 Rb1 3.972871 1_656
Br3 Co2 2.579300 1_555
Br3 Co4 2.582541 1_555
Br3 Rb0 3.760178 1_565
Br3 Rb5 3.766212 1_555
Br3 Rb2 3.770983 1_565
Br3 Rb0 3.972871 1_566
Br4 Co4 2.579295 1_554
Br4 Co2 2.582536 1_555
Br4 Rb2 3.760178 1_564
Br4 Rb1 3.766212 1_555
Br4 Rb0 3.770983 1_565
Br4 Rb2 3.972871 1_565
Br5 Co5 2.579305 1_555
Br5 Co3 2.582546 1_555
Br5 Rb4 3.760178 1_555
Br5 Rb2 3.766212 1_555
Br5 Rb5 3.770983 1_555
Br5 Rb4 3.972871 1_556
Br6 Co2 2.579305 1_555
Br6 Co4 2.582546 1_555
Br6 Rb4 3.760178 1_555
Br6 Rb3 3.766212 1_555
Br6 Rb5 3.770983 1_555
Br6 Rb4 3.972871 1_556
Br7 Co3 2.579300 1_554
Br7 Co5 2.582541 1_555
Br7 Rb2 3.760178 1_554
Br7 Rb4 3.766212 1_555
Br7 Rb0 3.770983 1_555
Br7 Rb2 3.972871 1_555
Br8 Co5 2.579295 1_555
Br8 Co3 2.582536 1_555
Br8 Rb0 3.760178 1_555
Br8 Rb3 3.766212 1_655
Br8 Rb2 3.770983 1_555
Br8 Rb0 3.972871 1_556
Br9 Co3 2.579305 1_554
Br9 Co5 2.582546 1_555
Br9 Rb5 3.760178 1_554
Br9 Rb1 3.766212 1_655
Br9 Rb4 3.770983 1_555
Br9 Rb5 3.972871 1_555
Br10 Co2 2.579295 1_555
Br10 Co4 2.582536 1_555
Br10 Rb1 3.760178 1_555
Br10 Rb2 3.766212 1_565
Br10 Rb3 3.770983 1_555
Br10 Rb1 3.972871 1_556
Br11 Co3 2.579295 1_554
Br11 Co5 2.582536 1_555
Br11 Rb3 3.760178 1_654
Br11 Rb0 3.766212 1_555
Br11 Rb1 3.770983 1_655
Br11 Rb3 3.972871 1_655
Br12 Co1 2.572908 1_555
Br12 Co0 2.586113 1_554
Br12 Rb2 3.704897 1_555
Br12 Rb1 3.785583 1_545
Br12 Rb4 3.785583 1_555
Br12 Rb2 4.050535 1_554
Br13 Co1 2.572908 1_555
Br13 Co0 2.586113 1_554
Br13 Rb3 3.704897 1_555
Br13 Rb0 3.785583 1_455
Br13 Rb4 3.785583 1_555
Br13 Rb3 4.050535 1_554
Br14 Co0 2.572908 1_655
Br14 Co1 2.586113 1_655
Br14 Rb0 3.704897 1_556
Br14 Rb3 3.785583 1_655
Br14 Rb5 3.785583 1_545
Br14 Rb0 4.050535 1_555
Br15 Co0 2.572908 1_565
Br15 Co1 2.586113 1_565
Br15 Rb1 3.704897 1_556
Br15 Rb2 3.785583 1_565
Br15 Rb5 3.785583 1_455
Br15 Rb1 4.050535 1_555
Br16 Co1 2.572908 1_665
Br16 Co0 2.586113 1_664
Br16 Rb5 3.704897 1_555
Br16 Rb0 3.785583 1_565
Br16 Rb1 3.785583 1_655
Br16 Rb5 4.050535 1_554
Br17 Co0 2.572908 1_555
Br17 Co1 2.586113 1_555
Br17 Rb4 3.704897 1_556
Br17 Rb3 3.785583 1_555
Br17 Rb2 3.785583 1_555
Br17 Rb4 4.050535 1_555
