# generated using pymatgen
data_KMnF3
_symmetry_space_group_name_H-M   'P 1'
_cell_length_a   5.91221112
_cell_length_b   5.91221112
_cell_length_c   5.91221112
_cell_angle_alpha   120.04065157
_cell_angle_beta   120.04065157
_cell_angle_gamma   89.92960383
_symmetry_Int_Tables_number   1
_chemical_formula_structural   KMnF3
_chemical_formula_sum   'K2 Mn2 F6'
_cell_volume   146.03855102
_cell_formula_units_Z   2
loop_
 _symmetry_equiv_pos_site_id
 _symmetry_equiv_pos_as_xyz
  1  'x, y, z'
loop_
 _atom_site_type_symbol
 _atom_site_label
 _atom_site_symmetry_multiplicity
 _atom_site_fract_x
 _atom_site_fract_y
 _atom_site_fract_z
 _atom_site_occupancy
  K  K0  1  0.75000000  0.25000000  0.50000000  1
  K  K1  1  0.25000000  0.75000000  0.50000000  1
  Mn  Mn0  1  0.00000000  0.00000000  0.00000000  1
  Mn  Mn1  1  0.50000000  0.50000000  0.00000000  1
  F  F0  1  0.76005100  0.26005100  0.02010200  1
  F  F1  1  0.75000000  0.75000000  0.00000000  1
  F  F2  1  0.23994900  0.73994900  0.97989800  1
  F  F3  1  0.26005100  0.23994900  0.50000000  1
  F  F4  1  0.73994900  0.76005100  0.50000000  1
  F  F5  1  0.25000000  0.25000000  0.00000000  1
loop_
_geom_bond_atom_site_label_1
_geom_bond_atom_site_label_2
_geom_bond_distance
_geom_bond_site_symmetry_2
F0 Mn0 2.090685 1_655
F0 Mn1 2.090685 1_555
F0 K1 2.897364 1_655
F0 K0 2.897364 1_555
F0 K0 3.016042 1_554
F0 K1 3.016042 1_544
F1 Mn0 2.091566 1_665
F1 Mn1 2.091566 1_555
F1 K1 2.954289 1_554
F1 K0 2.954289 1_565
F1 K1 2.954289 1_655
F1 K0 2.954289 1_554
F2 Mn0 2.090685 1_566
F2 Mn1 2.090685 1_556
F2 K0 2.897364 1_455
F2 K1 2.897364 1_555
F2 K1 3.016042 1_556
F2 K0 3.016042 1_566
F3 Mn0 2.090685 1_555
F3 Mn1 2.090685 1_556
F3 K1 2.897364 1_545
F3 K0 2.897364 1_555
F3 K1 3.016042 1_555
F3 K0 3.016042 1_455
F4 Mn0 2.090685 1_666
F4 Mn1 2.090685 1_555
F4 K0 2.897364 1_565
F4 K1 2.897364 1_555
F4 K1 3.016042 1_655
F4 K0 3.016042 1_555
F5 Mn0 2.091566 1_555
F5 Mn1 2.091566 1_555
F5 K0 2.954289 1_454
F5 K1 2.954289 1_555
F5 K1 2.954289 1_544
F5 K0 2.954289 1_555
