# generated using pymatgen
data_Li9Mn2Co5O16
_symmetry_space_group_name_H-M   'P 1'
_cell_length_a   2.94340000
_cell_length_b   9.86558832
_cell_length_c   10.51337776
_cell_angle_alpha   72.78278167
_cell_angle_beta   83.19274782
_cell_angle_gamma   87.24637455
_symmetry_Int_Tables_number   1
_chemical_formula_structural   Li9Mn2Co5O16
_chemical_formula_sum   'Li9 Mn2 Co5 O16'
_cell_volume   289.52837765
_cell_formula_units_Z   1
loop_
 _symmetry_equiv_pos_site_id
 _symmetry_equiv_pos_as_xyz
  1  'x, y, z'
loop_
 _atom_site_type_symbol
 _atom_site_label
 _atom_site_symmetry_multiplicity
 _atom_site_fract_x
 _atom_site_fract_y
 _atom_site_fract_z
 _atom_site_occupancy
  Li  Li0  1  0.92514000  0.68720700  0.13091900  1
  Li  Li1  1  0.42091200  0.17896400  0.13141000  1
  Li  Li2  1  0.31668300  0.56359600  0.37936800  1
  Li  Li3  1  0.81519300  0.05611000  0.36710300  1
  Li  Li4  1  0.68949900  0.43599600  0.62400100  1
  Li  Li5  1  0.19068100  0.93745800  0.62244600  1
  Li  Li6  1  0.06936000  0.31767600  0.87159200  1
  Li  Li7  1  0.56776700  0.81551400  0.87422000  1
  Li  Li8  1  0.38759800  0.88434000  0.24979300  1
  Mn  Mn0  1  0.99075700  0.99735000  0.00681000  1
  Mn  Mn1  1  0.12505200  0.62423900  0.74601300  1
  Co  Co0  1  0.49811400  0.49885600  0.99986400  1
  Co  Co1  1  0.87203800  0.37540400  0.25144900  1
  Co  Co2  1  0.76602500  0.75496700  0.48799500  1
  Co  Co3  1  0.24888700  0.24997400  0.50269600  1
  Co  Co4  1  0.61773700  0.12283700  0.75134900  1
  O  O0  1  0.48946200  0.86196100  0.05517300  1
  O  O1  1  0.95854600  0.35735600  0.05958900  1
  O  O2  1  0.83087000  0.71857100  0.33443600  1
  O  O3  1  0.33135300  0.22979700  0.31178100  1
  O  O4  1  0.19520100  0.60281700  0.56519900  1
  O  O5  1  0.71607400  0.10504500  0.56912700  1
  O  O6  1  0.56157800  0.47338000  0.81191400  1
  O  O7  1  0.05286100  0.97775900  0.81796800  1
  O  O8  1  0.41564600  0.52415900  0.18967700  1
  O  O9  1  0.91882300  0.03287000  0.17016200  1
  O  O10  1  0.78532200  0.39439900  0.44105800  1
  O  O11  1  0.31175900  0.89487600  0.44309500  1
  O  O12  1  0.18582600  0.26824500  0.69058300  1
  O  O13  1  0.69114200  0.77389300  0.67469400  1
  O  O14  1  0.50397000  0.13595700  0.93614900  1
  O  O15  1  0.05012400  0.64842600  0.93236800  1
loop_
_geom_bond_atom_site_label_1
_geom_bond_atom_site_label_2
_geom_bond_distance
_geom_bond_site_symmetry_2
Li0 O8 2.110345 1_655
Li0 O0 2.113740 1_555
Li0 O8 2.154516 1_555
Li0 O15 2.217285 1_654
Li0 O2 2.234678 1_555
Li0 O0 2.348263 1_655
Li1 O9 1.995533 1_555
Li1 O9 2.035113 1_455
Li1 O3 2.085366 1_555
Li1 O1 2.178634 1_455
Li1 O14 2.200154 1_554
Li1 O1 2.317197 1_555
Li2 O2 2.031745 1_455
Li2 O4 2.088825 1_555
Li2 O10 2.111786 1_555
Li2 O2 2.115795 1_555
Li2 O8 2.127008 1_555
Li2 O10 2.241108 1_455
Li3 O9 2.134768 1_555
Li3 O11 2.134895 1_545
Li3 O11 2.146132 1_645
Li3 O3 2.162061 1_555
Li3 O3 2.243498 1_655
Li3 O5 2.296946 1_555
Li4 O10 2.067552 1_555
Li4 O6 2.102963 1_555
Li4 O4 2.142059 1_555
Li4 O12 2.165044 1_655
Li4 O4 2.172856 1_655
Li4 O12 2.175009 1_555
Li5 O11 2.038177 1_555
Li5 O5 2.101031 1_465
Li5 O13 2.124673 1_555
Li5 O13 2.139936 1_455
Li5 O7 2.195170 1_555
Li5 O5 2.220532 1_565
Li6 O6 2.068839 1_555
Li6 O12 2.086979 1_555
Li6 O6 2.101974 1_455
Li6 O1 2.111650 1_456
Li6 O14 2.139215 1_555
Li6 O14 2.396393 1_455
Li7 O0 2.069854 1_556
Li7 O7 2.099886 1_655
Li7 O15 2.119218 1_655
Li7 O7 2.151227 1_555
Li7 O15 2.199185 1_555
Li7 O13 2.239596 1_555
Li8 O9 2.026145 1_465
Li8 O11 2.050849 1_555
Li8 O2 2.092236 1_555
Li8 O0 2.107335 1_555
Li8 O9 2.115788 1_565
Li8 O2 2.280783 1_455
Mn0 O9 1.838468 1_565
Mn0 O0 1.945199 1_655
Mn0 O0 1.956835 1_555
Mn0 O14 1.984292 1_564
Mn0 O14 2.008663 1_664
Mn0 O7 2.037201 1_654
Mn1 O6 1.939807 1_555
Mn1 O13 1.940022 1_455
Mn1 O4 1.959990 1_555
Mn1 O15 2.028151 1_555
Mn1 O6 2.190925 1_455
Mn1 O13 2.191622 1_555
Co0 O1 1.918526 1_556
Co0 O15 1.958230 1_555
Co0 O6 2.050509 1_555
Co0 O8 2.068286 1_556
Co0 O1 2.079185 1_456
Co0 O15 2.158247 1_655
Co1 O3 1.941882 1_655
Co1 O8 1.957865 1_555
Co1 O10 2.042049 1_555
Co1 O1 2.061970 1_555
Co1 O3 2.107021 1_555
Co1 O8 2.133244 1_655
Co2 O2 1.742200 1_555
Co2 O11 1.871469 1_555
Co2 O4 1.961466 1_655
Co2 O13 2.011621 1_555
Co2 O11 2.087060 1_655
Co2 O4 2.220965 1_555
Co3 O10 1.946291 1_455
Co3 O5 1.967406 1_555
Co3 O12 2.022255 1_555
Co3 O3 2.060006 1_555
Co3 O5 2.087171 1_455
Co3 O10 2.090493 1_555
Co4 O12 1.885993 1_555
Co4 O7 1.903284 1_645
Co4 O5 1.961503 1_555
Co4 O14 1.973352 1_555
Co4 O7 2.159325 1_545
Co4 O12 2.167186 1_655
