# generated using pymatgen
data_ErRe2
_symmetry_space_group_name_H-M   'P 1'
_cell_length_a   5.38268338
_cell_length_b   5.38268529
_cell_length_c   8.76053503
_cell_angle_alpha   90.00000000
_cell_angle_beta   90.00000000
_cell_angle_gamma   119.99786839
_symmetry_Int_Tables_number   1
_chemical_formula_structural   ErRe2
_chemical_formula_sum   'Er4 Re8'
_cell_volume   219.82061237
_cell_formula_units_Z   4
loop_
 _symmetry_equiv_pos_site_id
 _symmetry_equiv_pos_as_xyz
  1  'x, y, z'
loop_
 _atom_site_type_symbol
 _atom_site_label
 _atom_site_symmetry_multiplicity
 _atom_site_fract_x
 _atom_site_fract_y
 _atom_site_fract_z
 _atom_site_occupancy
  Er  Er0  1  0.66669090  0.33330910  0.56238733  1
  Er  Er1  1  0.33330905  0.66669095  0.43760989  1
  Er  Er2  1  0.33330905  0.66669095  0.06238911  1
  Er  Er3  1  0.66668990  0.33330910  0.93761367  1
  Re  Re0  1  0.00000011  0.99999989  0.50000816  1
  Re  Re1  1  0.00000011  0.99999989  0.99999184  1
  Re  Re2  1  0.17117392  0.34229896  0.75000100  1
  Re  Re3  1  0.17113378  0.82886622  0.75000100  1
  Re  Re4  1  0.65770104  0.82882708  0.75000100  1
  Re  Re5  1  0.82883240  0.65771227  0.24999900  1
  Re  Re6  1  0.82887200  0.17112900  0.24999900  1
  Re  Re7  1  0.34228773  0.17116760  0.24999900  1
loop_
_geom_bond_atom_site_label_1
_geom_bond_atom_site_label_2
_geom_bond_distance
_geom_bond_site_symmetry_2
Er0 Re6 3.126601 1_555
Er0 Re7 3.126719 1_555
Er0 Re5 3.126719 1_555
Er0 Re4 3.153748 1_545
Er0 Re2 3.153751 1_655
Er0 Re2 3.153858 1_555
Er0 Re4 3.153864 1_555
Er0 Re3 3.153873 1_655
Er0 Re3 3.153873 1_545
Er0 Re0 3.155122 1_645
Er0 Re0 3.155552 1_545
Er0 Re0 3.155553 1_655
Er1 Re3 3.126598 1_555
Er1 Re4 3.126715 1_555
Er1 Re2 3.126715 1_555
Er1 Re5 3.153734 1_455
Er1 Re7 3.153735 1_565
Er1 Re5 3.153848 1_555
Er1 Re7 3.153849 1_555
Er1 Re6 3.153857 1_455
Er1 Re6 3.153862 1_565
Er1 Re0 3.155148 1_555
Er1 Re0 3.155582 1_655
Er1 Re0 3.155583 1_545
Er2 Re3 3.126575 1_554
Er2 Re4 3.126692 1_554
Er2 Re2 3.126692 1_554
Er2 Re5 3.153730 1_455
Er2 Re7 3.153731 1_565
Er2 Re5 3.153844 1_555
Er2 Re7 3.153845 1_555
Er2 Re6 3.153853 1_455
Er2 Re6 3.153857 1_565
Er2 Re1 3.155147 1_554
Er2 Re1 3.155581 1_654
Er2 Re1 3.155582 1_544
Er3 Re6 3.126580 1_556
Er3 Re7 3.126693 1_556
Er3 Re5 3.126696 1_556
Er3 Re4 3.153745 1_545
Er3 Re2 3.153751 1_655
Er3 Re2 3.153849 1_555
Er3 Re4 3.153857 1_555
Er3 Re3 3.153866 1_545
Er3 Re3 3.153871 1_655
Er3 Re1 3.155125 1_645
Er3 Re1 3.155546 1_545
Er3 Re1 3.155552 1_655
Re0 Re3 2.709604 1_555
Re0 Re6 2.709692 1_465
Re0 Re4 2.709722 1_455
Re0 Re2 2.709722 1_565
Re0 Re7 2.709806 1_565
Re0 Re5 2.709806 1_455
Re1 Re3 2.709590 1_555
Re1 Re6 2.709678 1_466
Re1 Re4 2.709707 1_455
Re1 Re2 2.709708 1_565
Re1 Re7 2.709791 1_566
Re1 Re5 2.709792 1_456
Re2 Re4 2.618909 1_555
Re2 Re3 2.619146 1_555
Re2 Re3 2.763539 1_545
Re2 Re4 2.763949 1_445
Re3 Re4 2.619143 1_555
Re3 Re4 2.763541 1_455
Re5 Re7 2.619001 1_555
Re5 Re6 2.619231 1_555
Re5 Re6 2.763454 1_565
Re5 Re7 2.763857 1_665
Re6 Re7 2.619233 1_555
Re6 Re7 2.763450 1_655
