# generated using pymatgen
data_KLa(CuO2)2
_symmetry_space_group_name_H-M   'P 1'
_cell_length_a   3.94564600
_cell_length_b   3.94564600
_cell_length_c   7.34517100
_cell_angle_alpha   90.00000000
_cell_angle_beta   90.00000000
_cell_angle_gamma   90.00000000
_symmetry_Int_Tables_number   1
_chemical_formula_structural   KLa(CuO2)2
_chemical_formula_sum   'K1 La1 Cu2 O4'
_cell_volume   114.35052086
_cell_formula_units_Z   1
loop_
 _symmetry_equiv_pos_site_id
 _symmetry_equiv_pos_as_xyz
  1  'x, y, z'
loop_
 _atom_site_type_symbol
 _atom_site_label
 _atom_site_symmetry_multiplicity
 _atom_site_fract_x
 _atom_site_fract_y
 _atom_site_fract_z
 _atom_site_occupancy
  K  K0  1  0.00000000  0.00000000  0.00000000  1
  La  La0  1  0.00000000  0.00000000  0.50000000  1
  Cu  Cu0  1  0.50000000  0.50000000  0.73384700  1
  Cu  Cu1  1  0.50000000  0.50000000  0.26615300  1
  O  O0  1  0.00000000  0.50000000  0.71343200  1
  O  O1  1  0.50000000  0.00000000  0.71343200  1
  O  O2  1  0.00000000  0.50000000  0.28656800  1
  O  O3  1  0.50000000  0.00000000  0.28656800  1
loop_
_geom_bond_atom_site_label_1
_geom_bond_atom_site_label_2
_geom_bond_distance
_geom_bond_site_symmetry_2
K0 O3 2.884891 1_555
K0 O2 2.884891 1_545
K0 O2 2.884891 1_555
K0 O0 2.884891 1_544
K0 O1 2.884891 1_554
K0 O1 2.884891 1_454
K0 O3 2.884891 1_455
K0 O0 2.884891 1_554
La0 O3 2.519860 1_455
La0 O3 2.519860 1_555
La0 O2 2.519860 1_555
La0 O0 2.519860 1_555
La0 O2 2.519860 1_545
La0 O1 2.519860 1_455
La0 O1 2.519860 1_555
La0 O0 2.519860 1_545
Cu0 O1 1.978514 1_555
Cu0 O1 1.978514 1_565
Cu0 O0 1.978514 1_655
Cu0 O0 1.978514 1_555
Cu1 O2 1.978514 1_655
Cu1 O3 1.978514 1_565
Cu1 O3 1.978514 1_555
Cu1 O2 1.978514 1_555
