# generated using pymatgen
data_Mg14NbC
_symmetry_space_group_name_H-M   'P 1'
_cell_length_a   6.24520853
_cell_length_b   6.24520804
_cell_length_c   9.70143584
_cell_angle_alpha   90.00000000
_cell_angle_beta   90.00000000
_cell_angle_gamma   120.00000252
_symmetry_Int_Tables_number   1
_chemical_formula_structural   Mg14NbC
_chemical_formula_sum   'Mg14 Nb1 C1'
_cell_volume   327.68796481
_cell_formula_units_Z   1
loop_
 _symmetry_equiv_pos_site_id
 _symmetry_equiv_pos_as_xyz
  1  'x, y, z'
loop_
 _atom_site_type_symbol
 _atom_site_label
 _atom_site_symmetry_multiplicity
 _atom_site_fract_x
 _atom_site_fract_y
 _atom_site_fract_z
 _atom_site_occupancy
  Mg  Mg0  1  0.17600580  0.83800240  0.12500000  1
  Mg  Mg1  1  0.16093810  0.83046855  0.62500000  1
  Mg  Mg2  1  0.66199760  0.32399420  0.12500000  1
  Mg  Mg3  1  0.66953145  0.33906190  0.62500000  1
  Mg  Mg4  1  0.66199760  0.83800240  0.12500000  1
  Mg  Mg5  1  0.66953145  0.83046855  0.62500000  1
  Mg  Mg6  1  0.32123114  0.17876886  0.38741486  1
  Mg  Mg7  1  0.32123114  0.17876886  0.86258514  1
  Mg  Mg8  1  0.32123114  0.64246327  0.38741486  1
  Mg  Mg9  1  0.32123114  0.64246327  0.86258514  1
  Mg  Mg10  1  0.85753673  0.17876886  0.38741486  1
  Mg  Mg11  1  0.85753673  0.17876886  0.86258514  1
  Mg  Mg12  1  0.83333300  0.66666700  0.36719538  1
  Mg  Mg13  1  0.83333300  0.66666700  0.88280462  1
  Nb  Nb0  1  0.16666700  0.33333300  0.12500000  1
  C  C0  1  0.16666700  0.33333300  0.62500000  1
loop_
_geom_bond_atom_site_label_1
_geom_bond_atom_site_label_2
_geom_bond_distance
_geom_bond_site_symmetry_2
Mg0 Mg12 2.992612 1_455
Mg0 Mg13 2.992612 1_454
Mg0 Mg2 3.035120 1_565
Mg0 Mg4 3.035120 1_555
Mg0 Nb0 3.123012 1_555
Mg0 Nb0 3.123012 1_565
Mg0 Mg8 3.146830 1_555
Mg0 Mg9 3.146830 1_554
Mg0 Mg6 3.146836 1_565
Mg0 Mg7 3.146836 1_564
Mg0 Mg2 3.210088 1_455
Mg0 Mg4 3.210088 1_455
Mg1 Mg9 2.978043 1_555
Mg1 Mg8 2.978043 1_555
Mg1 Mg7 2.978049 1_565
Mg1 Mg6 2.978049 1_565
Mg1 Mg12 3.065101 1_455
Mg1 Mg13 3.065101 1_455
Mg1 Mg3 3.068937 1_455
Mg1 Mg5 3.068937 1_455
Mg1 Mg3 3.176271 1_565
Mg1 Mg5 3.176272 1_555
Mg2 Mg4 3.035120 1_545
Mg2 Nb0 3.123013 1_555
Mg2 Nb0 3.123013 1_655
Mg2 Mg6 3.146836 1_555
Mg2 Mg7 3.146836 1_554
Mg2 Mg4 3.210088 1_555
Mg3 Mg7 2.978050 1_555
Mg3 Mg6 2.978050 1_555
Mg3 Mg5 3.068937 1_555
Mg3 Mg5 3.176271 1_545
Mg4 Nb0 3.123012 1_555
Mg4 Nb0 3.123013 1_665
Mg4 Mg8 3.146836 1_555
Mg4 Mg9 3.146836 1_554
Mg5 Mg9 2.978049 1_555
Mg5 Mg8 2.978049 1_555
Mg6 Nb0 3.045723 1_555
Mg7 Nb0 3.045723 1_556
Mg8 Nb0 3.045729 1_555
Mg9 Nb0 3.045729 1_556
Mg10 Mg3 2.978043 1_555
Mg10 Mg5 2.978049 1_545
Mg10 Nb0 3.045729 1_655
Mg10 Mg12 3.131496 1_545
Mg10 Mg12 3.131497 1_555
Mg10 Mg2 3.146830 1_555
Mg10 Mg4 3.146836 1_545
Mg11 Mg3 2.978043 1_555
Mg11 Mg5 2.978049 1_545
Mg11 Nb0 3.045729 1_656
Mg11 Mg13 3.131496 1_545
Mg11 Mg13 3.131497 1_555
Mg11 Mg2 3.146830 1_556
Mg11 Mg4 3.146836 1_546
Mg12 Mg4 2.992605 1_555
Mg12 Mg2 2.992612 1_555
Mg12 Mg5 3.065095 1_555
Mg12 Mg3 3.065101 1_555
Mg12 Mg6 3.131496 1_665
Mg12 Mg6 3.131496 1_555
Mg12 Mg8 3.131497 1_555
Mg12 Mg8 3.131497 1_655
Mg13 Mg4 2.992605 1_556
Mg13 Mg2 2.992612 1_556
Mg13 Mg5 3.065095 1_555
Mg13 Mg3 3.065101 1_555
Mg13 Mg7 3.131496 1_665
Mg13 Mg7 3.131496 1_555
Mg13 Mg9 3.131497 1_555
Mg13 Mg9 3.131497 1_655
C0 Mg6 2.847450 1_555
C0 Mg7 2.847450 1_555
C0 Mg8 2.847456 1_555
C0 Mg9 2.847456 1_555
C0 Mg10 2.847456 1_455
C0 Mg11 2.847456 1_455
