# generated using pymatgen
data_MoH8N2O5F2
_symmetry_space_group_name_H-M   'P 1'
_cell_length_a   7.98307226
_cell_length_b   7.66155061
_cell_length_c   6.17743046
_cell_angle_alpha   84.18249279
_cell_angle_beta   110.19056665
_cell_angle_gamma   97.72805827
_symmetry_Int_Tables_number   1
_chemical_formula_structural   MoH8N2O5F2
_chemical_formula_sum   'Mo2 H16 N4 O10 F4'
_cell_volume   350.77618465
_cell_formula_units_Z   2
loop_
 _symmetry_equiv_pos_site_id
 _symmetry_equiv_pos_as_xyz
  1  'x, y, z'
loop_
 _atom_site_type_symbol
 _atom_site_label
 _atom_site_symmetry_multiplicity
 _atom_site_fract_x
 _atom_site_fract_y
 _atom_site_fract_z
 _atom_site_occupancy
  Mo  Mo0  1  0.74126600  0.79914100  0.90677000  1
  Mo  Mo1  1  0.25873400  0.20085900  0.09323000  1
  H  H0  1  0.56291300  0.30448000  0.89933700  1
  H  H1  1  0.43708700  0.69552000  0.10066300  1
  H  H2  1  0.61618800  0.19041900  0.71465800  1
  H  H3  1  0.38381200  0.80958100  0.28534200  1
  H  H4  1  0.44536200  0.31813100  0.61159700  1
  H  H5  1  0.55463800  0.68186900  0.38840300  1
  H  H6  1  0.65729700  0.41787400  0.71267000  1
  H  H7  1  0.34270300  0.58212600  0.28733000  1
  H  H8  1  0.95524200  0.70705600  0.61349000  1
  H  H9  1  0.04475800  0.29294400  0.38651000  1
  H  H10  1  0.14114500  0.85288700  0.63931500  1
  H  H11  1  0.85885500  0.14711300  0.36068500  1
  H  H12  1  0.15714100  0.63490700  0.66411000  1
  H  H13  1  0.84285900  0.36509300  0.33589000  1
  H  H14  1  0.04811400  0.73507200  0.40106900  1
  H  H15  1  0.95188600  0.26492800  0.59893100  1
  N  N0  1  0.57186500  0.30668400  0.73621800  1
  N  N1  1  0.42813500  0.69331600  0.26378200  1
  N  N2  1  0.07614300  0.73257900  0.57945200  1
  N  N3  1  0.92385700  0.26742100  0.42054800  1
  O  O0  1  0.72692200  0.93377300  0.10552300  1
  O  O1  1  0.27307800  0.06622700  0.89447700  1
  O  O2  1  0.67892300  0.96707400  0.62674700  1
  O  O3  1  0.32107700  0.03292600  0.37325300  1
  O  O4  1  0.87374000  0.96086700  0.74143500  1
  O  O5  1  0.12626000  0.03913300  0.25856500  1
  O  O6  1  0.96255400  0.69024300  0.08910200  1
  O  O7  1  0.03744600  0.30975700  0.91089800  1
  O  O8  1  0.80086800  0.57619000  0.09953800  1
  O  O9  1  0.19913200  0.42381000  0.90046200  1
  F  F0  1  0.48346700  0.69469100  0.81568000  1
  F  F1  1  0.51653300  0.30530900  0.18432000  1
  F  F2  1  0.73868900  0.62368600  0.63252500  1
  F  F3  1  0.26131100  0.37631400  0.36747500  1
loop_
_geom_bond_atom_site_label_1
_geom_bond_atom_site_label_2
_geom_bond_distance
_geom_bond_site_symmetry_2
Mo0 O0 1.723393 1_556
Mo0 O4 1.957929 1_555
Mo0 O6 1.979360 1_556
Mo0 O8 1.994322 1_556
Mo0 O2 2.005529 1_555
Mo1 O1 1.723393 1_554
Mo1 O5 1.957929 1_555
Mo1 O7 1.979360 1_554
Mo1 O9 1.994322 1_554
Mo1 O3 2.005529 1_555
H0 N0 1.032811 1_555
H1 N1 1.032811 1_555
H2 N0 1.038150 1_555
H3 N1 1.038150 1_555
H4 N0 1.045790 1_555
H5 N1 1.045790 1_555
H6 N0 1.048388 1_555
H7 N1 1.048388 1_555
H8 N2 1.046414 1_655
H9 N3 1.046414 1_455
H10 N2 1.031329 1_555
H11 N3 1.031329 1_555
H12 N2 1.033905 1_555
H13 N3 1.033905 1_555
H14 N2 1.044702 1_555
H15 N3 1.044702 1_555
O2 O4 1.474935 1_555
O3 O5 1.474935 1_555
O6 O8 1.475277 1_555
O7 O9 1.475277 1_555
F0 Mo0 2.010342 1_555
F1 Mo1 2.010342 1_555
F2 Mo0 2.260021 1_555
F3 Mo1 2.260021 1_555
