# generated using pymatgen
data_Dy6Ag(GeS7)2
_symmetry_space_group_name_H-M   'P 1'
_cell_length_a   9.84708546
_cell_length_b   9.84708546
_cell_length_c   5.79314300
_cell_angle_alpha   90.00000000
_cell_angle_beta   90.00000000
_cell_angle_gamma   119.99999634
_symmetry_Int_Tables_number   1
_chemical_formula_structural   Dy6Ag(GeS7)2
_chemical_formula_sum   'Dy6 Ag1 Ge2 S14'
_cell_volume   486.47475755
_cell_formula_units_Z   1
loop_
 _symmetry_equiv_pos_site_id
 _symmetry_equiv_pos_as_xyz
  1  'x, y, z'
loop_
 _atom_site_type_symbol
 _atom_site_label
 _atom_site_symmetry_multiplicity
 _atom_site_fract_x
 _atom_site_fract_y
 _atom_site_fract_z
 _atom_site_occupancy
  Dy  Dy0  1  0.86426900  0.64239100  0.74374800  1
  Dy  Dy1  1  0.77812300  0.13573100  0.74374800  1
  Dy  Dy2  1  0.35760900  0.22187700  0.74374800  1
  Dy  Dy3  1  0.13491800  0.35583200  0.24416600  1
  Dy  Dy4  1  0.22091400  0.86508200  0.24416600  1
  Dy  Dy5  1  0.64416800  0.77908600  0.24416600  1
  Ag  Ag0  1  0.00000000  0.00000000  0.48121500  1
  Ge  Ge0  1  0.33333300  0.66666700  0.82094800  1
  Ge  Ge1  1  0.66666700  0.33333300  0.32467000  1
  S  S0  1  0.90077800  0.74097400  0.20686100  1
  S  S1  1  0.84019600  0.09922200  0.20686100  1
  S  S2  1  0.25902600  0.15980400  0.20686100  1
  S  S3  1  0.10429700  0.26430600  0.70299700  1
  S  S4  1  0.16000900  0.89570300  0.70299700  1
  S  S5  1  0.73569400  0.83999100  0.70299700  1
  S  S6  1  0.33333300  0.66666700  0.44094400  1
  S  S7  1  0.66666700  0.33333300  0.94409900  1
  S  S8  1  0.57714600  0.48001300  0.48695100  1
  S  S9  1  0.90286700  0.42285400  0.48695100  1
  S  S10  1  0.51998700  0.09713300  0.48695100  1
  S  S11  1  0.42266800  0.51918400  0.98426200  1
  S  S12  1  0.09651600  0.57733200  0.98426200  1
  S  S13  1  0.48081600  0.90348400  0.98426200  1
loop_
_geom_bond_atom_site_label_1
_geom_bond_atom_site_label_2
_geom_bond_distance
_geom_bond_site_symmetry_2
Dy0 S4 2.737585 1_655
Dy0 S9 2.802254 1_555
Dy0 S5 2.812174 1_555
Dy0 S0 2.814332 1_556
Dy0 S8 2.871027 1_555
Dy0 S7 2.910908 1_555
Dy0 S12 3.007837 1_655
Dy0 S0 3.224338 1_555
Dy1 S5 2.737582 1_545
Dy1 S10 2.802262 1_555
Dy1 S3 2.812165 1_655
Dy1 S1 2.814329 1_556
Dy1 S9 2.871027 1_555
Dy1 S7 2.910908 1_555
Dy1 S13 3.007843 1_545
Dy1 S1 3.224335 1_555
Dy2 S3 2.737591 1_555
Dy2 S8 2.802259 1_555
Dy2 S4 2.812167 1_545
Dy2 S2 2.814331 1_556
Dy2 S10 2.871019 1_555
Dy2 S7 2.910908 1_555
Dy2 S11 3.007845 1_555
Dy2 S2 3.224337 1_555
Dy3 S1 2.742423 1_455
Dy3 S2 2.761402 1_555
Dy3 S3 2.774310 1_555
Dy3 S12 2.827035 1_554
Dy3 S11 2.885366 1_554
Dy3 S6 2.916375 1_555
Dy3 S9 3.023767 1_455
Dy3 S3 3.234208 1_554
Dy4 S2 2.742423 1_565
Dy4 S0 2.761402 1_455
Dy4 S4 2.774310 1_555
Dy4 S13 2.827035 1_554
Dy4 S12 2.885366 1_554
Dy4 S6 2.916368 1_555
Dy4 S10 3.023767 1_565
Dy4 S4 3.234208 1_554
Dy5 S0 2.742423 1_555
Dy5 S1 2.761402 1_565
Dy5 S5 2.774310 1_555
Dy5 S11 2.827035 1_554
Dy5 S13 2.885366 1_554
Dy5 S6 2.916376 1_555
Dy5 S8 3.023767 1_555
Dy5 S5 3.234208 1_554
Ag0 S4 2.608890 1_545
Ag0 S3 2.608890 1_555
Ag0 S5 2.608890 1_445
Ag0 S1 2.737597 1_455
Ag0 S0 2.737597 1_445
Ag0 S2 2.737597 1_555
Ge0 S6 2.201418 1_555
Ge0 S12 2.248463 1_555
Ge0 S13 2.248465 1_555
Ge0 S11 2.248472 1_555
Ge1 S7 2.204702 1_554
Ge1 S9 2.240605 1_555
Ge1 S10 2.240606 1_555
Ge1 S8 2.240613 1_555
