# generated using pymatgen
data_Mg4FeO5
_symmetry_space_group_name_H-M   'P 1'
_cell_length_a   5.22685241
_cell_length_b   5.22779256
_cell_length_c   15.50444454
_cell_angle_alpha   83.52483188
_cell_angle_beta   83.52623494
_cell_angle_gamma   109.21065948
_symmetry_Int_Tables_number   1
_chemical_formula_structural   Mg4FeO5
_chemical_formula_sum   'Mg16 Fe4 O20'
_cell_volume   392.41146723
_cell_formula_units_Z   4
loop_
 _symmetry_equiv_pos_site_id
 _symmetry_equiv_pos_as_xyz
  1  'x, y, z'
loop_
 _atom_site_type_symbol
 _atom_site_label
 _atom_site_symmetry_multiplicity
 _atom_site_fract_x
 _atom_site_fract_y
 _atom_site_fract_z
 _atom_site_occupancy
  Mg  Mg0  1  0.19897900  0.19897900  0.60193800  1
  Mg  Mg1  1  0.69886300  0.69885300  0.60206400  1
  Mg  Mg2  1  0.44988400  0.94920200  0.10097400  1
  Mg  Mg3  1  0.94921100  0.44987300  0.10098200  1
  Mg  Mg4  1  0.05078200  0.55012900  0.89902100  1
  Mg  Mg5  1  0.55013300  0.05078200  0.89902400  1
  Mg  Mg6  1  0.30114900  0.30115200  0.39791900  1
  Mg  Mg7  1  0.80099800  0.80100200  0.39807900  1
  Mg  Mg8  1  0.14953600  0.64950800  0.70103900  1
  Mg  Mg9  1  0.64954400  0.14956000  0.70098500  1
  Mg  Mg10  1  0.39944900  0.39944200  0.20041400  1
  Mg  Mg11  1  0.89904500  0.89903600  0.20150000  1
  Mg  Mg12  1  0.10094900  0.10094200  0.79850200  1
  Mg  Mg13  1  0.60055700  0.60055200  0.79958600  1
  Mg  Mg14  1  0.35048900  0.85045500  0.29896000  1
  Mg  Mg15  1  0.85043600  0.35045000  0.29901500  1
  Fe  Fe0  1  0.24994000  0.75003000  0.49999800  1
  Fe  Fe1  1  0.49998700  0.50002000  0.99999500  1
  Fe  Fe2  1  0.74991600  0.25002500  0.50000600  1
  Fe  Fe3  1  0.00012800  0.00010100  0.00000600  1
  O  O0  1  0.50037400  0.49960500  0.50000200  1
  O  O1  1  0.99961500  0.00039300  0.49999500  1
  O  O2  1  0.74424000  0.25577600  0.00000400  1
  O  O3  1  0.25576300  0.74421300  0.99999800  1
  O  O4  1  0.35062600  0.84933000  0.80039800  1
  O  O5  1  0.84932200  0.35060600  0.80039800  1
  O  O6  1  0.59985800  0.59971500  0.30044800  1
  O  O7  1  0.09968600  0.09981300  0.30032000  1
  O  O8  1  0.90017500  0.90030000  0.69967800  1
  O  O9  1  0.40028600  0.40014300  0.69955100  1
  O  O10  1  0.15066900  0.64937200  0.19959900  1
  O  O11  1  0.64938700  0.15066600  0.19960200  1
  O  O12  1  0.80715800  0.80714700  0.89570400  1
  O  O13  1  0.29900100  0.29901000  0.89523400  1
  O  O14  1  0.05287500  0.55288400  0.39495300  1
  O  O15  1  0.55220100  0.05219900  0.39495500  1
  O  O16  1  0.44709100  0.94713700  0.60504600  1
  O  O17  1  0.94783700  0.44776100  0.60504100  1
  O  O18  1  0.70100600  0.70098700  0.10476500  1
  O  O19  1  0.19285700  0.19285000  0.10430300  1
loop_
_geom_bond_atom_site_label_1
_geom_bond_atom_site_label_2
_geom_bond_distance
_geom_bond_site_symmetry_2
Mg0 O9 2.119773 1_555
Mg0 O8 2.121681 1_445
Mg0 O17 2.130809 1_455
Mg0 O16 2.130939 1_545
Mg0 O1 2.165968 1_455
Mg0 O0 2.167618 1_555
Mg1 O9 2.119109 1_555
Mg1 O8 2.120409 1_555
Mg1 O16 2.131330 1_555
Mg1 O17 2.131372 1_555
Mg1 O0 2.167065 1_555
Mg1 O1 2.169359 1_565
Mg2 O18 2.128657 1_555
Mg2 O11 2.129571 1_565
Mg2 O10 2.132596 1_555
Mg2 O19 2.134297 1_565
Mg2 O3 2.156384 1_554
Mg2 O2 2.157498 1_565
Mg3 O18 2.128584 1_555
Mg3 O10 2.129406 1_655
Mg3 O11 2.132523 1_555
Mg3 O19 2.134281 1_655
Mg3 O2 2.156309 1_555
Mg3 O3 2.157523 1_654
Mg4 O13 2.128666 1_555
Mg4 O5 2.129538 1_455
Mg4 O4 2.132579 1_555
Mg4 O12 2.134166 1_455
Mg4 O3 2.156292 1_555
Mg4 O2 2.157519 1_456
Mg5 O13 2.128755 1_555
Mg5 O4 2.129528 1_545
Mg5 O5 2.132536 1_555
Mg5 O12 2.134230 1_545
Mg5 O2 2.156418 1_556
Mg5 O3 2.157550 1_545
Mg6 O6 2.118941 1_555
Mg6 O7 2.120309 1_555
Mg6 O15 2.131108 1_555
Mg6 O14 2.131113 1_555
Mg6 O0 2.167213 1_555
Mg6 O1 2.169421 1_455
Mg7 O6 2.119909 1_555
Mg7 O7 2.121878 1_665
Mg7 O15 2.131114 1_565
Mg7 O14 2.131118 1_655
Mg7 O1 2.165741 1_565
Mg7 O0 2.167505 1_555
Mg8 O17 2.101263 1_455
Mg8 O16 2.101939 1_555
Mg8 O9 2.131219 1_555
Mg8 O8 2.131361 1_455
Mg8 O4 2.138847 1_555
Mg8 O5 2.139050 1_455
Mg9 O16 2.103629 1_545
Mg9 O17 2.104384 1_555
Mg9 O9 2.130043 1_555
Mg9 O8 2.130237 1_545
Mg9 O5 2.139356 1_555
Mg9 O4 2.139585 1_545
Mg10 O18 2.116407 1_555
Mg10 O19 2.123997 1_555
Mg10 O10 2.125148 1_555
Mg10 O11 2.125165 1_555
Mg10 O7 2.144352 1_555
Mg10 O6 2.147052 1_555
Mg11 O18 2.094743 1_555
Mg11 O19 2.095816 1_665
Mg11 O7 2.132991 1_665
Mg11 O6 2.134207 1_555
Mg11 O10 2.136293 1_655
Mg11 O11 2.136293 1_565
Mg12 O13 2.094774 1_555
Mg12 O12 2.095773 1_445
Mg12 O8 2.133038 1_445
Mg12 O9 2.134297 1_555
Mg12 O4 2.136296 1_545
Mg12 O5 2.136304 1_455
Mg13 O13 2.116390 1_555
Mg13 O12 2.124112 1_555
Mg13 O4 2.125143 1_555
Mg13 O5 2.125153 1_555
Mg13 O8 2.144314 1_555
Mg13 O9 2.147061 1_555
Mg14 O15 2.101247 1_565
Mg14 O14 2.101941 1_555
Mg14 O6 2.131194 1_555
Mg14 O7 2.131395 1_565
Mg14 O10 2.138855 1_555
Mg14 O11 2.139028 1_565
Mg15 O14 2.103609 1_655
Mg15 O15 2.104334 1_555
Mg15 O6 2.130051 1_555
Mg15 O7 2.130220 1_655
Mg15 O11 2.139374 1_555
Mg15 O10 2.139624 1_655
Fe0 O1 2.133541 1_465
Fe0 O0 2.134269 1_555
Fe0 O14 2.198633 1_555
Fe0 O16 2.198770 1_555
Fe0 O17 2.200102 1_455
Fe0 O15 2.200222 1_565
Fe1 O3 2.081251 1_555
Fe1 O2 2.081592 1_556
Fe1 O13 2.211187 1_555
Fe1 O18 2.211283 1_556
Fe1 O12 2.214244 1_555
Fe1 O19 2.214398 1_556
Fe2 O0 2.126867 1_555
Fe2 O1 2.127758 1_555
Fe2 O15 2.201481 1_555
Fe2 O17 2.201512 1_555
Fe2 O16 2.202868 1_545
Fe2 O14 2.203203 1_655
Fe3 O19 2.170689 1_555
Fe3 O12 2.171677 1_444
Fe3 O3 2.179711 1_544
Fe3 O2 2.179881 1_455
Fe3 O13 2.183980 1_554
Fe3 O18 2.184803 1_445
