# generated using pymatgen
data_Lu6Fe23
_symmetry_space_group_name_H-M   'P 1'
_cell_length_a   8.41535276
_cell_length_b   8.41535276
_cell_length_c   8.41535276
_cell_angle_alpha   60.00000000
_cell_angle_beta   60.00000000
_cell_angle_gamma   60.00000000
_symmetry_Int_Tables_number   1
_chemical_formula_structural   Lu6Fe23
_chemical_formula_sum   'Lu6 Fe23'
_cell_volume   421.40722641
_cell_formula_units_Z   1
loop_
 _symmetry_equiv_pos_site_id
 _symmetry_equiv_pos_as_xyz
  1  'x, y, z'
loop_
 _atom_site_type_symbol
 _atom_site_label
 _atom_site_symmetry_multiplicity
 _atom_site_fract_x
 _atom_site_fract_y
 _atom_site_fract_z
 _atom_site_occupancy
  Lu  Lu0  1  0.70739600  0.70739600  0.29260400  1
  Lu  Lu1  1  0.29260400  0.70739600  0.29260400  1
  Lu  Lu2  1  0.70739600  0.29260400  0.29260400  1
  Lu  Lu3  1  0.29260400  0.29260400  0.70739600  1
  Lu  Lu4  1  0.70739600  0.29260400  0.70739600  1
  Lu  Lu5  1  0.29260400  0.70739600  0.70739600  1
  Fe  Fe0  1  0.00000000  0.00000000  0.00000000  1
  Fe  Fe1  1  0.00000000  0.00000000  0.50000000  1
  Fe  Fe2  1  0.50000000  0.00000000  0.50000000  1
  Fe  Fe3  1  0.00000000  0.50000000  0.50000000  1
  Fe  Fe4  1  0.50000000  0.50000000  0.00000000  1
  Fe  Fe5  1  0.00000000  0.50000000  0.00000000  1
  Fe  Fe6  1  0.50000000  0.00000000  0.00000000  1
  Fe  Fe7  1  0.87906100  0.87906100  0.36281800  1
  Fe  Fe8  1  0.87906100  0.36281800  0.87906100  1
  Fe  Fe9  1  0.36281800  0.87906100  0.87906100  1
  Fe  Fe10  1  0.87906100  0.87906100  0.87906100  1
  Fe  Fe11  1  0.12093900  0.12093900  0.63718200  1
  Fe  Fe12  1  0.12093900  0.63718200  0.12093900  1
  Fe  Fe13  1  0.63718200  0.12093900  0.12093900  1
  Fe  Fe14  1  0.12093900  0.12093900  0.12093900  1
  Fe  Fe15  1  0.67448500  0.67448500  0.97654400  1
  Fe  Fe16  1  0.67448500  0.97654400  0.67448500  1
  Fe  Fe17  1  0.97654400  0.67448500  0.67448500  1
  Fe  Fe18  1  0.67448500  0.67448500  0.67448500  1
  Fe  Fe19  1  0.32551500  0.32551500  0.02345600  1
  Fe  Fe20  1  0.32551500  0.02345600  0.32551500  1
  Fe  Fe21  1  0.02345600  0.32551500  0.32551500  1
  Fe  Fe22  1  0.32551500  0.32551500  0.32551500  1
loop_
_geom_bond_atom_site_label_1
_geom_bond_atom_site_label_2
_geom_bond_distance
_geom_bond_site_symmetry_2
Fe0 Fe10 2.492954 1_444
Fe0 Fe14 2.492954 1_555
Fe0 Fe12 2.492961 1_545
Fe0 Fe9 2.492961 1_544
Fe0 Fe11 2.492961 1_554
Fe0 Fe7 2.492961 1_445
Fe0 Fe8 2.492961 1_454
Fe0 Fe13 2.492961 1_455
Fe1 Fe16 2.434646 1_445
Fe1 Fe20 2.434646 1_555
Fe1 Fe17 2.434646 1_445
Fe1 Fe21 2.434646 1_555
Fe1 Fe11 2.605757 1_555
Fe1 Fe7 2.605757 1_445
Fe1 Fe14 2.605764 1_555
Fe1 Fe10 2.605764 1_445
Fe1 Lu2 3.018171 1_455
Fe1 Lu1 3.018171 1_545
Fe1 Lu5 3.018171 1_545
Fe1 Lu4 3.018171 1_455
Fe2 Fe20 2.434639 1_555
Fe2 Fe22 2.434643 1_555
Fe2 Fe7 2.605764 1_545
Fe2 Fe9 2.605764 1_545
Fe2 Lu3 3.018171 1_555
Fe2 Lu5 3.018171 1_545
Fe2 Lu0 3.018171 1_545
Fe2 Lu2 3.018171 1_555
Fe3 Fe8 2.605764 1_455
Fe3 Fe7 2.605764 1_455
Fe3 Lu3 3.018171 1_555
Fe3 Lu1 3.018171 1_555
Fe3 Lu0 3.018171 1_455
Fe3 Lu4 3.018171 1_455
Fe4 Fe8 2.605764 1_554
Fe4 Fe9 2.605764 1_554
Fe4 Lu5 3.018171 1_554
Fe4 Lu1 3.018171 1_555
Fe4 Lu4 3.018171 1_554
Fe4 Lu2 3.018171 1_555
Fe5 Fe8 2.605757 1_454
Fe5 Lu2 3.018171 1_455
Fe5 Lu3 3.018171 1_554
Fe5 Lu0 3.018171 1_455
Fe5 Lu5 3.018171 1_554
Fe6 Fe9 2.605757 1_544
Fe6 Lu0 3.018171 1_545
Fe6 Lu3 3.018171 1_554
Fe6 Lu1 3.018171 1_545
Fe6 Lu4 3.018171 1_554
Fe7 Lu1 2.883933 1_655
Fe7 Lu2 2.883933 1_565
Fe7 Lu0 2.883940 1_555
Fe8 Lu3 2.883933 1_655
Fe8 Lu2 2.883933 1_556
Fe8 Lu4 2.883940 1_555
Fe9 Lu1 2.883933 1_556
Fe9 Lu3 2.883933 1_565
Fe9 Lu5 2.883940 1_555
Fe10 Fe17 2.596127 1_555
Fe10 Fe16 2.596127 1_555
Fe10 Fe15 2.596127 1_555
Fe10 Fe5 2.605764 1_656
Fe10 Fe6 2.605764 1_566
Fe10 Fe13 2.878616 1_566
Fe10 Fe12 2.878616 1_656
Fe10 Fe11 2.878616 1_665
Fe10 Lu5 2.883934 1_655
Fe10 Lu0 2.883934 1_556
Fe10 Lu4 2.883934 1_565
Fe11 Fe21 2.596113 1_555
Fe11 Fe20 2.596113 1_555
Fe11 Fe22 2.596121 1_555
Fe11 Fe2 2.605764 1_555
Fe11 Fe3 2.605764 1_555
Fe11 Fe9 2.878628 1_545
Fe11 Fe8 2.878628 1_455
Fe11 Lu5 2.883933 1_545
Fe11 Lu4 2.883933 1_455
Fe11 Lu3 2.883940 1_555
Fe12 Fe21 2.596113 1_555
Fe12 Fe19 2.596113 1_555
Fe12 Fe22 2.596121 1_555
Fe12 Fe5 2.605757 1_555
Fe12 Fe3 2.605764 1_555
Fe12 Fe4 2.605764 1_555
Fe12 Fe9 2.878628 1_554
Fe12 Fe7 2.878628 1_455
Fe12 Lu0 2.883933 1_455
Fe12 Lu5 2.883933 1_554
Fe12 Lu1 2.883940 1_555
Fe13 Fe20 2.596113 1_555
Fe13 Fe19 2.596113 1_555
Fe13 Fe22 2.596121 1_555
Fe13 Fe6 2.605757 1_555
Fe13 Fe4 2.605764 1_555
Fe13 Fe2 2.605764 1_555
Fe13 Fe7 2.878628 1_545
Fe13 Fe8 2.878628 1_554
Fe13 Lu4 2.883933 1_554
Fe13 Lu0 2.883933 1_545
Fe13 Lu2 2.883940 1_555
Fe14 Fe20 2.596127 1_555
Fe14 Fe21 2.596127 1_555
Fe14 Fe19 2.596127 1_555
Fe14 Fe5 2.605764 1_555
Fe14 Fe6 2.605764 1_555
Fe14 Fe8 2.878616 1_454
Fe14 Fe7 2.878616 1_445
Fe14 Fe9 2.878616 1_544
Fe14 Lu2 2.883934 1_455
Fe14 Lu1 2.883934 1_545
Fe14 Lu3 2.883934 1_554
Fe15 Fe4 2.434639 1_556
Fe15 Fe5 2.434646 1_656
Fe15 Fe6 2.434646 1_566
Fe15 Fe18 2.541933 1_555
Fe15 Fe16 2.541933 1_555
Fe15 Fe17 2.541933 1_555
Fe15 Fe8 2.596113 1_555
Fe15 Fe9 2.596113 1_555
Fe15 Lu2 2.962713 1_556
Fe15 Lu1 2.962713 1_556
Fe15 Lu0 2.962718 1_556
Fe16 Fe2 2.434639 1_565
Fe16 Fe6 2.434646 1_566
Fe16 Fe18 2.541933 1_555
Fe16 Fe17 2.541933 1_555
Fe16 Fe9 2.596113 1_555
Fe16 Fe7 2.596113 1_555
Fe16 Lu3 2.962713 1_565
Fe16 Lu2 2.962713 1_565
Fe16 Lu4 2.962718 1_565
Fe17 Fe3 2.434639 1_655
Fe17 Fe5 2.434646 1_656
Fe17 Fe18 2.541933 1_555
Fe17 Fe8 2.596113 1_555
Fe17 Fe7 2.596113 1_555
Fe17 Lu3 2.962713 1_655
Fe17 Lu1 2.962713 1_655
Fe17 Lu5 2.962718 1_655
Fe18 Fe3 2.434643 1_655
Fe18 Fe2 2.434643 1_565
Fe18 Fe4 2.434643 1_556
Fe18 Fe8 2.596121 1_555
Fe18 Fe9 2.596121 1_555
Fe18 Fe7 2.596121 1_555
Fe18 Lu0 2.962710 1_555
Fe18 Lu4 2.962710 1_555
Fe18 Lu5 2.962710 1_555
Fe19 Fe4 2.434639 1_555
Fe19 Fe5 2.434646 1_555
Fe19 Fe6 2.434646 1_555
Fe19 Fe21 2.541933 1_555
Fe19 Fe22 2.541933 1_555
Fe19 Fe20 2.541933 1_555
Fe19 Lu4 2.962713 1_554
Fe19 Lu5 2.962713 1_554
Fe19 Lu3 2.962718 1_554
Fe20 Fe6 2.434646 1_555
Fe20 Fe21 2.541933 1_555
Fe20 Fe22 2.541933 1_555
Fe20 Lu0 2.962713 1_545
Fe20 Lu5 2.962713 1_545
Fe20 Lu1 2.962718 1_545
Fe21 Fe3 2.434639 1_555
Fe21 Fe5 2.434646 1_555
Fe21 Fe22 2.541933 1_555
Fe21 Lu0 2.962713 1_455
Fe21 Lu4 2.962713 1_455
Fe21 Lu2 2.962718 1_455
Fe22 Fe3 2.434643 1_555
Fe22 Fe4 2.434643 1_555
Fe22 Lu3 2.962710 1_555
Fe22 Lu1 2.962710 1_555
Fe22 Lu2 2.962710 1_555
