# generated using pymatgen
data_Li2V3SnO8
_symmetry_space_group_name_H-M   'P 1'
_cell_length_a   6.00943340
_cell_length_b   6.16873138
_cell_length_c   10.45636532
_cell_angle_alpha   106.22873674
_cell_angle_beta   89.98704740
_cell_angle_gamma   60.90822128
_symmetry_Int_Tables_number   1
_chemical_formula_structural   Li2V3SnO8
_chemical_formula_sum   'Li4 V6 Sn2 O16'
_cell_volume   320.91701972
_cell_formula_units_Z   2
loop_
 _symmetry_equiv_pos_site_id
 _symmetry_equiv_pos_as_xyz
  1  'x, y, z'
loop_
 _atom_site_type_symbol
 _atom_site_label
 _atom_site_symmetry_multiplicity
 _atom_site_fract_x
 _atom_site_fract_y
 _atom_site_fract_z
 _atom_site_occupancy
  Li  Li0  1  0.31421300  0.36579700  0.56241200  1
  Li  Li1  1  0.82047900  0.36571700  0.06198600  1
  Li  Li2  1  0.18575500  0.63421900  0.93761500  1
  Li  Li3  1  0.67949500  0.63430900  0.43805500  1
  V  V0  1  0.74997400  0.00000200  0.74990600  1
  V  V1  1  0.24996000  0.99997800  0.74991100  1
  V  V2  1  0.75007300  0.00006600  0.25011300  1
  V  V3  1  0.25011800  0.99994600  0.24999700  1
  V  V4  1  0.99544200  0.99951700  0.49990600  1
  V  V5  1  0.50455800  0.00043900  0.00013600  1
  Sn  Sn0  1  0.74997800  0.50004700  0.75002600  1
  Sn  Sn1  1  0.25001600  0.50000700  0.25002500  1
  O  O0  1  0.08622000  0.79970200  0.63766700  1
  O  O1  1  0.61448800  0.79991100  0.13759700  1
  O  O2  1  0.41391500  0.19994600  0.86214200  1
  O  O3  1  0.88554600  0.20022800  0.36250000  1
  O  O4  1  0.87332500  0.23371000  0.85908700  1
  O  O5  1  0.39174900  0.23119600  0.35867600  1
  O  O6  1  0.64958300  0.23147400  0.63263900  1
  O  O7  1  0.15803000  0.23237900  0.12878800  1
  O  O8  1  0.11200900  0.23102300  0.63001100  1
  O  O9  1  0.61936700  0.23232000  0.13343200  1
  O  O10  1  0.38782300  0.76916600  0.86993900  1
  O  O11  1  0.88064600  0.76760900  0.36664800  1
  O  O12  1  0.85041300  0.76858500  0.86732800  1
  O  O13  1  0.34194500  0.76762800  0.37124200  1
  O  O14  1  0.62664200  0.76625600  0.64085000  1
  O  O15  1  0.10823900  0.76882300  0.14136500  1
loop_
_geom_bond_atom_site_label_1
_geom_bond_atom_site_label_2
_geom_bond_distance
_geom_bond_site_symmetry_2
Li0 O8 1.994449 1_555
Li0 O6 2.001112 1_555
Li0 O5 2.019781 1_555
Li0 O0 2.217411 1_555
Li1 O7 1.994628 1_655
Li1 O9 2.001547 1_555
Li1 O4 2.011879 1_554
Li1 O1 2.218826 1_555
Li2 O10 1.995031 1_555
Li2 O12 2.001286 1_455
Li2 O15 2.019915 1_556
Li2 O2 2.219316 1_555
Li3 O13 1.994675 1_555
Li3 O11 2.001052 1_555
Li3 O14 2.010841 1_555
Li3 O3 2.218222 1_555
O0 V0 1.935880 1_465
O0 V4 2.056893 1_455
O0 V1 2.060153 1_555
O1 V2 1.933729 1_565
O1 V5 2.057214 1_565
O1 V3 2.063822 1_555
O2 V0 1.935128 1_555
O2 V5 2.057764 1_556
O2 V1 2.059815 1_545
O3 V2 1.932686 1_555
O3 V4 2.057433 1_545
O3 V3 2.065073 1_645
O4 V0 2.012682 1_555
O4 V1 2.100082 1_645
O4 Sn0 2.100622 1_555
O5 V2 2.016685 1_555
O5 V3 2.079841 1_545
O5 Sn1 2.108527 1_555
O6 V0 2.011878 1_555
O6 V4 2.071290 1_545
O6 Sn0 2.109763 1_555
O7 V3 2.052525 1_545
O7 V5 2.053997 1_555
O7 Sn1 2.087135 1_555
O8 V1 2.034867 1_545
O8 V4 2.065967 1_445
O8 Sn0 2.094261 1_455
O9 V2 2.010304 1_555
O9 V5 2.076172 1_555
O9 Sn1 2.109282 1_555
O10 V1 2.034950 1_555
O10 V5 2.066131 1_566
O10 Sn0 2.094416 1_555
O11 V2 2.009906 1_565
O11 V4 2.076040 1_555
O11 Sn1 2.109414 1_655
O12 V0 2.012926 1_565
O12 V5 2.071638 1_566
O12 Sn0 2.109437 1_555
O13 V3 2.052416 1_555
O13 V4 2.053947 1_455
O13 Sn1 2.086799 1_555
O14 V0 2.012294 1_565
O14 V1 2.099869 1_555
O14 Sn0 2.100938 1_555
O15 V2 2.016727 1_465
O15 V3 2.080201 1_555
O15 Sn1 2.108627 1_555
