# generated using pymatgen
data_Li2V2P4H6O17
_symmetry_space_group_name_H-M   'P 1'
_cell_length_a   8.92788200
_cell_length_b   9.13330170
_cell_length_c   9.33429897
_cell_angle_alpha   118.13594539
_cell_angle_beta   89.90801906
_cell_angle_gamma   100.06185154
_symmetry_Int_Tables_number   1
_chemical_formula_structural   Li2V2P4H6O17
_chemical_formula_sum   'Li4 V4 P8 H12 O34'
_cell_volume   657.99728232
_cell_formula_units_Z   2
loop_
 _symmetry_equiv_pos_site_id
 _symmetry_equiv_pos_as_xyz
  1  'x, y, z'
loop_
 _atom_site_type_symbol
 _atom_site_label
 _atom_site_symmetry_multiplicity
 _atom_site_fract_x
 _atom_site_fract_y
 _atom_site_fract_z
 _atom_site_occupancy
  Li  Li0  1  0.75571200  0.10776400  0.20233500  1
  Li  Li1  1  0.31784200  0.51825400  0.73150900  1
  Li  Li2  1  0.68215800  0.48174600  0.26849100  1
  Li  Li3  1  0.24428800  0.89223600  0.79766500  1
  V  V0  1  0.86939200  0.24723000  0.71014900  1
  V  V1  1  0.37289200  0.26421000  0.21959500  1
  V  V2  1  0.62710800  0.73579000  0.78040500  1
  V  V3  1  0.13060800  0.75277000  0.28985100  1
  P  P0  1  0.58864900  0.14231200  0.91026000  1
  P  P1  1  0.10491300  0.16239500  0.41559800  1
  P  P2  1  0.57359000  0.30648500  0.54845500  1
  P  P3  1  0.85897400  0.65125800  0.99215500  1
  P  P4  1  0.14102600  0.34874200  0.00784500  1
  P  P5  1  0.42641000  0.69351500  0.45154500  1
  P  P6  1  0.89508700  0.83760500  0.58440200  1
  P  P7  1  0.41135100  0.85768800  0.08974000  1
  H  H0  1  0.02682700  0.05082400  0.79802200  1
  H  H1  1  0.43229600  0.11122200  0.71496100  1
  H  H2  1  0.34949600  0.11299700  0.49635800  1
  H  H3  1  0.29662600  0.55900200  0.01533000  1
  H  H4  1  0.88306700  0.39788300  0.39539300  1
  H  H5  1  0.94359200  0.40495100  0.23919600  1
  H  H6  1  0.05640800  0.59504900  0.76080400  1
  H  H7  1  0.11693300  0.60211700  0.60460700  1
  H  H8  1  0.70337400  0.44099800  0.98467000  1
  H  H9  1  0.65050400  0.88700300  0.50364200  1
  H  H10  1  0.56770400  0.88877800  0.28503900  1
  H  H11  1  0.97317300  0.94917600  0.20197800  1
  O  O0  1  0.65561400  0.99877600  0.90824700  1
  O  O1  1  0.43274000  0.06322900  0.79247500  1
  O  O2  1  0.69374900  0.24998000  0.84856800  1
  O  O3  1  0.18058100  0.01901500  0.40913600  1
  O  O4  1  0.96726000  0.07543400  0.27472200  1
  O  O5  1  0.01014700  0.23020000  0.87246700  1
  O  O6  1  0.44498400  0.17720400  0.57581300  1
  O  O7  1  0.72679400  0.25066800  0.54740700  1
  O  O8  1  0.25845600  0.43680500  0.92889200  1
  O  O9  1  0.91834200  0.51267100  0.84442500  1
  O  O10  1  0.04283700  0.26289100  0.58031700  1
  O  O11  1  0.54030100  0.29104600  0.38057600  1
  O  O12  1  0.56529100  0.47976400  0.69253800  1
  O  O13  1  0.22144500  0.29107200  0.38971400  1
  O  O14  1  0.85229500  0.36203100  0.28156100  1
  O  O15  1  0.55505400  0.26649400  0.08218000  1
  O  O16  1  0.21652800  0.23350500  0.04921800  1
  O  O17  1  0.78347200  0.76649500  0.95078200  1
  O  O18  1  0.44494600  0.73350600  0.91782000  1
  O  O19  1  0.14770500  0.63796900  0.71843900  1
  O  O20  1  0.77855500  0.70892800  0.61028600  1
  O  O21  1  0.43470900  0.52023600  0.30746200  1
  O  O22  1  0.45969900  0.70895400  0.61942400  1
  O  O23  1  0.95716300  0.73710900  0.41968300  1
  O  O24  1  0.08165800  0.48732900  0.15557500  1
  O  O25  1  0.74154400  0.56319500  0.07110800  1
  O  O26  1  0.27320600  0.74933200  0.45259300  1
  O  O27  1  0.55501600  0.82279600  0.42418700  1
  O  O28  1  0.98985300  0.76980000  0.12753300  1
  O  O29  1  0.03274000  0.92456600  0.72527800  1
  O  O30  1  0.81941900  0.98098500  0.59086400  1
  O  O31  1  0.30625100  0.75002000  0.15143200  1
  O  O32  1  0.56726000  0.93677100  0.20752500  1
  O  O33  1  0.34438600  0.00122400  0.09175300  1
loop_
_geom_bond_atom_site_label_1
_geom_bond_atom_site_label_2
_geom_bond_distance
_geom_bond_site_symmetry_2
Li0 O14 2.089522 1_555
Li0 O32 2.103578 1_545
Li0 O4 2.120841 1_555
Li0 O0 2.538701 1_544
Li1 O18 2.044355 1_555
Li1 O19 2.055328 1_555
Li1 O12 2.298833 1_555
Li1 O8 2.319640 1_555
Li1 O22 2.583750 1_555
Li2 O15 2.044355 1_555
Li2 O14 2.055328 1_555
Li2 O21 2.298833 1_555
Li2 O25 2.319640 1_555
Li2 O11 2.583750 1_555
Li3 O19 2.089522 1_555
Li3 O1 2.103578 1_565
Li3 O29 2.120841 1_555
Li3 O33 2.538701 1_566
H0 O29 1.037442 1_545
H0 O5 1.483335 1_555
H1 O1 1.007667 1_555
H1 O6 1.666403 1_555
H2 O6 1.018757 1_555
H2 O3 1.601997 1_555
H3 O8 1.015592 1_554
H3 O31 1.588292 1_555
H4 O14 0.976246 1_555
H5 O14 1.003959 1_555
H5 O24 1.709223 1_655
H6 O19 1.003959 1_555
H6 O9 1.709223 1_455
H7 O19 0.976246 1_555
H8 O25 1.015592 1_556
H8 O2 1.588292 1_555
H9 O27 1.018757 1_555
H9 O30 1.601997 1_555
H10 O32 1.007667 1_555
H10 O27 1.666403 1_555
H11 O4 1.037442 1_565
H11 O28 1.483335 1_555
O0 P0 1.525448 1_565
O0 V2 2.083785 1_555
O1 P0 1.603938 1_555
O2 P0 1.545630 1_555
O2 V0 2.026243 1_555
O3 P1 1.552218 1_555
O3 V3 2.102589 1_545
O4 P1 1.596688 1_655
O5 P4 1.551360 1_556
O5 V0 2.048322 1_455
O6 P2 1.608554 1_555
O7 P2 1.539392 1_555
O7 V0 1.998635 1_555
O8 P4 1.597214 1_556
O9 P3 1.539645 1_555
O9 V0 2.098845 1_555
O10 P1 1.535466 1_555
O10 V0 1.991745 1_455
O11 P2 1.530443 1_555
O11 V1 2.020822 1_555
O12 P2 1.533676 1_555
O12 V2 2.046199 1_555
O13 P1 1.536792 1_555
O13 V1 2.037527 1_555
O15 P0 1.533725 1_554
O15 V1 2.072990 1_555
O16 P4 1.530798 1_555
O16 V1 2.001593 1_555
O17 P3 1.530798 1_555
O17 V2 2.001593 1_555
O18 P7 1.533725 1_556
O18 V2 2.072990 1_555
O20 P6 1.536792 1_555
O20 V2 2.037527 1_555
O21 P5 1.533676 1_555
O21 V1 2.046199 1_555
O22 P5 1.530443 1_555
O22 V2 2.020822 1_555
O23 P6 1.535466 1_555
O23 V3 1.991745 1_655
O24 P4 1.539645 1_555
O24 V3 2.098845 1_555
O25 P3 1.597214 1_554
O26 P5 1.539392 1_555
O26 V3 1.998635 1_555
O27 P5 1.608554 1_555
O28 P3 1.551360 1_554
O28 V3 2.048322 1_655
O29 P6 1.596688 1_455
O30 P6 1.552218 1_555
O30 V0 2.102589 1_565
O31 P7 1.545630 1_555
O31 V3 2.026243 1_555
O32 P7 1.603938 1_555
O33 P7 1.525448 1_545
O33 V1 2.083785 1_555
