# generated using pymatgen
data_YTi2O4
_symmetry_space_group_name_H-M   'P 1'
_cell_length_a   6.20432804
_cell_length_b   6.20432804
_cell_length_c   6.20432804
_cell_angle_alpha   120.34334397
_cell_angle_beta   117.34301264
_cell_angle_gamma   92.03459076
_symmetry_Int_Tables_number   1
_chemical_formula_structural   YTi2O4
_chemical_formula_sum   'Y2 Ti4 O8'
_cell_volume   171.57129319
_cell_formula_units_Z   2
loop_
 _symmetry_equiv_pos_site_id
 _symmetry_equiv_pos_as_xyz
  1  'x, y, z'
loop_
 _atom_site_type_symbol
 _atom_site_label
 _atom_site_symmetry_multiplicity
 _atom_site_fract_x
 _atom_site_fract_y
 _atom_site_fract_z
 _atom_site_occupancy
  Y  Y0  1  0.00000000  0.00000000  0.00000000  1
  Y  Y1  1  0.50000000  0.00000000  0.50000000  1
  Ti  Ti0  1  0.50000000  0.00000000  0.00000000  1
  Ti  Ti1  1  0.00000000  0.50000000  0.50000000  1
  Ti  Ti2  1  0.50000000  0.50000000  0.50000000  1
  Ti  Ti3  1  0.50000000  0.50000000  0.00000000  1
  O  O0  1  0.29844700  0.26365800  0.03478800  1
  O  O1  1  0.74807400  0.26666200  0.01858700  1
  O  O2  1  0.72887000  0.26365800  0.46521200  1
  O  O3  1  0.25192600  0.27051300  0.51858700  1
  O  O4  1  0.27113000  0.73634200  0.53478800  1
  O  O5  1  0.25192600  0.73333800  0.98141300  1
  O  O6  1  0.74807400  0.72948700  0.48141300  1
  O  O7  1  0.70155300  0.73634200  0.96521200  1
loop_
_geom_bond_atom_site_label_1
_geom_bond_atom_site_label_2
_geom_bond_distance
_geom_bond_site_symmetry_2
O0 Ti3 2.048905 1_555
O0 Ti0 2.079113 1_555
O0 Ti2 2.079118 1_555
O0 Y0 2.283027 1_555
O1 Ti0 2.140755 1_555
O1 Ti3 2.154512 1_555
O1 Ti1 2.154517 1_655
O1 Y1 2.313009 1_554
O1 Y0 2.313014 1_655
O2 Ti1 2.048909 1_655
O2 Ti0 2.079117 1_555
O2 Ti2 2.079117 1_555
O2 Y1 2.283022 1_555
O3 Ti2 2.140750 1_555
O3 Ti1 2.154517 1_555
O3 Ti3 2.154517 1_556
O3 Y0 2.313009 1_555
O3 Y1 2.313009 1_555
O4 Ti1 2.048909 1_555
O4 Ti0 2.079117 1_566
O4 Ti2 2.079117 1_555
O4 Y1 2.283022 1_565
O5 Ti0 2.140755 1_566
O5 Ti3 2.154512 1_556
O5 Ti1 2.154517 1_555
O5 Y1 2.313009 1_566
O5 Y0 2.313014 1_566
O6 Ti2 2.140750 1_555
O6 Ti1 2.154517 1_655
O6 Ti3 2.154517 1_555
O6 Y0 2.313009 1_666
O6 Y1 2.313009 1_565
O7 Ti3 2.048905 1_556
O7 Ti0 2.079113 1_566
O7 Ti2 2.079118 1_555
O7 Y0 2.283027 1_666
