# generated using pymatgen
data_Sr5Sb2As
_symmetry_space_group_name_H-M   'P 1'
_cell_length_a   8.68458600
_cell_length_b   9.92068200
_cell_length_c   13.29807800
_cell_angle_alpha   90.00000000
_cell_angle_beta   90.00000000
_cell_angle_gamma   90.00000000
_symmetry_Int_Tables_number   1
_chemical_formula_structural   Sr5Sb2As
_chemical_formula_sum   'Sr20 Sb8 As4'
_cell_volume   1145.72271912
_cell_formula_units_Z   4
loop_
 _symmetry_equiv_pos_site_id
 _symmetry_equiv_pos_as_xyz
  1  'x, y, z'
loop_
 _atom_site_type_symbol
 _atom_site_label
 _atom_site_symmetry_multiplicity
 _atom_site_fract_x
 _atom_site_fract_y
 _atom_site_fract_z
 _atom_site_occupancy
  Sr  Sr0  1  0.04371800  0.75000000  0.50211100  1
  Sr  Sr1  1  0.95628200  0.25000000  0.49788900  1
  Sr  Sr2  1  0.54371800  0.25000000  0.99788900  1
  Sr  Sr3  1  0.45628200  0.75000000  0.00211100  1
  Sr  Sr4  1  0.86013100  0.75000000  0.79829000  1
  Sr  Sr5  1  0.13986900  0.25000000  0.20171000  1
  Sr  Sr6  1  0.36013100  0.25000000  0.70171000  1
  Sr  Sr7  1  0.63986900  0.75000000  0.29829000  1
  Sr  Sr8  1  0.68634100  0.53637300  0.57553400  1
  Sr  Sr9  1  0.31365900  0.46362700  0.42446600  1
  Sr  Sr10  1  0.18634100  0.46362700  0.92446600  1
  Sr  Sr11  1  0.31365900  0.03637300  0.42446600  1
  Sr  Sr12  1  0.81365900  0.53637300  0.07553400  1
  Sr  Sr13  1  0.68634100  0.96362700  0.57553400  1
  Sr  Sr14  1  0.81365900  0.96362700  0.07553400  1
  Sr  Sr15  1  0.18634100  0.03637300  0.92446600  1
  Sr  Sr16  1  0.33520800  0.75000000  0.71511000  1
  Sr  Sr17  1  0.66479200  0.25000000  0.28489000  1
  Sr  Sr18  1  0.83520800  0.25000000  0.78489000  1
  Sr  Sr19  1  0.16479200  0.75000000  0.21511000  1
  Sb  Sb0  1  0.56605800  0.50964600  0.82914800  1
  Sb  Sb1  1  0.43394200  0.49035400  0.17085200  1
  Sb  Sb2  1  0.06605800  0.49035400  0.67085200  1
  Sb  Sb3  1  0.43394200  0.00964600  0.17085200  1
  Sb  Sb4  1  0.93394200  0.50964600  0.32914800  1
  Sb  Sb5  1  0.56605800  0.99035400  0.82914800  1
  Sb  Sb6  1  0.93394200  0.99035400  0.32914800  1
  Sb  Sb7  1  0.06605800  0.00964600  0.67085200  1
  As  As0  1  0.07351700  0.75000000  0.98620600  1
  As  As1  1  0.92648300  0.25000000  0.01379400  1
  As  As2  1  0.57351700  0.25000000  0.51379400  1
  As  As3  1  0.42648300  0.75000000  0.48620600  1
loop_
_geom_bond_atom_site_label_1
_geom_bond_atom_site_label_2
_geom_bond_distance
_geom_bond_site_symmetry_2
Sb0 Sr2 3.421688 1_555
Sb0 Sr3 3.447458 1_556
Sb0 Sr16 3.464798 1_555
Sb0 Sr4 3.518029 1_555
Sb0 Sr18 3.527771 1_555
Sb0 Sr8 3.540593 1_555
Sb0 Sr10 3.562278 1_555
Sb0 Sr6 3.564459 1_555
Sb0 Sr12 3.928020 1_556
Sb1 Sr3 3.421688 1_555
Sb1 Sr2 3.447458 1_554
Sb1 Sr17 3.464798 1_555
Sb1 Sr5 3.518029 1_555
Sb1 Sr19 3.527771 1_555
Sb1 Sr9 3.540593 1_555
Sb1 Sr12 3.562278 1_555
Sb1 Sr7 3.564459 1_555
Sb1 Sr10 3.928020 1_554
Sb2 Sr0 3.421688 1_555
Sb2 Sr1 3.447458 1_455
Sb2 Sr18 3.464798 1_455
Sb2 Sr6 3.518029 1_555
Sb2 Sr16 3.527771 1_555
Sb2 Sr10 3.540593 1_555
Sb2 Sr8 3.562278 1_455
Sb2 Sr4 3.564459 1_455
Sb2 Sr9 3.928020 1_555
Sb3 Sr3 3.421688 1_545
Sb3 Sr2 3.447458 1_554
Sb3 Sr17 3.464798 1_555
Sb3 Sr5 3.518029 1_555
Sb3 Sr19 3.527771 1_545
Sb3 Sr11 3.540593 1_555
Sb3 Sr14 3.562278 1_545
Sb3 Sr7 3.564459 1_545
Sb3 Sr15 3.928020 1_554
Sb4 Sr1 3.421688 1_555
Sb4 Sr0 3.447458 1_655
Sb4 Sr19 3.464798 1_655
Sb4 Sr7 3.518029 1_555
Sb4 Sr17 3.527771 1_555
Sb4 Sr12 3.540593 1_555
Sb4 Sr9 3.562278 1_655
Sb4 Sr5 3.564459 1_655
Sb4 Sr8 3.928020 1_555
Sb5 Sr2 3.421688 1_565
Sb5 Sr3 3.447458 1_556
Sb5 Sr16 3.464798 1_555
Sb5 Sr4 3.518029 1_555
Sb5 Sr18 3.527771 1_565
Sb5 Sr13 3.540593 1_555
Sb5 Sr15 3.562278 1_565
Sb5 Sr6 3.564459 1_565
Sb5 Sr14 3.928020 1_556
Sb6 Sr1 3.421688 1_565
Sb6 Sr0 3.447458 1_655
Sb6 Sr19 3.464798 1_655
Sb6 Sr7 3.518029 1_555
Sb6 Sr17 3.527771 1_565
Sb6 Sr14 3.540593 1_555
Sb6 Sr11 3.562278 1_665
Sb6 Sr5 3.564459 1_665
Sb6 Sr13 3.928020 1_555
Sb7 Sr0 3.421688 1_545
Sb7 Sr1 3.447458 1_455
Sb7 Sr18 3.464798 1_455
Sb7 Sr6 3.518029 1_555
Sb7 Sr16 3.527771 1_545
Sb7 Sr15 3.540593 1_555
Sb7 Sr13 3.562278 1_445
Sb7 Sr4 3.564459 1_445
Sb7 Sr11 3.928020 1_555
As0 Sr4 3.111084 1_455
As0 Sr15 3.115367 1_565
As0 Sr10 3.115367 1_555
As0 Sr19 3.145502 1_556
As0 Sr12 3.315959 1_456
As0 Sr14 3.315959 1_456
As0 Sr3 3.330878 1_556
As1 Sr5 3.111084 1_655
As1 Sr14 3.115367 1_545
As1 Sr12 3.115367 1_555
As1 Sr18 3.145502 1_554
As1 Sr10 3.315959 1_654
As1 Sr15 3.315959 1_654
As1 Sr2 3.330878 1_554
As2 Sr6 3.111084 1_555
As2 Sr8 3.115367 1_555
As2 Sr13 3.115367 1_545
As2 Sr17 3.145502 1_555
As2 Sr9 3.315959 1_555
As2 Sr11 3.315959 1_555
As2 Sr1 3.330878 1_555
As3 Sr7 3.111084 1_555
As3 Sr11 3.115367 1_565
As3 Sr9 3.115367 1_555
As3 Sr16 3.145502 1_555
As3 Sr8 3.315959 1_555
As3 Sr13 3.315959 1_555
As3 Sr0 3.330878 1_555
