# generated using pymatgen
data_BaCaFe2Co2O7
_symmetry_space_group_name_H-M   'P 1'
_cell_length_a   6.41693560
_cell_length_b   6.41693560
_cell_length_c   10.39529563
_cell_angle_alpha   89.98270061
_cell_angle_beta   89.98270061
_cell_angle_gamma   60.31537402
_symmetry_Int_Tables_number   1
_chemical_formula_structural   BaCaFe2Co2O7
_chemical_formula_sum   'Ba2 Ca2 Fe4 Co4 O14'
_cell_volume   371.87262566
_cell_formula_units_Z   2
loop_
 _symmetry_equiv_pos_site_id
 _symmetry_equiv_pos_as_xyz
  1  'x, y, z'
loop_
 _atom_site_type_symbol
 _atom_site_label
 _atom_site_symmetry_multiplicity
 _atom_site_fract_x
 _atom_site_fract_y
 _atom_site_fract_z
 _atom_site_occupancy
  Ba  Ba0  1  0.33662500  0.33662500  0.98899000  1
  Ba  Ba1  1  0.66306500  0.66306500  0.49617200  1
  Ca  Ca0  1  0.33432500  0.33432500  0.62779600  1
  Ca  Ca1  1  0.66456500  0.66456500  0.12772600  1
  Fe  Fe0  1  0.00083700  0.00083700  0.06265300  1
  Fe  Fe1  1  0.00103200  0.00103200  0.56496200  1
  Fe  Fe2  1  0.66211700  0.17030000  0.31508100  1
  Fe  Fe3  1  0.17030000  0.66211700  0.31508100  1
  Co  Co0  1  0.83017300  0.83017300  0.81465100  1
  Co  Co1  1  0.34046000  0.82765500  0.81579900  1
  Co  Co2  1  0.82765500  0.34046000  0.81579900  1
  Co  Co3  1  0.17623200  0.17623200  0.31029800  1
  O  O0  1  0.01075200  0.01075200  0.24894700  1
  O  O1  1  0.99290300  0.99290300  0.75470900  1
  O  O2  1  0.49821700  0.49821700  0.76060400  1
  O  O3  1  0.98632100  0.51193700  0.75826500  1
  O  O4  1  0.51193700  0.98632100  0.75826500  1
  O  O5  1  0.50135600  0.50135600  0.25783100  1
  O  O6  1  0.99757500  0.49249200  0.26499100  1
  O  O7  1  0.49249200  0.99757500  0.26499100  1
  O  O8  1  0.84237700  0.84237700  0.99507700  1
  O  O9  1  0.31213300  0.84517900  0.00375800  1
  O  O10  1  0.84517900  0.31213300  0.00375800  1
  O  O11  1  0.15589100  0.15589100  0.49453900  1
  O  O12  1  0.69068900  0.15479000  0.50362800  1
  O  O13  1  0.15479000  0.69068900  0.50362800  1
loop_
_geom_bond_atom_site_label_1
_geom_bond_atom_site_label_2
_geom_bond_distance
_geom_bond_site_symmetry_2
Ba0 O2 2.974717 1_555
Ba0 O4 3.093231 1_545
Ba0 O3 3.093231 1_455
Ba0 O10 3.192190 1_556
Ba0 O9 3.192190 1_556
Ba0 O8 3.225003 1_545
Ba0 O8 3.225003 1_455
Ba0 O9 3.237886 1_546
Ba0 O10 3.237886 1_456
Ba0 O5 3.339959 1_556
Ba0 O7 3.436329 1_546
Ba0 O6 3.436329 1_456
Ba1 O6 3.041775 1_555
Ba1 O7 3.041775 1_555
Ba1 O5 3.059700 1_555
Ba1 O13 3.178440 1_555
Ba1 O12 3.178440 1_555
Ba1 O11 3.224778 1_565
Ba1 O11 3.224778 1_655
Ba1 O12 3.247755 1_565
Ba1 O13 3.247755 1_655
Ba1 O4 3.267374 1_555
Ba1 O3 3.267374 1_555
Ba1 O2 3.301351 1_555
Ca0 O2 2.283705 1_555
Ca0 O4 2.367174 1_545
Ca0 O3 2.367174 1_455
Ca0 O12 2.369048 1_555
Ca0 O13 2.369048 1_555
Ca0 O11 2.416894 1_555
Ca1 O5 2.259987 1_555
Ca1 O6 2.342123 1_555
Ca1 O7 2.342123 1_555
Ca1 O9 2.350168 1_555
Ca1 O10 2.350168 1_555
Ca1 O8 2.406824 1_554
Fe0 O9 1.840167 1_545
Fe0 O10 1.840167 1_455
Fe0 O8 1.893746 1_444
Fe0 O0 1.939742 1_555
Fe1 O12 1.843951 1_455
Fe1 O13 1.843951 1_545
Fe1 O11 1.867634 1_555
Fe1 O1 1.974506 1_445
Fe2 O5 1.939161 1_555
Fe2 O12 1.966508 1_555
Fe2 O7 1.969764 1_545
Fe2 O0 2.063171 1_655
Fe3 O5 1.939161 1_555
Fe3 O13 1.966508 1_555
Fe3 O6 1.969764 1_455
Fe3 O0 2.063171 1_565
Co0 O4 1.868548 1_555
Co0 O3 1.868548 1_555
Co0 O8 1.880512 1_555
Co0 O1 1.910055 1_555
Co1 O2 1.924503 1_555
Co1 O4 1.927169 1_555
Co1 O9 1.960368 1_556
Co1 O1 2.039566 1_455
Co2 O2 1.924503 1_555
Co2 O3 1.927169 1_555
Co2 O10 1.960368 1_556
Co2 O1 2.039566 1_545
Co3 O7 1.830313 1_545
Co3 O6 1.830313 1_455
Co3 O11 1.928416 1_555
Co3 O0 1.944100 1_555
