# generated using pymatgen
data_Ca3NdMn4O12
_symmetry_space_group_name_H-M   'P 1'
_cell_length_a   7.68983400
_cell_length_b   5.38744600
_cell_length_c   5.44207013
_cell_angle_alpha   89.73518058
_cell_angle_beta   90.00000000
_cell_angle_gamma   90.00000000
_symmetry_Int_Tables_number   1
_chemical_formula_structural   Ca3NdMn4O12
_chemical_formula_sum   'Ca3 Nd1 Mn4 O12'
_cell_volume   225.45475018
_cell_formula_units_Z   1
loop_
 _symmetry_equiv_pos_site_id
 _symmetry_equiv_pos_as_xyz
  1  'x, y, z'
loop_
 _atom_site_type_symbol
 _atom_site_label
 _atom_site_symmetry_multiplicity
 _atom_site_fract_x
 _atom_site_fract_y
 _atom_site_fract_z
 _atom_site_occupancy
  Ca  Ca0  1  0.50000000  0.00669200  0.04282500  1
  Ca  Ca1  1  0.00000000  0.50647000  0.45864100  1
  Ca  Ca2  1  0.00000000  0.99328900  0.96209200  1
  Nd  Nd0  1  0.50000000  0.49039100  0.54246200  1
  Mn  Mn0  1  0.24646700  0.99858200  0.49988800  1
  Mn  Mn1  1  0.75335500  0.50080500  0.00144500  1
  Mn  Mn2  1  0.75353300  0.99858200  0.49988800  1
  Mn  Mn3  1  0.24664500  0.50080500  0.00144500  1
  O  O0  1  0.29497300  0.21284300  0.78670100  1
  O  O1  1  0.71286600  0.29163300  0.29036300  1
  O  O2  1  0.78872000  0.79453200  0.20663000  1
  O  O3  1  0.21435300  0.70163800  0.70325400  1
  O  O4  1  0.21128000  0.79453200  0.20663000  1
  O  O5  1  0.78564700  0.70163800  0.70325400  1
  O  O6  1  0.70502700  0.21284300  0.78670100  1
  O  O7  1  0.28713400  0.29163300  0.29036300  1
  O  O8  1  0.50000000  0.57422500  0.98880200  1
  O  O9  1  0.50000000  0.93099600  0.48409900  1
  O  O10  1  0.00000000  0.42354500  0.01932800  1
  O  O11  1  0.00000000  0.07433000  0.52519000  1
loop_
_geom_bond_atom_site_label_1
_geom_bond_atom_site_label_2
_geom_bond_distance
_geom_bond_site_symmetry_2
Ca0 O8 2.349716 1_544
Ca0 O6 2.376495 1_554
Ca0 O0 2.376495 1_554
Ca0 O9 2.433966 1_545
Ca0 O7 2.621039 1_555
Ca0 O1 2.621039 1_555
Ca0 O4 2.649721 1_545
Ca0 O2 2.649721 1_545
Ca1 O11 2.354477 1_555
Ca1 O3 2.368041 1_555
Ca1 O5 2.368041 1_455
Ca1 O10 2.434184 1_555
Ca1 O4 2.628566 1_555
Ca1 O2 2.628566 1_455
Ca1 O1 2.657706 1_455
Ca1 O7 2.657706 1_555
Ca2 O10 2.340242 1_566
Ca2 O4 2.354594 1_556
Ca2 O2 2.354594 1_456
Ca2 O11 2.415420 1_565
Ca2 O3 2.681514 1_555
Ca2 O5 2.681514 1_455
Ca2 O0 2.728529 1_565
Ca2 O6 2.728529 1_465
Nd0 O1 2.392042 1_555
Nd0 O7 2.392042 1_555
Nd0 O9 2.393435 1_555
Nd0 O8 2.472698 1_555
Nd0 O6 2.543600 1_555
Nd0 O0 2.543600 1_555
Nd0 O3 2.625850 1_555
Nd0 O5 2.625850 1_555
Mn0 O11 1.943744 1_565
Mn0 O3 1.956716 1_555
Mn0 O4 1.960843 1_555
Mn0 O7 1.968228 1_565
Mn0 O0 1.981038 1_565
Mn0 O9 1.985270 1_555
Mn1 O10 1.944136 1_655
Mn1 O1 1.955157 1_555
Mn1 O2 1.959915 1_555
Mn1 O5 1.962017 1_554
Mn1 O6 1.981766 1_554
Mn1 O8 1.989133 1_554
Mn2 O11 1.943744 1_665
Mn2 O5 1.956716 1_555
Mn2 O2 1.960843 1_555
Mn2 O1 1.968228 1_565
Mn2 O6 1.981038 1_565
Mn2 O9 1.985270 1_555
Mn3 O10 1.944136 1_555
Mn3 O7 1.955157 1_555
Mn3 O4 1.959915 1_555
Mn3 O3 1.962017 1_554
Mn3 O0 1.981766 1_554
Mn3 O8 1.989133 1_554
