# generated using pymatgen
data_NdIO
_symmetry_space_group_name_H-M   'P 1'
_cell_length_a   11.42211929
_cell_length_b   11.42211929
_cell_length_c   11.42211931
_cell_angle_alpha   20.55828571
_cell_angle_beta   20.55828571
_cell_angle_gamma   20.55828415
_symmetry_Int_Tables_number   1
_chemical_formula_structural   NdIO
_chemical_formula_sum   'Nd2 I2 O2'
_cell_volume   160.84741099
_cell_formula_units_Z   2
loop_
 _symmetry_equiv_pos_site_id
 _symmetry_equiv_pos_as_xyz
  1  'x, y, z'
loop_
 _atom_site_type_symbol
 _atom_site_label
 _atom_site_symmetry_multiplicity
 _atom_site_fract_x
 _atom_site_fract_y
 _atom_site_fract_z
 _atom_site_occupancy
  Nd  Nd0  1  0.21097400  0.21097400  0.21097400  1
  Nd  Nd1  1  0.78902600  0.78902600  0.78902600  1
  I  I0  1  0.38865300  0.38865300  0.38865300  1
  I  I1  1  0.61134700  0.61134700  0.61134700  1
  O  O0  1  0.13997700  0.13997700  0.13997700  1
  O  O1  1  0.86002300  0.86002300  0.86002300  1
loop_
_geom_bond_atom_site_label_1
_geom_bond_atom_site_label_2
_geom_bond_distance
_geom_bond_site_symmetry_2
Nd0 O0 2.380604 1_555
Nd0 O1 2.426527 1_454
Nd0 O1 2.426527 1_544
Nd0 O1 2.426527 1_445
Nd1 O1 2.380604 1_555
Nd1 O0 2.426527 1_566
Nd1 O0 2.426527 1_656
Nd1 O0 2.426527 1_665
I0 Nd1 3.254561 1_545
I0 Nd1 3.254561 1_455
I0 Nd1 3.254561 1_554
I1 Nd0 3.254561 1_565
I1 Nd0 3.254561 1_655
I1 Nd0 3.254561 1_556
