# generated using pymatgen
data_Sm2Fe20Si2C
_symmetry_space_group_name_H-M   'P 1'
_cell_length_a   6.36849689
_cell_length_b   7.82014131
_cell_length_c   7.84061470
_cell_angle_alpha   100.70314626
_cell_angle_beta   114.57763040
_cell_angle_gamma   65.67328757
_symmetry_Int_Tables_number   1
_chemical_formula_structural   Sm2Fe20Si2C
_chemical_formula_sum   'Sm2 Fe20 Si2 C1'
_cell_volume   323.52629501
_cell_formula_units_Z   1
loop_
 _symmetry_equiv_pos_site_id
 _symmetry_equiv_pos_as_xyz
  1  'x, y, z'
loop_
 _atom_site_type_symbol
 _atom_site_label
 _atom_site_symmetry_multiplicity
 _atom_site_fract_x
 _atom_site_fract_y
 _atom_site_fract_z
 _atom_site_occupancy
  Sm  Sm0  1  0.37596800  0.74854500  0.25409400  1
  Sm  Sm1  1  0.62403200  0.25145500  0.74590600  1
  Fe  Fe0  1  0.17729200  0.58330300  0.82520600  1
  Fe  Fe1  1  0.43354300  0.32401400  0.07885200  1
  Fe  Fe2  1  0.27513700  0.41993400  0.33347800  1
  Fe  Fe3  1  0.86130300  0.83813000  0.91874700  1
  Fe  Fe4  1  0.19976400  0.16478300  0.42263900  1
  Fe  Fe5  1  0.44129300  0.92044400  0.67223600  1
  Fe  Fe6  1  0.25520200  0.67897200  0.57789800  1
  Fe  Fe7  1  0.85853100  0.07694700  0.17752400  1
  Fe  Fe8  1  0.82270800  0.41669700  0.17479400  1
  Fe  Fe9  1  0.56645700  0.67598600  0.92114800  1
  Fe  Fe10  1  0.72486300  0.58006600  0.66652200  1
  Fe  Fe11  1  0.13869700  0.16187000  0.08125300  1
  Fe  Fe12  1  0.80023600  0.83521700  0.57736100  1
  Fe  Fe13  1  0.55870700  0.07955600  0.32776400  1
  Fe  Fe14  1  0.74479800  0.32102800  0.42210200  1
  Fe  Fe15  1  0.14146900  0.92305300  0.82247600  1
  Fe  Fe16  1  0.12198900  0.24722600  0.74920100  1
  Fe  Fe17  1  0.87801100  0.75277400  0.25079900  1
  Fe  Fe18  1  0.00000000  0.50000000  0.00000000  1
  Fe  Fe19  1  0.00000000  0.50000000  0.50000000  1
  Si  Si0  1  0.50000000  0.00000000  0.00000000  1
  Si  Si1  1  0.00000000  0.00000000  0.50000000  1
  C  C0  1  0.50000000  0.50000000  0.00000000  1
loop_
_geom_bond_atom_site_label_1
_geom_bond_atom_site_label_2
_geom_bond_distance
_geom_bond_site_symmetry_2
Fe0 Fe19 2.407261 1_555
Fe0 Fe18 2.408791 1_556
Fe0 Fe3 2.437143 1_455
Fe0 Fe6 2.492148 1_555
Fe0 Fe15 2.574735 1_555
Fe0 Fe10 2.629982 1_455
Fe0 Fe12 2.658235 1_455
Fe0 Fe16 2.718955 1_555
Fe1 Fe18 2.380119 1_555
Fe1 Si0 2.394564 1_555
Fe1 Fe2 2.462059 1_555
Fe1 Fe7 2.482331 1_555
Fe1 Fe14 2.592355 1_555
Fe1 Fe13 2.633456 1_555
Fe1 Fe16 2.667767 1_554
Fe1 Fe11 2.670932 1_555
Fe2 Fe4 2.507341 1_555
Fe2 Fe6 2.518090 1_555
Fe2 Fe8 2.629982 1_455
Fe2 Sm0 3.112824 1_555
Fe2 Sm1 3.213001 1_555
Fe3 Si0 2.413049 1_566
Fe3 Fe5 2.459221 1_555
Fe3 Fe7 2.489988 1_566
Fe3 Fe9 2.670932 1_555
Fe3 Sm0 3.125797 1_656
Fe3 Sm1 3.235270 1_565
Fe4 Si1 2.435127 1_555
Fe4 Fe7 2.480556 1_455
Fe4 Fe5 2.512029 1_545
Fe4 Fe8 2.658235 1_455
Fe4 Sm1 3.059091 1_555
Fe4 Sm0 3.198020 1_545
Fe5 Si1 2.413178 1_565
Fe5 Si0 2.435076 1_566
Fe5 Fe6 2.472494 1_555
Fe5 Fe9 2.633456 1_555
Fe5 Sm1 3.123456 1_565
Fe5 Sm0 3.227662 1_555
Fe6 Si1 2.387310 1_565
Fe6 Fe9 2.592355 1_555
Fe6 Sm0 3.132928 1_555
Fe6 Sm1 3.319926 1_555
Fe7 Si0 2.385388 1_555
Fe7 Si1 2.406283 1_655
Fe7 Fe8 2.574735 1_555
Fe7 Sm0 3.125614 1_645
Fe7 Sm1 3.373027 1_554
Fe9 Si0 2.394564 1_566
Fe10 Fe19 2.421257 1_655
Fe10 Fe9 2.462059 1_555
Fe10 Fe18 2.488354 1_656
Fe10 Fe12 2.507341 1_555
Fe10 Fe14 2.518090 1_555
Fe10 Fe5 2.532028 1_555
Fe10 Fe6 2.567510 1_555
Fe10 Fe3 2.696573 1_555
Fe10 Fe16 2.725959 1_655
Fe10 Sm1 3.112824 1_555
Fe10 Sm0 3.213001 1_555
Fe11 Si0 2.413049 1_555
Fe11 Fe8 2.437143 1_455
Fe11 Fe13 2.459221 1_555
Fe11 Fe15 2.489988 1_544
Fe11 Fe18 2.532062 1_555
Fe11 Fe4 2.536745 1_555
Fe11 Fe7 2.545007 1_455
Fe11 Fe2 2.696573 1_555
Fe11 Fe16 2.755282 1_554
Fe11 Sm1 3.125797 1_454
Fe11 Sm0 3.235270 1_545
Fe12 Si1 2.435127 1_665
Fe12 Fe15 2.480556 1_655
Fe12 Fe19 2.482344 1_655
Fe12 Fe5 2.489614 1_555
Fe12 Fe13 2.512029 1_565
Fe12 Fe3 2.536745 1_555
Fe12 Fe6 2.638783 1_655
Fe12 Fe17 2.719484 1_555
Fe12 Sm0 3.059091 1_555
Fe12 Sm1 3.198020 1_565
Fe13 Si1 2.413178 1_655
Fe13 Si0 2.435076 1_555
Fe13 Fe14 2.472494 1_555
Fe13 Fe4 2.489614 1_555
Fe13 Fe2 2.532028 1_555
Fe13 Fe7 2.619920 1_555
Fe13 Fe17 2.682604 1_545
Fe13 Sm0 3.123456 1_545
Fe13 Sm1 3.227662 1_555
Fe14 Si1 2.387310 1_655
Fe14 Fe19 2.388333 1_655
Fe14 Fe8 2.492148 1_555
Fe14 Fe7 2.549919 1_555
Fe14 Fe2 2.567510 1_555
Fe14 Fe4 2.638783 1_655
Fe14 Fe16 2.638876 1_655
Fe14 Sm1 3.132928 1_555
Fe14 Sm0 3.319926 1_555
Fe15 Si0 2.385388 1_566
Fe15 Si1 2.406283 1_565
Fe15 Fe9 2.482331 1_555
Fe15 Fe3 2.545007 1_455
Fe15 Fe6 2.549919 1_555
Fe15 Fe5 2.619920 1_555
Fe15 Fe16 2.644746 1_565
Fe15 Sm1 3.125614 1_465
Fe15 Sm0 3.373027 1_556
Fe16 Si1 2.594352 1_555
Fe16 Fe18 2.634306 1_556
Fe16 Si0 2.653245 1_556
Fe16 Fe5 2.682604 1_545
Fe16 Fe19 2.689865 1_555
Fe16 Fe4 2.719484 1_555
Fe16 Sm1 3.147105 1_455
Fe16 Sm1 3.221858 1_555
Fe17 Si1 2.594352 1_665
Fe17 Fe18 2.634306 1_655
Fe17 Fe6 2.638876 1_655
Fe17 Fe7 2.644746 1_565
Fe17 Si0 2.653245 1_565
Fe17 Fe9 2.667767 1_554
Fe17 Fe19 2.689865 1_655
Fe17 Fe8 2.718955 1_555
Fe17 Fe2 2.725959 1_655
Fe17 Fe3 2.755282 1_554
Fe17 Sm0 3.147105 1_655
Fe17 Sm0 3.221858 1_555
Fe18 Fe9 2.380119 1_454
Fe18 Fe8 2.408791 1_455
Fe18 Fe2 2.488354 1_555
Fe18 Fe3 2.532062 1_454
Fe18 Sm0 3.450736 1_555
Fe18 Sm1 3.450736 1_454
Fe19 Fe6 2.388333 1_555
Fe19 Fe8 2.407261 1_455
Fe19 Fe2 2.421257 1_555
Fe19 Fe4 2.482344 1_555
Fe19 Sm0 3.455879 1_455
Fe19 Sm1 3.455879 1_555
C0 Fe0 1.847144 1_554
C0 Fe8 1.847144 1_555
C0 Fe1 1.862516 1_555
C0 Fe9 1.862516 1_554
C0 Sm0 2.641339 1_555
C0 Sm1 2.641339 1_554
