# generated using pymatgen
data_K5Mo3H2S4O2F11
_symmetry_space_group_name_H-M   'P 1'
_cell_length_a   8.86676502
_cell_length_b   8.86676502
_cell_length_c   15.17393900
_cell_angle_alpha   90.00000000
_cell_angle_beta   90.00000000
_cell_angle_gamma   118.66977374
_symmetry_Int_Tables_number   1
_chemical_formula_structural   K5Mo3H2S4O2F11
_chemical_formula_sum   'K10 Mo6 H4 S8 O4 F22'
_cell_volume   1046.70923815
_cell_formula_units_Z   2
loop_
 _symmetry_equiv_pos_site_id
 _symmetry_equiv_pos_as_xyz
  1  'x, y, z'
loop_
 _atom_site_type_symbol
 _atom_site_label
 _atom_site_symmetry_multiplicity
 _atom_site_fract_x
 _atom_site_fract_y
 _atom_site_fract_z
 _atom_site_occupancy
  K  K0  1  0.61673100  0.61673100  0.64625400  1
  K  K1  1  0.38326900  0.38326900  0.14625400  1
  K  K2  1  0.52297200  0.19583900  0.94204400  1
  K  K3  1  0.19583900  0.52297200  0.94204400  1
  K  K4  1  0.47702800  0.80416100  0.44204400  1
  K  K5  1  0.80416100  0.47702800  0.44204400  1
  K  K6  1  0.15354900  0.67896300  0.65256700  1
  K  K7  1  0.67896300  0.15354900  0.65256700  1
  K  K8  1  0.84645100  0.32103700  0.15256700  1
  K  K9  1  0.32103700  0.84645100  0.15256700  1
  Mo  Mo0  1  0.05881100  0.05881100  0.99870100  1
  Mo  Mo1  1  0.94118900  0.94118900  0.49870100  1
  Mo  Mo2  1  0.67428600  0.86028600  0.98616200  1
  Mo  Mo3  1  0.86028600  0.67428600  0.98616200  1
  Mo  Mo4  1  0.32571400  0.13971400  0.48616200  1
  Mo  Mo5  1  0.13971400  0.32571400  0.48616200  1
  H  H0  1  0.47399000  0.85528800  0.81782300  1
  H  H1  1  0.85528800  0.47399000  0.81782300  1
  H  H2  1  0.52601000  0.14471200  0.31782300  1
  H  H3  1  0.14471200  0.52601000  0.31782300  1
  S  S0  1  0.85445700  0.85445700  0.10289900  1
  S  S1  1  0.14554300  0.14554300  0.60289900  1
  S  S2  1  0.65582700  0.65582700  0.88493100  1
  S  S3  1  0.34417300  0.34417300  0.38493100  1
  S  S4  1  0.87185200  0.09992900  0.90278700  1
  S  S5  1  0.09992900  0.87185200  0.90278700  1
  S  S6  1  0.12814800  0.90007100  0.40278700  1
  S  S7  1  0.90007100  0.12814800  0.40278700  1
  O  O0  1  0.31339600  0.39447500  0.76732900  1
  O  O1  1  0.39447500  0.31339600  0.76732900  1
  O  O2  1  0.68660400  0.60552500  0.26732900  1
  O  O3  1  0.60552500  0.68660400  0.26732900  1
  F  F0  1  0.26990000  0.26990000  0.94390400  1
  F  F1  1  0.73010000  0.73010000  0.44390400  1
  F  F2  1  0.74643700  0.92568900  0.58140600  1
  F  F3  1  0.92568900  0.74643700  0.58140600  1
  F  F4  1  0.25356300  0.07431100  0.08140600  1
  F  F5  1  0.07431100  0.25356300  0.08140600  1
  F  F6  1  0.61885500  0.02626300  0.06024500  1
  F  F7  1  0.02626300  0.61885500  0.06024500  1
  F  F8  1  0.38114500  0.97373700  0.56024500  1
  F  F9  1  0.97373700  0.38114500  0.56024500  1
  F  F10  1  0.45756100  0.68194400  0.05570300  1
  F  F11  1  0.68194400  0.45756100  0.05570300  1
  F  F12  1  0.54243900  0.31805600  0.55570300  1
  F  F13  1  0.31805600  0.54243900  0.55570300  1
  F  F14  1  0.47391200  0.87194700  0.90388200  1
  F  F15  1  0.87194700  0.47391200  0.90388200  1
  F  F16  1  0.52608800  0.12805300  0.40388200  1
  F  F17  1  0.12805300  0.52608800  0.40388200  1
  F  F18  1  0.46630100  0.84137900  0.74970300  1
  F  F19  1  0.84137900  0.46630100  0.74970300  1
  F  F20  1  0.53369900  0.15862100  0.24970300  1
  F  F21  1  0.15862100  0.53369900  0.24970300  1
loop_
_geom_bond_atom_site_label_1
_geom_bond_atom_site_label_2
_geom_bond_distance
_geom_bond_site_symmetry_2
K0 O1 3.067084 1_555
K0 O0 3.067084 1_555
K1 O3 3.067084 1_555
K1 O2 3.067084 1_555
K2 O1 3.248470 1_555
K3 O0 3.248470 1_555
K4 O3 3.248470 1_555
K5 O2 3.248470 1_555
Mo0 S5 2.362000 1_545
Mo0 S4 2.362000 1_455
Mo0 S0 2.432273 1_446
Mo1 S6 2.362000 1_655
Mo1 S7 2.362000 1_565
Mo1 S1 2.432273 1_665
Mo2 S2 2.321243 1_555
Mo2 S4 2.369109 1_565
Mo2 S0 2.402442 1_556
Mo3 S2 2.321243 1_555
Mo3 S5 2.369109 1_655
Mo3 S0 2.402442 1_556
Mo4 S3 2.321243 1_555
Mo4 S6 2.369109 1_545
Mo4 S1 2.402442 1_555
Mo5 S3 2.321243 1_555
Mo5 S7 2.369109 1_455
Mo5 S1 2.402442 1_555
O0 O1 1.236757 1_555
O2 O3 1.236757 1_555
F0 Mo0 2.082390 1_555
F0 K2 2.623194 1_555
F0 K3 2.623194 1_555
F1 Mo1 2.082390 1_555
F1 K5 2.623194 1_555
F1 K4 2.623194 1_555
F2 Mo1 2.085187 1_555
F2 K7 2.601085 1_565
F2 K0 2.602404 1_555
F2 K4 2.978154 1_555
F3 Mo1 2.085187 1_555
F3 K6 2.601085 1_655
F3 K0 2.602404 1_555
F3 K5 2.978154 1_555
F4 Mo0 2.085187 1_554
F4 K9 2.601085 1_545
F4 K1 2.602404 1_555
F4 K2 2.978154 1_554
F5 Mo0 2.085187 1_554
F5 K8 2.601085 1_455
F5 K1 2.602404 1_555
F5 K3 2.978154 1_554
F6 Mo2 2.089286 1_544
F6 K2 2.725262 1_554
F6 K9 2.727250 1_545
F6 K8 2.793802 1_555
F7 Mo3 2.089286 1_454
F7 K3 2.725262 1_554
F7 K8 2.727250 1_455
F7 K9 2.793802 1_555
F8 Mo4 2.089286 1_565
F8 K4 2.725262 1_555
F8 K7 2.727250 1_565
F8 K6 2.793802 1_555
F9 Mo5 2.089286 1_655
F9 K5 2.725262 1_555
F9 K6 2.727250 1_655
F9 K7 2.793802 1_555
F10 Mo2 2.095480 1_554
F10 K3 2.684763 1_554
F10 K9 2.729031 1_555
F10 K1 2.767914 1_555
F11 Mo3 2.095480 1_554
F11 K2 2.684763 1_554
F11 K8 2.729031 1_555
F11 K1 2.767914 1_555
F12 Mo4 2.095480 1_555
F12 K5 2.684763 1_555
F12 K7 2.729031 1_555
F12 K0 2.767914 1_555
F13 Mo5 2.095480 1_555
F13 K4 2.684763 1_555
F13 K6 2.729031 1_555
F13 K0 2.767914 1_555
F14 H0 1.314219 1_555
F14 Mo2 2.214111 1_555
F14 K2 2.752000 1_565
F14 K3 2.944257 1_555
F15 H1 1.314219 1_555
F15 Mo3 2.214111 1_555
F15 K3 2.752000 1_655
F15 K2 2.944257 1_555
F16 H2 1.314219 1_555
F16 Mo4 2.214111 1_555
F16 K4 2.752000 1_545
F16 K5 2.944257 1_555
F17 H3 1.314219 1_555
F17 Mo5 2.214111 1_555
F17 K5 2.752000 1_455
F17 K4 2.944257 1_555
F18 H0 1.039336 1_555
F18 K6 2.846852 1_555
F18 K7 2.895086 1_565
F19 H1 1.039336 1_555
F19 K7 2.846852 1_555
F19 K6 2.895086 1_655
F20 H2 1.039336 1_555
F20 K8 2.846852 1_555
F20 K9 2.895086 1_545
F21 H3 1.039336 1_555
F21 K9 2.846852 1_555
F21 K8 2.895086 1_455
