# generated using pymatgen
data_DyGa2Ni3
_symmetry_space_group_name_H-M   'P 1'
_cell_length_a   4.03360363
_cell_length_b   8.69761811
_cell_length_c   8.69761831
_cell_angle_alpha   60.02519731
_cell_angle_beta   90.00000000
_cell_angle_gamma   90.00000000
_symmetry_Int_Tables_number   1
_chemical_formula_structural   DyGa2Ni3
_chemical_formula_sum   'Dy3 Ga6 Ni9'
_cell_volume   264.32287194
_cell_formula_units_Z   3
loop_
 _symmetry_equiv_pos_site_id
 _symmetry_equiv_pos_as_xyz
  1  'x, y, z'
loop_
 _atom_site_type_symbol
 _atom_site_label
 _atom_site_symmetry_multiplicity
 _atom_site_fract_x
 _atom_site_fract_y
 _atom_site_fract_z
 _atom_site_occupancy
  Dy  Dy0  1  0.50000000  0.33329494  0.33325723  1
  Dy  Dy1  1  0.50000000  0.66674277  0.66670506  1
  Dy  Dy2  1  0.00000000  0.00047708  -0.00047708  1
  Ga  Ga0  1  0.00000000  0.52227949  0.47772051  1
  Ga  Ga1  1  0.00000000  0.47765034  0.00027096  1
  Ga  Ga2  1  0.00000000  -0.00027096  0.52234966  1
  Ga  Ga3  1  0.50000000  0.27195621  0.72804379  1
  Ga  Ga4  1  0.50000000  0.72834855  0.00005989  1
  Ga  Ga5  1  0.50000000  -0.00005989  0.27165145  1
  Ni  Ni0  1  0.00000000  0.17186277  0.20170714  1
  Ni  Ni1  1  0.00000000  0.20154654  0.62632556  1
  Ni  Ni2  1  0.00000000  0.62664243  0.17202311  1
  Ni  Ni3  1  0.00000000  0.79829286  0.82813723  1
  Ni  Ni4  1  0.00000000  0.37367444  0.79845346  1
  Ni  Ni5  1  0.00000000  0.82797689  0.37335757  1
  Ni  Ni6  1  0.50000000  0.70925845  0.29074155  1
  Ni  Ni7  1  0.50000000  0.29018611  -0.00004198  1
  Ni  Ni8  1  0.50000000  0.00004198  0.70981389  1
loop_
_geom_bond_atom_site_label_1
_geom_bond_atom_site_label_2
_geom_bond_distance
_geom_bond_site_symmetry_2
Dy0 Ni0 2.992211 1_555
Dy0 Ni0 2.992211 1_655
Dy0 Ni1 2.993207 1_655
Dy0 Ni1 2.993207 1_555
Dy0 Ni2 2.994758 1_655
Dy0 Ni2 2.994758 1_555
Dy0 Ni6 3.101820 1_555
Dy0 Ni7 3.103282 1_555
Dy0 Ni8 3.105177 1_555
Dy0 Ga3 3.200695 1_555
Dy0 Ga5 3.200932 1_555
Dy0 Ga4 3.202298 1_555
Dy0 Ga1 3.224633 1_655
Dy0 Ga1 3.224633 1_555
Dy0 Ga0 3.226729 1_655
Dy0 Ga0 3.226729 1_555
Dy0 Ga2 3.228254 1_655
Dy0 Ga2 3.228254 1_555
Dy1 Ni3 2.992211 1_555
Dy1 Ni3 2.992211 1_655
Dy1 Ni4 2.993207 1_555
Dy1 Ni4 2.993207 1_655
Dy1 Ni5 2.994758 1_655
Dy1 Ni5 2.994758 1_555
Dy1 Ni6 3.101820 1_555
Dy1 Ni8 3.103282 1_565
Dy1 Ni7 3.105177 1_556
Dy1 Ga3 3.200695 1_555
Dy1 Ga4 3.200932 1_556
Dy1 Ga5 3.202298 1_565
Dy1 Ga2 3.224633 1_565
Dy1 Ga2 3.224633 1_665
Dy1 Ga0 3.226729 1_655
Dy1 Ga0 3.226729 1_555
Dy1 Ga1 3.228254 1_656
Dy1 Ga1 3.228254 1_556
Dy2 Ni4 2.814641 1_554
Dy2 Ni1 2.814641 1_554
Dy2 Ni3 2.816694 1_544
Dy2 Ni0 2.816694 1_555
Dy2 Ni2 2.819306 1_545
Dy2 Ni5 2.819306 1_545
Dy2 Ga3 3.105979 1_554
Dy2 Ga3 3.105979 1_454
Dy2 Ga4 3.107819 1_545
Dy2 Ga4 3.107819 1_445
Dy2 Ga5 3.107819 1_555
Dy2 Ga5 3.107819 1_455
Dy2 Ni7 3.228981 1_555
Dy2 Ni7 3.228981 1_455
Dy2 Ni8 3.228981 1_454
Dy2 Ni8 3.228981 1_554
Dy2 Ni6 3.238519 1_445
Dy2 Ni6 3.238519 1_545
Ga0 Ni5 2.341313 1_555
Ga0 Ni2 2.341313 1_555
Ga0 Ni1 2.418608 1_555
Ga0 Ni4 2.418608 1_555
Ga0 Ni6 2.591190 1_555
Ga0 Ni6 2.591190 1_455
Ga1 Ni4 2.342058 1_554
Ga1 Ni0 2.342435 1_555
Ga1 Ni2 2.417682 1_555
Ga1 Ni3 2.418036 1_554
Ga1 Ni7 2.594309 1_455
Ga1 Ni7 2.594309 1_555
Ga2 Ni1 2.342058 1_555
Ga2 Ni3 2.342435 1_545
Ga2 Ni5 2.417682 1_545
Ga2 Ni0 2.418036 1_555
Ga2 Ni8 2.594309 1_455
Ga2 Ni8 2.594309 1_555
Ga3 Ni4 2.401375 1_555
Ga3 Ni4 2.401375 1_655
Ga3 Ni1 2.401375 1_555
Ga3 Ni1 2.401375 1_655
Ga3 Ni8 2.448080 1_555
Ga3 Ni7 2.448080 1_556
Ga4 Ni3 2.400952 1_554
Ga4 Ni3 2.400952 1_654
Ga4 Ni2 2.401036 1_555
Ga4 Ni2 2.401036 1_655
Ga4 Ni8 2.448688 1_564
Ga4 Ni6 2.449509 1_555
Ga5 Ni0 2.400952 1_655
Ga5 Ni0 2.400952 1_555
Ga5 Ni5 2.401036 1_645
Ga5 Ni5 2.401036 1_545
Ga5 Ni7 2.448688 1_555
Ga5 Ni6 2.449508 1_545
Ni0 Ni7 2.530064 1_455
Ni0 Ni7 2.530064 1_555
Ni0 Ni5 2.590929 1_545
Ni1 Ni8 2.528782 1_555
Ni1 Ni8 2.528782 1_455
Ni1 Ni4 2.592729 1_555
Ni2 Ni6 2.528125 1_555
Ni2 Ni6 2.528125 1_455
Ni2 Ni3 2.590930 1_554
Ni3 Ni8 2.530064 1_465
Ni3 Ni8 2.530064 1_565
Ni4 Ni7 2.528782 1_456
Ni4 Ni7 2.528782 1_556
Ni5 Ni6 2.528125 1_555
Ni5 Ni6 2.528125 1_455
