# generated using pymatgen
data_BaCaSmNbO6
_symmetry_space_group_name_H-M   'P 1'
_cell_length_a   8.45354632
_cell_length_b   8.42592807
_cell_length_c   8.47958246
_cell_angle_alpha   90.00000000
_cell_angle_beta   90.00000000
_cell_angle_gamma   90.00000000
_symmetry_Int_Tables_number   1
_chemical_formula_structural   BaCaSmNbO6
_chemical_formula_sum   'Ba4 Ca4 Sm4 Nb4 O24'
_cell_volume   603.99195203
_cell_formula_units_Z   4
loop_
 _symmetry_equiv_pos_site_id
 _symmetry_equiv_pos_as_xyz
  1  'x, y, z'
loop_
 _atom_site_type_symbol
 _atom_site_label
 _atom_site_symmetry_multiplicity
 _atom_site_fract_x
 _atom_site_fract_y
 _atom_site_fract_z
 _atom_site_occupancy
  Ba  Ba0  1  -0.00000000  -0.00000000  0.00000000  1
  Ba  Ba1  1  0.50000000  0.50000000  0.50000000  1
  Ba  Ba2  1  0.50000000  -0.00000000  0.00000000  1
  Ba  Ba3  1  -0.00000000  -0.00000000  0.50000000  1
  Ca  Ca0  1  0.00000000  0.50000000  0.50000000  1
  Ca  Ca1  1  0.50000000  -0.00000000  0.50000000  1
  Ca  Ca2  1  0.50000000  0.50000000  0.00000000  1
  Ca  Ca3  1  0.00000000  0.50000000  0.00000000  1
  Sm  Sm0  1  0.25362233  0.25610157  0.25052673  1
  Sm  Sm1  1  0.74637767  0.74389843  0.25052673  1
  Sm  Sm2  1  0.74637767  0.25610157  0.74947327  1
  Sm  Sm3  1  0.25362233  0.74389843  0.74947327  1
  Nb  Nb0  1  0.75128284  0.74300975  0.74809437  1
  Nb  Nb1  1  0.24871716  0.25699025  0.74809437  1
  Nb  Nb2  1  0.24871716  0.74300975  0.25190563  1
  Nb  Nb3  1  0.75128284  0.25699025  0.25190563  1
  O  O0  1  0.98494790  0.22401412  0.28014793  1
  O  O1  1  0.01505210  0.77598588  0.28014793  1
  O  O2  1  0.01505210  0.22401412  0.71985207  1
  O  O3  1  0.98494790  0.77598588  0.71985207  1
  O  O4  1  0.27258681  0.98123757  0.21712450  1
  O  O5  1  0.27258681  0.01876243  0.78287550  1
  O  O6  1  0.72741319  0.01876243  0.21712450  1
  O  O7  1  0.72741319  0.98123757  0.78287550  1
  O  O8  1  0.20554315  0.29948681  0.98300124  1
  O  O9  1  0.79445685  0.29948681  0.01699876  1
  O  O10  1  0.20554315  0.70051319  0.01699876  1
  O  O11  1  0.79445685  0.70051319  0.98300124  1
  O  O12  1  0.52047913  0.30425099  0.20061441  1
  O  O13  1  0.47952087  0.69574901  0.20061441  1
  O  O14  1  0.47952087  0.30425099  0.79938559  1
  O  O15  1  0.52047913  0.69574901  0.79938559  1
  O  O16  1  0.20828841  0.51665638  0.31415910  1
  O  O17  1  0.20828841  0.48334362  0.68584090  1
  O  O18  1  0.79171159  0.48334362  0.31415910  1
  O  O19  1  0.79171159  0.51665638  0.68584090  1
  O  O20  1  0.30677473  0.20927490  0.51877268  1
  O  O21  1  0.69322527  0.20927490  0.48122732  1
  O  O22  1  0.30677473  0.79072510  0.48122732  1
  O  O23  1  0.69322527  0.79072510  0.51877268  1
loop_
_geom_bond_atom_site_label_1
_geom_bond_atom_site_label_2
_geom_bond_distance
_geom_bond_site_symmetry_2
Ba0 O6 2.953752 1_455
Ba0 O4 2.953752 1_545
Ba0 O7 2.953752 1_444
Ba0 O5 2.953752 1_554
Ba0 O2 3.036795 1_554
Ba0 O1 3.036795 1_545
Ba0 O0 3.036795 1_455
Ba0 O3 3.036795 1_444
Ba0 O9 3.067204 1_455
Ba0 O11 3.067204 1_444
Ba0 O10 3.067204 1_545
Ba0 O8 3.067204 1_554
Ba1 O17 2.929873 1_555
Ba1 O18 2.929873 1_555
Ba1 O16 2.929873 1_555
Ba1 O19 2.929873 1_555
Ba1 O21 2.948583 1_555
Ba1 O22 2.948583 1_555
Ba1 O20 2.948583 1_555
Ba1 O23 2.948583 1_555
Ba1 O14 3.032359 1_555
Ba1 O15 3.032359 1_555
Ba1 O12 3.032359 1_555
Ba1 O13 3.032359 1_555
Ba2 O4 2.666560 1_545
Ba2 O5 2.666560 1_554
Ba2 O6 2.666560 1_555
Ba2 O7 2.666560 1_544
Ba2 O14 3.081531 1_554
Ba2 O13 3.081531 1_545
Ba2 O12 3.081531 1_555
Ba2 O15 3.081531 1_544
Ba3 O0 2.656010 1_455
Ba3 O1 2.656010 1_545
Ba3 O3 2.656010 1_445
Ba3 O2 2.656010 1_555
Ca0 O16 2.367138 1_555
Ca0 O17 2.367138 1_555
Ca0 O18 2.367138 1_455
Ca0 O19 2.367138 1_455
Ca0 O3 2.983168 1_455
Ca0 O2 2.983168 1_555
Ca0 O0 2.983168 1_455
Ca0 O1 2.983168 1_555
Ca1 O21 2.408903 1_555
Ca1 O20 2.408903 1_555
Ca1 O23 2.408903 1_545
Ca1 O22 2.408903 1_545
Ca2 O15 2.375755 1_554
Ca2 O12 2.375755 1_555
Ca2 O14 2.375755 1_554
Ca2 O13 2.375755 1_555
Ca3 O10 2.427831 1_555
Ca3 O8 2.427831 1_554
Ca3 O9 2.427831 1_455
Ca3 O11 2.427831 1_454
Nb0 O19 2.008238 1_555
Nb0 O3 2.009069 1_555
Nb0 O15 2.038276 1_555
Nb0 O7 2.038851 1_555
Nb0 O23 2.045434 1_555
Nb0 O11 2.056486 1_555
Nb1 O17 2.008238 1_555
Nb1 O2 2.009069 1_555
Nb1 O14 2.038276 1_555
Nb1 O5 2.038851 1_555
Nb1 O20 2.045434 1_555
Nb1 O8 2.056486 1_555
Nb2 O16 2.008238 1_555
Nb2 O1 2.009069 1_555
Nb2 O13 2.038276 1_555
Nb2 O4 2.038851 1_555
Nb2 O22 2.045434 1_555
Nb2 O10 2.056486 1_555
Nb3 O18 2.008238 1_555
Nb3 O0 2.009069 1_555
Nb3 O12 2.038276 1_555
Nb3 O6 2.038851 1_555
Nb3 O21 2.045434 1_555
Nb3 O9 2.056486 1_555
O0 Sm0 2.301037 1_655
O1 Sm1 2.301037 1_455
O2 Sm2 2.301037 1_455
O3 Sm3 2.301037 1_655
O4 Sm0 2.338741 1_565
O5 Sm3 2.338741 1_545
O6 Sm1 2.338741 1_545
O7 Sm2 2.338741 1_565
O8 Sm0 2.333440 1_556
O9 Sm2 2.333440 1_554
O10 Sm3 2.333440 1_554
O11 Sm1 2.333440 1_556
O12 Sm0 2.330825 1_555
O13 Sm1 2.330825 1_555
O14 Sm2 2.330825 1_555
O15 Sm3 2.330825 1_555
O16 Sm0 2.293003 1_555
O17 Sm3 2.293003 1_555
O18 Sm1 2.293003 1_555
O19 Sm2 2.293003 1_555
O20 Sm0 2.351901 1_555
O21 Sm2 2.351901 1_555
O22 Sm3 2.351901 1_555
O23 Sm1 2.351901 1_555
