# generated using pymatgen
data_AlV2O4
_symmetry_space_group_name_H-M   'P 1'
_cell_length_a   6.03521209
_cell_length_b   5.98560249
_cell_length_c   10.18325630
_cell_angle_alpha   72.97478280
_cell_angle_beta   90.42399011
_cell_angle_gamma   120.92485264
_symmetry_Int_Tables_number   1
_chemical_formula_structural   AlV2O4
_chemical_formula_sum   'Al4 V8 O16'
_cell_volume   297.11414425
_cell_formula_units_Z   4
loop_
 _symmetry_equiv_pos_site_id
 _symmetry_equiv_pos_as_xyz
  1  'x, y, z'
loop_
 _atom_site_type_symbol
 _atom_site_label
 _atom_site_symmetry_multiplicity
 _atom_site_fract_x
 _atom_site_fract_y
 _atom_site_fract_z
 _atom_site_occupancy
  Al  Al0  1  0.68895600  0.37440600  0.93489000  1
  Al  Al1  1  0.18769700  0.37027600  0.43459400  1
  Al  Al2  1  0.81106900  0.62566500  0.56511500  1
  Al  Al3  1  0.31225600  0.62966100  0.06539600  1
  V  V0  1  0.25002000  0.50003700  0.74998200  1
  V  V1  1  0.25005400  0.00007200  0.74999600  1
  V  V2  1  0.75004600  0.00006400  0.75002000  1
  V  V3  1  0.00268200  0.00673000  0.99419100  1
  V  V4  1  0.49732300  0.99325000  0.50581400  1
  V  V5  1  0.74997100  0.49995500  0.25001800  1
  V  V6  1  0.74996400  0.99995000  0.24998000  1
  V  V7  1  0.24998500  0.99998200  0.24998900  1
  O  O0  1  0.87882700  0.75765000  0.37484100  1
  O  O1  1  0.37245700  0.75836300  0.87542200  1
  O  O2  1  0.62112100  0.24229900  0.12515700  1
  O  O3  1  0.12757100  0.24169200  0.62457300  1
  O  O4  1  0.87119300  0.25371500  0.87413500  1
  O  O5  1  0.36908800  0.24474800  0.37337300  1
  O  O6  1  0.11821200  0.75059700  0.62800600  1
  O  O7  1  0.62257300  0.75478400  0.12695400  1
  O  O8  1  0.62392700  0.25480500  0.62717300  1
  O  O9  1  0.12603300  0.25320000  0.12892300  1
  O  O10  1  0.38181700  0.24949400  0.87200000  1
  O  O11  1  0.87738000  0.24511600  0.37303500  1
  O  O12  1  0.62883700  0.74633000  0.62590300  1
  O  O13  1  0.13085200  0.75516000  0.12662900  1
  O  O14  1  0.87616100  0.74525900  0.87282200  1
  O  O15  1  0.37392400  0.74673900  0.37106900  1
loop_
_geom_bond_atom_site_label_1
_geom_bond_atom_site_label_2
_geom_bond_distance
_geom_bond_site_symmetry_2
Al0 O4 1.789616 1_555
Al0 O14 1.792943 1_555
Al0 O10 1.800975 1_555
Al0 O2 1.824490 1_556
Al1 O11 1.810314 1_455
Al1 O5 1.811485 1_555
Al1 O15 1.820270 1_555
Al1 O3 1.821579 1_555
Al2 O12 1.789621 1_555
Al2 O8 1.792979 1_555
Al2 O6 1.800998 1_655
Al2 O0 1.824547 1_555
Al3 O7 1.810313 1_555
Al3 O13 1.811463 1_555
Al3 O9 1.820261 1_555
Al3 O1 1.821533 1_554
O0 V7 2.088243 1_655
O0 V6 2.095176 1_555
O0 V5 2.121377 1_555
O1 V1 2.067047 1_565
O1 V2 2.118831 1_565
O1 V0 2.129994 1_555
O2 V7 2.088067 1_545
O2 V6 2.095141 1_545
O2 V5 2.121524 1_555
O3 V1 2.067004 1_555
O3 V2 2.118758 1_455
O3 V0 2.129819 1_555
O4 V2 2.099084 1_555
O4 V3 2.107845 1_655
O4 V0 2.118001 1_655
O5 V7 2.055226 1_545
O5 V5 2.122590 1_555
O5 V4 2.162673 1_545
O6 V1 2.063139 1_565
O6 V4 2.112119 1_555
O6 V0 2.132054 1_555
O7 V6 2.053476 1_555
O7 V5 2.135418 1_555
O7 V3 2.158895 1_664
O8 V1 2.090310 1_555
O8 V4 2.109877 1_545
O8 V2 2.128632 1_555
O9 V6 2.092790 1_445
O9 V7 2.105773 1_545
O9 V3 2.157400 1_554
O10 V1 2.063028 1_555
O10 V3 2.112194 1_555
O10 V0 2.132091 1_555
O11 V6 2.053718 1_545
O11 V5 2.135330 1_555
O11 V4 2.158757 1_545
O12 V2 2.099449 1_565
O12 V4 2.107799 1_555
O12 V0 2.117661 1_555
O13 V7 2.055261 1_555
O13 V5 2.122716 1_455
O13 V3 2.162682 1_564
O14 V1 2.090407 1_665
O14 V3 2.109604 1_665
O14 V2 2.128721 1_565
O15 V6 2.092792 1_555
O15 V7 2.105879 1_555
O15 V4 2.157678 1_555
