# generated using pymatgen
data_CaGa2
_symmetry_space_group_name_H-M   'P 1'
_cell_length_a   4.44326067
_cell_length_b   4.44326293
_cell_length_c   7.38766439
_cell_angle_alpha   90.00000000
_cell_angle_beta   90.00000000
_cell_angle_gamma   119.99999072
_symmetry_Int_Tables_number   1
_chemical_formula_structural   CaGa2
_chemical_formula_sum   'Ca2 Ga4'
_cell_volume   126.31113445
_cell_formula_units_Z   2
loop_
 _symmetry_equiv_pos_site_id
 _symmetry_equiv_pos_as_xyz
  1  'x, y, z'
loop_
 _atom_site_type_symbol
 _atom_site_label
 _atom_site_symmetry_multiplicity
 _atom_site_fract_x
 _atom_site_fract_y
 _atom_site_fract_z
 _atom_site_occupancy
  Ca  Ca0  1  -0.00000000  -0.00000000  0.25000000  1
  Ca  Ca1  1  -0.00000000  -0.00000000  0.75000000  1
  Ga  Ga0  1  0.33333300  0.66666700  0.04252573  1
  Ga  Ga1  1  0.66666700  0.33333300  0.54252573  1
  Ga  Ga2  1  0.66666700  0.33333300  0.95747427  1
  Ga  Ga3  1  0.33333300  0.66666700  0.45747427  1
loop_
_geom_bond_atom_site_label_1
_geom_bond_atom_site_label_2
_geom_bond_distance
_geom_bond_site_symmetry_2
Ca0 Ga0 2.988339 1_545
Ca0 Ga3 2.988339 1_545
Ca0 Ga3 2.988342 1_445
Ca0 Ga0 2.988342 1_445
Ca0 Ga0 2.988343 1_555
Ca0 Ga3 2.988343 1_555
Ca0 Ga2 3.354269 1_454
Ca0 Ga1 3.354269 1_455
Ca0 Ga2 3.354272 1_554
Ca0 Ga1 3.354272 1_555
Ca0 Ga2 3.354273 1_444
Ca0 Ga1 3.354273 1_445
Ca1 Ga1 2.988339 1_455
Ca1 Ga2 2.988339 1_455
Ca1 Ga1 2.988342 1_555
Ca1 Ga2 2.988342 1_555
Ca1 Ga1 2.988343 1_445
Ca1 Ga2 2.988343 1_445
Ca1 Ga0 3.354269 1_546
Ca1 Ga3 3.354269 1_545
Ca1 Ga0 3.354272 1_446
Ca1 Ga3 3.354272 1_445
Ca1 Ga0 3.354273 1_556
Ca1 Ga3 3.354273 1_555
Ga0 Ga2 2.641144 1_454
Ga0 Ga2 2.641146 1_564
Ga0 Ga2 2.641152 1_554
Ga0 Ga3 3.065501 1_555
Ga1 Ga3 2.641144 1_655
Ga1 Ga3 2.641146 1_545
Ga1 Ga3 2.641152 1_555
Ga1 Ga2 3.065501 1_555
