# generated using pymatgen
data_La3OsI3
_symmetry_space_group_name_H-M   'P 1'
_cell_length_a   10.95695853
_cell_length_b   10.95755086
_cell_length_c   10.95848190
_cell_angle_alpha   109.43525884
_cell_angle_beta   109.47450555
_cell_angle_gamma   109.49920543
_symmetry_Int_Tables_number   1
_chemical_formula_structural   La3OsI3
_chemical_formula_sum   'La12 Os4 I12'
_cell_volume   1012.87781699
_cell_formula_units_Z   4
loop_
 _symmetry_equiv_pos_site_id
 _symmetry_equiv_pos_as_xyz
  1  'x, y, z'
loop_
 _atom_site_type_symbol
 _atom_site_label
 _atom_site_symmetry_multiplicity
 _atom_site_fract_x
 _atom_site_fract_y
 _atom_site_fract_z
 _atom_site_occupancy
  La  La0  1  0.45369252  0.47679395  0.22683779  1
  La  La1  1  0.74874140  0.22728897  0.27170462  1
  La  La2  1  0.74892558  0.02157117  0.47711557  1
  La  La3  1  0.22808892  0.45632312  0.47825944  1
  La  La4  1  0.27270038  0.75131834  0.22833178  1
  La  La5  1  0.04381238  0.27198733  0.02188758  1
  La  La6  1  0.02321463  0.04620813  0.27304391  1
  La  La7  1  0.47838306  0.75094936  0.02280753  1
  La  La8  1  0.47841142  0.22741410  0.45565089  1
  La  La9  1  0.02313412  0.47701946  0.75013383  1
  La  La10  1  0.27269336  0.02149053  0.04437268  1
  La  La11  1  0.22821180  0.27183135  0.74996752  1
  Os  Os0  1  0.24898032  0.25096696  0.25002513  1
  Os  Os1  1  0.49995667  -0.00005876  0.24997663  1
  Os  Os2  1  0.00198064  0.25102584  0.50106114  1
  Os  Os3  1  0.24897188  0.49808396  -0.00105597  1
  I  I0  1  0.25001200  0.75989975  0.74020729  1
  I  I1  1  0.51997569  0.50991588  0.75993887  1
  I  I2  1  0.98028267  0.74019884  0.99018706  1
  I  I3  1  0.74011111  0.24996620  0.75977592  1
  I  I4  1  0.99010794  0.98023479  0.74014894  1
  I  I5  1  0.25000468  0.98984962  0.50997444  1
  I  I6  1  0.75980694  0.51974702  0.50978688  1
  I  I7  1  0.51018091  0.25006093  0.99010974  1
  I  I8  1  0.75982852  0.74017110  0.25002032  1
  I  I9  1  0.73998417  0.98999934  0.98000723  1
  I  I10  1  0.98991665  0.50986198  0.24995475  1
  I  I11  1  0.50988665  0.75987974  0.51976848  1
loop_
_geom_bond_atom_site_label_1
_geom_bond_atom_site_label_2
_geom_bond_distance
_geom_bond_site_symmetry_2
La0 Os0 2.883057 1_555
La0 Os3 2.885256 1_555
La1 Os1 2.886584 1_555
La1 Os2 2.918394 1_655
La2 Os1 2.888208 1_555
La2 Os2 2.915501 1_655
La3 Os2 2.885652 1_555
La3 Os0 2.889912 1_555
La4 Os1 2.885456 1_565
La4 Os3 2.920085 1_555
La5 Os3 2.885775 1_555
La5 Os0 2.887621 1_555
La6 Os0 2.881724 1_555
La6 Os2 2.887715 1_555
La7 Os1 2.890345 1_565
La7 Os3 2.914442 1_555
La8 Os1 2.890927 1_555
La8 Os0 2.916644 1_555
La9 Os3 2.883032 1_556
La9 Os2 2.886673 1_555
La10 Os1 2.887657 1_555
La10 Os0 2.919682 1_555
La11 Os2 2.887406 1_555
La11 Os3 2.889722 1_556
I0 La9 3.325673 1_555
I0 La7 3.325733 1_556
I0 La10 3.464400 1_566
I0 La3 3.466314 1_555
I1 La11 3.323764 1_555
I1 La3 3.325490 1_555
I1 La8 3.476478 1_555
I1 La7 3.478096 1_556
I2 La10 3.322493 1_666
I2 La4 3.323192 1_656
I2 La6 3.482915 1_666
I2 La9 3.483664 1_655
I3 La9 3.325729 1_655
I3 La2 3.327049 1_555
I3 La8 3.463718 1_555
I3 La5 3.465745 1_656
I4 La11 3.323584 1_665
I4 La5 3.326101 1_666
I4 La10 3.476432 1_666
I4 La2 3.476504 1_565
I5 La8 3.327069 1_565
I5 La6 3.329728 1_565
I5 La4 3.463575 1_555
I5 La11 3.467597 1_565
I6 La8 3.322880 1_555
I6 La1 3.325197 1_555
I6 La0 3.482266 1_555
I6 La9 3.483743 1_655
I7 La10 3.327104 1_556
I7 La0 3.330671 1_556
I7 La1 3.462192 1_556
I7 La11 3.466412 1_555
I8 La7 3.323016 1_555
I8 La2 3.324564 1_565
I8 La0 3.482263 1_555
I8 La6 3.482572 1_665
I9 La6 3.329431 1_666
I9 La1 3.329507 1_566
I9 La7 3.463942 1_556
I9 La5 3.465698 1_666
I10 La3 3.325538 1_655
I10 La5 3.326483 1_655
I10 La1 3.475022 1_555
I10 La4 3.477161 1_655
I11 La4 3.326588 1_555
I11 La0 3.329601 1_555
I11 La2 3.463422 1_565
I11 La3 3.464774 1_555
