# generated using pymatgen
data_Li7Mn2(CoO4)3
_symmetry_space_group_name_H-M   'P 1'
_cell_length_a   2.90973300
_cell_length_b   7.75867511
_cell_length_c   9.78179799
_cell_angle_alpha   92.94012344
_cell_angle_beta   97.78595718
_cell_angle_gamma   100.24535357
_symmetry_Int_Tables_number   1
_chemical_formula_structural   Li7Mn2(CoO4)3
_chemical_formula_sum   'Li7 Mn2 Co3 O12'
_cell_volume   214.66159868
_cell_formula_units_Z   1
loop_
 _symmetry_equiv_pos_site_id
 _symmetry_equiv_pos_as_xyz
  1  'x, y, z'
loop_
 _atom_site_type_symbol
 _atom_site_label
 _atom_site_symmetry_multiplicity
 _atom_site_fract_x
 _atom_site_fract_y
 _atom_site_fract_z
 _atom_site_occupancy
  Li  Li0  1  0.58217500  0.41516000  0.74570500  1
  Li  Li1  1  0.73923300  0.24107400  0.24571700  1
  Li  Li2  1  0.91077300  0.07278600  0.75585600  1
  Li  Li3  1  0.08922700  0.92721400  0.24414400  1
  Li  Li4  1  0.26076700  0.75892600  0.75428300  1
  Li  Li5  1  0.41782500  0.58484000  0.25429500  1
  Li  Li6  1  0.50000000  0.00000000  0.00000000  1
  Mn  Mn0  1  0.83155200  0.67596800  0.99567700  1
  Mn  Mn1  1  0.16844800  0.32403200  0.00432300  1
  Co  Co0  1  0.00000000  0.50000000  0.50000000  1
  Co  Co1  1  0.33266700  0.16676700  0.50179200  1
  Co  Co2  1  0.66733300  0.83323300  0.49820800  1
  O  O0  1  0.22460600  0.54665000  0.89342100  1
  O  O1  1  0.36386300  0.37711000  0.38662600  1
  O  O2  1  0.57383500  0.22837700  0.89056500  1
  O  O3  1  0.70246200  0.04189200  0.38439200  1
  O  O4  1  0.86467000  0.85576400  0.88196300  1
  O  O5  1  0.03751900  0.71078000  0.38251600  1
  O  O6  1  0.96248100  0.28922000  0.61748400  1
  O  O7  1  0.13533000  0.14423600  0.11803700  1
  O  O8  1  0.29753800  0.95810800  0.61560800  1
  O  O9  1  0.42616500  0.77162300  0.10943500  1
  O  O10  1  0.63613700  0.62289000  0.61337400  1
  O  O11  1  0.77539400  0.45335000  0.10657900  1
loop_
_geom_bond_atom_site_label_1
_geom_bond_atom_site_label_2
_geom_bond_distance
_geom_bond_site_symmetry_2
Li0 O2 2.077514 1_555
Li0 O6 2.094608 1_555
Li0 O6 2.100944 1_455
Li0 O10 2.115866 1_555
Li0 O0 2.201087 1_555
Li0 O0 2.249769 1_655
Li1 O7 2.012849 1_555
Li1 O7 2.013575 1_655
Li1 O3 2.106014 1_555
Li1 O11 2.187029 1_555
Li1 O1 2.192433 1_655
Li1 O1 2.208059 1_555
Li2 O8 2.122352 1_545
Li2 O4 2.133636 1_545
Li2 O8 2.142306 1_645
Li2 O2 2.182349 1_555
Li2 O6 2.207485 1_555
Li2 O2 2.288106 1_655
Li3 O3 2.122352 1_565
Li3 O7 2.133636 1_565
Li3 O3 2.142306 1_465
Li3 O9 2.182349 1_555
Li3 O5 2.207485 1_555
Li3 O9 2.288106 1_455
Li4 O4 2.012849 1_555
Li4 O4 2.013575 1_455
Li4 O8 2.106014 1_555
Li4 O0 2.187029 1_555
Li4 O10 2.192433 1_455
Li4 O10 2.208059 1_555
Li5 O9 2.077514 1_555
Li5 O5 2.094608 1_555
Li5 O5 2.100944 1_655
Li5 O1 2.115866 1_555
Li5 O11 2.201087 1_555
Li5 O11 2.249769 1_455
Li6 O7 2.081634 1_555
Li6 O4 2.081634 1_544
Li6 O9 2.110256 1_545
Li6 O2 2.110256 1_554
Li6 O7 2.134514 1_655
Li6 O4 2.134514 1_444
Mn0 O4 1.825630 1_555
Mn0 O9 1.928566 1_656
Mn0 O9 1.939777 1_556
Mn0 O0 1.978437 1_555
Mn0 O0 1.982520 1_655
Mn0 O11 2.080066 1_556
Mn1 O7 1.825630 1_555
Mn1 O2 1.928566 1_454
Mn1 O2 1.939777 1_554
Mn1 O11 1.978437 1_555
Mn1 O11 1.982520 1_455
Mn1 O0 2.080066 1_554
Co0 O10 1.956699 1_455
Co0 O1 1.956699 1_555
Co0 O6 2.042135 1_455
Co0 O5 2.042135 1_555
Co0 O10 2.067045 1_555
Co0 O1 2.067045 1_455
Co1 O6 1.981813 1_455
Co1 O3 2.001693 1_555
Co1 O8 2.006913 1_545
Co1 O1 2.025904 1_555
Co1 O6 2.061590 1_555
Co1 O3 2.074450 1_455
Co2 O5 1.981813 1_655
Co2 O8 2.001693 1_555
Co2 O3 2.006913 1_565
Co2 O10 2.025904 1_555
Co2 O5 2.061590 1_555
Co2 O8 2.074450 1_655
