# generated using pymatgen
data_Ba4Fe3(Se3F2)2
_symmetry_space_group_name_H-M   'P 1'
_cell_length_a   6.49398800
_cell_length_b   13.23404500
_cell_length_c   19.49555200
_cell_angle_alpha   90.00000000
_cell_angle_beta   90.00000000
_cell_angle_gamma   90.00000000
_symmetry_Int_Tables_number   1
_chemical_formula_structural   Ba4Fe3(Se3F2)2
_chemical_formula_sum   'Ba16 Fe12 Se24 F16'
_cell_volume   1675.48145491
_cell_formula_units_Z   4
loop_
 _symmetry_equiv_pos_site_id
 _symmetry_equiv_pos_as_xyz
  1  'x, y, z'
loop_
 _atom_site_type_symbol
 _atom_site_label
 _atom_site_symmetry_multiplicity
 _atom_site_fract_x
 _atom_site_fract_y
 _atom_site_fract_z
 _atom_site_occupancy
  Ba  Ba0  1  0.26643200  0.74780900  0.57398000  1
  Ba  Ba1  1  0.23356800  0.24780900  0.92602000  1
  Ba  Ba2  1  0.73356800  0.25219100  0.07398000  1
  Ba  Ba3  1  0.76643200  0.75219100  0.42602000  1
  Ba  Ba4  1  0.73356800  0.25219100  0.42602000  1
  Ba  Ba5  1  0.76643200  0.75219100  0.07398000  1
  Ba  Ba6  1  0.26643200  0.74780900  0.92602000  1
  Ba  Ba7  1  0.23356800  0.24780900  0.57398000  1
  Ba  Ba8  1  0.75591700  0.50258900  0.57417300  1
  Ba  Ba9  1  0.74408300  0.00258900  0.92582700  1
  Ba  Ba10  1  0.24408300  0.49741100  0.07417300  1
  Ba  Ba11  1  0.25591700  0.99741100  0.42582700  1
  Ba  Ba12  1  0.24408300  0.49741100  0.42582700  1
  Ba  Ba13  1  0.25591700  0.99741100  0.07417300  1
  Ba  Ba14  1  0.75591700  0.50258900  0.92582700  1
  Ba  Ba15  1  0.74408300  0.00258900  0.57417300  1
  Fe  Fe0  1  0.64732200  0.70435900  0.75000000  1
  Fe  Fe1  1  0.85267800  0.20435900  0.75000000  1
  Fe  Fe2  1  0.35267800  0.29564100  0.25000000  1
  Fe  Fe3  1  0.14732200  0.79564100  0.25000000  1
  Fe  Fe4  1  0.50448400  0.62452600  0.25000000  1
  Fe  Fe5  1  0.99551600  0.12452600  0.25000000  1
  Fe  Fe6  1  0.49551600  0.37547400  0.75000000  1
  Fe  Fe7  1  0.00448400  0.87547400  0.75000000  1
  Fe  Fe8  1  0.14228300  0.54730400  0.75000000  1
  Fe  Fe9  1  0.35771700  0.04730400  0.75000000  1
  Fe  Fe10  1  0.85771700  0.45269600  0.25000000  1
  Fe  Fe11  1  0.64228300  0.95269600  0.25000000  1
  Se  Se0  1  0.26763800  0.72455400  0.75000000  1
  Se  Se1  1  0.23236200  0.22455400  0.75000000  1
  Se  Se2  1  0.73236200  0.27544600  0.25000000  1
  Se  Se3  1  0.76763800  0.77544600  0.25000000  1
  Se  Se4  1  0.76251700  0.52549800  0.75000000  1
  Se  Se5  1  0.73748300  0.02549800  0.75000000  1
  Se  Se6  1  0.23748300  0.47450200  0.25000000  1
  Se  Se7  1  0.26251700  0.97450200  0.25000000  1
  Se  Se8  1  0.78188900  0.77152900  0.85436400  1
  Se  Se9  1  0.71811100  0.27152900  0.64563600  1
  Se  Se10  1  0.21811100  0.22847100  0.35436400  1
  Se  Se11  1  0.28188900  0.72847100  0.14563600  1
  Se  Se12  1  0.21811100  0.22847100  0.14563600  1
  Se  Se13  1  0.28188900  0.72847100  0.35436400  1
  Se  Se14  1  0.78188900  0.77152900  0.64563600  1
  Se  Se15  1  0.71811100  0.27152900  0.85436400  1
  Se  Se16  1  0.27372600  0.47869500  0.64579400  1
  Se  Se17  1  0.22627400  0.97869500  0.85420600  1
  Se  Se18  1  0.72627400  0.52130500  0.14579400  1
  Se  Se19  1  0.77372600  0.02130500  0.35420600  1
  Se  Se20  1  0.72627400  0.52130500  0.35420600  1
  Se  Se21  1  0.77372600  0.02130500  0.14579400  1
  Se  Se22  1  0.27372600  0.47869500  0.85420600  1
  Se  Se23  1  0.22627400  0.97869500  0.64579400  1
  F  F0  1  0.51155800  0.62529400  0.50144800  1
  F  F1  1  0.98844200  0.12529400  0.99855200  1
  F  F2  1  0.48844200  0.37470600  0.00144800  1
  F  F3  1  0.01155800  0.87470600  0.49855200  1
  F  F4  1  0.48844200  0.37470600  0.49855200  1
  F  F5  1  0.01155800  0.87470600  0.00144800  1
  F  F6  1  0.51155800  0.62529400  0.99855200  1
  F  F7  1  0.98844200  0.12529400  0.50144800  1
  F  F8  1  0.51093100  0.87510000  0.49800800  1
  F  F9  1  0.98906900  0.37510000  0.00199200  1
  F  F10  1  0.48906900  0.12490000  0.99800800  1
  F  F11  1  0.01093100  0.62490000  0.50199200  1
  F  F12  1  0.48906900  0.12490000  0.50199200  1
  F  F13  1  0.01093100  0.62490000  0.99800800  1
  F  F14  1  0.51093100  0.87510000  0.00199200  1
  F  F15  1  0.98906900  0.37510000  0.49800800  1
loop_
_geom_bond_atom_site_label_1
_geom_bond_atom_site_label_2
_geom_bond_distance
_geom_bond_site_symmetry_2
Ba0 F0 2.676257 1_555
Ba0 F11 2.714488 1_555
Ba0 F8 2.748185 1_555
Ba0 F3 2.778879 1_555
Ba0 Se23 3.371139 1_555
Ba0 Se0 3.445389 1_555
Ba0 Se14 3.457061 1_455
Ba0 Se14 3.640738 1_555
Ba0 Se16 3.827067 1_555
Ba1 F1 2.676257 1_455
Ba1 F10 2.714488 1_555
Ba1 F9 2.748185 1_456
Ba1 F2 2.778879 1_556
Ba1 Se22 3.371139 1_555
Ba1 Se1 3.445389 1_555
Ba1 Se15 3.457061 1_555
Ba1 Se15 3.640738 1_455
Ba1 Se17 3.827067 1_545
Ba2 F2 2.676257 1_555
Ba2 F9 2.714488 1_555
Ba2 F10 2.748185 1_554
Ba2 F1 2.778879 1_554
Ba2 Se21 3.371139 1_555
Ba2 Se2 3.445389 1_555
Ba2 Se12 3.457061 1_655
Ba2 Se12 3.640738 1_555
Ba2 Se18 3.827067 1_555
Ba3 F3 2.676257 1_655
Ba3 F8 2.714488 1_555
Ba3 F11 2.748185 1_655
Ba3 F0 2.778879 1_555
Ba3 Se20 3.371139 1_555
Ba3 Se3 3.445389 1_555
Ba3 Se13 3.457061 1_555
Ba3 Se13 3.640738 1_655
Ba3 Se19 3.827067 1_565
Ba4 F4 2.676257 1_555
Ba4 F15 2.714488 1_555
Ba4 F12 2.748185 1_555
Ba4 F7 2.778879 1_555
Ba4 Se19 3.371139 1_555
Ba4 Se2 3.445389 1_555
Ba4 Se10 3.457061 1_655
Ba4 Se10 3.640738 1_555
Ba4 Se20 3.827067 1_555
Ba5 F5 2.676257 1_655
Ba5 F14 2.714488 1_555
Ba5 F13 2.748185 1_654
Ba5 F6 2.778879 1_554
Ba5 Se18 3.371139 1_555
Ba5 Se3 3.445389 1_555
Ba5 Se11 3.457061 1_555
Ba5 Se11 3.640738 1_655
Ba5 Se21 3.827067 1_565
Ba6 F6 2.676257 1_555
Ba6 F13 2.714488 1_555
Ba6 F14 2.748185 1_556
Ba6 F5 2.778879 1_556
Ba6 Se17 3.371139 1_555
Ba6 Se0 3.445389 1_555
Ba6 Se8 3.457061 1_455
Ba6 Se8 3.640738 1_555
Ba6 Se22 3.827067 1_555
Ba7 F7 2.676257 1_455
Ba7 F12 2.714488 1_555
Ba7 F15 2.748185 1_455
Ba7 F4 2.778879 1_555
Ba7 Se16 3.371139 1_555
Ba7 Se1 3.445389 1_555
Ba7 Se9 3.457061 1_555
Ba7 Se9 3.640738 1_455
Ba7 Se23 3.827067 1_545
Ba8 F0 2.676814 1_555
Ba8 F11 2.709770 1_655
Ba8 F15 2.709972 1_555
Ba8 F4 2.838103 1_555
Ba8 Se9 3.369245 1_555
Ba8 Se4 3.441493 1_555
Ba8 Se16 3.443098 1_555
Ba8 Se16 3.654724 1_655
Ba8 Se14 3.825850 1_555
Ba9 F1 2.676814 1_555
Ba9 F10 2.709770 1_555
Ba9 F14 2.709972 1_546
Ba9 F5 2.838103 1_646
Ba9 Se8 3.369245 1_545
Ba9 Se5 3.441493 1_555
Ba9 Se17 3.443098 1_645
Ba9 Se17 3.654724 1_545
Ba9 Se15 3.825850 1_555
Ba10 F2 2.676814 1_555
Ba10 F9 2.709770 1_455
Ba10 F13 2.709972 1_554
Ba10 F6 2.838103 1_554
Ba10 Se11 3.369245 1_555
Ba10 Se6 3.441493 1_555
Ba10 Se18 3.443098 1_555
Ba10 Se18 3.654724 1_455
Ba10 Se12 3.825850 1_555
Ba11 F3 2.676814 1_555
Ba11 F8 2.709770 1_555
Ba11 F12 2.709972 1_565
Ba11 F7 2.838103 1_465
Ba11 Se10 3.369245 1_565
Ba11 Se7 3.441493 1_555
Ba11 Se19 3.443098 1_465
Ba11 Se19 3.654724 1_565
Ba11 Se13 3.825850 1_555
Ba12 F4 2.676814 1_555
Ba12 F15 2.709770 1_455
Ba12 F11 2.709972 1_555
Ba12 F0 2.838103 1_555
Ba12 Se13 3.369245 1_555
Ba12 Se6 3.441493 1_555
Ba12 Se20 3.443098 1_555
Ba12 Se20 3.654724 1_455
Ba12 Se10 3.825850 1_555
Ba13 F5 2.676814 1_555
Ba13 F14 2.709770 1_555
Ba13 F10 2.709972 1_564
Ba13 F1 2.838103 1_464
Ba13 Se12 3.369245 1_565
Ba13 Se7 3.441493 1_555
Ba13 Se21 3.443098 1_465
Ba13 Se21 3.654724 1_565
Ba13 Se11 3.825850 1_555
Ba14 F6 2.676814 1_555
Ba14 F13 2.709770 1_655
Ba14 F9 2.709972 1_556
Ba14 F2 2.838103 1_556
Ba14 Se15 3.369245 1_555
Ba14 Se4 3.441493 1_555
Ba14 Se22 3.443098 1_555
Ba14 Se22 3.654724 1_655
Ba14 Se8 3.825850 1_555
Ba15 F7 2.676814 1_555
Ba15 F12 2.709770 1_555
Ba15 F8 2.709972 1_545
Ba15 F3 2.838103 1_645
Ba15 Se14 3.369245 1_545
Ba15 Se5 3.441493 1_555
Ba15 Se23 3.443098 1_645
Ba15 Se23 3.654724 1_545
Ba15 Se9 3.825850 1_555
Fe0 Se8 2.386125 1_555
Fe0 Se14 2.386125 1_555
Fe0 Se0 2.480106 1_555
Fe0 Se4 2.482451 1_555
Fe1 Se15 2.386125 1_555
Fe1 Se9 2.386125 1_555
Fe1 Se1 2.480106 1_655
Fe1 Se5 2.482451 1_555
Fe2 Se10 2.386125 1_555
Fe2 Se12 2.386125 1_555
Fe2 Se2 2.480106 1_555
Fe2 Se6 2.482451 1_555
Fe3 Se13 2.386125 1_555
Fe3 Se11 2.386125 1_555
Fe3 Se3 2.480106 1_455
Fe3 Se7 2.482451 1_555
Fe4 Se3 2.628600 1_555
Fe4 Se6 2.635967 1_555
Fe4 Se20 2.840373 1_555
Fe4 Se18 2.840373 1_555
Fe4 Se13 2.849842 1_555
Fe4 Se11 2.849842 1_555
Fe5 Se2 2.628600 1_555
Fe5 Se7 2.635967 1_645
Fe5 Se19 2.840373 1_555
Fe5 Se21 2.840373 1_555
Fe5 Se10 2.849842 1_655
Fe5 Se12 2.849842 1_655
Fe6 Se1 2.628600 1_555
Fe6 Se4 2.635967 1_555
Fe6 Se22 2.840373 1_555
Fe6 Se16 2.840373 1_555
Fe6 Se15 2.849842 1_555
Fe6 Se9 2.849842 1_555
Fe7 Se0 2.628600 1_555
Fe7 Se5 2.635967 1_465
Fe7 Se17 2.840373 1_555
Fe7 Se23 2.840373 1_555
Fe7 Se14 2.849842 1_455
Fe7 Se8 2.849842 1_455
Fe8 Se22 2.383326 1_555
Fe8 Se16 2.383326 1_555
Fe8 Se0 2.482973 1_555
Fe8 Se4 2.483023 1_455
Fe9 Se17 2.383326 1_545
Fe9 Se23 2.383326 1_545
Fe9 Se1 2.482973 1_555
Fe9 Se5 2.483023 1_555
Fe10 Se20 2.383326 1_555
Fe10 Se18 2.383326 1_555
Fe10 Se2 2.482973 1_555
Fe10 Se6 2.483023 1_655
Fe11 Se19 2.383326 1_565
Fe11 Se21 2.383326 1_565
Fe11 Se3 2.482973 1_555
Fe11 Se7 2.483023 1_555
