# generated using pymatgen
data_Sr8Ce5Nd3(CuO12)2
_symmetry_space_group_name_H-M   'P 1'
_cell_length_a   10.45067092
_cell_length_b   7.08663607
_cell_length_c   11.21216000
_cell_angle_alpha   90.00000000
_cell_angle_beta   90.00000000
_cell_angle_gamma   118.14693275
_symmetry_Int_Tables_number   1
_chemical_formula_structural   Sr8Ce5Nd3(CuO12)2
_chemical_formula_sum   'Sr8 Ce5 Nd3 Cu2 O24'
_cell_volume   732.17433580
_cell_formula_units_Z   1
loop_
 _symmetry_equiv_pos_site_id
 _symmetry_equiv_pos_as_xyz
  1  'x, y, z'
loop_
 _atom_site_type_symbol
 _atom_site_label
 _atom_site_symmetry_multiplicity
 _atom_site_fract_x
 _atom_site_fract_y
 _atom_site_fract_z
 _atom_site_occupancy
  Sr  Sr0  1  0.35858700  0.73957800  0.15478700  1
  Sr  Sr1  1  0.35858700  0.73957800  0.84521300  1
  Sr  Sr2  1  0.32136100  0.29370200  0.35271300  1
  Sr  Sr3  1  0.32136100  0.29370200  0.64728700  1
  Sr  Sr4  1  0.73255600  0.02454900  0.72862600  1
  Sr  Sr5  1  0.61752800  0.37140900  0.17102000  1
  Sr  Sr6  1  0.61752800  0.37140900  0.82898000  1
  Sr  Sr7  1  0.73255600  0.02454900  0.27137400  1
  Ce  Ce0  1  0.96659100  0.26075200  0.50000000  1
  Ce  Ce1  1  0.23914000  0.11253300  0.00000000  1
  Ce  Ce2  1  0.46913600  0.97023000  0.50000000  1
  Ce  Ce3  1  0.71654200  0.80879600  0.00000000  1
  Ce  Ce4  1  0.68413500  0.64787300  0.50000000  1
  Nd  Nd0  1  0.01874000  0.73521600  0.35112300  1
  Nd  Nd1  1  0.01874000  0.73521600  0.64887700  1
  Nd  Nd2  1  0.00502800  0.41012800  0.00000000  1
  Cu  Cu0  1  0.97869600  0.92963300  0.15194100  1
  Cu  Cu1  1  0.97869600  0.92963300  0.84805900  1
  O  O0  1  0.16972200  0.00412200  0.78899100  1
  O  O1  1  0.17277700  0.76357000  0.00000000  1
  O  O2  1  0.21640000  0.87680800  0.50000000  1
  O  O3  1  0.50826600  0.03810900  0.69623300  1
  O  O4  1  0.22480200  0.41452900  0.00000000  1
  O  O5  1  0.18271200  0.38073600  0.50000000  1
  O  O6  1  0.52067100  0.79254400  0.00000000  1
  O  O7  1  0.48570200  0.67138600  0.50000000  1
  O  O8  1  0.16972200  0.00412200  0.21100900  1
  O  O9  1  0.49306000  0.56000900  0.22880200  1
  O  O10  1  0.49306000  0.56000900  0.77119800  1
  O  O11  1  0.45567100  0.18826200  0.00000000  1
  O  O12  1  0.51395300  0.31846600  0.50000000  1
  O  O13  1  0.81984000  0.76007400  0.25583800  1
  O  O14  1  0.81984000  0.76007400  0.74416200  1
  O  O15  1  0.50826600  0.03810900  0.30376700  1
  O  O16  1  0.77888800  0.56629100  0.00000000  1
  O  O17  1  0.84241900  0.52074300  0.50000000  1
  O  O18  1  0.97857000  0.04023500  0.00000000  1
  O  O19  1  0.77025500  0.14418600  0.00000000  1
  O  O20  1  0.72626800  0.02647300  0.50000000  1
  O  O21  1  0.96028100  0.38070300  0.29754400  1
  O  O22  1  0.96028100  0.38070300  0.70245600  1
  O  O23  1  0.95346700  0.93865100  0.50000000  1
loop_
_geom_bond_atom_site_label_1
_geom_bond_atom_site_label_2
_geom_bond_distance
_geom_bond_site_symmetry_2
Ce0 O5 2.003099 1_655
Ce0 O23 2.221207 1_545
Ce0 O20 2.264992 1_555
Ce0 O22 2.435688 1_555
Ce0 O21 2.435688 1_555
Ce0 O17 2.708211 1_555
Ce1 O11 2.064688 1_555
Ce1 O4 2.214766 1_555
Ce1 O1 2.231244 1_545
Ce1 O0 2.487573 1_554
Ce1 O8 2.487573 1_555
Ce1 O18 2.522226 1_455
Ce2 O7 2.204759 1_555
Ce2 O3 2.248086 1_565
Ce2 O15 2.248086 1_565
Ce2 O12 2.284514 1_565
Ce2 O2 2.400995 1_555
Ce2 O20 2.523770 1_565
Ce3 O6 1.995239 1_555
Ce3 O16 2.105791 1_555
Ce3 O19 2.169207 1_565
Ce3 O18 2.439529 1_565
Ce3 O13 3.140787 1_555
Ce3 O14 3.140787 1_554
Ce4 O7 2.157371 1_555
Ce4 O12 2.166897 1_555
Ce4 O17 2.225757 1_555
Ce4 O20 2.505550 1_565
Ce4 O23 2.587774 1_555
Ce4 O14 3.012308 1_555
Ce4 O13 3.012308 1_555
Nd0 O21 2.365948 1_455
Nd0 O8 2.398382 1_565
Nd0 O13 2.416323 1_455
Nd0 O17 2.418577 1_455
Nd0 O2 2.470759 1_555
Nd0 O23 2.501581 1_455
Nd1 O22 2.365948 1_455
Nd1 O0 2.398382 1_565
Nd1 O14 2.416323 1_455
Nd1 O17 2.418577 1_455
Nd1 O2 2.470759 1_555
Nd1 O23 2.501581 1_455
Nd2 O1 2.281263 1_555
Nd2 O4 2.282239 1_555
Nd2 O19 2.282338 1_455
Nd2 O18 2.502764 1_455
Nd2 O16 3.045904 1_455
Nd2 O21 3.361518 1_455
Nd2 O22 3.361518 1_454
Cu0 O18 1.875505 1_565
Cu0 O13 1.917002 1_555
Cu0 O8 1.925728 1_665
Cu1 O18 1.875505 1_566
Cu1 O14 1.917002 1_555
Cu1 O0 1.925728 1_665
O0 Sr3 2.485706 1_555
O1 Sr1 2.668911 1_554
O1 Sr0 2.668911 1_555
O2 Sr3 3.098581 1_565
O2 Sr2 3.098581 1_565
O3 Sr4 2.418244 1_555
O3 Sr6 2.559975 1_555
O3 Sr1 2.567203 1_545
O4 Sr1 2.689669 1_554
O4 Sr0 2.689669 1_555
O5 Sr3 2.459727 1_555
O5 Sr2 2.459727 1_555
O6 Sr1 2.328568 1_554
O6 Sr0 2.328568 1_555
O8 Sr2 2.485706 1_555
O9 Sr2 2.348747 1_555
O9 Sr5 2.353366 1_555
O9 Sr0 2.443409 1_555
O10 Sr3 2.348747 1_555
O10 Sr6 2.353366 1_555
O10 Sr1 2.443409 1_555
O11 Sr6 2.480176 1_554
O11 Sr5 2.480176 1_555
O12 Sr3 2.544742 1_555
O12 Sr2 2.544742 1_555
O13 Sr7 2.447073 1_565
O13 Sr5 2.732526 1_555
O14 Sr4 2.447073 1_565
O14 Sr6 2.732526 1_555
O15 Sr7 2.418244 1_555
O15 Sr5 2.559975 1_555
O15 Sr0 2.567203 1_545
O16 Sr6 2.496110 1_554
O16 Sr5 2.496110 1_555
O20 Sr4 2.564435 1_555
O20 Sr7 2.564435 1_555
O21 Sr7 2.540289 1_555
O22 Sr4 2.540289 1_555
