# generated using pymatgen
data_RbTi3NbO9
_symmetry_space_group_name_H-M   'P 1'
_cell_length_a   3.85186300
_cell_length_b   6.43783000
_cell_length_c   15.17372100
_cell_angle_alpha   90.00000000
_cell_angle_beta   90.00000000
_cell_angle_gamma   90.00000000
_symmetry_Int_Tables_number   1
_chemical_formula_structural   RbTi3NbO9
_chemical_formula_sum   'Rb2 Ti6 Nb2 O18'
_cell_volume   376.27245833
_cell_formula_units_Z   2
loop_
 _symmetry_equiv_pos_site_id
 _symmetry_equiv_pos_as_xyz
  1  'x, y, z'
loop_
 _atom_site_type_symbol
 _atom_site_label
 _atom_site_symmetry_multiplicity
 _atom_site_fract_x
 _atom_site_fract_y
 _atom_site_fract_z
 _atom_site_occupancy
  Rb  Rb0  1  0.50000000  0.21154700  0.24864500  1
  Rb  Rb1  1  0.00000000  0.78845300  0.74864500  1
  Ti  Ti0  1  0.00000000  0.30301000  0.46503700  1
  Ti  Ti1  1  0.00000000  0.30603000  0.04370200  1
  Ti  Ti2  1  0.50000000  0.69397000  0.54370200  1
  Ti  Ti3  1  0.50000000  0.69699000  0.96503700  1
  Ti  Ti4  1  0.00000000  0.75294500  0.12232500  1
  Ti  Ti5  1  0.50000000  0.24705500  0.62232500  1
  Nb  Nb0  1  0.00000000  0.75368100  0.36867400  1
  Nb  Nb1  1  0.50000000  0.24631900  0.86867400  1
  O  O0  1  0.00000000  0.65341200  0.99140600  1
  O  O1  1  0.00000000  0.65216100  0.51039100  1
  O  O2  1  0.50000000  0.34783900  0.01039100  1
  O  O3  1  0.50000000  0.34658800  0.49140600  1
  O  O4  1  0.00000000  0.05434600  0.41363300  1
  O  O5  1  0.00000000  0.05372500  0.08910300  1
  O  O6  1  0.50000000  0.94627500  0.58910300  1
  O  O7  1  0.50000000  0.94565400  0.91363300  1
  O  O8  1  0.00000000  0.82393700  0.24774800  1
  O  O9  1  0.50000000  0.17606300  0.74774800  1
  O  O10  1  0.00000000  0.45378100  0.35592200  1
  O  O11  1  0.00000000  0.46116200  0.14532500  1
  O  O12  1  0.50000000  0.53883800  0.64532500  1
  O  O13  1  0.50000000  0.54621900  0.85592200  1
  O  O14  1  0.00000000  0.24362200  0.90090500  1
  O  O15  1  0.00000000  0.24714300  0.59718400  1
  O  O16  1  0.50000000  0.75285700  0.09718400  1
  O  O17  1  0.50000000  0.75637800  0.40090500  1
loop_
_geom_bond_atom_site_label_1
_geom_bond_atom_site_label_2
_geom_bond_distance
_geom_bond_site_symmetry_2
Nb0 O8 1.889820 1_555
Nb0 O10 1.940377 1_555
Nb0 O17 1.987133 1_455
Nb0 O17 1.987133 1_555
Nb0 O4 2.052329 1_565
Nb0 O1 2.247501 1_555
Nb1 O9 1.889820 1_555
Nb1 O13 1.940377 1_555
Nb1 O14 1.987133 1_555
Nb1 O14 1.987133 1_655
Nb1 O7 2.052329 1_545
Nb1 O2 2.247501 1_556
O0 Ti3 1.986960 1_455
O0 Ti3 1.986960 1_555
O0 Ti4 2.087316 1_556
O0 Ti1 2.372995 1_556
O1 Ti2 2.009264 1_455
O1 Ti2 2.009264 1_555
O1 Ti0 2.350765 1_555
O2 Ti1 2.009264 1_655
O2 Ti1 2.009264 1_555
O2 Ti3 2.350765 1_554
O3 Ti0 1.986960 1_555
O3 Ti0 1.986960 1_655
O3 Ti5 2.087316 1_555
O3 Ti2 2.372995 1_555
O4 Ti0 1.780766 1_555
O4 Rb0 3.316752 1_555
O4 Rb0 3.316752 1_455
O5 Ti1 1.764349 1_555
O5 Ti4 2.000912 1_545
O5 Rb0 3.256075 1_455
O5 Rb0 3.256075 1_555
O6 Ti2 1.764349 1_555
O6 Ti5 2.000912 1_565
O6 Rb1 3.256075 1_655
O6 Rb1 3.256075 1_555
O7 Ti3 1.780766 1_555
O7 Rb1 3.316752 1_555
O7 Rb1 3.316752 1_655
O8 Ti4 1.957242 1_555
O8 Rb0 3.152183 1_565
O8 Rb0 3.152183 1_465
O9 Ti5 1.957242 1_555
O9 Rb1 3.152183 1_545
O9 Rb1 3.152183 1_645
O10 Ti0 1.919223 1_555
O10 Rb0 2.964934 1_555
O10 Rb0 2.964934 1_455
O11 Ti1 1.837169 1_555
O11 Ti4 1.910594 1_555
O11 Rb0 2.957944 1_455
O11 Rb0 2.957944 1_555
O12 Ti2 1.837169 1_555
O12 Ti5 1.910594 1_555
O12 Rb1 2.957944 1_655
O12 Rb1 2.957944 1_555
O13 Ti3 1.919223 1_555
O13 Rb1 2.964934 1_655
O13 Rb1 2.964934 1_555
O14 Ti1 2.203696 1_556
O15 Ti5 1.963350 1_455
O15 Ti5 1.963350 1_555
O15 Ti0 2.037162 1_555
O16 Ti4 1.963350 1_555
O16 Ti4 1.963350 1_655
O16 Ti3 2.037162 1_554
O17 Ti2 2.203696 1_555
