# generated using pymatgen
data_RbLiMg14O15
_symmetry_space_group_name_H-M   'P 1'
_cell_length_a   4.20497300
_cell_length_b   8.26613200
_cell_length_c   10.35101800
_cell_angle_alpha   90.00000000
_cell_angle_beta   90.00000000
_cell_angle_gamma   90.00000000
_symmetry_Int_Tables_number   1
_chemical_formula_structural   RbLiMg14O15
_chemical_formula_sum   'Rb1 Li1 Mg14 O15'
_cell_volume   359.78960492
_cell_formula_units_Z   1
loop_
 _symmetry_equiv_pos_site_id
 _symmetry_equiv_pos_as_xyz
  1  'x, y, z'
loop_
 _atom_site_type_symbol
 _atom_site_label
 _atom_site_symmetry_multiplicity
 _atom_site_fract_x
 _atom_site_fract_y
 _atom_site_fract_z
 _atom_site_occupancy
  Rb  Rb0  1  0.00000000  0.50000000  0.44385300  1
  Li  Li0  1  0.00000000  0.00000000  0.01274900  1
  Mg  Mg0  1  0.00000000  0.50000000  0.98315900  1
  Mg  Mg1  1  0.00000000  0.00000000  0.47383500  1
  Mg  Mg2  1  0.50000000  0.75972600  0.99132600  1
  Mg  Mg3  1  0.50000000  0.24027400  0.99132600  1
  Mg  Mg4  1  0.50000000  0.75994300  0.56656700  1
  Mg  Mg5  1  0.50000000  0.24005700  0.56656700  1
  Mg  Mg6  1  0.50000000  0.00000000  0.80016300  1
  Mg  Mg7  1  0.50000000  0.50000000  0.76849900  1
  Mg  Mg8  1  0.50000000  0.00000000  0.26257800  1
  Mg  Mg9  1  0.50000000  0.50000000  0.18015200  1
  Mg  Mg10  1  0.00000000  0.73118100  0.76599600  1
  Mg  Mg11  1  0.00000000  0.26881900  0.76599600  1
  Mg  Mg12  1  0.00000000  0.75681500  0.18627500  1
  Mg  Mg13  1  0.00000000  0.24318500  0.18627500  1
  O  O0  1  0.00000000  0.50000000  0.78939600  1
  O  O1  1  0.00000000  0.00000000  0.25219300  1
  O  O2  1  0.00000000  0.50000000  0.18388100  1
  O  O3  1  0.50000000  0.76919400  0.77090900  1
  O  O4  1  0.50000000  0.23080600  0.77090900  1
  O  O5  1  0.50000000  0.74858100  0.20255600  1
  O  O6  1  0.50000000  0.25141900  0.20255600  1
  O  O7  1  0.50000000  0.00000000  0.98506900  1
  O  O8  1  0.50000000  0.50000000  0.98095000  1
  O  O9  1  0.50000000  0.00000000  0.46492900  1
  O  O10  1  0.50000000  0.50000000  0.57688300  1
  O  O11  1  0.00000000  0.75786200  0.98204000  1
  O  O12  1  0.00000000  0.24213800  0.98204000  1
  O  O13  1  0.00000000  0.79856600  0.58018900  1
  O  O14  1  0.00000000  0.20143400  0.58018900  1
loop_
_geom_bond_atom_site_label_1
_geom_bond_atom_site_label_2
_geom_bond_distance
_geom_bond_site_symmetry_2
Li0 O12 2.026628 1_554
Li0 O11 2.026628 1_544
Li0 O7 2.121919 1_554
Li0 O7 2.121919 1_454
Li0 O1 2.478489 1_555
Mg0 O0 2.005644 1_555
Mg0 O2 2.077677 1_556
Mg0 O8 2.102611 1_455
Mg0 O8 2.102611 1_555
Mg0 O11 2.131553 1_555
Mg0 O12 2.131553 1_555
Mg1 O14 1.996099 1_555
Mg1 O13 1.996099 1_545
Mg1 O9 2.104507 1_455
Mg1 O9 2.104507 1_555
Mg1 O1 2.294220 1_555
Mg2 O7 1.987192 1_565
Mg2 O11 2.104739 1_655
Mg2 O11 2.104739 1_555
Mg2 O8 2.149614 1_555
Mg2 O5 2.188386 1_556
Mg2 O3 2.282882 1_555
Mg3 O7 1.987192 1_555
Mg3 O12 2.104739 1_655
Mg3 O12 2.104739 1_555
Mg3 O8 2.149614 1_555
Mg3 O6 2.188386 1_556
Mg3 O4 2.282882 1_555
Mg4 O3 2.116530 1_555
Mg4 O13 2.131258 1_555
Mg4 O13 2.131258 1_655
Mg4 O10 2.151375 1_555
Mg4 O9 2.245983 1_565
Mg5 O4 2.116530 1_555
Mg5 O14 2.131258 1_555
Mg5 O14 2.131258 1_655
Mg5 O10 2.151375 1_555
Mg5 O9 2.245983 1_555
Mg6 O7 1.913965 1_555
Mg6 O4 1.931754 1_555
Mg6 O3 1.931754 1_545
Mg7 O10 1.983421 1_555
Mg7 O0 2.113584 1_555
Mg7 O0 2.113584 1_655
Mg7 O8 2.199084 1_555
Mg7 O3 2.225333 1_555
Mg7 O4 2.225333 1_555
Mg8 O9 2.094539 1_555
Mg8 O1 2.105233 1_655
Mg8 O1 2.105233 1_555
Mg8 O6 2.169142 1_555
Mg8 O5 2.169142 1_545
Mg9 O8 2.061943 1_554
Mg9 O5 2.067848 1_555
Mg9 O6 2.067848 1_555
Mg9 O2 2.102841 1_555
Mg9 O2 2.102841 1_655
Mg10 O0 1.926262 1_555
Mg10 O13 2.002327 1_555
Mg10 O3 2.126445 1_455
Mg10 O3 2.126445 1_555
Mg10 O11 2.247125 1_555
Mg11 O0 1.926262 1_555
Mg11 O14 2.002327 1_555
Mg11 O4 2.126445 1_555
Mg11 O4 2.126445 1_455
Mg11 O12 2.247125 1_555
Mg12 O5 2.110328 1_455
Mg12 O5 2.110328 1_555
Mg12 O11 2.114058 1_554
Mg12 O1 2.122842 1_565
Mg12 O2 2.123011 1_555
Mg13 O6 2.110328 1_455
Mg13 O6 2.110328 1_555
Mg13 O12 2.114058 1_554
Mg13 O1 2.122842 1_555
Mg13 O2 2.123011 1_555
O2 Rb0 2.690975 1_555
O10 Rb0 2.513278 1_655
O10 Rb0 2.513278 1_555
O13 Rb0 2.842971 1_555
O14 Rb0 2.842971 1_555
