# generated using pymatgen
data_Se(OF)2
_symmetry_space_group_name_H-M   'P 1'
_cell_length_a   5.98474283
_cell_length_b   8.28584251
_cell_length_c   15.88858300
_cell_angle_alpha   90.00000000
_cell_angle_beta   90.00000000
_cell_angle_gamma   104.76948443
_symmetry_Int_Tables_number   1
_chemical_formula_structural   Se(OF)2
_chemical_formula_sum   'Se8 O16 F16'
_cell_volume   761.86062681
_cell_formula_units_Z   8
loop_
 _symmetry_equiv_pos_site_id
 _symmetry_equiv_pos_as_xyz
  1  'x, y, z'
loop_
 _atom_site_type_symbol
 _atom_site_label
 _atom_site_symmetry_multiplicity
 _atom_site_fract_x
 _atom_site_fract_y
 _atom_site_fract_z
 _atom_site_occupancy
  Se  Se0  1  0.94912400  0.82093700  0.85844200  1
  Se  Se1  1  0.05087600  0.17906300  0.14155800  1
  Se  Se2  1  0.05087600  0.67906300  0.35844200  1
  Se  Se3  1  0.94912400  0.32093700  0.64155800  1
  Se  Se4  1  0.65851200  0.78235200  0.59134400  1
  Se  Se5  1  0.34148800  0.21764800  0.40865600  1
  Se  Se6  1  0.34148800  0.71764800  0.09134400  1
  Se  Se7  1  0.65851200  0.28235200  0.90865600  1
  O  O0  1  0.72779800  0.74275900  0.80045700  1
  O  O1  1  0.27220200  0.25724100  0.19954300  1
  O  O2  1  0.27220200  0.75724100  0.30045700  1
  O  O3  1  0.72779800  0.24275900  0.69954300  1
  O  O4  1  0.96109700  0.81168400  0.95931100  1
  O  O5  1  0.03890300  0.18831600  0.04068900  1
  O  O6  1  0.03890300  0.68831600  0.45931100  1
  O  O7  1  0.96109700  0.31168400  0.54068900  1
  O  O8  1  0.89812800  0.91114300  0.61741000  1
  O  O9  1  0.10187200  0.08885700  0.38259000  1
  O  O10  1  0.10187200  0.58885700  0.11741000  1
  O  O11  1  0.89812800  0.41114300  0.88259000  1
  O  O12  1  0.59128200  0.58230000  0.59846000  1
  O  O13  1  0.40871800  0.41770000  0.40154000  1
  O  O14  1  0.40871800  0.91770000  0.09846000  1
  O  O15  1  0.59128200  0.08230000  0.90154000  1
  F  F0  1  0.43585000  0.85450000  0.63597500  1
  F  F1  1  0.56415000  0.14550000  0.36402500  1
  F  F2  1  0.56415000  0.64550000  0.13597500  1
  F  F3  1  0.43585000  0.35450000  0.86402500  1
  F  F4  1  0.94518900  0.96996400  0.16964900  1
  F  F5  1  0.05481100  0.03003600  0.83035100  1
  F  F6  1  0.05481100  0.53003600  0.66964900  1
  F  F7  1  0.94518900  0.46996400  0.33035100  1
  F  F8  1  0.81257600  0.73557500  0.31610300  1
  F  F9  1  0.18742400  0.26442500  0.68389700  1
  F  F10  1  0.18742400  0.76442500  0.81610300  1
  F  F11  1  0.81257600  0.23557500  0.18389700  1
  F  F12  1  0.59363100  0.83312800  0.48908800  1
  F  F13  1  0.40636900  0.16687200  0.51091200  1
  F  F14  1  0.40636900  0.66687200  0.98908800  1
  F  F15  1  0.59363100  0.33312800  0.01091200  1
loop_
_geom_bond_atom_site_label_1
_geom_bond_atom_site_label_2
_geom_bond_distance
_geom_bond_site_symmetry_2
O0 Se0 1.607929 1_555
O1 Se1 1.607929 1_555
O2 Se2 1.607929 1_555
O3 Se3 1.607929 1_555
O4 Se0 1.606969 1_555
O5 Se1 1.606969 1_555
O6 Se2 1.606969 1_555
O7 Se3 1.606969 1_555
O8 Se4 1.608270 1_555
O9 Se5 1.608270 1_555
O10 Se6 1.608270 1_555
O11 Se7 1.608270 1_555
O12 Se4 1.606941 1_555
O13 Se5 1.606941 1_555
O14 Se6 1.606941 1_555
O15 Se7 1.606941 1_555
F0 Se4 1.744177 1_555
F1 Se5 1.744177 1_555
F2 Se6 1.744177 1_555
F3 Se7 1.744177 1_555
F4 Se1 1.744221 1_665
F5 Se0 1.744221 1_445
F6 Se3 1.744221 1_455
F7 Se2 1.744221 1_655
F8 Se2 1.745343 1_655
F9 Se3 1.745343 1_455
F10 Se0 1.745343 1_455
F11 Se1 1.745343 1_655
F12 Se4 1.746635 1_555
F13 Se5 1.746635 1_555
F14 Se6 1.746635 1_556
F15 Se7 1.746635 1_554
