# generated using pymatgen
data_RbHfMg30O31
_symmetry_space_group_name_H-M   'P 1'
_cell_length_a   8.73324000
_cell_length_b   8.73324000
_cell_length_c   8.60869100
_cell_angle_alpha   90.00000000
_cell_angle_beta   90.00000000
_cell_angle_gamma   90.00000000
_symmetry_Int_Tables_number   1
_chemical_formula_structural   RbHfMg30O31
_chemical_formula_sum   'Rb1 Hf1 Mg30 O31'
_cell_volume   656.58039378
_cell_formula_units_Z   1
loop_
 _symmetry_equiv_pos_site_id
 _symmetry_equiv_pos_as_xyz
  1  'x, y, z'
loop_
 _atom_site_type_symbol
 _atom_site_label
 _atom_site_symmetry_multiplicity
 _atom_site_fract_x
 _atom_site_fract_y
 _atom_site_fract_z
 _atom_site_occupancy
  Rb  Rb0  1  0.00000000  0.00000000  0.01923900  1
  Hf  Hf0  1  0.50000000  0.50000000  0.99949200  1
  Mg  Mg0  1  0.50000000  0.00000000  0.99819300  1
  Mg  Mg1  1  0.00000000  0.50000000  0.99819300  1
  Mg  Mg2  1  0.00000000  0.00000000  0.49007900  1
  Mg  Mg3  1  0.50000000  0.00000000  0.50225100  1
  Mg  Mg4  1  0.00000000  0.50000000  0.50225100  1
  Mg  Mg5  1  0.50000000  0.50000000  0.50026600  1
  Mg  Mg6  1  0.24540200  0.24540200  0.99964900  1
  Mg  Mg7  1  0.75459800  0.24540200  0.99964900  1
  Mg  Mg8  1  0.24540200  0.75459800  0.99964900  1
  Mg  Mg9  1  0.75459800  0.75459800  0.99964900  1
  Mg  Mg10  1  0.24819800  0.24819800  0.50042600  1
  Mg  Mg11  1  0.75180200  0.24819800  0.50042600  1
  Mg  Mg12  1  0.24819800  0.75180200  0.50042600  1
  Mg  Mg13  1  0.75180200  0.75180200  0.50042600  1
  Mg  Mg14  1  0.25836300  0.00000000  0.25609600  1
  Mg  Mg15  1  0.74163700  0.00000000  0.25609600  1
  Mg  Mg16  1  0.24462200  0.50000000  0.25640200  1
  Mg  Mg17  1  0.75537800  0.50000000  0.25640200  1
  Mg  Mg18  1  0.24944300  0.00000000  0.74712300  1
  Mg  Mg19  1  0.75055700  0.00000000  0.74712300  1
  Mg  Mg20  1  0.24260200  0.50000000  0.74355000  1
  Mg  Mg21  1  0.75739800  0.50000000  0.74355000  1
  Mg  Mg22  1  0.00000000  0.25836300  0.25609600  1
  Mg  Mg23  1  0.50000000  0.24462200  0.25640200  1
  Mg  Mg24  1  0.00000000  0.74163700  0.25609600  1
  Mg  Mg25  1  0.50000000  0.75537800  0.25640200  1
  Mg  Mg26  1  0.00000000  0.24944300  0.74712300  1
  Mg  Mg27  1  0.50000000  0.24260200  0.74355000  1
  Mg  Mg28  1  0.00000000  0.75055700  0.74712300  1
  Mg  Mg29  1  0.50000000  0.75739800  0.74355000  1
  O  O0  1  0.50000000  0.00000000  0.25445700  1
  O  O1  1  0.00000000  0.50000000  0.25445700  1
  O  O2  1  0.50000000  0.50000000  0.24657500  1
  O  O3  1  0.00000000  0.00000000  0.72392200  1
  O  O4  1  0.50000000  0.00000000  0.74645200  1
  O  O5  1  0.00000000  0.50000000  0.74645200  1
  O  O6  1  0.50000000  0.50000000  0.75328300  1
  O  O7  1  0.25274100  0.25274100  0.24820400  1
  O  O8  1  0.74725900  0.25274100  0.24820400  1
  O  O9  1  0.25274100  0.74725900  0.24820400  1
  O  O10  1  0.74725900  0.74725900  0.24820400  1
  O  O11  1  0.25087100  0.25087100  0.75158200  1
  O  O12  1  0.74912900  0.25087100  0.75158200  1
  O  O13  1  0.25087100  0.74912900  0.75158200  1
  O  O14  1  0.74912900  0.74912900  0.75158200  1
  O  O15  1  0.27931500  0.00000000  0.99908200  1
  O  O16  1  0.72068500  0.00000000  0.99908200  1
  O  O17  1  0.25905700  0.50000000  0.99996000  1
  O  O18  1  0.74094300  0.50000000  0.99996000  1
  O  O19  1  0.25848600  0.00000000  0.50158500  1
  O  O20  1  0.74151400  0.00000000  0.50158500  1
  O  O21  1  0.25292100  0.50000000  0.49995200  1
  O  O22  1  0.74707900  0.50000000  0.49995200  1
  O  O23  1  0.00000000  0.27931500  0.99908200  1
  O  O24  1  0.50000000  0.25905700  0.99996000  1
  O  O25  1  0.00000000  0.72068500  0.99908200  1
  O  O26  1  0.50000000  0.74094300  0.99996000  1
  O  O27  1  0.00000000  0.25848600  0.50158500  1
  O  O28  1  0.50000000  0.25292100  0.49995200  1
  O  O29  1  0.00000000  0.74151400  0.50158500  1
  O  O30  1  0.50000000  0.74707900  0.49995200  1
loop_
_geom_bond_atom_site_label_1
_geom_bond_atom_site_label_2
_geom_bond_distance
_geom_bond_site_symmetry_2
Hf0 O18 2.104217 1_555
Hf0 O24 2.104217 1_555
Hf0 O26 2.104217 1_555
Hf0 O17 2.104217 1_555
Hf0 O6 2.119537 1_555
Hf0 O2 2.127061 1_556
Mg0 O15 1.927310 1_555
Mg0 O16 1.927310 1_555
Mg0 O4 2.167160 1_555
Mg0 O0 2.206098 1_556
Mg0 O26 2.262458 1_545
Mg0 O24 2.262458 1_555
Mg1 O25 1.927310 1_555
Mg1 O23 1.927310 1_555
Mg1 O5 2.167160 1_555
Mg1 O1 2.206098 1_556
Mg1 O18 2.262458 1_455
Mg1 O17 2.262458 1_555
Mg2 O3 2.013082 1_555
Mg2 O19 2.259592 1_555
Mg2 O29 2.259592 1_545
Mg2 O20 2.259592 1_455
Mg2 O27 2.259592 1_555
Mg3 O4 2.102251 1_555
Mg3 O19 2.109208 1_555
Mg3 O20 2.109208 1_555
Mg3 O0 2.133182 1_555
Mg3 O30 2.208908 1_545
Mg3 O28 2.208908 1_555
Mg4 O5 2.102251 1_555
Mg4 O29 2.109208 1_555
Mg4 O27 2.109208 1_555
Mg4 O1 2.133182 1_555
Mg4 O22 2.208908 1_455
Mg4 O21 2.208908 1_555
Mg5 O28 2.157802 1_555
Mg5 O21 2.157802 1_555
Mg5 O30 2.157802 1_555
Mg5 O22 2.157802 1_555
Mg5 O6 2.178145 1_555
Mg5 O2 2.183947 1_555
Mg6 O11 2.136600 1_555
Mg6 O7 2.141652 1_556
Mg6 O15 2.163528 1_555
Mg6 O23 2.163528 1_555
Mg6 O24 2.226663 1_555
Mg6 O17 2.226663 1_555
Mg7 O12 2.136600 1_555
Mg7 O8 2.141652 1_556
Mg7 O16 2.163528 1_555
Mg7 O23 2.163528 1_655
Mg7 O24 2.226663 1_555
Mg7 O18 2.226663 1_555
Mg8 O13 2.136600 1_555
Mg8 O9 2.141652 1_556
Mg8 O25 2.163528 1_555
Mg8 O15 2.163528 1_565
Mg8 O26 2.226663 1_555
Mg8 O17 2.226663 1_555
Mg9 O14 2.136600 1_555
Mg9 O10 2.141652 1_556
Mg9 O16 2.163528 1_565
Mg9 O25 2.163528 1_655
Mg9 O26 2.226663 1_555
Mg9 O18 2.226663 1_555
Mg10 O11 2.162376 1_555
Mg10 O27 2.169457 1_555
Mg10 O19 2.169457 1_555
Mg10 O7 2.172026 1_555
Mg10 O21 2.199438 1_555
Mg10 O28 2.199438 1_555
Mg11 O12 2.162376 1_555
Mg11 O20 2.169457 1_555
Mg11 O27 2.169457 1_655
Mg11 O8 2.172026 1_555
Mg11 O22 2.199438 1_555
Mg11 O28 2.199438 1_555
Mg12 O13 2.162376 1_555
Mg12 O19 2.169457 1_565
Mg12 O29 2.169457 1_555
Mg12 O9 2.172026 1_555
Mg12 O30 2.199438 1_555
Mg12 O21 2.199438 1_555
Mg13 O14 2.162376 1_555
Mg13 O20 2.169457 1_565
Mg13 O29 2.169457 1_655
Mg13 O10 2.172026 1_555
Mg13 O22 2.199438 1_555
Mg13 O30 2.199438 1_555
Mg14 O0 2.110321 1_555
Mg14 O19 2.113339 1_555
Mg14 O7 2.208839 1_555
Mg14 O9 2.208839 1_545
Mg14 O15 2.220107 1_554
Mg15 O0 2.110321 1_555
Mg15 O20 2.113339 1_555
Mg15 O8 2.208839 1_555
Mg15 O10 2.208839 1_545
Mg15 O16 2.220107 1_554
Mg16 O21 2.097899 1_555
Mg16 O1 2.136408 1_555
Mg16 O7 2.161688 1_555
Mg16 O9 2.161688 1_555
Mg16 O17 2.211226 1_554
Mg16 O2 2.231881 1_555
Mg17 O22 2.097899 1_555
Mg17 O1 2.136408 1_655
Mg17 O8 2.161688 1_555
Mg17 O10 2.161688 1_555
Mg17 O18 2.211226 1_554
Mg17 O2 2.231881 1_555
Mg18 O19 2.115236 1_555
Mg18 O15 2.184669 1_555
Mg18 O3 2.187583 1_555
Mg18 O4 2.188182 1_555
Mg18 O11 2.191288 1_555
Mg18 O13 2.191288 1_545
Mg19 O20 2.115236 1_555
Mg19 O16 2.184669 1_555
Mg19 O3 2.187583 1_655
Mg19 O4 2.188182 1_555
Mg19 O14 2.191288 1_545
Mg19 O12 2.191288 1_555
Mg20 O21 2.098995 1_555
Mg20 O5 2.118849 1_555
Mg20 O11 2.177999 1_555
Mg20 O13 2.177999 1_555
Mg20 O17 2.212027 1_555
Mg20 O6 2.249480 1_555
Mg21 O22 2.098995 1_555
Mg21 O5 2.118849 1_655
Mg21 O12 2.177999 1_555
Mg21 O14 2.177999 1_555
Mg21 O18 2.212027 1_555
Mg21 O6 2.249480 1_555
Mg22 O1 2.110321 1_555
Mg22 O27 2.113339 1_555
Mg22 O7 2.208839 1_555
Mg22 O8 2.208839 1_455
Mg22 O23 2.220107 1_554
Mg23 O28 2.097899 1_555
Mg23 O0 2.136408 1_555
Mg23 O7 2.161688 1_555
Mg23 O8 2.161688 1_555
Mg23 O24 2.211226 1_554
Mg23 O2 2.231881 1_555
Mg24 O1 2.110321 1_555
Mg24 O29 2.113339 1_555
Mg24 O9 2.208839 1_555
Mg24 O10 2.208839 1_455
Mg24 O25 2.220107 1_554
Mg25 O30 2.097899 1_555
Mg25 O0 2.136408 1_565
Mg25 O9 2.161688 1_555
Mg25 O10 2.161688 1_555
Mg25 O26 2.211226 1_554
Mg25 O2 2.231881 1_555
Mg26 O27 2.115236 1_555
Mg26 O23 2.184669 1_555
Mg26 O3 2.187583 1_555
Mg26 O5 2.188182 1_555
Mg26 O12 2.191288 1_455
Mg26 O11 2.191288 1_555
Mg27 O28 2.098995 1_555
Mg27 O4 2.118849 1_555
Mg27 O11 2.177999 1_555
Mg27 O12 2.177999 1_555
Mg27 O24 2.212027 1_555
Mg27 O6 2.249480 1_555
Mg28 O29 2.115236 1_555
Mg28 O25 2.184669 1_555
Mg28 O3 2.187583 1_565
Mg28 O5 2.188182 1_555
Mg28 O14 2.191288 1_455
Mg28 O13 2.191288 1_555
Mg29 O30 2.098995 1_555
Mg29 O4 2.118849 1_565
Mg29 O13 2.177999 1_555
Mg29 O14 2.177999 1_555
Mg29 O26 2.212027 1_555
Mg29 O6 2.249480 1_555
O3 Rb0 2.542293 1_556
O15 Rb0 2.445489 1_556
O16 Rb0 2.445489 1_656
O23 Rb0 2.445489 1_556
O25 Rb0 2.445489 1_566
