# generated using pymatgen
data_Y(Al5Ru)2
_symmetry_space_group_name_H-M   'P 1'
_cell_length_a   6.80833957
_cell_length_b   6.80833957
_cell_length_c   9.07547051
_cell_angle_alpha   90.00000000
_cell_angle_beta   90.00000000
_cell_angle_gamma   97.01818087
_symmetry_Int_Tables_number   1
_chemical_formula_structural   Y(Al5Ru)2
_chemical_formula_sum   'Y2 Al20 Ru4'
_cell_volume   417.52773928
_cell_formula_units_Z   2
loop_
 _symmetry_equiv_pos_site_id
 _symmetry_equiv_pos_as_xyz
  1  'x, y, z'
loop_
 _atom_site_type_symbol
 _atom_site_label
 _atom_site_symmetry_multiplicity
 _atom_site_fract_x
 _atom_site_fract_y
 _atom_site_fract_z
 _atom_site_occupancy
  Y  Y0  1  0.87304530  0.12695470  0.75000000  1
  Y  Y1  1  0.12695470  0.87304530  0.25000000  1
  Al  Al0  1  0.62331041  0.37668959  0.54976019  1
  Al  Al1  1  0.37668959  0.62331041  0.45023981  1
  Al  Al2  1  0.37668959  0.62331041  0.04976019  1
  Al  Al3  1  0.62331041  0.37668959  0.95023981  1
  Al  Al4  1  0.22675267  0.22675267  0.50000000  1
  Al  Al5  1  0.77324733  0.77324733  0.50000000  1
  Al  Al6  1  0.77324733  0.77324733  -0.00000000  1
  Al  Al7  1  0.22675267  0.22675267  -0.00000000  1
  Al  Al8  1  0.84188593  0.15811407  0.10053138  1
  Al  Al9  1  0.15811407  0.84188593  0.89946862  1
  Al  Al10  1  0.15811407  0.84188593  0.60053138  1
  Al  Al11  1  0.84188593  0.15811407  0.39946862  1
  Al  Al12  1  0.85999330  0.58935839  0.75000000  1
  Al  Al13  1  0.14000670  0.41064161  0.25000000  1
  Al  Al14  1  0.41064161  0.14000670  0.75000000  1
  Al  Al15  1  0.58935839  0.85999330  0.25000000  1
  Al  Al16  1  0.21936271  0.48093640  0.75000000  1
  Al  Al17  1  0.78063729  0.51906360  0.25000000  1
  Al  Al18  1  0.51906360  0.78063729  0.75000000  1
  Al  Al19  1  0.48093640  0.21936271  0.25000000  1
  Ru  Ru0  1  -0.00000000  0.50000000  0.50000000  1
  Ru  Ru1  1  -0.00000000  0.50000000  -0.00000000  1
  Ru  Ru2  1  0.50000000  -0.00000000  -0.00000000  1
  Ru  Ru3  1  0.50000000  -0.00000000  0.50000000  1
loop_
_geom_bond_atom_site_label_1
_geom_bond_atom_site_label_2
_geom_bond_distance
_geom_bond_site_symmetry_2
Al0 Al11 2.613555 1_555
Al0 Ru3 2.638171 1_555
Al0 Ru0 2.638171 1_655
Al0 Al1 2.672698 1_555
Al0 Al12 2.724968 1_555
Al0 Al14 2.724968 1_555
Al0 Al4 2.803920 1_555
Al0 Al5 2.803920 1_555
Al0 Al19 3.038772 1_555
Al0 Al17 3.038772 1_555
Al0 Y0 3.129031 1_555
Al1 Al10 2.613555 1_555
Al1 Ru3 2.638171 1_565
Al1 Ru0 2.638171 1_555
Al1 Al15 2.724968 1_555
Al1 Al13 2.724968 1_555
Al1 Al4 2.803920 1_555
Al1 Al5 2.803920 1_555
Al1 Al18 3.038772 1_555
Al1 Al16 3.038772 1_555
Al1 Y1 3.129031 1_555
Al2 Al9 2.613555 1_554
Al2 Ru2 2.638171 1_565
Al2 Ru1 2.638171 1_555
Al2 Al3 2.672698 1_554
Al2 Al6 2.803920 1_555
Al2 Al7 2.803920 1_555
Al2 Y1 3.129031 1_555
Al3 Al8 2.613555 1_556
Al3 Ru2 2.638171 1_556
Al3 Ru1 2.638171 1_656
Al3 Al7 2.803920 1_556
Al3 Al6 2.803920 1_556
Al3 Y0 3.129031 1_555
Al4 Ru3 2.558540 1_555
Al4 Ru0 2.558540 1_555
Al4 Y0 3.317953 1_455
Al4 Y1 3.317953 1_545
Al5 Ru0 2.558540 1_655
Al5 Ru3 2.558540 1_565
Al5 Y0 3.317953 1_565
Al5 Y1 3.317953 1_655
Al6 Ru2 2.558540 1_565
Al6 Ru1 2.558540 1_655
Al6 Al9 2.759993 1_654
Al6 Al8 2.759993 1_565
Al6 Y0 3.317953 1_564
Al6 Y1 3.317953 1_655
Al7 Ru1 2.558540 1_555
Al7 Ru2 2.558540 1_555
Al7 Al9 2.759993 1_544
Al7 Al8 2.759993 1_455
Al7 Y1 3.317953 1_545
Al7 Y0 3.317953 1_454
Al8 Ru2 2.607108 1_555
Al8 Ru1 2.607108 1_655
Al8 Y0 3.197073 1_554
Al8 Y1 3.208481 1_645
Al9 Ru2 2.607108 1_566
Al9 Ru1 2.607108 1_556
Al9 Y1 3.197073 1_556
Al9 Y0 3.208481 1_465
Al10 Ru3 2.607108 1_565
Al10 Ru0 2.607108 1_555
Al10 Al9 2.712996 1_555
Al10 Al5 2.759993 1_455
Al10 Al4 2.759993 1_565
Al10 Al14 2.839543 1_565
Al10 Al12 2.839543 1_455
Al10 Al18 2.881587 1_555
Al10 Al16 2.881587 1_555
Al10 Y1 3.197073 1_555
Al10 Y0 3.208481 1_465
Al11 Ru3 2.607108 1_555
Al11 Ru0 2.607108 1_655
Al11 Al8 2.712996 1_555
Al11 Al5 2.759993 1_545
Al11 Al4 2.759993 1_655
Al11 Al13 2.839543 1_655
Al11 Al15 2.839543 1_545
Al11 Al17 2.881587 1_555
Al11 Al19 2.881587 1_555
Al11 Y0 3.197073 1_555
Al11 Y1 3.208481 1_645
Al12 Ru1 2.562854 1_656
Al12 Ru0 2.562854 1_655
Al12 Al16 2.640575 1_655
Al12 Al5 2.691599 1_555
Al12 Al6 2.691599 1_556
Al12 Al3 2.724968 1_555
Al12 Al18 2.796866 1_555
Al12 Al9 2.839543 1_655
Al12 Y0 3.160290 1_555
Al12 Y0 3.650346 1_565
Al13 Ru0 2.562854 1_555
Al13 Ru1 2.562854 1_555
Al13 Al17 2.640575 1_455
Al13 Al4 2.691599 1_555
Al13 Al7 2.691599 1_555
Al13 Al2 2.724968 1_555
Al13 Al19 2.796866 1_555
Al13 Al8 2.839543 1_455
Al13 Y1 3.160290 1_555
Al13 Y1 3.650346 1_545
Al14 Ru2 2.562854 1_556
Al14 Ru3 2.562854 1_555
Al14 Al18 2.640575 1_545
Al14 Al7 2.691599 1_556
Al14 Al4 2.691599 1_555
Al14 Al3 2.724968 1_555
Al14 Al16 2.796866 1_555
Al14 Al9 2.839543 1_545
Al14 Y0 3.160290 1_555
Al14 Y0 3.650346 1_455
Al15 Ru3 2.562854 1_565
Al15 Ru2 2.562854 1_565
Al15 Al19 2.640575 1_565
Al15 Al5 2.691599 1_555
Al15 Al6 2.691599 1_555
Al15 Al2 2.724968 1_555
Al15 Al17 2.796866 1_555
Al15 Al8 2.839543 1_565
Al15 Y1 3.160290 1_555
Al15 Y1 3.650346 1_655
Al16 Al18 2.703622 1_555
Al16 Ru0 2.728095 1_555
Al16 Ru1 2.728095 1_556
Al16 Al7 2.857698 1_556
Al16 Al4 2.857698 1_555
Al16 Al9 2.881587 1_555
Al16 Al2 3.038772 1_556
Al16 Y0 3.158964 1_455
Al17 Al19 2.703622 1_555
Al17 Ru1 2.728095 1_655
Al17 Ru0 2.728095 1_655
Al17 Al6 2.857698 1_555
Al17 Al5 2.857698 1_555
Al17 Al8 2.881587 1_555
Al17 Al3 3.038772 1_554
Al17 Y1 3.158964 1_655
Al18 Ru3 2.728095 1_565
Al18 Ru2 2.728095 1_566
Al18 Al6 2.857698 1_556
Al18 Al5 2.857698 1_555
Al18 Al9 2.881587 1_555
Al18 Al2 3.038772 1_556
Al18 Y0 3.158964 1_565
Al19 Ru3 2.728095 1_555
Al19 Ru2 2.728095 1_555
Al19 Al7 2.857698 1_555
Al19 Al4 2.857698 1_555
Al19 Al8 2.881587 1_555
Al19 Al3 3.038772 1_554
Al19 Y1 3.158964 1_545
Ru0 Y1 3.436435 1_555
Ru0 Y0 3.436435 1_455
Ru1 Y1 3.436435 1_555
Ru1 Y0 3.436435 1_454
Ru2 Y0 3.436435 1_554
Ru2 Y1 3.436435 1_545
Ru3 Y0 3.436435 1_555
Ru3 Y1 3.436435 1_545
