# generated using pymatgen
data_Ti3VNi2(PO4)6
_symmetry_space_group_name_H-M   'P 1'
_cell_length_a   8.52010511
_cell_length_b   8.64302449
_cell_length_c   8.64302406
_cell_angle_alpha   60.00000120
_cell_angle_beta   59.52160438
_cell_angle_gamma   59.52160654
_symmetry_Int_Tables_number   1
_chemical_formula_structural   Ti3VNi2(PO4)6
_chemical_formula_sum   'Ti3 V1 Ni2 P6 O24'
_cell_volume   446.76889555
_cell_formula_units_Z   1
loop_
 _symmetry_equiv_pos_site_id
 _symmetry_equiv_pos_as_xyz
  1  'x, y, z'
loop_
 _atom_site_type_symbol
 _atom_site_label
 _atom_site_symmetry_multiplicity
 _atom_site_fract_x
 _atom_site_fract_y
 _atom_site_fract_z
 _atom_site_occupancy
  Ti  Ti0  1  0.06565300  0.64478200  0.64478200  1
  Ti  Ti1  1  0.43035700  0.85654800  0.85654800  1
  Ti  Ti2  1  0.93575100  0.35474900  0.35474900  1
  V  V0  1  0.57708100  0.14097300  0.14097300  1
  Ni  Ni0  1  0.99836400  0.00054600  0.00054600  1
  Ni  Ni1  1  0.49709800  0.50096700  0.50096700  1
  P  P0  1  0.25153000  0.24914800  0.54594600  1
  P  P1  1  0.25153000  0.95337700  0.24914800  1
  P  P2  1  0.25153000  0.54594600  0.95337700  1
  P  P3  1  0.75044800  0.45489400  0.04628100  1
  P  P4  1  0.75044800  0.04628100  0.74837700  1
  P  P5  1  0.75044800  0.74837700  0.45489400  1
  O  O0  1  0.06809700  0.11668100  0.31647000  1
  O  O1  1  0.06809700  0.49875300  0.11668100  1
  O  O2  1  0.06809700  0.31647000  0.49875300  1
  O  O3  1  0.22329700  0.09035200  0.74495300  1
  O  O4  1  0.43363300  0.18424300  0.39312000  1
  O  O5  1  0.26553000  0.41207500  0.56584300  1
  O  O6  1  0.22329700  0.94139800  0.09035200  1
  O  O7  1  0.26553000  0.75655200  0.41207500  1
  O  O8  1  0.56853100  0.61665400  0.99864800  1
  O  O9  1  0.26553000  0.56584300  0.75655200  1
  O  O10  1  0.78340100  0.25948900  0.05485600  1
  O  O11  1  0.56853100  0.99864800  0.81616800  1
  O  O12  1  0.43363300  0.98900300  0.18424300  1
  O  O13  1  0.22329700  0.74495300  0.94139800  1
  O  O14  1  0.72493200  0.44595200  0.24220800  1
  O  O15  1  0.43363300  0.39312000  0.98900300  1
  O  O16  1  0.72493200  0.24220800  0.58690800  1
  O  O17  1  0.78340100  0.05485600  0.90225400  1
  O  O18  1  0.72493200  0.58690800  0.44595200  1
  O  O19  1  0.56853100  0.81616800  0.61665400  1
  O  O20  1  0.78340100  0.90225400  0.25948900  1
  O  O21  1  0.92916800  0.67617500  0.50869500  1
  O  O22  1  0.92916800  0.50869500  0.88596200  1
  O  O23  1  0.92916800  0.88596200  0.67617500  1
loop_
_geom_bond_atom_site_label_1
_geom_bond_atom_site_label_2
_geom_bond_distance
_geom_bond_site_symmetry_2
Ni0 O10 2.145674 1_555
Ni0 O20 2.145679 1_545
Ni0 O17 2.145686 1_554
Ni0 O6 2.157534 1_645
Ni0 O3 2.157541 1_654
Ni0 O13 2.157546 1_644
Ni1 O14 2.172350 1_555
Ni1 O16 2.172352 1_555
Ni1 O18 2.172355 1_555
Ni1 O5 2.186777 1_555
Ni1 O7 2.186781 1_555
Ni1 O9 2.186783 1_555
O0 P1 1.560237 1_545
O0 Ti2 1.887706 1_455
O1 P2 1.560237 1_554
O1 Ti2 1.887716 1_455
O2 P0 1.560237 1_555
O2 Ti2 1.887728 1_455
O3 P0 1.566696 1_555
O3 Ti1 2.070448 1_545
O4 P0 1.498590 1_555
O4 V0 2.008086 1_555
O5 P0 1.568485 1_555
O5 Ti0 2.032219 1_555
O6 P1 1.566701 1_555
O6 Ti1 2.070444 1_554
O7 P1 1.568490 1_555
O7 Ti0 2.032222 1_555
O8 P3 1.549191 1_556
O8 Ti1 1.907210 1_555
O9 P2 1.568494 1_555
O9 Ti0 2.032225 1_555
O10 P3 1.533490 1_555
O10 V0 2.104825 1_555
O11 P4 1.549189 1_565
O11 Ti1 1.907210 1_555
O12 P1 1.498581 1_555
O12 V0 2.008093 1_565
O13 P2 1.566692 1_555
O13 Ti1 2.070451 1_555
O14 P3 1.559987 1_555
O14 Ti2 2.088812 1_555
O15 P2 1.498585 1_555
O15 V0 2.008090 1_556
O16 P4 1.559987 1_555
O16 Ti2 2.088817 1_555
O17 P4 1.533490 1_555
O17 V0 2.104825 1_556
O18 P5 1.559987 1_555
O18 Ti2 2.088825 1_555
O19 P5 1.549194 1_555
O19 Ti1 1.907210 1_555
O20 P5 1.533490 1_555
O20 V0 2.104825 1_565
O21 P5 1.545466 1_555
O21 Ti0 1.886165 1_655
O22 P3 1.545466 1_556
O22 Ti0 1.886170 1_655
O23 P4 1.545466 1_565
O23 Ti0 1.886173 1_655
