# generated using pymatgen
data_RbY(WO4)2
_symmetry_space_group_name_H-M   'P 1'
_cell_length_a   7.63708686
_cell_length_b   7.63708686
_cell_length_c   7.50740817
_cell_angle_alpha   62.55033392
_cell_angle_beta   62.55033392
_cell_angle_gamma   88.66511073
_symmetry_Int_Tables_number   1
_chemical_formula_structural   RbY(WO4)2
_chemical_formula_sum   'Rb2 Y2 W4 O16'
_cell_volume   334.72673662
_cell_formula_units_Z   2
loop_
 _symmetry_equiv_pos_site_id
 _symmetry_equiv_pos_as_xyz
  1  'x, y, z'
loop_
 _atom_site_type_symbol
 _atom_site_label
 _atom_site_symmetry_multiplicity
 _atom_site_fract_x
 _atom_site_fract_y
 _atom_site_fract_z
 _atom_site_occupancy
  Rb  Rb0  1  0.19957900  0.80042100  0.75000000  1
  Rb  Rb1  1  0.80042100  0.19957900  0.25000000  1
  Y  Y0  1  0.77577000  0.22423000  0.75000000  1
  Y  Y1  1  0.22423000  0.77577000  0.25000000  1
  W  W0  1  0.69946500  0.68885700  0.78133500  1
  W  W1  1  0.30053500  0.31114300  0.21866500  1
  W  W2  1  0.31114300  0.30053500  0.71866500  1
  W  W3  1  0.68885700  0.69946500  0.28133500  1
  O  O0  1  0.62067900  0.75379300  0.55953500  1
  O  O1  1  0.37932100  0.24620700  0.44046500  1
  O  O2  1  0.24620700  0.37932100  0.94046500  1
  O  O3  1  0.75379300  0.62067900  0.05953500  1
  O  O4  1  0.37467500  0.06135200  0.87516400  1
  O  O5  1  0.62532500  0.93864800  0.12483600  1
  O  O6  1  0.93864800  0.62532500  0.62483600  1
  O  O7  1  0.06135200  0.37467500  0.37516400  1
  O  O8  1  0.59050700  0.37023900  0.96649500  1
  O  O9  1  0.40949300  0.62976100  0.03350500  1
  O  O10  1  0.62976100  0.40949300  0.53350500  1
  O  O11  1  0.37023900  0.59050700  0.46649500  1
  O  O12  1  0.78442400  0.95373800  0.69208700  1
  O  O13  1  0.21557600  0.04626200  0.30791300  1
  O  O14  1  0.04626200  0.21557600  0.80791300  1
  O  O15  1  0.95373800  0.78442400  0.19208700  1
loop_
_geom_bond_atom_site_label_1
_geom_bond_atom_site_label_2
_geom_bond_distance
_geom_bond_site_symmetry_2
O0 W0 1.878604 1_555
O0 W3 2.142804 1_555
O0 Rb0 2.947958 1_555
O0 Rb1 2.976252 1_565
O1 W1 1.878604 1_555
O1 W2 2.142804 1_555
O1 Rb1 2.947958 1_555
O1 Rb0 2.976252 1_545
O2 W2 1.878604 1_555
O2 W1 2.142804 1_556
O2 Rb0 2.947958 1_555
O2 Rb1 2.976252 1_456
O3 W3 1.878604 1_555
O3 W0 2.142804 1_554
O3 Rb1 2.947958 1_555
O3 Rb0 2.976252 1_654
O4 W2 1.859612 1_555
O4 Y1 2.339516 1_546
O4 Rb0 3.106625 1_545
O5 W3 1.859612 1_555
O5 Y0 2.339516 1_564
O5 Rb1 3.106625 1_565
O6 W0 1.859612 1_555
O6 Y1 2.339516 1_655
O6 Rb0 3.106625 1_655
O7 W1 1.859612 1_555
O7 Y0 2.339516 1_455
O7 Rb1 3.106625 1_455
O8 W1 2.021274 1_556
O8 W0 2.110741 1_555
O8 Y0 2.316074 1_555
O8 Rb1 3.047897 1_556
O9 W0 2.021274 1_554
O9 W1 2.110741 1_555
O9 Y1 2.316074 1_555
O9 Rb0 3.047897 1_554
O10 W3 2.021274 1_555
O10 W2 2.110741 1_555
O10 Y0 2.316074 1_555
O10 Rb1 3.047897 1_555
O11 W2 2.021274 1_555
O11 W3 2.110741 1_555
O11 Y1 2.316074 1_555
O11 Rb0 3.047897 1_555
O12 W0 1.836541 1_555
O12 Y0 2.292595 1_565
O12 Rb1 2.906410 1_565
O13 W1 1.836541 1_555
O13 Y1 2.292595 1_545
O13 Rb0 2.906410 1_545
O14 W2 1.836541 1_555
O14 Y0 2.292595 1_455
O14 Rb1 2.906410 1_456
O15 W3 1.836541 1_555
O15 Y1 2.292595 1_655
O15 Rb0 2.906410 1_654
