# generated using pymatgen
data_V4ZnS8
_symmetry_space_group_name_H-M   'P 1'
_cell_length_a   7.46767078
_cell_length_b   7.46767082
_cell_length_c   7.46767137
_cell_angle_alpha   50.88477291
_cell_angle_beta   50.88476494
_cell_angle_gamma   50.88477191
_symmetry_Int_Tables_number   1
_chemical_formula_structural   V4ZnS8
_chemical_formula_sum   'V4 Zn1 S8'
_cell_volume   231.17684115
_cell_formula_units_Z   1
loop_
 _symmetry_equiv_pos_site_id
 _symmetry_equiv_pos_as_xyz
  1  'x, y, z'
loop_
 _atom_site_type_symbol
 _atom_site_label
 _atom_site_symmetry_multiplicity
 _atom_site_fract_x
 _atom_site_fract_y
 _atom_site_fract_z
 _atom_site_occupancy
  V  V0  1  0.50000100  0.99999900  0.50000100  1
  V  V1  1  0.99999900  0.50000000  0.50000100  1
  V  V2  1  0.50000000  0.50000000  0.00000000  1
  V  V3  1  0.00000000  0.00000000  0.00000000  1
  Zn  Zn0  1  0.50000000  0.50000100  0.49999900  1
  S  S0  1  0.75476700  0.26129700  0.75476700  1
  S  S1  1  0.24523200  0.24523300  0.73870300  1
  S  S2  1  0.24523200  0.73870400  0.24523200  1
  S  S3  1  0.73870200  0.24523300  0.24523300  1
  S  S4  1  0.25820600  0.25820700  0.25820600  1
  S  S5  1  0.74179400  0.74179400  0.74179400  1
  S  S6  1  0.26129800  0.75476800  0.75476700  1
  S  S7  1  0.75476800  0.75476800  0.26129700  1
loop_
_geom_bond_atom_site_label_1
_geom_bond_atom_site_label_2
_geom_bond_distance
_geom_bond_site_symmetry_2
S0 V1 2.365273 1_555
S0 V2 2.365278 1_556
S0 V3 2.393523 1_656
S0 Zn0 2.534868 1_555
S1 V1 2.365272 1_455
S1 V0 2.365275 1_545
S1 V3 2.393518 1_556
S1 Zn0 2.534874 1_555
S2 V2 2.365276 1_555
S2 V1 2.365281 1_455
S2 V3 2.393514 1_565
S2 Zn0 2.534870 1_555
S3 V0 2.365271 1_545
S3 V2 2.365272 1_555
S3 V3 2.393522 1_655
S3 Zn0 2.534866 1_555
S4 V2 2.359313 1_555
S4 V1 2.359318 1_455
S4 V0 2.359328 1_545
S5 V0 2.359309 1_555
S5 V1 2.359314 1_555
S5 V2 2.359319 1_556
S6 V0 2.365268 1_555
S6 V2 2.365271 1_556
S6 V3 2.393517 1_566
S6 Zn0 2.534872 1_555
S7 V1 2.365271 1_555
S7 V0 2.365272 1_555
S7 V3 2.393512 1_665
S7 Zn0 2.534872 1_555
