# generated using pymatgen
data_KBaLaSeO6
_symmetry_space_group_name_H-M   'P 1'
_cell_length_a   8.40942055
_cell_length_b   8.41212639
_cell_length_c   8.42506470
_cell_angle_alpha   90.00000000
_cell_angle_beta   90.00000000
_cell_angle_gamma   90.00000000
_symmetry_Int_Tables_number   1
_chemical_formula_structural   KBaLaSeO6
_chemical_formula_sum   'K4 Ba4 La4 Se4 O24'
_cell_volume   595.99841634
_cell_formula_units_Z   4
loop_
 _symmetry_equiv_pos_site_id
 _symmetry_equiv_pos_as_xyz
  1  'x, y, z'
loop_
 _atom_site_type_symbol
 _atom_site_label
 _atom_site_symmetry_multiplicity
 _atom_site_fract_x
 _atom_site_fract_y
 _atom_site_fract_z
 _atom_site_occupancy
  K  K0  1  -0.00000000  0.50000000  0.50000000  1
  K  K1  1  0.50000000  -0.00000000  0.50000000  1
  K  K2  1  0.50000000  -0.00000000  0.00000000  1
  K  K3  1  0.00000000  0.50000000  0.00000000  1
  Ba  Ba0  1  0.50000000  0.50000000  0.00000000  1
  Ba  Ba1  1  -0.00000000  0.00000000  0.50000000  1
  Ba  Ba2  1  -0.00000000  -0.00000000  0.00000000  1
  Ba  Ba3  1  0.50000000  0.50000000  0.50000000  1
  La  La0  1  0.75000000  0.75000000  0.75000000  1
  La  La1  1  0.25000000  0.25000000  0.75000000  1
  La  La2  1  0.25000000  0.75000000  0.25000000  1
  La  La3  1  0.75000000  0.25000000  0.25000000  1
  Se  Se0  1  0.25000000  0.25000000  0.25000000  1
  Se  Se1  1  0.75000000  0.75000000  0.25000000  1
  Se  Se2  1  0.75000000  0.25000000  0.75000000  1
  Se  Se3  1  0.25000000  0.75000000  0.75000000  1
  O  O0  1  0.03025688  0.23849841  0.25672776  1
  O  O1  1  0.96974312  0.76150159  0.25672776  1
  O  O2  1  0.96974312  0.23849841  0.74327224  1
  O  O3  1  0.03025688  0.76150159  0.74327224  1
  O  O4  1  0.25230259  0.03040900  0.24259563  1
  O  O5  1  0.25230259  0.96959100  0.75740437  1
  O  O6  1  0.74769741  0.96959100  0.24259563  1
  O  O7  1  0.74769741  0.03040900  0.75740437  1
  O  O8  1  0.24273635  0.25724354  0.03100592  1
  O  O9  1  0.75726365  0.25724354  0.96899408  1
  O  O10  1  0.24273635  0.74275646  0.96899408  1
  O  O11  1  0.75726365  0.74275646  0.03100592  1
  O  O12  1  0.46974312  0.26150159  0.24327224  1
  O  O13  1  0.53025688  0.73849841  0.24327224  1
  O  O14  1  0.53025688  0.26150159  0.75672776  1
  O  O15  1  0.46974312  0.73849841  0.75672776  1
  O  O16  1  0.24769741  0.46959100  0.25740437  1
  O  O17  1  0.24769741  0.53040900  0.74259563  1
  O  O18  1  0.75230259  0.53040900  0.25740437  1
  O  O19  1  0.75230259  0.46959100  0.74259563  1
  O  O20  1  0.25726365  0.24275646  0.46899408  1
  O  O21  1  0.74273635  0.24275646  0.53100592  1
  O  O22  1  0.25726365  0.75724354  0.53100592  1
  O  O23  1  0.74273635  0.75724354  0.46899408  1
loop_
_geom_bond_atom_site_label_1
_geom_bond_atom_site_label_2
_geom_bond_distance
_geom_bond_site_symmetry_2
K0 O18 2.929463 1_455
K0 O16 2.929463 1_555
K0 O17 2.929463 1_555
K0 O19 2.929463 1_455
K0 O0 3.017381 1_555
K0 O1 3.017381 1_455
K0 O2 3.017381 1_455
K0 O3 3.017381 1_555
K0 O21 3.071067 1_455
K0 O23 3.071067 1_455
K0 O20 3.071067 1_555
K0 O22 3.071067 1_555
K1 O22 2.899172 1_545
K1 O23 2.899172 1_545
K1 O20 2.899172 1_555
K1 O21 2.899172 1_555
K1 O4 3.017835 1_555
K1 O6 3.017835 1_545
K1 O5 3.017835 1_545
K1 O7 3.017835 1_555
K1 O13 3.095503 1_545
K1 O15 3.095503 1_545
K1 O14 3.095503 1_555
K1 O12 3.095503 1_555
K2 O5 2.929463 1_544
K2 O7 2.929463 1_554
K2 O4 2.929463 1_555
K2 O6 2.929463 1_545
K2 O13 3.017381 1_545
K2 O12 3.017381 1_555
K2 O15 3.017381 1_544
K2 O14 3.017381 1_554
K2 O8 3.071067 1_555
K2 O10 3.071067 1_544
K2 O11 3.071067 1_545
K2 O9 3.071067 1_554
K3 O9 2.899172 1_454
K3 O8 2.899172 1_555
K3 O11 2.899172 1_455
K3 O10 2.899172 1_554
K3 O17 3.017835 1_554
K3 O19 3.017835 1_454
K3 O16 3.017835 1_555
K3 O18 3.017835 1_455
K3 O2 3.095503 1_454
K3 O0 3.095503 1_555
K3 O3 3.095503 1_554
K3 O1 3.095503 1_455
Ba0 O12 2.879356 1_555
Ba0 O14 2.879356 1_554
Ba0 O13 2.879356 1_555
Ba0 O15 2.879356 1_554
Ba0 O10 2.986448 1_554
Ba0 O8 2.986448 1_555
Ba0 O9 2.986448 1_554
Ba0 O11 2.986448 1_555
Ba0 O19 3.044694 1_554
Ba0 O16 3.044694 1_555
Ba0 O17 3.044694 1_554
Ba0 O18 3.044694 1_555
Ba1 O1 2.879356 1_445
Ba1 O0 2.879356 1_555
Ba1 O3 2.879356 1_545
Ba1 O2 2.879356 1_455
Ba1 O23 2.986448 1_445
Ba1 O20 2.986448 1_555
Ba1 O22 2.986448 1_545
Ba1 O21 2.986448 1_455
Ba1 O6 3.044694 1_445
Ba1 O4 3.044694 1_555
Ba1 O5 3.044694 1_545
Ba1 O7 3.044694 1_455
Ba2 O5 2.957125 1_544
Ba2 O7 2.957125 1_454
Ba2 O6 2.957125 1_445
Ba2 O4 2.957125 1_555
Ba2 O1 2.961121 1_445
Ba2 O2 2.961121 1_454
Ba2 O3 2.961121 1_544
Ba2 O0 2.961121 1_555
Ba2 O11 2.986265 1_445
Ba2 O10 2.986265 1_544
Ba2 O9 2.986265 1_454
Ba2 O8 2.986265 1_555
Ba3 O18 2.957125 1_555
Ba3 O16 2.957125 1_555
Ba3 O17 2.957125 1_555
Ba3 O19 2.957125 1_555
Ba3 O14 2.961121 1_555
Ba3 O12 2.961121 1_555
Ba3 O15 2.961121 1_555
Ba3 O13 2.961121 1_555
Ba3 O21 2.986265 1_555
Ba3 O20 2.986265 1_555
Ba3 O22 2.986265 1_555
Ba3 O23 2.986265 1_555
La0 O15 2.359464 1_555
La0 O3 2.359464 1_655
La0 O7 2.359740 1_565
La0 O19 2.359740 1_555
La0 O11 2.369065 1_556
La0 O23 2.369065 1_555
La1 O2 2.359464 1_455
La1 O14 2.359464 1_555
La1 O5 2.359740 1_545
La1 O17 2.359740 1_555
La1 O8 2.369065 1_556
La1 O20 2.369065 1_555
La2 O1 2.359464 1_455
La2 O13 2.359464 1_555
La2 O4 2.359740 1_565
La2 O16 2.359740 1_555
La2 O22 2.369065 1_555
La2 O10 2.369065 1_554
La3 O12 2.359464 1_555
La3 O0 2.359464 1_655
La3 O18 2.359740 1_555
La3 O6 2.359740 1_545
La3 O9 2.369065 1_554
La3 O21 2.369065 1_555
O0 Se0 1.851311 1_555
O1 Se1 1.851311 1_555
O2 Se2 1.851311 1_555
O3 Se3 1.851311 1_555
O4 Se0 1.848382 1_555
O5 Se3 1.848382 1_555
O6 Se1 1.848382 1_555
O7 Se2 1.848382 1_555
O8 Se0 1.847056 1_555
O9 Se2 1.847056 1_555
O10 Se3 1.847056 1_555
O11 Se1 1.847056 1_555
O12 Se0 1.851311 1_555
O13 Se1 1.851311 1_555
O14 Se2 1.851311 1_555
O15 Se3 1.851311 1_555
O16 Se0 1.848382 1_555
O17 Se3 1.848382 1_555
O18 Se1 1.848382 1_555
O19 Se2 1.848382 1_555
O20 Se0 1.847056 1_555
O21 Se2 1.847056 1_555
O22 Se3 1.847056 1_555
O23 Se1 1.847056 1_555
