# generated using pymatgen
data_MgV6O5F19
_symmetry_space_group_name_H-M   'P 1'
_cell_length_a   5.43231504
_cell_length_b   5.35764378
_cell_length_c   15.54660233
_cell_angle_alpha   90.03275619
_cell_angle_beta   100.87219733
_cell_angle_gamma   89.01078092
_symmetry_Int_Tables_number   1
_chemical_formula_structural   MgV6O5F19
_chemical_formula_sum   'Mg1 V6 O5 F19'
_cell_volume   444.28502502
_cell_formula_units_Z   1
loop_
 _symmetry_equiv_pos_site_id
 _symmetry_equiv_pos_as_xyz
  1  'x, y, z'
loop_
 _atom_site_type_symbol
 _atom_site_label
 _atom_site_symmetry_multiplicity
 _atom_site_fract_x
 _atom_site_fract_y
 _atom_site_fract_z
 _atom_site_occupancy
  Mg  Mg0  1  0.14673100  0.75396800  0.81540800  1
  V  V0  1  0.04600400  0.97139500  0.01455500  1
  V  V1  1  0.12003400  0.46727900  0.32958100  1
  V  V2  1  0.34050200  0.00887400  0.65622500  1
  V  V3  1  0.53235500  0.46816000  0.00717600  1
  V  V4  1  0.65112000  0.98612900  0.33423500  1
  V  V5  1  0.81869300  0.44677300  0.65384500  1
  O  O0  1  0.03199100  0.22325600  0.64263100  1
  O  O1  1  0.54266400  0.29154900  0.65132000  1
  O  O2  1  0.71631400  0.24541500  0.98236000  1
  O  O3  1  0.28422200  0.76576100  0.02289400  1
  O  O4  1  0.87384100  0.28744800  0.31114300  1
  F  F0  1  0.23207100  0.27616600  0.98673900  1
  F  F1  1  0.13202500  0.71676900  0.68388600  1
  F  F2  1  0.03394600  0.09383500  0.12162200  1
  F  F3  1  0.23087700  0.42187500  0.44326200  1
  F  F4  1  0.34616700  0.03779400  0.77850000  1
  F  F5  1  0.12587100  0.59273700  0.22493400  1
  F  F6  1  0.27402200  0.92492600  0.54593000  1
  F  F7  1  0.42471800  0.57687900  0.88653700  1
  F  F8  1  0.35698600  0.21307700  0.30844900  1
  F  F9  1  0.46269800  0.71695100  0.35691400  1
  F  F10  1  0.63291700  0.79877500  0.68322000  1
  F  F11  1  0.56287900  0.42077600  0.12046200  1
  F  F12  1  0.71866900  0.09263800  0.44401600  1
  F  F13  1  0.91070300  0.47388100  0.77752100  1
  F  F14  1  0.62554500  0.92686400  0.22143000  1
  F  F15  1  0.77217400  0.58774100  0.54973400  1
  F  F16  1  0.95190400  0.93127300  0.88523000  1
  F  F17  1  0.77471700  0.72301400  0.02333100  1
  F  F18  1  0.95758900  0.77051800  0.35834100  1
loop_
_geom_bond_atom_site_label_1
_geom_bond_atom_site_label_2
_geom_bond_distance
_geom_bond_site_symmetry_2
O0 V5 1.683777 1_455
O0 V2 1.993199 1_555
O1 V5 1.721163 1_555
O1 V2 1.895957 1_555
O2 V3 1.635666 1_556
O2 V0 2.277134 1_646
O3 V0 1.671185 1_555
O3 V3 2.113880 1_555
O4 V1 1.642752 1_655
O4 V4 2.104955 1_545
F0 V3 1.918860 1_556
F0 V0 2.024247 1_546
F1 V2 2.040199 1_565
F1 Mg0 2.040942 1_555
F1 V5 2.234317 1_455
F2 V0 1.801018 1_545
F3 V1 1.771796 1_555
F4 V2 1.901674 1_555
F4 Mg0 2.026753 1_545
F5 V1 1.766655 1_555
F6 V2 1.744726 1_565
F7 Mg0 1.930085 1_555
F7 V3 1.942824 1_556
F8 V1 1.928246 1_555
F8 V4 1.970794 1_545
F9 V4 1.854595 1_555
F9 V1 2.285136 1_555
F10 V2 1.911492 1_565
F10 V5 2.211519 1_555
F11 V3 1.755763 1_555
F12 V4 1.772861 1_545
F13 V5 1.899343 1_555
F13 Mg0 2.005808 1_655
F14 V4 1.762010 1_555
F15 V5 1.759135 1_555
F16 Mg0 1.896920 1_655
F16 V0 1.991349 1_656
F17 V3 1.896782 1_555
F17 V0 2.026102 1_655
F18 V1 1.927855 1_655
F18 V4 1.986269 1_555
