# generated using pymatgen
data_Cs2AgCl3
_symmetry_space_group_name_H-M   'P 1'
_cell_length_a   4.58529106
_cell_length_b   13.30796203
_cell_length_c   13.82120854
_cell_angle_alpha   90.00000000
_cell_angle_beta   90.00000000
_cell_angle_gamma   90.00000000
_symmetry_Int_Tables_number   1
_chemical_formula_structural   Cs2AgCl3
_chemical_formula_sum   'Cs8 Ag4 Cl12'
_cell_volume   843.38229842
_cell_formula_units_Z   4
loop_
 _symmetry_equiv_pos_site_id
 _symmetry_equiv_pos_as_xyz
  1  'x, y, z'
loop_
 _atom_site_type_symbol
 _atom_site_label
 _atom_site_symmetry_multiplicity
 _atom_site_fract_x
 _atom_site_fract_y
 _atom_site_fract_z
 _atom_site_occupancy
  Cs  Cs0  1  0.25000000  0.67372691  0.98031640  1
  Cs  Cs1  1  0.25000000  0.17372691  0.51968360  1
  Cs  Cs2  1  0.75000000  0.32627309  0.01968360  1
  Cs  Cs3  1  0.75000000  0.82627309  0.48031640  1
  Cs  Cs4  1  0.25000000  0.01236688  0.17411024  1
  Cs  Cs5  1  0.25000000  0.51236688  0.32588976  1
  Cs  Cs6  1  0.75000000  0.98763312  0.82588976  1
  Cs  Cs7  1  0.75000000  0.48763312  0.67411024  1
  Ag  Ag0  1  0.25000000  0.75343591  0.69877360  1
  Ag  Ag1  1  0.25000000  0.25343591  0.80122640  1
  Ag  Ag2  1  0.75000000  0.24656409  0.30122640  1
  Ag  Ag3  1  0.75000000  0.74656409  0.19877360  1
  Cl  Cl0  1  0.25000000  0.63671014  0.55036722  1
  Cl  Cl1  1  0.25000000  0.13671014  0.94963278  1
  Cl  Cl2  1  0.75000000  0.36328986  0.44963278  1
  Cl  Cl3  1  0.75000000  0.86328986  0.05036722  1
  Cl  Cl4  1  0.25000000  0.93871208  0.64036930  1
  Cl  Cl5  1  0.25000000  0.43871208  0.85963070  1
  Cl  Cl6  1  0.75000000  0.06128792  0.35963070  1
  Cl  Cl7  1  0.75000000  0.56128792  0.14036930  1
  Cl  Cl8  1  0.25000000  0.77547098  0.28715310  1
  Cl  Cl9  1  0.25000000  0.27547098  0.21284690  1
  Cl  Cl10  1  0.75000000  0.22452902  0.71284690  1
  Cl  Cl11  1  0.75000000  0.72452902  0.78715310  1
loop_
_geom_bond_atom_site_label_1
_geom_bond_atom_site_label_2
_geom_bond_distance
_geom_bond_site_symmetry_2
Ag0 Cl0 2.572982 1_555
Ag0 Cl4 2.594421 1_555
Ag0 Cl11 2.626081 1_455
Ag0 Cl11 2.626081 1_555
Ag1 Cl1 2.572982 1_555
Ag1 Cl5 2.594421 1_555
Ag1 Cl10 2.626081 1_455
Ag1 Cl10 2.626081 1_555
Ag2 Cl2 2.572982 1_555
Ag2 Cl6 2.594421 1_555
Ag2 Cl9 2.626081 1_655
Ag2 Cl9 2.626081 1_555
Ag3 Cl3 2.572982 1_555
Ag3 Cl7 2.594421 1_555
Ag3 Cl8 2.626081 1_655
Ag3 Cl8 2.626081 1_555
Cl0 Cs7 3.480974 1_455
Cl0 Cs7 3.480974 1_555
Cl0 Cs5 3.516252 1_555
Cl0 Cs3 3.543671 1_555
Cl0 Cs3 3.543671 1_455
Cl1 Cs6 3.480974 1_445
Cl1 Cs6 3.480974 1_545
Cl1 Cs4 3.516252 1_556
Cl1 Cs2 3.543671 1_556
Cl1 Cs2 3.543671 1_456
Cl2 Cs5 3.480974 1_655
Cl2 Cs5 3.480974 1_555
Cl2 Cs7 3.516252 1_555
Cl2 Cs1 3.543671 1_655
Cl2 Cs1 3.543671 1_555
Cl3 Cs4 3.480974 1_665
Cl3 Cs4 3.480974 1_565
Cl3 Cs6 3.516252 1_554
Cl3 Cs0 3.543671 1_654
Cl3 Cs0 3.543671 1_554
Cl4 Cs6 3.500682 1_555
Cl4 Cs6 3.500682 1_455
Cl4 Cs3 3.519763 1_555
Cl4 Cs3 3.519763 1_455
Cl4 Cs1 3.544571 1_565
Cl5 Cs7 3.500682 1_555
Cl5 Cs7 3.500682 1_455
Cl5 Cs2 3.519763 1_556
Cl5 Cs2 3.519763 1_456
Cl5 Cs0 3.544571 1_555
Cl6 Cs4 3.500682 1_655
Cl6 Cs4 3.500682 1_555
Cl6 Cs1 3.519763 1_655
Cl6 Cs1 3.519763 1_555
Cl6 Cs3 3.544571 1_545
Cl7 Cs5 3.500682 1_655
Cl7 Cs5 3.500682 1_555
Cl7 Cs0 3.519763 1_654
Cl7 Cs0 3.519763 1_554
Cl7 Cs2 3.544571 1_555
Cl8 Cs4 3.518516 1_565
Cl8 Cs5 3.542075 1_555
Cl8 Cs3 3.583415 1_555
Cl8 Cs3 3.583415 1_455
Cl9 Cs5 3.518516 1_555
Cl9 Cs4 3.542075 1_555
Cl9 Cs2 3.583415 1_455
Cl9 Cs2 3.583415 1_555
Cl10 Cs6 3.518516 1_545
Cl10 Cs7 3.542075 1_555
Cl10 Cs1 3.583415 1_655
Cl10 Cs1 3.583415 1_555
Cl11 Cs7 3.518516 1_555
Cl11 Cs6 3.542075 1_555
Cl11 Cs0 3.583415 1_555
Cl11 Cs0 3.583415 1_655
