# generated using pymatgen
data_CaFeWO6
_symmetry_space_group_name_H-M   'P 1'
_cell_length_a   5.54489916
_cell_length_b   5.54489916
_cell_length_c   5.54366925
_cell_angle_alpha   60.00872051
_cell_angle_beta   60.00872051
_cell_angle_gamma   59.98187481
_symmetry_Int_Tables_number   1
_chemical_formula_structural   CaFeWO6
_chemical_formula_sum   'Ca1 Fe1 W1 O6'
_cell_volume   120.52227180
_cell_formula_units_Z   1
loop_
 _symmetry_equiv_pos_site_id
 _symmetry_equiv_pos_as_xyz
  1  'x, y, z'
loop_
 _atom_site_type_symbol
 _atom_site_label
 _atom_site_symmetry_multiplicity
 _atom_site_fract_x
 _atom_site_fract_y
 _atom_site_fract_z
 _atom_site_occupancy
  Ca  Ca0  1  0.75119600  0.75119600  0.73246800  1
  Fe  Fe0  1  0.49998800  0.49998800  0.47488600  1
  W  W0  1  0.00010000  0.00010000  0.97525500  1
  O  O0  1  0.24610500  0.24610500  0.72105300  1
  O  O1  1  0.75364200  0.75364200  0.22662500  1
  O  O2  1  0.25181600  0.75614100  0.21492700  1
  O  O3  1  0.75614100  0.25181600  0.21492700  1
  O  O4  1  0.24004100  0.75057300  0.73040100  1
  O  O5  1  0.75057300  0.24004100  0.73040100  1
loop_
_geom_bond_atom_site_label_1
_geom_bond_atom_site_label_2
_geom_bond_distance
_geom_bond_site_symmetry_2
Ca0 O5 2.703164 1_565
Ca0 O4 2.703164 1_655
Ca0 O2 2.723040 1_556
Ca0 O3 2.723040 1_556
Ca0 O1 2.753069 1_556
Ca0 O0 2.773487 1_655
Ca0 O0 2.773487 1_565
Ca0 O1 2.790733 1_555
Ca0 O2 2.823699 1_655
Ca0 O3 2.823699 1_565
Ca0 O5 2.841781 1_555
Ca0 O4 2.841781 1_555
Fe0 O5 1.984259 1_555
Fe0 O4 1.984259 1_555
Fe0 O1 1.989830 1_555
Fe0 O0 1.991860 1_555
Fe0 O2 1.992108 1_555
Fe0 O3 1.992108 1_555
O0 W0 1.930145 1_555
O1 W0 1.933355 1_664
O2 W0 1.926486 1_564
O3 W0 1.926486 1_654
O4 W0 1.938367 1_565
O5 W0 1.938367 1_655
