# generated using pymatgen
data_CsLa3
_symmetry_space_group_name_H-M   'P 1'
_cell_length_a   5.49286800
_cell_length_b   5.49286800
_cell_length_c   5.49286800
_cell_angle_alpha   90.00000000
_cell_angle_beta   90.00000000
_cell_angle_gamma   90.00000000
_symmetry_Int_Tables_number   1
_chemical_formula_structural   CsLa3
_chemical_formula_sum   'Cs1 La3'
_cell_volume   165.72860992
_cell_formula_units_Z   1
loop_
 _symmetry_equiv_pos_site_id
 _symmetry_equiv_pos_as_xyz
  1  'x, y, z'
loop_
 _atom_site_type_symbol
 _atom_site_label
 _atom_site_symmetry_multiplicity
 _atom_site_fract_x
 _atom_site_fract_y
 _atom_site_fract_z
 _atom_site_occupancy
  Cs  Cs0  1  0.00000000  0.00000000  0.00000000  1
  La  La0  1  0.50000000  0.50000000  0.00000000  1
  La  La1  1  0.50000000  0.00000000  0.50000000  1
  La  La2  1  0.00000000  0.50000000  0.50000000  1
loop_
_geom_bond_atom_site_label_1
_geom_bond_atom_site_label_2
_geom_bond_distance
_geom_bond_site_symmetry_2
Cs0 La2 3.884044 1_554
Cs0 La0 3.884044 1_445
Cs0 La2 3.884044 1_545
Cs0 La0 3.884044 1_455
Cs0 La1 3.884044 1_554
Cs0 La2 3.884044 1_544
Cs0 La0 3.884044 1_555
Cs0 La0 3.884044 1_545
Cs0 La1 3.884044 1_455
Cs0 La1 3.884044 1_454
Cs0 La1 3.884044 1_555
Cs0 La2 3.884044 1_555
La0 La2 3.884044 1_554
La0 La1 3.884044 1_565
La0 La2 3.884044 1_655
La0 La2 3.884044 1_654
La0 La1 3.884044 1_554
La0 La1 3.884044 1_564
La0 La1 3.884044 1_555
La0 La2 3.884044 1_555
La1 La2 3.884044 1_545
La1 La2 3.884044 1_655
La1 La2 3.884044 1_645
La1 La2 3.884044 1_555
