# generated using pymatgen
data_BaCoSO
_symmetry_space_group_name_H-M   'P 1'
_cell_length_a   4.03542000
_cell_length_b   6.17954400
_cell_length_c   6.76481134
_cell_angle_alpha   90.00000000
_cell_angle_beta   107.35345622
_cell_angle_gamma   90.00000000
_symmetry_Int_Tables_number   1
_chemical_formula_structural   BaCoSO
_chemical_formula_sum   'Ba2 Co2 S2 O2'
_cell_volume   161.01599851
_cell_formula_units_Z   2
loop_
 _symmetry_equiv_pos_site_id
 _symmetry_equiv_pos_as_xyz
  1  'x, y, z'
loop_
 _atom_site_type_symbol
 _atom_site_label
 _atom_site_symmetry_multiplicity
 _atom_site_fract_x
 _atom_site_fract_y
 _atom_site_fract_z
 _atom_site_occupancy
  Ba  Ba0  1  0.61362200  0.25000000  0.22724400  1
  Ba  Ba1  1  0.38637800  0.75000000  0.77275600  1
  Co  Co0  1  0.90563900  0.25000000  0.81127800  1
  Co  Co1  1  0.09436100  0.75000000  0.18872200  1
  S  S0  1  0.30956700  0.25000000  0.61913400  1
  S  S1  1  0.69043300  0.75000000  0.38086600  1
  O  O0  1  0.00000000  0.00000000  0.00000000  1
  O  O1  1  0.00000000  0.50000000  0.00000000  1
loop_
_geom_bond_atom_site_label_1
_geom_bond_atom_site_label_2
_geom_bond_distance
_geom_bond_site_symmetry_2
Ba0 O1 2.934411 1_655
Ba0 O1 2.934411 1_555
Ba0 O0 2.934411 1_655
Ba0 O0 2.934411 1_555
Ba0 S0 3.236363 1_655
Ba0 S0 3.236363 1_555
Ba0 S1 3.245088 1_545
Ba0 S1 3.245088 1_555
Ba1 O0 2.934411 1_566
Ba1 O1 2.934411 1_556
Ba1 O1 2.934411 1_656
Ba1 O0 2.934411 1_666
Ba1 S1 3.236363 1_455
Ba1 S1 3.236363 1_555
Ba1 S0 3.245088 1_555
Ba1 S0 3.245088 1_565
Co0 O1 1.967627 1_656
Co0 O0 1.967627 1_656
Co0 S0 2.368623 1_655
Co0 S0 2.368623 1_555
Co1 O0 1.967627 1_565
Co1 O1 1.967627 1_555
Co1 S1 2.368623 1_555
Co1 S1 2.368623 1_455
