# generated using pymatgen
data_Ba5(In2Sb3)2
_symmetry_space_group_name_H-M   'P 1'
_cell_length_a   8.43245100
_cell_length_b   14.69950700
_cell_length_c   18.60657600
_cell_angle_alpha   90.00000000
_cell_angle_beta   90.00000000
_cell_angle_gamma   90.00000000
_symmetry_Int_Tables_number   1
_chemical_formula_structural   Ba5(In2Sb3)2
_chemical_formula_sum   'Ba20 In16 Sb24'
_cell_volume   2306.33854262
_cell_formula_units_Z   4
loop_
 _symmetry_equiv_pos_site_id
 _symmetry_equiv_pos_as_xyz
  1  'x, y, z'
loop_
 _atom_site_type_symbol
 _atom_site_label
 _atom_site_symmetry_multiplicity
 _atom_site_fract_x
 _atom_site_fract_y
 _atom_site_fract_z
 _atom_site_occupancy
  Ba  Ba0  1  0.76018700  0.33642500  0.25075100  1
  Ba  Ba1  1  0.76018700  0.66357500  0.25075100  1
  Ba  Ba2  1  0.76018700  0.33642500  0.74924900  1
  Ba  Ba3  1  0.76018700  0.66357500  0.74924900  1
  Ba  Ba4  1  0.23981300  0.16357500  0.24924900  1
  Ba  Ba5  1  0.23981300  0.83642500  0.24924900  1
  Ba  Ba6  1  0.23981300  0.16357500  0.75075100  1
  Ba  Ba7  1  0.23981300  0.83642500  0.75075100  1
  Ba  Ba8  1  0.73731200  0.34975700  0.50000000  1
  Ba  Ba9  1  0.73731200  0.65024300  0.50000000  1
  Ba  Ba10  1  0.26268800  0.15024300  0.00000000  1
  Ba  Ba11  1  0.26268800  0.84975700  0.00000000  1
  Ba  Ba12  1  0.26085400  0.50000000  0.75172000  1
  Ba  Ba13  1  0.26085400  0.50000000  0.24828000  1
  Ba  Ba14  1  0.73914600  0.00000000  0.74828000  1
  Ba  Ba15  1  0.73914600  0.00000000  0.25172000  1
  Ba  Ba16  1  0.92871400  0.50000000  0.00000000  1
  Ba  Ba17  1  0.07128600  0.00000000  0.50000000  1
  Ba  Ba18  1  0.29121000  0.50000000  0.50000000  1
  Ba  Ba19  1  0.70879000  0.00000000  0.00000000  1
  In  In0  1  0.89782200  0.81513700  0.91871700  1
  In  In1  1  0.89782200  0.18486300  0.91871700  1
  In  In2  1  0.89782200  0.81513700  0.08128300  1
  In  In3  1  0.89782200  0.18486300  0.08128300  1
  In  In4  1  0.10217800  0.68486300  0.58128300  1
  In  In5  1  0.10217800  0.31513700  0.58128300  1
  In  In6  1  0.10217800  0.68486300  0.41871700  1
  In  In7  1  0.10217800  0.31513700  0.41871700  1
  In  In8  1  0.56716700  0.84525000  0.42185400  1
  In  In9  1  0.56716700  0.15475000  0.42185400  1
  In  In10  1  0.56716700  0.84525000  0.57814600  1
  In  In11  1  0.56716700  0.15475000  0.57814600  1
  In  In12  1  0.43283300  0.65475000  0.07814600  1
  In  In13  1  0.43283300  0.34525000  0.07814600  1
  In  In14  1  0.43283300  0.65475000  0.92185400  1
  In  In15  1  0.43283300  0.34525000  0.92185400  1
  Sb  Sb0  1  0.42314900  0.32781700  0.36756900  1
  Sb  Sb1  1  0.42314900  0.67218300  0.36756900  1
  Sb  Sb2  1  0.42314900  0.32781700  0.63243100  1
  Sb  Sb3  1  0.42314900  0.67218300  0.63243100  1
  Sb  Sb4  1  0.57685100  0.17218300  0.13243100  1
  Sb  Sb5  1  0.57685100  0.82781700  0.13243100  1
  Sb  Sb6  1  0.57685100  0.17218300  0.86756900  1
  Sb  Sb7  1  0.57685100  0.82781700  0.86756900  1
  Sb  Sb8  1  0.90541100  0.83531700  0.37069900  1
  Sb  Sb9  1  0.90541100  0.16468300  0.37069900  1
  Sb  Sb10  1  0.90541100  0.83531700  0.62930100  1
  Sb  Sb11  1  0.90541100  0.16468300  0.62930100  1
  Sb  Sb12  1  0.09458900  0.66468300  0.12930100  1
  Sb  Sb13  1  0.09458900  0.33531700  0.12930100  1
  Sb  Sb14  1  0.09458900  0.66468300  0.87069900  1
  Sb  Sb15  1  0.09458900  0.33531700  0.87069900  1
  Sb  Sb16  1  0.94441400  0.50000000  0.37611600  1
  Sb  Sb17  1  0.94441400  0.50000000  0.62388400  1
  Sb  Sb18  1  0.05558600  0.00000000  0.12388400  1
  Sb  Sb19  1  0.05558600  0.00000000  0.87611600  1
  Sb  Sb20  1  0.60210200  0.50000000  0.86674300  1
  Sb  Sb21  1  0.60210200  0.50000000  0.13325700  1
  Sb  Sb22  1  0.39789800  0.00000000  0.63325700  1
  Sb  Sb23  1  0.39789800  0.00000000  0.36674300  1
loop_
_geom_bond_atom_site_label_1
_geom_bond_atom_site_label_2
_geom_bond_distance
_geom_bond_site_symmetry_2
Ba0 Sb21 3.512519 1_555
Ba0 Sb0 3.580190 1_555
Ba0 Sb9 3.585230 1_555
Ba0 Sb13 3.613620 1_655
Ba0 Sb4 3.614622 1_555
Ba0 Sb16 3.692680 1_555
Ba0 In3 4.031534 1_555
Ba1 Sb21 3.512519 1_555
Ba1 Sb1 3.580190 1_555
Ba1 Sb8 3.585230 1_555
Ba1 Sb12 3.613620 1_655
Ba1 Sb5 3.614622 1_555
Ba1 Sb16 3.692680 1_555
Ba1 In2 4.031534 1_555
Ba2 Sb20 3.512519 1_555
Ba2 Sb2 3.580190 1_555
Ba2 Sb11 3.585230 1_555
Ba2 Sb15 3.613620 1_655
Ba2 Sb6 3.614622 1_555
Ba2 Sb17 3.692680 1_555
Ba2 In1 4.031534 1_555
Ba3 Sb20 3.512519 1_555
Ba3 Sb3 3.580190 1_555
Ba3 Sb10 3.585230 1_555
Ba3 Sb14 3.613620 1_655
Ba3 Sb7 3.614622 1_555
Ba3 Sb17 3.692680 1_555
Ba3 In0 4.031534 1_555
Ba4 Sb23 3.512519 1_555
Ba4 Sb4 3.580190 1_555
Ba4 Sb13 3.585230 1_555
Ba4 Sb9 3.613620 1_455
Ba4 Sb0 3.614622 1_555
Ba4 Sb18 3.692680 1_555
Ba4 In7 4.031534 1_555
Ba5 Sb23 3.512519 1_565
Ba5 Sb5 3.580190 1_555
Ba5 Sb12 3.585230 1_555
Ba5 Sb8 3.613620 1_455
Ba5 Sb1 3.614622 1_555
Ba5 Sb18 3.692680 1_565
Ba5 In6 4.031534 1_555
Ba6 Sb22 3.512519 1_555
Ba6 Sb6 3.580190 1_555
Ba6 Sb15 3.585230 1_555
Ba6 Sb11 3.613620 1_455
Ba6 Sb2 3.614622 1_555
Ba6 Sb19 3.692680 1_555
Ba6 In5 4.031534 1_555
Ba7 Sb22 3.512519 1_565
Ba7 Sb7 3.580190 1_555
Ba7 Sb14 3.585230 1_555
Ba7 Sb10 3.613620 1_455
Ba7 Sb3 3.614622 1_555
Ba7 Sb19 3.692680 1_565
Ba7 In4 4.031534 1_555
Ba8 In7 3.465905 1_655
Ba8 In5 3.465905 1_655
Ba8 In11 3.519878 1_555
Ba8 In9 3.519878 1_555
Ba8 Sb2 3.632328 1_555
Ba8 Sb0 3.632328 1_555
Ba8 Sb17 3.638762 1_555
Ba8 Sb16 3.638762 1_555
Ba8 Sb9 3.898523 1_555
Ba8 Sb11 3.898523 1_555
Ba9 In6 3.465905 1_655
Ba9 In4 3.465905 1_655
Ba9 In10 3.519878 1_555
Ba9 In8 3.519878 1_555
Ba9 Sb3 3.632328 1_555
Ba9 Sb1 3.632328 1_555
Ba9 Sb17 3.638762 1_555
Ba9 Sb16 3.638762 1_555
Ba9 Sb10 3.898523 1_555
Ba9 Sb8 3.898523 1_555
Ba10 In3 3.465905 1_455
Ba10 In1 3.465905 1_454
Ba10 In13 3.519878 1_555
Ba10 In15 3.519878 1_554
Ba10 Sb4 3.632328 1_555
Ba10 Sb6 3.632328 1_554
Ba10 Sb19 3.638762 1_554
Ba10 Sb18 3.638762 1_555
Ba10 Sb15 3.898523 1_554
Ba10 Sb13 3.898523 1_555
Ba11 In2 3.465905 1_455
Ba11 In0 3.465905 1_454
Ba11 In12 3.519878 1_555
Ba11 In14 3.519878 1_554
Ba11 Sb5 3.632328 1_555
Ba11 Sb7 3.632328 1_554
Ba11 Sb18 3.638762 1_565
Ba11 Sb19 3.638762 1_564
Ba11 Sb14 3.898523 1_554
Ba11 Sb12 3.898523 1_555
Ba12 Sb14 3.567438 1_555
Ba12 Sb15 3.567438 1_555
Ba12 Sb17 3.574614 1_455
Ba12 Sb20 3.586185 1_555
Ba12 Sb3 3.633916 1_555
Ba12 Sb2 3.633916 1_555
Ba13 Sb13 3.567438 1_555
Ba13 Sb12 3.567438 1_555
Ba13 Sb16 3.574614 1_455
Ba13 Sb21 3.586185 1_555
Ba13 Sb1 3.633916 1_555
Ba13 Sb0 3.633916 1_555
Ba14 Sb11 3.567438 1_555
Ba14 Sb10 3.567438 1_545
Ba14 Sb19 3.574614 1_655
Ba14 Sb22 3.586185 1_555
Ba14 Sb6 3.633916 1_555
Ba14 Sb7 3.633916 1_545
Ba15 Sb9 3.567438 1_555
Ba15 Sb8 3.567438 1_545
Ba15 Sb18 3.574614 1_655
Ba15 Sb23 3.586185 1_555
Ba15 Sb4 3.633916 1_555
Ba15 Sb5 3.633916 1_545
Ba16 Sb12 3.688446 1_655
Ba16 Sb15 3.688446 1_654
Ba16 Sb13 3.688446 1_655
Ba16 Sb14 3.688446 1_654
Ba16 Sb21 3.705805 1_555
Ba16 Sb20 3.705805 1_554
Ba17 Sb11 3.688446 1_455
Ba17 Sb9 3.688446 1_455
Ba17 Sb8 3.688446 1_445
Ba17 Sb10 3.688446 1_445
Ba17 Sb22 3.705805 1_555
Ba17 Sb23 3.705805 1_555
Ba18 In6 3.494629 1_555
Ba18 In7 3.494629 1_555
Ba18 In4 3.494629 1_555
Ba18 In5 3.494629 1_555
Ba18 Sb3 3.703448 1_555
Ba18 Sb1 3.703448 1_555
Ba18 Sb2 3.703448 1_555
Ba18 Sb0 3.703448 1_555
Ba18 Sb16 3.723581 1_455
Ba18 Sb17 3.723581 1_455
Ba19 In3 3.494629 1_555
Ba19 In1 3.494629 1_554
Ba19 In0 3.494629 1_544
Ba19 In2 3.494629 1_545
Ba19 Sb4 3.703448 1_555
Ba19 Sb5 3.703448 1_545
Ba19 Sb6 3.703448 1_554
Ba19 Sb7 3.703448 1_544
Ba19 Sb19 3.723581 1_654
Ba19 Sb18 3.723581 1_655
In0 Sb7 2.875063 1_555
In0 Sb14 2.905592 1_655
In0 In2 3.024797 1_556
In0 Sb19 3.127673 1_665
In1 Sb6 2.875063 1_555
In1 Sb15 2.905592 1_655
In1 In3 3.024797 1_556
In1 Sb19 3.127673 1_655
In2 Sb5 2.875063 1_555
In2 Sb12 2.905592 1_655
In2 Sb18 3.127673 1_665
In3 Sb4 2.875063 1_555
In3 Sb13 2.905592 1_655
In3 Sb18 3.127673 1_655
In4 Sb3 2.875063 1_555
In4 Sb10 2.905592 1_455
In4 In6 3.024797 1_555
In4 Sb17 3.127673 1_455
In5 Sb2 2.875063 1_555
In5 Sb11 2.905592 1_455
In5 In7 3.024797 1_555
In5 Sb17 3.127673 1_455
In6 Sb1 2.875063 1_555
In6 Sb8 2.905592 1_455
In6 Sb16 3.127673 1_455
In7 Sb0 2.875063 1_555
In7 Sb9 2.905592 1_455
In7 Sb16 3.127673 1_455
In8 Sb23 2.874599 1_565
In8 Sb1 2.994491 1_555
In8 Sb8 3.010394 1_555
In9 Sb23 2.874599 1_555
In9 Sb0 2.994491 1_555
In9 Sb9 3.010394 1_555
In10 Sb22 2.874599 1_565
In10 In8 2.908059 1_555
In10 Sb3 2.994491 1_555
In10 Sb10 3.010394 1_555
In11 Sb22 2.874599 1_555
In11 In9 2.908059 1_555
In11 Sb2 2.994491 1_555
In11 Sb11 3.010394 1_555
In12 Sb21 2.874599 1_555
In12 In14 2.908059 1_554
In12 Sb5 2.994491 1_555
In12 Sb12 3.010394 1_555
In13 Sb21 2.874599 1_555
In13 In15 2.908059 1_554
In13 Sb4 2.994491 1_555
In13 Sb13 3.010394 1_555
In14 Sb20 2.874599 1_555
In14 Sb7 2.994491 1_555
In14 Sb14 3.010394 1_555
In15 Sb20 2.874599 1_555
In15 Sb6 2.994491 1_555
In15 Sb15 3.010394 1_555
