# generated using pymatgen
data_Mn2SbN3
_symmetry_space_group_name_H-M   'P 1'
_cell_length_a   5.40749783
_cell_length_b   5.96578474
_cell_length_c   5.41966400
_cell_angle_alpha   90.00000000
_cell_angle_beta   90.00000000
_cell_angle_gamma   123.47832118
_symmetry_Int_Tables_number   1
_chemical_formula_structural   Mn2SbN3
_chemical_formula_sum   'Mn4 Sb2 N6'
_cell_volume   145.83158751
_cell_formula_units_Z   2
loop_
 _symmetry_equiv_pos_site_id
 _symmetry_equiv_pos_as_xyz
  1  'x, y, z'
loop_
 _atom_site_type_symbol
 _atom_site_label
 _atom_site_symmetry_multiplicity
 _atom_site_fract_x
 _atom_site_fract_y
 _atom_site_fract_z
 _atom_site_occupancy
  Mn  Mn0  1  0.42379400  0.37230600  0.48056700  1
  Mn  Mn1  1  0.57620600  0.94851200  0.48056700  1
  Mn  Mn2  1  0.57620600  0.62769400  0.98056700  1
  Mn  Mn3  1  0.42379400  0.05148800  0.98056700  1
  Sb  Sb0  1  0.00000000  0.62613800  0.55632000  1
  Sb  Sb1  1  0.00000000  0.37386200  0.05632000  1
  N  N0  1  0.43690900  0.30782600  0.80854500  1
  N  N1  1  0.56309100  0.87091600  0.80854500  1
  N  N2  1  0.56309100  0.69217400  0.30854500  1
  N  N3  1  0.43690900  0.12908400  0.30854500  1
  N  N4  1  0.00000000  0.73035100  0.95345800  1
  N  N5  1  0.00000000  0.26964900  0.45345800  1
loop_
_geom_bond_atom_site_label_1
_geom_bond_atom_site_label_2
_geom_bond_distance
_geom_bond_site_symmetry_2
Mn0 N3 1.758742 1_555
Mn0 N0 1.828310 1_555
Mn0 N2 1.868754 1_555
Mn0 N5 2.024846 1_555
Mn1 N2 1.758747 1_555
Mn1 N1 1.828311 1_555
Mn1 N3 1.868759 1_565
Mn1 N5 2.024846 1_665
Mn2 N1 1.758742 1_555
Mn2 N2 1.828310 1_556
Mn2 N0 1.868754 1_555
Mn2 N4 2.024846 1_655
Mn3 N0 1.758747 1_555
Mn3 N3 1.828311 1_556
Mn3 N1 1.868759 1_545
Mn3 N4 2.024846 1_545
N4 Sb1 2.198588 1_556
N4 Sb0 2.240347 1_555
N5 Sb0 2.198588 1_555
N5 Sb1 2.240347 1_555
