# generated using pymatgen
data_BaLa2Fe2O7
_symmetry_space_group_name_H-M   'P 1'
_cell_length_a   10.75749868
_cell_length_b   10.75749868
_cell_length_c   10.75749868
_cell_angle_alpha   158.56709062
_cell_angle_beta   158.56709062
_cell_angle_gamma   30.49288603
_symmetry_Int_Tables_number   1
_chemical_formula_structural   BaLa2Fe2O7
_chemical_formula_sum   'Ba1 La2 Fe2 O7'
_cell_volume   166.11911424
_cell_formula_units_Z   1
loop_
 _symmetry_equiv_pos_site_id
 _symmetry_equiv_pos_as_xyz
  1  'x, y, z'
loop_
 _atom_site_type_symbol
 _atom_site_label
 _atom_site_symmetry_multiplicity
 _atom_site_fract_x
 _atom_site_fract_y
 _atom_site_fract_z
 _atom_site_occupancy
  Ba  Ba0  1  0.50000000  0.50000000  0.00000000  1
  La  La0  1  0.68229300  0.68229300  0.00000000  1
  La  La1  1  0.31770700  0.31770700  0.00000000  1
  Fe  Fe0  1  0.90242500  0.90242500  0.00000000  1
  Fe  Fe1  1  0.09757500  0.09757500  0.00000000  1
  O  O0  1  0.79408200  0.79408200  0.00000000  1
  O  O1  1  0.20591800  0.20591800  0.00000000  1
  O  O2  1  0.89295300  0.39295300  0.50000000  1
  O  O3  1  0.39295300  0.89295300  0.50000000  1
  O  O4  1  0.10704700  0.60704700  0.50000000  1
  O  O5  1  0.60704700  0.10704700  0.50000000  1
  O  O6  1  0.00000000  0.00000000  0.00000000  1
loop_
_geom_bond_atom_site_label_1
_geom_bond_atom_site_label_2
_geom_bond_distance
_geom_bond_site_symmetry_2
Ba0 O6 2.828914 1_554
Ba0 O6 2.828914 1_655
Ba0 O6 2.828914 1_565
Ba0 O6 2.828914 1_666
Ba0 O2 2.989800 1_454
Ba0 O3 2.989800 1_555
Ba0 O4 2.989800 1_554
Ba0 O5 2.989800 1_554
Ba0 O3 2.989800 1_544
Ba0 O2 2.989800 1_555
Ba0 O5 2.989800 1_565
Ba0 O4 2.989800 1_655
La0 O0 2.320488 1_555
La0 O5 2.537917 1_565
La0 O4 2.537917 1_655
La0 O4 2.537917 1_554
La0 O5 2.537917 1_554
La0 O1 2.871105 1_565
La0 O1 2.871105 1_554
La0 O1 2.871105 1_666
La0 O1 2.871105 1_655
La1 O1 2.320488 1_555
La1 O3 2.537917 1_544
La1 O2 2.537917 1_555
La1 O3 2.537917 1_555
La1 O2 2.537917 1_454
La1 O0 2.871105 1_556
La1 O0 2.871105 1_444
La1 O0 2.871105 1_545
La1 O0 2.871105 1_455
Fe0 O2 2.009984 1_554
Fe0 O2 2.009984 1_565
Fe0 O3 2.009984 1_554
Fe0 O3 2.009984 1_655
Fe0 O6 2.025437 1_665
Fe0 O0 2.248957 1_555
Fe1 O5 2.009984 1_454
Fe1 O5 2.009984 1_555
Fe1 O4 2.009984 1_544
Fe1 O4 2.009984 1_555
Fe1 O6 2.025437 1_555
Fe1 O1 2.248957 1_555
