# generated using pymatgen
data_CeNdAl4
_symmetry_space_group_name_H-M   'P 1'
_cell_length_a   5.63548265
_cell_length_b   5.63548265
_cell_length_c   5.63548265
_cell_angle_alpha   60.00000000
_cell_angle_beta   60.00000000
_cell_angle_gamma   60.00000000
_symmetry_Int_Tables_number   1
_chemical_formula_structural   CeNdAl4
_chemical_formula_sum   'Ce1 Nd1 Al4'
_cell_volume   126.55472204
_cell_formula_units_Z   1
loop_
 _symmetry_equiv_pos_site_id
 _symmetry_equiv_pos_as_xyz
  1  'x, y, z'
loop_
 _atom_site_type_symbol
 _atom_site_label
 _atom_site_symmetry_multiplicity
 _atom_site_fract_x
 _atom_site_fract_y
 _atom_site_fract_z
 _atom_site_occupancy
  Ce  Ce0  1  0.25000000  0.25000000  0.25000000  1
  Nd  Nd0  1  0.00000000  0.00000000  0.00000000  1
  Al  Al0  1  0.62436900  0.62436900  0.12689400  1
  Al  Al1  1  0.62436900  0.12689400  0.62436900  1
  Al  Al2  1  0.12689400  0.62436900  0.62436900  1
  Al  Al3  1  0.62436900  0.62436900  0.62436900  1
loop_
_geom_bond_atom_site_label_1
_geom_bond_atom_site_label_2
_geom_bond_distance
_geom_bond_site_symmetry_2
Ce0 Nd0 3.451014 1_655
Ce0 Nd0 3.451014 1_555
Ce0 Nd0 3.451014 1_556
Ce0 Nd0 3.451014 1_565
Al0 Al1 2.803512 1_555
Al0 Al2 2.803512 1_555
Al0 Al3 2.803512 1_555
Al0 Al2 2.831971 1_654
Al0 Al1 2.831971 1_564
Al0 Al3 2.831971 1_554
Al0 Ce0 3.302587 1_565
Al0 Ce0 3.302587 1_655
Al0 Ce0 3.302592 1_555
Al0 Nd0 3.305620 1_665
Al0 Nd0 3.305624 1_565
Al0 Nd0 3.305624 1_655
Al1 Al2 2.803512 1_555
Al1 Al3 2.803512 1_555
Al1 Al2 2.831971 1_645
Al1 Al3 2.831971 1_545
Al1 Ce0 3.302587 1_556
Al1 Ce0 3.302587 1_655
Al1 Ce0 3.302592 1_555
Al1 Nd0 3.305620 1_656
Al1 Nd0 3.305624 1_556
Al1 Nd0 3.305624 1_655
Al2 Al3 2.803512 1_555
Al2 Al3 2.831971 1_455
Al2 Ce0 3.302587 1_565
Al2 Ce0 3.302587 1_556
Al2 Ce0 3.302592 1_555
Al2 Nd0 3.305620 1_566
Al2 Nd0 3.305624 1_556
Al2 Nd0 3.305624 1_565
Al3 Ce0 3.302589 1_565
Al3 Ce0 3.302589 1_556
Al3 Ce0 3.302589 1_655
Al3 Nd0 3.305622 1_566
Al3 Nd0 3.305622 1_656
Al3 Nd0 3.305622 1_665
