# generated using pymatgen
data_KMg14Mo
_symmetry_space_group_name_H-M   'P 1'
_cell_length_a   6.45738739
_cell_length_b   6.57687290
_cell_length_c   10.26184559
_cell_angle_alpha   90.00000000
_cell_angle_beta   90.00000000
_cell_angle_gamma   120.61401395
_symmetry_Int_Tables_number   1
_chemical_formula_structural   KMg14Mo
_chemical_formula_sum   'K1 Mg14 Mo1'
_cell_volume   375.06966124
_cell_formula_units_Z   1
loop_
 _symmetry_equiv_pos_site_id
 _symmetry_equiv_pos_as_xyz
  1  'x, y, z'
loop_
 _atom_site_type_symbol
 _atom_site_label
 _atom_site_symmetry_multiplicity
 _atom_site_fract_x
 _atom_site_fract_y
 _atom_site_fract_z
 _atom_site_occupancy
  K  K0  1  0.16263948  0.33131924  0.12500000  1
  Mg  Mg0  1  0.17145563  0.33572731  0.62500000  1
  Mg  Mg1  1  0.16572618  0.83286259  0.62500000  1
  Mg  Mg2  1  0.66177788  0.32716123  0.12500000  1
  Mg  Mg3  1  0.66629263  0.33815413  0.62500000  1
  Mg  Mg4  1  0.66177788  0.83461564  0.12500000  1
  Mg  Mg5  1  0.66629263  0.82813750  0.62500000  1
  Mg  Mg6  1  0.33149604  0.15037897  0.37605604  1
  Mg  Mg7  1  0.33149604  0.15037897  0.87394396  1
  Mg  Mg8  1  0.33149604  0.68111807  0.37605604  1
  Mg  Mg9  1  0.33149604  0.68111807  0.87394396  1
  Mg  Mg10  1  0.82246608  0.16123354  0.38968176  1
  Mg  Mg11  1  0.82246608  0.16123354  0.86031824  1
  Mg  Mg12  1  0.84433593  0.67216846  0.36167123  1
  Mg  Mg13  1  0.84433593  0.67216846  0.88832877  1
  Mo  Mo0  1  0.18444953  0.84222427  0.12500000  1
loop_
_geom_bond_atom_site_label_1
_geom_bond_atom_site_label_2
_geom_bond_distance
_geom_bond_site_symmetry_2
K0 Mg4 3.220417 1_445
K0 Mg2 3.220417 1_455
K0 Mg4 3.237142 1_555
K0 Mg2 3.237142 1_555
K0 Mg6 3.250223 1_555
K0 Mg7 3.250223 1_554
K0 Mg9 3.250230 1_554
K0 Mg8 3.250230 1_555
K0 Mo0 3.290669 1_545
K0 Mo0 3.290669 1_555
K0 Mg11 3.309254 1_454
K0 Mg10 3.309254 1_455
Mg0 Mg10 3.097214 1_455
Mg0 Mg11 3.097214 1_455
Mg0 Mg5 3.187255 1_555
Mg0 Mg3 3.187256 1_555
Mg0 Mg7 3.219191 1_555
Mg0 Mg6 3.219191 1_555
Mg0 Mg9 3.219198 1_555
Mg0 Mg8 3.219198 1_555
Mg0 Mg5 3.270190 1_445
Mg0 Mg3 3.270190 1_455
Mg0 Mg1 3.288591 1_545
Mg0 Mg1 3.288591 1_555
Mg1 Mg9 3.123465 1_555
Mg1 Mg8 3.123465 1_555
Mg1 Mg7 3.123471 1_565
Mg1 Mg6 3.123471 1_565
Mg1 Mg3 3.209321 1_455
Mg1 Mg5 3.209322 1_455
Mg1 Mg13 3.239160 1_455
Mg1 Mg12 3.239160 1_455
Mg1 Mg3 3.248287 1_565
Mg1 Mg5 3.248287 1_555
Mg2 Mo0 3.108076 1_545
Mg2 Mg6 3.164205 1_555
Mg2 Mg7 3.164205 1_554
Mg2 Mg4 3.239410 1_545
Mg2 Mg4 3.337463 1_555
Mg2 Mo0 3.349886 1_655
Mg3 Mg6 3.163198 1_555
Mg3 Mg7 3.163198 1_555
Mg3 Mg5 3.222558 1_555
Mg3 Mg5 3.354315 1_545
Mg4 Mo0 3.108076 1_555
Mg4 Mg8 3.164205 1_555
Mg4 Mg9 3.164205 1_554
Mg4 Mo0 3.349887 1_655
Mg5 Mg8 3.163198 1_555
Mg5 Mg9 3.163198 1_555
Mg6 Mg8 3.086269 1_545
Mg6 Mo0 3.112297 1_545
Mg6 Mg8 3.490604 1_555
Mg7 Mg9 3.086269 1_545
Mg7 Mo0 3.112297 1_546
Mg7 Mg9 3.490604 1_555
Mg8 Mo0 3.112291 1_555
Mg9 Mo0 3.112291 1_556
Mg10 Mg3 3.065511 1_555
Mg10 Mg5 3.065518 1_545
Mg10 Mg8 3.137748 1_545
Mg10 Mg6 3.137748 1_555
Mg10 Mg2 3.286061 1_555
Mg10 Mg4 3.286067 1_545
Mg10 Mg12 3.303212 1_555
Mg10 Mg12 3.303212 1_545
Mg10 Mg8 3.326866 1_655
Mg10 Mg6 3.326866 1_655
Mg11 Mg3 3.065511 1_555
Mg11 Mg5 3.065518 1_545
Mg11 Mg9 3.137748 1_545
Mg11 Mg7 3.137748 1_555
Mg11 Mg2 3.286061 1_556
Mg11 Mg4 3.286067 1_546
Mg11 Mg13 3.303212 1_555
Mg11 Mg13 3.303212 1_545
Mg11 Mg9 3.326866 1_655
Mg11 Mg7 3.326866 1_655
Mg12 Mo0 3.077513 1_655
Mg12 Mg4 3.116478 1_555
Mg12 Mg2 3.116485 1_555
Mg12 Mg6 3.119713 1_665
Mg12 Mg8 3.119713 1_655
Mg12 Mg5 3.298076 1_555
Mg12 Mg3 3.298082 1_555
Mg12 Mg6 3.345223 1_555
Mg12 Mg8 3.345223 1_555
Mg13 Mo0 3.077513 1_656
Mg13 Mg4 3.116478 1_556
Mg13 Mg2 3.116485 1_556
Mg13 Mg7 3.119713 1_665
Mg13 Mg9 3.119713 1_655
Mg13 Mg5 3.298076 1_555
Mg13 Mg3 3.298082 1_555
Mg13 Mg7 3.345223 1_555
Mg13 Mg9 3.345223 1_555
