# generated using pymatgen
data_Li4V3P8O29
_symmetry_space_group_name_H-M   'P 1'
_cell_length_a   9.76035400
_cell_length_b   9.76433335
_cell_length_c   14.32489082
_cell_angle_alpha   90.07009412
_cell_angle_beta   90.31846861
_cell_angle_gamma   119.95157505
_symmetry_Int_Tables_number   1
_chemical_formula_structural   Li4V3P8O29
_chemical_formula_sum   'Li8 V6 P16 O58'
_cell_volume   1182.85224523
_cell_formula_units_Z   2
loop_
 _symmetry_equiv_pos_site_id
 _symmetry_equiv_pos_as_xyz
  1  'x, y, z'
loop_
 _atom_site_type_symbol
 _atom_site_label
 _atom_site_symmetry_multiplicity
 _atom_site_fract_x
 _atom_site_fract_y
 _atom_site_fract_z
 _atom_site_occupancy
  Li  Li0  1  0.90798900  0.67355800  0.44430600  1
  Li  Li1  1  0.32235000  0.23470100  0.44599400  1
  Li  Li2  1  0.33233800  0.09283400  0.93803400  1
  Li  Li3  1  0.90255100  0.23213500  0.93673600  1
  Li  Li4  1  0.76543300  0.09693900  0.44391500  1
  Li  Li5  1  0.23120400  0.32015000  0.05596200  1
  Li  Li6  1  0.92915200  0.91690800  0.98269300  1
  Li  Li7  1  0.99510900  0.99166100  0.51252100  1
  V  V0  1  0.43637800  0.99808900  0.74705300  1
  V  V1  1  0.56456100  0.00040100  0.24880000  1
  V  V2  1  0.99993900  0.56595900  0.24926600  1
  V  V3  1  0.00022900  0.43763000  0.75271800  1
  V  V4  1  0.56998600  0.56851000  0.75056900  1
  V  V5  1  0.43858200  0.43761000  0.25440300  1
  P  P0  1  0.77368300  0.68982400  0.15838000  1
  P  P1  1  0.91455100  0.69050800  0.65667900  1
  P  P2  1  0.30983400  0.22306100  0.66017000  1
  P  P3  1  0.66099000  0.32936200  0.86957900  1
  P  P4  1  0.66970800  0.33268700  0.36872900  1
  P  P5  1  0.31507000  0.08928800  0.15513000  1
  P  P6  1  0.22160300  0.91778100  0.33606700  1
  P  P7  1  0.91294400  0.22712100  0.15815600  1
  P  P8  1  0.08772100  0.78239500  0.83744700  1
  P  P9  1  0.77749600  0.08913100  0.65710500  1
  P  P10  1  0.69726400  0.91464200  0.83594200  1
  P  P11  1  0.33370300  0.66196000  0.63530300  1
  P  P12  1  0.33010200  0.66462600  0.13509700  1
  P  P13  1  0.69538000  0.78090100  0.34027500  1
  P  P14  1  0.08494700  0.30698500  0.33934700  1
  P  P15  1  0.22828000  0.31533400  0.84051200  1
  O  O0  1  0.79701500  0.79371500  0.42166400  1
  O  O1  1  0.74303100  0.65959100  0.67236600  1
  O  O2  1  0.00473100  0.80120400  0.91812800  1
  O  O3  1  0.91376800  0.65575800  0.17427800  1
  O  O4  1  0.61820800  0.53365000  0.17247300  1
  O  O5  1  0.66246700  0.47504800  0.82114800  1
  O  O6  1  0.46475800  0.38169700  0.67131700  1
  O  O7  1  0.23374400  0.23072100  0.92762100  1
  O  O8  1  0.33826800  0.25768100  0.16692700  1
  O  O9  1  0.81514800  0.48686900  0.32877000  1
  O  O10  1  0.91516000  0.53565900  0.66862800  1
  O  O11  1  0.51416600  0.32343400  0.33076600  1
  O  O12  1  0.64130700  0.32206300  0.97295500  1
  O  O13  1  0.67488800  0.32874500  0.47269400  1
  O  O14  1  0.51195000  0.18145600  0.82407100  1
  O  O15  1  0.90744200  0.38170600  0.17573500  1
  O  O16  1  0.81219800  0.32668800  0.83736500  1
  O  O17  1  0.34303200  0.08309900  0.67049800  1
  O  O18  1  0.19757000  0.98475200  0.23738800  1
  O  O19  1  0.21020900  0.01103100  0.41488500  1
  O  O20  1  0.24559000  0.02027700  0.06268100  1
  O  O21  1  0.47488200  0.09394200  0.17665500  1
  O  O22  1  0.67596000  0.18642500  0.32524400  1
  O  O23  1  0.26467000  0.91785700  0.83671300  1
  O  O24  1  0.61840000  0.08630500  0.67210400  1
  O  O25  1  0.91323800  0.25908300  0.67456200  1
  O  O26  1  0.01727000  0.80802300  0.74038700  1
  O  O27  1  0.97655000  0.77575800  0.56614100  1
  O  O28  1  0.98968400  0.20188500  0.41715100  1
  O  O29  1  0.08440000  0.74315400  0.33934400  1
  O  O30  1  0.38307000  0.92284400  0.32641800  1
  O  O31  1  0.74389600  0.08438800  0.16801700  1
  O  O32  1  0.33934800  0.81479000  0.68164300  1
  O  O33  1  0.54493000  0.92488000  0.82822100  1
  O  O34  1  0.80499100  0.00460800  0.91598400  1
  O  O35  1  0.79081500  0.02425200  0.56530800  1
  O  O36  1  0.79178100  0.98518100  0.73926700  1
  O  O37  1  0.65923100  0.91991900  0.33833000  1
  O  O38  1  0.18398500  0.66587900  0.18355000  1
  O  O39  1  0.08061600  0.62100600  0.82842400  1
  O  O40  1  0.47738600  0.81487900  0.18135500  1
  O  O41  1  0.32330400  0.66960500  0.03214100  1
  O  O42  1  0.33965200  0.67216700  0.53229000  1
  O  O43  1  0.48468900  0.66665800  0.68009200  1
  O  O44  1  0.07964800  0.46210600  0.32759700  1
  O  O45  1  0.19160700  0.51970500  0.68099700  1
  O  O46  1  0.65808600  0.74052600  0.83607100  1
  O  O47  1  0.79307400  0.80287700  0.24616200  1
  O  O48  1  0.79219100  0.77887600  0.07220500  1
  O  O49  1  0.53741400  0.62244500  0.32994600  1
  O  O50  1  0.32663200  0.51447600  0.17399900  1
  O  O51  1  0.38293100  0.47164200  0.82506200  1
  O  O52  1  0.08401800  0.34003300  0.84348600  1
  O  O53  1  0.99066500  0.23086500  0.06707200  1
  O  O54  1  0.01587400  0.21221700  0.24058100  1
  O  O55  1  0.25847300  0.34243600  0.34248200  1
  O  O56  1  0.22114600  0.20284700  0.57073400  1
  O  O57  1  0.20110700  0.20532500  0.74943800  1
loop_
_geom_bond_atom_site_label_1
_geom_bond_atom_site_label_2
_geom_bond_distance
_geom_bond_site_symmetry_2
Li0 O27 1.950785 1_555
Li0 O0 1.980125 1_555
Li0 O29 2.133105 1_655
Li0 O9 2.282489 1_555
Li1 O19 1.942073 1_555
Li1 O56 1.994900 1_555
Li1 O55 2.083855 1_555
Li1 O11 2.323464 1_555
Li2 O20 1.956514 1_556
Li2 O7 2.013368 1_555
Li2 O23 2.078076 1_545
Li2 O14 2.237780 1_555
Li3 O34 1.952858 1_555
Li3 O52 2.048866 1_655
Li3 O53 2.053904 1_556
Li3 O16 2.111550 1_555
Li4 O28 1.938672 1_555
Li4 O35 1.939800 1_555
Li4 O37 2.129993 1_545
Li4 O22 2.272664 1_555
Li5 O7 2.039924 1_554
Li5 O53 2.063491 1_455
Li5 O8 2.147355 1_555
Li5 O50 2.353049 1_555
Li6 O48 1.863308 1_556
Li6 O2 1.874349 1_655
Li6 O34 2.034804 1_565
Li7 O27 2.165935 1_555
Li7 O56 2.290750 1_665
Li7 O35 2.301915 1_565
Li7 O0 2.324288 1_555
Li7 O19 2.456911 1_665
Li7 O28 2.489451 1_565
O0 P13 1.490588 1_555
O1 P1 1.563308 1_555
O1 V4 1.849901 1_555
O2 P8 1.477848 1_555
O3 P0 1.575696 1_555
O3 V2 1.832689 1_555
O4 P0 1.537021 1_555
O4 V5 1.927293 1_555
O5 P3 1.577071 1_555
O5 V4 1.866669 1_555
O6 P2 1.539228 1_555
O6 V4 1.944817 1_555
O7 P15 1.512708 1_555
O8 P5 1.552584 1_555
O8 V5 1.969475 1_555
O9 P4 1.576836 1_555
O9 V2 1.944395 1_555
O10 P1 1.524817 1_555
O10 V3 1.960082 1_655
O11 P4 1.569204 1_555
O11 V5 1.949102 1_555
O12 P3 1.491527 1_555
O13 P4 1.491060 1_555
O14 P3 1.586244 1_555
O14 V0 1.906414 1_545
O15 P7 1.557178 1_555
O15 V2 1.877302 1_555
O16 P3 1.561334 1_555
O16 V3 2.013630 1_655
O17 P2 1.560996 1_555
O17 V0 1.862256 1_545
O18 P5 1.610799 1_565
O18 P6 1.622515 1_555
O19 P6 1.488687 1_545
O20 P5 1.483010 1_555
O21 P5 1.566532 1_555
O21 V1 1.859837 1_555
O22 P4 1.586390 1_555
O22 V1 1.921064 1_555
O23 P8 1.565768 1_555
O23 V0 1.946138 1_555
O24 P9 1.555363 1_555
O24 V0 1.883177 1_545
O25 P9 1.540003 1_555
O25 V3 1.876260 1_655
O26 P1 1.610656 1_455
O26 P8 1.621923 1_555
O27 P1 1.499849 1_555
O28 P14 1.490433 1_655
O29 P6 1.556849 1_555
O29 V2 1.973994 1_455
O30 P6 1.558810 1_555
O30 V1 1.905807 1_565
O31 P7 1.546486 1_555
O31 V1 1.914931 1_555
O32 P11 1.608000 1_555
O32 V0 1.808785 1_555
O33 P10 1.542568 1_555
O33 V0 1.931340 1_555
O34 P10 1.501248 1_545
O35 P9 1.493149 1_555
O36 P9 1.605403 1_565
O36 P10 1.620290 1_555
O37 P13 1.563989 1_555
O37 V1 1.957181 1_565
O38 P12 1.595062 1_555
O38 V2 1.826463 1_455
O39 P8 1.547617 1_555
O39 V3 1.892281 1_555
O40 P12 1.593467 1_555
O40 V1 1.840224 1_565
O41 P12 1.477907 1_555
O42 P11 1.478642 1_555
O43 P11 1.583474 1_555
O43 V4 1.849457 1_555
O44 P14 1.550461 1_555
O44 V2 1.916635 1_455
O45 P11 1.539494 1_555
O45 V3 1.927560 1_555
O46 P10 1.545157 1_555
O46 V4 1.897834 1_555
O47 P13 1.607321 1_555
O47 P0 1.618935 1_555
O48 P0 1.469980 1_555
O49 P13 1.551717 1_555
O49 V5 1.898428 1_555
O50 P12 1.553645 1_555
O50 V5 1.972528 1_555
O51 P15 1.536543 1_555
O51 V4 1.914786 1_555
O52 P15 1.543470 1_555
O52 V3 2.009232 1_555
O53 P7 1.504206 1_555
O54 P7 1.599315 1_455
O54 P14 1.635767 1_555
O55 P14 1.550508 1_555
O55 V5 1.985479 1_555
O56 P2 1.498696 1_555
O57 P2 1.619721 1_555
O57 P15 1.623105 1_555
