# generated using pymatgen
data_Rb8Cu6As8S19
_symmetry_space_group_name_H-M   'P 1'
_cell_length_a   9.26588700
_cell_length_b   11.98883000
_cell_length_c   20.04634557
_cell_angle_alpha   84.01696068
_cell_angle_beta   90.00000000
_cell_angle_gamma   90.00000000
_symmetry_Int_Tables_number   1
_chemical_formula_structural   Rb8Cu6As8S19
_chemical_formula_sum   'Rb16 Cu12 As16 S38'
_cell_volume   2214.76094275
_cell_formula_units_Z   2
loop_
 _symmetry_equiv_pos_site_id
 _symmetry_equiv_pos_as_xyz
  1  'x, y, z'
loop_
 _atom_site_type_symbol
 _atom_site_label
 _atom_site_symmetry_multiplicity
 _atom_site_fract_x
 _atom_site_fract_y
 _atom_site_fract_z
 _atom_site_occupancy
  Rb  Rb0  1  0.77250100  0.42323500  0.18567900  1
  Rb  Rb1  1  0.27250100  0.57676500  0.81432100  1
  Rb  Rb2  1  0.07075400  0.16703200  0.36973200  1
  Rb  Rb3  1  0.57075400  0.83296800  0.63026800  1
  Rb  Rb4  1  0.09019000  0.70288200  0.12061100  1
  Rb  Rb5  1  0.59019000  0.29711800  0.87938900  1
  Rb  Rb6  1  0.57053800  0.26472700  0.38458000  1
  Rb  Rb7  1  0.07053800  0.73527300  0.61542000  1
  Rb  Rb8  1  0.20175000  0.06982400  0.04932800  1
  Rb  Rb9  1  0.70175000  0.93017600  0.95067200  1
  Rb  Rb10  1  0.59633600  0.80596100  0.16267000  1
  Rb  Rb11  1  0.09633600  0.19403900  0.83733000  1
  Rb  Rb12  1  0.18887700  0.08539100  0.58772900  1
  Rb  Rb13  1  0.68887700  0.91460900  0.41227100  1
  Rb  Rb14  1  0.25678100  0.53333800  0.31450700  1
  Rb  Rb15  1  0.75678100  0.46666200  0.68549300  1
  Cu  Cu0  1  0.46985200  0.31579100  0.54952000  1
  Cu  Cu1  1  0.96985200  0.68420900  0.45048000  1
  Cu  Cu2  1  0.86160900  0.34507700  0.46343900  1
  Cu  Cu3  1  0.36160900  0.65492300  0.53656100  1
  Cu  Cu4  1  0.38902800  0.64129100  0.04507300  1
  Cu  Cu5  1  0.88902800  0.35870900  0.95492700  1
  Cu  Cu6  1  0.99115200  0.69278800  0.95751000  1
  Cu  Cu7  1  0.49115200  0.30721200  0.04249000  1
  Cu  Cu8  1  0.52701900  0.18438100  0.71201000  1
  Cu  Cu9  1  0.02701900  0.81561900  0.28799000  1
  Cu  Cu10  1  0.05056200  0.85584100  0.80229900  1
  Cu  Cu11  1  0.55056200  0.14415900  0.19770100  1
  As  As0  1  0.83012000  0.99130700  0.75720800  1
  As  As1  1  0.33012000  0.00869300  0.24279200  1
  As  As2  1  0.43106300  0.01006600  0.77109900  1
  As  As3  1  0.93106300  0.98993400  0.22890100  1
  As  As4  1  0.77938800  0.16772500  0.59748700  1
  As  As5  1  0.27938800  0.83227500  0.40251300  1
  As  As6  1  0.61648900  0.59012900  0.99574800  1
  As  As7  1  0.11648900  0.40987100  0.00425200  1
  As  As8  1  0.37835300  0.38818900  0.13535500  1
  As  As9  1  0.87835300  0.61181100  0.86464500  1
  As  As10  1  0.85348600  0.58974500  0.36210200  1
  As  As11  1  0.35348600  0.41025500  0.63789800  1
  As  As12  1  0.30565300  0.83937600  0.91746900  1
  As  As13  1  0.80565300  0.16062400  0.08253100  1
  As  As14  1  0.59265300  0.59388300  0.49195800  1
  As  As15  1  0.09265300  0.40611700  0.50804200  1
  S  S0  1  0.88768500  0.40584400  0.35090400  1
  S  S1  1  0.38768500  0.59415600  0.64909600  1
  S  S2  1  0.38131400  0.02488000  0.88280700  1
  S  S3  1  0.88131400  0.97512000  0.11719300  1
  S  S4  1  0.41569700  0.56797100  0.15537100  1
  S  S5  1  0.91569700  0.43202900  0.84462900  1
  S  S6  1  0.86066000  0.98869100  0.64128700  1
  S  S7  1  0.36066000  0.01130900  0.35871300  1
  S  S8  1  0.37362800  0.83494800  0.02518600  1
  S  S9  1  0.87362800  0.16505200  0.97481400  1
  S  S10  1  0.06297400  0.87196300  0.91603400  1
  S  S11  1  0.56297400  0.12803700  0.08396600  1
  S  S12  1  0.84072000  0.15067500  0.49063200  1
  S  S13  1  0.34072000  0.84932500  0.50936800  1
  S  S14  1  0.53604100  0.14127800  0.60165500  1
  S  S15  1  0.03604100  0.85872200  0.39834500  1
  S  S16  1  0.79991800  0.69199400  0.03070800  1
  S  S17  1  0.29991800  0.30800600  0.96929200  1
  S  S18  1  0.75373000  0.16746100  0.76339500  1
  S  S19  1  0.25373000  0.83253900  0.23660500  1
  S  S20  1  0.67505200  0.41698800  0.52365400  1
  S  S21  1  0.17505200  0.58301200  0.47634600  1
  S  S22  1  0.27906600  0.30088900  0.47789700  1
  S  S23  1  0.77906600  0.69911100  0.52210300  1
  S  S24  1  0.62366000  0.88418500  0.78425000  1
  S  S25  1  0.12366000  0.11581500  0.21575000  1
  S  S26  1  0.25334900  0.89861300  0.73721600  1
  S  S27  1  0.75334900  0.10138700  0.26278400  1
  S  S28  1  0.62775200  0.61690400  0.87906100  1
  S  S29  1  0.12775200  0.38309600  0.12093900  1
  S  S30  1  0.69837200  0.41169900  0.02065900  1
  S  S31  1  0.19837200  0.58830100  0.97934100  1
  S  S32  1  0.60420300  0.61021300  0.37500300  1
  S  S33  1  0.10420300  0.38978700  0.62499700  1
  S  S34  1  0.42015400  0.28959500  0.23626600  1
  S  S35  1  0.92015400  0.71040500  0.76373400  1
  S  S36  1  0.88560700  0.67340700  0.25715000  1
  S  S37  1  0.38560700  0.32659300  0.74285000  1
loop_
_geom_bond_atom_site_label_1
_geom_bond_atom_site_label_2
_geom_bond_distance
_geom_bond_site_symmetry_2
Rb0 S30 3.395508 1_555
Rb0 S0 3.465398 1_555
Rb0 S29 3.589073 1_655
Rb0 S36 3.611443 1_555
Rb0 S34 3.730366 1_555
Rb0 S4 3.753753 1_555
Rb0 S27 4.008231 1_555
Rb1 S31 3.395508 1_555
Rb1 S1 3.465398 1_555
Rb1 S28 3.589073 1_555
Rb1 S37 3.611443 1_555
Rb1 S35 3.730366 1_455
Rb1 S5 3.753753 1_455
Rb1 S26 4.008231 1_555
Rb2 S12 3.218134 1_455
Rb2 S25 3.246639 1_555
Rb2 S7 3.291820 1_555
Rb2 S0 3.315390 1_455
Rb2 S22 3.424615 1_555
Rb2 S15 3.694988 1_545
Rb2 S27 3.770572 1_455
Rb3 S13 3.218134 1_555
Rb3 S24 3.246639 1_555
Rb3 S6 3.291820 1_555
Rb3 S1 3.315390 1_555
Rb3 S23 3.424615 1_555
Rb3 S14 3.694988 1_565
Rb3 S26 3.770572 1_555
Rb4 S16 3.247799 1_455
Rb4 S19 3.297400 1_555
Rb4 S36 3.317900 1_455
Rb4 S31 3.423851 1_554
Rb4 S4 3.458841 1_555
Rb4 S8 3.525938 1_555
Rb4 S3 3.788987 1_455
Rb4 S29 3.848949 1_555
Rb5 S17 3.247799 1_555
Rb5 S18 3.297400 1_555
Rb5 S37 3.317900 1_555
Rb5 S30 3.423851 1_556
Rb5 S5 3.458841 1_555
Rb5 S9 3.525938 1_555
Rb5 S2 3.788987 1_555
Rb5 S28 3.848949 1_555
Rb6 S34 3.268856 1_555
Rb6 S22 3.339228 1_555
Rb6 S0 3.422802 1_555
Rb6 S12 3.471415 1_555
Rb6 S20 3.619873 1_555
Rb6 S7 3.689140 1_555
Rb6 S27 3.696221 1_555
Rb7 S35 3.268856 1_455
Rb7 S23 3.339228 1_455
Rb7 S1 3.422802 1_555
Rb7 S13 3.471415 1_555
Rb7 S21 3.619873 1_555
Rb7 S6 3.689140 1_455
Rb7 S26 3.696221 1_555
Rb8 S17 3.255843 1_554
Rb8 S8 3.314200 1_545
Rb8 S3 3.410808 1_445
Rb8 S11 3.503292 1_555
Rb8 S25 3.512971 1_555
Rb8 S9 3.524602 1_454
Rb8 S2 3.817952 1_554
Rb9 S16 3.255843 1_556
Rb9 S9 3.314200 1_565
Rb9 S2 3.410808 1_565
Rb9 S10 3.503292 1_655
Rb9 S24 3.512971 1_555
Rb9 S8 3.524602 1_556
Rb9 S3 3.817952 1_556
Rb10 S4 3.324283 1_555
Rb10 S3 3.395757 1_555
Rb10 S8 3.431518 1_555
Rb10 S19 3.531917 1_555
Rb10 S36 3.559416 1_555
Rb10 S16 3.629965 1_555
Rb11 S5 3.324283 1_455
Rb11 S2 3.395757 1_555
Rb11 S9 3.431518 1_455
Rb11 S18 3.531917 1_455
Rb11 S37 3.559416 1_555
Rb11 S17 3.629965 1_555
Rb12 S14 3.303565 1_555
Rb12 S22 3.321893 1_555
Rb12 S6 3.389141 1_445
Rb12 S26 3.598924 1_545
Rb12 S13 3.658372 1_545
Rb12 S12 3.806652 1_455
Rb12 S33 3.880701 1_555
Rb13 S15 3.303565 1_655
Rb13 S23 3.321893 1_555
Rb13 S7 3.389141 1_565
Rb13 S27 3.598924 1_565
Rb13 S12 3.658372 1_565
Rb13 S13 3.806652 1_555
Rb13 S32 3.880701 1_555
Rb14 S21 3.443295 1_555
Rb14 S4 3.498747 1_555
Rb14 S32 3.593912 1_555
Rb14 S19 3.760164 1_555
Rb14 S34 3.774425 1_555
Rb14 S0 3.785842 1_455
Rb15 S20 3.443295 1_555
Rb15 S5 3.498747 1_555
Rb15 S33 3.593912 1_655
Rb15 S18 3.760164 1_555
Rb15 S35 3.774425 1_555
Rb15 S1 3.785842 1_555
Cu0 S20 2.285787 1_555
Cu0 S22 2.296079 1_555
Cu0 S14 2.321615 1_555
Cu0 Rb6 3.549609 1_555
Cu1 S21 2.285787 1_655
Cu1 S23 2.296079 1_555
Cu1 S15 2.321615 1_655
Cu1 Rb7 3.549609 1_655
Cu2 S0 2.309906 1_555
Cu2 S20 2.324950 1_555
Cu2 S12 2.345571 1_555
Cu2 Rb6 3.319401 1_555
Cu3 S1 2.309906 1_555
Cu3 S21 2.324950 1_555
Cu3 S13 2.345571 1_555
Cu3 Rb7 3.319401 1_555
Cu4 S4 2.305950 1_555
Cu4 S8 2.318777 1_555
Cu4 S31 2.331365 1_554
Cu4 Rb4 3.276992 1_555
Cu5 S5 2.305950 1_555
Cu5 S9 2.318777 1_555
Cu5 S30 2.331365 1_556
Cu5 Rb5 3.276992 1_555
Cu6 S16 2.300026 1_556
Cu6 S31 2.309358 1_655
Cu6 S10 2.318659 1_655
Cu6 Rb4 3.410191 1_656
Cu7 S17 2.300026 1_554
Cu7 S30 2.309358 1_555
Cu7 S11 2.318659 1_555
Cu7 Rb5 3.410191 1_554
Cu8 S37 2.285984 1_555
Cu8 S14 2.325130 1_555
Cu8 S18 2.339125 1_555
Cu9 S36 2.285984 1_455
Cu9 S15 2.325130 1_555
Cu9 S19 2.339125 1_555
Cu10 S10 2.311000 1_555
Cu10 S26 2.314370 1_555
Cu10 S35 2.319254 1_455
Cu10 Rb1 3.913229 1_555
Cu11 S11 2.311000 1_555
Cu11 S27 2.314370 1_555
Cu11 S34 2.319254 1_555
Cu11 Rb0 3.913229 1_555
As0 S18 2.242997 1_565
As0 S24 2.336189 1_555
As0 S6 2.344412 1_555
As0 Cu10 2.705703 1_655
As1 S19 2.242997 1_545
As1 S25 2.336189 1_555
As1 S7 2.344412 1_555
As1 Cu11 2.705703 1_555
As2 S26 2.268812 1_545
As2 S2 2.311185 1_555
As2 S24 2.334282 1_545
As2 Cu8 2.458651 1_555
As3 S27 2.268812 1_565
As3 S3 2.311185 1_555
As3 S25 2.334282 1_665
As3 Cu9 2.458651 1_655
As4 S12 2.245976 1_555
As4 S14 2.277330 1_555
As4 S6 2.356315 1_545
As5 S13 2.245976 1_555
As5 S15 2.277330 1_555
As5 S7 2.356315 1_565
As6 S16 2.247166 1_556
As6 S30 2.275603 1_556
As6 S28 2.330024 1_555
As6 Cu4 2.433609 1_556
As7 S17 2.247166 1_554
As7 S31 2.275603 1_554
As7 S29 2.330024 1_555
As7 Cu5 2.433609 1_454
As8 S4 2.259794 1_555
As8 S34 2.267343 1_555
As8 S29 2.341536 1_555
As8 Cu7 2.424299 1_555
As8 Rb0 3.823697 1_555
As9 S5 2.259794 1_555
As9 S35 2.267343 1_555
As9 S28 2.341536 1_555
As9 Cu6 2.424299 1_555
As9 Rb1 3.823697 1_655
As10 S36 2.254131 1_555
As10 S0 2.261623 1_555
As10 S32 2.340007 1_555
As10 Cu1 2.449942 1_555
As11 S37 2.254131 1_555
As11 S1 2.261623 1_555
As11 S33 2.340007 1_555
As11 Cu0 2.449942 1_555
As12 S8 2.244626 1_556
As12 S10 2.281990 1_555
As12 S2 2.366057 1_565
As12 Rb1 3.954677 1_555
As13 S9 2.244626 1_554
As13 S11 2.281990 1_555
As13 S3 2.366057 1_545
As13 Rb0 3.954677 1_555
As14 S23 2.258127 1_555
As14 S20 2.281092 1_555
As14 S32 2.334710 1_555
As14 Cu3 2.460597 1_555
As15 S22 2.258127 1_555
As15 S21 2.281092 1_555
As15 S33 2.334710 1_555
As15 Cu2 2.460597 1_455
