# generated using pymatgen
data_Ba(GaH)2
_symmetry_space_group_name_H-M   'P 1'
_cell_length_a   4.52618745
_cell_length_b   4.52618745
_cell_length_c   4.98033464
_cell_angle_alpha   90.00000000
_cell_angle_beta   90.00000000
_cell_angle_gamma   120.00000800
_symmetry_Int_Tables_number   1
_chemical_formula_structural   Ba(GaH)2
_chemical_formula_sum   'Ba1 Ga2 H2'
_cell_volume   88.35969200
_cell_formula_units_Z   1
loop_
 _symmetry_equiv_pos_site_id
 _symmetry_equiv_pos_as_xyz
  1  'x, y, z'
loop_
 _atom_site_type_symbol
 _atom_site_label
 _atom_site_symmetry_multiplicity
 _atom_site_fract_x
 _atom_site_fract_y
 _atom_site_fract_z
 _atom_site_occupancy
  Ba  Ba0  1  -0.00000000  -0.00000000  0.00000000  1
  Ga  Ga0  1  0.33333300  0.66666700  0.46882847  1
  Ga  Ga1  1  0.66666700  0.33333300  0.53117153  1
  H  H0  1  0.33333300  0.66666700  0.13290984  1
  H  H1  1  0.66666700  0.33333300  0.86709016  1
loop_
_geom_bond_atom_site_label_1
_geom_bond_atom_site_label_2
_geom_bond_distance
_geom_bond_site_symmetry_2
Ba0 H0 2.695726 1_545
Ba0 H1 2.695726 1_454
Ba0 H1 2.695729 1_554
Ba0 H1 2.695729 1_444
Ba0 H0 2.695729 1_555
Ba0 H0 2.695729 1_445
Ga0 H0 1.672987 1_555
Ga1 H1 1.672987 1_555
