# generated using pymatgen
data_ZnCu2GeS4
_symmetry_space_group_name_H-M   'P 1'
_cell_length_a   6.15208290
_cell_length_b   6.46984060
_cell_length_c   7.40295560
_cell_angle_alpha   90.00000000
_cell_angle_beta   90.00000000
_cell_angle_gamma   90.00000000
_symmetry_Int_Tables_number   1
_chemical_formula_structural   ZnCu2GeS4
_chemical_formula_sum   'Zn2 Cu4 Ge2 S8'
_cell_volume   294.65981007
_cell_formula_units_Z   2
loop_
 _symmetry_equiv_pos_site_id
 _symmetry_equiv_pos_as_xyz
  1  'x, y, z'
loop_
 _atom_site_type_symbol
 _atom_site_label
 _atom_site_symmetry_multiplicity
 _atom_site_fract_x
 _atom_site_fract_y
 _atom_site_fract_z
 _atom_site_occupancy
  Zn  Zn0  1  -0.00061229  0.15675728  0.50000000  1
  Zn  Zn1  1  0.49938771  0.84324272  0.00000000  1
  Cu  Cu0  1  0.50603672  0.32754561  0.25363856  1
  Cu  Cu1  1  0.50603672  0.32754561  0.74636144  1
  Cu  Cu2  1  0.00603672  0.67245439  0.24636144  1
  Cu  Cu3  1  0.00603672  0.67245439  0.75363856  1
  Ge  Ge0  1  0.50031900  0.83060837  0.50000000  1
  Ge  Ge1  1  0.00031900  0.16939163  0.00000000  1
  S  S0  1  0.86656234  0.82177569  0.50000000  1
  S  S1  1  0.36656234  0.17822431  0.00000000  1
  S  S2  1  0.37894500  0.15736978  0.50000000  1
  S  S3  1  0.87894500  0.84263022  0.00000000  1
  S  S4  1  0.87585625  0.33925169  0.24504748  1
  S  S5  1  0.87585625  0.33925169  0.75495252  1
  S  S6  1  0.37585625  0.66074831  0.25495252  1
  S  S7  1  0.37585625  0.66074831  0.74504748  1
loop_
_geom_bond_atom_site_label_1
_geom_bond_atom_site_label_2
_geom_bond_distance
_geom_bond_site_symmetry_2
Cu0 S2 2.269320 1_555
Cu0 S4 2.277309 1_555
Cu0 S1 2.279308 1_555
Cu0 S6 2.299748 1_555
Cu1 S2 2.269320 1_555
Cu1 S5 2.277309 1_555
Cu1 S1 2.279308 1_556
Cu1 S7 2.299748 1_555
Cu2 S3 2.269320 1_455
Cu2 S6 2.277309 1_555
Cu2 S0 2.279308 1_455
Cu2 S4 2.299748 1_455
Cu3 S3 2.269320 1_456
Cu3 S7 2.277309 1_555
Cu3 S0 2.279308 1_455
Cu3 S5 2.299748 1_455
Ge0 S2 2.242088 1_565
Ge0 S0 2.253884 1_555
Ge0 S7 2.254973 1_555
Ge0 S6 2.254973 1_555
Ge1 S3 2.242088 1_445
Ge1 S1 2.253884 1_555
Ge1 S5 2.254973 1_454
Ge1 S4 2.254973 1_455
S0 Zn0 2.316210 1_665
S1 Zn1 2.316210 1_545
S2 Zn0 2.335071 1_555
S3 Zn1 2.335071 1_555
S4 Zn0 2.352430 1_655
S5 Zn0 2.352430 1_655
S6 Zn1 2.352430 1_555
S7 Zn1 2.352430 1_556
