# generated using pymatgen
data_KMg2As2H31O23
_symmetry_space_group_name_H-M   'P 1'
_cell_length_a   6.45852600
_cell_length_b   6.68379021
_cell_length_c   12.90144809
_cell_angle_alpha   86.65531173
_cell_angle_beta   83.75537598
_cell_angle_gamma   88.38919782
_symmetry_Int_Tables_number   1
_chemical_formula_structural   KMg2As2H31O23
_chemical_formula_sum   'K1 Mg2 As2 H31 O23'
_cell_volume   552.54196977
_cell_formula_units_Z   1
loop_
 _symmetry_equiv_pos_site_id
 _symmetry_equiv_pos_as_xyz
  1  'x, y, z'
loop_
 _atom_site_type_symbol
 _atom_site_label
 _atom_site_symmetry_multiplicity
 _atom_site_fract_x
 _atom_site_fract_y
 _atom_site_fract_z
 _atom_site_occupancy
  K  K0  1  0.48570900  0.41504400  0.27691600  1
  Mg  Mg0  1  0.00926100  0.49945100  0.49375800  1
  Mg  Mg1  1  0.49909200  0.49915500  0.99803800  1
  As  As0  1  0.87517300  0.95465800  0.19002400  1
  As  As1  1  0.13451400  0.06170300  0.80070500  1
  H  H0  1  0.70616300  0.20754500  0.56841900  1
  H  H1  1  0.31287800  0.76744200  0.41701600  1
  H  H2  1  0.81206900  0.99487000  0.66667700  1
  H  H3  1  0.19517400  0.01623600  0.32947000  1
  H  H4  1  0.00624900  0.99336100  0.98032000  1
  H  H5  1  0.72279600  0.28587000  0.45014900  1
  H  H6  1  0.32007200  0.59598600  0.66093400  1
  H  H7  1  0.75725300  0.83443600  0.52683800  1
  H  H8  1  0.24966600  0.14769000  0.47263300  1
  H  H9  1  0.01219600  0.70544800  0.67519200  1
  H  H10  1  0.97776300  0.29346500  0.31186700  1
  H  H11  1  0.53806100  0.49577900  0.62944600  1
  H  H12  1  0.38512700  0.62245600  0.50917600  1
  H  H13  1  0.53920600  0.20793100  0.85587400  1
  H  H14  1  0.46342300  0.79640700  0.14122400  1
  H  H15  1  0.01440500  0.46654400  0.71181700  1
  H  H16  1  0.97969400  0.53715700  0.27749900  1
  H  H17  1  0.75568800  0.81216400  0.90893900  1
  H  H18  1  0.22939100  0.19274600  0.09057300  1
  H  H19  1  0.56064500  0.00559900  0.68679200  1
  H  H20  1  0.44619500  0.98722300  0.30100300  1
  H  H21  1  0.52936200  0.84407300  0.87124600  1
  H  H22  1  0.46458000  0.14102500  0.11535300  1
  H  H23  1  0.84884900  0.55417400  0.10747200  1
  H  H24  1  0.15238100  0.44872400  0.89098400  1
  H  H25  1  0.85207500  0.32584900  0.07272700  1
  H  H26  1  0.14462600  0.67224900  0.93047800  1
  H  H27  1  0.76916000  0.30060100  0.85906900  1
  H  H28  1  0.22965800  0.70694700  0.13927700  1
  H  H29  1  0.87343800  0.87275700  0.41144700  1
  H  H30  1  0.13011200  0.12683500  0.58656800  1
  O  O0  1  0.68089400  0.01348000  0.63099200  1
  O  O1  1  0.33223700  0.00534200  0.36037000  1
  O  O2  1  0.61938400  0.74918700  0.90940300  1
  O  O3  1  0.36812700  0.25225100  0.09616400  1
  O  O4  1  0.62244500  0.30123900  0.89138500  1
  O  O5  1  0.38289200  0.68124200  0.12182500  1
  O  O6  1  0.01833100  0.56658100  0.65028700  1
  O  O7  1  0.99335900  0.43231700  0.33592200  1
  O  O8  1  0.72995000  0.33498100  0.51909600  1
  O  O9  1  0.30521800  0.62518700  0.44581800  1
  O  O10  1  0.76276700  0.44986900  0.08079700  1
  O  O11  1  0.21806800  0.54110800  0.93567200  1
  O  O12  1  0.84002500  0.76819100  0.46870500  1
  O  O13  1  0.17443200  0.22613600  0.52803500  1
  O  O14  1  0.96792100  0.71093800  0.18020300  1
  O  O15  1  0.03790800  0.30194400  0.81297600  1
  O  O16  1  0.60682400  0.96930400  0.19377600  1
  O  O17  1  0.39778500  0.03839800  0.80142800  1
  O  O18  1  0.98759000  0.09782600  0.08322500  1
  O  O19  1  0.01557600  0.91542700  0.91165100  1
  O  O20  1  0.94432300  0.04702000  0.30398400  1
  O  O21  1  0.05060000  0.95910100  0.69460900  1
  O  O22  1  0.46123800  0.62333000  0.62775600  1
loop_
_geom_bond_atom_site_label_1
_geom_bond_atom_site_label_2
_geom_bond_distance
_geom_bond_site_symmetry_2
K0 O5 2.723486 1_555
K0 O9 2.791505 1_555
Mg0 O6 2.101397 1_555
Mg0 O12 2.103385 1_455
Mg0 O8 2.123851 1_455
Mg0 O7 2.124421 1_455
Mg0 O9 2.124828 1_555
Mg0 O13 2.137632 1_555
Mg1 O4 2.047572 1_555
Mg1 O11 2.069545 1_555
Mg1 O2 2.088239 1_555
Mg1 O10 2.114603 1_556
Mg1 O5 2.123582 1_556
Mg1 O3 2.154811 1_556
As0 O14 1.726598 1_555
As0 O16 1.728716 1_555
As0 O20 1.733908 1_565
As0 O18 1.734617 1_565
As1 O17 1.704085 1_555
As1 O21 1.711550 1_545
As1 O15 1.715967 1_555
As1 O19 1.798462 1_545
H0 O8 1.037719 1_555
H0 O0 1.490583 1_555
H1 O9 1.000984 1_555
H2 O0 1.008671 1_565
H2 O21 1.627990 1_655
H3 O1 1.008768 1_555
H3 O20 1.692488 1_455
H4 O19 1.048954 1_555
H4 O18 1.527498 1_466
H5 O8 0.972103 1_555
H6 O22 0.981430 1_555
H7 O12 0.991233 1_555
H8 O13 0.987800 1_555
H9 O6 0.998123 1_555
H10 O7 1.006685 1_555
H10 O20 1.677658 1_555
H11 O22 0.974605 1_555
H12 O9 1.012102 1_555
H13 O4 0.996806 1_555
H14 O5 0.999478 1_555
H15 O6 1.006233 1_555
H15 O15 1.674165 1_555
H16 O7 1.008118 1_555
H16 O14 1.666207 1_555
H17 O2 0.985685 1_555
H18 O3 1.001847 1_555
H18 O18 1.716172 1_455
H19 O0 1.000216 1_555
H20 O1 1.013002 1_565
H20 O16 1.644531 1_555
H21 O2 0.993826 1_555
H22 O3 0.994006 1_555
H23 O10 1.002478 1_555
H23 O14 1.699036 1_555
H24 O11 1.001565 1_555
H24 O15 1.685167 1_555
H25 O10 1.000388 1_555
H25 O18 1.741789 1_555
H26 O11 0.987142 1_555
H27 O4 0.992851 1_555
H27 O15 1.772604 1_655
H28 O5 1.003060 1_555
H28 O14 1.715228 1_455
H29 O12 0.997134 1_555
H30 O13 0.998940 1_555
