# generated using pymatgen
data_MnFe5N4
_symmetry_space_group_name_H-M   'P 1'
_cell_length_a   6.62662500
_cell_length_b   5.89844100
_cell_length_c   4.61596000
_cell_angle_alpha   90.00000000
_cell_angle_beta   90.00000000
_cell_angle_gamma   90.00000000
_symmetry_Int_Tables_number   1
_chemical_formula_structural   MnFe5N4
_chemical_formula_sum   'Mn2 Fe10 N8'
_cell_volume   180.42290496
_cell_formula_units_Z   2
loop_
 _symmetry_equiv_pos_site_id
 _symmetry_equiv_pos_as_xyz
  1  'x, y, z'
loop_
 _atom_site_type_symbol
 _atom_site_label
 _atom_site_symmetry_multiplicity
 _atom_site_fract_x
 _atom_site_fract_y
 _atom_site_fract_z
 _atom_site_occupancy
  Mn  Mn0  1  0.75000000  0.25000000  0.77121200  1
  Mn  Mn1  1  0.25000000  0.75000000  0.22878800  1
  Fe  Fe0  1  0.55471300  0.48205500  0.25107600  1
  Fe  Fe1  1  0.94528700  0.48205500  0.25107600  1
  Fe  Fe2  1  0.55471300  0.01794500  0.25107600  1
  Fe  Fe3  1  0.94528700  0.01794500  0.25107600  1
  Fe  Fe4  1  0.44528700  0.51794500  0.74892400  1
  Fe  Fe5  1  0.05471300  0.51794500  0.74892400  1
  Fe  Fe6  1  0.44528700  0.98205500  0.74892400  1
  Fe  Fe7  1  0.05471300  0.98205500  0.74892400  1
  Fe  Fe8  1  0.75000000  0.75000000  0.67227400  1
  Fe  Fe9  1  0.25000000  0.25000000  0.32772600  1
  N  N0  1  0.75000000  0.97358200  0.96723300  1
  N  N1  1  0.75000000  0.52641800  0.96723300  1
  N  N2  1  0.25000000  0.02641800  0.03276700  1
  N  N3  1  0.25000000  0.47358200  0.03276700  1
  N  N4  1  0.49910200  0.75000000  0.46554000  1
  N  N5  1  0.00089800  0.75000000  0.46554000  1
  N  N6  1  0.50089800  0.25000000  0.53446000  1
  N  N7  1  0.99910200  0.25000000  0.53446000  1
loop_
_geom_bond_atom_site_label_1
_geom_bond_atom_site_label_2
_geom_bond_distance
_geom_bond_site_symmetry_2
Mn0 N1 1.864679 1_555
Mn0 N0 1.864679 1_545
Mn0 N7 1.979678 1_555
Mn0 N6 1.979678 1_555
Mn1 N3 1.864679 1_555
Mn1 N2 1.864679 1_565
Mn1 N4 1.979678 1_555
Mn1 N5 1.979678 1_555
Fe0 N1 1.860053 1_554
Fe0 N4 1.900964 1_555
Fe0 N6 1.926598 1_555
Fe0 N3 2.257258 1_555
Fe1 N1 1.860053 1_554
Fe1 N5 1.900964 1_655
Fe1 N7 1.926598 1_555
Fe1 N3 2.257258 1_655
Fe2 N0 1.860053 1_544
Fe2 N4 1.900964 1_545
Fe2 N6 1.926598 1_555
Fe2 N2 2.257258 1_555
Fe3 N0 1.860053 1_544
Fe3 N5 1.900964 1_645
Fe3 N7 1.926598 1_555
Fe3 N2 2.257258 1_655
Fe4 N3 1.860053 1_556
Fe4 N6 1.900964 1_555
Fe4 N4 1.926598 1_555
Fe4 N1 2.257258 1_555
Fe5 N3 1.860053 1_556
Fe5 N7 1.900964 1_455
Fe5 N5 1.926598 1_555
Fe5 N1 2.257258 1_455
Fe6 N2 1.860053 1_566
Fe6 N6 1.900964 1_565
Fe6 N4 1.926598 1_555
Fe6 N0 2.257258 1_555
Fe7 N2 1.860053 1_566
Fe7 N7 1.900964 1_465
Fe7 N5 1.926598 1_555
Fe7 N0 2.257258 1_455
Fe8 N0 1.895502 1_555
Fe8 N1 1.895502 1_555
Fe8 N5 1.917004 1_655
Fe8 N4 1.917004 1_555
Fe9 N3 1.895502 1_555
Fe9 N2 1.895502 1_555
Fe9 N6 1.917004 1_555
Fe9 N7 1.917004 1_455
