# generated using pymatgen
data_SrLa2Sc2O7
_symmetry_space_group_name_H-M   'P 1'
_cell_length_a   4.09220675
_cell_length_b   4.09220675
_cell_length_c   10.83416080
_cell_angle_alpha   79.10697903
_cell_angle_beta   79.10697903
_cell_angle_gamma   89.96384396
_symmetry_Int_Tables_number   1
_chemical_formula_structural   SrLa2Sc2O7
_chemical_formula_sum   'Sr1 La2 Sc2 O7'
_cell_volume   174.83551179
_cell_formula_units_Z   1
loop_
 _symmetry_equiv_pos_site_id
 _symmetry_equiv_pos_as_xyz
  1  'x, y, z'
loop_
 _atom_site_type_symbol
 _atom_site_label
 _atom_site_symmetry_multiplicity
 _atom_site_fract_x
 _atom_site_fract_y
 _atom_site_fract_z
 _atom_site_occupancy
  Sr  Sr0  1  0.50000000  0.50000000  0.00000000  1
  La  La0  1  0.31718900  0.31718900  0.36562100  1
  La  La1  1  0.68281100  0.68281100  0.63437800  1
  Sc  Sc0  1  0.09788000  0.09788000  0.80424000  1
  Sc  Sc1  1  0.90212000  0.90212000  0.19576000  1
  O  O0  1  0.20819800  0.20819800  0.58360400  1
  O  O1  1  0.79180200  0.79180200  0.41639600  1
  O  O2  1  0.60766300  0.10766300  0.78467400  1
  O  O3  1  0.89233700  0.39233700  0.21532600  1
  O  O4  1  0.39233700  0.89233700  0.21532600  1
  O  O5  1  0.10766300  0.60766300  0.78467400  1
  O  O6  1  0.00000000  0.00000000  0.00000000  1
loop_
_geom_bond_atom_site_label_1
_geom_bond_atom_site_label_2
_geom_bond_distance
_geom_bond_site_symmetry_2
La0 O0 2.275816 1_555
La0 O3 2.578508 1_455
La0 O4 2.578508 1_545
La0 O4 2.578511 1_555
La0 O3 2.578511 1_555
La0 O1 2.940886 1_545
La0 O1 2.940886 1_455
La0 O1 2.942679 1_445
La0 O1 2.942685 1_555
La1 O1 2.275806 1_555
La1 O5 2.578516 1_655
La1 O2 2.578516 1_555
La1 O5 2.578516 1_555
La1 O2 2.578516 1_565
La1 O0 2.940884 1_565
La1 O0 2.940884 1_655
La1 O0 2.942680 1_555
La1 O0 2.942680 1_665
O0 Sc0 2.303515 1_555
O1 Sc1 2.303515 1_555
O2 Sc0 2.056275 1_555
O2 Sc0 2.056275 1_655
O2 Sr0 3.039800 1_546
O2 Sr0 3.039800 1_556
O3 Sc1 2.056275 1_545
O3 Sc1 2.056275 1_555
O3 Sr0 3.039800 1_555
O3 Sr0 3.039800 1_655
O4 Sc1 2.056275 1_455
O4 Sc1 2.056275 1_555
O4 Sr0 3.039800 1_555
O4 Sr0 3.039800 1_565
O5 Sc0 2.056275 1_555
O5 Sc0 2.056275 1_565
O5 Sr0 3.039800 1_456
O5 Sr0 3.039800 1_556
O6 Sc0 2.043801 1_554
O6 Sc1 2.043801 1_445
O6 Sr0 2.892714 1_545
O6 Sr0 2.892714 1_455
O6 Sr0 2.894540 1_445
O6 Sr0 2.894540 1_555
