# generated using pymatgen
data_K8MgCo2(Mo4O15)2
_symmetry_space_group_name_H-M   'P 1'
_cell_length_a   10.61456504
_cell_length_b   10.53845562
_cell_length_c   8.48336985
_cell_angle_alpha   91.57663602
_cell_angle_beta   88.82804477
_cell_angle_gamma   119.33512570
_symmetry_Int_Tables_number   1
_chemical_formula_structural   K8MgCo2(Mo4O15)2
_chemical_formula_sum   'K8 Mg1 Co2 Mo8 O30'
_cell_volume   826.93369214
_cell_formula_units_Z   1
loop_
 _symmetry_equiv_pos_site_id
 _symmetry_equiv_pos_as_xyz
  1  'x, y, z'
loop_
 _atom_site_type_symbol
 _atom_site_label
 _atom_site_symmetry_multiplicity
 _atom_site_fract_x
 _atom_site_fract_y
 _atom_site_fract_z
 _atom_site_occupancy
  K  K0  1  0.08665100  0.69730700  0.15405200  1
  K  K1  1  0.58932900  0.91852800  0.13702000  1
  K  K2  1  0.41689500  0.10709300  0.85267900  1
  K  K3  1  0.01548300  0.01450500  0.01273700  1
  K  K4  1  0.89952700  0.31563500  0.85512000  1
  K  K5  1  0.70825500  0.64731300  0.88783600  1
  K  K6  1  0.31572000  0.41490600  0.15792000  1
  K  K7  1  0.01754200  0.01201800  0.50780700  1
  Mg  Mg0  1  0.69296500  0.47542100  0.54446500  1
  Co  Co0  1  0.33325200  0.66523400  0.47762000  1
  Co  Co1  1  0.65513900  0.19584100  0.47700300  1
  Mo  Mo0  1  0.98276600  0.33150100  0.36496100  1
  Mo  Mo1  1  0.03075200  0.69483100  0.64482700  1
  Mo  Mo2  1  0.33988200  0.01490700  0.36678100  1
  Mo  Mo3  1  0.66486100  0.36080700  0.13852300  1
  Mo  Mo4  1  0.66359900  0.94775000  0.64104500  1
  Mo  Mo5  1  0.32174700  0.66559500  0.86131300  1
  Mo  Mo6  1  0.67486300  0.69457500  0.35643900  1
  Mo  Mo7  1  0.32497700  0.34795300  0.64322400  1
  O  O0  1  0.48185500  0.79990500  0.66936400  1
  O  O1  1  0.65590900  0.49185100  0.31966400  1
  O  O2  1  0.72061600  0.91912300  0.44536400  1
  O  O3  1  0.47824200  0.64712100  0.34856400  1
  O  O4  1  0.16460900  0.52705200  0.95346500  1
  O  O5  1  0.14060600  0.51080600  0.35941800  1
  O  O6  1  0.28888200  0.03113500  0.56295600  1
  O  O7  1  0.35549000  0.85083400  0.34986400  1
  O  O8  1  0.52119200  0.35886700  0.03373900  1
  O  O9  1  0.87120900  0.51475700  0.66207200  1
  O  O10  1  0.32039900  0.52072200  0.66735900  1
  O  O11  1  0.81324400  0.34209300  0.33965600  1
  O  O12  1  0.96700700  0.24806900  0.54849200  1
  O  O13  1  0.72687400  0.68031600  0.56288600  1
  O  O14  1  0.33700700  0.82877200  0.94683800  1
  O  O15  1  0.82196300  0.50027600  0.04661200  1
  O  O16  1  0.20803400  0.00047800  0.22944200  1
  O  O17  1  0.02987000  0.76063900  0.45684900  1
  O  O18  1  0.66575100  0.20148000  0.05626500  1
  O  O19  1  0.77999200  0.95484600  0.79206500  1
  O  O20  1  0.99894200  0.22287300  0.21027500  1
  O  O21  1  0.51368100  0.18167700  0.32018200  1
  O  O22  1  0.50732700  0.37491300  0.66477200  1
  O  O23  1  0.19736200  0.68093100  0.66172400  1
  O  O24  1  0.26022000  0.28087100  0.45239700  1
  O  O25  1  0.64995200  0.11422900  0.67055600  1
  O  O26  1  0.78561200  0.78833700  0.18942400  1
  O  O27  1  0.02162300  0.81038600  0.79551000  1
  O  O28  1  0.46422800  0.65480200  0.95494700  1
  O  O29  1  0.21184600  0.22386700  0.78853000  1
loop_
_geom_bond_atom_site_label_1
_geom_bond_atom_site_label_2
_geom_bond_distance
_geom_bond_site_symmetry_2
K0 O15 2.705597 1_455
K0 O17 2.764706 1_555
K0 O4 2.833507 1_554
K0 O16 2.857381 1_565
K0 O14 2.899469 1_554
K0 O5 2.925462 1_555
K0 O7 3.007053 1_555
K1 O18 2.781823 1_565
K1 O7 2.842993 1_555
K1 O28 2.846913 1_554
K1 O14 2.877751 1_554
K1 O2 2.987318 1_555
K1 O26 3.048474 1_555
K1 O3 3.111769 1_555
K2 O6 2.736899 1_555
K2 O8 2.755372 1_556
K2 O14 2.761202 1_545
K2 O25 2.860101 1_555
K2 O18 2.909875 1_556
K2 O22 2.993142 1_555
K2 O29 3.042612 1_555
K3 O20 2.797178 1_455
K3 O27 2.818114 1_544
K3 O16 2.836109 1_555
K3 O26 2.868756 1_445
K3 O29 2.897038 1_554
K3 O19 2.955467 1_444
K4 O4 2.725490 1_655
K4 O18 2.744313 1_556
K4 O9 2.828980 1_555
K4 O12 2.847469 1_555
K4 O15 2.905881 1_556
K4 O25 2.907200 1_555
K5 O28 2.679033 1_555
K5 O15 2.772364 1_556
K5 O13 2.778917 1_555
K5 O26 2.847765 1_556
K5 O8 2.984511 1_556
K5 O27 2.999555 1_655
K5 O19 3.073275 1_555
K5 O22 3.199617 1_555
K5 O9 3.270501 1_555
K6 O3 2.709279 1_555
K6 O8 2.710929 1_555
K6 O24 2.810994 1_555
K6 O28 2.839880 1_554
K6 O20 2.986599 1_455
K6 O5 3.002328 1_555
K6 O4 3.010301 1_554
K7 O17 2.737940 1_545
K7 O24 2.785046 1_555
K7 O12 2.801378 1_455
K7 O6 2.834812 1_555
K7 O2 2.861640 1_445
K7 O16 3.116024 1_555
K7 O29 3.210315 1_555
K7 O27 3.294527 1_545
K7 O19 3.298293 1_445
Mg0 O1 1.984236 1_555
Mg0 O22 1.994612 1_555
Mg0 O9 2.008189 1_555
Mg0 O13 2.009643 1_555
Co0 O3 1.952191 1_555
Co0 O5 2.137475 1_555
Co0 O23 2.162090 1_555
Co0 O7 2.170216 1_555
Co0 O10 2.202536 1_555
Co0 O0 2.220954 1_555
Co1 O25 1.861843 1_555
Co1 O21 1.974308 1_555
Co1 O11 2.008468 1_555
Mo0 O12 1.773626 1_555
Mo0 O20 1.778403 1_555
Mo0 O5 1.810922 1_655
Mo0 O11 1.873584 1_555
Mo1 O17 1.758382 1_555
Mo1 O27 1.775191 1_555
Mo1 O9 1.829420 1_455
Mo1 O23 1.853356 1_555
Mo2 O6 1.769221 1_555
Mo2 O16 1.785395 1_555
Mo2 O7 1.817637 1_545
Mo2 O21 1.865453 1_555
Mo3 O8 1.772027 1_555
Mo3 O15 1.776893 1_555
Mo3 O18 1.804741 1_555
Mo3 O1 2.069644 1_555
Mo3 O21 2.367352 1_555
Mo3 O11 2.421529 1_555
Mo4 O19 1.772646 1_555
Mo4 O0 1.806479 1_555
Mo4 O2 1.822979 1_555
Mo4 O25 1.839851 1_565
Mo5 O4 1.774321 1_555
Mo5 O28 1.775905 1_555
Mo5 O14 1.781294 1_555
Mo5 O10 2.209014 1_555
Mo5 O23 2.225255 1_555
Mo5 O0 2.280329 1_555
Mo6 O26 1.799028 1_555
Mo6 O13 1.878821 1_555
Mo6 O3 1.895129 1_555
Mo6 O1 2.060762 1_555
Mo6 O2 2.279351 1_555
Mo7 O24 1.760496 1_555
Mo7 O29 1.777933 1_555
Mo7 O22 1.825742 1_555
Mo7 O10 1.850694 1_555
