# generated using pymatgen
data_Mn2CuH12(NO2)4
_symmetry_space_group_name_H-M   'P 1'
_cell_length_a   9.28340500
_cell_length_b   5.50585000
_cell_length_c   10.99506672
_cell_angle_alpha   83.16234194
_cell_angle_beta   90.00000000
_cell_angle_gamma   90.00000000
_symmetry_Int_Tables_number   1
_chemical_formula_structural   Mn2CuH12(NO2)4
_chemical_formula_sum   'Mn4 Cu2 H24 N8 O16'
_cell_volume   557.99405630
_cell_formula_units_Z   2
loop_
 _symmetry_equiv_pos_site_id
 _symmetry_equiv_pos_as_xyz
  1  'x, y, z'
loop_
 _atom_site_type_symbol
 _atom_site_label
 _atom_site_symmetry_multiplicity
 _atom_site_fract_x
 _atom_site_fract_y
 _atom_site_fract_z
 _atom_site_occupancy
  Mn  Mn0  1  0.75000000  0.93037000  0.56234300  1
  Mn  Mn1  1  0.25000000  0.06963000  0.43765700  1
  Mn  Mn2  1  0.75000000  0.46834700  0.93263000  1
  Mn  Mn3  1  0.25000000  0.53165300  0.06737000  1
  Cu  Cu0  1  0.75000000  0.70163700  0.25211000  1
  Cu  Cu1  1  0.25000000  0.29836300  0.74789000  1
  H  H0  1  0.12705900  0.65195600  0.60147400  1
  H  H1  1  0.62705900  0.34804400  0.39852600  1
  H  H2  1  0.87294100  0.34804400  0.39852600  1
  H  H3  1  0.37294100  0.65195600  0.60147400  1
  H  H4  1  0.53199100  0.60688400  0.39566500  1
  H  H5  1  0.03199100  0.39311600  0.60433500  1
  H  H6  1  0.46800900  0.39311600  0.60433500  1
  H  H7  1  0.96800900  0.60688400  0.39566500  1
  H  H8  1  0.98008700  0.43724900  0.28191000  1
  H  H9  1  0.48008700  0.56275100  0.71809000  1
  H  H10  1  0.01991300  0.56275100  0.71809000  1
  H  H11  1  0.51991300  0.43724900  0.28191000  1
  H  H12  1  0.12820800  0.92805100  0.88227800  1
  H  H13  1  0.62820800  0.07194900  0.11772200  1
  H  H14  1  0.87179200  0.07194900  0.11772200  1
  H  H15  1  0.37179200  0.92805100  0.88227800  1
  H  H16  1  0.50260100  0.91420300  0.19904200  1
  H  H17  1  0.00260100  0.08579700  0.80095800  1
  H  H18  1  0.49739900  0.08579700  0.80095800  1
  H  H19  1  0.99739900  0.91420300  0.19904200  1
  H  H20  1  0.07338000  0.19385600  0.92325900  1
  H  H21  1  0.57338000  0.80614400  0.07674100  1
  H  H22  1  0.92662000  0.80614400  0.07674100  1
  H  H23  1  0.42662000  0.19385600  0.92325900  1
  N  N0  1  0.40957600  0.50105700  0.65634000  1
  N  N1  1  0.90957600  0.49894300  0.34366000  1
  N  N2  1  0.59042400  0.49894300  0.34366000  1
  N  N3  1  0.09042400  0.50105700  0.65634000  1
  N  N4  1  0.59604100  0.89832200  0.15036000  1
  N  N5  1  0.09604100  0.10167800  0.84964000  1
  N  N6  1  0.40395900  0.10167800  0.84964000  1
  N  N7  1  0.90395900  0.89832200  0.15036000  1
  O  O0  1  0.89327200  0.04253700  0.61880300  1
  O  O1  1  0.39327200  0.95746300  0.38119700  1
  O  O2  1  0.10672800  0.95746300  0.38119700  1
  O  O3  1  0.60672800  0.04253700  0.61880300  1
  O  O4  1  0.25000000  0.99817600  0.58682700  1
  O  O5  1  0.75000000  0.00182400  0.41317300  1
  O  O6  1  0.25000000  0.36369300  0.40820000  1
  O  O7  1  0.75000000  0.63630700  0.59180000  1
  O  O8  1  0.10638000  0.37854400  0.11147700  1
  O  O9  1  0.60638000  0.62145600  0.88852300  1
  O  O10  1  0.89362000  0.62145600  0.88852300  1
  O  O11  1  0.39362000  0.37854400  0.11147700  1
  O  O12  1  0.75000000  0.41459500  0.08274000  1
  O  O13  1  0.25000000  0.58540500  0.91726000  1
  O  O14  1  0.75000000  0.20981900  0.87776400  1
  O  O15  1  0.25000000  0.79018100  0.12223600  1
loop_
_geom_bond_atom_site_label_1
_geom_bond_atom_site_label_2
_geom_bond_distance
_geom_bond_site_symmetry_2
Mn0 O7 1.612890 1_555
Mn0 O3 1.620831 1_565
Mn0 O0 1.620831 1_565
Mn0 O5 1.640479 1_565
Mn1 O6 1.612890 1_555
Mn1 O2 1.620831 1_545
Mn1 O1 1.620831 1_545
Mn1 O4 1.640479 1_545
Mn2 O14 1.610744 1_555
Mn2 O10 1.620532 1_555
Mn2 O9 1.620532 1_555
Mn2 O12 1.641745 1_556
Mn3 O15 1.610744 1_555
Mn3 O8 1.620532 1_555
Mn3 O11 1.620532 1_555
Mn3 O13 1.641745 1_554
Cu0 N7 2.044169 1_555
Cu0 N4 2.044169 1_555
Cu0 N2 2.045919 1_555
Cu0 N1 2.045919 1_555
Cu0 O5 2.562170 1_565
Cu0 O12 2.581938 1_555
Cu1 N5 2.044169 1_555
Cu1 N6 2.044169 1_555
Cu1 N0 2.045919 1_555
Cu1 N3 2.045919 1_555
Cu1 O4 2.562170 1_545
Cu1 O13 2.581938 1_555
H0 N3 1.024946 1_555
H1 N2 1.024946 1_555
H2 N1 1.024946 1_555
H3 N0 1.024946 1_555
H4 N2 1.027293 1_555
H5 N3 1.027293 1_555
H6 N0 1.027293 1_555
H7 N1 1.027293 1_555
H8 N1 1.029437 1_555
H9 N0 1.029437 1_555
H10 N3 1.029437 1_555
H11 N2 1.029437 1_555
H12 N5 1.024760 1_565
H13 N4 1.024760 1_545
H14 N7 1.024760 1_545
H15 N6 1.024760 1_565
H16 N4 1.028469 1_555
H17 N5 1.028469 1_555
H18 N6 1.028469 1_555
H19 N7 1.028469 1_555
H20 N5 1.027060 1_555
H21 N4 1.027060 1_555
H22 N7 1.027060 1_555
H23 N6 1.027060 1_555
