# generated using pymatgen
data_U12Ge3Te20
_symmetry_space_group_name_H-M   'P 1'
_cell_length_a   4.25682456
_cell_length_b   8.92996275
_cell_length_c   26.28070116
_cell_angle_alpha   90.00000000
_cell_angle_beta   90.00000000
_cell_angle_gamma   90.00000000
_symmetry_Int_Tables_number   1
_chemical_formula_structural   U12Ge3Te20
_chemical_formula_sum   'U12 Ge3 Te20'
_cell_volume   999.01577673
_cell_formula_units_Z   1
loop_
 _symmetry_equiv_pos_site_id
 _symmetry_equiv_pos_as_xyz
  1  'x, y, z'
loop_
 _atom_site_type_symbol
 _atom_site_label
 _atom_site_symmetry_multiplicity
 _atom_site_fract_x
 _atom_site_fract_y
 _atom_site_fract_z
 _atom_site_occupancy
  U  U0  1  0.25000000  0.27738393  0.12498558  1
  U  U1  1  0.25000000  0.27738393  0.62501442  1
  U  U2  1  0.75000000  0.72180995  0.37500000  1
  U  U3  1  0.75000000  0.72287531  0.87500000  1
  U  U4  1  0.25000000  0.25620865  0.46017458  1
  U  U5  1  0.25000000  0.25906279  0.95766456  1
  U  U6  1  0.25000000  0.25620865  0.28982542  1
  U  U7  1  0.25000000  0.25906279  0.79233544  1
  U  U8  1  0.75000000  0.74143317  0.04257861  1
  U  U9  1  0.75000000  0.74395170  0.54171733  1
  U  U10  1  0.75000000  0.74395170  0.20828267  1
  U  U11  1  0.75000000  0.74143317  0.70742139  1
  Ge  Ge0  1  0.25000000  0.99255844  0.87500000  1
  Ge  Ge1  1  0.75000000  0.00783029  0.12527156  1
  Ge  Ge2  1  0.75000000  0.00783029  0.62472844  1
  Te  Te0  1  0.25000000  0.00635405  0.20099496  1
  Te  Te1  1  0.25000000  0.00695281  0.70088339  1
  Te  Te2  1  0.25000000  0.00695281  0.04911661  1
  Te  Te3  1  0.25000000  0.00635405  0.54900504  1
  Te  Te4  1  0.75000000  0.99434297  0.30395055  1
  Te  Te5  1  0.75000000  0.99308582  0.79909555  1
  Te  Te6  1  0.75000000  0.99434297  0.44604945  1
  Te  Te7  1  0.75000000  0.99308582  0.95090445  1
  Te  Te8  1  0.25000000  0.62938580  0.45873828  1
  Te  Te9  1  0.25000000  0.62880585  0.95939198  1
  Te  Te10  1  0.25000000  0.62938580  0.29126172  1
  Te  Te11  1  0.25000000  0.62880585  0.79060802  1
  Te  Te12  1  0.75000000  0.37112729  0.04076595  1
  Te  Te13  1  0.75000000  0.37201303  0.54102900  1
  Te  Te14  1  0.75000000  0.37201303  0.20897100  1
  Te  Te15  1  0.75000000  0.37112729  0.70923405  1
  Te  Te16  1  0.25000000  0.64004612  0.12528961  1
  Te  Te17  1  0.25000000  0.64004612  0.62471039  1
  Te  Te18  1  0.75000000  0.35589309  0.37500000  1
  Te  Te19  1  0.75000000  0.35969464  0.87500000  1
loop_
_geom_bond_atom_site_label_1
_geom_bond_atom_site_label_2
_geom_bond_distance
_geom_bond_site_symmetry_2
Ge0 Te5 2.917101 1_455
Ge0 Te7 2.917101 1_455
Ge0 Te7 2.917101 1_555
Ge0 Te5 2.917101 1_555
Ge0 U3 3.214009 1_455
Ge0 U3 3.214009 1_555
Ge0 U5 3.222341 1_565
Ge0 U7 3.222341 1_565
Ge1 Te0 2.913875 1_555
Ge1 Te0 2.913875 1_655
Ge1 Te2 2.921613 1_555
Ge1 Te2 2.921613 1_655
Ge1 U10 3.211243 1_545
Ge1 U0 3.213152 1_655
Ge1 U0 3.213152 1_555
Ge1 U8 3.222137 1_545
Ge2 Te3 2.913875 1_555
Ge2 Te3 2.913875 1_655
Ge2 Te1 2.921613 1_655
Ge2 Te1 2.921613 1_555
Ge2 U9 3.211243 1_545
Ge2 U1 3.213152 1_655
Ge2 U1 3.213152 1_555
Ge2 U11 3.222137 1_545
Te0 U0 3.138170 1_555
Te0 U10 3.171373 1_445
Te0 U10 3.171373 1_545
Te0 U6 3.229278 1_555
Te1 U1 3.131698 1_555
Te1 U11 3.190875 1_545
Te1 U11 3.190875 1_445
Te1 U7 3.293167 1_555
Te2 U0 3.131698 1_555
Te2 U8 3.190875 1_445
Te2 U8 3.190875 1_545
Te2 U5 3.293167 1_554
Te3 U1 3.138170 1_555
Te3 U9 3.171373 1_445
Te3 U9 3.171373 1_545
Te3 U4 3.229278 1_555
Te4 U2 3.067489 1_555
Te4 U6 3.183755 1_565
Te4 U6 3.183755 1_665
Te4 U10 3.364658 1_555
Te5 U3 3.130773 1_555
Te5 U7 3.194230 1_565
Te5 U7 3.194230 1_665
Te5 U11 3.294642 1_555
Te6 U2 3.067489 1_555
Te6 U4 3.183755 1_665
Te6 U4 3.183755 1_565
Te6 U9 3.364658 1_555
Te7 U3 3.130773 1_555
Te7 U5 3.194230 1_665
Te7 U5 3.194230 1_565
Te7 U8 3.294642 1_556
Te8 U2 3.170870 1_455
Te8 U2 3.170870 1_555
Te8 U9 3.214416 1_555
Te8 U9 3.214416 1_455
Te8 U4 3.332672 1_555
Te9 U3 3.186659 1_555
Te9 U3 3.186659 1_455
Te9 U8 3.212658 1_556
Te9 U8 3.212658 1_456
Te9 U5 3.302104 1_555
Te10 U2 3.170870 1_455
Te10 U2 3.170870 1_555
Te10 U10 3.214416 1_455
Te10 U10 3.214416 1_555
Te10 U6 3.332672 1_555
Te11 U3 3.186659 1_555
Te11 U3 3.186659 1_455
Te11 U11 3.212658 1_555
Te11 U11 3.212658 1_455
Te11 U7 3.302104 1_555
Te12 U0 3.182741 1_555
Te12 U0 3.182741 1_655
Te12 U5 3.209563 1_554
Te12 U5 3.209563 1_654
Te12 U8 3.307161 1_555
Te13 U4 3.180378 1_555
Te13 U4 3.180378 1_655
Te13 U1 3.180556 1_555
Te13 U1 3.180556 1_655
Te13 U9 3.321448 1_555
Te14 U6 3.180378 1_555
Te14 U6 3.180378 1_655
Te14 U0 3.180556 1_655
Te14 U0 3.180556 1_555
Te14 U10 3.321448 1_555
Te15 U1 3.182741 1_555
Te15 U1 3.182741 1_655
Te15 U7 3.209563 1_555
Te15 U7 3.209563 1_655
Te15 U11 3.307161 1_555
Te16 U8 3.174089 1_455
Te16 U8 3.174089 1_555
Te16 U10 3.185648 1_455
Te16 U10 3.185648 1_555
Te16 U0 3.238570 1_555
Te17 U11 3.174089 1_455
Te17 U11 3.174089 1_555
Te17 U9 3.185648 1_555
Te17 U9 3.185648 1_455
Te17 U1 3.238570 1_555
Te18 U6 3.214530 1_555
Te18 U6 3.214530 1_655
Te18 U4 3.214530 1_555
Te18 U4 3.214530 1_655
Te18 U2 3.267624 1_555
Te19 U5 3.171336 1_655
Te19 U7 3.171336 1_555
Te19 U5 3.171336 1_555
Te19 U7 3.171336 1_655
Te19 U3 3.243190 1_555
