# generated using pymatgen
data_H7C2SNO
_symmetry_space_group_name_H-M   'P 1'
_cell_length_a   6.39984100
_cell_length_b   10.36272200
_cell_length_c   18.49972400
_cell_angle_alpha   90.00000000
_cell_angle_beta   90.00000000
_cell_angle_gamma   90.00000000
_symmetry_Int_Tables_number   1
_chemical_formula_structural   H7C2SNO
_chemical_formula_sum   'H56 C16 S8 N8 O8'
_cell_volume   1226.89749860
_cell_formula_units_Z   8
loop_
 _symmetry_equiv_pos_site_id
 _symmetry_equiv_pos_as_xyz
  1  'x, y, z'
loop_
 _atom_site_type_symbol
 _atom_site_label
 _atom_site_symmetry_multiplicity
 _atom_site_fract_x
 _atom_site_fract_y
 _atom_site_fract_z
 _atom_site_occupancy
  H  H0  1  0.77038800  0.99247800  0.46217400  1
  H  H1  1  0.27038800  0.50752200  0.53782600  1
  H  H2  1  0.22961200  0.49247800  0.03782600  1
  H  H3  1  0.72961200  0.00752200  0.96217400  1
  H  H4  1  0.22961200  0.00752200  0.53782600  1
  H  H5  1  0.72961200  0.49247800  0.46217400  1
  H  H6  1  0.77038800  0.50752200  0.96217400  1
  H  H7  1  0.27038800  0.99247800  0.03782600  1
  H  H8  1  0.49146000  0.18493900  0.27620000  1
  H  H9  1  0.99146000  0.31506100  0.72380000  1
  H  H10  1  0.50854000  0.68493900  0.22380000  1
  H  H11  1  0.00854000  0.81506100  0.77620000  1
  H  H12  1  0.50854000  0.81506100  0.72380000  1
  H  H13  1  0.00854000  0.68493900  0.27620000  1
  H  H14  1  0.49146000  0.31506100  0.77620000  1
  H  H15  1  0.99146000  0.18493900  0.22380000  1
  H  H16  1  0.39409800  0.89312700  0.40514700  1
  H  H17  1  0.89409800  0.60687300  0.59485300  1
  H  H18  1  0.60590200  0.39312700  0.09485300  1
  H  H19  1  0.10590200  0.10687300  0.90514700  1
  H  H20  1  0.60590200  0.10687300  0.59485300  1
  H  H21  1  0.10590200  0.39312700  0.40514700  1
  H  H22  1  0.39409800  0.60687300  0.90514700  1
  H  H23  1  0.89409800  0.89312700  0.09485300  1
  H  H24  1  0.90070000  0.00683900  0.37542800  1
  H  H25  1  0.40070000  0.49316100  0.62457200  1
  H  H26  1  0.09930000  0.50683900  0.12457200  1
  H  H27  1  0.59930000  0.99316100  0.87542800  1
  H  H28  1  0.09930000  0.99316100  0.62457200  1
  H  H29  1  0.59930000  0.50683900  0.37542800  1
  H  H30  1  0.90070000  0.49316100  0.87542800  1
  H  H31  1  0.40070000  0.00683900  0.12457200  1
  H  H32  1  0.31131500  0.96032400  0.32003800  1
  H  H33  1  0.81131500  0.53967600  0.67996200  1
  H  H34  1  0.68868500  0.46032400  0.17996200  1
  H  H35  1  0.18868500  0.03967600  0.82003800  1
  H  H36  1  0.68868500  0.03967600  0.67996200  1
  H  H37  1  0.18868500  0.46032400  0.32003800  1
  H  H38  1  0.31131500  0.53967600  0.82003800  1
  H  H39  1  0.81131500  0.96032400  0.17996200  1
  H  H40  1  0.86952500  0.14714500  0.43241000  1
  H  H41  1  0.36952500  0.35285500  0.56759000  1
  H  H42  1  0.13047500  0.64714500  0.06759000  1
  H  H43  1  0.63047500  0.85285500  0.93241000  1
  H  H44  1  0.13047500  0.85285500  0.56759000  1
  H  H45  1  0.63047500  0.64714500  0.43241000  1
  H  H46  1  0.86952500  0.35285500  0.93241000  1
  H  H47  1  0.36952500  0.14714500  0.06759000  1
  H  H48  1  0.56042500  0.87945400  0.32636900  1
  H  H49  1  0.06042500  0.62054600  0.67363100  1
  H  H50  1  0.43957500  0.37945400  0.17363100  1
  H  H51  1  0.93957500  0.12054600  0.82636900  1
  H  H52  1  0.43957500  0.12054600  0.67363100  1
  H  H53  1  0.93957500  0.37945400  0.32636900  1
  H  H54  1  0.56042500  0.62054600  0.82636900  1
  H  H55  1  0.06042500  0.87945400  0.17363100  1
  C  C0  1  0.44576300  0.93916000  0.35499800  1
  C  C1  1  0.94576300  0.56084000  0.64500200  1
  C  C2  1  0.55423700  0.43916000  0.14500200  1
  C  C3  1  0.05423700  0.06084000  0.85499800  1
  C  C4  1  0.55423700  0.06084000  0.64500200  1
  C  C5  1  0.05423700  0.43916000  0.35499800  1
  C  C6  1  0.44576300  0.56084000  0.85499800  1
  C  C7  1  0.94576300  0.93916000  0.14500200  1
  C  C8  1  0.80202400  0.05467200  0.41550500  1
  C  C9  1  0.30202400  0.44532800  0.58449500  1
  C  C10  1  0.19797600  0.55467200  0.08449500  1
  C  C11  1  0.69797600  0.94532800  0.91550500  1
  C  C12  1  0.19797600  0.94532800  0.58449500  1
  C  C13  1  0.69797600  0.55467200  0.41550500  1
  C  C14  1  0.80202400  0.44532800  0.91550500  1
  C  C15  1  0.30202400  0.05467200  0.08449500  1
  S  S0  1  0.55850000  0.09384200  0.37539600  1
  S  S1  1  0.05850000  0.40615800  0.62460400  1
  S  S2  1  0.44150000  0.59384200  0.12460400  1
  S  S3  1  0.94150000  0.90615800  0.87539600  1
  S  S4  1  0.44150000  0.90615800  0.62460400  1
  S  S5  1  0.94150000  0.59384200  0.37539600  1
  S  S6  1  0.55850000  0.40615800  0.87539600  1
  S  S7  1  0.05850000  0.09384200  0.12460400  1
  N  N0  1  0.62282100  0.16667000  0.30665000  1
  N  N1  1  0.12282100  0.33333000  0.69335000  1
  N  N2  1  0.37717900  0.66667000  0.19335000  1
  N  N3  1  0.87717900  0.83333000  0.80665000  1
  N  N4  1  0.37717900  0.83333000  0.69335000  1
  N  N5  1  0.87717900  0.66667000  0.30665000  1
  N  N6  1  0.62282100  0.33333000  0.80665000  1
  N  N7  1  0.12282100  0.16667000  0.19335000  1
  O  O0  1  0.42176400  0.15189300  0.43010600  1
  O  O1  1  0.92176400  0.34810700  0.56989400  1
  O  O2  1  0.57823600  0.65189300  0.06989400  1
  O  O3  1  0.07823600  0.84810700  0.93010600  1
  O  O4  1  0.57823600  0.84810700  0.56989400  1
  O  O5  1  0.07823600  0.65189300  0.43010600  1
  O  O6  1  0.42176400  0.34810700  0.93010600  1
  O  O7  1  0.92176400  0.15189300  0.06989400  1
loop_
_geom_bond_atom_site_label_1
_geom_bond_atom_site_label_2
_geom_bond_distance
_geom_bond_site_symmetry_2
H8 N0 1.029527 1_555
H9 N1 1.029527 1_655
H10 N2 1.029527 1_555
H11 N3 1.029527 1_455
H12 N4 1.029527 1_555
H13 N5 1.029527 1_455
H14 N6 1.029527 1_555
H15 N7 1.029527 1_655
C0 H16 1.094344 1_555
C0 H48 1.096269 1_555
C0 H32 1.098523 1_555
C0 S0 1.797869 1_565
C1 H17 1.094344 1_555
C1 H49 1.096269 1_655
C1 H33 1.098523 1_555
C1 S1 1.797869 1_655
C2 H18 1.094344 1_555
C2 H50 1.096269 1_555
C2 H34 1.098523 1_555
C2 S2 1.797869 1_555
C3 H19 1.094344 1_555
C3 H51 1.096269 1_455
C3 H35 1.098523 1_555
C3 S3 1.797869 1_445
C4 H20 1.094344 1_555
C4 H52 1.096269 1_555
C4 H36 1.098523 1_555
C4 S4 1.797869 1_545
C5 H21 1.094344 1_555
C5 H53 1.096269 1_455
C5 H37 1.098523 1_555
C5 S5 1.797869 1_455
C6 H22 1.094344 1_555
C6 H54 1.096269 1_555
C6 H38 1.098523 1_555
C6 S6 1.797869 1_555
C7 H23 1.094344 1_555
C7 H55 1.096269 1_655
C7 H39 1.098523 1_555
C7 S7 1.797869 1_665
C8 H24 1.092794 1_555
C8 H0 1.096252 1_545
C8 H40 1.096682 1_555
C8 S0 1.773218 1_555
C9 H25 1.092794 1_555
C9 H1 1.096252 1_555
C9 H41 1.096682 1_555
C9 S1 1.773218 1_555
C10 H26 1.092794 1_555
C10 H2 1.096252 1_555
C10 H42 1.096682 1_555
C10 S2 1.773218 1_555
C11 H27 1.092794 1_555
C11 H3 1.096252 1_565
C11 H43 1.096682 1_555
C11 S3 1.773218 1_555
C12 H28 1.092794 1_555
C12 H4 1.096252 1_565
C12 H44 1.096682 1_555
C12 S4 1.773218 1_555
C13 H29 1.092794 1_555
C13 H5 1.096252 1_555
C13 H45 1.096682 1_555
C13 S5 1.773218 1_555
C14 H30 1.092794 1_555
C14 H6 1.096252 1_555
C14 H46 1.096682 1_555
C14 S6 1.773218 1_555
C15 H31 1.092794 1_555
C15 H7 1.096252 1_545
C15 H47 1.096682 1_555
C15 S7 1.773218 1_555
N0 S0 1.535072 1_555
N1 S1 1.535072 1_555
N2 S2 1.535072 1_555
N3 S3 1.535072 1_555
N4 S4 1.535072 1_555
N5 S5 1.535072 1_555
N6 S6 1.535072 1_555
N7 S7 1.535072 1_555
O0 S0 1.466986 1_555
O1 S1 1.466986 1_655
O2 S2 1.466986 1_555
O3 S3 1.466986 1_455
O4 S4 1.466986 1_555
O5 S5 1.466986 1_455
O6 S6 1.466986 1_555
O7 S7 1.466986 1_655
