# generated using pymatgen
data_GdTlS2O9
_symmetry_space_group_name_H-M   'P 1'
_cell_length_a   8.52638600
_cell_length_b   10.59910682
_cell_length_c   10.28458937
_cell_angle_alpha   119.84619338
_cell_angle_beta   90.00000000
_cell_angle_gamma   90.00000000
_symmetry_Int_Tables_number   1
_chemical_formula_structural   GdTlS2O9
_chemical_formula_sum   'Gd4 Tl4 S8 O36'
_cell_volume   806.16299112
_cell_formula_units_Z   4
loop_
 _symmetry_equiv_pos_site_id
 _symmetry_equiv_pos_as_xyz
  1  'x, y, z'
loop_
 _atom_site_type_symbol
 _atom_site_label
 _atom_site_symmetry_multiplicity
 _atom_site_fract_x
 _atom_site_fract_y
 _atom_site_fract_z
 _atom_site_occupancy
  Gd  Gd0  1  0.35571900  0.96202200  0.71709400  1
  Gd  Gd1  1  0.64428100  0.03797800  0.28290600  1
  Gd  Gd2  1  0.85571900  0.53797800  0.78290600  1
  Gd  Gd3  1  0.14428100  0.46202200  0.21709400  1
  Tl  Tl0  1  0.33013700  0.68769800  0.96754900  1
  Tl  Tl1  1  0.66986300  0.31230200  0.03245100  1
  Tl  Tl2  1  0.83013700  0.81230200  0.53245100  1
  Tl  Tl3  1  0.16986300  0.18769800  0.46754900  1
  S  S0  1  0.13050900  0.31694100  0.87209700  1
  S  S1  1  0.86949100  0.68305900  0.12790300  1
  S  S2  1  0.63050900  0.18305900  0.62790300  1
  S  S3  1  0.36949100  0.81694100  0.37209700  1
  S  S4  1  0.20036200  0.60298300  0.59878400  1
  S  S5  1  0.79963800  0.39701700  0.40121600  1
  S  S6  1  0.70036200  0.89701700  0.90121600  1
  S  S7  1  0.29963800  0.10298300  0.09878400  1
  O  O0  1  0.78060500  0.03979700  0.96774400  1
  O  O1  1  0.21939500  0.96020300  0.03225600  1
  O  O2  1  0.28060500  0.46020300  0.53225600  1
  O  O3  1  0.71939500  0.53979700  0.46774400  1
  O  O4  1  0.20490100  0.17768500  0.76215200  1
  O  O5  1  0.79509900  0.82231500  0.23784800  1
  O  O6  1  0.70490100  0.32231500  0.73784800  1
  O  O7  1  0.29509900  0.67768500  0.26215200  1
  O  O8  1  0.31375900  0.72426000  0.67488100  1
  O  O9  1  0.68624100  0.27574000  0.32511900  1
  O  O10  1  0.81375900  0.77574000  0.82511900  1
  O  O11  1  0.18624100  0.22426000  0.17488100  1
  O  O12  1  0.38354100  0.11712600  0.97931900  1
  O  O13  1  0.61645900  0.88287400  0.02068100  1
  O  O14  1  0.88354100  0.38287400  0.52068100  1
  O  O15  1  0.11645900  0.61712600  0.47931900  1
  O  O16  1  0.09153400  0.94437400  0.76826900  1
  O  O17  1  0.90846600  0.05562600  0.23173100  1
  O  O18  1  0.59153400  0.55562600  0.73173100  1
  O  O19  1  0.40846600  0.44437400  0.26826900  1
  O  O20  1  0.25099900  0.42042000  0.97940200  1
  O  O21  1  0.74900100  0.57958000  0.02059800  1
  O  O22  1  0.75099900  0.07958000  0.52059800  1
  O  O23  1  0.24900100  0.92042000  0.47940200  1
  O  O24  1  0.01289400  0.29826200  0.96835300  1
  O  O25  1  0.98710600  0.70173800  0.03164700  1
  O  O26  1  0.51289400  0.20173800  0.53164700  1
  O  O27  1  0.48710600  0.79826200  0.46835300  1
  O  O28  1  0.05838100  0.38093700  0.78615200  1
  O  O29  1  0.94161900  0.61906300  0.21384800  1
  O  O30  1  0.55838100  0.11906300  0.71384800  1
  O  O31  1  0.44161900  0.88093700  0.28615200  1
  O  O32  1  0.58827200  0.88460100  0.78477900  1
  O  O33  1  0.41172800  0.11539900  0.21522100  1
  O  O34  1  0.08827200  0.61539900  0.71522100  1
  O  O35  1  0.91172800  0.38460100  0.28477900  1
loop_
_geom_bond_atom_site_label_1
_geom_bond_atom_site_label_2
_geom_bond_distance
_geom_bond_site_symmetry_2
Gd0 O16 2.341781 1_555
Gd0 O8 2.361827 1_555
Gd0 O12 2.370463 1_565
Gd0 O32 2.378688 1_555
Gd0 O30 2.410987 1_565
Gd0 O23 2.434210 1_555
Gd0 O4 2.457453 1_565
Gd0 O27 2.528323 1_555
Gd1 O17 2.341781 1_555
Gd1 O9 2.361827 1_555
Gd1 O13 2.370463 1_545
Gd1 O33 2.378688 1_555
Gd1 O31 2.410987 1_545
Gd1 O22 2.434210 1_555
Gd1 O5 2.457453 1_545
Gd1 O26 2.528323 1_555
Gd2 O18 2.341781 1_555
Gd2 O10 2.361827 1_555
Gd2 O14 2.370463 1_555
Gd2 O34 2.378688 1_655
Gd2 O28 2.410987 1_655
Gd2 O21 2.434210 1_556
Gd2 O6 2.457453 1_555
Gd2 O25 2.528323 1_556
Gd3 O19 2.341781 1_555
Gd3 O11 2.361827 1_555
Gd3 O15 2.370463 1_555
Gd3 O35 2.378688 1_455
Gd3 O29 2.410987 1_455
Gd3 O20 2.434210 1_554
Gd3 O7 2.457453 1_555
Gd3 O24 2.528323 1_554
O0 S6 1.481831 1_545
O0 Tl1 2.786322 1_556
O1 S7 1.481831 1_565
O1 Tl0 2.786322 1_554
O2 S4 1.481831 1_555
O2 Tl3 2.786322 1_555
O3 S5 1.481831 1_555
O3 Tl2 2.786322 1_555
O4 S0 1.482650 1_555
O5 S1 1.482650 1_555
O6 S2 1.482650 1_555
O7 S3 1.482650 1_555
O8 S4 1.482677 1_555
O9 S5 1.482677 1_555
O10 S6 1.482677 1_555
O11 S7 1.482677 1_555
O12 S7 1.492364 1_556
O13 S6 1.492364 1_554
O14 S5 1.492364 1_555
O15 S4 1.492364 1_555
O20 S0 1.507154 1_555
O21 S1 1.507154 1_555
O22 S2 1.507154 1_555
O23 S3 1.507154 1_555
O24 S0 1.489951 1_555
O25 S1 1.489951 1_555
O26 S2 1.489951 1_555
O27 S3 1.489951 1_555
O28 S0 1.488747 1_555
O29 S1 1.488747 1_555
O30 S2 1.488747 1_555
O31 S3 1.488747 1_555
O32 S6 1.485897 1_555
O33 S7 1.485897 1_555
O34 S4 1.485897 1_555
O35 S5 1.485897 1_555
