# generated using pymatgen
data_Mg3Si4
_symmetry_space_group_name_H-M   'P 1'
_cell_length_a   5.81317800
_cell_length_b   19.42012537
_cell_length_c   20.02911583
_cell_angle_alpha   116.26117278
_cell_angle_beta   91.60434488
_cell_angle_gamma   97.64275720
_symmetry_Int_Tables_number   1
_chemical_formula_structural   Mg3Si4
_chemical_formula_sum   'Mg48 Si64'
_cell_volume   2000.13014040
_cell_formula_units_Z   16
loop_
 _symmetry_equiv_pos_site_id
 _symmetry_equiv_pos_as_xyz
  1  'x, y, z'
loop_
 _atom_site_type_symbol
 _atom_site_label
 _atom_site_symmetry_multiplicity
 _atom_site_fract_x
 _atom_site_fract_y
 _atom_site_fract_z
 _atom_site_occupancy
  Mg  Mg0_0  1  0.42259850  0.17245050  0.43608700  1
  Mg  Mg0_1  1  0.42259850  0.17245050  0.93608700  1
  Mg  Mg0_2  1  0.42259850  0.67245050  0.43608700  1
  Mg  Mg0_3  1  0.42259850  0.67245050  0.93608700  1
  Mg  Mg0_4  1  0.92259850  0.17245050  0.43608700  1
  Mg  Mg0_5  1  0.92259850  0.17245050  0.93608700  1
  Mg  Mg0_6  1  0.92259850  0.67245050  0.43608700  1
  Mg  Mg0_7  1  0.92259850  0.67245050  0.93608700  1
  Mg  Mg1_0  1  0.09802450  0.03336000  0.43560900  1
  Mg  Mg1_1  1  0.09802450  0.03336000  0.93560900  1
  Mg  Mg1_2  1  0.09802450  0.53336000  0.43560900  1
  Mg  Mg1_3  1  0.09802450  0.53336000  0.93560900  1
  Mg  Mg1_4  1  0.59802450  0.03336000  0.43560900  1
  Mg  Mg1_5  1  0.59802450  0.03336000  0.93560900  1
  Mg  Mg1_6  1  0.59802450  0.53336000  0.43560900  1
  Mg  Mg1_7  1  0.59802450  0.53336000  0.93560900  1
  Mg  Mg2_0  1  0.44841850  0.09146500  0.10284750  1
  Mg  Mg2_1  1  0.44841850  0.09146500  0.60284750  1
  Mg  Mg2_2  1  0.44841850  0.59146500  0.10284750  1
  Mg  Mg2_3  1  0.44841850  0.59146500  0.60284750  1
  Mg  Mg2_4  1  0.94841850  0.09146500  0.10284750  1
  Mg  Mg2_5  1  0.94841850  0.09146500  0.60284750  1
  Mg  Mg2_6  1  0.94841850  0.59146500  0.10284750  1
  Mg  Mg2_7  1  0.94841850  0.59146500  0.60284750  1
  Mg  Mg3_0  1  0.06800350  0.26528150  0.23231850  1
  Mg  Mg3_1  1  0.06800350  0.26528150  0.73231850  1
  Mg  Mg3_2  1  0.06800350  0.76528150  0.23231850  1
  Mg  Mg3_3  1  0.06800350  0.76528150  0.73231850  1
  Mg  Mg3_4  1  0.56800350  0.26528150  0.23231850  1
  Mg  Mg3_5  1  0.56800350  0.26528150  0.73231850  1
  Mg  Mg3_6  1  0.56800350  0.76528150  0.23231850  1
  Mg  Mg3_7  1  0.56800350  0.76528150  0.73231850  1
  Mg  Mg4_0  1  0.29429550  0.33084700  0.02447150  1
  Mg  Mg4_1  1  0.29429550  0.33084700  0.52447150  1
  Mg  Mg4_2  1  0.29429550  0.83084700  0.02447150  1
  Mg  Mg4_3  1  0.29429550  0.83084700  0.52447150  1
  Mg  Mg4_4  1  0.79429550  0.33084700  0.02447150  1
  Mg  Mg4_5  1  0.79429550  0.33084700  0.52447150  1
  Mg  Mg4_6  1  0.79429550  0.83084700  0.02447150  1
  Mg  Mg4_7  1  0.79429550  0.83084700  0.52447150  1
  Mg  Mg5_0  1  0.18318900  0.47318400  0.16643200  1
  Mg  Mg5_1  1  0.18318900  0.47318400  0.66643200  1
  Mg  Mg5_2  1  0.18318900  0.97318400  0.16643200  1
  Mg  Mg5_3  1  0.18318900  0.97318400  0.66643200  1
  Mg  Mg5_4  1  0.68318900  0.47318400  0.16643200  1
  Mg  Mg5_5  1  0.68318900  0.47318400  0.66643200  1
  Mg  Mg5_6  1  0.68318900  0.97318400  0.16643200  1
  Mg  Mg5_7  1  0.68318900  0.97318400  0.66643200  1
  Si  Si0_0  1  0.23135850  0.20322100  0.07029650  1
  Si  Si0_1  1  0.23135850  0.20322100  0.57029650  1
  Si  Si0_2  1  0.23135850  0.70322100  0.07029650  1
  Si  Si0_3  1  0.23135850  0.70322100  0.57029650  1
  Si  Si0_4  1  0.73135850  0.20322100  0.07029650  1
  Si  Si0_5  1  0.73135850  0.20322100  0.57029650  1
  Si  Si0_6  1  0.73135850  0.70322100  0.07029650  1
  Si  Si0_7  1  0.73135850  0.70322100  0.57029650  1
  Si  Si1_0  1  0.34262250  0.34237300  0.16665550  1
  Si  Si1_1  1  0.34262250  0.34237300  0.66665550  1
  Si  Si1_2  1  0.34262250  0.84237300  0.16665550  1
  Si  Si1_3  1  0.34262250  0.84237300  0.66665550  1
  Si  Si1_4  1  0.84262250  0.34237300  0.16665550  1
  Si  Si1_5  1  0.84262250  0.34237300  0.66665550  1
  Si  Si1_6  1  0.84262250  0.84237300  0.16665550  1
  Si  Si1_7  1  0.84262250  0.84237300  0.66665550  1
  Si  Si2_0  1  0.24392700  0.37915150  0.38712100  1
  Si  Si2_1  1  0.24392700  0.37915150  0.88712100  1
  Si  Si2_2  1  0.24392700  0.87915150  0.38712100  1
  Si  Si2_3  1  0.24392700  0.87915150  0.88712100  1
  Si  Si2_4  1  0.74392700  0.37915150  0.38712100  1
  Si  Si2_5  1  0.74392700  0.37915150  0.88712100  1
  Si  Si2_6  1  0.74392700  0.87915150  0.38712100  1
  Si  Si2_7  1  0.74392700  0.87915150  0.88712100  1
  Si  Si3_0  1  0.19651200  0.24414100  0.36478850  1
  Si  Si3_1  1  0.19651200  0.24414100  0.86478850  1
  Si  Si3_2  1  0.19651200  0.74414100  0.36478850  1
  Si  Si3_3  1  0.19651200  0.74414100  0.86478850  1
  Si  Si3_4  1  0.69651200  0.24414100  0.36478850  1
  Si  Si3_5  1  0.69651200  0.24414100  0.86478850  1
  Si  Si3_6  1  0.69651200  0.74414100  0.36478850  1
  Si  Si3_7  1  0.69651200  0.74414100  0.86478850  1
  Si  Si4_0  1  0.27040950  0.14398300  0.24446900  1
  Si  Si4_1  1  0.27040950  0.14398300  0.74446900  1
  Si  Si4_2  1  0.27040950  0.64398300  0.24446900  1
  Si  Si4_3  1  0.27040950  0.64398300  0.74446900  1
  Si  Si4_4  1  0.77040950  0.14398300  0.24446900  1
  Si  Si4_5  1  0.77040950  0.14398300  0.74446900  1
  Si  Si4_6  1  0.77040950  0.64398300  0.24446900  1
  Si  Si4_7  1  0.77040950  0.64398300  0.74446900  1
  Si  Si5_0  1  0.28913000  0.43753650  0.29862300  1
  Si  Si5_1  1  0.28913000  0.43753650  0.79862300  1
  Si  Si5_2  1  0.28913000  0.93753650  0.29862300  1
  Si  Si5_3  1  0.28913000  0.93753650  0.79862300  1
  Si  Si5_4  1  0.78913000  0.43753650  0.29862300  1
  Si  Si5_5  1  0.78913000  0.43753650  0.79862300  1
  Si  Si5_6  1  0.78913000  0.93753650  0.29862300  1
  Si  Si5_7  1  0.78913000  0.93753650  0.79862300  1
  Si  Si6_0  1  0.03410450  0.05943900  0.30479200  1
  Si  Si6_1  1  0.03410450  0.05943900  0.80479200  1
  Si  Si6_2  1  0.03410450  0.55943900  0.30479200  1
  Si  Si6_3  1  0.03410450  0.55943900  0.80479200  1
  Si  Si6_4  1  0.53410450  0.05943900  0.30479200  1
  Si  Si6_5  1  0.53410450  0.05943900  0.80479200  1
  Si  Si6_6  1  0.53410450  0.55943900  0.30479200  1
  Si  Si6_7  1  0.53410450  0.55943900  0.80479200  1
  Si  Si7_0  1  0.12414650  0.45025100  0.01552750  1
  Si  Si7_1  1  0.12414650  0.45025100  0.51552750  1
  Si  Si7_2  1  0.12414650  0.95025100  0.01552750  1
  Si  Si7_3  1  0.12414650  0.95025100  0.51552750  1
  Si  Si7_4  1  0.62414650  0.45025100  0.01552750  1
  Si  Si7_5  1  0.62414650  0.45025100  0.51552750  1
  Si  Si7_6  1  0.62414650  0.95025100  0.01552750  1
  Si  Si7_7  1  0.62414650  0.95025100  0.51552750  1
loop_
_geom_bond_atom_site_label_1
_geom_bond_atom_site_label_2
_geom_bond_distance
_geom_bond_site_symmetry_2
Mg0_0 Si6_4 2.742052 1_555
Mg0_0 Si0_1 2.782341 1_555
Mg0_0 Si3_4 2.794662 1_555
Mg0_0 Si3_0 2.801069 1_555
Mg0_0 Si0_5 2.971129 1_555
Mg0_0 Mg1_4 3.007765 1_555
Mg0_0 Mg1_0 3.078446 1_555
Mg0_0 Si6_0 3.173988 1_555
Mg0_1 Si6_5 2.742052 1_555
Mg0_1 Si0_0 2.782341 1_556
Mg0_1 Si3_5 2.794662 1_555
Mg0_1 Si3_1 2.801069 1_555
Mg0_1 Si0_4 2.971129 1_556
Mg0_1 Mg1_5 3.007765 1_555
Mg0_1 Mg1_1 3.078446 1_555
Mg0_1 Si6_1 3.173988 1_555
Mg0_2 Si6_6 2.742052 1_555
Mg0_2 Si0_3 2.782341 1_555
Mg0_2 Si3_6 2.794662 1_555
Mg0_2 Si3_2 2.801069 1_555
Mg0_2 Si0_7 2.971129 1_555
Mg0_2 Mg1_6 3.007765 1_555
Mg0_2 Mg1_2 3.078446 1_555
Mg0_2 Si6_2 3.173988 1_555
Mg0_3 Si6_7 2.742052 1_555
Mg0_3 Si0_2 2.782341 1_556
Mg0_3 Si3_7 2.794662 1_555
Mg0_3 Si3_3 2.801069 1_555
Mg0_3 Si0_6 2.971129 1_556
Mg0_3 Mg1_7 3.007765 1_555
Mg0_3 Mg1_3 3.078446 1_555
Mg0_3 Si6_3 3.173988 1_555
Mg0_4 Si6_0 2.742052 1_655
Mg0_4 Si0_5 2.782341 1_555
Mg0_4 Si3_0 2.794662 1_655
Mg0_4 Si3_4 2.801069 1_555
Mg0_4 Si0_1 2.971129 1_655
Mg0_4 Mg1_0 3.007765 1_655
Mg0_4 Mg1_4 3.078446 1_555
Mg0_4 Si6_4 3.173988 1_555
Mg0_5 Si6_1 2.742052 1_655
Mg0_5 Si0_4 2.782341 1_556
Mg0_5 Si3_1 2.794662 1_655
Mg0_5 Si3_5 2.801069 1_555
Mg0_5 Si0_0 2.971129 1_656
Mg0_5 Mg1_1 3.007765 1_655
Mg0_5 Mg1_5 3.078446 1_555
Mg0_5 Si6_5 3.173988 1_555
Mg0_6 Si6_2 2.742052 1_655
Mg0_6 Si0_7 2.782341 1_555
Mg0_6 Si3_2 2.794662 1_655
Mg0_6 Si3_6 2.801069 1_555
Mg0_6 Si0_3 2.971129 1_655
Mg0_6 Mg1_2 3.007765 1_655
Mg0_6 Mg1_6 3.078446 1_555
Mg0_6 Si6_6 3.173988 1_555
Mg0_7 Si6_3 2.742052 1_655
Mg0_7 Si0_6 2.782341 1_556
Mg0_7 Si3_3 2.794662 1_655
Mg0_7 Si3_7 2.801069 1_555
Mg0_7 Si0_2 2.971129 1_656
Mg0_7 Mg1_3 3.007765 1_655
Mg0_7 Mg1_7 3.078446 1_555
Mg0_7 Si6_7 3.173988 1_555
Mg1_0 Si7_3 2.743727 1_545
Mg1_0 Si5_2 2.902998 1_545
Mg1_0 Si6_0 2.903374 1_555
Mg1_0 Mg1_4 2.906589 1_455
Mg1_0 Mg1_4 2.906589 1_555
Mg1_0 Si5_6 2.921019 1_445
Mg1_0 Si2_2 2.962951 1_545
Mg1_0 Si2_6 3.134239 1_445
Mg1_0 Si0_1 3.176121 1_555
Mg1_0 Mg2_5 3.213890 1_455
Mg1_1 Si7_2 2.743727 1_546
Mg1_1 Si5_3 2.902998 1_545
Mg1_1 Si6_1 2.903374 1_555
Mg1_1 Mg1_5 2.906589 1_555
Mg1_1 Mg1_5 2.906589 1_455
Mg1_1 Si5_7 2.921019 1_445
Mg1_1 Si2_3 2.962951 1_545
Mg1_1 Si2_7 3.134239 1_445
Mg1_1 Si0_0 3.176121 1_556
Mg1_1 Mg2_4 3.213890 1_456
Mg1_2 Si7_1 2.743727 1_555
Mg1_2 Si5_0 2.902998 1_555
Mg1_2 Si6_2 2.903374 1_555
Mg1_2 Mg1_6 2.906589 1_455
Mg1_2 Mg1_6 2.906589 1_555
Mg1_2 Si5_4 2.921019 1_455
Mg1_2 Si2_0 2.962951 1_555
Mg1_2 Si2_4 3.134239 1_455
Mg1_2 Si0_3 3.176121 1_555
Mg1_2 Mg2_7 3.213890 1_455
Mg1_3 Si7_0 2.743727 1_556
Mg1_3 Si5_1 2.902998 1_555
Mg1_3 Si6_3 2.903374 1_555
Mg1_3 Mg1_7 2.906589 1_555
Mg1_3 Mg1_7 2.906589 1_455
Mg1_3 Si5_5 2.921019 1_455
Mg1_3 Si2_1 2.962951 1_555
Mg1_3 Si2_5 3.134239 1_455
Mg1_3 Si0_2 3.176121 1_556
Mg1_3 Mg2_6 3.213890 1_456
Mg1_4 Si7_7 2.743727 1_545
Mg1_4 Si5_6 2.902998 1_545
Mg1_4 Si6_4 2.903374 1_555
Mg1_4 Si5_2 2.921019 1_545
Mg1_4 Si2_6 2.962951 1_545
Mg1_4 Si2_2 3.134239 1_545
Mg1_4 Si0_5 3.176121 1_555
Mg1_4 Mg2_1 3.213890 1_555
Mg1_5 Si7_6 2.743727 1_546
Mg1_5 Si5_7 2.902998 1_545
Mg1_5 Si6_5 2.903374 1_555
Mg1_5 Si5_3 2.921019 1_545
Mg1_5 Si2_7 2.962951 1_545
Mg1_5 Si2_3 3.134239 1_545
Mg1_5 Si0_4 3.176121 1_556
Mg1_5 Mg2_0 3.213890 1_556
Mg1_6 Si7_5 2.743727 1_555
Mg1_6 Si5_4 2.902998 1_555
Mg1_6 Si6_6 2.903374 1_555
Mg1_6 Si5_0 2.921019 1_555
Mg1_6 Si2_4 2.962951 1_555
Mg1_6 Si2_0 3.134239 1_555
Mg1_6 Si0_7 3.176121 1_555
Mg1_6 Mg2_3 3.213890 1_555
Mg1_7 Si7_4 2.743727 1_556
Mg1_7 Si5_5 2.902998 1_555
Mg1_7 Si6_7 2.903374 1_555
Mg1_7 Si5_1 2.921019 1_555
Mg1_7 Si2_5 2.962951 1_555
Mg1_7 Si2_1 3.134239 1_555
Mg1_7 Si0_6 3.176121 1_556
Mg1_7 Mg2_2 3.213890 1_556
Mg2_0 Si4_0 2.835847 1_555
Mg2_0 Si0_4 2.864144 1_555
Mg2_0 Si7_6 2.867735 1_545
Mg2_0 Si7_2 2.885985 1_545
Mg2_0 Si0_0 2.943128 1_555
Mg2_0 Si4_4 3.037209 1_555
Mg2_0 Mg3_4 3.182909 1_555
Mg2_1 Si4_1 2.835847 1_555
Mg2_1 Si0_5 2.864144 1_555
Mg2_1 Si7_7 2.867735 1_545
Mg2_1 Si7_3 2.885985 1_545
Mg2_1 Si0_1 2.943128 1_555
Mg2_1 Si4_5 3.037209 1_555
Mg2_1 Mg3_5 3.182909 1_555
Mg2_2 Si4_2 2.835847 1_555
Mg2_2 Si0_6 2.864144 1_555
Mg2_2 Si7_4 2.867735 1_555
Mg2_2 Si7_0 2.885985 1_555
Mg2_2 Si0_2 2.943128 1_555
Mg2_2 Si4_6 3.037209 1_555
Mg2_2 Mg3_6 3.182909 1_555
Mg2_3 Si4_3 2.835847 1_555
Mg2_3 Si0_7 2.864144 1_555
Mg2_3 Si7_5 2.867735 1_555
Mg2_3 Si7_1 2.885985 1_555
Mg2_3 Si0_3 2.943128 1_555
Mg2_3 Si4_7 3.037209 1_555
Mg2_3 Mg3_7 3.182909 1_555
Mg2_4 Si4_4 2.835847 1_555
Mg2_4 Si0_0 2.864144 1_655
Mg2_4 Si7_2 2.867735 1_645
Mg2_4 Si7_6 2.885985 1_545
Mg2_4 Si0_4 2.943128 1_555
Mg2_4 Si4_0 3.037209 1_655
Mg2_4 Mg3_0 3.182909 1_655
Mg2_5 Si4_5 2.835847 1_555
Mg2_5 Si0_1 2.864144 1_655
Mg2_5 Si7_3 2.867735 1_645
Mg2_5 Si7_7 2.885985 1_545
Mg2_5 Si0_5 2.943128 1_555
Mg2_5 Si4_1 3.037209 1_655
Mg2_5 Mg3_1 3.182909 1_655
Mg2_6 Si4_6 2.835847 1_555
Mg2_6 Si0_2 2.864144 1_655
Mg2_6 Si7_0 2.867735 1_655
Mg2_6 Si7_4 2.885985 1_555
Mg2_6 Si0_6 2.943128 1_555
Mg2_6 Si4_2 3.037209 1_655
Mg2_6 Mg3_2 3.182909 1_655
Mg2_7 Si4_7 2.835847 1_555
Mg2_7 Si0_3 2.864144 1_655
Mg2_7 Si7_1 2.867735 1_655
Mg2_7 Si7_5 2.885985 1_555
Mg2_7 Si0_7 2.943128 1_555
Mg2_7 Si4_3 3.037209 1_655
Mg2_7 Mg3_3 3.182909 1_655
Mg3_0 Si1_0 2.782773 1_555
Mg3_0 Si1_4 2.802731 1_455
Mg3_0 Si4_4 2.836888 1_455
Mg3_0 Si4_0 2.867261 1_555
Mg3_0 Mg3_4 2.906589 1_455
Mg3_0 Mg3_4 2.906589 1_555
Mg3_0 Si3_0 2.949735 1_555
Mg3_0 Si2_0 2.950067 1_555
Mg3_0 Si5_0 3.071773 1_555
Mg3_0 Si0_0 3.146630 1_555
Mg3_1 Si1_1 2.782773 1_555
Mg3_1 Si1_5 2.802731 1_455
Mg3_1 Si4_5 2.836888 1_455
Mg3_1 Si4_1 2.867261 1_555
Mg3_1 Mg3_5 2.906589 1_455
Mg3_1 Mg3_5 2.906589 1_555
Mg3_1 Si3_1 2.949735 1_555
Mg3_1 Si2_1 2.950067 1_555
Mg3_1 Si5_1 3.071773 1_555
Mg3_1 Si0_1 3.146630 1_555
Mg3_2 Si1_2 2.782773 1_555
Mg3_2 Si1_6 2.802731 1_455
Mg3_2 Si4_6 2.836888 1_455
Mg3_2 Si4_2 2.867261 1_555
Mg3_2 Mg3_6 2.906589 1_455
Mg3_2 Mg3_6 2.906589 1_555
Mg3_2 Si3_2 2.949735 1_555
Mg3_2 Si2_2 2.950067 1_555
Mg3_2 Si5_2 3.071773 1_555
Mg3_2 Si0_2 3.146630 1_555
Mg3_3 Si1_3 2.782773 1_555
Mg3_3 Si1_7 2.802731 1_455
Mg3_3 Si4_7 2.836888 1_455
Mg3_3 Si4_3 2.867261 1_555
Mg3_3 Mg3_7 2.906589 1_555
Mg3_3 Mg3_7 2.906589 1_455
Mg3_3 Si3_3 2.949735 1_555
Mg3_3 Si2_3 2.950067 1_555
Mg3_3 Si5_3 3.071773 1_555
Mg3_3 Si0_3 3.146630 1_555
Mg3_4 Si1_4 2.782773 1_555
Mg3_4 Si1_0 2.802731 1_555
Mg3_4 Si4_0 2.836888 1_555
Mg3_4 Si4_4 2.867261 1_555
Mg3_4 Si3_4 2.949735 1_555
Mg3_4 Si2_4 2.950067 1_555
Mg3_4 Si5_4 3.071773 1_555
Mg3_4 Si0_4 3.146630 1_555
Mg3_5 Si1_5 2.782773 1_555
Mg3_5 Si1_1 2.802731 1_555
Mg3_5 Si4_1 2.836888 1_555
Mg3_5 Si4_5 2.867261 1_555
Mg3_5 Si3_5 2.949735 1_555
Mg3_5 Si2_5 2.950067 1_555
Mg3_5 Si5_5 3.071773 1_555
Mg3_5 Si0_5 3.146630 1_555
Mg3_6 Si1_6 2.782773 1_555
Mg3_6 Si1_2 2.802731 1_555
Mg3_6 Si4_2 2.836888 1_555
Mg3_6 Si4_6 2.867261 1_555
Mg3_6 Si3_6 2.949735 1_555
Mg3_6 Si2_6 2.950067 1_555
Mg3_6 Si5_6 3.071773 1_555
Mg3_6 Si0_6 3.146630 1_555
Mg3_7 Si1_7 2.782773 1_555
Mg3_7 Si1_3 2.802731 1_555
Mg3_7 Si4_3 2.836888 1_555
Mg3_7 Si4_7 2.867261 1_555
Mg3_7 Si3_7 2.949735 1_555
Mg3_7 Si2_7 2.950067 1_555
Mg3_7 Si5_7 3.071773 1_555
Mg3_7 Si0_7 3.146630 1_555
Mg4_0 Si7_0 2.712046 1_555
Mg4_0 Si1_0 2.759255 1_555
Mg4_0 Si3_1 2.874978 1_554
Mg4_0 Si7_4 2.879235 1_555
Mg4_0 Si0_0 2.984961 1_555
Mg4_1 Si7_1 2.712046 1_555
Mg4_1 Si1_1 2.759255 1_555
Mg4_1 Si3_0 2.874978 1_555
Mg4_1 Si7_5 2.879235 1_555
Mg4_1 Si0_1 2.984961 1_555
Mg4_2 Si7_2 2.712046 1_555
Mg4_2 Si1_2 2.759255 1_555
Mg4_2 Si3_3 2.874978 1_554
Mg4_2 Si7_6 2.879235 1_555
Mg4_2 Si0_2 2.984961 1_555
Mg4_3 Si7_3 2.712046 1_555
Mg4_3 Si1_3 2.759255 1_555
Mg4_3 Si3_2 2.874978 1_555
Mg4_3 Si7_7 2.879235 1_555
Mg4_3 Si0_3 2.984961 1_555
Mg4_4 Si7_4 2.712046 1_555
Mg4_4 Si1_4 2.759255 1_555
Mg4_4 Si3_5 2.874978 1_554
Mg4_4 Si7_0 2.879235 1_655
Mg4_4 Si0_4 2.984961 1_555
Mg4_5 Si7_5 2.712046 1_555
Mg4_5 Si1_5 2.759255 1_555
Mg4_5 Si3_4 2.874978 1_555
Mg4_5 Si7_1 2.879235 1_655
Mg4_5 Si0_5 2.984961 1_555
Mg4_6 Si7_6 2.712046 1_555
Mg4_6 Si1_6 2.759255 1_555
Mg4_6 Si3_7 2.874978 1_554
Mg4_6 Si7_2 2.879235 1_655
Mg4_6 Si0_6 2.984961 1_555
Mg4_7 Si7_7 2.712046 1_555
Mg4_7 Si1_7 2.759255 1_555
Mg4_7 Si3_6 2.874978 1_555
Mg4_7 Si7_3 2.879235 1_655
Mg4_7 Si0_7 2.984961 1_555
Mg5_0 Si6_2 2.765766 1_555
Mg5_0 Si1_0 2.819319 1_555
Mg5_0 Si7_0 2.856853 1_555
Mg5_0 Mg5_4 2.906589 1_555
Mg5_0 Mg5_4 2.906589 1_455
Mg5_0 Si4_2 2.936429 1_555
Mg5_0 Si1_4 3.007620 1_455
Mg5_0 Si6_6 3.051822 1_555
Mg5_0 Si5_0 3.084280 1_555
Mg5_1 Si6_3 2.765766 1_555
Mg5_1 Si1_1 2.819319 1_555
Mg5_1 Si7_1 2.856853 1_555
Mg5_1 Mg5_5 2.906589 1_555
Mg5_1 Mg5_5 2.906589 1_455
Mg5_1 Si4_3 2.936429 1_555
Mg5_1 Si1_5 3.007620 1_455
Mg5_1 Si6_7 3.051822 1_555
Mg5_1 Si5_1 3.084280 1_555
Mg5_2 Si6_0 2.765766 1_565
Mg5_2 Si1_2 2.819319 1_555
Mg5_2 Si7_2 2.856853 1_555
Mg5_2 Mg5_6 2.906589 1_555
Mg5_2 Mg5_6 2.906589 1_455
Mg5_2 Si4_0 2.936429 1_565
Mg5_2 Si1_6 3.007620 1_455
Mg5_2 Si6_4 3.051822 1_565
Mg5_2 Si5_2 3.084280 1_555
Mg5_3 Si6_1 2.765766 1_565
Mg5_3 Si1_3 2.819319 1_555
Mg5_3 Si7_3 2.856853 1_555
Mg5_3 Mg5_7 2.906589 1_455
Mg5_3 Mg5_7 2.906589 1_555
Mg5_3 Si4_1 2.936429 1_565
Mg5_3 Si1_7 3.007620 1_455
Mg5_3 Si6_5 3.051822 1_565
Mg5_3 Si5_3 3.084280 1_555
Mg5_4 Si6_6 2.765766 1_555
Mg5_4 Si1_4 2.819319 1_555
Mg5_4 Si7_4 2.856853 1_555
Mg5_4 Si4_6 2.936429 1_555
Mg5_4 Si1_0 3.007620 1_555
Mg5_4 Si6_2 3.051822 1_655
Mg5_4 Si5_4 3.084280 1_555
Mg5_5 Si6_7 2.765766 1_555
Mg5_5 Si1_5 2.819319 1_555
Mg5_5 Si7_5 2.856853 1_555
Mg5_5 Si4_7 2.936429 1_555
Mg5_5 Si1_1 3.007620 1_555
Mg5_5 Si6_3 3.051822 1_655
Mg5_5 Si5_5 3.084280 1_555
Mg5_6 Si6_4 2.765766 1_565
Mg5_6 Si1_6 2.819319 1_555
Mg5_6 Si7_6 2.856853 1_555
Mg5_6 Si4_4 2.936429 1_565
Mg5_6 Si1_2 3.007620 1_555
Mg5_6 Si6_0 3.051822 1_665
Mg5_6 Si5_6 3.084280 1_555
Mg5_7 Si6_5 2.765766 1_565
Mg5_7 Si1_7 2.819319 1_555
Mg5_7 Si7_7 2.856853 1_555
Mg5_7 Si4_5 2.936429 1_565
Mg5_7 Si1_3 3.007620 1_555
Mg5_7 Si6_1 3.051822 1_665
Mg5_7 Si5_7 3.084280 1_555
Si0_0 Si1_0 2.509129 1_555
Si0_0 Si0_4 2.906589 1_555
Si0_0 Si0_4 2.906589 1_455
Si0_1 Si1_1 2.509129 1_555
Si0_1 Si0_5 2.906589 1_555
Si0_1 Si0_5 2.906589 1_455
Si0_2 Si1_2 2.509129 1_555
Si0_2 Si0_6 2.906589 1_555
Si0_2 Si0_6 2.906589 1_455
Si0_3 Si1_3 2.509129 1_555
Si0_3 Si0_7 2.906589 1_555
Si0_3 Si0_7 2.906589 1_455
Si0_4 Si1_4 2.509129 1_555
Si0_5 Si1_5 2.509129 1_555
Si0_6 Si1_6 2.509129 1_555
Si0_7 Si1_7 2.509129 1_555
Si1_0 Si5_0 2.524824 1_555
Si1_1 Si5_1 2.524824 1_555
Si1_2 Si5_2 2.524824 1_555
Si1_3 Si5_3 2.524824 1_555
Si1_4 Si5_4 2.524824 1_555
Si1_5 Si5_5 2.524824 1_555
Si1_6 Si5_6 2.524824 1_555
Si1_7 Si5_7 2.524824 1_555
Si2_0 Si3_0 2.431781 1_555
Si2_0 Si7_1 2.493865 1_555
Si2_0 Si5_0 2.494369 1_555
Si2_0 Si2_4 2.906589 1_455
Si2_0 Si2_4 2.906589 1_555
Si2_1 Si3_1 2.431781 1_555
Si2_1 Si7_0 2.493865 1_556
Si2_1 Si5_1 2.494369 1_555
Si2_1 Si2_5 2.906589 1_555
Si2_1 Si2_5 2.906589 1_455
Si2_2 Si3_2 2.431781 1_555
Si2_2 Si7_3 2.493865 1_555
Si2_2 Si5_2 2.494369 1_555
Si2_2 Si2_6 2.906589 1_455
Si2_2 Si2_6 2.906589 1_555
Si2_3 Si3_3 2.431781 1_555
Si2_3 Si7_2 2.493865 1_556
Si2_3 Si5_3 2.494369 1_555
Si2_3 Si2_7 2.906589 1_555
Si2_3 Si2_7 2.906589 1_455
Si2_4 Si3_4 2.431781 1_555
Si2_4 Si7_5 2.493865 1_555
Si2_4 Si5_4 2.494369 1_555
Si2_5 Si3_5 2.431781 1_555
Si2_5 Si7_4 2.493865 1_556
Si2_5 Si5_5 2.494369 1_555
Si2_6 Si3_6 2.431781 1_555
Si2_6 Si7_7 2.493865 1_555
Si2_6 Si5_6 2.494369 1_555
Si2_7 Si3_7 2.431781 1_555
Si2_7 Si7_6 2.493865 1_556
Si2_7 Si5_7 2.494369 1_555
Si3_0 Si4_0 2.430565 1_555
Si3_1 Si4_1 2.430565 1_555
Si3_2 Si4_2 2.430565 1_555
Si3_3 Si4_3 2.430565 1_555
Si3_4 Si4_4 2.430565 1_555
Si3_5 Si4_5 2.430565 1_555
Si3_6 Si4_6 2.430565 1_555
Si3_7 Si4_7 2.430565 1_555
Si4_0 Si6_0 2.700175 1_555
Si4_0 Si6_4 2.970937 1_555
Si4_1 Si6_1 2.700175 1_555
Si4_1 Si6_5 2.970937 1_555
Si4_2 Si6_2 2.700175 1_555
Si4_2 Si6_6 2.970937 1_555
Si4_3 Si6_3 2.700175 1_555
Si4_3 Si6_7 2.970937 1_555
Si4_4 Si6_4 2.700175 1_555
Si4_4 Si6_0 2.970937 1_655
Si4_5 Si6_5 2.700175 1_555
Si4_5 Si6_1 2.970937 1_655
Si4_6 Si6_6 2.700175 1_555
Si4_6 Si6_2 2.970937 1_655
Si4_7 Si6_7 2.700175 1_555
Si4_7 Si6_3 2.970937 1_655
Si5_0 Si6_6 2.546022 1_555
Si5_0 Si6_2 2.915895 1_555
Si5_1 Si6_7 2.546022 1_555
Si5_1 Si6_3 2.915895 1_555
Si5_2 Si6_4 2.546022 1_565
Si5_2 Si6_0 2.915895 1_565
Si5_3 Si6_5 2.546022 1_565
Si5_3 Si6_1 2.915895 1_565
Si5_4 Si6_2 2.546022 1_655
Si5_4 Si6_6 2.915895 1_555
Si5_5 Si6_3 2.546022 1_655
Si5_5 Si6_7 2.915895 1_555
Si5_6 Si6_0 2.546022 1_665
Si5_6 Si6_4 2.915895 1_565
Si5_7 Si6_1 2.546022 1_665
Si5_7 Si6_5 2.915895 1_565
Si6_0 Si6_4 2.906589 1_555
Si6_0 Si6_4 2.906589 1_455
Si6_1 Si6_5 2.906589 1_555
Si6_1 Si6_5 2.906589 1_455
Si6_2 Si6_6 2.906589 1_555
Si6_2 Si6_6 2.906589 1_455
Si6_3 Si6_7 2.906589 1_455
Si6_3 Si6_7 2.906589 1_555
