# generated using pymatgen
data_LaNi9Ge4
_symmetry_space_group_name_H-M   'P 1'
_cell_length_a   8.17115012
_cell_length_b   8.17115012
_cell_length_c   8.17115012
_cell_angle_alpha   121.44904947
_cell_angle_beta   121.44904947
_cell_angle_gamma   87.50797736
_symmetry_Int_Tables_number   1
_chemical_formula_structural   LaNi9Ge4
_chemical_formula_sum   'La2 Ni18 Ge8'
_cell_volume   376.93860526
_cell_formula_units_Z   2
loop_
 _symmetry_equiv_pos_site_id
 _symmetry_equiv_pos_as_xyz
  1  'x, y, z'
loop_
 _atom_site_type_symbol
 _atom_site_label
 _atom_site_symmetry_multiplicity
 _atom_site_fract_x
 _atom_site_fract_y
 _atom_site_fract_z
 _atom_site_occupancy
  La  La0  1  0.75000000  0.75000000  0.00000000  1
  La  La1  1  0.25000000  0.25000000  0.00000000  1
  Ni  Ni0  1  0.06805600  0.20413300  0.27218900  1
  Ni  Ni1  1  0.93194400  0.79586700  0.72781100  1
  Ni  Ni2  1  0.56805600  0.29586700  0.86392400  1
  Ni  Ni3  1  0.43194400  0.70413300  0.13607600  1
  Ni  Ni4  1  0.79586700  0.06805600  0.86392400  1
  Ni  Ni5  1  0.20413300  0.93194400  0.13607600  1
  Ni  Ni6  1  0.70413300  0.56805600  0.27218900  1
  Ni  Ni7  1  0.29586700  0.43194400  0.72781100  1
  Ni  Ni8  1  0.44456800  0.94456800  0.75306500  1
  Ni  Ni9  1  0.19150200  0.69150200  0.24693500  1
  Ni  Ni10  1  0.94456800  0.19150200  0.50000000  1
  Ni  Ni11  1  0.69150200  0.44456800  0.50000000  1
  Ni  Ni12  1  0.55543200  0.05543200  0.24693500  1
  Ni  Ni13  1  0.80849800  0.30849800  0.75306500  1
  Ni  Ni14  1  0.05543200  0.80849800  0.50000000  1
  Ni  Ni15  1  0.30849800  0.55543200  0.50000000  1
  Ni  Ni16  1  0.00000000  0.50000000  0.50000000  1
  Ni  Ni17  1  0.50000000  0.00000000  0.50000000  1
  Ge  Ge0  1  0.05099700  0.55099700  0.84391400  1
  Ge  Ge1  1  0.70708300  0.20708300  0.15608600  1
  Ge  Ge2  1  0.55099700  0.70708300  0.50000000  1
  Ge  Ge3  1  0.20708300  0.05099700  0.50000000  1
  Ge  Ge4  1  0.94900300  0.44900300  0.15608600  1
  Ge  Ge5  1  0.29291700  0.79291700  0.84391400  1
  Ge  Ge6  1  0.44900300  0.29291700  0.50000000  1
  Ge  Ge7  1  0.79291700  0.94900300  0.50000000  1
loop_
_geom_bond_atom_site_label_1
_geom_bond_atom_site_label_2
_geom_bond_distance
_geom_bond_site_symmetry_2
La0 Ni10 3.251949 1_565
La0 Ni15 3.251949 1_554
La0 Ni11 3.251949 1_554
La0 Ni14 3.251949 1_655
La0 Ni9 3.251950 1_655
La0 Ni13 3.251950 1_554
La0 Ni12 3.251953 1_565
La0 Ni8 3.251953 1_554
La0 Ni4 3.415532 1_564
La0 Ni3 3.415532 1_555
La0 Ni0 3.415538 1_665
La0 Ni6 3.415538 1_555
La0 Ni1 3.415538 1_554
La0 Ni7 3.415538 1_554
La0 Ni5 3.415542 1_655
La0 Ni2 3.415542 1_554
La1 Ni10 3.251949 1_454
La1 Ni15 3.251949 1_555
La1 Ni11 3.251949 1_555
La1 Ni14 3.251949 1_544
La1 Ni9 3.251950 1_555
La1 Ni13 3.251950 1_454
La1 Ni8 3.251953 1_544
La1 Ni12 3.251953 1_555
La1 Ni5 3.415532 1_545
La1 Ni2 3.415532 1_554
La1 Ni7 3.415538 1_554
La1 Ni1 3.415538 1_444
La1 Ni6 3.415538 1_555
La1 Ni0 3.415538 1_555
La1 Ni4 3.415542 1_454
La1 Ni3 3.415542 1_555
Ni0 Ni16 2.426176 1_555
Ni0 Ni4 2.431888 1_454
Ni0 Ni5 2.431895 1_545
Ni0 Ni7 2.574660 1_555
Ni0 Ni10 2.581360 1_455
Ni0 Ni15 2.581360 1_555
Ni1 Ni16 2.426176 1_655
Ni1 Ni5 2.431888 1_656
Ni1 Ni4 2.431895 1_565
Ni1 Ni6 2.574660 1_555
Ni1 Ni14 2.581360 1_655
Ni1 Ni11 2.581360 1_555
Ni2 Ni6 2.431888 1_556
Ni2 Ni7 2.431895 1_555
Ni2 Ni4 2.574660 1_555
Ni2 Ni8 2.581353 1_545
Ni3 Ni7 2.431888 1_554
Ni3 Ni6 2.431895 1_555
Ni3 Ni5 2.574660 1_555
Ni3 Ni9 2.581372 1_555
Ni4 Ni8 2.581353 1_545
Ni5 Ni9 2.581372 1_555
Ni10 Ni16 2.580464 1_655
Ni10 Ni7 2.581360 1_655
Ni11 Ni16 2.580464 1_655
Ni11 Ni6 2.581360 1_555
Ni12 Ni17 2.580456 1_555
Ni12 Ni3 2.581353 1_545
Ni12 Ni5 2.581353 1_545
Ni13 Ni17 2.580466 1_555
Ni13 Ni2 2.581372 1_555
Ni13 Ni4 2.581372 1_555
Ni14 Ni16 2.580464 1_555
Ni14 Ni6 2.581360 1_455
Ni15 Ni16 2.580464 1_555
Ni15 Ni7 2.581360 1_555
Ni16 Ni7 2.426176 1_555
Ni16 Ni6 2.426176 1_455
Ni17 Ni2 2.426181 1_555
Ni17 Ni4 2.426181 1_555
Ni17 Ni3 2.426181 1_545
Ni17 Ni5 2.426181 1_545
Ni17 Ni8 2.580456 1_545
Ni17 Ni9 2.580466 1_545
Ge0 Ni13 2.382300 1_455
Ge0 Ni9 2.388560 1_556
Ge0 Ni16 2.411556 1_555
Ge0 Ni11 2.518025 1_455
Ge0 Ni10 2.518025 1_455
Ge0 Ni3 2.534104 1_556
Ge0 Ni5 2.534104 1_556
Ge0 Ni7 2.588109 1_555
Ge0 Ni1 2.588109 1_455
Ge0 La1 3.328853 1_556
Ge0 La0 3.328853 1_456
Ge1 Ni12 2.382311 1_555
Ge1 Ni8 2.388556 1_544
Ge1 Ni16 2.411556 1_655
Ge1 Ni11 2.518025 1_555
Ge1 Ni10 2.518025 1_555
Ge1 Ni4 2.534098 1_554
Ge1 Ni2 2.534098 1_554
Ge1 Ni0 2.588109 1_655
Ge1 Ni6 2.588109 1_555
Ge1 La0 3.328853 1_545
Ge1 La1 3.328853 1_555
Ge2 Ni15 2.382304 1_555
Ge2 Ni11 2.388553 1_555
Ge2 Ni17 2.411556 1_565
Ge2 Ni8 2.518020 1_555
Ge2 Ni9 2.518023 1_555
Ge2 Ni1 2.534105 1_555
Ge2 Ni6 2.534105 1_555
Ge2 Ni4 2.588110 1_565
Ge2 Ni3 2.588117 1_555
Ge2 La0 3.328853 1_556
Ge2 La1 3.328853 1_555
Ge3 Ni14 2.382304 1_545
Ge3 Ni10 2.388553 1_455
Ge3 Ni17 2.411556 1_555
Ge3 Ni8 2.518020 1_545
Ge3 Ni9 2.518023 1_545
Ge3 Ni0 2.534105 1_555
Ge3 Ni7 2.534105 1_555
Ge3 Ni2 2.588110 1_555
Ge3 Ni5 2.588117 1_545
Ge3 La0 3.328853 1_445
Ge3 La1 3.328853 1_556
Ge4 Ni9 2.382300 1_655
Ge4 Ni13 2.388560 1_554
Ge4 Ni16 2.411556 1_655
Ge4 Ni14 2.518025 1_655
Ge4 Ni15 2.518025 1_655
Ge4 Ni2 2.534104 1_554
Ge4 Ni4 2.534104 1_554
Ge4 Ni6 2.588109 1_555
Ge4 Ni0 2.588109 1_655
Ge4 La0 3.328853 1_555
Ge4 La1 3.328853 1_655
Ge5 Ni8 2.382311 1_555
Ge5 Ni12 2.388556 1_566
Ge5 Ni16 2.411556 1_555
Ge5 Ni14 2.518025 1_555
Ge5 Ni15 2.518025 1_555
Ge5 Ni3 2.534098 1_556
Ge5 Ni5 2.534098 1_556
Ge5 Ni7 2.588109 1_555
Ge5 Ni1 2.588109 1_455
Ge5 La1 3.328853 1_566
Ge5 La0 3.328853 1_556
Ge6 Ni11 2.382304 1_555
Ge6 Ni15 2.388553 1_555
Ge6 Ni17 2.411556 1_555
Ge6 Ni12 2.518020 1_555
Ge6 Ni13 2.518023 1_555
Ge6 Ni7 2.534105 1_555
Ge6 Ni0 2.534105 1_555
Ge6 Ni5 2.588110 1_545
Ge6 Ni2 2.588117 1_555
Ge6 La1 3.328853 1_555
Ge6 La0 3.328853 1_556
Ge7 Ni10 2.382304 1_565
Ge7 Ni14 2.388553 1_655
Ge7 Ni17 2.411556 1_565
Ge7 Ni12 2.518020 1_565
Ge7 Ni13 2.518023 1_565
Ge7 Ni1 2.534105 1_555
Ge7 Ni6 2.534105 1_555
Ge7 Ni3 2.588110 1_555
Ge7 Ni4 2.588117 1_565
Ge7 La1 3.328853 1_666
Ge7 La0 3.328853 1_555
