# generated using pymatgen
data_CeEuAg2
_symmetry_space_group_name_H-M   'P 1'
_cell_length_a   5.61786580
_cell_length_b   5.61786580
_cell_length_c   5.61786580
_cell_angle_alpha   60.00000000
_cell_angle_beta   60.00000000
_cell_angle_gamma   60.00000000
_symmetry_Int_Tables_number   1
_chemical_formula_structural   CeEuAg2
_chemical_formula_sum   'Ce1 Eu1 Ag2'
_cell_volume   125.37157529
_cell_formula_units_Z   1
loop_
 _symmetry_equiv_pos_site_id
 _symmetry_equiv_pos_as_xyz
  1  'x, y, z'
loop_
 _atom_site_type_symbol
 _atom_site_label
 _atom_site_symmetry_multiplicity
 _atom_site_fract_x
 _atom_site_fract_y
 _atom_site_fract_z
 _atom_site_occupancy
  Ce  Ce0  1  0.50000000  0.50000000  0.50000000  1
  Eu  Eu0  1  0.00000000  0.00000000  0.00000000  1
  Ag  Ag0  1  0.75000000  0.75000000  0.75000000  1
  Ag  Ag1  1  0.25000000  0.25000000  0.25000000  1
loop_
_geom_bond_atom_site_label_1
_geom_bond_atom_site_label_2
_geom_bond_distance
_geom_bond_site_symmetry_2
Ag0 Eu0 3.440226 1_656
Ag0 Eu0 3.440226 1_665
Ag0 Ce0 3.440226 1_565
Ag0 Eu0 3.440226 1_566
Ag0 Eu0 3.440226 1_666
Ag0 Ce0 3.440226 1_556
Ag0 Ce0 3.440226 1_555
Ag0 Ce0 3.440226 1_655
Ag1 Eu0 3.440226 1_556
Ag1 Ce0 3.440226 1_554
Ag1 Ce0 3.440226 1_455
Ag1 Eu0 3.440226 1_555
Ag1 Eu0 3.440226 1_565
Ag1 Eu0 3.440226 1_655
Ag1 Ce0 3.440226 1_555
Ag1 Ce0 3.440226 1_545
