# generated using pymatgen
data_CaO10
_symmetry_space_group_name_H-M   'P 1'
_cell_length_a   5.60884800
_cell_length_b   5.60884800
_cell_length_c   8.40503000
_cell_angle_alpha   90.00000000
_cell_angle_beta   90.00000000
_cell_angle_gamma   90.00000000
_symmetry_Int_Tables_number   1
_chemical_formula_structural   CaO10
_chemical_formula_sum   'Ca2 O20'
_cell_volume   264.41531711
_cell_formula_units_Z   2
loop_
 _symmetry_equiv_pos_site_id
 _symmetry_equiv_pos_as_xyz
  1  'x, y, z'
loop_
 _atom_site_type_symbol
 _atom_site_label
 _atom_site_symmetry_multiplicity
 _atom_site_fract_x
 _atom_site_fract_y
 _atom_site_fract_z
 _atom_site_occupancy
  Ca  Ca0  1  0.00000000  0.00000000  0.25000000  1
  Ca  Ca1  1  0.00000000  0.00000000  0.75000000  1
  O  O0  1  0.50000000  0.50000000  0.32310200  1
  O  O1  1  0.50000000  0.50000000  0.82310200  1
  O  O2  1  0.50000000  0.50000000  0.67689800  1
  O  O3  1  0.50000000  0.50000000  0.17689800  1
  O  O4  1  0.11318800  0.33824700  0.42392700  1
  O  O5  1  0.88681200  0.66175300  0.42392700  1
  O  O6  1  0.66175300  0.11318800  0.42392700  1
  O  O7  1  0.33824700  0.88681200  0.42392700  1
  O  O8  1  0.88681200  0.33824700  0.92392700  1
  O  O9  1  0.11318800  0.66175300  0.92392700  1
  O  O10  1  0.33824700  0.11318800  0.92392700  1
  O  O11  1  0.66175300  0.88681200  0.92392700  1
  O  O12  1  0.88681200  0.66175300  0.57607300  1
  O  O13  1  0.11318800  0.33824700  0.57607300  1
  O  O14  1  0.33824700  0.88681200  0.57607300  1
  O  O15  1  0.66175300  0.11318800  0.57607300  1
  O  O16  1  0.11318800  0.66175300  0.07607300  1
  O  O17  1  0.88681200  0.33824700  0.07607300  1
  O  O18  1  0.66175300  0.88681200  0.07607300  1
  O  O19  1  0.33824700  0.11318800  0.07607300  1
loop_
_geom_bond_atom_site_label_1
_geom_bond_atom_site_label_2
_geom_bond_distance
_geom_bond_site_symmetry_2
Ca0 O16 2.477772 1_545
Ca0 O6 2.477772 1_455
Ca0 O5 2.477772 1_445
Ca0 O18 2.477772 1_445
Ca0 O19 2.477772 1_555
Ca0 O17 2.477772 1_455
Ca0 O4 2.477772 1_555
Ca0 O7 2.477772 1_545
Ca1 O12 2.477772 1_445
Ca1 O9 2.477772 1_545
Ca1 O15 2.477772 1_455
Ca1 O11 2.477772 1_445
Ca1 O14 2.477772 1_545
Ca1 O13 2.477772 1_555
Ca1 O10 2.477772 1_555
Ca1 O8 2.477772 1_455
O0 O3 1.228849 1_555
O1 O2 1.228849 1_555
O10 O19 1.278792 1_556
O11 O18 1.278792 1_556
O12 O5 1.278792 1_555
O13 O4 1.278792 1_555
O14 O7 1.278792 1_555
O15 O6 1.278792 1_555
O16 O9 1.278792 1_554
O17 O8 1.278792 1_554
