# generated using pymatgen
data_Ba3Mn2RuO9
_symmetry_space_group_name_H-M   'P 1'
_cell_length_a   8.02045428
_cell_length_b   8.02045428
_cell_length_c   8.02045414
_cell_angle_alpha   42.64552055
_cell_angle_beta   42.64552055
_cell_angle_gamma   42.64551931
_symmetry_Int_Tables_number   1
_chemical_formula_structural   Ba3Mn2RuO9
_chemical_formula_sum   'Ba3 Mn2 Ru1 O9'
_cell_volume   214.47283469
_cell_formula_units_Z   1
loop_
 _symmetry_equiv_pos_site_id
 _symmetry_equiv_pos_as_xyz
  1  'x, y, z'
loop_
 _atom_site_type_symbol
 _atom_site_label
 _atom_site_symmetry_multiplicity
 _atom_site_fract_x
 _atom_site_fract_y
 _atom_site_fract_z
 _atom_site_occupancy
  Ba  Ba0  1  0.99835400  0.99835400  0.99835400  1
  Ba  Ba1  1  0.21716000  0.21716000  0.21716000  1
  Ba  Ba2  1  0.78295600  0.78295600  0.78295600  1
  Mn  Mn0  1  0.61840700  0.61840700  0.61840700  1
  Mn  Mn1  1  0.50099600  0.50099600  0.50099600  1
  Ru  Ru0  1  0.38154500  0.38154500  0.38154500  1
  O  O0  1  0.70463400  0.25664700  0.70463400  1
  O  O1  1  0.25664700  0.70463400  0.70463400  1
  O  O2  1  0.70463400  0.70463400  0.25664700  1
  O  O3  1  0.29438000  0.74200800  0.29438000  1
  O  O4  1  0.74200800  0.29438000  0.29438000  1
  O  O5  1  0.29438000  0.29438000  0.74200800  1
  O  O6  1  0.00498100  0.49946000  0.49946000  1
  O  O7  1  0.49946000  0.49946000  0.00498100  1
  O  O8  1  0.49946000  0.00498100  0.49946000  1
loop_
_geom_bond_atom_site_label_1
_geom_bond_atom_site_label_2
_geom_bond_distance
_geom_bond_site_symmetry_2
Ba0 O7 2.917177 1_656
Ba0 O7 2.917177 1_566
Ba0 O8 2.917177 1_566
Ba0 O6 2.917177 1_656
Ba0 O8 2.917177 1_665
Ba0 O6 2.917177 1_665
Ba0 O0 3.032521 1_565
Ba0 O1 3.032521 1_655
Ba0 O2 3.032522 1_556
Ba0 O3 3.071115 1_656
Ba0 O4 3.071115 1_566
Ba0 O5 3.071115 1_665
Ba1 O2 2.923552 1_545
Ba1 O2 2.923552 1_455
Ba1 O1 2.923552 1_545
Ba1 O0 2.923552 1_455
Ba1 O1 2.923552 1_554
Ba1 O0 2.923552 1_554
Ba1 O5 2.985001 1_554
Ba1 O3 2.985001 1_545
Ba1 O4 2.985001 1_455
Ba1 O8 3.058416 1_555
Ba1 O6 3.058416 1_555
Ba1 O7 3.058416 1_555
Ba2 O5 2.924705 1_565
Ba2 O5 2.924705 1_655
Ba2 O4 2.924705 1_565
Ba2 O3 2.924705 1_655
Ba2 O4 2.924705 1_556
Ba2 O3 2.924705 1_556
Ba2 O2 2.963424 1_556
Ba2 O0 2.963424 1_565
Ba2 O1 2.963424 1_655
Ba2 O8 3.033758 1_565
Ba2 O6 3.033758 1_655
Ba2 O7 3.033758 1_556
Mn0 O7 2.017281 1_556
Mn0 O8 2.017281 1_565
Mn0 O6 2.017281 1_655
Mn0 O2 2.043246 1_555
Mn0 O0 2.043246 1_555
Mn0 O1 2.043246 1_555
Mn1 O0 1.918990 1_555
Mn1 O1 1.918990 1_555
Mn1 O2 1.918990 1_555
Mn1 O3 1.960588 1_555
Mn1 O4 1.960588 1_555
Mn1 O5 1.960588 1_555
O3 Ru0 2.026841 1_555
O4 Ru0 2.026841 1_555
O5 Ru0 2.026841 1_555
O6 Ru0 1.955082 1_555
O7 Ru0 1.955082 1_555
O8 Ru0 1.955082 1_555
