# generated using pymatgen
data_YAg(WO4)2
_symmetry_space_group_name_H-M   'P 1'
_cell_length_a   6.00010400
_cell_length_b   5.24286200
_cell_length_c   11.36274332
_cell_angle_alpha   65.46615365
_cell_angle_beta   90.00000000
_cell_angle_gamma   90.00000000
_symmetry_Int_Tables_number   1
_chemical_formula_structural   YAg(WO4)2
_chemical_formula_sum   'Y2 Ag2 W4 O16'
_cell_volume   325.17436525
_cell_formula_units_Z   2
loop_
 _symmetry_equiv_pos_site_id
 _symmetry_equiv_pos_as_xyz
  1  'x, y, z'
loop_
 _atom_site_type_symbol
 _atom_site_label
 _atom_site_symmetry_multiplicity
 _atom_site_fract_x
 _atom_site_fract_y
 _atom_site_fract_z
 _atom_site_occupancy
  Y  Y0  1  0.68743200  0.50000000  0.25000000  1
  Y  Y1  1  0.31256800  0.50000000  0.75000000  1
  Ag  Ag0  1  0.30550700  0.00000000  0.25000000  1
  Ag  Ag1  1  0.69449300  0.00000000  0.75000000  1
  W  W0  1  0.16858000  0.74005100  0.00679900  1
  W  W1  1  0.16858000  0.25994900  0.49320100  1
  W  W2  1  0.83142000  0.25994900  0.99320100  1
  W  W3  1  0.83142000  0.74005100  0.50679900  1
  O  O0  1  0.37880300  0.25616400  0.37736600  1
  O  O1  1  0.37880300  0.74383600  0.12263400  1
  O  O2  1  0.62119700  0.74383600  0.62263400  1
  O  O3  1  0.62119700  0.25616400  0.87736600  1
  O  O4  1  0.91951500  0.64152200  0.89285400  1
  O  O5  1  0.91951500  0.35847800  0.60714600  1
  O  O6  1  0.08048500  0.35847800  0.10714600  1
  O  O7  1  0.08048500  0.64152200  0.39285400  1
  O  O8  1  0.64453200  0.72207600  0.38267200  1
  O  O9  1  0.64453200  0.27792400  0.11732800  1
  O  O10  1  0.35546800  0.27792400  0.61732800  1
  O  O11  1  0.35546800  0.72207600  0.88267200  1
  O  O12  1  0.89190600  0.15191100  0.40607600  1
  O  O13  1  0.10809400  0.84808900  0.59392400  1
  O  O14  1  0.89190600  0.84808900  0.09392400  1
  O  O15  1  0.10809400  0.15191100  0.90607600  1
loop_
_geom_bond_atom_site_label_1
_geom_bond_atom_site_label_2
_geom_bond_distance
_geom_bond_site_symmetry_2
Ag0 O7 2.335925 1_545
Ag0 O6 2.335925 1_555
Ag0 O1 2.388673 1_545
Ag0 O0 2.388673 1_555
Ag0 O9 2.590269 1_555
Ag0 O8 2.590269 1_545
Ag1 O5 2.335925 1_555
Ag1 O4 2.335925 1_545
Ag1 O2 2.388673 1_545
Ag1 O3 2.388673 1_555
Ag1 O10 2.590269 1_555
Ag1 O11 2.590269 1_545
O0 W1 1.829072 1_555
O0 Y0 2.370968 1_555
O1 W0 1.829072 1_555
O1 Y0 2.370968 1_555
O2 W3 1.829072 1_555
O2 Y1 2.370968 1_555
O3 W2 1.829072 1_555
O3 Y1 2.370968 1_555
O4 W2 1.920237 1_555
O4 W0 2.175288 1_656
O5 W3 1.920237 1_555
O5 W1 2.175288 1_655
O6 W0 1.920237 1_555
O6 W2 2.175288 1_454
O7 W1 1.920237 1_555
O7 W3 2.175288 1_455
O8 W3 1.834660 1_555
O8 Y0 2.269833 1_555
O9 W2 1.834660 1_554
O9 Y0 2.269833 1_555
O10 W1 1.834660 1_555
O10 Y1 2.269833 1_555
O11 W0 1.834660 1_556
O11 Y1 2.269833 1_555
O12 W3 2.012937 1_545
O12 W1 2.126599 1_655
O12 Y0 2.300671 1_555
O13 W1 2.012937 1_565
O13 W3 2.126599 1_455
O13 Y1 2.300671 1_555
O14 W2 2.012937 1_564
O14 W0 2.126599 1_655
O14 Y0 2.300671 1_555
O15 W0 2.012937 1_546
O15 W2 2.126599 1_455
O15 Y1 2.300671 1_555
