# generated using pymatgen
data_AlCo3
_symmetry_space_group_name_H-M   'P 1'
_cell_length_a   3.57494800
_cell_length_b   3.57494800
_cell_length_c   3.57494800
_cell_angle_alpha   90.00000000
_cell_angle_beta   90.00000000
_cell_angle_gamma   90.00000000
_symmetry_Int_Tables_number   1
_chemical_formula_structural   AlCo3
_chemical_formula_sum   'Al1 Co3'
_cell_volume   45.68874063
_cell_formula_units_Z   1
loop_
 _symmetry_equiv_pos_site_id
 _symmetry_equiv_pos_as_xyz
  1  'x, y, z'
loop_
 _atom_site_type_symbol
 _atom_site_label
 _atom_site_symmetry_multiplicity
 _atom_site_fract_x
 _atom_site_fract_y
 _atom_site_fract_z
 _atom_site_occupancy
  Al  Al0  1  0.00000000  0.00000000  0.00000000  1
  Co  Co0  1  0.50000000  0.50000000  0.00000000  1
  Co  Co1  1  0.50000000  0.00000000  0.50000000  1
  Co  Co2  1  0.00000000  0.50000000  0.50000000  1
loop_
_geom_bond_atom_site_label_1
_geom_bond_atom_site_label_2
_geom_bond_distance
_geom_bond_site_symmetry_2
Al0 Co0 2.527870 1_445
Al0 Co2 2.527870 1_545
Al0 Co2 2.527870 1_554
Al0 Co0 2.527870 1_455
Al0 Co1 2.527870 1_555
Al0 Co0 2.527870 1_555
Al0 Co0 2.527870 1_545
Al0 Co2 2.527870 1_555
Al0 Co2 2.527870 1_544
Al0 Co1 2.527870 1_554
Al0 Co1 2.527870 1_455
Al0 Co1 2.527870 1_454
Co0 Co2 2.527870 1_554
Co0 Co1 2.527870 1_565
Co0 Co1 2.527870 1_555
Co0 Co1 2.527870 1_564
Co0 Co2 2.527870 1_555
Co0 Co2 2.527870 1_655
Co0 Co1 2.527870 1_554
Co0 Co2 2.527870 1_654
Co1 Co2 2.527870 1_545
Co1 Co2 2.527870 1_555
Co1 Co2 2.527870 1_655
Co1 Co2 2.527870 1_645
