# generated using pymatgen
data_MgBi2
_symmetry_space_group_name_H-M   'P 1'
_cell_length_a   18.18873467
_cell_length_b   18.18873467
_cell_length_c   11.46291200
_cell_angle_alpha   90.00000000
_cell_angle_beta   90.00000000
_cell_angle_gamma   158.53611642
_symmetry_Int_Tables_number   1
_chemical_formula_structural   MgBi2
_chemical_formula_sum   'Mg16 Bi32'
_cell_volume   1387.64938977
_cell_formula_units_Z   16
loop_
 _symmetry_equiv_pos_site_id
 _symmetry_equiv_pos_as_xyz
  1  'x, y, z'
loop_
 _atom_site_type_symbol
 _atom_site_label
 _atom_site_symmetry_multiplicity
 _atom_site_fract_x
 _atom_site_fract_y
 _atom_site_fract_z
 _atom_site_occupancy
  Mg  Mg0_0  1  0.27843250  0.22156750  0.12500000  1
  Mg  Mg0_1  1  0.27843250  0.22156750  0.62500000  1
  Mg  Mg0_2  1  0.27843250  0.72156750  0.12500000  1
  Mg  Mg0_3  1  0.27843250  0.72156750  0.62500000  1
  Mg  Mg0_4  1  0.77843250  0.22156750  0.12500000  1
  Mg  Mg0_5  1  0.77843250  0.22156750  0.62500000  1
  Mg  Mg0_6  1  0.77843250  0.72156750  0.12500000  1
  Mg  Mg0_7  1  0.77843250  0.72156750  0.62500000  1
  Mg  Mg1_0  1  0.22156750  0.27843250  0.37500000  1
  Mg  Mg1_1  1  0.22156750  0.27843250  0.87500000  1
  Mg  Mg1_2  1  0.22156750  0.77843250  0.37500000  1
  Mg  Mg1_3  1  0.22156750  0.77843250  0.87500000  1
  Mg  Mg1_4  1  0.72156750  0.27843250  0.37500000  1
  Mg  Mg1_5  1  0.72156750  0.27843250  0.87500000  1
  Mg  Mg1_6  1  0.72156750  0.77843250  0.37500000  1
  Mg  Mg1_7  1  0.72156750  0.77843250  0.87500000  1
  Bi  Bi0_0  1  0.10513250  0.39486750  0.12500000  1
  Bi  Bi0_1  1  0.10513250  0.39486750  0.62500000  1
  Bi  Bi0_2  1  0.10513250  0.89486750  0.12500000  1
  Bi  Bi0_3  1  0.10513250  0.89486750  0.62500000  1
  Bi  Bi0_4  1  0.60513250  0.39486750  0.12500000  1
  Bi  Bi0_5  1  0.60513250  0.39486750  0.62500000  1
  Bi  Bi0_6  1  0.60513250  0.89486750  0.12500000  1
  Bi  Bi0_7  1  0.60513250  0.89486750  0.62500000  1
  Bi  Bi1_0  1  0.45232450  0.04767550  0.12500000  1
  Bi  Bi1_1  1  0.45232450  0.04767550  0.62500000  1
  Bi  Bi1_2  1  0.45232450  0.54767550  0.12500000  1
  Bi  Bi1_3  1  0.45232450  0.54767550  0.62500000  1
  Bi  Bi1_4  1  0.95232450  0.04767550  0.12500000  1
  Bi  Bi1_5  1  0.95232450  0.04767550  0.62500000  1
  Bi  Bi1_6  1  0.95232450  0.54767550  0.12500000  1
  Bi  Bi1_7  1  0.95232450  0.54767550  0.62500000  1
  Bi  Bi2_0  1  0.04767550  0.45232450  0.37500000  1
  Bi  Bi2_1  1  0.04767550  0.45232450  0.87500000  1
  Bi  Bi2_2  1  0.04767550  0.95232450  0.37500000  1
  Bi  Bi2_3  1  0.04767550  0.95232450  0.87500000  1
  Bi  Bi2_4  1  0.54767550  0.45232450  0.37500000  1
  Bi  Bi2_5  1  0.54767550  0.45232450  0.87500000  1
  Bi  Bi2_6  1  0.54767550  0.95232450  0.37500000  1
  Bi  Bi2_7  1  0.54767550  0.95232450  0.87500000  1
  Bi  Bi3_0  1  0.39486750  0.10513250  0.37500000  1
  Bi  Bi3_1  1  0.39486750  0.10513250  0.87500000  1
  Bi  Bi3_2  1  0.39486750  0.60513250  0.37500000  1
  Bi  Bi3_3  1  0.39486750  0.60513250  0.87500000  1
  Bi  Bi3_4  1  0.89486750  0.10513250  0.37500000  1
  Bi  Bi3_5  1  0.89486750  0.10513250  0.87500000  1
  Bi  Bi3_6  1  0.89486750  0.60513250  0.37500000  1
  Bi  Bi3_7  1  0.89486750  0.60513250  0.87500000  1
loop_
_geom_bond_atom_site_label_1
_geom_bond_atom_site_label_2
_geom_bond_distance
_geom_bond_site_symmetry_2
Mg0_0 Mg0_6 3.387004 1_445
Mg0_0 Mg0_6 3.387004 1_555
Mg0_0 Mg1_0 3.513281 1_555
Mg0_0 Mg1_1 3.513281 1_554
Mg0_1 Mg0_7 3.387004 1_445
Mg0_1 Mg0_7 3.387004 1_555
Mg0_1 Mg1_1 3.513281 1_555
Mg0_1 Mg1_0 3.513281 1_555
Mg0_2 Mg0_4 3.387004 1_565
Mg0_2 Mg0_4 3.387004 1_455
Mg0_2 Mg1_2 3.513281 1_555
Mg0_2 Mg1_3 3.513281 1_554
Mg0_3 Mg0_5 3.387004 1_565
Mg0_3 Mg0_5 3.387004 1_455
Mg0_3 Mg1_3 3.513281 1_555
Mg0_3 Mg1_2 3.513281 1_555
Mg0_4 Mg1_4 3.513281 1_555
Mg0_4 Mg1_5 3.513281 1_554
Mg0_5 Mg1_5 3.513281 1_555
Mg0_5 Mg1_4 3.513281 1_555
Mg0_6 Mg1_6 3.513281 1_555
Mg0_6 Mg1_7 3.513281 1_554
Mg0_7 Mg1_7 3.513281 1_555
Mg0_7 Mg1_6 3.513281 1_555
Mg1_0 Mg1_6 3.387004 1_445
Mg1_0 Mg1_6 3.387004 1_555
Mg1_1 Mg1_7 3.387004 1_445
Mg1_1 Mg1_7 3.387004 1_555
Mg1_2 Mg1_4 3.387004 1_455
Mg1_2 Mg1_4 3.387004 1_565
Mg1_3 Mg1_5 3.387004 1_455
Mg1_3 Mg1_5 3.387004 1_565
Bi0_0 Mg0_4 3.222258 1_455
Bi0_0 Mg0_2 3.222258 1_555
Bi0_0 Bi0_6 3.387004 1_445
Bi0_0 Bi0_6 3.387004 1_555
Bi0_0 Bi2_0 3.525563 1_555
Bi0_0 Bi2_1 3.525563 1_554
Bi0_0 Bi3_4 3.619012 1_455
Bi0_0 Bi3_2 3.619012 1_555
Bi0_0 Bi3_3 3.619012 1_554
Bi0_0 Bi3_5 3.619012 1_454
Bi0_1 Mg0_5 3.222258 1_455
Bi0_1 Mg0_3 3.222258 1_555
Bi0_1 Bi0_7 3.387004 1_445
Bi0_1 Bi0_7 3.387004 1_555
Bi0_1 Bi2_1 3.525563 1_555
Bi0_1 Bi2_0 3.525563 1_555
Bi0_1 Bi3_3 3.619012 1_555
Bi0_1 Bi3_5 3.619012 1_455
Bi0_1 Bi3_4 3.619012 1_455
Bi0_1 Bi3_2 3.619012 1_555
Bi0_2 Mg0_6 3.222258 1_455
Bi0_2 Mg0_0 3.222258 1_565
Bi0_2 Bi0_4 3.387004 1_455
Bi0_2 Bi0_4 3.387004 1_565
Bi0_2 Bi2_2 3.525563 1_555
Bi0_2 Bi2_3 3.525563 1_554
Bi0_2 Bi3_6 3.619012 1_455
Bi0_2 Bi3_0 3.619012 1_565
Bi0_2 Bi3_7 3.619012 1_454
Bi0_2 Bi3_1 3.619012 1_564
Bi0_3 Mg0_7 3.222258 1_455
Bi0_3 Mg0_1 3.222258 1_565
Bi0_3 Bi0_5 3.387004 1_455
Bi0_3 Bi0_5 3.387004 1_565
Bi0_3 Bi2_3 3.525563 1_555
Bi0_3 Bi2_2 3.525563 1_555
Bi0_3 Bi3_1 3.619012 1_565
Bi0_3 Bi3_7 3.619012 1_455
Bi0_3 Bi3_0 3.619012 1_565
Bi0_3 Bi3_6 3.619012 1_455
Bi0_4 Mg0_0 3.222258 1_555
Bi0_4 Mg0_6 3.222258 1_555
Bi0_4 Bi2_4 3.525563 1_555
Bi0_4 Bi2_5 3.525563 1_554
Bi0_4 Bi3_0 3.619012 1_555
Bi0_4 Bi3_6 3.619012 1_555
Bi0_4 Bi3_1 3.619012 1_554
Bi0_4 Bi3_7 3.619012 1_554
Bi0_5 Mg0_1 3.222258 1_555
Bi0_5 Mg0_7 3.222258 1_555
Bi0_5 Bi2_5 3.525563 1_555
Bi0_5 Bi2_4 3.525563 1_555
Bi0_5 Bi3_1 3.619012 1_555
Bi0_5 Bi3_7 3.619012 1_555
Bi0_5 Bi3_6 3.619012 1_555
Bi0_5 Bi3_0 3.619012 1_555
Bi0_6 Mg0_4 3.222258 1_565
Bi0_6 Mg0_2 3.222258 1_555
Bi0_6 Bi2_6 3.525563 1_555
Bi0_6 Bi2_7 3.525563 1_554
Bi0_6 Bi3_4 3.619012 1_565
Bi0_6 Bi3_2 3.619012 1_555
Bi0_6 Bi3_5 3.619012 1_564
Bi0_6 Bi3_3 3.619012 1_554
Bi0_7 Mg0_5 3.222258 1_565
Bi0_7 Mg0_3 3.222258 1_555
Bi0_7 Bi2_7 3.525563 1_555
Bi0_7 Bi2_6 3.525563 1_555
Bi0_7 Bi3_5 3.619012 1_565
Bi0_7 Bi3_3 3.619012 1_555
Bi0_7 Bi3_4 3.619012 1_565
Bi0_7 Bi3_2 3.619012 1_555
Bi1_0 Mg0_2 3.204276 1_545
Bi1_0 Mg0_4 3.204276 1_555
Bi1_0 Bi1_6 3.387004 1_445
Bi1_0 Bi1_6 3.387004 1_555
Bi1_0 Mg1_2 3.399025 1_545
Bi1_0 Mg1_4 3.399025 1_555
Bi1_0 Mg1_3 3.399025 1_544
Bi1_0 Mg1_5 3.399025 1_554
Bi1_0 Bi3_0 3.525563 1_555
Bi1_0 Bi3_1 3.525563 1_554
Bi1_1 Mg0_3 3.204276 1_545
Bi1_1 Mg0_5 3.204276 1_555
Bi1_1 Bi1_7 3.387004 1_555
Bi1_1 Bi1_7 3.387004 1_445
Bi1_1 Mg1_3 3.399025 1_545
Bi1_1 Mg1_2 3.399025 1_545
Bi1_1 Mg1_5 3.399025 1_555
Bi1_1 Mg1_4 3.399025 1_555
Bi1_1 Bi3_1 3.525563 1_555
Bi1_1 Bi3_0 3.525563 1_555
Bi1_2 Mg0_0 3.204276 1_555
Bi1_2 Mg0_6 3.204276 1_555
Bi1_2 Bi1_4 3.387004 1_565
Bi1_2 Bi1_4 3.387004 1_455
Bi1_2 Mg1_0 3.399025 1_555
Bi1_2 Mg1_1 3.399025 1_554
Bi1_2 Mg1_6 3.399025 1_555
Bi1_2 Mg1_7 3.399025 1_554
Bi1_2 Bi3_2 3.525563 1_555
Bi1_2 Bi3_3 3.525563 1_554
Bi1_3 Mg0_1 3.204276 1_555
Bi1_3 Mg0_7 3.204276 1_555
Bi1_3 Bi1_5 3.387004 1_565
Bi1_3 Bi1_5 3.387004 1_455
Bi1_3 Mg1_1 3.399025 1_555
Bi1_3 Mg1_7 3.399025 1_555
Bi1_3 Mg1_0 3.399025 1_555
Bi1_3 Mg1_6 3.399025 1_555
Bi1_3 Bi3_3 3.525563 1_555
Bi1_3 Bi3_2 3.525563 1_555
Bi1_4 Mg0_6 3.204276 1_545
Bi1_4 Mg0_0 3.204276 1_655
Bi1_4 Mg1_6 3.399025 1_545
Bi1_4 Mg1_7 3.399025 1_544
Bi1_4 Mg1_0 3.399025 1_655
Bi1_4 Mg1_1 3.399025 1_654
Bi1_4 Bi3_4 3.525563 1_555
Bi1_4 Bi3_5 3.525563 1_554
Bi1_5 Mg0_7 3.204276 1_545
Bi1_5 Mg0_1 3.204276 1_655
Bi1_5 Mg1_7 3.399025 1_545
Bi1_5 Mg1_6 3.399025 1_545
Bi1_5 Mg1_1 3.399025 1_655
Bi1_5 Mg1_0 3.399025 1_655
Bi1_5 Bi3_5 3.525563 1_555
Bi1_5 Bi3_4 3.525563 1_555
Bi1_6 Mg0_4 3.204276 1_555
Bi1_6 Mg0_2 3.204276 1_655
Bi1_6 Mg1_4 3.399025 1_555
Bi1_6 Mg1_2 3.399025 1_655
Bi1_6 Mg1_5 3.399025 1_554
Bi1_6 Mg1_3 3.399025 1_654
Bi1_6 Bi3_6 3.525563 1_555
Bi1_6 Bi3_7 3.525563 1_554
Bi1_7 Mg0_5 3.204276 1_555
Bi1_7 Mg0_3 3.204276 1_655
Bi1_7 Mg1_5 3.399025 1_555
Bi1_7 Mg1_3 3.399025 1_655
Bi1_7 Mg1_4 3.399025 1_555
Bi1_7 Mg1_2 3.399025 1_655
Bi1_7 Bi3_7 3.525563 1_555
Bi1_7 Bi3_6 3.525563 1_555
Bi2_0 Mg1_4 3.204276 1_455
Bi2_0 Mg1_2 3.204276 1_555
Bi2_0 Bi2_6 3.387004 1_555
Bi2_0 Bi2_6 3.387004 1_445
Bi2_0 Mg0_4 3.399025 1_455
Bi2_0 Mg0_5 3.399025 1_455
Bi2_0 Mg0_2 3.399025 1_555
Bi2_0 Mg0_3 3.399025 1_555
Bi2_1 Mg1_5 3.204276 1_455
Bi2_1 Mg1_3 3.204276 1_555
Bi2_1 Bi2_7 3.387004 1_555
Bi2_1 Bi2_7 3.387004 1_445
Bi2_1 Mg0_5 3.399025 1_455
Bi2_1 Mg0_3 3.399025 1_555
Bi2_1 Mg0_4 3.399025 1_456
Bi2_1 Mg0_2 3.399025 1_556
Bi2_2 Mg1_6 3.204276 1_455
Bi2_2 Mg1_0 3.204276 1_565
Bi2_2 Bi2_4 3.387004 1_455
Bi2_2 Bi2_4 3.387004 1_565
Bi2_2 Mg0_6 3.399025 1_455
Bi2_2 Mg0_7 3.399025 1_455
Bi2_2 Mg0_0 3.399025 1_565
Bi2_2 Mg0_1 3.399025 1_565
Bi2_3 Mg1_7 3.204276 1_455
Bi2_3 Mg1_1 3.204276 1_565
Bi2_3 Bi2_5 3.387004 1_455
Bi2_3 Bi2_5 3.387004 1_565
Bi2_3 Mg0_7 3.399025 1_455
Bi2_3 Mg0_6 3.399025 1_456
Bi2_3 Mg0_1 3.399025 1_565
Bi2_3 Mg0_0 3.399025 1_566
Bi2_4 Mg1_0 3.204276 1_555
Bi2_4 Mg1_6 3.204276 1_555
Bi2_4 Mg0_0 3.399025 1_555
Bi2_4 Mg0_1 3.399025 1_555
Bi2_4 Mg0_6 3.399025 1_555
Bi2_4 Mg0_7 3.399025 1_555
Bi2_5 Mg1_1 3.204276 1_555
Bi2_5 Mg1_7 3.204276 1_555
Bi2_5 Mg0_1 3.399025 1_555
Bi2_5 Mg0_0 3.399025 1_556
Bi2_5 Mg0_7 3.399025 1_555
Bi2_5 Mg0_6 3.399025 1_556
Bi2_6 Mg1_2 3.204276 1_555
Bi2_6 Mg1_4 3.204276 1_565
Bi2_6 Mg0_2 3.399025 1_555
Bi2_6 Mg0_3 3.399025 1_555
Bi2_6 Mg0_4 3.399025 1_565
Bi2_6 Mg0_5 3.399025 1_565
Bi2_7 Mg1_3 3.204276 1_555
Bi2_7 Mg1_5 3.204276 1_565
Bi2_7 Mg0_3 3.399025 1_555
Bi2_7 Mg0_5 3.399025 1_565
Bi2_7 Mg0_2 3.399025 1_556
Bi2_7 Mg0_4 3.399025 1_566
Bi3_0 Mg1_2 3.222258 1_545
Bi3_0 Mg1_4 3.222258 1_555
Bi3_0 Bi3_6 3.387004 1_555
Bi3_0 Bi3_6 3.387004 1_445
Bi3_1 Mg1_3 3.222258 1_545
Bi3_1 Mg1_5 3.222258 1_555
Bi3_1 Bi3_7 3.387004 1_555
Bi3_1 Bi3_7 3.387004 1_445
Bi3_2 Mg1_0 3.222258 1_555
Bi3_2 Mg1_6 3.222258 1_555
Bi3_2 Bi3_4 3.387004 1_455
Bi3_2 Bi3_4 3.387004 1_565
Bi3_3 Mg1_1 3.222258 1_555
Bi3_3 Mg1_7 3.222258 1_555
Bi3_3 Bi3_5 3.387004 1_455
Bi3_3 Bi3_5 3.387004 1_565
Bi3_4 Mg1_6 3.222258 1_545
Bi3_4 Mg1_0 3.222258 1_655
Bi3_5 Mg1_7 3.222258 1_545
Bi3_5 Mg1_1 3.222258 1_655
Bi3_6 Mg1_2 3.222258 1_655
Bi3_6 Mg1_4 3.222258 1_555
Bi3_7 Mg1_3 3.222258 1_655
Bi3_7 Mg1_5 3.222258 1_555
