# generated using pymatgen
data_Zr2Ti(PbO3)3
_symmetry_space_group_name_H-M   'P 1'
_cell_length_a   5.85282290
_cell_length_b   5.85282290
_cell_length_c   7.29113000
_cell_angle_alpha   90.00000000
_cell_angle_beta   90.00000000
_cell_angle_gamma   119.99998759
_symmetry_Int_Tables_number   1
_chemical_formula_structural   Zr2Ti(PbO3)3
_chemical_formula_sum   'Zr2 Ti1 Pb3 O9'
_cell_volume   216.29988777
_cell_formula_units_Z   1
loop_
 _symmetry_equiv_pos_site_id
 _symmetry_equiv_pos_as_xyz
  1  'x, y, z'
loop_
 _atom_site_type_symbol
 _atom_site_label
 _atom_site_symmetry_multiplicity
 _atom_site_fract_x
 _atom_site_fract_y
 _atom_site_fract_z
 _atom_site_occupancy
  Zr  Zr0  1  0.66666700  0.33333300  0.67965600  1
  Zr  Zr1  1  0.00000000  0.00000000  0.02409200  1
  Ti  Ti0  1  0.33333300  0.66666700  0.35505400  1
  Pb  Pb0  1  0.33333300  0.66666700  0.90658400  1
  Pb  Pb1  1  0.66666700  0.33333300  0.22444100  1
  Pb  Pb2  1  0.00000000  0.00000000  0.55773100  1
  O  O0  1  0.49960700  0.99921400  0.47697900  1
  O  O1  1  0.84069300  0.68138700  0.81839800  1
  O  O2  1  0.17718800  0.35437700  0.16058000  1
  O  O3  1  0.49960700  0.50039300  0.47697900  1
  O  O4  1  0.84069300  0.15930700  0.81839800  1
  O  O5  1  0.17718800  0.82281200  0.16058000  1
  O  O6  1  0.00078600  0.50039300  0.47697900  1
  O  O7  1  0.31861300  0.15930700  0.81839800  1
  O  O8  1  0.64562300  0.82281200  0.16058000  1
loop_
_geom_bond_atom_site_label_1
_geom_bond_atom_site_label_2
_geom_bond_distance
_geom_bond_site_symmetry_2
O0 Ti0 1.905635 1_555
O0 Zr0 2.247628 1_565
O0 Pb1 2.501688 1_565
O1 Zr0 2.033626 1_555
O1 Zr1 2.203927 1_666
O1 Pb2 2.494030 1_665
O2 Zr1 2.053476 1_555
O2 Ti0 2.125117 1_555
O2 Pb0 2.436222 1_554
O3 Ti0 1.905640 1_555
O3 Zr0 2.247631 1_555
O3 Pb1 2.501691 1_555
O4 Zr0 2.033617 1_555
O4 Zr1 2.203931 1_656
O4 Pb2 2.494033 1_655
O5 Zr1 2.053471 1_565
O5 Ti0 2.125116 1_555
O5 Pb0 2.436222 1_554
O6 Ti0 1.905635 1_555
O6 Zr0 2.247628 1_455
O6 Pb1 2.501688 1_455
O7 Zr0 2.033626 1_555
O7 Zr1 2.203927 1_556
O7 Pb2 2.494030 1_555
O8 Zr1 2.053476 1_665
O8 Ti0 2.125117 1_555
O8 Pb0 2.436222 1_554
