# generated using pymatgen
data_Sr2Mg
_symmetry_space_group_name_H-M   'P 1'
_cell_length_a   20.14010307
_cell_length_b   20.14010307
_cell_length_c   12.91267600
_cell_angle_alpha   90.00000000
_cell_angle_beta   90.00000000
_cell_angle_gamma   156.05749564
_symmetry_Int_Tables_number   1
_chemical_formula_structural   Sr2Mg
_chemical_formula_sum   'Sr32 Mg16'
_cell_volume   2125.55703958
_cell_formula_units_Z   16
loop_
 _symmetry_equiv_pos_site_id
 _symmetry_equiv_pos_as_xyz
  1  'x, y, z'
loop_
 _atom_site_type_symbol
 _atom_site_label
 _atom_site_symmetry_multiplicity
 _atom_site_fract_x
 _atom_site_fract_y
 _atom_site_fract_z
 _atom_site_occupancy
  Sr  Sr0_0  1  0.31611200  0.18388800  0.12500000  1
  Sr  Sr0_1  1  0.31611200  0.18388800  0.62500000  1
  Sr  Sr0_2  1  0.31611200  0.68388800  0.12500000  1
  Sr  Sr0_3  1  0.31611200  0.68388800  0.62500000  1
  Sr  Sr0_4  1  0.81611200  0.18388800  0.12500000  1
  Sr  Sr0_5  1  0.81611200  0.18388800  0.62500000  1
  Sr  Sr0_6  1  0.81611200  0.68388800  0.12500000  1
  Sr  Sr0_7  1  0.81611200  0.68388800  0.62500000  1
  Sr  Sr1_0  1  0.46619650  0.03380350  0.12500000  1
  Sr  Sr1_1  1  0.46619650  0.03380350  0.62500000  1
  Sr  Sr1_2  1  0.46619650  0.53380350  0.12500000  1
  Sr  Sr1_3  1  0.46619650  0.53380350  0.62500000  1
  Sr  Sr1_4  1  0.96619650  0.03380350  0.12500000  1
  Sr  Sr1_5  1  0.96619650  0.03380350  0.62500000  1
  Sr  Sr1_6  1  0.96619650  0.53380350  0.12500000  1
  Sr  Sr1_7  1  0.96619650  0.53380350  0.62500000  1
  Sr  Sr2_0  1  0.03380350  0.46619650  0.37500000  1
  Sr  Sr2_1  1  0.03380350  0.46619650  0.87500000  1
  Sr  Sr2_2  1  0.03380350  0.96619650  0.37500000  1
  Sr  Sr2_3  1  0.03380350  0.96619650  0.87500000  1
  Sr  Sr2_4  1  0.53380350  0.46619650  0.37500000  1
  Sr  Sr2_5  1  0.53380350  0.46619650  0.87500000  1
  Sr  Sr2_6  1  0.53380350  0.96619650  0.37500000  1
  Sr  Sr2_7  1  0.53380350  0.96619650  0.87500000  1
  Sr  Sr3_0  1  0.18388800  0.31611200  0.37500000  1
  Sr  Sr3_1  1  0.18388800  0.31611200  0.87500000  1
  Sr  Sr3_2  1  0.18388800  0.81611200  0.37500000  1
  Sr  Sr3_3  1  0.18388800  0.81611200  0.87500000  1
  Sr  Sr3_4  1  0.68388800  0.31611200  0.37500000  1
  Sr  Sr3_5  1  0.68388800  0.31611200  0.87500000  1
  Sr  Sr3_6  1  0.68388800  0.81611200  0.37500000  1
  Sr  Sr3_7  1  0.68388800  0.81611200  0.87500000  1
  Mg  Mg0_0  1  0.13904850  0.36095150  0.12500000  1
  Mg  Mg0_1  1  0.13904850  0.36095150  0.62500000  1
  Mg  Mg0_2  1  0.13904850  0.86095150  0.12500000  1
  Mg  Mg0_3  1  0.13904850  0.86095150  0.62500000  1
  Mg  Mg0_4  1  0.63904850  0.36095150  0.12500000  1
  Mg  Mg0_5  1  0.63904850  0.36095150  0.62500000  1
  Mg  Mg0_6  1  0.63904850  0.86095150  0.12500000  1
  Mg  Mg0_7  1  0.63904850  0.86095150  0.62500000  1
  Mg  Mg1_0  1  0.36095150  0.13904850  0.37500000  1
  Mg  Mg1_1  1  0.36095150  0.13904850  0.87500000  1
  Mg  Mg1_2  1  0.36095150  0.63904850  0.37500000  1
  Mg  Mg1_3  1  0.36095150  0.63904850  0.87500000  1
  Mg  Mg1_4  1  0.86095150  0.13904850  0.37500000  1
  Mg  Mg1_5  1  0.86095150  0.13904850  0.87500000  1
  Mg  Mg1_6  1  0.86095150  0.63904850  0.37500000  1
  Mg  Mg1_7  1  0.86095150  0.63904850  0.87500000  1
loop_
_geom_bond_atom_site_label_1
_geom_bond_atom_site_label_2
_geom_bond_distance
_geom_bond_site_symmetry_2
Sr0_0 Sr2_5 4.050267 1_554
Sr0_0 Sr2_4 4.050267 1_555
Sr0_0 Sr2_3 4.050267 1_544
Sr0_0 Sr2_2 4.050267 1_545
Sr0_0 Sr0_6 4.177478 1_555
Sr0_0 Sr0_6 4.177478 1_445
Sr0_0 Sr1_2 4.456848 1_555
Sr0_0 Sr1_4 4.456848 1_455
Sr0_1 Sr2_4 4.050267 1_555
Sr0_1 Sr2_5 4.050267 1_555
Sr0_1 Sr2_2 4.050267 1_545
Sr0_1 Sr2_3 4.050267 1_545
Sr0_1 Sr0_7 4.177478 1_555
Sr0_1 Sr0_7 4.177478 1_445
Sr0_1 Sr1_3 4.456848 1_555
Sr0_1 Sr1_5 4.456848 1_455
Sr0_2 Sr2_7 4.050267 1_554
Sr0_2 Sr2_6 4.050267 1_555
Sr0_2 Sr2_1 4.050267 1_554
Sr0_2 Sr2_0 4.050267 1_555
Sr0_2 Sr0_4 4.177478 1_455
Sr0_2 Sr0_4 4.177478 1_565
Sr0_2 Sr1_0 4.456848 1_565
Sr0_2 Sr1_6 4.456848 1_455
Sr0_3 Sr2_6 4.050267 1_555
Sr0_3 Sr2_7 4.050267 1_555
Sr0_3 Sr2_0 4.050267 1_555
Sr0_3 Sr2_1 4.050267 1_555
Sr0_3 Sr0_5 4.177478 1_455
Sr0_3 Sr0_5 4.177478 1_565
Sr0_3 Sr1_1 4.456848 1_565
Sr0_3 Sr1_7 4.456848 1_455
Sr0_4 Sr2_1 4.050267 1_654
Sr0_4 Sr2_0 4.050267 1_655
Sr0_4 Sr2_7 4.050267 1_544
Sr0_4 Sr2_6 4.050267 1_545
Sr0_4 Sr1_6 4.456848 1_555
Sr0_4 Sr1_0 4.456848 1_555
Sr0_5 Sr2_0 4.050267 1_655
Sr0_5 Sr2_1 4.050267 1_655
Sr0_5 Sr2_6 4.050267 1_545
Sr0_5 Sr2_7 4.050267 1_545
Sr0_5 Sr1_7 4.456848 1_555
Sr0_5 Sr1_1 4.456848 1_555
Sr0_6 Sr2_3 4.050267 1_654
Sr0_6 Sr2_2 4.050267 1_655
Sr0_6 Sr2_5 4.050267 1_554
Sr0_6 Sr2_4 4.050267 1_555
Sr0_6 Sr1_4 4.456848 1_565
Sr0_6 Sr1_2 4.456848 1_555
Sr0_7 Sr2_2 4.050267 1_655
Sr0_7 Sr2_3 4.050267 1_655
Sr0_7 Sr2_4 4.050267 1_555
Sr0_7 Sr2_5 4.050267 1_555
Sr0_7 Sr1_5 4.456848 1_565
Sr0_7 Sr1_3 4.456848 1_555
Sr1_0 Sr3_3 4.050267 1_544
Sr1_0 Sr3_2 4.050267 1_545
Sr1_0 Sr3_5 4.050267 1_554
Sr1_0 Sr3_4 4.050267 1_555
Sr1_0 Sr1_6 4.177478 1_555
Sr1_0 Sr1_6 4.177478 1_445
Sr1_0 Sr2_7 4.185447 1_544
Sr1_0 Sr2_6 4.185447 1_545
Sr1_1 Sr3_2 4.050267 1_545
Sr1_1 Sr3_3 4.050267 1_545
Sr1_1 Sr3_4 4.050267 1_555
Sr1_1 Sr3_5 4.050267 1_555
Sr1_1 Sr1_7 4.177478 1_555
Sr1_1 Sr1_7 4.177478 1_445
Sr1_1 Sr2_6 4.185447 1_545
Sr1_1 Sr2_7 4.185447 1_545
Sr1_2 Sr3_1 4.050267 1_554
Sr1_2 Sr3_0 4.050267 1_555
Sr1_2 Sr3_7 4.050267 1_554
Sr1_2 Sr3_6 4.050267 1_555
Sr1_2 Sr1_4 4.177478 1_455
Sr1_2 Sr1_4 4.177478 1_565
Sr1_2 Sr2_5 4.185447 1_554
Sr1_2 Sr2_4 4.185447 1_555
Sr1_3 Sr3_0 4.050267 1_555
Sr1_3 Sr3_1 4.050267 1_555
Sr1_3 Sr3_6 4.050267 1_555
Sr1_3 Sr3_7 4.050267 1_555
Sr1_3 Sr1_5 4.177478 1_455
Sr1_3 Sr1_5 4.177478 1_565
Sr1_3 Sr2_4 4.185447 1_555
Sr1_3 Sr2_5 4.185447 1_555
Sr1_4 Sr3_7 4.050267 1_544
Sr1_4 Sr3_6 4.050267 1_545
Sr1_4 Sr3_1 4.050267 1_654
Sr1_4 Sr3_0 4.050267 1_655
Sr1_4 Sr2_3 4.185447 1_644
Sr1_4 Sr2_2 4.185447 1_645
Sr1_5 Sr3_6 4.050267 1_545
Sr1_5 Sr3_7 4.050267 1_545
Sr1_5 Sr3_0 4.050267 1_655
Sr1_5 Sr3_1 4.050267 1_655
Sr1_5 Sr2_2 4.185447 1_645
Sr1_5 Sr2_3 4.185447 1_645
Sr1_6 Sr3_5 4.050267 1_554
Sr1_6 Sr3_4 4.050267 1_555
Sr1_6 Sr3_3 4.050267 1_654
Sr1_6 Sr3_2 4.050267 1_655
Sr1_6 Sr2_1 4.185447 1_654
Sr1_6 Sr2_0 4.185447 1_655
Sr1_7 Sr3_4 4.050267 1_555
Sr1_7 Sr3_5 4.050267 1_555
Sr1_7 Sr3_2 4.050267 1_655
Sr1_7 Sr3_3 4.050267 1_655
Sr1_7 Sr2_0 4.185447 1_655
Sr1_7 Sr2_1 4.185447 1_655
Sr2_0 Sr2_6 4.177478 1_555
Sr2_0 Sr2_6 4.177478 1_445
Sr2_0 Sr3_4 4.456848 1_455
Sr2_0 Sr3_2 4.456848 1_555
Sr2_1 Sr2_7 4.177478 1_555
Sr2_1 Sr2_7 4.177478 1_445
Sr2_1 Sr3_5 4.456848 1_455
Sr2_1 Sr3_3 4.456848 1_555
Sr2_2 Sr2_4 4.177478 1_565
Sr2_2 Sr2_4 4.177478 1_455
Sr2_2 Sr3_0 4.456848 1_565
Sr2_2 Sr3_6 4.456848 1_455
Sr2_3 Sr2_5 4.177478 1_565
Sr2_3 Sr2_5 4.177478 1_455
Sr2_3 Sr3_1 4.456848 1_565
Sr2_3 Sr3_7 4.456848 1_455
Sr2_4 Sr3_0 4.456848 1_555
Sr2_4 Sr3_6 4.456848 1_555
Sr2_5 Sr3_1 4.456848 1_555
Sr2_5 Sr3_7 4.456848 1_555
Sr2_6 Sr3_4 4.456848 1_565
Sr2_6 Sr3_2 4.456848 1_555
Sr2_7 Sr3_5 4.456848 1_565
Sr2_7 Sr3_3 4.456848 1_555
Sr3_0 Sr3_6 4.177478 1_555
Sr3_0 Sr3_6 4.177478 1_445
Sr3_1 Sr3_7 4.177478 1_555
Sr3_1 Sr3_7 4.177478 1_445
Sr3_2 Sr3_4 4.177478 1_565
Sr3_2 Sr3_4 4.177478 1_455
Sr3_3 Sr3_5 4.177478 1_565
Sr3_3 Sr3_5 4.177478 1_455
Mg0_0 Sr0_4 3.552848 1_455
Mg0_0 Sr0_2 3.552848 1_555
Mg0_0 Sr3_1 3.680066 1_554
Mg0_0 Sr3_0 3.680066 1_555
Mg0_0 Sr1_2 3.688381 1_555
Mg0_0 Sr1_4 3.688381 1_455
Mg0_1 Sr0_3 3.552848 1_555
Mg0_1 Sr0_5 3.552848 1_455
Mg0_1 Sr3_0 3.680066 1_555
Mg0_1 Sr3_1 3.680066 1_555
Mg0_1 Sr1_3 3.688381 1_555
Mg0_1 Sr1_5 3.688381 1_455
Mg0_2 Sr0_6 3.552848 1_455
Mg0_2 Sr0_0 3.552848 1_565
Mg0_2 Sr3_3 3.680066 1_554
Mg0_2 Sr3_2 3.680066 1_555
Mg0_2 Sr1_0 3.688381 1_565
Mg0_2 Sr1_6 3.688381 1_455
Mg0_3 Sr0_7 3.552848 1_455
Mg0_3 Sr0_1 3.552848 1_565
Mg0_3 Sr3_2 3.680066 1_555
Mg0_3 Sr3_3 3.680066 1_555
Mg0_3 Sr1_1 3.688381 1_565
Mg0_3 Sr1_7 3.688381 1_455
Mg0_4 Sr0_6 3.552848 1_555
Mg0_4 Sr0_0 3.552848 1_555
Mg0_4 Sr3_5 3.680066 1_554
Mg0_4 Sr3_4 3.680066 1_555
Mg0_4 Sr1_6 3.688381 1_555
Mg0_4 Sr1_0 3.688381 1_555
Mg0_5 Sr0_7 3.552848 1_555
Mg0_5 Sr0_1 3.552848 1_555
Mg0_5 Sr3_4 3.680066 1_555
Mg0_5 Sr3_5 3.680066 1_555
Mg0_5 Sr1_7 3.688381 1_555
Mg0_5 Sr1_1 3.688381 1_555
Mg0_6 Sr0_2 3.552848 1_555
Mg0_6 Sr0_4 3.552848 1_565
Mg0_6 Sr3_7 3.680066 1_554
Mg0_6 Sr3_6 3.680066 1_555
Mg0_6 Sr1_4 3.688381 1_565
Mg0_6 Sr1_2 3.688381 1_555
Mg0_7 Sr0_3 3.552848 1_555
Mg0_7 Sr0_5 3.552848 1_565
Mg0_7 Sr3_6 3.680066 1_555
Mg0_7 Sr3_7 3.680066 1_555
Mg0_7 Sr1_5 3.688381 1_565
Mg0_7 Sr1_3 3.688381 1_555
Mg1_0 Sr3_2 3.552848 1_545
Mg1_0 Sr3_4 3.552848 1_555
Mg1_0 Sr0_1 3.680066 1_555
Mg1_0 Sr0_0 3.680066 1_555
Mg1_0 Sr2_4 3.688381 1_555
Mg1_0 Sr2_2 3.688381 1_545
Mg1_1 Sr3_5 3.552848 1_555
Mg1_1 Sr3_3 3.552848 1_545
Mg1_1 Sr0_0 3.680066 1_556
Mg1_1 Sr0_1 3.680066 1_555
Mg1_1 Sr2_5 3.688381 1_555
Mg1_1 Sr2_3 3.688381 1_545
Mg1_2 Sr3_6 3.552848 1_555
Mg1_2 Sr3_0 3.552848 1_555
Mg1_2 Sr0_2 3.680066 1_555
Mg1_2 Sr0_3 3.680066 1_555
Mg1_2 Sr2_6 3.688381 1_555
Mg1_2 Sr2_0 3.688381 1_555
Mg1_3 Sr3_7 3.552848 1_555
Mg1_3 Sr3_1 3.552848 1_555
Mg1_3 Sr0_2 3.680066 1_556
Mg1_3 Sr0_3 3.680066 1_555
Mg1_3 Sr2_7 3.688381 1_555
Mg1_3 Sr2_1 3.688381 1_555
Mg1_4 Sr3_6 3.552848 1_545
Mg1_4 Sr3_0 3.552848 1_655
Mg1_4 Sr0_4 3.680066 1_555
Mg1_4 Sr0_5 3.680066 1_555
Mg1_4 Sr2_0 3.688381 1_655
Mg1_4 Sr2_6 3.688381 1_545
Mg1_5 Sr3_7 3.552848 1_545
Mg1_5 Sr3_1 3.552848 1_655
Mg1_5 Sr0_4 3.680066 1_556
Mg1_5 Sr0_5 3.680066 1_555
Mg1_5 Sr2_1 3.688381 1_655
Mg1_5 Sr2_7 3.688381 1_545
Mg1_6 Sr3_4 3.552848 1_555
Mg1_6 Sr3_2 3.552848 1_655
Mg1_6 Sr0_6 3.680066 1_555
Mg1_6 Sr0_7 3.680066 1_555
Mg1_6 Sr2_2 3.688381 1_655
Mg1_6 Sr2_4 3.688381 1_555
Mg1_7 Sr3_5 3.552848 1_555
Mg1_7 Sr3_3 3.552848 1_655
Mg1_7 Sr0_6 3.680066 1_556
Mg1_7 Sr0_7 3.680066 1_555
Mg1_7 Sr2_3 3.688381 1_655
Mg1_7 Sr2_5 3.688381 1_555
