# generated using pymatgen
data_Ho3Cu11Si4
_symmetry_space_group_name_H-M   'P 1'
_cell_length_a   8.40010137
_cell_length_b   8.40010137
_cell_length_c   8.61121100
_cell_angle_alpha   90.00000000
_cell_angle_beta   90.00000000
_cell_angle_gamma   119.99999505
_symmetry_Int_Tables_number   1
_chemical_formula_structural   Ho3Cu11Si4
_chemical_formula_sum   'Ho6 Cu22 Si8'
_cell_volume   526.21586598
_cell_formula_units_Z   2
loop_
 _symmetry_equiv_pos_site_id
 _symmetry_equiv_pos_as_xyz
  1  'x, y, z'
loop_
 _atom_site_type_symbol
 _atom_site_label
 _atom_site_symmetry_multiplicity
 _atom_site_fract_x
 _atom_site_fract_y
 _atom_site_fract_z
 _atom_site_occupancy
  Ho  Ho0  1  0.80239100  0.19760900  0.75000000  1
  Ho  Ho1  1  0.19760900  0.80239100  0.25000000  1
  Ho  Ho2  1  0.39521800  0.19760900  0.75000000  1
  Ho  Ho3  1  0.60478200  0.80239100  0.25000000  1
  Ho  Ho4  1  0.80239100  0.60478200  0.75000000  1
  Ho  Ho5  1  0.19760900  0.39521800  0.25000000  1
  Cu  Cu0  1  0.84844800  0.15155200  0.40938300  1
  Cu  Cu1  1  0.15155200  0.84844800  0.59061700  1
  Cu  Cu2  1  0.30310300  0.15155200  0.40938300  1
  Cu  Cu3  1  0.15155200  0.84844800  0.90938300  1
  Cu  Cu4  1  0.69689700  0.84844800  0.59061700  1
  Cu  Cu5  1  0.84844800  0.15155200  0.09061700  1
  Cu  Cu6  1  0.84844800  0.69689700  0.40938300  1
  Cu  Cu7  1  0.69689700  0.84844800  0.90938300  1
  Cu  Cu8  1  0.15155200  0.30310300  0.59061700  1
  Cu  Cu9  1  0.30310300  0.15155200  0.09061700  1
  Cu  Cu10  1  0.15155200  0.30310300  0.90938300  1
  Cu  Cu11  1  0.84844800  0.69689700  0.09061700  1
  Cu  Cu12  1  0.43541100  0.56458900  0.75000000  1
  Cu  Cu13  1  0.56458900  0.43541100  0.25000000  1
  Cu  Cu14  1  0.12917900  0.56458900  0.75000000  1
  Cu  Cu15  1  0.87082100  0.43541100  0.25000000  1
  Cu  Cu16  1  0.43541100  0.87082100  0.75000000  1
  Cu  Cu17  1  0.56458900  0.12917900  0.25000000  1
  Cu  Cu18  1  0.66666700  0.33333300  0.00775700  1
  Cu  Cu19  1  0.33333300  0.66666700  0.99224300  1
  Cu  Cu20  1  0.33333300  0.66666700  0.50775700  1
  Cu  Cu21  1  0.66666700  0.33333300  0.49224300  1
  Si  Si0  1  0.50000000  0.50000000  0.00000000  1
  Si  Si1  1  0.00000000  0.50000000  0.00000000  1
  Si  Si2  1  0.50000000  0.50000000  0.50000000  1
  Si  Si3  1  0.50000000  0.00000000  0.00000000  1
  Si  Si4  1  0.00000000  0.50000000  0.50000000  1
  Si  Si5  1  0.50000000  0.00000000  0.50000000  1
  Si  Si6  1  0.00000000  0.00000000  0.75000000  1
  Si  Si7  1  0.00000000  0.00000000  0.25000000  1
loop_
_geom_bond_atom_site_label_1
_geom_bond_atom_site_label_2
_geom_bond_distance
_geom_bond_site_symmetry_2
Ho0 Si6 2.875093 1_655
Ho0 Si3 3.102532 1_556
Ho0 Si5 3.102532 1_555
Ho0 Si1 3.102532 1_656
Ho0 Si4 3.102532 1_655
Ho1 Si7 2.875093 1_565
Ho1 Si1 3.102532 1_555
Ho1 Si4 3.102532 1_555
Ho1 Si5 3.102532 1_565
Ho1 Si3 3.102532 1_565
Ho2 Si6 2.875093 1_555
Ho2 Si5 3.102532 1_555
Ho2 Si3 3.102532 1_556
Ho2 Si0 3.102532 1_556
Ho2 Si2 3.102532 1_555
Ho3 Si7 2.875093 1_665
Ho3 Si5 3.102532 1_565
Ho3 Si3 3.102532 1_565
Ho3 Si2 3.102532 1_555
Ho3 Si0 3.102532 1_555
Ho4 Si6 2.875093 1_665
Ho4 Si4 3.102532 1_655
Ho4 Si1 3.102532 1_656
Ho4 Si2 3.102532 1_555
Ho4 Si0 3.102532 1_556
Ho5 Si7 2.875093 1_555
Ho5 Si4 3.102532 1_555
Ho5 Si1 3.102532 1_555
Ho5 Si0 3.102532 1_555
Ho5 Si2 3.102532 1_555
Cu0 Si7 2.597246 1_655
Cu0 Si4 2.659072 1_655
Cu0 Si5 2.659072 1_555
Cu0 Cu17 2.675159 1_555
Cu0 Cu15 2.675159 1_555
Cu0 Cu8 2.701406 1_655
Cu0 Cu4 2.701406 1_545
Cu0 Cu21 2.739363 1_555
Cu0 Cu5 2.744961 1_555
Cu0 Ho5 2.944876 1_655
Cu0 Ho3 2.944876 1_545
Cu0 Ho0 3.008697 1_555
Cu1 Si6 2.597246 1_565
Cu1 Si4 2.659072 1_555
Cu1 Si5 2.659072 1_565
Cu1 Cu16 2.675159 1_555
Cu1 Cu14 2.675159 1_555
Cu1 Cu2 2.701406 1_565
Cu1 Cu6 2.701406 1_455
Cu1 Cu20 2.739363 1_555
Cu1 Cu3 2.744961 1_555
Cu1 Ho2 2.944876 1_565
Cu1 Ho4 2.944876 1_455
Cu1 Ho1 3.008697 1_555
Cu2 Si7 2.597240 1_555
Cu2 Si2 2.659073 1_555
Cu2 Si5 2.659079 1_555
Cu2 Cu8 2.701394 1_555
Cu2 Cu21 2.739377 1_555
Cu2 Cu9 2.744961 1_555
Cu2 Ho5 2.944870 1_555
Cu2 Ho1 2.944878 1_545
Cu2 Ho2 3.008699 1_555
Cu3 Si6 2.597246 1_565
Cu3 Si3 2.659072 1_566
Cu3 Si1 2.659072 1_556
Cu3 Cu9 2.701406 1_566
Cu3 Ho2 2.944876 1_565
Cu3 Ho4 2.944876 1_455
Cu3 Ho1 3.008697 1_556
Cu4 Si6 2.597240 1_665
Cu4 Si2 2.659073 1_555
Cu4 Si5 2.659079 1_565
Cu4 Cu6 2.701394 1_555
Cu4 Cu7 2.744961 1_555
Cu4 Ho4 2.944870 1_555
Cu4 Ho0 2.944878 1_565
Cu4 Ho3 3.008699 1_555
Cu5 Si7 2.597246 1_655
Cu5 Si1 2.659072 1_655
Cu5 Si3 2.659072 1_555
Cu5 Cu7 2.701406 1_544
Cu5 Ho5 2.944876 1_655
Cu5 Ho3 2.944876 1_545
Cu5 Ho0 3.008697 1_554
Cu6 Si7 2.597240 1_665
Cu6 Si2 2.659073 1_555
Cu6 Si4 2.659079 1_655
Cu6 Ho3 2.944870 1_555
Cu6 Ho1 2.944878 1_655
Cu6 Ho4 3.008699 1_555
Cu7 Si6 2.597240 1_665
Cu7 Si0 2.659073 1_556
Cu7 Si3 2.659079 1_566
Cu7 Ho4 2.944870 1_555
Cu7 Ho0 2.944878 1_565
Cu7 Ho3 3.008699 1_556
Cu8 Si6 2.597240 1_555
Cu8 Si2 2.659073 1_555
Cu8 Si4 2.659079 1_555
Cu8 Ho2 2.944870 1_555
Cu8 Ho0 2.944878 1_455
Cu8 Ho5 3.008699 1_555
Cu9 Si7 2.597240 1_555
Cu9 Si0 2.659073 1_555
Cu9 Si3 2.659079 1_555
Cu9 Ho5 2.944870 1_555
Cu9 Ho1 2.944878 1_545
Cu9 Ho2 3.008699 1_554
Cu10 Si6 2.597240 1_555
Cu10 Si0 2.659073 1_556
Cu10 Si1 2.659079 1_556
Cu10 Cu14 2.675159 1_555
Cu10 Cu12 2.675159 1_555
Cu10 Cu9 2.701394 1_556
Cu10 Cu5 2.701406 1_456
Cu10 Cu19 2.739377 1_555
Cu10 Cu8 2.744961 1_555
Cu10 Ho2 2.944870 1_555
Cu10 Ho0 2.944878 1_455
Cu10 Ho5 3.008699 1_556
Cu11 Si7 2.597240 1_665
Cu11 Si0 2.659073 1_555
Cu11 Si1 2.659079 1_655
Cu11 Cu15 2.675159 1_555
Cu11 Cu13 2.675159 1_555
Cu11 Cu7 2.701394 1_554
Cu11 Cu3 2.701406 1_654
Cu11 Cu18 2.739377 1_555
Cu11 Cu6 2.744961 1_555
Cu11 Ho3 2.944870 1_555
Cu11 Ho1 2.944878 1_655
Cu11 Ho4 3.008699 1_554
Cu12 Si0 2.348969 1_556
Cu12 Si2 2.348969 1_555
Cu12 Cu19 2.560695 1_555
Cu12 Cu20 2.560695 1_555
Cu12 Cu16 2.572380 1_555
Cu12 Cu14 2.572380 1_555
Cu12 Cu7 2.675159 1_555
Cu12 Cu8 2.675159 1_555
Cu12 Cu4 2.675159 1_555
Cu12 Ho4 2.928490 1_555
Cu12 Ho2 2.928490 1_555
Cu13 Si2 2.348969 1_555
Cu13 Si0 2.348969 1_555
Cu13 Cu18 2.560695 1_555
Cu13 Cu21 2.560695 1_555
Cu13 Cu15 2.572380 1_555
Cu13 Cu17 2.572380 1_555
Cu13 Cu6 2.675159 1_555
Cu13 Cu2 2.675159 1_555
Cu13 Cu9 2.675159 1_555
Cu13 Ho3 2.928490 1_555
Cu13 Ho5 2.928490 1_555
Cu14 Si4 2.348972 1_555
Cu14 Si1 2.348972 1_556
Cu14 Cu19 2.560687 1_555
Cu14 Cu20 2.560687 1_555
Cu14 Cu16 2.572380 1_555
Cu14 Cu8 2.675159 1_555
Cu14 Cu3 2.675159 1_555
Cu14 Ho0 2.928494 1_455
Cu14 Ho4 2.928498 1_455
Cu15 Si1 2.348972 1_655
Cu15 Si4 2.348972 1_655
Cu15 Cu21 2.560687 1_555
Cu15 Cu18 2.560687 1_555
Cu15 Cu17 2.572380 1_555
Cu15 Cu6 2.675159 1_555
Cu15 Cu5 2.675159 1_555
Cu15 Ho1 2.928494 1_655
Cu15 Ho5 2.928498 1_655
Cu16 Si5 2.348972 1_565
Cu16 Si3 2.348972 1_566
Cu16 Cu19 2.560687 1_555
Cu16 Cu20 2.560687 1_555
Cu16 Cu7 2.675159 1_555
Cu16 Cu4 2.675159 1_555
Cu16 Cu3 2.675159 1_555
Cu16 Ho0 2.928494 1_565
Cu16 Ho2 2.928498 1_565
Cu17 Si5 2.348972 1_555
Cu17 Si3 2.348972 1_555
Cu17 Cu21 2.560687 1_555
Cu17 Cu18 2.560687 1_555
Cu17 Cu2 2.675159 1_555
Cu17 Cu9 2.675159 1_555
Cu17 Cu5 2.675159 1_555
Cu17 Ho1 2.928494 1_545
Cu17 Ho3 2.928498 1_545
Cu18 Si3 2.425818 1_555
Cu18 Si1 2.425818 1_655
Cu18 Si0 2.425825 1_555
Cu18 Cu5 2.739363 1_555
Cu18 Cu9 2.739377 1_555
Cu18 Ho0 2.970871 1_554
Cu18 Ho4 2.970876 1_554
Cu18 Ho2 2.970876 1_554
Cu19 Si3 2.425818 1_566
Cu19 Si1 2.425818 1_556
Cu19 Si0 2.425825 1_556
Cu19 Cu3 2.739363 1_555
Cu19 Cu7 2.739377 1_555
Cu19 Ho1 2.970871 1_556
Cu19 Ho3 2.970876 1_556
Cu19 Ho5 2.970876 1_556
Cu20 Si4 2.425818 1_555
Cu20 Si5 2.425818 1_565
Cu20 Si2 2.425825 1_555
Cu20 Cu4 2.739377 1_555
Cu20 Cu8 2.739377 1_555
Cu20 Ho1 2.970871 1_555
Cu20 Ho3 2.970876 1_555
Cu20 Ho5 2.970876 1_555
Cu21 Si4 2.425818 1_655
Cu21 Si5 2.425818 1_555
Cu21 Si2 2.425825 1_555
Cu21 Cu6 2.739377 1_555
Cu21 Ho0 2.970871 1_555
Cu21 Ho4 2.970876 1_555
Cu21 Ho2 2.970876 1_555
