# generated using pymatgen
data_B2P6H60Ir2C18O3F8
_symmetry_space_group_name_H-M   'P 1'
_cell_length_a   9.48432246
_cell_length_b   10.02675869
_cell_length_c   11.50478652
_cell_angle_alpha   94.33412031
_cell_angle_beta   96.94460635
_cell_angle_gamma   97.78265850
_symmetry_Int_Tables_number   1
_chemical_formula_structural   B2P6H60Ir2C18O3F8
_chemical_formula_sum   'B2 P6 H60 Ir2 C18 O3 F8'
_cell_volume   1071.32805203
_cell_formula_units_Z   1
loop_
 _symmetry_equiv_pos_site_id
 _symmetry_equiv_pos_as_xyz
  1  'x, y, z'
loop_
 _atom_site_type_symbol
 _atom_site_label
 _atom_site_symmetry_multiplicity
 _atom_site_fract_x
 _atom_site_fract_y
 _atom_site_fract_z
 _atom_site_occupancy
  B  B0  1  0.86036700  0.82643500  0.18192300  1
  B  B1  1  0.14063900  0.17380800  0.81838100  1
  P  P0  1  0.73996300  0.79213200  0.64355100  1
  P  P1  1  0.26306400  0.19984100  0.36076400  1
  P  P2  1  0.42875400  0.69471800  0.75148800  1
  P  P3  1  0.56273200  0.31003000  0.25153000  1
  P  P4  1  0.68892000  0.45536200  0.70900700  1
  P  P5  1  0.29935900  0.53444400  0.28324000  1
  H  H0  1  0.19344800  0.62951700  0.80273500  1
  H  H1  1  0.80117900  0.38121000  0.20360900  1
  H  H2  1  0.60895900  0.97627800  0.58978700  1
  H  H3  1  0.39369700  0.01611400  0.41370400  1
  H  H4  1  0.29718600  0.88034700  0.78892400  1
  H  H5  1  0.70277800  0.12807500  0.21345800  1
  H  H6  1  0.66890400  0.89401300  0.46521400  1
  H  H7  1  0.33139800  0.09814600  0.53773900  1
  H  H8  1  0.19302800  0.61182500  0.64522500  1
  H  H9  1  0.79880900  0.39064700  0.35983300  1
  H  H10  1  0.75960300  0.31739000  0.54974700  1
  H  H11  1  0.24422800  0.67323100  0.44710400  1
  H  H12  1  0.87502300  0.72211900  0.48860800  1
  H  H13  1  0.12798600  0.27534300  0.51291300  1
  H  H14  1  0.88632900  0.96942600  0.77852900  1
  H  H15  1  0.11775700  0.03055200  0.22033300  1
  H  H16  1  0.59270800  0.74809600  0.93505200  1
  H  H17  1  0.40971100  0.25241200  0.06183200  1
  H  H18  1  0.89750500  0.45521900  0.60168300  1
  H  H19  1  0.09781500  0.54410900  0.39692600  1
  H  H20  1  0.25696500  0.48713600  0.73188200  1
  H  H21  1  0.73577500  0.51959700  0.27663000  1
  H  H22  1  0.87470700  0.31281600  0.68532700  1
  H  H23  1  0.12674400  0.68757400  0.31434300  1
  H  H24  1  0.50159800  0.57803100  0.91908400  1
  H  H25  1  0.49847600  0.42259000  0.07740200  1
  H  H26  1  0.09710800  0.80449200  0.03614800  1
  H  H27  1  0.90421300  0.19460700  0.96374600  1
  H  H28  1  0.64935400  0.24622400  0.80296700  1
  H  H29  1  0.35325300  0.74679200  0.19751200  1
  H  H30  1  0.98179900  0.84489400  0.59623400  1
  H  H31  1  0.01974100  0.15207600  0.40494400  1
  H  H32  1  0.85065200  0.43660600  0.88734900  1
  H  H33  1  0.14444200  0.56201800  0.10451200  1
  H  H34  1  0.37434300  0.89202000  0.65502600  1
  H  H35  1  0.62463600  0.11361700  0.34693000  1
  H  H36  1  0.47115000  0.72610500  0.54875800  1
  H  H37  1  0.53074500  0.29961100  0.47725500  1
  H  H38  1  0.40748600  0.71548600  0.95699900  1
  H  H39  1  0.59630500  0.28616700  0.04604100  1
  H  H40  1  0.49452900  0.33135700  0.79856800  1
  H  H41  1  0.50459400  0.65714500  0.20183300  1
  H  H42  1  0.74305000  0.56696500  0.91044400  1
  H  H43  1  0.24949500  0.42915000  0.08128000  1
  H  H44  1  0.79370900  0.00982200  0.56694900  1
  H  H45  1  0.20786700  0.98241200  0.43451600  1
  H  H46  1  0.72305900  0.90983200  0.83302100  1
  H  H47  1  0.28238600  0.09099400  0.16775500  1
  H  H48  1  0.89184900  0.59580100  0.83130800  1
  H  H49  1  0.09706300  0.40127200  0.15676800  1
  H  H50  1  0.94568200  0.67245600  0.62767100  1
  H  H51  1  0.06083700  0.32380300  0.37265900  1
  H  H52  1  0.48344800  0.94018700  0.79357600  1
  H  H53  1  0.51770300  0.06437600  0.20777600  1
  H  H54  1  0.86645600  0.81271900  0.84329900  1
  H  H55  1  0.14068100  0.19061400  0.16164300  1
  H  H56  1  0.52956300  0.24322500  0.66865700  1
  H  H57  1  0.46678500  0.74108600  0.33293000  1
  H  H58  1  0.16422500  0.90829900  0.95722900  1
  H  H59  1  0.83627100  0.09237700  0.04355100  1
  Ir  Ir0  1  0.55399500  0.61684900  0.61558500  1
  Ir  Ir1  1  0.43005000  0.38151200  0.39153000  1
  C  C0  1  0.81085300  0.87913900  0.78808600  1
  C  C1  1  0.19513500  0.12074700  0.21363500  1
  C  C2  1  0.69870100  0.93221500  0.55823500  1
  C  C3  1  0.30357100  0.05969500  0.44471200  1
  C  C4  1  0.58059600  0.30476700  0.74947800  1
  C  C5  1  0.41740200  0.68320600  0.24964700  1
  C  C6  1  0.90140300  0.75349800  0.58322800  1
  C  C7  1  0.10183300  0.24238300  0.41867400  1
  C  C8  1  0.25001100  0.59530000  0.73043800  1
  C  C9  1  0.74190700  0.41101600  0.27554100  1
  C  C10  1  0.39316600  0.86866600  0.74660800  1
  C  C11  1  0.60614000  0.13761500  0.25534000  1
  C  C12  1  0.80373300  0.51949900  0.84762900  1
  C  C13  1  0.18747700  0.47663200  0.14309200  1
  C  C14  1  0.81806100  0.37765100  0.62877200  1
  C  C15  1  0.17949000  0.61806200  0.36822500  1
  C  C16  1  0.48993600  0.68338800  0.90574300  1
  C  C17  1  0.51127500  0.31819700  0.09405000  1
  O  O0  1  0.16734500  0.81631500  0.98019400  1
  O  O1  1  0.83555700  0.18467000  0.02105200  1
  O  O2  1  0.38616500  0.49951900  0.52216300  1
  F  F0  1  0.98146400  0.76780500  0.14901300  1
  F  F1  1  0.01796300  0.23092400  0.84944200  1
  F  F2  1  0.74512400  0.72243400  0.18455700  1
  F  F3  1  0.25551400  0.27881500  0.81834400  1
  F  F4  1  0.89992100  0.89970600  0.29375400  1
  F  F5  1  0.10449700  0.10127500  0.70601000  1
  F  F6  1  0.82047200  0.91512800  0.09635600  1
  F  F7  1  0.17924900  0.08438500  0.90390800  1
loop_
_geom_bond_atom_site_label_1
_geom_bond_atom_site_label_2
_geom_bond_distance
_geom_bond_site_symmetry_2
B0 F2 1.409641 1_555
B0 F4 1.414768 1_555
B0 F6 1.427064 1_555
B0 F0 1.436115 1_555
B1 F3 1.408934 1_555
B1 F5 1.414559 1_555
B1 F7 1.428763 1_555
B1 F1 1.435086 1_555
H26 O0 0.982881 1_554
H27 O1 0.982227 1_556
H36 Ir0 1.619535 1_555
H37 Ir1 1.632843 1_555
H58 O0 0.981658 1_555
H59 O1 0.980250 1_555
Ir0 O2 1.990202 1_555
Ir0 P2 2.231804 1_555
Ir0 P0 2.289340 1_555
Ir0 P4 2.430257 1_555
Ir1 O2 1.961596 1_555
C0 H14 1.096643 1_555
C0 H54 1.096896 1_555
C0 H46 1.097611 1_555
C0 P0 1.824748 1_555
C1 H47 1.095939 1_555
C1 H55 1.096310 1_555
C1 H15 1.098566 1_555
C1 P1 1.817750 1_555
C2 H2 1.097143 1_555
C2 H44 1.097261 1_565
C2 H6 1.098852 1_555
C2 P0 1.831331 1_555
C3 H3 1.095539 1_555
C3 H7 1.097959 1_555
C3 H45 1.099156 1_545
C3 P1 1.821153 1_555
C4 H56 1.096895 1_555
C4 H40 1.097286 1_555
C4 H28 1.099886 1_555
C4 P4 1.831430 1_555
C5 H41 1.096148 1_555
C5 H57 1.099111 1_555
C5 H29 1.100463 1_555
C5 P5 1.834978 1_555
C6 H50 1.096081 1_555
C6 H30 1.098196 1_555
C6 H12 1.098933 1_555
C6 P0 1.831142 1_555
C7 H51 1.095183 1_555
C7 H13 1.097653 1_555
C7 H31 1.099436 1_555
C7 P1 1.828729 1_555
C8 H8 1.096046 1_555
C8 H20 1.096664 1_555
C8 H0 1.100883 1_555
C8 P2 1.825593 1_555
C9 H21 1.097317 1_555
C9 H9 1.098467 1_555
C9 H1 1.100369 1_555
C9 P3 1.835097 1_555
C10 H34 1.095431 1_555
C10 H52 1.096668 1_555
C10 H4 1.098548 1_555
C10 P2 1.824483 1_555
C11 H53 1.097130 1_555
C11 H35 1.097297 1_555
C11 H5 1.097703 1_555
C11 P3 1.832999 1_555
C12 H42 1.096717 1_555
C12 H48 1.097954 1_555
C12 H32 1.098203 1_555
C12 P4 1.837969 1_555
C13 H43 1.097348 1_555
C13 H33 1.097657 1_555
C13 H49 1.098251 1_555
C13 P5 1.827609 1_555
C14 H10 1.097001 1_555
C14 H18 1.097479 1_555
C14 H22 1.099357 1_555
C14 P4 1.839173 1_555
C15 H19 1.096457 1_555
C15 H11 1.097231 1_555
C15 H23 1.097753 1_555
C15 P5 1.831514 1_555
C16 H16 1.095864 1_555
C16 H24 1.097176 1_555
C16 H38 1.101724 1_555
C16 P2 1.816144 1_555
C17 H17 1.097716 1_555
C17 H25 1.098245 1_555
C17 H39 1.099830 1_555
C17 P3 1.829436 1_555
