# generated using pymatgen
data_YPRu2C
_symmetry_space_group_name_H-M   'P 1'
_cell_length_a   5.85338890
_cell_length_b   5.85338890
_cell_length_c   7.07003900
_cell_angle_alpha   90.00000000
_cell_angle_beta   90.00000000
_cell_angle_gamma   142.14645609
_symmetry_Int_Tables_number   1
_chemical_formula_structural   YPRu2C
_chemical_formula_sum   'Y2 P2 Ru4 C2'
_cell_volume   148.64623356
_cell_formula_units_Z   2
loop_
 _symmetry_equiv_pos_site_id
 _symmetry_equiv_pos_as_xyz
  1  'x, y, z'
loop_
 _atom_site_type_symbol
 _atom_site_label
 _atom_site_symmetry_multiplicity
 _atom_site_fract_x
 _atom_site_fract_y
 _atom_site_fract_z
 _atom_site_occupancy
  Y  Y0  1  0.54437700  0.45562300  0.25000000  1
  Y  Y1  1  0.45562300  0.54437700  0.75000000  1
  P  P0  1  0.26804200  0.73195800  0.25000000  1
  P  P1  1  0.73195800  0.26804200  0.75000000  1
  Ru  Ru0  1  0.83471800  0.16528200  0.05310200  1
  Ru  Ru1  1  0.16528200  0.83471800  0.94689800  1
  Ru  Ru2  1  0.16528200  0.83471800  0.55310200  1
  Ru  Ru3  1  0.83471800  0.16528200  0.44689800  1
  C  C0  1  0.00000000  0.00000000  0.00000000  1
  C  C1  1  0.00000000  0.00000000  0.50000000  1
loop_
_geom_bond_atom_site_label_1
_geom_bond_atom_site_label_2
_geom_bond_distance
_geom_bond_site_symmetry_2
P0 Ru2 2.426341 1_555
P0 Ru1 2.426341 1_554
P0 Ru0 2.467335 1_455
P0 Ru3 2.467335 1_565
P0 Ru0 2.467335 1_565
P0 Ru3 2.467335 1_455
P0 Y0 3.060089 1_555
P0 Y0 3.120797 1_455
P0 Y0 3.120797 1_565
P1 Ru0 2.426341 1_556
P1 Ru3 2.426341 1_555
P1 Ru2 2.467335 1_545
P1 Ru2 2.467335 1_655
P1 Ru1 2.467335 1_655
P1 Ru1 2.467335 1_545
P1 Y1 3.060089 1_555
P1 Y1 3.120797 1_545
P1 Y1 3.120797 1_655
C0 Ru0 1.868414 1_455
C0 Ru1 1.868414 1_544
C0 Y1 2.640128 1_554
C0 Y0 2.640128 1_555
C0 Y0 2.640128 1_445
C0 Y1 2.640128 1_444
C1 Ru3 1.868414 1_455
C1 Ru2 1.868414 1_545
C1 Y1 2.640128 1_555
C1 Y0 2.640128 1_555
C1 Y0 2.640128 1_445
C1 Y1 2.640128 1_445
