# generated using pymatgen
data_TeMoWSe2S
_symmetry_space_group_name_H-M   'P 1'
_cell_length_a   3.33719792
_cell_length_b   3.33719792
_cell_length_c   37.80163507
_cell_angle_alpha   90.00000000
_cell_angle_beta   90.00000000
_cell_angle_gamma   119.99998899
_symmetry_Int_Tables_number   1
_chemical_formula_structural   TeMoWSe2S
_chemical_formula_sum   'Te2 Mo2 W2 Se4 S2'
_cell_volume   364.59037117
_cell_formula_units_Z   2
loop_
 _symmetry_equiv_pos_site_id
 _symmetry_equiv_pos_as_xyz
  1  'x, y, z'
loop_
 _atom_site_type_symbol
 _atom_site_label
 _atom_site_symmetry_multiplicity
 _atom_site_fract_x
 _atom_site_fract_y
 _atom_site_fract_z
 _atom_site_occupancy
  Te  Te0  1  0.33333300  0.66666700  0.41989833  1
  Te  Te1  1  0.33333300  0.66666700  0.51931460  1
  Mo  Mo0  1  -0.00000000  0.00000000  0.09437302  1
  Mo  Mo1  1  -0.00000000  0.00000000  0.46959851  1
  W  W0  1  0.33333300  0.66666700  0.28071843  1
  W  W1  1  0.33333300  0.66666700  0.65822436  1
  Se  Se0  1  -0.00000000  0.00000000  0.32456044  1
  Se  Se1  1  -0.00000000  0.00000000  0.70200138  1
  Se  Se2  1  -0.00000000  0.00000000  0.23689525  1
  Se  Se3  1  -0.00000000  0.00000000  0.61440737  1
  S  S0  1  0.33333300  0.66666700  0.05451974  1
  S  S1  1  0.33333300  0.66666700  0.13423657  1
loop_
_geom_bond_atom_site_label_1
_geom_bond_atom_site_label_2
_geom_bond_distance
_geom_bond_site_symmetry_2
Mo0 S0 2.445790 1_545
Mo0 S0 2.445793 1_555
Mo0 S0 2.445793 1_445
Mo0 S1 2.446029 1_545
Mo0 S1 2.446032 1_555
Mo0 S1 2.446032 1_445
Mo1 Te0 2.691093 1_545
Mo1 Te0 2.691096 1_445
Mo1 Te0 2.691096 1_555
Mo1 Te1 2.691513 1_545
Mo1 Te1 2.691516 1_555
Mo1 Te1 2.691516 1_445
Se0 W0 2.541443 1_545
Se0 W0 2.541445 1_445
Se0 W0 2.541445 1_555
Se1 W1 2.539841 1_545
Se1 W1 2.539844 1_555
Se1 W1 2.539844 1_445
Se2 W0 2.540979 1_545
Se2 W0 2.540981 1_555
Se2 W0 2.540981 1_445
Se3 W1 2.540826 1_545
Se3 W1 2.540828 1_555
Se3 W1 2.540828 1_445
