# generated using pymatgen
data_Yb(MgBi)2
_symmetry_space_group_name_H-M   'P 1'
_cell_length_a   4.81476245
_cell_length_b   4.81476245
_cell_length_c   7.12623428
_cell_angle_alpha   90.00000000
_cell_angle_beta   90.00000000
_cell_angle_gamma   120.00001468
_symmetry_Int_Tables_number   1
_chemical_formula_structural   Yb(MgBi)2
_chemical_formula_sum   'Yb1 Mg2 Bi2'
_cell_volume   143.06730385
_cell_formula_units_Z   1
loop_
 _symmetry_equiv_pos_site_id
 _symmetry_equiv_pos_as_xyz
  1  'x, y, z'
loop_
 _atom_site_type_symbol
 _atom_site_label
 _atom_site_symmetry_multiplicity
 _atom_site_fract_x
 _atom_site_fract_y
 _atom_site_fract_z
 _atom_site_occupancy
  Yb  Yb0  1  0.00000000  0.00000000  0.00000000  1
  Mg  Mg0  1  0.33333300  0.66666700  0.65017177  1
  Mg  Mg1  1  0.66666700  0.33333300  0.34982823  1
  Bi  Bi0  1  0.33333300  0.66666700  0.23173530  1
  Bi  Bi1  1  0.66666700  0.33333300  0.76826470  1
loop_
_geom_bond_atom_site_label_1
_geom_bond_atom_site_label_2
_geom_bond_distance
_geom_bond_site_symmetry_2
Bi0 Mg1 2.904396 1_455
Bi0 Mg1 2.904396 1_565
Bi0 Mg1 2.904404 1_555
Bi0 Mg0 2.981876 1_555
Bi0 Yb0 3.233330 1_565
Bi0 Yb0 3.233333 1_555
Bi0 Yb0 3.233333 1_665
Bi1 Mg0 2.904396 1_545
Bi1 Mg0 2.904396 1_655
Bi1 Mg0 2.904404 1_555
Bi1 Mg1 2.981876 1_555
Bi1 Yb0 3.233330 1_656
Bi1 Yb0 3.233333 1_556
Bi1 Yb0 3.233333 1_666
