# generated using pymatgen
data_Eu3GaO6
_symmetry_space_group_name_H-M   'P 1'
_cell_length_a   7.36458049
_cell_length_b   7.36458049
_cell_length_c   5.54901400
_cell_angle_alpha   90.00000000
_cell_angle_beta   90.00000000
_cell_angle_gamma   102.97966219
_symmetry_Int_Tables_number   1
_chemical_formula_structural   Eu3GaO6
_chemical_formula_sum   'Eu6 Ga2 O12'
_cell_volume   293.27249958
_cell_formula_units_Z   2
loop_
 _symmetry_equiv_pos_site_id
 _symmetry_equiv_pos_as_xyz
  1  'x, y, z'
loop_
 _atom_site_type_symbol
 _atom_site_label
 _atom_site_symmetry_multiplicity
 _atom_site_fract_x
 _atom_site_fract_y
 _atom_site_fract_z
 _atom_site_occupancy
  Eu  Eu0  1  0.29883500  0.08552800  0.46852300  1
  Eu  Eu1  1  0.91447200  0.70116500  0.46852300  1
  Eu  Eu2  1  0.70116500  0.91447200  0.96852300  1
  Eu  Eu3  1  0.08552800  0.29883500  0.96852300  1
  Eu  Eu4  1  0.39385300  0.60614700  0.43029500  1
  Eu  Eu5  1  0.60614700  0.39385300  0.93029500  1
  Ga  Ga0  1  0.19235400  0.80764600  0.00789900  1
  Ga  Ga1  1  0.80764600  0.19235400  0.50789900  1
  O  O0  1  0.41759800  0.89073500  0.17970900  1
  O  O1  1  0.10926500  0.58240200  0.17970900  1
  O  O2  1  0.58240200  0.10926500  0.67970900  1
  O  O3  1  0.89073500  0.41759800  0.67970900  1
  O  O4  1  0.35650700  0.32500100  0.20169600  1
  O  O5  1  0.67499900  0.64349300  0.20169600  1
  O  O6  1  0.64349300  0.67499900  0.70169600  1
  O  O7  1  0.32500100  0.35650700  0.70169600  1
  O  O8  1  0.04374800  0.95625200  0.14441000  1
  O  O9  1  0.95625200  0.04374800  0.64441000  1
  O  O10  1  0.21317600  0.78682400  0.67421900  1
  O  O11  1  0.78682400  0.21317600  0.17421900  1
loop_
_geom_bond_atom_site_label_1
_geom_bond_atom_site_label_2
_geom_bond_distance
_geom_bond_site_symmetry_2
Eu0 O4 2.268593 1_555
Eu0 O7 2.349705 1_555
Eu0 O2 2.366658 1_555
Eu0 O10 2.432414 1_545
Eu0 O0 2.440298 1_545
Eu0 O8 2.620456 1_545
Eu0 O9 2.657810 1_455
Eu1 O5 2.268593 1_555
Eu1 O6 2.349705 1_555
Eu1 O3 2.366658 1_555
Eu1 O10 2.432414 1_655
Eu1 O1 2.440298 1_655
Eu1 O8 2.620456 1_655
Eu1 O9 2.657810 1_565
Eu2 O6 2.268593 1_555
Eu2 O5 2.349705 1_556
Eu2 O0 2.366658 1_556
Eu2 O11 2.432414 1_566
Eu2 O2 2.440298 1_565
Eu2 O9 2.620456 1_565
Eu2 O8 2.657810 1_656
Eu3 O7 2.268593 1_555
Eu3 O4 2.349705 1_556
Eu3 O1 2.366658 1_556
Eu3 O11 2.432414 1_456
Eu3 O3 2.440298 1_455
Eu3 O9 2.620456 1_455
Eu3 O8 2.657810 1_546
Eu4 O7 2.342320 1_555
Eu4 O6 2.342320 1_555
Eu4 O4 2.390813 1_555
Eu4 O5 2.390813 1_555
Eu4 O10 2.483636 1_555
Eu4 O1 2.488397 1_555
Eu4 O0 2.488397 1_555
Eu5 O5 2.342320 1_556
Eu5 O4 2.342320 1_556
Eu5 O7 2.390813 1_555
Eu5 O6 2.390813 1_555
Eu5 O11 2.483636 1_556
Eu5 O2 2.488397 1_555
Eu5 O3 2.488397 1_555
Ga0 O10 1.867082 1_554
Ga0 O8 1.872797 1_555
Ga0 O1 1.891851 1_555
Ga0 O0 1.891851 1_555
Ga1 O11 1.867082 1_555
Ga1 O9 1.872797 1_555
Ga1 O2 1.891851 1_555
Ga1 O3 1.891851 1_555
