# generated using pymatgen
data_Y2Co17
_symmetry_space_group_name_H-M   'P 1'
_cell_length_a   6.28216306
_cell_length_b   6.28216306
_cell_length_c   6.28216328
_cell_angle_alpha   82.90395482
_cell_angle_beta   82.90395482
_cell_angle_gamma   82.90395064
_symmetry_Int_Tables_number   1
_chemical_formula_structural   Y2Co17
_chemical_formula_sum   'Y2 Co17'
_cell_volume   242.66543342
_cell_formula_units_Z   1
loop_
 _symmetry_equiv_pos_site_id
 _symmetry_equiv_pos_as_xyz
  1  'x, y, z'
loop_
 _atom_site_type_symbol
 _atom_site_label
 _atom_site_symmetry_multiplicity
 _atom_site_fract_x
 _atom_site_fract_y
 _atom_site_fract_z
 _atom_site_occupancy
  Y  Y0  1  0.65577500  0.65577500  0.65577500  1
  Y  Y1  1  0.34422500  0.34422500  0.34422500  1
  Co  Co0  1  0.00000000  0.00000000  0.50000000  1
  Co  Co1  1  0.00000000  0.50000000  0.00000000  1
  Co  Co2  1  0.50000000  0.00000000  0.00000000  1
  Co  Co3  1  0.28817500  0.71182500  0.00000000  1
  Co  Co4  1  0.71182500  0.00000000  0.28817500  1
  Co  Co5  1  0.00000000  0.28817500  0.71182500  1
  Co  Co6  1  0.28817500  0.00000000  0.71182500  1
  Co  Co7  1  0.00000000  0.71182500  0.28817500  1
  Co  Co8  1  0.71182500  0.28817500  0.00000000  1
  Co  Co9  1  0.34545700  0.34545700  0.84997700  1
  Co  Co10  1  0.34545700  0.84997700  0.34545700  1
  Co  Co11  1  0.84997700  0.34545700  0.34545700  1
  Co  Co12  1  0.65454300  0.65454300  0.15002300  1
  Co  Co13  1  0.65454300  0.15002300  0.65454300  1
  Co  Co14  1  0.15002300  0.65454300  0.65454300  1
  Co  Co15  1  0.90350800  0.90350800  0.90350800  1
  Co  Co16  1  0.09649200  0.09649200  0.09649200  1
loop_
_geom_bond_atom_site_label_1
_geom_bond_atom_site_label_2
_geom_bond_distance
_geom_bond_site_symmetry_2
Co0 Co6 2.375590 1_555
Co0 Co5 2.375590 1_555
Co0 Co7 2.375590 1_545
Co0 Co4 2.375590 1_455
Co0 Co11 2.396003 1_455
Co0 Co10 2.396003 1_545
Co0 Co14 2.396003 1_545
Co0 Co13 2.396003 1_455
Co0 Co15 2.547968 1_445
Co0 Co16 2.547968 1_555
Co0 Y0 3.227996 1_445
Co0 Y1 3.227996 1_555
Co1 Co7 2.375590 1_555
Co1 Co5 2.375590 1_554
Co1 Co3 2.375590 1_555
Co1 Co8 2.375590 1_455
Co1 Co9 2.396003 1_554
Co1 Co12 2.396003 1_455
Co1 Co11 2.396003 1_455
Co1 Co14 2.396003 1_554
Co1 Co15 2.547967 1_454
Co1 Co16 2.547967 1_555
Co1 Y0 3.227995 1_454
Co1 Y1 3.227995 1_555
Co2 Co4 2.375590 1_555
Co2 Co6 2.375590 1_554
Co2 Co8 2.375590 1_555
Co2 Co3 2.375590 1_545
Co2 Co9 2.396003 1_554
Co2 Y0 3.227995 1_544
Co2 Y1 3.227995 1_555
Co3 Co7 2.396891 1_555
Co3 Co6 2.396891 1_564
Co3 Co9 2.561745 1_554
Co3 Y1 2.981054 1_555
Co3 Y0 2.981054 1_554
Co4 Co7 2.396891 1_645
Co4 Co8 2.396891 1_555
Co4 Y1 2.981053 1_555
Co4 Y0 2.981054 1_545
Co5 Co6 2.396891 1_555
Co5 Co8 2.396891 1_456
Co5 Co9 2.515560 1_555
Co5 Y0 2.981053 1_455
Co5 Y1 2.981054 1_555
Co6 Co9 2.515560 1_555
Co6 Y0 2.981053 1_545
Co6 Y1 2.981054 1_555
Co7 Y1 2.981053 1_555
Co7 Y0 2.981054 1_455
Co8 Co9 2.561745 1_554
Co8 Y1 2.981054 1_555
Co8 Y0 2.981054 1_554
Co9 Y0 2.975400 1_555
Co9 Y1 3.103056 1_556
Co9 Y1 3.179149 1_555
Co10 Co2 2.396003 1_565
Co10 Co12 2.445296 1_555
Co10 Co14 2.445296 1_555
Co10 Co7 2.515560 1_555
Co10 Co3 2.515560 1_555
Co10 Co4 2.561745 1_565
Co10 Co6 2.561745 1_565
Co10 Co16 2.588100 1_565
Co10 Y0 2.975400 1_555
Co10 Y1 3.103055 1_565
Co10 Y1 3.179149 1_555
Co11 Co12 2.445296 1_555
Co11 Co13 2.445296 1_555
Co11 Co4 2.515560 1_555
Co11 Co8 2.515560 1_555
Co11 Co7 2.561745 1_655
Co11 Co5 2.561745 1_655
Co11 Co16 2.588100 1_655
Co11 Y0 2.975400 1_555
Co11 Y1 3.103055 1_655
Co11 Y1 3.179149 1_555
Co12 Co2 2.396003 1_565
Co12 Co7 2.515560 1_655
Co12 Co4 2.515560 1_565
Co12 Co8 2.561745 1_555
Co12 Co3 2.561745 1_555
Co12 Co15 2.588100 1_554
Co12 Y1 2.975400 1_555
Co12 Y0 3.103056 1_554
Co12 Y0 3.179149 1_555
Co13 Co2 2.396003 1_556
Co13 Co9 2.445296 1_555
Co13 Co5 2.515560 1_655
Co13 Co8 2.515560 1_556
Co13 Co6 2.561745 1_555
Co13 Co4 2.561745 1_555
Co13 Co15 2.588100 1_545
Co13 Y1 2.975400 1_555
Co13 Y0 3.103055 1_545
Co13 Y0 3.179149 1_555
Co14 Co9 2.445296 1_555
Co14 Co6 2.515560 1_565
Co14 Co3 2.515560 1_556
Co14 Co5 2.561745 1_555
Co14 Co7 2.561745 1_555
Co14 Co15 2.588100 1_455
Co14 Y1 2.975400 1_555
Co14 Y0 3.103055 1_455
Co14 Y0 3.179149 1_555
Co15 Co16 2.344962 1_666
Co15 Co2 2.547967 1_566
Co15 Co3 2.668295 1_656
Co15 Co8 2.668295 1_566
Co15 Co5 2.668295 1_665
Co15 Co4 2.668295 1_566
Co15 Co7 2.668295 1_656
Co15 Co6 2.668295 1_665
Co15 Y0 3.010221 1_555
Co16 Co2 2.547967 1_555
Co16 Co9 2.588100 1_554
Co16 Co8 2.668295 1_455
Co16 Co3 2.668295 1_545
Co16 Co4 2.668295 1_455
Co16 Co5 2.668295 1_554
Co16 Co7 2.668295 1_545
Co16 Co6 2.668295 1_554
Co16 Y1 3.010221 1_555
