# generated using pymatgen
data_LaMg14Cu
_symmetry_space_group_name_H-M   'P 1'
_cell_length_a   6.64917043
_cell_length_b   6.24471137
_cell_length_c   10.19543777
_cell_angle_alpha   90.00000000
_cell_angle_beta   90.00000000
_cell_angle_gamma   118.00741556
_symmetry_Int_Tables_number   1
_chemical_formula_structural   LaMg14Cu
_chemical_formula_sum   'La1 Mg14 Cu1'
_cell_volume   373.75821623
_cell_formula_units_Z   1
loop_
 _symmetry_equiv_pos_site_id
 _symmetry_equiv_pos_as_xyz
  1  'x, y, z'
loop_
 _atom_site_type_symbol
 _atom_site_label
 _atom_site_symmetry_multiplicity
 _atom_site_fract_x
 _atom_site_fract_y
 _atom_site_fract_z
 _atom_site_occupancy
  La  La0  1  0.11963800  0.80981850  0.12500000  1
  Mg  Mg0  1  0.16238003  0.33118952  0.62500000  1
  Mg  Mg1  1  0.16879186  0.83439543  0.62500000  1
  Mg  Mg2  1  0.61934368  0.31840878  0.12500000  1
  Mg  Mg3  1  0.66526292  0.32608307  0.62500000  1
  Mg  Mg4  1  0.61934368  0.80093390  0.12500000  1
  Mg  Mg5  1  0.66526292  0.83917885  0.62500000  1
  Mg  Mg6  1  0.34413072  0.17549138  0.37878696  1
  Mg  Mg7  1  0.34413072  0.17549138  0.87121304  1
  Mg  Mg8  1  0.34413072  0.66864034  0.37878696  1
  Mg  Mg9  1  0.34413072  0.66864034  0.87121304  1
  Mg  Mg10  1  0.86757581  0.18378840  0.34469986  1
  Mg  Mg11  1  0.86757581  0.18378840  0.90530014  1
  Mg  Mg12  1  0.82682423  0.66341262  0.38983663  1
  Mg  Mg13  1  0.82682423  0.66341262  0.86016337  1
  Cu  Cu0  1  0.21465396  0.35732648  0.12500000  1
loop_
_geom_bond_atom_site_label_1
_geom_bond_atom_site_label_2
_geom_bond_distance
_geom_bond_site_symmetry_2
La0 Mg12 3.200856 1_455
La0 Mg13 3.200856 1_454
La0 Mg2 3.300852 1_455
La0 Mg4 3.300852 1_455
La0 Mg9 3.307008 1_554
La0 Mg8 3.307008 1_555
La0 Mg6 3.307014 1_565
La0 Mg7 3.307014 1_564
La0 Mg2 3.349040 1_565
La0 Mg4 3.349040 1_555
Mg0 Mg1 3.122583 1_555
Mg0 Mg1 3.122583 1_545
Mg0 Mg6 3.132201 1_555
Mg0 Mg7 3.132201 1_555
Mg0 Mg9 3.132207 1_555
Mg0 Mg8 3.132207 1_555
Mg0 Mg5 3.290562 1_445
Mg0 Mg3 3.290563 1_455
Mg0 Mg10 3.340962 1_455
Mg0 Mg11 3.340962 1_455
Mg0 Mg5 3.358846 1_555
Mg0 Mg3 3.358846 1_555
Mg1 Mg12 3.127067 1_455
Mg1 Mg13 3.127067 1_455
Mg1 Mg9 3.140917 1_555
Mg1 Mg8 3.140917 1_555
Mg1 Mg7 3.140923 1_565
Mg1 Mg6 3.140923 1_565
Mg1 Mg3 3.287199 1_565
Mg1 Mg5 3.287199 1_555
Mg1 Mg3 3.362180 1_455
Mg1 Mg5 3.362180 1_455
Mg2 Mg4 3.013230 1_555
Mg2 Mg7 3.050631 1_554
Mg2 Mg6 3.050631 1_555
Mg2 Mg4 3.231481 1_545
Mg3 Mg5 3.040576 1_545
Mg3 Mg7 3.139935 1_555
Mg3 Mg6 3.139935 1_555
Mg3 Mg5 3.204135 1_555
Mg4 Mg9 3.050631 1_554
Mg4 Mg8 3.050631 1_555
Mg5 Mg9 3.139935 1_555
Mg5 Mg8 3.139935 1_555
Mg6 Mg8 3.079573 1_555
Mg6 Mg8 3.165138 1_545
Mg7 Mg9 3.079573 1_555
Mg7 Mg9 3.165138 1_545
Mg10 Mg2 3.122732 1_555
Mg10 Mg4 3.122738 1_545
Mg10 Mg12 3.165140 1_545
Mg10 Mg12 3.165140 1_555
Mg10 Mg8 3.212208 1_655
Mg10 Mg6 3.212208 1_655
Mg10 Mg3 3.448005 1_555
Mg10 Mg5 3.448011 1_545
Mg10 Mg8 3.473875 1_545
Mg10 Mg6 3.473876 1_555
Mg11 Mg2 3.122732 1_556
Mg11 Mg4 3.122738 1_546
Mg11 Mg13 3.165140 1_545
Mg11 Mg13 3.165140 1_555
Mg11 Mg9 3.212208 1_655
Mg11 Mg7 3.212208 1_655
Mg11 Mg3 3.448005 1_555
Mg11 Mg5 3.448011 1_545
Mg11 Mg9 3.473875 1_545
Mg11 Mg7 3.473876 1_555
Mg12 Mg5 3.035555 1_555
Mg12 Mg3 3.035561 1_555
Mg12 Mg6 3.226937 1_555
Mg12 Mg8 3.226937 1_555
Mg12 Mg4 3.323265 1_555
Mg12 Mg2 3.323270 1_555
Mg12 Mg6 3.426303 1_665
Mg12 Mg8 3.426303 1_655
Mg13 Mg5 3.035555 1_555
Mg13 Mg3 3.035561 1_555
Mg13 Mg7 3.226937 1_555
Mg13 Mg9 3.226937 1_555
Mg13 Mg4 3.323265 1_556
Mg13 Mg2 3.323270 1_556
Mg13 Mg7 3.426303 1_665
Mg13 Mg9 3.426303 1_655
Cu0 Mg4 2.813169 1_555
Cu0 Mg2 2.813169 1_555
Cu0 Mg11 3.027996 1_454
Cu0 Mg10 3.027996 1_455
Cu0 Mg7 3.105423 1_554
Cu0 Mg6 3.105423 1_555
Cu0 Mg9 3.105430 1_554
Cu0 Mg8 3.105430 1_555
Cu0 La0 3.171787 1_545
Cu0 La0 3.171787 1_555
