# generated using pymatgen
data_Zr6Al2Ni
_symmetry_space_group_name_H-M   'P 1'
_cell_length_a   7.95176209
_cell_length_b   7.95176209
_cell_length_c   3.35807300
_cell_angle_alpha   90.00000000
_cell_angle_beta   90.00000000
_cell_angle_gamma   120.00000074
_symmetry_Int_Tables_number   1
_chemical_formula_structural   Zr6Al2Ni
_chemical_formula_sum   'Zr6 Al2 Ni1'
_cell_volume   183.88551354
_cell_formula_units_Z   1
loop_
 _symmetry_equiv_pos_site_id
 _symmetry_equiv_pos_as_xyz
  1  'x, y, z'
loop_
 _atom_site_type_symbol
 _atom_site_label
 _atom_site_symmetry_multiplicity
 _atom_site_fract_x
 _atom_site_fract_y
 _atom_site_fract_z
 _atom_site_occupancy
  Zr  Zr0  1  0.25496300  0.00000000  0.00000000  1
  Zr  Zr1  1  0.74503700  0.74503700  0.00000000  1
  Zr  Zr2  1  0.00000000  0.25496300  0.00000000  1
  Zr  Zr3  1  0.59817800  0.00000000  0.50000000  1
  Zr  Zr4  1  0.40182200  0.40182200  0.50000000  1
  Zr  Zr5  1  0.00000000  0.59817800  0.50000000  1
  Al  Al0  1  0.66666700  0.33333300  0.00000000  1
  Al  Al1  1  0.33333300  0.66666700  0.00000000  1
  Ni  Ni0  1  0.00000000  0.00000000  0.50000000  1
loop_
_geom_bond_atom_site_label_1
_geom_bond_atom_site_label_2
_geom_bond_distance
_geom_bond_site_symmetry_2
Al0 Zr3 2.949208 1_554
Al0 Zr3 2.949208 1_555
Al0 Zr5 2.949211 1_655
Al0 Zr5 2.949211 1_654
Al0 Zr4 2.949215 1_555
Al0 Zr4 2.949215 1_554
Al0 Zr2 3.010937 1_655
Al0 Zr0 3.010942 1_555
Al0 Zr1 3.010945 1_555
Al1 Zr5 2.949208 1_555
Al1 Zr5 2.949208 1_554
Al1 Zr3 2.949211 1_565
Al1 Zr3 2.949211 1_564
Al1 Zr4 2.949215 1_555
Al1 Zr4 2.949215 1_554
Al1 Zr0 3.010937 1_565
Al1 Zr2 3.010942 1_555
Al1 Zr1 3.010945 1_555
Ni0 Zr1 2.632401 1_445
Ni0 Zr1 2.632401 1_446
Ni0 Zr2 2.632401 1_556
Ni0 Zr2 2.632401 1_555
Ni0 Zr0 2.632401 1_555
Ni0 Zr0 2.632401 1_556
Ni0 Zr4 3.195193 1_555
Ni0 Zr3 3.195193 1_455
Ni0 Zr5 3.195193 1_545
