# generated using pymatgen
data_MgP2WO7
_symmetry_space_group_name_H-M   'P 1'
_cell_length_a   8.71047500
_cell_length_b   7.17455300
_cell_length_c   9.67733898
_cell_angle_alpha   74.28083701
_cell_angle_beta   90.00000000
_cell_angle_gamma   90.00000000
_symmetry_Int_Tables_number   1
_chemical_formula_structural   MgP2WO7
_chemical_formula_sum   'Mg4 P8 W4 O28'
_cell_volume   582.15553911
_cell_formula_units_Z   4
loop_
 _symmetry_equiv_pos_site_id
 _symmetry_equiv_pos_as_xyz
  1  'x, y, z'
loop_
 _atom_site_type_symbol
 _atom_site_label
 _atom_site_symmetry_multiplicity
 _atom_site_fract_x
 _atom_site_fract_y
 _atom_site_fract_z
 _atom_site_occupancy
  Mg  Mg0  1  0.92822400  0.31321700  0.80434400  1
  Mg  Mg1  1  0.42822400  0.68678300  0.69565600  1
  Mg  Mg2  1  0.57177600  0.31321700  0.30434400  1
  Mg  Mg3  1  0.07177600  0.68678300  0.19565600  1
  P  P0  1  0.75794100  0.91034400  0.27385900  1
  P  P1  1  0.22387800  0.45588200  0.97297400  1
  P  P2  1  0.74205900  0.91034400  0.77385900  1
  P  P3  1  0.27612200  0.45588200  0.47297400  1
  P  P4  1  0.25794100  0.08965600  0.22614100  1
  P  P5  1  0.72387800  0.54411800  0.52702600  1
  P  P6  1  0.77612200  0.54411800  0.02702600  1
  P  P7  1  0.24205900  0.08965600  0.72614100  1
  W  W0  1  0.05521100  0.74829800  0.61697100  1
  W  W1  1  0.94478900  0.25170200  0.38302900  1
  W  W2  1  0.55521100  0.25170200  0.88302900  1
  W  W3  1  0.44478900  0.74829800  0.11697100  1
  O  O0  1  0.20335400  0.24299400  0.07674800  1
  O  O1  1  0.57933400  0.86073900  0.74391400  1
  O  O2  1  0.92066600  0.86073900  0.24391400  1
  O  O3  1  0.37888000  0.47346200  0.88981600  1
  O  O4  1  0.79664600  0.75700600  0.92325200  1
  O  O5  1  0.14279100  0.09632700  0.34134800  1
  O  O6  1  0.62112000  0.52653800  0.11018400  1
  O  O7  1  0.08729800  0.48156300  0.87303700  1
  O  O8  1  0.26761400  0.60199800  0.56554600  1
  O  O9  1  0.85720900  0.90367300  0.65865200  1
  O  O10  1  0.35720900  0.09632700  0.84134800  1
  O  O11  1  0.75181400  0.10751500  0.81239900  1
  O  O12  1  0.25181400  0.89248500  0.68760100  1
  O  O13  1  0.29664600  0.24299400  0.57674800  1
  O  O14  1  0.64279100  0.90367300  0.15865200  1
  O  O15  1  0.07933400  0.13926100  0.75608600  1
  O  O16  1  0.24818600  0.89248500  0.18760100  1
  O  O17  1  0.91270200  0.51843700  0.12696300  1
  O  O18  1  0.23238600  0.60199800  0.06554600  1
  O  O19  1  0.76761400  0.39800200  0.93445400  1
  O  O20  1  0.87888000  0.52653800  0.61018400  1
  O  O21  1  0.41270200  0.48156300  0.37303700  1
  O  O22  1  0.58729800  0.51843700  0.62696300  1
  O  O23  1  0.42066600  0.13926100  0.25608600  1
  O  O24  1  0.74818600  0.10751500  0.31239900  1
  O  O25  1  0.12112000  0.47346200  0.38981600  1
  O  O26  1  0.73238600  0.39800200  0.43445400  1
  O  O27  1  0.70335400  0.75700600  0.42325200  1
loop_
_geom_bond_atom_site_label_1
_geom_bond_atom_site_label_2
_geom_bond_distance
_geom_bond_site_symmetry_2
Mg0 O15 1.955517 1_655
Mg0 O7 2.062930 1_655
Mg0 O19 2.080284 1_555
Mg0 O11 2.117303 1_555
Mg0 O20 2.121177 1_555
Mg1 O1 1.955517 1_555
Mg1 O22 2.062930 1_555
Mg1 O8 2.080284 1_555
Mg1 O12 2.117303 1_555
Mg1 O3 2.121177 1_555
Mg2 O23 1.955517 1_555
Mg2 O21 2.062930 1_555
Mg2 O26 2.080284 1_555
Mg2 O24 2.117303 1_555
Mg2 O6 2.121177 1_555
Mg3 O2 1.955517 1_455
Mg3 O17 2.062930 1_455
Mg3 O18 2.080284 1_555
Mg3 O16 2.117303 1_555
Mg3 O25 2.121177 1_555
O0 P1 1.594442 1_554
O0 P4 1.632390 1_555
O1 P2 1.508501 1_555
O2 P0 1.508501 1_555
O3 P1 1.559298 1_555
O3 W2 2.225170 1_555
O4 P6 1.594442 1_556
O4 P2 1.632390 1_555
O5 P4 1.510043 1_555
O5 W1 2.150246 1_455
O6 P6 1.559298 1_555
O6 W3 2.225170 1_555
O7 P1 1.512632 1_555
O7 W0 2.703978 1_555
O8 P3 1.554308 1_555
O8 W0 2.248427 1_555
O9 P2 1.510043 1_555
O9 W0 2.150246 1_655
O10 P7 1.510043 1_555
O10 W2 2.150246 1_555
O11 P2 1.559914 1_545
O11 W2 2.202982 1_555
O12 P7 1.559914 1_565
O12 W0 2.202982 1_555
O13 P3 1.594442 1_555
O13 P7 1.632390 1_555
O14 P0 1.510043 1_555
O14 W3 2.150246 1_555
O15 P7 1.508501 1_555
O16 P4 1.559914 1_565
O16 W3 2.202982 1_555
O17 P6 1.512632 1_555
O17 W1 2.703978 1_555
O18 P1 1.554308 1_554
O18 W3 2.248427 1_555
O19 P6 1.554308 1_556
O19 W2 2.248427 1_555
O20 P5 1.559298 1_555
O20 W0 2.225170 1_655
O21 P3 1.512632 1_555
O21 W3 2.703978 1_555
O22 P5 1.512632 1_555
O22 W2 2.703978 1_555
O23 P4 1.508501 1_555
O24 P0 1.559914 1_545
O24 W1 2.202982 1_555
O25 P3 1.559298 1_555
O25 W1 2.225170 1_455
O26 P5 1.554308 1_555
O26 W1 2.248427 1_555
O27 P5 1.594442 1_555
O27 P0 1.632390 1_555
