# generated using pymatgen
data_Al3Ru2
_symmetry_space_group_name_H-M   'P 1'
_cell_length_a   4.21258557
_cell_length_b   4.21258557
_cell_length_c   5.11023100
_cell_angle_alpha   90.00000000
_cell_angle_beta   90.00000000
_cell_angle_gamma   119.99999331
_symmetry_Int_Tables_number   1
_chemical_formula_structural   Al3Ru2
_chemical_formula_sum   'Al3 Ru2'
_cell_volume   78.53597967
_cell_formula_units_Z   1
loop_
 _symmetry_equiv_pos_site_id
 _symmetry_equiv_pos_as_xyz
  1  'x, y, z'
loop_
 _atom_site_type_symbol
 _atom_site_label
 _atom_site_symmetry_multiplicity
 _atom_site_fract_x
 _atom_site_fract_y
 _atom_site_fract_z
 _atom_site_occupancy
  Al  Al0  1  0.00000000  0.00000000  0.00000000  1
  Al  Al1  1  0.66666700  0.33333300  0.64257500  1
  Al  Al2  1  0.33333300  0.66666700  0.35742500  1
  Ru  Ru0  1  0.66666700  0.33333300  0.15314800  1
  Ru  Ru1  1  0.33333300  0.66666700  0.84685200  1
loop_
_geom_bond_atom_site_label_1
_geom_bond_atom_site_label_2
_geom_bond_distance
_geom_bond_site_symmetry_2
Al0 Ru0 2.554951 1_455
Al0 Ru1 2.554951 1_544
Al0 Ru0 2.554955 1_445
Al0 Ru0 2.554955 1_555
Al0 Ru1 2.554955 1_444
Al0 Ru1 2.554955 1_554
Al1 Ru0 2.501085 1_555
Al1 Ru0 2.609146 1_556
Al1 Ru1 2.646699 1_545
Al1 Ru1 2.646699 1_655
Al1 Ru1 2.646705 1_555
Al2 Ru1 2.501085 1_555
Al2 Ru1 2.609146 1_554
Al2 Ru0 2.646699 1_455
Al2 Ru0 2.646699 1_565
Al2 Ru0 2.646705 1_555
