# generated using pymatgen
data_Ti45Se16
_symmetry_space_group_name_H-M   'P 1'
_cell_length_a   17.77968758
_cell_length_b   17.77968758
_cell_length_c   16.47849769
_cell_angle_alpha   88.28584980
_cell_angle_beta   88.28584980
_cell_angle_gamma   11.25463616
_symmetry_Int_Tables_number   1
_chemical_formula_structural   Ti45Se16
_chemical_formula_sum   'Ti45 Se16'
_cell_volume   1016.20644585
_cell_formula_units_Z   1
loop_
 _symmetry_equiv_pos_site_id
 _symmetry_equiv_pos_as_xyz
  1  'x, y, z'
loop_
 _atom_site_type_symbol
 _atom_site_label
 _atom_site_symmetry_multiplicity
 _atom_site_fract_x
 _atom_site_fract_y
 _atom_site_fract_z
 _atom_site_occupancy
  Ti  Ti0  1  0.00000000  0.00000000  0.50000000  1
  Ti  Ti1  1  0.52796700  0.52796700  0.63355100  1
  Ti  Ti2  1  0.47203300  0.47203300  0.36644900  1
  Ti  Ti3  1  0.44087800  0.44087800  0.55909100  1
  Ti  Ti4  1  0.55912200  0.55912200  0.44090900  1
  Ti  Ti5  1  0.91311900  0.91311900  0.44958300  1
  Ti  Ti6  1  0.08688100  0.08688100  0.55041700  1
  Ti  Ti7  1  0.89655700  0.89655700  0.66484300  1
  Ti  Ti8  1  0.10344300  0.10344300  0.33515700  1
  Ti  Ti9  1  0.35454400  0.35454400  0.52723700  1
  Ti  Ti10  1  0.64545600  0.64545600  0.47276300  1
  Ti  Ti11  1  0.37924600  0.37924600  0.33253800  1
  Ti  Ti12  1  0.62075400  0.62075400  0.66746200  1
  Ti  Ti13  1  0.27219700  0.27219700  0.65927900  1
  Ti  Ti14  1  0.72780300  0.72780300  0.34072100  1
  Ti  Ti15  1  0.29066500  0.29066500  0.38474100  1
  Ti  Ti16  1  0.70933500  0.70933500  0.61525900  1
  Ti  Ti17  1  0.77958900  0.77958900  0.51219200  1
  Ti  Ti18  1  0.22041100  0.22041100  0.48780800  1
  Ti  Ti19  1  0.44829400  0.44829400  0.75098400  1
  Ti  Ti20  1  0.55170600  0.55170600  0.24901600  1
  Ti  Ti21  1  0.56730300  0.56730300  0.83420900  1
  Ti  Ti22  1  0.43269700  0.43269700  0.16579100  1
  Ti  Ti23  1  0.47892700  0.47892700  0.90817400  1
  Ti  Ti24  1  0.52107300  0.52107300  0.09182600  1
  Ti  Ti25  1  0.00598300  0.00598300  0.79433300  1
  Ti  Ti26  1  0.99401700  0.99401700  0.20566700  1
  Ti  Ti27  1  0.90936400  0.90936400  0.87746600  1
  Ti  Ti28  1  0.09063600  0.09063600  0.12253400  1
  Ti  Ti29  1  0.96337500  0.96337500  0.04318000  1
  Ti  Ti30  1  0.03662500  0.03662500  0.95682000  1
  Ti  Ti31  1  0.82045800  0.82045800  0.79363600  1
  Ti  Ti32  1  0.17954200  0.17954200  0.20636400  1
  Ti  Ti33  1  0.34131400  0.34131400  0.93234100  1
  Ti  Ti34  1  0.65868600  0.65868600  0.06765900  1
  Ti  Ti35  1  0.29969500  0.29969500  0.10000200  1
  Ti  Ti36  1  0.70030500  0.70030500  0.89999800  1
  Ti  Ti37  1  0.78260400  0.78260400  0.98171200  1
  Ti  Ti38  1  0.21739600  0.21739600  0.01828800  1
  Ti  Ti39  1  0.86658300  0.86658300  0.06630800  1
  Ti  Ti40  1  0.13341700  0.13341700  0.93369200  1
  Ti  Ti41  1  0.73698000  0.73698000  0.13932100  1
  Ti  Ti42  1  0.26302000  0.26302000  0.86067900  1
  Ti  Ti43  1  0.81310100  0.81310100  0.25054800  1
  Ti  Ti44  1  0.18689900  0.18689900  0.74945200  1
  Se  Se0  1  0.25919500  0.25919500  0.24309300  1
  Se  Se1  1  0.74080500  0.74080500  0.75690700  1
  Se  Se2  1  0.36050000  0.36050000  0.18474700  1
  Se  Se3  1  0.63950000  0.63950000  0.81525300  1
  Se  Se4  1  0.41231600  0.41231600  0.99741900  1
  Se  Se5  1  0.58768400  0.58768400  0.00258100  1
  Se  Se6  1  0.37566100  0.37566100  0.78284700  1
  Se  Se7  1  0.62433900  0.62433900  0.21715300  1
  Se  Se8  1  0.82639400  0.82639400  0.63449400  1
  Se  Se9  1  0.17360600  0.17360600  0.36550600  1
  Se  Se10  1  0.84076300  0.84076300  0.41340300  1
  Se  Se11  1  0.15923700  0.15923700  0.58659700  1
  Se  Se12  1  0.97291200  0.97291200  0.64894900  1
  Se  Se13  1  0.02708800  0.02708800  0.35105100  1
  Se  Se14  1  0.07017700  0.07017700  0.71103000  1
  Se  Se15  1  0.92982300  0.92982300  0.28897000  1
loop_
_geom_bond_atom_site_label_1
_geom_bond_atom_site_label_2
_geom_bond_distance
_geom_bond_site_symmetry_2
Ti33 Ti37 2.813603 1_545
Ti33 Ti37 2.813603 1_455
Ti34 Ti38 2.813603 1_565
Ti34 Ti38 2.813603 1_655
Ti35 Ti37 2.697363 1_544
Ti35 Ti37 2.697363 1_454
Ti36 Ti38 2.697363 1_566
Ti36 Ti38 2.697363 1_656
Ti37 Ti42 2.753315 1_655
Ti37 Ti42 2.753315 1_565
Ti37 Ti38 2.940091 1_566
Ti37 Ti38 2.940091 1_656
Ti37 Ti41 3.016605 1_556
Ti38 Ti41 2.753315 1_455
Ti38 Ti41 2.753315 1_545
Ti38 Ti42 3.016605 1_554
Se0 Ti41 2.581184 1_545
Se0 Ti41 2.581184 1_455
Se0 Ti43 2.589935 1_545
Se0 Ti43 2.589935 1_455
Se0 Ti14 2.598909 1_455
Se0 Ti14 2.598909 1_545
Se0 Ti15 2.616247 1_555
Se0 Ti35 2.722270 1_555
Se0 Ti32 2.900739 1_555
Se1 Ti42 2.581184 1_565
Se1 Ti42 2.581184 1_655
Se1 Ti44 2.589935 1_565
Se1 Ti44 2.589935 1_655
Se1 Ti13 2.598909 1_565
Se1 Ti13 2.598909 1_655
Se1 Ti16 2.616247 1_555
Se1 Ti36 2.722270 1_555
Se1 Ti31 2.900739 1_555
Se2 Ti11 2.543274 1_555
Se2 Ti22 2.564596 1_555
Se2 Ti35 2.600168 1_555
Se2 Ti39 2.621021 1_455
Se2 Ti39 2.621021 1_545
Se2 Ti43 2.630484 1_545
Se2 Ti43 2.630484 1_455
Se3 Ti12 2.543274 1_555
Se3 Ti21 2.564596 1_555
Se3 Ti36 2.600168 1_555
Se3 Ti40 2.621021 1_565
Se3 Ti40 2.621021 1_655
Se3 Ti44 2.630484 1_565
Se3 Ti44 2.630484 1_655
Se4 Ti39 2.614760 1_546
Se4 Ti39 2.614760 1_456
Se4 Ti29 2.637211 1_546
Se4 Ti29 2.637211 1_456
Se4 Ti27 2.640076 1_455
Se4 Ti27 2.640076 1_545
Se4 Ti23 2.740597 1_555
Se4 Ti33 2.761386 1_555
Se4 Ti22 2.887635 1_556
Se5 Ti40 2.614760 1_564
Se5 Ti40 2.614760 1_654
Se5 Ti30 2.637211 1_564
Se5 Ti30 2.637211 1_654
Se5 Ti28 2.640076 1_655
Se5 Ti28 2.640076 1_565
Se5 Ti24 2.740597 1_555
Se5 Ti34 2.761386 1_555
Se5 Ti21 2.887635 1_554
Se6 Ti19 2.607908 1_555
Se6 Ti31 2.620407 1_545
Se6 Ti31 2.620407 1_455
Se6 Ti27 2.646671 1_455
Se6 Ti27 2.646671 1_545
Se6 Ti7 2.698353 1_545
Se6 Ti7 2.698353 1_455
Se6 Ti33 2.714017 1_555
Se7 Ti20 2.607908 1_555
Se7 Ti32 2.620407 1_565
Se7 Ti32 2.620407 1_655
Se7 Ti28 2.646671 1_655
Se7 Ti28 2.646671 1_565
Se7 Ti8 2.698353 1_655
Se7 Ti8 2.698353 1_565
Se7 Ti34 2.714017 1_555
Se8 Ti7 2.547487 1_555
Se8 Ti13 2.614899 1_655
Se8 Ti13 2.614899 1_565
Se8 Ti31 2.624519 1_555
Se8 Ti17 2.646841 1_555
Se8 Ti9 2.655162 1_565
Se8 Ti9 2.655162 1_655
Se9 Ti8 2.547487 1_555
Se9 Ti14 2.614899 1_455
Se9 Ti14 2.614899 1_545
Se9 Ti32 2.624519 1_555
Se9 Ti18 2.646841 1_555
Se9 Ti10 2.655162 1_455
Se9 Ti10 2.655162 1_545
Se10 Ti15 2.540870 1_565
Se10 Ti15 2.540870 1_655
Se10 Ti11 2.561387 1_655
Se10 Ti11 2.561387 1_565
Se10 Ti9 2.617451 1_565
Se10 Ti9 2.617451 1_655
Se10 Ti5 2.646423 1_555
Se10 Ti17 2.669205 1_555
Se10 Ti43 2.884080 1_555
Se11 Ti16 2.540870 1_455
Se11 Ti16 2.540870 1_545
Se11 Ti12 2.561387 1_455
Se11 Ti12 2.561387 1_545
Se11 Ti10 2.617451 1_545
Se11 Ti10 2.617451 1_455
Se11 Ti6 2.646423 1_555
Se11 Ti18 2.669205 1_555
Se11 Ti44 2.884080 1_555
Se12 Ti19 2.556853 1_565
Se12 Ti19 2.556853 1_655
Se12 Ti3 2.572566 1_565
Se12 Ti3 2.572566 1_655
Se12 Ti0 2.608027 1_665
Se12 Ti1 2.621075 1_565
Se12 Ti1 2.621075 1_655
Se12 Ti25 2.697706 1_665
Se12 Ti7 2.706868 1_555
Se13 Ti20 2.556853 1_545
Se13 Ti20 2.556853 1_455
Se13 Ti4 2.572566 1_455
Se13 Ti4 2.572566 1_545
Se13 Ti0 2.608027 1_555
Se13 Ti2 2.621075 1_545
Se13 Ti2 2.621075 1_455
Se13 Ti26 2.697706 1_445
Se13 Ti8 2.706868 1_555
Se14 Ti12 2.584799 1_455
Se14 Ti12 2.584799 1_545
Se14 Ti25 2.618678 1_555
Se14 Ti1 2.648674 1_455
Se14 Ti1 2.648674 1_545
Se14 Ti21 2.675367 1_455
Se14 Ti21 2.675367 1_545
Se14 Ti6 2.694473 1_555
Se15 Ti11 2.584799 1_655
Se15 Ti11 2.584799 1_565
Se15 Ti26 2.618678 1_555
Se15 Ti2 2.648674 1_655
Se15 Ti2 2.648674 1_565
Se15 Ti22 2.675367 1_655
Se15 Ti22 2.675367 1_565
Se15 Ti5 2.694473 1_555
