# generated using pymatgen
data_Cs4PbCl6
_symmetry_space_group_name_H-M   'P 1'
_cell_length_a   9.47071137
_cell_length_b   9.47071137
_cell_length_c   9.47071175
_cell_angle_alpha   88.78880868
_cell_angle_beta   88.78880868
_cell_angle_gamma   88.78880632
_symmetry_Int_Tables_number   1
_chemical_formula_structural   Cs4PbCl6
_chemical_formula_sum   'Cs8 Pb2 Cl12'
_cell_volume   848.90807848
_cell_formula_units_Z   2
loop_
 _symmetry_equiv_pos_site_id
 _symmetry_equiv_pos_as_xyz
  1  'x, y, z'
loop_
 _atom_site_type_symbol
 _atom_site_label
 _atom_site_symmetry_multiplicity
 _atom_site_fract_x
 _atom_site_fract_y
 _atom_site_fract_z
 _atom_site_occupancy
  Cs  Cs0  1  0.25000000  0.25000000  0.25000000  1
  Cs  Cs1  1  0.75000000  0.75000000  0.75000000  1
  Cs  Cs2  1  0.87718787  0.62281213  0.25000000  1
  Cs  Cs3  1  0.25000000  0.87718787  0.62281213  1
  Cs  Cs4  1  0.62281213  0.25000000  0.87718787  1
  Cs  Cs5  1  0.75000000  0.12281213  0.37718787  1
  Cs  Cs6  1  0.37718787  0.75000000  0.12281213  1
  Cs  Cs7  1  0.12281213  0.37718787  0.75000000  1
  Pb  Pb0  1  0.50000000  0.50000000  0.50000000  1
  Pb  Pb1  1  -0.00000000  -0.00000000  0.00000000  1
  Cl  Cl0  1  0.20880474  0.56222414  0.42635125  1
  Cl  Cl1  1  0.42635125  0.20880474  0.56222414  1
  Cl  Cl2  1  0.56222414  0.42635125  0.20880474  1
  Cl  Cl3  1  0.92635125  0.06222414  0.70880474  1
  Cl  Cl4  1  0.70880474  0.92635125  0.06222414  1
  Cl  Cl5  1  0.06222414  0.70880474  0.92635125  1
  Cl  Cl6  1  0.79119526  0.43777586  0.57364875  1
  Cl  Cl7  1  0.57364875  0.79119526  0.43777586  1
  Cl  Cl8  1  0.43777586  0.57364875  0.79119526  1
  Cl  Cl9  1  0.07364875  0.93777586  0.29119526  1
  Cl  Cl10  1  0.29119526  0.07364875  0.93777586  1
  Cl  Cl11  1  0.93777586  0.29119526  0.07364875  1
loop_
_geom_bond_atom_site_label_1
_geom_bond_atom_site_label_2
_geom_bond_distance
_geom_bond_site_symmetry_2
Cl0 Pb0 2.904245 1_555
Cl0 Cs0 3.437719 1_555
Cl0 Cs3 3.581415 1_555
Cl0 Cs7 3.585712 1_555
Cl0 Cs2 3.617658 1_455
Cl0 Cs6 3.698613 1_555
Cl1 Pb0 2.904245 1_555
Cl1 Cs0 3.437719 1_555
Cl1 Cs4 3.581415 1_555
Cl1 Cs5 3.585712 1_555
Cl1 Cs3 3.617658 1_545
Cl1 Cs7 3.698613 1_555
Cl2 Pb0 2.904245 1_555
Cl2 Cs0 3.437719 1_555
Cl2 Cs2 3.581415 1_555
Cl2 Cs6 3.585712 1_555
Cl2 Cs4 3.617658 1_554
Cl2 Cs5 3.698613 1_555
Cl3 Pb1 2.904245 1_656
Cl3 Cs1 3.437719 1_545
Cl3 Cs7 3.581415 1_655
Cl3 Cs3 3.585712 1_645
Cl3 Cs5 3.617658 1_555
Cl3 Cs4 3.698613 1_555
Cl4 Pb1 2.904245 1_665
Cl4 Cs1 3.437719 1_554
Cl4 Cs5 3.581415 1_565
Cl4 Cs4 3.585712 1_564
Cl4 Cs6 3.617658 1_555
Cl4 Cs2 3.698613 1_555
Cl5 Pb1 2.904245 1_566
Cl5 Cs1 3.437719 1_455
Cl5 Cs6 3.581415 1_556
Cl5 Cs2 3.585712 1_456
Cl5 Cs7 3.617658 1_555
Cl5 Cs3 3.698613 1_555
Cl6 Pb0 2.904245 1_555
Cl6 Cs1 3.437719 1_555
Cl6 Cs5 3.581415 1_555
Cl6 Cs2 3.585712 1_555
Cl6 Cs7 3.617658 1_655
Cl6 Cs4 3.698613 1_555
Cl7 Pb0 2.904245 1_555
Cl7 Cs1 3.437719 1_555
Cl7 Cs6 3.581415 1_555
Cl7 Cs3 3.585712 1_555
Cl7 Cs5 3.617658 1_565
Cl7 Cs2 3.698613 1_555
Cl8 Pb0 2.904245 1_555
Cl8 Cs1 3.437719 1_555
Cl8 Cs7 3.581415 1_555
Cl8 Cs4 3.585712 1_555
Cl8 Cs6 3.617658 1_556
Cl8 Cs3 3.698613 1_555
Cl9 Pb1 2.904245 1_565
Cl9 Cs0 3.437719 1_565
Cl9 Cs2 3.581415 1_455
Cl9 Cs5 3.585712 1_465
Cl9 Cs3 3.617658 1_555
Cl9 Cs6 3.698613 1_555
Cl10 Pb1 2.904245 1_556
Cl10 Cs0 3.437719 1_556
Cl10 Cs3 3.581415 1_545
Cl10 Cs6 3.585712 1_546
Cl10 Cs4 3.617658 1_555
Cl10 Cs7 3.698613 1_555
Cl11 Pb1 2.904245 1_655
Cl11 Cs0 3.437719 1_655
Cl11 Cs4 3.581415 1_554
Cl11 Cs7 3.585712 1_654
Cl11 Cs2 3.617658 1_555
Cl11 Cs5 3.698613 1_555
