# generated using pymatgen
data_Sm3SbO7
_symmetry_space_group_name_H-M   'P 1'
_cell_length_a   6.61911460
_cell_length_b   6.61911518
_cell_length_c   7.67923800
_cell_angle_alpha   90.00000000
_cell_angle_beta   90.00000000
_cell_angle_gamma   109.53878623
_symmetry_Int_Tables_number   1
_chemical_formula_structural   Sm3SbO7
_chemical_formula_sum   'Sm6 Sb2 O14'
_cell_volume   317.07375570
_cell_formula_units_Z   2
loop_
 _symmetry_equiv_pos_site_id
 _symmetry_equiv_pos_as_xyz
  1  'x, y, z'
loop_
 _atom_site_type_symbol
 _atom_site_label
 _atom_site_symmetry_multiplicity
 _atom_site_fract_x
 _atom_site_fract_y
 _atom_site_fract_z
 _atom_site_occupancy
  Sm  Sm0  1  0.50570200  0.50570200  0.50000000  1
  Sm  Sm1  1  0.49429800  0.49429800  0.00000000  1
  Sm  Sm2  1  0.46783300  0.00058500  0.24915400  1
  Sm  Sm3  1  0.99941500  0.53216700  0.25084600  1
  Sm  Sm4  1  0.53216700  0.99941500  0.74915400  1
  Sm  Sm5  1  0.00058500  0.46783300  0.75084600  1
  Sb  Sb0  1  0.00152200  0.00152200  0.50000000  1
  Sb  Sb1  1  0.99847800  0.99847800  0.00000000  1
  O  O0  1  0.31809900  0.07007200  0.52726400  1
  O  O1  1  0.92992800  0.68190100  0.97273600  1
  O  O2  1  0.68190100  0.92992800  0.02726400  1
  O  O3  1  0.07007200  0.31809900  0.47273600  1
  O  O4  1  0.92945500  0.68375400  0.52913600  1
  O  O5  1  0.31624600  0.07054500  0.97086400  1
  O  O6  1  0.07054500  0.31624600  0.02913600  1
  O  O7  1  0.68375400  0.92945500  0.47086400  1
  O  O8  1  0.62937100  0.37062900  0.25000000  1
  O  O9  1  0.37062900  0.62937100  0.75000000  1
  O  O10  1  0.63604000  0.36396000  0.75000000  1
  O  O11  1  0.36396000  0.63604000  0.25000000  1
  O  O12  1  0.06545100  0.93454900  0.25000000  1
  O  O13  1  0.93454900  0.06545100  0.75000000  1
loop_
_geom_bond_atom_site_label_1
_geom_bond_atom_site_label_2
_geom_bond_distance
_geom_bond_site_symmetry_2
O0 Sb0 2.001172 1_555
O0 Sm4 2.360751 1_545
O0 Sm2 2.461677 1_555
O0 Sm0 2.739574 1_555
O1 Sb1 2.001172 1_556
O1 Sm5 2.360751 1_655
O1 Sm3 2.461677 1_556
O1 Sm1 2.739574 1_556
O2 Sb1 2.001172 1_555
O2 Sm2 2.360751 1_565
O2 Sm4 2.461677 1_554
O2 Sm1 2.739574 1_555
O3 Sb0 2.001172 1_555
O3 Sm3 2.360751 1_455
O3 Sm5 2.461677 1_555
O3 Sm0 2.739574 1_555
O4 Sb0 2.007620 1_665
O4 Sm5 2.369201 1_655
O4 Sm3 2.469613 1_555
O4 Sm0 2.663681 1_555
O5 Sb1 2.007620 1_446
O5 Sm4 2.369201 1_545
O5 Sm2 2.469612 1_556
O5 Sm1 2.663681 1_556
O6 Sb1 2.007620 1_445
O6 Sm3 2.369201 1_455
O6 Sm5 2.469613 1_554
O6 Sm1 2.663681 1_555
O7 Sb0 2.007620 1_665
O7 Sm2 2.369201 1_565
O7 Sm4 2.469612 1_555
O7 Sm0 2.663681 1_555
O8 Sm3 2.321832 1_555
O8 Sm2 2.321832 1_555
O8 Sm1 2.375842 1_555
O8 Sm0 2.375842 1_555
O9 Sm5 2.321832 1_555
O9 Sm4 2.321832 1_555
O9 Sm0 2.375842 1_555
O9 Sm1 2.375842 1_556
O10 Sm5 2.277160 1_655
O10 Sm4 2.277160 1_545
O10 Sm1 2.419007 1_556
O10 Sm0 2.419007 1_555
O11 Sm3 2.277160 1_455
O11 Sm2 2.277160 1_565
O11 Sm0 2.419007 1_555
O11 Sm1 2.419007 1_555
O12 Sb1 2.046147 1_455
O12 Sb0 2.046147 1_565
O12 Sm2 2.550717 1_565
O12 Sm3 2.550718 1_455
O13 Sb0 2.046147 1_655
O13 Sb1 2.046147 1_546
O13 Sm4 2.550717 1_545
O13 Sm5 2.550718 1_655
