# generated using pymatgen
data_Te2MoW3(SeS2)2
_symmetry_space_group_name_H-M   'P 1'
_cell_length_a   3.30463177
_cell_length_b   3.30463177
_cell_length_c   38.44863100
_cell_angle_alpha   90.00000000
_cell_angle_beta   90.00000000
_cell_angle_gamma   119.99999545
_symmetry_Int_Tables_number   1
_chemical_formula_structural   Te2MoW3(SeS2)2
_chemical_formula_sum   'Te2 Mo1 W3 Se2 S4'
_cell_volume   363.62830439
_cell_formula_units_Z   1
loop_
 _symmetry_equiv_pos_site_id
 _symmetry_equiv_pos_as_xyz
  1  'x, y, z'
loop_
 _atom_site_type_symbol
 _atom_site_label
 _atom_site_symmetry_multiplicity
 _atom_site_fract_x
 _atom_site_fract_y
 _atom_site_fract_z
 _atom_site_occupancy
  Te  Te0  1  0.33333300  0.66666700  0.04299500  1
  Te  Te1  1  0.33333300  0.66666700  0.14246100  1
  Mo  Mo0  1  0.00000000  0.00000000  0.09272000  1
  W  W0  1  0.00000000  0.00000000  0.46980200  1
  W  W1  1  0.33333300  0.66666700  0.28274700  1
  W  W2  1  0.33333300  0.66666700  0.65765500  1
  Se  Se0  1  0.00000000  0.00000000  0.32665200  1
  Se  Se1  1  0.00000000  0.00000000  0.23880900  1
  S  S0  1  0.00000000  0.00000000  0.69754900  1
  S  S1  1  0.33333300  0.66666700  0.42989500  1
  S  S2  1  0.33333300  0.66666700  0.50970300  1
  S  S3  1  0.00000000  0.00000000  0.61775900  1
loop_
_geom_bond_atom_site_label_1
_geom_bond_atom_site_label_2
_geom_bond_distance
_geom_bond_site_symmetry_2
Mo0 Te0 2.700998 1_545
Mo0 Te0 2.701000 1_555
Mo0 Te0 2.701000 1_445
Mo0 Te1 2.701434 1_545
Mo0 Te1 2.701436 1_445
Mo0 Te1 2.701436 1_555
Se0 W1 2.547514 1_545
Se0 W1 2.547516 1_445
Se0 W1 2.547516 1_555
Se1 W1 2.548355 1_545
Se1 W1 2.548357 1_445
Se1 W1 2.548357 1_555
S0 W2 2.448049 1_545
S0 W2 2.448052 1_555
S0 W2 2.448052 1_445
S1 W0 2.448363 1_565
S1 W0 2.448365 1_665
S1 W0 2.448365 1_555
S2 W0 2.448218 1_565
S2 W0 2.448220 1_555
S2 W0 2.448220 1_665
S3 W2 2.448098 1_545
S3 W2 2.448100 1_445
S3 W2 2.448100 1_555
