# generated using pymatgen
data_La3Yb2(GaO4)3
_symmetry_space_group_name_H-M   'P 1'
_cell_length_a   11.42766420
_cell_length_b   11.42766420
_cell_length_c   11.42766420
_cell_angle_alpha   109.47122063
_cell_angle_beta   109.47122063
_cell_angle_gamma   109.47122063
_symmetry_Int_Tables_number   1
_chemical_formula_structural   La3Yb2(GaO4)3
_chemical_formula_sum   'La12 Yb8 Ga12 O48'
_cell_volume   1148.81611638
_cell_formula_units_Z   4
loop_
 _symmetry_equiv_pos_site_id
 _symmetry_equiv_pos_as_xyz
  1  'x, y, z'
loop_
 _atom_site_type_symbol
 _atom_site_label
 _atom_site_symmetry_multiplicity
 _atom_site_fract_x
 _atom_site_fract_y
 _atom_site_fract_z
 _atom_site_occupancy
  La  La0  1  0.25000000  0.37500000  0.12500000  1
  La  La1  1  0.75000000  0.62500000  0.87500000  1
  La  La2  1  0.75000000  0.12500000  0.37500000  1
  La  La3  1  0.12500000  0.25000000  0.37500000  1
  La  La4  1  0.37500000  0.75000000  0.12500000  1
  La  La5  1  0.25000000  0.87500000  0.62500000  1
  La  La6  1  0.87500000  0.75000000  0.62500000  1
  La  La7  1  0.62500000  0.25000000  0.87500000  1
  La  La8  1  0.37500000  0.12500000  0.25000000  1
  La  La9  1  0.62500000  0.87500000  0.75000000  1
  La  La10  1  0.12500000  0.37500000  0.75000000  1
  La  La11  1  0.87500000  0.62500000  0.25000000  1
  Yb  Yb0  1  0.00000000  0.00000000  0.00000000  1
  Yb  Yb1  1  0.50000000  0.00000000  0.50000000  1
  Yb  Yb2  1  0.00000000  0.50000000  0.50000000  1
  Yb  Yb3  1  0.50000000  0.00000000  0.00000000  1
  Yb  Yb4  1  0.50000000  0.50000000  0.00000000  1
  Yb  Yb5  1  0.50000000  0.50000000  0.50000000  1
  Yb  Yb6  1  0.00000000  0.00000000  0.50000000  1
  Yb  Yb7  1  0.00000000  0.50000000  0.00000000  1
  Ga  Ga0  1  0.25000000  0.62500000  0.37500000  1
  Ga  Ga1  1  0.75000000  0.37500000  0.62500000  1
  Ga  Ga2  1  0.75000000  0.87500000  0.12500000  1
  Ga  Ga3  1  0.37500000  0.25000000  0.62500000  1
  Ga  Ga4  1  0.62500000  0.75000000  0.37500000  1
  Ga  Ga5  1  0.25000000  0.12500000  0.87500000  1
  Ga  Ga6  1  0.12500000  0.75000000  0.87500000  1
  Ga  Ga7  1  0.87500000  0.25000000  0.12500000  1
  Ga  Ga8  1  0.62500000  0.37500000  0.25000000  1
  Ga  Ga9  1  0.37500000  0.62500000  0.75000000  1
  Ga  Ga10  1  0.87500000  0.12500000  0.75000000  1
  Ga  Ga11  1  0.12500000  0.87500000  0.25000000  1
  O  O0  1  0.47140100  0.37167100  0.27984500  1
  O  O1  1  0.52859900  0.62832900  0.72015500  1
  O  O2  1  0.59182600  0.19155600  0.22015500  1
  O  O3  1  0.90817400  0.12832900  0.59973000  1
  O  O4  1  0.27984500  0.47140100  0.37167100  1
  O  O5  1  0.30844400  0.90817400  0.27984500  1
  O  O6  1  0.40817400  0.80844400  0.77984500  1
  O  O7  1  0.09182600  0.87167100  0.40027000  1
  O  O8  1  0.72015500  0.52859900  0.62832900  1
  O  O9  1  0.69155600  0.09182600  0.72015500  1
  O  O10  1  0.02859900  0.30844400  0.90027000  1
  O  O11  1  0.22015500  0.59182600  0.19155600  1
  O  O12  1  0.12832900  0.02859900  0.22015500  1
  O  O13  1  0.97140100  0.69155600  0.09973000  1
  O  O14  1  0.77984500  0.40817400  0.80844400  1
  O  O15  1  0.87167100  0.97140100  0.77984500  1
  O  O16  1  0.59973000  0.90817400  0.12832900  1
  O  O17  1  0.19155600  0.47140100  0.59973000  1
  O  O18  1  0.40027000  0.09182600  0.87167100  1
  O  O19  1  0.80844400  0.52859900  0.40027000  1
  O  O20  1  0.90027000  0.02859900  0.30844400  1
  O  O21  1  0.37167100  0.59182600  0.90027000  1
  O  O22  1  0.09973000  0.97140100  0.69155600  1
  O  O23  1  0.62832900  0.40817400  0.09973000  1
  O  O24  1  0.37167100  0.27984500  0.47140100  1
  O  O25  1  0.59182600  0.90027000  0.37167100  1
  O  O26  1  0.62832900  0.72015500  0.52859900  1
  O  O27  1  0.40817400  0.09973000  0.62832900  1
  O  O28  1  0.12832900  0.59973000  0.90817400  1
  O  O29  1  0.02859900  0.22015500  0.12832900  1
  O  O30  1  0.87167100  0.40027000  0.09182600  1
  O  O31  1  0.97140100  0.77984500  0.87167100  1
  O  O32  1  0.30844400  0.90027000  0.02859900  1
  O  O33  1  0.90817400  0.27984500  0.30844400  1
  O  O34  1  0.69155600  0.09973000  0.97140100  1
  O  O35  1  0.09182600  0.72015500  0.69155600  1
  O  O36  1  0.19155600  0.22015500  0.59182600  1
  O  O37  1  0.47140100  0.59973000  0.19155600  1
  O  O38  1  0.80844400  0.77984500  0.40817400  1
  O  O39  1  0.52859900  0.40027000  0.80844400  1
  O  O40  1  0.27984500  0.30844400  0.90817400  1
  O  O41  1  0.72015500  0.69155600  0.09182600  1
  O  O42  1  0.22015500  0.12832900  0.02859900  1
  O  O43  1  0.77984500  0.87167100  0.97140100  1
  O  O44  1  0.90027000  0.37167100  0.59182600  1
  O  O45  1  0.09973000  0.62832900  0.40817400  1
  O  O46  1  0.59973000  0.19155600  0.47140100  1
  O  O47  1  0.40027000  0.80844400  0.52859900  1
loop_
_geom_bond_atom_site_label_1
_geom_bond_atom_site_label_2
_geom_bond_distance
_geom_bond_site_symmetry_2
La0 O11 2.512828 1_555
La0 O40 2.512828 1_554
La0 O4 2.512828 1_555
La0 O42 2.512828 1_555
La0 O10 2.580382 1_554
La0 O37 2.580382 1_555
La0 O0 2.580382 1_555
La0 O29 2.580382 1_555
La1 O8 2.512828 1_555
La1 O43 2.512828 1_555
La1 O41 2.512828 1_556
La1 O14 2.512828 1_555
La1 O31 2.580382 1_555
La1 O1 2.580382 1_555
La1 O39 2.580382 1_555
La1 O13 2.580382 1_556
La2 O44 2.512828 1_555
La2 O16 2.512828 1_545
La2 O46 2.512828 1_555
La2 O20 2.512828 1_555
La2 O25 2.580382 1_545
La2 O33 2.580382 1_555
La2 O3 2.580382 1_555
La2 O2 2.580382 1_555
La3 O24 2.512828 1_555
La3 O36 2.512828 1_555
La3 O29 2.512828 1_555
La3 O33 2.512828 1_455
La3 O12 2.580382 1_555
La3 O20 2.580382 1_455
La3 O17 2.580382 1_555
La3 O4 2.580382 1_555
La4 O25 2.512828 1_555
La4 O28 2.512828 1_554
La4 O32 2.512828 1_555
La4 O37 2.512828 1_555
La4 O21 2.580382 1_554
La4 O11 2.580382 1_555
La4 O16 2.580382 1_555
La4 O5 2.580382 1_555
La5 O47 2.512828 1_555
La5 O18 2.512828 1_565
La5 O22 2.512828 1_555
La5 O45 2.512828 1_555
La5 O35 2.580382 1_555
La5 O6 2.580382 1_555
La5 O7 2.580382 1_555
La5 O27 2.580382 1_565
La6 O31 2.512828 1_555
La6 O35 2.512828 1_655
La6 O26 2.512828 1_555
La6 O38 2.512828 1_555
La6 O8 2.580382 1_555
La6 O15 2.580382 1_555
La6 O19 2.580382 1_555
La6 O22 2.580382 1_655
La7 O30 2.512828 1_556
La7 O39 2.512828 1_555
La7 O27 2.512828 1_555
La7 O34 2.512828 1_555
La7 O14 2.580382 1_555
La7 O9 2.580382 1_555
La7 O18 2.580382 1_555
La7 O23 2.580382 1_556
La8 O2 2.512828 1_555
La8 O0 2.512828 1_555
La8 O5 2.512828 1_545
La8 O12 2.512828 1_555
La8 O46 2.580382 1_555
La8 O32 2.580382 1_545
La8 O42 2.580382 1_555
La8 O24 2.580382 1_555
La9 O1 2.512828 1_555
La9 O9 2.512828 1_565
La9 O6 2.512828 1_555
La9 O15 2.512828 1_555
La9 O43 2.580382 1_555
La9 O47 2.580382 1_555
La9 O26 2.580382 1_555
La9 O34 2.580382 1_565
La10 O10 2.512828 1_555
La10 O17 2.512828 1_555
La10 O21 2.512828 1_555
La10 O3 2.512828 1_455
La10 O44 2.580382 1_455
La10 O28 2.580382 1_555
La10 O40 2.580382 1_555
La10 O36 2.580382 1_555
La11 O19 2.512828 1_555
La11 O13 2.512828 1_555
La11 O7 2.512828 1_655
La11 O23 2.512828 1_555
La11 O38 2.580382 1_555
La11 O41 2.580382 1_555
La11 O30 2.580382 1_555
La11 O45 2.580382 1_655
Ga0 O11 1.887327 1_555
Ga0 O4 1.887327 1_555
Ga0 O45 1.887327 1_555
Ga0 O47 1.887327 1_555
Ga1 O46 1.887327 1_555
Ga1 O44 1.887327 1_555
Ga1 O8 1.887327 1_555
Ga1 O14 1.887327 1_555
Ga2 O20 1.887327 1_565
Ga2 O16 1.887327 1_555
Ga2 O43 1.887327 1_554
Ga2 O41 1.887327 1_555
Ga3 O36 1.887327 1_555
Ga3 O24 1.887327 1_555
Ga3 O27 1.887327 1_555
Ga3 O39 1.887327 1_555
Ga4 O37 1.887327 1_555
Ga4 O25 1.887327 1_555
Ga4 O26 1.887327 1_555
Ga4 O38 1.887327 1_555
Ga5 O40 1.887327 1_555
Ga5 O18 1.887327 1_555
Ga5 O22 1.887327 1_545
Ga5 O42 1.887327 1_556
Ga6 O32 1.887327 1_556
Ga6 O31 1.887327 1_455
Ga6 O28 1.887327 1_555
Ga6 O35 1.887327 1_555
Ga7 O33 1.887327 1_555
Ga7 O30 1.887327 1_555
Ga7 O34 1.887327 1_554
Ga7 O29 1.887327 1_655
Ga8 O0 1.887327 1_555
Ga8 O2 1.887327 1_555
Ga8 O23 1.887327 1_555
Ga8 O19 1.887327 1_555
Ga9 O17 1.887327 1_555
Ga9 O1 1.887327 1_555
Ga9 O21 1.887327 1_555
Ga9 O6 1.887327 1_555
Ga10 O10 1.887327 1_655
Ga10 O3 1.887327 1_555
Ga10 O9 1.887327 1_555
Ga10 O15 1.887327 1_545
Ga11 O5 1.887327 1_555
Ga11 O7 1.887327 1_555
Ga11 O13 1.887327 1_455
Ga11 O12 1.887327 1_565
O0 Yb5 2.293388 1_555
O1 Yb5 2.293388 1_555
O2 Yb3 2.293388 1_555
O3 Yb6 2.293388 1_655
O4 Yb5 2.293388 1_555
O5 Yb1 2.293388 1_565
O6 Yb3 2.293388 1_566
O7 Yb6 2.293388 1_565
O8 Yb5 2.293388 1_555
O9 Yb1 2.293388 1_555
O10 Yb7 2.293388 1_556
O11 Yb7 2.293388 1_555
O12 Yb0 2.293388 1_555
O13 Yb7 2.293388 1_655
O14 Yb7 2.293388 1_656
O15 Yb0 2.293388 1_666
O16 Yb3 2.293388 1_565
O17 Yb2 2.293388 1_555
O18 Yb3 2.293388 1_556
O19 Yb2 2.293388 1_655
O20 Yb6 2.293388 1_655
O21 Yb4 2.293388 1_556
O22 Yb6 2.293388 1_565
O23 Yb4 2.293388 1_555
O24 Yb5 2.293388 1_555
O25 Yb1 2.293388 1_565
O26 Yb5 2.293388 1_555
O27 Yb1 2.293388 1_555
O28 Yb7 2.293388 1_556
O29 Yb0 2.293388 1_555
O30 Yb7 2.293388 1_655
O31 Yb0 2.293388 1_666
O32 Yb3 2.293388 1_565
O33 Yb2 2.293388 1_655
O34 Yb3 2.293388 1_556
O35 Yb2 2.293388 1_555
O36 Yb6 2.293388 1_555
O37 Yb4 2.293388 1_555
O38 Yb6 2.293388 1_665
O39 Yb4 2.293388 1_556
O40 Yb4 2.293388 1_556
O41 Yb4 2.293388 1_555
O42 Yb0 2.293388 1_555
O43 Yb0 2.293388 1_666
O44 Yb2 2.293388 1_655
O45 Yb2 2.293388 1_555
O46 Yb1 2.293388 1_555
O47 Yb1 2.293388 1_565
