# generated using pymatgen
data_U8FeSe17
_symmetry_space_group_name_H-M   'P 1'
_cell_length_a   8.21310358
_cell_length_b   8.21310358
_cell_length_c   10.82778239
_cell_angle_alpha   80.49051088
_cell_angle_beta   80.49051088
_cell_angle_gamma   64.28460115
_symmetry_Int_Tables_number   1
_chemical_formula_structural   U8FeSe17
_chemical_formula_sum   'U8 Fe1 Se17'
_cell_volume   645.40372206
_cell_formula_units_Z   1
loop_
 _symmetry_equiv_pos_site_id
 _symmetry_equiv_pos_as_xyz
  1  'x, y, z'
loop_
 _atom_site_type_symbol
 _atom_site_label
 _atom_site_symmetry_multiplicity
 _atom_site_fract_x
 _atom_site_fract_y
 _atom_site_fract_z
 _atom_site_occupancy
  U  U0  1  0.81905000  0.30005700  0.29875600  1
  U  U1  1  0.30005700  0.81905000  0.29875600  1
  U  U2  1  0.18095000  0.69994300  0.70124400  1
  U  U3  1  0.69994300  0.18095000  0.70124400  1
  U  U4  1  0.20217500  0.20217500  0.54330700  1
  U  U5  1  0.79782500  0.79782500  0.45669300  1
  U  U6  1  0.68051900  0.68051900  0.98464300  1
  U  U7  1  0.31948100  0.31948100  0.01535700  1
  Fe  Fe0  1  0.00000000  0.00000000  0.00000000  1
  Se  Se0  1  0.81944100  0.43431100  0.53589200  1
  Se  Se1  1  0.43431100  0.81944100  0.53589200  1
  Se  Se2  1  0.18055900  0.56568900  0.46410800  1
  Se  Se3  1  0.56568900  0.18055900  0.46410800  1
  Se  Se4  1  0.94406600  0.32457600  0.02741400  1
  Se  Se5  1  0.32457600  0.94406600  0.02741400  1
  Se  Se6  1  0.05593400  0.67542400  0.97258600  1
  Se  Se7  1  0.67542400  0.05593400  0.97258600  1
  Se  Se8  1  0.21354400  0.21354400  0.27676600  1
  Se  Se9  1  0.78645600  0.78645600  0.72323400  1
  Se  Se10  1  0.05700700  0.05700700  0.77459000  1
  Se  Se11  1  0.94299300  0.94299300  0.22541000  1
  Se  Se12  1  0.30072000  0.30072000  0.75522700  1
  Se  Se13  1  0.69928000  0.69928000  0.24477300  1
  Se  Se14  1  0.52072900  0.52072900  0.82979900  1
  Se  Se15  1  0.47927100  0.47927100  0.17020100  1
  Se  Se16  1  0.00000000  0.00000000  0.50000000  1
loop_
_geom_bond_atom_site_label_1
_geom_bond_atom_site_label_2
_geom_bond_distance
_geom_bond_site_symmetry_2
Fe0 Se10 2.414635 1_554
Fe0 Se11 2.414635 1_445
Fe0 Se4 2.561089 1_455
Fe0 Se5 2.561089 1_545
Fe0 Se7 2.561089 1_454
Fe0 Se6 2.561089 1_544
Se0 U4 2.890422 1_655
Se0 U5 2.902576 1_555
Se0 U3 2.908519 1_555
Se0 U0 2.958037 1_555
Se1 U4 2.890422 1_565
Se1 U5 2.902576 1_555
Se1 U2 2.908519 1_555
Se1 U1 2.958037 1_555
Se2 U5 2.890422 1_455
Se2 U4 2.902576 1_555
Se2 U1 2.908519 1_555
Se2 U2 2.958037 1_555
Se3 U5 2.890422 1_545
Se3 U4 2.902576 1_555
Se3 U0 2.908519 1_555
Se3 U3 2.958037 1_555
Se4 U6 2.799740 1_554
Se4 U0 2.951949 1_555
Se4 U7 3.046720 1_655
Se5 U6 2.799740 1_554
Se5 U1 2.951949 1_555
Se5 U7 3.046720 1_565
Se6 U7 2.799740 1_556
Se6 U2 2.951949 1_555
Se6 U6 3.046720 1_455
Se7 U7 2.799740 1_556
Se7 U3 2.951949 1_555
Se7 U6 3.046720 1_545
Se8 U4 2.859404 1_555
Se8 U7 2.924917 1_555
Se8 U1 2.976989 1_545
Se8 U0 2.976989 1_455
Se9 U5 2.859404 1_555
Se9 U6 2.924917 1_555
Se9 U2 2.976989 1_655
Se9 U3 2.976989 1_565
Se10 U3 2.859881 1_455
Se10 U2 2.859881 1_545
Se10 U4 2.893950 1_555
Se11 U0 2.859881 1_565
Se11 U1 2.859881 1_655
Se11 U5 2.893950 1_555
Se12 U7 2.878942 1_556
Se12 U4 2.893302 1_555
Se12 U2 2.969504 1_555
Se12 U3 2.969504 1_555
Se13 U6 2.878942 1_554
Se13 U5 2.893302 1_555
Se13 U0 2.969504 1_555
Se13 U1 2.969504 1_555
Se14 U2 2.988935 1_555
Se14 U3 2.988935 1_555
Se14 U6 3.033876 1_555
Se14 U7 3.110785 1_556
Se15 U0 2.988935 1_555
Se15 U1 2.988935 1_555
Se15 U7 3.033876 1_555
Se15 U6 3.110785 1_554
Se16 U4 2.939654 1_555
Se16 U5 2.939654 1_445
Se16 U3 3.024474 1_455
Se16 U2 3.024474 1_545
Se16 U0 3.024474 1_455
Se16 U1 3.024474 1_545
