# generated using pymatgen
data_PrAl2Ni3
_symmetry_space_group_name_H-M   'P 1'
_cell_length_a   10.64370688
_cell_length_b   10.64370531
_cell_length_c   7.52350832
_cell_angle_alpha   90.00000000
_cell_angle_beta   90.00000000
_cell_angle_gamma   120.00000487
_symmetry_Int_Tables_number   1
_chemical_formula_structural   PrAl2Ni3
_chemical_formula_sum   'Pr8 Al16 Ni24'
_cell_volume   738.13664043
_cell_formula_units_Z   8
loop_
 _symmetry_equiv_pos_site_id
 _symmetry_equiv_pos_as_xyz
  1  'x, y, z'
loop_
 _atom_site_type_symbol
 _atom_site_label
 _atom_site_symmetry_multiplicity
 _atom_site_fract_x
 _atom_site_fract_y
 _atom_site_fract_z
 _atom_site_occupancy
  Pr  Pr0_0  1  0.00000000  0.00000000  0.00000000  1
  Pr  Pr0_1  1  0.00000000  0.00000000  0.50000000  1
  Pr  Pr0_2  1  0.00000000  0.50000000  0.00000000  1
  Pr  Pr0_3  1  0.00000000  0.50000000  0.50000000  1
  Pr  Pr0_4  1  0.50000000  0.00000000  0.00000000  1
  Pr  Pr0_5  1  0.50000000  0.00000000  0.50000000  1
  Pr  Pr0_6  1  0.50000000  0.50000000  0.00000000  1
  Pr  Pr0_7  1  0.50000000  0.50000000  0.50000000  1
  Al  Al0_0  1  0.16666650  0.33333350  0.00000000  1
  Al  Al0_1  1  0.16666650  0.33333350  0.50000000  1
  Al  Al0_2  1  0.16666650  0.83333350  0.00000000  1
  Al  Al0_3  1  0.16666650  0.83333350  0.50000000  1
  Al  Al0_4  1  0.66666650  0.33333350  0.00000000  1
  Al  Al0_5  1  0.66666650  0.33333350  0.50000000  1
  Al  Al0_6  1  0.66666650  0.83333350  0.00000000  1
  Al  Al0_7  1  0.66666650  0.83333350  0.50000000  1
  Al  Al1_0  1  0.33333350  0.16666650  0.00000000  1
  Al  Al1_1  1  0.33333350  0.16666650  0.50000000  1
  Al  Al1_2  1  0.33333350  0.66666650  0.00000000  1
  Al  Al1_3  1  0.33333350  0.66666650  0.50000000  1
  Al  Al1_4  1  0.83333350  0.16666650  0.00000000  1
  Al  Al1_5  1  0.83333350  0.16666650  0.50000000  1
  Al  Al1_6  1  0.83333350  0.66666650  0.00000000  1
  Al  Al1_7  1  0.83333350  0.66666650  0.50000000  1
  Ni  Ni0_0  1  0.25000000  0.00000000  0.25000000  1
  Ni  Ni0_1  1  0.25000000  0.00000000  0.75000000  1
  Ni  Ni0_2  1  0.25000000  0.50000000  0.25000000  1
  Ni  Ni0_3  1  0.25000000  0.50000000  0.75000000  1
  Ni  Ni0_4  1  0.75000000  0.00000000  0.25000000  1
  Ni  Ni0_5  1  0.75000000  0.00000000  0.75000000  1
  Ni  Ni0_6  1  0.75000000  0.50000000  0.25000000  1
  Ni  Ni0_7  1  0.75000000  0.50000000  0.75000000  1
  Ni  Ni1_0  1  0.25000000  0.25000000  0.25000000  1
  Ni  Ni1_1  1  0.25000000  0.25000000  0.75000000  1
  Ni  Ni1_2  1  0.25000000  0.75000000  0.25000000  1
  Ni  Ni1_3  1  0.25000000  0.75000000  0.75000000  1
  Ni  Ni1_4  1  0.75000000  0.25000000  0.25000000  1
  Ni  Ni1_5  1  0.75000000  0.25000000  0.75000000  1
  Ni  Ni1_6  1  0.75000000  0.75000000  0.25000000  1
  Ni  Ni1_7  1  0.75000000  0.75000000  0.75000000  1
  Ni  Ni2_0  1  0.00000000  0.25000000  0.25000000  1
  Ni  Ni2_1  1  0.00000000  0.25000000  0.75000000  1
  Ni  Ni2_2  1  0.00000000  0.75000000  0.25000000  1
  Ni  Ni2_3  1  0.00000000  0.75000000  0.75000000  1
  Ni  Ni2_4  1  0.50000000  0.25000000  0.25000000  1
  Ni  Ni2_5  1  0.50000000  0.25000000  0.75000000  1
  Ni  Ni2_6  1  0.50000000  0.75000000  0.25000000  1
  Ni  Ni2_7  1  0.50000000  0.75000000  0.75000000  1
loop_
_geom_bond_atom_site_label_1
_geom_bond_atom_site_label_2
_geom_bond_distance
_geom_bond_site_symmetry_2
Pr0_0 Pr0_1 3.761754 1_555
Pr0_0 Pr0_1 3.761754 1_554
Pr0_2 Pr0_3 3.761754 1_555
Pr0_2 Pr0_3 3.761754 1_554
Pr0_4 Pr0_5 3.761754 1_555
Pr0_4 Pr0_5 3.761754 1_554
Pr0_6 Pr0_7 3.761754 1_554
Pr0_6 Pr0_7 3.761754 1_555
Al0_0 Ni0_2 2.428553 1_555
Al0_0 Ni0_3 2.428553 1_554
Al0_0 Ni2_0 2.428553 1_555
Al0_0 Ni2_1 2.428553 1_554
Al0_0 Ni1_1 2.428556 1_554
Al0_0 Ni1_0 2.428556 1_555
Al0_0 Pr0_2 3.072570 1_555
Al0_0 Pr0_0 3.072574 1_555
Al0_0 Pr0_6 3.072575 1_555
Al0_1 Ni0_3 2.428553 1_555
Al0_1 Ni0_2 2.428553 1_555
Al0_1 Ni2_0 2.428553 1_555
Al0_1 Ni2_1 2.428553 1_555
Al0_1 Ni1_0 2.428556 1_555
Al0_1 Ni1_1 2.428556 1_555
Al0_1 Pr0_3 3.072570 1_555
Al0_1 Pr0_1 3.072574 1_555
Al0_1 Pr0_7 3.072575 1_555
Al0_2 Ni0_0 2.428553 1_565
Al0_2 Ni0_1 2.428553 1_564
Al0_2 Ni2_3 2.428553 1_554
Al0_2 Ni2_2 2.428553 1_555
Al0_2 Ni1_2 2.428556 1_555
Al0_2 Ni1_3 2.428556 1_554
Al0_2 Pr0_0 3.072570 1_565
Al0_2 Pr0_2 3.072574 1_555
Al0_2 Pr0_4 3.072575 1_565
Al0_3 Ni0_0 2.428553 1_565
Al0_3 Ni0_1 2.428553 1_565
Al0_3 Ni2_3 2.428553 1_555
Al0_3 Ni2_2 2.428553 1_555
Al0_3 Ni1_2 2.428556 1_555
Al0_3 Ni1_3 2.428556 1_555
Al0_3 Pr0_1 3.072570 1_565
Al0_3 Pr0_3 3.072574 1_555
Al0_3 Pr0_5 3.072575 1_565
Al0_4 Ni0_7 2.428553 1_554
Al0_4 Ni0_6 2.428553 1_555
Al0_4 Ni2_5 2.428553 1_554
Al0_4 Ni2_4 2.428553 1_555
Al0_4 Ni1_5 2.428556 1_554
Al0_4 Ni1_4 2.428556 1_555
Al0_4 Pr0_6 3.072570 1_555
Al0_4 Pr0_4 3.072574 1_555
Al0_4 Pr0_2 3.072575 1_655
Al0_5 Ni0_6 2.428553 1_555
Al0_5 Ni0_7 2.428553 1_555
Al0_5 Ni2_4 2.428553 1_555
Al0_5 Ni2_5 2.428553 1_555
Al0_5 Ni1_5 2.428556 1_555
Al0_5 Ni1_4 2.428556 1_555
Al0_5 Pr0_7 3.072570 1_555
Al0_5 Pr0_5 3.072574 1_555
Al0_5 Pr0_3 3.072575 1_655
Al0_6 Ni0_5 2.428553 1_564
Al0_6 Ni0_4 2.428553 1_565
Al0_6 Ni2_6 2.428553 1_555
Al0_6 Ni2_7 2.428553 1_554
Al0_6 Ni1_7 2.428556 1_554
Al0_6 Ni1_6 2.428556 1_555
Al0_6 Pr0_4 3.072570 1_565
Al0_6 Pr0_6 3.072574 1_555
Al0_6 Pr0_0 3.072575 1_665
Al0_7 Ni0_4 2.428553 1_565
Al0_7 Ni0_5 2.428553 1_565
Al0_7 Ni2_6 2.428553 1_555
Al0_7 Ni2_7 2.428553 1_555
Al0_7 Ni1_6 2.428556 1_555
Al0_7 Ni1_7 2.428556 1_555
Al0_7 Pr0_5 3.072570 1_565
Al0_7 Pr0_7 3.072574 1_555
Al0_7 Pr0_1 3.072575 1_665
Al1_0 Ni0_1 2.428553 1_554
Al1_0 Ni0_0 2.428553 1_555
Al1_0 Ni2_4 2.428553 1_555
Al1_0 Ni2_5 2.428553 1_554
Al1_0 Ni1_0 2.428556 1_555
Al1_0 Ni1_1 2.428556 1_554
Al1_0 Pr0_4 3.072570 1_555
Al1_0 Pr0_6 3.072574 1_555
Al1_0 Pr0_0 3.072575 1_555
Al1_1 Ni0_0 2.428553 1_555
Al1_1 Ni0_1 2.428553 1_555
Al1_1 Ni2_4 2.428553 1_555
Al1_1 Ni2_5 2.428553 1_555
Al1_1 Ni1_1 2.428556 1_555
Al1_1 Ni1_0 2.428556 1_555
Al1_1 Pr0_5 3.072570 1_555
Al1_1 Pr0_7 3.072574 1_555
Al1_1 Pr0_1 3.072575 1_555
Al1_2 Ni0_3 2.428553 1_554
Al1_2 Ni0_2 2.428553 1_555
Al1_2 Ni2_7 2.428553 1_554
Al1_2 Ni2_6 2.428553 1_555
Al1_2 Ni1_3 2.428556 1_554
Al1_2 Ni1_2 2.428556 1_555
Al1_2 Pr0_6 3.072570 1_555
Al1_2 Pr0_4 3.072574 1_565
Al1_2 Pr0_2 3.072575 1_555
Al1_3 Ni0_3 2.428553 1_555
Al1_3 Ni0_2 2.428553 1_555
Al1_3 Ni2_7 2.428553 1_555
Al1_3 Ni2_6 2.428553 1_555
Al1_3 Ni1_2 2.428556 1_555
Al1_3 Ni1_3 2.428556 1_555
Al1_3 Pr0_7 3.072570 1_555
Al1_3 Pr0_5 3.072574 1_565
Al1_3 Pr0_3 3.072575 1_555
Al1_4 Ni0_5 2.428553 1_554
Al1_4 Ni0_4 2.428553 1_555
Al1_4 Ni2_1 2.428553 1_654
Al1_4 Ni2_0 2.428553 1_655
Al1_4 Ni1_4 2.428556 1_555
Al1_4 Ni1_5 2.428556 1_554
Al1_4 Pr0_0 3.072570 1_655
Al1_4 Pr0_2 3.072574 1_655
Al1_4 Pr0_4 3.072575 1_555
Al1_5 Ni0_5 2.428553 1_555
Al1_5 Ni0_4 2.428553 1_555
Al1_5 Ni2_0 2.428553 1_655
Al1_5 Ni2_1 2.428553 1_655
Al1_5 Ni1_4 2.428556 1_555
Al1_5 Ni1_5 2.428556 1_555
Al1_5 Pr0_1 3.072570 1_655
Al1_5 Pr0_3 3.072574 1_655
Al1_5 Pr0_5 3.072575 1_555
Al1_6 Ni0_6 2.428553 1_555
Al1_6 Ni0_7 2.428553 1_554
Al1_6 Ni2_3 2.428553 1_654
Al1_6 Ni2_2 2.428553 1_655
Al1_6 Ni1_7 2.428556 1_554
Al1_6 Ni1_6 2.428556 1_555
Al1_6 Pr0_2 3.072570 1_655
Al1_6 Pr0_0 3.072574 1_665
Al1_6 Pr0_6 3.072575 1_555
Al1_7 Ni0_6 2.428553 1_555
Al1_7 Ni0_7 2.428553 1_555
Al1_7 Ni2_3 2.428553 1_655
Al1_7 Ni2_2 2.428553 1_655
Al1_7 Ni1_6 2.428556 1_555
Al1_7 Ni1_7 2.428556 1_555
Al1_7 Pr0_3 3.072570 1_655
Al1_7 Pr0_1 3.072574 1_665
Al1_7 Pr0_7 3.072575 1_555
Ni0_0 Ni1_0 2.660926 1_555
Ni0_0 Ni2_2 2.660926 1_545
Ni0_0 Ni2_4 2.660926 1_555
Ni0_0 Ni1_2 2.660926 1_545
Ni0_0 Pr0_0 3.258563 1_555
Ni0_0 Pr0_4 3.258563 1_555
Ni0_0 Pr0_5 3.258563 1_555
Ni0_0 Pr0_1 3.258563 1_555
Ni0_1 Ni1_3 2.660926 1_545
Ni0_1 Ni1_1 2.660926 1_555
Ni0_1 Ni2_5 2.660926 1_555
Ni0_1 Ni2_3 2.660926 1_545
Ni0_1 Pr0_0 3.258563 1_556
Ni0_1 Pr0_4 3.258563 1_556
Ni0_1 Pr0_5 3.258563 1_555
Ni0_1 Pr0_1 3.258563 1_555
Ni0_2 Ni1_0 2.660926 1_555
Ni0_2 Ni2_6 2.660926 1_555
Ni0_2 Ni2_0 2.660926 1_555
Ni0_2 Ni1_2 2.660926 1_555
Ni0_2 Pr0_3 3.258563 1_555
Ni0_2 Pr0_2 3.258563 1_555
Ni0_2 Pr0_6 3.258563 1_555
Ni0_2 Pr0_7 3.258563 1_555
Ni0_3 Ni1_3 2.660926 1_555
Ni0_3 Ni2_7 2.660926 1_555
Ni0_3 Ni1_1 2.660926 1_555
Ni0_3 Ni2_1 2.660926 1_555
Ni0_3 Pr0_3 3.258563 1_555
Ni0_3 Pr0_6 3.258563 1_556
Ni0_3 Pr0_7 3.258563 1_555
Ni0_3 Pr0_2 3.258563 1_556
Ni0_4 Ni1_4 2.660926 1_555
Ni0_4 Ni1_6 2.660926 1_545
Ni0_4 Ni2_0 2.660926 1_655
Ni0_4 Ni2_6 2.660926 1_545
Ni0_4 Pr0_0 3.258563 1_655
Ni0_4 Pr0_4 3.258563 1_555
Ni0_4 Pr0_5 3.258563 1_555
Ni0_4 Pr0_1 3.258563 1_655
Ni0_5 Ni1_7 2.660926 1_545
Ni0_5 Ni2_1 2.660926 1_655
Ni0_5 Ni1_5 2.660926 1_555
Ni0_5 Ni2_7 2.660926 1_545
Ni0_5 Pr0_0 3.258563 1_656
Ni0_5 Pr0_4 3.258563 1_556
Ni0_5 Pr0_5 3.258563 1_555
Ni0_5 Pr0_1 3.258563 1_655
Ni0_6 Ni1_4 2.660926 1_555
Ni0_6 Ni1_6 2.660926 1_555
Ni0_6 Ni2_2 2.660926 1_655
Ni0_6 Ni2_4 2.660926 1_555
Ni0_6 Pr0_3 3.258563 1_655
Ni0_6 Pr0_6 3.258563 1_555
Ni0_6 Pr0_7 3.258563 1_555
Ni0_6 Pr0_2 3.258563 1_655
Ni0_7 Ni2_3 2.660926 1_655
Ni0_7 Ni2_5 2.660926 1_555
Ni0_7 Ni1_7 2.660926 1_555
Ni0_7 Ni1_5 2.660926 1_555
Ni0_7 Pr0_6 3.258563 1_556
Ni0_7 Pr0_3 3.258563 1_655
Ni0_7 Pr0_7 3.258563 1_555
Ni0_7 Pr0_2 3.258563 1_656
Ni1_0 Ni2_4 2.660927 1_555
Ni1_0 Ni2_0 2.660927 1_555
Ni1_0 Pr0_6 3.258562 1_555
Ni1_0 Pr0_7 3.258562 1_555
Ni1_0 Pr0_1 3.258562 1_555
Ni1_0 Pr0_0 3.258562 1_555
Ni1_1 Ni2_1 2.660927 1_555
Ni1_1 Ni2_5 2.660927 1_555
Ni1_1 Pr0_7 3.258562 1_555
Ni1_1 Pr0_1 3.258562 1_555
Ni1_1 Pr0_6 3.258562 1_556
Ni1_1 Pr0_0 3.258562 1_556
Ni1_2 Ni2_2 2.660927 1_555
Ni1_2 Ni2_6 2.660927 1_555
Ni1_2 Pr0_3 3.258562 1_555
Ni1_2 Pr0_5 3.258562 1_565
Ni1_2 Pr0_2 3.258562 1_555
Ni1_2 Pr0_4 3.258562 1_565
Ni1_3 Ni2_7 2.660927 1_555
Ni1_3 Ni2_3 2.660927 1_555
Ni1_3 Pr0_2 3.258562 1_556
Ni1_3 Pr0_4 3.258562 1_566
Ni1_3 Pr0_3 3.258562 1_555
Ni1_3 Pr0_5 3.258562 1_565
Ni1_4 Ni2_4 2.660927 1_555
Ni1_4 Ni2_0 2.660927 1_655
Ni1_4 Pr0_4 3.258562 1_555
Ni1_4 Pr0_2 3.258562 1_655
Ni1_4 Pr0_3 3.258562 1_655
Ni1_4 Pr0_5 3.258562 1_555
Ni1_5 Ni2_5 2.660927 1_555
Ni1_5 Ni2_1 2.660927 1_655
Ni1_5 Pr0_4 3.258562 1_556
Ni1_5 Pr0_2 3.258562 1_656
Ni1_5 Pr0_3 3.258562 1_655
Ni1_5 Pr0_5 3.258562 1_555
Ni1_6 Ni2_2 2.660927 1_655
Ni1_6 Ni2_6 2.660927 1_555
Ni1_6 Pr0_6 3.258562 1_555
Ni1_6 Pr0_0 3.258562 1_665
Ni1_6 Pr0_7 3.258562 1_555
Ni1_6 Pr0_1 3.258562 1_665
Ni1_7 Ni2_7 2.660927 1_555
Ni1_7 Ni2_3 2.660927 1_655
Ni1_7 Pr0_7 3.258562 1_555
Ni1_7 Pr0_0 3.258562 1_666
Ni1_7 Pr0_1 3.258562 1_665
Ni1_7 Pr0_6 3.258562 1_556
Ni2_0 Pr0_1 3.258562 1_555
Ni2_0 Pr0_3 3.258562 1_555
Ni2_0 Pr0_0 3.258562 1_555
Ni2_0 Pr0_2 3.258562 1_555
Ni2_1 Pr0_1 3.258562 1_555
Ni2_1 Pr0_2 3.258562 1_556
Ni2_1 Pr0_3 3.258562 1_555
Ni2_1 Pr0_0 3.258562 1_556
Ni2_2 Pr0_1 3.258562 1_565
Ni2_2 Pr0_3 3.258562 1_555
Ni2_2 Pr0_0 3.258562 1_565
Ni2_2 Pr0_2 3.258562 1_555
Ni2_3 Pr0_1 3.258562 1_565
Ni2_3 Pr0_0 3.258562 1_566
Ni2_3 Pr0_2 3.258562 1_556
Ni2_3 Pr0_3 3.258562 1_555
Ni2_4 Pr0_4 3.258562 1_555
Ni2_4 Pr0_6 3.258562 1_555
Ni2_4 Pr0_7 3.258562 1_555
Ni2_4 Pr0_5 3.258562 1_555
Ni2_5 Pr0_7 3.258562 1_555
Ni2_5 Pr0_4 3.258562 1_556
Ni2_5 Pr0_6 3.258562 1_556
Ni2_5 Pr0_5 3.258562 1_555
Ni2_6 Pr0_6 3.258562 1_555
Ni2_6 Pr0_7 3.258562 1_555
Ni2_6 Pr0_5 3.258562 1_565
Ni2_6 Pr0_4 3.258562 1_565
Ni2_7 Pr0_7 3.258562 1_555
Ni2_7 Pr0_4 3.258562 1_566
Ni2_7 Pr0_5 3.258562 1_565
Ni2_7 Pr0_6 3.258562 1_556
