# generated using pymatgen
data_LiCr4(HgO4)2
_symmetry_space_group_name_H-M   'P 1'
_cell_length_a   6.51730509
_cell_length_b   6.69016751
_cell_length_c   6.51654922
_cell_angle_alpha   55.33073897
_cell_angle_beta   55.54159825
_cell_angle_gamma   55.32763041
_symmetry_Int_Tables_number   1
_chemical_formula_structural   LiCr4(HgO4)2
_chemical_formula_sum   'Li1 Cr4 Hg2 O8'
_cell_volume   179.44346316
_cell_formula_units_Z   1
loop_
 _symmetry_equiv_pos_site_id
 _symmetry_equiv_pos_as_xyz
  1  'x, y, z'
loop_
 _atom_site_type_symbol
 _atom_site_label
 _atom_site_symmetry_multiplicity
 _atom_site_fract_x
 _atom_site_fract_y
 _atom_site_fract_z
 _atom_site_occupancy
  Li  Li0  1  0.53791900  0.42165700  0.53787900  1
  Cr  Cr0  1  0.00927500  0.47054900  0.00927500  1
  Cr  Cr1  1  0.50906100  0.97355300  0.00854900  1
  Cr  Cr2  1  0.00854900  0.97355100  0.50906500  1
  Cr  Cr3  1  0.00168300  0.98647500  0.00168400  1
  Hg  Hg0  1  0.64121500  0.65789200  0.64120900  1
  Hg  Hg1  1  0.33971300  0.36657000  0.33971400  1
  O  O0  1  0.78304500  0.75374700  0.78301500  1
  O  O1  1  0.26157300  0.23515800  0.79316600  1
  O  O2  1  0.23646700  0.79165300  0.23642400  1
  O  O3  1  0.79325900  0.23508700  0.26145400  1
  O  O4  1  0.76908500  0.17004400  0.76913100  1
  O  O5  1  0.21840700  0.71466500  0.75828900  1
  O  O6  1  0.23676300  0.19107500  0.23680000  1
  O  O7  1  0.75815200  0.71457200  0.21851200  1
loop_
_geom_bond_atom_site_label_1
_geom_bond_atom_site_label_2
_geom_bond_distance
_geom_bond_site_symmetry_2
Li0 O4 2.042567 1_555
Li0 O1 2.091124 1_555
Li0 O3 2.091546 1_555
Li0 O7 2.326310 1_555
Li0 O5 2.327265 1_555
Cr0 O0 2.010248 1_454
Cr0 O6 2.017933 1_555
Cr0 O1 2.030641 1_554
Cr0 O3 2.030807 1_455
Cr0 O7 2.042095 1_455
Cr0 O5 2.042334 1_554
Cr1 O0 2.003112 1_554
Cr1 O6 2.004173 1_565
Cr1 O7 2.031197 1_555
Cr1 O1 2.046950 1_564
Cr1 O4 2.059961 1_564
Cr1 O2 2.064182 1_555
Cr2 O0 2.003169 1_455
Cr2 O6 2.004220 1_565
Cr2 O5 2.031332 1_555
Cr2 O3 2.047089 1_465
Cr2 O4 2.059902 1_465
Cr2 O2 2.064120 1_555
Cr3 O4 2.113504 1_464
Cr3 O2 2.119311 1_555
Cr3 O3 2.346852 1_465
Cr3 O1 2.347998 1_564
Cr3 O5 2.375154 1_554
Cr3 O7 2.376467 1_455
Hg0 O0 2.105904 1_555
Hg0 O7 2.253209 1_555
Hg0 O5 2.253733 1_555
Hg0 Li0 2.517678 1_555
Hg0 O4 2.576409 1_555
Hg1 O6 2.140030 1_555
Hg1 O2 2.269586 1_555
Hg1 O1 2.369581 1_555
Hg1 O3 2.370093 1_555
Hg1 Li0 2.538278 1_555
