# generated using pymatgen
data_MnAl6
_symmetry_space_group_name_H-M   'P 1'
_cell_length_a   4.91043169
_cell_length_b   4.91043265
_cell_length_c   8.75733792
_cell_angle_alpha   90.00000000
_cell_angle_beta   90.00000000
_cell_angle_gamma   98.90861116
_symmetry_Int_Tables_number   1
_chemical_formula_structural   MnAl6
_chemical_formula_sum   'Mn2 Al12'
_cell_volume   208.61263914
_cell_formula_units_Z   2
loop_
 _symmetry_equiv_pos_site_id
 _symmetry_equiv_pos_as_xyz
  1  'x, y, z'
loop_
 _atom_site_type_symbol
 _atom_site_label
 _atom_site_symmetry_multiplicity
 _atom_site_fract_x
 _atom_site_fract_y
 _atom_site_fract_z
 _atom_site_occupancy
  Mn  Mn0  1  0.54148376  0.54148376  0.75000000  1
  Mn  Mn1  1  0.45851624  0.45851624  0.25000000  1
  Al  Al0  1  0.02920230  0.39629927  0.75000000  1
  Al  Al1  1  0.97079770  0.60370073  0.25000000  1
  Al  Al2  1  0.32678622  0.67321378  -0.00000000  1
  Al  Al3  1  0.67321378  0.32678622  0.50000000  1
  Al  Al4  1  0.67321378  0.32678622  -0.00000000  1
  Al  Al5  1  0.32678622  0.67321378  0.50000000  1
  Al  Al6  1  0.14182778  0.14182778  0.10044013  1
  Al  Al7  1  0.85817222  0.85817222  0.60043913  1
  Al  Al8  1  0.14182778  0.14182778  0.39956087  1
  Al  Al9  1  0.85817222  0.85817222  0.89956087  1
  Al  Al10  1  0.60370073  0.97079770  0.25000000  1
  Al  Al11  1  0.39629927  0.02920230  0.75000000  1
loop_
_geom_bond_atom_site_label_1
_geom_bond_atom_site_label_2
_geom_bond_distance
_geom_bond_site_symmetry_2
Al0 Mn0 2.506127 1_555
Al0 Mn0 2.602430 1_455
Al0 Al11 2.739555 1_555
Al0 Al4 2.789373 1_456
Al0 Al3 2.789373 1_455
Al0 Al9 2.855611 1_455
Al0 Al7 2.855611 1_455
Al0 Al2 2.856931 1_556
Al0 Al5 2.856931 1_555
Al0 Al9 2.952274 1_445
Al0 Al7 2.952274 1_445
Al1 Mn1 2.506127 1_555
Al1 Mn1 2.602430 1_655
Al1 Al10 2.739555 1_555
Al1 Al5 2.789373 1_655
Al1 Al2 2.789373 1_655
Al1 Al6 2.855606 1_655
Al1 Al8 2.855611 1_655
Al1 Al3 2.856931 1_555
Al1 Al4 2.856931 1_555
Al1 Al6 2.952270 1_665
Al1 Al8 2.952274 1_665
Al2 Mn0 2.556222 1_554
Al2 Mn1 2.556222 1_555
Al2 Al4 2.585304 1_555
Al2 Al9 2.746064 1_454
Al2 Al6 2.746067 1_565
Al2 Al9 2.770049 1_554
Al2 Al6 2.770052 1_555
Al3 Mn1 2.556222 1_555
Al3 Mn0 2.556222 1_555
Al3 Al5 2.585304 1_555
Al3 Al8 2.746064 1_655
Al3 Al7 2.746064 1_545
Al3 Al8 2.770049 1_555
Al3 Al7 2.770050 1_555
Al4 Mn1 2.556222 1_555
Al4 Mn0 2.556222 1_554
Al4 Al9 2.746064 1_544
Al4 Al6 2.746067 1_655
Al4 Al9 2.770050 1_554
Al4 Al6 2.770052 1_555
Al5 Mn0 2.556222 1_555
Al5 Mn1 2.556222 1_555
Al5 Al7 2.746064 1_455
Al5 Al8 2.746064 1_565
Al5 Al7 2.770049 1_555
Al5 Al8 2.770050 1_555
Al6 Mn1 2.408939 1_555
Al6 Al9 2.524673 1_444
Al6 Al8 2.619501 1_555
Al7 Mn0 2.408944 1_555
Al7 Al8 2.524666 1_665
Al7 Al9 2.619510 1_555
Al8 Mn1 2.408944 1_555
Al9 Mn0 2.408944 1_555
Al10 Mn1 2.506128 1_555
Al10 Mn1 2.602431 1_565
Al10 Al4 2.789373 1_565
Al10 Al3 2.789373 1_565
Al10 Al6 2.855606 1_565
Al10 Al8 2.855610 1_565
Al10 Al5 2.856931 1_555
Al10 Al2 2.856931 1_555
Al10 Al6 2.952270 1_665
Al10 Al8 2.952273 1_665
Al11 Mn0 2.506128 1_555
Al11 Mn0 2.602431 1_545
Al11 Al5 2.789373 1_545
Al11 Al2 2.789373 1_546
Al11 Al7 2.855610 1_545
Al11 Al9 2.855610 1_545
Al11 Al3 2.856931 1_555
Al11 Al4 2.856931 1_556
Al11 Al9 2.952273 1_445
Al11 Al7 2.952273 1_445
