# generated using pymatgen
data_TmTaTiO6
_symmetry_space_group_name_H-M   'P 1'
_cell_length_a   14.63997500
_cell_length_b   5.20077900
_cell_length_c   5.59296844
_cell_angle_alpha   89.65833167
_cell_angle_beta   90.00000000
_cell_angle_gamma   90.00000000
_symmetry_Int_Tables_number   1
_chemical_formula_structural   TmTaTiO6
_chemical_formula_sum   'Tm4 Ta4 Ti4 O24'
_cell_volume   425.83698826
_cell_formula_units_Z   4
loop_
 _symmetry_equiv_pos_site_id
 _symmetry_equiv_pos_as_xyz
  1  'x, y, z'
loop_
 _atom_site_type_symbol
 _atom_site_label
 _atom_site_symmetry_multiplicity
 _atom_site_fract_x
 _atom_site_fract_y
 _atom_site_fract_z
 _atom_site_occupancy
  Tm  Tm0  1  0.00022900  0.74657400  0.77066400  1
  Tm  Tm1  1  0.50022900  0.25342600  0.72933600  1
  Tm  Tm2  1  0.99977100  0.25342600  0.22933600  1
  Tm  Tm3  1  0.49977100  0.74657400  0.27066400  1
  Ta  Ta0  1  0.33220500  0.82313600  0.82303000  1
  Ta  Ta1  1  0.83220500  0.17686400  0.67697000  1
  Ta  Ta2  1  0.66779500  0.17686400  0.17697000  1
  Ta  Ta3  1  0.16779500  0.82313600  0.32303000  1
  Ti  Ti0  1  0.16419200  0.31858700  0.68607900  1
  Ti  Ti1  1  0.66419200  0.68141300  0.81392100  1
  Ti  Ti2  1  0.83580800  0.68141300  0.31392100  1
  Ti  Ti3  1  0.33580800  0.31858700  0.18607900  1
  O  O0  1  0.90845400  0.96836800  0.43148300  1
  O  O1  1  0.59119400  0.46955600  0.06504600  1
  O  O2  1  0.40845400  0.03163200  0.06851700  1
  O  O3  1  0.09119400  0.53044400  0.43495400  1
  O  O4  1  0.09154600  0.03163200  0.56851700  1
  O  O5  1  0.40880600  0.53044400  0.93495400  1
  O  O6  1  0.59154600  0.96836800  0.93148300  1
  O  O7  1  0.90880600  0.46955600  0.56504600  1
  O  O8  1  0.25904800  0.14775300  0.86030800  1
  O  O9  1  0.23888800  0.65153700  0.63417500  1
  O  O10  1  0.75904800  0.85224700  0.63969200  1
  O  O11  1  0.73888800  0.34846300  0.86582500  1
  O  O12  1  0.74095200  0.85224700  0.13969200  1
  O  O13  1  0.76111200  0.34846300  0.36582500  1
  O  O14  1  0.24095200  0.14775300  0.36030800  1
  O  O15  1  0.26111200  0.65153700  0.13417500  1
  O  O16  1  0.08488300  0.41967600  0.90850400  1
  O  O17  1  0.41647200  0.91998400  0.58868100  1
  O  O18  1  0.58488300  0.58032400  0.59149600  1
  O  O19  1  0.91647200  0.08001600  0.91131900  1
  O  O20  1  0.91511700  0.58032400  0.09149600  1
  O  O21  1  0.58352800  0.08001600  0.41131900  1
  O  O22  1  0.41511700  0.41967600  0.40850400  1
  O  O23  1  0.08352800  0.91998400  0.08868100  1
loop_
_geom_bond_atom_site_label_1
_geom_bond_atom_site_label_2
_geom_bond_distance
_geom_bond_site_symmetry_2
O0 Ti2 1.949967 1_555
O0 Ta1 2.079609 1_565
O0 Tm2 2.289845 1_565
O0 Tm0 2.590058 1_655
O1 Ta2 1.988791 1_555
O1 Ti1 2.076142 1_554
O1 Tm3 2.282397 1_555
O1 Tm1 2.566628 1_554
O2 Ti3 1.949967 1_555
O2 Ta0 2.079609 1_544
O2 Tm3 2.289845 1_545
O2 Tm1 2.590058 1_554
O3 Ta3 1.988791 1_555
O3 Ti0 2.076142 1_555
O3 Tm2 2.282397 1_455
O3 Tm0 2.566628 1_555
O4 Ti0 1.949967 1_555
O4 Ta3 2.079609 1_545
O4 Tm0 2.289845 1_545
O4 Tm2 2.590058 1_455
O5 Ta0 1.988791 1_555
O5 Ti3 2.076142 1_556
O5 Tm1 2.282397 1_555
O5 Tm3 2.566628 1_556
O6 Ti1 1.949967 1_555
O6 Ta2 2.079609 1_566
O6 Tm1 2.289845 1_565
O6 Tm3 2.590058 1_556
O7 Ta1 1.988791 1_555
O7 Ti2 2.076142 1_555
O7 Tm0 2.282397 1_655
O7 Tm2 2.566628 1_555
O8 Ti0 1.912349 1_555
O8 Ta0 2.011211 1_545
O8 Ti3 2.321920 1_556
O9 Ta0 1.946736 1_555
O9 Ti0 2.067017 1_555
O9 Ta3 2.211241 1_555
O10 Ti1 1.912349 1_555
O10 Ta1 2.011211 1_565
O10 Ti2 2.321920 1_555
O11 Ta1 1.946736 1_555
O11 Ti1 2.067017 1_555
O11 Ta2 2.211241 1_556
O12 Ti2 1.912349 1_555
O12 Ta2 2.011211 1_565
O12 Ti1 2.321920 1_554
O13 Ta2 1.946736 1_555
O13 Ti2 2.067017 1_555
O13 Ta1 2.211241 1_555
O14 Ti3 1.912349 1_555
O14 Ta3 2.011211 1_545
O14 Ti0 2.321920 1_555
O15 Ta3 1.946736 1_555
O15 Ti3 2.067017 1_555
O15 Ta0 2.211241 1_554
O16 Ti0 1.783225 1_555
O16 Tm0 2.237203 1_555
O16 Tm2 2.345543 1_456
O17 Ta0 1.867006 1_555
O17 Tm1 2.268481 1_565
O17 Tm3 2.341643 1_555
O18 Ti1 1.783225 1_555
O18 Tm1 2.237203 1_555
O18 Tm3 2.345543 1_555
O19 Ta1 1.867006 1_555
O19 Tm0 2.268481 1_645
O19 Tm2 2.341643 1_556
O20 Ti2 1.783225 1_555
O20 Tm2 2.237203 1_555
O20 Tm0 2.345543 1_654
O21 Ta2 1.867006 1_555
O21 Tm3 2.268481 1_545
O21 Tm1 2.341643 1_555
O22 Ti3 1.783225 1_555
O22 Tm3 2.237203 1_555
O22 Tm1 2.345543 1_555
O23 Ta3 1.867006 1_555
O23 Tm2 2.268481 1_465
O23 Tm0 2.341643 1_554
