# generated using pymatgen
data_Ba2CdP3O11
_symmetry_space_group_name_H-M   'P 1'
_cell_length_a   7.56581445
_cell_length_b   7.56581445
_cell_length_c   7.39157376
_cell_angle_alpha   61.65276002
_cell_angle_beta   61.65276002
_cell_angle_gamma   44.06662414
_symmetry_Int_Tables_number   1
_chemical_formula_structural   Ba2CdP3O11
_chemical_formula_sum   'Ba2 Cd1 P3 O11'
_cell_volume   252.73200084
_cell_formula_units_Z   1
loop_
 _symmetry_equiv_pos_site_id
 _symmetry_equiv_pos_as_xyz
  1  'x, y, z'
loop_
 _atom_site_type_symbol
 _atom_site_label
 _atom_site_symmetry_multiplicity
 _atom_site_fract_x
 _atom_site_fract_y
 _atom_site_fract_z
 _atom_site_occupancy
  Ba  Ba0  1  0.99729100  0.99729100  0.00560000  1
  Ba  Ba1  1  0.60100500  0.60100500  0.42818900  1
  Cd  Cd0  1  0.29978900  0.29978900  0.94418100  1
  P  P0  1  0.29193500  0.29193500  0.36411800  1
  P  P1  1  0.91217700  0.91217700  0.62525000  1
  P  P2  1  0.66977800  0.66977800  0.88980500  1
  O  O0  1  0.08338900  0.52248400  0.22734200  1
  O  O1  1  0.52248400  0.08338900  0.22734200  1
  O  O2  1  0.70460300  0.14625000  0.73323900  1
  O  O3  1  0.14625000  0.70460300  0.73323900  1
  O  O4  1  0.44288600  0.88839600  0.01337700  1
  O  O5  1  0.88839600  0.44288600  0.01337700  1
  O  O6  1  0.57917100  0.57917100  0.83462800  1
  O  O7  1  0.99053200  0.99053200  0.38920500  1
  O  O8  1  0.17700900  0.17700900  0.56961200  1
  O  O9  1  0.38472000  0.38472000  0.41839900  1
  O  O10  1  0.78658600  0.78658600  0.66659800  1
loop_
_geom_bond_atom_site_label_1
_geom_bond_atom_site_label_2
_geom_bond_distance
_geom_bond_site_symmetry_2
Ba0 O7 2.788072 1_555
Ba0 O1 2.841686 1_565
Ba0 O0 2.841686 1_655
Ba0 O5 2.862733 1_565
Ba0 O4 2.862733 1_655
Ba0 O8 2.901314 1_664
Ba0 O3 2.952825 1_654
Ba0 O2 2.952825 1_564
Ba0 O6 3.079781 1_564
Ba0 O6 3.079781 1_654
Ba1 O2 2.823469 1_555
Ba1 O3 2.823469 1_555
Ba1 O6 2.859476 1_555
Ba1 O0 2.907438 1_655
Ba1 O1 2.907438 1_565
Ba1 O4 2.995693 1_555
Ba1 O5 2.995693 1_555
Ba1 O9 3.071418 1_555
Ba1 O7 3.316234 1_455
Ba1 O7 3.316234 1_545
Ba1 O8 3.380345 1_655
Ba1 O8 3.380345 1_565
Cd0 O2 2.287625 1_555
Cd0 O3 2.287625 1_555
Cd0 O5 2.300662 1_456
Cd0 O4 2.300662 1_546
Cd0 O0 2.455705 1_556
Cd0 O1 2.455705 1_556
O0 P0 1.561824 1_555
O1 P0 1.561824 1_555
O2 P1 1.547564 1_545
O3 P1 1.547564 1_455
O4 P2 1.543461 1_554
O5 P2 1.543461 1_554
O6 P2 1.520699 1_555
O7 P1 1.512482 1_555
O8 P0 1.548330 1_555
O9 P0 1.545861 1_555
O10 P2 1.623938 1_555
O10 P1 1.626375 1_555
