# generated using pymatgen
data_La3BeSbS7
_symmetry_space_group_name_H-M   'P 1'
_cell_length_a   10.29499508
_cell_length_b   10.29499508
_cell_length_c   6.25311800
_cell_angle_alpha   90.00000000
_cell_angle_beta   90.00000000
_cell_angle_gamma   119.99999406
_symmetry_Int_Tables_number   1
_chemical_formula_structural   La3BeSbS7
_chemical_formula_sum   'La6 Be2 Sb2 S14'
_cell_volume   573.95727929
_cell_formula_units_Z   2
loop_
 _symmetry_equiv_pos_site_id
 _symmetry_equiv_pos_as_xyz
  1  'x, y, z'
loop_
 _atom_site_type_symbol
 _atom_site_label
 _atom_site_symmetry_multiplicity
 _atom_site_fract_x
 _atom_site_fract_y
 _atom_site_fract_z
 _atom_site_occupancy
  La  La0  1  0.74056700  0.13690100  0.74583000  1
  La  La1  1  0.39633400  0.25943300  0.74583000  1
  La  La2  1  0.86309900  0.60366600  0.74583000  1
  La  La3  1  0.25943300  0.86309900  0.24583000  1
  La  La4  1  0.60366600  0.74056700  0.24583000  1
  La  La5  1  0.13690100  0.39633400  0.24583000  1
  Be  Be0  1  0.66666700  0.33333300  0.15967300  1
  Be  Be1  1  0.33333300  0.66666700  0.65967300  1
  Sb  Sb0  1  0.00000000  0.00000000  0.48935700  1
  Sb  Sb1  1  0.00000000  0.00000000  0.98935700  1
  S  S0  1  0.83727900  0.08792600  0.28601500  1
  S  S1  1  0.25064700  0.16272100  0.28601500  1
  S  S2  1  0.91207400  0.74935300  0.28601500  1
  S  S3  1  0.16272100  0.91207400  0.78601500  1
  S  S4  1  0.74935300  0.83727900  0.78601500  1
  S  S5  1  0.08792600  0.25064700  0.78601500  1
  S  S6  1  0.88355100  0.40366000  0.02684200  1
  S  S7  1  0.52010900  0.11644900  0.02684200  1
  S  S8  1  0.59634000  0.47989100  0.02684200  1
  S  S9  1  0.11644900  0.59634000  0.52684200  1
  S  S10  1  0.47989100  0.88355100  0.52684200  1
  S  S11  1  0.40366000  0.52010900  0.52684200  1
  S  S12  1  0.66666700  0.33333300  0.50690500  1
  S  S13  1  0.33333300  0.66666700  0.00690500  1
loop_
_geom_bond_atom_site_label_1
_geom_bond_atom_site_label_2
_geom_bond_distance
_geom_bond_site_symmetry_2
La0 S7 2.793808 1_556
La0 S12 2.905001 1_555
La0 S6 2.958730 1_556
La0 S10 2.980008 1_545
La0 S4 3.140881 1_545
La0 S0 3.164610 1_555
La0 S5 3.167807 1_655
La0 S0 3.627305 1_556
La1 S8 2.793808 1_556
La1 S12 2.905010 1_555
La1 S7 2.958730 1_556
La1 S11 2.980008 1_555
La1 S5 3.140881 1_555
La1 S1 3.164610 1_555
La1 S3 3.167807 1_545
La1 S1 3.627305 1_556
La2 S6 2.793808 1_556
La2 S12 2.905008 1_555
La2 S8 2.958730 1_556
La2 S9 2.980008 1_655
La2 S3 3.140881 1_655
La2 S2 3.164610 1_555
La2 S4 3.167807 1_555
La2 S2 3.627305 1_556
La3 S10 2.793808 1_555
La3 S13 2.905001 1_555
La3 S9 2.958730 1_555
La3 S7 2.980008 1_565
La3 S1 3.140881 1_565
La3 S3 3.164610 1_554
La3 S2 3.167807 1_455
La3 S3 3.627305 1_555
La4 S11 2.793808 1_555
La4 S13 2.905010 1_555
La4 S10 2.958730 1_555
La4 S8 2.980008 1_555
La4 S2 3.140881 1_555
La4 S4 3.164610 1_554
La4 S0 3.167807 1_565
La4 S4 3.627305 1_555
La5 S9 2.793808 1_555
La5 S13 2.905008 1_555
La5 S11 2.958730 1_555
La5 S6 2.980008 1_455
La5 S0 3.140881 1_455
La5 S5 3.164610 1_554
La5 S1 3.167807 1_555
La5 S5 3.627305 1_555
Be0 S6 2.140793 1_555
Be0 S7 2.140795 1_555
Be0 S8 2.140802 1_555
Be0 S12 2.171283 1_555
Be1 S9 2.140793 1_555
Be1 S10 2.140795 1_555
Be1 S11 2.140802 1_555
Be1 S13 2.171283 1_556
S0 Sb0 2.599785 1_655
S0 Sb1 2.929723 1_654
S1 Sb0 2.599785 1_555
S1 Sb1 2.929724 1_554
S2 Sb0 2.599785 1_665
S2 Sb1 2.929724 1_664
S3 Sb1 2.599785 1_565
S3 Sb0 2.929723 1_565
S4 Sb1 2.599785 1_665
S4 Sb0 2.929724 1_665
S5 Sb1 2.599785 1_555
S5 Sb0 2.929724 1_555
