# generated using pymatgen
data_YCu3(WO4)6
_symmetry_space_group_name_H-M   'P 1'
_cell_length_a   14.76014320
_cell_length_b   6.30486402
_cell_length_c   6.13584237
_cell_angle_alpha   110.99178661
_cell_angle_beta   116.70577374
_cell_angle_gamma   92.85566948
_symmetry_Int_Tables_number   1
_chemical_formula_structural   YCu3(WO4)6
_chemical_formula_sum   'Y1 Cu3 W6 O24'
_cell_volume   460.77593634
_cell_formula_units_Z   1
loop_
 _symmetry_equiv_pos_site_id
 _symmetry_equiv_pos_as_xyz
  1  'x, y, z'
loop_
 _atom_site_type_symbol
 _atom_site_label
 _atom_site_symmetry_multiplicity
 _atom_site_fract_x
 _atom_site_fract_y
 _atom_site_fract_z
 _atom_site_occupancy
  Y  Y0  1  0.87478600  0.72311000  0.09872000  1
  Cu  Cu0  1  0.04324000  0.22423600  0.10385800  1
  Cu  Cu1  1  0.37485600  0.22300700  0.09975400  1
  Cu  Cu2  1  0.70682400  0.22293000  0.09581300  1
  W  W0  1  0.29178400  0.40510800  0.60446000  1
  W  W1  1  0.61260800  0.38072300  0.57707700  1
  W  W2  1  0.96158500  0.40562700  0.60436200  1
  W  W3  1  0.13728500  0.06600900  0.62180500  1
  W  W4  1  0.45835500  0.04149700  0.59564500  1
  W  W5  1  0.78785300  0.03962000  0.59456700  1
  O  O0  1  0.04206300  0.68856400  0.80737800  1
  O  O1  1  0.37319600  0.68978200  0.79808500  1
  O  O2  1  0.71219000  0.66240300  0.79000800  1
  O  O3  1  0.17583500  0.44212600  0.32313900  1
  O  O4  1  0.50691500  0.43475500  0.30740000  1
  O  O5  1  0.84944200  0.44523400  0.31154400  1
  O  O6  1  0.05156900  0.21744100  0.80261600  1
  O  O7  1  0.38389300  0.20858200  0.79552600  1
  O  O8  1  0.71931000  0.20805800  0.79865000  1
  O  O9  1  0.18340300  0.04355600  0.38515300  1
  O  O10  1  0.51875300  0.04032000  0.38099200  1
  O  O11  1  0.85361300  0.03446000  0.38604000  1
  O  O12  1  0.24268500  0.01141900  0.89157500  1
  O  O13  1  0.57453500  0.00553000  0.87725900  1
  O  O14  1  0.89956400  0.99952000  0.88775900  1
  O  O15  1  0.03727500  0.78498100  0.40853300  1
  O  O16  1  0.37737500  0.75689400  0.40339200  1
  O  O17  1  0.70627800  0.75789100  0.38918600  1
  O  O18  1  0.03055700  0.23918600  0.40068700  1
  O  O19  1  0.36603000  0.23761200  0.40431000  1
  O  O20  1  0.69861000  0.22963000  0.39723800  1
  O  O21  1  0.23126100  0.40613100  0.81873500  1
  O  O22  1  0.56648100  0.40337600  0.81380500  1
  O  O23  1  0.89642700  0.41044200  0.81425500  1
loop_
_geom_bond_atom_site_label_1
_geom_bond_atom_site_label_2
_geom_bond_distance
_geom_bond_site_symmetry_2
Cu0 O18 1.883152 1_555
Cu0 O3 1.889140 1_555
Cu0 O6 1.892476 1_554
Cu0 O14 2.022378 1_444
Cu1 O4 1.869465 1_555
Cu1 O12 1.870064 1_554
Cu1 O7 1.901049 1_554
Cu1 O19 1.901115 1_555
Cu2 O8 1.883775 1_554
Cu2 O13 1.884833 1_554
Cu2 O20 1.892934 1_555
Cu2 O5 2.005036 1_555
O0 W2 1.735441 1_455
O1 W0 1.746716 1_555
O2 W1 1.836530 1_555
O2 Y0 2.190262 1_556
O3 W0 1.906882 1_555
O4 W1 1.850520 1_555
O5 W2 1.928696 1_555
O5 Y0 2.632016 1_555
O6 W3 2.089529 1_555
O6 W2 2.095348 1_455
O7 W4 2.055020 1_555
O7 W0 2.129337 1_555
O8 W5 2.003089 1_555
O8 W1 2.195581 1_555
O9 W3 1.828284 1_555
O9 W0 2.251717 1_555
O10 W4 1.891691 1_555
O10 W1 2.080484 1_555
O11 W5 1.915682 1_555
O11 Y0 2.266264 1_545
O11 W2 2.296555 1_555
O12 W3 1.850835 1_555
O13 W4 1.906312 1_555
O14 W5 1.928803 1_565
O14 Y0 2.612396 1_556
O15 W3 1.836525 1_565
O15 Y0 2.189878 1_455
O16 W4 1.744260 1_565
O17 W5 1.735588 1_565
O18 W2 2.002443 1_455
O18 W3 2.196869 1_555
O19 W0 2.054303 1_555
O19 W4 2.129356 1_555
O20 W1 2.088746 1_555
O20 W5 2.097436 1_555
O21 W0 1.891252 1_555
O21 W3 2.079254 1_555
O22 W1 1.828580 1_555
O22 W4 2.252422 1_555
O23 W2 1.916416 1_555
O23 Y0 2.265685 1_556
O23 W5 2.297492 1_555
