# generated using pymatgen
data_Nd5Ge3O13
_symmetry_space_group_name_H-M   'P 1'
_cell_length_a   9.89086667
_cell_length_b   9.89086667
_cell_length_c   7.22147500
_cell_angle_alpha   90.00000000
_cell_angle_beta   90.00000000
_cell_angle_gamma   120.00000451
_symmetry_Int_Tables_number   1
_chemical_formula_structural   Nd5Ge3O13
_chemical_formula_sum   'Nd10 Ge6 O26'
_cell_volume   611.82218342
_cell_formula_units_Z   2
loop_
 _symmetry_equiv_pos_site_id
 _symmetry_equiv_pos_as_xyz
  1  'x, y, z'
loop_
 _atom_site_type_symbol
 _atom_site_label
 _atom_site_symmetry_multiplicity
 _atom_site_fract_x
 _atom_site_fract_y
 _atom_site_fract_z
 _atom_site_occupancy
  Nd  Nd0  1  0.66666700  0.33333300  0.00009100  1
  Nd  Nd1  1  0.33333300  0.66666700  0.99990900  1
  Nd  Nd2  1  0.33333300  0.66666700  0.50009100  1
  Nd  Nd3  1  0.66666700  0.33333300  0.49990900  1
  Nd  Nd4  1  0.76378000  0.99442500  0.75000000  1
  Nd  Nd5  1  0.23622000  0.00557500  0.25000000  1
  Nd  Nd6  1  0.23064400  0.23622000  0.75000000  1
  Nd  Nd7  1  0.76935600  0.76378000  0.25000000  1
  Nd  Nd8  1  0.00557500  0.76935600  0.75000000  1
  Nd  Nd9  1  0.99442500  0.23064400  0.25000000  1
  Ge  Ge0  1  0.97505200  0.37278300  0.75000000  1
  Ge  Ge1  1  0.02494800  0.62721700  0.25000000  1
  Ge  Ge2  1  0.39773100  0.02494800  0.75000000  1
  Ge  Ge3  1  0.60226900  0.97505200  0.25000000  1
  Ge  Ge4  1  0.62721700  0.60226900  0.75000000  1
  Ge  Ge5  1  0.37278300  0.39773100  0.25000000  1
  O  O0  1  0.50929700  0.69030100  0.75000000  1
  O  O1  1  0.49070300  0.30969900  0.25000000  1
  O  O2  1  0.18100300  0.49070300  0.75000000  1
  O  O3  1  0.81899700  0.50929700  0.25000000  1
  O  O4  1  0.30969900  0.81899700  0.75000000  1
  O  O5  1  0.69030100  0.18100300  0.25000000  1
  O  O6  1  0.90271100  0.24405100  0.94459000  1
  O  O7  1  0.09728900  0.75594900  0.05541000  1
  O  O8  1  0.34134100  0.09728900  0.94459000  1
  O  O9  1  0.09728900  0.75594900  0.44459000  1
  O  O10  1  0.65865900  0.90271100  0.05541000  1
  O  O11  1  0.90271100  0.24405100  0.55541000  1
  O  O12  1  0.75594900  0.65865900  0.94459000  1
  O  O13  1  0.65865900  0.90271100  0.44459000  1
  O  O14  1  0.24405100  0.34134100  0.05541000  1
  O  O15  1  0.34134100  0.09728900  0.55541000  1
  O  O16  1  0.24405100  0.34134100  0.44459000  1
  O  O17  1  0.75594900  0.65865900  0.55541000  1
  O  O18  1  0.00000000  0.00000000  0.75000000  1
  O  O19  1  0.00000000  0.00000000  0.25000000  1
  O  O20  1  0.86898500  0.47627500  0.75000000  1
  O  O21  1  0.13101500  0.52372500  0.25000000  1
  O  O22  1  0.60729000  0.13101500  0.75000000  1
  O  O23  1  0.39271000  0.86898500  0.25000000  1
  O  O24  1  0.52372500  0.39271000  0.75000000  1
  O  O25  1  0.47627500  0.60729000  0.25000000  1
loop_
_geom_bond_atom_site_label_1
_geom_bond_atom_site_label_2
_geom_bond_distance
_geom_bond_site_symmetry_2
Nd0 O3 2.435960 1_555
Nd0 O1 2.435960 1_555
Nd0 O5 2.435960 1_555
Nd0 O22 2.536891 1_554
Nd0 O20 2.536892 1_554
Nd0 O24 2.536898 1_554
Nd0 O8 2.907386 1_554
Nd0 O12 2.907386 1_554
Nd0 O6 2.907386 1_554
Nd1 O2 2.435960 1_555
Nd1 O0 2.435960 1_555
Nd1 O4 2.435960 1_555
Nd1 O23 2.536891 1_556
Nd1 O21 2.536892 1_556
Nd1 O25 2.536898 1_556
Nd1 O10 2.907386 1_556
Nd1 O14 2.907386 1_556
Nd1 O7 2.907386 1_556
Nd2 O2 2.435960 1_555
Nd2 O0 2.435960 1_555
Nd2 O4 2.435960 1_555
Nd2 O23 2.536891 1_555
Nd2 O21 2.536892 1_555
Nd2 O25 2.536898 1_555
Nd2 O13 2.907386 1_555
Nd2 O16 2.907386 1_555
Nd2 O9 2.907386 1_555
Nd3 O3 2.435960 1_555
Nd3 O1 2.435960 1_555
Nd3 O5 2.435960 1_555
Nd3 O22 2.536891 1_555
Nd3 O20 2.536892 1_555
Nd3 O24 2.536898 1_555
Nd3 O15 2.907386 1_555
Nd3 O17 2.907386 1_555
Nd3 O11 2.907386 1_555
Nd4 O18 2.309344 1_665
Nd4 O10 2.413512 1_556
Nd4 O13 2.413512 1_555
Nd4 O22 2.512376 1_565
Nd4 O6 2.562459 1_565
Nd4 O11 2.562459 1_565
Nd4 O0 2.795086 1_555
Nd5 O19 2.309344 1_555
Nd5 O8 2.413512 1_554
Nd5 O15 2.413512 1_555
Nd5 O23 2.512376 1_545
Nd5 O7 2.562459 1_545
Nd5 O9 2.562459 1_545
Nd5 O1 2.795086 1_555
Nd6 O18 2.309339 1_555
Nd6 O14 2.413512 1_556
Nd6 O16 2.413512 1_555
Nd6 O24 2.512384 1_555
Nd6 O8 2.562473 1_555
Nd6 O15 2.562473 1_555
Nd6 O2 2.795086 1_555
Nd7 O19 2.309339 1_665
Nd7 O17 2.413512 1_555
Nd7 O12 2.413512 1_554
Nd7 O25 2.512384 1_555
Nd7 O13 2.562473 1_555
Nd7 O10 2.562473 1_555
Nd7 O3 2.795086 1_555
Nd8 O18 2.309334 1_565
Nd8 O7 2.413512 1_556
Nd8 O9 2.413512 1_555
Nd8 O20 2.512385 1_455
Nd8 O17 2.562458 1_455
Nd8 O12 2.562458 1_455
Nd8 O4 2.795086 1_555
Nd9 O19 2.309334 1_655
Nd9 O11 2.413512 1_555
Nd9 O6 2.413512 1_554
Nd9 O21 2.512385 1_655
Nd9 O16 2.562458 1_655
Nd9 O14 2.562458 1_655
Nd9 O5 2.795086 1_555
Ge0 O2 1.770305 1_655
Ge0 O11 1.787959 1_555
Ge0 O6 1.787959 1_555
Ge0 O20 1.795073 1_555
Ge1 O3 1.770305 1_455
Ge1 O7 1.787959 1_555
Ge1 O9 1.787959 1_555
Ge1 O21 1.795073 1_555
Ge2 O4 1.770304 1_545
Ge2 O15 1.787954 1_555
Ge2 O8 1.787954 1_555
Ge2 O22 1.795073 1_555
Ge3 O5 1.770304 1_565
Ge3 O13 1.787954 1_555
Ge3 O10 1.787954 1_555
Ge3 O23 1.795073 1_555
Ge4 O0 1.770313 1_555
Ge4 O12 1.787960 1_555
Ge4 O17 1.787960 1_555
Ge4 O24 1.795073 1_555
Ge5 O1 1.770313 1_555
Ge5 O14 1.787960 1_555
Ge5 O16 1.787960 1_555
Ge5 O25 1.795073 1_555
