# generated using pymatgen
data_Mg2NiH4
_symmetry_space_group_name_H-M   'P 1'
_cell_length_a   4.43112114
_cell_length_b   4.43112114
_cell_length_c   6.57671867
_cell_angle_alpha   89.63386022
_cell_angle_beta   89.63386022
_cell_angle_gamma   91.87807916
_symmetry_Int_Tables_number   1
_chemical_formula_structural   Mg2NiH4
_chemical_formula_sum   'Mg4 Ni2 H8'
_cell_volume   129.05796731
_cell_formula_units_Z   2
loop_
 _symmetry_equiv_pos_site_id
 _symmetry_equiv_pos_as_xyz
  1  'x, y, z'
loop_
 _atom_site_type_symbol
 _atom_site_label
 _atom_site_symmetry_multiplicity
 _atom_site_fract_x
 _atom_site_fract_y
 _atom_site_fract_z
 _atom_site_occupancy
  Mg  Mg0  1  0.00345800  0.50579900  0.74471200  1
  Mg  Mg1  1  0.50579900  0.00345800  0.74471200  1
  Mg  Mg2  1  0.99654200  0.49420100  0.25528800  1
  Mg  Mg3  1  0.49420100  0.99654200  0.25528800  1
  Ni  Ni0  1  0.00000000  0.00000000  0.00000000  1
  Ni  Ni1  1  0.50000000  0.50000000  0.50000000  1
  H  H0  1  0.76022000  0.23978000  0.00000000  1
  H  H1  1  0.23978000  0.76022000  0.00000000  1
  H  H2  1  0.24979500  0.24979500  0.98288600  1
  H  H3  1  0.75020500  0.75020500  0.01711400  1
  H  H4  1  0.48327900  0.48327900  0.26608400  1
  H  H5  1  0.51672100  0.51672100  0.73391600  1
  H  H6  1  0.24880700  0.24880700  0.51794800  1
  H  H7  1  0.75119300  0.75119300  0.48205200  1
loop_
_geom_bond_atom_site_label_1
_geom_bond_atom_site_label_2
_geom_bond_distance
_geom_bond_site_symmetry_2
H0 Ni0 1.527017 1_655
H0 Mg1 2.270619 1_554
H0 Mg2 2.270619 1_555
H0 Mg0 2.288749 1_654
H0 Mg3 2.288749 1_545
H1 Ni0 1.527017 1_565
H1 Mg0 2.270619 1_554
H1 Mg3 2.270619 1_555
H1 Mg1 2.288749 1_564
H1 Mg2 2.288749 1_455
H2 Ni0 1.542566 1_556
H2 Mg0 2.238801 1_555
H2 Mg1 2.238801 1_555
H2 Mg2 2.391750 1_456
H2 Mg3 2.391750 1_546
H3 Ni0 1.542566 1_665
H3 Mg2 2.238801 1_555
H3 Mg3 2.238801 1_555
H3 Mg1 2.391750 1_564
H3 Mg0 2.391750 1_654
H4 Ni1 1.542792 1_555
H4 Mg3 2.160529 1_545
H4 Mg2 2.160529 1_455
H4 Mg3 2.273904 1_555
H4 Mg2 2.273904 1_555
H5 Ni1 1.542792 1_555
H5 Mg0 2.160529 1_655
H5 Mg1 2.160529 1_565
H5 Mg1 2.273904 1_555
H5 Mg0 2.273904 1_555
H6 Ni1 1.551517 1_555
H6 Mg1 2.187468 1_555
H6 Mg0 2.187468 1_555
H6 Mg2 2.344415 1_455
H6 Mg3 2.344415 1_545
H7 Ni1 1.551517 1_555
H7 Mg2 2.187468 1_555
H7 Mg3 2.187468 1_555
H7 Mg0 2.344415 1_655
H7 Mg1 2.344415 1_565
