# generated using pymatgen
data_Nd9Al5S21
_symmetry_space_group_name_H-M   'P 1'
_cell_length_a   11.68962098
_cell_length_b   11.68962099
_cell_length_c   11.68962055
_cell_angle_alpha   94.96772331
_cell_angle_beta   94.96772333
_cell_angle_gamma   94.96772964
_symmetry_Int_Tables_number   1
_chemical_formula_structural   Nd9Al5S21
_chemical_formula_sum   'Nd18 Al10 S42'
_cell_volume   1578.23579972
_cell_formula_units_Z   2
loop_
 _symmetry_equiv_pos_site_id
 _symmetry_equiv_pos_as_xyz
  1  'x, y, z'
loop_
 _atom_site_type_symbol
 _atom_site_label
 _atom_site_symmetry_multiplicity
 _atom_site_fract_x
 _atom_site_fract_y
 _atom_site_fract_z
 _atom_site_occupancy
  Nd  Nd0  1  0.25969761  0.11897426  0.88422211  1
  Nd  Nd1  1  0.92618559  0.77601727  0.54433136  1
  Nd  Nd2  1  0.60141248  0.44852343  0.23220882  1
  Nd  Nd3  1  0.44852343  0.23220882  0.60141248  1
  Nd  Nd4  1  0.11897426  0.88422211  0.25969761  1
  Nd  Nd5  1  0.77601727  0.54433136  0.92618559  1
  Nd  Nd6  1  0.54433136  0.92618559  0.77601727  1
  Nd  Nd7  1  0.23220882  0.60141248  0.44852343  1
  Nd  Nd8  1  0.88422211  0.25969761  0.11897426  1
  Nd  Nd9  1  0.41621502  0.56458887  0.79272524  1
  Nd  Nd10  1  0.06962751  0.22105141  0.45075210  1
  Nd  Nd11  1  0.75441513  0.89801013  0.12433326  1
  Nd  Nd12  1  0.22105141  0.45075210  0.06962751  1
  Nd  Nd13  1  0.89801013  0.12433326  0.75441513  1
  Nd  Nd14  1  0.56458887  0.79272524  0.41621502  1
  Nd  Nd15  1  0.12433326  0.75441513  0.89801013  1
  Nd  Nd16  1  0.79272524  0.41621502  0.56458887  1
  Nd  Nd17  1  0.45075210  0.06962751  0.22105141  1
  Al  Al0  1  0.95264686  0.61112830  0.27829100  1
  Al  Al1  1  0.61112830  0.27829100  0.95264686  1
  Al  Al2  1  0.27829100  0.95264686  0.61112830  1
  Al  Al3  1  0.45156603  0.77400825  0.11669793  1
  Al  Al4  1  0.11669793  0.45156603  0.77400825  1
  Al  Al5  1  0.77400825  0.11669793  0.45156603  1
  Al  Al6  1  0.14377305  0.14377305  0.14377305  1
  Al  Al7  1  0.82770432  0.82770432  0.82770432  1
  Al  Al8  1  0.32600252  0.32600252  0.32600252  1
  Al  Al9  1  0.64561805  0.64561805  0.64561805  1
  S  S0  1  0.82895698  0.49141526  0.16037464  1
  S  S1  1  0.49141526  0.16037464  0.82895698  1
  S  S2  1  0.16037464  0.82895698  0.49141526  1
  S  S3  1  0.66020078  0.99359706  0.32729775  1
  S  S4  1  0.32729775  0.66020078  0.99359706  1
  S  S5  1  0.99359706  0.32729775  0.66020078  1
  S  S6  1  0.98854787  0.55166550  0.45442095  1
  S  S7  1  0.64217010  0.21580870  0.12696287  1
  S  S8  1  0.30401095  0.89356295  0.78940292  1
  S  S9  1  0.89356295  0.78940292  0.30401095  1
  S  S10  1  0.55166550  0.45442095  0.98854787  1
  S  S11  1  0.21580870  0.12696287  0.64217010  1
  S  S12  1  0.12696287  0.64217010  0.21580870  1
  S  S13  1  0.78940292  0.30401095  0.89356295  1
  S  S14  1  0.45442095  0.98854787  0.55166550  1
  S  S15  1  0.52025286  0.92942409  0.03526632  1
  S  S16  1  0.18585152  0.61121869  0.70100693  1
  S  S17  1  0.83795007  0.27550229  0.37002221  1
  S  S18  1  0.61121869  0.70100693  0.18585152  1
  S  S19  1  0.27550229  0.37002221  0.83795007  1
  S  S20  1  0.92942409  0.03526632  0.52025286  1
  S  S21  1  0.37002221  0.83795007  0.27550229  1
  S  S22  1  0.03526632  0.52025286  0.92942409  1
  S  S23  1  0.70100693  0.18585152  0.61121869  1
  S  S24  1  0.69042561  0.59527372  0.45096389  1
  S  S25  1  0.33250010  0.24260726  0.11107243  1
  S  S26  1  -0.00077620  0.90374766  0.76529450  1
  S  S27  1  0.90374766  0.76529450  -0.00077620  1
  S  S28  1  0.59527372  0.45096389  0.69042561  1
  S  S29  1  0.24260726  0.11107243  0.33250010  1
  S  S30  1  0.11107243  0.33250010  0.24260726  1
  S  S31  1  0.76529450  -0.00077620  0.90374766  1
  S  S32  1  0.45096389  0.69042561  0.59527372  1
  S  S33  1  0.62795402  0.71621593  0.84879428  1
  S  S34  1  0.27647049  0.37709062  0.51054321  1
  S  S35  1  0.96639437  0.05856081  0.20624011  1
  S  S36  1  0.37709062  0.51054321  0.27647049  1
  S  S37  1  0.05856081  0.20624011  0.96639437  1
  S  S38  1  0.71621593  0.84879428  0.62795402  1
  S  S39  1  0.20624011  0.96639437  0.05856081  1
  S  S40  1  0.84879428  0.62795402  0.71621593  1
  S  S41  1  0.51054321  0.27647049  0.37709062  1
loop_
_geom_bond_atom_site_label_1
_geom_bond_atom_site_label_2
_geom_bond_distance
_geom_bond_site_symmetry_2
Nd0 S11 2.842645 1_555
Nd0 S1 2.849343 1_555
Nd0 S37 2.851023 1_555
Nd0 S8 2.875757 1_545
Nd0 S39 2.895174 1_546
Nd0 S25 2.928711 1_556
Nd0 S19 3.022785 1_555
Nd1 S9 2.821834 1_555
Nd1 S2 2.885501 1_655
Nd1 S38 2.887358 1_555
Nd1 S26 2.891274 1_655
Nd1 S40 2.914993 1_555
Nd1 S6 2.915555 1_555
Nd1 S20 3.065034 1_565
Nd1 S24 3.364775 1_555
Nd2 S36 2.858094 1_555
Nd2 S10 2.865283 1_554
Nd2 S0 2.874091 1_555
Nd2 S41 2.928004 1_555
Nd2 S7 2.981147 1_555
Nd2 S24 3.005809 1_555
Nd2 S18 3.040877 1_555
Nd3 S41 2.858094 1_555
Nd3 S14 2.865283 1_545
Nd3 S1 2.874091 1_555
Nd3 S34 2.928004 1_555
Nd3 S11 2.981147 1_555
Nd3 S28 3.005808 1_555
Nd3 S23 3.040877 1_555
Nd4 S12 2.842645 1_555
Nd4 S2 2.849343 1_555
Nd4 S39 2.851022 1_555
Nd4 S9 2.875756 1_455
Nd4 S35 2.895175 1_465
Nd4 S29 2.928711 1_565
Nd4 S21 3.022786 1_555
Nd5 S13 2.821834 1_555
Nd5 S0 2.885501 1_556
Nd5 S40 2.887357 1_555
Nd5 S27 2.891274 1_556
Nd5 S33 2.914993 1_555
Nd5 S10 2.915555 1_555
Nd5 S22 3.065034 1_655
Nd5 S28 3.364775 1_555
Nd6 S8 2.821834 1_555
Nd6 S1 2.885501 1_565
Nd6 S33 2.887358 1_555
Nd6 S31 2.891274 1_565
Nd6 S38 2.914993 1_555
Nd6 S14 2.915555 1_555
Nd6 S15 3.065034 1_556
Nd6 S32 3.364775 1_555
Nd7 S34 2.858094 1_555
Nd7 S6 2.865283 1_455
Nd7 S2 2.874091 1_555
Nd7 S36 2.928004 1_555
Nd7 S12 2.981147 1_555
Nd7 S32 3.005809 1_555
Nd7 S16 3.040877 1_555
Nd8 S7 2.842645 1_555
Nd8 S0 2.849343 1_555
Nd8 S35 2.851023 1_555
Nd8 S13 2.875756 1_554
Nd8 S37 2.895175 1_654
Nd8 S30 2.928711 1_655
Nd8 S17 3.022785 1_555
Nd9 S19 2.805169 1_555
Nd9 S4 2.830648 1_555
Nd9 S28 2.866242 1_555
Nd9 S32 2.881524 1_555
Nd9 S33 2.907853 1_555
Nd9 S16 2.924643 1_555
Nd9 S10 3.105069 1_555
Nd10 S20 2.825314 1_455
Nd10 S29 2.877308 1_555
Nd10 S5 2.892812 1_455
Nd10 S34 2.895624 1_555
Nd10 S30 2.914782 1_555
Nd10 S17 2.930892 1_455
Nd10 S11 3.037447 1_555
Nd10 S35 3.361425 1_455
Nd11 S27 2.848012 1_555
Nd11 S3 2.880471 1_555
Nd11 S18 2.906907 1_555
Nd11 S15 2.908302 1_555
Nd11 S31 2.936682 1_564
Nd11 S9 2.982770 1_555
Nd11 S35 3.008613 1_565
Nd12 S22 2.825315 1_554
Nd12 S30 2.877308 1_555
Nd12 S4 2.892812 1_554
Nd12 S36 2.895624 1_555
Nd12 S25 2.914783 1_555
Nd12 S19 2.930892 1_554
Nd12 S12 3.037447 1_555
Nd12 S37 3.361425 1_554
Nd13 S31 2.848011 1_555
Nd13 S5 2.880471 1_555
Nd13 S23 2.906908 1_555
Nd13 S20 2.908302 1_555
Nd13 S26 2.936682 1_645
Nd13 S13 2.982770 1_555
Nd13 S37 3.008613 1_655
Nd14 S21 2.805169 1_555
Nd14 S3 2.830648 1_555
Nd14 S32 2.866241 1_555
Nd14 S24 2.881524 1_555
Nd14 S38 2.907853 1_555
Nd14 S18 2.924643 1_555
Nd14 S14 3.105069 1_555
Nd15 S26 2.848012 1_555
Nd15 S4 2.880471 1_555
Nd15 S16 2.906907 1_555
Nd15 S22 2.908302 1_555
Nd15 S27 2.936682 1_456
Nd15 S8 2.982770 1_555
Nd15 S39 3.008613 1_556
Nd16 S17 2.805169 1_555
Nd16 S5 2.830648 1_555
Nd16 S24 2.866242 1_555
Nd16 S28 2.881524 1_555
Nd16 S40 2.907853 1_555
Nd16 S23 2.924643 1_555
Nd16 S6 3.105069 1_555
Nd17 S15 2.825315 1_545
Nd17 S25 2.877308 1_555
Nd17 S3 2.892812 1_545
Nd17 S41 2.895624 1_555
Nd17 S29 2.914783 1_555
Nd17 S21 2.930892 1_545
Nd17 S7 3.037447 1_555
Nd17 S39 3.361425 1_545
Al0 S0 2.217933 1_555
Al0 S12 2.234485 1_655
Al0 S6 2.246565 1_555
Al0 S9 2.255448 1_555
Al1 S1 2.217933 1_555
Al1 S7 2.234485 1_556
Al1 S10 2.246565 1_555
Al1 S13 2.255448 1_555
Al2 S2 2.217933 1_555
Al2 S11 2.234485 1_565
Al2 S14 2.246565 1_555
Al2 S8 2.255448 1_555
Al3 S4 2.218673 1_554
Al3 S18 2.235778 1_555
Al3 S15 2.242909 1_555
Al3 S21 2.258969 1_555
Al4 S5 2.218673 1_455
Al4 S16 2.235778 1_555
Al4 S22 2.242909 1_555
Al4 S19 2.258969 1_555
Al5 S3 2.218673 1_545
Al5 S23 2.235778 1_555
Al5 S20 2.242909 1_555
Al5 S17 2.258969 1_555
Al6 S35 2.419768 1_455
Al6 S37 2.419768 1_554
Al6 S39 2.419769 1_545
Al6 S25 2.475705 1_555
Al6 S29 2.475705 1_555
Al6 S30 2.475705 1_555
Al7 S26 2.323662 1_655
Al7 S27 2.323662 1_556
Al7 S31 2.323662 1_565
Al7 S33 2.615304 1_555
Al7 S38 2.615304 1_555
Al7 S40 2.615304 1_555
Al8 S36 2.323478 1_555
Al8 S34 2.323478 1_555
Al8 S41 2.323478 1_555
Al8 S29 2.624922 1_555
Al8 S25 2.624922 1_555
Al8 S30 2.624922 1_555
Al9 S28 2.413745 1_555
Al9 S24 2.413745 1_555
Al9 S32 2.413745 1_555
Al9 S38 2.477814 1_555
Al9 S33 2.477814 1_555
Al9 S40 2.477814 1_555
