# generated using pymatgen
data_NaB6NO10
_symmetry_space_group_name_H-M   'P 1'
_cell_length_a   12.46692595
_cell_length_b   12.46692595
_cell_length_c   12.46692595
_cell_angle_alpha   90.00000000
_cell_angle_beta   90.00000000
_cell_angle_gamma   90.00000000
_symmetry_Int_Tables_number   1
_chemical_formula_structural   NaB6NO10
_chemical_formula_sum   'Na8 B48 N8 O80'
_cell_volume   1937.66252386
_cell_formula_units_Z   8
loop_
 _symmetry_equiv_pos_site_id
 _symmetry_equiv_pos_as_xyz
  1  'x, y, z'
loop_
 _atom_site_type_symbol
 _atom_site_label
 _atom_site_symmetry_multiplicity
 _atom_site_fract_x
 _atom_site_fract_y
 _atom_site_fract_z
 _atom_site_occupancy
  Na  Na0  1  0.35550843  0.64449157  0.14449157  1
  Na  Na1  1  0.64449157  0.14449157  0.35550843  1
  Na  Na2  1  0.14449157  0.35550843  0.64449157  1
  Na  Na3  1  0.85550843  0.85550843  0.85550843  1
  Na  Na4  1  0.64449157  0.35550843  0.85550843  1
  Na  Na5  1  0.35550843  0.85550843  0.64449157  1
  Na  Na6  1  0.85550843  0.64449157  0.35550843  1
  Na  Na7  1  0.14449157  0.14449157  0.14449157  1
  B  B0  1  0.30351133  0.67091837  0.85893424  1
  B  B1  1  0.69648867  0.17091837  0.64106576  1
  B  B2  1  0.19648867  0.32908163  0.35893424  1
  B  B3  1  0.80351133  0.82908163  0.14106576  1
  B  B4  1  0.85893424  0.30351133  0.67091837  1
  B  B5  1  0.64106576  0.69648867  0.17091837  1
  B  B6  1  0.35893424  0.19648867  0.32908163  1
  B  B7  1  0.14106576  0.80351133  0.82908163  1
  B  B8  1  0.67091837  0.85893424  0.30351133  1
  B  B9  1  0.17091837  0.64106576  0.69648867  1
  B  B10  1  0.32908163  0.35893424  0.19648867  1
  B  B11  1  0.82908163  0.14106576  0.80351133  1
  B  B12  1  0.69648867  0.32908163  0.14106576  1
  B  B13  1  0.30351133  0.82908163  0.35893424  1
  B  B14  1  0.80351133  0.67091837  0.64106576  1
  B  B15  1  0.19648867  0.17091837  0.85893424  1
  B  B16  1  0.14106576  0.69648867  0.32908163  1
  B  B17  1  0.35893424  0.30351133  0.82908163  1
  B  B18  1  0.64106576  0.80351133  0.67091837  1
  B  B19  1  0.85893424  0.19648867  0.17091837  1
  B  B20  1  0.32908163  0.14106576  0.69648867  1
  B  B21  1  0.82908163  0.35893424  0.30351133  1
  B  B22  1  0.67091837  0.64106576  0.80351133  1
  B  B23  1  0.17091837  0.85893424  0.19648867  1
  B  B24  1  0.22250128  0.78002804  0.00822288  1
  B  B25  1  0.77749872  0.28002804  0.49177712  1
  B  B26  1  0.27749872  0.21997196  0.50822288  1
  B  B27  1  0.72250128  0.71997196  0.99177712  1
  B  B28  1  0.00822288  0.22250128  0.78002804  1
  B  B29  1  0.49177712  0.77749872  0.28002804  1
  B  B30  1  0.50822288  0.27749872  0.21997196  1
  B  B31  1  0.99177712  0.72250128  0.71997196  1
  B  B32  1  0.78002804  0.00822288  0.22250128  1
  B  B33  1  0.28002804  0.49177712  0.77749872  1
  B  B34  1  0.21997196  0.50822288  0.27749872  1
  B  B35  1  0.71997196  0.99177712  0.72250128  1
  B  B36  1  0.77749872  0.21997196  0.99177712  1
  B  B37  1  0.22250128  0.71997196  0.50822288  1
  B  B38  1  0.72250128  0.78002804  0.49177712  1
  B  B39  1  0.27749872  0.28002804  0.00822288  1
  B  B40  1  0.99177712  0.77749872  0.21997196  1
  B  B41  1  0.50822288  0.22250128  0.71997196  1
  B  B42  1  0.49177712  0.72250128  0.78002804  1
  B  B43  1  0.00822288  0.27749872  0.28002804  1
  B  B44  1  0.21997196  0.99177712  0.77749872  1
  B  B45  1  0.71997196  0.50822288  0.22250128  1
  B  B46  1  0.78002804  0.49177712  0.72250128  1
  B  B47  1  0.28002804  0.00822288  0.27749872  1
  N  N0  1  0.00000000  0.50000000  0.00000000  1
  N  N1  1  0.00000000  -0.00000000  0.50000000  1
  N  N2  1  0.50000000  0.50000000  0.50000000  1
  N  N3  1  0.50000000  -0.00000000  0.00000000  1
  N  N4  1  0.50000000  0.50000000  0.00000000  1
  N  N5  1  0.50000000  -0.00000000  0.50000000  1
  N  N6  1  0.00000000  0.50000000  0.50000000  1
  N  N7  1  0.00000000  -0.00000000  0.00000000  1
  O  O0  1  0.19585310  0.69585310  0.80414690  1
  O  O1  1  0.80414690  0.19585310  0.69585310  1
  O  O2  1  0.30414690  0.30414690  0.30414690  1
  O  O3  1  0.69585310  0.80414690  0.19585310  1
  O  O4  1  0.80414690  0.30414690  0.19585310  1
  O  O5  1  0.19585310  0.80414690  0.30414690  1
  O  O6  1  0.69585310  0.69585310  0.69585310  1
  O  O7  1  0.30414690  0.19585310  0.80414690  1
  O  O8  1  0.32498963  0.55713404  0.85255355  1
  O  O9  1  0.67501037  0.05713404  0.64744645  1
  O  O10  1  0.17501037  0.44286596  0.35255355  1
  O  O11  1  0.82498963  0.94286596  0.14744645  1
  O  O12  1  0.85255355  0.32498963  0.55713404  1
  O  O13  1  0.64744645  0.67501037  0.05713404  1
  O  O14  1  0.35255355  0.17501037  0.44286596  1
  O  O15  1  0.14744645  0.82498963  0.94286596  1
  O  O16  1  0.55713404  0.85255355  0.32498963  1
  O  O17  1  0.05713404  0.64744645  0.67501037  1
  O  O18  1  0.44286596  0.35255355  0.17501037  1
  O  O19  1  0.94286596  0.14744645  0.82498963  1
  O  O20  1  0.67501037  0.44286596  0.14744645  1
  O  O21  1  0.32498963  0.94286596  0.35255355  1
  O  O22  1  0.82498963  0.55713404  0.64744645  1
  O  O23  1  0.17501037  0.05713404  0.85255355  1
  O  O24  1  0.14744645  0.67501037  0.44286596  1
  O  O25  1  0.35255355  0.32498963  0.94286596  1
  O  O26  1  0.64744645  0.82498963  0.55713404  1
  O  O27  1  0.85255355  0.17501037  0.05713404  1
  O  O28  1  0.44286596  0.14744645  0.67501037  1
  O  O29  1  0.94286596  0.35255355  0.32498963  1
  O  O30  1  0.55713404  0.64744645  0.82498963  1
  O  O31  1  0.05713404  0.85255355  0.17501037  1
  O  O32  1  0.29596870  0.70482911  0.97071656  1
  O  O33  1  0.70403130  0.20482911  0.52928344  1
  O  O34  1  0.20403130  0.29517089  0.47071656  1
  O  O35  1  0.79596870  0.79517089  0.02928344  1
  O  O36  1  0.97071656  0.29596870  0.70482911  1
  O  O37  1  0.52928344  0.70403130  0.20482911  1
  O  O38  1  0.47071656  0.20403130  0.29517089  1
  O  O39  1  0.02928344  0.79596870  0.79517089  1
  O  O40  1  0.70482911  0.97071656  0.29596870  1
  O  O41  1  0.20482911  0.52928344  0.70403130  1
  O  O42  1  0.29517089  0.47071656  0.20403130  1
  O  O43  1  0.79517089  0.02928344  0.79596870  1
  O  O44  1  0.70403130  0.29517089  0.02928344  1
  O  O45  1  0.29596870  0.79517089  0.47071656  1
  O  O46  1  0.79596870  0.70482911  0.52928344  1
  O  O47  1  0.20403130  0.20482911  0.97071656  1
  O  O48  1  0.02928344  0.70403130  0.29517089  1
  O  O49  1  0.47071656  0.29596870  0.79517089  1
  O  O50  1  0.52928344  0.79596870  0.70482911  1
  O  O51  1  0.97071656  0.20403130  0.20482911  1
  O  O52  1  0.29517089  0.02928344  0.70403130  1
  O  O53  1  0.79517089  0.47071656  0.29596870  1
  O  O54  1  0.70482911  0.52928344  0.79596870  1
  O  O55  1  0.20482911  0.97071656  0.20403130  1
  O  O56  1  0.23427581  0.80272649  0.11530395  1
  O  O57  1  0.76572419  0.30272649  0.38469605  1
  O  O58  1  0.26572419  0.19727351  0.61530395  1
  O  O59  1  0.73427581  0.69727351  0.88469605  1
  O  O60  1  0.11530395  0.23427581  0.80272649  1
  O  O61  1  0.38469605  0.76572419  0.30272649  1
  O  O62  1  0.61530395  0.26572419  0.19727351  1
  O  O63  1  0.88469605  0.73427581  0.69727351  1
  O  O64  1  0.80272649  0.11530395  0.23427581  1
  O  O65  1  0.30272649  0.38469605  0.76572419  1
  O  O66  1  0.19727351  0.61530395  0.26572419  1
  O  O67  1  0.69727351  0.88469605  0.73427581  1
  O  O68  1  0.76572419  0.19727351  0.88469605  1
  O  O69  1  0.23427581  0.69727351  0.61530395  1
  O  O70  1  0.73427581  0.80272649  0.38469605  1
  O  O71  1  0.26572419  0.30272649  0.11530395  1
  O  O72  1  0.88469605  0.76572419  0.19727351  1
  O  O73  1  0.61530395  0.23427581  0.69727351  1
  O  O74  1  0.38469605  0.73427581  0.80272649  1
  O  O75  1  0.11530395  0.26572419  0.30272649  1
  O  O76  1  0.19727351  0.88469605  0.76572419  1
  O  O77  1  0.69727351  0.61530395  0.23427581  1
  O  O78  1  0.80272649  0.38469605  0.73427581  1
  O  O79  1  0.30272649  0.11530395  0.26572419  1
loop_
_geom_bond_atom_site_label_1
_geom_bond_atom_site_label_2
_geom_bond_distance
_geom_bond_site_symmetry_2
Na0 O37 2.410452 1_555
Na0 O42 2.410452 1_555
Na0 O32 2.410452 1_554
Na0 O66 2.511631 1_555
Na0 O56 2.511631 1_555
Na0 O61 2.511631 1_555
Na1 O33 2.410452 1_555
Na1 O38 2.410452 1_555
Na1 O40 2.410452 1_545
Na1 O62 2.511631 1_555
Na1 O57 2.511631 1_555
Na1 O64 2.511631 1_555
Na2 O41 2.410452 1_555
Na2 O36 2.410452 1_455
Na2 O34 2.410452 1_555
Na2 O58 2.511631 1_555
Na2 O60 2.511631 1_555
Na2 O65 2.511631 1_555
Na3 O35 2.410452 1_556
Na3 O39 2.410452 1_655
Na3 O43 2.410452 1_565
Na3 O63 2.511631 1_555
Na3 O67 2.511631 1_555
Na3 O59 2.511631 1_555
Na4 O44 2.410452 1_556
Na4 O49 2.410452 1_555
Na4 O54 2.410452 1_555
Na4 O73 2.511631 1_555
Na4 O68 2.511631 1_555
Na4 O78 2.511631 1_555
Na5 O52 2.410452 1_565
Na5 O45 2.410452 1_555
Na5 O50 2.410452 1_555
Na5 O69 2.511631 1_555
Na5 O76 2.511631 1_555
Na5 O74 2.511631 1_555
Na6 O48 2.410452 1_655
Na6 O53 2.410452 1_555
Na6 O46 2.410452 1_555
Na6 O77 2.511631 1_555
Na6 O72 2.511631 1_555
Na6 O70 2.511631 1_555
Na7 O55 2.410452 1_545
Na7 O47 2.410452 1_554
Na7 O51 2.410452 1_455
Na7 O75 2.511631 1_555
Na7 O79 2.511631 1_555
Na7 O71 2.511631 1_555
B0 O8 1.445782 1_555
B0 O32 1.459329 1_555
B0 O74 1.462644 1_555
B0 O0 1.537718 1_555
B1 O9 1.445782 1_555
B1 O33 1.459329 1_555
B1 O73 1.462644 1_555
B1 O1 1.537718 1_555
B2 O10 1.445782 1_555
B2 O34 1.459329 1_555
B2 O75 1.462644 1_555
B2 O2 1.537718 1_555
B3 O11 1.445782 1_555
B3 O35 1.459329 1_555
B3 O72 1.462644 1_555
B3 O3 1.537718 1_555
B4 O12 1.445782 1_555
B4 O36 1.459329 1_555
B4 O78 1.462644 1_555
B4 O1 1.537718 1_555
B5 O13 1.445782 1_555
B5 O37 1.459329 1_555
B5 O77 1.462644 1_555
B5 O3 1.537718 1_555
B6 O14 1.445782 1_555
B6 O38 1.459329 1_555
B6 O79 1.462644 1_555
B6 O2 1.537718 1_555
B7 O15 1.445782 1_555
B7 O39 1.459329 1_555
B7 O76 1.462644 1_555
B7 O0 1.537718 1_555
B8 O16 1.445782 1_555
B8 O40 1.459329 1_555
B8 O70 1.462644 1_555
B8 O3 1.537718 1_555
B9 O17 1.445782 1_555
B9 O41 1.459329 1_555
B9 O69 1.462644 1_555
B9 O0 1.537718 1_555
B10 O18 1.445782 1_555
B10 O42 1.459329 1_555
B10 O71 1.462644 1_555
B10 O2 1.537718 1_555
B11 O19 1.445782 1_555
B11 O43 1.459329 1_555
B11 O68 1.462644 1_555
B11 O1 1.537718 1_555
B12 O20 1.445782 1_555
B12 O44 1.459329 1_555
B12 O62 1.462644 1_555
B12 O4 1.537718 1_555
B13 O21 1.445782 1_555
B13 O45 1.459329 1_555
B13 O61 1.462644 1_555
B13 O5 1.537718 1_555
B14 O22 1.445782 1_555
B14 O46 1.459329 1_555
B14 O63 1.462644 1_555
B14 O6 1.537718 1_555
B15 O23 1.445782 1_555
B15 O47 1.459329 1_555
B15 O60 1.462644 1_555
B15 O7 1.537718 1_555
B16 O24 1.445782 1_555
B16 O48 1.459329 1_555
B16 O66 1.462644 1_555
B16 O5 1.537718 1_555
B17 O25 1.445782 1_555
B17 O49 1.459329 1_555
B17 O65 1.462644 1_555
B17 O7 1.537718 1_555
B18 O26 1.445782 1_555
B18 O50 1.459329 1_555
B18 O67 1.462644 1_555
B18 O6 1.537718 1_555
B19 O27 1.445782 1_555
B19 O51 1.459329 1_555
B19 O64 1.462644 1_555
B19 O4 1.537718 1_555
B20 O28 1.445782 1_555
B20 O52 1.459329 1_555
B20 O58 1.462644 1_555
B20 O7 1.537718 1_555
B21 O29 1.445782 1_555
B21 O53 1.459329 1_555
B21 O57 1.462644 1_555
B21 O4 1.537718 1_555
B22 O30 1.445782 1_555
B22 O54 1.459329 1_555
B22 O59 1.462644 1_555
B22 O6 1.537718 1_555
B23 O31 1.445782 1_555
B23 O55 1.459329 1_555
B23 O56 1.462644 1_555
B23 O5 1.537718 1_555
B24 O15 1.361483 1_554
B24 O56 1.372507 1_555
B24 O32 1.391561 1_554
B25 O12 1.361483 1_555
B25 O57 1.372507 1_555
B25 O33 1.391561 1_555
B26 O14 1.361483 1_555
B26 O58 1.372507 1_555
B26 O34 1.391561 1_555
B27 O13 1.361483 1_556
B27 O59 1.372507 1_555
B27 O35 1.391561 1_556
B28 O19 1.361483 1_455
B28 O60 1.372507 1_555
B28 O36 1.391561 1_455
B29 O16 1.361483 1_555
B29 O61 1.372507 1_555
B29 O37 1.391561 1_555
B30 O18 1.361483 1_555
B30 O62 1.372507 1_555
B30 O38 1.391561 1_555
B31 O17 1.361483 1_655
B31 O63 1.372507 1_555
B31 O39 1.391561 1_655
B32 O11 1.361483 1_545
B32 O64 1.372507 1_555
B32 O40 1.391561 1_545
B33 O8 1.361483 1_555
B33 O65 1.372507 1_555
B33 O41 1.391561 1_555
B34 O10 1.361483 1_555
B34 O66 1.372507 1_555
B34 O42 1.391561 1_555
B35 O9 1.361483 1_565
B35 O67 1.372507 1_555
B35 O43 1.391561 1_565
B36 O27 1.361483 1_556
B36 O68 1.372507 1_555
B36 O44 1.391561 1_556
B37 O24 1.361483 1_555
B37 O69 1.372507 1_555
B37 O45 1.391561 1_555
B38 O26 1.361483 1_555
B38 O70 1.372507 1_555
B38 O46 1.391561 1_555
B39 O25 1.361483 1_554
B39 O71 1.372507 1_555
B39 O47 1.391561 1_554
B40 O31 1.361483 1_655
B40 O72 1.372507 1_555
B40 O48 1.391561 1_655
B41 O28 1.361483 1_555
B41 O73 1.372507 1_555
B41 O49 1.391561 1_555
B42 O30 1.361483 1_555
B42 O74 1.372507 1_555
B42 O50 1.391561 1_555
B43 O29 1.361483 1_455
B43 O75 1.372507 1_555
B43 O51 1.391561 1_455
B44 O23 1.361483 1_565
B44 O76 1.372507 1_555
B44 O52 1.391561 1_565
B45 O20 1.361483 1_555
B45 O77 1.372507 1_555
B45 O53 1.391561 1_555
B46 O22 1.361483 1_555
B46 O78 1.372507 1_555
B46 O54 1.391561 1_555
B47 O21 1.361483 1_545
B47 O79 1.372507 1_555
B47 O55 1.391561 1_545
N4 Na0 3.120057 1_555
N4 Na4 3.120057 1_554
N5 Na1 3.120057 1_555
N5 Na5 3.120057 1_545
N6 Na2 3.120057 1_555
N6 Na6 3.120057 1_455
N7 Na3 3.120057 1_444
N7 Na7 3.120057 1_555
