# generated using pymatgen
data_B4N2O11
_symmetry_space_group_name_H-M   'P 1'
_cell_length_a   10.13251600
_cell_length_b   7.85012800
_cell_length_c   8.16383027
_cell_angle_alpha   74.73871850
_cell_angle_beta   90.00000000
_cell_angle_gamma   90.00000000
_symmetry_Int_Tables_number   1
_chemical_formula_structural   B4N2O11
_chemical_formula_sum   'B8 N4 O22'
_cell_volume   626.46421748
_cell_formula_units_Z   2
loop_
 _symmetry_equiv_pos_site_id
 _symmetry_equiv_pos_as_xyz
  1  'x, y, z'
loop_
 _atom_site_type_symbol
 _atom_site_label
 _atom_site_symmetry_multiplicity
 _atom_site_fract_x
 _atom_site_fract_y
 _atom_site_fract_z
 _atom_site_occupancy
  B  B0  1  0.71225200  0.92590000  0.87385800  1
  B  B1  1  0.21225200  0.07410000  0.12614200  1
  B  B2  1  0.85682100  0.66226300  0.65654300  1
  B  B3  1  0.35682100  0.33773700  0.34345700  1
  B  B4  1  0.71249300  0.59376700  0.92082200  1
  B  B5  1  0.21249300  0.40623300  0.07917800  1
  B  B6  1  0.70733400  0.93054900  0.56082600  1
  B  B7  1  0.20733400  0.06945100  0.43917400  1
  N  N0  1  0.96083100  0.76051900  0.22407600  1
  N  N1  1  0.46083100  0.23948100  0.77592400  1
  N  N2  1  0.87665000  0.12474600  0.93678200  1
  N  N3  1  0.37665000  0.87525400  0.06321800  1
  O  O0  1  0.74472800  0.04922800  0.96746100  1
  O  O1  1  0.24472800  0.95077200  0.03253900  1
  O  O2  1  0.97924700  0.61309800  0.61593800  1
  O  O3  1  0.47924700  0.38690200  0.38406200  1
  O  O4  1  0.63486500  0.45864300  0.00797000  1
  O  O5  1  0.13486500  0.54135700  0.99203000  1
  O  O6  1  0.63342200  0.00569800  0.42155000  1
  O  O7  1  0.13342200  0.99430200  0.57845000  1
  O  O8  1  0.94336200  0.06120100  0.84883500  1
  O  O9  1  0.44336200  0.93879900  0.15116500  1
  O  O10  1  0.70352300  0.75281300  0.96280900  1
  O  O11  1  0.20352300  0.24718700  0.03719100  1
  O  O12  1  0.68953400  0.98929700  0.70412200  1
  O  O13  1  0.18953400  0.01070300  0.29587800  1
  O  O14  1  0.79811500  0.56144800  0.80206600  1
  O  O15  1  0.29811500  0.43855200  0.19793400  1
  O  O16  1  0.79893100  0.80584800  0.54634400  1
  O  O17  1  0.29893100  0.19415200  0.45365600  1
  O  O18  1  0.79395700  0.39253100  0.37978800  1
  O  O19  1  0.29395700  0.60746900  0.62021200  1
  O  O20  1  0.89923500  0.31554800  0.37977100  1
  O  O21  1  0.39923500  0.68445200  0.62022900  1
loop_
_geom_bond_atom_site_label_1
_geom_bond_atom_site_label_2
_geom_bond_distance
_geom_bond_site_symmetry_2
B0 O12 1.363001 1_555
B0 O10 1.364527 1_555
B0 O0 1.420911 1_565
B1 O13 1.363001 1_555
B1 O11 1.364527 1_555
B1 O1 1.420911 1_545
B2 O2 1.365649 1_555
B2 O16 1.374803 1_555
B2 O14 1.377171 1_555
B3 O3 1.365649 1_555
B3 O17 1.374803 1_555
B3 O15 1.377171 1_555
B4 O4 1.361155 1_556
B4 O14 1.373487 1_555
B4 O10 1.381986 1_555
B5 O5 1.361155 1_554
B5 O15 1.373487 1_555
B5 O11 1.381986 1_555
B6 O6 1.359632 1_565
B6 O16 1.376435 1_555
B6 O12 1.377596 1_555
B7 O7 1.359632 1_545
B7 O17 1.376435 1_555
B7 O13 1.377596 1_555
N2 O8 1.187354 1_555
N2 O0 1.456976 1_555
N3 O9 1.187354 1_555
N3 O1 1.456976 1_555
O18 O20 1.226038 1_555
O19 O21 1.226038 1_555
