# generated using pymatgen
data_Ba3Nb2CdO9
_symmetry_space_group_name_H-M   'P 1'
_cell_length_a   5.97633035
_cell_length_b   5.97633035
_cell_length_c   7.37927600
_cell_angle_alpha   90.00000000
_cell_angle_beta   90.00000000
_cell_angle_gamma   120.00000382
_symmetry_Int_Tables_number   1
_chemical_formula_structural   Ba3Nb2CdO9
_chemical_formula_sum   'Ba3 Nb2 Cd1 O9'
_cell_volume   228.25145773
_cell_formula_units_Z   1
loop_
 _symmetry_equiv_pos_site_id
 _symmetry_equiv_pos_as_xyz
  1  'x, y, z'
loop_
 _atom_site_type_symbol
 _atom_site_label
 _atom_site_symmetry_multiplicity
 _atom_site_fract_x
 _atom_site_fract_y
 _atom_site_fract_z
 _atom_site_occupancy
  Ba  Ba0  1  0.00000000  0.00000000  0.00000000  1
  Ba  Ba1  1  0.33333300  0.66666700  0.66842200  1
  Ba  Ba2  1  0.66666700  0.33333300  0.33157800  1
  Nb  Nb0  1  0.33333300  0.66666700  0.16989600  1
  Nb  Nb1  1  0.66666700  0.33333300  0.83010400  1
  Cd  Cd0  1  0.00000000  0.00000000  0.50000000  1
  O  O0  1  0.17613500  0.82386500  0.31398500  1
  O  O1  1  0.82386500  0.17613500  0.68601500  1
  O  O2  1  0.17613500  0.35227000  0.31398500  1
  O  O3  1  0.82386500  0.64773000  0.68601500  1
  O  O4  1  0.64773000  0.82386500  0.31398500  1
  O  O5  1  0.35227000  0.17613500  0.68601500  1
  O  O6  1  0.50000000  0.00000000  0.00000000  1
  O  O7  1  0.00000000  0.50000000  0.00000000  1
  O  O8  1  0.50000000  0.50000000  0.00000000  1
loop_
_geom_bond_atom_site_label_1
_geom_bond_atom_site_label_2
_geom_bond_distance
_geom_bond_site_symmetry_2
Ba0 O3 2.948315 1_444
Ba0 O5 2.948315 1_554
Ba0 O2 2.948315 1_555
Ba0 O4 2.948315 1_445
Ba0 O0 2.948316 1_545
Ba0 O1 2.948316 1_454
Ba0 O8 2.988165 1_555
Ba0 O8 2.988165 1_445
Ba0 O7 2.988165 1_555
Ba0 O7 2.988165 1_545
Ba0 O6 2.988165 1_455
Ba0 O6 2.988165 1_555
Ba1 O5 2.992586 1_565
Ba1 O3 2.992586 1_455
Ba1 O1 2.992589 1_565
Ba1 O1 2.992589 1_455
Ba1 O5 2.992592 1_555
Ba1 O3 2.992592 1_555
Ba1 O6 2.993865 1_566
Ba1 O7 2.993865 1_556
Ba1 O8 2.993868 1_556
Ba1 O0 3.080353 1_555
Ba1 O2 3.080356 1_555
Ba1 O4 3.080356 1_555
Ba2 O2 2.992586 1_655
Ba2 O4 2.992586 1_545
Ba2 O0 2.992589 1_655
Ba2 O0 2.992589 1_545
Ba2 O4 2.992592 1_555
Ba2 O2 2.992592 1_555
Ba2 O7 2.993865 1_655
Ba2 O6 2.993865 1_555
Ba2 O8 2.993868 1_555
Ba2 O1 3.080353 1_555
Ba2 O5 3.080356 1_555
Ba2 O3 3.080356 1_555
Nb0 O0 1.943796 1_555
Nb0 O2 1.943801 1_555
Nb0 O4 1.943801 1_555
Nb0 O6 2.132641 1_565
Nb0 O7 2.132641 1_555
Nb0 O8 2.132645 1_555
Nb1 O1 1.943796 1_555
Nb1 O5 1.943801 1_555
Nb1 O3 1.943801 1_555
Nb1 O7 2.132641 1_656
Nb1 O6 2.132641 1_556
Nb1 O8 2.132645 1_556
Cd0 O4 2.282179 1_445
Cd0 O3 2.282179 1_445
Cd0 O5 2.282179 1_555
Cd0 O2 2.282179 1_555
Cd0 O0 2.282180 1_545
Cd0 O1 2.282180 1_455
