# generated using pymatgen
data_Tm5(In2Pt)2
_symmetry_space_group_name_H-M   'P 1'
_cell_length_a   7.13337186
_cell_length_b   15.98106414
_cell_length_c   35.96114900
_cell_angle_alpha   90.00000000
_cell_angle_beta   90.00000000
_cell_angle_gamma   90.00000000
_symmetry_Int_Tables_number   1
_chemical_formula_structural   Tm5(In2Pt)2
_chemical_formula_sum   'Tm80 In64 Pt32'
_cell_volume   4099.53046602
_cell_formula_units_Z   16
loop_
 _symmetry_equiv_pos_site_id
 _symmetry_equiv_pos_as_xyz
  1  'x, y, z'
loop_
 _atom_site_type_symbol
 _atom_site_label
 _atom_site_symmetry_multiplicity
 _atom_site_fract_x
 _atom_site_fract_y
 _atom_site_fract_z
 _atom_site_occupancy
  Tm  Tm0_0  1  0.00000000  0.05793467  0.20783338  1
  Tm  Tm0_1  1  0.00000000  0.05793467  0.70783338  1
  Tm  Tm0_2  1  0.00000000  0.55793468  0.20783338  1
  Tm  Tm0_3  1  0.00000000  0.55793468  0.70783338  1
  Tm  Tm0_4  1  0.50000000  0.05793467  0.20783338  1
  Tm  Tm0_5  1  0.50000000  0.05793467  0.70783338  1
  Tm  Tm0_6  1  0.50000000  0.55793468  0.20783338  1
  Tm  Tm0_7  1  0.50000000  0.55793468  0.70783338  1
  Tm  Tm1_0  1  0.00000000  0.44206533  0.29216662  1
  Tm  Tm1_1  1  0.00000000  0.44206533  0.79216662  1
  Tm  Tm1_2  1  0.00000000  0.94206533  0.29216662  1
  Tm  Tm1_3  1  0.00000000  0.94206533  0.79216662  1
  Tm  Tm1_4  1  0.50000000  0.44206533  0.29216662  1
  Tm  Tm1_5  1  0.50000000  0.44206533  0.79216662  1
  Tm  Tm1_6  1  0.50000000  0.94206533  0.29216662  1
  Tm  Tm1_7  1  0.50000000  0.94206533  0.79216662  1
  Tm  Tm2_0  1  0.00000000  0.19206533  0.45783338  1
  Tm  Tm2_1  1  0.00000000  0.19206533  0.95783338  1
  Tm  Tm2_2  1  0.00000000  0.69206533  0.45783338  1
  Tm  Tm2_3  1  0.00000000  0.69206533  0.95783338  1
  Tm  Tm2_4  1  0.50000000  0.19206533  0.45783338  1
  Tm  Tm2_5  1  0.50000000  0.19206533  0.95783338  1
  Tm  Tm2_6  1  0.50000000  0.69206533  0.45783338  1
  Tm  Tm2_7  1  0.50000000  0.69206533  0.95783338  1
  Tm  Tm3_0  1  0.00000000  0.30793468  0.04216662  1
  Tm  Tm3_1  1  0.00000000  0.30793468  0.54216662  1
  Tm  Tm3_2  1  0.00000000  0.80793468  0.04216662  1
  Tm  Tm3_3  1  0.00000000  0.80793468  0.54216662  1
  Tm  Tm3_4  1  0.50000000  0.30793468  0.04216662  1
  Tm  Tm3_5  1  0.50000000  0.30793468  0.54216662  1
  Tm  Tm3_6  1  0.50000000  0.80793468  0.04216662  1
  Tm  Tm3_7  1  0.50000000  0.80793468  0.54216662  1
  Tm  Tm4_0  1  0.00000000  0.12202237  0.11023802  1
  Tm  Tm4_1  1  0.00000000  0.12202237  0.61023802  1
  Tm  Tm4_2  1  0.00000000  0.62202237  0.11023802  1
  Tm  Tm4_3  1  0.00000000  0.62202237  0.61023802  1
  Tm  Tm4_4  1  0.50000000  0.12202237  0.11023802  1
  Tm  Tm4_5  1  0.50000000  0.12202237  0.61023802  1
  Tm  Tm4_6  1  0.50000000  0.62202237  0.11023802  1
  Tm  Tm4_7  1  0.50000000  0.62202237  0.61023802  1
  Tm  Tm5_0  1  0.00000000  0.37797764  0.38976198  1
  Tm  Tm5_1  1  0.00000000  0.37797764  0.88976198  1
  Tm  Tm5_2  1  0.00000000  0.87797764  0.38976198  1
  Tm  Tm5_3  1  0.00000000  0.87797764  0.88976198  1
  Tm  Tm5_4  1  0.50000000  0.37797764  0.38976198  1
  Tm  Tm5_5  1  0.50000000  0.37797764  0.88976198  1
  Tm  Tm5_6  1  0.50000000  0.87797764  0.38976198  1
  Tm  Tm5_7  1  0.50000000  0.87797764  0.88976198  1
  Tm  Tm6_0  1  0.00000000  0.12797764  0.36023802  1
  Tm  Tm6_1  1  0.00000000  0.12797764  0.86023802  1
  Tm  Tm6_2  1  0.00000000  0.62797764  0.36023802  1
  Tm  Tm6_3  1  0.00000000  0.62797764  0.86023802  1
  Tm  Tm6_4  1  0.50000000  0.12797764  0.36023802  1
  Tm  Tm6_5  1  0.50000000  0.12797764  0.86023802  1
  Tm  Tm6_6  1  0.50000000  0.62797764  0.36023802  1
  Tm  Tm6_7  1  0.50000000  0.62797764  0.86023802  1
  Tm  Tm7_0  1  0.00000000  0.37202237  0.13976198  1
  Tm  Tm7_1  1  0.00000000  0.37202237  0.63976198  1
  Tm  Tm7_2  1  0.00000000  0.87202236  0.13976198  1
  Tm  Tm7_3  1  0.00000000  0.87202236  0.63976198  1
  Tm  Tm7_4  1  0.50000000  0.37202237  0.13976198  1
  Tm  Tm7_5  1  0.50000000  0.37202237  0.63976198  1
  Tm  Tm7_6  1  0.50000000  0.87202236  0.13976198  1
  Tm  Tm7_7  1  0.50000000  0.87202236  0.63976198  1
  Tm  Tm8_0  1  0.00000000  0.00000000  0.00000000  1
  Tm  Tm8_1  1  0.00000000  0.00000000  0.50000000  1
  Tm  Tm8_2  1  0.00000000  0.50000000  0.00000000  1
  Tm  Tm8_3  1  0.00000000  0.50000000  0.50000000  1
  Tm  Tm8_4  1  0.50000000  0.00000000  0.00000000  1
  Tm  Tm8_5  1  0.50000000  0.00000000  0.50000000  1
  Tm  Tm8_6  1  0.50000000  0.50000000  0.00000000  1
  Tm  Tm8_7  1  0.50000000  0.50000000  0.50000000  1
  Tm  Tm9_0  1  0.00000000  0.25000000  0.25000000  1
  Tm  Tm9_1  1  0.00000000  0.25000000  0.75000000  1
  Tm  Tm9_2  1  0.00000000  0.75000000  0.25000000  1
  Tm  Tm9_3  1  0.00000000  0.75000000  0.75000000  1
  Tm  Tm9_4  1  0.50000000  0.25000000  0.25000000  1
  Tm  Tm9_5  1  0.50000000  0.25000000  0.75000000  1
  Tm  Tm9_6  1  0.50000000  0.75000000  0.25000000  1
  Tm  Tm9_7  1  0.50000000  0.75000000  0.75000000  1
  In  In0_0  1  0.25000000  0.21193487  0.17587683  1
  In  In0_1  1  0.25000000  0.21193487  0.67587683  1
  In  In0_2  1  0.25000000  0.71193487  0.17587683  1
  In  In0_3  1  0.25000000  0.71193487  0.67587683  1
  In  In0_4  1  0.75000000  0.21193487  0.17587683  1
  In  In0_5  1  0.75000000  0.21193487  0.67587683  1
  In  In0_6  1  0.75000000  0.71193487  0.17587683  1
  In  In0_7  1  0.75000000  0.71193487  0.67587683  1
  In  In1_0  1  0.25000000  0.28806514  0.32412317  1
  In  In1_1  1  0.25000000  0.28806514  0.82412317  1
  In  In1_2  1  0.25000000  0.78806514  0.32412317  1
  In  In1_3  1  0.25000000  0.78806514  0.82412317  1
  In  In1_4  1  0.75000000  0.28806514  0.32412317  1
  In  In1_5  1  0.75000000  0.28806514  0.82412317  1
  In  In1_6  1  0.75000000  0.78806514  0.32412317  1
  In  In1_7  1  0.75000000  0.78806514  0.82412317  1
  In  In2_0  1  0.25000000  0.03806513  0.42587683  1
  In  In2_1  1  0.25000000  0.03806513  0.92587683  1
  In  In2_2  1  0.25000000  0.53806514  0.42587683  1
  In  In2_3  1  0.25000000  0.53806514  0.92587683  1
  In  In2_4  1  0.75000000  0.03806513  0.42587683  1
  In  In2_5  1  0.75000000  0.03806513  0.92587683  1
  In  In2_6  1  0.75000000  0.53806514  0.42587683  1
  In  In2_7  1  0.75000000  0.53806514  0.92587683  1
  In  In3_0  1  0.25000000  0.46193487  0.07412317  1
  In  In3_1  1  0.25000000  0.46193487  0.57412317  1
  In  In3_2  1  0.25000000  0.96193487  0.07412317  1
  In  In3_3  1  0.25000000  0.96193487  0.57412317  1
  In  In3_4  1  0.75000000  0.46193487  0.07412317  1
  In  In3_5  1  0.75000000  0.46193487  0.57412317  1
  In  In3_6  1  0.75000000  0.96193487  0.07412317  1
  In  In3_7  1  0.75000000  0.96193487  0.57412317  1
  In  In4_0  1  0.25000000  0.14520845  0.03358979  1
  In  In4_1  1  0.25000000  0.14520845  0.53358979  1
  In  In4_2  1  0.25000000  0.64520845  0.03358979  1
  In  In4_3  1  0.25000000  0.64520845  0.53358979  1
  In  In4_4  1  0.75000000  0.14520845  0.03358979  1
  In  In4_5  1  0.75000000  0.14520845  0.53358979  1
  In  In4_6  1  0.75000000  0.64520845  0.03358979  1
  In  In4_7  1  0.75000000  0.64520845  0.53358979  1
  In  In5_0  1  0.25000000  0.35479156  0.46641021  1
  In  In5_1  1  0.25000000  0.35479156  0.96641020  1
  In  In5_2  1  0.25000000  0.85479155  0.46641021  1
  In  In5_3  1  0.25000000  0.85479155  0.96641020  1
  In  In5_4  1  0.75000000  0.35479156  0.46641021  1
  In  In5_5  1  0.75000000  0.35479156  0.96641020  1
  In  In5_6  1  0.75000000  0.85479155  0.46641021  1
  In  In5_7  1  0.75000000  0.85479155  0.96641020  1
  In  In6_0  1  0.25000000  0.10479156  0.28358980  1
  In  In6_1  1  0.25000000  0.10479156  0.78358980  1
  In  In6_2  1  0.25000000  0.60479156  0.28358980  1
  In  In6_3  1  0.25000000  0.60479156  0.78358980  1
  In  In6_4  1  0.75000000  0.10479156  0.28358980  1
  In  In6_5  1  0.75000000  0.10479156  0.78358980  1
  In  In6_6  1  0.75000000  0.60479156  0.28358980  1
  In  In6_7  1  0.75000000  0.60479156  0.78358980  1
  In  In7_0  1  0.25000000  0.39520845  0.21641020  1
  In  In7_1  1  0.25000000  0.39520845  0.71641020  1
  In  In7_2  1  0.25000000  0.89520845  0.21641020  1
  In  In7_3  1  0.25000000  0.89520845  0.71641020  1
  In  In7_4  1  0.75000000  0.39520845  0.21641020  1
  In  In7_5  1  0.75000000  0.39520845  0.71641020  1
  In  In7_6  1  0.75000000  0.89520845  0.21641020  1
  In  In7_7  1  0.75000000  0.89520845  0.71641020  1
  Pt  Pt0_0  1  0.25000000  0.01394057  0.15190744  1
  Pt  Pt0_1  1  0.25000000  0.01394057  0.65190744  1
  Pt  Pt0_2  1  0.25000000  0.51394057  0.15190744  1
  Pt  Pt0_3  1  0.25000000  0.51394057  0.65190744  1
  Pt  Pt0_4  1  0.75000000  0.01394057  0.15190744  1
  Pt  Pt0_5  1  0.75000000  0.01394057  0.65190744  1
  Pt  Pt0_6  1  0.75000000  0.51394057  0.15190744  1
  Pt  Pt0_7  1  0.75000000  0.51394057  0.65190744  1
  Pt  Pt1_0  1  0.25000000  0.48605943  0.34809256  1
  Pt  Pt1_1  1  0.25000000  0.48605943  0.84809256  1
  Pt  Pt1_2  1  0.25000000  0.98605944  0.34809256  1
  Pt  Pt1_3  1  0.25000000  0.98605944  0.84809256  1
  Pt  Pt1_4  1  0.75000000  0.48605943  0.34809256  1
  Pt  Pt1_5  1  0.75000000  0.48605943  0.84809256  1
  Pt  Pt1_6  1  0.75000000  0.98605944  0.34809256  1
  Pt  Pt1_7  1  0.75000000  0.98605944  0.84809256  1
  Pt  Pt2_0  1  0.25000000  0.23605944  0.40190744  1
  Pt  Pt2_1  1  0.25000000  0.23605944  0.90190743  1
  Pt  Pt2_2  1  0.25000000  0.73605944  0.40190744  1
  Pt  Pt2_3  1  0.25000000  0.73605944  0.90190743  1
  Pt  Pt2_4  1  0.75000000  0.23605944  0.40190744  1
  Pt  Pt2_5  1  0.75000000  0.23605944  0.90190743  1
  Pt  Pt2_6  1  0.75000000  0.73605944  0.40190744  1
  Pt  Pt2_7  1  0.75000000  0.73605944  0.90190743  1
  Pt  Pt3_0  1  0.25000000  0.26394057  0.09809257  1
  Pt  Pt3_1  1  0.25000000  0.26394057  0.59809257  1
  Pt  Pt3_2  1  0.25000000  0.76394057  0.09809257  1
  Pt  Pt3_3  1  0.25000000  0.76394057  0.59809257  1
  Pt  Pt3_4  1  0.75000000  0.26394057  0.09809257  1
  Pt  Pt3_5  1  0.75000000  0.26394057  0.59809257  1
  Pt  Pt3_6  1  0.75000000  0.76394057  0.09809257  1
  Pt  Pt3_7  1  0.75000000  0.76394057  0.59809257  1
loop_
_geom_bond_atom_site_label_1
_geom_bond_atom_site_label_2
_geom_bond_distance
_geom_bond_site_symmetry_2
Tm0_0 Tm9_0 3.423538 1_555
Tm0_1 Tm9_1 3.423538 1_555
Tm0_2 Tm9_2 3.423538 1_555
Tm0_3 Tm9_3 3.423538 1_555
Tm0_4 Tm9_4 3.423538 1_555
Tm0_5 Tm9_5 3.423538 1_555
Tm0_6 Tm9_6 3.423538 1_555
Tm0_7 Tm9_7 3.423538 1_555
Tm1_0 Tm9_0 3.423538 1_555
Tm1_1 Tm9_1 3.423538 1_555
Tm1_2 Tm9_2 3.423538 1_555
Tm1_3 Tm9_3 3.423538 1_555
Tm1_4 Tm9_4 3.423538 1_555
Tm1_5 Tm9_5 3.423538 1_555
Tm1_6 Tm9_6 3.423538 1_555
Tm1_7 Tm9_7 3.423538 1_555
Tm2_0 Tm8_1 3.423538 1_555
Tm2_1 Tm8_0 3.423538 1_556
Tm2_2 Tm8_3 3.423538 1_555
Tm2_3 Tm8_2 3.423538 1_556
Tm2_4 Tm8_5 3.423538 1_555
Tm2_5 Tm8_4 3.423538 1_556
Tm2_6 Tm8_7 3.423538 1_555
Tm2_7 Tm8_6 3.423538 1_556
Tm3_0 Tm8_2 3.423538 1_555
Tm3_1 Tm8_3 3.423538 1_555
Tm3_2 Tm8_0 3.423538 1_565
Tm3_3 Tm8_1 3.423538 1_565
Tm3_4 Tm8_6 3.423538 1_555
Tm3_5 Tm8_7 3.423538 1_555
Tm3_6 Tm8_4 3.423538 1_565
Tm3_7 Tm8_5 3.423538 1_565
Tm8_0 Tm8_4 3.566686 1_455
Tm8_0 Tm8_4 3.566686 1_555
Tm8_1 Tm8_5 3.566686 1_555
Tm8_1 Tm8_5 3.566686 1_455
Tm8_2 Tm8_6 3.566686 1_555
Tm8_2 Tm8_6 3.566686 1_455
Tm8_3 Tm8_7 3.566686 1_455
Tm8_3 Tm8_7 3.566686 1_555
Tm9_0 Tm9_4 3.566686 1_555
Tm9_0 Tm9_4 3.566686 1_455
Tm9_1 Tm9_5 3.566686 1_555
Tm9_1 Tm9_5 3.566686 1_455
Tm9_2 Tm9_6 3.566686 1_555
Tm9_2 Tm9_6 3.566686 1_455
Tm9_3 Tm9_7 3.566686 1_455
Tm9_3 Tm9_7 3.566686 1_555
In0_0 Pt3_0 2.918070 1_555
In0_0 Tm0_4 3.249294 1_555
In0_0 Tm0_0 3.249294 1_555
In0_0 Tm9_0 3.264284 1_555
In0_0 Tm9_4 3.264284 1_555
In0_0 In7_0 3.271570 1_555
In0_0 Pt0_0 3.279465 1_555
In0_0 Tm4_0 3.288875 1_555
In0_0 Tm4_4 3.288875 1_555
In0_0 Tm7_0 3.378204 1_555
In0_0 Tm7_4 3.378204 1_555
In0_1 Pt3_1 2.918070 1_555
In0_1 Tm0_1 3.249294 1_555
In0_1 Tm0_5 3.249294 1_555
In0_1 Tm9_1 3.264284 1_555
In0_1 Tm9_5 3.264284 1_555
In0_1 In7_1 3.271570 1_555
In0_1 Pt0_1 3.279465 1_555
In0_1 Tm4_1 3.288875 1_555
In0_1 Tm4_5 3.288875 1_555
In0_1 Tm7_1 3.378204 1_555
In0_1 Tm7_5 3.378204 1_555
In0_2 Pt3_2 2.918070 1_555
In0_2 Tm0_2 3.249294 1_555
In0_2 Tm0_6 3.249294 1_555
In0_2 Tm9_6 3.264284 1_555
In0_2 Tm9_2 3.264284 1_555
In0_2 In7_2 3.271570 1_555
In0_2 Pt0_2 3.279465 1_555
In0_2 Tm4_2 3.288875 1_555
In0_2 Tm4_6 3.288875 1_555
In0_2 Tm7_6 3.378204 1_555
In0_2 Tm7_2 3.378204 1_555
In0_3 Pt3_3 2.918070 1_555
In0_3 Tm0_3 3.249294 1_555
In0_3 Tm0_7 3.249294 1_555
In0_3 Tm9_3 3.264284 1_555
In0_3 Tm9_7 3.264284 1_555
In0_3 In7_3 3.271570 1_555
In0_3 Pt0_3 3.279465 1_555
In0_3 Tm4_3 3.288875 1_555
In0_3 Tm4_7 3.288875 1_555
In0_3 Tm7_3 3.378204 1_555
In0_3 Tm7_7 3.378204 1_555
In0_4 Pt3_4 2.918070 1_555
In0_4 Tm0_0 3.249294 1_655
In0_4 Tm0_4 3.249294 1_555
In0_4 Tm9_0 3.264284 1_655
In0_4 Tm9_4 3.264284 1_555
In0_4 In7_4 3.271570 1_555
In0_4 Pt0_4 3.279465 1_555
In0_4 Tm4_0 3.288875 1_655
In0_4 Tm4_4 3.288875 1_555
In0_4 Tm7_0 3.378204 1_655
In0_4 Tm7_4 3.378204 1_555
In0_5 Pt3_5 2.918070 1_555
In0_5 Tm0_1 3.249294 1_655
In0_5 Tm0_5 3.249294 1_555
In0_5 Tm9_1 3.264284 1_655
In0_5 Tm9_5 3.264284 1_555
In0_5 In7_5 3.271570 1_555
In0_5 Pt0_5 3.279465 1_555
In0_5 Tm4_1 3.288875 1_655
In0_5 Tm4_5 3.288875 1_555
In0_5 Tm7_1 3.378204 1_655
In0_5 Tm7_5 3.378204 1_555
In0_6 Pt3_6 2.918070 1_555
In0_6 Tm0_2 3.249294 1_655
In0_6 Tm0_6 3.249294 1_555
In0_6 Tm9_2 3.264284 1_655
In0_6 Tm9_6 3.264284 1_555
In0_6 In7_6 3.271570 1_555
In0_6 Pt0_6 3.279465 1_555
In0_6 Tm4_2 3.288875 1_655
In0_6 Tm4_6 3.288875 1_555
In0_6 Tm7_2 3.378204 1_655
In0_6 Tm7_6 3.378204 1_555
In0_7 Pt3_7 2.918070 1_555
In0_7 Tm0_3 3.249294 1_655
In0_7 Tm0_7 3.249294 1_555
In0_7 Tm9_3 3.264284 1_655
In0_7 Tm9_7 3.264284 1_555
In0_7 In7_7 3.271570 1_555
In0_7 Pt0_7 3.279465 1_555
In0_7 Tm4_3 3.288875 1_655
In0_7 Tm4_7 3.288875 1_555
In0_7 Tm7_3 3.378204 1_655
In0_7 Tm7_7 3.378204 1_555
In1_0 Pt2_0 2.918070 1_555
In1_0 Tm1_0 3.249294 1_555
In1_0 Tm1_4 3.249294 1_555
In1_0 Tm9_0 3.264284 1_555
In1_0 Tm9_4 3.264284 1_555
In1_0 In6_0 3.271570 1_555
In1_0 Pt1_0 3.279465 1_555
In1_0 Tm5_0 3.288875 1_555
In1_0 Tm5_4 3.288875 1_555
In1_0 Tm6_0 3.378204 1_555
In1_0 Tm6_4 3.378204 1_555
In1_1 Pt2_1 2.918070 1_555
In1_1 Tm1_5 3.249294 1_555
In1_1 Tm1_1 3.249294 1_555
In1_1 Tm9_5 3.264284 1_555
In1_1 Tm9_1 3.264284 1_555
In1_1 In6_1 3.271570 1_555
In1_1 Pt1_1 3.279465 1_555
In1_1 Tm5_5 3.288875 1_555
In1_1 Tm5_1 3.288875 1_555
In1_1 Tm6_5 3.378204 1_555
In1_1 Tm6_1 3.378204 1_555
In1_2 Pt2_2 2.918070 1_555
In1_2 Tm1_6 3.249294 1_555
In1_2 Tm1_2 3.249294 1_555
In1_2 Tm9_6 3.264284 1_555
In1_2 Tm9_2 3.264284 1_555
In1_2 In6_2 3.271570 1_555
In1_2 Pt1_2 3.279465 1_555
In1_2 Tm5_6 3.288875 1_555
In1_2 Tm5_2 3.288875 1_555
In1_2 Tm6_2 3.378204 1_555
In1_2 Tm6_6 3.378204 1_555
In1_3 Pt2_3 2.918070 1_555
In1_3 Tm1_3 3.249294 1_555
In1_3 Tm1_7 3.249294 1_555
In1_3 Tm9_7 3.264284 1_555
In1_3 Tm9_3 3.264284 1_555
In1_3 In6_3 3.271570 1_555
In1_3 Pt1_3 3.279465 1_555
In1_3 Tm5_7 3.288875 1_555
In1_3 Tm5_3 3.288875 1_555
In1_3 Tm6_7 3.378204 1_555
In1_3 Tm6_3 3.378204 1_555
In1_4 Pt2_4 2.918070 1_555
In1_4 Tm1_0 3.249294 1_655
In1_4 Tm1_4 3.249294 1_555
In1_4 Tm9_0 3.264284 1_655
In1_4 Tm9_4 3.264284 1_555
In1_4 In6_4 3.271570 1_555
In1_4 Pt1_4 3.279465 1_555
In1_4 Tm5_0 3.288875 1_655
In1_4 Tm5_4 3.288875 1_555
In1_4 Tm6_0 3.378204 1_655
In1_4 Tm6_4 3.378204 1_555
In1_5 Pt2_5 2.918070 1_555
In1_5 Tm1_1 3.249294 1_655
In1_5 Tm1_5 3.249294 1_555
In1_5 Tm9_1 3.264284 1_655
In1_5 Tm9_5 3.264284 1_555
In1_5 In6_5 3.271570 1_555
In1_5 Pt1_5 3.279465 1_555
In1_5 Tm5_1 3.288875 1_655
In1_5 Tm5_5 3.288875 1_555
In1_5 Tm6_1 3.378204 1_655
In1_5 Tm6_5 3.378204 1_555
In1_6 Pt2_6 2.918070 1_555
In1_6 Tm1_2 3.249294 1_655
In1_6 Tm1_6 3.249294 1_555
In1_6 Tm9_2 3.264284 1_655
In1_6 Tm9_6 3.264284 1_555
In1_6 In6_6 3.271570 1_555
In1_6 Pt1_6 3.279465 1_555
In1_6 Tm5_2 3.288875 1_655
In1_6 Tm5_6 3.288875 1_555
In1_6 Tm6_2 3.378204 1_655
In1_6 Tm6_6 3.378204 1_555
In1_7 Pt2_7 2.918070 1_555
In1_7 Tm1_3 3.249294 1_655
In1_7 Tm1_7 3.249294 1_555
In1_7 Tm9_3 3.264284 1_655
In1_7 Tm9_7 3.264284 1_555
In1_7 In6_7 3.271570 1_555
In1_7 Pt1_7 3.279465 1_555
In1_7 Tm5_3 3.288875 1_655
In1_7 Tm5_7 3.288875 1_555
In1_7 Tm6_3 3.378204 1_655
In1_7 Tm6_7 3.378204 1_555
In2_0 Pt1_2 2.918070 1_545
In2_0 Tm2_4 3.249294 1_555
In2_0 Tm2_0 3.249294 1_555
In2_0 Tm8_5 3.264284 1_555
In2_0 Tm8_1 3.264284 1_555
In2_0 In5_2 3.271570 1_545
In2_0 Pt2_0 3.279465 1_555
In2_0 Tm6_4 3.288875 1_555
In2_0 Tm6_0 3.288875 1_555
In2_0 Tm5_2 3.378204 1_545
In2_0 Tm5_6 3.378204 1_545
In2_1 Pt1_3 2.918070 1_545
In2_1 Tm2_5 3.249294 1_555
In2_1 Tm2_1 3.249294 1_555
In2_1 Tm8_4 3.264284 1_556
In2_1 Tm8_0 3.264284 1_556
In2_1 In5_3 3.271570 1_545
In2_1 Pt2_1 3.279465 1_555
In2_1 Tm6_1 3.288875 1_555
In2_1 Tm6_5 3.288875 1_555
In2_1 Tm5_3 3.378204 1_545
In2_1 Tm5_7 3.378204 1_545
In2_2 Pt1_0 2.918070 1_555
In2_2 Tm2_2 3.249294 1_555
In2_2 Tm2_6 3.249294 1_555
In2_2 Tm8_3 3.264284 1_555
In2_2 Tm8_7 3.264284 1_555
In2_2 In5_0 3.271570 1_555
In2_2 Pt2_2 3.279465 1_555
In2_2 Tm6_2 3.288875 1_555
In2_2 Tm6_6 3.288875 1_555
In2_2 Tm5_0 3.378204 1_555
In2_2 Tm5_4 3.378204 1_555
In2_3 Pt1_1 2.918070 1_555
In2_3 Tm2_7 3.249294 1_555
In2_3 Tm2_3 3.249294 1_555
In2_3 Tm8_2 3.264284 1_556
In2_3 Tm8_6 3.264284 1_556
In2_3 In5_1 3.271570 1_555
In2_3 Pt2_3 3.279465 1_555
In2_3 Tm6_7 3.288875 1_555
In2_3 Tm6_3 3.288875 1_555
In2_3 Tm5_1 3.378204 1_555
In2_3 Tm5_5 3.378204 1_555
In2_4 Pt1_6 2.918070 1_545
In2_4 Tm2_0 3.249294 1_655
In2_4 Tm2_4 3.249294 1_555
In2_4 Tm8_1 3.264284 1_655
In2_4 Tm8_5 3.264284 1_555
In2_4 In5_6 3.271570 1_545
In2_4 Pt2_4 3.279465 1_555
In2_4 Tm6_0 3.288875 1_655
In2_4 Tm6_4 3.288875 1_555
In2_4 Tm5_2 3.378204 1_645
In2_4 Tm5_6 3.378204 1_545
In2_5 Pt1_7 2.918070 1_545
In2_5 Tm2_1 3.249294 1_655
In2_5 Tm2_5 3.249294 1_555
In2_5 Tm8_0 3.264284 1_656
In2_5 Tm8_4 3.264284 1_556
In2_5 In5_7 3.271570 1_545
In2_5 Pt2_5 3.279465 1_555
In2_5 Tm6_1 3.288875 1_655
In2_5 Tm6_5 3.288875 1_555
In2_5 Tm5_3 3.378204 1_645
In2_5 Tm5_7 3.378204 1_545
In2_6 Pt1_4 2.918070 1_555
In2_6 Tm2_2 3.249294 1_655
In2_6 Tm2_6 3.249294 1_555
In2_6 Tm8_3 3.264284 1_655
In2_6 Tm8_7 3.264284 1_555
In2_6 In5_4 3.271570 1_555
In2_6 Pt2_6 3.279465 1_555
In2_6 Tm6_2 3.288875 1_655
In2_6 Tm6_6 3.288875 1_555
In2_6 Tm5_0 3.378204 1_655
In2_6 Tm5_4 3.378204 1_555
In2_7 Pt1_5 2.918070 1_555
In2_7 Tm2_3 3.249294 1_655
In2_7 Tm2_7 3.249294 1_555
In2_7 Tm8_2 3.264284 1_656
In2_7 Tm8_6 3.264284 1_556
In2_7 In5_5 3.271570 1_555
In2_7 Pt2_7 3.279465 1_555
In2_7 Tm6_3 3.288875 1_655
In2_7 Tm6_7 3.288875 1_555
In2_7 Tm5_1 3.378204 1_655
In2_7 Tm5_5 3.378204 1_555
In3_0 Pt0_2 2.918070 1_555
In3_0 Tm3_4 3.249294 1_555
In3_0 Tm3_0 3.249294 1_555
In3_0 Tm8_2 3.264284 1_555
In3_0 Tm8_6 3.264284 1_555
In3_0 In4_2 3.271570 1_555
In3_0 Pt3_0 3.279465 1_555
In3_0 Tm7_0 3.288875 1_555
In3_0 Tm7_4 3.288875 1_555
In3_0 Tm4_2 3.378204 1_555
In3_0 Tm4_6 3.378204 1_555
In3_1 Pt0_3 2.918070 1_555
In3_1 Tm3_5 3.249294 1_555
In3_1 Tm3_1 3.249294 1_555
In3_1 Tm8_7 3.264284 1_555
In3_1 Tm8_3 3.264284 1_555
In3_1 In4_3 3.271570 1_555
In3_1 Pt3_1 3.279465 1_555
In3_1 Tm7_1 3.288875 1_555
In3_1 Tm7_5 3.288875 1_555
In3_1 Tm4_3 3.378204 1_555
In3_1 Tm4_7 3.378204 1_555
In3_2 Pt0_0 2.918070 1_565
In3_2 Tm3_2 3.249294 1_555
In3_2 Tm3_6 3.249294 1_555
In3_2 Tm8_4 3.264284 1_565
In3_2 Tm8_0 3.264284 1_565
In3_2 In4_0 3.271570 1_565
In3_2 Pt3_2 3.279465 1_555
In3_2 Tm7_2 3.288875 1_555
In3_2 Tm7_6 3.288875 1_555
In3_2 Tm4_0 3.378204 1_565
In3_2 Tm4_4 3.378204 1_565
In3_3 Pt0_1 2.918070 1_565
In3_3 Tm3_7 3.249294 1_555
In3_3 Tm3_3 3.249294 1_555
In3_3 Tm8_1 3.264284 1_565
In3_3 Tm8_5 3.264284 1_565
In3_3 In4_1 3.271570 1_565
In3_3 Pt3_3 3.279465 1_555
In3_3 Tm7_3 3.288875 1_555
In3_3 Tm7_7 3.288875 1_555
In3_3 Tm4_5 3.378204 1_565
In3_3 Tm4_1 3.378204 1_565
In3_4 Pt0_6 2.918070 1_555
In3_4 Tm3_0 3.249294 1_655
In3_4 Tm3_4 3.249294 1_555
In3_4 Tm8_2 3.264284 1_655
In3_4 Tm8_6 3.264284 1_555
In3_4 In4_6 3.271570 1_555
In3_4 Pt3_4 3.279465 1_555
In3_4 Tm7_0 3.288875 1_655
In3_4 Tm7_4 3.288875 1_555
In3_4 Tm4_2 3.378204 1_655
In3_4 Tm4_6 3.378204 1_555
In3_5 Pt0_7 2.918070 1_555
In3_5 Tm3_1 3.249294 1_655
In3_5 Tm3_5 3.249294 1_555
In3_5 Tm8_3 3.264284 1_655
In3_5 Tm8_7 3.264284 1_555
In3_5 In4_7 3.271570 1_555
In3_5 Pt3_5 3.279465 1_555
In3_5 Tm7_1 3.288875 1_655
In3_5 Tm7_5 3.288875 1_555
In3_5 Tm4_3 3.378204 1_655
In3_5 Tm4_7 3.378204 1_555
In3_6 Pt0_4 2.918070 1_565
In3_6 Tm3_2 3.249294 1_655
In3_6 Tm3_6 3.249294 1_555
In3_6 Tm8_0 3.264284 1_665
In3_6 Tm8_4 3.264284 1_565
In3_6 In4_4 3.271570 1_565
In3_6 Pt3_6 3.279465 1_555
In3_6 Tm7_2 3.288875 1_655
In3_6 Tm7_6 3.288875 1_555
In3_6 Tm4_0 3.378204 1_665
In3_6 Tm4_4 3.378204 1_565
In3_7 Pt0_5 2.918070 1_565
In3_7 Tm3_3 3.249294 1_655
In3_7 Tm3_7 3.249294 1_555
In3_7 Tm8_1 3.264284 1_665
In3_7 Tm8_5 3.264284 1_565
In3_7 In4_5 3.271570 1_565
In3_7 Pt3_7 3.279465 1_555
In3_7 Tm7_3 3.288875 1_655
In3_7 Tm7_7 3.288875 1_555
In3_7 Tm4_1 3.378204 1_665
In3_7 Tm4_5 3.378204 1_565
In4_0 Pt3_0 2.996813 1_555
In4_0 Tm8_0 3.166152 1_555
In4_0 Tm8_4 3.166152 1_555
In4_0 Tm3_4 3.168319 1_555
In4_0 Tm3_0 3.168319 1_555
In4_0 Tm4_0 3.303804 1_555
In4_0 Tm4_4 3.303804 1_555
In4_0 Tm2_5 3.341076 1_554
In4_0 Tm2_1 3.341076 1_554
In4_1 Pt3_1 2.996813 1_555
In4_1 Tm8_1 3.166152 1_555
In4_1 Tm8_5 3.166152 1_555
In4_1 Tm3_5 3.168319 1_555
In4_1 Tm3_1 3.168319 1_555
In4_1 Tm4_1 3.303804 1_555
In4_1 Tm4_5 3.303804 1_555
In4_1 Tm2_4 3.341076 1_555
In4_1 Tm2_0 3.341076 1_555
In4_2 Pt3_2 2.996813 1_555
In4_2 Tm8_2 3.166152 1_555
In4_2 Tm8_6 3.166152 1_555
In4_2 Tm3_2 3.168319 1_555
In4_2 Tm3_6 3.168319 1_555
In4_2 Tm4_6 3.303804 1_555
In4_2 Tm4_2 3.303804 1_555
In4_2 Tm2_3 3.341076 1_554
In4_2 Tm2_7 3.341076 1_554
In4_3 Pt3_3 2.996813 1_555
In4_3 Tm8_7 3.166152 1_555
In4_3 Tm8_3 3.166152 1_555
In4_3 Tm3_7 3.168319 1_555
In4_3 Tm3_3 3.168319 1_555
In4_3 Tm4_3 3.303804 1_555
In4_3 Tm4_7 3.303804 1_555
In4_3 Tm2_2 3.341076 1_555
In4_3 Tm2_6 3.341076 1_555
In4_4 Pt3_4 2.996813 1_555
In4_4 Tm8_0 3.166152 1_655
In4_4 Tm8_4 3.166152 1_555
In4_4 Tm3_0 3.168319 1_655
In4_4 Tm3_4 3.168319 1_555
In4_4 Tm4_0 3.303804 1_655
In4_4 Tm4_4 3.303804 1_555
In4_4 Tm2_1 3.341076 1_654
In4_4 Tm2_5 3.341076 1_554
In4_5 Pt3_5 2.996813 1_555
In4_5 Tm8_1 3.166152 1_655
In4_5 Tm8_5 3.166152 1_555
In4_5 Tm3_1 3.168319 1_655
In4_5 Tm3_5 3.168319 1_555
In4_5 Tm4_1 3.303804 1_655
In4_5 Tm4_5 3.303804 1_555
In4_5 Tm2_0 3.341076 1_655
In4_5 Tm2_4 3.341076 1_555
In4_6 Pt3_6 2.996813 1_555
In4_6 Tm8_2 3.166152 1_655
In4_6 Tm8_6 3.166152 1_555
In4_6 Tm3_2 3.168319 1_655
In4_6 Tm3_6 3.168319 1_555
In4_6 Tm4_2 3.303804 1_655
In4_6 Tm4_6 3.303804 1_555
In4_6 Tm2_3 3.341076 1_654
In4_6 Tm2_7 3.341076 1_554
In4_7 Pt3_7 2.996813 1_555
In4_7 Tm8_3 3.166152 1_655
In4_7 Tm8_7 3.166152 1_555
In4_7 Tm3_3 3.168319 1_655
In4_7 Tm3_7 3.168319 1_555
In4_7 Tm4_3 3.303804 1_655
In4_7 Tm4_7 3.303804 1_555
In4_7 Tm2_2 3.341076 1_655
In4_7 Tm2_6 3.341076 1_555
In5_0 Pt2_0 2.996813 1_555
In5_0 Tm8_7 3.166152 1_555
In5_0 Tm8_3 3.166152 1_555
In5_0 Tm2_4 3.168319 1_555
In5_0 Tm2_0 3.168319 1_555
In5_0 Tm5_0 3.303804 1_555
In5_0 Tm5_4 3.303804 1_555
In5_0 Tm3_5 3.341076 1_555
In5_0 Tm3_1 3.341076 1_555
In5_1 Pt2_1 2.996813 1_555
In5_1 Tm8_2 3.166152 1_556
In5_1 Tm8_6 3.166152 1_556
In5_1 Tm2_1 3.168319 1_555
In5_1 Tm2_5 3.168319 1_555
In5_1 Tm5_1 3.303804 1_555
In5_1 Tm5_5 3.303804 1_555
In5_1 Tm3_4 3.341076 1_556
In5_1 Tm3_0 3.341076 1_556
In5_2 Pt2_2 2.996813 1_555
In5_2 Tm8_1 3.166152 1_565
In5_2 Tm8_5 3.166152 1_565
In5_2 Tm2_2 3.168319 1_555
In5_2 Tm2_6 3.168319 1_555
In5_2 Tm5_2 3.303804 1_555
In5_2 Tm5_6 3.303804 1_555
In5_2 Tm3_7 3.341076 1_555
In5_2 Tm3_3 3.341076 1_555
In5_3 Pt2_3 2.996813 1_555
In5_3 Tm8_0 3.166152 1_566
In5_3 Tm8_4 3.166152 1_566
In5_3 Tm2_7 3.168319 1_555
In5_3 Tm2_3 3.168319 1_555
In5_3 Tm5_3 3.303804 1_555
In5_3 Tm5_7 3.303804 1_555
In5_3 Tm3_6 3.341076 1_556
In5_3 Tm3_2 3.341076 1_556
In5_4 Pt2_4 2.996813 1_555
In5_4 Tm8_3 3.166152 1_655
In5_4 Tm8_7 3.166152 1_555
In5_4 Tm2_0 3.168319 1_655
In5_4 Tm2_4 3.168319 1_555
In5_4 Tm5_0 3.303804 1_655
In5_4 Tm5_4 3.303804 1_555
In5_4 Tm3_1 3.341076 1_655
In5_4 Tm3_5 3.341076 1_555
In5_5 Pt2_5 2.996813 1_555
In5_5 Tm8_2 3.166152 1_656
In5_5 Tm8_6 3.166152 1_556
In5_5 Tm2_1 3.168319 1_655
In5_5 Tm2_5 3.168319 1_555
In5_5 Tm5_1 3.303804 1_655
In5_5 Tm5_5 3.303804 1_555
In5_5 Tm3_0 3.341076 1_656
In5_5 Tm3_4 3.341076 1_556
In5_6 Pt2_6 2.996813 1_555
In5_6 Tm8_1 3.166152 1_665
In5_6 Tm8_5 3.166152 1_565
In5_6 Tm2_2 3.168319 1_655
In5_6 Tm2_6 3.168319 1_555
In5_6 Tm5_2 3.303804 1_655
In5_6 Tm5_6 3.303804 1_555
In5_6 Tm3_3 3.341076 1_655
In5_6 Tm3_7 3.341076 1_555
In5_7 Pt2_7 2.996813 1_555
In5_7 Tm8_0 3.166152 1_666
In5_7 Tm8_4 3.166152 1_566
In5_7 Tm2_3 3.168319 1_655
In5_7 Tm2_7 3.168319 1_555
In5_7 Tm5_3 3.303804 1_655
In5_7 Tm5_7 3.303804 1_555
In5_7 Tm3_2 3.341076 1_656
In5_7 Tm3_6 3.341076 1_556
In6_0 Pt1_2 2.996813 1_545
In6_0 Tm9_0 3.166152 1_555
In6_0 Tm9_4 3.166152 1_555
In6_0 Tm1_6 3.168319 1_545
In6_0 Tm1_2 3.168319 1_545
In6_0 Tm6_0 3.303804 1_555
In6_0 Tm6_4 3.303804 1_555
In6_0 Tm0_4 3.341076 1_555
In6_0 Tm0_0 3.341076 1_555
In6_1 Pt1_3 2.996813 1_545
In6_1 Tm9_5 3.166152 1_555
In6_1 Tm9_1 3.166152 1_555
In6_1 Tm1_3 3.168319 1_545
In6_1 Tm1_7 3.168319 1_545
In6_1 Tm6_5 3.303804 1_555
In6_1 Tm6_1 3.303804 1_555
In6_1 Tm0_5 3.341076 1_555
In6_1 Tm0_1 3.341076 1_555
In6_2 Pt1_0 2.996813 1_555
In6_2 Tm9_6 3.166152 1_555
In6_2 Tm9_2 3.166152 1_555
In6_2 Tm1_0 3.168319 1_555
In6_2 Tm1_4 3.168319 1_555
In6_2 Tm6_2 3.303804 1_555
In6_2 Tm6_6 3.303804 1_555
In6_2 Tm0_6 3.341076 1_555
In6_2 Tm0_2 3.341076 1_555
In6_3 Pt1_1 2.996813 1_555
In6_3 Tm9_7 3.166152 1_555
In6_3 Tm9_3 3.166152 1_555
In6_3 Tm1_5 3.168319 1_555
In6_3 Tm1_1 3.168319 1_555
In6_3 Tm6_3 3.303804 1_555
In6_3 Tm6_7 3.303804 1_555
In6_3 Tm0_7 3.341076 1_555
In6_3 Tm0_3 3.341076 1_555
In6_4 Pt1_6 2.996813 1_545
In6_4 Tm9_0 3.166152 1_655
In6_4 Tm9_4 3.166152 1_555
In6_4 Tm1_2 3.168319 1_645
In6_4 Tm1_6 3.168319 1_545
In6_4 Tm6_0 3.303804 1_655
In6_4 Tm6_4 3.303804 1_555
In6_4 Tm0_0 3.341076 1_655
In6_4 Tm0_4 3.341076 1_555
In6_5 Pt1_7 2.996813 1_545
In6_5 Tm9_1 3.166152 1_655
In6_5 Tm9_5 3.166152 1_555
In6_5 Tm1_3 3.168319 1_645
In6_5 Tm1_7 3.168319 1_545
In6_5 Tm6_1 3.303804 1_655
In6_5 Tm6_5 3.303804 1_555
In6_5 Tm0_1 3.341076 1_655
In6_5 Tm0_5 3.341076 1_555
In6_6 Pt1_4 2.996813 1_555
In6_6 Tm9_2 3.166152 1_655
In6_6 Tm9_6 3.166152 1_555
In6_6 Tm1_0 3.168319 1_655
In6_6 Tm1_4 3.168319 1_555
In6_6 Tm6_2 3.303804 1_655
In6_6 Tm6_6 3.303804 1_555
In6_6 Tm0_2 3.341076 1_655
In6_6 Tm0_6 3.341076 1_555
In6_7 Pt1_5 2.996813 1_555
In6_7 Tm9_3 3.166152 1_655
In6_7 Tm9_7 3.166152 1_555
In6_7 Tm1_1 3.168319 1_655
In6_7 Tm1_5 3.168319 1_555
In6_7 Tm6_3 3.303804 1_655
In6_7 Tm6_7 3.303804 1_555
In6_7 Tm0_3 3.341076 1_655
In6_7 Tm0_7 3.341076 1_555
In7_0 Pt0_2 2.996813 1_555
In7_0 Tm9_0 3.166152 1_555
In7_0 Tm9_4 3.166152 1_555
In7_0 Tm0_6 3.168319 1_555
In7_0 Tm0_2 3.168319 1_555
In7_0 Tm7_0 3.303804 1_555
In7_0 Tm7_4 3.303804 1_555
In7_0 Tm1_0 3.341076 1_555
In7_0 Tm1_4 3.341076 1_555
In7_1 Pt0_3 2.996813 1_555
In7_1 Tm9_5 3.166152 1_555
In7_1 Tm9_1 3.166152 1_555
In7_1 Tm0_7 3.168319 1_555
In7_1 Tm0_3 3.168319 1_555
In7_1 Tm7_1 3.303804 1_555
In7_1 Tm7_5 3.303804 1_555
In7_1 Tm1_5 3.341076 1_555
In7_1 Tm1_1 3.341076 1_555
In7_2 Pt0_0 2.996813 1_565
In7_2 Tm9_2 3.166152 1_555
In7_2 Tm9_6 3.166152 1_555
In7_2 Tm0_4 3.168319 1_565
In7_2 Tm0_0 3.168319 1_565
In7_2 Tm7_2 3.303804 1_555
In7_2 Tm7_6 3.303804 1_555
In7_2 Tm1_2 3.341076 1_555
In7_2 Tm1_6 3.341076 1_555
In7_3 Pt0_1 2.996813 1_565
In7_3 Tm9_3 3.166152 1_555
In7_3 Tm9_7 3.166152 1_555
In7_3 Tm0_5 3.168319 1_565
In7_3 Tm0_1 3.168319 1_565
In7_3 Tm7_7 3.303804 1_555
In7_3 Tm7_3 3.303804 1_555
In7_3 Tm1_3 3.341076 1_555
In7_3 Tm1_7 3.341076 1_555
In7_4 Pt0_6 2.996813 1_555
In7_4 Tm9_0 3.166152 1_655
In7_4 Tm9_4 3.166152 1_555
In7_4 Tm0_2 3.168319 1_655
In7_4 Tm0_6 3.168319 1_555
In7_4 Tm7_0 3.303804 1_655
In7_4 Tm7_4 3.303804 1_555
In7_4 Tm1_0 3.341076 1_655
In7_4 Tm1_4 3.341076 1_555
In7_5 Pt0_7 2.996813 1_555
In7_5 Tm9_1 3.166152 1_655
In7_5 Tm9_5 3.166152 1_555
In7_5 Tm0_3 3.168319 1_655
In7_5 Tm0_7 3.168319 1_555
In7_5 Tm7_1 3.303804 1_655
In7_5 Tm7_5 3.303804 1_555
In7_5 Tm1_1 3.341076 1_655
In7_5 Tm1_5 3.341076 1_555
In7_6 Pt0_4 2.996813 1_565
In7_6 Tm9_2 3.166152 1_655
In7_6 Tm9_6 3.166152 1_555
In7_6 Tm0_0 3.168319 1_665
In7_6 Tm0_4 3.168319 1_565
In7_6 Tm7_2 3.303804 1_655
In7_6 Tm7_6 3.303804 1_555
In7_6 Tm1_2 3.341076 1_655
In7_6 Tm1_6 3.341076 1_555
In7_7 Pt0_5 2.996813 1_565
In7_7 Tm9_3 3.166152 1_655
In7_7 Tm9_7 3.166152 1_555
In7_7 Tm0_1 3.168319 1_665
In7_7 Tm0_5 3.168319 1_565
In7_7 Tm7_3 3.303804 1_655
In7_7 Tm7_7 3.303804 1_555
In7_7 Tm1_3 3.341076 1_655
In7_7 Tm1_7 3.341076 1_555
Pt0_0 Tm0_4 2.778380 1_555
Pt0_0 Tm0_0 2.778380 1_555
Pt0_0 Tm4_0 2.899860 1_555
Pt0_0 Tm4_4 2.899860 1_555
Pt0_0 Tm7_2 2.918033 1_545
Pt0_0 Tm7_6 2.918033 1_545
Pt0_1 Tm0_5 2.778380 1_555
Pt0_1 Tm0_1 2.778380 1_555
Pt0_1 Tm4_5 2.899860 1_555
Pt0_1 Tm4_1 2.899860 1_555
Pt0_1 Tm7_3 2.918033 1_545
Pt0_1 Tm7_7 2.918033 1_545
Pt0_2 Tm0_2 2.778380 1_555
Pt0_2 Tm0_6 2.778380 1_555
Pt0_2 Tm4_2 2.899860 1_555
Pt0_2 Tm4_6 2.899860 1_555
Pt0_2 Tm7_0 2.918033 1_555
Pt0_2 Tm7_4 2.918033 1_555
Pt0_3 Tm0_7 2.778380 1_555
Pt0_3 Tm0_3 2.778380 1_555
Pt0_3 Tm4_7 2.899860 1_555
Pt0_3 Tm4_3 2.899860 1_555
Pt0_3 Tm7_1 2.918033 1_555
Pt0_3 Tm7_5 2.918033 1_555
Pt0_4 Tm0_0 2.778380 1_655
Pt0_4 Tm0_4 2.778380 1_555
Pt0_4 Tm4_0 2.899860 1_655
Pt0_4 Tm4_4 2.899860 1_555
Pt0_4 Tm7_2 2.918033 1_645
Pt0_4 Tm7_6 2.918033 1_545
Pt0_5 Tm0_1 2.778380 1_655
Pt0_5 Tm0_5 2.778380 1_555
Pt0_5 Tm4_1 2.899860 1_655
Pt0_5 Tm4_5 2.899860 1_555
Pt0_5 Tm7_3 2.918033 1_645
Pt0_5 Tm7_7 2.918033 1_545
Pt0_6 Tm0_2 2.778380 1_655
Pt0_6 Tm0_6 2.778380 1_555
Pt0_6 Tm4_2 2.899860 1_655
Pt0_6 Tm4_6 2.899860 1_555
Pt0_6 Tm7_0 2.918033 1_655
Pt0_6 Tm7_4 2.918033 1_555
Pt0_7 Tm0_3 2.778380 1_655
Pt0_7 Tm0_7 2.778380 1_555
Pt0_7 Tm4_3 2.899860 1_655
Pt0_7 Tm4_7 2.899860 1_555
Pt0_7 Tm7_1 2.918033 1_655
Pt0_7 Tm7_5 2.918033 1_555
Pt1_0 Tm1_0 2.778380 1_555
Pt1_0 Tm1_4 2.778380 1_555
Pt1_0 Tm5_0 2.899860 1_555
Pt1_0 Tm5_4 2.899860 1_555
Pt1_0 Tm6_2 2.918033 1_555
Pt1_0 Tm6_6 2.918033 1_555
Pt1_1 Tm1_5 2.778380 1_555
Pt1_1 Tm1_1 2.778380 1_555
Pt1_1 Tm5_5 2.899860 1_555
Pt1_1 Tm5_1 2.899860 1_555
Pt1_1 Tm6_3 2.918033 1_555
Pt1_1 Tm6_7 2.918033 1_555
Pt1_2 Tm1_6 2.778380 1_555
Pt1_2 Tm1_2 2.778380 1_555
Pt1_2 Tm5_2 2.899860 1_555
Pt1_2 Tm5_6 2.899860 1_555
Pt1_2 Tm6_0 2.918033 1_565
Pt1_2 Tm6_4 2.918033 1_565
Pt1_3 Tm1_7 2.778380 1_555
Pt1_3 Tm1_3 2.778380 1_555
Pt1_3 Tm5_7 2.899860 1_555
Pt1_3 Tm5_3 2.899860 1_555
Pt1_3 Tm6_1 2.918033 1_565
Pt1_3 Tm6_5 2.918033 1_565
Pt1_4 Tm1_0 2.778380 1_655
Pt1_4 Tm1_4 2.778380 1_555
Pt1_4 Tm5_0 2.899860 1_655
Pt1_4 Tm5_4 2.899860 1_555
Pt1_4 Tm6_2 2.918033 1_655
Pt1_4 Tm6_6 2.918033 1_555
Pt1_5 Tm1_1 2.778380 1_655
Pt1_5 Tm1_5 2.778380 1_555
Pt1_5 Tm5_1 2.899860 1_655
Pt1_5 Tm5_5 2.899860 1_555
Pt1_5 Tm6_3 2.918033 1_655
Pt1_5 Tm6_7 2.918033 1_555
Pt1_6 Tm1_2 2.778380 1_655
Pt1_6 Tm1_6 2.778380 1_555
Pt1_6 Tm5_2 2.899860 1_655
Pt1_6 Tm5_6 2.899860 1_555
Pt1_6 Tm6_0 2.918033 1_665
Pt1_6 Tm6_4 2.918033 1_565
Pt1_7 Tm1_3 2.778380 1_655
Pt1_7 Tm1_7 2.778380 1_555
Pt1_7 Tm5_3 2.899860 1_655
Pt1_7 Tm5_7 2.899860 1_555
Pt1_7 Tm6_1 2.918033 1_665
Pt1_7 Tm6_5 2.918033 1_565
Pt2_0 Tm2_4 2.778380 1_555
Pt2_0 Tm2_0 2.778380 1_555
Pt2_0 Tm6_4 2.899860 1_555
Pt2_0 Tm6_0 2.899860 1_555
Pt2_0 Tm5_0 2.918033 1_555
Pt2_0 Tm5_4 2.918033 1_555
Pt2_1 Tm2_5 2.778380 1_555
Pt2_1 Tm2_1 2.778380 1_555
Pt2_1 Tm6_1 2.899860 1_555
Pt2_1 Tm6_5 2.899860 1_555
Pt2_1 Tm5_1 2.918033 1_555
Pt2_1 Tm5_5 2.918033 1_555
Pt2_2 Tm2_2 2.778380 1_555
Pt2_2 Tm2_6 2.778380 1_555
Pt2_2 Tm6_2 2.899860 1_555
Pt2_2 Tm6_6 2.899860 1_555
Pt2_2 Tm5_2 2.918033 1_555
Pt2_2 Tm5_6 2.918033 1_555
Pt2_3 Tm2_7 2.778380 1_555
Pt2_3 Tm2_3 2.778380 1_555
Pt2_3 Tm6_3 2.899860 1_555
Pt2_3 Tm6_7 2.899860 1_555
Pt2_3 Tm5_3 2.918033 1_555
Pt2_3 Tm5_7 2.918033 1_555
Pt2_4 Tm2_0 2.778380 1_655
Pt2_4 Tm2_4 2.778380 1_555
Pt2_4 Tm6_0 2.899860 1_655
Pt2_4 Tm6_4 2.899860 1_555
Pt2_4 Tm5_0 2.918033 1_655
Pt2_4 Tm5_4 2.918033 1_555
Pt2_5 Tm2_1 2.778380 1_655
Pt2_5 Tm2_5 2.778380 1_555
Pt2_5 Tm6_1 2.899860 1_655
Pt2_5 Tm6_5 2.899860 1_555
Pt2_5 Tm5_1 2.918033 1_655
Pt2_5 Tm5_5 2.918033 1_555
Pt2_6 Tm2_2 2.778380 1_655
Pt2_6 Tm2_6 2.778380 1_555
Pt2_6 Tm6_2 2.899860 1_655
Pt2_6 Tm6_6 2.899860 1_555
Pt2_6 Tm5_2 2.918033 1_655
Pt2_6 Tm5_6 2.918033 1_555
Pt2_7 Tm2_3 2.778380 1_655
Pt2_7 Tm2_7 2.778380 1_555
Pt2_7 Tm6_3 2.899860 1_655
Pt2_7 Tm6_7 2.899860 1_555
Pt2_7 Tm5_3 2.918033 1_655
Pt2_7 Tm5_7 2.918033 1_555
Pt3_0 Tm3_0 2.778380 1_555
Pt3_0 Tm3_4 2.778380 1_555
Pt3_0 Tm7_0 2.899860 1_555
Pt3_0 Tm7_4 2.899860 1_555
Pt3_0 Tm4_0 2.918033 1_555
Pt3_0 Tm4_4 2.918033 1_555
Pt3_1 Tm3_5 2.778380 1_555
Pt3_1 Tm3_1 2.778380 1_555
Pt3_1 Tm7_1 2.899860 1_555
Pt3_1 Tm7_5 2.899860 1_555
Pt3_1 Tm4_5 2.918033 1_555
Pt3_1 Tm4_1 2.918033 1_555
Pt3_2 Tm3_2 2.778380 1_555
Pt3_2 Tm3_6 2.778380 1_555
Pt3_2 Tm7_6 2.899860 1_555
Pt3_2 Tm7_2 2.899860 1_555
Pt3_2 Tm4_2 2.918033 1_555
Pt3_2 Tm4_6 2.918033 1_555
Pt3_3 Tm3_3 2.778380 1_555
Pt3_3 Tm3_7 2.778380 1_555
Pt3_3 Tm7_3 2.899860 1_555
Pt3_3 Tm7_7 2.899860 1_555
Pt3_3 Tm4_3 2.918033 1_555
Pt3_3 Tm4_7 2.918033 1_555
Pt3_4 Tm3_0 2.778380 1_655
Pt3_4 Tm3_4 2.778380 1_555
Pt3_4 Tm7_0 2.899860 1_655
Pt3_4 Tm7_4 2.899860 1_555
Pt3_4 Tm4_0 2.918033 1_655
Pt3_4 Tm4_4 2.918033 1_555
Pt3_5 Tm3_1 2.778380 1_655
Pt3_5 Tm3_5 2.778380 1_555
Pt3_5 Tm7_1 2.899860 1_655
Pt3_5 Tm7_5 2.899860 1_555
Pt3_5 Tm4_1 2.918033 1_655
Pt3_5 Tm4_5 2.918033 1_555
Pt3_6 Tm3_2 2.778380 1_655
Pt3_6 Tm3_6 2.778380 1_555
Pt3_6 Tm7_2 2.899860 1_655
Pt3_6 Tm7_6 2.899860 1_555
Pt3_6 Tm4_2 2.918033 1_655
Pt3_6 Tm4_6 2.918033 1_555
Pt3_7 Tm3_3 2.778380 1_655
Pt3_7 Tm3_7 2.778380 1_555
Pt3_7 Tm7_3 2.899860 1_655
Pt3_7 Tm7_7 2.899860 1_555
Pt3_7 Tm4_3 2.918033 1_655
Pt3_7 Tm4_7 2.918033 1_555
