# generated using pymatgen
data_PuAlNi
_symmetry_space_group_name_H-M   'P 1'
_cell_length_a   6.46604678
_cell_length_b   6.46604678
_cell_length_c   4.09522500
_cell_angle_alpha   90.00000000
_cell_angle_beta   90.00000000
_cell_angle_gamma   120.00000799
_symmetry_Int_Tables_number   1
_chemical_formula_structural   PuAlNi
_chemical_formula_sum   'Pu3 Al3 Ni3'
_cell_volume   148.28118539
_cell_formula_units_Z   3
loop_
 _symmetry_equiv_pos_site_id
 _symmetry_equiv_pos_as_xyz
  1  'x, y, z'
loop_
 _atom_site_type_symbol
 _atom_site_label
 _atom_site_symmetry_multiplicity
 _atom_site_fract_x
 _atom_site_fract_y
 _atom_site_fract_z
 _atom_site_occupancy
  Pu  Pu0  1  0.42745800  0.00000000  0.50000000  1
  Pu  Pu1  1  0.00000000  0.42745800  0.50000000  1
  Pu  Pu2  1  0.57254200  0.57254200  0.50000000  1
  Al  Al0  1  0.76005700  0.00000000  0.00000000  1
  Al  Al1  1  0.00000000  0.76005700  0.00000000  1
  Al  Al2  1  0.23994300  0.23994300  0.00000000  1
  Ni  Ni0  1  0.33333300  0.66666700  0.00000000  1
  Ni  Ni1  1  0.66666700  0.33333300  0.00000000  1
  Ni  Ni2  1  0.00000000  0.00000000  0.50000000  1
loop_
_geom_bond_atom_site_label_1
_geom_bond_atom_site_label_2
_geom_bond_distance
_geom_bond_site_symmetry_2
Al0 Ni1 2.512311 1_555
Al0 Ni0 2.512315 1_545
Al0 Ni2 2.569011 1_654
Al0 Ni2 2.569011 1_655
Al0 Al2 2.687247 1_655
Al0 Al1 2.687247 1_645
Al0 Pu0 2.969478 1_554
Al0 Pu0 2.969478 1_555
Al0 Pu1 3.154531 1_655
Al0 Pu1 3.154531 1_654
Al0 Pu2 3.154531 1_545
Al0 Pu2 3.154531 1_544
Al1 Ni0 2.512311 1_555
Al1 Ni1 2.512315 1_455
Al1 Ni2 2.569011 1_564
Al1 Ni2 2.569011 1_565
Al1 Al2 2.687247 1_565
Al1 Pu1 2.969478 1_554
Al1 Pu1 2.969478 1_555
Al1 Pu0 3.154531 1_565
Al1 Pu0 3.154531 1_564
Al1 Pu2 3.154531 1_454
Al1 Pu2 3.154531 1_455
Al2 Ni0 2.512318 1_555
Al2 Ni1 2.512318 1_555
Al2 Ni2 2.569010 1_554
Al2 Ni2 2.569010 1_555
Al2 Pu2 2.969478 1_554
Al2 Pu2 2.969478 1_555
Al2 Pu1 3.154531 1_555
Al2 Pu1 3.154531 1_554
Al2 Pu0 3.154531 1_554
Al2 Pu0 3.154531 1_555
Ni0 Pu0 2.810137 1_565
Ni0 Pu0 2.810137 1_564
Ni0 Pu1 2.810138 1_554
Ni0 Pu1 2.810138 1_555
Ni0 Pu2 2.810141 1_554
Ni0 Pu2 2.810141 1_555
Ni1 Pu1 2.810137 1_655
Ni1 Pu1 2.810137 1_654
Ni1 Pu0 2.810138 1_555
Ni1 Pu0 2.810138 1_554
Ni1 Pu2 2.810141 1_554
Ni1 Pu2 2.810141 1_555
Ni2 Pu2 2.763963 1_445
Ni2 Pu0 2.763963 1_555
Ni2 Pu1 2.763963 1_555
