# generated using pymatgen
data_SmAgAs2
_symmetry_space_group_name_H-M   'P 1'
_cell_length_a   3.98835920
_cell_length_b   3.98828124
_cell_length_c   20.98078394
_cell_angle_alpha   90.00000000
_cell_angle_beta   90.00000000
_cell_angle_gamma   89.97847515
_symmetry_Int_Tables_number   1
_chemical_formula_structural   SmAgAs2
_chemical_formula_sum   'Sm4 Ag4 As8'
_cell_volume   333.73497413
_cell_formula_units_Z   4
loop_
 _symmetry_equiv_pos_site_id
 _symmetry_equiv_pos_as_xyz
  1  'x, y, z'
loop_
 _atom_site_type_symbol
 _atom_site_label
 _atom_site_symmetry_multiplicity
 _atom_site_fract_x
 _atom_site_fract_y
 _atom_site_fract_z
 _atom_site_occupancy
  Sm  Sm0  1  0.24989826  0.73376862  0.11410532  1
  Sm  Sm1  1  0.74989926  0.23376962  0.38589468  1
  Sm  Sm2  1  0.25009974  0.76623038  0.61410532  1
  Sm  Sm3  1  0.75010074  0.26623138  0.88589468  1
  Ag  Ag0  1  0.74993427  0.72913461  0.24999074  1
  Ag  Ag1  1  0.24993327  0.22913561  0.25000926  1
  Ag  Ag2  1  0.75006573  0.77086439  0.74999074  1
  Ag  Ag3  1  0.25006773  0.27086539  0.75000926  1
  As  As0  1  0.74990637  0.23213229  0.16049041  1
  As  As1  1  0.24990837  0.73213129  0.33950959  1
  As  As2  1  0.75009363  0.26786871  0.66049041  1
  As  As3  1  0.25009263  0.76786771  0.83950959  1
  As  As4  1  0.25067295  0.22924784  0.00031278  1
  As  As5  1  0.75067295  0.72924884  0.49968722  1
  As  As6  1  0.24932805  0.27075116  0.50031278  1
  As  As7  1  0.74932605  0.77075216  0.99968722  1
loop_
_geom_bond_atom_site_label_1
_geom_bond_atom_site_label_2
_geom_bond_distance
_geom_bond_site_symmetry_2
Ag0 As0 2.730411 1_555
Ag0 As1 2.739351 1_655
Ag0 As1 2.739495 1_555
Ag0 As0 2.747818 1_565
Ag0 Ag1 2.819633 1_655
Ag0 Ag1 2.819644 1_565
Ag0 Ag1 2.820698 1_665
Ag0 Ag1 2.820698 1_555
Ag0 Sm1 3.468938 1_555
Ag0 Sm0 3.479174 1_655
Ag0 Sm0 3.479331 1_555
Ag0 Sm1 3.490126 1_565
Ag1 As1 2.730416 1_545
Ag1 As0 2.739348 1_555
Ag1 As0 2.739498 1_455
Ag1 As1 2.747813 1_555
Ag1 Sm0 3.468942 1_545
Ag1 Sm1 3.479178 1_555
Ag1 Sm1 3.479326 1_455
Ag1 Sm0 3.490122 1_555
Ag2 As2 2.730416 1_565
Ag2 As3 2.739348 1_555
Ag2 As3 2.739498 1_655
Ag2 As2 2.747813 1_555
Ag2 Ag3 2.819636 1_565
Ag2 Ag3 2.819641 1_655
Ag2 Ag3 2.820690 1_555
Ag2 Ag3 2.820706 1_665
Ag2 Sm3 3.468942 1_565
Ag2 Sm2 3.479178 1_555
Ag2 Sm2 3.479326 1_655
Ag2 Sm3 3.490122 1_555
Ag3 As3 2.730411 1_555
Ag3 As2 2.739351 1_455
Ag3 As2 2.739495 1_555
Ag3 As3 2.747818 1_545
Ag3 Sm2 3.468938 1_555
Ag3 Sm3 3.479181 1_455
Ag3 Sm3 3.479324 1_555
Ag3 Sm2 3.490126 1_545
As0 Sm0 2.978484 1_645
As0 Sm0 2.979527 1_545
As0 Sm0 2.987250 1_555
As0 Sm0 2.988210 1_655
As1 Sm1 2.978476 1_555
As1 Sm1 2.979524 1_455
As1 Sm1 2.987258 1_465
As1 Sm1 2.988213 1_565
As2 Sm2 2.978484 1_555
As2 Sm2 2.979516 1_655
As2 Sm2 2.987250 1_645
As2 Sm2 2.988220 1_545
As3 Sm3 2.978484 1_465
As3 Sm3 2.979527 1_565
As3 Sm3 2.987250 1_555
As3 Sm3 2.988210 1_455
As4 As7 2.701224 1_544
As4 As7 2.710155 1_444
As4 As7 2.936484 1_554
As4 As7 2.942671 1_454
As4 Sm0 3.099190 1_545
As4 Sm0 3.122305 1_555
As4 Sm3 3.122887 1_554
As4 Sm3 3.125730 1_454
As5 As6 2.701235 1_655
As5 As6 2.710154 1_555
As5 As6 2.936483 1_665
As5 As6 2.942660 1_565
As5 Sm1 3.099190 1_555
As5 Sm1 3.122305 1_565
As5 Sm2 3.122884 1_655
As5 Sm2 3.125732 1_555
As6 Sm2 3.099190 1_555
As6 Sm2 3.122305 1_545
As6 Sm1 3.122889 1_455
As6 Sm1 3.125727 1_555
As7 Sm3 3.099190 1_565
As7 Sm3 3.122305 1_555
As7 Sm0 3.122887 1_556
As7 Sm0 3.125730 1_656
