# generated using pymatgen
data_SrHfMg6O8
_symmetry_space_group_name_H-M   'P 1'
_cell_length_a   9.00124909
_cell_length_b   4.56484449
_cell_length_c   4.56484449
_cell_angle_alpha   90.00000000
_cell_angle_beta   90.00000000
_cell_angle_gamma   90.00000000
_symmetry_Int_Tables_number   1
_chemical_formula_structural   SrHfMg6O8
_chemical_formula_sum   'Sr1 Hf1 Mg6 O8'
_cell_volume   187.56627526
_cell_formula_units_Z   1
loop_
 _symmetry_equiv_pos_site_id
 _symmetry_equiv_pos_as_xyz
  1  'x, y, z'
loop_
 _atom_site_type_symbol
 _atom_site_label
 _atom_site_symmetry_multiplicity
 _atom_site_fract_x
 _atom_site_fract_y
 _atom_site_fract_z
 _atom_site_occupancy
  Sr  Sr0  1  -0.00000000  0.00000000  0.00000000  1
  Hf  Hf0  1  0.50000000  0.00000000  0.00000000  1
  Mg  Mg0  1  -0.00000000  0.50000000  0.50000000  1
  Mg  Mg1  1  0.50000000  0.50000000  0.50000000  1
  Mg  Mg2  1  0.25008368  0.00000000  0.50000000  1
  Mg  Mg3  1  0.74991632  -0.00000000  0.50000000  1
  Mg  Mg4  1  0.25008368  0.50000000  -0.00000000  1
  Mg  Mg5  1  0.74991632  0.50000000  0.00000000  1
  O  O0  1  0.26849823  -0.00000000  0.00000000  1
  O  O1  1  0.73150177  0.00000000  -0.00000000  1
  O  O2  1  0.24886489  0.50000000  0.50000000  1
  O  O3  1  0.75113511  0.50000000  0.50000000  1
  O  O4  1  -0.00000000  0.00000000  0.50000000  1
  O  O5  1  0.50000000  0.00000000  0.50000000  1
  O  O6  1  -0.00000000  0.50000000  0.00000000  1
  O  O7  1  0.50000000  0.50000000  0.00000000  1
loop_
_geom_bond_atom_site_label_1
_geom_bond_atom_site_label_2
_geom_bond_distance
_geom_bond_site_symmetry_2
Hf0 O0 2.083805 1_555
Hf0 O1 2.083805 1_555
Hf0 O7 2.282422 1_555
Hf0 O5 2.282422 1_554
Hf0 O5 2.282422 1_555
Hf0 O7 2.282422 1_545
Mg0 O2 2.240095 1_555
Mg0 O3 2.240095 1_455
Mg0 O4 2.282422 1_555
Mg0 O4 2.282422 1_565
Mg0 O6 2.282422 1_556
Mg0 O6 2.282422 1_555
Mg1 O2 2.260530 1_555
Mg1 O3 2.260530 1_555
Mg1 O7 2.282422 1_555
Mg1 O7 2.282422 1_556
Mg1 O5 2.282422 1_555
Mg1 O5 2.282422 1_565
Mg2 O5 2.249559 1_555
Mg2 O4 2.251065 1_555
Mg2 O2 2.282449 1_545
Mg2 O2 2.282449 1_555
Mg2 O0 2.288433 1_555
Mg2 O0 2.288433 1_556
Mg3 O5 2.249559 1_555
Mg3 O4 2.251065 1_655
Mg3 O3 2.282449 1_545
Mg3 O3 2.282449 1_555
Mg3 O1 2.288433 1_555
Mg3 O1 2.288433 1_556
Mg4 O7 2.249559 1_555
Mg4 O6 2.251065 1_555
Mg4 O2 2.282449 1_554
Mg4 O2 2.282449 1_555
Mg4 O0 2.288433 1_565
Mg4 O0 2.288433 1_555
Mg5 O7 2.249559 1_555
Mg5 O6 2.251065 1_655
Mg5 O3 2.282449 1_555
Mg5 O3 2.282449 1_554
Mg5 O1 2.288433 1_555
Mg5 O1 2.288433 1_565
O0 Sr0 2.416819 1_555
O1 Sr0 2.416819 1_655
O4 Sr0 2.282422 1_555
O4 Sr0 2.282422 1_556
O6 Sr0 2.282422 1_565
O6 Sr0 2.282422 1_555
