# generated using pymatgen
data_Ca3SiO
_symmetry_space_group_name_H-M   'P 1'
_cell_length_a   6.65098862
_cell_length_b   6.67173224
_cell_length_c   9.40885366
_cell_angle_alpha   90.00000000
_cell_angle_beta   90.00000000
_cell_angle_gamma   90.00000000
_symmetry_Int_Tables_number   1
_chemical_formula_structural   Ca3SiO
_chemical_formula_sum   'Ca12 Si4 O4'
_cell_volume   417.50485182
_cell_formula_units_Z   4
loop_
 _symmetry_equiv_pos_site_id
 _symmetry_equiv_pos_as_xyz
  1  'x, y, z'
loop_
 _atom_site_type_symbol
 _atom_site_label
 _atom_site_symmetry_multiplicity
 _atom_site_fract_x
 _atom_site_fract_y
 _atom_site_fract_z
 _atom_site_occupancy
  Ca  Ca0  1  0.25698143  0.25696155  0.48303883  1
  Ca  Ca1  1  0.74301857  0.74303845  0.98303883  1
  Ca  Ca2  1  0.75698143  0.24303845  0.01696117  1
  Ca  Ca3  1  0.50044816  0.03353557  0.75000000  1
  Ca  Ca4  1  0.99955184  0.53353557  0.25000000  1
  Ca  Ca5  1  0.00044816  0.46646443  0.75000000  1
  Ca  Ca6  1  0.49955184  0.96646443  0.25000000  1
  Ca  Ca7  1  0.75698143  0.24303845  0.48303883  1
  Ca  Ca8  1  0.74301857  0.74303845  0.51696117  1
  Ca  Ca9  1  0.25698143  0.25696155  0.01696117  1
  Ca  Ca10  1  0.24301857  0.75696155  0.98303883  1
  Ca  Ca11  1  0.24301857  0.75696155  0.51696117  1
  Si  Si0  1  0.99744240  0.99950441  0.75000000  1
  Si  Si1  1  0.50255760  0.49950441  0.25000000  1
  Si  Si2  1  0.49744240  0.50049559  0.75000000  1
  Si  Si3  1  0.00255760  0.00049559  0.25000000  1
  O  O0  1  0.00000000  0.50000000  0.50000000  1
  O  O1  1  0.50000000  -0.00000000  0.50000000  1
  O  O2  1  0.50000000  -0.00000000  -0.00000000  1
  O  O3  1  0.00000000  0.50000000  -0.00000000  1
loop_
_geom_bond_atom_site_label_1
_geom_bond_atom_site_label_2
_geom_bond_distance
_geom_bond_site_symmetry_2
Ca0 O0 2.361353 1_555
Ca0 O1 2.361574 1_555
Ca0 Si1 3.177086 1_555
Ca0 Si3 3.255584 1_555
Ca0 Si2 3.392176 1_555
Ca0 Si0 3.498473 1_445
Ca1 O3 2.361353 1_656
Ca1 O2 2.361574 1_566
Ca1 Si2 3.177086 1_555
Ca1 Si0 3.255584 1_555
Ca1 Si1 3.392176 1_556
Ca1 Si3 3.498473 1_666
Ca2 O2 2.361353 1_555
Ca2 O3 2.361574 1_655
Ca2 Si3 3.177086 1_655
Ca2 Si1 3.255584 1_555
Ca2 Si0 3.392176 1_544
Ca2 Si2 3.498473 1_554
Ca3 O1 2.362832 1_555
Ca3 O2 2.362832 1_556
Ca3 Si2 3.115496 1_555
Ca3 Si0 3.313291 1_545
Ca3 Si0 3.353181 1_445
Ca3 Si2 3.556356 1_545
Ca4 O0 2.362832 1_655
Ca4 O3 2.362832 1_655
Ca4 Si3 3.115496 1_665
Ca4 Si1 3.313291 1_555
Ca4 Si1 3.353181 1_655
Ca4 Si3 3.556356 1_655
Ca5 O3 2.362832 1_556
Ca5 O0 2.362832 1_555
Ca5 Si0 3.115496 1_445
Ca5 Si2 3.313291 1_555
Ca5 Si2 3.353181 1_455
Ca5 Si0 3.556356 1_455
Ca6 O2 2.362832 1_565
Ca6 O1 2.362832 1_565
Ca6 Si1 3.115496 1_555
Ca6 Si3 3.313291 1_565
Ca6 Si3 3.353181 1_665
Ca6 Si1 3.556356 1_565
Ca7 O1 2.361353 1_555
Ca7 O0 2.361574 1_655
Ca7 Si3 3.177086 1_655
Ca7 Si1 3.255584 1_555
Ca7 Si0 3.392176 1_545
Ca7 Si2 3.498473 1_555
Ca8 O0 2.361353 1_655
Ca8 O1 2.361574 1_565
Ca8 Si2 3.177086 1_555
Ca8 Si0 3.255584 1_555
Ca8 Si1 3.392176 1_555
Ca8 Si3 3.498473 1_665
Ca9 O3 2.361353 1_555
Ca9 O2 2.361574 1_555
Ca9 Si1 3.177086 1_555
Ca9 Si3 3.255584 1_555
Ca9 Si2 3.392176 1_554
Ca9 Si0 3.498473 1_444
Ca10 O2 2.361353 1_566
Ca10 O3 2.361574 1_556
Ca10 Si0 3.177086 1_455
Ca10 Si2 3.255584 1_555
Ca10 Si3 3.392176 1_566
Ca10 Si1 3.498473 1_556
Ca11 O1 2.361353 1_565
Ca11 O0 2.361574 1_555
Ca11 Si0 3.177086 1_455
Ca11 Si2 3.255584 1_555
Ca11 Si3 3.392176 1_565
Ca11 Si1 3.498473 1_555
