# generated using pymatgen
data_Ca7CrN6
_symmetry_space_group_name_H-M   'P 1'
_cell_length_a   11.03758600
_cell_length_b   6.25116800
_cell_length_c   12.97875400
_cell_angle_alpha   90.00000000
_cell_angle_beta   90.00000000
_cell_angle_gamma   90.00000000
_symmetry_Int_Tables_number   1
_chemical_formula_structural   Ca7CrN6
_chemical_formula_sum   'Ca28 Cr4 N24'
_cell_volume   895.50552985
_cell_formula_units_Z   4
loop_
 _symmetry_equiv_pos_site_id
 _symmetry_equiv_pos_as_xyz
  1  'x, y, z'
loop_
 _atom_site_type_symbol
 _atom_site_label
 _atom_site_symmetry_multiplicity
 _atom_site_fract_x
 _atom_site_fract_y
 _atom_site_fract_z
 _atom_site_occupancy
  Ca  Ca0  1  0.03586100  0.73210100  0.97792300  1
  Ca  Ca1  1  0.46413900  0.76789900  0.47792300  1
  Ca  Ca2  1  0.53586100  0.76789900  0.02207700  1
  Ca  Ca3  1  0.96413900  0.73210100  0.52207700  1
  Ca  Ca4  1  0.96413900  0.26789900  0.02207700  1
  Ca  Ca5  1  0.53586100  0.23210100  0.52207700  1
  Ca  Ca6  1  0.46413900  0.23210100  0.97792300  1
  Ca  Ca7  1  0.03586100  0.26789900  0.47792300  1
  Ca  Ca8  1  0.22805600  0.84905500  0.62531900  1
  Ca  Ca9  1  0.27194400  0.65094500  0.12531900  1
  Ca  Ca10  1  0.72805600  0.65094500  0.37468100  1
  Ca  Ca11  1  0.77194400  0.84905500  0.87468100  1
  Ca  Ca12  1  0.77194400  0.15094500  0.37468100  1
  Ca  Ca13  1  0.72805600  0.34905500  0.87468100  1
  Ca  Ca14  1  0.27194400  0.34905500  0.62531900  1
  Ca  Ca15  1  0.22805600  0.15094500  0.12531900  1
  Ca  Ca16  1  0.29100100  0.61015000  0.87909600  1
  Ca  Ca17  1  0.20899900  0.88985000  0.37909600  1
  Ca  Ca18  1  0.79100100  0.88985000  0.12090400  1
  Ca  Ca19  1  0.70899900  0.61015000  0.62090400  1
  Ca  Ca20  1  0.70899900  0.38985000  0.12090400  1
  Ca  Ca21  1  0.79100100  0.11014900  0.62090400  1
  Ca  Ca22  1  0.20899900  0.11014900  0.87909600  1
  Ca  Ca23  1  0.29100100  0.38985000  0.37909600  1
  Ca  Ca24  1  0.00000000  0.44184700  0.75000000  1
  Ca  Ca25  1  0.50000000  0.05815300  0.25000000  1
  Ca  Ca26  1  0.00000000  0.55815300  0.25000000  1
  Ca  Ca27  1  0.50000000  0.94184700  0.75000000  1
  Cr  Cr0  1  0.00000000  0.93597800  0.75000000  1
  Cr  Cr1  1  0.50000000  0.56402200  0.25000000  1
  Cr  Cr2  1  0.00000000  0.06402200  0.25000000  1
  Cr  Cr3  1  0.50000000  0.43597800  0.75000000  1
  N  N0  1  0.12548200  0.76400400  0.79389600  1
  N  N1  1  0.37451800  0.73599600  0.29389600  1
  N  N2  1  0.62548200  0.73599600  0.20610400  1
  N  N3  1  0.87451800  0.76400400  0.70610400  1
  N  N4  1  0.87451800  0.23599600  0.20610400  1
  N  N5  1  0.62548200  0.26400400  0.70610400  1
  N  N6  1  0.37451800  0.26400400  0.79389600  1
  N  N7  1  0.12548200  0.23599600  0.29389600  1
  N  N8  1  0.16492600  0.58806100  0.50272500  1
  N  N9  1  0.33507400  0.91193900  0.00272500  1
  N  N10  1  0.66492600  0.91193900  0.49727500  1
  N  N11  1  0.83507400  0.58806100  0.99727500  1
  N  N12  1  0.83507400  0.41193900  0.49727500  1
  N  N13  1  0.66492600  0.08806100  0.99727500  1
  N  N14  1  0.33507400  0.08806100  0.50272500  1
  N  N15  1  0.16492600  0.41193900  0.00272500  1
  N  N16  1  0.44824000  0.60497100  0.64367100  1
  N  N17  1  0.05176000  0.89502900  0.14367100  1
  N  N18  1  0.94824000  0.89502900  0.35632900  1
  N  N19  1  0.55176000  0.60497100  0.85632900  1
  N  N20  1  0.55176000  0.39502900  0.35632900  1
  N  N21  1  0.94824000  0.10497100  0.85632900  1
  N  N22  1  0.05176000  0.10497100  0.64367100  1
  N  N23  1  0.44824000  0.39502900  0.14367100  1
loop_
_geom_bond_atom_site_label_1
_geom_bond_atom_site_label_2
_geom_bond_distance
_geom_bond_site_symmetry_2
Ca0 N17 2.386585 1_556
Ca0 N11 2.405285 1_455
Ca0 N15 2.477611 1_556
Ca0 N0 2.592863 1_555
Ca0 N21 2.976377 1_465
Ca1 N16 2.386585 1_555
Ca1 N10 2.405285 1_555
Ca1 N14 2.477611 1_565
Ca1 N1 2.592863 1_555
Ca1 N20 2.976377 1_555
Ca2 N19 2.386585 1_554
Ca2 N9 2.405285 1_555
Ca2 N13 2.477611 1_564
Ca2 N2 2.592863 1_555
Ca2 N23 2.976377 1_555
Ca3 N18 2.386585 1_555
Ca3 N8 2.405285 1_655
Ca3 N12 2.477611 1_555
Ca3 N3 2.592863 1_555
Ca3 N22 2.976377 1_665
Ca4 N21 2.386585 1_554
Ca4 N15 2.405285 1_655
Ca4 N11 2.477611 1_554
Ca4 N4 2.592863 1_555
Ca4 N17 2.976377 1_645
Ca5 N20 2.386585 1_555
Ca5 N14 2.405285 1_555
Ca5 N10 2.477611 1_545
Ca5 N5 2.592863 1_555
Ca5 N16 2.976377 1_555
Ca6 N23 2.386585 1_556
Ca6 N13 2.405285 1_555
Ca6 N9 2.477611 1_546
Ca6 N6 2.592863 1_555
Ca6 N19 2.976377 1_555
Ca7 N22 2.386585 1_555
Ca7 N12 2.405285 1_455
Ca7 N8 2.477611 1_555
Ca7 N7 2.592863 1_555
Ca7 N18 2.976377 1_445
Ca8 N8 2.383073 1_555
Ca8 N14 2.481768 1_565
Ca8 N0 2.520212 1_555
Ca8 N22 2.530310 1_565
Ca8 N16 2.879442 1_555
Ca9 N9 2.383073 1_555
Ca9 N15 2.481768 1_555
Ca9 N1 2.520212 1_555
Ca9 N23 2.530310 1_555
Ca9 N17 2.879442 1_555
Ca10 N10 2.383073 1_555
Ca10 N12 2.481768 1_555
Ca10 N2 2.520212 1_555
Ca10 N20 2.530310 1_555
Ca10 N18 2.879442 1_555
Ca11 N11 2.383073 1_555
Ca11 N13 2.481768 1_565
Ca11 N3 2.520212 1_555
Ca11 N21 2.530310 1_565
Ca11 N19 2.879442 1_555
Ca12 N12 2.383073 1_555
Ca12 N10 2.481768 1_545
Ca12 N4 2.520212 1_555
Ca12 N18 2.530310 1_545
Ca12 N20 2.879442 1_555
Ca13 N13 2.383073 1_555
Ca13 N11 2.481768 1_555
Ca13 N5 2.520212 1_555
Ca13 N19 2.530310 1_555
Ca13 N21 2.879442 1_555
Ca14 N14 2.383073 1_555
Ca14 N8 2.481768 1_555
Ca14 N6 2.520212 1_555
Ca14 N16 2.530310 1_555
Ca14 N22 2.879442 1_555
Ca15 N15 2.383073 1_555
Ca15 N9 2.481768 1_545
Ca15 N7 2.520212 1_555
Ca15 N17 2.530310 1_545
Ca15 N23 2.879442 1_555
Ca16 N0 2.342102 1_555
Ca16 N15 2.458918 1_556
Ca16 N9 2.523932 1_556
Ca16 N6 2.598969 1_555
Ca16 N19 2.893459 1_555
Ca17 N1 2.342102 1_555
Ca17 N14 2.458918 1_565
Ca17 N8 2.523932 1_555
Ca17 N7 2.598969 1_565
Ca17 N18 2.893459 1_455
Ca18 N2 2.342102 1_555
Ca18 N13 2.458918 1_564
Ca18 N11 2.523932 1_554
Ca18 N4 2.598969 1_565
Ca18 N17 2.893459 1_655
Ca19 N3 2.342102 1_555
Ca19 N12 2.458918 1_555
Ca19 N10 2.523932 1_555
Ca19 N5 2.598969 1_555
Ca19 N16 2.893459 1_555
Ca20 N4 2.342102 1_555
Ca20 N11 2.458918 1_554
Ca20 N13 2.523932 1_554
Ca20 N2 2.598969 1_555
Ca20 N23 2.893459 1_555
Ca21 N5 2.342104 1_555
Ca21 N10 2.458915 1_545
Ca21 N12 2.523937 1_555
Ca21 N3 2.598963 1_545
Ca21 N22 2.893459 1_655
Ca22 N6 2.342104 1_555
Ca22 N9 2.458915 1_546
Ca22 N15 2.523937 1_556
Ca22 N0 2.598963 1_545
Ca22 N21 2.893459 1_455
Ca23 N7 2.342102 1_555
Ca23 N8 2.458918 1_555
Ca23 N14 2.523932 1_555
Ca23 N1 2.598969 1_555
Ca23 N20 2.893459 1_555
Ca24 N0 2.509676 1_555
Ca24 N3 2.509676 1_455
Ca24 N21 2.581767 1_455
Ca24 N22 2.581767 1_555
Ca25 N2 2.509676 1_545
Ca25 N1 2.509676 1_545
Ca25 N20 2.581767 1_555
Ca25 N23 2.581767 1_555
Ca26 N4 2.509676 1_455
Ca26 N7 2.509676 1_555
Ca26 N17 2.581767 1_555
Ca26 N18 2.581767 1_455
Ca27 N5 2.509676 1_565
Ca27 N6 2.509676 1_565
Ca27 N19 2.581767 1_555
Ca27 N16 2.581767 1_555
Cr0 N22 1.829434 1_565
Cr0 N21 1.829434 1_465
Cr0 N3 1.843518 1_455
Cr0 N0 1.843518 1_555
Cr1 N23 1.829434 1_555
Cr1 N20 1.829434 1_555
Cr1 N2 1.843518 1_555
Cr1 N1 1.843518 1_555
Cr2 N17 1.829434 1_545
Cr2 N18 1.829434 1_445
Cr2 N4 1.843518 1_455
Cr2 N7 1.843518 1_555
Cr3 N19 1.829434 1_555
Cr3 N16 1.829434 1_555
Cr3 N5 1.843518 1_555
Cr3 N6 1.843518 1_555
