# generated using pymatgen
data_BaCaMg30O32
_symmetry_space_group_name_H-M   'P 1'
_cell_length_a   8.68369559
_cell_length_b   8.69851797
_cell_length_c   8.69851797
_cell_angle_alpha   90.00000000
_cell_angle_beta   90.00000000
_cell_angle_gamma   90.00000000
_symmetry_Int_Tables_number   1
_chemical_formula_structural   BaCaMg30O32
_chemical_formula_sum   'Ba1 Ca1 Mg30 O32'
_cell_volume   657.04500903
_cell_formula_units_Z   1
loop_
 _symmetry_equiv_pos_site_id
 _symmetry_equiv_pos_as_xyz
  1  'x, y, z'
loop_
 _atom_site_type_symbol
 _atom_site_label
 _atom_site_symmetry_multiplicity
 _atom_site_fract_x
 _atom_site_fract_y
 _atom_site_fract_z
 _atom_site_occupancy
  Ba  Ba0  1  -0.00000000  0.50000000  0.50000000  1
  Ca  Ca0  1  -0.00000000  0.00000000  0.00000000  1
  Mg  Mg0  1  -0.00000000  0.00000000  0.50000000  1
  Mg  Mg1  1  -0.00000000  0.50000000  0.00000000  1
  Mg  Mg2  1  0.50000000  0.00000000  0.00000000  1
  Mg  Mg3  1  0.50000000  0.00000000  0.50000000  1
  Mg  Mg4  1  0.50000000  0.50000000  0.00000000  1
  Mg  Mg5  1  0.50000000  0.50000000  0.50000000  1
  Mg  Mg6  1  -0.00000000  0.24569274  0.24569274  1
  Mg  Mg7  1  -0.00000000  0.24569274  0.75430726  1
  Mg  Mg8  1  -0.00000000  0.75430726  0.24569274  1
  Mg  Mg9  1  -0.00000000  0.75430726  0.75430726  1
  Mg  Mg10  1  0.50000000  0.24971181  0.24971181  1
  Mg  Mg11  1  0.50000000  0.24971181  0.75028819  1
  Mg  Mg12  1  0.50000000  0.75028819  0.24971181  1
  Mg  Mg13  1  0.50000000  0.75028819  0.75028819  1
  Mg  Mg14  1  0.25338436  0.00000000  0.25263941  1
  Mg  Mg15  1  0.25338436  0.00000000  0.74736059  1
  Mg  Mg16  1  0.25742987  0.50000000  0.24272885  1
  Mg  Mg17  1  0.25742987  0.50000000  0.75727115  1
  Mg  Mg18  1  0.74661564  0.00000000  0.25263941  1
  Mg  Mg19  1  0.74661564  0.00000000  0.74736059  1
  Mg  Mg20  1  0.74257013  0.50000000  0.24272885  1
  Mg  Mg21  1  0.74257013  0.50000000  0.75727115  1
  Mg  Mg22  1  0.25338436  0.25263941  0.00000000  1
  Mg  Mg23  1  0.25742987  0.24272885  0.50000000  1
  Mg  Mg24  1  0.25338436  0.74736059  0.00000000  1
  Mg  Mg25  1  0.25742987  0.75727115  0.50000000  1
  Mg  Mg26  1  0.74661564  0.25263941  0.00000000  1
  Mg  Mg27  1  0.74257013  0.24272885  0.50000000  1
  Mg  Mg28  1  0.74661564  0.74736059  0.00000000  1
  Mg  Mg29  1  0.74257013  0.75727115  0.50000000  1
  O  O0  1  0.26259531  0.00000000  0.00000000  1
  O  O1  1  0.25809259  0.00000000  0.50000000  1
  O  O2  1  0.25809259  0.50000000  0.00000000  1
  O  O3  1  0.27904173  0.50000000  0.50000000  1
  O  O4  1  0.73740469  0.00000000  0.00000000  1
  O  O5  1  0.74190741  0.00000000  0.50000000  1
  O  O6  1  0.74190741  0.50000000  0.00000000  1
  O  O7  1  0.72095827  0.50000000  0.50000000  1
  O  O8  1  0.24966292  0.25034470  0.25034470  1
  O  O9  1  0.24966292  0.25034470  0.74965530  1
  O  O10  1  0.24966292  0.74965530  0.25034470  1
  O  O11  1  0.24966292  0.74965530  0.74965530  1
  O  O12  1  0.75033708  0.25034470  0.25034470  1
  O  O13  1  0.75033708  0.25034470  0.74965530  1
  O  O14  1  0.75033708  0.74965530  0.25034470  1
  O  O15  1  0.75033708  0.74965530  0.74965530  1
  O  O16  1  -0.00000000  0.00000000  0.25762139  1
  O  O17  1  -0.00000000  0.00000000  0.74237861  1
  O  O18  1  -0.00000000  0.50000000  0.22220266  1
  O  O19  1  -0.00000000  0.50000000  0.77779734  1
  O  O20  1  0.50000000  0.00000000  0.25094040  1
  O  O21  1  0.50000000  0.00000000  0.74905960  1
  O  O22  1  0.50000000  0.50000000  0.24435666  1
  O  O23  1  0.50000000  0.50000000  0.75564334  1
  O  O24  1  -0.00000000  0.25762139  0.00000000  1
  O  O25  1  -0.00000000  0.22220266  0.50000000  1
  O  O26  1  -0.00000000  0.74237861  0.00000000  1
  O  O27  1  -0.00000000  0.77779734  0.50000000  1
  O  O28  1  0.50000000  0.25094040  0.00000000  1
  O  O29  1  0.50000000  0.24435666  0.50000000  1
  O  O30  1  0.50000000  0.74905960  0.00000000  1
  O  O31  1  0.50000000  0.75564334  0.50000000  1
loop_
_geom_bond_atom_site_label_1
_geom_bond_atom_site_label_2
_geom_bond_distance
_geom_bond_site_symmetry_2
Ba0 O25 2.416425 1_555
Ba0 O18 2.416425 1_555
Ba0 O19 2.416425 1_555
Ba0 O27 2.416425 1_555
Ba0 O3 2.423113 1_555
Ba0 O7 2.423113 1_455
Ca0 O17 2.240924 1_554
Ca0 O26 2.240924 1_545
Ca0 O24 2.240924 1_555
Ca0 O16 2.240924 1_555
Ca0 O0 2.280298 1_555
Ca0 O4 2.280298 1_455
Mg0 O27 1.932834 1_545
Mg0 O25 1.932834 1_555
Mg0 O16 2.108335 1_555
Mg0 O17 2.108335 1_555
Mg0 O5 2.241197 1_455
Mg0 O1 2.241197 1_555
Mg1 O19 1.932834 1_554
Mg1 O18 1.932834 1_555
Mg1 O24 2.108335 1_555
Mg1 O26 2.108335 1_555
Mg1 O6 2.241197 1_455
Mg1 O2 2.241197 1_555
Mg2 O0 2.061550 1_555
Mg2 O4 2.061550 1_555
Mg2 O21 2.182810 1_554
Mg2 O30 2.182810 1_545
Mg2 O20 2.182810 1_555
Mg2 O28 2.182810 1_555
Mg3 O1 2.100650 1_555
Mg3 O5 2.100650 1_555
Mg3 O29 2.125541 1_555
Mg3 O31 2.125541 1_545
Mg3 O20 2.166449 1_555
Mg3 O21 2.166449 1_555
Mg4 O2 2.100650 1_555
Mg4 O6 2.100650 1_555
Mg4 O22 2.125541 1_555
Mg4 O23 2.125541 1_554
Mg4 O28 2.166449 1_555
Mg4 O30 2.166449 1_555
Mg5 O3 1.918734 1_555
Mg5 O7 1.918734 1_555
Mg5 O22 2.223718 1_555
Mg5 O23 2.223718 1_555
Mg5 O29 2.223718 1_555
Mg5 O31 2.223718 1_555
Mg6 O24 2.139680 1_555
Mg6 O16 2.139680 1_555
Mg6 O12 2.168752 1_455
Mg6 O8 2.168752 1_555
Mg6 O25 2.221513 1_555
Mg6 O18 2.221513 1_555
Mg7 O24 2.139680 1_556
Mg7 O17 2.139680 1_555
Mg7 O9 2.168752 1_555
Mg7 O13 2.168752 1_455
Mg7 O19 2.221513 1_555
Mg7 O25 2.221513 1_555
Mg8 O16 2.139680 1_565
Mg8 O26 2.139680 1_555
Mg8 O14 2.168752 1_455
Mg8 O10 2.168752 1_555
Mg8 O27 2.221513 1_555
Mg8 O18 2.221513 1_555
Mg9 O26 2.139680 1_556
Mg9 O17 2.139680 1_565
Mg9 O15 2.168752 1_455
Mg9 O11 2.168752 1_555
Mg9 O27 2.221513 1_555
Mg9 O19 2.221513 1_555
Mg10 O20 2.172149 1_555
Mg10 O28 2.172149 1_555
Mg10 O8 2.173865 1_555
Mg10 O12 2.173865 1_555
Mg10 O22 2.177635 1_555
Mg10 O29 2.177635 1_555
Mg11 O28 2.172149 1_556
Mg11 O21 2.172149 1_555
Mg11 O9 2.173865 1_555
Mg11 O13 2.173865 1_555
Mg11 O23 2.177635 1_555
Mg11 O29 2.177635 1_555
Mg12 O20 2.172149 1_565
Mg12 O30 2.172149 1_555
Mg12 O10 2.173865 1_555
Mg12 O14 2.173865 1_555
Mg12 O22 2.177635 1_555
Mg12 O31 2.177635 1_555
Mg13 O30 2.172149 1_556
Mg13 O21 2.172149 1_565
Mg13 O15 2.173865 1_555
Mg13 O11 2.173865 1_555
Mg13 O23 2.177635 1_555
Mg13 O31 2.177635 1_555
Mg14 O20 2.141586 1_555
Mg14 O1 2.152059 1_555
Mg14 O8 2.177959 1_555
Mg14 O10 2.177959 1_545
Mg14 O0 2.199044 1_555
Mg14 O16 2.200739 1_555
Mg15 O21 2.141586 1_555
Mg15 O1 2.152059 1_555
Mg15 O9 2.177959 1_555
Mg15 O11 2.177959 1_545
Mg15 O0 2.199044 1_556
Mg15 O17 2.200739 1_555
Mg16 O22 2.106453 1_555
Mg16 O2 2.111389 1_555
Mg16 O10 2.173688 1_555
Mg16 O8 2.173688 1_555
Mg16 O18 2.242562 1_555
Mg16 O3 2.245733 1_555
Mg17 O23 2.106453 1_555
Mg17 O2 2.111389 1_556
Mg17 O11 2.173688 1_555
Mg17 O9 2.173688 1_555
Mg17 O19 2.242562 1_555
Mg17 O3 2.245733 1_555
Mg18 O20 2.141586 1_555
Mg18 O5 2.152059 1_555
Mg18 O12 2.177959 1_555
Mg18 O14 2.177959 1_545
Mg18 O4 2.199044 1_555
Mg18 O16 2.200739 1_655
Mg19 O21 2.141586 1_555
Mg19 O5 2.152059 1_555
Mg19 O13 2.177959 1_555
Mg19 O15 2.177959 1_545
Mg19 O4 2.199044 1_556
Mg19 O17 2.200739 1_655
Mg20 O22 2.106453 1_555
Mg20 O6 2.111389 1_555
Mg20 O12 2.173688 1_555
Mg20 O14 2.173688 1_555
Mg20 O18 2.242562 1_655
Mg20 O7 2.245733 1_555
Mg21 O23 2.106453 1_555
Mg21 O6 2.111389 1_556
Mg21 O15 2.173688 1_555
Mg21 O13 2.173688 1_555
Mg21 O19 2.242562 1_655
Mg21 O7 2.245733 1_555
Mg22 O28 2.141586 1_555
Mg22 O2 2.152059 1_555
Mg22 O8 2.177959 1_555
Mg22 O9 2.177959 1_554
Mg22 O0 2.199044 1_555
Mg22 O24 2.200739 1_555
Mg23 O29 2.106453 1_555
Mg23 O1 2.111389 1_555
Mg23 O8 2.173688 1_555
Mg23 O9 2.173688 1_555
Mg23 O25 2.242562 1_555
Mg23 O3 2.245733 1_555
Mg24 O30 2.141586 1_555
Mg24 O2 2.152059 1_555
Mg24 O11 2.177959 1_554
Mg24 O10 2.177959 1_555
Mg24 O0 2.199044 1_565
Mg24 O26 2.200739 1_555
Mg25 O31 2.106453 1_555
Mg25 O1 2.111389 1_565
Mg25 O10 2.173688 1_555
Mg25 O11 2.173688 1_555
Mg25 O27 2.242562 1_555
Mg25 O3 2.245733 1_555
Mg26 O28 2.141586 1_555
Mg26 O6 2.152059 1_555
Mg26 O13 2.177959 1_554
Mg26 O12 2.177959 1_555
Mg26 O4 2.199044 1_555
Mg26 O24 2.200739 1_655
Mg27 O29 2.106453 1_555
Mg27 O5 2.111389 1_555
Mg27 O13 2.173688 1_555
Mg27 O12 2.173688 1_555
Mg27 O25 2.242562 1_655
Mg27 O7 2.245733 1_555
Mg28 O30 2.141586 1_555
Mg28 O6 2.152059 1_555
Mg28 O14 2.177959 1_555
Mg28 O15 2.177959 1_554
Mg28 O4 2.199044 1_565
Mg28 O26 2.200739 1_655
Mg29 O31 2.106453 1_555
Mg29 O5 2.111389 1_565
Mg29 O14 2.173688 1_555
Mg29 O15 2.173688 1_555
Mg29 O27 2.242562 1_655
Mg29 O7 2.245733 1_555
