# generated using pymatgen
data_CaCoMo2O7
_symmetry_space_group_name_H-M   'P 1'
_cell_length_a   15.29645400
_cell_length_b   7.17946400
_cell_length_c   11.61757212
_cell_angle_alpha   79.77039726
_cell_angle_beta   90.00000000
_cell_angle_gamma   90.00000000
_symmetry_Int_Tables_number   1
_chemical_formula_structural   CaCoMo2O7
_chemical_formula_sum   'Ca8 Co8 Mo16 O56'
_cell_volume   1255.56486475
_cell_formula_units_Z   8
loop_
 _symmetry_equiv_pos_site_id
 _symmetry_equiv_pos_as_xyz
  1  'x, y, z'
loop_
 _atom_site_type_symbol
 _atom_site_label
 _atom_site_symmetry_multiplicity
 _atom_site_fract_x
 _atom_site_fract_y
 _atom_site_fract_z
 _atom_site_occupancy
  Ca  Ca0  1  0.51760200  0.90400500  0.71768200  1
  Ca  Ca1  1  0.86902100  0.69492500  0.97316800  1
  Ca  Ca2  1  0.36902100  0.30507500  0.52683200  1
  Ca  Ca3  1  0.13097900  0.30507500  0.02683200  1
  Ca  Ca4  1  0.63097900  0.69492500  0.47316800  1
  Ca  Ca5  1  0.98239800  0.90400500  0.21768200  1
  Ca  Ca6  1  0.48239800  0.09599500  0.28231800  1
  Ca  Ca7  1  0.01760200  0.09599500  0.78231800  1
  Co  Co0  1  0.65523600  0.34523200  0.08676100  1
  Co  Co1  1  0.15523600  0.65476800  0.41323900  1
  Co  Co2  1  0.34476400  0.65476800  0.91323900  1
  Co  Co3  1  0.84476400  0.34523200  0.58676100  1
  Co  Co4  1  0.74700500  0.00818700  0.24851900  1
  Co  Co5  1  0.24700500  0.99181300  0.25148100  1
  Co  Co6  1  0.25299500  0.99181300  0.75148000  1
  Co  Co7  1  0.75299500  0.00818700  0.74852000  1
  Mo  Mo0  1  0.87559500  0.16968000  0.98538000  1
  Mo  Mo1  1  0.02734000  0.57893300  0.69715300  1
  Mo  Mo2  1  0.47266000  0.57893300  0.19715300  1
  Mo  Mo3  1  0.97266000  0.42106700  0.30284700  1
  Mo  Mo4  1  0.72444300  0.49546100  0.80163600  1
  Mo  Mo5  1  0.22444300  0.50453900  0.69836400  1
  Mo  Mo6  1  0.27555700  0.50453900  0.19836400  1
  Mo  Mo7  1  0.77555700  0.49546100  0.30163600  1
  Mo  Mo8  1  0.52734000  0.42106700  0.80284700  1
  Mo  Mo9  1  0.13673600  0.13261000  0.48439600  1
  Mo  Mo10  1  0.63673600  0.86739000  0.01560400  1
  Mo  Mo11  1  0.86326400  0.86739000  0.51560400  1
  Mo  Mo12  1  0.37559500  0.83032000  0.51462000  1
  Mo  Mo13  1  0.62440500  0.16968000  0.48538000  1
  Mo  Mo14  1  0.12440500  0.83032000  0.01462000  1
  Mo  Mo15  1  0.36326400  0.13261000  0.98439600  1
  O  O0  1  0.99272800  0.22285000  0.95615700  1
  O  O1  1  0.49272800  0.77715000  0.54384300  1
  O  O2  1  0.00727200  0.77715000  0.04384300  1
  O  O3  1  0.50727200  0.22285000  0.45615700  1
  O  O4  1  0.85817800  0.01359500  0.87289600  1
  O  O5  1  0.35817800  0.98640500  0.62710400  1
  O  O6  1  0.14182200  0.98640500  0.12710400  1
  O  O7  1  0.64182200  0.01359500  0.37289600  1
  O  O8  1  0.84927700  0.00518400  0.12289400  1
  O  O9  1  0.34927700  0.99481600  0.37710600  1
  O  O10  1  0.15072300  0.99481600  0.87710600  1
  O  O11  1  0.65072300  0.00518400  0.62289400  1
  O  O12  1  0.28209500  0.31229400  0.95588500  1
  O  O13  1  0.78209500  0.68770600  0.54411500  1
  O  O14  1  0.71790500  0.68770600  0.04411500  1
  O  O15  1  0.21790500  0.31229400  0.45588500  1
  O  O16  1  0.36475100  0.03348900  0.13813000  1
  O  O17  1  0.86475100  0.96651100  0.36187000  1
  O  O18  1  0.63524900  0.96651100  0.86187000  1
  O  O19  1  0.13524900  0.03348900  0.63813000  1
  O  O20  1  0.34398400  0.94828000  0.89809600  1
  O  O21  1  0.45316900  0.62419700  0.82190000  1
  O  O22  1  0.84398400  0.05172000  0.60190400  1
  O  O23  1  0.15601600  0.94828000  0.39809600  1
  O  O24  1  0.49696600  0.25794400  0.70917900  1
  O  O25  1  0.99696600  0.74205600  0.79082100  1
  O  O26  1  0.50303400  0.74205600  0.29082100  1
  O  O27  1  0.00303400  0.25794400  0.20917900  1
  O  O28  1  0.46869800  0.23933600  0.94904400  1
  O  O29  1  0.96869800  0.76066400  0.55095600  1
  O  O30  1  0.53130200  0.76066400  0.05095600  1
  O  O31  1  0.03130200  0.23933600  0.44904400  1
  O  O32  1  0.88973700  0.58515700  0.20209100  1
  O  O33  1  0.38973700  0.41484300  0.29790900  1
  O  O34  1  0.11026300  0.41484300  0.79790900  1
  O  O35  1  0.61026300  0.58515700  0.70209100  1
  O  O36  1  0.74096500  0.30177300  0.21064700  1
  O  O37  1  0.24096500  0.69822700  0.28935300  1
  O  O38  1  0.25903500  0.69822700  0.78935300  1
  O  O39  1  0.75903500  0.30177300  0.71064700  1
  O  O40  1  0.68556800  0.39922400  0.44591900  1
  O  O41  1  0.18556800  0.60077600  0.05408100  1
  O  O42  1  0.31443200  0.60077600  0.55408100  1
  O  O43  1  0.81443200  0.39922400  0.94591900  1
  O  O44  1  0.71891300  0.73156300  0.29555400  1
  O  O45  1  0.21891300  0.26843700  0.20444600  1
  O  O46  1  0.28108700  0.26843700  0.70444600  1
  O  O47  1  0.78108700  0.73156300  0.79555400  1
  O  O48  1  0.87182000  0.40680800  0.41607900  1
  O  O49  1  0.37182000  0.59319200  0.08392100  1
  O  O50  1  0.12818000  0.59319200  0.58392100  1
  O  O51  1  0.62818000  0.40680800  0.91607900  1
  O  O52  1  0.04683100  0.62419700  0.32190000  1
  O  O53  1  0.54683100  0.37580300  0.17810000  1
  O  O54  1  0.95316900  0.37580300  0.67810000  1
  O  O55  1  0.65601600  0.05172000  0.10190400  1
loop_
_geom_bond_atom_site_label_1
_geom_bond_atom_site_label_2
_geom_bond_distance
_geom_bond_site_symmetry_2
Ca0 O11 2.366989 1_565
Ca0 O21 2.368332 1_555
Ca0 O1 2.388781 1_555
Ca0 O24 2.545072 1_565
Ca0 O18 2.552037 1_555
Ca0 O5 2.680125 1_555
Ca0 O35 2.725675 1_555
Ca1 O43 2.354400 1_555
Ca1 O2 2.380542 1_656
Ca1 O4 2.381658 1_565
Ca1 O47 2.437917 1_555
Ca1 O14 2.451547 1_556
Ca1 O32 2.655209 1_556
Ca1 O25 2.859702 1_555
Ca2 O42 2.354400 1_555
Ca2 O3 2.380542 1_555
Ca2 O5 2.381658 1_545
Ca2 O46 2.437917 1_555
Ca2 O15 2.451547 1_555
Ca2 O33 2.655209 1_555
Ca2 O24 2.859702 1_555
Ca3 O41 2.354400 1_555
Ca3 O0 2.380542 1_454
Ca3 O6 2.381658 1_545
Ca3 O45 2.437917 1_555
Ca3 O12 2.451547 1_554
Ca3 O34 2.655209 1_554
Ca3 O27 2.859702 1_555
Ca4 O40 2.354400 1_555
Ca4 O1 2.380542 1_555
Ca4 O7 2.381658 1_565
Ca4 O44 2.437917 1_555
Ca4 O13 2.451547 1_555
Ca4 O35 2.655209 1_555
Ca4 O26 2.859702 1_555
Ca5 O8 2.366989 1_565
Ca5 O52 2.368332 1_655
Ca5 O2 2.388781 1_655
Ca5 O27 2.545072 1_665
Ca5 O17 2.552037 1_555
Ca5 O6 2.680125 1_655
Ca5 O32 2.725675 1_555
Ca6 O9 2.366989 1_545
Ca6 O53 2.368332 1_555
Ca6 O3 2.388781 1_555
Ca6 O26 2.545072 1_545
Ca6 O16 2.552037 1_555
Ca6 O7 2.680125 1_555
Ca6 O33 2.725675 1_555
Ca7 O10 2.366989 1_545
Ca7 O54 2.368332 1_455
Ca7 O0 2.388781 1_455
Ca7 O25 2.545072 1_445
Ca7 O19 2.552037 1_555
Ca7 O4 2.680125 1_455
Ca7 O34 2.725675 1_555
Co0 O36 1.931047 1_555
Co0 O51 1.996820 1_554
Co0 O53 2.001643 1_555
Co0 O55 2.083256 1_555
Co0 O14 2.603328 1_555
Co1 O37 1.931047 1_555
Co1 O50 1.996820 1_555
Co1 O52 2.001643 1_555
Co1 O23 2.083256 1_555
Co1 O15 2.603328 1_555
Co2 O38 1.931047 1_555
Co2 O49 1.996820 1_556
Co2 O21 2.001643 1_555
Co2 O20 2.083256 1_555
Co2 O12 2.603328 1_555
Co3 O39 1.931047 1_555
Co3 O48 1.996820 1_555
Co3 O54 2.001643 1_555
Co3 O22 2.083256 1_555
Co3 O13 2.603328 1_555
Co4 O44 2.010479 1_545
Co4 O36 2.077379 1_555
Co4 O8 2.142195 1_555
Co4 O7 2.167484 1_555
Co4 O55 2.178760 1_555
Co4 O17 2.219832 1_545
Co5 O45 2.010479 1_565
Co5 O37 2.077379 1_555
Co5 O9 2.142195 1_555
Co5 O6 2.167484 1_555
Co5 O23 2.178760 1_555
Co5 O16 2.219832 1_565
Co6 O46 2.010478 1_565
Co6 O38 2.077379 1_555
Co6 O10 2.142203 1_555
Co6 O5 2.167476 1_555
Co6 O20 2.178769 1_555
Co6 O19 2.219825 1_565
Co7 O47 2.010478 1_545
Co7 O39 2.077379 1_555
Co7 O11 2.142203 1_555
Co7 O4 2.167476 1_555
Co7 O22 2.178769 1_555
Co7 O18 2.219825 1_545
Mo0 O0 1.850732 1_555
Mo0 O8 1.854434 1_556
Mo0 O43 1.879638 1_555
Mo0 O4 1.885358 1_555
Mo1 O25 1.795620 1_455
Mo1 O54 1.891479 1_455
Mo1 O34 1.969046 1_555
Mo1 O50 2.018025 1_555
Mo1 O29 2.145834 1_455
Mo2 O26 1.795620 1_555
Mo2 O53 1.891479 1_555
Mo2 O33 1.969046 1_555
Mo2 O49 2.018025 1_555
Mo2 O30 2.145834 1_555
Mo3 O27 1.795620 1_655
Mo3 O52 1.891479 1_655
Mo3 O32 1.969046 1_555
Mo3 O48 2.018025 1_555
Mo3 O31 2.145834 1_655
Mo4 O47 1.893808 1_555
Mo4 O39 1.962954 1_555
Mo4 O51 2.010086 1_555
Mo4 O35 2.130267 1_555
Mo4 O43 2.184152 1_555
Mo5 O46 1.893808 1_555
Mo5 O38 1.962954 1_555
Mo5 O50 2.010086 1_555
Mo5 O34 2.130267 1_555
Mo5 O42 2.184152 1_555
Mo6 O45 1.893808 1_555
Mo6 O37 1.962954 1_555
Mo6 O49 2.010086 1_555
Mo6 O33 2.130267 1_555
Mo6 O41 2.184152 1_555
Mo7 O44 1.893808 1_555
Mo7 O36 1.962954 1_555
Mo7 O48 2.010086 1_555
Mo7 O32 2.130267 1_555
Mo7 O40 2.184152 1_555
Mo8 O24 1.795620 1_555
Mo8 O21 1.891479 1_555
Mo8 O35 1.969046 1_555
Mo8 O51 2.018025 1_555
Mo8 O28 2.145834 1_555
Mo9 O15 1.778679 1_555
Mo9 O31 1.801398 1_555
Mo9 O19 1.801487 1_555
Mo9 O23 1.820662 1_545
Mo10 O14 1.778679 1_555
Mo10 O30 1.801398 1_555
Mo10 O18 1.801487 1_554
Mo10 O55 1.820662 1_565
Mo11 O13 1.778679 1_555
Mo11 O29 1.801398 1_555
Mo11 O17 1.801487 1_555
Mo11 O22 1.820662 1_565
Mo12 O1 1.850732 1_555
Mo12 O9 1.854434 1_555
Mo12 O42 1.879638 1_555
Mo12 O5 1.885358 1_555
Mo13 O3 1.850732 1_555
Mo13 O11 1.854434 1_555
Mo13 O40 1.879638 1_555
Mo13 O7 1.885358 1_555
Mo14 O2 1.850732 1_555
Mo14 O10 1.854434 1_554
Mo14 O41 1.879638 1_555
Mo14 O6 1.885358 1_555
Mo15 O12 1.778679 1_555
Mo15 O28 1.801398 1_555
Mo15 O16 1.801487 1_556
Mo15 O20 1.820662 1_545
