# generated using pymatgen
data_BaTl(BiO3)2
_symmetry_space_group_name_H-M   'P 1'
_cell_length_a   4.00694368
_cell_length_b   4.00929706
_cell_length_c   23.96861810
_cell_angle_alpha   94.78915996
_cell_angle_beta   94.77953627
_cell_angle_gamma   89.91402533
_symmetry_Int_Tables_number   1
_chemical_formula_structural   BaTl(BiO3)2
_chemical_formula_sum   'Ba2 Tl2 Bi4 O12'
_cell_volume   382.37209069
_cell_formula_units_Z   2
loop_
 _symmetry_equiv_pos_site_id
 _symmetry_equiv_pos_as_xyz
  1  'x, y, z'
loop_
 _atom_site_type_symbol
 _atom_site_label
 _atom_site_symmetry_multiplicity
 _atom_site_fract_x
 _atom_site_fract_y
 _atom_site_fract_z
 _atom_site_occupancy
  Ba  Ba0  1  0.16492700  0.16497900  0.33031900  1
  Ba  Ba1  1  0.83510100  0.83510800  0.66980500  1
  Tl  Tl0  1  0.72625100  0.72664100  0.45229000  1
  Tl  Tl1  1  0.27402700  0.27408100  0.54764500  1
  Bi  Bi0  1  0.53330600  0.53332400  0.06706200  1
  Bi  Bi1  1  0.39366600  0.39377400  0.78777200  1
  Bi  Bi2  1  0.60615200  0.60623000  0.21204100  1
  Bi  Bi3  1  0.46686900  0.46687500  0.93329700  1
  O  O0  1  0.37349500  0.87347200  0.74702600  1
  O  O1  1  0.54706500  0.04705000  0.09469000  1
  O  O2  1  0.23071300  0.22998900  0.46129100  1
  O  O3  1  0.95306600  0.45300500  0.90549700  1
  O  O4  1  0.76900300  0.76885400  0.53834300  1
  O  O5  1  0.12643000  0.62645500  0.25283500  1
  O  O6  1  0.62632200  0.12649100  0.25274700  1
  O  O7  1  0.31599400  0.31608000  0.63180200  1
  O  O8  1  0.87340800  0.37352000  0.74699600  1
  O  O9  1  0.04737700  0.54748400  0.09541900  1
  O  O10  1  0.45286300  0.95292100  0.90522800  1
  O  O11  1  0.68396200  0.68366700  0.36789400  1
loop_
_geom_bond_atom_site_label_1
_geom_bond_atom_site_label_2
_geom_bond_distance
_geom_bond_site_symmetry_2
Ba0 O5 2.723665 1_545
Ba0 O5 2.724209 1_555
Ba0 O6 2.724490 1_455
Ba0 O6 2.724491 1_555
Ba0 O11 2.968892 1_455
Ba0 O11 2.970910 1_545
Ba0 O11 2.973154 1_445
Ba0 O11 2.974759 1_555
Ba0 O2 3.117337 1_555
Ba1 O0 2.718728 1_655
Ba1 O0 2.718943 1_555
Ba1 O8 2.719048 1_565
Ba1 O8 2.719392 1_555
Ba1 O7 2.972699 1_655
Ba1 O7 2.973270 1_565
Ba1 O7 2.976273 1_665
Ba1 O7 2.977799 1_555
Ba1 O4 3.129002 1_555
Bi0 O1 2.109585 1_565
Bi0 O1 2.109913 1_555
Bi0 O9 2.113949 1_655
Bi0 O9 2.114263 1_555
Bi1 O8 2.226044 1_455
Bi1 O8 2.226295 1_555
Bi1 O0 2.226900 1_545
Bi1 O0 2.226936 1_555
Bi2 O5 2.226270 1_655
Bi2 O6 2.226410 1_565
Bi2 O5 2.226443 1_555
Bi2 O6 2.226597 1_555
Bi3 O3 2.109789 1_455
Bi3 O3 2.110033 1_555
Bi3 O10 2.112911 1_545
Bi3 O10 2.113176 1_555
O2 Tl1 2.055364 1_555
O4 Tl0 2.048196 1_555
O7 Tl1 2.003067 1_555
O11 Tl0 2.008759 1_555
