# generated using pymatgen
data_NaHfMg30O31
_symmetry_space_group_name_H-M   'P 1'
_cell_length_a   8.61818100
_cell_length_b   8.61818100
_cell_length_c   8.58422800
_cell_angle_alpha   90.00000000
_cell_angle_beta   90.00000000
_cell_angle_gamma   90.00000000
_symmetry_Int_Tables_number   1
_chemical_formula_structural   NaHfMg30O31
_chemical_formula_sum   'Na1 Hf1 Mg30 O31'
_cell_volume   637.57674179
_cell_formula_units_Z   1
loop_
 _symmetry_equiv_pos_site_id
 _symmetry_equiv_pos_as_xyz
  1  'x, y, z'
loop_
 _atom_site_type_symbol
 _atom_site_label
 _atom_site_symmetry_multiplicity
 _atom_site_fract_x
 _atom_site_fract_y
 _atom_site_fract_z
 _atom_site_occupancy
  Na  Na0  1  0.00000000  0.00000000  0.00417900  1
  Hf  Hf0  1  0.50000000  0.50000000  0.99980200  1
  Mg  Mg0  1  0.50000000  0.00000000  0.99904000  1
  Mg  Mg1  1  0.00000000  0.50000000  0.99904000  1
  Mg  Mg2  1  0.00000000  0.00000000  0.49642500  1
  Mg  Mg3  1  0.50000000  0.00000000  0.50116300  1
  Mg  Mg4  1  0.00000000  0.50000000  0.50116300  1
  Mg  Mg5  1  0.50000000  0.50000000  0.50047100  1
  Mg  Mg6  1  0.24138500  0.24138500  0.00029800  1
  Mg  Mg7  1  0.75861500  0.24138500  0.00029800  1
  Mg  Mg8  1  0.24138500  0.75861500  0.00029800  1
  Mg  Mg9  1  0.75861500  0.75861500  0.00029800  1
  Mg  Mg10  1  0.24812500  0.24812500  0.50018700  1
  Mg  Mg11  1  0.75187500  0.24812500  0.50018700  1
  Mg  Mg12  1  0.24812500  0.75187500  0.50018700  1
  Mg  Mg13  1  0.75187500  0.75187500  0.50018700  1
  Mg  Mg14  1  0.25157800  0.00000000  0.25061800  1
  Mg  Mg15  1  0.74842200  0.00000000  0.25061800  1
  Mg  Mg16  1  0.24453500  0.50000000  0.25610500  1
  Mg  Mg17  1  0.75546400  0.50000000  0.25610500  1
  Mg  Mg18  1  0.24642500  0.00000000  0.75011000  1
  Mg  Mg19  1  0.75357500  0.00000000  0.75011000  1
  Mg  Mg20  1  0.24342200  0.50000000  0.74436500  1
  Mg  Mg21  1  0.75657800  0.50000000  0.74436500  1
  Mg  Mg22  1  0.00000000  0.25157800  0.25061800  1
  Mg  Mg23  1  0.50000000  0.24453500  0.25610500  1
  Mg  Mg24  1  0.00000000  0.74842200  0.25061800  1
  Mg  Mg25  1  0.50000000  0.75546400  0.25610500  1
  Mg  Mg26  1  0.00000000  0.24642500  0.75011000  1
  Mg  Mg27  1  0.50000000  0.24342200  0.74436500  1
  Mg  Mg28  1  0.00000000  0.75357500  0.75011000  1
  Mg  Mg29  1  0.50000000  0.75657800  0.74436500  1
  O  O0  1  0.50000000  0.00000000  0.25196600  1
  O  O1  1  0.00000000  0.50000000  0.25196600  1
  O  O2  1  0.50000000  0.50000000  0.24874900  1
  O  O3  1  0.00000000  0.00000000  0.73608400  1
  O  O4  1  0.50000000  0.00000000  0.74859500  1
  O  O5  1  0.00000000  0.50000000  0.74859500  1
  O  O6  1  0.50000000  0.50000000  0.75143500  1
  O  O7  1  0.25245400  0.25245400  0.24946800  1
  O  O8  1  0.74754600  0.25245400  0.24946800  1
  O  O9  1  0.25245400  0.74754600  0.24946800  1
  O  O10  1  0.74754600  0.74754600  0.24946800  1
  O  O11  1  0.25070600  0.25070600  0.75085300  1
  O  O12  1  0.74929400  0.25070600  0.75085300  1
  O  O13  1  0.25070600  0.74929400  0.75085300  1
  O  O14  1  0.74929400  0.74929400  0.75085300  1
  O  O15  1  0.26463800  0.00000000  0.99989400  1
  O  O16  1  0.73536200  0.00000000  0.99989400  1
  O  O17  1  0.25513300  0.50000000  0.99987200  1
  O  O18  1  0.74486700  0.50000000  0.99987200  1
  O  O19  1  0.25389700  0.00000000  0.50064800  1
  O  O20  1  0.74610300  0.00000000  0.50064800  1
  O  O21  1  0.25154500  0.50000000  0.50041400  1
  O  O22  1  0.74845500  0.50000000  0.50041400  1
  O  O23  1  0.00000000  0.26463800  0.99989400  1
  O  O24  1  0.50000000  0.25513300  0.99987200  1
  O  O25  1  0.00000000  0.73536200  0.99989400  1
  O  O26  1  0.50000000  0.74486700  0.99987200  1
  O  O27  1  0.00000000  0.25389700  0.50064800  1
  O  O28  1  0.50000000  0.25154500  0.50041400  1
  O  O29  1  0.00000000  0.74610300  0.50064800  1
  O  O30  1  0.50000000  0.74845500  0.50041400  1
loop_
_geom_bond_atom_site_label_1
_geom_bond_atom_site_label_2
_geom_bond_distance
_geom_bond_site_symmetry_2
Na0 O23 2.280995 1_554
Na0 O15 2.280995 1_554
Na0 O16 2.280995 1_454
Na0 O25 2.280995 1_544
Na0 O3 2.301389 1_554
Hf0 O18 2.110308 1_555
Hf0 O26 2.110308 1_555
Hf0 O17 2.110308 1_555
Hf0 O24 2.110308 1_555
Hf0 O6 2.132039 1_555
Hf0 O2 2.137018 1_556
Mg0 O16 2.028406 1_555
Mg0 O15 2.028406 1_555
Mg0 O4 2.149877 1_555
Mg0 O0 2.171174 1_556
Mg0 O24 2.198794 1_555
Mg0 O26 2.198794 1_545
Mg1 O25 2.028406 1_555
Mg1 O23 2.028406 1_555
Mg1 O5 2.149877 1_555
Mg1 O1 2.171174 1_556
Mg1 O17 2.198794 1_555
Mg1 O18 2.198794 1_455
Mg2 O3 2.057287 1_555
Mg2 O19 2.188431 1_555
Mg2 O27 2.188431 1_555
Mg2 O29 2.188431 1_545
Mg2 O20 2.188431 1_455
Mg3 O20 2.120965 1_555
Mg3 O19 2.120965 1_555
Mg3 O4 2.124013 1_555
Mg3 O0 2.139164 1_555
Mg3 O28 2.167870 1_555
Mg3 O30 2.167870 1_545
Mg4 O29 2.120965 1_555
Mg4 O27 2.120965 1_555
Mg4 O5 2.124013 1_555
Mg4 O1 2.139164 1_555
Mg4 O21 2.167870 1_555
Mg4 O22 2.167870 1_455
Mg5 O30 2.141230 1_555
Mg5 O28 2.141230 1_555
Mg5 O22 2.141230 1_555
Mg5 O21 2.141230 1_555
Mg5 O6 2.154332 1_555
Mg5 O2 2.160839 1_555
Mg6 O15 2.089933 1_554
Mg6 O23 2.089933 1_554
Mg6 O7 2.143182 1_555
Mg6 O11 2.144304 1_554
Mg6 O24 2.231941 1_554
Mg6 O17 2.231941 1_554
Mg7 O23 2.089933 1_654
Mg7 O16 2.089933 1_554
Mg7 O8 2.143182 1_555
Mg7 O12 2.144304 1_554
Mg7 O24 2.231941 1_554
Mg7 O18 2.231941 1_554
Mg8 O15 2.089933 1_564
Mg8 O25 2.089933 1_554
Mg8 O9 2.143182 1_555
Mg8 O13 2.144304 1_554
Mg8 O26 2.231941 1_554
Mg8 O17 2.231941 1_554
Mg9 O16 2.089933 1_564
Mg9 O25 2.089933 1_654
Mg9 O10 2.143182 1_555
Mg9 O14 2.144304 1_554
Mg9 O26 2.231941 1_554
Mg9 O18 2.231941 1_554
Mg10 O27 2.138968 1_555
Mg10 O19 2.138968 1_555
Mg10 O11 2.152004 1_555
Mg10 O7 2.152876 1_555
Mg10 O21 2.170905 1_555
Mg10 O28 2.170905 1_555
Mg11 O20 2.138968 1_555
Mg11 O27 2.138968 1_655
Mg11 O12 2.152004 1_555
Mg11 O8 2.152876 1_555
Mg11 O22 2.170905 1_555
Mg11 O28 2.170905 1_555
Mg12 O29 2.138968 1_555
Mg12 O19 2.138968 1_565
Mg12 O13 2.152004 1_555
Mg12 O9 2.152876 1_555
Mg12 O21 2.170905 1_555
Mg12 O30 2.170905 1_555
Mg13 O29 2.138968 1_655
Mg13 O20 2.138968 1_565
Mg13 O14 2.152004 1_555
Mg13 O10 2.152876 1_555
Mg13 O22 2.170905 1_555
Mg13 O30 2.170905 1_555
Mg14 O0 2.140977 1_555
Mg14 O19 2.146408 1_555
Mg14 O15 2.155213 1_554
Mg14 O9 2.175730 1_545
Mg14 O7 2.175730 1_555
Mg15 O0 2.140977 1_555
Mg15 O20 2.146408 1_555
Mg15 O16 2.155213 1_554
Mg15 O10 2.175730 1_545
Mg15 O8 2.175730 1_555
Mg16 O21 2.098074 1_555
Mg16 O1 2.107746 1_555
Mg16 O7 2.135248 1_555
Mg16 O9 2.135248 1_555
Mg16 O17 2.201458 1_554
Mg16 O2 2.202549 1_555
Mg17 O22 2.098074 1_555
Mg17 O1 2.107755 1_655
Mg17 O8 2.135248 1_555
Mg17 O10 2.135248 1_555
Mg17 O18 2.201458 1_554
Mg17 O2 2.202540 1_555
Mg18 O3 2.127146 1_555
Mg18 O19 2.142407 1_555
Mg18 O15 2.149940 1_555
Mg18 O11 2.160954 1_555
Mg18 O13 2.160954 1_545
Mg18 O4 2.185394 1_555
Mg19 O3 2.127146 1_655
Mg19 O20 2.142407 1_555
Mg19 O16 2.149940 1_555
Mg19 O14 2.160954 1_545
Mg19 O12 2.160954 1_555
Mg19 O4 2.185394 1_555
Mg20 O21 2.095301 1_555
Mg20 O5 2.098169 1_555
Mg20 O13 2.150099 1_555
Mg20 O11 2.150099 1_555
Mg20 O17 2.195651 1_555
Mg20 O6 2.212068 1_555
Mg21 O22 2.095301 1_555
Mg21 O5 2.098169 1_655
Mg21 O14 2.150099 1_555
Mg21 O12 2.150099 1_555
Mg21 O18 2.195651 1_555
Mg21 O6 2.212068 1_555
Mg22 O1 2.140977 1_555
Mg22 O27 2.146408 1_555
Mg22 O23 2.155213 1_554
Mg22 O8 2.175730 1_455
Mg22 O7 2.175730 1_555
Mg23 O28 2.098074 1_555
Mg23 O0 2.107746 1_555
Mg23 O7 2.135248 1_555
Mg23 O8 2.135248 1_555
Mg23 O24 2.201458 1_554
Mg23 O2 2.202549 1_555
Mg24 O1 2.140977 1_555
Mg24 O29 2.146408 1_555
Mg24 O25 2.155213 1_554
Mg24 O10 2.175730 1_455
Mg24 O9 2.175730 1_555
Mg25 O30 2.098074 1_555
Mg25 O0 2.107755 1_565
Mg25 O9 2.135248 1_555
Mg25 O10 2.135248 1_555
Mg25 O26 2.201458 1_554
Mg25 O2 2.202540 1_555
Mg26 O3 2.127146 1_555
Mg26 O27 2.142407 1_555
Mg26 O23 2.149940 1_555
Mg26 O12 2.160954 1_455
Mg26 O11 2.160954 1_555
Mg26 O5 2.185394 1_555
Mg27 O28 2.095301 1_555
Mg27 O4 2.098169 1_555
Mg27 O12 2.150099 1_555
Mg27 O11 2.150099 1_555
Mg27 O24 2.195651 1_555
Mg27 O6 2.212068 1_555
Mg28 O3 2.127146 1_565
Mg28 O29 2.142407 1_555
Mg28 O25 2.149940 1_555
Mg28 O14 2.160954 1_455
Mg28 O13 2.160954 1_555
Mg28 O5 2.185394 1_555
Mg29 O30 2.095301 1_555
Mg29 O4 2.098169 1_565
Mg29 O14 2.150099 1_555
Mg29 O13 2.150099 1_555
Mg29 O26 2.195651 1_555
Mg29 O6 2.212068 1_555
