# generated using pymatgen
data_NaLa2Ti2MnO9
_symmetry_space_group_name_H-M   'P 1'
_cell_length_a   5.53987047
_cell_length_b   5.53987047
_cell_length_c   13.58668554
_cell_angle_alpha   89.61971560
_cell_angle_beta   89.61971560
_cell_angle_gamma   60.12839309
_symmetry_Int_Tables_number   1
_chemical_formula_structural   NaLa2Ti2MnO9
_chemical_formula_sum   'Na2 La4 Ti4 Mn2 O18'
_cell_volume   361.56886940
_cell_formula_units_Z   2
loop_
 _symmetry_equiv_pos_site_id
 _symmetry_equiv_pos_as_xyz
  1  'x, y, z'
loop_
 _atom_site_type_symbol
 _atom_site_label
 _atom_site_symmetry_multiplicity
 _atom_site_fract_x
 _atom_site_fract_y
 _atom_site_fract_z
 _atom_site_occupancy
  Na  Na0  1  0.16748100  0.16748100  0.91719500  1
  Na  Na1  1  0.83385900  0.83385900  0.58470300  1
  La  La0  1  0.49723600  0.49723600  0.74773700  1
  La  La1  1  0.16361300  0.16361300  0.41771600  1
  La  La2  1  0.82992300  0.82992300  0.07706200  1
  La  La3  1  0.50299300  0.50299300  0.25078500  1
  Ti  Ti0  1  0.50204000  0.50204000  0.99742600  1
  Ti  Ti1  1  0.50444300  0.50444300  0.50274000  1
  Ti  Ti2  1  0.16830300  0.16830300  0.66747800  1
  Ti  Ti3  1  0.83597300  0.83597300  0.83241900  1
  Mn  Mn0  1  0.83188500  0.83188500  0.33619200  1
  Mn  Mn1  1  0.16461100  0.16461100  0.16427700  1
  O  O0  1  0.64211500  0.64211500  0.89160100  1
  O  O1  1  0.02742100  0.51886900  0.73957100  1
  O  O2  1  0.13884600  0.64688300  0.92823100  1
  O  O3  1  0.30850400  0.30850400  0.56073200  1
  O  O4  1  0.69067400  0.20498200  0.40349200  1
  O  O5  1  0.80861900  0.31164400  0.59716600  1
  O  O6  1  0.51886900  0.02742100  0.73957100  1
  O  O7  1  0.64688300  0.13884600  0.92823100  1
  O  O8  1  0.97447800  0.97447800  0.22515800  1
  O  O9  1  0.01870300  0.01870300  0.77057400  1
  O  O10  1  0.36932300  0.84201300  0.07230800  1
  O  O11  1  0.47228200  0.97718300  0.26393300  1
  O  O12  1  0.20498200  0.69067400  0.40349200  1
  O  O13  1  0.31164400  0.80861900  0.59716600  1
  O  O14  1  0.68453700  0.68453700  0.44138200  1
  O  O15  1  0.84201300  0.36932300  0.07230800  1
  O  O16  1  0.97718300  0.47228200  0.26393300  1
  O  O17  1  0.36034800  0.36034800  0.10560300  1
loop_
_geom_bond_atom_site_label_1
_geom_bond_atom_site_label_2
_geom_bond_distance
_geom_bond_site_symmetry_2
Na0 O9 2.459138 1_555
Na0 O2 2.585799 1_555
Na0 O7 2.585799 1_555
Na0 O10 2.629694 1_546
Na0 O15 2.629694 1_456
Na0 O0 2.807797 1_545
Na0 O0 2.807797 1_455
Na0 O1 2.945084 1_555
Na0 O6 2.945084 1_555
Na0 O7 2.969014 1_455
Na0 O2 2.969014 1_545
Na1 O14 2.425865 1_555
Na1 O13 2.586716 1_655
Na1 O5 2.586716 1_565
Na1 O6 2.596073 1_565
Na1 O1 2.596073 1_655
Na1 O3 2.805127 1_655
Na1 O3 2.805127 1_565
La0 O0 2.406719 1_555
La0 O13 2.536201 1_555
La0 O5 2.536201 1_555
La0 O6 2.548282 1_555
La0 O1 2.548282 1_555
La0 O9 2.800351 1_655
La0 O9 2.800351 1_565
La0 O2 2.994304 1_555
La0 O7 2.994304 1_555
La0 O6 2.999948 1_565
La0 O1 2.999948 1_655
La0 O3 3.130713 1_555
La1 O3 2.397388 1_555
La1 O12 2.522378 1_545
La1 O4 2.522378 1_455
La1 O11 2.564825 1_545
La1 O16 2.564825 1_455
La2 O8 2.452119 1_555
La2 O7 2.509722 1_564
La2 O2 2.509722 1_654
La2 O15 2.520226 1_555
La2 O10 2.520226 1_555
La2 O17 2.817723 1_655
La2 O17 2.817723 1_565
La3 O17 2.409003 1_555
La3 O12 2.526790 1_555
La3 O4 2.526790 1_555
La3 O11 2.553890 1_555
La3 O16 2.553890 1_555
Mn0 O11 1.999649 1_555
Mn0 O16 1.999649 1_555
Mn0 O14 2.001996 1_555
Mn0 O8 2.028253 1_555
Mn0 O12 2.031044 1_655
Mn0 O4 2.031044 1_565
Mn1 O8 1.996289 1_445
Mn1 O15 2.008323 1_455
Mn1 O10 2.008323 1_545
Mn1 O16 2.016349 1_455
Mn1 O11 2.016349 1_545
Mn1 O17 2.033589 1_555
O0 Ti0 1.960065 1_555
O0 Ti3 2.019714 1_555
O1 Ti2 1.961001 1_555
O1 Ti3 1.989476 1_455
O2 Ti3 1.966541 1_455
O2 Ti0 1.995726 1_555
O3 Ti2 1.970015 1_555
O3 Ti1 2.031825 1_555
O4 Ti1 1.985254 1_555
O5 Ti1 1.960599 1_555
O5 Ti2 1.988138 1_655
O6 Ti2 1.961001 1_555
O6 Ti3 1.989476 1_545
O7 Ti3 1.966541 1_545
O7 Ti0 1.995726 1_555
O9 Ti3 1.937459 1_445
O9 Ti2 1.997278 1_555
O10 Ti0 1.938821 1_554
O12 Ti1 1.985254 1_555
O13 Ti1 1.960599 1_555
O13 Ti2 1.988138 1_565
O14 Ti1 1.911865 1_555
O15 Ti0 1.938821 1_554
O17 Ti0 1.993905 1_554
