# generated using pymatgen
data_TiO2
_symmetry_space_group_name_H-M   'P 1'
_cell_length_a   5.18453400
_cell_length_b   5.98792700
_cell_length_c   10.67579700
_cell_angle_alpha   90.00000000
_cell_angle_beta   90.00000000
_cell_angle_gamma   90.00000000
_symmetry_Int_Tables_number   1
_chemical_formula_structural   TiO2
_chemical_formula_sum   'Ti8 O16'
_cell_volume   331.42596627
_cell_formula_units_Z   8
loop_
 _symmetry_equiv_pos_site_id
 _symmetry_equiv_pos_as_xyz
  1  'x, y, z'
loop_
 _atom_site_type_symbol
 _atom_site_label
 _atom_site_symmetry_multiplicity
 _atom_site_fract_x
 _atom_site_fract_y
 _atom_site_fract_z
 _atom_site_occupancy
  Ti  Ti0  1  0.49320100  0.50000000  0.23715500  1
  Ti  Ti1  1  0.49320100  0.50000000  0.76284500  1
  Ti  Ti2  1  0.50679900  0.00000000  0.26284500  1
  Ti  Ti3  1  0.50679900  0.00000000  0.73715500  1
  Ti  Ti4  1  0.00000000  0.25000000  0.25000000  1
  Ti  Ti5  1  0.00000000  0.75000000  0.75000000  1
  Ti  Ti6  1  0.00000000  0.75000000  0.25000000  1
  Ti  Ti7  1  0.00000000  0.25000000  0.75000000  1
  O  O0  1  0.83281800  0.50000000  0.15756100  1
  O  O1  1  0.83281800  0.50000000  0.84243900  1
  O  O2  1  0.16718200  0.00000000  0.34243900  1
  O  O3  1  0.16718200  0.00000000  0.65756100  1
  O  O4  1  0.16650000  0.50000000  0.33888900  1
  O  O5  1  0.16650000  0.50000000  0.66111100  1
  O  O6  1  0.83350000  0.00000000  0.16111100  1
  O  O7  1  0.83350000  0.00000000  0.83888900  1
  O  O8  1  0.66692100  0.25028100  0.34139500  1
  O  O9  1  0.66692100  0.74971900  0.65860500  1
  O  O10  1  0.33307900  0.75028100  0.15860500  1
  O  O11  1  0.33307900  0.24971900  0.84139500  1
  O  O12  1  0.33307900  0.24971900  0.15860500  1
  O  O13  1  0.33307900  0.75028100  0.84139500  1
  O  O14  1  0.66692100  0.74971900  0.34139500  1
  O  O15  1  0.66692100  0.25028100  0.65860500  1
loop_
_geom_bond_atom_site_label_1
_geom_bond_atom_site_label_2
_geom_bond_distance
_geom_bond_site_symmetry_2
O0 Ti0 1.955071 1_555
O0 Ti6 1.991512 1_655
O0 Ti4 1.991512 1_655
O1 Ti1 1.955071 1_555
O1 Ti5 1.991512 1_655
O1 Ti7 1.991512 1_655
O2 Ti2 1.955071 1_555
O2 Ti4 1.991512 1_555
O2 Ti6 1.991512 1_545
O3 Ti3 1.955071 1_555
O3 Ti5 1.991512 1_545
O3 Ti7 1.991512 1_555
O4 Ti6 1.971456 1_555
O4 Ti4 1.971456 1_555
O4 Ti0 2.012095 1_555
O5 Ti5 1.971456 1_555
O5 Ti7 1.971456 1_555
O5 Ti1 2.012095 1_555
O6 Ti4 1.971456 1_655
O6 Ti6 1.971456 1_645
O6 Ti2 2.012095 1_555
O7 Ti7 1.971456 1_655
O7 Ti5 1.971456 1_645
O7 Ti3 2.012095 1_555
O8 Ti2 1.907454 1_555
O8 Ti4 1.983448 1_655
O8 Ti0 2.070151 1_555
O9 Ti3 1.907454 1_565
O9 Ti5 1.983448 1_655
O9 Ti1 2.070151 1_555
O10 Ti0 1.907454 1_555
O10 Ti6 1.983448 1_555
O10 Ti2 2.070151 1_565
O11 Ti1 1.907454 1_555
O11 Ti7 1.983448 1_555
O11 Ti3 2.070151 1_555
O12 Ti0 1.907454 1_555
O12 Ti4 1.983448 1_555
O12 Ti2 2.070151 1_555
O13 Ti1 1.907454 1_555
O13 Ti5 1.983448 1_555
O13 Ti3 2.070151 1_565
O14 Ti2 1.907454 1_565
O14 Ti6 1.983448 1_655
O14 Ti0 2.070151 1_555
O15 Ti3 1.907454 1_555
O15 Ti7 1.983448 1_655
O15 Ti1 2.070151 1_555
