# generated using pymatgen
data_MnZn3(CrSe2)8
_symmetry_space_group_name_H-M   'P 1'
_cell_length_a   13.01324690
_cell_length_b   13.01324690
_cell_length_c   13.01324732
_cell_angle_alpha   33.57616410
_cell_angle_beta   33.57616410
_cell_angle_gamma   33.57616657
_symmetry_Int_Tables_number   1
_chemical_formula_structural   MnZn3(CrSe2)8
_chemical_formula_sum   'Mn1 Zn3 Cr8 Se16'
_cell_volume   600.39127687
_cell_formula_units_Z   1
loop_
 _symmetry_equiv_pos_site_id
 _symmetry_equiv_pos_as_xyz
  1  'x, y, z'
loop_
 _atom_site_type_symbol
 _atom_site_label
 _atom_site_symmetry_multiplicity
 _atom_site_fract_x
 _atom_site_fract_y
 _atom_site_fract_z
 _atom_site_occupancy
  Mn  Mn0  1  0.43748200  0.43748200  0.43748200  1
  Zn  Zn0  1  0.93752300  0.93752300  0.93752300  1
  Zn  Zn1  1  0.06248900  0.06248900  0.06248900  1
  Zn  Zn2  1  0.56251100  0.56251100  0.56251100  1
  Cr  Cr0  1  0.74993700  0.74993700  0.74993700  1
  Cr  Cr1  1  0.25002700  0.25002700  0.25002700  1
  Cr  Cr2  1  0.00009600  0.00009600  0.50018000  1
  Cr  Cr3  1  0.50002700  0.50002700  0.99961200  1
  Cr  Cr4  1  0.00009600  0.50018000  0.00009600  1
  Cr  Cr5  1  0.50002700  0.99961200  0.50002700  1
  Cr  Cr6  1  0.50018000  0.00009600  0.00009600  1
  Cr  Cr7  1  0.99961200  0.50002700  0.50002700  1
  Se  Se0  1  0.36997900  0.36997900  0.36997900  1
  Se  Se1  1  0.86988300  0.86988300  0.86988300  1
  Se  Se2  1  0.64014500  0.64014500  0.09973900  1
  Se  Se3  1  0.14033200  0.14033200  0.59943600  1
  Se  Se4  1  0.64014500  0.09973900  0.64014500  1
  Se  Se5  1  0.14033200  0.59943600  0.14033200  1
  Se  Se6  1  0.09973900  0.64014500  0.64014500  1
  Se  Se7  1  0.59943600  0.14033200  0.14033200  1
  Se  Se8  1  0.13006000  0.13006000  0.13006000  1
  Se  Se9  1  0.63007100  0.63007100  0.63007100  1
  Se  Se10  1  0.85977900  0.85977900  0.40031700  1
  Se  Se11  1  0.35978000  0.35978000  0.90043900  1
  Se  Se12  1  0.85977900  0.40031700  0.85977900  1
  Se  Se13  1  0.35978000  0.90043900  0.35978000  1
  Se  Se14  1  0.40031700  0.85977900  0.85977900  1
  Se  Se15  1  0.90043900  0.35978000  0.35978000  1
loop_
_geom_bond_atom_site_label_1
_geom_bond_atom_site_label_2
_geom_bond_distance
_geom_bond_site_symmetry_2
Mn0 Se0 2.484415 1_555
Mn0 Se2 2.487661 1_555
Mn0 Se4 2.487661 1_555
Mn0 Se6 2.487661 1_555
Cr0 Se14 2.552957 1_555
Cr0 Se12 2.552957 1_555
Cr0 Se10 2.552957 1_555
Cr0 Se4 2.555566 1_565
Cr0 Se6 2.555566 1_655
Cr0 Se2 2.555566 1_556
Cr1 Se7 2.552380 1_555
Cr1 Se5 2.552380 1_555
Cr1 Se3 2.552380 1_555
Cr1 Se13 2.553666 1_545
Cr1 Se15 2.553666 1_455
Cr1 Se11 2.553666 1_554
Cr2 Se1 2.550462 1_445
Cr2 Se13 2.551876 1_545
Cr2 Se15 2.551876 1_455
Cr2 Se4 2.556994 1_455
Cr2 Se6 2.556994 1_545
Cr2 Se8 2.556999 1_555
Cr3 Se9 2.550376 1_555
Cr3 Se7 2.551741 1_556
Cr3 Se5 2.551741 1_556
Cr3 Se12 2.555182 1_555
Cr3 Se14 2.555182 1_555
Cr3 Se0 2.558731 1_556
Cr4 Se1 2.550462 1_454
Cr4 Se11 2.551876 1_554
Cr4 Se15 2.551876 1_455
Cr4 Se2 2.556994 1_455
Cr4 Se6 2.556994 1_554
Cr4 Se8 2.556999 1_555
Cr5 Se9 2.550376 1_555
Cr5 Se3 2.551741 1_565
Cr5 Se7 2.551741 1_565
Cr5 Se10 2.555182 1_555
Cr5 Se14 2.555182 1_555
Cr5 Se0 2.558731 1_565
Cr6 Se1 2.550462 1_544
Cr6 Se11 2.551876 1_554
Cr6 Se13 2.551876 1_545
Cr6 Se2 2.556994 1_545
Cr6 Se4 2.556994 1_554
Cr6 Se8 2.556999 1_555
Cr7 Se9 2.550376 1_555
Cr7 Se3 2.551741 1_655
Cr7 Se5 2.551741 1_655
Cr7 Se10 2.555182 1_555
Cr7 Se12 2.555182 1_555
Cr7 Se0 2.558731 1_655
Se1 Zn0 2.489457 1_555
Se3 Zn0 2.489454 1_445
Se5 Zn0 2.489454 1_454
Se7 Zn0 2.489454 1_544
Se8 Zn1 2.486918 1_555
Se9 Zn2 2.486513 1_555
Se10 Zn1 2.488238 1_665
Se11 Zn2 2.488496 1_555
Se12 Zn1 2.488238 1_656
Se13 Zn2 2.488496 1_555
Se14 Zn1 2.488238 1_566
Se15 Zn2 2.488496 1_555
