# generated using pymatgen
data_BaGaCu2
_symmetry_space_group_name_H-M   'P 1'
_cell_length_a   4.27873106
_cell_length_b   4.27872964
_cell_length_c   6.21196988
_cell_angle_alpha   69.85518543
_cell_angle_beta   69.85518357
_cell_angle_gamma   59.99999522
_symmetry_Int_Tables_number   1
_chemical_formula_structural   BaGaCu2
_chemical_formula_sum   'Ba1 Ga1 Cu2'
_cell_volume   90.36680556
_cell_formula_units_Z   1
loop_
 _symmetry_equiv_pos_site_id
 _symmetry_equiv_pos_as_xyz
  1  'x, y, z'
loop_
 _atom_site_type_symbol
 _atom_site_label
 _atom_site_symmetry_multiplicity
 _atom_site_fract_x
 _atom_site_fract_y
 _atom_site_fract_z
 _atom_site_occupancy
  Ba  Ba0  1  0.00000000  0.00000000  -0.00000000  1
  Ga  Ga0  1  0.50000000  0.50000000  0.50000000  1
  Cu  Cu0  1  0.81447532  0.81447532  0.55657504  1
  Cu  Cu1  1  0.18552468  0.18552468  0.44342496  1
loop_
_geom_bond_atom_site_label_1
_geom_bond_atom_site_label_2
_geom_bond_distance
_geom_bond_site_symmetry_2
Ba0 Cu0 3.172285 1_445
Ba0 Cu1 3.172285 1_554
Ba0 Cu1 3.534133 1_555
Ba0 Cu0 3.534133 1_444
Ba0 Cu1 3.534135 1_545
Ba0 Cu0 3.534135 1_454
Ba0 Cu0 3.534135 1_544
Ba0 Cu1 3.534135 1_455
Cu0 Ga0 2.491281 1_565
Cu0 Ga0 2.491282 1_655
Cu0 Ga0 2.491285 1_555
Cu0 Cu1 2.553116 1_665
Cu0 Cu1 2.553123 1_655
Cu0 Cu1 2.553124 1_565
Cu1 Ga0 2.491281 1_545
Cu1 Ga0 2.491282 1_455
Cu1 Ga0 2.491285 1_555
