# generated using pymatgen
data_Li5NiOF5
_symmetry_space_group_name_H-M   'P 1'
_cell_length_a   5.49501522
_cell_length_b   15.57694599
_cell_length_c   6.34044759
_cell_angle_alpha   95.84844422
_cell_angle_beta   89.99994396
_cell_angle_gamma   100.09522666
_symmetry_Int_Tables_number   1
_chemical_formula_structural   Li5NiOF5
_chemical_formula_sum   'Li20 Ni4 O4 F20'
_cell_volume   531.44218820
_cell_formula_units_Z   4
loop_
 _symmetry_equiv_pos_site_id
 _symmetry_equiv_pos_as_xyz
  1  'x, y, z'
loop_
 _atom_site_type_symbol
 _atom_site_label
 _atom_site_symmetry_multiplicity
 _atom_site_fract_x
 _atom_site_fract_y
 _atom_site_fract_z
 _atom_site_occupancy
  Li  Li0  1  0.50251800  0.33829900  0.58473000  1
  Li  Li1  1  0.00252200  0.33831000  0.33450100  1
  Li  Li2  1  0.50249500  0.33829000  0.08474700  1
  Li  Li3  1  0.00251900  0.33830900  0.83450600  1
  Li  Li4  1  0.66444900  0.66208200  0.66558100  1
  Li  Li5  1  0.16435200  0.66210900  0.41535500  1
  Li  Li6  1  0.66449100  0.66207800  0.16548400  1
  Li  Li7  1  0.16445200  0.66212800  0.91545000  1
  Li  Li8  1  0.91649100  0.50014600  0.62498800  1
  Li  Li9  1  0.41648800  0.50015000  0.37500400  1
  Li  Li10  1  0.91648100  0.50014200  0.12497400  1
  Li  Li11  1  0.41647400  0.50014000  0.87500500  1
  Li  Li12  1  0.75551200  0.17674100  0.54363700  1
  Li  Li13  1  0.25567800  0.17671800  0.29461700  1
  Li  Li14  1  0.75564400  0.17672700  0.04340500  1
  Li  Li15  1  0.25547200  0.17672500  0.79446500  1
  Li  Li16  1  0.07914500  0.82489600  0.70545700  1
  Li  Li17  1  0.57900300  0.82478900  0.45710800  1
  Li  Li18  1  0.07906000  0.82519700  0.20524700  1
  Li  Li19  1  0.57922100  0.82507700  0.95743400  1
  Ni  Ni0  1  0.82814500  0.99149200  0.75257900  1
  Ni  Ni1  1  0.32782100  0.99155600  0.49337500  1
  Ni  Ni2  1  0.82779600  0.99166000  0.25290800  1
  Ni  Ni3  1  0.32813200  0.99169700  0.99316000  1
  O  O0  1  0.14382400  0.95547800  0.73516000  1
  O  O1  1  0.64353800  0.95546200  0.49286200  1
  O  O2  1  0.14429300  0.95599100  0.23533700  1
  O  O3  1  0.64439600  0.95587400  0.99276400  1
  F  F0  1  0.56445900  0.46234300  0.61553700  1
  F  F1  1  0.06446400  0.46235600  0.36551300  1
  F  F2  1  0.56444500  0.46234000  0.11554700  1
  F  F3  1  0.06444600  0.46233700  0.86550100  1
  F  F4  1  0.72665100  0.78626300  0.69732400  1
  F  F5  1  0.22642300  0.78630400  0.44577600  1
  F  F6  1  0.72671700  0.78623100  0.19721000  1
  F  F7  1  0.22668800  0.78630900  0.94598600  1
  F  F8  1  0.40423600  0.13996100  0.53548600  1
  F  F9  1  0.90417800  0.14002200  0.28444600  1
  F  F10  1  0.40429300  0.14007300  0.03536100  1
  F  F11  1  0.90416300  0.13987000  0.78427700  1
  F  F12  1  0.81703100  0.30059400  0.57495100  1
  F  F13  1  0.31699300  0.30059200  0.32529400  1
  F  F14  1  0.81704200  0.30060300  0.07492800  1
  F  F15  1  0.31698500  0.30057600  0.82524400  1
  F  F16  1  0.97883200  0.62427700  0.65601100  1
  F  F17  1  0.47881200  0.62430500  0.40611600  1
  F  F18  1  0.97880700  0.62424800  0.15598200  1
  F  F19  1  0.47878800  0.62426200  0.90610300  1
loop_
_geom_bond_atom_site_label_1
_geom_bond_atom_site_label_2
_geom_bond_distance
_geom_bond_site_symmetry_2
Li16 O0 1.991912 1_555
Li17 O1 1.993305 1_555
Li18 O2 1.995127 1_555
Li19 O3 1.995169 1_555
Ni0 O3 1.903231 1_555
Ni0 O0 1.914282 1_655
Ni0 O1 1.915148 1_555
Ni1 O2 1.902664 1_555
Ni1 O0 1.914322 1_555
Ni1 O1 1.915063 1_555
Ni2 O1 1.905906 1_555
Ni2 O3 1.913810 1_554
Ni2 O2 1.916226 1_655
Ni3 O0 1.905670 1_555
Ni3 O2 1.914344 1_556
Ni3 O3 1.916058 1_555
F0 Li0 1.892097 1_555
F0 Li9 1.919573 1_555
F0 Li11 1.919594 1_555
F0 Li8 1.919845 1_555
F1 Li1 1.892126 1_555
F1 Li10 1.919485 1_455
F1 Li8 1.919567 1_455
F1 Li9 1.919785 1_555
F2 Li2 1.892188 1_555
F2 Li9 1.919523 1_555
F2 Li11 1.919570 1_554
F2 Li10 1.919864 1_555
F3 Li3 1.891852 1_555
F3 Li8 1.919441 1_455
F3 Li10 1.919605 1_456
F3 Li11 1.919824 1_555
F4 Li4 1.894191 1_555
F4 Li17 1.922270 1_555
F4 Li16 1.923969 1_655
F4 Li19 1.926204 1_555
F5 Li5 1.894404 1_555
F5 Li16 1.922528 1_555
F5 Li17 1.924119 1_555
F5 Li18 1.925835 1_555
F6 Li6 1.893764 1_555
F6 Li19 1.921908 1_554
F6 Li18 1.923883 1_655
F6 Li17 1.924645 1_555
F7 Li7 1.894190 1_555
F7 Li18 1.922637 1_556
F7 Li16 1.924075 1_555
F7 Li19 1.924461 1_555
F8 Li12 1.913926 1_555
F8 Li15 1.914411 1_555
F8 Li13 1.915378 1_555
F8 Ni1 2.263950 1_545
F9 Li13 1.914946 1_655
F9 Li12 1.915065 1_555
F9 Li14 1.915850 1_555
F9 Ni2 2.263354 1_545
F10 Li14 1.914089 1_555
F10 Li13 1.914943 1_555
F10 Li15 1.915469 1_554
F10 Ni3 2.263508 1_544
F11 Li15 1.914238 1_655
F11 Li14 1.914964 1_556
F11 Li12 1.915230 1_555
F11 Ni0 2.263570 1_545
F12 Li12 1.889183 1_555
F12 Li1 1.918585 1_655
F12 Li0 1.919397 1_555
F12 Li3 1.919737 1_655
F13 Li13 1.889504 1_555
F13 Li2 1.919039 1_555
F13 Li0 1.919195 1_555
F13 Li1 1.919270 1_555
F14 Li14 1.889536 1_555
F14 Li3 1.918355 1_654
F14 Li2 1.919447 1_555
F14 Li1 1.919794 1_655
F15 Li15 1.889152 1_555
F15 Li0 1.919062 1_555
F15 Li3 1.919351 1_555
F15 Li2 1.919520 1_556
F16 Li8 1.893426 1_555
F16 Li4 1.919433 1_555
F16 Li7 1.919743 1_655
F16 Li5 1.920271 1_655
F17 Li9 1.893791 1_555
F17 Li4 1.919778 1_555
F17 Li5 1.919830 1_555
F17 Li6 1.920292 1_555
F18 Li10 1.893044 1_555
F18 Li5 1.919220 1_655
F18 Li6 1.919261 1_555
F18 Li7 1.920171 1_654
F19 Li11 1.893288 1_555
F19 Li6 1.919588 1_556
F19 Li7 1.919625 1_555
F19 Li4 1.919885 1_555
