# generated using pymatgen
data_Y2FeN3
_symmetry_space_group_name_H-M   'P 1'
_cell_length_a   5.87060928
_cell_length_b   10.58836569
_cell_length_c   11.35646827
_cell_angle_alpha   89.99999747
_cell_angle_beta   91.54996843
_cell_angle_gamma   154.39720502
_symmetry_Int_Tables_number   1
_chemical_formula_structural   Y2FeN3
_chemical_formula_sum   'Y8 Fe4 N12'
_cell_volume   304.45078845
_cell_formula_units_Z   4
loop_
 _symmetry_equiv_pos_site_id
 _symmetry_equiv_pos_as_xyz
  1  'x, y, z'
loop_
 _atom_site_type_symbol
 _atom_site_label
 _atom_site_symmetry_multiplicity
 _atom_site_fract_x
 _atom_site_fract_y
 _atom_site_fract_z
 _atom_site_occupancy
  Y  Y0  1  0.46749200  0.02648600  0.85233900  1
  Y  Y1  1  0.53250800  0.55899600  0.64766100  1
  Y  Y2  1  0.53250800  0.97351400  0.14766100  1
  Y  Y3  1  0.46749200  0.44100400  0.35233900  1
  Y  Y4  1  0.51808400  0.86369600  0.56360400  1
  Y  Y5  1  0.48191600  0.34561100  0.93639600  1
  Y  Y6  1  0.48191600  0.13630400  0.43639600  1
  Y  Y7  1  0.51808400  0.65438900  0.06360400  1
  Fe  Fe0  1  0.57082800  0.28171900  0.67605900  1
  Fe  Fe1  1  0.42917200  0.71089000  0.82394100  1
  Fe  Fe2  1  0.42917200  0.71828100  0.32394100  1
  Fe  Fe3  1  0.57082800  0.28911000  0.17605900  1
  N  N0  1  0.00000000  0.61548200  0.75000000  1
  N  N1  1  0.00000000  0.38451800  0.25000000  1
  N  N2  1  0.58434900  0.10838700  0.63201600  1
  N  N3  1  0.41565100  0.52403800  0.86798400  1
  N  N4  1  0.41565100  0.89161300  0.36798400  1
  N  N5  1  0.58434900  0.47596200  0.13201600  1
  N  N6  1  0.48718700  0.14490200  0.03300500  1
  N  N7  1  0.51281300  0.65771400  0.46699500  1
  N  N8  1  0.51281300  0.85509800  0.96699500  1
  N  N9  1  0.48718700  0.34228600  0.53300500  1
  N  N10  1  0.00000000  0.99678800  0.75000000  1
  N  N11  1  0.00000000  0.00321200  0.25000000  1
loop_
_geom_bond_atom_site_label_1
_geom_bond_atom_site_label_2
_geom_bond_distance
_geom_bond_site_symmetry_2
Fe0 N10 1.718836 1_545
Fe0 N0 1.835321 1_655
Fe0 N9 1.953577 1_555
Fe0 N2 1.972234 1_555
Fe1 N10 1.718836 1_655
Fe1 N0 1.835329 1_555
Fe1 N8 1.953577 1_555
Fe1 N3 1.972224 1_555
Fe2 N11 1.718836 1_665
Fe2 N1 1.835321 1_555
Fe2 N7 1.953577 1_555
Fe2 N4 1.972234 1_555
Fe3 N11 1.718836 1_555
Fe3 N1 1.835329 1_655
Fe3 N6 1.953577 1_555
Fe3 N5 1.972224 1_555
N0 Y0 2.471304 1_565
N0 Y1 2.471319 1_455
N0 Y4 2.563140 1_555
N0 Y5 2.563140 1_455
N1 Y2 2.471304 1_445
N1 Y3 2.471319 1_555
N1 Y6 2.563140 1_455
N1 Y7 2.563140 1_555
N2 Y6 2.373314 1_555
N2 Y4 2.373473 1_545
N2 Y1 2.413616 1_655
N2 Y0 2.550092 1_555
N2 Y1 2.696835 1_445
N3 Y7 2.373318 1_556
N3 Y5 2.373483 1_555
N3 Y0 2.413618 1_455
N3 Y1 2.550090 1_555
N3 Y0 2.696837 1_665
N4 Y4 2.373314 1_555
N4 Y6 2.373473 1_565
N4 Y3 2.413616 1_455
N4 Y2 2.550092 1_555
N4 Y3 2.696835 1_665
N5 Y5 2.373318 1_554
N5 Y7 2.373483 1_555
N5 Y2 2.413618 1_655
N5 Y3 2.550090 1_555
N5 Y2 2.696837 1_445
N6 Y0 2.349627 1_554
N6 Y5 2.416160 1_554
N6 Y2 2.431362 1_545
N6 Y7 2.505160 1_445
N6 Y7 2.617343 1_655
N7 Y1 2.349611 1_555
N7 Y4 2.416179 1_555
N7 Y3 2.431371 1_555
N7 Y6 2.505160 1_665
N7 Y6 2.617343 1_455
N8 Y2 2.349627 1_556
N8 Y7 2.416160 1_556
N8 Y0 2.431362 1_565
N8 Y5 2.505160 1_665
N8 Y5 2.617343 1_455
N9 Y3 2.349611 1_555
N9 Y6 2.416179 1_555
N9 Y1 2.431371 1_555
N9 Y4 2.505160 1_445
N9 Y4 2.617343 1_655
N10 Y5 2.637411 1_565
N10 Y4 2.637415 1_455
N10 Y1 2.693049 1_455
N10 Y0 2.693065 1_565
N11 Y7 2.637411 1_445
N11 Y6 2.637415 1_555
N11 Y3 2.693049 1_555
N11 Y2 2.693065 1_445
