# generated using pymatgen
data_Sc2ZnIn
_symmetry_space_group_name_H-M   'P 1'
_cell_length_a   4.88023920
_cell_length_b   4.88023920
_cell_length_c   4.88023920
_cell_angle_alpha   60.00000000
_cell_angle_beta   60.00000000
_cell_angle_gamma   60.00000000
_symmetry_Int_Tables_number   1
_chemical_formula_structural   Sc2ZnIn
_chemical_formula_sum   'Sc2 Zn1 In1'
_cell_volume   82.18798414
_cell_formula_units_Z   1
loop_
 _symmetry_equiv_pos_site_id
 _symmetry_equiv_pos_as_xyz
  1  'x, y, z'
loop_
 _atom_site_type_symbol
 _atom_site_label
 _atom_site_symmetry_multiplicity
 _atom_site_fract_x
 _atom_site_fract_y
 _atom_site_fract_z
 _atom_site_occupancy
  Sc  Sc0  1  0.25000000  0.25000000  0.25000000  1
  Sc  Sc1  1  0.75000000  0.75000000  0.75000000  1
  Zn  Zn0  1  -0.00000000  -0.00000000  0.00000000  1
  In  In0  1  0.50000000  0.50000000  0.50000000  1
loop_
_geom_bond_atom_site_label_1
_geom_bond_atom_site_label_2
_geom_bond_distance
_geom_bond_site_symmetry_2
Sc0 Zn0 2.988524 1_655
Sc0 Zn0 2.988524 1_555
Sc0 Zn0 2.988524 1_556
Sc0 Zn0 2.988524 1_565
Sc1 Zn0 2.988524 1_566
Sc1 Zn0 2.988524 1_656
Sc1 Zn0 2.988524 1_665
Sc1 Zn0 2.988524 1_666
In0 Sc1 2.988524 1_455
In0 Sc0 2.988524 1_655
In0 Sc1 2.988524 1_554
In0 Sc1 2.988524 1_555
In0 Sc0 2.988524 1_565
In0 Sc1 2.988524 1_545
In0 Sc0 2.988524 1_555
In0 Sc0 2.988524 1_556
