# generated using pymatgen
data_Ho5Mg
_symmetry_space_group_name_H-M   'P 1'
_cell_length_a   6.55210898
_cell_length_b   6.55210898
_cell_length_c   6.55210957
_cell_angle_alpha   55.48263365
_cell_angle_beta   55.48263365
_cell_angle_gamma   55.48263804
_symmetry_Int_Tables_number   1
_chemical_formula_structural   Ho5Mg
_chemical_formula_sum   'Ho5 Mg1'
_cell_volume   178.03417082
_cell_formula_units_Z   1
loop_
 _symmetry_equiv_pos_site_id
 _symmetry_equiv_pos_as_xyz
  1  'x, y, z'
loop_
 _atom_site_type_symbol
 _atom_site_label
 _atom_site_symmetry_multiplicity
 _atom_site_fract_x
 _atom_site_fract_y
 _atom_site_fract_z
 _atom_site_occupancy
  Ho  Ho0  1  0.50000000  0.16196716  0.83803284  1
  Ho  Ho1  1  0.16196716  0.83803284  0.50000000  1
  Ho  Ho2  1  0.83803284  0.50000000  0.16196716  1
  Ho  Ho3  1  0.33204108  0.33204108  0.33204108  1
  Ho  Ho4  1  0.66795892  0.66795892  0.66795892  1
  Mg  Mg0  1  -0.00000000  0.00000000  0.00000000  1
loop_
_geom_bond_atom_site_label_1
_geom_bond_atom_site_label_2
_geom_bond_distance
_geom_bond_site_symmetry_2
Ho0 Ho4 3.404513 1_545
Ho0 Ho3 3.404513 1_556
Ho0 Mg0 3.421783 1_556
Ho0 Mg0 3.421783 1_656
Ho0 Ho4 3.464428 1_555
Ho0 Ho3 3.464428 1_555
Ho0 Ho1 3.497135 1_546
Ho0 Ho1 3.497135 1_645
Ho0 Ho2 3.497135 1_456
Ho0 Ho2 3.497135 1_546
Ho0 Ho2 3.571347 1_555
Ho0 Ho1 3.571347 1_555
Ho1 Ho3 3.404513 1_565
Ho1 Ho4 3.404513 1_455
Ho1 Mg0 3.421783 1_566
Ho1 Mg0 3.421783 1_565
Ho1 Ho3 3.464428 1_555
Ho1 Ho4 3.464428 1_555
Ho1 Ho2 3.497135 1_456
Ho1 Ho2 3.497135 1_465
Ho1 Ho2 3.571347 1_555
Ho2 Ho3 3.404513 1_655
Ho2 Ho4 3.404513 1_554
Ho2 Mg0 3.421783 1_665
Ho2 Mg0 3.421783 1_655
Ho2 Ho3 3.464428 1_555
Ho2 Ho4 3.464428 1_555
Ho3 Mg0 3.521761 1_556
Ho3 Mg0 3.521761 1_655
Ho3 Mg0 3.521761 1_565
Ho3 Ho4 3.521957 1_554
Ho3 Ho4 3.521957 1_455
Ho3 Ho4 3.521957 1_545
Ho4 Mg0 3.521761 1_665
Ho4 Mg0 3.521761 1_566
Ho4 Mg0 3.521761 1_656
