# generated using pymatgen
data_Zr3TiFe8
_symmetry_space_group_name_H-M   'P 1'
_cell_length_a   8.56428310
_cell_length_b   8.56428310
_cell_length_c   8.56428341
_cell_angle_alpha   33.59055455
_cell_angle_beta   33.59055455
_cell_angle_gamma   33.59056397
_symmetry_Int_Tables_number   1
_chemical_formula_structural   Zr3TiFe8
_chemical_formula_sum   'Zr3 Ti1 Fe8'
_cell_volume   171.27315888
_cell_formula_units_Z   1
loop_
 _symmetry_equiv_pos_site_id
 _symmetry_equiv_pos_as_xyz
  1  'x, y, z'
loop_
 _atom_site_type_symbol
 _atom_site_label
 _atom_site_symmetry_multiplicity
 _atom_site_fract_x
 _atom_site_fract_y
 _atom_site_fract_z
 _atom_site_occupancy
  Zr  Zr0  1  0.37511200  0.37511200  0.37511200  1
  Zr  Zr1  1  0.99870300  0.99870300  0.99870300  1
  Zr  Zr2  1  0.50129100  0.50129100  0.50129100  1
  Ti  Ti0  1  0.87489000  0.87489000  0.87489000  1
  Fe  Fe0  1  0.43667300  0.93681400  0.43667300  1
  Fe  Fe1  1  0.93754300  0.43950500  0.93754300  1
  Fe  Fe2  1  0.43667300  0.43667300  0.93681400  1
  Fe  Fe3  1  0.93754300  0.93754300  0.43950500  1
  Fe  Fe4  1  0.18775800  0.18775800  0.18775800  1
  Fe  Fe5  1  0.68749600  0.68749600  0.68749600  1
  Fe  Fe6  1  0.93681400  0.43667300  0.43667300  1
  Fe  Fe7  1  0.43950500  0.93754300  0.93754300  1
loop_
_geom_bond_atom_site_label_1
_geom_bond_atom_site_label_2
_geom_bond_distance
_geom_bond_site_symmetry_2
Zr0 Zr1 3.042015 1_445
Zr0 Zr1 3.042016 1_544
Zr0 Zr1 3.042016 1_454
Zr0 Zr2 3.056123 1_555
Ti0 Zr1 2.998817 1_555
Ti0 Zr2 3.019350 1_556
Ti0 Zr2 3.019351 1_565
Ti0 Zr2 3.019351 1_655
Fe0 Fe4 2.452179 1_565
Fe0 Fe2 2.473977 1_564
Fe0 Fe6 2.473977 1_465
Fe0 Fe2 2.475372 1_555
Fe0 Fe6 2.475373 1_555
Fe0 Fe5 2.488486 1_555
Fe0 Zr2 2.856097 1_555
Fe0 Ti0 2.892522 1_455
Fe0 Ti0 2.892523 1_554
Fe0 Zr1 2.894443 1_554
Fe0 Zr1 2.894443 1_455
Fe0 Zr0 2.918058 1_565
Fe1 Fe3 2.464964 1_555
Fe1 Fe7 2.464964 1_555
Fe1 Fe4 2.467475 1_656
Fe1 Fe5 2.483551 1_555
Fe1 Fe3 2.484385 1_546
Fe1 Fe7 2.484386 1_645
Fe1 Ti0 2.879669 1_555
Fe1 Zr0 2.908381 1_556
Fe1 Zr0 2.908382 1_655
Fe1 Zr2 2.908496 1_655
Fe1 Zr2 2.908496 1_556
Fe1 Zr1 2.944284 1_545
Fe2 Fe4 2.452179 1_556
Fe2 Fe6 2.473977 1_456
Fe2 Fe6 2.475372 1_555
Fe2 Fe5 2.488486 1_555
Fe2 Zr2 2.856097 1_555
Fe2 Ti0 2.892523 1_455
Fe2 Ti0 2.892523 1_545
Fe2 Zr1 2.894443 1_455
Fe2 Zr1 2.894443 1_545
Fe2 Zr0 2.918058 1_556
Fe3 Fe7 2.464964 1_555
Fe3 Fe4 2.467474 1_665
Fe3 Fe5 2.483551 1_555
Fe3 Fe7 2.484385 1_654
Fe3 Ti0 2.879669 1_555
Fe3 Zr0 2.908382 1_655
Fe3 Zr0 2.908382 1_565
Fe3 Zr2 2.908497 1_565
Fe3 Zr2 2.908497 1_655
Fe3 Zr1 2.944284 1_554
Fe4 Fe6 2.452179 1_455
Fe4 Fe7 2.467475 1_544
Fe4 Zr2 2.897472 1_554
Fe4 Zr2 2.897472 1_545
Fe4 Zr2 2.897472 1_455
Fe4 Ti0 2.900181 1_445
Fe4 Ti0 2.900182 1_544
Fe4 Ti0 2.900182 1_454
Fe5 Fe7 2.483551 1_555
Fe5 Fe6 2.488486 1_555
Fe5 Zr0 2.902208 1_556
Fe5 Zr0 2.902208 1_655
Fe5 Zr0 2.902208 1_565
Fe5 Zr1 2.907327 1_554
Fe5 Zr1 2.907328 1_455
Fe5 Zr1 2.907328 1_545
Fe6 Zr2 2.856097 1_555
Fe6 Ti0 2.892522 1_545
Fe6 Ti0 2.892523 1_554
Fe6 Zr1 2.894443 1_554
Fe6 Zr1 2.894443 1_545
Fe6 Zr0 2.918058 1_655
Fe7 Ti0 2.879669 1_555
Fe7 Zr0 2.908381 1_556
Fe7 Zr0 2.908382 1_565
Fe7 Zr2 2.908496 1_565
Fe7 Zr2 2.908496 1_556
Fe7 Zr1 2.944284 1_455
