# generated using pymatgen
data_Tm2Sc3Si4
_symmetry_space_group_name_H-M   'P 1'
_cell_length_a   7.03648973
_cell_length_b   7.34710491
_cell_length_c   13.87835689
_cell_angle_alpha   90.00000000
_cell_angle_beta   90.00000000
_cell_angle_gamma   90.00000000
_symmetry_Int_Tables_number   1
_chemical_formula_structural   Tm2Sc3Si4
_chemical_formula_sum   'Tm8 Sc12 Si16'
_cell_volume   717.48091081
_cell_formula_units_Z   4
loop_
 _symmetry_equiv_pos_site_id
 _symmetry_equiv_pos_as_xyz
  1  'x, y, z'
loop_
 _atom_site_type_symbol
 _atom_site_label
 _atom_site_symmetry_multiplicity
 _atom_site_fract_x
 _atom_site_fract_y
 _atom_site_fract_z
 _atom_site_occupancy
  Tm  Tm0  1  0.01144241  0.17721218  0.09701027  1
  Tm  Tm1  1  0.98855759  0.82278782  0.90298973  1
  Tm  Tm2  1  0.48855759  0.67721218  0.90298973  1
  Tm  Tm3  1  0.98855759  0.82278782  0.59701027  1
  Tm  Tm4  1  0.51144241  0.32278782  0.09701027  1
  Tm  Tm5  1  0.01144241  0.17721218  0.40298973  1
  Tm  Tm6  1  0.51144241  0.32278782  0.40298973  1
  Tm  Tm7  1  0.48855759  0.67721218  0.59701027  1
  Sc  Sc0  1  0.16269006  0.50377714  0.75000000  1
  Sc  Sc1  1  0.83730994  0.49622286  0.25000000  1
  Sc  Sc2  1  0.33730994  0.00377714  0.25000000  1
  Sc  Sc3  1  0.66269006  0.99622286  0.75000000  1
  Sc  Sc4  1  0.33018539  0.17699868  0.62565170  1
  Sc  Sc5  1  0.66981461  0.82300132  0.37434830  1
  Sc  Sc6  1  0.16981461  0.67699868  0.37434830  1
  Sc  Sc7  1  0.66981461  0.82300132  0.12565170  1
  Sc  Sc8  1  0.83018539  0.32300132  0.62565170  1
  Sc  Sc9  1  0.33018539  0.17699868  0.87434830  1
  Sc  Sc10  1  0.83018539  0.32300132  0.87434830  1
  Sc  Sc11  1  0.16981461  0.67699868  0.12565170  1
  Si  Si0  1  0.03314559  0.11162075  0.75000000  1
  Si  Si1  1  0.96685441  0.88837925  0.25000000  1
  Si  Si2  1  0.46685441  0.61162075  0.25000000  1
  Si  Si3  1  0.53314559  0.38837925  0.75000000  1
  Si  Si4  1  0.28554751  0.86956440  0.75000000  1
  Si  Si5  1  0.71445249  0.13043560  0.25000000  1
  Si  Si6  1  0.21445249  0.36956440  0.25000000  1
  Si  Si7  1  0.78554751  0.63043560  0.75000000  1
  Si  Si8  1  0.15967082  0.46583370  0.53846716  1
  Si  Si9  1  0.84032918  0.53416630  0.46153284  1
  Si  Si10  1  0.34032918  0.96583370  0.46153284  1
  Si  Si11  1  0.84032918  0.53416630  0.03846716  1
  Si  Si12  1  0.65967082  0.03416630  0.53846716  1
  Si  Si13  1  0.15967082  0.46583370  0.96153284  1
  Si  Si14  1  0.65967082  0.03416630  0.96153284  1
  Si  Si15  1  0.34032918  0.96583370  0.03846716  1
loop_
_geom_bond_atom_site_label_1
_geom_bond_atom_site_label_2
_geom_bond_distance
_geom_bond_site_symmetry_2
Sc0 Si3 2.741122 1_555
Sc0 Si7 2.812189 1_455
Sc0 Si4 2.823096 1_555
Sc0 Si8 2.949011 1_555
Sc0 Si13 2.949011 1_555
Sc0 Si0 3.021969 1_555
Sc1 Si2 2.741122 1_555
Sc1 Si6 2.812189 1_655
Sc1 Si5 2.823096 1_555
Sc1 Si9 2.949011 1_555
Sc1 Si11 2.949011 1_555
Sc1 Si1 3.021969 1_555
Sc2 Si1 2.741122 1_445
Sc2 Si5 2.812189 1_555
Sc2 Si6 2.823096 1_555
Sc2 Si10 2.949011 1_545
Sc2 Si15 2.949011 1_545
Sc2 Si2 3.021969 1_545
Sc3 Si0 2.741122 1_665
Sc3 Si4 2.812189 1_555
Sc3 Si7 2.823096 1_555
Sc3 Si14 2.949011 1_565
Sc3 Si12 2.949011 1_565
Sc3 Si3 3.021969 1_565
Sc4 Si8 2.721569 1_555
Sc4 Si3 2.725744 1_555
Sc4 Si0 2.752731 1_555
Sc4 Si10 2.756812 1_545
Sc4 Si12 2.817867 1_555
Sc4 Si4 2.859865 1_545
Sc5 Si9 2.721569 1_555
Sc5 Si2 2.725744 1_555
Sc5 Si1 2.752731 1_555
Sc5 Si12 2.756812 1_565
Sc5 Si10 2.817867 1_555
Sc5 Si5 2.859865 1_565
Sc6 Si10 2.721569 1_555
Sc6 Si1 2.725744 1_455
Sc6 Si2 2.752731 1_555
Sc6 Si8 2.756812 1_555
Sc6 Si9 2.817867 1_455
Sc6 Si6 2.859865 1_555
Sc7 Si11 2.721569 1_555
Sc7 Si2 2.725744 1_555
Sc7 Si1 2.752731 1_555
Sc7 Si14 2.756812 1_564
Sc7 Si15 2.817867 1_555
Sc7 Si5 2.859865 1_565
Sc8 Si12 2.721569 1_555
Sc8 Si0 2.725744 1_655
Sc8 Si3 2.752731 1_555
Sc8 Si9 2.756812 1_555
Sc8 Si8 2.817867 1_655
Sc8 Si7 2.859865 1_555
Sc9 Si13 2.721569 1_555
Sc9 Si3 2.725744 1_555
Sc9 Si0 2.752731 1_555
Sc9 Si15 2.756812 1_546
Sc9 Si14 2.817867 1_555
Sc9 Si4 2.859865 1_545
Sc10 Si14 2.721569 1_555
Sc10 Si0 2.725744 1_655
Sc10 Si3 2.752731 1_555
Sc10 Si11 2.756812 1_556
Sc10 Si13 2.817867 1_655
Sc10 Si7 2.859865 1_555
Sc11 Si15 2.721569 1_555
Sc11 Si1 2.725744 1_455
Sc11 Si2 2.752731 1_555
Sc11 Si13 2.756812 1_554
Sc11 Si11 2.817867 1_455
Sc11 Si6 2.859865 1_555
Si0 Si4 2.513367 1_545
Si0 Tm3 3.018254 1_445
Si0 Tm1 3.018254 1_445
Si1 Si5 2.513367 1_565
Si1 Tm0 3.018254 1_665
Si1 Tm5 3.018254 1_665
Si2 Si6 2.513367 1_555
Si2 Tm4 3.018254 1_555
Si2 Tm6 3.018254 1_555
Si3 Si7 2.513367 1_555
Si3 Tm7 3.018254 1_555
Si3 Tm2 3.018254 1_555
Si4 Tm7 2.923345 1_555
Si4 Tm2 2.923345 1_555
Si4 Tm1 2.998901 1_455
Si4 Tm3 2.998901 1_455
Si5 Tm4 2.923345 1_555
Si5 Tm6 2.923345 1_555
Si5 Tm0 2.998901 1_655
Si5 Tm5 2.998901 1_655
Si6 Tm0 2.923345 1_555
Si6 Tm5 2.923345 1_555
Si6 Tm6 2.998901 1_555
Si6 Tm4 2.998901 1_555
Si7 Tm3 2.923345 1_555
Si7 Tm1 2.923345 1_555
Si7 Tm2 2.998901 1_555
Si7 Tm7 2.998901 1_555
Si8 Si9 2.537969 1_455
Si8 Tm7 2.903026 1_555
Si8 Tm3 2.997958 1_455
Si8 Tm5 3.019883 1_555
Si8 Tm6 3.281236 1_555
Si9 Tm6 2.903026 1_555
Si9 Tm5 2.997958 1_655
Si9 Tm3 3.019883 1_555
Si9 Tm7 3.281236 1_555
Si10 Si12 2.537969 1_565
Si10 Tm5 2.903026 1_565
Si10 Tm6 2.997958 1_565
Si10 Tm7 3.019883 1_555
Si10 Tm3 3.281236 1_455
Si11 Si13 2.537969 1_654
Si11 Tm4 2.903026 1_555
Si11 Tm0 2.997958 1_655
Si11 Tm1 3.019883 1_554
Si11 Tm2 3.281236 1_554
Si12 Tm3 2.903026 1_545
Si12 Tm7 2.997958 1_545
Si12 Tm6 3.019883 1_555
Si12 Tm5 3.281236 1_655
Si13 Tm2 2.903026 1_555
Si13 Tm1 2.997958 1_455
Si13 Tm0 3.019883 1_556
Si13 Tm4 3.281236 1_556
Si14 Si15 2.537969 1_546
Si14 Tm1 2.903026 1_545
Si14 Tm2 2.997958 1_545
Si14 Tm4 3.019883 1_556
Si14 Tm0 3.281236 1_656
Si15 Tm0 2.903026 1_565
Si15 Tm4 2.997958 1_565
Si15 Tm2 3.019883 1_554
Si15 Tm1 3.281236 1_454
