# generated using pymatgen
data_V3AsN
_symmetry_space_group_name_H-M   'P 1'
_cell_length_a   5.34599991
_cell_length_b   5.34599991
_cell_length_c   7.55141600
_cell_angle_alpha   90.00000000
_cell_angle_beta   90.00000000
_cell_angle_gamma   146.11087009
_symmetry_Int_Tables_number   1
_chemical_formula_structural   V3AsN
_chemical_formula_sum   'V6 As2 N2'
_cell_volume   120.33706630
_cell_formula_units_Z   2
loop_
 _symmetry_equiv_pos_site_id
 _symmetry_equiv_pos_as_xyz
  1  'x, y, z'
loop_
 _atom_site_type_symbol
 _atom_site_label
 _atom_site_symmetry_multiplicity
 _atom_site_fract_x
 _atom_site_fract_y
 _atom_site_fract_z
 _atom_site_occupancy
  V  V0  1  0.95652000  0.04348000  0.25000000  1
  V  V1  1  0.04348000  0.95652000  0.75000000  1
  V  V2  1  0.62440100  0.37559900  0.45174400  1
  V  V3  1  0.37559900  0.62440100  0.54825600  1
  V  V4  1  0.62440100  0.37559900  0.04825600  1
  V  V5  1  0.37559900  0.62440100  0.95174400  1
  As  As0  1  0.25775200  0.74224800  0.25000000  1
  As  As1  1  0.74224800  0.25775200  0.75000000  1
  N  N0  1  0.00000000  0.00000000  0.50000000  1
  N  N1  1  0.00000000  0.00000000  0.00000000  1
loop_
_geom_bond_atom_site_label_1
_geom_bond_atom_site_label_2
_geom_bond_distance
_geom_bond_site_symmetry_2
As0 V5 2.554496 1_554
As0 V3 2.554496 1_555
As0 V0 2.561354 1_455
As0 V0 2.561354 1_565
As0 V2 2.570739 1_455
As0 V2 2.570739 1_565
As0 V4 2.570739 1_455
As0 V4 2.570739 1_565
As1 V2 2.554496 1_555
As1 V4 2.554496 1_556
As1 V1 2.561354 1_655
As1 V1 2.561354 1_545
As1 V3 2.570739 1_655
As1 V3 2.570739 1_545
As1 V5 2.570739 1_655
As1 V5 2.570739 1_545
N0 V1 1.939525 1_545
N0 V0 1.939525 1_455
N0 V3 2.044323 1_445
N0 V2 2.044323 1_555
N0 V3 2.044323 1_555
N0 V2 2.044323 1_445
N1 V1 1.939525 1_544
N1 V0 1.939525 1_455
N1 V5 2.044323 1_554
N1 V4 2.044323 1_555
N1 V4 2.044323 1_445
N1 V5 2.044323 1_444
