# generated using pymatgen
data_Sr3La2Mn6(O2F)6
_symmetry_space_group_name_H-M   'P 1'
_cell_length_a   5.82594525
_cell_length_b   5.81625874
_cell_length_c   22.82885507
_cell_angle_alpha   89.89046542
_cell_angle_beta   90.15135673
_cell_angle_gamma   92.75846607
_symmetry_Int_Tables_number   1
_chemical_formula_structural   Sr3La2Mn6(O2F)6
_chemical_formula_sum   'Sr6 La4 Mn12 O24 F12'
_cell_volume   772.66016948
_cell_formula_units_Z   2
loop_
 _symmetry_equiv_pos_site_id
 _symmetry_equiv_pos_as_xyz
  1  'x, y, z'
loop_
 _atom_site_type_symbol
 _atom_site_label
 _atom_site_symmetry_multiplicity
 _atom_site_fract_x
 _atom_site_fract_y
 _atom_site_fract_z
 _atom_site_occupancy
  Sr  Sr0  1  0.03172700  0.51118500  0.08488600  1
  Sr  Sr1  1  0.02006400  0.51446700  0.41696000  1
  Sr  Sr2  1  0.01827700  0.51316700  0.74397600  1
  Sr  Sr3  1  0.50855400  0.00626000  0.09116800  1
  Sr  Sr4  1  0.50248900  0.00738300  0.42487400  1
  Sr  Sr5  1  0.47687600  0.99516000  0.73869500  1
  La  La0  1  0.45489600  0.00538900  0.92089800  1
  La  La1  1  0.96681400  0.48124600  0.24825300  1
  La  La2  1  0.97234300  0.48087900  0.58320600  1
  La  La3  1  0.96961300  0.50704500  0.91960900  1
  Mn  Mn0  1  0.00349800  0.99202700  0.00187700  1
  Mn  Mn1  1  0.03239200  0.99446400  0.17062700  1
  Mn  Mn2  1  0.99336000  0.98351600  0.33250000  1
  Mn  Mn3  1  0.03420200  0.99543400  0.50192200  1
  Mn  Mn4  1  0.00371900  0.99851600  0.66230400  1
  Mn  Mn5  1  0.46697000  0.50610200  0.17050900  1
  Mn  Mn6  1  0.46725300  0.50830900  0.50158900  1
  Mn  Mn7  1  0.47557000  0.49356400  0.83156800  1
  Mn  Mn8  1  0.48706700  0.51155100  0.00106400  1
  Mn  Mn9  1  0.51488700  0.51914900  0.33197600  1
  Mn  Mn10  1  0.50203600  0.49805300  0.66239400  1
  Mn  Mn11  1  0.02498400  0.00122200  0.83129600  1
  O  O0  1  0.98302000  0.07483000  0.25205900  1
  O  O1  1  0.97288400  0.07000000  0.58136400  1
  O  O2  1  0.99562700  0.08164800  0.91537300  1
  O  O3  1  0.21806900  0.72600700  0.98287100  1
  O  O4  1  0.20642300  0.70918600  0.17915300  1
  O  O5  1  0.19378200  0.70984300  0.51263400  1
  O  O6  1  0.20592900  0.72376400  0.85182800  1
  O  O7  1  0.28274000  0.22330000  0.00574100  1
  O  O8  1  0.24882400  0.24986800  0.15757600  1
  O  O9  1  0.25820000  0.25297800  0.48980900  1
  O  O10  1  0.22169900  0.27986000  0.67077700  1
  O  O11  1  0.31411900  0.20451100  0.82669800  1
  O  O12  1  0.47729300  0.57169400  0.08543800  1
  O  O13  1  0.47616700  0.57602500  0.41555100  1
  O  O14  1  0.47759900  0.56458600  0.74956000  1
  O  O15  1  0.54848000  0.44274200  0.58106300  1
  O  O16  1  0.54089700  0.44142400  0.25099000  1
  O  O17  1  0.54359400  0.42182100  0.91538800  1
  O  O18  1  0.80243000  0.69854600  0.32651000  1
  O  O19  1  0.79904000  0.70269800  0.66048000  1
  O  O20  1  0.72189200  0.77212600  0.98537700  1
  O  O21  1  0.03019700  0.94358300  0.41629500  1
  O  O22  1  0.99329900  0.94341600  0.08536700  1
  O  O23  1  0.02342200  0.94074800  0.74967000  1
  F  F0  1  0.24365300  0.72844500  0.31581900  1
  F  F1  1  0.26733700  0.76129600  0.65294900  1
  F  F2  1  0.23632800  0.26538300  0.34234900  1
  F  F3  1  0.74092300  0.75478300  0.17573300  1
  F  F4  1  0.72273300  0.76563800  0.50453000  1
  F  F5  1  0.70897900  0.77588900  0.84590700  1
  F  F6  1  0.77616800  0.27739400  0.01406900  1
  F  F7  1  0.76524900  0.28450100  0.15376800  1
  F  F8  1  0.74710100  0.23769600  0.35272500  1
  F  F9  1  0.77693900  0.27787500  0.48517600  1
  F  F10  1  0.74583800  0.23971000  0.68410100  1
  F  F11  1  0.80753100  0.28229700  0.81981700  1
loop_
_geom_bond_atom_site_label_1
_geom_bond_atom_site_label_2
_geom_bond_distance
_geom_bond_site_symmetry_2
La0 O17 2.455202 1_555
La0 O3 2.516243 1_545
La0 O7 2.550644 1_556
La0 O20 2.571070 1_545
La0 O11 2.590579 1_555
La0 O6 2.653731 1_545
La0 O2 2.735711 1_455
La1 O0 2.371659 1_555
La1 O18 2.416686 1_555
La1 O4 2.453617 1_655
La1 O16 2.481973 1_555
La2 O1 2.390383 1_555
La2 O5 2.422970 1_655
La2 O19 2.437081 1_555
La2 O15 2.469054 1_555
La2 O10 2.759203 1_655
La3 O3 2.370949 1_655
La3 O6 2.390694 1_655
La3 O2 2.488205 1_555
La3 O17 2.509110 1_555
La3 O20 2.636026 1_555
Mn0 O22 1.926955 1_455
Mn0 O2 2.042421 1_464
Mn0 O7 2.062254 1_565
Mn0 O20 2.065423 1_454
Mn0 O3 2.082428 1_554
Mn1 O8 1.924939 1_565
Mn1 O0 1.943243 1_465
Mn1 O22 1.980357 1_455
Mn1 O4 1.994650 1_555
Mn2 O0 1.912262 1_565
Mn2 O21 1.939146 1_655
Mn2 O18 1.955964 1_555
Mn3 O1 1.904229 1_465
Mn3 O5 1.956833 1_555
Mn3 O9 1.958441 1_565
Mn3 O21 1.978368 1_555
Mn4 O1 1.903123 1_465
Mn4 O23 2.025809 1_555
Mn4 O10 2.031689 1_565
Mn4 O19 2.046096 1_455
Mn5 O16 1.926503 1_555
Mn5 O8 1.934123 1_555
Mn5 O4 1.978210 1_555
Mn5 O12 1.978986 1_555
Mn6 O9 1.893890 1_555
Mn6 O15 1.916050 1_555
Mn6 O13 2.002826 1_555
Mn6 O5 2.039350 1_555
Mn7 O11 1.889844 1_555
Mn7 O14 1.916353 1_555
Mn7 O17 2.000393 1_555
Mn7 O6 2.164024 1_555
Mn8 O12 1.959791 1_555
Mn8 O7 2.011749 1_555
Mn8 O20 2.024299 1_554
Mn8 O17 2.056735 1_554
Mn8 O3 2.089755 1_554
Mn9 O16 1.912256 1_555
Mn9 O18 1.934680 1_555
Mn9 O13 1.952525 1_555
Mn10 O15 1.907180 1_555
Mn10 O10 2.028747 1_555
Mn10 O14 2.034567 1_555
Mn10 O19 2.052962 1_555
Mn11 O23 1.896911 1_545
Mn11 O2 1.986193 1_455
Mn11 O11 2.013775 1_555
Mn11 O6 2.023233 1_545
O3 Sr0 2.834625 1_556
O4 Sr0 2.622655 1_555
O4 Sr3 3.135432 1_565
O5 Sr1 2.640668 1_555
O6 Sr2 2.937020 1_555
O7 Sr3 2.695268 1_555
O7 Sr0 2.909973 1_555
O8 Sr3 2.611947 1_555
O8 Sr0 2.613000 1_555
O9 Sr4 2.545270 1_555
O9 Sr1 2.680464 1_555
O10 Sr2 2.492434 1_555
O10 Sr5 2.751555 1_545
O11 Sr5 2.558987 1_545
O12 Sr3 2.528955 1_565
O12 Sr0 2.602754 1_555
O13 Sr4 2.515587 1_565
O13 Sr1 2.664383 1_555
O14 Sr5 2.516315 1_555
O14 Sr2 2.681026 1_555
O18 Sr1 2.669455 1_655
O19 Sr2 2.567978 1_655
O20 Sr3 3.069729 1_566
O21 Sr1 2.493724 1_555
O21 Sr4 2.765180 1_565
O22 Sr0 2.534673 1_655
O22 Sr3 2.868481 1_565
O22 Sr3 3.009103 1_665
O23 Sr2 2.489300 1_555
O23 Sr5 2.657960 1_555
F0 Mn9 2.072506 1_555
F0 Mn2 2.164626 1_455
F0 La1 2.611470 1_455
F1 Mn10 2.111644 1_555
F1 Mn4 2.124817 1_555
F1 Sr5 2.647624 1_555
F1 La2 2.806130 1_455
F1 Sr2 2.882598 1_555
F2 Mn2 2.125625 1_445
F2 Mn9 2.153696 1_555
F2 Sr1 2.604598 1_555
F2 Sr4 2.898838 1_555
F2 La1 2.969466 1_455
F3 Mn5 2.105009 1_555
F3 Mn1 2.147793 1_655
F3 La1 2.680276 1_555
F3 Sr3 2.804452 1_565
F4 Mn6 2.060438 1_555
F4 Mn3 2.202163 1_655
F4 Sr4 2.661152 1_565
F4 La2 2.879307 1_555
F4 Sr1 3.066646 1_655
F5 Mn7 2.106532 1_555
F5 Mn11 2.233301 1_665
F5 La0 2.667602 1_565
F5 La3 2.790448 1_555
F5 Sr5 3.095471 1_555
F6 Mn0 2.191269 1_645
F6 Mn8 2.235259 1_555
F6 Sr0 2.545627 1_655
F6 La3 2.749783 1_554
F6 Sr3 2.789769 1_555
F7 Mn5 2.246791 1_555
F7 Mn1 2.379743 1_645
F7 Sr0 2.535594 1_655
F7 Sr3 2.581153 1_555
F7 La1 2.684727 1_555
F8 Mn2 2.160411 1_545
F8 Mn9 2.222883 1_555
F8 Sr4 2.521589 1_555
F8 Sr1 2.649714 1_655
F9 Mn3 2.307105 1_645
F9 Mn6 2.330263 1_555
F9 Sr1 2.478083 1_655
F9 Sr4 2.584826 1_555
F9 La2 2.750566 1_555
F10 Mn4 2.163856 1_645
F10 Mn10 2.172480 1_555
F10 Sr5 2.412635 1_545
F10 Sr2 2.582857 1_655
F11 Mn11 2.131237 1_655
F11 Mn7 2.356887 1_555
F11 Sr2 2.480295 1_655
F11 La3 2.769754 1_555
F11 Sr5 3.100480 1_545
