# generated using pymatgen
data_SrCaTiMnO6
_symmetry_space_group_name_H-M   'P 1'
_cell_length_a   5.45387600
_cell_length_b   5.46815873
_cell_length_c   7.70356346
_cell_angle_alpha   90.04949166
_cell_angle_beta   89.99945912
_cell_angle_gamma   89.99989522
_symmetry_Int_Tables_number   1
_chemical_formula_structural   SrCaTiMnO6
_chemical_formula_sum   'Sr2 Ca2 Ti2 Mn2 O12'
_cell_volume   229.74066566
_cell_formula_units_Z   2
loop_
 _symmetry_equiv_pos_site_id
 _symmetry_equiv_pos_as_xyz
  1  'x, y, z'
loop_
 _atom_site_type_symbol
 _atom_site_label
 _atom_site_symmetry_multiplicity
 _atom_site_fract_x
 _atom_site_fract_y
 _atom_site_fract_z
 _atom_site_occupancy
  Sr  Sr0  1  0.98782200  0.50372200  0.74946300  1
  Sr  Sr1  1  0.48781100  0.99629700  0.75054500  1
  Ca  Ca0  1  0.01847200  0.49711900  0.25032100  1
  Ca  Ca1  1  0.51846300  0.00290000  0.24969000  1
  Ti  Ti0  1  0.50005100  0.50194900  0.00494400  1
  Ti  Ti1  1  0.00007600  0.99808000  0.49504400  1
  Mn  Mn0  1  0.00001800  0.99883600  0.00388500  1
  Mn  Mn1  1  0.49995700  0.50101200  0.49599800  1
  O  O0  1  0.50191700  0.45525400  0.74725000  1
  O  O1  1  0.00190900  0.04476100  0.75277700  1
  O  O2  1  0.49114100  0.56290100  0.25276400  1
  O  O3  1  0.99113900  0.93712000  0.24725700  1
  O  O4  1  0.22831300  0.73347400  0.97928300  1
  O  O5  1  0.72832100  0.76653100  0.52073200  1
  O  O6  1  0.76720300  0.27333200  0.46462900  1
  O  O7  1  0.26721300  0.22666600  0.03538400  1
  O  O8  1  0.77173900  0.26617200  0.03586700  1
  O  O9  1  0.27172400  0.23385800  0.46414900  1
  O  O10  1  0.23335900  0.72898400  0.52047900  1
  O  O11  1  0.73335100  0.77103100  0.97953900  1
loop_
_geom_bond_atom_site_label_1
_geom_bond_atom_site_label_2
_geom_bond_distance
_geom_bond_site_symmetry_2
Ca0 O3 2.410745 1_455
Ca0 O6 2.470720 1_455
Ca0 O8 2.476151 1_455
Ca0 O9 2.587965 1_555
Ca0 O7 2.600920 1_555
Ca0 O2 2.602920 1_555
Ca0 O10 2.703297 1_555
Ca0 O4 2.710040 1_554
Ca0 O2 2.898463 1_455
Ca0 O5 3.001412 1_455
Ca0 O11 3.003040 1_454
Ca0 O3 3.065861 1_445
Ca1 O2 2.410731 1_545
Ca1 O7 2.470610 1_555
Ca1 O9 2.476206 1_555
Ca1 O8 2.588030 1_555
Ca1 O6 2.600881 1_555
Ca1 O3 2.602954 1_545
Ca1 O11 2.703249 1_544
Ca1 O5 2.710154 1_545
Ca1 O3 2.898425 1_445
Ca1 O4 3.001449 1_544
Ca1 O10 3.003023 1_545
Ca1 O2 3.065869 1_555
Mn0 O3 1.905864 1_455
Mn0 O4 1.921252 1_554
Mn0 O11 1.923974 1_454
Mn0 O7 1.932353 1_565
Mn0 O8 1.935735 1_465
Mn0 O1 1.950901 1_564
Mn1 O2 1.904979 1_555
Mn1 O5 1.922250 1_555
Mn1 O10 1.924376 1_555
Mn1 O6 1.931903 1_555
Mn1 O9 1.934699 1_555
Mn1 O0 1.951885 1_555
O0 Ti0 2.001323 1_556
O0 Sr1 2.510979 1_545
O0 Sr0 2.663339 1_555
O0 Sr0 2.816358 1_455
O0 Sr1 2.959596 1_555
O1 Ti1 2.001610 1_545
O1 Sr0 2.510999 1_455
O1 Sr1 2.663320 1_545
O1 Sr1 2.816375 1_445
O1 Sr0 2.959573 1_445
O2 Ti0 1.938298 1_555
O3 Ti1 1.938059 1_655
O4 Ti0 1.959261 1_556
O4 Sr0 2.535606 1_455
O4 Sr1 2.679130 1_555
O5 Ti1 1.959438 1_655
O5 Sr1 2.535640 1_555
O5 Sr0 2.679076 1_555
O6 Ti1 1.983419 1_645
O6 Sr0 2.800863 1_555
O6 Sr1 3.077944 1_545
O7 Ti0 1.983449 1_555
O7 Sr1 2.800773 1_544
O7 Sr0 3.078044 1_454
O8 Ti0 1.978655 1_555
O8 Sr0 2.819387 1_554
O8 Sr1 3.066151 1_544
O9 Ti1 1.978469 1_545
O9 Sr1 2.819391 1_545
O9 Sr0 3.065982 1_455
O10 Ti1 1.955203 1_555
O10 Sr0 2.534937 1_455
O10 Sr1 2.683127 1_555
O11 Ti0 1.955184 1_556
O11 Sr1 2.535025 1_555
O11 Sr0 2.683199 1_555
