# generated using pymatgen
data_VO
_symmetry_space_group_name_H-M   'P 1'
_cell_length_a   3.13190718
_cell_length_b   8.78596307
_cell_length_c   3.12927960
_cell_angle_alpha   89.99928263
_cell_angle_beta   90.00000552
_cell_angle_gamma   90.29660470
_symmetry_Int_Tables_number   1
_chemical_formula_structural   VO
_chemical_formula_sum   'V4 O4'
_cell_volume   86.10667222
_cell_formula_units_Z   4
loop_
 _symmetry_equiv_pos_site_id
 _symmetry_equiv_pos_as_xyz
  1  'x, y, z'
loop_
 _atom_site_type_symbol
 _atom_site_label
 _atom_site_symmetry_multiplicity
 _atom_site_fract_x
 _atom_site_fract_y
 _atom_site_fract_z
 _atom_site_occupancy
  V  V0  1  0.99855000  0.49332000  0.00000100  1
  V  V1  1  0.50144800  0.75668200  0.49999900  1
  V  V2  1  0.99855700  0.99332200  0.00000200  1
  V  V3  1  0.50144100  0.25668000  0.49999800  1
  O  O0  1  0.00168900  0.74355800  0.00000000  1
  O  O1  1  0.49832000  0.00644300  0.50000100  1
  O  O2  1  0.00168100  0.24355500  0.99999900  1
  O  O3  1  0.49831300  0.50644000  0.50000000  1
loop_
_geom_bond_atom_site_label_1
_geom_bond_atom_site_label_2
_geom_bond_distance
_geom_bond_site_symmetry_2
O0 V2 2.194490 1_455
O0 V0 2.198553 1_455
O0 V1 2.215709 1_555
O0 V1 2.215712 1_554
O0 V1 2.217619 1_455
O0 V1 2.217621 1_454
O1 V1 2.194464 1_545
O1 V3 2.198544 1_555
O1 V2 2.215717 1_445
O1 V2 2.215719 1_446
O1 V2 2.217609 1_545
O1 V2 2.217611 1_546
O2 V0 2.194499 1_456
O2 V2 2.198509 1_446
O2 V3 2.215712 1_556
O2 V3 2.215714 1_555
O2 V3 2.217617 1_456
O2 V3 2.217619 1_455
O3 V3 2.194455 1_555
O3 V1 2.198588 1_555
O3 V0 2.215716 1_455
O3 V0 2.215719 1_456
O3 V0 2.217608 1_555
O3 V0 2.217610 1_556
