# generated using pymatgen
data_HoV2O6
_symmetry_space_group_name_H-M   'P 1'
_cell_length_a   5.53712900
_cell_length_b   5.16967900
_cell_length_c   9.07731703
_cell_angle_alpha   55.17364549
_cell_angle_beta   90.00000000
_cell_angle_gamma   90.00000000
_symmetry_Int_Tables_number   1
_chemical_formula_structural   HoV2O6
_chemical_formula_sum   'Ho2 V4 O12'
_cell_volume   213.29903662
_cell_formula_units_Z   2
loop_
 _symmetry_equiv_pos_site_id
 _symmetry_equiv_pos_as_xyz
  1  'x, y, z'
loop_
 _atom_site_type_symbol
 _atom_site_label
 _atom_site_symmetry_multiplicity
 _atom_site_fract_x
 _atom_site_fract_y
 _atom_site_fract_z
 _atom_site_occupancy
  Ho  Ho0  1  0.16027000  0.73701400  0.24893900  1
  Ho  Ho1  1  0.83973000  0.73701400  0.74893900  1
  V  V0  1  0.72474700  0.96946000  0.00298200  1
  V  V1  1  0.71277200  0.48162400  0.49287700  1
  V  V2  1  0.27525300  0.96946000  0.50298200  1
  V  V3  1  0.28722800  0.48162400  0.99287700  1
  O  O0  1  0.72078400  0.15972600  0.74429500  1
  O  O1  1  0.42958000  0.75344000  0.05251400  1
  O  O2  1  0.43786700  0.36167100  0.44842200  1
  O  O3  1  0.94944300  0.69558900  0.03415100  1
  O  O4  1  0.95142300  0.26188400  0.46763200  1
  O  O5  1  0.24088500  0.81805500  0.75763900  1
  O  O6  1  0.27921600  0.15972600  0.24429500  1
  O  O7  1  0.57042000  0.75344000  0.55251400  1
  O  O8  1  0.56213300  0.36167100  0.94842200  1
  O  O9  1  0.04857700  0.26188400  0.96763200  1
  O  O10  1  0.05055700  0.69558900  0.53415100  1
  O  O11  1  0.75911500  0.81805500  0.25763900  1
loop_
_geom_bond_atom_site_label_1
_geom_bond_atom_site_label_2
_geom_bond_distance
_geom_bond_site_symmetry_2
Ho0 O6 2.259604 1_565
Ho0 O11 2.270130 1_455
Ho0 O1 2.288470 1_555
Ho0 O2 2.322391 1_555
Ho0 O3 2.384713 1_455
Ho0 O4 2.396250 1_455
Ho0 O9 2.520246 1_564
Ho0 O10 2.546440 1_555
Ho1 O0 2.259604 1_565
Ho1 O5 2.270130 1_655
Ho1 O7 2.288470 1_555
Ho1 O8 2.322391 1_555
Ho1 O10 2.384713 1_655
Ho1 O9 2.396250 1_655
Ho1 O4 2.520246 1_565
Ho1 O3 2.546440 1_556
O0 V1 1.908364 1_555
O0 V0 1.960571 1_546
O1 V0 1.883343 1_555
O1 V3 1.938503 1_554
O2 V1 1.774894 1_555
O2 V2 2.005054 1_545
O3 V0 1.781863 1_555
O3 V3 2.309865 1_654
O4 V1 1.840248 1_555
O4 V2 2.247092 1_645
O5 V3 1.846224 1_555
O5 V2 1.981359 1_555
O6 V3 1.908364 1_554
O6 V2 1.960571 1_545
O7 V2 1.883343 1_555
O7 V1 1.938503 1_555
O8 V3 1.774894 1_555
O8 V0 2.005054 1_546
O9 V3 1.840248 1_555
O9 V0 2.247092 1_446
O10 V2 1.781863 1_555
O10 V1 2.309865 1_455
O11 V1 1.846224 1_555
O11 V0 1.981359 1_555
