# generated using pymatgen
data_Gd3GaNiSe7
_symmetry_space_group_name_H-M   'P 1'
_cell_length_a   6.46810900
_cell_length_b   10.13962871
_cell_length_c   10.11652959
_cell_angle_alpha   119.96963642
_cell_angle_beta   90.00000000
_cell_angle_gamma   90.00000000
_symmetry_Int_Tables_number   1
_chemical_formula_structural   Gd3GaNiSe7
_chemical_formula_sum   'Gd6 Ga2 Ni2 Se14'
_cell_volume   574.77036442
_cell_formula_units_Z   2
loop_
 _symmetry_equiv_pos_site_id
 _symmetry_equiv_pos_as_xyz
  1  'x, y, z'
loop_
 _atom_site_type_symbol
 _atom_site_label
 _atom_site_symmetry_multiplicity
 _atom_site_fract_x
 _atom_site_fract_y
 _atom_site_fract_z
 _atom_site_occupancy
  Gd  Gd0  1  0.17979800  0.84147400  0.21421700  1
  Gd  Gd1  1  0.17967200  0.78590000  0.62725700  1
  Gd  Gd2  1  0.18007500  0.37257900  0.15849900  1
  Gd  Gd3  1  0.67979800  0.15852600  0.78578300  1
  Gd  Gd4  1  0.67967200  0.21410000  0.37274300  1
  Gd  Gd5  1  0.68007500  0.62742100  0.84150100  1
  Ga  Ga0  1  0.09921400  0.33341600  0.66676600  1
  Ga  Ga1  1  0.59921400  0.66658400  0.33323400  1
  Ni  Ni0  1  0.50361900  0.00001200  0.00006100  1
  Ni  Ni1  1  0.00361900  0.99998800  0.99993900  1
  Se  Se0  1  0.44788900  0.56176200  0.08214300  1
  Se  Se1  1  0.44786600  0.91787000  0.47957600  1
  Se  Se2  1  0.44786700  0.52030300  0.43816700  1
  Se  Se3  1  0.94788900  0.43823800  0.91785700  1
  Se  Se4  1  0.94786600  0.08213000  0.52042400  1
  Se  Se5  1  0.94786700  0.47969700  0.56183300  1
  Se  Se6  1  0.47192100  0.33339300  0.66670100  1
  Se  Se7  1  0.97192100  0.66660700  0.33329900  1
  Se  Se8  1  0.26287300  0.12922100  0.22921400  1
  Se  Se9  1  0.26269900  0.77158200  0.90035200  1
  Se  Se10  1  0.26270600  0.09986800  0.87081900  1
  Se  Se11  1  0.76287300  0.87077900  0.77078600  1
  Se  Se12  1  0.76269900  0.22841800  0.09964800  1
  Se  Se13  1  0.76270600  0.90013200  0.12918100  1
loop_
_geom_bond_atom_site_label_1
_geom_bond_atom_site_label_2
_geom_bond_distance
_geom_bond_site_symmetry_2
Gd0 Se8 2.895197 1_565
Gd0 Se7 2.921827 1_455
Gd0 Se9 2.936606 1_554
Gd0 Se1 2.955580 1_555
Gd0 Se13 2.980455 1_455
Gd0 Se0 3.008325 1_555
Gd0 Se4 3.201385 1_465
Gd1 Se9 2.888446 1_555
Gd1 Se7 2.918675 1_455
Gd1 Se10 2.942372 1_565
Gd1 Se2 2.962126 1_555
Gd1 Se11 2.977989 1_455
Gd1 Se1 3.004869 1_555
Gd1 Se5 3.205108 1_455
Gd2 Se10 2.891660 1_554
Gd2 Se7 2.925905 1_455
Gd2 Se8 2.941274 1_555
Gd2 Se0 2.959299 1_555
Gd2 Se12 2.984911 1_455
Gd2 Se2 3.002431 1_555
Gd2 Se3 3.200708 1_454
Gd3 Se11 2.895197 1_545
Gd3 Se6 2.921827 1_555
Gd3 Se12 2.936606 1_556
Gd3 Se4 2.955580 1_555
Gd3 Se10 2.980455 1_555
Gd3 Se3 3.008325 1_555
Gd3 Se1 3.201385 1_545
Gd4 Se12 2.888446 1_555
Gd4 Se6 2.918675 1_555
Gd4 Se13 2.942372 1_545
Gd4 Se5 2.962126 1_555
Gd4 Se8 2.977989 1_555
Gd4 Se4 3.004869 1_555
Gd4 Se2 3.205108 1_555
Gd5 Se13 2.891660 1_556
Gd5 Se6 2.925905 1_555
Gd5 Se11 2.941274 1_555
Gd5 Se3 2.959299 1_555
Gd5 Se9 2.984911 1_555
Gd5 Se5 3.002431 1_555
Gd5 Se0 3.200708 1_556
Ga0 Se6 2.410710 1_555
Ga0 Se3 2.417187 1_455
Ga0 Se5 2.420390 1_455
Ga0 Se4 2.423519 1_455
Ga1 Se7 2.410710 1_555
Ga1 Se0 2.417187 1_555
Ga1 Se2 2.420390 1_555
Ga1 Se1 2.423519 1_555
Ni0 Se9 2.544862 1_544
Ni0 Se8 2.545787 1_555
Ni0 Se10 2.546650 1_554
Ni0 Se12 2.618336 1_555
Ni0 Se13 2.619529 1_545
Ni0 Se11 2.621520 1_544
Ni1 Se12 2.544862 1_466
Ni1 Se11 2.545787 1_455
Ni1 Se13 2.546650 1_456
Ni1 Se9 2.618336 1_555
Ni1 Se10 2.619529 1_565
Ni1 Se8 2.621520 1_566
