# generated using pymatgen
data_NaMg30SiO32
_symmetry_space_group_name_H-M   'P 1'
_cell_length_a   8.54892800
_cell_length_b   8.54892800
_cell_length_c   8.55070300
_cell_angle_alpha   90.00000000
_cell_angle_beta   90.00000000
_cell_angle_gamma   90.00000000
_symmetry_Int_Tables_number   1
_chemical_formula_structural   NaMg30SiO32
_chemical_formula_sum   'Na1 Mg30 Si1 O32'
_cell_volume   624.92103124
_cell_formula_units_Z   1
loop_
 _symmetry_equiv_pos_site_id
 _symmetry_equiv_pos_as_xyz
  1  'x, y, z'
loop_
 _atom_site_type_symbol
 _atom_site_label
 _atom_site_symmetry_multiplicity
 _atom_site_fract_x
 _atom_site_fract_y
 _atom_site_fract_z
 _atom_site_occupancy
  Na  Na0  1  0.50000000  0.50000000  0.00000000  1
  Mg  Mg0  1  0.00000000  0.50000000  0.00000000  1
  Mg  Mg1  1  0.50000000  0.00000000  0.00000000  1
  Mg  Mg2  1  0.00000000  0.00000000  0.50000000  1
  Mg  Mg3  1  0.00000000  0.50000000  0.50000000  1
  Mg  Mg4  1  0.50000000  0.00000000  0.50000000  1
  Mg  Mg5  1  0.50000000  0.50000000  0.50000000  1
  Mg  Mg6  1  0.25343700  0.25343700  0.00000000  1
  Mg  Mg7  1  0.25343700  0.74656300  0.00000000  1
  Mg  Mg8  1  0.74656300  0.25343700  0.00000000  1
  Mg  Mg9  1  0.74656300  0.74656300  0.00000000  1
  Mg  Mg10  1  0.25126300  0.25126300  0.50000000  1
  Mg  Mg11  1  0.25126300  0.74873700  0.50000000  1
  Mg  Mg12  1  0.74873700  0.25126300  0.50000000  1
  Mg  Mg13  1  0.74873700  0.74873700  0.50000000  1
  Mg  Mg14  1  0.00000000  0.25211700  0.25134700  1
  Mg  Mg15  1  0.00000000  0.74788300  0.25134700  1
  Mg  Mg16  1  0.50000000  0.25216000  0.24948100  1
  Mg  Mg17  1  0.50000000  0.74784000  0.24948100  1
  Mg  Mg18  1  0.00000000  0.25211700  0.74865300  1
  Mg  Mg19  1  0.00000000  0.74788300  0.74865300  1
  Mg  Mg20  1  0.50000000  0.25216000  0.75051900  1
  Mg  Mg21  1  0.50000000  0.74784000  0.75051900  1
  Mg  Mg22  1  0.25211700  0.00000000  0.25134700  1
  Mg  Mg23  1  0.25216000  0.50000000  0.24948100  1
  Mg  Mg24  1  0.74788300  0.00000000  0.25134700  1
  Mg  Mg25  1  0.74784000  0.50000000  0.24948100  1
  Mg  Mg26  1  0.25211700  0.00000000  0.74865300  1
  Mg  Mg27  1  0.25216000  0.50000000  0.75051900  1
  Mg  Mg28  1  0.74788300  0.00000000  0.74865300  1
  Mg  Mg29  1  0.74784000  0.50000000  0.75051900  1
  Si  Si0  1  0.00000000  0.00000000  0.00000000  1
  O  O0  1  0.00000000  0.00000000  0.22394300  1
  O  O1  1  0.00000000  0.50000000  0.24872000  1
  O  O2  1  0.50000000  0.00000000  0.24872000  1
  O  O3  1  0.50000000  0.50000000  0.26295700  1
  O  O4  1  0.00000000  0.00000000  0.77605700  1
  O  O5  1  0.00000000  0.50000000  0.75128000  1
  O  O6  1  0.50000000  0.00000000  0.75128000  1
  O  O7  1  0.50000000  0.50000000  0.73704300  1
  O  O8  1  0.24885300  0.24885300  0.24878400  1
  O  O9  1  0.24885300  0.75114700  0.24878400  1
  O  O10  1  0.75114700  0.24885300  0.24878400  1
  O  O11  1  0.75114700  0.75114700  0.24878400  1
  O  O12  1  0.24885300  0.24885300  0.75121600  1
  O  O13  1  0.24885300  0.75114700  0.75121600  1
  O  O14  1  0.75114700  0.24885300  0.75121600  1
  O  O15  1  0.75114700  0.75114700  0.75121600  1
  O  O16  1  0.00000000  0.21920900  0.00000000  1
  O  O17  1  0.00000000  0.78079100  0.00000000  1
  O  O18  1  0.50000000  0.23346500  0.00000000  1
  O  O19  1  0.50000000  0.76653500  0.00000000  1
  O  O20  1  0.00000000  0.24543600  0.50000000  1
  O  O21  1  0.00000000  0.75456400  0.50000000  1
  O  O22  1  0.50000000  0.24626000  0.50000000  1
  O  O23  1  0.50000000  0.75374000  0.50000000  1
  O  O24  1  0.21920900  0.00000000  0.00000000  1
  O  O25  1  0.23346500  0.50000000  0.00000000  1
  O  O26  1  0.78079100  0.00000000  0.00000000  1
  O  O27  1  0.76653500  0.50000000  0.00000000  1
  O  O28  1  0.24543600  0.00000000  0.50000000  1
  O  O29  1  0.24626000  0.50000000  0.50000000  1
  O  O30  1  0.75456400  0.00000000  0.50000000  1
  O  O31  1  0.75374000  0.50000000  0.50000000  1
loop_
_geom_bond_atom_site_label_1
_geom_bond_atom_site_label_2
_geom_bond_distance
_geom_bond_site_symmetry_2
Na0 O3 2.248467 1_555
Na0 O7 2.248467 1_554
Na0 O25 2.278589 1_555
Na0 O18 2.278589 1_555
Na0 O19 2.278589 1_555
Na0 O27 2.278589 1_555
Mg0 O25 1.995875 1_555
Mg0 O27 1.995875 1_455
Mg0 O1 2.126731 1_555
Mg0 O5 2.126731 1_554
Mg0 O16 2.400462 1_555
Mg0 O17 2.400462 1_555
Mg1 O18 1.995875 1_555
Mg1 O19 1.995875 1_545
Mg1 O2 2.126731 1_555
Mg1 O6 2.126731 1_554
Mg1 O24 2.400462 1_555
Mg1 O26 2.400462 1_555
Mg2 O28 2.098215 1_555
Mg2 O30 2.098215 1_455
Mg2 O21 2.098215 1_545
Mg2 O20 2.098215 1_555
Mg2 O0 2.360481 1_555
Mg2 O4 2.360481 1_555
Mg3 O29 2.105259 1_555
Mg3 O31 2.105259 1_455
Mg3 O5 2.148621 1_555
Mg3 O1 2.148621 1_555
Mg3 O21 2.176249 1_555
Mg3 O20 2.176249 1_555
Mg4 O23 2.105259 1_545
Mg4 O22 2.105259 1_555
Mg4 O6 2.148621 1_555
Mg4 O2 2.148621 1_555
Mg4 O30 2.176249 1_555
Mg4 O28 2.176249 1_555
Mg5 O7 2.026884 1_555
Mg5 O3 2.026884 1_555
Mg5 O22 2.169205 1_555
Mg5 O23 2.169205 1_555
Mg5 O29 2.169205 1_555
Mg5 O31 2.169205 1_555
Mg6 O25 2.114753 1_555
Mg6 O18 2.114753 1_555
Mg6 O12 2.128000 1_554
Mg6 O8 2.128000 1_555
Mg6 O16 2.186285 1_555
Mg6 O24 2.186285 1_555
Mg7 O25 2.114753 1_555
Mg7 O19 2.114753 1_555
Mg7 O9 2.128000 1_555
Mg7 O13 2.128000 1_554
Mg7 O17 2.186285 1_555
Mg7 O24 2.186285 1_565
Mg8 O18 2.114753 1_555
Mg8 O27 2.114753 1_555
Mg8 O10 2.128000 1_555
Mg8 O14 2.128000 1_554
Mg8 O16 2.186285 1_655
Mg8 O26 2.186285 1_555
Mg9 O19 2.114753 1_555
Mg9 O27 2.114753 1_555
Mg9 O11 2.128000 1_555
Mg9 O15 2.128000 1_554
Mg9 O17 2.186285 1_655
Mg9 O26 2.186285 1_565
Mg10 O22 2.126865 1_555
Mg10 O29 2.126865 1_555
Mg10 O12 2.148271 1_555
Mg10 O8 2.148271 1_555
Mg10 O20 2.148607 1_555
Mg10 O28 2.148607 1_555
Mg11 O23 2.126865 1_555
Mg11 O29 2.126865 1_555
Mg11 O13 2.148271 1_555
Mg11 O9 2.148271 1_555
Mg11 O21 2.148607 1_555
Mg11 O28 2.148607 1_565
Mg12 O22 2.126865 1_555
Mg12 O31 2.126865 1_555
Mg12 O10 2.148271 1_555
Mg12 O14 2.148271 1_555
Mg12 O30 2.148607 1_555
Mg12 O20 2.148607 1_655
Mg13 O23 2.126865 1_555
Mg13 O31 2.126865 1_555
Mg13 O11 2.148271 1_555
Mg13 O15 2.148271 1_555
Mg13 O30 2.148607 1_565
Mg13 O21 2.148607 1_655
Mg14 O1 2.119253 1_555
Mg14 O20 2.126925 1_555
Mg14 O10 2.127722 1_455
Mg14 O8 2.127722 1_555
Mg14 O16 2.167528 1_555
Mg14 O0 2.168030 1_555
Mg15 O1 2.119253 1_555
Mg15 O21 2.126925 1_555
Mg15 O11 2.127722 1_455
Mg15 O9 2.127722 1_555
Mg15 O17 2.167528 1_555
Mg15 O0 2.168030 1_565
Mg16 O3 2.121897 1_555
Mg16 O18 2.139216 1_555
Mg16 O22 2.142707 1_555
Mg16 O10 2.147232 1_555
Mg16 O8 2.147232 1_555
Mg16 O2 2.155708 1_555
Mg17 O3 2.121897 1_555
Mg17 O19 2.139216 1_555
Mg17 O23 2.142707 1_555
Mg17 O9 2.147232 1_555
Mg17 O11 2.147232 1_555
Mg17 O2 2.155708 1_565
Mg18 O5 2.119253 1_555
Mg18 O20 2.126925 1_555
Mg18 O14 2.127722 1_455
Mg18 O12 2.127722 1_555
Mg18 O16 2.167528 1_556
Mg18 O4 2.168030 1_555
Mg19 O5 2.119253 1_555
Mg19 O21 2.126925 1_555
Mg19 O13 2.127722 1_555
Mg19 O15 2.127722 1_455
Mg19 O17 2.167528 1_556
Mg19 O4 2.168030 1_565
Mg20 O7 2.121897 1_555
Mg20 O18 2.139216 1_556
Mg20 O22 2.142707 1_555
Mg20 O12 2.147232 1_555
Mg20 O14 2.147232 1_555
Mg20 O6 2.155708 1_555
Mg21 O7 2.121897 1_555
Mg21 O19 2.139216 1_556
Mg21 O23 2.142707 1_555
Mg21 O13 2.147232 1_555
Mg21 O15 2.147232 1_555
Mg21 O6 2.155708 1_565
Mg22 O2 2.119253 1_555
Mg22 O28 2.126925 1_555
Mg22 O9 2.127722 1_545
Mg22 O8 2.127722 1_555
Mg22 O24 2.167528 1_555
Mg22 O0 2.168030 1_555
Mg23 O3 2.121897 1_555
Mg23 O25 2.139216 1_555
Mg23 O29 2.142707 1_555
Mg23 O9 2.147232 1_555
Mg23 O8 2.147232 1_555
Mg23 O1 2.155708 1_555
Mg24 O2 2.119253 1_555
Mg24 O30 2.126925 1_555
Mg24 O11 2.127722 1_545
Mg24 O10 2.127722 1_555
Mg24 O26 2.167528 1_555
Mg24 O0 2.168030 1_655
Mg25 O3 2.121897 1_555
Mg25 O27 2.139216 1_555
Mg25 O31 2.142707 1_555
Mg25 O10 2.147232 1_555
Mg25 O11 2.147232 1_555
Mg25 O1 2.155708 1_655
Mg26 O6 2.119253 1_555
Mg26 O28 2.126925 1_555
Mg26 O12 2.127722 1_555
Mg26 O13 2.127722 1_545
Mg26 O24 2.167528 1_556
Mg26 O4 2.168030 1_555
Mg27 O7 2.121897 1_555
Mg27 O25 2.139216 1_556
Mg27 O29 2.142707 1_555
Mg27 O13 2.147232 1_555
Mg27 O12 2.147232 1_555
Mg27 O5 2.155708 1_555
Mg28 O6 2.119253 1_555
Mg28 O30 2.126925 1_555
Mg28 O15 2.127722 1_545
Mg28 O14 2.127722 1_555
Mg28 O26 2.167528 1_556
Mg28 O4 2.168030 1_655
Mg29 O7 2.121897 1_555
Mg29 O27 2.139216 1_556
Mg29 O31 2.142707 1_555
Mg29 O14 2.147232 1_555
Mg29 O15 2.147232 1_555
Mg29 O5 2.155708 1_655
O0 Si0 1.914870 1_555
O4 Si0 1.914870 1_556
O16 Si0 1.874002 1_555
O17 Si0 1.874002 1_565
O24 Si0 1.874002 1_555
O26 Si0 1.874002 1_655
