# generated using pymatgen
data_ZnP2C4NO8
_symmetry_space_group_name_H-M   'P 1'
_cell_length_a   11.16017973
_cell_length_b   9.26293369
_cell_length_c   9.25945117
_cell_angle_alpha   74.10174524
_cell_angle_beta   52.96339670
_cell_angle_gamma   52.93485807
_symmetry_Int_Tables_number   1
_chemical_formula_structural   ZnP2C4NO8
_chemical_formula_sum   'Zn2 P4 C8 N2 O16'
_cell_volume   603.71081776
_cell_formula_units_Z   2
loop_
 _symmetry_equiv_pos_site_id
 _symmetry_equiv_pos_as_xyz
  1  'x, y, z'
loop_
 _atom_site_type_symbol
 _atom_site_label
 _atom_site_symmetry_multiplicity
 _atom_site_fract_x
 _atom_site_fract_y
 _atom_site_fract_z
 _atom_site_occupancy
  Zn  Zn0  1  0.24958000  0.24958000  0.75042000  1
  Zn  Zn1  1  0.49958000  0.49958000  0.00042000  1
  P  P0  1  0.25297300  0.93749400  0.00856400  1
  P  P1  1  0.93749400  0.25297300  0.80096900  1
  P  P2  1  0.24143600  0.44903100  0.99702700  1
  P  P3  1  0.44903100  0.24143600  0.31250600  1
  C  C0  1  0.64130800  0.60708800  0.27737400  1
  C  C1  1  0.60708800  0.64130800  0.47423000  1
  C  C2  1  0.97262600  0.77577000  0.60869200  1
  C  C3  1  0.77577000  0.97262600  0.64291200  1
  C  C4  1  0.47791300  0.60204600  0.53846000  1
  C  C5  1  0.60204600  0.47791300  0.38158200  1
  C  C6  1  0.71154000  0.86841800  0.77208700  1
  C  C7  1  0.86841800  0.71154000  0.64795400  1
  N  N0  1  0.69126700  0.69126700  0.30873300  1
  N  N1  1  0.94126700  0.94126700  0.55873300  1
  O  O0  1  0.34602600  0.00845900  0.83093300  1
  O  O1  1  0.00845900  0.34602600  0.81458300  1
  O  O2  1  0.41906700  0.43541700  0.90397400  1
  O  O3  1  0.43541700  0.41906700  0.24154100  1
  O  O4  1  0.39884100  0.75831000  0.02574600  1
  O  O5  1  0.75831000  0.39884100  0.81710300  1
  O  O6  1  0.22425400  0.43289700  0.85115900  1
  O  O7  1  0.43289700  0.22425400  0.49169000  1
  O  O8  1  0.12778300  0.90252500  0.01672200  1
  O  O9  1  0.90252500  0.12778300  0.95297000  1
  O  O10  1  0.23327800  0.29703000  0.12221700  1
  O  O11  1  0.29703000  0.23327800  0.34747500  1
  O  O12  1  0.10459400  0.08359400  0.17900500  1
  O  O13  1  0.08359400  0.10459400  0.63280700  1
  O  O14  1  0.07099500  0.61719300  0.14540600  1
  O  O15  1  0.61719300  0.07099500  0.16640600  1
loop_
_geom_bond_atom_site_label_1
_geom_bond_atom_site_label_2
_geom_bond_distance
_geom_bond_site_symmetry_2
C0 N0 1.358790 1_555
C0 C5 1.429999 1_555
C1 N0 1.358790 1_555
C1 C4 1.429997 1_555
C2 N1 1.358790 1_555
C2 C7 1.430007 1_555
C3 N1 1.358790 1_555
C3 C6 1.430004 1_555
C4 C5 1.386385 1_555
C6 C7 1.386385 1_555
O0 P0 1.545556 1_546
O0 Zn0 1.964506 1_555
O1 P1 1.545561 1_455
O1 Zn0 1.964502 1_555
O2 P2 1.545551 1_555
O2 Zn1 1.964512 1_556
O3 P3 1.545553 1_555
O3 Zn1 1.964505 1_555
O4 P0 1.529873 1_555
O4 Zn1 1.950638 1_555
O5 P1 1.529873 1_555
O5 Zn1 1.950638 1_556
O6 P2 1.529873 1_555
O6 Zn0 1.950638 1_555
O7 P3 1.529873 1_555
O7 Zn0 1.950638 1_555
O8 P0 1.570868 1_555
O9 P1 1.570868 1_555
O10 P2 1.570868 1_554
O11 P3 1.570868 1_555
O12 P0 1.544268 1_545
O13 P1 1.544268 1_455
O14 P2 1.544268 1_554
O15 P3 1.544268 1_555
