# generated using pymatgen
data_Ca4As3
_symmetry_space_group_name_H-M   'P 1'
_cell_length_a   10.39259284
_cell_length_b   11.55199636
_cell_length_c   12.11048522
_cell_angle_alpha   90.00000000
_cell_angle_beta   90.00000000
_cell_angle_gamma   90.00000000
_symmetry_Int_Tables_number   1
_chemical_formula_structural   Ca4As3
_chemical_formula_sum   'Ca32 As24'
_cell_volume   1453.92666050
_cell_formula_units_Z   8
loop_
 _symmetry_equiv_pos_site_id
 _symmetry_equiv_pos_as_xyz
  1  'x, y, z'
loop_
 _atom_site_type_symbol
 _atom_site_label
 _atom_site_symmetry_multiplicity
 _atom_site_fract_x
 _atom_site_fract_y
 _atom_site_fract_z
 _atom_site_occupancy
  Ca  Ca0  1  0.27322687  0.59462830  0.26403946  1
  Ca  Ca1  1  0.27322687  0.40537170  0.73596054  1
  Ca  Ca2  1  0.72677313  0.09462830  0.23596054  1
  Ca  Ca3  1  0.72677313  0.90537170  0.76403946  1
  Ca  Ca4  1  0.72677313  0.40537170  0.73596054  1
  Ca  Ca5  1  0.72677313  0.59462830  0.26403946  1
  Ca  Ca6  1  0.27322687  0.90537170  0.76403946  1
  Ca  Ca7  1  0.27322687  0.09462830  0.23596054  1
  Ca  Ca8  1  0.32382769  0.82439736  0.06670857  1
  Ca  Ca9  1  0.32382769  0.17560264  0.93329143  1
  Ca  Ca10  1  0.67617231  0.32439736  0.43329143  1
  Ca  Ca11  1  0.67617231  0.67560264  0.56670857  1
  Ca  Ca12  1  0.67617231  0.17560264  0.93329143  1
  Ca  Ca13  1  0.67617231  0.82439736  0.06670857  1
  Ca  Ca14  1  0.32382769  0.67560264  0.56670857  1
  Ca  Ca15  1  0.32382769  0.32439736  0.43329143  1
  Ca  Ca16  1  0.50000000  0.87632481  0.36519816  1
  Ca  Ca17  1  0.50000000  0.12367519  0.63480184  1
  Ca  Ca18  1  0.50000000  0.37632481  0.13480184  1
  Ca  Ca19  1  0.50000000  0.62367519  0.86519816  1
  Ca  Ca20  1  -0.00000000  0.72628055  0.42376374  1
  Ca  Ca21  1  -0.00000000  0.27371945  0.57623626  1
  Ca  Ca22  1  -0.00000000  0.22628055  0.07623626  1
  Ca  Ca23  1  -0.00000000  0.77371945  0.92376374  1
  Ca  Ca24  1  -0.00000000  0.89798358  0.20674383  1
  Ca  Ca25  1  -0.00000000  0.10201642  0.79325617  1
  Ca  Ca26  1  -0.00000000  0.39798358  0.29325617  1
  Ca  Ca27  1  -0.00000000  0.60201642  0.70674383  1
  Ca  Ca28  1  0.18432761  0.50000000  -0.00000000  1
  Ca  Ca29  1  0.81567239  0.00000000  0.50000000  1
  Ca  Ca30  1  0.81567239  0.50000000  -0.00000000  1
  Ca  Ca31  1  0.18432761  0.00000000  0.50000000  1
  As  As0  1  0.23353103  0.83744785  0.32356238  1
  As  As1  1  0.23353103  0.16255215  0.67643762  1
  As  As2  1  0.76646897  0.33744785  0.17643762  1
  As  As3  1  0.76646897  0.66255215  0.82356238  1
  As  As4  1  0.76646897  0.16255215  0.67643762  1
  As  As5  1  0.76646897  0.83744785  0.32356238  1
  As  As6  1  0.23353103  0.66255215  0.82356238  1
  As  As7  1  0.23353103  0.33744785  0.17643762  1
  As  As8  1  0.50000000  0.53835466  0.40285557  1
  As  As9  1  0.50000000  0.46164534  0.59714443  1
  As  As10  1  0.50000000  0.03835466  0.09714443  1
  As  As11  1  0.50000000  0.96164534  0.90285557  1
  As  As12  1  0.50000000  0.63599186  0.11344612  1
  As  As13  1  0.50000000  0.36400814  0.88655388  1
  As  As14  1  0.50000000  0.13599186  0.38655388  1
  As  As15  1  0.50000000  0.86400814  0.61344612  1
  As  As16  1  -0.00000000  0.63925108  0.14237371  1
  As  As17  1  -0.00000000  0.36074892  0.85762629  1
  As  As18  1  -0.00000000  0.13925108  0.35762629  1
  As  As19  1  -0.00000000  0.86074892  0.64237371  1
  As  As20  1  0.12137381  0.50000000  0.50000000  1
  As  As21  1  0.87862619  0.00000000  -0.00000000  1
  As  As22  1  0.87862619  0.50000000  0.50000000  1
  As  As23  1  0.12137381  0.00000000  -0.00000000  1
loop_
_geom_bond_atom_site_label_1
_geom_bond_atom_site_label_2
_geom_bond_distance
_geom_bond_site_symmetry_2
As0 Ca16 2.850436 1_555
As0 Ca31 2.890208 1_565
As0 Ca24 2.894959 1_555
As0 Ca0 2.925428 1_555
As0 Ca20 3.002004 1_555
As0 Ca7 3.181545 1_565
As0 Ca8 3.252589 1_555
As0 Ca14 3.612055 1_555
As1 Ca17 2.850436 1_555
As1 Ca31 2.890208 1_555
As1 Ca25 2.894959 1_555
As1 Ca1 2.925428 1_555
As1 Ca21 3.002004 1_555
As1 Ca6 3.181545 1_545
As1 Ca9 3.252589 1_555
As1 Ca15 3.612055 1_555
As2 Ca18 2.850436 1_555
As2 Ca30 2.890208 1_555
As2 Ca26 2.894959 1_655
As2 Ca2 2.925428 1_555
As2 Ca22 3.002004 1_655
As2 Ca5 3.181545 1_555
As2 Ca10 3.252589 1_555
As2 Ca12 3.612055 1_554
As3 Ca19 2.850436 1_555
As3 Ca30 2.890208 1_556
As3 Ca27 2.894959 1_655
As3 Ca3 2.925428 1_555
As3 Ca23 3.002004 1_655
As3 Ca4 3.181545 1_555
As3 Ca11 3.252589 1_555
As3 Ca13 3.612055 1_556
As4 Ca17 2.850436 1_555
As4 Ca29 2.890208 1_555
As4 Ca25 2.894959 1_655
As4 Ca4 2.925428 1_555
As4 Ca21 3.002004 1_655
As4 Ca3 3.181545 1_545
As4 Ca12 3.252589 1_555
As4 Ca10 3.612055 1_555
As5 Ca16 2.850436 1_555
As5 Ca29 2.890208 1_565
As5 Ca24 2.894959 1_655
As5 Ca5 2.925428 1_555
As5 Ca20 3.002004 1_655
As5 Ca2 3.181545 1_565
As5 Ca13 3.252589 1_555
As5 Ca11 3.612055 1_555
As6 Ca19 2.850436 1_555
As6 Ca28 2.890208 1_556
As6 Ca27 2.894959 1_555
As6 Ca6 2.925428 1_555
As6 Ca23 3.002004 1_555
As6 Ca1 3.181545 1_555
As6 Ca14 3.252589 1_555
As6 Ca8 3.612055 1_556
As7 Ca18 2.850436 1_555
As7 Ca28 2.890208 1_555
As7 Ca26 2.894959 1_555
As7 Ca7 2.925428 1_555
As7 Ca22 3.002004 1_555
As7 Ca0 3.181545 1_555
As7 Ca15 3.252589 1_555
As7 Ca9 3.612055 1_554
As8 As9 2.514268 1_555
As8 Ca0 2.967005 1_555
As8 Ca5 2.967005 1_555
As8 Ca15 3.097900 1_555
As8 Ca10 3.097900 1_555
As8 Ca11 3.131058 1_555
As8 Ca14 3.131058 1_555
As9 Ca4 2.967005 1_555
As9 Ca1 2.967005 1_555
As9 Ca11 3.097900 1_555
As9 Ca14 3.097900 1_555
As9 Ca10 3.131058 1_555
As9 Ca15 3.131058 1_555
As10 As11 2.514268 1_544
As10 Ca7 2.967005 1_555
As10 Ca2 2.967005 1_555
As10 Ca13 3.097900 1_545
As10 Ca8 3.097900 1_545
As10 Ca12 3.131058 1_554
As10 Ca9 3.131058 1_554
As11 Ca6 2.967005 1_555
As11 Ca3 2.967005 1_555
As11 Ca12 3.097900 1_565
As11 Ca9 3.097900 1_565
As11 Ca8 3.131058 1_556
As11 Ca13 3.131058 1_556
As12 Ca13 2.899913 1_555
As12 Ca8 2.899913 1_555
As12 Ca19 3.009768 1_554
As12 Ca18 3.010801 1_555
As12 Ca5 3.018069 1_555
As12 Ca0 3.018069 1_555
As13 Ca12 2.899913 1_555
As13 Ca9 2.899913 1_555
As13 Ca18 3.009768 1_556
As13 Ca19 3.010801 1_555
As13 Ca4 3.018069 1_555
As13 Ca1 3.018069 1_555
As14 Ca10 2.899913 1_555
As14 Ca15 2.899913 1_555
As14 Ca17 3.009768 1_555
As14 Ca16 3.010801 1_545
As14 Ca7 3.018069 1_555
As14 Ca2 3.018069 1_555
As15 Ca11 2.899913 1_555
As15 Ca14 2.899913 1_555
As15 Ca16 3.009768 1_555
As15 Ca17 3.010801 1_565
As15 Ca3 3.018069 1_555
As15 Ca6 3.018069 1_555
As16 Ca30 3.038138 1_455
As16 Ca28 3.038138 1_555
As16 Ca23 3.069543 1_554
As16 Ca24 3.088865 1_555
As16 Ca0 3.240322 1_555
As16 Ca5 3.240322 1_455
As16 Ca26 3.332705 1_555
As16 Ca20 3.552978 1_555
As17 Ca28 3.038138 1_556
As17 Ca30 3.038138 1_456
As17 Ca22 3.069543 1_556
As17 Ca25 3.088865 1_555
As17 Ca4 3.240322 1_455
As17 Ca1 3.240322 1_555
As17 Ca27 3.332705 1_555
As17 Ca21 3.552978 1_555
As18 Ca29 3.038138 1_455
As18 Ca31 3.038138 1_555
As18 Ca21 3.069543 1_555
As18 Ca26 3.088865 1_555
As18 Ca7 3.240322 1_555
As18 Ca2 3.240322 1_455
As18 Ca24 3.332705 1_545
As18 Ca22 3.552978 1_555
As19 Ca29 3.038138 1_465
As19 Ca31 3.038138 1_565
As19 Ca20 3.069543 1_555
As19 Ca27 3.088865 1_555
As19 Ca3 3.240322 1_455
As19 Ca6 3.240322 1_555
As19 Ca25 3.332705 1_565
As19 Ca23 3.552978 1_555
As20 As22 2.522777 1_455
As20 Ca15 3.032264 1_555
As20 Ca14 3.032264 1_555
As20 Ca26 3.041184 1_555
As20 Ca27 3.041184 1_555
As20 Ca21 3.045728 1_555
As20 Ca20 3.045728 1_555
As20 Ca0 3.442582 1_555
As20 Ca1 3.442582 1_555
As21 As23 2.522777 1_655
As21 Ca13 3.032264 1_545
As21 Ca12 3.032264 1_554
As21 Ca25 3.041184 1_654
As21 Ca24 3.041184 1_645
As21 Ca23 3.045728 1_644
As21 Ca22 3.045728 1_655
As21 Ca2 3.442582 1_555
As21 Ca3 3.442582 1_544
As22 Ca10 3.032264 1_555
As22 Ca11 3.032264 1_555
As22 Ca27 3.041184 1_655
As22 Ca26 3.041184 1_655
As22 Ca20 3.045728 1_655
As22 Ca21 3.045728 1_655
As22 Ca4 3.442582 1_555
As22 Ca5 3.442582 1_555
As23 Ca9 3.032264 1_554
As23 Ca8 3.032264 1_545
As23 Ca25 3.041184 1_554
As23 Ca24 3.041184 1_545
As23 Ca22 3.045728 1_555
As23 Ca23 3.045728 1_544
As23 Ca6 3.442582 1_544
As23 Ca7 3.442582 1_555
