# generated using pymatgen
data_Fe2PCO7
_symmetry_space_group_name_H-M   'P 1'
_cell_length_a   6.46272700
_cell_length_b   9.66777600
_cell_length_c   10.21108709
_cell_angle_alpha   63.56830719
_cell_angle_beta   90.00000000
_cell_angle_gamma   90.00000000
_symmetry_Int_Tables_number   1
_chemical_formula_structural   Fe2PCO7
_chemical_formula_sum   'Fe8 P4 C4 O28'
_cell_volume   571.29880261
_cell_formula_units_Z   4
loop_
 _symmetry_equiv_pos_site_id
 _symmetry_equiv_pos_as_xyz
  1  'x, y, z'
loop_
 _atom_site_type_symbol
 _atom_site_label
 _atom_site_symmetry_multiplicity
 _atom_site_fract_x
 _atom_site_fract_y
 _atom_site_fract_z
 _atom_site_occupancy
  Fe  Fe0  1  0.64469000  0.49454500  0.63628000  1
  Fe  Fe1  1  0.35531000  0.50545500  0.36372000  1
  Fe  Fe2  1  0.14469000  0.00545500  0.36372000  1
  Fe  Fe3  1  0.85531000  0.99454500  0.63628000  1
  Fe  Fe4  1  0.02006400  0.73944200  0.26197300  1
  Fe  Fe5  1  0.97993600  0.26055800  0.73802700  1
  Fe  Fe6  1  0.52006400  0.76055800  0.73802700  1
  Fe  Fe7  1  0.47993600  0.23944200  0.26197300  1
  P  P0  1  0.66765000  0.88432600  0.40030400  1
  P  P1  1  0.33235000  0.11567400  0.59969600  1
  P  P2  1  0.16765000  0.61567400  0.59969600  1
  P  P3  1  0.83235000  0.38432600  0.40030400  1
  C  C0  1  0.45012900  0.55085700  0.03292800  1
  C  C1  1  0.54987100  0.44914300  0.96707200  1
  C  C2  1  0.95012900  0.94914300  0.96707200  1
  C  C3  1  0.04987100  0.05085700  0.03292800  1
  O  O0  1  0.74422000  0.83082600  0.29000600  1
  O  O1  1  0.25578000  0.16917400  0.70999400  1
  O  O2  1  0.24422000  0.66917400  0.70999400  1
  O  O3  1  0.75578000  0.33082600  0.29000600  1
  O  O4  1  0.52175700  0.00153800  0.65499900  1
  O  O5  1  0.47824300  0.99846200  0.34500100  1
  O  O6  1  0.02175700  0.49846200  0.34500100  1
  O  O7  1  0.97824300  0.50153800  0.65499900  1
  O  O8  1  0.40431000  0.47685200  0.16845400  1
  O  O9  1  0.59569000  0.52314800  0.83154600  1
  O  O10  1  0.90431000  0.02314800  0.83154600  1
  O  O11  1  0.09569000  0.97685200  0.16845400  1
  O  O12  1  0.92301700  0.80852900  0.04831700  1
  O  O13  1  0.07698300  0.19147100  0.95168300  1
  O  O14  1  0.42301700  0.69147100  0.95168300  1
  O  O15  1  0.57698300  0.30852900  0.04831700  1
  O  O16  1  0.30556000  0.70897800  0.24483400  1
  O  O17  1  0.69444000  0.29102200  0.75516600  1
  O  O18  1  0.80556000  0.79102200  0.75516600  1
  O  O19  1  0.19444000  0.20897800  0.24483400  1
  O  O20  1  0.60375700  0.74298900  0.54555300  1
  O  O21  1  0.39624300  0.25701100  0.45444700  1
  O  O22  1  0.10375700  0.75701100  0.45444700  1
  O  O23  1  0.89624300  0.24298900  0.54555300  1
  O  O24  1  0.83610400  0.98294400  0.43408200  1
  O  O25  1  0.16389600  0.01705600  0.56591800  1
  O  O26  1  0.33610400  0.51705600  0.56591800  1
  O  O27  1  0.66389600  0.48294400  0.43408200  1
loop_
_geom_bond_atom_site_label_1
_geom_bond_atom_site_label_2
_geom_bond_distance
_geom_bond_site_symmetry_2
Fe0 O17 1.822662 1_555
Fe0 O26 2.098005 1_555
Fe0 O27 2.120605 1_555
Fe0 O9 2.154798 1_555
Fe0 O7 2.167830 1_555
Fe0 O20 2.171723 1_555
Fe1 O16 1.822662 1_555
Fe1 O27 2.098005 1_555
Fe1 O26 2.120605 1_555
Fe1 O8 2.154798 1_555
Fe1 O6 2.167830 1_555
Fe1 O21 2.171723 1_555
Fe2 O19 1.822662 1_555
Fe2 O24 2.098005 1_445
Fe2 O25 2.120605 1_555
Fe2 O11 2.154798 1_545
Fe2 O5 2.167830 1_545
Fe2 O22 2.171723 1_545
Fe3 O18 1.822662 1_555
Fe3 O25 2.098005 1_665
Fe3 O24 2.120605 1_555
Fe3 O10 2.154798 1_565
Fe3 O4 2.167830 1_565
Fe3 O23 2.171723 1_565
Fe4 O16 1.888806 1_555
Fe4 O0 2.065345 1_455
Fe4 O12 2.074092 1_455
Fe4 O6 2.094796 1_555
Fe4 O11 2.113664 1_555
Fe4 O22 2.116901 1_555
Fe5 O17 1.888806 1_555
Fe5 O1 2.065345 1_655
Fe5 O13 2.074092 1_655
Fe5 O7 2.094796 1_555
Fe5 O10 2.113664 1_555
Fe5 O23 2.116901 1_555
Fe6 O18 1.888806 1_555
Fe6 O2 2.065345 1_555
Fe6 O14 2.074092 1_555
Fe6 O4 2.094796 1_565
Fe6 O9 2.113664 1_555
Fe6 O20 2.116901 1_555
Fe7 O19 1.888806 1_555
Fe7 O3 2.065345 1_555
Fe7 O15 2.074092 1_555
Fe7 O5 2.094796 1_545
Fe7 O8 2.113664 1_555
Fe7 O21 2.116901 1_555
C0 O14 1.250182 1_554
C0 O8 1.277971 1_555
C1 O15 1.250182 1_556
C1 O9 1.277971 1_555
C2 O12 1.250182 1_556
C2 O10 1.277971 1_565
C3 O13 1.250182 1_554
C3 O11 1.277971 1_545
O0 P0 1.516401 1_555
O1 P1 1.516401 1_555
O2 P2 1.516401 1_555
O3 P3 1.516401 1_555
O4 P1 1.574840 1_555
O5 P0 1.574840 1_555
O6 P3 1.574840 1_455
O7 P2 1.574840 1_655
O20 P0 1.559848 1_555
O21 P1 1.559848 1_555
O22 P2 1.559848 1_555
O23 P3 1.559848 1_555
O24 P0 1.583013 1_555
O25 P1 1.583013 1_555
O26 P2 1.583013 1_555
O27 P3 1.583013 1_555
