# generated using pymatgen
data_MnBiO3
_symmetry_space_group_name_H-M   'P 1'
_cell_length_a   5.73731400
_cell_length_b   5.60291200
_cell_length_c   7.75656000
_cell_angle_alpha   90.00000000
_cell_angle_beta   90.00000000
_cell_angle_gamma   89.99995957
_symmetry_Int_Tables_number   1
_chemical_formula_structural   MnBiO3
_chemical_formula_sum   'Mn4 Bi4 O12'
_cell_volume   249.33978287
_cell_formula_units_Z   4
loop_
 _symmetry_equiv_pos_site_id
 _symmetry_equiv_pos_as_xyz
  1  'x, y, z'
loop_
 _atom_site_type_symbol
 _atom_site_label
 _atom_site_symmetry_multiplicity
 _atom_site_fract_x
 _atom_site_fract_y
 _atom_site_fract_z
 _atom_site_occupancy
  Mn  Mn0  1  0.00000600  0.49998900  0.00000900  1
  Mn  Mn1  1  0.49998500  0.00000300  0.49998700  1
  Mn  Mn2  1  0.00000600  0.49999800  0.49999700  1
  Mn  Mn3  1  0.49996900  0.99999800  0.99999900  1
  Bi  Bi0  1  0.54455000  0.49354900  0.75000000  1
  Bi  Bi1  1  0.04455000  0.00645200  0.75000000  1
  Bi  Bi2  1  0.45545500  0.50645200  0.25000000  1
  Bi  Bi3  1  0.95545500  0.99354900  0.25000000  1
  O  O0  1  0.96513700  0.60406800  0.75000100  1
  O  O1  1  0.46513700  0.89593400  0.75000000  1
  O  O2  1  0.03486700  0.39593400  0.25000000  1
  O  O3  1  0.53486700  0.10406800  0.25000000  1
  O  O4  1  0.28867200  0.32500800  0.95128600  1
  O  O5  1  0.78867200  0.17499300  0.54871500  1
  O  O6  1  0.71133200  0.67499300  0.45128600  1
  O  O7  1  0.21133200  0.82500800  0.04871500  1
  O  O8  1  0.71133300  0.67499400  0.04871500  1
  O  O9  1  0.21133200  0.82500800  0.45128600  1
  O  O10  1  0.28867200  0.32500800  0.54871500  1
  O  O11  1  0.78867200  0.17499300  0.95128600  1
loop_
_geom_bond_atom_site_label_1
_geom_bond_atom_site_label_2
_geom_bond_distance
_geom_bond_site_symmetry_2
Mn0 O4 1.961353 1_554
Mn0 O8 1.961428 1_455
Mn0 O2 2.034674 1_555
Mn0 O0 2.034843 1_454
Mn0 O11 2.220073 1_454
Mn0 O7 2.220131 1_555
Mn1 O9 1.961297 1_545
Mn1 O5 1.961488 1_555
Mn1 O3 2.034672 1_555
Mn1 O1 2.034852 1_545
Mn1 O10 2.220054 1_555
Mn1 O6 2.220148 1_545
Mn2 O10 1.961370 1_555
Mn2 O6 1.961413 1_455
Mn2 O2 2.034733 1_555
Mn2 O0 2.034799 1_455
Mn2 O9 2.220096 1_555
Mn2 O5 2.220108 1_455
Mn3 O7 1.961228 1_556
Mn3 O11 1.961557 1_565
Mn3 O1 2.034731 1_555
Mn3 O3 2.034793 1_566
Mn3 O4 2.220007 1_565
Mn3 O8 2.220193 1_556
Bi0 O1 2.300105 1_555
Bi0 O10 2.341904 1_555
Bi0 O4 2.341909 1_555
Bi0 O0 2.491226 1_555
Bi0 O6 2.705103 1_555
Bi0 O8 2.705114 1_556
Bi0 O5 2.754077 1_555
Bi0 O11 2.754081 1_555
Bi1 O0 2.300100 1_445
Bi1 O5 2.341903 1_455
Bi1 O11 2.341908 1_455
Bi1 O1 2.491224 1_545
Bi1 O9 2.705103 1_545
Bi1 O7 2.705110 1_546
Bi1 O10 2.754078 1_555
Bi1 O4 2.754083 1_555
Bi2 O3 2.300098 1_555
Bi2 O6 2.341905 1_555
Bi2 O8 2.341906 1_555
Bi2 O2 2.491230 1_555
Bi2 O4 2.705105 1_554
Bi2 O10 2.705112 1_555
Bi2 O7 2.754080 1_555
Bi2 O9 2.754084 1_555
Bi3 O2 2.300104 1_665
Bi3 O7 2.341899 1_655
Bi3 O9 2.341905 1_655
Bi3 O3 2.491231 1_565
Bi3 O11 2.705105 1_564
Bi3 O5 2.705112 1_565
Bi3 O8 2.754075 1_555
Bi3 O6 2.754086 1_555
