# generated using pymatgen
data_La3PBr3
_symmetry_space_group_name_H-M   'P 1'
_cell_length_a   10.45282320
_cell_length_b   10.45272770
_cell_length_c   10.45280462
_cell_angle_alpha   109.47117762
_cell_angle_beta   109.47175743
_cell_angle_gamma   109.47148227
_symmetry_Int_Tables_number   1
_chemical_formula_structural   La3PBr3
_chemical_formula_sum   'La12 P4 Br12'
_cell_volume   879.16448311
_cell_formula_units_Z   4
loop_
 _symmetry_equiv_pos_site_id
 _symmetry_equiv_pos_as_xyz
  1  'x, y, z'
loop_
 _atom_site_type_symbol
 _atom_site_label
 _atom_site_symmetry_multiplicity
 _atom_site_fract_x
 _atom_site_fract_y
 _atom_site_fract_z
 _atom_site_occupancy
  La  La0  1  0.47561398  0.48782408  0.23780165  1
  La  La1  1  0.74999274  0.23780341  0.26219070  1
  La  La2  1  0.74998799  0.01218487  0.48779935  1
  La  La3  1  0.23780544  0.47562104  0.48781391  1
  La  La4  1  0.26220235  0.74999608  0.23780585  1
  La  La5  1  0.02438327  0.26220042  0.01218316  1
  La  La6  1  0.01218140  0.02437918  0.26219297  1
  La  La7  1  0.48780672  0.74999843  0.01220018  1
  La  La8  1  0.48781978  0.23780286  0.47561583  1
  La  La9  1  0.01219774  0.48781134  0.75000947  1
  La  La10  1  0.26219886  0.01218248  0.02438146  1
  La  La11  1  0.23780992  0.26219955  0.75001227  1
  P  P0  1  0.24999924  0.24999857  0.25000266  1
  P  P1  1  0.49999952  0.00000344  0.25000075  1
  P  P2  1  0.00000355  0.25000041  0.49999808  1
  P  P3  1  0.24999914  0.49999757  -0.00000177  1
  Br  Br0  1  0.25000486  0.75742276  0.74259082  1
  Br  Br1  1  0.51484994  0.50743237  0.75744170  1
  Br  Br2  1  0.98516067  0.74256150  0.99257522  1
  Br  Br3  1  0.74258343  0.24999838  0.75741854  1
  Br  Br4  1  0.99257120  0.98515609  0.74256700  1
  Br  Br5  1  0.25000453  0.99256785  0.50742323  1
  Br  Br6  1  0.75742784  0.51484579  0.50742085  1
  Br  Br7  1  0.50742708  0.25000709  0.99258141  1
  Br  Br8  1  0.75740350  0.74257207  0.24999753  1
  Br  Br9  1  0.74256021  0.99257072  0.98515046  1
  Br  Br10  1  0.99257800  0.50742986  0.24999366  1
  Br  Br11  1  0.50742809  0.75743180  0.51483407  1
loop_
_geom_bond_atom_site_label_1
_geom_bond_atom_site_label_2
_geom_bond_distance
_geom_bond_site_symmetry_2
La0 P3 2.873910 1_555
La0 P0 2.874223 1_555
La1 P1 2.873984 1_555
La1 P2 2.874098 1_655
La2 P1 2.873995 1_555
La2 P2 2.874164 1_655
La3 P2 2.874002 1_555
La3 P0 2.874141 1_555
La4 P3 2.873991 1_555
La4 P1 2.874027 1_565
La5 P3 2.873948 1_555
La5 P0 2.874198 1_555
La6 P2 2.873994 1_555
La6 P0 2.874135 1_555
La7 P3 2.874005 1_555
La7 P1 2.874052 1_565
La8 P1 2.873933 1_555
La8 P0 2.874150 1_555
La9 P3 2.873985 1_556
La9 P2 2.874145 1_555
La10 P1 2.873953 1_555
La10 P0 2.874200 1_555
La11 P3 2.873939 1_556
La11 P2 2.874101 1_555
Br0 La7 3.119459 1_556
Br0 La9 3.119463 1_555
Br0 La10 3.174548 1_566
Br0 La3 3.174680 1_555
Br1 La11 3.119508 1_555
Br1 La3 3.119611 1_555
Br1 La7 3.174629 1_556
Br1 La8 3.174960 1_555
Br2 La4 3.119477 1_656
Br2 La10 3.119557 1_666
Br2 La9 3.174532 1_655
Br2 La6 3.174890 1_666
Br3 La9 3.119459 1_655
Br3 La2 3.119476 1_555
Br3 La5 3.174581 1_656
Br3 La8 3.174632 1_555
Br4 La11 3.119464 1_665
Br4 La5 3.119543 1_666
Br4 La2 3.174678 1_565
Br4 La10 3.174891 1_666
Br5 La8 3.119593 1_565
Br5 La6 3.119636 1_565
Br5 La4 3.174746 1_555
Br5 La11 3.174911 1_565
Br6 La1 3.119480 1_555
Br6 La8 3.119516 1_555
Br6 La9 3.174761 1_655
Br6 La0 3.174864 1_555
Br7 La10 3.119558 1_556
Br7 La0 3.119561 1_556
Br7 La1 3.174685 1_556
Br7 La11 3.174686 1_555
Br8 La7 3.119364 1_555
Br8 La2 3.119434 1_565
Br8 La0 3.174458 1_555
Br8 La6 3.174735 1_665
Br9 La1 3.119499 1_566
Br9 La6 3.119575 1_666
Br9 La7 3.174667 1_556
Br9 La5 3.174921 1_666
Br10 La5 3.119526 1_655
Br10 La3 3.119585 1_655
Br10 La4 3.174691 1_655
Br10 La1 3.174861 1_555
Br11 La4 3.119352 1_555
Br11 La0 3.119410 1_555
Br11 La2 3.174492 1_565
Br11 La3 3.174869 1_555
