# generated using pymatgen
data_Li9Mn2Co5O16
_symmetry_space_group_name_H-M   'P 1'
_cell_length_a   5.91377600
_cell_length_b   6.45027071
_cell_length_c   8.60227901
_cell_angle_alpha   83.08391052
_cell_angle_beta   109.54285465
_cell_angle_gamma   114.05287211
_symmetry_Int_Tables_number   1
_chemical_formula_structural   Li9Mn2Co5O16
_chemical_formula_sum   'Li9 Mn2 Co5 O16'
_cell_volume   282.33509315
_cell_formula_units_Z   1
loop_
 _symmetry_equiv_pos_site_id
 _symmetry_equiv_pos_as_xyz
  1  'x, y, z'
loop_
 _atom_site_type_symbol
 _atom_site_label
 _atom_site_symmetry_multiplicity
 _atom_site_fract_x
 _atom_site_fract_y
 _atom_site_fract_z
 _atom_site_occupancy
  Li  Li0  1  0.73554000  0.75488500  0.24589900  1
  Li  Li1  1  0.25205200  0.99695000  0.50511100  1
  Li  Li2  1  0.26638400  0.75310500  0.24839700  1
  Li  Li3  1  0.74862300  0.99825600  0.50143400  1
  Li  Li4  1  0.74199200  0.24889800  0.75077700  1
  Li  Li5  1  0.25901200  0.24614400  0.75436600  1
  Li  Li6  1  0.24498100  0.50337400  0.99838500  1
  Li  Li7  1  0.75324800  0.50026200  0.99467500  1
  Li  Li8  1  0.49979400  0.99792100  0.99805900  1
  Mn  Mn0  1  0.00186100  0.99910300  0.99742000  1
  Mn  Mn1  1  0.49662600  0.24519800  0.24904500  1
  Co  Co0  1  0.99673500  0.49913800  0.50088100  1
  Co  Co1  1  0.50232900  0.75339200  0.75076900  1
  Co  Co2  1  0.98783300  0.24320900  0.24834600  1
  Co  Co3  1  0.49892600  0.50189400  0.50053100  1
  Co  Co4  1  0.01527700  0.75719400  0.75179300  1
  O  O0  1  0.14174500  0.02086300  0.24108600  1
  O  O1  1  0.60699100  0.26085300  0.48912700  1
  O  O2  1  0.61746400  0.01454700  0.25273700  1
  O  O3  1  0.10651000  0.26444500  0.48258300  1
  O  O4  1  0.11251200  0.51053200  0.73861400  1
  O  O5  1  0.61297600  0.51523400  0.73686200  1
  O  O6  1  0.65928800  0.77374100  0.98992600  1
  O  O7  1  0.11169400  0.75775900  0.98837500  1
  O  O8  1  0.38562300  0.49041400  0.26246900  1
  O  O9  1  0.88914100  0.73635600  0.51113200  1
  O  O10  1  0.84350300  0.46873700  0.25695600  1
  O  O11  1  0.37992000  0.73306200  0.50913000  1
  O  O12  1  0.38359900  0.98208800  0.75010600  1
  O  O13  1  0.90096300  0.99791400  0.76279800  1
  O  O14  1  0.89196300  0.24001400  0.01814500  1
  O  O15  1  0.35489400  0.23452000  0.01406300  1
loop_
_geom_bond_atom_site_label_1
_geom_bond_atom_site_label_2
_geom_bond_distance
_geom_bond_site_symmetry_2
Li0 O2 2.073853 1_565
Li0 O6 2.093474 1_554
Li0 O8 2.115128 1_555
Li0 O9 2.163654 1_555
Li0 O10 2.168208 1_555
Li0 O0 2.324997 1_665
Li1 O12 1.992802 1_555
Li1 O11 2.118461 1_555
Li1 O1 2.132271 1_565
Li1 O9 2.132343 1_455
Li1 O0 2.148066 1_565
Li1 O3 2.184919 1_565
Li2 O8 2.061662 1_555
Li2 O2 2.065213 1_565
Li2 O7 2.116177 1_554
Li2 O11 2.119324 1_555
Li2 O0 2.123845 1_565
Li2 O10 2.444469 1_455
Li3 O2 2.022786 1_565
Li3 O13 2.124124 1_555
Li3 O9 2.148335 1_555
Li3 O1 2.153078 1_565
Li3 O3 2.157333 1_665
Li3 O11 2.171093 1_555
Li4 O12 2.115375 1_545
Li4 O5 2.122641 1_555
Li4 O1 2.124984 1_555
Li4 O13 2.156547 1_545
Li4 O14 2.173646 1_556
Li4 O4 2.180994 1_655
Li5 O13 2.088913 1_445
Li5 O15 2.112979 1_556
Li5 O12 2.121611 1_545
Li5 O5 2.145534 1_555
Li5 O4 2.178863 1_555
Li5 O3 2.214269 1_555
Li6 O15 2.062029 1_556
Li6 O7 2.072675 1_555
Li6 O4 2.107801 1_555
Li6 O14 2.133065 1_456
Li6 O8 2.146239 1_556
Li6 O6 2.378100 1_555
Li7 O6 2.046616 1_555
Li7 O5 2.097356 1_555
Li7 O7 2.107182 1_655
Li7 O14 2.112282 1_556
Li7 O10 2.142207 1_556
Li7 O15 2.327663 1_556
Li8 O12 2.011671 1_555
Li8 O6 2.041037 1_555
Li8 O2 2.066688 1_566
Li8 O15 2.068297 1_566
Li8 O7 2.163161 1_555
Li8 O14 2.166045 1_566
Mn0 O13 1.903646 1_455
Mn0 O7 1.933542 1_555
Mn0 O6 1.938069 1_455
Mn0 O14 1.958671 1_466
Mn0 O0 1.978316 1_566
Mn0 O15 1.988265 1_566
Mn1 O2 1.888173 1_555
Mn1 O15 1.909509 1_555
Mn1 O1 1.948370 1_555
Mn1 O10 1.952143 1_555
Mn1 O8 1.971586 1_555
Mn1 O0 1.988784 1_555
Co0 O9 1.901992 1_555
Co0 O3 1.914357 1_655
Co0 O4 1.927384 1_655
Co0 O10 1.986115 1_555
Co0 O11 2.132560 1_655
Co0 O1 2.163036 1_555
Co1 O12 1.873157 1_555
Co1 O5 1.928303 1_555
Co1 O6 1.949210 1_555
Co1 O11 1.960500 1_555
Co1 O4 2.171103 1_555
Co1 O13 2.213825 1_555
Co2 O14 1.868809 1_555
Co2 O3 1.900904 1_655
Co2 O10 1.982573 1_555
Co2 O0 2.003244 1_655
Co2 O2 2.093496 1_555
Co2 O8 2.211116 1_655
Co3 O11 1.908129 1_555
Co3 O5 1.916457 1_555
Co3 O1 1.929769 1_555
Co3 O8 1.930363 1_555
Co3 O9 2.160620 1_555
Co3 O3 2.162178 1_555
Co4 O7 1.921116 1_555
Co4 O4 1.925549 1_555
Co4 O13 1.952114 1_455
Co4 O9 1.952560 1_455
Co4 O12 2.071081 1_555
Co4 O5 2.220264 1_455
