# generated using pymatgen
data_Dy4CdSe7
_symmetry_space_group_name_H-M   'P 1'
_cell_length_a   6.95151306
_cell_length_b   6.95151306
_cell_length_c   12.16457661
_cell_angle_alpha   75.66790550
_cell_angle_beta   75.66790550
_cell_angle_gamma   33.44537923
_symmetry_Int_Tables_number   1
_chemical_formula_structural   Dy4CdSe7
_chemical_formula_sum   'Dy4 Cd1 Se7'
_cell_volume   312.97126210
_cell_formula_units_Z   1
loop_
 _symmetry_equiv_pos_site_id
 _symmetry_equiv_pos_as_xyz
  1  'x, y, z'
loop_
 _atom_site_type_symbol
 _atom_site_label
 _atom_site_symmetry_multiplicity
 _atom_site_fract_x
 _atom_site_fract_y
 _atom_site_fract_z
 _atom_site_occupancy
  Dy  Dy0  1  0.69396000  0.69396000  0.19906900  1
  Dy  Dy1  1  0.30668300  0.30668300  0.80376600  1
  Dy  Dy2  1  0.00002200  0.00002200  0.00245000  1
  Dy  Dy3  1  0.11507400  0.11507400  0.57143500  1
  Cd  Cd0  1  0.88397000  0.88397000  0.42160400  1
  Se  Se0  1  0.74241900  0.74241900  0.64694900  1
  Se  Se1  1  0.25853000  0.25853000  0.35118200  1
  Se  Se2  1  0.33948300  0.33948300  0.04923800  1
  Se  Se3  1  0.66065900  0.66065900  0.94878200  1
  Se  Se4  1  0.03763900  0.03763900  0.21826100  1
  Se  Se5  1  0.96189300  0.96189300  0.78528900  1
  Se  Se6  1  0.49966700  0.49966700  0.50197500  1
loop_
_geom_bond_atom_site_label_1
_geom_bond_atom_site_label_2
_geom_bond_distance
_geom_bond_site_symmetry_2
Dy0 Se4 2.852460 1_655
Dy0 Se4 2.852460 1_565
Dy0 Se1 2.997737 1_565
Dy0 Se1 2.997737 1_655
Dy0 Se2 3.041662 1_565
Dy0 Se2 3.041662 1_655
Dy0 Se3 3.188149 1_554
Dy1 Se5 2.842931 1_545
Dy1 Se5 2.842931 1_455
Dy1 Se3 3.019952 1_455
Dy1 Se3 3.019952 1_545
Dy1 Se0 3.035769 1_455
Dy1 Se0 3.035769 1_545
Dy1 Se2 3.127533 1_556
Dy2 Se4 2.796882 1_555
Dy2 Se5 2.815933 1_444
Dy2 Se2 2.874924 1_455
Dy2 Se2 2.874924 1_545
Dy2 Se3 2.877520 1_454
Dy2 Se3 2.877520 1_544
Dy3 Se6 2.783405 1_545
Dy3 Se6 2.783405 1_455
Dy3 Se1 2.860337 1_555
Dy3 Se5 2.860882 1_445
Dy3 Se0 2.919758 1_455
Dy3 Se0 2.919758 1_545
Cd0 Se4 2.772868 1_665
Cd0 Se6 2.847547 1_565
Cd0 Se6 2.847547 1_655
Cd0 Se1 2.874738 1_655
Cd0 Se1 2.874738 1_565
Cd0 Se0 2.897552 1_555
