# generated using pymatgen
data_Be3Cu2(SiO4)3
_symmetry_space_group_name_H-M   'P 1'
_cell_length_a   7.55885581
_cell_length_b   8.01232181
_cell_length_c   13.77721815
_cell_angle_alpha   90.03142734
_cell_angle_beta   89.96022893
_cell_angle_gamma   90.03494846
_symmetry_Int_Tables_number   1
_chemical_formula_structural   Be3Cu2(SiO4)3
_chemical_formula_sum   'Be12 Cu8 Si12 O48'
_cell_volume   834.40275541
_cell_formula_units_Z   4
loop_
 _symmetry_equiv_pos_site_id
 _symmetry_equiv_pos_as_xyz
  1  'x, y, z'
loop_
 _atom_site_type_symbol
 _atom_site_label
 _atom_site_symmetry_multiplicity
 _atom_site_fract_x
 _atom_site_fract_y
 _atom_site_fract_z
 _atom_site_occupancy
  Be  Be0  1  0.84791400  0.92264500  0.76671000  1
  Be  Be1  1  0.65095400  0.93120800  0.40263800  1
  Be  Be2  1  0.15087800  0.56880800  0.09766900  1
  Be  Be3  1  0.34836900  0.06917700  0.59752800  1
  Be  Be4  1  0.84906100  0.43078700  0.90261300  1
  Be  Be5  1  0.14654200  0.61401600  0.41641300  1
  Be  Be6  1  0.64735900  0.88587600  0.08321500  1
  Be  Be7  1  0.85313000  0.38610100  0.58356100  1
  Be  Be8  1  0.35265500  0.11469200  0.91655800  1
  Be  Be9  1  0.65160800  0.42358400  0.26687800  1
  Be  Be10  1  0.15209700  0.07676500  0.23306800  1
  Be  Be11  1  0.34835000  0.57668400  0.73319200  1
  Cu  Cu0  1  0.45760200  0.24180800  0.09177000  1
  Cu  Cu1  1  0.04341800  0.74268900  0.59129700  1
  Cu  Cu2  1  0.54151300  0.75892300  0.90822500  1
  Cu  Cu3  1  0.95676200  0.25766600  0.40855800  1
  Cu  Cu4  1  0.56047300  0.24755900  0.42819700  1
  Cu  Cu5  1  0.06080000  0.25236100  0.07162600  1
  Cu  Cu6  1  0.43933900  0.75270100  0.57205900  1
  Cu  Cu7  1  0.93903100  0.74683400  0.92799100  1
  Si  Si0  1  0.22473300  0.92499300  0.76828100  1
  Si  Si1  1  0.72491800  0.57540600  0.73151000  1
  Si  Si2  1  0.77538600  0.07558300  0.23146400  1
  Si  Si3  1  0.27531800  0.42452800  0.26866200  1
  Si  Si4  1  0.73635700  0.11286500  0.92378400  1
  Si  Si5  1  0.23572000  0.38652700  0.57611700  1
  Si  Si6  1  0.26342100  0.88668000  0.07606800  1
  Si  Si7  1  0.76379200  0.61373900  0.42404100  1
  Si  Si8  1  0.23454800  0.44670500  0.90225900  1
  Si  Si9  1  0.73404500  0.05305100  0.59814200  1
  Si  Si10  1  0.76634600  0.55297400  0.09765800  1
  Si  Si11  1  0.26609300  0.94672400  0.40187200  1
  O  O0  1  0.11772200  0.74680900  0.04123900  1
  O  O1  1  0.03444300  0.90174300  0.82473800  1
  O  O2  1  0.53457700  0.59759300  0.67514500  1
  O  O3  1  0.96583600  0.09782900  0.17516700  1
  O  O4  1  0.46560400  0.40274000  0.32496800  1
  O  O5  1  0.54059000  0.18159100  0.96049500  1
  O  O6  1  0.04009300  0.31776000  0.53970000  1
  O  O7  1  0.45923500  0.81722000  0.03957900  1
  O  O8  1  0.95952600  0.68238200  0.46024700  1
  O  O9  1  0.03565900  0.52850800  0.88436100  1
  O  O10  1  0.53481200  0.97189400  0.61543800  1
  O  O11  1  0.96484600  0.47114200  0.11592400  1
  O  O12  1  0.12338900  0.07591000  0.35156000  1
  O  O13  1  0.62279500  0.42461000  0.14828800  1
  O  O14  1  0.87632700  0.92373900  0.64821200  1
  O  O15  1  0.37735500  0.57583400  0.85195000  1
  O  O16  1  0.61835100  0.75338900  0.45933200  1
  O  O17  1  0.46500500  0.02836700  0.38446400  1
  O  O18  1  0.38099700  0.24692900  0.54073400  1
  O  O19  1  0.88165300  0.25278400  0.95900800  1
  O  O20  1  0.75547700  0.07250700  0.47667300  1
  O  O21  1  0.62071700  0.05865000  0.14738900  1
  O  O22  1  0.87931300  0.55892400  0.64712200  1
  O  O23  1  0.37910700  0.94152000  0.85253500  1
  O  O24  1  0.73307500  0.42414400  0.80816700  1
  O  O25  1  0.23323100  0.07597900  0.69184900  1
  O  O26  1  0.26723800  0.57574500  0.19192800  1
  O  O27  1  0.76769700  0.92452600  0.30840500  1
  O  O28  1  0.73961000  0.07180600  0.80948100  1
  O  O29  1  0.23916200  0.42821400  0.69019200  1
  O  O30  1  0.26053900  0.92771500  0.19024400  1
  O  O31  1  0.76078800  0.57221800  0.30985500  1
  O  O32  1  0.24991800  0.25774300  0.86447200  1
  O  O33  1  0.74716600  0.24355300  0.63514700  1
  O  O34  1  0.75135200  0.74276100  0.13538300  1
  O  O35  1  0.25246200  0.75635000  0.36466900  1
  O  O36  1  0.74025200  0.74690000  0.80202100  1
  O  O37  1  0.24120400  0.75279600  0.69797000  1
  O  O38  1  0.26033300  0.25277200  0.19818200  1
  O  O39  1  0.75934200  0.24736300  0.30190400  1
  O  O40  1  0.76133300  0.92514300  0.97773400  1
  O  O41  1  0.26096400  0.57483000  0.52230200  1
  O  O42  1  0.23788900  0.07428000  0.02198100  1
  O  O43  1  0.73829300  0.42557600  0.47783000  1
  O  O44  1  0.74592400  0.57213300  0.97640500  1
  O  O45  1  0.24461300  0.92748100  0.52324300  1
  O  O46  1  0.25493700  0.42810300  0.02373800  1
  O  O47  1  0.12071700  0.44083100  0.35300200  1
loop_
_geom_bond_atom_site_label_1
_geom_bond_atom_site_label_2
_geom_bond_distance
_geom_bond_site_symmetry_2
Be0 O28 1.563811 1_565
Be0 O1 1.630073 1_655
Be0 O14 1.646519 1_555
Be0 O36 1.697222 1_555
Be1 O27 1.570180 1_555
Be1 O17 1.626760 1_565
Be1 O16 1.643547 1_555
Be1 O20 1.716128 1_565
Be2 O26 1.569896 1_555
Be2 O11 1.628300 1_455
Be2 O0 1.644144 1_555
Be2 O46 1.710509 1_555
Be3 O25 1.564440 1_555
Be3 O10 1.629907 1_545
Be3 O18 1.643765 1_555
Be3 O45 1.717618 1_545
Be4 O24 1.570367 1_555
Be4 O9 1.632199 1_655
Be4 O19 1.643282 1_555
Be4 O44 1.709573 1_555
Be5 O35 1.564858 1_555
Be5 O8 1.631716 1_455
Be5 O47 1.650872 1_555
Be5 O41 1.725536 1_555
Be6 O34 1.565933 1_555
Be6 O7 1.638897 1_555
Be6 O21 1.654494 1_565
Be6 O40 1.717997 1_554
Be7 O33 1.565288 1_555
Be7 O6 1.631439 1_655
Be7 O22 1.649854 1_555
Be7 O43 1.725698 1_555
Be8 O32 1.560284 1_555
Be8 O5 1.634526 1_555
Be8 O23 1.655881 1_545
Be8 O42 1.722031 1_556
Be9 O31 1.564808 1_555
Be9 O4 1.625876 1_555
Be9 O13 1.648468 1_555
Be9 O39 1.700674 1_555
Be10 O30 1.563953 1_545
Be10 O3 1.627596 1_455
Be10 O12 1.646717 1_555
Be10 O38 1.699378 1_555
Be11 O29 1.563961 1_555
Be11 O2 1.627096 1_555
Be11 O15 1.650948 1_555
Be11 O37 1.698593 1_555
Cu0 O5 1.973618 1_554
Cu0 O21 2.065368 1_555
Cu0 O13 2.075719 1_555
Cu0 O38 2.092247 1_555
Cu0 O46 2.336583 1_555
Cu0 O42 2.341471 1_555
Cu1 O8 1.973754 1_455
Cu1 O22 2.072642 1_455
Cu1 O14 2.077020 1_455
Cu1 O37 2.098655 1_555
Cu1 O45 2.319685 1_555
Cu1 O41 2.327144 1_555
Cu2 O7 1.969219 1_556
Cu2 O23 2.059336 1_555
Cu2 O15 2.071394 1_555
Cu2 O36 2.098551 1_555
Cu2 O40 2.334475 1_555
Cu2 O44 2.348611 1_555
Cu3 O6 1.973138 1_655
Cu3 O47 2.067177 1_655
Cu3 O12 2.079279 1_655
Cu3 O39 2.096561 1_555
Cu3 O20 2.322347 1_555
Cu3 O43 2.333871 1_555
Cu4 O17 1.991492 1_555
Cu4 O4 2.021707 1_555
Cu4 O18 2.059477 1_555
Cu4 O43 2.075215 1_555
Cu4 O20 2.142631 1_555
Cu4 O39 2.298593 1_555
Cu5 O11 1.992764 1_455
Cu5 O3 2.020559 1_455
Cu5 O19 2.060097 1_454
Cu5 O42 2.072560 1_555
Cu5 O46 2.137431 1_555
Cu5 O38 2.306197 1_555
Cu6 O10 1.990044 1_555
Cu6 O2 2.020954 1_555
Cu6 O16 2.059144 1_555
Cu6 O41 2.077695 1_555
Cu6 O45 2.141227 1_555
Cu6 O37 2.290986 1_555
Cu7 O9 1.988628 1_655
Cu7 O1 2.020818 1_655
Cu7 O0 2.064382 1_656
Cu7 O40 2.077238 1_555
Cu7 O44 2.128860 1_555
Cu7 O36 2.296360 1_555
O0 Si6 1.642480 1_555
O1 Si0 1.645268 1_555
O2 Si1 1.645200 1_555
O3 Si2 1.644397 1_555
O4 Si3 1.644107 1_555
O5 Si4 1.657833 1_555
O6 Si5 1.655791 1_555
O7 Si6 1.659188 1_555
O8 Si7 1.655305 1_555
O9 Si8 1.659042 1_555
O10 Si9 1.657121 1_565
O11 Si10 1.657236 1_555
O12 Si11 1.648816 1_545
O13 Si10 1.649284 1_555
O14 Si9 1.645962 1_565
O15 Si8 1.647565 1_555
O16 Si7 1.642302 1_555
O17 Si11 1.656671 1_545
O18 Si5 1.641563 1_555
O19 Si4 1.642303 1_555
O20 Si9 1.688503 1_555
O21 Si2 1.651808 1_555
O22 Si1 1.652057 1_555
O23 Si0 1.651701 1_555
O24 Si1 1.609231 1_555
O25 Si0 1.605515 1_545
O26 Si3 1.609633 1_555
O27 Si2 1.610327 1_565
O28 Si4 1.608771 1_555
O29 Si5 1.606782 1_555
O30 Si6 1.606980 1_555
O31 Si7 1.607951 1_555
O32 Si8 1.605010 1_555
O33 Si9 1.612010 1_555
O34 Si10 1.610767 1_555
O35 Si11 1.612144 1_555
O36 Si1 1.686325 1_555
O37 Si0 1.689971 1_555
O38 Si3 1.687611 1_555
O39 Si2 1.688030 1_555
O40 Si4 1.688834 1_565
O41 Si5 1.692071 1_555
O42 Si6 1.689275 1_545
O43 Si7 1.691131 1_555
O44 Si10 1.684853 1_556
O45 Si11 1.687042 1_555
O46 Si8 1.687515 1_554
O47 Si3 1.652578 1_555
