# generated using pymatgen
data_Ca5(IrN3)2
_symmetry_space_group_name_H-M   'P 1'
_cell_length_a   6.05083217
_cell_length_b   6.72737574
_cell_length_c   12.46101505
_cell_angle_alpha   90.00000103
_cell_angle_beta   101.55229332
_cell_angle_gamma   123.77307140
_symmetry_Int_Tables_number   1
_chemical_formula_structural   Ca5(IrN3)2
_chemical_formula_sum   'Ca10 Ir4 N12'
_cell_volume   409.22255488
_cell_formula_units_Z   2
loop_
 _symmetry_equiv_pos_site_id
 _symmetry_equiv_pos_as_xyz
  1  'x, y, z'
loop_
 _atom_site_type_symbol
 _atom_site_label
 _atom_site_symmetry_multiplicity
 _atom_site_fract_x
 _atom_site_fract_y
 _atom_site_fract_z
 _atom_site_occupancy
  Ca  Ca0  1  0.00000000  0.37438765  0.75000000  1
  Ca  Ca1  1  0.00000000  0.62561235  0.25000000  1
  Ca  Ca2  1  0.11933988  0.80273389  0.00083219  1
  Ca  Ca3  1  0.88066012  0.68339401  0.49916781  1
  Ca  Ca4  1  0.88066012  0.19726611  0.99916781  1
  Ca  Ca5  1  0.11933988  0.31660599  0.50083219  1
  Ca  Ca6  1  0.32309731  0.03892635  0.72353217  1
  Ca  Ca7  1  0.67690269  0.71582904  0.77646783  1
  Ca  Ca8  1  0.67690269  0.96107365  0.27646783  1
  Ca  Ca9  1  0.32309731  0.28417096  0.22353217  1
  Ir  Ir0  1  0.53611002  0.83422125  0.55308696  1
  Ir  Ir1  1  0.46388998  0.29811123  0.94691304  1
  Ir  Ir2  1  0.46388998  0.16577875  0.44691304  1
  Ir  Ir3  1  0.53611002  0.70188877  0.05308696  1
  N  N0  1  0.26842246  0.67334125  0.64026761  1
  N  N1  1  0.73157754  0.40491979  0.85973239  1
  N  N2  1  0.73157754  0.32665875  0.35973239  1
  N  N3  1  0.26842246  0.59508021  0.14026761  1
  N  N4  1  0.58217216  0.28484439  0.59530991  1
  N  N5  1  0.41782784  0.70267223  0.90469009  1
  N  N6  1  0.41782784  0.71515561  0.40469009  1
  N  N7  1  0.58217216  0.29732777  0.09530991  1
  N  N8  1  0.91237906  0.99569859  0.62745353  1
  N  N9  1  0.08762094  0.08331953  0.87254647  1
  N  N10  1  0.08762094  0.00430141  0.37254647  1
  N  N11  1  0.91237906  0.91668047  0.12745353  1
loop_
_geom_bond_atom_site_label_1
_geom_bond_atom_site_label_2
_geom_bond_distance
_geom_bond_site_symmetry_2
Ca0 N0 2.410451 1_555
Ca0 N1 2.410454 1_455
Ca0 N5 2.612503 1_555
Ca0 N4 2.612503 1_455
Ca0 N8 2.697628 1_445
Ca0 N9 2.697628 1_555
Ca1 N2 2.410451 1_455
Ca1 N3 2.410454 1_555
Ca1 N7 2.612503 1_455
Ca1 N6 2.612503 1_555
Ca1 N10 2.697628 1_565
Ca1 N11 2.697628 1_455
Ca2 N9 2.536773 1_564
Ca2 N11 2.550306 1_455
Ca2 N3 2.560757 1_555
Ca2 N1 2.669298 1_454
Ca2 N5 2.714546 1_554
Ca2 N7 2.935871 1_565
Ca3 N8 2.536773 1_555
Ca3 N10 2.550307 1_665
Ca3 N2 2.560752 1_555
Ca3 N0 2.669302 1_655
Ca3 N4 2.714546 1_555
Ca3 N6 2.935871 1_555
Ca4 N11 2.536773 1_546
Ca4 N9 2.550306 1_655
Ca4 N1 2.560757 1_555
Ca4 N3 2.669298 1_656
Ca4 N7 2.714546 1_556
Ca4 N5 2.935871 1_545
Ca5 N10 2.536773 1_555
Ca5 N8 2.550307 1_445
Ca5 N0 2.560752 1_555
Ca5 N2 2.669302 1_455
Ca5 N6 2.714546 1_555
Ca5 N4 2.935871 1_555
Ca6 N8 2.387232 1_445
Ca6 N4 2.422208 1_555
Ca6 N0 2.488506 1_545
Ca6 N1 2.570136 1_555
Ca6 N9 2.664595 1_555
Ca7 N9 2.387232 1_665
Ca7 N5 2.422208 1_555
Ca7 N1 2.488500 1_555
Ca7 N0 2.570133 1_555
Ca7 N8 2.664595 1_555
Ca8 N10 2.387232 1_665
Ca8 N6 2.422208 1_555
Ca8 N2 2.488506 1_565
Ca8 N3 2.570136 1_555
Ca8 N11 2.664595 1_555
Ca9 N11 2.387232 1_445
Ca9 N7 2.422208 1_555
Ca9 N3 2.488500 1_555
Ca9 N2 2.570133 1_555
Ca9 N10 2.664595 1_555
Ir0 N6 1.845488 1_555
Ir0 N8 1.904611 1_555
Ir0 N0 1.931530 1_555
Ir1 N7 1.845488 1_556
Ir1 N9 1.904611 1_555
Ir1 N1 1.931529 1_555
Ir2 N4 1.845488 1_555
Ir2 N10 1.904611 1_555
Ir2 N2 1.931530 1_555
Ir3 N5 1.845488 1_554
Ir3 N11 1.904611 1_555
Ir3 N3 1.931529 1_555
