# generated using pymatgen
data_VIr
_symmetry_space_group_name_H-M   'P 1'
_cell_length_a   5.56209134
_cell_length_b   13.26890873
_cell_length_c   13.26890873
_cell_angle_alpha   116.11241592
_cell_angle_beta   90.00000000
_cell_angle_gamma   90.00000000
_symmetry_Int_Tables_number   1
_chemical_formula_structural   VIr
_chemical_formula_sum   'V32 Ir32'
_cell_volume   879.33039575
_cell_formula_units_Z   32
loop_
 _symmetry_equiv_pos_site_id
 _symmetry_equiv_pos_as_xyz
  1  'x, y, z'
loop_
 _atom_site_type_symbol
 _atom_site_label
 _atom_site_symmetry_multiplicity
 _atom_site_fract_x
 _atom_site_fract_y
 _atom_site_fract_z
 _atom_site_occupancy
  V  V0_0  1  0.25000000  0.32604507  0.17395493  1
  V  V0_1  1  0.25000000  0.32604507  0.67395493  1
  V  V0_2  1  0.25000000  0.82604507  0.17395493  1
  V  V0_3  1  0.25000000  0.82604507  0.67395493  1
  V  V0_4  1  0.75000000  0.32604507  0.17395493  1
  V  V0_5  1  0.75000000  0.32604507  0.67395493  1
  V  V0_6  1  0.75000000  0.82604507  0.17395493  1
  V  V0_7  1  0.75000000  0.82604507  0.67395493  1
  V  V1_0  1  0.25000000  0.18748799  0.31251201  1
  V  V1_1  1  0.25000000  0.18748799  0.81251201  1
  V  V1_2  1  0.25000000  0.68748798  0.31251201  1
  V  V1_3  1  0.25000000  0.68748798  0.81251202  1
  V  V1_4  1  0.75000000  0.18748799  0.31251201  1
  V  V1_5  1  0.75000000  0.18748799  0.81251201  1
  V  V1_6  1  0.75000000  0.68748798  0.31251201  1
  V  V1_7  1  0.75000000  0.68748798  0.81251202  1
  V  V2_0  1  0.25000000  0.43739941  0.06260059  1
  V  V2_1  1  0.25000000  0.43739942  0.56260058  1
  V  V2_2  1  0.25000000  0.93739942  0.06260059  1
  V  V2_3  1  0.25000000  0.93739942  0.56260058  1
  V  V2_4  1  0.75000000  0.43739941  0.06260059  1
  V  V2_5  1  0.75000000  0.43739942  0.56260058  1
  V  V2_6  1  0.75000000  0.93739942  0.06260059  1
  V  V2_7  1  0.75000000  0.93739942  0.56260058  1
  V  V3_0  1  0.25000000  0.04881056  0.45118944  1
  V  V3_1  1  0.25000000  0.04881055  0.95118945  1
  V  V3_2  1  0.25000000  0.54881055  0.45118945  1
  V  V3_3  1  0.25000000  0.54881055  0.95118945  1
  V  V3_4  1  0.75000000  0.04881056  0.45118944  1
  V  V3_5  1  0.75000000  0.04881055  0.95118945  1
  V  V3_6  1  0.75000000  0.54881055  0.45118945  1
  V  V3_7  1  0.75000000  0.54881055  0.95118945  1
  Ir  Ir0_0  1  0.00000000  0.23605085  0.48946199  1
  Ir  Ir0_1  1  0.00000000  0.23605084  0.98946199  1
  Ir  Ir0_2  1  0.00000000  0.73605084  0.48946199  1
  Ir  Ir0_3  1  0.00000000  0.73605085  0.98946200  1
  Ir  Ir0_4  1  0.50000000  0.23605085  0.48946199  1
  Ir  Ir0_5  1  0.50000000  0.23605084  0.98946199  1
  Ir  Ir0_6  1  0.50000000  0.73605084  0.48946199  1
  Ir  Ir0_7  1  0.50000000  0.73605085  0.98946200  1
  Ir  Ir1_0  1  0.00000000  0.01053801  0.26394915  1
  Ir  Ir1_1  1  0.00000000  0.01053800  0.76394915  1
  Ir  Ir1_2  1  0.00000000  0.51053801  0.26394915  1
  Ir  Ir1_3  1  0.00000000  0.51053801  0.76394916  1
  Ir  Ir1_4  1  0.50000000  0.01053801  0.26394915  1
  Ir  Ir1_5  1  0.50000000  0.01053800  0.76394915  1
  Ir  Ir1_6  1  0.50000000  0.51053801  0.26394915  1
  Ir  Ir1_7  1  0.50000000  0.51053801  0.76394916  1
  Ir  Ir2_0  1  0.00000000  0.13871702  0.13554939  1
  Ir  Ir2_1  1  0.00000000  0.13871702  0.63554939  1
  Ir  Ir2_2  1  0.00000000  0.63871702  0.13554939  1
  Ir  Ir2_3  1  0.00000000  0.63871702  0.63554939  1
  Ir  Ir2_4  1  0.50000000  0.13871702  0.13554939  1
  Ir  Ir2_5  1  0.50000000  0.13871702  0.63554939  1
  Ir  Ir2_6  1  0.50000000  0.63871702  0.13554939  1
  Ir  Ir2_7  1  0.50000000  0.63871702  0.63554939  1
  Ir  Ir3_0  1  0.00000000  0.36445061  0.36128298  1
  Ir  Ir3_1  1  0.00000000  0.36445061  0.86128298  1
  Ir  Ir3_2  1  0.00000000  0.86445061  0.36128298  1
  Ir  Ir3_3  1  0.00000000  0.86445061  0.86128298  1
  Ir  Ir3_4  1  0.50000000  0.36445061  0.36128298  1
  Ir  Ir3_5  1  0.50000000  0.36445061  0.86128298  1
  Ir  Ir3_6  1  0.50000000  0.86445061  0.36128298  1
  Ir  Ir3_7  1  0.50000000  0.86445061  0.86128298  1
loop_
_geom_bond_atom_site_label_1
_geom_bond_atom_site_label_2
_geom_bond_distance
_geom_bond_site_symmetry_2
V0_0 V2_0 2.507603 1_555
V0_1 V2_1 2.507603 1_555
V0_2 V2_2 2.507603 1_555
V0_3 V2_3 2.507603 1_555
V0_4 V2_4 2.507603 1_555
V0_5 V2_5 2.507603 1_555
V0_6 V2_6 2.507603 1_555
V0_7 V2_7 2.507603 1_555
V2_0 V3_3 2.508882 1_554
V2_0 V2_4 2.781046 1_455
V2_0 V2_4 2.781046 1_555
V2_1 V3_2 2.508882 1_555
V2_1 V2_5 2.781046 1_455
V2_1 V2_5 2.781046 1_555
V2_2 V3_1 2.508882 1_564
V2_2 V2_6 2.781046 1_455
V2_2 V2_6 2.781046 1_555
V2_3 V3_0 2.508882 1_565
V2_3 V2_7 2.781046 1_555
V2_3 V2_7 2.781046 1_455
V2_4 V3_7 2.508882 1_554
V2_5 V3_6 2.508882 1_555
V2_6 V3_5 2.508882 1_564
V2_7 V3_4 2.508882 1_565
Ir0_0 V1_0 2.555340 1_555
Ir0_0 V1_4 2.555340 1_455
Ir0_0 V0_5 2.603662 1_455
Ir0_0 V0_1 2.603662 1_555
Ir0_0 V3_0 2.693219 1_555
Ir0_0 V3_4 2.693219 1_455
Ir0_0 V2_5 2.780445 1_455
Ir0_0 V2_1 2.780445 1_555
Ir0_1 V1_5 2.555340 1_455
Ir0_1 V1_1 2.555340 1_555
Ir0_1 V0_4 2.603662 1_456
Ir0_1 V0_0 2.603662 1_556
Ir0_1 V3_1 2.693219 1_555
Ir0_1 V3_5 2.693219 1_455
Ir0_1 V2_0 2.780445 1_556
Ir0_1 V2_4 2.780445 1_456
Ir0_2 V1_6 2.555340 1_455
Ir0_2 V1_2 2.555340 1_555
Ir0_2 V0_3 2.603662 1_555
Ir0_2 V0_7 2.603662 1_455
Ir0_2 V3_6 2.693219 1_455
Ir0_2 V3_2 2.693219 1_555
Ir0_2 V2_7 2.780445 1_455
Ir0_2 V2_3 2.780445 1_555
Ir0_3 V1_7 2.555340 1_455
Ir0_3 V1_3 2.555340 1_555
Ir0_3 V0_2 2.603662 1_556
Ir0_3 V0_6 2.603662 1_456
Ir0_3 V3_7 2.693219 1_455
Ir0_3 V3_3 2.693219 1_555
Ir0_3 V2_2 2.780445 1_556
Ir0_3 V2_6 2.780445 1_456
Ir0_4 V1_4 2.555340 1_555
Ir0_4 V1_0 2.555340 1_555
Ir0_4 V0_5 2.603662 1_555
Ir0_4 V0_1 2.603662 1_555
Ir0_4 V3_0 2.693219 1_555
Ir0_4 V3_4 2.693219 1_555
Ir0_4 V2_5 2.780445 1_555
Ir0_4 V2_1 2.780445 1_555
Ir0_5 V1_5 2.555340 1_555
Ir0_5 V1_1 2.555340 1_555
Ir0_5 V0_4 2.603662 1_556
Ir0_5 V0_0 2.603662 1_556
Ir0_5 V3_1 2.693219 1_555
Ir0_5 V3_5 2.693219 1_555
Ir0_5 V2_0 2.780445 1_556
Ir0_5 V2_4 2.780445 1_556
Ir0_6 V1_6 2.555340 1_555
Ir0_6 V1_2 2.555340 1_555
Ir0_6 V0_7 2.603662 1_555
Ir0_6 V0_3 2.603662 1_555
Ir0_6 V3_6 2.693219 1_555
Ir0_6 V3_2 2.693219 1_555
Ir0_6 V2_7 2.780445 1_555
Ir0_6 V2_3 2.780445 1_555
Ir0_7 V1_7 2.555340 1_555
Ir0_7 V1_3 2.555340 1_555
Ir0_7 V0_2 2.603662 1_556
Ir0_7 V0_6 2.603662 1_556
Ir0_7 V3_3 2.693219 1_555
Ir0_7 V3_7 2.693219 1_555
Ir0_7 V2_2 2.780445 1_556
Ir0_7 V2_6 2.780445 1_556
Ir1_0 V1_0 2.555340 1_555
Ir1_0 V1_4 2.555340 1_455
Ir1_0 V0_2 2.603662 1_545
Ir1_0 V0_6 2.603662 1_445
Ir1_0 V3_0 2.693219 1_555
Ir1_0 V3_4 2.693219 1_455
Ir1_0 V2_2 2.780445 1_545
Ir1_0 V2_6 2.780445 1_445
Ir1_1 V1_5 2.555340 1_455
Ir1_1 V1_1 2.555340 1_555
Ir1_1 V0_7 2.603662 1_445
Ir1_1 V0_3 2.603662 1_545
Ir1_1 V3_1 2.693219 1_555
Ir1_1 V3_5 2.693219 1_455
Ir1_1 V2_3 2.780445 1_545
Ir1_1 V2_7 2.780445 1_445
Ir1_2 V1_2 2.555340 1_555
Ir1_2 V1_6 2.555340 1_455
Ir1_2 V0_0 2.603662 1_555
Ir1_2 V0_4 2.603662 1_455
Ir1_2 V3_6 2.693219 1_455
Ir1_2 V3_2 2.693219 1_555
Ir1_2 V2_4 2.780445 1_455
Ir1_2 V2_0 2.780445 1_555
Ir1_3 V1_7 2.555340 1_455
Ir1_3 V1_3 2.555340 1_555
Ir1_3 V0_1 2.603662 1_555
Ir1_3 V0_5 2.603662 1_455
Ir1_3 V3_3 2.693219 1_555
Ir1_3 V3_7 2.693219 1_455
Ir1_3 V2_1 2.780445 1_555
Ir1_3 V2_5 2.780445 1_455
Ir1_4 V1_0 2.555340 1_555
Ir1_4 V1_4 2.555340 1_555
Ir1_4 V0_2 2.603662 1_545
Ir1_4 V0_6 2.603662 1_545
Ir1_4 V3_0 2.693219 1_555
Ir1_4 V3_4 2.693219 1_555
Ir1_4 V2_2 2.780445 1_545
Ir1_4 V2_6 2.780445 1_545
Ir1_5 V1_5 2.555340 1_555
Ir1_5 V1_1 2.555340 1_555
Ir1_5 V0_3 2.603662 1_545
Ir1_5 V0_7 2.603662 1_545
Ir1_5 V3_5 2.693219 1_555
Ir1_5 V3_1 2.693219 1_555
Ir1_5 V2_3 2.780445 1_545
Ir1_5 V2_7 2.780445 1_545
Ir1_6 V1_2 2.555340 1_555
Ir1_6 V1_6 2.555340 1_555
Ir1_6 V0_0 2.603662 1_555
Ir1_6 V0_4 2.603662 1_555
Ir1_6 V3_2 2.693219 1_555
Ir1_6 V3_6 2.693219 1_555
Ir1_6 V2_4 2.780445 1_555
Ir1_6 V2_0 2.780445 1_555
Ir1_7 V1_7 2.555340 1_555
Ir1_7 V1_3 2.555340 1_555
Ir1_7 V0_1 2.603662 1_555
Ir1_7 V0_5 2.603662 1_555
Ir1_7 V3_3 2.693219 1_555
Ir1_7 V3_7 2.693219 1_555
Ir1_7 V2_5 2.780445 1_555
Ir1_7 V2_1 2.780445 1_555
Ir2_0 V1_4 2.555056 1_455
Ir2_0 V1_0 2.555056 1_555
Ir2_0 V3_1 2.602307 1_554
Ir2_0 V3_5 2.602307 1_454
Ir2_0 V0_0 2.693813 1_555
Ir2_0 V0_4 2.693813 1_455
Ir2_0 V2_2 2.780301 1_545
Ir2_0 V2_6 2.780301 1_445
Ir2_1 V1_1 2.555056 1_555
Ir2_1 V1_5 2.555056 1_455
Ir2_1 V3_4 2.602307 1_455
Ir2_1 V3_0 2.602307 1_555
Ir2_1 V0_5 2.693813 1_455
Ir2_1 V0_1 2.693813 1_555
Ir2_1 V2_3 2.780301 1_545
Ir2_1 V2_7 2.780301 1_445
Ir2_2 V1_6 2.555056 1_455
Ir2_2 V1_2 2.555056 1_555
Ir2_2 V3_7 2.602307 1_454
Ir2_2 V3_3 2.602307 1_554
Ir2_2 V0_6 2.693813 1_455
Ir2_2 V0_2 2.693813 1_555
Ir2_2 V2_4 2.780301 1_455
Ir2_2 V2_0 2.780301 1_555
Ir2_3 V1_3 2.555056 1_555
Ir2_3 V1_7 2.555056 1_455
Ir2_3 V3_6 2.602307 1_455
Ir2_3 V3_2 2.602307 1_555
Ir2_3 V0_3 2.693813 1_555
Ir2_3 V0_7 2.693813 1_455
Ir2_3 V2_1 2.780301 1_555
Ir2_3 V2_5 2.780301 1_455
Ir2_4 V1_4 2.555056 1_555
Ir2_4 V1_0 2.555056 1_555
Ir2_4 V3_1 2.602307 1_554
Ir2_4 V3_5 2.602307 1_554
Ir2_4 V0_0 2.693813 1_555
Ir2_4 V0_4 2.693813 1_555
Ir2_4 V2_2 2.780301 1_545
Ir2_4 V2_6 2.780301 1_545
Ir2_5 V1_5 2.555056 1_555
Ir2_5 V1_1 2.555056 1_555
Ir2_5 V3_4 2.602307 1_555
Ir2_5 V3_0 2.602307 1_555
Ir2_5 V0_5 2.693813 1_555
Ir2_5 V0_1 2.693813 1_555
Ir2_5 V2_3 2.780301 1_545
Ir2_5 V2_7 2.780301 1_545
Ir2_6 V1_2 2.555056 1_555
Ir2_6 V1_6 2.555056 1_555
Ir2_6 V3_7 2.602307 1_554
Ir2_6 V3_3 2.602307 1_554
Ir2_6 V0_2 2.693813 1_555
Ir2_6 V0_6 2.693813 1_555
Ir2_6 V2_4 2.780301 1_555
Ir2_6 V2_0 2.780301 1_555
Ir2_7 V1_3 2.555056 1_555
Ir2_7 V1_7 2.555056 1_555
Ir2_7 V3_6 2.602307 1_555
Ir2_7 V3_2 2.602307 1_555
Ir2_7 V0_7 2.693813 1_555
Ir2_7 V0_3 2.693813 1_555
Ir2_7 V2_1 2.780301 1_555
Ir2_7 V2_5 2.780301 1_555
Ir3_0 V1_4 2.555056 1_455
Ir3_0 V1_0 2.555056 1_555
Ir3_0 V3_6 2.602307 1_455
Ir3_0 V3_2 2.602307 1_555
Ir3_0 V0_0 2.693813 1_555
Ir3_0 V0_4 2.693813 1_455
Ir3_0 V2_1 2.780301 1_555
Ir3_0 V2_5 2.780301 1_455
Ir3_1 V1_5 2.555056 1_455
Ir3_1 V1_1 2.555056 1_555
Ir3_1 V3_3 2.602307 1_555
Ir3_1 V3_7 2.602307 1_455
Ir3_1 V0_5 2.693813 1_455
Ir3_1 V0_1 2.693813 1_555
Ir3_1 V2_0 2.780301 1_556
Ir3_1 V2_4 2.780301 1_456
Ir3_2 V1_6 2.555056 1_455
Ir3_2 V1_2 2.555056 1_555
Ir3_2 V3_0 2.602307 1_565
Ir3_2 V3_4 2.602307 1_465
Ir3_2 V0_6 2.693813 1_455
Ir3_2 V0_2 2.693813 1_555
Ir3_2 V2_3 2.780301 1_555
Ir3_2 V2_7 2.780301 1_455
Ir3_3 V1_7 2.555056 1_455
Ir3_3 V1_3 2.555056 1_555
Ir3_3 V3_1 2.602307 1_565
Ir3_3 V3_5 2.602307 1_465
Ir3_3 V0_3 2.693813 1_555
Ir3_3 V0_7 2.693813 1_455
Ir3_3 V2_2 2.780301 1_556
Ir3_3 V2_6 2.780301 1_456
Ir3_4 V1_4 2.555056 1_555
Ir3_4 V1_0 2.555056 1_555
Ir3_4 V3_2 2.602307 1_555
Ir3_4 V3_6 2.602307 1_555
Ir3_4 V0_0 2.693813 1_555
Ir3_4 V0_4 2.693813 1_555
Ir3_4 V2_5 2.780301 1_555
Ir3_4 V2_1 2.780301 1_555
Ir3_5 V1_5 2.555056 1_555
Ir3_5 V1_1 2.555056 1_555
Ir3_5 V3_3 2.602307 1_555
Ir3_5 V3_7 2.602307 1_555
Ir3_5 V0_5 2.693813 1_555
Ir3_5 V0_1 2.693813 1_555
Ir3_5 V2_0 2.780301 1_556
Ir3_5 V2_4 2.780301 1_556
Ir3_6 V1_2 2.555056 1_555
Ir3_6 V1_6 2.555056 1_555
Ir3_6 V3_0 2.602307 1_565
Ir3_6 V3_4 2.602307 1_565
Ir3_6 V0_2 2.693813 1_555
Ir3_6 V0_6 2.693813 1_555
Ir3_6 V2_3 2.780301 1_555
Ir3_6 V2_7 2.780301 1_555
Ir3_7 V1_7 2.555056 1_555
Ir3_7 V1_3 2.555056 1_555
Ir3_7 V3_1 2.602307 1_565
Ir3_7 V3_5 2.602307 1_565
Ir3_7 V0_7 2.693813 1_555
Ir3_7 V0_3 2.693813 1_555
Ir3_7 V2_2 2.780301 1_556
Ir3_7 V2_6 2.780301 1_556
