# generated using pymatgen
data_Nb3IrS8
_symmetry_space_group_name_H-M   'P 1'
_cell_length_a   6.70356888
_cell_length_b   6.70356888
_cell_length_c   8.53750537
_cell_angle_alpha   53.98026603
_cell_angle_beta   53.98026603
_cell_angle_gamma   60.01521030
_symmetry_Int_Tables_number   1
_chemical_formula_structural   Nb3IrS8
_chemical_formula_sum   'Nb3 Ir1 S8'
_cell_volume   243.93217723
_cell_formula_units_Z   1
loop_
 _symmetry_equiv_pos_site_id
 _symmetry_equiv_pos_as_xyz
  1  'x, y, z'
loop_
 _atom_site_type_symbol
 _atom_site_label
 _atom_site_symmetry_multiplicity
 _atom_site_fract_x
 _atom_site_fract_y
 _atom_site_fract_z
 _atom_site_occupancy
  Nb  Nb0  1  0.50000000  0.50000000  0.00000000  1
  Nb  Nb1  1  0.50000000  0.00000000  0.00000000  1
  Nb  Nb2  1  0.00000000  0.50000000  0.00000000  1
  Ir  Ir0  1  0.00000000  0.00000000  0.00000000  1
  S  S0  1  0.03888000  0.03888000  0.24677800  1
  S  S1  1  0.54304300  0.54304300  0.24782400  1
  S  S2  1  0.55273900  0.03925200  0.24614000  1
  S  S3  1  0.03925200  0.55273900  0.24614000  1
  S  S4  1  0.44726100  0.96074800  0.75386000  1
  S  S5  1  0.96074800  0.44726100  0.75386000  1
  S  S6  1  0.96112000  0.96112000  0.75322200  1
  S  S7  1  0.45695700  0.45695700  0.75217600  1
loop_
_geom_bond_atom_site_label_1
_geom_bond_atom_site_label_2
_geom_bond_distance
_geom_bond_site_symmetry_2
Nb0 S1 2.482414 1_555
Nb0 S7 2.482414 1_554
Nb0 S4 2.495866 1_554
Nb0 S5 2.495866 1_554
Nb0 S2 2.495866 1_555
Nb0 S3 2.495866 1_555
Nb1 S7 2.480957 1_554
Nb1 S1 2.480957 1_545
Nb1 S2 2.495456 1_555
Nb1 S4 2.495456 1_544
Nb1 S0 2.498575 1_555
Nb1 S6 2.498575 1_544
Nb2 S7 2.480957 1_554
Nb2 S1 2.480957 1_455
Nb2 S3 2.495456 1_555
Nb2 S5 2.495456 1_454
Nb2 S0 2.498575 1_555
Nb2 S6 2.498575 1_454
Ir0 S4 2.434373 1_544
Ir0 S5 2.434373 1_454
Ir0 S3 2.434373 1_545
Ir0 S2 2.434373 1_455
Ir0 S6 2.436049 1_444
Ir0 S0 2.436049 1_555
