# generated using pymatgen
data_BaEuZr4O12
_symmetry_space_group_name_H-M   'P 1'
_cell_length_a   5.85801419
_cell_length_b   5.85801419
_cell_length_c   8.26717428
_cell_angle_alpha   90.00000000
_cell_angle_beta   90.00000000
_cell_angle_gamma   90.10481156
_symmetry_Int_Tables_number   1
_chemical_formula_structural   BaEuZr4O12
_chemical_formula_sum   'Ba1 Eu1 Zr4 O12'
_cell_volume   283.69860810
_cell_formula_units_Z   1
loop_
 _symmetry_equiv_pos_site_id
 _symmetry_equiv_pos_as_xyz
  1  'x, y, z'
loop_
 _atom_site_type_symbol
 _atom_site_label
 _atom_site_symmetry_multiplicity
 _atom_site_fract_x
 _atom_site_fract_y
 _atom_site_fract_z
 _atom_site_occupancy
  Ba  Ba0  1  0.50641190  0.50641190  -0.00000000  1
  Eu  Eu0  1  0.99107409  0.99107409  0.50000000  1
  Zr  Zr0  1  0.49817401  0.00199026  0.74747392  1
  Zr  Zr1  1  0.49817401  0.00199026  0.25252608  1
  Zr  Zr2  1  0.00199026  0.49817401  0.25252608  1
  Zr  Zr3  1  0.00199026  0.49817401  0.74747392  1
  O  O0  1  0.73080797  0.26926101  0.74651281  1
  O  O1  1  0.26926101  0.73080797  0.74651281  1
  O  O2  1  0.26926101  0.73080797  0.25348719  1
  O  O3  1  0.73080797  0.26926101  0.25348719  1
  O  O4  1  0.77660329  0.77660329  0.76360800  1
  O  O5  1  0.21316604  0.21316604  0.71107150  1
  O  O6  1  0.21316604  0.21316604  0.28892850  1
  O  O7  1  0.77660329  0.77660329  0.23639200  1
  O  O8  1  0.47790313  0.02205702  -0.00000000  1
  O  O9  1  0.54382134  0.98002734  0.50000000  1
  O  O10  1  0.02205702  0.47790313  -0.00000000  1
  O  O11  1  0.98002734  0.54382134  0.50000000  1
loop_
_geom_bond_atom_site_label_1
_geom_bond_atom_site_label_2
_geom_bond_distance
_geom_bond_site_symmetry_2
Ba0 O0 2.838351 1_554
Ba0 O3 2.838351 1_555
Ba0 O1 2.838351 1_554
Ba0 O2 2.838351 1_555
Ba0 O8 2.841963 1_555
Ba0 O10 2.841963 1_555
Ba0 O7 2.969935 1_555
Ba0 O4 2.969935 1_554
Ba0 O10 3.025575 1_655
Ba0 O8 3.025575 1_565
Eu0 O5 2.534562 1_665
Eu0 O6 2.534562 1_665
Eu0 O9 2.620694 1_555
Eu0 O11 2.620694 1_555
Eu0 O4 2.810781 1_555
Eu0 O7 2.810781 1_555
Eu0 O0 3.023672 1_565
Eu0 O1 3.023672 1_655
Eu0 O2 3.023672 1_655
Eu0 O3 3.023672 1_565
Eu0 O11 3.238766 1_565
Eu0 O9 3.238766 1_655
O0 Zr0 2.073825 1_555
O0 Zr3 2.077042 1_655
O1 Zr3 2.073825 1_555
O1 Zr0 2.077042 1_565
O2 Zr2 2.073825 1_555
O2 Zr1 2.077042 1_565
O3 Zr1 2.073825 1_555
O3 Zr2 2.077042 1_655
O4 Zr3 2.104570 1_655
O4 Zr0 2.104570 1_565
O5 Zr0 2.101421 1_555
O5 Zr3 2.101421 1_555
O6 Zr2 2.101421 1_555
O6 Zr1 2.101421 1_555
O7 Zr1 2.104570 1_565
O7 Zr2 2.104570 1_655
O8 Zr1 2.094365 1_555
O8 Zr0 2.094365 1_554
O9 Zr0 2.067349 1_565
O9 Zr1 2.067349 1_565
O10 Zr2 2.094365 1_555
O10 Zr3 2.094365 1_554
O11 Zr2 2.067349 1_655
O11 Zr3 2.067349 1_655
