# generated using pymatgen
data_Mg3H2(SO5)2
_symmetry_space_group_name_H-M   'P 1'
_cell_length_a   5.16283945
_cell_length_b   5.56667800
_cell_length_c   7.51557877
_cell_angle_alpha   68.26325199
_cell_angle_beta   69.68117094
_cell_angle_gamma   90.00000000
_symmetry_Int_Tables_number   1
_chemical_formula_structural   Mg3H2(SO5)2
_chemical_formula_sum   'Mg3 H2 S2 O10'
_cell_volume   186.09192993
_cell_formula_units_Z   1
loop_
 _symmetry_equiv_pos_site_id
 _symmetry_equiv_pos_as_xyz
  1  'x, y, z'
loop_
 _atom_site_type_symbol
 _atom_site_label
 _atom_site_symmetry_multiplicity
 _atom_site_fract_x
 _atom_site_fract_y
 _atom_site_fract_z
 _atom_site_occupancy
  Mg  Mg0  1  0.50000000  0.00000000  0.50000000  1
  Mg  Mg1  1  0.50000000  0.00000000  0.00000000  1
  Mg  Mg2  1  0.50000000  0.50000000  0.00000000  1
  H  H0  1  0.81252800  0.89657800  0.70684400  1
  H  H1  1  0.18747200  0.10342200  0.29315600  1
  S  S0  1  0.86566700  0.62291600  0.25416800  1
  S  S1  1  0.13433300  0.37708400  0.74583200  1
  O  O0  1  0.60872500  0.86811000  0.76378000  1
  O  O1  1  0.39127500  0.13189000  0.23622000  1
  O  O2  1  0.70476800  0.69349400  0.11301200  1
  O  O3  1  0.19792700  0.21651800  0.62311600  1
  O  O4  1  0.19792700  0.66036600  0.62311600  1
  O  O5  1  0.17035000  0.68994900  0.12010200  1
  O  O6  1  0.29523200  0.30650600  0.88698800  1
  O  O7  1  0.80207300  0.78348200  0.37688400  1
  O  O8  1  0.80207300  0.33963400  0.37688400  1
  O  O9  1  0.82965000  0.31005100  0.87989800  1
loop_
_geom_bond_atom_site_label_1
_geom_bond_atom_site_label_2
_geom_bond_distance
_geom_bond_site_symmetry_2
Mg0 O1 2.116374 1_555
Mg0 O0 2.116374 1_545
Mg0 O8 2.136574 1_555
Mg0 O7 2.136574 1_545
Mg0 O4 2.136574 1_545
Mg0 O3 2.136574 1_555
Mg1 O0 2.068638 1_544
Mg1 O1 2.068638 1_555
Mg1 O2 2.073748 1_545
Mg1 O6 2.073748 1_554
Mg1 O9 2.114102 1_554
Mg1 O5 2.114102 1_545
Mg2 O0 2.068638 1_554
Mg2 O1 2.068638 1_555
Mg2 O2 2.073748 1_555
Mg2 O6 2.073748 1_554
Mg2 O9 2.114102 1_554
Mg2 O5 2.114102 1_555
H0 O0 0.975926 1_555
H1 O1 0.975926 1_555
O2 S0 1.507701 1_555
O3 S1 1.468878 1_555
O4 S1 1.468878 1_555
O5 S0 1.499890 1_455
O6 S1 1.507701 1_555
O7 S0 1.468878 1_555
O8 S0 1.468878 1_555
O9 S1 1.499890 1_655
