# generated using pymatgen
data_CaMg14MnO16
_symmetry_space_group_name_H-M   'P 1'
_cell_length_a   4.33968900
_cell_length_b   8.62812200
_cell_length_c   8.63997500
_cell_angle_alpha   90.00000000
_cell_angle_beta   90.00000000
_cell_angle_gamma   90.00000000
_symmetry_Int_Tables_number   1
_chemical_formula_structural   CaMg14MnO16
_chemical_formula_sum   'Ca1 Mg14 Mn1 O16'
_cell_volume   323.50974731
_cell_formula_units_Z   1
loop_
 _symmetry_equiv_pos_site_id
 _symmetry_equiv_pos_as_xyz
  1  'x, y, z'
loop_
 _atom_site_type_symbol
 _atom_site_label
 _atom_site_symmetry_multiplicity
 _atom_site_fract_x
 _atom_site_fract_y
 _atom_site_fract_z
 _atom_site_occupancy
  Ca  Ca0  1  0.00000000  0.00000000  0.00000000  1
  Mg  Mg0  1  0.00000000  0.50000000  0.00000000  1
  Mg  Mg1  1  0.00000000  0.50000000  0.50000000  1
  Mg  Mg2  1  0.50000000  0.00000000  0.25390600  1
  Mg  Mg3  1  0.50000000  0.00000000  0.74609400  1
  Mg  Mg4  1  0.50000000  0.50000000  0.25064600  1
  Mg  Mg5  1  0.50000000  0.50000000  0.74935400  1
  Mg  Mg6  1  0.50000000  0.25576600  0.00000000  1
  Mg  Mg7  1  0.50000000  0.25244100  0.50000000  1
  Mg  Mg8  1  0.50000000  0.74423400  0.00000000  1
  Mg  Mg9  1  0.50000000  0.74755900  0.50000000  1
  Mg  Mg10  1  0.00000000  0.25442400  0.25245200  1
  Mg  Mg11  1  0.00000000  0.25442400  0.74754800  1
  Mg  Mg12  1  0.00000000  0.74557600  0.25245200  1
  Mg  Mg13  1  0.00000000  0.74557600  0.74754800  1
  Mn  Mn0  1  0.00000000  0.00000000  0.50000000  1
  O  O0  1  0.00000000  0.26390200  0.00000000  1
  O  O1  1  0.00000000  0.26002100  0.50000000  1
  O  O2  1  0.00000000  0.73609800  0.00000000  1
  O  O3  1  0.00000000  0.73997900  0.50000000  1
  O  O4  1  0.50000000  0.24946200  0.25029000  1
  O  O5  1  0.50000000  0.24946200  0.74971000  1
  O  O6  1  0.50000000  0.75053800  0.25029000  1
  O  O7  1  0.50000000  0.75053800  0.74971000  1
  O  O8  1  0.50000000  0.00000000  0.00000000  1
  O  O9  1  0.50000000  0.00000000  0.50000000  1
  O  O10  1  0.50000000  0.50000000  0.00000000  1
  O  O11  1  0.50000000  0.50000000  0.50000000  1
  O  O12  1  0.00000000  0.00000000  0.25707400  1
  O  O13  1  0.00000000  0.00000000  0.74292600  1
  O  O14  1  0.00000000  0.50000000  0.25125400  1
  O  O15  1  0.00000000  0.50000000  0.74874600  1
loop_
_geom_bond_atom_site_label_1
_geom_bond_atom_site_label_2
_geom_bond_distance
_geom_bond_site_symmetry_2
Ca0 O8 2.169844 1_455
Ca0 O8 2.169844 1_555
Ca0 O12 2.221113 1_555
Ca0 O13 2.221113 1_554
Ca0 O2 2.276979 1_545
Ca0 O0 2.276979 1_555
Mg0 O0 2.037082 1_555
Mg0 O2 2.037082 1_555
Mg0 O10 2.169844 1_455
Mg0 O10 2.169844 1_555
Mg0 O14 2.170828 1_555
Mg0 O15 2.170828 1_554
Mg1 O1 2.070568 1_555
Mg1 O3 2.070568 1_555
Mg1 O15 2.149159 1_555
Mg1 O14 2.149159 1_555
Mg1 O11 2.169844 1_455
Mg1 O11 2.169844 1_555
Mg2 O9 2.126246 1_555
Mg2 O6 2.152615 1_545
Mg2 O4 2.152615 1_555
Mg2 O12 2.170017 1_655
Mg2 O12 2.170017 1_555
Mg2 O8 2.193741 1_555
Mg3 O9 2.126246 1_555
Mg3 O7 2.152615 1_545
Mg3 O5 2.152615 1_555
Mg3 O13 2.170017 1_655
Mg3 O13 2.170017 1_555
Mg3 O8 2.193741 1_556
Mg4 O11 2.154412 1_555
Mg4 O4 2.161675 1_555
Mg4 O6 2.161675 1_555
Mg4 O10 2.165575 1_555
Mg4 O14 2.169851 1_555
Mg4 O14 2.169851 1_655
Mg5 O11 2.154412 1_555
Mg5 O7 2.161675 1_555
Mg5 O5 2.161675 1_555
Mg5 O10 2.165575 1_556
Mg5 O15 2.169851 1_655
Mg5 O15 2.169851 1_555
Mg6 O10 2.107281 1_555
Mg6 O4 2.163183 1_555
Mg6 O5 2.163183 1_554
Mg6 O0 2.170980 1_655
Mg6 O0 2.170980 1_555
Mg6 O8 2.206780 1_555
Mg7 O11 2.135969 1_555
Mg7 O5 2.157641 1_555
Mg7 O4 2.157641 1_555
Mg7 O1 2.170830 1_655
Mg7 O1 2.170830 1_555
Mg7 O9 2.178092 1_555
Mg8 O10 2.107281 1_555
Mg8 O7 2.163183 1_554
Mg8 O6 2.163183 1_555
Mg8 O2 2.170980 1_655
Mg8 O2 2.170980 1_555
Mg8 O8 2.206780 1_565
Mg9 O11 2.135969 1_555
Mg9 O6 2.157641 1_555
Mg9 O7 2.157641 1_555
Mg9 O3 2.170830 1_555
Mg9 O3 2.170830 1_655
Mg9 O9 2.178092 1_565
Mg10 O14 2.118885 1_555
Mg10 O1 2.139354 1_555
Mg10 O4 2.170347 1_455
Mg10 O4 2.170347 1_555
Mg10 O0 2.182711 1_555
Mg10 O12 2.195565 1_555
Mg11 O15 2.118885 1_555
Mg11 O1 2.139354 1_555
Mg11 O5 2.170347 1_555
Mg11 O5 2.170347 1_455
Mg11 O0 2.182711 1_556
Mg11 O13 2.195565 1_555
Mg12 O14 2.118885 1_555
Mg12 O3 2.139354 1_555
Mg12 O6 2.170347 1_555
Mg12 O6 2.170347 1_455
Mg12 O2 2.182711 1_555
Mg12 O12 2.195565 1_565
Mg13 O15 2.118885 1_555
Mg13 O3 2.139354 1_555
Mg13 O7 2.170347 1_555
Mg13 O7 2.170347 1_455
Mg13 O2 2.182711 1_556
Mg13 O13 2.195565 1_565
Mn0 O13 2.098875 1_555
Mn0 O12 2.098875 1_555
Mn0 O9 2.169844 1_555
Mn0 O9 2.169844 1_455
Mn0 O3 2.243493 1_545
Mn0 O1 2.243493 1_555
