# generated using pymatgen
data_Te4W3S2
_symmetry_space_group_name_H-M   'P 1'
_cell_length_a   3.42149287
_cell_length_b   3.42149287
_cell_length_c   31.74936200
_cell_angle_alpha   90.00000000
_cell_angle_beta   90.00000000
_cell_angle_gamma   120.00001690
_symmetry_Int_Tables_number   1
_chemical_formula_structural   Te4W3S2
_chemical_formula_sum   'Te4 W3 S2'
_cell_volume   321.88211032
_cell_formula_units_Z   1
loop_
 _symmetry_equiv_pos_site_id
 _symmetry_equiv_pos_as_xyz
  1  'x, y, z'
loop_
 _atom_site_type_symbol
 _atom_site_label
 _atom_site_symmetry_multiplicity
 _atom_site_fract_x
 _atom_site_fract_y
 _atom_site_fract_z
 _atom_site_occupancy
  Te  Te0  1  0.00000000  0.00000000  0.40589000  1
  Te  Te1  1  0.33333300  0.66666700  0.51938000  1
  Te  Te2  1  0.33333300  0.66666700  0.63734000  1
  Te  Te3  1  0.00000000  0.00000000  0.28794600  1
  W  W0  1  0.00000000  0.00000000  0.11565900  1
  W  W1  1  0.00000000  0.00000000  0.57839100  1
  W  W2  1  0.33333300  0.66666700  0.34691500  1
  S  S0  1  0.33333300  0.66666700  0.06839300  1
  S  S1  1  0.33333300  0.66666700  0.16292500  1
loop_
_geom_bond_atom_site_label_1
_geom_bond_atom_site_label_2
_geom_bond_distance
_geom_bond_site_symmetry_2
Te0 W2 2.721791 1_545
Te0 W2 2.721793 1_445
Te0 W2 2.721793 1_555
Te1 W1 2.722578 1_565
Te1 W1 2.722580 1_555
Te1 W1 2.722580 1_665
Te2 W1 2.721224 1_565
Te2 W1 2.721225 1_555
Te2 W1 2.721225 1_665
Te3 W2 2.721660 1_545
Te3 W2 2.721662 1_445
Te3 W2 2.721662 1_555
S0 W0 2.480765 1_565
S0 W0 2.480767 1_665
S0 W0 2.480767 1_555
S1 W0 2.480765 1_565
S1 W0 2.480767 1_665
S1 W0 2.480767 1_555
