# generated using pymatgen
data_Nd4Si7
_symmetry_space_group_name_H-M   'P 1'
_cell_length_a   6.53499400
_cell_length_b   11.17865800
_cell_length_c   31.63342800
_cell_angle_alpha   90.00000000
_cell_angle_beta   90.00000000
_cell_angle_gamma   90.00000000
_symmetry_Int_Tables_number   1
_chemical_formula_structural   Nd4Si7
_chemical_formula_sum   'Nd32 Si56'
_cell_volume   2310.89982721
_cell_formula_units_Z   8
loop_
 _symmetry_equiv_pos_site_id
 _symmetry_equiv_pos_as_xyz
  1  'x, y, z'
loop_
 _atom_site_type_symbol
 _atom_site_label
 _atom_site_symmetry_multiplicity
 _atom_site_fract_x
 _atom_site_fract_y
 _atom_site_fract_z
 _atom_site_occupancy
  Nd  Nd0_0  1  0.00000000  0.37500000  0.09589200  1
  Nd  Nd0_1  1  0.00000000  0.37500000  0.59589200  1
  Nd  Nd0_2  1  0.00000000  0.87500000  0.09589200  1
  Nd  Nd0_3  1  0.00000000  0.87500000  0.59589200  1
  Nd  Nd0_4  1  0.50000000  0.37500000  0.09589200  1
  Nd  Nd0_5  1  0.50000000  0.37500000  0.59589200  1
  Nd  Nd0_6  1  0.50000000  0.87500000  0.09589200  1
  Nd  Nd0_7  1  0.50000000  0.87500000  0.59589200  1
  Nd  Nd1_0  1  0.00000000  0.37500000  0.31560200  1
  Nd  Nd1_1  1  0.00000000  0.37500000  0.81560200  1
  Nd  Nd1_2  1  0.00000000  0.87500000  0.31560200  1
  Nd  Nd1_3  1  0.00000000  0.87500000  0.81560200  1
  Nd  Nd1_4  1  0.50000000  0.37500000  0.31560200  1
  Nd  Nd1_5  1  0.50000000  0.37500000  0.81560200  1
  Nd  Nd1_6  1  0.50000000  0.87500000  0.31560200  1
  Nd  Nd1_7  1  0.50000000  0.87500000  0.81560200  1
  Nd  Nd2_0  1  0.00000000  0.12500000  0.16895300  1
  Nd  Nd2_1  1  0.00000000  0.12500000  0.66895300  1
  Nd  Nd2_2  1  0.00000000  0.62500000  0.16895300  1
  Nd  Nd2_3  1  0.00000000  0.62500000  0.66895300  1
  Nd  Nd2_4  1  0.50000000  0.12500000  0.16895300  1
  Nd  Nd2_5  1  0.50000000  0.12500000  0.66895300  1
  Nd  Nd2_6  1  0.50000000  0.62500000  0.16895300  1
  Nd  Nd2_7  1  0.50000000  0.62500000  0.66895300  1
  Nd  Nd3_0  1  0.00000000  0.12500000  0.41805200  1
  Nd  Nd3_1  1  0.00000000  0.12500000  0.91805200  1
  Nd  Nd3_2  1  0.00000000  0.62500000  0.41805200  1
  Nd  Nd3_3  1  0.00000000  0.62500000  0.91805200  1
  Nd  Nd3_4  1  0.50000000  0.12500000  0.41805200  1
  Nd  Nd3_5  1  0.50000000  0.12500000  0.91805200  1
  Nd  Nd3_6  1  0.50000000  0.62500000  0.41805200  1
  Nd  Nd3_7  1  0.50000000  0.62500000  0.91805200  1
  Si  Si0_0  1  0.00000000  0.37500000  0.19922600  1
  Si  Si0_1  1  0.00000000  0.37500000  0.69922600  1
  Si  Si0_2  1  0.00000000  0.87500000  0.19922600  1
  Si  Si0_3  1  0.00000000  0.87500000  0.69922600  1
  Si  Si0_4  1  0.50000000  0.37500000  0.19922600  1
  Si  Si0_5  1  0.50000000  0.37500000  0.69922600  1
  Si  Si0_6  1  0.50000000  0.87500000  0.19922600  1
  Si  Si0_7  1  0.50000000  0.87500000  0.69922600  1
  Si  Si1_0  1  0.00000000  0.37500000  0.40882750  1
  Si  Si1_1  1  0.00000000  0.37500000  0.90882750  1
  Si  Si1_2  1  0.00000000  0.87500000  0.40882750  1
  Si  Si1_3  1  0.00000000  0.87500000  0.90882750  1
  Si  Si1_4  1  0.50000000  0.37500000  0.40882750  1
  Si  Si1_5  1  0.50000000  0.37500000  0.90882750  1
  Si  Si1_6  1  0.50000000  0.87500000  0.40882750  1
  Si  Si1_7  1  0.50000000  0.87500000  0.90882750  1
  Si  Si2_0  1  0.00000000  0.12500000  0.07855900  1
  Si  Si2_1  1  0.00000000  0.12500000  0.57855900  1
  Si  Si2_2  1  0.00000000  0.62500000  0.07855900  1
  Si  Si2_3  1  0.00000000  0.62500000  0.57855900  1
  Si  Si2_4  1  0.50000000  0.12500000  0.07855900  1
  Si  Si2_5  1  0.50000000  0.12500000  0.57855900  1
  Si  Si2_6  1  0.50000000  0.62500000  0.07855900  1
  Si  Si2_7  1  0.50000000  0.62500000  0.57855900  1
  Si  Si3_0  1  0.00000000  0.12500000  0.32792350  1
  Si  Si3_1  1  0.00000000  0.12500000  0.82792350  1
  Si  Si3_2  1  0.00000000  0.62500000  0.32792350  1
  Si  Si3_3  1  0.00000000  0.62500000  0.82792350  1
  Si  Si3_4  1  0.50000000  0.12500000  0.32792350  1
  Si  Si3_5  1  0.50000000  0.12500000  0.82792350  1
  Si  Si3_6  1  0.50000000  0.62500000  0.32792350  1
  Si  Si3_7  1  0.50000000  0.62500000  0.82792350  1
  Si  Si4_0  1  0.00000000  0.37500000  0.48259900  1
  Si  Si4_1  1  0.00000000  0.37500000  0.98259900  1
  Si  Si4_2  1  0.00000000  0.87500000  0.48259900  1
  Si  Si4_3  1  0.00000000  0.87500000  0.98259900  1
  Si  Si4_4  1  0.50000000  0.37500000  0.48259900  1
  Si  Si4_5  1  0.50000000  0.37500000  0.98259900  1
  Si  Si4_6  1  0.50000000  0.87500000  0.48259900  1
  Si  Si4_7  1  0.50000000  0.87500000  0.98259900  1
  Si  Si5_0  1  0.00000000  0.12500000  0.00856200  1
  Si  Si5_1  1  0.00000000  0.12500000  0.50856200  1
  Si  Si5_2  1  0.00000000  0.62500000  0.00856200  1
  Si  Si5_3  1  0.00000000  0.62500000  0.50856200  1
  Si  Si5_4  1  0.50000000  0.12500000  0.00856200  1
  Si  Si5_5  1  0.50000000  0.12500000  0.50856200  1
  Si  Si5_6  1  0.50000000  0.62500000  0.00856200  1
  Si  Si5_7  1  0.50000000  0.62500000  0.50856200  1
  Si  Si6_0  1  0.00000000  0.12500000  0.25700400  1
  Si  Si6_1  1  0.00000000  0.12500000  0.75700400  1
  Si  Si6_2  1  0.00000000  0.62500000  0.25700400  1
  Si  Si6_3  1  0.00000000  0.62500000  0.75700400  1
  Si  Si6_4  1  0.50000000  0.12500000  0.25700400  1
  Si  Si6_5  1  0.50000000  0.12500000  0.75700400  1
  Si  Si6_6  1  0.50000000  0.62500000  0.25700400  1
  Si  Si6_7  1  0.50000000  0.62500000  0.75700400  1
loop_
_geom_bond_atom_site_label_1
_geom_bond_atom_site_label_2
_geom_bond_distance
_geom_bond_site_symmetry_2
Nd0_0 Si2_2 2.847944 1_555
Nd0_0 Si2_0 2.847944 1_555
Nd0_0 Nd0_4 3.267497 1_555
Nd0_0 Nd0_4 3.267497 1_455
Nd0_0 Si0_0 3.268809 1_555
Nd0_0 Si4_1 3.583846 1_554
Nd0_1 Si2_3 2.847944 1_555
Nd0_1 Si2_1 2.847944 1_555
Nd0_1 Nd0_5 3.267497 1_555
Nd0_1 Nd0_5 3.267497 1_455
Nd0_1 Si0_1 3.268809 1_555
Nd0_1 Si4_0 3.583846 1_555
Nd0_2 Si2_0 2.847944 1_565
Nd0_2 Si2_2 2.847944 1_555
Nd0_2 Nd0_6 3.267497 1_555
Nd0_2 Nd0_6 3.267497 1_455
Nd0_2 Si0_2 3.268809 1_555
Nd0_2 Si4_3 3.583846 1_554
Nd0_3 Si2_1 2.847944 1_565
Nd0_3 Si2_3 2.847944 1_555
Nd0_3 Nd0_7 3.267497 1_455
Nd0_3 Nd0_7 3.267497 1_555
Nd0_3 Si0_3 3.268809 1_555
Nd0_3 Si4_2 3.583846 1_555
Nd0_4 Si2_6 2.847944 1_555
Nd0_4 Si2_4 2.847944 1_555
Nd0_4 Si0_4 3.268809 1_555
Nd0_4 Si4_5 3.583846 1_554
Nd0_5 Si2_7 2.847944 1_555
Nd0_5 Si2_5 2.847944 1_555
Nd0_5 Si0_5 3.268809 1_555
Nd0_5 Si4_4 3.583846 1_555
Nd0_6 Si2_4 2.847944 1_565
Nd0_6 Si2_6 2.847944 1_555
Nd0_6 Si0_6 3.268809 1_555
Nd0_6 Si4_7 3.583846 1_554
Nd0_7 Si2_5 2.847944 1_565
Nd0_7 Si2_7 2.847944 1_555
Nd0_7 Si0_7 3.268809 1_555
Nd0_7 Si4_6 3.583846 1_555
Nd1_0 Si3_2 2.821714 1_555
Nd1_0 Si3_0 2.821714 1_555
Nd1_0 Si1_0 2.949042 1_555
Nd1_0 Si6_2 3.353534 1_555
Nd1_0 Si6_0 3.353534 1_555
Nd1_0 Si0_0 3.681372 1_555
Nd1_1 Si3_3 2.821714 1_555
Nd1_1 Si3_1 2.821714 1_555
Nd1_1 Si1_1 2.949042 1_555
Nd1_1 Si6_3 3.353534 1_555
Nd1_1 Si6_1 3.353534 1_555
Nd1_1 Si0_1 3.681372 1_555
Nd1_2 Si3_0 2.821714 1_565
Nd1_2 Si3_2 2.821714 1_555
Nd1_2 Si1_2 2.949042 1_555
Nd1_2 Si6_0 3.353534 1_565
Nd1_2 Si6_2 3.353534 1_555
Nd1_2 Si0_2 3.681372 1_555
Nd1_3 Si3_1 2.821714 1_565
Nd1_3 Si3_3 2.821714 1_555
Nd1_3 Si1_3 2.949042 1_555
Nd1_3 Si6_1 3.353534 1_565
Nd1_3 Si6_3 3.353534 1_555
Nd1_3 Si0_3 3.681372 1_555
Nd1_4 Si3_6 2.821714 1_555
Nd1_4 Si3_4 2.821714 1_555
Nd1_4 Si1_4 2.949042 1_555
Nd1_4 Si6_6 3.353534 1_555
Nd1_4 Si6_4 3.353534 1_555
Nd1_4 Si0_4 3.681372 1_555
Nd1_5 Si3_7 2.821714 1_555
Nd1_5 Si3_5 2.821714 1_555
Nd1_5 Si1_5 2.949042 1_555
Nd1_5 Si6_7 3.353534 1_555
Nd1_5 Si6_5 3.353534 1_555
Nd1_5 Si0_5 3.681372 1_555
Nd1_6 Si3_4 2.821714 1_565
Nd1_6 Si3_6 2.821714 1_555
Nd1_6 Si1_6 2.949042 1_555
Nd1_6 Si6_4 3.353534 1_565
Nd1_6 Si6_6 3.353534 1_555
Nd1_6 Si0_6 3.681372 1_555
Nd1_7 Si3_5 2.821714 1_565
Nd1_7 Si3_7 2.821714 1_555
Nd1_7 Si1_7 2.949042 1_555
Nd1_7 Si6_5 3.353534 1_565
Nd1_7 Si6_7 3.353534 1_555
Nd1_7 Si0_7 3.681372 1_555
Nd2_0 Si6_0 2.785355 1_555
Nd2_0 Si2_0 2.859472 1_555
Nd2_0 Si0_2 2.954187 1_545
Nd2_0 Si0_0 2.954187 1_555
Nd2_1 Si6_1 2.785355 1_555
Nd2_1 Si2_1 2.859472 1_555
Nd2_1 Si0_3 2.954187 1_545
Nd2_1 Si0_1 2.954187 1_555
Nd2_2 Si6_2 2.785355 1_555
Nd2_2 Si2_2 2.859472 1_555
Nd2_2 Si0_0 2.954187 1_555
Nd2_2 Si0_2 2.954187 1_555
Nd2_3 Si6_3 2.785355 1_555
Nd2_3 Si2_3 2.859472 1_555
Nd2_3 Si0_1 2.954187 1_555
Nd2_3 Si0_3 2.954187 1_555
Nd2_4 Si6_4 2.785355 1_555
Nd2_4 Si2_4 2.859472 1_555
Nd2_4 Si0_6 2.954187 1_545
Nd2_4 Si0_4 2.954187 1_555
Nd2_5 Si6_5 2.785355 1_555
Nd2_5 Si2_5 2.859472 1_555
Nd2_5 Si0_7 2.954187 1_545
Nd2_5 Si0_5 2.954187 1_555
Nd2_6 Si6_6 2.785355 1_555
Nd2_6 Si2_6 2.859472 1_555
Nd2_6 Si0_4 2.954187 1_555
Nd2_6 Si0_6 2.954187 1_555
Nd2_7 Si6_7 2.785355 1_555
Nd2_7 Si2_7 2.859472 1_555
Nd2_7 Si0_5 2.954187 1_555
Nd2_7 Si0_7 2.954187 1_555
Nd3_0 Si1_2 2.809857 1_545
Nd3_0 Si1_0 2.809857 1_555
Nd3_0 Si3_0 2.851073 1_555
Nd3_0 Si5_1 2.863142 1_555
Nd3_0 Si4_2 3.461108 1_545
Nd3_0 Si4_0 3.461108 1_555
Nd3_1 Si1_3 2.809857 1_545
Nd3_1 Si1_1 2.809857 1_555
Nd3_1 Si3_1 2.851073 1_555
Nd3_1 Si5_0 2.863142 1_556
Nd3_1 Si4_3 3.461108 1_545
Nd3_1 Si4_1 3.461108 1_555
Nd3_2 Si1_0 2.809857 1_555
Nd3_2 Si1_2 2.809857 1_555
Nd3_2 Si3_2 2.851073 1_555
Nd3_2 Si5_3 2.863142 1_555
Nd3_2 Si4_0 3.461108 1_555
Nd3_2 Si4_2 3.461108 1_555
Nd3_3 Si1_1 2.809857 1_555
Nd3_3 Si1_3 2.809857 1_555
Nd3_3 Si3_3 2.851073 1_555
Nd3_3 Si5_2 2.863142 1_556
Nd3_3 Si4_1 3.461108 1_555
Nd3_3 Si4_3 3.461108 1_555
Nd3_4 Si1_6 2.809857 1_545
Nd3_4 Si1_4 2.809857 1_555
Nd3_4 Si3_4 2.851073 1_555
Nd3_4 Si5_5 2.863142 1_555
Nd3_4 Si4_6 3.461108 1_545
Nd3_4 Si4_4 3.461108 1_555
Nd3_5 Si1_7 2.809857 1_545
Nd3_5 Si1_5 2.809857 1_555
Nd3_5 Si3_5 2.851073 1_555
Nd3_5 Si5_4 2.863142 1_556
Nd3_5 Si4_7 3.461108 1_545
Nd3_5 Si4_5 3.461108 1_555
Nd3_6 Si1_4 2.809857 1_555
Nd3_6 Si1_6 2.809857 1_555
Nd3_6 Si3_6 2.851073 1_555
Nd3_6 Si5_7 2.863142 1_555
Nd3_6 Si4_4 3.461108 1_555
Nd3_6 Si4_6 3.461108 1_555
Nd3_7 Si1_5 2.809857 1_555
Nd3_7 Si1_7 2.809857 1_555
Nd3_7 Si3_7 2.851073 1_555
Nd3_7 Si5_6 2.863142 1_556
Nd3_7 Si4_5 3.461108 1_555
Nd3_7 Si4_7 3.461108 1_555
Si1_0 Si4_0 2.333645 1_555
Si1_1 Si4_1 2.333645 1_555
Si1_2 Si4_2 2.333645 1_555
Si1_3 Si4_3 2.333645 1_555
Si1_4 Si4_4 2.333645 1_555
Si1_5 Si4_5 2.333645 1_555
Si1_6 Si4_6 2.333645 1_555
Si1_7 Si4_7 2.333645 1_555
Si2_0 Si5_0 2.214245 1_555
Si2_1 Si5_1 2.214245 1_555
Si2_2 Si5_2 2.214245 1_555
Si2_3 Si5_3 2.214245 1_555
Si2_4 Si5_4 2.214245 1_555
Si2_5 Si5_5 2.214245 1_555
Si2_6 Si5_6 2.214245 1_555
Si2_7 Si5_7 2.214245 1_555
Si3_0 Si6_0 2.243427 1_555
Si3_1 Si6_1 2.243427 1_555
Si3_2 Si6_2 2.243427 1_555
Si3_3 Si6_3 2.243427 1_555
Si3_4 Si6_4 2.243427 1_555
Si3_5 Si6_5 2.243427 1_555
Si3_6 Si6_6 2.243427 1_555
Si3_7 Si6_7 2.243427 1_555
Si4_0 Si5_3 2.912848 1_555
Si4_0 Si5_1 2.912848 1_555
Si4_1 Si5_2 2.912848 1_556
Si4_1 Si5_0 2.912848 1_556
Si4_2 Si5_1 2.912848 1_565
Si4_2 Si5_3 2.912848 1_555
Si4_3 Si5_0 2.912848 1_566
Si4_3 Si5_2 2.912848 1_556
Si4_4 Si5_7 2.912848 1_555
Si4_4 Si5_5 2.912848 1_555
Si4_5 Si5_6 2.912848 1_556
Si4_5 Si5_4 2.912848 1_556
Si4_6 Si5_5 2.912848 1_565
Si4_6 Si5_7 2.912848 1_555
Si4_7 Si5_4 2.912848 1_566
Si4_7 Si5_6 2.912848 1_556
