# generated using pymatgen
data_CaNiBiO5
_symmetry_space_group_name_H-M   'P 1'
_cell_length_a   5.61103500
_cell_length_b   11.05109200
_cell_length_c   15.59858200
_cell_angle_alpha   90.00000000
_cell_angle_beta   90.00000000
_cell_angle_gamma   90.00000000
_symmetry_Int_Tables_number   1
_chemical_formula_structural   CaNiBiO5
_chemical_formula_sum   'Ca8 Ni8 Bi8 O40'
_cell_volume   967.23787097
_cell_formula_units_Z   8
loop_
 _symmetry_equiv_pos_site_id
 _symmetry_equiv_pos_as_xyz
  1  'x, y, z'
loop_
 _atom_site_type_symbol
 _atom_site_label
 _atom_site_symmetry_multiplicity
 _atom_site_fract_x
 _atom_site_fract_y
 _atom_site_fract_z
 _atom_site_occupancy
  Ca  Ca0  1  0.51250800  0.35925800  0.55104000  1
  Ca  Ca1  1  0.01250800  0.14074200  0.55104000  1
  Ca  Ca2  1  0.01250800  0.64074200  0.94896000  1
  Ca  Ca3  1  0.98749200  0.35925800  0.05104000  1
  Ca  Ca4  1  0.48749200  0.14074200  0.05104000  1
  Ca  Ca5  1  0.98749200  0.85925800  0.44896000  1
  Ca  Ca6  1  0.48749200  0.64074200  0.44896000  1
  Ca  Ca7  1  0.51250800  0.85925800  0.94896000  1
  Ni  Ni0  1  0.98885200  0.40468400  0.40426000  1
  Ni  Ni1  1  0.51114800  0.90468400  0.59574000  1
  Ni  Ni2  1  0.01114800  0.59531600  0.59574000  1
  Ni  Ni3  1  0.48885200  0.09531600  0.40426000  1
  Ni  Ni4  1  0.01114800  0.09531600  0.90426000  1
  Ni  Ni5  1  0.98885200  0.90468400  0.09574000  1
  Ni  Ni6  1  0.51114800  0.40468400  0.90426000  1
  Ni  Ni7  1  0.48885200  0.59531600  0.09574000  1
  Bi  Bi0  1  0.93343100  0.84150400  0.76484900  1
  Bi  Bi1  1  0.06656900  0.15849600  0.23515100  1
  Bi  Bi2  1  0.56656900  0.34150400  0.23515100  1
  Bi  Bi3  1  0.06656900  0.65849600  0.26484900  1
  Bi  Bi4  1  0.43343100  0.15849600  0.73515100  1
  Bi  Bi5  1  0.43343100  0.65849600  0.76484900  1
  Bi  Bi6  1  0.56656900  0.84150400  0.26484900  1
  Bi  Bi7  1  0.93343100  0.34150400  0.73515100  1
  O  O0  1  0.90094500  0.30818100  0.30767600  1
  O  O1  1  0.29518400  0.03952700  0.93623000  1
  O  O2  1  0.20481600  0.53952700  0.06377000  1
  O  O3  1  0.23682100  0.78105600  0.84474400  1
  O  O4  1  0.26317800  0.28105600  0.15525600  1
  O  O5  1  0.90094500  0.80818100  0.19232400  1
  O  O6  1  0.26317800  0.78105600  0.34474400  1
  O  O7  1  0.59905500  0.80818100  0.69232400  1
  O  O8  1  0.29518400  0.53952700  0.56377000  1
  O  O9  1  0.09905500  0.69181900  0.69232400  1
  O  O10  1  0.59905500  0.30818100  0.80767600  1
  O  O11  1  0.65195400  0.18179400  0.47883700  1
  O  O12  1  0.79518400  0.96047300  0.56377000  1
  O  O13  1  0.76317800  0.71894400  0.34474400  1
  O  O14  1  0.19380200  0.01721300  0.15084300  1
  O  O15  1  0.79518400  0.46047300  0.93623000  1
  O  O16  1  0.09905500  0.19181900  0.80767600  1
  O  O17  1  0.73682200  0.21894400  0.65525600  1
  O  O18  1  0.15195400  0.81820600  0.02116300  1
  O  O19  1  0.20481600  0.03952700  0.43623000  1
  O  O20  1  0.34804600  0.81820600  0.52116300  1
  O  O21  1  0.80619800  0.98278700  0.84915700  1
  O  O22  1  0.76317800  0.21894400  0.15525600  1
  O  O23  1  0.69380200  0.98278700  0.34915700  1
  O  O24  1  0.34804600  0.31820600  0.97883700  1
  O  O25  1  0.15195400  0.31820600  0.47883700  1
  O  O26  1  0.70481600  0.46047300  0.43623000  1
  O  O27  1  0.70481600  0.96047300  0.06377000  1
  O  O28  1  0.69380200  0.48278700  0.15084300  1
  O  O29  1  0.84804600  0.68179400  0.52116300  1
  O  O30  1  0.84804600  0.18179400  0.97883700  1
  O  O31  1  0.65195400  0.68179400  0.02116300  1
  O  O32  1  0.80619800  0.48278700  0.65084300  1
  O  O33  1  0.73682200  0.71894400  0.84474400  1
  O  O34  1  0.23682100  0.28105600  0.65525600  1
  O  O35  1  0.19380200  0.51721300  0.34915700  1
  O  O36  1  0.30619800  0.51721300  0.84915700  1
  O  O37  1  0.40094500  0.19181900  0.30767600  1
  O  O38  1  0.30619800  0.01721300  0.65084300  1
  O  O39  1  0.40094500  0.69181900  0.19232400  1
loop_
_geom_bond_atom_site_label_1
_geom_bond_atom_site_label_2
_geom_bond_distance
_geom_bond_site_symmetry_2
Ca0 O8 2.344171 1_555
Ca0 O25 2.359480 1_555
Ca0 O26 2.371222 1_555
Ca0 O11 2.393088 1_555
Ca0 O34 2.404659 1_555
Ca0 O17 2.575119 1_555
Ca0 O32 2.646271 1_555
Ca1 O12 2.344171 1_445
Ca1 O11 2.359480 1_455
Ca1 O19 2.371222 1_555
Ca1 O25 2.393088 1_555
Ca1 O17 2.404655 1_455
Ca1 O34 2.575116 1_555
Ca1 O38 2.646271 1_555
Ca2 O15 2.344171 1_455
Ca2 O31 2.359480 1_456
Ca2 O2 2.371222 1_556
Ca2 O18 2.393088 1_556
Ca2 O33 2.404655 1_455
Ca2 O3 2.575116 1_555
Ca2 O36 2.646271 1_555
Ca3 O2 2.344171 1_655
Ca3 O24 2.359480 1_654
Ca3 O15 2.371222 1_554
Ca3 O30 2.393088 1_554
Ca3 O4 2.404655 1_655
Ca3 O22 2.575119 1_555
Ca3 O28 2.646271 1_555
Ca4 O27 2.344171 1_545
Ca4 O30 2.359480 1_554
Ca4 O1 2.371222 1_554
Ca4 O24 2.393088 1_554
Ca4 O22 2.404655 1_555
Ca4 O4 2.575119 1_555
Ca4 O14 2.646271 1_555
Ca5 O19 2.344171 1_665
Ca5 O20 2.359480 1_655
Ca5 O12 2.371222 1_555
Ca5 O29 2.393088 1_555
Ca5 O6 2.404655 1_655
Ca5 O13 2.575119 1_555
Ca5 O23 2.646271 1_555
Ca6 O26 2.344171 1_555
Ca6 O29 2.359480 1_555
Ca6 O8 2.371222 1_555
Ca6 O20 2.393088 1_555
Ca6 O13 2.404655 1_555
Ca6 O6 2.575119 1_555
Ca6 O35 2.646271 1_555
Ca7 O1 2.344171 1_565
Ca7 O18 2.359480 1_556
Ca7 O27 2.371222 1_556
Ca7 O31 2.393088 1_556
Ca7 O3 2.404659 1_555
Ca7 O33 2.575119 1_555
Ca7 O21 2.646271 1_555
Ni0 O25 1.761849 1_655
Ni0 O26 1.780110 1_555
Ni0 O35 1.899397 1_655
Ni0 O0 1.910603 1_555
Ni1 O20 1.761849 1_555
Ni1 O12 1.780110 1_555
Ni1 O38 1.899397 1_565
Ni1 O7 1.910603 1_555
Ni2 O29 1.761849 1_455
Ni2 O8 1.780110 1_555
Ni2 O32 1.899397 1_455
Ni2 O9 1.910603 1_555
Ni3 O11 1.761849 1_555
Ni3 O19 1.780110 1_555
Ni3 O23 1.899397 1_545
Ni3 O37 1.910603 1_555
Ni4 O30 1.761849 1_455
Ni4 O1 1.780110 1_555
Ni4 O21 1.899397 1_445
Ni4 O16 1.910603 1_555
Ni5 O18 1.761849 1_655
Ni5 O27 1.780110 1_555
Ni5 O14 1.899397 1_665
Ni5 O5 1.910603 1_555
Ni6 O24 1.761849 1_555
Ni6 O15 1.780110 1_555
Ni6 O36 1.899397 1_555
Ni6 O10 1.910603 1_555
Ni7 O31 1.761849 1_555
Ni7 O2 1.780110 1_555
Ni7 O28 1.899397 1_555
Ni7 O39 1.910603 1_555
Bi0 O33 2.145833 1_555
Bi0 O21 2.162607 1_555
Bi0 O9 2.209020 1_655
Bi0 O3 2.212988 1_655
Bi0 O7 2.221606 1_555
Bi1 O4 2.145833 1_555
Bi1 O14 2.162607 1_555
Bi1 O0 2.209020 1_455
Bi1 O22 2.212992 1_455
Bi1 O37 2.221606 1_555
Bi2 O22 2.145833 1_555
Bi2 O28 2.162607 1_555
Bi2 O37 2.209020 1_555
Bi2 O4 2.212992 1_555
Bi2 O0 2.221606 1_555
Bi3 O6 2.145833 1_555
Bi3 O35 2.162607 1_555
Bi3 O5 2.209020 1_455
Bi3 O13 2.212992 1_455
Bi3 O39 2.221606 1_555
Bi4 O34 2.145836 1_555
Bi4 O38 2.162607 1_555
Bi4 O10 2.209020 1_555
Bi4 O17 2.212992 1_555
Bi4 O16 2.221606 1_555
Bi5 O3 2.145836 1_555
Bi5 O36 2.162607 1_555
Bi5 O7 2.209020 1_555
Bi5 O33 2.212992 1_555
Bi5 O9 2.221606 1_555
Bi6 O13 2.145833 1_555
Bi6 O23 2.162607 1_555
Bi6 O39 2.209020 1_555
Bi6 O6 2.212992 1_555
Bi6 O5 2.221606 1_555
Bi7 O17 2.145833 1_555
Bi7 O32 2.162607 1_555
Bi7 O16 2.209020 1_655
Bi7 O34 2.212988 1_655
Bi7 O10 2.221606 1_555
