# generated using pymatgen
data_Na3Fe(SO5)3
_symmetry_space_group_name_H-M   'P 1'
_cell_length_a   8.81180214
_cell_length_b   15.46749042
_cell_length_c   15.47658215
_cell_angle_alpha   120.00575648
_cell_angle_beta   89.98187199
_cell_angle_gamma   90.01036878
_symmetry_Int_Tables_number   1
_chemical_formula_structural   Na3Fe(SO5)3
_chemical_formula_sum   'Na18 Fe6 S18 O90'
_cell_volume   1826.69089987
_cell_formula_units_Z   6
loop_
 _symmetry_equiv_pos_site_id
 _symmetry_equiv_pos_as_xyz
  1  'x, y, z'
loop_
 _atom_site_type_symbol
 _atom_site_label
 _atom_site_symmetry_multiplicity
 _atom_site_fract_x
 _atom_site_fract_y
 _atom_site_fract_z
 _atom_site_occupancy
  Na  Na0  1  0.09702182  0.96456917  0.20586270  1
  Na  Na1  1  0.09756187  0.79441156  0.75887841  1
  Na  Na2  1  0.09784204  0.24132204  0.03559736  1
  Na  Na3  1  0.90297818  0.03543083  0.79413730  1
  Na  Na4  1  0.90243813  0.20558844  0.24112159  1
  Na  Na5  1  0.90215796  0.75867796  0.96440264  1
  Na  Na6  1  0.19964391  0.69068899  0.11139296  1
  Na  Na7  1  0.19939384  0.88880162  0.57986601  1
  Na  Na8  1  0.19949411  0.42052525  0.30925166  1
  Na  Na9  1  0.80035609  0.30931101  0.88860704  1
  Na  Na10  1  0.80060616  0.11119838  0.42013399  1
  Na  Na11  1  0.80050589  0.57947475  0.69074834  1
  Na  Na12  1  0.42595607  0.91026075  0.35914178  1
  Na  Na13  1  0.42653924  0.64013383  0.55059243  1
  Na  Na14  1  0.42589889  0.44903981  0.08955666  1
  Na  Na15  1  0.57404393  0.08973925  0.64085822  1
  Na  Na16  1  0.57346076  0.35986617  0.44940757  1
  Na  Na17  1  0.57410111  0.55096019  0.91044334  1
  Fe  Fe0  1  0.00000000  0.00000000  0.00000000  1
  Fe  Fe1  1  0.50000000  0.00000000  0.00000000  1
  Fe  Fe2  1  0.31133136  0.66679304  0.33340580  1
  Fe  Fe3  1  0.68866864  0.33320696  0.66659420  1
  Fe  Fe4  1  0.81021969  0.66674098  0.33341889  1
  Fe  Fe5  1  0.18978031  0.33325902  0.66658111  1
  S  S0  1  0.24702688  0.14692714  0.16923829  1
  S  S1  1  0.24700758  0.83077056  0.97782198  1
  S  S2  1  0.24720724  0.02249674  0.85330926  1
  S  S3  1  0.75297312  0.85307286  0.83076171  1
  S  S4  1  0.75299242  0.16922944  0.02217802  1
  S  S5  1  0.75279276  0.97750326  0.14669074  1
  S  S6  1  0.55207510  0.82113418  0.49266823  1
  S  S7  1  0.55221096  0.50735050  0.32834789  1
  S  S8  1  0.55198507  0.67178138  0.17903515  1
  S  S9  1  0.44792490  0.17886582  0.50733177  1
  S  S10  1  0.44778904  0.49264950  0.67165211  1
  S  S11  1  0.44801493  0.32821862  0.82096485  1
  S  S12  1  0.92936963  0.49030158  0.82590307  1
  S  S13  1  0.92956881  0.17395411  0.66436516  1
  S  S14  1  0.92943349  0.33553962  0.50967646  1
  S  S15  1  0.07063037  0.50969842  0.17409693  1
  S  S16  1  0.07043119  0.82604589  0.33563484  1
  S  S17  1  0.07056651  0.66446038  0.49032354  1
  O  O0  1  0.12552619  0.06432060  0.12741443  1
  O  O1  1  0.12577586  0.87269618  0.93698807  1
  O  O2  1  0.12561259  0.06303958  0.93581780  1
  O  O3  1  0.87447381  0.93567940  0.87258557  1
  O  O4  1  0.87422414  0.12730382  0.06301193  1
  O  O5  1  0.87438741  0.93696042  0.06418220  1
  O  O6  1  0.36824250  0.11887443  0.09186036  1
  O  O7  1  0.36837630  0.90811001  0.02698267  1
  O  O8  1  0.36831874  0.97292788  0.88112208  1
  O  O9  1  0.63175750  0.88112557  0.90813964  1
  O  O10  1  0.63162370  0.09188999  0.97301733  1
  O  O11  1  0.63168126  0.02707212  0.11887792  1
  O  O12  1  0.17119890  0.23931790  0.18497752  1
  O  O13  1  0.17106206  0.81530508  0.05456675  1
  O  O14  1  0.17141990  0.94601764  0.76085032  1
  O  O15  1  0.82880110  0.76068210  0.81502248  1
  O  O16  1  0.82893794  0.18469492  0.94543325  1
  O  O17  1  0.82858010  0.05398236  0.23914968  1
  O  O18  1  0.30465384  0.15604950  0.26198821  1
  O  O19  1  0.30441381  0.73784627  0.89423136  1
  O  O20  1  0.30474805  0.10638011  0.84451985  1
  O  O21  1  0.69534616  0.84395050  0.73801179  1
  O  O22  1  0.69558619  0.26215373  0.10576864  1
  O  O23  1  0.69525195  0.89361989  0.15548015  1
  O  O24  1  0.44213916  0.78900063  0.40515323  1
  O  O25  1  0.44217158  0.59491992  0.38376593  1
  O  O26  1  0.44211719  0.61613346  0.21105350  1
  O  O27  1  0.55786084  0.21099937  0.59484677  1
  O  O28  1  0.55782842  0.40508008  0.61623407  1
  O  O29  1  0.55788281  0.38386654  0.78894650  1
  O  O30  1  0.68402680  0.75063713  0.45770332  1
  O  O31  1  0.68421479  0.54225920  0.29279240  1
  O  O32  1  0.68401320  0.70729302  0.24947784  1
  O  O33  1  0.31597320  0.24936287  0.54229668  1
  O  O34  1  0.31578521  0.45774080  0.70720760  1
  O  O35  1  0.31598680  0.29270698  0.75052216  1
  O  O36  1  0.60172354  0.92259526  0.51962019  1
  O  O37  1  0.60176653  0.48047972  0.40286549  1
  O  O38  1  0.60133550  0.59741303  0.07755136  1
  O  O39  1  0.39827646  0.07740474  0.48037981  1
  O  O40  1  0.39823347  0.51952028  0.59713451  1
  O  O41  1  0.39866450  0.40258697  0.92244864  1
  O  O42  1  0.47094675  0.81740237  0.57330260  1
  O  O43  1  0.47120989  0.42665374  0.24396466  1
  O  O44  1  0.47088606  0.75637825  0.18322500  1
  O  O45  1  0.52905325  0.18259763  0.42669740  1
  O  O46  1  0.52879011  0.57334626  0.75603534  1
  O  O47  1  0.52911394  0.24362175  0.81677500  1
  O  O48  1  0.81815110  0.45729678  0.73899309  1
  O  O49  1  0.81840296  0.26094064  0.71816957  1
  O  O50  1  0.81831419  0.28156830  0.54266141  1
  O  O51  1  0.18184890  0.54270322  0.26100691  1
  O  O52  1  0.18159704  0.73905936  0.28183043  1
  O  O53  1  0.18168581  0.71843170  0.45733859  1
  O  O54  1  0.06141113  0.42036266  0.79059796  1
  O  O55  1  0.06152212  0.20924509  0.62966870  1
  O  O56  1  0.06150146  0.37012382  0.57951944  1
  O  O57  1  0.93858887  0.57963734  0.20940204  1
  O  O58  1  0.93847788  0.79075491  0.37033130  1
  O  O59  1  0.93849854  0.62987618  0.42048056  1
  O  O60  1  0.97566148  0.59279854  0.85390261  1
  O  O61  1  0.97587284  0.14621817  0.73898404  1
  O  O62  1  0.97552053  0.26096492  0.40717431  1
  O  O63  1  0.02433852  0.40720146  0.14609739  1
  O  O64  1  0.02412716  0.85378183  0.26101596  1
  O  O65  1  0.02447947  0.73903508  0.59282569  1
  O  O66  1  0.85066705  0.48656373  0.90773648  1
  O  O67  1  0.85089072  0.09200576  0.57885193  1
  O  O68  1  0.85077170  0.42120450  0.51350971  1
  O  O69  1  0.14933295  0.51343627  0.09226352  1
  O  O70  1  0.14910928  0.90799424  0.42114807  1
  O  O71  1  0.14922830  0.57879550  0.48649029  1
  O  O72  1  0.07385081  0.06949932  0.38697051  1
  O  O73  1  0.07310384  0.61356322  0.68268959  1
  O  O74  1  0.07250230  0.31685273  0.93044176  1
  O  O75  1  0.92614919  0.93050068  0.61302949  1
  O  O76  1  0.92689616  0.38643678  0.31731041  1
  O  O77  1  0.92749770  0.68314727  0.06955824  1
  O  O78  1  0.68608137  0.94877494  0.35354458  1
  O  O79  1  0.68639515  0.64691494  0.59564638  1
  O  O80  1  0.68536849  0.40301406  0.05080510  1
  O  O81  1  0.31391863  0.05122506  0.64645542  1
  O  O82  1  0.31360485  0.35308506  0.40435362  1
  O  O83  1  0.31463151  0.59698594  0.94919490  1
  O  O84  1  0.35692526  0.98349651  0.25520885  1
  O  O85  1  0.35761996  0.74509541  0.72727705  1
  O  O86  1  0.35818067  0.27126418  0.01641471  1
  O  O87  1  0.64307474  0.01650349  0.74479115  1
  O  O88  1  0.64238004  0.25490459  0.27272295  1
  O  O89  1  0.64181933  0.72873582  0.98358529  1
loop_
_geom_bond_atom_site_label_1
_geom_bond_atom_site_label_2
_geom_bond_distance
_geom_bond_site_symmetry_2
Na0 O64 2.353687 1_555
Na0 O84 2.385645 1_555
Na0 O0 2.406441 1_565
Na0 O13 2.414828 1_555
Na0 O72 2.445822 1_565
Na0 O17 2.657305 1_465
Na0 O5 2.811584 1_455
Na1 O65 2.356297 1_555
Na1 O85 2.387298 1_555
Na1 O1 2.405912 1_555
Na1 O14 2.418935 1_555
Na1 O73 2.441830 1_555
Na1 O15 2.662244 1_455
Na1 O3 2.808773 1_455
Na2 O63 2.353400 1_555
Na2 O86 2.387888 1_555
Na2 O2 2.406183 1_554
Na2 O12 2.415841 1_555
Na2 O74 2.442388 1_554
Na2 O16 2.666077 1_454
Na2 O4 2.814177 1_455
Na3 O61 2.353687 1_555
Na3 O87 2.385645 1_555
Na3 O3 2.406441 1_545
Na3 O16 2.414828 1_555
Na3 O75 2.445822 1_545
Na3 O14 2.657305 1_645
Na3 O2 2.811584 1_655
Na4 O62 2.356297 1_555
Na4 O88 2.387298 1_555
Na4 O4 2.405912 1_555
Na4 O17 2.418935 1_555
Na4 O76 2.441830 1_555
Na4 O12 2.662244 1_655
Na4 O0 2.808773 1_655
Na5 O60 2.353400 1_555
Na5 O89 2.387888 1_555
Na5 O5 2.406183 1_556
Na5 O15 2.415841 1_555
Na5 O77 2.442388 1_556
Na5 O13 2.666077 1_656
Na5 O1 2.814177 1_655
Na6 O52 2.359852 1_555
Na6 O83 2.405988 1_554
Na6 O77 2.471645 1_455
Na6 O13 2.499591 1_555
Na6 O44 2.617641 1_555
Na6 O69 2.643610 1_555
Na6 O64 2.876552 1_555
Na7 O53 2.359366 1_555
Na7 O81 2.408790 1_565
Na7 O75 2.479013 1_455
Na7 O14 2.491990 1_555
Na7 O42 2.616176 1_555
Na7 O70 2.654900 1_555
Na7 O65 2.871466 1_555
Na8 O51 2.358906 1_555
Na8 O82 2.408831 1_555
Na8 O76 2.475615 1_455
Na8 O12 2.495105 1_555
Na8 O43 2.618552 1_555
Na8 O71 2.645141 1_555
Na8 O63 2.877938 1_555
Na9 O49 2.359852 1_555
Na9 O80 2.405988 1_556
Na9 O74 2.471645 1_655
Na9 O16 2.499591 1_555
Na9 O47 2.617641 1_555
Na9 O66 2.643610 1_555
Na9 O61 2.876552 1_555
Na10 O50 2.359366 1_555
Na10 O78 2.408790 1_545
Na10 O72 2.479013 1_655
Na10 O17 2.491990 1_555
Na10 O45 2.616176 1_555
Na10 O67 2.654900 1_555
Na10 O62 2.871466 1_555
Na11 O48 2.358906 1_555
Na11 O79 2.408831 1_555
Na11 O73 2.475615 1_655
Na11 O15 2.495105 1_555
Na11 O46 2.618552 1_555
Na11 O68 2.645141 1_555
Na11 O60 2.877938 1_555
Na12 O24 2.319754 1_555
Na12 O39 2.326396 1_565
Na12 O78 2.380637 1_555
Na12 O84 2.462484 1_555
Na12 O44 2.598610 1_555
Na12 O70 2.627839 1_555
Na12 O36 2.851705 1_555
Na13 O25 2.316925 1_555
Na13 O40 2.324918 1_555
Na13 O79 2.380789 1_555
Na13 O85 2.457850 1_555
Na13 O42 2.613521 1_555
Na13 O71 2.629614 1_555
Na13 O37 2.839326 1_555
Na14 O26 2.318464 1_555
Na14 O41 2.324726 1_554
Na14 O80 2.380501 1_555
Na14 O86 2.466814 1_555
Na14 O43 2.611181 1_555
Na14 O69 2.625288 1_555
Na14 O38 2.848900 1_555
Na15 O27 2.319754 1_555
Na15 O36 2.326396 1_545
Na15 O81 2.380637 1_555
Na15 O87 2.462484 1_555
Na15 O47 2.598610 1_555
Na15 O67 2.627839 1_555
Na15 O39 2.851705 1_555
Na16 O28 2.316925 1_555
Na16 O37 2.324918 1_555
Na16 O82 2.380789 1_555
Na16 O88 2.457850 1_555
Na16 O45 2.613521 1_555
Na16 O68 2.629614 1_555
Na16 O40 2.839326 1_555
Na17 O29 2.318464 1_555
Na17 O38 2.324726 1_556
Na17 O83 2.380501 1_555
Na17 O89 2.466814 1_555
Na17 O46 2.611181 1_555
Na17 O66 2.625288 1_555
Na17 O41 2.848900 1_555
Fe0 O2 2.032299 1_554
Fe0 O5 2.032299 1_445
Fe0 O1 2.033751 1_544
Fe0 O4 2.033751 1_455
Fe0 O3 2.034850 1_444
Fe0 O0 2.034850 1_555
Fe1 O7 2.032849 1_545
Fe1 O10 2.032849 1_554
Fe1 O9 2.033512 1_544
Fe1 O6 2.033512 1_555
Fe1 O8 2.034045 1_544
Fe1 O11 2.034045 1_555
Fe2 O24 2.008818 1_555
Fe2 O25 2.010037 1_555
Fe2 O26 2.010664 1_555
Fe2 O52 2.021603 1_555
Fe2 O53 2.022049 1_555
Fe2 O51 2.022443 1_555
Fe3 O27 2.008818 1_555
Fe3 O28 2.010037 1_555
Fe3 O29 2.010664 1_555
Fe3 O49 2.021603 1_555
Fe3 O50 2.022049 1_555
Fe3 O48 2.022443 1_555
Fe4 O30 2.030510 1_555
Fe4 O31 2.030824 1_555
Fe4 O32 2.033246 1_555
Fe4 O58 2.046149 1_555
Fe4 O59 2.046469 1_555
Fe4 O57 2.047300 1_555
Fe5 O33 2.030510 1_555
Fe5 O34 2.030824 1_555
Fe5 O35 2.033246 1_555
Fe5 O55 2.046149 1_555
Fe5 O56 2.046469 1_555
Fe5 O54 2.047300 1_555
O0 S0 1.539662 1_555
O1 S1 1.540029 1_555
O2 S2 1.539598 1_555
O3 S3 1.539662 1_555
O4 S4 1.540029 1_555
O5 S5 1.539598 1_555
O6 S0 1.497643 1_555
O7 S1 1.497801 1_554
O8 S2 1.497575 1_565
O9 S3 1.497643 1_555
O10 S4 1.497801 1_556
O11 S5 1.497575 1_545
O12 S0 1.483265 1_555
O13 S1 1.483047 1_554
O14 S2 1.483323 1_565
O15 S3 1.483265 1_555
O16 S4 1.483047 1_556
O17 S5 1.483323 1_545
O18 S0 1.461556 1_555
O19 S1 1.461326 1_555
O20 S2 1.461250 1_555
O21 S3 1.461556 1_555
O22 S4 1.461326 1_555
O23 S5 1.461250 1_555
O24 S6 1.532096 1_555
O25 S7 1.532475 1_555
O26 S8 1.532871 1_555
O27 S9 1.532096 1_555
O28 S10 1.532475 1_555
O29 S11 1.532871 1_555
O30 S6 1.497889 1_555
O31 S7 1.497968 1_555
O32 S8 1.498472 1_555
O33 S9 1.497889 1_555
O34 S10 1.497968 1_555
O35 S11 1.498472 1_555
O36 S6 1.474241 1_555
O37 S7 1.474203 1_555
O38 S8 1.473735 1_555
O39 S9 1.474241 1_555
O40 S10 1.474203 1_555
O41 S11 1.473735 1_555
O42 S6 1.463976 1_555
O43 S7 1.463850 1_555
O44 S8 1.463735 1_555
O45 S9 1.463976 1_555
O46 S10 1.463850 1_555
O47 S11 1.463735 1_555
O48 S12 1.531067 1_555
O49 S13 1.530563 1_555
O50 S14 1.530319 1_555
O51 S15 1.531067 1_555
O52 S16 1.530563 1_555
O53 S17 1.530319 1_555
O54 S12 1.493805 1_455
O55 S13 1.493600 1_455
O56 S14 1.493700 1_455
O57 S15 1.493805 1_655
O58 S16 1.493600 1_655
O59 S17 1.493700 1_655
O60 S12 1.476595 1_555
O61 S13 1.476509 1_555
O62 S14 1.477037 1_555
O63 S15 1.476595 1_555
O64 S16 1.476509 1_555
O65 S17 1.477037 1_555
O66 S12 1.470031 1_555
O67 S13 1.470129 1_555
O68 S14 1.470151 1_555
O69 S15 1.470031 1_555
O70 S16 1.470129 1_555
O71 S17 1.470151 1_555
