# generated using pymatgen
data_TiCrP2
_symmetry_space_group_name_H-M   'P 1'
_cell_length_a   3.45323455
_cell_length_b   3.45323455
_cell_length_c   5.74769000
_cell_angle_alpha   90.00000000
_cell_angle_beta   90.00000000
_cell_angle_gamma   120.00001047
_symmetry_Int_Tables_number   1
_chemical_formula_structural   TiCrP2
_chemical_formula_sum   'Ti1 Cr1 P2'
_cell_volume   59.35756494
_cell_formula_units_Z   1
loop_
 _symmetry_equiv_pos_site_id
 _symmetry_equiv_pos_as_xyz
  1  'x, y, z'
loop_
 _atom_site_type_symbol
 _atom_site_label
 _atom_site_symmetry_multiplicity
 _atom_site_fract_x
 _atom_site_fract_y
 _atom_site_fract_z
 _atom_site_occupancy
  Ti  Ti0  1  0.00000000  0.00000000  0.00000000  1
  Cr  Cr0  1  0.00000000  0.00000000  0.50000000  1
  P  P0  1  0.33333300  0.66666700  0.26614600  1
  P  P1  1  0.66666700  0.33333300  0.73385400  1
loop_
_geom_bond_atom_site_label_1
_geom_bond_atom_site_label_2
_geom_bond_distance
_geom_bond_site_symmetry_2
Cr0 P1 2.404495 1_455
Cr0 P0 2.404495 1_545
Cr0 P1 2.404497 1_445
Cr0 P1 2.404497 1_555
Cr0 P0 2.404497 1_445
Cr0 P0 2.404497 1_555
P0 Ti0 2.512965 1_565
P0 Ti0 2.512967 1_665
P0 Ti0 2.512967 1_555
P1 Ti0 2.512965 1_656
P1 Ti0 2.512967 1_666
P1 Ti0 2.512967 1_556
