# generated using pymatgen
data_TbCu(BO2)5
_symmetry_space_group_name_H-M   'P 1'
_cell_length_a   8.32588317
_cell_length_b   8.32588317
_cell_length_c   8.32588317
_cell_angle_alpha   134.83009714
_cell_angle_beta   118.25055862
_cell_angle_gamma   79.72720082
_symmetry_Int_Tables_number   1
_chemical_formula_structural   TbCu(BO2)5
_chemical_formula_sum   'Tb2 Cu2 B10 O20'
_cell_volume   349.23384103
_cell_formula_units_Z   2
loop_
 _symmetry_equiv_pos_site_id
 _symmetry_equiv_pos_as_xyz
  1  'x, y, z'
loop_
 _atom_site_type_symbol
 _atom_site_label
 _atom_site_symmetry_multiplicity
 _atom_site_fract_x
 _atom_site_fract_y
 _atom_site_fract_z
 _atom_site_occupancy
  Tb  Tb0  1  0.25000000  0.75000000  0.50000000  1
  Tb  Tb1  1  0.75000000  0.25000000  0.50000000  1
  Cu  Cu0  1  0.00000000  0.50000000  0.50000000  1
  Cu  Cu1  1  0.50000000  0.00000000  0.50000000  1
  B  B0  1  0.25000000  0.25000000  0.00000000  1
  B  B1  1  0.75000000  0.75000000  0.00000000  1
  B  B2  1  0.28761800  0.98382300  0.07500100  1
  B  B3  1  0.90882200  0.21261700  0.92499900  1
  B  B4  1  0.21238200  0.28738300  0.69620500  1
  B  B5  1  0.59117800  0.51617700  0.30379500  1
  B  B6  1  0.71238200  0.01617700  0.92499900  1
  B  B7  1  0.09117800  0.78738300  0.07500100  1
  B  B8  1  0.78761800  0.71261700  0.30379500  1
  B  B9  1  0.40882200  0.48382300  0.69620500  1
  O  O0  1  0.72087000  0.96151500  0.05335300  1
  O  O1  1  0.22087000  0.16751700  0.75935500  1
  O  O2  1  0.37731900  0.35145900  0.72877800  1
  O  O3  1  0.62268100  0.64854100  0.27122200  1
  O  O4  1  0.40816200  0.46151500  0.24064500  1
  O  O5  1  0.12268100  0.85145900  0.97414000  1
  O  O6  1  0.59183800  0.53848500  0.75935500  1
  O  O7  1  0.77913000  0.83248300  0.24064500  1
  O  O8  1  0.09183800  0.33248300  0.05335300  1
  O  O9  1  0.27913000  0.03848500  0.94664700  1
  O  O10  1  0.26937200  0.55205000  0.60048400  1
  O  O11  1  0.95156600  0.66888900  0.39951600  1
  O  O12  1  0.76937200  0.16888900  0.71732200  1
  O  O13  1  0.45156600  0.05205000  0.28267800  1
  O  O14  1  0.04843400  0.33111100  0.60048400  1
  O  O15  1  0.73062800  0.44795000  0.39951600  1
  O  O16  1  0.54843400  0.94795000  0.71732200  1
  O  O17  1  0.23062800  0.83111100  0.28267800  1
  O  O18  1  0.87731900  0.14854100  0.02586000  1
  O  O19  1  0.90816200  0.66751700  0.94664700  1
loop_
_geom_bond_atom_site_label_1
_geom_bond_atom_site_label_2
_geom_bond_distance
_geom_bond_site_symmetry_2
Cu0 O15 1.994218 1_455
Cu0 O10 1.994218 1_555
Cu0 O11 1.994226 1_455
Cu0 O14 1.994226 1_555
Cu0 O18 2.480088 1_455
Cu0 O5 2.480088 1_555
Cu1 O13 1.994218 1_555
Cu1 O16 1.994218 1_545
Cu1 O12 1.994220 1_555
Cu1 O17 1.994220 1_545
Cu1 O3 2.480088 1_545
Cu1 O2 2.480088 1_555
B0 O8 1.484611 1_555
B0 O1 1.484611 1_554
B0 O9 1.484611 1_554
B0 O4 1.484611 1_555
B1 O6 1.484611 1_554
B1 O19 1.484611 1_554
B1 O7 1.484611 1_555
B1 O0 1.484611 1_555
B2 O13 1.353884 1_565
B2 O5 1.395961 1_554
B2 O9 1.398914 1_564
B3 O12 1.353888 1_555
B3 O18 1.395961 1_556
B3 O8 1.398914 1_656
B4 O14 1.353880 1_555
B4 O2 1.395961 1_555
B4 O1 1.398914 1_555
B5 O15 1.353884 1_555
B5 O3 1.395961 1_555
B5 O4 1.398914 1_555
B6 O16 1.353884 1_545
B6 O18 1.395961 1_556
B6 O0 1.398914 1_546
B7 O17 1.353888 1_555
B7 O5 1.395961 1_554
B7 O19 1.398914 1_454
B8 O11 1.353880 1_555
B8 O3 1.395961 1_555
B8 O7 1.398914 1_555
B9 O10 1.353884 1_555
B9 O2 1.395961 1_555
B9 O6 1.398914 1_555
O0 Tb1 2.533103 1_565
O1 Tb0 2.533103 1_545
O4 Tb0 2.533103 1_555
O6 Tb1 2.533103 1_555
O7 Tb1 2.533103 1_565
O8 Tb0 2.533103 1_555
O9 Tb0 2.533103 1_545
O10 Tb0 2.272407 1_555
O11 Tb0 2.272405 1_655
O12 Tb1 2.272400 1_555
O13 Tb1 2.272407 1_555
O14 Tb1 2.272405 1_455
O15 Tb1 2.272407 1_555
O16 Tb0 2.272407 1_555
O17 Tb0 2.272400 1_555
O19 Tb1 2.533103 1_555
