# generated using pymatgen
data_Yb2CuGe6
_symmetry_space_group_name_H-M   'P 1'
_cell_length_a   11.21437079
_cell_length_b   11.21437079
_cell_length_c   4.09698400
_cell_angle_alpha   90.00000000
_cell_angle_beta   90.00000000
_cell_angle_gamma   159.45833698
_symmetry_Int_Tables_number   1
_chemical_formula_structural   Yb2CuGe6
_chemical_formula_sum   'Yb2 Cu1 Ge6'
_cell_volume   180.79361871
_cell_formula_units_Z   1
loop_
 _symmetry_equiv_pos_site_id
 _symmetry_equiv_pos_as_xyz
  1  'x, y, z'
loop_
 _atom_site_type_symbol
 _atom_site_label
 _atom_site_symmetry_multiplicity
 _atom_site_fract_x
 _atom_site_fract_y
 _atom_site_fract_z
 _atom_site_occupancy
  Yb  Yb0  1  0.00311100  0.99688900  0.00000000  1
  Yb  Yb1  1  0.66996700  0.33003300  0.00000000  1
  Cu  Cu0  1  0.22361900  0.77638100  0.50000000  1
  Ge  Ge0  1  0.28408600  0.71591400  0.00000000  1
  Ge  Ge1  1  0.39705300  0.60294700  0.00000000  1
  Ge  Ge2  1  0.55044600  0.44955400  0.50000000  1
  Ge  Ge3  1  0.11730300  0.88269700  0.50000000  1
  Ge  Ge4  1  0.89916700  0.10083300  0.50000000  1
  Ge  Ge5  1  0.78624700  0.21375300  0.50000000  1
loop_
_geom_bond_atom_site_label_1
_geom_bond_atom_site_label_2
_geom_bond_distance
_geom_bond_site_symmetry_2
Cu0 Ge3 2.346324 1_555
Cu0 Ge5 2.430743 1_565
Cu0 Ge5 2.430743 1_455
Cu0 Ge0 2.444815 1_555
Cu0 Ge0 2.444815 1_556
Cu0 Yb1 3.097818 1_566
Cu0 Yb1 3.097818 1_565
Cu0 Yb1 3.097818 1_456
Cu0 Yb1 3.097818 1_455
Ge0 Ge1 2.493107 1_555
Ge0 Ge5 2.862995 1_565
Ge0 Ge5 2.862995 1_564
Ge0 Ge5 2.862995 1_454
Ge0 Ge5 2.862995 1_455
Ge0 Yb1 3.215766 1_565
Ge0 Yb1 3.215766 1_455
Ge1 Ge4 2.862978 1_454
Ge1 Ge4 2.862978 1_455
Ge1 Ge4 2.862978 1_565
Ge1 Ge4 2.862978 1_564
Ge1 Yb0 3.078425 1_545
Ge1 Yb0 3.078425 1_655
Ge2 Ge3 2.484999 1_655
Ge2 Ge3 2.484999 1_545
Ge2 Yb0 3.047256 1_655
Ge2 Yb0 3.047256 1_656
Ge2 Yb0 3.047256 1_545
Ge2 Yb0 3.047256 1_546
Ge2 Yb1 3.339767 1_556
Ge2 Yb1 3.339767 1_555
Ge3 Yb1 3.089549 1_456
Ge3 Yb1 3.089549 1_455
Ge3 Yb1 3.089549 1_566
Ge3 Yb1 3.089549 1_565
Ge3 Yb0 3.247682 1_555
Ge3 Yb0 3.247682 1_556
Ge4 Ge5 2.492070 1_555
Ge4 Yb0 3.075491 1_645
Ge4 Yb0 3.075491 1_646
Ge5 Yb1 3.283568 1_556
Ge5 Yb1 3.283568 1_555
