# generated using pymatgen
data_HoS2
_symmetry_space_group_name_H-M   'P 1'
_cell_length_a   3.83708291
_cell_length_b   3.83708291
_cell_length_c   7.90193041
_cell_angle_alpha   90.00000000
_cell_angle_beta   90.00000000
_cell_angle_gamma   90.00000000
_symmetry_Int_Tables_number   1
_chemical_formula_structural   HoS2
_chemical_formula_sum   'Ho2 S4'
_cell_volume   116.34174336
_cell_formula_units_Z   2
loop_
 _symmetry_equiv_pos_site_id
 _symmetry_equiv_pos_as_xyz
  1  'x, y, z'
loop_
 _atom_site_type_symbol
 _atom_site_label
 _atom_site_symmetry_multiplicity
 _atom_site_fract_x
 _atom_site_fract_y
 _atom_site_fract_z
 _atom_site_occupancy
  Ho  Ho0  1  0.75000000  0.75000000  0.72671257  1
  Ho  Ho1  1  0.25000000  0.25000000  0.27328743  1
  S  S0  1  0.75000000  0.25000000  -0.00000000  1
  S  S1  1  0.25000000  0.75000000  -0.00000000  1
  S  S2  1  0.75000000  0.75000000  0.36837611  1
  S  S3  1  0.25000000  0.25000000  0.63162389  1
loop_
_geom_bond_atom_site_label_1
_geom_bond_atom_site_label_2
_geom_bond_distance
_geom_bond_site_symmetry_2
Ho0 S3 2.815347 1_555
Ho0 S3 2.815347 1_565
Ho0 S3 2.815347 1_655
Ho0 S3 2.815347 1_665
Ho0 S2 2.831550 1_555
Ho0 S1 2.888639 1_656
Ho0 S0 2.888639 1_556
Ho0 S1 2.888639 1_556
Ho0 S0 2.888639 1_566
Ho1 S2 2.815347 1_555
Ho1 S2 2.815347 1_445
Ho1 S2 2.815347 1_545
Ho1 S2 2.815347 1_455
Ho1 S3 2.831550 1_555
Ho1 S1 2.888639 1_545
Ho1 S0 2.888639 1_455
Ho1 S0 2.888639 1_555
Ho1 S1 2.888639 1_555
S0 S1 2.713227 1_555
S0 S1 2.713227 1_545
S0 S1 2.713227 1_655
S0 S1 2.713227 1_645
