# generated using pymatgen
data_Er2Ni7
_symmetry_space_group_name_H-M   'P 1'
_cell_length_a   4.90716427
_cell_length_b   4.90716427
_cell_length_c   24.00388000
_cell_angle_alpha   90.00000000
_cell_angle_beta   90.00000000
_cell_angle_gamma   120.00000368
_symmetry_Int_Tables_number   1
_chemical_formula_structural   Er2Ni7
_chemical_formula_sum   'Er8 Ni28'
_cell_volume   500.57972578
_cell_formula_units_Z   4
loop_
 _symmetry_equiv_pos_site_id
 _symmetry_equiv_pos_as_xyz
  1  'x, y, z'
loop_
 _atom_site_type_symbol
 _atom_site_label
 _atom_site_symmetry_multiplicity
 _atom_site_fract_x
 _atom_site_fract_y
 _atom_site_fract_z
 _atom_site_occupancy
  Er  Er0  1  0.33333300  0.66666700  0.47112100  1
  Er  Er1  1  0.66666700  0.33333300  0.52887900  1
  Er  Er2  1  0.66666700  0.33333300  0.97112100  1
  Er  Er3  1  0.33333300  0.66666700  0.02887900  1
  Er  Er4  1  0.33333300  0.66666700  0.32696200  1
  Er  Er5  1  0.66666700  0.33333300  0.67303800  1
  Er  Er6  1  0.66666700  0.33333300  0.82696200  1
  Er  Er7  1  0.33333300  0.66666700  0.17303800  1
  Ni  Ni0  1  0.00000000  0.00000000  0.50000000  1
  Ni  Ni1  1  0.00000000  0.00000000  0.00000000  1
  Ni  Ni2  1  0.83364300  0.16635700  0.25000000  1
  Ni  Ni3  1  0.83364300  0.66728600  0.25000000  1
  Ni  Ni4  1  0.33271400  0.16635700  0.25000000  1
  Ni  Ni5  1  0.16635700  0.83364300  0.75000000  1
  Ni  Ni6  1  0.16635700  0.33271400  0.75000000  1
  Ni  Ni7  1  0.66728600  0.83364300  0.75000000  1
  Ni  Ni8  1  0.83221300  0.16778700  0.41527900  1
  Ni  Ni9  1  0.83221300  0.66442600  0.41527900  1
  Ni  Ni10  1  0.33557400  0.16778700  0.41527900  1
  Ni  Ni11  1  0.16778700  0.83221300  0.58472100  1
  Ni  Ni12  1  0.16778700  0.33557400  0.58472100  1
  Ni  Ni13  1  0.66442600  0.83221300  0.58472100  1
  Ni  Ni14  1  0.16778700  0.83221300  0.91527900  1
  Ni  Ni15  1  0.16778700  0.33557400  0.91527900  1
  Ni  Ni16  1  0.66442600  0.83221300  0.91527900  1
  Ni  Ni17  1  0.83221300  0.16778700  0.08472100  1
  Ni  Ni18  1  0.83221300  0.66442600  0.08472100  1
  Ni  Ni19  1  0.33557400  0.16778700  0.08472100  1
  Ni  Ni20  1  0.00000000  0.00000000  0.33274500  1
  Ni  Ni21  1  0.00000000  0.00000000  0.66725500  1
  Ni  Ni22  1  0.00000000  0.00000000  0.83274500  1
  Ni  Ni23  1  0.00000000  0.00000000  0.16725500  1
  Ni  Ni24  1  0.33333300  0.66666700  0.66691200  1
  Ni  Ni25  1  0.66666700  0.33333300  0.33308800  1
  Ni  Ni26  1  0.66666700  0.33333300  0.16691200  1
  Ni  Ni27  1  0.33333300  0.66666700  0.83308800  1
loop_
_geom_bond_atom_site_label_1
_geom_bond_atom_site_label_2
_geom_bond_distance
_geom_bond_site_symmetry_2
Er0 Ni10 2.795869 1_565
Er0 Ni9 2.795869 1_455
Er0 Ni8 2.795871 1_565
Er0 Ni8 2.795871 1_455
Er0 Ni10 2.795873 1_555
Er0 Ni9 2.795873 1_555
Er0 Ni0 2.916723 1_565
Er0 Ni0 2.916727 1_665
Er0 Ni0 2.916727 1_555
Er0 Ni11 3.068461 1_555
Er0 Ni13 3.068463 1_555
Er0 Ni12 3.068463 1_555
Er1 Ni12 2.795869 1_655
Er1 Ni13 2.795869 1_545
Er1 Ni11 2.795871 1_655
Er1 Ni11 2.795871 1_545
Er1 Ni12 2.795873 1_555
Er1 Ni13 2.795873 1_555
Er1 Ni0 2.916723 1_655
Er1 Ni0 2.916727 1_665
Er1 Ni0 2.916727 1_555
Er1 Ni8 3.068461 1_555
Er1 Ni9 3.068463 1_555
Er1 Ni10 3.068463 1_555
Er2 Ni15 2.795869 1_655
Er2 Ni16 2.795869 1_545
Er2 Ni14 2.795871 1_655
Er2 Ni14 2.795871 1_545
Er2 Ni15 2.795873 1_555
Er2 Ni16 2.795873 1_555
Er2 Ni1 2.916723 1_656
Er2 Ni1 2.916727 1_666
Er2 Ni1 2.916727 1_556
Er2 Ni17 3.068461 1_556
Er2 Ni19 3.068463 1_556
Er2 Ni18 3.068463 1_556
Er3 Ni19 2.795869 1_565
Er3 Ni18 2.795869 1_455
Er3 Ni17 2.795871 1_565
Er3 Ni17 2.795871 1_455
Er3 Ni19 2.795873 1_555
Er3 Ni18 2.795873 1_555
Er3 Ni1 2.916723 1_565
Er3 Ni1 2.916727 1_555
Er3 Ni1 2.916727 1_665
Er3 Ni14 3.068461 1_554
Er3 Ni16 3.068463 1_554
Er3 Ni15 3.068463 1_554
Er4 Ni20 2.836549 1_565
Er4 Ni20 2.836553 1_555
Er4 Ni20 2.836553 1_665
Er4 Ni25 2.836963 1_455
Er4 Ni25 2.836963 1_565
Er4 Ni25 2.836972 1_555
Er4 Ni3 3.071302 1_455
Er4 Ni4 3.071302 1_565
Er4 Ni2 3.071304 1_565
Er4 Ni2 3.071304 1_455
Er4 Ni3 3.071306 1_555
Er4 Ni4 3.071306 1_555
Er4 Ni10 3.242582 1_565
Er4 Ni9 3.242582 1_455
Er4 Ni8 3.242583 1_565
Er4 Ni8 3.242583 1_455
Er4 Ni10 3.242585 1_555
Er4 Ni9 3.242585 1_555
Er5 Ni21 2.836549 1_655
Er5 Ni21 2.836553 1_555
Er5 Ni21 2.836553 1_665
Er5 Ni24 2.836963 1_545
Er5 Ni24 2.836963 1_655
Er5 Ni24 2.836972 1_555
Er5 Ni7 3.071302 1_545
Er5 Ni6 3.071302 1_655
Er5 Ni5 3.071304 1_545
Er5 Ni5 3.071304 1_655
Er5 Ni7 3.071306 1_555
Er5 Ni6 3.071306 1_555
Er5 Ni12 3.242582 1_655
Er5 Ni13 3.242582 1_545
Er5 Ni11 3.242583 1_545
Er5 Ni11 3.242583 1_655
Er5 Ni12 3.242585 1_555
Er5 Ni13 3.242585 1_555
Er6 Ni22 2.836549 1_655
Er6 Ni22 2.836553 1_665
Er6 Ni22 2.836553 1_555
Er6 Ni27 2.836963 1_545
Er6 Ni27 2.836963 1_655
Er6 Ni27 2.836972 1_555
Er6 Ni7 3.071302 1_545
Er6 Ni6 3.071302 1_655
Er6 Ni5 3.071304 1_545
Er6 Ni5 3.071304 1_655
Er6 Ni7 3.071306 1_555
Er6 Ni6 3.071306 1_555
Er6 Ni15 3.242582 1_655
Er6 Ni16 3.242582 1_545
Er6 Ni14 3.242583 1_545
Er6 Ni14 3.242583 1_655
Er6 Ni15 3.242585 1_555
Er6 Ni16 3.242585 1_555
Er7 Ni23 2.836549 1_565
Er7 Ni23 2.836553 1_665
Er7 Ni23 2.836553 1_555
Er7 Ni26 2.836963 1_455
Er7 Ni26 2.836963 1_565
Er7 Ni26 2.836972 1_555
Er7 Ni3 3.071302 1_455
Er7 Ni4 3.071302 1_565
Er7 Ni2 3.071304 1_455
Er7 Ni2 3.071304 1_565
Er7 Ni4 3.071306 1_555
Er7 Ni3 3.071306 1_555
Er7 Ni18 3.242582 1_455
Er7 Ni19 3.242582 1_565
Er7 Ni17 3.242583 1_565
Er7 Ni17 3.242583 1_455
Er7 Ni18 3.242585 1_555
Er7 Ni19 3.242585 1_555
Ni0 Ni10 2.483831 1_555
Ni0 Ni9 2.483831 1_445
Ni0 Ni13 2.483831 1_445
Ni0 Ni12 2.483831 1_555
Ni0 Ni8 2.483832 1_455
Ni0 Ni11 2.483832 1_545
Ni1 Ni18 2.483831 1_445
Ni1 Ni19 2.483831 1_555
Ni1 Ni16 2.483831 1_444
Ni1 Ni15 2.483831 1_554
Ni1 Ni17 2.483832 1_455
Ni1 Ni14 2.483832 1_544
Ni2 Ni23 2.438080 1_655
Ni2 Ni20 2.438080 1_655
Ni2 Ni25 2.447838 1_555
Ni2 Ni26 2.447838 1_555
Ni2 Ni4 2.449023 1_655
Ni2 Ni3 2.449023 1_545
Ni2 Ni4 2.458141 1_555
Ni2 Ni3 2.458141 1_555
Ni3 Ni4 2.449023 1_665
Ni3 Ni4 2.458141 1_555
Ni5 Ni6 2.449023 1_565
Ni5 Ni7 2.449023 1_455
Ni5 Ni6 2.458141 1_555
Ni5 Ni7 2.458141 1_555
Ni6 Ni7 2.449023 1_445
Ni6 Ni7 2.458141 1_555
Ni8 Ni9 2.437089 1_555
Ni8 Ni9 2.470075 1_545
Ni10 Ni25 2.423252 1_555
Ni10 Ni9 2.437089 1_555
Ni10 Ni8 2.437089 1_555
Ni10 Ni20 2.441036 1_555
Ni10 Ni9 2.470075 1_445
Ni10 Ni8 2.470075 1_455
Ni11 Ni24 2.423250 1_555
Ni11 Ni13 2.437089 1_555
Ni11 Ni12 2.437089 1_555
Ni11 Ni21 2.441036 1_565
Ni11 Ni12 2.470075 1_565
Ni11 Ni13 2.470075 1_455
Ni12 Ni24 2.423252 1_555
Ni12 Ni13 2.437089 1_555
Ni12 Ni21 2.441036 1_555
Ni12 Ni13 2.470075 1_445
Ni13 Ni24 2.423252 1_555
Ni13 Ni21 2.441036 1_665
Ni14 Ni27 2.423250 1_555
Ni14 Ni16 2.437089 1_555
Ni14 Ni15 2.437089 1_555
Ni14 Ni22 2.441036 1_565
Ni14 Ni16 2.470075 1_455
Ni14 Ni15 2.470075 1_565
Ni15 Ni27 2.423252 1_555
Ni15 Ni16 2.437089 1_555
Ni15 Ni22 2.441036 1_555
Ni15 Ni16 2.470075 1_445
Ni16 Ni27 2.423252 1_555
Ni16 Ni22 2.441036 1_665
Ni17 Ni26 2.423250 1_555
Ni17 Ni18 2.437089 1_555
Ni17 Ni19 2.437089 1_555
Ni17 Ni23 2.441036 1_655
Ni17 Ni19 2.470075 1_655
Ni17 Ni18 2.470075 1_545
Ni18 Ni26 2.423252 1_555
Ni18 Ni19 2.437089 1_555
Ni18 Ni23 2.441036 1_665
Ni18 Ni19 2.470075 1_665
Ni19 Ni26 2.423252 1_555
Ni19 Ni23 2.441036 1_555
Ni20 Ni3 2.438080 1_445
Ni20 Ni4 2.438080 1_555
Ni20 Ni9 2.441036 1_445
Ni20 Ni8 2.441036 1_455
Ni21 Ni7 2.438080 1_445
Ni21 Ni6 2.438080 1_555
Ni21 Ni5 2.438080 1_545
Ni22 Ni7 2.438080 1_445
Ni22 Ni6 2.438080 1_555
Ni22 Ni5 2.438080 1_545
Ni23 Ni3 2.438080 1_445
Ni23 Ni4 2.438080 1_555
Ni24 Ni5 2.447838 1_555
Ni24 Ni6 2.447841 1_555
Ni24 Ni7 2.447841 1_555
Ni25 Ni8 2.423250 1_555
Ni25 Ni9 2.423252 1_555
Ni25 Ni4 2.447841 1_555
Ni25 Ni3 2.447841 1_555
Ni26 Ni4 2.447841 1_555
Ni26 Ni3 2.447841 1_555
Ni27 Ni5 2.447838 1_555
Ni27 Ni6 2.447841 1_555
Ni27 Ni7 2.447841 1_555
