# generated using pymatgen
data_Tb2Al3Fe
_symmetry_space_group_name_H-M   'P 1'
_cell_length_a   5.39655421
_cell_length_b   5.39655421
_cell_length_c   5.39655397
_cell_angle_alpha   61.61239033
_cell_angle_beta   61.61239033
_cell_angle_gamma   61.61238363
_symmetry_Int_Tables_number   1
_chemical_formula_structural   Tb2Al3Fe
_chemical_formula_sum   'Tb2 Al3 Fe1'
_cell_volume   115.14993294
_cell_formula_units_Z   1
loop_
 _symmetry_equiv_pos_site_id
 _symmetry_equiv_pos_as_xyz
  1  'x, y, z'
loop_
 _atom_site_type_symbol
 _atom_site_label
 _atom_site_symmetry_multiplicity
 _atom_site_fract_x
 _atom_site_fract_y
 _atom_site_fract_z
 _atom_site_occupancy
  Tb  Tb0  1  0.62571900  0.62571900  0.62571900  1
  Tb  Tb1  1  0.37428100  0.37428100  0.37428100  1
  Al  Al0  1  0.00000000  0.50000000  0.00000000  1
  Al  Al1  1  0.50000000  0.00000000  0.00000000  1
  Al  Al2  1  0.00000000  0.00000000  0.50000000  1
  Fe  Fe0  1  0.00000000  0.00000000  0.00000000  1
loop_
_geom_bond_atom_site_label_1
_geom_bond_atom_site_label_2
_geom_bond_distance
_geom_bond_site_symmetry_2
Al0 Fe0 2.698277 1_555
Al0 Fe0 2.698277 1_565
Al0 Al1 2.763768 1_555
Al0 Al1 2.763768 1_465
Al0 Al2 2.763768 1_555
Al0 Al2 2.763768 1_564
Al0 Tb0 3.145300 1_454
Al0 Tb1 3.145300 1_555
Al0 Tb0 3.214394 1_455
Al0 Tb1 3.214394 1_554
Al0 Tb1 3.214394 1_455
Al0 Tb0 3.214394 1_554
Al1 Fe0 2.698277 1_555
Al1 Fe0 2.698277 1_655
Al1 Al2 2.763768 1_654
Al1 Al2 2.763768 1_555
Al1 Tb0 3.145300 1_544
Al1 Tb1 3.145300 1_555
Al1 Tb0 3.214394 1_545
Al1 Tb1 3.214394 1_554
Al1 Tb1 3.214394 1_545
Al1 Tb0 3.214394 1_554
Al2 Fe0 2.698277 1_555
Al2 Fe0 2.698277 1_556
Al2 Tb0 3.145301 1_445
Al2 Tb1 3.145301 1_555
Al2 Tb0 3.214394 1_455
Al2 Tb0 3.214394 1_545
Al2 Tb1 3.214394 1_455
Al2 Tb1 3.214394 1_545
Fe0 Tb1 3.235790 1_545
Fe0 Tb0 3.235790 1_454
Fe0 Tb1 3.235790 1_455
Fe0 Tb0 3.235790 1_544
Fe0 Tb0 3.235790 1_445
Fe0 Tb1 3.235790 1_554
