# generated using pymatgen
data_Mg5Pb(SO4)6
_symmetry_space_group_name_H-M   'P 1'
_cell_length_a   7.36427674
_cell_length_b   14.55453420
_cell_length_c   14.55453420
_cell_angle_alpha   120.00000094
_cell_angle_beta   90.00000000
_cell_angle_gamma   90.00000000
_symmetry_Int_Tables_number   1
_chemical_formula_structural   Mg5Pb(SO4)6
_chemical_formula_sum   'Mg15 Pb3 S18 O72'
_cell_volume   1351.00622354
_cell_formula_units_Z   3
loop_
 _symmetry_equiv_pos_site_id
 _symmetry_equiv_pos_as_xyz
  1  'x, y, z'
loop_
 _atom_site_type_symbol
 _atom_site_label
 _atom_site_symmetry_multiplicity
 _atom_site_fract_x
 _atom_site_fract_y
 _atom_site_fract_z
 _atom_site_occupancy
  Mg  Mg0  1  0.95802726  0.99747264  0.34403649  1
  Mg  Mg1  1  0.04197274  0.00252736  0.65596351  1
  Mg  Mg2  1  0.95802726  0.34656385  0.00252736  1
  Mg  Mg3  1  0.04197274  0.65343615  0.99747264  1
  Mg  Mg4  1  0.95802726  0.65596351  0.65343615  1
  Mg  Mg5  1  0.04197274  0.34403649  0.34656385  1
  Mg  Mg6  1  0.55111373  0.67747366  0.67993468  1
  Mg  Mg7  1  0.44888627  0.32252634  0.32006532  1
  Mg  Mg8  1  0.55111373  0.00246102  0.32252634  1
  Mg  Mg9  1  0.44888627  0.99753898  0.67747366  1
  Mg  Mg10  1  0.55111373  0.32006532  0.99753898  1
  Mg  Mg11  1  0.44888627  0.67993468  0.00246102  1
  Mg  Mg12  1  0.49812284  0.66666700  0.33333300  1
  Mg  Mg13  1  0.50187716  0.33333300  0.66666700  1
  Mg  Mg14  1  -0.00000000  -0.00000000  -0.00000000  1
  Pb  Pb0  1  0.99974846  0.66666700  0.33333300  1
  Pb  Pb1  1  0.00025154  0.33333300  0.66666700  1
  Pb  Pb2  1  0.50000000  -0.00000000  -0.00000000  1
  S  S0  1  0.75903871  0.86802452  0.09659040  1
  S  S1  1  0.24096129  0.13197548  0.90340960  1
  S  S2  1  0.75903871  0.22856587  0.13197548  1
  S  S3  1  0.24096129  0.77143413  0.86802452  1
  S  S4  1  0.75903871  0.90340960  0.77143413  1
  S  S5  1  0.24096129  0.09659040  0.22856587  1
  S  S6  1  0.74127133  0.56138969  0.79603361  1
  S  S7  1  0.25872867  0.43861031  0.20396639  1
  S  S8  1  0.74127133  0.23464392  0.43861031  1
  S  S9  1  0.25872867  0.76535608  0.56138969  1
  S  S10  1  0.74127133  0.20396639  0.76535608  1
  S  S11  1  0.25872867  0.79603361  0.23464392  1
  S  S12  1  0.73820700  0.89452648  0.46405086  1
  S  S13  1  0.26179300  0.10547352  0.53594914  1
  S  S14  1  0.73820700  0.56952438  0.10547352  1
  S  S15  1  0.26179300  0.43047562  0.89452648  1
  S  S16  1  0.73820700  0.53594914  0.43047562  1
  S  S17  1  0.26179300  0.46405086  0.56952438  1
  O  O0  1  0.70591180  0.45263395  0.70486468  1
  O  O1  1  0.29408820  0.54736605  0.29513532  1
  O  O2  1  0.70591180  0.25223073  0.54736605  1
  O  O3  1  0.29408820  0.74776927  0.45263395  1
  O  O4  1  0.70591180  0.29513532  0.74776927  1
  O  O5  1  0.29408820  0.70486468  0.25223073  1
  O  O6  1  0.92031997  0.89534750  0.50931421  1
  O  O7  1  0.07968003  0.10465250  0.49068579  1
  O  O8  1  0.92031997  0.61396671  0.10465250  1
  O  O9  1  0.07968003  0.38603329  0.89534750  1
  O  O10  1  0.92031997  0.49068579  0.38603329  1
  O  O11  1  0.07968003  0.50931421  0.61396671  1
  O  O12  1  0.57258407  0.82926247  0.05510163  1
  O  O13  1  0.42741593  0.17073753  0.94489837  1
  O  O14  1  0.57258407  0.22583916  0.17073753  1
  O  O15  1  0.42741593  0.77416084  0.82926247  1
  O  O16  1  0.57258407  0.94489837  0.77416084  1
  O  O17  1  0.42741593  0.05510163  0.22583916  1
  O  O18  1  0.59549754  0.61991305  0.07648342  1
  O  O19  1  0.40450246  0.38008695  0.92351658  1
  O  O20  1  0.59549754  0.45657036  0.38008695  1
  O  O21  1  0.40450246  0.54342964  0.61991305  1
  O  O22  1  0.59549754  0.92351658  0.54342964  1
  O  O23  1  0.40450246  0.07648342  0.45657036  1
  O  O24  1  0.80368869  0.95707502  0.07781002  1
  O  O25  1  0.19631131  0.04292498  0.92218998  1
  O  O26  1  0.80368869  0.12073499  0.04292498  1
  O  O27  1  0.19631131  0.87926501  0.95707502  1
  O  O28  1  0.80368869  0.92218998  0.87926501  1
  O  O29  1  0.19631131  0.07781002  0.12073499  1
  O  O30  1  0.74407936  0.96943173  0.42154660  1
  O  O31  1  0.25592064  0.03056827  0.57845340  1
  O  O32  1  0.74407936  0.45211487  0.03056827  1
  O  O33  1  0.25592064  0.54788513  0.96943173  1
  O  O34  1  0.74407936  0.57845340  0.54788513  1
  O  O35  1  0.25592064  0.42154660  0.45211487  1
  O  O36  1  0.76023011  0.91082206  0.21409522  1
  O  O37  1  0.23976989  0.08917794  0.78590478  1
  O  O38  1  0.76023011  0.30327316  0.08917794  1
  O  O39  1  0.23976989  0.69672684  0.91082206  1
  O  O40  1  0.76023011  0.78590478  0.69672684  1
  O  O41  1  0.23976989  0.21409522  0.30327316  1
  O  O42  1  0.91443724  0.55929140  0.84779723  1
  O  O43  1  0.08556276  0.44070860  0.15220277  1
  O  O44  1  0.91443724  0.28850583  0.44070860  1
  O  O45  1  0.08556276  0.71149417  0.55929140  1
  O  O46  1  0.91443724  0.15220277  0.71149417  1
  O  O47  1  0.08556276  0.84779723  0.28850583  1
  O  O48  1  0.58783236  0.59414250  0.86915464  1
  O  O49  1  0.41216764  0.40585750  0.13084536  1
  O  O50  1  0.58783236  0.27501214  0.40585750  1
  O  O51  1  0.41216764  0.72498786  0.59414250  1
  O  O52  1  0.58783236  0.13084536  0.72498786  1
  O  O53  1  0.41216764  0.86915464  0.27501214  1
  O  O54  1  0.70159973  0.78590913  0.37302123  1
  O  O55  1  0.29840027  0.21409087  0.62697877  1
  O  O56  1  0.70159973  0.58711210  0.21409087  1
  O  O57  1  0.29840027  0.41288790  0.78590913  1
  O  O58  1  0.70159973  0.62697877  0.41288790  1
  O  O59  1  0.29840027  0.37302123  0.58711210  1
  O  O60  1  0.75950520  0.63543001  0.75281099  1
  O  O61  1  0.24049480  0.36456999  0.24718901  1
  O  O62  1  0.75950520  0.11738098  0.36456999  1
  O  O63  1  0.24049480  0.88261902  0.63543001  1
  O  O64  1  0.75950520  0.24718901  0.88261902  1
  O  O65  1  0.24049480  0.75281099  0.11738098  1
  O  O66  1  0.89157860  0.78238909  0.04318446  1
  O  O67  1  0.10842140  0.21761091  0.95681554  1
  O  O68  1  0.89157860  0.26079538  0.21761091  1
  O  O69  1  0.10842140  0.73920462  0.78238909  1
  O  O70  1  0.89157860  0.95681554  0.73920462  1
  O  O71  1  0.10842140  0.04318446  0.26079538  1
loop_
_geom_bond_atom_site_label_1
_geom_bond_atom_site_label_2
_geom_bond_distance
_geom_bond_site_symmetry_2
Mg0 O71 1.985741 1_665
Mg0 O30 2.093338 1_555
Mg0 O7 2.112391 1_665
Mg0 O47 2.126106 1_655
Mg0 O62 2.179648 1_565
Mg0 O36 2.214480 1_555
Mg1 O70 1.985741 1_445
Mg1 O31 2.093338 1_555
Mg1 O6 2.112391 1_445
Mg1 O46 2.126106 1_455
Mg1 O63 2.179648 1_545
Mg1 O37 2.214480 1_555
Mg2 O67 1.985741 1_654
Mg2 O32 2.093338 1_555
Mg2 O9 2.112391 1_654
Mg2 O43 2.126106 1_655
Mg2 O64 2.179648 1_554
Mg2 O38 2.214480 1_555
Mg3 O66 1.985741 1_456
Mg3 O33 2.093338 1_555
Mg3 O8 2.112391 1_456
Mg3 O42 2.126106 1_455
Mg3 O65 2.179648 1_556
Mg3 O39 2.214480 1_555
Mg4 O69 1.985741 1_655
Mg4 O34 2.093338 1_555
Mg4 O11 2.112391 1_655
Mg4 O45 2.126106 1_655
Mg4 O60 2.179648 1_555
Mg4 O40 2.214480 1_555
Mg5 O68 1.985741 1_455
Mg5 O35 2.093338 1_555
Mg5 O10 2.112391 1_455
Mg5 O44 2.126106 1_455
Mg5 O61 2.179648 1_555
Mg5 O41 2.214480 1_555
Mg6 O51 1.986939 1_555
Mg6 O21 2.007673 1_555
Mg6 O15 2.115492 1_555
Mg6 O60 2.122195 1_555
Mg6 O40 2.129836 1_555
Mg6 O34 2.240613 1_555
Mg7 O50 1.986939 1_555
Mg7 O20 2.007673 1_555
Mg7 O14 2.115492 1_555
Mg7 O61 2.122195 1_555
Mg7 O41 2.129836 1_555
Mg7 O35 2.240613 1_555
Mg8 O53 1.986939 1_545
Mg8 O23 2.007673 1_555
Mg8 O17 2.115492 1_555
Mg8 O62 2.122195 1_555
Mg8 O36 2.129836 1_545
Mg8 O30 2.240613 1_545
Mg9 O52 1.986939 1_565
Mg9 O22 2.007673 1_555
Mg9 O16 2.115492 1_555
Mg9 O63 2.122195 1_555
Mg9 O37 2.129836 1_565
Mg9 O31 2.240613 1_565
Mg10 O49 1.986939 1_556
Mg10 O19 2.007673 1_555
Mg10 O13 2.115492 1_555
Mg10 O64 2.122195 1_555
Mg10 O38 2.129836 1_556
Mg10 O32 2.240613 1_556
Mg11 O48 1.986939 1_554
Mg11 O18 2.007673 1_555
Mg11 O12 2.115492 1_555
Mg11 O65 2.122195 1_555
Mg11 O39 2.129836 1_554
Mg11 O33 2.240613 1_554
Mg12 O54 2.142091 1_555
Mg12 O56 2.142093 1_555
Mg12 O58 2.142101 1_555
Mg12 O5 2.148579 1_555
Mg12 O3 2.148587 1_555
Mg12 O1 2.148589 1_555
Mg13 O55 2.142091 1_555
Mg13 O57 2.142093 1_555
Mg13 O59 2.142101 1_555
Mg13 O4 2.148579 1_555
Mg13 O2 2.148587 1_555
Mg13 O0 2.148589 1_555
Mg14 O27 2.114331 1_544
Mg14 O26 2.114331 1_455
Mg14 O29 2.114331 1_555
Mg14 O28 2.114331 1_444
Mg14 O24 2.114331 1_445
Mg14 O25 2.114331 1_554
O0 S6 1.494555 1_555
O0 Pb1 2.656541 1_655
O1 S7 1.494555 1_555
O1 Pb0 2.656541 1_455
O2 S8 1.494555 1_555
O2 Pb1 2.656540 1_655
O3 S9 1.494555 1_555
O3 Pb0 2.656540 1_455
O4 S10 1.494555 1_555
O4 Pb1 2.656533 1_655
O5 S11 1.494555 1_555
O5 Pb0 2.656533 1_455
O6 S12 1.491610 1_555
O7 S13 1.491610 1_555
O8 S14 1.491610 1_555
O9 S15 1.491610 1_555
O10 S16 1.491610 1_555
O11 S17 1.491610 1_555
O12 S0 1.492534 1_555
O13 S1 1.492534 1_555
O14 S2 1.492534 1_555
O15 S3 1.492534 1_555
O16 S4 1.492534 1_555
O17 S5 1.492534 1_555
O18 S14 1.459392 1_555
O19 S15 1.459392 1_555
O20 S16 1.459392 1_555
O21 S17 1.459392 1_555
O22 S12 1.459392 1_555
O23 S13 1.459392 1_555
O24 S0 1.488943 1_555
O24 Pb2 2.716997 1_565
O25 S1 1.488943 1_555
O25 Pb2 2.716997 1_556
O26 S2 1.488943 1_555
O26 Pb2 2.716996 1_555
O27 S3 1.488943 1_555
O27 Pb2 2.716996 1_566
O28 S4 1.488943 1_555
O28 Pb2 2.716996 1_566
O29 S5 1.488943 1_555
O29 Pb2 2.716996 1_555
O30 S12 1.499190 1_555
O31 S13 1.499190 1_555
O32 S14 1.499190 1_555
O33 S15 1.499190 1_555
O34 S16 1.499190 1_555
O35 S17 1.499190 1_555
O36 S0 1.499220 1_555
O37 S1 1.499220 1_555
O38 S2 1.499220 1_555
O39 S3 1.499220 1_555
O40 S4 1.499220 1_555
O41 S5 1.499220 1_555
O42 S6 1.489224 1_555
O43 S7 1.489224 1_555
O44 S8 1.489224 1_555
O45 S9 1.489224 1_555
O46 S10 1.489224 1_555
O47 S11 1.489224 1_555
O48 S6 1.459231 1_555
O49 S7 1.459231 1_555
O50 S8 1.459231 1_555
O51 S9 1.459231 1_555
O52 S10 1.459231 1_555
O53 S11 1.459231 1_555
O54 S12 1.494220 1_555
O54 Pb0 2.676574 1_555
O55 S13 1.494220 1_555
O55 Pb1 2.676574 1_555
O56 S14 1.494220 1_555
O56 Pb0 2.676576 1_555
O57 S15 1.494220 1_555
O57 Pb1 2.676576 1_555
O58 S16 1.494220 1_555
O58 Pb0 2.676582 1_555
O59 S17 1.494220 1_555
O59 Pb1 2.676582 1_555
O60 S6 1.500988 1_555
O61 S7 1.500988 1_555
O62 S8 1.500988 1_555
O63 S9 1.500988 1_555
O64 S10 1.500988 1_555
O65 S11 1.500988 1_555
O66 S0 1.463403 1_555
O67 S1 1.463403 1_555
O68 S2 1.463403 1_555
O69 S3 1.463403 1_555
O70 S4 1.463403 1_555
O71 S5 1.463403 1_555
