# generated using pymatgen
data_ReC4S4N8Cl8O3
_symmetry_space_group_name_H-M   'P 1'
_cell_length_a   9.34886110
_cell_length_b   9.34886110
_cell_length_c   16.92167100
_cell_angle_alpha   90.00000000
_cell_angle_beta   90.00000000
_cell_angle_gamma   106.89245776
_symmetry_Int_Tables_number   1
_chemical_formula_structural   ReC4S4N8Cl8O3
_chemical_formula_sum   'Re2 C8 S8 N16 Cl16 O6'
_cell_volume   1415.15939631
_cell_formula_units_Z   2
loop_
 _symmetry_equiv_pos_site_id
 _symmetry_equiv_pos_as_xyz
  1  'x, y, z'
loop_
 _atom_site_type_symbol
 _atom_site_label
 _atom_site_symmetry_multiplicity
 _atom_site_fract_x
 _atom_site_fract_y
 _atom_site_fract_z
 _atom_site_occupancy
  Re  Re0  1  0.84965000  0.15035000  0.75000000  1
  Re  Re1  1  0.15035000  0.84965000  0.25000000  1
  C  C0  1  0.98479700  0.66442400  0.55512100  1
  C  C1  1  0.01520300  0.33557600  0.44487900  1
  C  C2  1  0.01520300  0.33557600  0.05512100  1
  C  C3  1  0.33557600  0.01520300  0.94487900  1
  C  C4  1  0.98479700  0.66442400  0.94487900  1
  C  C5  1  0.66442400  0.98479700  0.05512100  1
  C  C6  1  0.66442400  0.98479700  0.44487900  1
  C  C7  1  0.33557600  0.01520300  0.55512100  1
  S  S0  1  0.60299800  0.63254500  0.55340600  1
  S  S1  1  0.39700200  0.36745500  0.44659400  1
  S  S2  1  0.39700200  0.36745500  0.05340600  1
  S  S3  1  0.36745500  0.39700200  0.94659400  1
  S  S4  1  0.60299800  0.63254500  0.94659400  1
  S  S5  1  0.63254500  0.60299800  0.05340600  1
  S  S6  1  0.63254500  0.60299800  0.44659400  1
  S  S7  1  0.36745500  0.39700200  0.55340600  1
  N  N0  1  0.01125400  0.31333500  0.51693100  1
  N  N1  1  0.98874600  0.68666500  0.48306900  1
  N  N2  1  0.98874600  0.68666500  0.01693100  1
  N  N3  1  0.68666500  0.98874600  0.98306900  1
  N  N4  1  0.01125400  0.31333500  0.98306900  1
  N  N5  1  0.31333500  0.01125400  0.01693100  1
  N  N6  1  0.31333500  0.01125400  0.48306900  1
  N  N7  1  0.68666500  0.98874600  0.51693100  1
  N  N8  1  0.97507500  0.64034200  0.62725400  1
  N  N9  1  0.02492500  0.35965800  0.37274600  1
  N  N10  1  0.02492500  0.35965800  0.12725400  1
  N  N11  1  0.35965800  0.02492500  0.87274600  1
  N  N12  1  0.97507500  0.64034200  0.87274600  1
  N  N13  1  0.64034200  0.97507500  0.12725400  1
  N  N14  1  0.64034200  0.97507500  0.37274600  1
  N  N15  1  0.35965800  0.02492500  0.62725400  1
  Cl  Cl0  1  0.74179700  0.25820300  0.65401200  1
  Cl  Cl1  1  0.25820300  0.74179700  0.34598800  1
  Cl  Cl2  1  0.25820300  0.74179700  0.15401200  1
  Cl  Cl3  1  0.74179700  0.25820300  0.84598800  1
  Cl  Cl4  1  0.66084000  0.33916000  0.09575300  1
  Cl  Cl5  1  0.33916000  0.66084000  0.90424700  1
  Cl  Cl6  1  0.33916000  0.66084000  0.59575300  1
  Cl  Cl7  1  0.66084000  0.33916000  0.40424700  1
  Cl  Cl8  1  0.95845800  0.04154200  0.65463900  1
  Cl  Cl9  1  0.04154200  0.95845800  0.34536100  1
  Cl  Cl10  1  0.04154200  0.95845800  0.15463900  1
  Cl  Cl11  1  0.95845800  0.04154200  0.84536100  1
  Cl  Cl12  1  0.05497900  0.35668400  0.75000000  1
  Cl  Cl13  1  0.94502100  0.64331600  0.25000000  1
  Cl  Cl14  1  0.64331600  0.94502100  0.75000000  1
  Cl  Cl15  1  0.35668400  0.05497900  0.25000000  1
  O  O0  1  0.49159800  0.50840200  0.75000000  1
  O  O1  1  0.50840200  0.49159800  0.25000000  1
  O  O2  1  0.63542700  0.56338400  0.75000000  1
  O  O3  1  0.36457300  0.43661600  0.25000000  1
  O  O4  1  0.43661600  0.36457300  0.75000000  1
  O  O5  1  0.56338400  0.63542700  0.25000000  1
loop_
_geom_bond_atom_site_label_1
_geom_bond_atom_site_label_2
_geom_bond_distance
_geom_bond_site_symmetry_2
C0 N1 1.235590 1_555
C0 N8 1.239737 1_555
C1 N0 1.235590 1_555
C1 N9 1.239737 1_555
C2 N4 1.235590 1_554
C2 N10 1.239737 1_555
C3 N5 1.235590 1_556
C3 N11 1.239737 1_555
C4 N2 1.235590 1_556
C4 N12 1.239737 1_555
C5 N3 1.235590 1_554
C5 N13 1.239737 1_555
C6 N7 1.235590 1_555
C6 N14 1.239737 1_555
C7 N6 1.235590 1_555
C7 N15 1.239737 1_555
S0 S6 1.861124 1_555
S0 S7 2.622991 1_555
S1 S7 1.861124 1_555
S1 S6 2.622991 1_555
S2 S3 1.861124 1_554
S2 S5 2.622991 1_555
S3 S4 2.622991 1_555
S4 S5 1.861124 1_556
Cl0 Re0 2.294007 1_555
Cl1 Re1 2.294007 1_555
Cl2 Re1 2.294007 1_555
Cl3 Re0 2.294007 1_555
Cl4 S2 2.654561 1_555
Cl4 S5 2.654561 1_555
Cl5 S3 2.654561 1_555
Cl5 S4 2.654561 1_555
Cl6 S7 2.654561 1_555
Cl6 S0 2.654561 1_555
Cl7 S1 2.654561 1_555
Cl7 S6 2.654561 1_555
Cl8 Re0 2.296692 1_555
Cl9 Re1 2.296692 1_555
Cl10 Re1 2.296692 1_555
Cl11 Re0 2.296692 1_555
Cl12 Re0 2.292138 1_455
Cl13 Re1 2.292138 1_655
Cl14 Re0 2.292138 1_565
Cl15 Re1 2.292138 1_545
O0 O2 1.292513 1_555
O0 O4 1.292513 1_555
O1 O5 1.292513 1_555
O1 O3 1.292513 1_555
