# generated using pymatgen
data_Ca3(InGa2)2
_symmetry_space_group_name_H-M   'P 1'
_cell_length_a   4.67847681
_cell_length_b   4.67847681
_cell_length_c   22.73108100
_cell_angle_alpha   90.00000000
_cell_angle_beta   90.00000000
_cell_angle_gamma   120.00001143
_symmetry_Int_Tables_number   1
_chemical_formula_structural   Ca3(InGa2)2
_chemical_formula_sum   'Ca6 In4 Ga8'
_cell_volume   430.88327115
_cell_formula_units_Z   2
loop_
 _symmetry_equiv_pos_site_id
 _symmetry_equiv_pos_as_xyz
  1  'x, y, z'
loop_
 _atom_site_type_symbol
 _atom_site_label
 _atom_site_symmetry_multiplicity
 _atom_site_fract_x
 _atom_site_fract_y
 _atom_site_fract_z
 _atom_site_occupancy
  Ca  Ca0  1  0.00000000  0.00000000  0.25539400  1
  Ca  Ca1  1  0.00000000  0.00000000  0.58714800  1
  Ca  Ca2  1  0.00000000  0.00000000  0.91955600  1
  Ca  Ca3  1  0.00000000  0.00000000  0.07867400  1
  Ca  Ca4  1  0.00000000  0.00000000  0.41592400  1
  Ca  Ca5  1  0.00000000  0.00000000  0.74925500  1
  In  In0  1  0.66666700  0.33333300  0.18506800  1
  In  In1  1  0.66666700  0.33333300  0.51378000  1
  In  In2  1  0.66666700  0.33333300  0.84681300  1
  In  In3  1  0.33333300  0.66666700  0.14867400  1
  Ga  Ga0  1  0.33333300  0.66666700  0.48123000  1
  Ga  Ga1  1  0.33333300  0.66666700  0.81437600  1
  Ga  Ga2  1  0.33333300  0.66666700  0.01367800  1
  Ga  Ga3  1  0.33333300  0.66666700  0.34915000  1
  Ga  Ga4  1  0.33333300  0.66666700  0.68238300  1
  Ga  Ga5  1  0.66666700  0.33333300  0.32044900  1
  Ga  Ga6  1  0.66666700  0.33333300  0.65291900  1
  Ga  Ga7  1  0.66666700  0.33333300  0.98553100  1
loop_
_geom_bond_atom_site_label_1
_geom_bond_atom_site_label_2
_geom_bond_distance
_geom_bond_site_symmetry_2
Ca0 Ga5 3.079415 1_455
Ca0 Ga5 3.079418 1_445
Ca0 Ga5 3.079418 1_555
Ca0 In0 3.138712 1_455
Ca0 In0 3.138715 1_445
Ca0 In0 3.138715 1_555
Ca0 Ga3 3.440631 1_545
Ca0 Ga3 3.440634 1_445
Ca0 Ga3 3.440634 1_555
Ca0 In3 3.630542 1_545
Ca0 In3 3.630545 1_555
Ca0 In3 3.630545 1_445
Ca1 Ga6 3.087264 1_455
Ca1 Ga6 3.087267 1_445
Ca1 Ga6 3.087267 1_555
Ca1 In1 3.174488 1_455
Ca1 In1 3.174491 1_445
Ca1 In1 3.174491 1_555
Ca1 Ga4 3.461556 1_545
Ca1 Ga4 3.461559 1_555
Ca1 Ga4 3.461559 1_445
Ca1 Ga0 3.618386 1_545
Ca1 Ga0 3.618389 1_555
Ca1 Ga0 3.618389 1_445
Ca2 Ga7 3.089512 1_455
Ca2 Ga7 3.089515 1_445
Ca2 Ga7 3.089515 1_555
Ca2 In2 3.167047 1_455
Ca2 In2 3.167050 1_445
Ca2 In2 3.167050 1_555
Ca2 Ga2 3.445791 1_546
Ca2 Ga2 3.445793 1_446
Ca2 Ga2 3.445793 1_556
Ca2 Ga1 3.607246 1_545
Ca2 Ga1 3.607249 1_555
Ca2 Ga1 3.607249 1_445
Ca3 Ga2 3.078771 1_545
Ca3 Ga2 3.078774 1_555
Ca3 Ga2 3.078774 1_445
Ca3 In3 3.134944 1_545
Ca3 In3 3.134947 1_555
Ca3 In3 3.134947 1_445
Ca3 Ga7 3.432018 1_454
Ca3 Ga7 3.432020 1_444
Ca3 Ga7 3.432020 1_554
Ca3 In0 3.625595 1_455
Ca3 In0 3.625598 1_555
Ca3 In0 3.625598 1_445
Ca4 Ga0 3.082159 1_545
Ca4 Ga0 3.082162 1_555
Ca4 Ga0 3.082162 1_445
Ca4 Ga3 3.098369 1_545
Ca4 Ga3 3.098372 1_555
Ca4 Ga3 3.098372 1_445
Ca4 Ga5 3.464970 1_455
Ca4 Ga5 3.464973 1_555
Ca4 Ga5 3.464973 1_445
Ca4 In1 3.499124 1_455
Ca4 In1 3.499127 1_445
Ca4 In1 3.499127 1_555
Ca5 Ga1 3.080136 1_545
Ca5 Ga1 3.080139 1_555
Ca5 Ga1 3.080139 1_445
Ca5 Ga4 3.099461 1_545
Ca5 Ga4 3.099464 1_445
Ca5 Ga4 3.099464 1_555
Ca5 Ga6 3.477262 1_455
Ca5 Ga6 3.477265 1_445
Ca5 Ga6 3.477265 1_555
Ca5 In2 3.494822 1_455
Ca5 In2 3.494825 1_445
Ca5 In2 3.494825 1_555
In0 In3 2.824963 1_655
In0 In3 2.824963 1_545
In0 In3 2.824971 1_555
Ga0 In1 2.800621 1_455
Ga0 In1 2.800621 1_565
Ga0 In1 2.800629 1_555
Ga0 Ga3 3.002321 1_555
Ga1 In2 2.799944 1_455
Ga1 In2 2.799944 1_565
Ga1 In2 2.799952 1_555
Ga1 Ga4 3.000344 1_555
Ga2 Ga7 2.775859 1_454
Ga2 Ga7 2.775859 1_564
Ga2 Ga7 2.775867 1_554
Ga2 In3 3.068605 1_555
Ga3 Ga5 2.778788 1_455
Ga3 Ga5 2.778788 1_565
Ga3 Ga5 2.778797 1_555
Ga4 Ga6 2.782911 1_455
Ga4 Ga6 2.782911 1_565
Ga4 Ga6 2.782920 1_555
Ga5 In0 3.077356 1_555
Ga6 In1 3.162780 1_555
Ga7 In2 3.153210 1_555
