# generated using pymatgen
data_Sb
_symmetry_space_group_name_H-M   'P 1'
_cell_length_a   6.60981900
_cell_length_b   7.90329113
_cell_length_c   10.44078889
_cell_angle_alpha   69.89451273
_cell_angle_beta   82.51677316
_cell_angle_gamma   70.53038163
_symmetry_Int_Tables_number   1
_chemical_formula_structural   Sb
_chemical_formula_sum   Sb14
_cell_volume   482.81960041
_cell_formula_units_Z   14
loop_
 _symmetry_equiv_pos_site_id
 _symmetry_equiv_pos_as_xyz
  1  'x, y, z'
loop_
 _atom_site_type_symbol
 _atom_site_label
 _atom_site_symmetry_multiplicity
 _atom_site_fract_x
 _atom_site_fract_y
 _atom_site_fract_z
 _atom_site_occupancy
  Sb  Sb0  1  0.00000000  0.00000000  0.00000000  1
  Sb  Sb1  1  0.50000000  0.50000000  0.50000000  1
  Sb  Sb2  1  0.50000000  0.00000000  0.50000000  1
  Sb  Sb3  1  0.00000000  0.50000000  0.00000000  1
  Sb  Sb4  1  0.33453500  0.08010100  0.77198400  1
  Sb  Sb5  1  0.66546500  0.91989900  0.22801600  1
  Sb  Sb6  1  0.97679600  0.88569000  0.74132400  1
  Sb  Sb7  1  0.02320400  0.11431000  0.25867600  1
  Sb  Sb8  1  0.32668800  0.75416100  0.22023800  1
  Sb  Sb9  1  0.67331200  0.24583900  0.77976200  1
  Sb  Sb10  1  0.11634000  0.48848100  0.69687200  1
  Sb  Sb11  1  0.88366000  0.51151900  0.30312800  1
  Sb  Sb12  1  0.66105000  0.66831700  0.76794600  1
  Sb  Sb13  1  0.33895000  0.33168300  0.23205400  1
loop_
_geom_bond_atom_site_label_1
_geom_bond_atom_site_label_2
_geom_bond_distance
_geom_bond_site_symmetry_2
Sb0 Sb8 3.024950 1_545
Sb0 Sb9 3.024950 1_454
Sb0 Sb4 3.079556 1_554
Sb0 Sb5 3.079556 1_445
Sb0 Sb7 3.164119 1_555
Sb0 Sb6 3.164119 1_444
Sb1 Sb9 3.030337 1_555
Sb1 Sb8 3.030337 1_555
Sb1 Sb10 3.054797 1_555
Sb1 Sb11 3.054797 1_555
Sb2 Sb4 3.102644 1_555
Sb2 Sb5 3.102644 1_545
Sb3 Sb7 3.278070 1_555
Sb3 Sb6 3.278070 1_454
Sb4 Sb9 2.968569 1_555
Sb4 Sb6 3.318400 1_445
Sb5 Sb8 2.968569 1_555
Sb5 Sb7 3.318400 1_665
Sb6 Sb9 3.009358 1_565
Sb7 Sb8 3.009358 1_545
Sb10 Sb4 2.926354 1_555
Sb10 Sb12 2.986522 1_455
Sb10 Sb6 3.143415 1_455
Sb10 Sb3 3.183345 1_556
Sb11 Sb5 2.926354 1_555
Sb11 Sb13 2.986522 1_655
Sb11 Sb7 3.143415 1_655
Sb11 Sb3 3.183345 1_655
Sb12 Sb6 3.048775 1_555
Sb12 Sb2 3.115280 1_565
Sb12 Sb3 3.141721 1_656
Sb12 Sb4 3.261833 1_565
Sb12 Sb9 3.272536 1_555
Sb13 Sb7 3.048775 1_555
Sb13 Sb2 3.115280 1_555
Sb13 Sb3 3.141721 1_555
Sb13 Sb5 3.261833 1_545
Sb13 Sb8 3.272536 1_555
