# generated using pymatgen
data_Ca(NiO2)2
_symmetry_space_group_name_H-M   'P 1'
_cell_length_a   5.13541167
_cell_length_b   5.13541167
_cell_length_c   9.61980000
_cell_angle_alpha   90.00000000
_cell_angle_beta   90.00000000
_cell_angle_gamma   145.21530626
_symmetry_Int_Tables_number   1
_chemical_formula_structural   Ca(NiO2)2
_chemical_formula_sum   'Ca2 Ni4 O8'
_cell_volume   144.73307509
_cell_formula_units_Z   2
loop_
 _symmetry_equiv_pos_site_id
 _symmetry_equiv_pos_as_xyz
  1  'x, y, z'
loop_
 _atom_site_type_symbol
 _atom_site_label
 _atom_site_symmetry_multiplicity
 _atom_site_fract_x
 _atom_site_fract_y
 _atom_site_fract_z
 _atom_site_occupancy
  Ca  Ca0  1  0.60608900  0.39391100  0.75000000  1
  Ca  Ca1  1  0.39391100  0.60608900  0.25000000  1
  Ni  Ni0  1  0.13825400  0.86174600  0.06817200  1
  Ni  Ni1  1  0.86174600  0.13825400  0.93182800  1
  Ni  Ni2  1  0.13825400  0.86174600  0.43182800  1
  Ni  Ni3  1  0.86174600  0.13825400  0.56817200  1
  O  O0  1  0.76885800  0.23114200  0.39380500  1
  O  O1  1  0.23114200  0.76885800  0.60619500  1
  O  O2  1  0.23114200  0.76885800  0.89380500  1
  O  O3  1  0.76885800  0.23114200  0.10619500  1
  O  O4  1  0.06205500  0.93794500  0.25000000  1
  O  O5  1  0.93794500  0.06205500  0.75000000  1
  O  O6  1  0.50000000  0.50000000  0.00000000  1
  O  O7  1  0.50000000  0.50000000  0.50000000  1
loop_
_geom_bond_atom_site_label_1
_geom_bond_atom_site_label_2
_geom_bond_distance
_geom_bond_site_symmetry_2
Ca0 O5 2.252183 1_455
Ca0 O5 2.252183 1_565
Ca0 O1 2.402574 1_655
Ca0 O1 2.402574 1_545
Ca0 O2 2.402574 1_655
Ca0 O2 2.402574 1_545
Ca0 O6 2.620110 1_556
Ca0 O7 2.620110 1_555
Ca1 O4 2.252183 1_545
Ca1 O4 2.252183 1_655
Ca1 O0 2.402574 1_565
Ca1 O3 2.402574 1_455
Ca1 O0 2.402574 1_455
Ca1 O3 2.402574 1_565
Ca1 O6 2.620110 1_555
Ca1 O7 2.620110 1_555
Ni0 O4 1.901920 1_555
Ni0 O2 1.908520 1_554
Ni0 O3 2.031934 1_455
Ni0 O3 2.031934 1_565
Ni0 O6 2.150029 1_455
Ni0 O6 2.150029 1_565
Ni1 O5 1.901920 1_555
Ni1 O3 1.908520 1_556
Ni1 O2 2.031934 1_545
Ni1 O2 2.031934 1_655
Ni1 O6 2.150029 1_546
Ni1 O6 2.150029 1_656
Ni2 O4 1.901920 1_555
Ni2 O1 1.908520 1_555
Ni2 O0 2.031934 1_455
Ni2 O0 2.031934 1_565
Ni2 O7 2.150029 1_565
Ni2 O7 2.150029 1_455
Ni3 O5 1.901920 1_555
Ni3 O0 1.908520 1_555
Ni3 O1 2.031934 1_545
Ni3 O1 2.031934 1_655
Ni3 O7 2.150029 1_655
Ni3 O7 2.150029 1_545
