# generated using pymatgen
data_BaCaEuSbO6
_symmetry_space_group_name_H-M   'P 1'
_cell_length_a   8.47263790
_cell_length_b   8.40782466
_cell_length_c   8.45153860
_cell_angle_alpha   90.00000000
_cell_angle_beta   90.00000000
_cell_angle_gamma   90.00000000
_symmetry_Int_Tables_number   1
_chemical_formula_structural   BaCaEuSbO6
_chemical_formula_sum   'Ba4 Ca4 Eu4 Sb4 O24'
_cell_volume   602.05763962
_cell_formula_units_Z   4
loop_
 _symmetry_equiv_pos_site_id
 _symmetry_equiv_pos_as_xyz
  1  'x, y, z'
loop_
 _atom_site_type_symbol
 _atom_site_label
 _atom_site_symmetry_multiplicity
 _atom_site_fract_x
 _atom_site_fract_y
 _atom_site_fract_z
 _atom_site_occupancy
  Ba  Ba0  1  0.00000000  0.00000000  -0.00000000  1
  Ba  Ba1  1  0.50000000  0.50000000  0.50000000  1
  Ba  Ba2  1  0.50000000  0.00000000  0.50000000  1
  Ba  Ba3  1  0.00000000  0.50000000  -0.00000000  1
  Ca  Ca0  1  0.75000000  0.75000000  0.75000000  1
  Ca  Ca1  1  0.25000000  0.25000000  0.75000000  1
  Ca  Ca2  1  0.25000000  0.75000000  0.25000000  1
  Ca  Ca3  1  0.75000000  0.25000000  0.25000000  1
  Eu  Eu0  1  0.00000000  0.50000000  0.50000000  1
  Eu  Eu1  1  0.50000000  0.50000000  0.00000000  1
  Eu  Eu2  1  0.50000000  0.00000000  -0.00000000  1
  Eu  Eu3  1  0.00000000  0.00000000  0.50000000  1
  Sb  Sb0  1  0.25000000  0.25000000  0.25000000  1
  Sb  Sb1  1  0.75000000  0.75000000  0.25000000  1
  Sb  Sb2  1  0.75000000  0.25000000  0.75000000  1
  Sb  Sb3  1  0.25000000  0.75000000  0.75000000  1
  O  O0  1  0.01782102  0.19573911  0.28390729  1
  O  O1  1  0.98217898  0.80426089  0.28390729  1
  O  O2  1  0.98217898  0.19573911  0.71609271  1
  O  O3  1  0.01782102  0.80426089  0.71609271  1
  O  O4  1  0.30287028  0.01788501  0.20848037  1
  O  O5  1  0.30287028  0.98211499  0.79151963  1
  O  O6  1  0.69712972  0.98211499  0.20848037  1
  O  O7  1  0.69712972  0.01788501  0.79151963  1
  O  O8  1  0.22831142  0.28079343  0.01629100  1
  O  O9  1  0.77168858  0.28079343  0.98370900  1
  O  O10  1  0.22831142  0.71920657  0.98370900  1
  O  O11  1  0.77168858  0.71920657  0.01629100  1
  O  O12  1  0.48217898  0.30426089  0.21609271  1
  O  O13  1  0.51782102  0.69573911  0.21609271  1
  O  O14  1  0.51782102  0.30426089  0.78390729  1
  O  O15  1  0.48217898  0.69573911  0.78390729  1
  O  O16  1  0.19712972  0.48211499  0.29151963  1
  O  O17  1  0.19712972  0.51788501  0.70848037  1
  O  O18  1  0.80287028  0.51788501  0.29151963  1
  O  O19  1  0.80287028  0.48211499  0.70848037  1
  O  O20  1  0.27168858  0.21920657  0.48370900  1
  O  O21  1  0.72831142  0.21920657  0.51629100  1
  O  O22  1  0.27168858  0.78079343  0.51629100  1
  O  O23  1  0.72831142  0.78079343  0.48370900  1
loop_
_geom_bond_atom_site_label_1
_geom_bond_atom_site_label_2
_geom_bond_distance
_geom_bond_site_symmetry_2
Ba0 O1 2.913526 1_445
Ba0 O0 2.913526 1_555
Ba0 O2 2.913526 1_454
Ba0 O3 2.913526 1_544
Ba0 O8 3.055246 1_555
Ba0 O10 3.055246 1_544
Ba0 O9 3.055246 1_454
Ba0 O11 3.055246 1_445
Ba0 O4 3.116425 1_555
Ba0 O5 3.116425 1_544
Ba0 O7 3.116425 1_454
Ba0 O6 3.116425 1_445
Ba1 O14 2.913526 1_555
Ba1 O15 2.913526 1_555
Ba1 O12 2.913526 1_555
Ba1 O13 2.913526 1_555
Ba1 O22 3.055246 1_555
Ba1 O20 3.055246 1_555
Ba1 O23 3.055246 1_555
Ba1 O21 3.055246 1_555
Ba1 O17 3.116425 1_555
Ba1 O19 3.116425 1_555
Ba1 O16 3.116425 1_555
Ba1 O18 3.116425 1_555
Ba2 O20 2.675387 1_555
Ba2 O22 2.675387 1_545
Ba2 O21 2.675387 1_555
Ba2 O23 2.675387 1_545
Ba2 O7 2.980347 1_555
Ba2 O6 2.980347 1_545
Ba2 O4 2.980347 1_555
Ba2 O5 2.980347 1_545
Ba3 O8 2.675387 1_555
Ba3 O10 2.675387 1_554
Ba3 O9 2.675387 1_454
Ba3 O11 2.675387 1_455
Ba3 O18 2.980347 1_455
Ba3 O19 2.980347 1_454
Ba3 O16 2.980347 1_555
Ba3 O17 2.980347 1_554
Ca0 O23 2.272853 1_555
Ca0 O11 2.272853 1_556
Ca0 O19 2.323098 1_555
Ca0 O7 2.323098 1_565
Ca0 O3 2.332230 1_655
Ca0 O15 2.332230 1_555
Ca1 O20 2.272853 1_555
Ca1 O8 2.272853 1_556
Ca1 O5 2.323098 1_545
Ca1 O17 2.323098 1_555
Ca1 O14 2.332230 1_555
Ca1 O2 2.332230 1_455
Ca2 O22 2.272853 1_555
Ca2 O10 2.272853 1_554
Ca2 O16 2.323098 1_555
Ca2 O4 2.323098 1_565
Ca2 O1 2.332230 1_455
Ca2 O13 2.332230 1_555
Ca3 O21 2.272853 1_555
Ca3 O9 2.272853 1_554
Ca3 O18 2.323098 1_555
Ca3 O6 2.323098 1_545
Ca3 O0 2.332230 1_655
Ca3 O12 2.332230 1_555
Eu0 O19 2.432444 1_455
Eu0 O17 2.432444 1_555
Eu0 O18 2.432444 1_455
Eu0 O16 2.432444 1_555
Eu1 O15 2.463065 1_554
Eu1 O13 2.463065 1_555
Eu1 O14 2.463065 1_554
Eu1 O12 2.463065 1_555
Eu1 O11 2.952054 1_555
Eu1 O9 2.952054 1_554
Eu1 O10 2.952054 1_554
Eu1 O8 2.952054 1_555
Eu2 O7 2.432444 1_554
Eu2 O6 2.432444 1_545
Eu2 O4 2.432444 1_555
Eu2 O5 2.432444 1_544
Eu3 O2 2.463065 1_455
Eu3 O3 2.463065 1_545
Eu3 O0 2.463065 1_555
Eu3 O1 2.463065 1_445
Eu3 O23 2.952054 1_445
Eu3 O21 2.952054 1_455
Eu3 O20 2.952054 1_555
Eu3 O22 2.952054 1_545
O0 Sb0 2.039609 1_555
O1 Sb1 2.039609 1_555
O2 Sb2 2.039609 1_555
O3 Sb3 2.039609 1_555
O4 Sb0 2.032847 1_555
O5 Sb3 2.032847 1_555
O6 Sb1 2.032847 1_555
O7 Sb2 2.032847 1_555
O8 Sb0 2.000554 1_555
O9 Sb2 2.000554 1_555
O10 Sb3 2.000554 1_555
O11 Sb1 2.000554 1_555
O12 Sb0 2.039609 1_555
O13 Sb1 2.039609 1_555
O14 Sb2 2.039609 1_555
O15 Sb3 2.039609 1_555
O16 Sb0 2.032847 1_555
O17 Sb3 2.032847 1_555
O18 Sb1 2.032847 1_555
O19 Sb2 2.032847 1_555
O20 Sb0 2.000554 1_555
O21 Sb2 2.000554 1_555
O22 Sb3 2.000554 1_555
O23 Sb1 2.000554 1_555
