# generated using pymatgen
data_Dy4Te3N2
_symmetry_space_group_name_H-M   'P 1'
_cell_length_a   11.70571872
_cell_length_b   7.24802000
_cell_length_c   13.03054511
_cell_angle_alpha   57.79736454
_cell_angle_beta   90.00000000
_cell_angle_gamma   90.00000000
_symmetry_Int_Tables_number   1
_chemical_formula_structural   Dy4Te3N2
_chemical_formula_sum   'Dy16 Te12 N8'
_cell_volume   935.48533678
_cell_formula_units_Z   4
loop_
 _symmetry_equiv_pos_site_id
 _symmetry_equiv_pos_as_xyz
  1  'x, y, z'
loop_
 _atom_site_type_symbol
 _atom_site_label
 _atom_site_symmetry_multiplicity
 _atom_site_fract_x
 _atom_site_fract_y
 _atom_site_fract_z
 _atom_site_occupancy
  Dy  Dy0  1  0.86149412  0.22505806  0.14047521  1
  Dy  Dy1  1  0.63850588  0.22505806  0.64047521  1
  Dy  Dy2  1  0.13850588  0.77494194  0.85952479  1
  Dy  Dy3  1  0.36149412  0.77494194  0.35952479  1
  Dy  Dy4  1  0.65895047  0.93959164  0.38682081  1
  Dy  Dy5  1  0.84104953  0.93959164  0.88682081  1
  Dy  Dy6  1  0.34104953  0.06040836  0.61317919  1
  Dy  Dy7  1  0.15895047  0.06040836  0.11317919  1
  Dy  Dy8  1  0.60511950  0.86742630  0.16453282  1
  Dy  Dy9  1  0.89488050  0.86742630  0.66453282  1
  Dy  Dy10  1  0.39488050  0.13257370  0.83546718  1
  Dy  Dy11  1  0.10511950  0.13257370  0.33546718  1
  Dy  Dy12  1  0.91608444  0.70574378  0.31410384  1
  Dy  Dy13  1  0.58391556  0.70574378  0.81410384  1
  Dy  Dy14  1  0.08391556  0.29425622  0.68589616  1
  Dy  Dy15  1  0.41608444  0.29425622  0.18589616  1
  Te  Te0  1  0.48259850  0.64617801  0.60315281  1
  Te  Te1  1  0.01740150  0.64617801  0.10315281  1
  Te  Te2  1  0.51740150  0.35382199  0.39684719  1
  Te  Te3  1  0.98259850  0.35382199  0.89684719  1
  Te  Te4  1  0.65263832  0.22180779  0.89803207  1
  Te  Te5  1  0.84736168  0.22180779  0.39803207  1
  Te  Te6  1  0.34736168  0.77819221  0.10196793  1
  Te  Te7  1  0.15263832  0.77819221  0.60196793  1
  Te  Te8  1  0.83629289  0.55694953  0.57108291  1
  Te  Te9  1  0.66370711  0.55694953  0.07108291  1
  Te  Te10  1  0.16370711  0.44305047  0.42891709  1
  Te  Te11  1  0.33629289  0.44305047  0.92891709  1
  N  N0  1  0.51208929  0.98175344  0.26876316  1
  N  N1  1  0.98791071  0.98175344  0.76876316  1
  N  N2  1  0.48791071  0.01824656  0.73123684  1
  N  N3  1  0.01208929  0.01824656  0.23123684  1
  N  N4  1  0.76084703  0.91533165  0.24534163  1
  N  N5  1  0.73915297  0.91533165  0.74534163  1
  N  N6  1  0.23915297  0.08466835  0.75465837  1
  N  N7  1  0.26084703  0.08466835  0.25465837  1
loop_
_geom_bond_atom_site_label_1
_geom_bond_atom_site_label_2
_geom_bond_distance
_geom_bond_site_symmetry_2
Dy0 N3 2.205377 1_655
Dy0 N4 2.241724 1_545
Dy0 Te9 3.105850 1_555
Dy0 Te3 3.130642 1_554
Dy0 Te5 3.347701 1_555
Dy0 Te1 3.361767 1_655
Dy1 N2 2.205377 1_555
Dy1 N5 2.241724 1_545
Dy1 Te8 3.105850 1_555
Dy1 Te2 3.130642 1_555
Dy1 Te4 3.347701 1_555
Dy1 Te0 3.361767 1_555
Dy2 N1 2.205377 1_455
Dy2 N6 2.241724 1_565
Dy2 Te11 3.105850 1_555
Dy2 Te1 3.130642 1_556
Dy2 Te7 3.347701 1_555
Dy2 Te3 3.361767 1_455
Dy3 N0 2.205377 1_555
Dy3 N7 2.241724 1_565
Dy3 Te10 3.105850 1_555
Dy3 Te0 3.130642 1_555
Dy3 Te6 3.347701 1_555
Dy3 Te2 3.361767 1_555
Dy4 N0 2.216806 1_555
Dy4 N4 2.279870 1_555
Dy4 Te5 3.064005 1_565
Dy4 Te0 3.215732 1_555
Dy4 Te8 3.266307 1_555
Dy4 Te2 3.492088 1_565
Dy5 N1 2.216806 1_555
Dy5 N5 2.279870 1_555
Dy5 Te4 3.064005 1_565
Dy5 Te1 3.215732 1_656
Dy5 Te9 3.266307 1_556
Dy5 Te3 3.492088 1_565
Dy6 N2 2.216806 1_555
Dy6 N6 2.279870 1_555
Dy6 Te7 3.064005 1_545
Dy6 Te2 3.215732 1_555
Dy6 Te10 3.266307 1_555
Dy6 Te0 3.492088 1_545
Dy7 N3 2.216806 1_555
Dy7 N7 2.279870 1_555
Dy7 Te6 3.064005 1_545
Dy7 Te3 3.215732 1_454
Dy7 Te11 3.266307 1_554
Dy7 Te1 3.492088 1_545
Dy8 N0 2.217369 1_555
Dy8 N4 2.223059 1_555
Dy8 Te4 3.075599 1_564
Dy8 Te9 3.152430 1_555
Dy8 Te6 3.278519 1_555
Dy8 Te2 3.473491 1_555
Dy9 N1 2.217369 1_555
Dy9 N5 2.223059 1_555
Dy9 Te5 3.075599 1_565
Dy9 Te8 3.152430 1_555
Dy9 Te7 3.278519 1_655
Dy9 Te3 3.473491 1_555
Dy10 N2 2.217369 1_555
Dy10 N6 2.223059 1_555
Dy10 Te6 3.075599 1_546
Dy10 Te11 3.152430 1_555
Dy10 Te4 3.278519 1_555
Dy10 Te0 3.473491 1_555
Dy11 N3 2.217369 1_555
Dy11 N7 2.223059 1_555
Dy11 Te7 3.075599 1_545
Dy11 Te10 3.152430 1_555
Dy11 Te5 3.278519 1_455
Dy11 Te1 3.473491 1_555
Dy12 N3 2.225414 1_665
Dy12 N4 2.227521 1_555
Dy12 Te8 3.065842 1_555
Dy12 Te5 3.171395 1_555
Dy12 Te1 3.227039 1_655
Dy12 Te10 3.351017 1_655
Dy13 N2 2.225414 1_565
Dy13 N5 2.227521 1_555
Dy13 Te9 3.065842 1_556
Dy13 Te4 3.171395 1_555
Dy13 Te0 3.227039 1_555
Dy13 Te11 3.351017 1_555
Dy14 N1 2.225414 1_445
Dy14 N6 2.227521 1_555
Dy14 Te10 3.065842 1_555
Dy14 Te7 3.171395 1_555
Dy14 Te3 3.227039 1_455
Dy14 Te8 3.351017 1_455
Dy15 N0 2.225414 1_545
Dy15 N7 2.227521 1_555
Dy15 Te11 3.065842 1_554
Dy15 Te6 3.171395 1_555
Dy15 Te2 3.227039 1_555
Dy15 Te9 3.351017 1_555
