# generated using pymatgen
data_GdAl4Ni
_symmetry_space_group_name_H-M   'P 1'
_cell_length_a   7.99152958
_cell_length_b   7.99152958
_cell_length_c   6.55765373
_cell_angle_alpha   89.99989789
_cell_angle_beta   90.00010211
_cell_angle_gamma   150.54192883
_symmetry_Int_Tables_number   1
_chemical_formula_structural   GdAl4Ni
_chemical_formula_sum   'Gd2 Al8 Ni2'
_cell_volume   205.96096166
_cell_formula_units_Z   2
loop_
 _symmetry_equiv_pos_site_id
 _symmetry_equiv_pos_as_xyz
  1  'x, y, z'
loop_
 _atom_site_type_symbol
 _atom_site_label
 _atom_site_symmetry_multiplicity
 _atom_site_fract_x
 _atom_site_fract_y
 _atom_site_fract_z
 _atom_site_occupancy
  Gd  Gd0  1  0.88360938  0.11639062  0.75000000  1
  Gd  Gd1  1  0.11639062  0.88360938  0.25000000  1
  Al  Al0  1  0.50000000  0.50000000  0.00000000  1
  Al  Al1  1  0.50000000  0.50000000  0.50000000  1
  Al  Al2  1  0.07764693  0.92235307  0.75000000  1
  Al  Al3  1  0.92235307  0.07764693  0.25000000  1
  Al  Al4  1  0.69013672  0.30986328  0.94700530  1
  Al  Al5  1  0.30986328  0.69013672  0.05299470  1
  Al  Al6  1  0.69013572  0.30986428  0.55299470  1
  Al  Al7  1  0.30986428  0.69013572  0.44700530  1
  Ni  Ni0  1  0.22592847  0.77407153  0.75000100  1
  Ni  Ni1  1  0.77407153  0.22592847  0.24999900  1
loop_
_geom_bond_atom_site_label_1
_geom_bond_atom_site_label_2
_geom_bond_distance
_geom_bond_site_symmetry_2
Gd0 Ni0 3.173214 1_655
Gd0 Ni0 3.173214 1_545
Gd1 Ni1 3.173214 1_455
Gd1 Ni1 3.173214 1_565
Al0 Al2 2.873435 1_654
Al0 Al2 2.873435 1_544
Al0 Al3 2.873435 1_455
Al0 Al3 2.873435 1_565
Al0 Al4 2.959578 1_554
Al0 Al5 2.959578 1_555
Al0 Gd0 3.170636 1_454
Al0 Gd1 3.170636 1_655
Al0 Gd0 3.170636 1_564
Al0 Gd1 3.170636 1_545
Al1 Al3 2.873433 1_565
Al1 Al2 2.873433 1_655
Al1 Al2 2.873433 1_545
Al1 Al3 2.873433 1_455
Al1 Al6 2.959561 1_555
Al1 Al7 2.959561 1_555
Al1 Gd1 3.170640 1_545
Al1 Gd1 3.170640 1_655
Al1 Gd0 3.170640 1_565
Al1 Gd0 3.170640 1_455
Al2 Ni0 2.292112 1_555
Al2 Gd0 2.999401 1_465
Al2 Gd1 3.333072 1_556
Al2 Gd1 3.333075 1_555
Al3 Ni1 2.292112 1_555
Al3 Gd1 2.999401 1_645
Al3 Gd0 3.333072 1_554
Al3 Gd0 3.333075 1_555
Al4 Ni1 2.373026 1_556
Al4 Ni0 2.470508 1_655
Al4 Ni0 2.470508 1_545
Al4 Gd1 3.061985 1_656
Al4 Gd1 3.061985 1_546
Al4 Gd0 3.257776 1_555
Al5 Ni0 2.373026 1_554
Al5 Ni1 2.470508 1_565
Al5 Ni1 2.470508 1_455
Al5 Gd0 3.061985 1_564
Al5 Gd0 3.061985 1_454
Al5 Gd1 3.257776 1_555
Al6 Ni1 2.373049 1_555
Al6 Ni0 2.470517 1_655
Al6 Ni0 2.470517 1_545
Al6 Gd1 3.061977 1_545
Al6 Gd1 3.061977 1_655
Al6 Gd0 3.257786 1_555
Al7 Ni0 2.373049 1_555
Al7 Ni1 2.470517 1_565
Al7 Ni1 2.470517 1_455
Al7 Gd0 3.061977 1_455
Al7 Gd0 3.061977 1_565
Al7 Gd1 3.257786 1_555
