# generated using pymatgen
data_Li9Mn7O16
_symmetry_space_group_name_H-M   'P 1'
_cell_length_a   3.01358900
_cell_length_b   7.85811294
_cell_length_c   12.64680322
_cell_angle_alpha   88.63876364
_cell_angle_beta   89.73766759
_cell_angle_gamma   84.00828059
_symmetry_Int_Tables_number   1
_chemical_formula_structural   Li9Mn7O16
_chemical_formula_sum   'Li9 Mn7 O16'
_cell_volume   297.76965897
_cell_formula_units_Z   1
loop_
 _symmetry_equiv_pos_site_id
 _symmetry_equiv_pos_as_xyz
  1  'x, y, z'
loop_
 _atom_site_type_symbol
 _atom_site_label
 _atom_site_symmetry_multiplicity
 _atom_site_fract_x
 _atom_site_fract_y
 _atom_site_fract_z
 _atom_site_occupancy
  Li  Li0  1  0.07465100  0.37095900  0.67771100  1
  Li  Li1  1  0.81323500  0.87491600  0.93769000  1
  Li  Li2  1  0.56691500  0.37281700  0.18860700  1
  Li  Li3  1  0.65675100  0.14383200  0.55919400  1
  Li  Li4  1  0.43308500  0.62718300  0.81139300  1
  Li  Li5  1  0.18676500  0.12508400  0.06231000  1
  Li  Li6  1  0.34324900  0.85616800  0.44080600  1
  Li  Li7  1  0.92534900  0.62904100  0.32228900  1
  Li  Li8  1  0.50000000  0.50000000  0.50000000  1
  Mn  Mn0  1  0.88489400  0.74169200  0.61992300  1
  Mn  Mn1  1  0.11510600  0.25830800  0.38007700  1
  Mn  Mn2  1  0.62574400  0.25051500  0.87366300  1
  Mn  Mn3  1  0.37425600  0.74948500  0.12633700  1
  Mn  Mn4  1  0.26172000  0.99622100  0.74938600  1
  Mn  Mn5  1  0.00000000  0.50000000  0.00000000  1
  Mn  Mn6  1  0.73828000  0.00377900  0.25061400  1
  O  O0  1  0.42863800  0.58828200  0.65113100  1
  O  O1  1  0.24956700  0.06442800  0.89806000  1
  O  O2  1  0.00193000  0.56421300  0.14998900  1
  O  O3  1  0.10661500  0.30162200  0.52171100  1
  O  O4  1  0.87698300  0.81574700  0.77200300  1
  O  O5  1  0.62527100  0.31373900  0.02349800  1
  O  O6  1  0.67279000  0.08655200  0.39751100  1
  O  O7  1  0.36904500  0.81568800  0.27637200  1
  O  O8  1  0.63095500  0.18431200  0.72362800  1
  O  O9  1  0.37472900  0.68626100  0.97650200  1
  O  O10  1  0.12301700  0.18425300  0.22799700  1
  O  O11  1  0.32721000  0.91344800  0.60248900  1
  O  O12  1  0.99807000  0.43578700  0.85001100  1
  O  O13  1  0.75043300  0.93557200  0.10194000  1
  O  O14  1  0.89338500  0.69837800  0.47828900  1
  O  O15  1  0.57136200  0.41171800  0.34886900  1
loop_
_geom_bond_atom_site_label_1
_geom_bond_atom_site_label_2
_geom_bond_distance
_geom_bond_site_symmetry_2
Li0 O3 2.058364 1_555
Li0 O0 2.125365 1_555
Li0 O8 2.153634 1_455
Li0 O8 2.180384 1_555
Li0 O12 2.254906 1_455
Li0 O0 2.470654 1_455
Li1 O9 2.133878 1_555
Li1 O1 2.136650 1_665
Li1 O13 2.145351 1_556
Li1 O4 2.160508 1_555
Li1 O9 2.179732 1_655
Li1 O1 2.190572 1_565
Li2 O15 2.057205 1_555
Li2 O2 2.142441 1_655
Li2 O10 2.146142 1_555
Li2 O5 2.152269 1_555
Li2 O10 2.169432 1_655
Li2 O2 2.199463 1_555
Li3 O3 1.979194 1_655
Li3 O3 2.015151 1_555
Li3 O6 2.103406 1_555
Li3 O8 2.111067 1_555
Li3 O11 2.210613 1_545
Li4 O0 2.057205 1_555
Li4 O12 2.142441 1_455
Li4 O4 2.146142 1_555
Li4 O9 2.152269 1_555
Li4 O4 2.169432 1_455
Li4 O12 2.199463 1_555
Li5 O5 2.133878 1_555
Li5 O13 2.136650 1_445
Li5 O1 2.145351 1_554
Li5 O10 2.160508 1_555
Li5 O5 2.179732 1_455
Li5 O13 2.190572 1_545
Li6 O14 1.979194 1_455
Li6 O14 2.015151 1_555
Li6 O11 2.103406 1_555
Li6 O7 2.111067 1_555
Li6 O6 2.210613 1_565
Li7 O14 2.058364 1_555
Li7 O15 2.125365 1_555
Li7 O7 2.153634 1_655
Li7 O7 2.180384 1_555
Li7 O2 2.254906 1_655
Li7 O15 2.470654 1_655
Li8 O15 2.051526 1_555
Li8 O0 2.051526 1_555
Li8 O14 2.067220 1_555
Li8 O3 2.067220 1_555
Li8 O14 2.288386 1_455
Li8 O3 2.288386 1_655
Mn0 O14 1.830763 1_555
Mn0 O0 1.953981 1_555
Mn0 O0 1.965968 1_655
Mn0 O11 2.001445 1_655
Mn0 O4 2.021944 1_555
Mn0 O11 2.051941 1_555
Mn1 O3 1.830763 1_555
Mn1 O15 1.953981 1_555
Mn1 O15 1.965968 1_455
Mn1 O6 2.001445 1_455
Mn1 O10 2.021944 1_555
Mn1 O6 2.051941 1_555
Mn2 O12 1.945592 1_555
Mn2 O1 1.959614 1_555
Mn2 O5 1.970321 1_556
Mn2 O8 1.978933 1_555
Mn2 O1 2.275447 1_655
Mn2 O12 2.279608 1_455
Mn3 O2 1.945592 1_555
Mn3 O13 1.959614 1_555
Mn3 O9 1.970321 1_554
Mn3 O7 1.978933 1_555
Mn3 O13 2.275447 1_455
Mn3 O2 2.279608 1_655
Mn4 O4 1.938642 1_455
Mn4 O8 1.961130 1_565
Mn4 O1 1.966497 1_565
Mn4 O11 1.985098 1_555
Mn4 O4 2.228801 1_555
Mn4 O8 2.302229 1_465
Mn5 O5 1.956327 1_455
Mn5 O9 1.956327 1_554
Mn5 O2 1.974588 1_555
Mn5 O12 1.974588 1_454
Mn5 O5 2.278138 1_555
Mn5 O9 2.278138 1_454
Mn6 O10 1.938642 1_655
Mn6 O7 1.961130 1_545
Mn6 O13 1.966497 1_545
Mn6 O6 1.985098 1_555
Mn6 O10 2.228801 1_555
Mn6 O7 2.302229 1_645
