# generated using pymatgen
data_KFe(MoO4)2
_symmetry_space_group_name_H-M   'P 1'
_cell_length_a   5.67769258
_cell_length_b   9.02902091
_cell_length_c   9.03102567
_cell_angle_alpha   77.89570074
_cell_angle_beta   108.30461785
_cell_angle_gamma   71.66860069
_symmetry_Int_Tables_number   1
_chemical_formula_structural   KFe(MoO4)2
_chemical_formula_sum   'K2 Fe2 Mo4 O16'
_cell_volume   392.03331788
_cell_formula_units_Z   2
loop_
 _symmetry_equiv_pos_site_id
 _symmetry_equiv_pos_as_xyz
  1  'x, y, z'
loop_
 _atom_site_type_symbol
 _atom_site_label
 _atom_site_symmetry_multiplicity
 _atom_site_fract_x
 _atom_site_fract_y
 _atom_site_fract_z
 _atom_site_occupancy
  K  K0  1  0.00031146  0.99997918  -0.00001362  1
  K  K1  1  0.99977219  0.50000898  0.49999759  1
  Fe  Fe0  1  0.00000355  0.75000488  0.75000486  1
  Fe  Fe1  1  0.99998790  0.24999328  0.24999469  1
  Mo  Mo0  1  0.66670154  0.20735751  0.54103805  1
  Mo  Mo1  1  0.33327250  0.29264869  0.95895481  1
  Mo  Mo2  1  0.66676398  0.70737194  0.04102381  1
  Mo  Mo3  1  0.33324889  0.79262529  0.45898692  1
  O  O0  1  0.66612748  0.83028051  0.16316529  1
  O  O1  1  0.66618971  0.33028182  0.66315654  1
  O  O2  1  0.33374311  0.16973969  0.83681810  1
  O  O3  1  0.33388683  0.66970168  0.33686439  1
  O  O4  1  0.83874408  0.75314813  0.91554357  1
  O  O5  1  0.83856509  0.25311885  0.41547106  1
  O  O6  1  0.32372986  0.75317155  0.91527922  1
  O  O7  1  0.32363669  0.25312886  0.41537279  1
  O  O8  1  0.16138685  0.50399174  0.82654826  1
  O  O9  1  0.16141634  0.00397358  0.32655722  1
  O  O10  1  0.16141466  0.24687360  0.08451854  1
  O  O11  1  0.16127169  0.74686577  0.58447618  1
  O  O12  1  0.83858647  0.49601738  0.17342896  1
  O  O13  1  0.83860981  0.99601983  0.67346525  1
  O  O14  1  0.67634825  0.24685716  0.08461664  1
  O  O15  1  0.67627908  0.74683909  0.58473290  1
loop_
_geom_bond_atom_site_label_1
_geom_bond_atom_site_label_2
_geom_bond_distance
_geom_bond_site_symmetry_2
K0 O13 2.811409 1_454
K0 O9 2.811939 1_565
K0 O6 2.818925 1_554
K0 O10 2.818966 1_565
K0 O4 2.819440 1_454
K0 O14 2.820398 1_465
K0 O0 3.274190 1_555
K0 O2 3.276436 1_564
K0 O2 3.277897 1_464
K0 O0 3.279878 1_455
K0 O1 3.279949 1_464
K0 O3 3.280068 1_555
K1 O8 2.811732 1_655
K1 O12 2.811912 1_555
K1 O5 2.819200 1_555
K1 O15 2.819426 1_555
K1 O11 2.819580 1_655
K1 O7 2.820105 1_655
K1 O3 3.274535 1_555
K1 O1 3.276966 1_555
K1 O1 3.277153 1_655
K1 O3 3.279287 1_655
K1 O2 3.279741 1_655
K1 O0 3.279810 1_555
Fe0 O8 1.982256 1_555
Fe0 O13 1.982272 1_455
Fe0 O15 1.983583 1_455
Fe0 O6 1.983604 1_555
Fe0 O11 1.983712 1_555
Fe0 O4 1.983760 1_455
Fe1 O9 1.982304 1_655
Fe1 O12 1.982339 1_555
Fe1 O14 1.983569 1_555
Fe1 O7 1.983603 1_655
Fe1 O5 1.983892 1_555
Fe1 O10 1.983904 1_655
Mo0 O1 1.720893 1_555
Mo0 O5 1.777921 1_555
Mo0 O7 1.777968 1_555
Mo0 O13 1.778273 1_545
Mo1 O2 1.720913 1_555
Mo1 O10 1.777906 1_556
Mo1 O14 1.777967 1_556
Mo1 O8 1.778259 1_555
Mo2 O0 1.720944 1_555
Mo2 O4 1.777905 1_554
Mo2 O6 1.777938 1_554
Mo2 O12 1.778334 1_555
Mo3 O3 1.720917 1_555
Mo3 O11 1.777913 1_555
Mo3 O15 1.777953 1_555
Mo3 O9 1.778352 1_565
