# generated using pymatgen
data_K4Re6Se8O11
_symmetry_space_group_name_H-M   'P 1'
_cell_length_a   8.33141300
_cell_length_b   8.89009498
_cell_length_c   9.61148520
_cell_angle_alpha   90.16653711
_cell_angle_beta   106.26082656
_cell_angle_gamma   110.33904384
_symmetry_Int_Tables_number   1
_chemical_formula_structural   K4Re6Se8O11
_chemical_formula_sum   'K4 Re6 Se8 O11'
_cell_volume   636.82196780
_cell_formula_units_Z   1
loop_
 _symmetry_equiv_pos_site_id
 _symmetry_equiv_pos_as_xyz
  1  'x, y, z'
loop_
 _atom_site_type_symbol
 _atom_site_label
 _atom_site_symmetry_multiplicity
 _atom_site_fract_x
 _atom_site_fract_y
 _atom_site_fract_z
 _atom_site_occupancy
  K  K0  1  0.72797500  0.34110000  0.35374900  1
  K  K1  1  0.25341500  0.62375200  0.65699700  1
  K  K2  1  0.54223400  0.82540200  0.37880900  1
  K  K3  1  0.43633000  0.17011500  0.62605300  1
  Re  Re0  1  0.17627600  0.27376400  0.02581200  1
  Re  Re1  1  0.86203300  0.78508100  0.00576200  1
  Re  Re2  1  0.20750700  0.01518200  0.16628100  1
  Re  Re3  1  0.79014800  0.01007200  0.85558600  1
  Re  Re4  1  0.08614800  0.95433000  0.85585900  1
  Re  Re5  1  0.91240100  0.06967800  0.17802500  1
  Se  Se0  1  0.39827000  0.13074900  0.00018100  1
  Se  Se1  1  0.59496200  0.88086700  0.01851100  1
  Se  Se2  1  0.86299700  0.27220500  0.00227600  1
  Se  Se3  1  0.15333000  0.74966200  0.02591800  1
  Se  Se4  1  0.02140000  0.19219600  0.74716100  1
  Se  Se5  1  0.98601400  0.82111900  0.27632400  1
  Se  Se6  1  0.19675800  0.31510600  0.29239900  1
  Se  Se7  1  0.67829500  0.55749800  0.61176500  1
  O  O0  1  0.75383400  0.39797800  0.63263500  1
  O  O1  1  0.17712700  0.63616400  0.35173900  1
  O  O2  1  0.34893200  0.45364200  0.02207000  1
  O  O3  1  0.70986000  0.58867600  0.93460200  1
  O  O4  1  0.67450700  0.59950200  0.43601500  1
  O  O5  1  0.45151600  0.46901200  0.59809100  1
  O  O6  1  0.39502900  0.07987400  0.33513800  1
  O  O7  1  0.60563900  0.91556400  0.69739200  1
  O  O8  1  0.08487700  0.84607900  0.69941700  1
  O  O9  1  0.83037600  0.07015600  0.33340000  1
  O  O10  1  0.08280900  0.47347500  0.34103500  1
loop_
_geom_bond_atom_site_label_1
_geom_bond_atom_site_label_2
_geom_bond_distance
_geom_bond_site_symmetry_2
K0 O4 2.645546 1_555
K0 O0 2.660866 1_555
K0 O10 2.814976 1_655
K0 O9 2.843811 1_555
K0 O6 2.891604 1_555
K0 Se0 3.708850 1_555
K1 O5 2.652186 1_555
K1 O1 2.833851 1_555
K1 O8 2.879181 1_555
K1 O10 3.044129 1_555
K1 O7 3.091319 1_555
K2 O4 2.599132 1_555
K2 O9 2.765712 1_565
K2 O1 2.854420 1_555
K2 O6 2.905882 1_565
K2 O7 3.013843 1_555
K2 Se1 3.624884 1_555
K3 O5 2.634114 1_555
K3 O0 2.699163 1_555
K3 O6 2.799388 1_555
K3 O7 3.044233 1_545
K3 Se0 3.704381 1_556
Re0 Se6 2.536854 1_555
Re0 Se2 2.551067 1_455
Re0 Se4 2.601299 1_554
Re0 Se0 2.643090 1_555
Re1 Se5 2.488578 1_555
Re1 Se3 2.508959 1_655
Re1 Se1 2.675883 1_555
Re2 Se5 2.528036 1_445
Re2 Se0 2.534878 1_555
Re2 Se3 2.548639 1_545
Re3 Se2 2.511052 1_556
Re3 Se4 2.526907 1_655
Re3 Se1 2.560102 1_546
Re4 Se0 2.505655 1_566
Re4 Se4 2.518820 1_565
Re4 Se3 2.551173 1_556
Re5 Se2 2.531415 1_555
Re5 Se6 2.552637 1_655
Re5 Se5 2.604098 1_545
Re5 Se1 2.605945 1_545
O0 Se7 1.731716 1_555
O1 O10 1.372487 1_555
O1 Se5 2.635298 1_455
O2 Re0 1.748704 1_555
O3 Re1 1.758545 1_556
O4 Se7 1.725080 1_555
O5 Se7 1.741559 1_555
O6 Re2 1.831834 1_555
O7 Re3 1.779502 1_565
O8 Re4 1.778418 1_555
O9 Re5 1.808520 1_555
O10 Se6 2.067819 1_555
