# generated using pymatgen
data_Li2TiFe2O5
_symmetry_space_group_name_H-M   'P 1'
_cell_length_a   5.13897768
_cell_length_b   5.13634756
_cell_length_c   7.98175451
_cell_angle_alpha   84.25300943
_cell_angle_beta   71.21931334
_cell_angle_gamma   71.87321284
_symmetry_Int_Tables_number   1
_chemical_formula_structural   Li2TiFe2O5
_chemical_formula_sum   'Li4 Ti2 Fe4 O10'
_cell_volume   189.56637330
_cell_formula_units_Z   2
loop_
 _symmetry_equiv_pos_site_id
 _symmetry_equiv_pos_as_xyz
  1  'x, y, z'
loop_
 _atom_site_type_symbol
 _atom_site_label
 _atom_site_symmetry_multiplicity
 _atom_site_fract_x
 _atom_site_fract_y
 _atom_site_fract_z
 _atom_site_occupancy
  Li  Li0  1  0.19932400  0.00017100  0.60152500  1
  Li  Li1  1  0.00641400  0.99850200  0.99463400  1
  Li  Li2  1  0.70088800  0.50019100  0.59842400  1
  Li  Li3  1  0.90102800  0.49854700  0.20540900  1
  Ti  Ti0  1  0.09158900  0.50058500  0.80705100  1
  Ti  Ti1  1  0.79858100  0.00060600  0.39298400  1
  Fe  Fe0  1  0.60282200  0.00345100  0.79368000  1
  Fe  Fe1  1  0.40622000  0.99619600  0.19246600  1
  Fe  Fe2  1  0.29651300  0.50349600  0.40632200  1
  Fe  Fe3  1  0.49870100  0.49615500  0.00754200  1
  O  O0  1  0.04560100  0.22817900  0.39422300  1
  O  O1  1  0.33986100  0.72814900  0.80577500  1
  O  O2  1  0.45231800  0.24935500  0.59817600  1
  O  O3  1  0.11999000  0.76440700  0.21557500  1
  O  O4  1  0.23563200  0.26439400  0.98441200  1
  O  O5  1  0.86529600  0.26504500  0.79862900  1
  O  O6  1  0.65697400  0.24412200  0.21092000  1
  O  O7  1  0.56392400  0.76501800  0.40134600  1
  O  O8  1  0.95045300  0.74934600  0.60180700  1
  O  O9  1  0.76787200  0.74408500  0.98909300  1
loop_
_geom_bond_atom_site_label_1
_geom_bond_atom_site_label_2
_geom_bond_distance
_geom_bond_site_symmetry_2
Li0 O8 2.078054 1_445
Li0 O2 2.082159 1_555
Li0 O5 2.123489 1_455
Li0 O7 2.138475 1_545
Li0 O0 2.147396 1_555
Li0 O1 2.192169 1_545
Li1 O4 2.043578 1_565
Li1 O9 2.062916 1_455
Li1 O1 2.100551 1_555
Li1 O5 2.128750 1_465
Li1 O3 2.167428 1_556
Li1 O6 2.197038 1_466
Li2 O2 2.077950 1_555
Li2 O8 2.081779 1_555
Li2 O7 2.123378 1_555
Li2 O5 2.138691 1_555
Li2 O1 2.147433 1_555
Li2 O0 2.191700 1_655
Li3 O3 2.043178 1_655
Li3 O6 2.062887 1_555
Li3 O0 2.100370 1_655
Li3 O7 2.128162 1_555
Li3 O4 2.167890 1_654
Li3 O9 2.197164 1_554
Fe0 O2 2.098354 1_555
Fe0 O8 2.104326 1_545
Fe0 O9 2.158598 1_545
Fe0 O4 2.158687 1_555
Fe0 O5 2.190657 1_555
Fe0 O1 2.216457 1_545
Fe1 O6 2.117718 1_565
Fe1 O3 2.118033 1_555
Fe1 O0 2.129820 1_565
Fe1 O7 2.172821 1_555
Fe1 O9 2.178730 1_554
Fe1 O4 2.269731 1_564
Fe2 O8 2.098184 1_455
Fe2 O2 2.104476 1_555
Fe2 O6 2.158476 1_555
Fe2 O3 2.158953 1_555
Fe2 O7 2.190256 1_555
Fe2 O0 2.216718 1_555
Fe3 O9 2.117586 1_554
Fe3 O4 2.117758 1_554
Fe3 O1 2.129945 1_554
Fe3 O5 2.172775 1_554
Fe3 O6 2.178678 1_555
Fe3 O3 2.269818 1_555
O0 Ti1 1.977767 1_455
O1 Ti0 1.977708 1_555
O2 Ti1 2.146870 1_555
O2 Ti0 2.198526 1_555
O3 Ti1 1.948421 1_465
O4 Ti0 1.948276 1_555
O5 Ti0 1.939743 1_655
O6 Ti1 1.989050 1_555
O7 Ti1 1.939813 1_565
O8 Ti0 2.147455 1_655
O8 Ti1 2.198381 1_565
O9 Ti0 1.988934 1_655
