# generated using pymatgen
data_Ti2CoNi
_symmetry_space_group_name_H-M   'P 1'
_cell_length_a   7.71687472
_cell_length_b   7.71687472
_cell_length_c   7.71687472
_cell_angle_alpha   120.01471746
_cell_angle_beta   119.89883196
_cell_angle_gamma   90.07491397
_symmetry_Int_Tables_number   1
_chemical_formula_structural   Ti2CoNi
_chemical_formula_sum   'Ti12 Co6 Ni6'
_cell_volume   325.15620635
_cell_formula_units_Z   6
loop_
 _symmetry_equiv_pos_site_id
 _symmetry_equiv_pos_as_xyz
  1  'x, y, z'
loop_
 _atom_site_type_symbol
 _atom_site_label
 _atom_site_symmetry_multiplicity
 _atom_site_fract_x
 _atom_site_fract_y
 _atom_site_fract_z
 _atom_site_occupancy
  Ti  Ti0  1  0.07342200  0.07342200  0.00000000  1
  Ti  Ti1  1  0.67521100  0.67521100  0.00000000  1
  Ti  Ti2  1  0.67568100  0.07432100  0.99953800  1
  Ti  Ti3  1  0.07478200  0.67614300  0.00046200  1
  Ti  Ti4  1  0.07478200  0.07432100  0.39864000  1
  Ti  Ti5  1  0.67568100  0.67614300  0.60136000  1
  Ti  Ti6  1  0.42755300  0.92755300  0.50000000  1
  Ti  Ti7  1  0.82093900  0.32093900  0.50000000  1
  Ti  Ti8  1  0.82477600  0.93130500  0.50307400  1
  Ti  Ti9  1  0.42823100  0.32170200  0.49692600  1
  Ti  Ti10  1  0.42823100  0.93130500  0.10652800  1
  Ti  Ti11  1  0.82477600  0.32170200  0.89347200  1
  Co  Co0  1  0.24728800  0.49895400  0.74833500  1
  Co  Co1  1  0.75061900  0.49895400  0.25166500  1
  Co  Co2  1  0.24922400  0.49803200  0.24880700  1
  Co  Co3  1  0.24922400  0.00041700  0.75119300  1
  Co  Co4  1  0.46162300  0.28880800  0.17281600  1
  Co  Co5  1  0.11599200  0.28880800  0.82718400  1
  Ni  Ni0  1  0.46073900  0.29006400  0.82932600  1
  Ni  Ni1  1  0.46073900  0.63141300  0.17067400  1
  Ni  Ni2  1  0.03799300  0.71175900  0.32623400  1
  Ni  Ni3  1  0.38552500  0.71175900  0.67376600  1
  Ni  Ni4  1  0.03848400  0.71052600  0.67204300  1
  Ni  Ni5  1  0.03848400  0.36644100  0.32795700  1
loop_
_geom_bond_atom_site_label_1
_geom_bond_atom_site_label_2
_geom_bond_distance
_geom_bond_site_symmetry_2
Ti0 Ti11 2.835689 1_454
Ti0 Ti10 2.835691 1_545
Ti0 Ti9 2.835691 1_555
Ti0 Ti8 2.835691 1_444
Ti1 Ti10 2.856634 1_555
Ti1 Ti11 2.856636 1_554
Ti1 Ti9 2.856636 1_554
Ti1 Ti8 2.856636 1_555
Ti4 Ti8 2.832641 1_445
Ti4 Ti9 2.852086 1_555
Ti5 Ti9 2.832648 1_555
Ti5 Ti8 2.852079 1_555
Ti6 Ti9 3.053552 1_565
Ti6 Ti8 3.053552 1_555
Ti7 Ti8 3.018761 1_545
Ti7 Ti9 3.018761 1_555
Ti10 Ti2 2.832641 1_564
Ti10 Ti3 2.852090 1_555
Ti10 Ti9 3.011978 1_565
Ti10 Ti7 3.018761 1_565
Ti10 Ti6 3.053559 1_555
Ti10 Ti8 3.064770 1_555
Ti11 Ti3 2.832648 1_656
Ti11 Ti2 2.852073 1_555
Ti11 Ti8 3.011978 1_545
Ti11 Ti7 3.018768 1_555
Ti11 Ti6 3.053552 1_545
Ti11 Ti9 3.064770 1_555
Co0 Co5 2.371518 1_555
Co0 Ni4 2.373048 1_555
Co0 Ni5 2.373058 1_555
Co0 Ni1 2.385534 1_556
Co0 Ni0 2.385545 1_555
Co0 Ni3 2.391377 1_555
Co0 Ti3 2.711562 1_556
Co0 Ti4 2.711562 1_555
Co0 Ti7 2.730009 1_455
Co0 Ti1 2.734666 1_556
Co0 Ti10 2.763215 1_556
Co0 Ti9 2.763222 1_555
Co1 Co4 2.371529 1_555
Co1 Ni4 2.373058 1_655
Co1 Ni5 2.373058 1_655
Co1 Ni0 2.385534 1_554
Co1 Ni1 2.385534 1_555
Co1 Ni2 2.391373 1_655
Co1 Ti2 2.711562 1_554
Co1 Ti5 2.711562 1_555
Co1 Ti7 2.730016 1_555
Co1 Ti1 2.734659 1_555
Co1 Ti11 2.763209 1_554
Co1 Ti8 2.763216 1_555
Co2 Co4 2.378046 1_555
Co2 Co5 2.378048 1_554
Co2 Ni5 2.378110 1_555
Co2 Ni1 2.384276 1_555
Co2 Ni2 2.392979 1_555
Co2 Ni3 2.392983 1_555
Co2 Ti0 2.713114 1_555
Co2 Ti11 2.720368 1_454
Co2 Ti9 2.720376 1_555
Co2 Ti3 2.728037 1_555
Co2 Ti5 2.728043 1_555
Co2 Ti6 2.745609 1_555
Co3 Co4 2.378048 1_556
Co3 Co5 2.378048 1_555
Co3 Ni4 2.378112 1_545
Co3 Ni0 2.384274 1_555
Co3 Ni2 2.392983 1_545
Co3 Ni3 2.392983 1_545
Co3 Ti0 2.713107 1_556
Co3 Ti10 2.720363 1_546
Co3 Ti8 2.720370 1_445
Co3 Ti4 2.728043 1_555
Co3 Ti2 2.728043 1_555
Co3 Ti6 2.745615 1_545
Co4 Ti9 2.528625 1_555
Co4 Ti10 2.528627 1_545
Co4 Ti7 2.552868 1_555
Co4 Ni0 2.652143 1_554
Co4 Ni1 2.652143 1_555
Co4 Co5 2.671272 1_554
Co4 Ti5 2.692801 1_555
Co4 Ti2 2.692807 1_554
Co4 Ti0 2.702197 1_555
Co5 Ti8 2.528630 1_445
Co5 Ti11 2.528634 1_455
Co5 Ti7 2.552863 1_455
Co5 Ni1 2.652143 1_556
Co5 Ni0 2.652143 1_555
Co5 Ti4 2.692797 1_555
Co5 Ti3 2.692804 1_556
Co5 Ti0 2.702203 1_556
Ni0 Ti6 2.566446 1_545
Ni0 Ti11 2.585995 1_555
Ni0 Ti9 2.586002 1_555
Ni0 Ni1 2.633558 1_556
Ni0 Ti1 2.684246 1_556
Ni0 Ti2 2.696527 1_555
Ni0 Ti4 2.696538 1_555
Ni1 Ti6 2.566451 1_555
Ni1 Ti8 2.585998 1_555
Ni1 Ti10 2.586002 1_555
Ni1 Ti1 2.684240 1_555
Ni1 Ti5 2.696534 1_555
Ni1 Ti3 2.696541 1_555
Ni2 Ti3 2.548825 1_555
Ni2 Ti4 2.548829 1_565
Ni2 Ti1 2.552668 1_455
Ni2 Ni5 2.671450 1_555
Ni2 Ni4 2.671454 1_555
Ni2 Ti6 2.709704 1_555
Ni2 Ti11 2.715250 1_454
Ni2 Ti8 2.715253 1_455
Ni3 Ti5 2.548829 1_555
Ni3 Ti2 2.548829 1_565
Ni3 Ti1 2.552668 1_556
Ni3 Ni4 2.671450 1_555
Ni3 Ni5 2.671450 1_555
Ni3 Ti6 2.709704 1_555
Ni3 Ti10 2.715246 1_556
Ni3 Ti9 2.715253 1_555
Ni4 Ti3 2.556774 1_556
Ni4 Ti5 2.556776 1_455
Ni4 Ti0 2.558775 1_566
Ni4 Ni5 2.654674 1_555
Ni4 Ti7 2.718629 1_455
Ni4 Ti10 2.721874 1_556
Ni4 Ti8 2.721883 1_455
Ni5 Ti4 2.556776 1_555
Ni5 Ti2 2.556776 1_454
Ni5 Ti0 2.558770 1_555
Ni5 Ti7 2.718636 1_455
Ni5 Ti11 2.721870 1_454
Ni5 Ti9 2.721877 1_555
