# generated using pymatgen
data_NaFe2P2HO8
_symmetry_space_group_name_H-M   'P 1'
_cell_length_a   5.26360455
_cell_length_b   8.71642536
_cell_length_c   9.08586267
_cell_angle_alpha   95.64370316
_cell_angle_beta   99.54730254
_cell_angle_gamma   105.99364034
_symmetry_Int_Tables_number   1
_chemical_formula_structural   NaFe2P2HO8
_chemical_formula_sum   'Na2 Fe4 P4 H2 O16'
_cell_volume   390.58324016
_cell_formula_units_Z   2
loop_
 _symmetry_equiv_pos_site_id
 _symmetry_equiv_pos_as_xyz
  1  'x, y, z'
loop_
 _atom_site_type_symbol
 _atom_site_label
 _atom_site_symmetry_multiplicity
 _atom_site_fract_x
 _atom_site_fract_y
 _atom_site_fract_z
 _atom_site_occupancy
  Na  Na0  1  0.59321300  0.81653000  0.32352200  1
  Na  Na1  1  0.40586000  0.18323300  0.67628000  1
  Fe  Fe0  1  0.22319500  0.10924000  0.26334500  1
  Fe  Fe1  1  0.31115800  0.61540300  0.90088900  1
  Fe  Fe2  1  0.77679200  0.89087700  0.73624900  1
  Fe  Fe3  1  0.68957800  0.38474800  0.09956000  1
  P  P0  1  0.15165900  0.75060500  0.57874900  1
  P  P1  1  0.84844100  0.24939400  0.42127000  1
  P  P2  1  0.88007300  0.75511400  0.06310100  1
  P  P3  1  0.11983400  0.24493500  0.93684400  1
  H  H0  1  0.07648100  0.56275600  0.38037900  1
  H  H1  1  0.92378600  0.43693900  0.61996300  1
  O  O0  1  0.89598700  0.80576700  0.55012400  1
  O  O1  1  0.10378400  0.19388300  0.44956200  1
  O  O2  1  0.70611700  0.75687000  0.90433900  1
  O  O3  1  0.29421500  0.24347300  0.09566900  1
  O  O4  1  0.40427700  0.89577800  0.64106600  1
  O  O5  1  0.59553500  0.10444500  0.35877800  1
  O  O6  1  0.07546100  0.08594100  0.83205300  1
  O  O7  1  0.92430700  0.91396300  0.16806600  1
  O  O8  1  0.11978000  0.61763600  0.68161800  1
  O  O9  1  0.88094700  0.38274400  0.31875200  1
  O  O10  1  0.14960000  0.72577400  0.04589200  1
  O  O11  1  0.85039600  0.27425500  0.95427000  1
  O  O12  1  0.30496600  0.38148400  0.86978900  1
  O  O13  1  0.69445200  0.61835400  0.12977000  1
  O  O14  1  0.19889200  0.67711800  0.42060600  1
  O  O15  1  0.80121400  0.32274200  0.57949400  1
loop_
_geom_bond_atom_site_label_1
_geom_bond_atom_site_label_2
_geom_bond_distance
_geom_bond_site_symmetry_2
Na0 O0 2.412368 1_555
Na0 O7 2.447515 1_555
Na0 O14 2.447638 1_555
Na0 O5 2.494892 1_565
Na0 O13 2.566552 1_555
Na1 O1 2.410913 1_555
Na1 O6 2.446758 1_555
Na1 O15 2.450598 1_555
Na1 O4 2.492049 1_545
Na1 O12 2.564621 1_555
Fe0 O7 1.975963 1_445
Fe0 O5 2.020682 1_555
Fe0 O3 2.031797 1_555
Fe0 O1 2.040793 1_555
Fe1 O10 1.989369 1_556
Fe1 O12 2.021183 1_555
Fe1 O8 2.082531 1_555
Fe1 O2 2.097974 1_555
Fe1 O13 2.639085 1_556
Fe2 O6 1.975354 1_665
Fe2 O4 2.021208 1_555
Fe2 O2 2.033497 1_555
Fe2 O0 2.040956 1_555
Fe3 O11 1.989120 1_554
Fe3 O13 2.020173 1_555
Fe3 O9 2.081414 1_555
Fe3 O3 2.098382 1_555
Fe3 O12 2.648044 1_554
H0 O14 1.019162 1_555
H0 O9 1.606512 1_455
H1 O15 1.018664 1_555
H1 O8 1.611883 1_655
O0 P0 1.541086 1_655
O1 P1 1.541045 1_455
O2 P2 1.579027 1_556
O3 P3 1.579797 1_554
O4 P0 1.540127 1_555
O5 P1 1.540163 1_555
O6 P3 1.539487 1_555
O7 P2 1.539424 1_555
O8 P0 1.550150 1_555
O9 P1 1.550530 1_555
O10 P2 1.538885 1_455
O11 P3 1.538823 1_655
O12 P3 1.561352 1_555
O13 P2 1.561751 1_555
O14 P0 1.600601 1_555
O15 P1 1.600809 1_555
