# generated using pymatgen
data_Dy3GaCoSe7
_symmetry_space_group_name_H-M   'P 1'
_cell_length_a   9.98141900
_cell_length_b   9.98141839
_cell_length_c   6.44915700
_cell_angle_alpha   90.00000000
_cell_angle_beta   90.00000000
_cell_angle_gamma   119.99999872
_symmetry_Int_Tables_number   1
_chemical_formula_structural   Dy3GaCoSe7
_chemical_formula_sum   'Dy6 Ga2 Co2 Se14'
_cell_volume   556.43973334
_cell_formula_units_Z   2
loop_
 _symmetry_equiv_pos_site_id
 _symmetry_equiv_pos_as_xyz
  1  'x, y, z'
loop_
 _atom_site_type_symbol
 _atom_site_label
 _atom_site_symmetry_multiplicity
 _atom_site_fract_x
 _atom_site_fract_y
 _atom_site_fract_z
 _atom_site_occupancy
  Dy  Dy0  1  0.84169700  0.62723800  0.67736500  1
  Dy  Dy1  1  0.78554100  0.15830300  0.67736500  1
  Dy  Dy2  1  0.37276200  0.21445900  0.67736500  1
  Dy  Dy3  1  0.15830300  0.37276200  0.17736500  1
  Dy  Dy4  1  0.21445900  0.84169700  0.17736500  1
  Dy  Dy5  1  0.62723800  0.78554100  0.17736500  1
  Ga  Ga0  1  0.33333300  0.66666700  0.60170600  1
  Ga  Ga1  1  0.66666700  0.33333300  0.10170600  1
  Co  Co0  1  0.00000000  0.00000000  0.00877800  1
  Co  Co1  1  0.00000000  0.00000000  0.50877800  1
  Se  Se0  1  0.56216400  0.48095500  0.94533500  1
  Se  Se1  1  0.91879100  0.43783600  0.94533500  1
  Se  Se2  1  0.51904500  0.08120900  0.94533500  1
  Se  Se3  1  0.43783600  0.51904500  0.44533500  1
  Se  Se4  1  0.08120900  0.56216400  0.44533500  1
  Se  Se5  1  0.48095500  0.91879100  0.44533500  1
  Se  Se6  1  0.33333300  0.66666700  0.97353200  1
  Se  Se7  1  0.66666700  0.33333300  0.47353200  1
  Se  Se8  1  0.12863900  0.90040800  0.76490600  1
  Se  Se9  1  0.77176900  0.87136100  0.76490600  1
  Se  Se10  1  0.09959200  0.22823100  0.76490600  1
  Se  Se11  1  0.87136100  0.09959200  0.26490600  1
  Se  Se12  1  0.22823100  0.12863900  0.26490600  1
  Se  Se13  1  0.90040800  0.77176900  0.26490600  1
loop_
_geom_bond_atom_site_label_1
_geom_bond_atom_site_label_2
_geom_bond_distance
_geom_bond_site_symmetry_2
Dy0 Se8 2.854282 1_655
Dy0 Se7 2.874203 1_555
Dy0 Se9 2.905883 1_555
Dy0 Se1 2.933854 1_555
Dy0 Se13 2.941912 1_555
Dy0 Se0 2.971445 1_555
Dy0 Se4 3.151065 1_655
Dy1 Se9 2.854281 1_545
Dy1 Se7 2.874196 1_555
Dy1 Se10 2.905883 1_655
Dy1 Se2 2.933854 1_555
Dy1 Se11 2.941912 1_555
Dy1 Se1 2.971445 1_555
Dy1 Se5 3.151065 1_545
Dy2 Se10 2.854282 1_555
Dy2 Se7 2.874204 1_555
Dy2 Se8 2.905883 1_545
Dy2 Se0 2.933854 1_555
Dy2 Se12 2.941912 1_555
Dy2 Se2 2.971445 1_555
Dy2 Se3 3.151065 1_555
Dy3 Se11 2.854282 1_455
Dy3 Se6 2.874203 1_554
Dy3 Se12 2.905883 1_555
Dy3 Se4 2.933854 1_555
Dy3 Se10 2.941912 1_554
Dy3 Se3 2.971445 1_555
Dy3 Se1 3.151065 1_454
Dy4 Se12 2.854281 1_565
Dy4 Se6 2.874196 1_554
Dy4 Se13 2.905883 1_455
Dy4 Se5 2.933854 1_555
Dy4 Se8 2.941912 1_554
Dy4 Se4 2.971445 1_555
Dy4 Se2 3.151065 1_564
Dy5 Se13 2.854282 1_555
Dy5 Se6 2.874204 1_554
Dy5 Se11 2.905883 1_565
Dy5 Se3 2.933854 1_555
Dy5 Se9 2.941912 1_554
Dy5 Se5 2.971445 1_555
Dy5 Se0 3.151065 1_554
Ga0 Se6 2.397964 1_555
Ga0 Se4 2.411035 1_555
Ga0 Se5 2.411035 1_555
Ga0 Se3 2.411043 1_555
Ga1 Se7 2.397964 1_555
Ga1 Se1 2.411035 1_554
Ga1 Se2 2.411035 1_554
Ga1 Se0 2.411043 1_554
Co0 Se10 2.527215 1_554
Co0 Se8 2.527215 1_544
Co0 Se9 2.527215 1_444
Co0 Se13 2.577148 1_445
Co0 Se11 2.577148 1_455
Co0 Se12 2.577148 1_555
Co1 Se13 2.527215 1_445
Co1 Se11 2.527215 1_455
Co1 Se12 2.527215 1_555
Co1 Se10 2.577148 1_555
Co1 Se8 2.577148 1_545
Co1 Se9 2.577148 1_445
