# generated using pymatgen
data_Na5Sc(C2O7)2
_symmetry_space_group_name_H-M   'P 1'
_cell_length_a   7.46416100
_cell_length_b   7.46416100
_cell_length_c   11.55878100
_cell_angle_alpha   90.00000000
_cell_angle_beta   90.00000000
_cell_angle_gamma   90.00000000
_symmetry_Int_Tables_number   1
_chemical_formula_structural   Na5Sc(C2O7)2
_chemical_formula_sum   'Na10 Sc2 C8 O28'
_cell_volume   643.98245046
_cell_formula_units_Z   2
loop_
 _symmetry_equiv_pos_site_id
 _symmetry_equiv_pos_as_xyz
  1  'x, y, z'
loop_
 _atom_site_type_symbol
 _atom_site_label
 _atom_site_symmetry_multiplicity
 _atom_site_fract_x
 _atom_site_fract_y
 _atom_site_fract_z
 _atom_site_occupancy
  Na  Na0  1  0.00000000  0.00000000  0.50000000  1
  Na  Na1  1  0.50000000  0.50000000  0.00000000  1
  Na  Na2  1  0.69255200  0.80378500  0.70791900  1
  Na  Na3  1  0.19255200  0.69621500  0.79208100  1
  Na  Na4  1  0.30744800  0.19621500  0.70791900  1
  Na  Na5  1  0.80744800  0.30378500  0.79208100  1
  Na  Na6  1  0.80378500  0.30744800  0.29208100  1
  Na  Na7  1  0.69621500  0.80744800  0.20791900  1
  Na  Na8  1  0.19621500  0.69255200  0.29208100  1
  Na  Na9  1  0.30378500  0.19255200  0.20791900  1
  Sc  Sc0  1  0.50000000  0.50000000  0.50000000  1
  Sc  Sc1  1  0.00000000  0.00000000  0.00000000  1
  C  C0  1  0.78678100  0.67276300  0.42137900  1
  C  C1  1  0.28678100  0.82723700  0.07862100  1
  C  C2  1  0.21321900  0.32723700  0.42137900  1
  C  C3  1  0.71321900  0.17276300  0.07862100  1
  C  C4  1  0.67276300  0.21321900  0.57862100  1
  C  C5  1  0.82723700  0.71321900  0.92137900  1
  C  C6  1  0.32723700  0.78678100  0.57862100  1
  C  C7  1  0.17276300  0.28678100  0.92137900  1
  O  O0  1  0.67191200  0.58734800  0.35463400  1
  O  O1  1  0.17191200  0.91265200  0.14536600  1
  O  O2  1  0.32808800  0.41265200  0.35463400  1
  O  O3  1  0.82808800  0.08734800  0.14536600  1
  O  O4  1  0.58734800  0.32808800  0.64536600  1
  O  O5  1  0.91265200  0.82808800  0.85463400  1
  O  O6  1  0.41265200  0.67191200  0.64536600  1
  O  O7  1  0.08734800  0.17191200  0.85463400  1
  O  O8  1  0.75391800  0.65808000  0.53241900  1
  O  O9  1  0.25391800  0.84192000  0.96758100  1
  O  O10  1  0.24608200  0.34192000  0.53241900  1
  O  O11  1  0.74608200  0.15808000  0.96758100  1
  O  O12  1  0.65808000  0.24608200  0.46758100  1
  O  O13  1  0.84192000  0.74608200  0.03241900  1
  O  O14  1  0.34192000  0.75391800  0.46758100  1
  O  O15  1  0.15808000  0.25391800  0.03241900  1
  O  O16  1  0.91465500  0.76383600  0.37898700  1
  O  O17  1  0.41465500  0.73616400  0.12101300  1
  O  O18  1  0.08534500  0.23616400  0.37898700  1
  O  O19  1  0.58534500  0.26383600  0.12101300  1
  O  O20  1  0.76383600  0.08534500  0.62101300  1
  O  O21  1  0.73616400  0.58534500  0.87898700  1
  O  O22  1  0.23616400  0.91465500  0.62101300  1
  O  O23  1  0.26383600  0.41465500  0.87898700  1
  O  O24  1  0.00000000  0.50000000  0.66024200  1
  O  O25  1  0.50000000  0.00000000  0.83975800  1
  O  O26  1  0.50000000  0.00000000  0.33975800  1
  O  O27  1  0.00000000  0.50000000  0.16024200  1
loop_
_geom_bond_atom_site_label_1
_geom_bond_atom_site_label_2
_geom_bond_distance
_geom_bond_site_symmetry_2
Na0 O18 2.338736 1_555
Na0 O16 2.338736 1_445
Na0 O22 2.338736 1_545
Na0 O20 2.338736 1_455
Na1 O19 2.338736 1_555
Na1 O21 2.338736 1_554
Na1 O17 2.338736 1_555
Na1 O23 2.338736 1_554
Na2 O8 2.346846 1_555
Na2 O5 2.368079 1_555
Na2 O20 2.389339 1_565
Na2 O6 2.420022 1_555
Na2 O25 2.555957 1_565
Na2 O21 2.583461 1_555
Na3 O9 2.346846 1_555
Na3 O6 2.368079 1_555
Na3 O23 2.389339 1_555
Na3 O5 2.420022 1_455
Na3 O24 2.555957 1_555
Na3 O22 2.583461 1_555
Na4 O10 2.346846 1_555
Na4 O7 2.368079 1_555
Na4 O22 2.389339 1_545
Na4 O4 2.420022 1_555
Na4 O25 2.555957 1_555
Na4 O23 2.583461 1_555
Na5 O11 2.346846 1_555
Na5 O4 2.368079 1_555
Na5 O21 2.389339 1_555
Na5 O7 2.420022 1_655
Na5 O24 2.555957 1_655
Na5 O20 2.583461 1_555
Na6 O12 2.346846 1_555
Na6 O3 2.368079 1_555
Na6 O18 2.389339 1_655
Na6 O0 2.420022 1_555
Na6 O27 2.555957 1_655
Na6 O19 2.583461 1_555
Na7 O13 2.346846 1_555
Na7 O0 2.368079 1_555
Na7 O17 2.389339 1_555
Na7 O3 2.420022 1_565
Na7 O26 2.555957 1_565
Na7 O16 2.583461 1_555
Na8 O14 2.346846 1_555
Na8 O1 2.368079 1_555
Na8 O16 2.389339 1_455
Na8 O2 2.420022 1_555
Na8 O27 2.555957 1_555
Na8 O17 2.583461 1_555
Na9 O15 2.346846 1_555
Na9 O2 2.368079 1_555
Na9 O19 2.389339 1_555
Na9 O1 2.420022 1_545
Na9 O26 2.555957 1_555
Na9 O18 2.583461 1_555
C0 O16 1.270127 1_555
C0 O8 1.311305 1_555
C0 O0 1.317879 1_555
C1 O17 1.270127 1_555
C1 O9 1.311305 1_554
C1 O1 1.317879 1_555
C2 O18 1.270127 1_555
C2 O10 1.311305 1_555
C2 O2 1.317879 1_555
C3 O19 1.270127 1_555
C3 O11 1.311305 1_554
C3 O3 1.317879 1_555
C4 O20 1.270127 1_555
C4 O12 1.311305 1_555
C4 O4 1.317879 1_555
C5 O21 1.270127 1_555
C5 O13 1.311305 1_556
C5 O5 1.317879 1_555
C6 O22 1.270127 1_555
C6 O14 1.311305 1_555
C6 O6 1.317879 1_555
C7 O23 1.270127 1_555
C7 O15 1.311305 1_556
C7 O7 1.317879 1_555
O0 Sc0 2.212437 1_555
O1 Sc1 2.212437 1_565
O2 Sc0 2.212437 1_555
O3 Sc1 2.212437 1_655
O4 Sc0 2.212437 1_555
O5 Sc1 2.212437 1_666
O6 Sc0 2.212437 1_555
O7 Sc1 2.212437 1_556
O8 Sc0 2.263795 1_555
O9 Sc1 2.263795 1_566
O10 Sc0 2.263795 1_555
O11 Sc1 2.263795 1_656
O12 Sc0 2.263795 1_555
O13 Sc1 2.263795 1_665
O14 Sc0 2.263795 1_555
O15 Sc1 2.263795 1_555
