# generated using pymatgen
data_MoPO5
_symmetry_space_group_name_H-M   'P 1'
_cell_length_a   10.35363958
_cell_length_b   9.04236622
_cell_length_c   7.15123336
_cell_angle_alpha   78.53490546
_cell_angle_beta   58.86202960
_cell_angle_gamma   42.60306494
_symmetry_Int_Tables_number   1
_chemical_formula_structural   MoPO5
_chemical_formula_sum   'Mo4 P4 O20'
_cell_volume   368.30440591
_cell_formula_units_Z   4
loop_
 _symmetry_equiv_pos_site_id
 _symmetry_equiv_pos_as_xyz
  1  'x, y, z'
loop_
 _atom_site_type_symbol
 _atom_site_label
 _atom_site_symmetry_multiplicity
 _atom_site_fract_x
 _atom_site_fract_y
 _atom_site_fract_z
 _atom_site_occupancy
  Mo  Mo0  1  0.87753900  0.38312900  0.39382800  1
  Mo  Mo1  1  0.34550500  0.39382800  0.38312900  1
  Mo  Mo2  1  0.86687100  0.37246100  0.90449500  1
  Mo  Mo3  1  0.85617200  0.90449500  0.37246100  1
  P  P0  1  0.03004600  0.54030500  0.96774800  1
  P  P1  1  0.70969500  0.21995400  0.78809900  1
  P  P2  1  0.46190100  0.96774800  0.54030500  1
  P  P3  1  0.28225200  0.78809900  0.21995400  1
  O  O0  1  0.60145700  0.72179700  0.44008300  1
  O  O1  1  0.65932800  0.17730400  0.33707900  1
  O  O2  1  0.30558900  0.65094900  0.39651700  1
  O  O3  1  0.80991700  0.01333600  0.64854300  1
  O  O4  1  0.21827800  0.10080200  0.74592700  1
  O  O5  1  0.43378800  0.10610000  0.36339100  1
  O  O6  1  0.07269600  0.59067200  0.42371100  1
  O  O7  1  0.82628900  0.33707900  0.17730400  1
  O  O8  1  0.91292100  0.42371100  0.59067200  1
  O  O9  1  0.14919800  0.03172200  0.31500800  1
  O  O10  1  0.23666400  0.44008300  0.72179700  1
  O  O11  1  0.50407300  0.31500800  0.03172200  1
  O  O12  1  0.93499200  0.74592700  0.10080200  1
  O  O13  1  0.14390000  0.81621200  0.15327900  1
  O  O14  1  0.09672100  0.36339100  0.10610000  1
  O  O15  1  0.88660900  0.15327900  0.81621200  1
  O  O16  1  0.85348300  0.60305500  0.94441100  1
  O  O17  1  0.64694500  0.39651700  0.65094900  1
  O  O18  1  0.52820300  0.64854300  0.01333600  1
  O  O19  1  0.59905100  0.94441100  0.60305500  1
loop_
_geom_bond_atom_site_label_1
_geom_bond_atom_site_label_2
_geom_bond_distance
_geom_bond_site_symmetry_2
Mo0 O8 1.785210 1_555
Mo0 O14 2.033746 1_655
Mo0 O0 2.048579 1_555
Mo0 O17 2.053924 1_555
Mo0 O9 2.059397 1_655
Mo0 O7 2.069747 1_555
Mo1 O6 1.785218 1_555
Mo1 O5 2.033752 1_555
Mo1 O10 2.048579 1_555
Mo1 O2 2.053917 1_555
Mo1 O11 2.059397 1_555
Mo1 O1 2.069738 1_555
Mo2 O7 1.785217 1_556
Mo2 O15 2.033743 1_555
Mo2 O18 2.048579 1_556
Mo2 O16 2.053926 1_555
Mo2 O4 2.059397 1_655
Mo2 O8 2.069740 1_555
Mo3 O1 1.785215 1_565
Mo3 O13 2.033751 1_655
Mo3 O3 2.048579 1_565
Mo3 O19 2.053918 1_555
Mo3 O12 2.059397 1_555
Mo3 O6 2.069742 1_655
O0 P2 1.542592 1_555
O2 P3 1.562863 1_555
O3 P1 1.542600 1_555
O4 P2 1.540149 1_545
O5 P2 1.570347 1_545
O9 P3 1.540150 1_545
O10 P0 1.542596 1_555
O11 P1 1.540146 1_554
O12 P0 1.540143 1_654
O13 P3 1.570347 1_555
O14 P0 1.570347 1_554
O15 P1 1.570347 1_555
O16 P0 1.562863 1_655
O17 P1 1.562863 1_555
O18 P3 1.542594 1_555
O19 P2 1.562863 1_555
