# generated using pymatgen
data_Lu5In4
_symmetry_space_group_name_H-M   'P 1'
_cell_length_a   6.50686755
_cell_length_b   9.03903053
_cell_length_c   9.03904920
_cell_angle_alpha   119.99998444
_cell_angle_beta   90.00000000
_cell_angle_gamma   90.00000000
_symmetry_Int_Tables_number   1
_chemical_formula_structural   Lu5In4
_chemical_formula_sum   'Lu10 In8'
_cell_volume   460.41267369
_cell_formula_units_Z   2
loop_
 _symmetry_equiv_pos_site_id
 _symmetry_equiv_pos_as_xyz
  1  'x, y, z'
loop_
 _atom_site_type_symbol
 _atom_site_label
 _atom_site_symmetry_multiplicity
 _atom_site_fract_x
 _atom_site_fract_y
 _atom_site_fract_z
 _atom_site_occupancy
  Lu  Lu0  1  -0.00000028  0.66666869  0.33333471  1
  Lu  Lu1  1  0.00000028  0.33333131  0.66666529  1
  Lu  Lu2  1  0.49999972  0.33333131  0.66666529  1
  Lu  Lu3  1  0.50000028  0.66666869  0.33333471  1
  Lu  Lu4  1  0.75000000  0.71057657  0.71057881  1
  Lu  Lu5  1  0.25000000  0.28942343  0.28942119  1
  Lu  Lu6  1  0.75000000  0.00000149  0.28942474  1
  Lu  Lu7  1  0.25000000  -0.00000149  0.71057526  1
  Lu  Lu8  1  0.75000000  0.28943075  0.00000575  1
  Lu  Lu9  1  0.25000000  0.71056925  0.99999425  1
  In  In0  1  -0.00000000  0.00000000  0.00000000  1
  In  In1  1  0.50000000  0.00000000  0.00000000  1
  In  In2  1  0.75000000  0.37309554  0.37309533  1
  In  In3  1  0.25000000  0.62690446  0.62690467  1
  In  In4  1  0.75000000  0.00000010  0.62690430  1
  In  In5  1  0.25000000  -0.00000010  0.37309570  1
  In  In6  1  0.75000000  0.62690375  -0.00000005  1
  In  In7  1  0.25000000  0.37309625  0.00000005  1
loop_
_geom_bond_atom_site_label_1
_geom_bond_atom_site_label_2
_geom_bond_distance
_geom_bond_site_symmetry_2
Lu0 Lu3 3.253430 1_455
Lu0 Lu3 3.253437 1_555
Lu0 Lu8 3.616293 1_455
Lu0 Lu7 3.616311 1_565
Lu0 Lu6 3.616326 1_465
Lu0 Lu5 3.616335 1_555
Lu0 Lu9 3.616349 1_554
Lu0 Lu4 3.616349 1_455
Lu1 Lu2 3.253430 1_555
Lu1 Lu2 3.253437 1_455
Lu1 Lu9 3.616293 1_555
Lu1 Lu6 3.616311 1_455
Lu1 Lu7 3.616326 1_555
Lu1 Lu4 3.616335 1_455
Lu1 Lu8 3.616349 1_456
Lu1 Lu5 3.616349 1_555
Lu2 Lu9 3.616293 1_555
Lu2 Lu6 3.616311 1_555
Lu2 Lu7 3.616326 1_555
Lu2 Lu4 3.616335 1_555
Lu2 Lu8 3.616349 1_556
Lu2 Lu5 3.616349 1_555
Lu3 Lu8 3.616293 1_555
Lu3 Lu7 3.616311 1_565
Lu3 Lu6 3.616326 1_565
Lu3 Lu5 3.616335 1_555
Lu3 Lu9 3.616349 1_554
Lu3 Lu4 3.616349 1_555
In0 Lu5 3.080615 1_555
In0 Lu4 3.080615 1_444
In0 Lu7 3.080630 1_554
In0 Lu6 3.080630 1_455
In0 Lu9 3.080655 1_544
In0 Lu8 3.080655 1_455
In0 In1 3.253434 1_455
In0 In1 3.253434 1_555
In1 Lu5 3.080615 1_555
In1 Lu4 3.080615 1_544
In1 Lu7 3.080630 1_554
In1 Lu6 3.080630 1_555
In1 Lu9 3.080655 1_544
In1 Lu8 3.080655 1_555
In2 Lu4 3.050516 1_555
In2 Lu8 3.065040 1_555
In2 Lu6 3.065057 1_555
In2 Lu2 3.281881 1_555
In2 Lu1 3.281881 1_655
In2 Lu0 3.281883 1_655
In2 Lu3 3.281883 1_555
In2 Lu5 3.340188 1_655
In2 Lu5 3.340188 1_555
In3 Lu5 3.050516 1_555
In3 Lu9 3.065040 1_555
In3 Lu7 3.065057 1_565
In3 Lu0 3.281881 1_555
In3 Lu3 3.281881 1_555
In3 Lu1 3.281883 1_555
In3 Lu2 3.281883 1_555
In3 Lu4 3.340188 1_555
In3 Lu4 3.340188 1_455
In4 Lu6 3.050501 1_555
In4 Lu4 3.065082 1_545
In4 Lu8 3.065127 1_556
In4 Lu0 3.281863 1_645
In4 Lu3 3.281863 1_545
In4 Lu2 3.281863 1_555
In4 Lu1 3.281863 1_655
In4 Lu7 3.340186 1_555
In4 Lu7 3.340186 1_655
In5 Lu7 3.050501 1_555
In5 Lu5 3.065082 1_555
In5 Lu9 3.065127 1_544
In5 Lu1 3.281863 1_555
In5 Lu2 3.281863 1_555
In5 Lu3 3.281863 1_545
In5 Lu0 3.281863 1_545
In5 Lu6 3.340186 1_555
In5 Lu6 3.340186 1_455
In6 Lu8 3.050455 1_555
In6 Lu4 3.065055 1_554
In6 Lu6 3.065085 1_565
In6 Lu3 3.281882 1_555
In6 Lu0 3.281882 1_655
In6 Lu2 3.281890 1_554
In6 Lu1 3.281890 1_654
In6 Lu9 3.340178 1_654
In6 Lu9 3.340178 1_554
In7 Lu9 3.050455 1_554
In7 Lu5 3.065055 1_555
In7 Lu7 3.065085 1_554
In7 Lu2 3.281882 1_554
In7 Lu1 3.281882 1_554
In7 Lu3 3.281890 1_555
In7 Lu0 3.281890 1_555
In7 Lu8 3.340178 1_455
In7 Lu8 3.340178 1_555
