# generated using pymatgen
data_CaMg6Bi
_symmetry_space_group_name_H-M   'P 1'
_cell_length_a   5.27414800
_cell_length_b   6.80247000
_cell_length_c   11.48172700
_cell_angle_alpha   90.00000000
_cell_angle_beta   90.00000000
_cell_angle_gamma   90.00000000
_symmetry_Int_Tables_number   1
_chemical_formula_structural   CaMg6Bi
_chemical_formula_sum   'Ca2 Mg12 Bi2'
_cell_volume   411.93260109
_cell_formula_units_Z   2
loop_
 _symmetry_equiv_pos_site_id
 _symmetry_equiv_pos_as_xyz
  1  'x, y, z'
loop_
 _atom_site_type_symbol
 _atom_site_label
 _atom_site_symmetry_multiplicity
 _atom_site_fract_x
 _atom_site_fract_y
 _atom_site_fract_z
 _atom_site_occupancy
  Ca  Ca0  1  0.00000000  0.50000000  0.33092400  1
  Ca  Ca1  1  0.00000000  0.00000000  0.83092400  1
  Mg  Mg0  1  0.00000000  0.24223900  0.07914600  1
  Mg  Mg1  1  0.00000000  0.75776100  0.07914600  1
  Mg  Mg2  1  0.00000000  0.50000000  0.83696600  1
  Mg  Mg3  1  0.50000000  0.26201000  0.92027200  1
  Mg  Mg4  1  0.50000000  0.73799000  0.92027200  1
  Mg  Mg5  1  0.50000000  0.50000000  0.66766900  1
  Mg  Mg6  1  0.00000000  0.74223900  0.57914600  1
  Mg  Mg7  1  0.00000000  0.25776100  0.57914600  1
  Mg  Mg8  1  0.00000000  0.00000000  0.33696600  1
  Mg  Mg9  1  0.50000000  0.76201000  0.42027200  1
  Mg  Mg10  1  0.50000000  0.23799000  0.42027200  1
  Mg  Mg11  1  0.50000000  0.00000000  0.16766900  1
  Bi  Bi0  1  0.50000000  0.50000000  0.16560400  1
  Bi  Bi1  1  0.50000000  0.00000000  0.66560400  1
loop_
_geom_bond_atom_site_label_1
_geom_bond_atom_site_label_2
_geom_bond_distance
_geom_bond_site_symmetry_2
Ca0 Mg6 3.292100 1_555
Ca0 Mg7 3.292100 1_555
Ca0 Mg10 3.344131 1_455
Ca0 Mg9 3.344131 1_455
Ca0 Mg9 3.344131 1_555
Ca0 Mg10 3.344131 1_555
Ca0 Mg0 3.381042 1_555
Ca0 Mg1 3.381042 1_555
Ca0 Mg8 3.401942 1_555
Ca0 Mg8 3.401942 1_565
Ca1 Mg0 3.292100 1_556
Ca1 Mg1 3.292100 1_546
Ca1 Mg3 3.344131 1_555
Ca1 Mg4 3.344131 1_545
Ca1 Mg3 3.344131 1_455
Ca1 Mg4 3.344131 1_445
Ca1 Mg7 3.381042 1_555
Ca1 Mg6 3.381042 1_545
Ca1 Mg2 3.401942 1_545
Ca1 Mg2 3.401942 1_555
Mg0 Mg3 3.209324 1_554
Mg0 Mg3 3.209324 1_454
Mg0 Mg11 3.271474 1_455
Mg0 Mg11 3.271474 1_555
Mg0 Mg2 3.287314 1_554
Mg0 Mg1 3.295647 1_545
Mg0 Mg8 3.387952 1_555
Mg0 Mg1 3.506823 1_555
Mg1 Mg4 3.209324 1_554
Mg1 Mg4 3.209324 1_454
Mg1 Mg11 3.271474 1_465
Mg1 Mg11 3.271474 1_565
Mg1 Mg2 3.287314 1_554
Mg1 Mg8 3.387952 1_565
Mg2 Mg3 3.238819 1_555
Mg2 Mg4 3.238819 1_555
Mg2 Mg3 3.238819 1_455
Mg2 Mg4 3.238819 1_455
Mg2 Mg5 3.276065 1_555
Mg2 Mg5 3.276065 1_455
Mg2 Mg7 3.387952 1_555
Mg2 Mg6 3.387952 1_555
Mg3 Mg5 3.321558 1_555
Mg4 Mg5 3.321558 1_555
Mg5 Mg6 3.271474 1_555
Mg5 Mg7 3.271474 1_555
Mg5 Mg6 3.271474 1_655
Mg5 Mg7 3.271474 1_655
Mg5 Mg9 3.353408 1_555
Mg6 Mg9 3.209324 1_555
Mg6 Mg9 3.209324 1_455
Mg6 Mg8 3.287314 1_565
Mg6 Mg7 3.295647 1_555
Mg6 Mg7 3.506823 1_565
Mg7 Mg8 3.287314 1_555
Mg8 Mg9 3.238819 1_445
Mg8 Mg9 3.238819 1_545
Mg10 Mg7 3.209324 1_555
Mg10 Mg7 3.209324 1_655
Mg10 Mg8 3.238819 1_555
Mg10 Mg8 3.238819 1_655
Mg10 Mg11 3.321558 1_555
Mg10 Mg5 3.353408 1_555
Mg11 Mg8 3.276065 1_555
Mg11 Mg8 3.276065 1_655
Mg11 Mg9 3.321558 1_545
Mg11 Mg4 3.353408 1_544
Mg11 Mg3 3.353408 1_554
Bi0 Mg3 3.248917 1_554
Bi0 Mg4 3.248917 1_554
Bi0 Ca0 3.249179 1_655
Bi0 Ca0 3.249179 1_555
Bi0 Mg1 3.318741 1_555
Bi0 Mg1 3.318741 1_655
Bi0 Mg0 3.318741 1_555
Bi0 Mg0 3.318741 1_655
Bi0 Mg11 3.401318 1_555
Bi0 Mg11 3.401318 1_565
Bi0 Mg9 3.424411 1_555
Bi0 Mg10 3.424411 1_555
Bi1 Mg9 3.248917 1_545
Bi1 Mg10 3.248917 1_555
Bi1 Ca1 3.249179 1_555
Bi1 Ca1 3.249179 1_655
Bi1 Mg6 3.318741 1_545
Bi1 Mg6 3.318741 1_645
Bi1 Mg7 3.318741 1_555
Bi1 Mg7 3.318741 1_655
Bi1 Mg5 3.401318 1_545
Bi1 Mg5 3.401318 1_555
Bi1 Mg4 3.424411 1_545
Bi1 Mg3 3.424411 1_555
