# generated using pymatgen
data_Li4MnCo2O7
_symmetry_space_group_name_H-M   'P 1'
_cell_length_a   5.15601450
_cell_length_b   7.75801365
_cell_length_c   7.69016591
_cell_angle_alpha   64.43210520
_cell_angle_beta   83.26102139
_cell_angle_gamma   108.89337960
_symmetry_Int_Tables_number   1
_chemical_formula_structural   Li4MnCo2O7
_chemical_formula_sum   'Li8 Mn2 Co4 O14'
_cell_volume   250.34204588
_cell_formula_units_Z   2
loop_
 _symmetry_equiv_pos_site_id
 _symmetry_equiv_pos_as_xyz
  1  'x, y, z'
loop_
 _atom_site_type_symbol
 _atom_site_label
 _atom_site_symmetry_multiplicity
 _atom_site_fract_x
 _atom_site_fract_y
 _atom_site_fract_z
 _atom_site_occupancy
  Li  Li0  1  0.56686500  0.07174300  0.78394600  1
  Li  Li1  1  0.00449000  0.49966000  0.50182200  1
  Li  Li2  1  0.42927000  0.93850600  0.21591700  1
  Li  Li3  1  0.86557200  0.36087800  0.93241000  1
  Li  Li4  1  0.28576700  0.78572400  0.64285900  1
  Li  Li5  1  0.70580000  0.21048700  0.35328500  1
  Li  Li6  1  0.14212300  0.63292700  0.06978200  1
  Li  Li7  1  0.28574000  0.28575400  0.14286200  1
  Mn  Mn0  1  0.00263000  0.00044600  0.00019300  1
  Mn  Mn1  1  0.56882600  0.57098700  0.28549700  1
  Co  Co0  1  0.42166700  0.42762500  0.72587400  1
  Co  Co1  1  0.85773200  0.86332500  0.42766700  1
  Co  Co2  1  0.71373400  0.70811000  0.85802200  1
  Co  Co3  1  0.14977600  0.14383000  0.55984700  1
  O  O0  1  0.12387100  0.89951600  0.82962400  1
  O  O1  1  0.56407400  0.33965800  0.52541000  1
  O  O2  1  0.97544900  0.75503700  0.24174500  1
  O  O3  1  0.39151600  0.16482200  0.96159000  1
  O  O4  1  0.84489900  0.61364300  0.67137900  1
  O  O5  1  0.26873500  0.03402800  0.40795600  1
  O  O6  1  0.71126500  0.48340600  0.10411100  1
  O  O7  1  0.00735400  0.23175800  0.76030300  1
  O  O8  1  0.44760600  0.67192000  0.45608100  1
  O  O9  1  0.86014200  0.08799200  0.18159800  1
  O  O10  1  0.30259100  0.53739400  0.87777900  1
  O  O11  1  0.72653200  0.95773500  0.61436000  1
  O  O12  1  0.17992500  0.40667700  0.32413900  1
  O  O13  1  0.59604800  0.81641100  0.04394100  1
loop_
_geom_bond_atom_site_label_1
_geom_bond_atom_site_label_2
_geom_bond_distance
_geom_bond_site_symmetry_2
Li0 O3 2.046833 1_555
Li0 O11 2.091900 1_545
Li0 O0 2.134442 1_545
Li0 O7 2.148183 1_655
Li0 O1 2.175395 1_555
Li0 O13 2.188410 1_546
Li1 O12 2.046691 1_555
Li1 O4 2.091393 1_455
Li1 O8 2.134917 1_555
Li1 O1 2.147961 1_455
Li1 O7 2.175285 1_555
Li1 O2 2.188587 1_455
Li2 O9 2.068745 1_565
Li2 O3 2.071824 1_564
Li2 O5 2.114302 1_565
Li2 O8 2.137268 1_555
Li2 O13 2.174308 1_555
Li2 O2 2.242891 1_455
Li3 O10 2.100466 1_655
Li3 O9 2.145264 1_556
Li3 O6 2.146320 1_556
Li3 O4 2.161969 1_555
Li3 O7 2.163589 1_655
Li3 O3 2.346730 1_555
Li4 O10 2.030674 1_555
Li4 O5 2.030982 1_565
Li4 O11 2.158736 1_555
Li4 O4 2.159262 1_455
Li4 O0 2.197551 1_555
Li4 O8 2.197577 1_555
Li5 O5 2.100504 1_555
Li5 O6 2.145292 1_555
Li5 O9 2.146105 1_555
Li5 O11 2.162238 1_545
Li5 O1 2.163906 1_555
Li5 O12 2.347383 1_655
Li6 O6 2.068706 1_455
Li6 O12 2.071838 1_555
Li6 O10 2.114000 1_554
Li6 O0 2.137063 1_554
Li6 O2 2.174080 1_455
Li6 O13 2.243334 1_555
Li7 O10 2.094716 1_554
Li7 O5 2.094799 1_555
Li7 O3 2.098271 1_554
Li7 O12 2.098311 1_555
Li7 O6 2.127710 1_555
Li7 O9 2.128316 1_455
Mn0 O3 1.900625 1_554
Mn0 O7 1.930751 1_554
Mn0 O0 1.932757 1_544
Mn0 O2 1.951525 1_445
Mn0 O9 1.961528 1_455
Mn0 O13 2.006944 1_445
Mn1 O12 1.900478 1_555
Mn1 O1 1.930859 1_555
Mn1 O8 1.932829 1_555
Mn1 O13 1.951529 1_555
Mn1 O6 1.961517 1_555
Mn1 O2 2.007139 1_555
Co0 O10 1.869688 1_555
Co0 O3 2.001351 1_555
Co0 O4 2.060119 1_555
Co0 O8 2.071490 1_555
Co0 O1 2.085272 1_555
Co0 O7 2.088125 1_555
Co1 O9 1.937133 1_565
Co1 O4 2.005832 1_555
Co1 O11 2.013928 1_555
Co1 O5 2.049731 1_665
Co1 O2 2.069237 1_555
Co1 O8 2.074196 1_555
Co2 O6 1.937238 1_556
Co2 O11 2.005461 1_555
Co2 O4 2.013887 1_555
Co2 O10 2.050233 1_555
Co2 O13 2.069243 1_556
Co2 O0 2.074282 1_655
Co3 O5 1.869574 1_555
Co3 O12 2.001532 1_555
Co3 O11 2.060299 1_445
Co3 O0 2.071546 1_545
Co3 O7 2.085019 1_555
Co3 O1 2.087943 1_555
