# generated using pymatgen
data_SmDy(NiO3)4
_symmetry_space_group_name_H-M   'P 1'
_cell_length_a   5.14130931
_cell_length_b   5.14130931
_cell_length_c   7.94397762
_cell_angle_alpha   90.00000000
_cell_angle_beta   90.00000000
_cell_angle_gamma   90.13795038
_symmetry_Int_Tables_number   1
_chemical_formula_structural   SmDy(NiO3)4
_chemical_formula_sum   'Sm1 Dy1 Ni4 O12'
_cell_volume   209.98303938
_cell_formula_units_Z   1
loop_
 _symmetry_equiv_pos_site_id
 _symmetry_equiv_pos_as_xyz
  1  'x, y, z'
loop_
 _atom_site_type_symbol
 _atom_site_label
 _atom_site_symmetry_multiplicity
 _atom_site_fract_x
 _atom_site_fract_y
 _atom_site_fract_z
 _atom_site_occupancy
  Sm  Sm0  1  -0.00000000  -0.00000000  -0.00000000  1
  Dy  Dy0  1  0.50000000  0.50000000  0.50000000  1
  Ni  Ni0  1  -0.00000000  0.50000000  0.25067371  1
  Ni  Ni1  1  -0.00000000  0.50000000  0.74932629  1
  Ni  Ni2  1  0.50000000  -0.00000000  0.74932629  1
  Ni  Ni3  1  0.50000000  -0.00000000  0.25067371  1
  O  O0  1  0.17979403  0.17979403  0.74995938  1
  O  O1  1  0.17979403  0.17979403  0.25004062  1
  O  O2  1  0.82020597  0.82020597  0.25004062  1
  O  O3  1  0.82020597  0.82020597  0.74995938  1
  O  O4  1  0.67680441  0.32319559  0.25818004  1
  O  O5  1  0.67680441  0.32319559  0.74181996  1
  O  O6  1  0.32319559  0.67680441  0.25818004  1
  O  O7  1  0.32319559  0.67680441  0.74181996  1
  O  O8  1  -0.00000000  0.50000000  -0.00000000  1
  O  O9  1  -0.00000000  0.50000000  0.50000000  1
  O  O10  1  0.50000000  -0.00000000  -0.00000000  1
  O  O11  1  0.50000000  -0.00000000  0.50000000  1
loop_
_geom_bond_atom_site_label_1
_geom_bond_atom_site_label_2
_geom_bond_distance
_geom_bond_site_symmetry_2
Dy0 O6 2.312326 1_555
Dy0 O4 2.312326 1_555
Dy0 O7 2.312326 1_555
Dy0 O5 2.312326 1_555
Dy0 O11 2.570655 1_555
Dy0 O11 2.570655 1_565
Dy0 O9 2.570655 1_555
Dy0 O9 2.570655 1_655
Ni0 O1 1.889989 1_555
Ni0 O2 1.889989 1_455
Ni0 O4 1.893053 1_455
Ni0 O6 1.893053 1_555
Ni0 O9 1.980642 1_555
Ni0 O8 1.991346 1_555
Ni1 O0 1.889989 1_555
Ni1 O3 1.889989 1_455
Ni1 O5 1.893053 1_455
Ni1 O7 1.893053 1_555
Ni1 O9 1.980642 1_555
Ni1 O8 1.991346 1_556
Ni2 O0 1.889989 1_555
Ni2 O3 1.889989 1_545
Ni2 O7 1.893053 1_545
Ni2 O5 1.893053 1_555
Ni2 O11 1.980642 1_555
Ni2 O10 1.991346 1_556
Ni3 O1 1.889989 1_555
Ni3 O2 1.889989 1_545
Ni3 O6 1.893053 1_545
Ni3 O4 1.893053 1_555
Ni3 O11 1.980642 1_555
Ni3 O10 1.991346 1_555
O0 Sm0 2.377033 1_556
O1 Sm0 2.377033 1_555
O2 Sm0 2.377033 1_665
O3 Sm0 2.377033 1_666
O8 Sm0 2.570655 1_555
O8 Sm0 2.570655 1_565
O10 Sm0 2.570655 1_555
O10 Sm0 2.570655 1_655
