# generated using pymatgen
data_LaV2BiO8
_symmetry_space_group_name_H-M   'P 1'
_cell_length_a   6.21416376
_cell_length_b   6.21416376
_cell_length_c   6.21416376
_cell_angle_alpha   106.21122044
_cell_angle_beta   106.21122044
_cell_angle_gamma   116.20867396
_symmetry_Int_Tables_number   1
_chemical_formula_structural   LaV2BiO8
_chemical_formula_sum   'La1 V2 Bi1 O8'
_cell_volume   182.78767500
_cell_formula_units_Z   1
loop_
 _symmetry_equiv_pos_site_id
 _symmetry_equiv_pos_as_xyz
  1  'x, y, z'
loop_
 _atom_site_type_symbol
 _atom_site_label
 _atom_site_symmetry_multiplicity
 _atom_site_fract_x
 _atom_site_fract_y
 _atom_site_fract_z
 _atom_site_occupancy
  La  La0  1  0.25000000  0.75000000  0.50000000  1
  V  V0  1  0.75000000  0.25000000  0.50000000  1
  V  V1  1  0.50000000  0.50000000  0.00000000  1
  Bi  Bi0  1  0.00000000  0.00000000  0.00000000  1
  O  O0  1  0.91823800  0.59910100  0.68086300  1
  O  O1  1  0.49114500  0.66999400  0.82115100  1
  O  O2  1  0.84884200  0.66999400  0.17884900  1
  O  O3  1  0.91823800  0.23737600  0.31913700  1
  O  O4  1  0.33000600  0.15115700  0.82115100  1
  O  O5  1  0.76262400  0.08176200  0.68086300  1
  O  O6  1  0.40089900  0.08176200  0.31913700  1
  O  O7  1  0.33000600  0.50885500  0.17884900  1
loop_
_geom_bond_atom_site_label_1
_geom_bond_atom_site_label_2
_geom_bond_distance
_geom_bond_site_symmetry_2
La0 O4 2.453108 1_565
La0 O1 2.453108 1_555
La0 O7 2.453108 1_555
La0 O2 2.453112 1_455
La0 O5 2.562693 1_565
La0 O3 2.562693 1_455
La0 O6 2.562698 1_565
La0 O0 2.562698 1_455
Bi0 O0 2.440942 1_444
Bi0 O6 2.440942 1_555
Bi0 O3 2.440945 1_455
Bi0 O5 2.440945 1_454
Bi0 O4 2.544991 1_554
Bi0 O7 2.544991 1_555
Bi0 O1 2.544991 1_444
Bi0 O2 2.544992 1_445
O0 V0 1.744020 1_555
O1 V1 1.739795 1_556
O2 V1 1.739790 1_555
O3 V0 1.744019 1_555
O4 V1 1.739795 1_556
O5 V0 1.744019 1_555
O6 V0 1.744020 1_555
O7 V1 1.739795 1_555
