# generated using pymatgen
data_MgGa
_symmetry_space_group_name_H-M   'P 1'
_cell_length_a   7.72537940
_cell_length_b   7.72537940
_cell_length_c   5.02409800
_cell_angle_alpha   90.00000000
_cell_angle_beta   90.00000000
_cell_angle_gamma   156.20811854
_symmetry_Int_Tables_number   1
_chemical_formula_structural   MgGa
_chemical_formula_sum   'Mg3 Ga3'
_cell_volume   120.96242240
_cell_formula_units_Z   3
loop_
 _symmetry_equiv_pos_site_id
 _symmetry_equiv_pos_as_xyz
  1  'x, y, z'
loop_
 _atom_site_type_symbol
 _atom_site_label
 _atom_site_symmetry_multiplicity
 _atom_site_fract_x
 _atom_site_fract_y
 _atom_site_fract_z
 _atom_site_occupancy
  Mg  Mg0  1  0.98961200  0.01038800  0.00000000  1
  Mg  Mg1  1  0.67570100  0.32429900  0.00000000  1
  Mg  Mg2  1  0.11086500  0.88913500  0.50000000  1
  Ga  Ga0  1  0.33104100  0.66895900  0.00000000  1
  Ga  Ga1  1  0.44192500  0.55807500  0.50000000  1
  Ga  Ga2  1  0.78418900  0.21581100  0.50000000  1
loop_
_geom_bond_atom_site_label_1
_geom_bond_atom_site_label_2
_geom_bond_distance
_geom_bond_site_symmetry_2
Ga0 Mg1 2.837563 1_565
Ga0 Mg1 2.837563 1_455
Ga0 Mg0 2.878125 1_565
Ga0 Mg0 2.878125 1_455
Ga1 Mg2 3.009960 1_545
Ga1 Mg2 3.009960 1_655
Ga1 Mg0 3.060418 1_455
Ga1 Mg0 3.060418 1_565
Ga1 Mg0 3.060418 1_566
Ga1 Mg0 3.060418 1_456
Ga2 Mg1 3.000120 1_556
Ga2 Mg1 3.000120 1_555
Ga2 Mg2 3.066406 1_545
Ga2 Mg2 3.066406 1_655
