# generated using pymatgen
data_LuGePt
_symmetry_space_group_name_H-M   'P 1'
_cell_length_a   4.30152393
_cell_length_b   6.84700891
_cell_length_c   7.50471577
_cell_angle_alpha   90.00000000
_cell_angle_beta   90.00000000
_cell_angle_gamma   90.00000000
_symmetry_Int_Tables_number   1
_chemical_formula_structural   LuGePt
_chemical_formula_sum   'Lu4 Ge4 Pt4'
_cell_volume   221.03318662
_cell_formula_units_Z   4
loop_
 _symmetry_equiv_pos_site_id
 _symmetry_equiv_pos_as_xyz
  1  'x, y, z'
loop_
 _atom_site_type_symbol
 _atom_site_label
 _atom_site_symmetry_multiplicity
 _atom_site_fract_x
 _atom_site_fract_y
 _atom_site_fract_z
 _atom_site_occupancy
  Lu  Lu0  1  0.75000000  0.49729461  0.20398568  1
  Lu  Lu1  1  0.25000000  0.00270539  0.70398568  1
  Lu  Lu2  1  0.75000000  0.99729461  0.29601432  1
  Lu  Lu3  1  0.25000000  0.50270539  0.79601432  1
  Ge  Ge0  1  0.25000000  0.69068579  0.41094564  1
  Ge  Ge1  1  0.25000000  0.19068579  0.08905436  1
  Ge  Ge2  1  0.75000000  0.30931421  0.58905436  1
  Ge  Ge3  1  0.75000000  0.80931421  0.91094564  1
  Pt  Pt0  1  0.25000000  0.79300780  0.08412157  1
  Pt  Pt1  1  0.25000000  0.29300780  0.41587843  1
  Pt  Pt2  1  0.75000000  0.70699220  0.58412157  1
  Pt  Pt3  1  0.75000000  0.20699220  0.91587843  1
loop_
_geom_bond_atom_site_label_1
_geom_bond_atom_site_label_2
_geom_bond_distance
_geom_bond_site_symmetry_2
Lu0 Pt3 2.936990 1_554
Lu0 Pt1 3.018445 1_555
Lu0 Pt1 3.018445 1_655
Lu0 Pt0 3.087811 1_555
Lu0 Pt0 3.087811 1_655
Lu0 Pt2 3.193753 1_555
Lu1 Pt1 2.936990 1_555
Lu1 Pt3 3.018445 1_455
Lu1 Pt3 3.018445 1_555
Lu1 Pt2 3.087811 1_445
Lu1 Pt2 3.087811 1_545
Lu1 Pt0 3.193753 1_546
Lu2 Pt2 2.936990 1_555
Lu2 Pt0 3.018445 1_655
Lu2 Pt0 3.018445 1_555
Lu2 Pt1 3.087811 1_665
Lu2 Pt1 3.087811 1_565
Lu2 Pt3 3.193753 1_564
Lu3 Pt0 2.936990 1_556
Lu3 Pt2 3.018445 1_555
Lu3 Pt2 3.018445 1_455
Lu3 Pt3 3.087811 1_455
Lu3 Pt3 3.087811 1_555
Lu3 Pt1 3.193753 1_555
Ge0 Pt2 2.515412 1_555
Ge0 Pt2 2.515412 1_455
Ge0 Pt0 2.550820 1_555
Ge0 Pt1 2.723156 1_555
Ge0 Lu0 2.965048 1_455
Ge0 Lu0 2.965048 1_555
Ge0 Lu1 3.066042 1_565
Ge0 Lu2 3.126822 1_455
Ge0 Lu2 3.126822 1_555
Ge0 Lu3 3.163504 1_555
Ge1 Pt3 2.515412 1_554
Ge1 Pt3 2.515412 1_454
Ge1 Pt1 2.550820 1_555
Ge1 Pt0 2.723156 1_545
Ge1 Lu2 2.965048 1_545
Ge1 Lu2 2.965048 1_445
Ge1 Lu3 3.066042 1_554
Ge1 Lu0 3.126822 1_555
Ge1 Lu0 3.126822 1_455
Ge1 Lu1 3.163504 1_554
Ge2 Pt1 2.515412 1_555
Ge2 Pt1 2.515412 1_655
Ge2 Pt3 2.550820 1_555
Ge2 Pt2 2.723156 1_555
Ge2 Lu3 2.965048 1_655
Ge2 Lu3 2.965048 1_555
Ge2 Lu2 3.066042 1_545
Ge2 Lu1 3.126822 1_655
Ge2 Lu1 3.126822 1_555
Ge2 Lu0 3.163504 1_555
Ge3 Pt0 2.515412 1_556
Ge3 Pt0 2.515412 1_656
Ge3 Pt2 2.550820 1_555
Ge3 Pt3 2.723156 1_565
Ge3 Lu1 2.965048 1_665
Ge3 Lu1 2.965048 1_565
Ge3 Lu0 3.066042 1_556
Ge3 Lu3 3.126822 1_555
Ge3 Lu3 3.126822 1_655
Ge3 Lu2 3.163504 1_556
