# generated using pymatgen
data_CeSiGe
_symmetry_space_group_name_H-M   'P 1'
_cell_length_a   7.91305803
_cell_length_b   7.91305803
_cell_length_c   7.91305803
_cell_angle_alpha   149.58637683
_cell_angle_beta   149.58637683
_cell_angle_gamma   43.54889738
_symmetry_Int_Tables_number   1
_chemical_formula_structural   CeSiGe
_chemical_formula_sum   'Ce2 Si2 Ge2'
_cell_volume   126.63543292
_cell_formula_units_Z   2
loop_
 _symmetry_equiv_pos_site_id
 _symmetry_equiv_pos_as_xyz
  1  'x, y, z'
loop_
 _atom_site_type_symbol
 _atom_site_label
 _atom_site_symmetry_multiplicity
 _atom_site_fract_x
 _atom_site_fract_y
 _atom_site_fract_z
 _atom_site_occupancy
  Ce  Ce0  1  0.58229100  0.58229100  0.00000000  1
  Ce  Ce1  1  0.33229100  0.83229100  0.50000000  1
  Si  Si0  1  0.99948100  0.99948100  0.00000000  1
  Si  Si1  1  0.74948100  0.24948100  0.50000000  1
  Ge  Ge0  1  0.16522800  0.16522800  0.00000000  1
  Ge  Ge1  1  0.91522800  0.41522800  0.50000000  1
loop_
_geom_bond_atom_site_label_1
_geom_bond_atom_site_label_2
_geom_bond_distance
_geom_bond_site_symmetry_2
Ce0 Si0 3.177683 1_556
Ce0 Si0 3.177683 1_455
Ce0 Si0 3.177683 1_444
Ce0 Si0 3.177683 1_545
Ce0 Ge0 3.178398 1_554
Ce0 Ge0 3.178398 1_565
Ce0 Ge0 3.178398 1_655
Ce0 Ge0 3.178398 1_666
Ce0 Ge1 3.215089 1_555
Ce0 Ge1 3.215089 1_454
Ce0 Si1 3.216515 1_565
Ce0 Si1 3.216515 1_554
Ce1 Si1 3.177683 1_465
Ce1 Si1 3.177683 1_454
Ce1 Si1 3.177683 1_566
Ce1 Si1 3.177683 1_555
Ce1 Ge1 3.178398 1_555
Ce1 Ge1 3.178398 1_566
Ce1 Ge1 3.178398 1_454
Ce1 Ge1 3.178398 1_465
Ce1 Ge0 3.215089 1_555
Ce1 Ge0 3.215089 1_566
Ce1 Si0 3.216515 1_556
Ce1 Si0 3.216515 1_455
Ge0 Si1 2.416923 1_454
Ge0 Si1 2.416923 1_555
Ge0 Si0 2.435974 1_445
Ge1 Si0 2.416923 1_556
Ge1 Si0 2.416923 1_545
Ge1 Si1 2.435974 1_555
