# generated using pymatgen
data_Zn3Mo3O8
_symmetry_space_group_name_H-M   'P 1'
_cell_length_a   6.18938057
_cell_length_b   6.18938057
_cell_length_c   6.23437693
_cell_angle_alpha   61.03812979
_cell_angle_beta   61.03812979
_cell_angle_gamma   61.94359844
_symmetry_Int_Tables_number   1
_chemical_formula_structural   Zn3Mo3O8
_chemical_formula_sum   'Zn3 Mo3 O8'
_cell_volume   173.93501194
_cell_formula_units_Z   1
loop_
 _symmetry_equiv_pos_site_id
 _symmetry_equiv_pos_as_xyz
  1  'x, y, z'
loop_
 _atom_site_type_symbol
 _atom_site_label
 _atom_site_symmetry_multiplicity
 _atom_site_fract_x
 _atom_site_fract_y
 _atom_site_fract_z
 _atom_site_occupancy
  Zn  Zn0  1  0.00000000  0.00000000  0.00000000  1
  Zn  Zn1  1  0.37541300  0.37541300  0.39168700  1
  Zn  Zn2  1  0.62458700  0.62458700  0.60831300  1
  Mo  Mo0  1  0.00000000  0.00000000  0.50000000  1
  Mo  Mo1  1  0.50000000  0.00000000  0.00000000  1
  Mo  Mo2  1  0.00000000  0.50000000  0.00000000  1
  O  O0  1  0.23755200  0.23755200  0.25219600  1
  O  O1  1  0.76239700  0.76239700  0.21956200  1
  O  O2  1  0.23067500  0.76348500  0.74072900  1
  O  O3  1  0.76348500  0.23067500  0.74072900  1
  O  O4  1  0.76244800  0.76244800  0.74780400  1
  O  O5  1  0.23760300  0.23760300  0.78043800  1
  O  O6  1  0.76932500  0.23651500  0.25927100  1
  O  O7  1  0.23651500  0.76932500  0.25927100  1
loop_
_geom_bond_atom_site_label_1
_geom_bond_atom_site_label_2
_geom_bond_distance
_geom_bond_site_symmetry_2
Mo0 O0 2.084275 1_555
Mo0 O4 2.084275 1_445
Mo0 O3 2.101231 1_455
Mo0 O2 2.101231 1_545
Mo0 O7 2.101231 1_545
Mo0 O6 2.101231 1_455
Mo1 O1 2.151918 1_545
Mo1 O5 2.151918 1_554
Mo1 O3 2.170964 1_554
Mo1 O7 2.170964 1_545
Mo1 O0 2.188883 1_555
Mo1 O4 2.188883 1_544
Mo2 O1 2.151918 1_455
Mo2 O5 2.151918 1_554
Mo2 O2 2.170964 1_554
Mo2 O6 2.170964 1_455
Mo2 O0 2.188883 1_555
Mo2 O4 2.188883 1_454
O0 Zn1 2.081966 1_555
O1 Zn2 2.002329 1_555
O1 Zn0 2.081944 1_665
O2 Zn2 2.032537 1_555
O2 Zn0 2.210120 1_566
O3 Zn2 2.032537 1_555
O3 Zn0 2.210120 1_656
O4 Zn2 2.081966 1_555
O5 Zn1 2.002329 1_555
O5 Zn0 2.081944 1_556
O6 Zn1 2.032537 1_555
O6 Zn0 2.210120 1_655
O7 Zn1 2.032537 1_555
O7 Zn0 2.210120 1_565
