# generated using pymatgen
data_Ba3Ta4Ti4O21
_symmetry_space_group_name_H-M   'P 1'
_cell_length_a   9.12876766
_cell_length_b   9.12876766
_cell_length_c   11.92856119
_cell_angle_alpha   89.96993129
_cell_angle_beta   89.96993129
_cell_angle_gamma   60.20478820
_symmetry_Int_Tables_number   1
_chemical_formula_structural   Ba3Ta4Ti4O21
_chemical_formula_sum   'Ba6 Ta8 Ti8 O42'
_cell_volume   862.65159639
_cell_formula_units_Z   2
loop_
 _symmetry_equiv_pos_site_id
 _symmetry_equiv_pos_as_xyz
  1  'x, y, z'
loop_
 _atom_site_type_symbol
 _atom_site_label
 _atom_site_symmetry_multiplicity
 _atom_site_fract_x
 _atom_site_fract_y
 _atom_site_fract_z
 _atom_site_occupancy
  Ba  Ba0  1  0.59472800  0.00248700  0.25028600  1
  Ba  Ba1  1  0.99751300  0.40527200  0.24971400  1
  Ba  Ba2  1  0.40866000  0.59134000  0.25000000  1
  Ba  Ba3  1  0.40527200  0.99751300  0.74971400  1
  Ba  Ba4  1  0.00248700  0.59472800  0.75028600  1
  Ba  Ba5  1  0.59134000  0.40866000  0.75000000  1
  Ta  Ta0  1  0.66900900  0.66185500  0.50010900  1
  Ta  Ta1  1  0.33099100  0.33814500  0.49989100  1
  Ta  Ta2  1  0.33814500  0.33099100  0.99989100  1
  Ta  Ta3  1  0.66185500  0.66900900  0.00010900  1
  Ta  Ta4  1  0.23920200  0.99861400  0.40702900  1
  Ta  Ta5  1  0.76079800  0.00138600  0.59297100  1
  Ta  Ta6  1  0.99861400  0.23920200  0.90702900  1
  Ta  Ta7  1  0.00138600  0.76079800  0.09297100  1
  Ti  Ti0  1  0.00099100  0.75304000  0.40671000  1
  Ti  Ti1  1  0.75431100  0.24549200  0.40338400  1
  Ti  Ti2  1  0.99900900  0.24696000  0.59329000  1
  Ti  Ti3  1  0.24568900  0.75450800  0.59661600  1
  Ti  Ti4  1  0.75304000  0.00099100  0.90671000  1
  Ti  Ti5  1  0.24549200  0.75431100  0.90338400  1
  Ti  Ti6  1  0.24696000  0.99900900  0.09329000  1
  Ti  Ti7  1  0.75450800  0.24568900  0.09661600  1
  O  O0  1  0.20322100  0.00040500  0.24792900  1
  O  O1  1  0.99959500  0.79677900  0.25207100  1
  O  O2  1  0.79234100  0.20765900  0.25000000  1
  O  O3  1  0.79677900  0.99959500  0.75207100  1
  O  O4  1  0.00040500  0.20322100  0.74792900  1
  O  O5  1  0.20765900  0.79234100  0.75000000  1
  O  O6  1  0.79740100  0.00018600  0.42554000  1
  O  O7  1  0.00011900  0.20247600  0.42628600  1
  O  O8  1  0.20283500  0.79690600  0.42624100  1
  O  O9  1  0.20259900  0.99981400  0.57446000  1
  O  O10  1  0.99988100  0.79752400  0.57371400  1
  O  O11  1  0.79716500  0.20309400  0.57375900  1
  O  O12  1  0.20247600  0.00011900  0.92628600  1
  O  O13  1  0.00018600  0.79740100  0.92554000  1
  O  O14  1  0.79690600  0.20283500  0.92624100  1
  O  O15  1  0.79752400  0.99988100  0.07371400  1
  O  O16  1  0.99981400  0.20259900  0.07446000  1
  O  O17  1  0.20309400  0.79716500  0.07375900  1
  O  O18  1  0.68835000  0.48069500  0.39932400  1
  O  O19  1  0.48234600  0.83099600  0.39943900  1
  O  O20  1  0.83229500  0.68794300  0.40183700  1
  O  O21  1  0.16868700  0.51922400  0.39949900  1
  O  O22  1  0.31323300  0.16897700  0.39955000  1
  O  O23  1  0.52008100  0.31178600  0.40143600  1
  O  O24  1  0.31165000  0.51930500  0.60067600  1
  O  O25  1  0.51765400  0.16900400  0.60056100  1
  O  O26  1  0.16770500  0.31205700  0.59816300  1
  O  O27  1  0.83131300  0.48077600  0.60050100  1
  O  O28  1  0.68676700  0.83102300  0.60045000  1
  O  O29  1  0.47991900  0.68821400  0.59856400  1
  O  O30  1  0.31178600  0.52008100  0.90143600  1
  O  O31  1  0.51922400  0.16868700  0.89949900  1
  O  O32  1  0.16897700  0.31323300  0.89955000  1
  O  O33  1  0.83099600  0.48234600  0.89943900  1
  O  O34  1  0.68794300  0.83229500  0.90183700  1
  O  O35  1  0.48069500  0.68835000  0.89932400  1
  O  O36  1  0.68821400  0.47991900  0.09856400  1
  O  O37  1  0.48077600  0.83131300  0.10050100  1
  O  O38  1  0.83102300  0.68676700  0.10045000  1
  O  O39  1  0.16900400  0.51765400  0.10056100  1
  O  O40  1  0.31205700  0.16770500  0.09816300  1
  O  O41  1  0.51930500  0.31165000  0.10067600  1
loop_
_geom_bond_atom_site_label_1
_geom_bond_atom_site_label_2
_geom_bond_distance
_geom_bond_site_symmetry_2
Ba0 O6 2.785536 1_555
Ba0 O15 2.795760 1_545
Ba0 O22 2.863597 1_555
Ba0 O19 2.874028 1_545
Ba0 O37 2.887301 1_545
Ba0 O40 2.891451 1_555
Ba0 O41 3.112727 1_555
Ba0 O23 3.127197 1_555
Ba0 O38 3.158660 1_545
Ba0 O20 3.166437 1_545
Ba0 O2 3.181213 1_555
Ba0 O1 3.207703 1_545
Ba1 O16 2.785536 1_555
Ba1 O7 2.795760 1_655
Ba1 O38 2.863597 1_555
Ba1 O39 2.874028 1_655
Ba1 O21 2.887301 1_655
Ba1 O20 2.891451 1_555
Ba1 O18 3.112727 1_555
Ba1 O36 3.127197 1_555
Ba1 O22 3.158660 1_655
Ba1 O40 3.166437 1_655
Ba1 O2 3.181213 1_555
Ba1 O0 3.207703 1_655
Ba2 O17 2.822668 1_555
Ba2 O8 2.822668 1_555
Ba2 O18 2.855151 1_555
Ba2 O41 2.855151 1_555
Ba2 O36 2.868410 1_555
Ba2 O23 2.868410 1_555
Ba2 O37 3.136953 1_555
Ba2 O21 3.136953 1_555
Ba2 O19 3.143927 1_555
Ba2 O39 3.143927 1_555
Ba2 O1 3.240764 1_455
Ba2 O0 3.240764 1_565
Ba3 O9 2.785536 1_555
Ba3 O12 2.795760 1_565
Ba3 O28 2.863597 1_555
Ba3 O25 2.874028 1_565
Ba3 O31 2.887301 1_565
Ba3 O34 2.891451 1_555
Ba3 O35 3.112727 1_555
Ba3 O29 3.127197 1_555
Ba3 O32 3.158660 1_565
Ba3 O26 3.166437 1_565
Ba3 O5 3.181213 1_555
Ba3 O4 3.207703 1_565
Ba4 O13 2.785536 1_555
Ba4 O10 2.795760 1_455
Ba4 O32 2.863597 1_555
Ba4 O33 2.874028 1_455
Ba4 O27 2.887301 1_455
Ba4 O26 2.891451 1_555
Ba4 O24 3.112727 1_555
Ba4 O30 3.127197 1_555
Ba4 O28 3.158660 1_455
Ba4 O34 3.166437 1_455
Ba4 O5 3.181213 1_555
Ba4 O3 3.207703 1_455
Ba5 O14 2.822668 1_555
Ba5 O11 2.822668 1_555
Ba5 O35 2.855151 1_555
Ba5 O24 2.855151 1_555
Ba5 O29 2.868410 1_555
Ba5 O30 2.868410 1_555
Ba5 O27 3.136953 1_555
Ba5 O31 3.136953 1_555
Ba5 O33 3.143927 1_555
Ba5 O25 3.143927 1_555
Ba5 O3 3.240764 1_545
Ba5 O4 3.240764 1_655
O0 Ti6 1.885845 1_545
O0 Ta4 1.924893 1_545
O1 Ti0 1.885845 1_655
O1 Ta7 1.924893 1_655
O2 Ti1 1.862328 1_555
O2 Ti7 1.862328 1_555
O3 Ti4 1.885845 1_565
O3 Ta5 1.924893 1_565
O4 Ti2 1.885845 1_455
O4 Ta6 1.924893 1_455
O5 Ti5 1.862328 1_555
O5 Ti3 1.862328 1_555
O6 Ta5 2.023933 1_555
O6 Ti1 2.088854 1_555
O6 Ti0 2.104214 1_645
O7 Ti2 2.032308 1_455
O7 Ta4 2.059842 1_545
O7 Ti1 2.094962 1_455
O8 Ta4 2.039676 1_555
O8 Ti3 2.069477 1_555
O8 Ti0 2.084127 1_555
O9 Ta4 2.023933 1_555
O9 Ti3 2.088854 1_555
O9 Ti2 2.104214 1_465
O10 Ti0 2.032308 1_655
O10 Ta5 2.059842 1_565
O10 Ti3 2.094962 1_655
O11 Ta5 2.039676 1_555
O11 Ti1 2.069477 1_555
O11 Ti2 2.084127 1_555
O12 Ti6 2.032308 1_546
O12 Ta6 2.059842 1_455
O12 Ti5 2.094962 1_545
O13 Ta7 2.023933 1_556
O13 Ti5 2.088854 1_555
O13 Ti4 2.104214 1_465
O14 Ta6 2.039676 1_555
O14 Ti7 2.069477 1_556
O14 Ti4 2.084127 1_555
O15 Ti4 2.032308 1_564
O15 Ta7 2.059842 1_655
O15 Ti7 2.094962 1_565
O16 Ta6 2.023933 1_554
O16 Ti7 2.088854 1_555
O16 Ti6 2.104214 1_645
O17 Ta7 2.039676 1_555
O17 Ti5 2.069477 1_554
O17 Ti6 2.084127 1_555
O18 Ti1 1.920959 1_555
O18 Ta0 1.980691 1_555
O19 Ta4 1.975058 1_555
O19 Ta0 2.028594 1_555
O20 Ti0 1.907271 1_655
O20 Ta0 2.000855 1_555
O21 Ti0 1.913001 1_555
O21 Ta1 1.981819 1_555
O22 Ta4 1.981828 1_545
O22 Ta1 2.023534 1_555
O23 Ti1 1.911244 1_555
O23 Ta1 2.000547 1_555
O24 Ti3 1.920959 1_555
O24 Ta1 1.980691 1_555
O25 Ta5 1.975058 1_555
O25 Ta1 2.028594 1_555
O26 Ti2 1.907271 1_455
O26 Ta1 2.000855 1_555
O27 Ti2 1.913001 1_555
O27 Ta0 1.981819 1_555
O28 Ta5 1.981828 1_565
O28 Ta0 2.023534 1_555
O29 Ti3 1.911244 1_555
O29 Ta0 2.000547 1_555
O30 Ti5 1.911244 1_555
O30 Ta2 2.000547 1_555
O31 Ti4 1.913001 1_555
O31 Ta2 1.981819 1_555
O32 Ta6 1.981828 1_455
O32 Ta2 2.023534 1_555
O33 Ta6 1.975058 1_555
O33 Ta3 2.028594 1_556
O34 Ti4 1.907271 1_565
O34 Ta3 2.000855 1_556
O35 Ti5 1.920959 1_555
O35 Ta3 1.980691 1_556
O36 Ti7 1.911244 1_555
O36 Ta3 2.000547 1_555
O37 Ti6 1.913001 1_555
O37 Ta3 1.981819 1_555
O38 Ta7 1.981828 1_655
O38 Ta3 2.023534 1_555
O39 Ta7 1.975058 1_555
O39 Ta2 2.028594 1_554
O40 Ti6 1.907271 1_545
O40 Ta2 2.000855 1_554
O41 Ti7 1.920959 1_555
O41 Ta2 1.980691 1_554
