# generated using pymatgen
data_TbNi3Sn2
_symmetry_space_group_name_H-M   'P 1'
_cell_length_a   4.07663300
_cell_length_b   9.51754100
_cell_length_c   9.51754100
_cell_angle_alpha   119.99999306
_cell_angle_beta   90.00000000
_cell_angle_gamma   90.00000000
_symmetry_Int_Tables_number   1
_chemical_formula_structural   TbNi3Sn2
_chemical_formula_sum   'Tb3 Ni9 Sn6'
_cell_volume   319.80245301
_cell_formula_units_Z   3
loop_
 _symmetry_equiv_pos_site_id
 _symmetry_equiv_pos_as_xyz
  1  'x, y, z'
loop_
 _atom_site_type_symbol
 _atom_site_label
 _atom_site_symmetry_multiplicity
 _atom_site_fract_x
 _atom_site_fract_y
 _atom_site_fract_z
 _atom_site_occupancy
  Tb  Tb0  1  0.00000000  0.00000000  0.00000000  1
  Tb  Tb1  1  0.50000000  0.66666700  0.33333300  1
  Tb  Tb2  1  0.50000000  0.33333300  0.66666700  1
  Ni  Ni0  1  0.00000000  0.81669500  0.18330500  1
  Ni  Ni1  1  0.00000000  0.18330500  0.81669500  1
  Ni  Ni2  1  0.00000000  0.36661100  0.18330500  1
  Ni  Ni3  1  0.00000000  0.63338900  0.81669500  1
  Ni  Ni4  1  0.00000000  0.81669500  0.63338900  1
  Ni  Ni5  1  0.00000000  0.18330500  0.36661100  1
  Ni  Ni6  1  0.00000000  0.50000000  0.50000000  1
  Ni  Ni7  1  0.00000000  0.00000000  0.50000000  1
  Ni  Ni8  1  0.00000000  0.50000000  0.00000000  1
  Sn  Sn0  1  0.50000000  0.67875600  0.67875600  1
  Sn  Sn1  1  0.50000000  0.32124400  0.32124400  1
  Sn  Sn2  1  0.50000000  0.00000000  0.32124400  1
  Sn  Sn3  1  0.50000000  0.00000000  0.67875600  1
  Sn  Sn4  1  0.50000000  0.32124400  0.00000000  1
  Sn  Sn5  1  0.50000000  0.67875600  0.00000000  1
loop_
_geom_bond_atom_site_label_1
_geom_bond_atom_site_label_2
_geom_bond_distance
_geom_bond_site_symmetry_2
Ni0 Sn2 2.575182 1_565
Ni0 Sn2 2.575182 1_465
Ni0 Sn5 2.575182 1_555
Ni0 Sn5 2.575182 1_455
Ni0 Ni8 2.621123 1_555
Ni0 Ni7 2.621123 1_565
Ni0 Tb0 3.021758 1_565
Ni0 Tb1 3.204904 1_555
Ni0 Tb1 3.204904 1_455
Ni1 Sn4 2.575182 1_456
Ni1 Sn4 2.575182 1_556
Ni1 Sn3 2.575182 1_455
Ni1 Sn3 2.575182 1_555
Ni1 Ni7 2.621123 1_555
Ni1 Ni8 2.621123 1_556
Ni1 Tb0 3.021758 1_556
Ni1 Tb2 3.204904 1_455
Ni1 Tb2 3.204904 1_555
Ni2 Sn4 2.575180 1_455
Ni2 Sn4 2.575180 1_555
Ni2 Sn1 2.575185 1_555
Ni2 Sn1 2.575185 1_455
Ni2 Ni8 2.621114 1_555
Ni2 Ni6 2.621123 1_555
Ni2 Tb0 3.021767 1_555
Ni2 Tb1 3.204904 1_555
Ni2 Tb1 3.204904 1_455
Ni3 Sn5 2.575180 1_556
Ni3 Sn5 2.575180 1_456
Ni3 Sn0 2.575185 1_455
Ni3 Sn0 2.575185 1_555
Ni3 Ni8 2.621114 1_556
Ni3 Ni6 2.621123 1_555
Ni3 Tb0 3.021767 1_566
Ni3 Tb2 3.204904 1_455
Ni3 Tb2 3.204904 1_555
Ni4 Sn3 2.575180 1_465
Ni4 Sn3 2.575180 1_565
Ni4 Sn0 2.575185 1_455
Ni4 Sn0 2.575185 1_555
Ni4 Ni7 2.621114 1_565
Ni4 Ni6 2.621123 1_555
Ni4 Tb0 3.021767 1_566
Ni4 Tb1 3.204904 1_455
Ni4 Tb1 3.204904 1_555
Ni5 Sn2 2.575180 1_555
Ni5 Sn2 2.575180 1_455
Ni5 Sn1 2.575185 1_555
Ni5 Sn1 2.575185 1_455
Ni5 Ni7 2.621114 1_555
Ni5 Ni6 2.621123 1_555
Ni5 Tb0 3.021767 1_555
Ni5 Tb2 3.204904 1_455
Ni5 Tb2 3.204904 1_555
Ni6 Sn0 2.655036 1_555
Ni6 Sn0 2.655036 1_455
Ni6 Sn1 2.655036 1_555
Ni6 Sn1 2.655036 1_455
Ni6 Tb1 3.421023 1_455
Ni6 Tb1 3.421023 1_555
Ni6 Tb2 3.421023 1_455
Ni6 Tb2 3.421023 1_555
Ni7 Sn3 2.655036 1_555
Ni7 Sn3 2.655036 1_455
Ni7 Sn2 2.655036 1_455
Ni7 Sn2 2.655036 1_555
Ni7 Tb2 3.421016 1_455
Ni7 Tb1 3.421016 1_445
Ni7 Tb2 3.421016 1_555
Ni7 Tb1 3.421016 1_545
Ni8 Sn5 2.655036 1_555
Ni8 Sn5 2.655036 1_455
Ni8 Sn4 2.655036 1_455
Ni8 Sn4 2.655036 1_555
Ni8 Tb2 3.421016 1_454
Ni8 Tb1 3.421016 1_455
Ni8 Tb2 3.421016 1_554
Ni8 Tb1 3.421016 1_555
Sn0 Tb2 3.231585 1_555
Sn0 Tb1 3.231585 1_555
Sn1 Tb1 3.231585 1_555
Sn1 Tb2 3.231585 1_555
Sn2 Tb1 3.231576 1_545
Sn2 Tb2 3.231581 1_555
Sn3 Tb2 3.231576 1_555
Sn3 Tb1 3.231581 1_545
Sn4 Tb2 3.231576 1_554
Sn4 Tb1 3.231581 1_555
Sn5 Tb1 3.231576 1_555
Sn5 Tb2 3.231581 1_554
