# generated using pymatgen
data_Ti8InCo3NiSn3
_symmetry_space_group_name_H-M   'P 1'
_cell_length_a   15.01091195
_cell_length_b   15.01091195
_cell_length_c   15.01091172
_cell_angle_alpha   17.35941431
_cell_angle_beta   17.35941431
_cell_angle_gamma   17.35941149
_symmetry_Int_Tables_number   1
_chemical_formula_structural   Ti8InCo3NiSn3
_chemical_formula_sum   'Ti8 In1 Co3 Ni1 Sn3'
_cell_volume   262.75801757
_cell_formula_units_Z   1
loop_
 _symmetry_equiv_pos_site_id
 _symmetry_equiv_pos_as_xyz
  1  'x, y, z'
loop_
 _atom_site_type_symbol
 _atom_site_label
 _atom_site_symmetry_multiplicity
 _atom_site_fract_x
 _atom_site_fract_y
 _atom_site_fract_z
 _atom_site_occupancy
  Ti  Ti0  1  0.49984800  0.49984800  0.49984800  1
  Ti  Ti1  1  0.25046400  0.25046400  0.25046400  1
  Ti  Ti2  1  0.99952200  0.99952200  0.99952200  1
  Ti  Ti3  1  0.74941600  0.74941600  0.74941600  1
  Ti  Ti4  1  0.87458500  0.87458500  0.87458500  1
  Ti  Ti5  1  0.62283900  0.62283900  0.62283900  1
  Ti  Ti6  1  0.37540000  0.37540000  0.37540000  1
  Ti  Ti7  1  0.12416300  0.12416300  0.12416300  1
  In  In0  1  0.68611500  0.68611500  0.68611500  1
  Co  Co0  1  0.05928700  0.05928700  0.05928700  1
  Co  Co1  1  0.81388100  0.81388100  0.81388100  1
  Co  Co2  1  0.56031300  0.56031300  0.56031300  1
  Ni  Ni0  1  0.32193700  0.32193700  0.32193700  1
  Sn  Sn0  1  0.43774600  0.43774600  0.43774600  1
  Sn  Sn1  1  0.18730500  0.18730500  0.18730500  1
  Sn  Sn2  1  0.93718000  0.93718000  0.93718000  1
loop_
_geom_bond_atom_site_label_1
_geom_bond_atom_site_label_2
_geom_bond_distance
_geom_bond_site_symmetry_2
Ti1 Ti5 3.136781 1_545
Ti1 Ti5 3.136781 1_455
Ti1 Ti5 3.136781 1_554
Ti1 Ti4 3.225142 1_544
Ti1 Ti4 3.225142 1_454
Ti1 Ti4 3.225143 1_445
Ti2 Ti5 3.246127 1_565
Ti2 Ti5 3.246127 1_655
Ti2 Ti5 3.246128 1_556
In0 Ti2 2.760963 1_545
In0 Ti2 2.760963 1_455
In0 Ti2 2.760964 1_554
In0 Ti6 2.801451 1_565
In0 Ti6 2.801451 1_655
In0 Ti6 2.801451 1_556
In0 Ti5 2.805895 1_555
In0 Ti3 2.807004 1_555
In0 Ni0 2.951770 1_565
In0 Ni0 2.951770 1_655
In0 Ni0 2.951770 1_556
Co0 Ti2 2.650204 1_444
Co0 Ti6 2.724933 1_545
Co0 Ti6 2.724933 1_455
Co0 Ti6 2.724934 1_554
Co0 Ti3 2.815067 1_544
Co0 Ti3 2.815067 1_454
Co0 Ti3 2.815068 1_445
Co0 Ti7 2.876845 1_555
Co0 In0 3.156424 1_544
Co0 In0 3.156424 1_454
Co0 In0 3.156425 1_445
Co1 Ti4 2.691843 1_555
Co1 Ti0 2.752205 1_655
Co1 Ti0 2.752205 1_565
Co1 Ti0 2.752205 1_556
Co1 Ti7 2.808383 1_566
Co1 Ti7 2.808383 1_656
Co1 Ti7 2.808383 1_665
Co1 Ti3 2.858620 1_555
Co2 Ti0 2.681245 1_555
Co2 Ti4 2.748928 1_455
Co2 Ti4 2.748928 1_545
Co2 Ti4 2.748928 1_554
Co2 Ti5 2.772637 1_555
Co2 Ti1 2.815428 1_565
Co2 Ti1 2.815428 1_655
Co2 Ti1 2.815428 1_556
Ni0 Ti6 2.370750 1_555
Ni0 Ti2 2.660182 1_544
Ni0 Ti2 2.660182 1_454
Ni0 Ti2 2.660182 1_445
Ni0 Ti5 2.985023 1_545
Ni0 Ti5 2.985023 1_455
Ni0 Ti5 2.985024 1_554
Ni0 Ti1 3.169381 1_555
Sn0 Ti0 2.753835 1_555
Sn0 Ti7 2.758476 1_655
Sn0 Ti7 2.758476 1_565
Sn0 Ti7 2.758476 1_556
Sn0 Ti6 2.764655 1_555
Sn0 Ti3 2.786570 1_455
Sn0 Ti3 2.786570 1_545
Sn0 Ti3 2.786570 1_554
Sn1 Ti4 2.770863 1_544
Sn1 Ti4 2.770863 1_454
Sn1 Ti4 2.770864 1_445
Sn1 Ti0 2.773462 1_455
Sn1 Ti0 2.773462 1_545
Sn1 Ti0 2.773463 1_554
Sn1 Ti7 2.799953 1_555
Sn1 Ti1 2.800707 1_555
Sn2 Ti5 2.747989 1_565
Sn2 Ti5 2.747989 1_655
Sn2 Ti5 2.747989 1_556
Sn2 Ti1 2.762714 1_566
Sn2 Ti1 2.762714 1_656
Sn2 Ti1 2.762714 1_665
Sn2 Ti2 2.764478 1_555
Sn2 Ti4 2.775697 1_555
