# generated using pymatgen
data_CaMnFeO5
_symmetry_space_group_name_H-M   'P 1'
_cell_length_a   5.41578300
_cell_length_b   5.66063900
_cell_length_c   13.99798800
_cell_angle_alpha   90.00000000
_cell_angle_beta   90.00000000
_cell_angle_gamma   90.00000000
_symmetry_Int_Tables_number   1
_chemical_formula_structural   CaMnFeO5
_chemical_formula_sum   'Ca4 Mn4 Fe4 O20'
_cell_volume   429.13341305
_cell_formula_units_Z   4
loop_
 _symmetry_equiv_pos_site_id
 _symmetry_equiv_pos_as_xyz
  1  'x, y, z'
loop_
 _atom_site_type_symbol
 _atom_site_label
 _atom_site_symmetry_multiplicity
 _atom_site_fract_x
 _atom_site_fract_y
 _atom_site_fract_z
 _atom_site_occupancy
  Ca  Ca0  1  0.74426200  0.96034200  0.84720100  1
  Ca  Ca1  1  0.24426200  0.53965800  0.15279900  1
  Ca  Ca2  1  0.25573800  0.46034200  0.65279900  1
  Ca  Ca3  1  0.75573800  0.03965800  0.34720100  1
  Mn  Mn0  1  0.74870100  0.47812000  0.75386800  1
  Mn  Mn1  1  0.24870100  0.02188000  0.24613200  1
  Mn  Mn2  1  0.25129900  0.97812000  0.74613200  1
  Mn  Mn3  1  0.75129900  0.52188000  0.25386800  1
  Fe  Fe0  1  0.80426200  0.58217900  0.50163900  1
  Fe  Fe1  1  0.30426200  0.91782100  0.49836100  1
  Fe  Fe2  1  0.19573800  0.08217900  0.99836100  1
  Fe  Fe3  1  0.69573800  0.41782100  0.00163900  1
  O  O0  1  0.49572100  0.24648900  0.76984200  1
  O  O1  1  0.99572100  0.25351100  0.23015800  1
  O  O2  1  0.50427900  0.74648900  0.73015800  1
  O  O3  1  0.00427900  0.75351100  0.26984200  1
  O  O4  1  0.99687200  0.74452900  0.73374100  1
  O  O5  1  0.49687200  0.75547100  0.26625900  1
  O  O6  1  0.00312800  0.24452900  0.76625900  1
  O  O7  1  0.50312800  0.25547100  0.23374100  1
  O  O8  1  0.72422500  0.44260400  0.61631500  1
  O  O9  1  0.22422500  0.05739600  0.38368500  1
  O  O10  1  0.27577500  0.94260400  0.88368500  1
  O  O11  1  0.77577500  0.55739600  0.11631500  1
  O  O12  1  0.76121800  0.56287900  0.88692700  1
  O  O13  1  0.26121800  0.93712100  0.11307300  1
  O  O14  1  0.23878200  0.06287900  0.61307300  1
  O  O15  1  0.73878200  0.43712100  0.38692700  1
  O  O16  1  0.64647100  0.87279800  0.48978800  1
  O  O17  1  0.14647100  0.62720200  0.51021200  1
  O  O18  1  0.35352900  0.37279800  0.01021200  1
  O  O19  1  0.85352900  0.12720200  0.98978800  1
loop_
_geom_bond_atom_site_label_1
_geom_bond_atom_site_label_2
_geom_bond_distance
_geom_bond_site_symmetry_2
Ca0 O19 2.286061 1_565
Ca0 O12 2.319415 1_555
Ca0 O0 2.368146 1_565
Ca0 O6 2.416008 1_665
Ca0 O2 2.416376 1_555
Ca0 O4 2.426204 1_555
Ca0 O10 2.590059 1_555
Ca0 O10 2.925235 1_655
Ca1 O18 2.286061 1_555
Ca1 O13 2.319415 1_555
Ca1 O1 2.368146 1_455
Ca1 O7 2.416008 1_555
Ca1 O3 2.416376 1_555
Ca1 O5 2.426204 1_555
Ca1 O11 2.590059 1_455
Ca1 O11 2.925235 1_555
Ca2 O17 2.286061 1_555
Ca2 O14 2.319415 1_555
Ca2 O2 2.368146 1_555
Ca2 O4 2.416008 1_455
Ca2 O0 2.416376 1_555
Ca2 O6 2.426204 1_555
Ca2 O8 2.590059 1_555
Ca2 O8 2.925235 1_455
Ca3 O16 2.286061 1_545
Ca3 O15 2.319415 1_555
Ca3 O3 2.368146 1_645
Ca3 O5 2.416008 1_545
Ca3 O1 2.416376 1_555
Ca3 O7 2.426204 1_555
Ca3 O9 2.590059 1_655
Ca3 O9 2.925235 1_555
Mn0 O0 1.909535 1_555
Mn0 O6 1.917593 1_655
Mn0 O12 1.924556 1_555
Mn0 O8 1.940465 1_555
Mn0 O4 2.039613 1_555
Mn0 O2 2.042111 1_555
Mn1 O1 1.909535 1_455
Mn1 O7 1.917593 1_555
Mn1 O13 1.924556 1_545
Mn1 O9 1.940465 1_555
Mn1 O5 2.039613 1_545
Mn1 O3 2.042111 1_545
Mn2 O2 1.909535 1_555
Mn2 O4 1.917593 1_455
Mn2 O14 1.924556 1_565
Mn2 O10 1.940465 1_555
Mn2 O6 2.039613 1_565
Mn2 O0 2.042111 1_565
Mn3 O3 1.909535 1_655
Mn3 O5 1.917593 1_555
Mn3 O15 1.924556 1_555
Mn3 O11 1.940465 1_555
Mn3 O7 2.039613 1_555
Mn3 O1 2.042111 1_555
Fe0 O15 1.838040 1_555
Fe0 O8 1.840896 1_555
Fe0 O16 1.861213 1_555
Fe0 O17 1.874616 1_655
Fe1 O14 1.838040 1_565
Fe1 O9 1.840896 1_565
Fe1 O17 1.861213 1_555
Fe1 O16 1.874616 1_555
Fe2 O13 1.838040 1_546
Fe2 O10 1.840896 1_545
Fe2 O18 1.861213 1_556
Fe2 O19 1.874616 1_455
Fe3 O12 1.838040 1_554
Fe3 O11 1.840896 1_555
Fe3 O19 1.861213 1_554
Fe3 O18 1.874616 1_555
