# generated using pymatgen
data_Yb4Mg(Ru2O7)2
_symmetry_space_group_name_H-M   'P 1'
_cell_length_a   7.35744810
_cell_length_b   7.36128249
_cell_length_c   7.35776238
_cell_angle_alpha   59.93472614
_cell_angle_beta   59.90167313
_cell_angle_gamma   59.93325012
_symmetry_Int_Tables_number   1
_chemical_formula_structural   Yb4Mg(Ru2O7)2
_chemical_formula_sum   'Yb4 Mg1 Ru4 O14'
_cell_volume   281.28999341
_cell_formula_units_Z   1
loop_
 _symmetry_equiv_pos_site_id
 _symmetry_equiv_pos_as_xyz
  1  'x, y, z'
loop_
 _atom_site_type_symbol
 _atom_site_label
 _atom_site_symmetry_multiplicity
 _atom_site_fract_x
 _atom_site_fract_y
 _atom_site_fract_z
 _atom_site_occupancy
  Yb  Yb0  1  0.50016200  0.00009600  0.50018500  1
  Yb  Yb1  1  0.99988900  0.49988700  0.50036500  1
  Yb  Yb2  1  0.50035300  0.49989700  0.99988500  1
  Yb  Yb3  1  0.50015200  0.49957500  0.50016400  1
  Mg  Mg0  1  0.12364100  0.12582500  0.12361500  1
  Ru  Ru0  1  0.99138400  0.52591200  0.99139900  1
  Ru  Ru1  1  0.52448600  0.99189100  0.99196500  1
  Ru  Ru2  1  0.99198200  0.99191800  0.52442900  1
  Ru  Ru3  1  0.99118500  0.99145100  0.99120100  1
  O  O0  1  0.62456300  0.62519100  0.62455600  1
  O  O1  1  0.37522400  0.37500500  0.37520300  1
  O  O2  1  0.32494600  0.92524100  0.92436800  1
  O  O3  1  0.07218600  0.67848800  0.67792100  1
  O  O4  1  0.92397600  0.32594600  0.92395900  1
  O  O5  1  0.92439800  0.92524600  0.32493700  1
  O  O6  1  0.32461700  0.32514200  0.92473000  1
  O  O7  1  0.32393600  0.92551900  0.32395300  1
  O  O8  1  0.92475300  0.32511900  0.32460800  1
  O  O9  1  0.67789300  0.67848500  0.07221200  1
  O  O10  1  0.07262100  0.07188500  0.67732500  1
  O  O11  1  0.67729800  0.07188500  0.07264600  1
  O  O12  1  0.67856800  0.07220500  0.67858400  1
  O  O13  1  0.07215800  0.67782200  0.07215800  1
loop_
_geom_bond_atom_site_label_1
_geom_bond_atom_site_label_2
_geom_bond_distance
_geom_bond_site_symmetry_2
Mg0 O4 2.076982 1_454
Mg0 O5 2.079111 1_445
Mg0 O2 2.079155 1_544
Mg0 O8 2.081553 1_455
Mg0 O6 2.081586 1_554
Mg0 O7 2.083807 1_545
O0 Yb3 2.250994 1_555
O0 Yb0 2.251683 1_565
O0 Yb1 2.252281 1_555
O0 Yb2 2.252429 1_555
O1 Yb3 2.251227 1_555
O1 Yb0 2.251687 1_555
O1 Yb1 2.252320 1_455
O1 Yb2 2.252348 1_554
O2 Ru3 2.083082 1_455
O2 Ru1 2.083752 1_555
O2 Yb0 2.580619 1_565
O2 Yb2 2.589395 1_555
O3 Ru0 1.906029 1_455
O3 Ru2 1.907975 1_455
O3 Yb3 2.607650 1_555
O3 Yb1 2.614742 1_455
O4 Ru3 2.087338 1_545
O4 Ru0 2.090262 1_555
O4 Yb1 2.576309 1_555
O4 Yb2 2.576320 1_555
O5 Ru3 2.083117 1_554
O5 Ru2 2.083504 1_555
O5 Yb0 2.580822 1_565
O5 Yb1 2.589540 1_555
O6 Ru1 2.079447 1_545
O6 Ru0 2.079735 1_455
O6 Yb3 2.582900 1_555
O6 Yb2 2.594020 1_555
O7 Ru2 2.071868 1_455
O7 Ru1 2.072253 1_554
O7 Yb3 2.594709 1_555
O7 Yb0 2.603183 1_565
O8 Ru2 2.079144 1_545
O8 Ru0 2.079771 1_554
O8 Yb3 2.582993 1_555
O8 Yb1 2.594156 1_555
O9 Ru0 1.905986 1_554
O9 Ru1 1.907732 1_554
O9 Yb3 2.607693 1_555
O9 Yb2 2.614692 1_554
O10 Ru3 1.908026 1_445
O10 Ru2 1.909711 1_445
O10 Yb0 2.604859 1_555
O10 Yb1 2.609081 1_455
O11 Ru3 1.907978 1_544
O11 Ru1 1.909521 1_544
O11 Yb0 2.604982 1_555
O11 Yb2 2.609088 1_554
O12 Ru1 1.906645 1_545
O12 Ru2 1.906814 1_545
O12 Yb3 2.606916 1_555
O12 Yb0 2.617642 1_555
O13 Ru3 1.907796 1_454
O13 Ru0 1.908565 1_454
O13 Yb2 2.608904 1_554
O13 Yb1 2.609143 1_455
