# generated using pymatgen
data_Dy2(SO4)3
_symmetry_space_group_name_H-M   'P 1'
_cell_length_a   9.21792895
_cell_length_b   9.30861594
_cell_length_c   12.75833694
_cell_angle_alpha   90.00000000
_cell_angle_beta   90.00000000
_cell_angle_gamma   90.00000000
_symmetry_Int_Tables_number   1
_chemical_formula_structural   Dy2(SO4)3
_chemical_formula_sum   'Dy8 S12 O48'
_cell_volume   1094.74390537
_cell_formula_units_Z   4
loop_
 _symmetry_equiv_pos_site_id
 _symmetry_equiv_pos_as_xyz
  1  'x, y, z'
loop_
 _atom_site_type_symbol
 _atom_site_label
 _atom_site_symmetry_multiplicity
 _atom_site_fract_x
 _atom_site_fract_y
 _atom_site_fract_z
 _atom_site_occupancy
  Dy  Dy0  1  0.25081339  0.46270417  0.11798326  1
  Dy  Dy1  1  0.74918661  0.53729583  0.88201674  1
  Dy  Dy2  1  0.24918661  0.96270417  0.38201674  1
  Dy  Dy3  1  0.25081339  0.03729583  0.88201674  1
  Dy  Dy4  1  0.75081339  0.03729583  0.61798326  1
  Dy  Dy5  1  0.74918661  0.96270417  0.11798326  1
  Dy  Dy6  1  0.24918661  0.53729583  0.61798326  1
  Dy  Dy7  1  0.75081339  0.46270417  0.38201674  1
  S  S0  1  0.53210203  0.25000000  -0.00000000  1
  S  S1  1  0.46789797  0.75000000  -0.00000000  1
  S  S2  1  0.96789797  0.75000000  0.50000000  1
  S  S3  1  0.03210203  0.25000000  0.50000000  1
  S  S4  1  0.10496800  0.11400462  0.14588327  1
  S  S5  1  0.89503200  0.88599538  0.85411673  1
  S  S6  1  0.39503200  0.61400462  0.35411673  1
  S  S7  1  0.10496800  0.38599538  0.85411673  1
  S  S8  1  0.60496800  0.38599538  0.64588327  1
  S  S9  1  0.89503200  0.61400462  0.14588327  1
  S  S10  1  0.39503200  0.88599538  0.64588327  1
  S  S11  1  0.60496800  0.11400462  0.35411673  1
  O  O0  1  0.16339616  0.08168291  0.04166170  1
  O  O1  1  0.83660384  0.91831709  0.95833830  1
  O  O2  1  0.33660384  0.58168291  0.45833830  1
  O  O3  1  0.16339616  0.41831709  0.95833830  1
  O  O4  1  0.66339616  0.41831709  0.54166170  1
  O  O5  1  0.83660384  0.58168291  0.04166170  1
  O  O6  1  0.33660384  0.91831709  0.54166170  1
  O  O7  1  0.66339616  0.08168291  0.45833830  1
  O  O8  1  0.17026460  0.01569002  0.22244616  1
  O  O9  1  0.82973540  0.98430998  0.77755384  1
  O  O10  1  0.32973540  0.51569002  0.27755384  1
  O  O11  1  0.17026460  0.48430998  0.77755384  1
  O  O12  1  0.67026460  0.48430998  0.72244616  1
  O  O13  1  0.82973540  0.51569002  0.22244616  1
  O  O14  1  0.32973540  0.98430998  0.72244616  1
  O  O15  1  0.67026460  0.01569002  0.27755384  1
  O  O16  1  0.12411686  0.14610223  0.44520417  1
  O  O17  1  0.87588314  0.85389777  0.55479583  1
  O  O18  1  0.37588314  0.64610223  0.05479583  1
  O  O19  1  0.12411686  0.35389777  0.55479583  1
  O  O20  1  0.62411686  0.35389777  0.94520417  1
  O  O21  1  0.87588314  0.64610223  0.44520417  1
  O  O22  1  0.37588314  0.85389777  0.94520417  1
  O  O23  1  0.62411686  0.14610223  0.05479583  1
  O  O24  1  0.13893098  0.26308385  0.17418883  1
  O  O25  1  0.86106902  0.73691615  0.82581117  1
  O  O26  1  0.36106902  0.76308385  0.32581117  1
  O  O27  1  0.13893098  0.23691615  0.82581117  1
  O  O28  1  0.63893098  0.23691615  0.67418883  1
  O  O29  1  0.86106902  0.76308385  0.17418883  1
  O  O30  1  0.36106902  0.73691615  0.67418883  1
  O  O31  1  0.63893098  0.26308385  0.32581117  1
  O  O32  1  0.44076618  0.32410466  0.07713185  1
  O  O33  1  0.55923382  0.67589534  0.92286815  1
  O  O34  1  0.05923382  0.82410466  0.42286815  1
  O  O35  1  0.44076618  0.17589534  0.92286815  1
  O  O36  1  0.94076618  0.17589534  0.57713185  1
  O  O37  1  0.55923382  0.82410466  0.07713185  1
  O  O38  1  0.05923382  0.67589534  0.57713185  1
  O  O39  1  0.94076618  0.32410466  0.42286815  1
  O  O40  1  0.44710791  0.09489055  0.35422418  1
  O  O41  1  0.55289209  0.90510945  0.64577582  1
  O  O42  1  0.05289209  0.59489055  0.14577582  1
  O  O43  1  0.44710791  0.40510945  0.64577582  1
  O  O44  1  0.94710791  0.40510945  0.85422418  1
  O  O45  1  0.55289209  0.59489055  0.35422418  1
  O  O46  1  0.05289209  0.90510945  0.85422418  1
  O  O47  1  0.94710791  0.09489055  0.14577582  1
loop_
_geom_bond_atom_site_label_1
_geom_bond_atom_site_label_2
_geom_bond_distance
_geom_bond_site_symmetry_2
Dy0 O18 2.212129 1_555
Dy0 O10 2.217483 1_555
Dy0 O42 2.228973 1_555
Dy0 O3 2.229039 1_554
Dy0 O32 2.236534 1_555
Dy0 O24 2.242925 1_555
Dy1 O20 2.212129 1_555
Dy1 O12 2.217483 1_555
Dy1 O44 2.228973 1_555
Dy1 O5 2.229039 1_556
Dy1 O33 2.236534 1_555
Dy1 O25 2.242925 1_555
Dy2 O16 2.212129 1_565
Dy2 O8 2.217483 1_565
Dy2 O40 2.228973 1_565
Dy2 O6 2.229039 1_555
Dy2 O34 2.236534 1_555
Dy2 O26 2.242925 1_555
Dy3 O22 2.212129 1_545
Dy3 O14 2.217483 1_545
Dy3 O46 2.228973 1_545
Dy3 O0 2.229039 1_556
Dy3 O35 2.236534 1_555
Dy3 O27 2.242925 1_555
Dy4 O17 2.212129 1_545
Dy4 O9 2.217483 1_545
Dy4 O41 2.228973 1_545
Dy4 O7 2.229039 1_555
Dy4 O36 2.236534 1_555
Dy4 O28 2.242925 1_555
Dy5 O23 2.212129 1_565
Dy5 O15 2.217483 1_565
Dy5 O47 2.228973 1_565
Dy5 O1 2.229039 1_554
Dy5 O37 2.236534 1_555
Dy5 O29 2.242925 1_555
Dy6 O19 2.212129 1_555
Dy6 O11 2.217483 1_555
Dy6 O43 2.228973 1_555
Dy6 O2 2.229039 1_555
Dy6 O38 2.236534 1_555
Dy6 O30 2.242925 1_555
Dy7 O21 2.212129 1_555
Dy7 O13 2.217483 1_555
Dy7 O45 2.228973 1_555
Dy7 O4 2.229039 1_555
Dy7 O39 2.236534 1_555
Dy7 O31 2.242925 1_555
O0 S4 1.465839 1_555
O1 S5 1.465839 1_555
O2 S6 1.465839 1_555
O3 S7 1.465839 1_555
O4 S8 1.465839 1_555
O5 S9 1.465839 1_555
O6 S10 1.465839 1_555
O7 S11 1.465839 1_555
O8 S4 1.467648 1_555
O9 S5 1.467648 1_555
O10 S6 1.467648 1_555
O11 S7 1.467648 1_555
O12 S8 1.467648 1_555
O13 S9 1.467648 1_555
O14 S10 1.467648 1_555
O15 S11 1.467648 1_555
O16 S3 1.464081 1_555
O17 S2 1.464081 1_555
O18 S1 1.464081 1_555
O19 S3 1.464081 1_555
O20 S0 1.464081 1_556
O21 S2 1.464081 1_555
O22 S1 1.464081 1_556
O23 S0 1.464081 1_555
O24 S4 1.467719 1_555
O25 S5 1.467719 1_555
O26 S6 1.467719 1_555
O27 S7 1.467719 1_555
O28 S8 1.467719 1_555
O29 S9 1.467719 1_555
O30 S10 1.467719 1_555
O31 S11 1.467719 1_555
O32 S0 1.467339 1_555
O33 S1 1.467339 1_556
O34 S2 1.467339 1_455
O35 S0 1.467339 1_556
O36 S3 1.467339 1_655
O37 S1 1.467339 1_555
O38 S2 1.467339 1_455
O39 S3 1.467339 1_655
O40 S11 1.465981 1_555
O41 S10 1.465981 1_555
O42 S9 1.465981 1_455
O43 S8 1.465981 1_555
O44 S7 1.465981 1_655
O45 S6 1.465981 1_555
O46 S5 1.465981 1_455
O47 S4 1.465981 1_655
