# generated using pymatgen
data_K2Cd3Te4
_symmetry_space_group_name_H-M   'P 1'
_cell_length_a   7.44986000
_cell_length_b   11.61040700
_cell_length_c   15.42800900
_cell_angle_alpha   90.00000000
_cell_angle_beta   90.00000000
_cell_angle_gamma   90.00000000
_symmetry_Int_Tables_number   1
_chemical_formula_structural   K2Cd3Te4
_chemical_formula_sum   'K8 Cd12 Te16'
_cell_volume   1334.45962692
_cell_formula_units_Z   4
loop_
 _symmetry_equiv_pos_site_id
 _symmetry_equiv_pos_as_xyz
  1  'x, y, z'
loop_
 _atom_site_type_symbol
 _atom_site_label
 _atom_site_symmetry_multiplicity
 _atom_site_fract_x
 _atom_site_fract_y
 _atom_site_fract_z
 _atom_site_occupancy
  K  K0  1  0.97927000  0.25000000  0.53443800  1
  K  K1  1  0.47927000  0.75000000  0.96556200  1
  K  K2  1  0.52073000  0.25000000  0.03443800  1
  K  K3  1  0.02073000  0.75000000  0.46556200  1
  K  K4  1  0.00000000  0.00000000  0.00000000  1
  K  K5  1  0.50000000  0.00000000  0.50000000  1
  K  K6  1  0.00000000  0.50000000  0.00000000  1
  K  K7  1  0.50000000  0.50000000  0.50000000  1
  Cd  Cd0  1  0.34019900  0.59794400  0.25605700  1
  Cd  Cd1  1  0.73011000  0.75000000  0.70227500  1
  Cd  Cd2  1  0.15980100  0.90205600  0.75605700  1
  Cd  Cd3  1  0.65980100  0.09794400  0.74394300  1
  Cd  Cd4  1  0.34019900  0.90205600  0.25605700  1
  Cd  Cd5  1  0.84019900  0.09794400  0.24394300  1
  Cd  Cd6  1  0.65980100  0.40205600  0.74394300  1
  Cd  Cd7  1  0.15980100  0.59794400  0.75605700  1
  Cd  Cd8  1  0.76989000  0.75000000  0.20227500  1
  Cd  Cd9  1  0.26989000  0.25000000  0.29772500  1
  Cd  Cd10  1  0.23011000  0.25000000  0.79772500  1
  Cd  Cd11  1  0.84019900  0.40205600  0.24394300  1
  Te  Te0  1  0.07461100  0.25000000  0.13589000  1
  Te  Te1  1  0.42538900  0.25000000  0.63589000  1
  Te  Te2  1  0.92538900  0.75000000  0.86411000  1
  Te  Te3  1  0.57461100  0.75000000  0.36411000  1
  Te  Te4  1  0.36850200  0.75000000  0.64533500  1
  Te  Te5  1  0.86850200  0.25000000  0.85466500  1
  Te  Te6  1  0.63149800  0.25000000  0.35466500  1
  Te  Te7  1  0.13149800  0.75000000  0.14533500  1
  Te  Te8  1  0.88575100  0.53288900  0.63391500  1
  Te  Te9  1  0.38575100  0.46711100  0.86608500  1
  Te  Te10  1  0.11424900  0.03288900  0.36608500  1
  Te  Te11  1  0.61424900  0.96711100  0.13391500  1
  Te  Te12  1  0.11424900  0.46711100  0.36608500  1
  Te  Te13  1  0.61424900  0.53288900  0.13391500  1
  Te  Te14  1  0.88575100  0.96711100  0.63391500  1
  Te  Te15  1  0.38575100  0.03288900  0.86608500  1
loop_
_geom_bond_atom_site_label_1
_geom_bond_atom_site_label_2
_geom_bond_distance
_geom_bond_site_symmetry_2
K0 Te1 3.673645 1_655
K0 Te8 3.691673 1_555
K0 Te14 3.691673 1_545
K0 Te12 3.756539 1_655
K0 Te10 3.756539 1_655
K0 Te6 3.795397 1_555
K1 Te2 3.673645 1_555
K1 Te15 3.691673 1_565
K1 Te9 3.691673 1_555
K1 Te13 3.756539 1_556
K1 Te11 3.756539 1_556
K1 Te7 3.795397 1_556
K2 Te0 3.673645 1_555
K2 Te13 3.691673 1_555
K2 Te11 3.691673 1_545
K2 Te15 3.756539 1_554
K2 Te9 3.756539 1_554
K2 Te5 3.795397 1_554
K3 Te3 3.673645 1_455
K3 Te10 3.691673 1_565
K3 Te12 3.691673 1_555
K3 Te8 3.756539 1_455
K3 Te14 3.756539 1_455
K3 Te4 3.795397 1_555
K4 Te15 3.559918 1_554
K4 Te11 3.559918 1_445
K4 Te2 3.623454 1_444
K4 Te0 3.623454 1_555
K4 Te5 3.796365 1_454
K4 Te7 3.796365 1_545
K5 Te10 3.559918 1_555
K5 Te14 3.559918 1_545
K5 Te1 3.623454 1_555
K5 Te3 3.623454 1_545
K5 Te6 3.796365 1_555
K5 Te4 3.796365 1_545
K6 Te9 3.559918 1_554
K6 Te13 3.559918 1_455
K6 Te2 3.623454 1_454
K6 Te0 3.623454 1_555
K6 Te5 3.796365 1_454
K6 Te7 3.796365 1_555
K7 Te8 3.559918 1_555
K7 Te12 3.559918 1_555
K7 Te1 3.623454 1_555
K7 Te3 3.623454 1_555
K7 Te4 3.796365 1_555
K7 Te6 3.796365 1_555
Cd0 Te12 2.832397 1_555
Cd0 Te13 2.879195 1_555
Cd0 Te7 2.907258 1_555
Cd0 Te3 2.990898 1_555
Cd1 Te4 2.833543 1_555
Cd1 Te2 2.889709 1_555
Cd1 Te14 2.968319 1_555
Cd1 Te8 2.968319 1_555
Cd2 Te15 2.832397 1_565
Cd2 Te14 2.879195 1_455
Cd2 Te4 2.907258 1_555
Cd2 Te2 2.990898 1_455
Cd3 Te14 2.832397 1_545
Cd3 Te15 2.879195 1_555
Cd3 Te5 2.907258 1_555
Cd3 Te1 2.990898 1_555
Cd4 Te10 2.832397 1_565
Cd4 Te11 2.879195 1_555
Cd4 Te7 2.907258 1_555
Cd4 Te3 2.990898 1_555
Cd5 Te11 2.832397 1_545
Cd5 Te10 2.879195 1_655
Cd5 Te6 2.907258 1_555
Cd5 Te0 2.990898 1_655
Cd6 Te8 2.832397 1_555
Cd6 Te9 2.879195 1_555
Cd6 Te5 2.907258 1_555
Cd6 Te1 2.990898 1_555
Cd7 Te9 2.832397 1_555
Cd7 Te8 2.879195 1_455
Cd7 Te4 2.907258 1_555
Cd7 Te2 2.990898 1_455
Cd8 Te7 2.833543 1_655
Cd8 Te3 2.889709 1_555
Cd8 Te13 2.968319 1_555
Cd8 Te11 2.968319 1_555
Cd9 Te6 2.833543 1_555
Cd9 Te0 2.889709 1_555
Cd9 Te10 2.968319 1_555
Cd9 Te12 2.968319 1_555
Cd10 Te5 2.833543 1_455
Cd10 Te1 2.889709 1_555
Cd10 Te9 2.968319 1_555
Cd10 Te15 2.968319 1_555
Cd11 Te13 2.832397 1_555
Cd11 Te12 2.879195 1_655
Cd11 Te6 2.907258 1_555
Cd11 Te0 2.990898 1_655
