# generated using pymatgen
data_CdH4(C2O3)2
_symmetry_space_group_name_H-M   'P 1'
_cell_length_a   8.54656599
_cell_length_b   8.54656599
_cell_length_c   8.54656694
_cell_angle_alpha   88.67947425
_cell_angle_beta   88.67947425
_cell_angle_gamma   88.67947244
_symmetry_Int_Tables_number   1
_chemical_formula_structural   CdH4(C2O3)2
_chemical_formula_sum   'Cd3 H12 C12 O18'
_cell_volume   623.78376783
_cell_formula_units_Z   3
loop_
 _symmetry_equiv_pos_site_id
 _symmetry_equiv_pos_as_xyz
  1  'x, y, z'
loop_
 _atom_site_type_symbol
 _atom_site_label
 _atom_site_symmetry_multiplicity
 _atom_site_fract_x
 _atom_site_fract_y
 _atom_site_fract_z
 _atom_site_occupancy
  Cd  Cd0  1  0.00000000  0.00000000  0.50000000  1
  Cd  Cd1  1  0.50000000  0.00000000  0.00000000  1
  Cd  Cd2  1  0.00000000  0.50000000  0.00000000  1
  H  H0  1  0.18516300  0.94015000  0.76220700  1
  H  H1  1  0.76220700  0.18516300  0.94015100  1
  H  H2  1  0.94015100  0.76220700  0.18516300  1
  H  H3  1  0.81483700  0.05984900  0.23779300  1
  H  H4  1  0.23779300  0.81483700  0.05984900  1
  H  H5  1  0.05984900  0.23779300  0.81483700  1
  H  H6  1  0.05404400  0.80724700  0.76248200  1
  H  H7  1  0.76248200  0.05404400  0.80724700  1
  H  H8  1  0.80724700  0.76248200  0.05404400  1
  H  H9  1  0.94595600  0.19275300  0.23751800  1
  H  H10  1  0.23751800  0.94595600  0.19275300  1
  H  H11  1  0.19275300  0.23751800  0.94595600  1
  C  C0  1  0.00580300  0.38773800  0.55053300  1
  C  C1  1  0.55053300  0.00580300  0.38773800  1
  C  C2  1  0.38773800  0.55053300  0.00580300  1
  C  C3  1  0.99419700  0.61226200  0.44946700  1
  C  C4  1  0.44946700  0.99419700  0.61226200  1
  C  C5  1  0.61226200  0.44946700  0.99419700  1
  C  C6  1  0.38897400  0.00198600  0.45191400  1
  C  C7  1  0.45191400  0.38897400  0.00198600  1
  C  C8  1  0.00198600  0.45191400  0.38897400  1
  C  C9  1  0.61102600  0.99801400  0.54808600  1
  C  C10  1  0.54808600  0.61102600  0.99801400  1
  C  C11  1  0.99801400  0.54808600  0.61102600  1
  O  O0  1  0.01351100  0.25246500  0.61305900  1
  O  O1  1  0.61305900  0.01351100  0.25246500  1
  O  O2  1  0.25246500  0.61305900  0.01351100  1
  O  O3  1  0.98648900  0.74753500  0.38694100  1
  O  O4  1  0.38694100  0.98648900  0.74753500  1
  O  O5  1  0.74753500  0.38694100  0.98648900  1
  O  O6  1  0.25560000  0.00463900  0.39118100  1
  O  O7  1  0.39118100  0.25560000  0.00463900  1
  O  O8  1  0.00463900  0.39118100  0.25560000  1
  O  O9  1  0.74440000  0.99536100  0.60881900  1
  O  O10  1  0.60881900  0.74440000  0.99536100  1
  O  O11  1  0.99536100  0.60881900  0.74440000  1
  O  O12  1  0.07375700  0.91973100  0.74137000  1
  O  O13  1  0.74137000  0.07375700  0.91973100  1
  O  O14  1  0.91973100  0.74137000  0.07375700  1
  O  O15  1  0.92624300  0.08026900  0.25863000  1
  O  O16  1  0.25863000  0.92624300  0.08026900  1
  O  O17  1  0.08026900  0.25863000  0.92624300  1
loop_
_geom_bond_atom_site_label_1
_geom_bond_atom_site_label_2
_geom_bond_distance
_geom_bond_site_symmetry_2
Cd0 O15 2.257934 1_455
Cd0 O12 2.257934 1_545
Cd0 O6 2.355255 1_555
Cd0 O9 2.355255 1_445
Cd0 O0 2.390697 1_555
Cd0 O3 2.390697 1_445
Cd1 O13 2.257934 1_554
Cd1 O16 2.257934 1_545
Cd1 O7 2.355255 1_555
Cd1 O10 2.355255 1_544
Cd1 O4 2.390698 1_544
Cd1 O1 2.390698 1_555
Cd2 O17 2.257934 1_554
Cd2 O14 2.257934 1_455
Cd2 O8 2.355255 1_555
Cd2 O11 2.355255 1_454
Cd2 O5 2.390697 1_454
Cd2 O2 2.390697 1_555
H0 O12 0.992796 1_555
H1 O13 0.992797 1_555
H2 O14 0.992797 1_555
H3 O15 0.992797 1_555
H4 O16 0.992797 1_555
H5 O17 0.992797 1_555
H6 O12 0.991569 1_555
H7 O13 0.991569 1_555
H8 O14 0.991569 1_555
H9 O15 0.991569 1_555
H10 O16 0.991569 1_555
H11 O17 0.991569 1_555
C0 O0 1.263390 1_555
C1 O1 1.263390 1_555
C2 O2 1.263390 1_555
C3 O3 1.263390 1_555
C4 O4 1.263390 1_555
C5 O5 1.263390 1_555
C6 O6 1.262862 1_555
C7 O7 1.262862 1_555
C8 O8 1.262862 1_555
C9 O9 1.262862 1_555
C10 O10 1.262862 1_555
C11 O11 1.262862 1_555
