# generated using pymatgen
data_Ca7VN6
_symmetry_space_group_name_H-M   'P 1'
_cell_length_a   11.13506110
_cell_length_b   6.32763812
_cell_length_c   12.92723831
_cell_angle_alpha   90.00000000
_cell_angle_beta   90.00000000
_cell_angle_gamma   90.00000000
_symmetry_Int_Tables_number   1
_chemical_formula_structural   Ca7VN6
_chemical_formula_sum   'Ca28 V4 N24'
_cell_volume   910.83559259
_cell_formula_units_Z   4
loop_
 _symmetry_equiv_pos_site_id
 _symmetry_equiv_pos_as_xyz
  1  'x, y, z'
loop_
 _atom_site_type_symbol
 _atom_site_label
 _atom_site_symmetry_multiplicity
 _atom_site_fract_x
 _atom_site_fract_y
 _atom_site_fract_z
 _atom_site_occupancy
  Ca  Ca0  1  0.03579039  0.72910480  0.98068230  1
  Ca  Ca1  1  0.46420961  0.77089520  0.48068230  1
  Ca  Ca2  1  0.53579039  0.77089520  0.01931770  1
  Ca  Ca3  1  0.96420961  0.72910480  0.51931770  1
  Ca  Ca4  1  0.96420961  0.27089520  0.01931770  1
  Ca  Ca5  1  0.53579039  0.22910480  0.51931770  1
  Ca  Ca6  1  0.46420961  0.22910480  0.98068230  1
  Ca  Ca7  1  0.03579039  0.27089520  0.48068230  1
  Ca  Ca8  1  0.23150347  0.84130725  0.62846684  1
  Ca  Ca9  1  0.26849653  0.65869275  0.12846684  1
  Ca  Ca10  1  0.73150347  0.65869275  0.37153316  1
  Ca  Ca11  1  0.76849653  0.84130725  0.87153316  1
  Ca  Ca12  1  0.76849653  0.15869275  0.37153316  1
  Ca  Ca13  1  0.73150347  0.34130725  0.87153316  1
  Ca  Ca14  1  0.26849653  0.34130725  0.62846684  1
  Ca  Ca15  1  0.23150347  0.15869275  0.12846684  1
  Ca  Ca16  1  0.28674020  0.60990189  0.88042862  1
  Ca  Ca17  1  0.21325980  0.89009811  0.38042862  1
  Ca  Ca18  1  0.78674020  0.89009811  0.11957138  1
  Ca  Ca19  1  0.71325980  0.60990189  0.61957138  1
  Ca  Ca20  1  0.71325980  0.39009811  0.11957138  1
  Ca  Ca21  1  0.78674020  0.10990189  0.61957138  1
  Ca  Ca22  1  0.21325980  0.10990189  0.88042862  1
  Ca  Ca23  1  0.28674020  0.39009811  0.38042862  1
  Ca  Ca24  1  0.00000000  0.45132475  0.75000000  1
  Ca  Ca25  1  0.50000000  0.04867525  0.25000000  1
  Ca  Ca26  1  0.00000000  0.54867525  0.25000000  1
  Ca  Ca27  1  0.50000000  0.95132475  0.75000000  1
  V  V0  1  0.00000000  0.95013445  0.75000000  1
  V  V1  1  0.50000000  0.54986555  0.25000000  1
  V  V2  1  0.00000000  0.04986555  0.25000000  1
  V  V3  1  0.50000000  0.45013445  0.75000000  1
  N  N0  1  0.12157953  0.77720959  0.79967165  1
  N  N1  1  0.37842047  0.72279041  0.29967165  1
  N  N2  1  0.62157953  0.72279041  0.20032835  1
  N  N3  1  0.87842047  0.77720959  0.70032835  1
  N  N4  1  0.87842047  0.22279041  0.20032835  1
  N  N5  1  0.62157953  0.27720959  0.70032835  1
  N  N6  1  0.37842047  0.27720959  0.79967165  1
  N  N7  1  0.12157953  0.22279041  0.29967165  1
  N  N8  1  0.16304631  0.58776971  0.50437606  1
  N  N9  1  0.33695369  0.91223029  0.00437606  1
  N  N10  1  0.66304631  0.91223029  0.49562394  1
  N  N11  1  0.83695369  0.58776971  0.99562394  1
  N  N12  1  0.83695369  0.41223029  0.49562394  1
  N  N13  1  0.66304631  0.08776971  0.99562394  1
  N  N14  1  0.33695369  0.08776971  0.50437606  1
  N  N15  1  0.16304631  0.41223029  0.00437606  1
  N  N16  1  0.43596709  0.61839737  0.64832233  1
  N  N17  1  0.06403291  0.88160263  0.14832233  1
  N  N18  1  0.93596709  0.88160263  0.35167767  1
  N  N19  1  0.56403291  0.61839737  0.85167767  1
  N  N20  1  0.56403291  0.38160263  0.35167767  1
  N  N21  1  0.93596709  0.11839737  0.85167767  1
  N  N22  1  0.06403291  0.11839737  0.64832233  1
  N  N23  1  0.43596709  0.38160263  0.14832233  1
loop_
_geom_bond_atom_site_label_1
_geom_bond_atom_site_label_2
_geom_bond_distance
_geom_bond_site_symmetry_2
Ca0 N17 2.393000 1_556
Ca0 N11 2.395656 1_455
Ca0 N15 2.474269 1_556
Ca0 N0 2.545710 1_555
Ca1 N16 2.393000 1_555
Ca1 N10 2.395656 1_555
Ca1 N14 2.474269 1_565
Ca1 N1 2.545710 1_555
Ca2 N19 2.393000 1_554
Ca2 N9 2.395656 1_555
Ca2 N13 2.474269 1_564
Ca2 N2 2.545710 1_555
Ca3 N18 2.393000 1_555
Ca3 N8 2.395656 1_655
Ca3 N12 2.474269 1_555
Ca3 N3 2.545710 1_555
Ca4 N21 2.393000 1_554
Ca4 N15 2.395656 1_655
Ca4 N11 2.474269 1_554
Ca4 N4 2.545710 1_555
Ca5 N20 2.393000 1_555
Ca5 N14 2.395656 1_555
Ca5 N10 2.474269 1_545
Ca5 N5 2.545710 1_555
Ca6 N23 2.393000 1_556
Ca6 N13 2.395656 1_555
Ca6 N9 2.474269 1_546
Ca6 N6 2.545710 1_555
Ca7 N22 2.393000 1_555
Ca7 N12 2.395656 1_455
Ca7 N8 2.474269 1_555
Ca7 N7 2.545710 1_555
Ca8 N8 2.393350 1_555
Ca8 N14 2.526688 1_565
Ca8 N0 2.561441 1_555
Ca8 N22 2.572449 1_565
Ca8 N16 2.690503 1_555
Ca9 N9 2.393350 1_555
Ca9 N15 2.526688 1_555
Ca9 N1 2.561441 1_555
Ca9 N23 2.572449 1_555
Ca9 N17 2.690503 1_555
Ca10 N10 2.393350 1_555
Ca10 N12 2.526688 1_555
Ca10 N2 2.561441 1_555
Ca10 N20 2.572449 1_555
Ca10 N18 2.690503 1_555
Ca11 N11 2.393350 1_555
Ca11 N13 2.526688 1_565
Ca11 N3 2.561441 1_555
Ca11 N21 2.572449 1_565
Ca11 N19 2.690503 1_555
Ca12 N12 2.393350 1_555
Ca12 N10 2.526688 1_545
Ca12 N4 2.561441 1_555
Ca12 N18 2.572449 1_545
Ca12 N20 2.690503 1_555
Ca13 N13 2.393350 1_555
Ca13 N11 2.526688 1_555
Ca13 N5 2.561441 1_555
Ca13 N19 2.572449 1_555
Ca13 N21 2.690503 1_555
Ca14 N14 2.393350 1_555
Ca14 N8 2.526688 1_555
Ca14 N6 2.561441 1_555
Ca14 N16 2.572449 1_555
Ca14 N22 2.690503 1_555
Ca15 N15 2.393350 1_555
Ca15 N9 2.526688 1_545
Ca15 N7 2.561441 1_555
Ca15 N17 2.572449 1_545
Ca15 N23 2.690503 1_555
Ca16 N0 2.364915 1_555
Ca16 N15 2.455384 1_556
Ca16 N9 2.557274 1_556
Ca16 N6 2.561974 1_555
Ca17 N1 2.364915 1_555
Ca17 N14 2.455384 1_565
Ca17 N8 2.557274 1_555
Ca17 N7 2.561974 1_565
Ca18 N2 2.364915 1_555
Ca18 N13 2.455384 1_564
Ca18 N11 2.557274 1_554
Ca18 N4 2.561974 1_565
Ca19 N3 2.364915 1_555
Ca19 N12 2.455384 1_555
Ca19 N10 2.557274 1_555
Ca19 N5 2.561974 1_555
Ca20 N4 2.364915 1_555
Ca20 N11 2.455384 1_554
Ca20 N13 2.557274 1_554
Ca20 N2 2.561974 1_555
Ca21 N5 2.364915 1_555
Ca21 N10 2.455384 1_545
Ca21 N12 2.557274 1_555
Ca21 N3 2.561974 1_545
Ca22 N6 2.364915 1_555
Ca22 N9 2.455384 1_546
Ca22 N15 2.557274 1_556
Ca22 N0 2.561974 1_545
Ca23 N7 2.364915 1_555
Ca23 N8 2.455384 1_555
Ca23 N14 2.557274 1_555
Ca23 N1 2.561974 1_555
Ca24 N3 2.548972 1_455
Ca24 N0 2.548972 1_555
Ca24 N21 2.583411 1_455
Ca24 N22 2.583411 1_555
Ca25 N1 2.548972 1_545
Ca25 N2 2.548972 1_545
Ca25 N20 2.583411 1_555
Ca25 N23 2.583411 1_555
Ca26 N4 2.548972 1_455
Ca26 N7 2.548972 1_555
Ca26 N17 2.583411 1_555
Ca26 N18 2.583411 1_455
Ca27 N5 2.548972 1_565
Ca27 N6 2.548972 1_565
Ca27 N19 2.583411 1_555
Ca27 N16 2.583411 1_555
N0 V0 1.855361 1_555
N1 V1 1.855361 1_555
N2 V1 1.855361 1_555
N3 V0 1.855361 1_655
N4 V2 1.855361 1_655
N5 V3 1.855361 1_555
N6 V3 1.855361 1_555
N7 V2 1.855361 1_555
N16 V3 1.835664 1_555
N17 V2 1.835664 1_565
N18 V2 1.835664 1_665
N19 V3 1.835664 1_555
N20 V1 1.835664 1_555
N21 V0 1.835664 1_645
N22 V0 1.835664 1_545
N23 V1 1.835664 1_555
