# generated using pymatgen
data_Na10Sn4Au13
_symmetry_space_group_name_H-M   'P 1'
_cell_length_a   13.28114468
_cell_length_b   13.28114468
_cell_length_c   13.28114468
_cell_angle_alpha   70.85290730
_cell_angle_beta   70.56478273
_cell_angle_gamma   109.83208250
_symmetry_Int_Tables_number   1
_chemical_formula_structural   Na10Sn4Au13
_chemical_formula_sum   'Na30 Sn12 Au39'
_cell_volume   1803.30411866
_cell_formula_units_Z   3
loop_
 _symmetry_equiv_pos_site_id
 _symmetry_equiv_pos_as_xyz
  1  'x, y, z'
loop_
 _atom_site_type_symbol
 _atom_site_label
 _atom_site_symmetry_multiplicity
 _atom_site_fract_x
 _atom_site_fract_y
 _atom_site_fract_z
 _atom_site_occupancy
  Na  Na0  1  0.99950140  0.62060282  0.00008043  1
  Na  Na1  1  0.37931675  0.37939718  0.62110142  1
  Na  Na2  1  0.62068325  0.99958183  0.99991957  1
  Na  Na3  1  0.00049860  0.00041817  0.37889858  1
  Na  Na4  1  0.00049860  0.37939718  0.99991957  1
  Na  Na5  1  0.62068325  0.62060282  0.37889858  1
  Na  Na6  1  0.37931675  0.00041817  0.00008043  1
  Na  Na7  1  0.99950140  0.99958183  0.62110142  1
  Na  Na8  1  0.69638592  0.57672276  0.11966316  1
  Na  Na9  1  0.30361408  0.42327724  0.88033684  1
  Na  Na10  1  0.69638592  0.81604908  0.88033684  1
  Na  Na11  1  0.30361408  0.18395092  0.11966316  1
  Na  Na12  1  0.87696721  0.29812462  0.82490817  1
  Na  Na13  1  0.12303279  0.70187538  0.17509183  1
  Na  Na14  1  0.12303279  0.29812462  0.57884259  1
  Na  Na15  1  0.87696721  0.70187538  0.42115741  1
  Na  Na16  1  0.42136841  0.12333460  0.70196619  1
  Na  Na17  1  0.57863159  0.87666540  0.29803381  1
  Na  Na18  1  0.17469920  0.87666540  0.70196619  1
  Na  Na19  1  0.82530080  0.12333460  0.29803381  1
  Na  Na20  1  0.20705803  0.50000000  0.29294197  1
  Na  Na21  1  0.79294197  0.50000000  0.70705803  1
  Na  Na22  1  0.29920898  0.79920898  0.50000000  1
  Na  Na23  1  0.70079102  0.20079102  0.50000000  1
  Na  Na24  1  0.50000000  0.68691194  0.81308806  1
  Na  Na25  1  0.50000000  0.31308806  0.18691194  1
  Na  Na26  1  0.10208596  0.60208596  0.50000000  1
  Na  Na27  1  0.89791404  0.39791404  0.50000000  1
  Na  Na28  1  0.50000000  0.89610078  0.60389922  1
  Na  Na29  1  0.50000000  0.10389922  0.39610078  1
  Sn  Sn0  1  0.81315971  0.50356090  0.30959881  1
  Sn  Sn1  1  0.18684029  0.49643910  0.69040119  1
  Sn  Sn2  1  0.81315971  0.12275852  0.69040119  1
  Sn  Sn3  1  0.18684029  0.87724148  0.30959881  1
  Sn  Sn4  1  0.68927556  0.18642729  0.12429715  1
  Sn  Sn5  1  0.31072444  0.81357271  0.87570285  1
  Sn  Sn6  1  0.31072444  0.18642729  0.50284827  1
  Sn  Sn7  1  0.68927556  0.81357271  0.49715173  1
  Sn  Sn8  1  0.50084903  0.31621746  0.81536843  1
  Sn  Sn9  1  0.49915097  0.68378254  0.18463157  1
  Sn  Sn10  1  0.86841411  0.68378254  0.81536843  1
  Sn  Sn11  1  0.13158589  0.31621746  0.18463157  1
  Au  Au0  1  0.96939280  0.41004273  0.24893858  1
  Au  Au1  1  0.34101869  0.58995727  0.44064993  1
  Au  Au2  1  0.65898131  0.21833138  0.75106142  1
  Au  Au3  1  0.03060720  0.78166862  0.55935007  1
  Au  Au4  1  0.44138875  0.03195382  0.21722483  1
  Au  Au5  1  0.24917865  0.65861358  0.78277517  1
  Au  Au6  1  0.55861125  0.34138642  0.40943494  1
  Au  Au7  1  0.75082135  0.96804618  0.59056506  1
  Au  Au8  1  0.59206750  0.56018999  0.65736102  1
  Au  Au9  1  0.40793250  0.75057149  0.03187750  1
  Au  Au10  1  0.78244899  0.43981001  0.96812250  1
  Au  Au11  1  0.21755101  0.24942851  0.34263898  1
  Au  Au12  1  0.03060720  0.58995727  0.75106142  1
  Au  Au13  1  0.65898131  0.41004273  0.55935007  1
  Au  Au14  1  0.34101869  0.78166862  0.24893858  1
  Au  Au15  1  0.96939280  0.21833138  0.44064993  1
  Au  Au16  1  0.55861125  0.96804618  0.78277517  1
  Au  Au17  1  0.75082135  0.34138642  0.21722483  1
  Au  Au18  1  0.44138875  0.65861358  0.59056506  1
  Au  Au19  1  0.24917865  0.03195382  0.40943494  1
  Au  Au20  1  0.40793250  0.43981001  0.34263898  1
  Au  Au21  1  0.59206750  0.24942851  0.96812250  1
  Au  Au22  1  0.21755101  0.56018999  0.03187750  1
  Au  Au23  1  0.78244899  0.75057149  0.65736102  1
  Au  Au24  1  0.00000000  0.00000000  0.00000000  1
  Au  Au25  1  0.90202464  0.74297370  0.15905094  1
  Au  Au26  1  0.09797536  0.25702630  0.84094906  1
  Au  Au27  1  0.90202464  0.06107558  0.84094906  1
  Au  Au28  1  0.09797536  0.93892442  0.15905094  1
  Au  Au29  1  0.84029888  0.09638590  0.06331522  1
  Au  Au30  1  0.15970112  0.90361410  0.93668478  1
  Au  Au31  1  0.15970112  0.09638590  0.74391297  1
  Au  Au32  1  0.84029888  0.90361410  0.25608703  1
  Au  Au33  1  0.25920275  0.16237212  0.90316937  1
  Au  Au34  1  0.74079725  0.83762788  0.09683063  1
  Au  Au35  1  0.93445850  0.83762788  0.90316937  1
  Au  Au36  1  0.06554150  0.16237212  0.09683063  1
  Au  Au37  1  0.40889931  0.50000000  0.09110069  1
  Au  Au38  1  0.59110069  0.50000000  0.90889931  1
loop_
_geom_bond_atom_site_label_1
_geom_bond_atom_site_label_2
_geom_bond_distance
_geom_bond_site_symmetry_2
Na0 Na4 3.208702 1_654
Na0 Sn0 3.444873 1_555
Na0 Sn5 3.445734 1_654
Na0 Sn10 3.498059 1_554
Na0 Na13 3.498765 1_655
Na0 Na18 3.510385 1_654
Na0 Na8 3.551692 1_555
Na1 Na5 3.208702 1_555
Na1 Sn1 3.444873 1_555
Na1 Sn6 3.445734 1_555
Na1 Sn8 3.498059 1_555
Na1 Na14 3.498765 1_555
Na1 Na16 3.510385 1_555
Na1 Na9 3.551692 1_555
Na2 Na6 3.208702 1_566
Na2 Sn2 3.444873 1_565
Na2 Sn4 3.445734 1_566
Na2 Sn9 3.498059 1_556
Na3 Na7 3.208702 1_445
Na3 Sn3 3.444873 1_545
Na3 Sn7 3.445734 1_445
Na3 Sn11 3.498059 1_555
Na4 Sn1 3.444873 1_555
Na4 Sn4 3.445734 1_456
Na4 Sn11 3.498059 1_556
Na4 Na9 3.551692 1_555
Na5 Sn0 3.444873 1_555
Na5 Sn7 3.445734 1_555
Na5 Sn9 3.498059 1_555
Na5 Na8 3.551692 1_555
Na6 Sn3 3.444873 1_545
Na6 Sn5 3.445734 1_544
Na6 Sn8 3.498059 1_554
Na7 Sn2 3.444873 1_565
Na7 Sn6 3.445734 1_665
Na7 Sn10 3.498059 1_555
Na8 Sn10 3.384668 1_554
Na8 Sn9 3.384668 1_555
Na8 Sn0 3.425034 1_555
Na9 Sn8 3.384668 1_555
Na9 Sn11 3.384668 1_556
Na9 Sn1 3.425034 1_555
Na10 Na24 3.172050 1_555
Na10 Sn10 3.384668 1_555
Na10 Sn9 3.384668 1_556
Na10 Sn2 3.425034 1_565
Na10 Na2 3.551692 1_555
Na10 Na7 3.551692 1_555
Na10 Na8 3.684914 1_556
Na11 Na25 3.172050 1_555
Na11 Sn8 3.384668 1_554
Na11 Sn11 3.384668 1_555
Na11 Sn3 3.425034 1_545
Na11 Na6 3.551692 1_555
Na11 Na3 3.551692 1_555
Na11 Na9 3.684914 1_554
Na12 Sn4 3.354137 1_556
Na12 Na21 3.365019 1_555
Na12 Sn1 3.425126 1_655
Na12 Sn2 3.425126 1_555
Na12 Na4 3.498765 1_655
Na12 Na2 3.498765 1_545
Na12 Na14 3.775276 1_655
Na12 Na26 3.956485 1_655
Na12 Na27 3.956485 1_555
Na13 Sn5 3.354137 1_554
Na13 Na20 3.365019 1_555
Na13 Sn3 3.425126 1_555
Na13 Sn0 3.425126 1_455
Na13 Na6 3.498765 1_565
Na13 Na15 3.775276 1_455
Na13 Na26 3.956485 1_555
Na13 Na27 3.956485 1_455
Na14 Sn6 3.354137 1_555
Na14 Na20 3.365019 1_555
Na14 Sn1 3.425126 1_555
Na14 Sn2 3.425126 1_455
Na14 Na7 3.498765 1_445
Na14 Na26 3.956485 1_555
Na14 Na27 3.956485 1_455
Na15 Sn7 3.354137 1_555
Na15 Na21 3.365019 1_555
Na15 Sn3 3.425126 1_655
Na15 Sn0 3.425126 1_555
Na15 Na5 3.498765 1_555
Na15 Na3 3.498765 1_665
Na15 Na26 3.956485 1_655
Na15 Na27 3.956485 1_555
Na16 Na23 3.316662 1_555
Na16 Sn8 3.420397 1_555
Na16 Sn5 3.438449 1_545
Na16 Sn6 3.438449 1_555
Na16 Na6 3.510385 1_556
Na16 Na18 3.765990 1_545
Na16 Na28 3.963161 1_545
Na16 Na29 3.963161 1_555
Na17 Na22 3.316662 1_555
Na17 Sn9 3.420397 1_555
Na17 Sn7 3.438449 1_555
Na17 Sn4 3.438449 1_565
Na17 Na5 3.510385 1_555
Na17 Na2 3.510385 1_554
Na17 Na19 3.765990 1_565
Na17 Na28 3.963161 1_555
Na17 Na29 3.963161 1_565
Na18 Na22 3.316662 1_555
Na18 Sn10 3.420397 1_455
Na18 Sn6 3.438449 1_565
Na18 Sn5 3.438449 1_555
Na18 Na7 3.510384 1_455
Na18 Na29 3.963161 1_565
Na18 Na28 3.963161 1_555
Na19 Na23 3.316662 1_555
Na19 Sn11 3.420397 1_655
Na19 Sn7 3.438449 1_545
Na19 Sn4 3.438449 1_555
Na19 Na3 3.510384 1_655
Na19 Na4 3.510385 1_654
Na19 Na28 3.963161 1_545
Na19 Na29 3.963161 1_555
Na20 Sn11 3.261040 1_555
Na20 Sn9 3.261040 1_555
Na20 Na26 3.538537 1_555
Na20 Na27 3.538537 1_455
Na21 Sn8 3.261040 1_555
Na21 Sn10 3.261040 1_555
Na21 Na26 3.538537 1_655
Na21 Na27 3.538537 1_555
Na22 Na26 3.009550 1_555
Na22 Sn3 3.396697 1_555
Na22 Sn1 3.396697 1_555
Na22 Na29 3.457856 1_565
Na22 Na28 3.457856 1_555
Na23 Na27 3.009550 1_555
Na23 Sn0 3.396697 1_555
Na23 Sn2 3.396697 1_555
Na23 Na28 3.457856 1_545
Na23 Na29 3.457856 1_555
Na24 Na9 3.172050 1_555
Na24 Na28 3.220887 1_555
Na24 Sn7 3.498046 1_555
Na24 Sn5 3.498046 1_555
Na25 Na8 3.172050 1_555
Na25 Na29 3.220887 1_555
Na25 Sn6 3.498046 1_555
Na25 Sn4 3.498046 1_555
Na26 Na27 3.117168 1_455
Na26 Sn3 3.204485 1_555
Na26 Sn1 3.204485 1_555
Na27 Sn0 3.204485 1_555
Na27 Sn2 3.204485 1_555
Na28 Sn7 3.169810 1_555
Na28 Sn5 3.169810 1_555
Na28 Na29 3.199479 1_565
Na29 Sn4 3.169810 1_555
Na29 Sn6 3.169810 1_555
Au0 Sn0 2.791009 1_555
Au0 Sn11 2.866630 1_655
Au0 Au22 2.931919 1_655
Au0 Au17 2.950446 1_555
Au0 Au15 2.951785 1_555
Au0 Na27 3.079392 1_555
Au0 Na23 3.293309 1_555
Au0 Na20 3.295302 1_655
Au0 Na13 3.310016 1_655
Au0 Na19 3.344141 1_555
Au0 Na0 3.347032 1_555
Au0 Na4 3.370777 1_654
Au1 Sn1 2.791009 1_555
Au1 Sn9 2.866630 1_555
Au1 Au20 2.931919 1_555
Au1 Au18 2.950446 1_555
Au1 Au14 2.951785 1_555
Au1 Na26 3.079392 1_555
Au1 Na22 3.293309 1_555
Au1 Na20 3.295302 1_555
Au1 Na14 3.310016 1_555
Au1 Na17 3.344141 1_555
Au1 Na1 3.347032 1_555
Au1 Na5 3.370777 1_555
Au2 Sn2 2.791009 1_555
Au2 Sn8 2.866630 1_555
Au2 Au21 2.931919 1_555
Au2 Na27 3.079392 1_555
Au2 Na23 3.293309 1_555
Au2 Na21 3.295302 1_555
Au2 Na12 3.310016 1_555
Au2 Na16 3.344141 1_555
Au2 Na2 3.347032 1_545
Au2 Na6 3.370777 1_556
Au3 Sn3 2.791009 1_555
Au3 Sn10 2.866630 1_455
Au3 Na26 3.079392 1_555
Au3 Na22 3.293309 1_555
Au3 Na21 3.295302 1_455
Au3 Na15 3.310016 1_455
Au3 Na18 3.344141 1_555
Au3 Na3 3.347032 1_565
Au3 Na7 3.370777 1_455
Au4 Sn4 2.760974 1_555
Au4 Sn3 2.833562 1_545
Au4 Na29 3.062331 1_555
Au4 Na22 3.306024 1_545
Au4 Na2 3.334617 1_544
Au4 Na17 3.335917 1_545
Au4 Na6 3.363376 1_555
Au4 Na11 3.386821 1_555
Au4 Na25 3.397414 1_555
Au5 Sn5 2.760974 1_555
Au5 Sn1 2.833562 1_555
Au5 Na28 3.062331 1_555
Au5 Na22 3.306024 1_555
Au5 Na0 3.334617 1_456
Au5 Na18 3.335917 1_555
Au5 Na4 3.363376 1_555
Au5 Na9 3.386821 1_555
Au5 Na24 3.397414 1_555
Au6 Sn6 2.760974 1_555
Au6 Sn0 2.833562 1_555
Au6 Na29 3.062331 1_555
Au6 Na23 3.306024 1_555
Au6 Na1 3.334617 1_555
Au6 Na16 3.335917 1_555
Au6 Na5 3.363376 1_555
Au6 Na8 3.386821 1_555
Au6 Na25 3.397414 1_555
Au7 Sn7 2.760974 1_555
Au7 Sn2 2.833562 1_565
Au7 Na28 3.062331 1_555
Au7 Na23 3.306024 1_565
Au7 Na3 3.334617 1_665
Au7 Na19 3.335917 1_565
Au7 Na7 3.363376 1_555
Au7 Na10 3.386821 1_555
Au7 Na24 3.397414 1_555
Au8 Sn8 2.748570 1_555
Au8 Sn7 2.836484 1_555
Au8 Na21 3.234939 1_555
Au8 Na24 3.256081 1_555
Au8 Na9 3.308121 1_555
Au8 Na1 3.322911 1_555
Au8 Na15 3.331113 1_555
Au8 Na5 3.372954 1_555
Au9 Sn9 2.748570 1_555
Au9 Sn5 2.836484 1_554
Au9 Na20 3.234939 1_555
Au9 Na24 3.256081 1_554
Au9 Na10 3.308121 1_554
Au9 Na2 3.322911 1_554
Au9 Na13 3.331113 1_555
Au9 Na6 3.372954 1_565
Au10 Sn10 2.748570 1_555
Au10 Sn4 2.836484 1_556
Au10 Au21 2.906625 1_555
Au10 Au12 2.931919 1_655
Au10 Au17 2.948924 1_556
Au10 Au38 3.164210 1_555
Au10 Na21 3.234939 1_555
Au10 Na25 3.256081 1_556
Au10 Na8 3.308121 1_556
Au10 Na0 3.322911 1_556
Au10 Na12 3.331113 1_555
Au10 Na4 3.372954 1_655
Au11 Sn11 2.748570 1_555
Au11 Sn6 2.836484 1_555
Au11 Au20 2.906625 1_555
Au11 Au15 2.931919 1_455
Au11 Au19 2.948924 1_555
Au11 Au37 3.164210 1_555
Au11 Na20 3.234939 1_555
Au11 Na25 3.256081 1_555
Au11 Na11 3.308121 1_555
Au11 Na3 3.322911 1_555
Au11 Na14 3.331113 1_555
Au11 Na7 3.372954 1_445
Au12 Sn1 2.791009 1_555
Au12 Sn10 2.866630 1_455
Au12 Au5 2.950446 1_555
Au12 Au3 2.951785 1_555
Au12 Na26 3.079392 1_555
Au12 Na22 3.293309 1_555
Au12 Na21 3.295302 1_455
Au12 Na12 3.310016 1_455
Au12 Na18 3.344141 1_555
Au12 Na4 3.347032 1_555
Au12 Na0 3.370777 1_456
Au13 Sn0 2.791009 1_555
Au13 Sn8 2.866630 1_555
Au13 Au8 2.931919 1_555
Au13 Au6 2.950446 1_555
Au13 Au2 2.951785 1_555
Au13 Na27 3.079392 1_555
Au13 Na23 3.293309 1_555
Au13 Na21 3.295302 1_555
Au13 Na15 3.310016 1_555
Au13 Na16 3.344141 1_555
Au13 Na5 3.347032 1_555
Au13 Na1 3.370777 1_555
Au14 Sn3 2.791009 1_555
Au14 Sn9 2.866630 1_555
Au14 Au9 2.931919 1_555
Au14 Au4 2.950446 1_565
Au14 Na26 3.079392 1_555
Au14 Na22 3.293309 1_555
Au14 Na20 3.295302 1_555
Au14 Na13 3.310016 1_555
Au14 Na17 3.344141 1_555
Au14 Na6 3.347032 1_565
Au14 Na2 3.370777 1_554
Au15 Sn2 2.791009 1_555
Au15 Sn11 2.866630 1_655
Au15 Au7 2.950446 1_545
Au15 Na27 3.079392 1_555
Au15 Na23 3.293309 1_555
Au15 Na20 3.295302 1_655
Au15 Na14 3.310016 1_655
Au15 Na19 3.344141 1_555
Au15 Na7 3.347032 1_545
Au15 Na3 3.370777 1_655
Au16 Sn5 2.760974 1_555
Au16 Sn2 2.833562 1_565
Au16 Au9 2.948924 1_556
Au16 Au7 2.948995 1_555
Au16 Au2 2.950446 1_565
Au16 Na28 3.062331 1_555
Au16 Na23 3.306024 1_565
Au16 Na6 3.334617 1_566
Au16 Na16 3.335917 1_565
Au16 Na2 3.363376 1_555
Au16 Na10 3.386821 1_555
Au16 Na24 3.397414 1_555
Au17 Sn4 2.760974 1_555
Au17 Sn0 2.833562 1_555
Au17 Au6 2.948995 1_555
Au17 Na29 3.062331 1_555
Au17 Na23 3.306024 1_555
Au17 Na4 3.334617 1_654
Au17 Na19 3.335917 1_555
Au17 Na0 3.363376 1_555
Au17 Na8 3.386821 1_555
Au17 Na25 3.397414 1_555
Au18 Sn7 2.760974 1_555
Au18 Sn1 2.833562 1_555
Au18 Au8 2.948924 1_555
Au18 Au5 2.948995 1_555
Au18 Na28 3.062331 1_555
Au18 Na22 3.306024 1_555
Au18 Na5 3.334617 1_555
Au18 Na17 3.335917 1_555
Au18 Na1 3.363376 1_555
Au18 Na9 3.386821 1_555
Au18 Na24 3.397414 1_555
Au19 Sn6 2.760974 1_555
Au19 Sn3 2.833562 1_545
Au19 Au4 2.948995 1_555
Au19 Au3 2.950446 1_545
Au19 Na29 3.062331 1_555
Au19 Na22 3.306024 1_545
Au19 Na7 3.334617 1_445
Au19 Na18 3.335917 1_545
Au19 Na3 3.363376 1_555
Au19 Na11 3.386821 1_555
Au19 Na25 3.397414 1_555
Au20 Sn9 2.748570 1_555
Au20 Sn6 2.836484 1_555
Au20 Au6 2.948924 1_555
Au20 Au37 3.164209 1_555
Au20 Na20 3.234939 1_555
Au20 Na25 3.256081 1_555
Au20 Na8 3.308121 1_555
Au20 Na5 3.322911 1_555
Au20 Na14 3.331113 1_555
Au20 Na1 3.372954 1_555
Au21 Sn8 2.748570 1_555
Au21 Sn4 2.836484 1_556
Au21 Au4 2.948924 1_556
Au21 Au38 3.164210 1_555
Au21 Na21 3.234939 1_555
Au21 Na25 3.256081 1_556
Au21 Na11 3.308121 1_556
Au21 Na6 3.322911 1_556
Au21 Na12 3.331113 1_555
Au21 Na2 3.372954 1_545
Au22 Sn11 2.748570 1_555
Au22 Sn5 2.836484 1_554
Au22 Au9 2.906625 1_555
Au22 Au5 2.948924 1_554
Au22 Au37 3.164210 1_555
Au22 Na20 3.234939 1_555
Au22 Na24 3.256081 1_554
Au22 Na9 3.308121 1_554
Au22 Na4 3.322911 1_554
Au22 Na13 3.331113 1_555
Au22 Na0 3.372954 1_455
Au23 Sn10 2.748570 1_555
Au23 Sn7 2.836484 1_555
Au23 Au8 2.906625 1_555
Au23 Au3 2.931919 1_655
Au23 Au7 2.948924 1_555
Au23 Au38 3.164210 1_555
Au23 Na21 3.234939 1_555
Au23 Na24 3.256081 1_555
Au23 Na10 3.308121 1_555
Au23 Na7 3.322911 1_555
Au23 Na15 3.331113 1_555
Au23 Na3 3.372954 1_665
Au24 Au29 2.864615 1_455
Au24 Au30 2.864615 1_544
Au24 Au31 2.864615 1_554
Au24 Au32 2.864615 1_445
Au24 Au27 2.869611 1_454
Au24 Au26 2.869611 1_554
Au24 Au28 2.869611 1_545
Au24 Au25 2.869611 1_445
Au24 Au33 2.890072 1_554
Au24 Au34 2.890072 1_445
Au24 Au36 2.890072 1_555
Au24 Au35 2.890072 1_444
Au25 Sn0 2.685853 1_555
Au25 Au28 2.991652 1_655
Au25 Au34 3.028347 1_555
Au25 Au35 3.028347 1_554
Au25 Au30 3.028537 1_654
Au25 Au32 3.028537 1_555
Au25 Na8 3.197599 1_555
Au25 Na13 3.222721 1_655
Au25 Na15 3.222721 1_555
Au25 Na0 3.261072 1_555
Au25 Na5 3.261072 1_555
Au26 Sn1 2.685853 1_555
Au26 Au27 2.991652 1_455
Au26 Au33 3.028347 1_555
Au26 Au36 3.028347 1_556
Au26 Au29 3.028537 1_456
Au26 Au31 3.028537 1_555
Au26 Na9 3.197599 1_555
Au26 Na14 3.222721 1_555
Au26 Na12 3.222721 1_455
Au26 Na1 3.261072 1_555
Au26 Na4 3.261072 1_555
Au27 Sn2 2.685853 1_555
Au27 Au35 3.028347 1_545
Au27 Au34 3.028347 1_546
Au27 Au31 3.028537 1_655
Au27 Au29 3.028537 1_556
Au27 Na10 3.197599 1_545
Au27 Na14 3.222721 1_655
Au27 Na12 3.222721 1_555
Au27 Na2 3.261072 1_545
Au27 Na7 3.261072 1_545
Au28 Sn3 2.685853 1_555
Au28 Au36 3.028347 1_565
Au28 Au33 3.028347 1_564
Au28 Au32 3.028537 1_455
Au28 Au30 3.028537 1_554
Au28 Na11 3.197599 1_565
Au28 Na13 3.222721 1_555
Au28 Na15 3.222721 1_455
Au28 Na6 3.261072 1_565
Au28 Na3 3.261072 1_565
Au29 Sn4 2.700167 1_555
Au29 Au32 2.968113 1_545
Au29 Au34 3.046028 1_545
Au29 Au36 3.046028 1_655
Au29 Na12 3.156713 1_554
Au29 Na17 3.201965 1_545
Au29 Na19 3.201965 1_555
Au29 Na4 3.266373 1_654
Au29 Na2 3.266373 1_544
Au30 Sn5 2.700167 1_555
Au30 Au31 2.968113 1_565
Au30 Au33 3.046028 1_565
Au30 Au35 3.046028 1_455
Au30 Na13 3.156713 1_556
Au30 Na16 3.201965 1_565
Au30 Na18 3.201965 1_555
Au30 Na6 3.266373 1_566
Au30 Na0 3.266373 1_456
Au31 Sn6 2.700167 1_555
Au31 Au35 3.046028 1_445
Au31 Au33 3.046028 1_555
Au31 Na14 3.156713 1_555
Au31 Na18 3.201965 1_545
Au31 Na16 3.201965 1_555
Au31 Na7 3.266373 1_445
Au31 Na1 3.266373 1_555
Au32 Sn7 2.700167 1_555
Au32 Au36 3.046028 1_665
Au32 Au34 3.046028 1_555
Au32 Na15 3.156713 1_555
Au32 Na19 3.201965 1_565
Au32 Na17 3.201965 1_555
Au32 Na3 3.266373 1_665
Au32 Na5 3.266373 1_555
Au33 Sn8 2.707689 1_555
Au33 Au36 2.971259 1_556
Au33 Na16 3.143980 1_555
Au33 Na9 3.201839 1_555
Au33 Na11 3.201839 1_556
Au33 Na1 3.272077 1_555
Au33 Na6 3.272077 1_556
Au34 Sn9 2.707689 1_555
Au34 Au35 2.971259 1_554
Au34 Na17 3.143980 1_555
Au34 Na8 3.201839 1_555
Au34 Na10 3.201839 1_554
Au34 Na2 3.272077 1_554
Au34 Na5 3.272077 1_555
Au35 Sn10 2.707689 1_555
Au35 Na18 3.143980 1_655
Au35 Na10 3.201839 1_555
Au35 Na8 3.201839 1_556
Au35 Na7 3.272077 1_555
Au35 Na0 3.272077 1_556
Au36 Sn11 2.707689 1_555
Au36 Na19 3.143980 1_455
Au36 Na11 3.201839 1_555
Au36 Na9 3.201839 1_554
Au36 Na3 3.272077 1_555
Au36 Na4 3.272077 1_554
Au37 Au38 2.795435 1_554
Au37 Na20 3.096762 1_555
Au37 Sn9 3.151535 1_555
Au37 Sn11 3.151535 1_555
Au37 Au9 3.164210 1_555
Au37 Na25 3.199353 1_555
Au37 Na24 3.199353 1_554
Au38 Na21 3.096762 1_555
Au38 Sn8 3.151535 1_555
Au38 Sn10 3.151535 1_555
Au38 Au8 3.164209 1_555
Au38 Na25 3.199353 1_556
Au38 Na24 3.199353 1_555
