# generated using pymatgen
data_AcLa3
_symmetry_space_group_name_H-M   'P 1'
_cell_length_a   7.73063753
_cell_length_b   7.73063242
_cell_length_c   6.22217332
_cell_angle_alpha   90.00000000
_cell_angle_beta   90.00000000
_cell_angle_gamma   119.99998190
_symmetry_Int_Tables_number   1
_chemical_formula_structural   AcLa3
_chemical_formula_sum   'Ac2 La6'
_cell_volume   322.03505535
_cell_formula_units_Z   2
loop_
 _symmetry_equiv_pos_site_id
 _symmetry_equiv_pos_as_xyz
  1  'x, y, z'
loop_
 _atom_site_type_symbol
 _atom_site_label
 _atom_site_symmetry_multiplicity
 _atom_site_fract_x
 _atom_site_fract_y
 _atom_site_fract_z
 _atom_site_occupancy
  Ac  Ac0  1  0.33333300  0.66666700  0.75000000  1
  Ac  Ac1  1  0.66666700  0.33333300  0.25000000  1
  La  La0  1  0.16376980  0.32753960  0.25000000  1
  La  La1  1  0.67246040  0.83623020  0.25000000  1
  La  La2  1  0.16376980  0.83623020  0.25000000  1
  La  La3  1  0.83623020  0.67246140  0.75000000  1
  La  La4  1  0.32753960  0.16376980  0.75000000  1
  La  La5  1  0.83623020  0.16376980  0.75000000  1
loop_
_geom_bond_atom_site_label_1
_geom_bond_atom_site_label_2
_geom_bond_distance
_geom_bond_site_symmetry_2
Ac0 La2 3.851454 1_556
Ac0 La2 3.851454 1_555
Ac0 La0 3.851457 1_556
Ac0 La0 3.851457 1_555
Ac0 La1 3.851458 1_556
Ac0 La1 3.851458 1_555
Ac0 La4 3.865507 1_565
Ac0 La5 3.865513 1_455
Ac0 La5 3.865513 1_565
Ac0 La3 3.865513 1_455
Ac0 La3 3.865513 1_555
Ac0 La4 3.865515 1_555
Ac1 La5 3.851454 1_554
Ac1 La5 3.851454 1_555
Ac1 La4 3.851458 1_555
Ac1 La4 3.851458 1_554
Ac1 La3 3.851461 1_555
Ac1 La3 3.851461 1_554
Ac1 La1 3.865507 1_545
Ac1 La0 3.865509 1_655
Ac1 La2 3.865513 1_655
Ac1 La2 3.865513 1_545
Ac1 La1 3.865515 1_555
Ac1 La0 3.865517 1_555
La0 La2 3.798132 1_545
La0 La1 3.798135 1_445
La0 La4 3.806240 1_555
La0 La4 3.806240 1_554
La0 La5 3.806241 1_455
La0 La5 3.806241 1_454
La0 La2 3.932500 1_555
La0 La1 3.932502 1_555
La1 La2 3.798135 1_655
La1 La3 3.806237 1_555
La1 La3 3.806237 1_554
La1 La5 3.806240 1_565
La1 La5 3.806240 1_564
La1 La2 3.932503 1_555
La2 La4 3.806240 1_565
La2 La4 3.806240 1_564
La2 La3 3.806241 1_454
La2 La3 3.806241 1_455
La3 La5 3.798125 1_565
La3 La4 3.798131 1_665
La3 La4 3.932506 1_555
La3 La5 3.932508 1_555
La4 La5 3.798135 1_455
La4 La5 3.932503 1_555
