# generated using pymatgen
data_Mg2MnW3S8
_symmetry_space_group_name_H-M   'P 1'
_cell_length_a   6.98811466
_cell_length_b   7.49812084
_cell_length_c   6.98603056
_cell_angle_alpha   62.15229743
_cell_angle_beta   60.08652369
_cell_angle_gamma   62.14661037
_symmetry_Int_Tables_number   1
_chemical_formula_structural   Mg2MnW3S8
_chemical_formula_sum   'Mg2 Mn1 W3 S8'
_cell_volume   267.11541945
_cell_formula_units_Z   1
loop_
 _symmetry_equiv_pos_site_id
 _symmetry_equiv_pos_as_xyz
  1  'x, y, z'
loop_
 _atom_site_type_symbol
 _atom_site_label
 _atom_site_symmetry_multiplicity
 _atom_site_fract_x
 _atom_site_fract_y
 _atom_site_fract_z
 _atom_site_occupancy
  Mg  Mg0  1  0.85779800  0.92557400  0.85782300  1
  Mg  Mg1  1  0.10549300  0.18460700  0.10488000  1
  Mn  Mn0  1  0.52370100  0.93011200  0.52306700  1
  W  W0  1  0.46592800  0.50733400  0.46606300  1
  W  W1  1  0.46587200  0.50769500  0.06059900  1
  W  W2  1  0.06030100  0.50723200  0.46631400  1
  S  S0  1  0.76231800  0.70625400  0.76261200  1
  S  S1  1  0.27848900  0.23775100  0.70642700  1
  S  S2  1  0.23912200  0.78065300  0.23967500  1
  S  S3  1  0.70676900  0.23819700  0.27810000  1
  S  S4  1  0.72650300  0.32081200  0.72680900  1
  S  S5  1  0.26895100  0.70759300  0.76124200  1
  S  S6  1  0.27749700  0.23886400  0.27748500  1
  S  S7  1  0.76126400  0.70731800  0.26890600  1
loop_
_geom_bond_atom_site_label_1
_geom_bond_atom_site_label_2
_geom_bond_distance
_geom_bond_site_symmetry_2
Mg0 S0 2.466127 1_555
Mg0 S7 2.467643 1_556
Mg0 S5 2.467895 1_655
Mg0 S4 2.494964 1_565
Mg1 S6 2.329185 1_555
Mg1 S1 2.329430 1_554
Mg1 S3 2.331224 1_455
Mg1 S2 2.549978 1_545
Mn0 S7 2.437029 1_555
Mn0 S0 2.437621 1_555
Mn0 S5 2.439066 1_555
Mn0 S6 2.602804 1_565
Mn0 S1 2.603047 1_565
Mn0 S3 2.605030 1_565
S0 W1 2.554788 1_556
S0 W2 2.555558 1_655
S1 W2 2.393106 1_555
S1 W0 2.393856 1_555
S2 W1 2.376830 1_555
S2 W0 2.377017 1_555
S2 W2 2.378965 1_555
S3 W0 2.393123 1_555
S3 W1 2.393749 1_555
S4 W0 2.671786 1_555
S4 W2 2.672656 1_655
S4 W1 2.674011 1_556
S5 W1 2.555072 1_556
S5 W0 2.555817 1_555
S6 W2 2.392100 1_555
S6 W1 2.393441 1_555
S7 W2 2.555672 1_655
S7 W0 2.555800 1_555
