# generated using pymatgen
data_K2WSe4
_symmetry_space_group_name_H-M   'P 1'
_cell_length_a   7.20810261
_cell_length_b   9.83364415
_cell_length_c   12.69107548
_cell_angle_alpha   90.00000000
_cell_angle_beta   90.00000000
_cell_angle_gamma   90.00000000
_symmetry_Int_Tables_number   1
_chemical_formula_structural   K2WSe4
_chemical_formula_sum   'K8 W4 Se16'
_cell_volume   899.56774693
_cell_formula_units_Z   4
loop_
 _symmetry_equiv_pos_site_id
 _symmetry_equiv_pos_as_xyz
  1  'x, y, z'
loop_
 _atom_site_type_symbol
 _atom_site_label
 _atom_site_symmetry_multiplicity
 _atom_site_fract_x
 _atom_site_fract_y
 _atom_site_fract_z
 _atom_site_occupancy
  K  K0  1  0.75000000  0.04960189  0.15650786  1
  K  K1  1  0.25000000  0.95039811  0.84349214  1
  K  K2  1  0.75000000  0.54960189  0.34349214  1
  K  K3  1  0.25000000  0.45039811  0.65650786  1
  K  K4  1  0.75000000  0.34458475  0.88623980  1
  K  K5  1  0.25000000  0.65541525  0.11376020  1
  K  K6  1  0.75000000  0.84458475  0.61376020  1
  K  K7  1  0.25000000  0.15541525  0.38623980  1
  W  W0  1  0.75000000  0.75239441  0.93343109  1
  W  W1  1  0.25000000  0.74760559  0.43343109  1
  W  W2  1  0.75000000  0.25239441  0.56656891  1
  W  W3  1  0.25000000  0.24760559  0.06656891  1
  Se  Se0  1  0.25000000  0.27919869  0.88523483  1
  Se  Se1  1  0.25000000  0.77919869  0.61476517  1
  Se  Se2  1  0.75000000  0.22080131  0.38523483  1
  Se  Se3  1  0.75000000  0.48280449  0.61132204  1
  Se  Se4  1  0.75000000  0.98280449  0.88867796  1
  Se  Se5  1  0.25000000  0.01719551  0.11132204  1
  Se  Se6  1  0.49230282  0.14672961  0.63725224  1
  Se  Se7  1  0.25000000  0.51719551  0.38867796  1
  Se  Se8  1  0.00769718  0.64672961  0.86274776  1
  Se  Se9  1  0.50769718  0.35327039  0.13725224  1
  Se  Se10  1  0.00769718  0.14672961  0.63725224  1
  Se  Se11  1  0.99230282  0.85327039  0.36274776  1
  Se  Se12  1  0.99230282  0.35327039  0.13725224  1
  Se  Se13  1  0.49230282  0.64672961  0.86274776  1
  Se  Se14  1  0.50769718  0.85327039  0.36274776  1
  Se  Se15  1  0.75000000  0.72080131  0.11476517  1
loop_
_geom_bond_atom_site_label_1
_geom_bond_atom_site_label_2
_geom_bond_distance
_geom_bond_site_symmetry_2
K0 Se15 3.276420 1_545
K0 Se2 3.355654 1_555
K0 Se4 3.461937 1_544
K0 Se12 3.468044 1_555
K0 Se9 3.468044 1_555
K0 Se5 3.663276 1_655
K0 Se5 3.663276 1_555
K0 Se14 3.691701 1_545
K0 Se11 3.691701 1_545
K1 Se0 3.276420 1_565
K1 Se1 3.355654 1_555
K1 Se5 3.461937 1_566
K1 Se13 3.468044 1_555
K1 Se8 3.468044 1_555
K1 Se4 3.663276 1_455
K1 Se4 3.663276 1_555
K1 Se6 3.691701 1_565
K1 Se10 3.691701 1_565
K2 Se2 3.276420 1_555
K2 Se15 3.355654 1_555
K2 Se3 3.461937 1_555
K2 Se14 3.468044 1_555
K2 Se11 3.468044 1_555
K2 Se7 3.663276 1_555
K2 Se7 3.663276 1_655
K2 Se12 3.691701 1_555
K2 Se9 3.691701 1_555
K3 Se1 3.276420 1_555
K3 Se0 3.355654 1_555
K3 Se7 3.461937 1_555
K3 Se6 3.468044 1_555
K3 Se10 3.468044 1_555
K3 Se3 3.663276 1_555
K3 Se3 3.663276 1_455
K3 Se8 3.691701 1_555
K3 Se13 3.691701 1_555
K4 Se13 3.516698 1_555
K4 Se8 3.516698 1_655
K4 Se4 3.557753 1_545
K4 Se9 3.633988 1_556
K4 Se12 3.633988 1_556
K4 Se0 3.660980 1_655
K4 Se0 3.660980 1_555
K4 Se3 3.744405 1_555
K5 Se9 3.516698 1_555
K5 Se12 3.516698 1_455
K5 Se5 3.557753 1_565
K5 Se13 3.633988 1_554
K5 Se8 3.633988 1_554
K5 Se15 3.660980 1_455
K5 Se15 3.660980 1_555
K5 Se7 3.744405 1_555
K6 Se6 3.516698 1_565
K6 Se10 3.516698 1_665
K6 Se3 3.557753 1_555
K6 Se14 3.633988 1_555
K6 Se11 3.633988 1_555
K6 Se1 3.660980 1_555
K6 Se1 3.660980 1_655
K6 Se4 3.744405 1_555
K7 Se14 3.516698 1_545
K7 Se11 3.516698 1_445
K7 Se7 3.557753 1_555
K7 Se6 3.633988 1_555
K7 Se10 3.633988 1_555
K7 Se2 3.660980 1_555
K7 Se2 3.660980 1_455
K7 Se5 3.744405 1_555
Se0 W3 2.322200 1_556
Se1 W1 2.322200 1_555
Se2 W2 2.322200 1_555
Se3 W2 2.335873 1_555
Se4 W0 2.335873 1_555
Se5 W3 2.335873 1_555
Se6 W2 2.309696 1_555
Se7 W1 2.335873 1_555
Se8 W0 2.309696 1_455
Se9 W3 2.309696 1_555
Se10 W2 2.309696 1_455
Se11 W1 2.309696 1_655
Se12 W3 2.309696 1_655
Se13 W0 2.309696 1_555
Se14 W1 2.309696 1_555
Se15 W0 2.322200 1_554
