# generated using pymatgen
data_Mg6AlCr
_symmetry_space_group_name_H-M   'P 1'
_cell_length_a   4.91841300
_cell_length_b   6.24132000
_cell_length_c   10.71112200
_cell_angle_alpha   90.00000000
_cell_angle_beta   90.00000000
_cell_angle_gamma   90.00000000
_symmetry_Int_Tables_number   1
_chemical_formula_structural   Mg6AlCr
_chemical_formula_sum   'Mg12 Al2 Cr2'
_cell_volume   328.80348321
_cell_formula_units_Z   2
loop_
 _symmetry_equiv_pos_site_id
 _symmetry_equiv_pos_as_xyz
  1  'x, y, z'
loop_
 _atom_site_type_symbol
 _atom_site_label
 _atom_site_symmetry_multiplicity
 _atom_site_fract_x
 _atom_site_fract_y
 _atom_site_fract_z
 _atom_site_occupancy
  Mg  Mg0  1  0.00000000  0.25554600  0.08588900  1
  Mg  Mg1  1  0.00000000  0.74445400  0.08588900  1
  Mg  Mg2  1  0.00000000  0.50000000  0.83254800  1
  Mg  Mg3  1  0.50000000  0.24560900  0.91521100  1
  Mg  Mg4  1  0.50000000  0.75439100  0.91521100  1
  Mg  Mg5  1  0.50000000  0.50000000  0.66622700  1
  Mg  Mg6  1  0.00000000  0.75554600  0.58588900  1
  Mg  Mg7  1  0.00000000  0.24445400  0.58588900  1
  Mg  Mg8  1  0.00000000  0.00000000  0.33254800  1
  Mg  Mg9  1  0.50000000  0.74560900  0.41521100  1
  Mg  Mg10  1  0.50000000  0.25439100  0.41521100  1
  Mg  Mg11  1  0.50000000  0.00000000  0.16622700  1
  Al  Al0  1  0.00000000  0.50000000  0.32659300  1
  Al  Al1  1  0.00000000  0.00000000  0.82659300  1
  Cr  Cr0  1  0.50000000  0.50000000  0.17243200  1
  Cr  Cr1  1  0.50000000  0.00000000  0.67243200  1
loop_
_geom_bond_atom_site_label_1
_geom_bond_atom_site_label_2
_geom_bond_distance
_geom_bond_site_symmetry_2
Mg0 Mg1 3.051431 1_555
Mg0 Mg11 3.054836 1_555
Mg0 Mg11 3.054836 1_455
Mg0 Mg3 3.064912 1_554
Mg0 Mg3 3.064912 1_454
Mg0 Mg8 3.086095 1_555
Mg0 Mg2 3.113077 1_554
Mg0 Mg1 3.189889 1_545
Mg1 Mg11 3.054836 1_565
Mg1 Mg11 3.054836 1_465
Mg1 Mg4 3.064912 1_554
Mg1 Mg4 3.064912 1_454
Mg1 Mg8 3.086095 1_565
Mg1 Mg2 3.113077 1_554
Mg2 Mg5 3.036673 1_455
Mg2 Mg5 3.036673 1_555
Mg2 Mg3 3.058195 1_455
Mg2 Mg4 3.058195 1_455
Mg2 Mg3 3.058195 1_555
Mg2 Mg4 3.058195 1_555
Mg2 Mg6 3.086095 1_555
Mg2 Mg7 3.086095 1_555
Mg3 Mg4 3.065849 1_545
Mg3 Mg5 3.103748 1_555
Mg3 Mg4 3.175471 1_555
Mg4 Mg5 3.103748 1_555
Mg5 Mg7 3.054836 1_655
Mg5 Mg7 3.054836 1_555
Mg5 Mg6 3.054836 1_655
Mg5 Mg6 3.054836 1_555
Mg5 Mg9 3.094958 1_555
Mg6 Mg7 3.051431 1_565
Mg6 Mg9 3.064912 1_455
Mg6 Mg9 3.064912 1_555
Mg6 Mg8 3.113077 1_565
Mg6 Mg7 3.189889 1_555
Mg7 Mg8 3.113077 1_555
Mg8 Mg9 3.058195 1_545
Mg8 Mg9 3.058195 1_445
Mg10 Mg8 3.058195 1_655
Mg10 Mg8 3.058195 1_555
Mg10 Mg7 3.064912 1_555
Mg10 Mg7 3.064912 1_655
Mg10 Mg9 3.065849 1_555
Mg10 Mg5 3.094958 1_555
Mg10 Mg11 3.103748 1_555
Mg10 Mg9 3.175471 1_545
Mg11 Mg8 3.036673 1_655
Mg11 Mg8 3.036673 1_555
Mg11 Mg4 3.094958 1_544
Mg11 Mg3 3.094958 1_554
Mg11 Mg9 3.103748 1_545
Al0 Cr0 2.962141 1_455
Al0 Cr0 2.962141 1_555
Al0 Mg1 2.995826 1_555
Al0 Mg0 2.995826 1_555
Al0 Mg9 3.049349 1_455
Al0 Mg9 3.049349 1_555
Al0 Mg10 3.049349 1_455
Al0 Mg10 3.049349 1_555
Al0 Mg8 3.121312 1_565
Al0 Mg8 3.121312 1_555
Al0 Mg7 3.202737 1_555
Al0 Mg6 3.202737 1_555
Al1 Cr1 2.962141 1_455
Al1 Cr1 2.962141 1_555
Al1 Mg6 2.995826 1_545
Al1 Mg7 2.995826 1_555
Al1 Mg4 3.049349 1_545
Al1 Mg3 3.049349 1_455
Al1 Mg3 3.049349 1_555
Al1 Mg4 3.049349 1_445
Al1 Mg2 3.121312 1_555
Al1 Mg2 3.121312 1_545
Al1 Mg1 3.202737 1_546
Al1 Mg0 3.202737 1_556
Cr0 Mg9 3.018629 1_555
Cr0 Mg10 3.018629 1_555
Cr0 Mg1 3.038879 1_555
Cr0 Mg1 3.038879 1_655
Cr0 Mg0 3.038879 1_555
Cr0 Mg0 3.038879 1_655
Cr0 Mg11 3.121368 1_555
Cr0 Mg11 3.121368 1_565
Cr0 Mg4 3.179878 1_554
Cr0 Mg3 3.179878 1_554
Cr1 Mg3 3.018629 1_555
Cr1 Mg4 3.018629 1_545
Cr1 Mg7 3.038879 1_655
Cr1 Mg6 3.038879 1_645
Cr1 Mg6 3.038879 1_545
Cr1 Mg7 3.038879 1_555
Cr1 Mg5 3.121368 1_545
Cr1 Mg5 3.121368 1_555
Cr1 Mg10 3.179878 1_555
Cr1 Mg9 3.179878 1_545
