# generated using pymatgen
data_Li2B
_symmetry_space_group_name_H-M   'P 1'
_cell_length_a   4.10534769
_cell_length_b   7.73641528
_cell_length_c   7.73641612
_cell_angle_alpha   60.01908409
_cell_angle_beta   89.94371216
_cell_angle_gamma   89.94372880
_symmetry_Int_Tables_number   1
_chemical_formula_structural   Li2B
_chemical_formula_sum   'Li16 B8'
_cell_volume   212.83516085
_cell_formula_units_Z   8
loop_
 _symmetry_equiv_pos_site_id
 _symmetry_equiv_pos_as_xyz
  1  'x, y, z'
loop_
 _atom_site_type_symbol
 _atom_site_label
 _atom_site_symmetry_multiplicity
 _atom_site_fract_x
 _atom_site_fract_y
 _atom_site_fract_z
 _atom_site_occupancy
  Li  Li0_0  1  0.00304950  0.16662650  0.16662650  1
  Li  Li0_1  1  0.00304950  0.16662650  0.66662650  1
  Li  Li0_2  1  0.00304950  0.66662650  0.16662650  1
  Li  Li0_3  1  0.00304950  0.66662650  0.66662650  1
  Li  Li0_4  1  0.50304950  0.16662650  0.16662650  1
  Li  Li0_5  1  0.50304950  0.16662650  0.66662650  1
  Li  Li0_6  1  0.50304950  0.66662650  0.16662650  1
  Li  Li0_7  1  0.50304950  0.66662650  0.66662650  1
  Li  Li1_0  1  0.49695050  0.33337350  0.33337350  1
  Li  Li1_1  1  0.49695050  0.33337350  0.83337350  1
  Li  Li1_2  1  0.49695050  0.83337350  0.33337350  1
  Li  Li1_3  1  0.49695050  0.83337350  0.83337350  1
  Li  Li1_4  1  0.99695050  0.33337350  0.33337350  1
  Li  Li1_5  1  0.99695050  0.33337350  0.83337350  1
  Li  Li1_6  1  0.99695050  0.83337350  0.33337350  1
  Li  Li1_7  1  0.99695050  0.83337350  0.83337350  1
  B  B0_0  1  0.25000000  0.00000000  0.00000000  1
  B  B0_1  1  0.25000000  1.00000000  0.50000000  1
  B  B0_2  1  0.25000000  0.50000000  0.00000000  1
  B  B0_3  1  0.25000000  0.50000000  0.50000000  1
  B  B0_4  1  0.75000000  0.00000000  0.00000000  1
  B  B0_5  1  0.75000000  0.00000000  0.50000000  1
  B  B0_6  1  0.75000000  0.50000000  0.00000000  1
  B  B0_7  1  0.75000000  0.50000000  0.50000000  1
loop_
_geom_bond_atom_site_label_1
_geom_bond_atom_site_label_2
_geom_bond_distance
_geom_bond_site_symmetry_2
Li0_0 Li0_4 2.052674 1_555
Li0_0 Li0_4 2.052674 1_455
Li0_0 Li1_6 2.233357 1_445
Li0_0 Li1_5 2.233357 1_454
Li0_0 Li1_4 2.234284 1_455
Li0_1 Li0_5 2.052674 1_555
Li0_1 Li0_5 2.052674 1_455
Li0_1 Li1_7 2.233357 1_445
Li0_1 Li1_4 2.233357 1_455
Li0_1 Li1_5 2.234284 1_455
Li0_2 Li0_6 2.052674 1_555
Li0_2 Li0_6 2.052674 1_455
Li0_2 Li1_4 2.233357 1_455
Li0_2 Li1_7 2.233357 1_454
Li0_2 Li1_6 2.234284 1_455
Li0_3 Li0_7 2.052674 1_555
Li0_3 Li0_7 2.052674 1_455
Li0_3 Li1_5 2.233357 1_455
Li0_3 Li1_6 2.233357 1_455
Li0_3 Li1_7 2.234284 1_455
Li0_4 Li1_2 2.233357 1_545
Li0_4 Li1_1 2.233357 1_554
Li0_4 Li1_0 2.234284 1_555
Li0_5 Li1_3 2.233357 1_545
Li0_5 Li1_0 2.233357 1_555
Li0_5 Li1_1 2.234284 1_555
Li0_6 Li1_0 2.233357 1_555
Li0_6 Li1_3 2.233357 1_554
Li0_6 Li1_2 2.234284 1_555
Li0_7 Li1_1 2.233357 1_555
Li0_7 Li1_2 2.233357 1_555
Li0_7 Li1_3 2.234284 1_555
Li1_0 Li1_4 2.052674 1_555
Li1_0 Li1_4 2.052674 1_455
Li1_1 Li1_5 2.052674 1_555
Li1_1 Li1_5 2.052674 1_455
Li1_2 Li1_6 2.052674 1_555
Li1_2 Li1_6 2.052674 1_455
Li1_3 Li1_7 2.052674 1_555
Li1_3 Li1_7 2.052674 1_455
B0_0 B0_4 2.052674 1_555
B0_0 B0_4 2.052674 1_455
B0_0 Li1_3 2.450919 1_544
B0_0 Li0_0 2.450919 1_555
B0_0 Li1_1 2.453812 1_554
B0_0 Li0_2 2.453812 1_545
B0_0 Li1_2 2.453812 1_545
B0_0 Li0_1 2.453812 1_554
B0_0 Li0_5 2.463207 1_554
B0_0 Li1_6 2.463207 1_445
B0_0 Li1_5 2.463207 1_454
B0_0 Li0_6 2.463207 1_545
B0_0 Li0_4 2.463493 1_555
B0_0 Li1_7 2.463493 1_444
B0_1 B0_5 2.052674 1_565
B0_1 B0_5 2.052674 1_465
B0_1 Li1_2 2.450919 1_555
B0_1 Li0_1 2.450919 1_565
B0_1 Li0_3 2.453812 1_555
B0_1 Li1_0 2.453812 1_565
B0_1 Li1_3 2.453812 1_555
B0_1 Li0_0 2.453812 1_565
B0_1 Li1_7 2.463207 1_455
B0_1 Li0_4 2.463207 1_565
B0_1 Li0_7 2.463207 1_555
B0_1 Li1_4 2.463207 1_465
B0_1 Li0_5 2.463493 1_565
B0_1 Li1_6 2.463493 1_455
B0_2 B0_6 2.052674 1_555
B0_2 B0_6 2.052674 1_455
B0_2 Li0_2 2.450919 1_555
B0_2 Li1_1 2.450919 1_554
B0_2 Li0_0 2.453812 1_555
B0_2 Li1_3 2.453812 1_554
B0_2 Li0_3 2.453812 1_554
B0_2 Li1_0 2.453812 1_555
B0_2 Li0_7 2.463207 1_554
B0_2 Li1_4 2.463207 1_455
B0_2 Li0_4 2.463207 1_555
B0_2 Li1_7 2.463207 1_454
B0_2 Li0_6 2.463493 1_555
B0_2 Li1_5 2.463493 1_454
B0_3 B0_7 2.052674 1_555
B0_3 B0_7 2.052674 1_455
B0_3 Li1_0 2.450919 1_555
B0_3 Li0_3 2.450919 1_555
B0_3 Li0_1 2.453812 1_555
B0_3 Li1_2 2.453812 1_555
B0_3 Li1_1 2.453812 1_555
B0_3 Li0_2 2.453812 1_555
B0_3 Li0_6 2.463207 1_555
B0_3 Li1_5 2.463207 1_455
B0_3 Li0_5 2.463207 1_555
B0_3 Li1_6 2.463207 1_455
B0_3 Li1_4 2.463493 1_455
B0_3 Li0_7 2.463493 1_555
B0_4 Li0_4 2.450919 1_555
B0_4 Li1_7 2.450919 1_544
B0_4 Li1_5 2.453812 1_554
B0_4 Li0_6 2.453812 1_545
B0_4 Li0_5 2.453812 1_554
B0_4 Li1_6 2.453812 1_545
B0_4 Li0_1 2.463207 1_654
B0_4 Li1_2 2.463207 1_545
B0_4 Li1_1 2.463207 1_554
B0_4 Li0_2 2.463207 1_645
B0_4 Li0_0 2.463493 1_655
B0_4 Li1_3 2.463493 1_544
B0_5 Li0_5 2.450919 1_555
B0_5 Li1_6 2.450919 1_545
B0_5 Li1_4 2.453812 1_555
B0_5 Li0_7 2.453812 1_545
B0_5 Li0_4 2.453812 1_555
B0_5 Li1_7 2.453812 1_545
B0_5 Li0_0 2.463207 1_655
B0_5 Li1_3 2.463207 1_545
B0_5 Li1_0 2.463207 1_555
B0_5 Li0_3 2.463207 1_645
B0_5 Li0_1 2.463493 1_655
B0_5 Li1_2 2.463493 1_545
B0_6 Li0_6 2.450919 1_555
B0_6 Li1_5 2.450919 1_554
B0_6 Li1_7 2.453812 1_554
B0_6 Li0_4 2.453812 1_555
B0_6 Li0_7 2.453812 1_554
B0_6 Li1_4 2.453812 1_555
B0_6 Li0_3 2.463207 1_654
B0_6 Li1_0 2.463207 1_555
B0_6 Li0_0 2.463207 1_655
B0_6 Li1_3 2.463207 1_554
B0_6 Li0_2 2.463493 1_655
B0_6 Li1_1 2.463493 1_554
B0_7 Li1_4 2.450919 1_555
B0_7 Li0_7 2.450919 1_555
B0_7 Li0_5 2.453812 1_555
B0_7 Li1_6 2.453812 1_555
B0_7 Li0_6 2.453812 1_555
B0_7 Li1_5 2.453812 1_555
B0_7 Li1_1 2.463207 1_555
B0_7 Li0_2 2.463207 1_655
B0_7 Li0_1 2.463207 1_655
B0_7 Li1_2 2.463207 1_555
B0_7 Li1_0 2.463493 1_555
B0_7 Li0_3 2.463493 1_655
