# generated using pymatgen
data_NaCdP3(H4O5)2
_symmetry_space_group_name_H-M   'P 1'
_cell_length_a   9.49297550
_cell_length_b   15.19007984
_cell_length_c   15.53831985
_cell_angle_alpha   90.00000000
_cell_angle_beta   90.00000000
_cell_angle_gamma   90.00000000
_symmetry_Int_Tables_number   1
_chemical_formula_structural   NaCdP3(H4O5)2
_chemical_formula_sum   'Na8 Cd8 P24 H64 O80'
_cell_volume   2240.61105053
_cell_formula_units_Z   8
loop_
 _symmetry_equiv_pos_site_id
 _symmetry_equiv_pos_as_xyz
  1  'x, y, z'
loop_
 _atom_site_type_symbol
 _atom_site_label
 _atom_site_symmetry_multiplicity
 _atom_site_fract_x
 _atom_site_fract_y
 _atom_site_fract_z
 _atom_site_occupancy
  Na  Na0  1  0.94408455  0.94081262  0.34880466  1
  Na  Na1  1  0.44408455  0.05918738  0.15119534  1
  Na  Na2  1  0.05591545  0.55918738  0.84880466  1
  Na  Na3  1  0.55591545  0.44081262  0.65119534  1
  Na  Na4  1  0.05591545  0.05918738  0.65119534  1
  Na  Na5  1  0.55591545  0.94081262  0.84880466  1
  Na  Na6  1  0.94408455  0.44081262  0.15119534  1
  Na  Na7  1  0.44408455  0.55918738  0.34880466  1
  Cd  Cd0  1  0.05298836  0.04555737  0.15739687  1
  Cd  Cd1  1  0.55298836  0.95444263  0.34260313  1
  Cd  Cd2  1  0.94701164  0.45444263  0.65739687  1
  Cd  Cd3  1  0.44701164  0.54555737  0.84260313  1
  Cd  Cd4  1  0.94701164  0.95444263  0.84260313  1
  Cd  Cd5  1  0.44701164  0.04555737  0.65739687  1
  Cd  Cd6  1  0.05298836  0.54555737  0.34260313  1
  Cd  Cd7  1  0.55298836  0.45444263  0.15739687  1
  P  P0  1  0.26468397  0.01177021  0.46670292  1
  P  P1  1  0.76468397  0.98822979  0.03329708  1
  P  P2  1  0.73531603  0.48822979  0.96670292  1
  P  P3  1  0.23531603  0.51177021  0.53329708  1
  P  P4  1  0.73531603  0.98822979  0.53329708  1
  P  P5  1  0.23531603  0.01177021  0.96670292  1
  P  P6  1  0.26468397  0.51177021  0.03329708  1
  P  P7  1  0.76468397  0.48822979  0.46670292  1
  P  P8  1  0.75933494  0.12152372  0.27304851  1
  P  P9  1  0.25933494  0.87847628  0.22695149  1
  P  P10  1  0.24066506  0.37847628  0.77304851  1
  P  P11  1  0.74066506  0.62152372  0.72695149  1
  P  P12  1  0.24066506  0.87847628  0.72695149  1
  P  P13  1  0.74066506  0.12152372  0.77304851  1
  P  P14  1  0.75933494  0.62152372  0.22695149  1
  P  P15  1  0.25933494  0.37847628  0.27304851  1
  P  P16  1  0.03348973  0.74386438  0.46666216  1
  P  P17  1  0.53348973  0.25613562  0.03333784  1
  P  P18  1  0.96651027  0.75613562  0.96666216  1
  P  P19  1  0.46651027  0.24386438  0.53333784  1
  P  P20  1  0.96651027  0.25613562  0.53333784  1
  P  P21  1  0.46651027  0.74386438  0.96666216  1
  P  P22  1  0.03348973  0.24386438  0.03333784  1
  P  P23  1  0.53348973  0.75613562  0.46666216  1
  H  H0  1  0.24688257  0.92215917  0.44669870  1
  H  H1  1  0.74688257  0.07784083  0.05330130  1
  H  H2  1  0.75311743  0.57784083  0.94669870  1
  H  H3  1  0.25311743  0.42215917  0.55330130  1
  H  H4  1  0.75311743  0.07784083  0.55330130  1
  H  H5  1  0.25311743  0.92215917  0.94669870  1
  H  H6  1  0.24688257  0.42215917  0.05330130  1
  H  H7  1  0.74688257  0.57784083  0.44669870  1
  H  H8  1  0.75875853  0.16250204  0.35425099  1
  H  H9  1  0.25875853  0.83749796  0.14574901  1
  H  H10  1  0.24124147  0.33749796  0.85425099  1
  H  H11  1  0.74124147  0.66250204  0.64574901  1
  H  H12  1  0.24124147  0.83749796  0.64574901  1
  H  H13  1  0.74124147  0.16250204  0.85425099  1
  H  H14  1  0.75875853  0.66250204  0.14574901  1
  H  H15  1  0.25875853  0.33749796  0.35425099  1
  H  H16  1  0.18160973  0.74243991  0.45973490  1
  H  H17  1  0.68160973  0.25756009  0.04026510  1
  H  H18  1  0.81839027  0.75756009  0.95973490  1
  H  H19  1  0.31839027  0.24243991  0.54026510  1
  H  H20  1  0.81839027  0.25756009  0.54026510  1
  H  H21  1  0.31839027  0.74243991  0.95973490  1
  H  H22  1  0.18160973  0.24243991  0.04026510  1
  H  H23  1  0.68160973  0.75756009  0.45973490  1
  H  H24  1  0.08064679  0.10174377  0.46706904  1
  H  H25  1  0.58064679  0.89825623  0.03293096  1
  H  H26  1  0.91935321  0.39825623  0.96706904  1
  H  H27  1  0.41935321  0.60174377  0.53293096  1
  H  H28  1  0.91935321  0.89825623  0.53293096  1
  H  H29  1  0.41935321  0.10174377  0.96706904  1
  H  H30  1  0.08064679  0.60174377  0.03293096  1
  H  H31  1  0.58064679  0.39825623  0.46706904  1
  H  H32  1  0.85008094  0.19891913  0.16550061  1
  H  H33  1  0.35008094  0.80108087  0.33449939  1
  H  H34  1  0.14991906  0.30108087  0.66550061  1
  H  H35  1  0.64991906  0.69891913  0.83449939  1
  H  H36  1  0.14991906  0.80108087  0.83449939  1
  H  H37  1  0.64991906  0.19891913  0.66550061  1
  H  H38  1  0.85008094  0.69891913  0.33449939  1
  H  H39  1  0.35008094  0.30108087  0.16550061  1
  H  H40  1  0.03835409  0.64571577  0.57040931  1
  H  H41  1  0.53835409  0.35428423  0.92959069  1
  H  H42  1  0.96164591  0.85428423  0.07040931  1
  H  H43  1  0.46164591  0.14571577  0.42959069  1
  H  H44  1  0.96164591  0.35428423  0.42959069  1
  H  H45  1  0.46164591  0.64571577  0.07040931  1
  H  H46  1  0.03835409  0.14571577  0.92959069  1
  H  H47  1  0.53835409  0.85428423  0.57040931  1
  H  H48  1  0.73455044  0.81527164  0.26575643  1
  H  H49  1  0.23455044  0.18472836  0.23424357  1
  H  H50  1  0.26544956  0.68472836  0.76575643  1
  H  H51  1  0.76544956  0.31527164  0.73424357  1
  H  H52  1  0.26544956  0.18472836  0.73424357  1
  H  H53  1  0.76544956  0.81527164  0.76575643  1
  H  H54  1  0.73455044  0.31527164  0.23424357  1
  H  H55  1  0.23455044  0.68472836  0.26575643  1
  H  H56  1  0.73650300  0.89851297  0.20405296  1
  H  H57  1  0.23650300  0.10148703  0.29594704  1
  H  H58  1  0.26349700  0.60148703  0.70405296  1
  H  H59  1  0.76349700  0.39851297  0.79594704  1
  H  H60  1  0.26349700  0.10148703  0.79594704  1
  H  H61  1  0.76349700  0.89851297  0.70405296  1
  H  H62  1  0.73650300  0.39851297  0.29594704  1
  H  H63  1  0.23650300  0.60148703  0.20405296  1
  O  O0  1  0.12613800  0.05527992  0.42709211  1
  O  O1  1  0.62613800  0.94472008  0.07290789  1
  O  O2  1  0.87386200  0.44472008  0.92709211  1
  O  O3  1  0.37386200  0.55527992  0.57290789  1
  O  O4  1  0.87386200  0.94472008  0.57290789  1
  O  O5  1  0.37386200  0.05527992  0.92709211  1
  O  O6  1  0.12613800  0.55527992  0.07290789  1
  O  O7  1  0.62613800  0.44472008  0.42709211  1
  O  O8  1  0.39471873  0.04458600  0.41767386  1
  O  O9  1  0.89471873  0.95541400  0.08232614  1
  O  O10  1  0.60528127  0.45541400  0.91767386  1
  O  O11  1  0.10528127  0.54458600  0.58232614  1
  O  O12  1  0.60528127  0.95541400  0.58232614  1
  O  O13  1  0.10528127  0.04458600  0.91767386  1
  O  O14  1  0.39471873  0.54458600  0.08232614  1
  O  O15  1  0.89471873  0.45541400  0.41767386  1
  O  O16  1  0.26608585  0.02459164  0.56370690  1
  O  O17  1  0.76608585  0.97540836  0.93629310  1
  O  O18  1  0.73391415  0.47540836  0.06370690  1
  O  O19  1  0.23391415  0.52459164  0.43629310  1
  O  O20  1  0.73391415  0.97540836  0.43629310  1
  O  O21  1  0.23391415  0.02459164  0.06370690  1
  O  O22  1  0.26608585  0.52459164  0.93629310  1
  O  O23  1  0.76608585  0.47540836  0.56370690  1
  O  O24  1  0.76654543  0.20308841  0.20747198  1
  O  O25  1  0.26654543  0.79691159  0.29252802  1
  O  O26  1  0.23345457  0.29691159  0.70747198  1
  O  O27  1  0.73345457  0.70308841  0.79252802  1
  O  O28  1  0.23345457  0.79691159  0.79252802  1
  O  O29  1  0.73345457  0.20308841  0.70747198  1
  O  O30  1  0.76654543  0.70308841  0.29252802  1
  O  O31  1  0.26654543  0.29691159  0.20747198  1
  O  O32  1  0.89204938  0.06621656  0.26441426  1
  O  O33  1  0.39204938  0.93378344  0.23558574  1
  O  O34  1  0.10795062  0.43378344  0.76441426  1
  O  O35  1  0.60795062  0.56621656  0.73558574  1
  O  O36  1  0.10795062  0.93378344  0.73558574  1
  O  O37  1  0.60795062  0.06621656  0.76441426  1
  O  O38  1  0.89204938  0.56621656  0.23558574  1
  O  O39  1  0.39204938  0.43378344  0.26441426  1
  O  O40  1  0.61953791  0.07431982  0.26037410  1
  O  O41  1  0.11953791  0.92568018  0.23962590  1
  O  O42  1  0.38046209  0.42568018  0.76037410  1
  O  O43  1  0.88046209  0.57431982  0.73962590  1
  O  O44  1  0.38046209  0.92568018  0.73962590  1
  O  O45  1  0.88046209  0.07431982  0.76037410  1
  O  O46  1  0.61953791  0.57431982  0.23962590  1
  O  O47  1  0.11953791  0.42568018  0.26037410  1
  O  O48  1  0.00084402  0.70711786  0.56032697  1
  O  O49  1  0.50084402  0.29288214  0.93967303  1
  O  O50  1  0.99915598  0.79288214  0.06032697  1
  O  O51  1  0.49915598  0.20711786  0.43967303  1
  O  O52  1  0.99915598  0.29288214  0.43967303  1
  O  O53  1  0.49915598  0.70711786  0.06032697  1
  O  O54  1  0.00084402  0.20711786  0.93967303  1
  O  O55  1  0.50084402  0.79288214  0.56032697  1
  O  O56  1  0.98013150  0.83777242  0.46186191  1
  O  O57  1  0.48013150  0.16222758  0.03813809  1
  O  O58  1  0.01986850  0.66222758  0.96186191  1
  O  O59  1  0.51986850  0.33777242  0.53813809  1
  O  O60  1  0.01986850  0.16222758  0.53813809  1
  O  O61  1  0.51986850  0.83777242  0.96186191  1
  O  O62  1  0.98013150  0.33777242  0.03813809  1
  O  O63  1  0.48013150  0.66222758  0.46186191  1
  O  O64  1  0.97657991  0.68198172  0.39647544  1
  O  O65  1  0.47657991  0.31801828  0.10352456  1
  O  O66  1  0.02342009  0.81801828  0.89647544  1
  O  O67  1  0.52342009  0.18198172  0.60352456  1
  O  O68  1  0.02342009  0.31801828  0.60352456  1
  O  O69  1  0.52342009  0.68198172  0.89647544  1
  O  O70  1  0.97657991  0.18198172  0.10352456  1
  O  O71  1  0.47657991  0.81801828  0.39647544  1
  O  O72  1  0.73827155  0.88048201  0.26449581  1
  O  O73  1  0.23827155  0.11951799  0.23550419  1
  O  O74  1  0.26172845  0.61951799  0.76449581  1
  O  O75  1  0.76172845  0.38048201  0.73550419  1
  O  O76  1  0.26172845  0.11951799  0.73550419  1
  O  O77  1  0.76172845  0.88048201  0.76449581  1
  O  O78  1  0.73827155  0.38048201  0.23550419  1
  O  O79  1  0.23827155  0.61951799  0.26449581  1
loop_
_geom_bond_atom_site_label_1
_geom_bond_atom_site_label_2
_geom_bond_distance
_geom_bond_site_symmetry_2
Na0 O32 2.364762 1_565
Na0 O56 2.377599 1_555
Na0 O41 2.388500 1_655
Na0 O20 2.470787 1_555
Na0 O72 2.524526 1_555
Na0 O0 2.736759 1_665
Na1 O33 2.364762 1_545
Na1 O57 2.377599 1_555
Na1 O40 2.388500 1_555
Na1 O21 2.470787 1_555
Na1 O73 2.524526 1_555
Na1 O1 2.736759 1_545
Na2 O34 2.364762 1_555
Na2 O58 2.377599 1_555
Na2 O43 2.388500 1_455
Na2 O22 2.470787 1_555
Na2 O74 2.524526 1_555
Na2 O2 2.736759 1_455
Na3 O35 2.364762 1_555
Na3 O59 2.377599 1_555
Na3 O42 2.388500 1_555
Na3 O23 2.470787 1_555
Na3 O75 2.524526 1_555
Na3 O3 2.736759 1_555
Na4 O36 2.364762 1_545
Na4 O60 2.377599 1_555
Na4 O45 2.388500 1_455
Na4 O16 2.470787 1_555
Na4 O76 2.524526 1_555
Na4 O4 2.736759 1_445
Na5 O37 2.364762 1_565
Na5 O61 2.377599 1_555
Na5 O44 2.388500 1_555
Na5 O17 2.470787 1_555
Na5 O77 2.524526 1_555
Na5 O5 2.736759 1_565
Na6 O38 2.364762 1_555
Na6 O62 2.377599 1_555
Na6 O47 2.388500 1_655
Na6 O18 2.470787 1_555
Na6 O78 2.524526 1_555
Na6 O6 2.736759 1_655
Na7 O39 2.364762 1_555
Na7 O63 2.377599 1_555
Na7 O46 2.388500 1_555
Na7 O19 2.470787 1_555
Na7 O79 2.524526 1_555
Na7 O7 2.736759 1_555
Cd0 O21 2.273900 1_555
Cd0 O32 2.279860 1_455
Cd0 O41 2.312460 1_545
Cd0 O9 2.343706 1_445
Cd0 O70 2.349734 1_455
Cd0 O73 2.414297 1_555
Cd1 O20 2.273900 1_555
Cd1 O33 2.279860 1_555
Cd1 O40 2.312460 1_565
Cd1 O8 2.343706 1_565
Cd1 O71 2.349734 1_555
Cd1 O72 2.414297 1_555
Cd2 O23 2.273900 1_555
Cd2 O34 2.279860 1_655
Cd2 O43 2.312460 1_555
Cd2 O11 2.343706 1_655
Cd2 O68 2.349734 1_655
Cd2 O75 2.414297 1_555
Cd3 O22 2.273900 1_555
Cd3 O35 2.279860 1_555
Cd3 O42 2.312460 1_555
Cd3 O10 2.343706 1_555
Cd3 O69 2.349734 1_555
Cd3 O74 2.414297 1_555
Cd4 O17 2.273900 1_555
Cd4 O36 2.279860 1_655
Cd4 O45 2.312460 1_565
Cd4 O13 2.343706 1_665
Cd4 O66 2.349734 1_655
Cd4 O77 2.414297 1_555
Cd5 O16 2.273900 1_555
Cd5 O37 2.279860 1_555
Cd5 O44 2.312460 1_545
Cd5 O12 2.343706 1_545
Cd5 O67 2.349734 1_555
Cd5 O76 2.414297 1_555
Cd6 O19 2.273900 1_555
Cd6 O38 2.279860 1_455
Cd6 O47 2.312460 1_555
Cd6 O15 2.343706 1_455
Cd6 O64 2.349734 1_455
Cd6 O79 2.414297 1_555
Cd7 O18 2.273900 1_555
Cd7 O39 2.279860 1_555
Cd7 O46 2.312460 1_555
Cd7 O14 2.343706 1_555
Cd7 O65 2.349734 1_555
Cd7 O78 2.414297 1_555
H0 P0 1.406427 1_565
H1 P1 1.406427 1_545
H2 P2 1.406427 1_555
H3 P3 1.406427 1_555
H4 P4 1.406427 1_545
H5 P5 1.406427 1_565
H6 P6 1.406427 1_555
H7 P7 1.406427 1_555
H8 P8 1.406949 1_555
H9 P9 1.406949 1_555
H10 P10 1.406949 1_555
H11 P11 1.406949 1_555
H12 P12 1.406949 1_555
H13 P13 1.406949 1_555
H14 P14 1.406949 1_555
H15 P15 1.406949 1_555
H16 P16 1.410379 1_555
H17 P17 1.410379 1_555
H18 P18 1.410379 1_555
H19 P19 1.410379 1_555
H20 P20 1.410379 1_555
H21 P21 1.410379 1_555
H22 P22 1.410379 1_555
H23 P23 1.410379 1_555
H24 O0 1.034644 1_555
H24 O60 1.548052 1_555
H25 O1 1.034644 1_555
H25 O61 1.548052 1_554
H26 O2 1.034644 1_555
H26 O62 1.548052 1_556
H27 O3 1.034644 1_555
H27 O63 1.548052 1_555
H28 O4 1.034644 1_555
H28 O56 1.548052 1_555
H29 O5 1.034644 1_555
H29 O57 1.548052 1_556
H30 O6 1.034644 1_555
H30 O58 1.548052 1_554
H31 O7 1.034644 1_555
H31 O59 1.548052 1_555
H32 O24 1.028678 1_555
H32 O70 1.560645 1_555
H33 O25 1.028678 1_555
H33 O71 1.560645 1_555
H34 O26 1.028678 1_555
H34 O68 1.560645 1_555
H35 O27 1.028678 1_555
H35 O69 1.560645 1_555
H36 O28 1.028678 1_555
H36 O66 1.560645 1_555
H37 O29 1.028678 1_555
H37 O67 1.560645 1_555
H38 O30 1.028678 1_555
H38 O64 1.560645 1_555
H39 O31 1.028678 1_555
H39 O65 1.560645 1_555
H40 O48 1.010580 1_555
H40 O11 1.672650 1_555
H41 O49 1.010580 1_555
H41 O10 1.672650 1_555
H42 O50 1.010580 1_555
H42 O9 1.672650 1_555
H43 O51 1.010580 1_555
H43 O8 1.672650 1_555
H44 O52 1.010580 1_555
H44 O15 1.672650 1_555
H45 O53 1.010580 1_555
H45 O14 1.672650 1_555
H46 O54 1.010580 1_555
H46 O13 1.672650 1_555
H47 O55 1.010580 1_555
H47 O12 1.672650 1_555
H48 O72 0.991374 1_555
H49 O73 0.991374 1_555
H50 O74 0.991374 1_555
H51 O75 0.991374 1_555
H52 O76 0.991374 1_555
H53 O77 0.991374 1_555
H54 O78 0.991374 1_555
H55 O79 0.991374 1_555
H56 O72 0.978447 1_555
H57 O73 0.978447 1_555
H58 O74 0.978447 1_555
H59 O75 0.978447 1_555
H60 O76 0.978447 1_555
H61 O77 0.978447 1_555
H62 O78 0.978447 1_555
H63 O79 0.978447 1_555
O0 P0 1.595437 1_555
O1 P1 1.595437 1_555
O2 P2 1.595437 1_555
O3 P3 1.595437 1_555
O4 P4 1.595437 1_555
O5 P5 1.595437 1_555
O6 P6 1.595437 1_555
O7 P7 1.595437 1_555
O8 P0 1.533834 1_555
O9 P1 1.533834 1_555
O10 P2 1.533834 1_555
O11 P3 1.533834 1_555
O12 P4 1.533834 1_555
O13 P5 1.533834 1_555
O14 P6 1.533834 1_555
O15 P7 1.533834 1_555
O16 P0 1.519868 1_555
O17 P1 1.519868 1_556
O18 P2 1.519868 1_554
O19 P3 1.519868 1_555
O20 P4 1.519868 1_555
O21 P5 1.519868 1_554
O22 P6 1.519868 1_556
O23 P7 1.519868 1_555
O24 P8 1.605615 1_555
O25 P9 1.605615 1_555
O26 P10 1.605615 1_555
O27 P11 1.605615 1_555
O28 P12 1.605615 1_555
O29 P13 1.605615 1_555
O30 P14 1.605615 1_555
O31 P15 1.605615 1_555
O32 P8 1.520209 1_555
O33 P9 1.520209 1_555
O34 P10 1.520209 1_555
O35 P11 1.520209 1_555
O36 P12 1.520209 1_555
O37 P13 1.520209 1_555
O38 P14 1.520209 1_555
O39 P15 1.520209 1_555
O40 P8 1.521212 1_555
O41 P9 1.521212 1_555
O42 P10 1.521212 1_555
O43 P11 1.521212 1_555
O44 P12 1.521212 1_555
O45 P13 1.521212 1_555
O46 P14 1.521212 1_555
O47 P15 1.521212 1_555
O48 P16 1.589270 1_555
O49 P17 1.589270 1_556
O50 P18 1.589270 1_554
O51 P19 1.589270 1_555
O52 P20 1.589270 1_555
O53 P21 1.589270 1_554
O54 P22 1.589270 1_556
O55 P23 1.589270 1_555
O56 P16 1.515570 1_655
O57 P17 1.515570 1_555
O58 P18 1.515570 1_455
O59 P19 1.515570 1_555
O60 P20 1.515570 1_455
O61 P21 1.515570 1_555
O62 P22 1.515570 1_655
O63 P23 1.515570 1_555
O64 P16 1.537804 1_655
O65 P17 1.537804 1_555
O66 P18 1.537804 1_455
O67 P19 1.537804 1_555
O68 P20 1.537804 1_455
O69 P21 1.537804 1_555
O70 P22 1.537804 1_655
O71 P23 1.537804 1_555
