# generated using pymatgen
data_GdInIr
_symmetry_space_group_name_H-M   'P 1'
_cell_length_a   7.48464144
_cell_length_b   7.48449752
_cell_length_c   4.01035552
_cell_angle_alpha   90.00000000
_cell_angle_beta   90.00000000
_cell_angle_gamma   119.99937117
_symmetry_Int_Tables_number   1
_chemical_formula_structural   GdInIr
_chemical_formula_sum   'Gd3 In3 Ir3'
_cell_volume   194.55836443
_cell_formula_units_Z   3
loop_
 _symmetry_equiv_pos_site_id
 _symmetry_equiv_pos_as_xyz
  1  'x, y, z'
loop_
 _atom_site_type_symbol
 _atom_site_label
 _atom_site_symmetry_multiplicity
 _atom_site_fract_x
 _atom_site_fract_y
 _atom_site_fract_z
 _atom_site_occupancy
  Gd  Gd0  1  0.40788074  0.40788356  0.00000000  1
  Gd  Gd1  1  0.59211926  0.00000282  0.00000000  1
  Gd  Gd2  1  -0.00000000  0.59211633  0.00000000  1
  In  In0  1  0.00000000  0.25351419  0.50000000  1
  In  In1  1  0.74649829  0.74649130  0.50000000  1
  In  In2  1  0.25350171  -0.00000598  0.50000000  1
  Ir  Ir0  1  0.00000000  0.00000102  -0.00000000  1
  Ir  Ir1  1  0.33334055  0.66666915  0.50000000  1
  Ir  Ir2  1  0.66665945  0.33332760  0.50000000  1
loop_
_geom_bond_atom_site_label_1
_geom_bond_atom_site_label_2
_geom_bond_distance
_geom_bond_site_symmetry_2
Gd0 Ir1 3.027223 1_555
Gd0 Ir1 3.027223 1_554
Gd0 Ir2 3.027267 1_554
Gd0 Ir2 3.027267 1_555
Gd0 Ir0 3.052847 1_555
Gd0 In1 3.231701 1_555
Gd0 In1 3.231701 1_554
Gd0 In2 3.338910 1_555
Gd0 In2 3.338910 1_554
Gd0 In0 3.338916 1_554
Gd0 In0 3.338916 1_555
Gd1 Ir2 3.027218 1_554
Gd1 Ir2 3.027218 1_555
Gd1 Ir1 3.027263 1_545
Gd1 Ir1 3.027263 1_544
Gd1 Ir0 3.052848 1_655
Gd1 In2 3.231704 1_555
Gd1 In2 3.231704 1_554
Gd1 In0 3.338915 1_654
Gd1 In0 3.338915 1_655
Gd1 In1 3.338916 1_545
Gd1 In1 3.338916 1_544
Gd2 Ir1 3.027320 1_554
Gd2 Ir1 3.027320 1_555
Gd2 Ir2 3.027322 1_454
Gd2 Ir2 3.027322 1_455
Gd2 Ir0 3.052812 1_565
Gd2 In0 3.231601 1_554
Gd2 In0 3.231601 1_555
Gd2 In1 3.338856 1_455
Gd2 In1 3.338856 1_454
Gd2 In2 3.338860 1_564
Gd2 In2 3.338860 1_565
In0 Ir0 2.760604 1_556
In0 Ir0 2.760604 1_555
In0 Ir2 2.841108 1_455
In0 Ir1 2.841113 1_555
In0 In2 3.286418 1_555
In0 In1 3.286424 1_445
In1 Ir0 2.760591 1_665
In1 Ir0 2.760591 1_666
In1 Ir2 2.841076 1_555
In1 Ir1 2.841136 1_555
In1 In2 3.286361 1_665
In2 Ir0 2.760588 1_555
In2 Ir0 2.760588 1_556
In2 Ir1 2.841077 1_545
In2 Ir2 2.841131 1_555
