# generated using pymatgen
data_TmMgS3
_symmetry_space_group_name_H-M   'P 1'
_cell_length_a   7.57040153
_cell_length_b   11.56177000
_cell_length_c   7.12435910
_cell_angle_alpha   90.00000000
_cell_angle_beta   125.36276449
_cell_angle_gamma   90.00000000
_symmetry_Int_Tables_number   1
_chemical_formula_structural   TmMgS3
_chemical_formula_sum   'Tm4 Mg4 S12'
_cell_volume   508.52836808
_cell_formula_units_Z   4
loop_
 _symmetry_equiv_pos_site_id
 _symmetry_equiv_pos_as_xyz
  1  'x, y, z'
loop_
 _atom_site_type_symbol
 _atom_site_label
 _atom_site_symmetry_multiplicity
 _atom_site_fract_x
 _atom_site_fract_y
 _atom_site_fract_z
 _atom_site_occupancy
  Tm  Tm0  1  0.02745700  0.00000000  0.24658900  1
  Tm  Tm1  1  0.97254300  0.00000000  0.75341100  1
  Tm  Tm2  1  0.52745700  0.50000000  0.24658900  1
  Tm  Tm3  1  0.47254300  0.50000000  0.75341100  1
  Mg  Mg0  1  0.00000000  0.33964000  0.00000000  1
  Mg  Mg1  1  0.00000000  0.66036000  0.00000000  1
  Mg  Mg2  1  0.50000000  0.83964000  0.00000000  1
  Mg  Mg3  1  0.50000000  0.16036000  0.00000000  1
  S  S0  1  0.22597500  0.14920500  0.14678400  1
  S  S1  1  0.77402500  0.85079500  0.85321600  1
  S  S2  1  0.77402500  0.14920500  0.85321600  1
  S  S3  1  0.22597500  0.85079500  0.14678400  1
  S  S4  1  0.72597500  0.64920500  0.14678400  1
  S  S5  1  0.27402500  0.35079500  0.85321600  1
  S  S6  1  0.27402500  0.64920500  0.85321600  1
  S  S7  1  0.72597500  0.35079500  0.14678400  1
  S  S8  1  0.29361100  0.00000000  0.70173400  1
  S  S9  1  0.70638900  0.00000000  0.29826600  1
  S  S10  1  0.79361100  0.50000000  0.70173400  1
  S  S11  1  0.20638900  0.50000000  0.29826600  1
loop_
_geom_bond_atom_site_label_1
_geom_bond_atom_site_label_2
_geom_bond_distance
_geom_bond_site_symmetry_2
Mg0 S11 2.559511 1_555
Mg0 S10 2.559511 1_454
Mg0 S0 2.607139 1_555
Mg0 S2 2.607139 1_454
Mg0 S7 2.815089 1_455
Mg0 S5 2.815089 1_554
Mg1 S11 2.559511 1_555
Mg1 S10 2.559511 1_454
Mg1 S3 2.607139 1_555
Mg1 S1 2.607139 1_454
Mg1 S4 2.815089 1_455
Mg1 S6 2.815089 1_554
Mg2 S9 2.559511 1_565
Mg2 S8 2.559511 1_564
Mg2 S6 2.607139 1_554
Mg2 S4 2.607139 1_555
Mg2 S1 2.815089 1_554
Mg2 S3 2.815089 1_555
Mg3 S8 2.559511 1_554
Mg3 S9 2.559511 1_555
Mg3 S7 2.607139 1_555
Mg3 S5 2.607139 1_554
Mg3 S0 2.815089 1_555
Mg3 S2 2.815089 1_554
S0 Tm0 2.641396 1_555
S0 Tm1 2.878759 1_454
S1 Tm1 2.641396 1_565
S1 Tm0 2.878759 1_666
S2 Tm1 2.641396 1_555
S2 Tm0 2.878759 1_656
S3 Tm0 2.641396 1_565
S3 Tm1 2.878759 1_464
S4 Tm2 2.641396 1_555
S4 Tm3 2.878759 1_554
S5 Tm3 2.641396 1_555
S5 Tm2 2.878759 1_556
S6 Tm3 2.641396 1_555
S6 Tm2 2.878759 1_556
S7 Tm2 2.641396 1_555
S7 Tm3 2.878759 1_554
S8 Tm0 2.647977 1_555
S8 Tm1 2.660684 1_455
S9 Tm1 2.647977 1_555
S9 Tm0 2.660684 1_655
S10 Tm2 2.647977 1_555
S10 Tm3 2.660684 1_555
S11 Tm3 2.647977 1_555
S11 Tm2 2.660684 1_555
