# generated using pymatgen
data_DyFe2Co2B
_symmetry_space_group_name_H-M   'P 1'
_cell_length_a   5.06930308
_cell_length_b   5.04179819
_cell_length_c   6.84308372
_cell_angle_alpha   89.99078127
_cell_angle_beta   90.04833520
_cell_angle_gamma   119.85780879
_symmetry_Int_Tables_number   1
_chemical_formula_structural   DyFe2Co2B
_chemical_formula_sum   'Dy2 Fe4 Co4 B2'
_cell_volume   151.68285991
_cell_formula_units_Z   2
loop_
 _symmetry_equiv_pos_site_id
 _symmetry_equiv_pos_as_xyz
  1  'x, y, z'
loop_
 _atom_site_type_symbol
 _atom_site_label
 _atom_site_symmetry_multiplicity
 _atom_site_fract_x
 _atom_site_fract_y
 _atom_site_fract_z
 _atom_site_occupancy
  Dy  Dy0  1  0.99889300  0.99942400  0.00243400  1
  Dy  Dy1  1  0.00074700  0.00036100  0.49368000  1
  Fe  Fe0  1  0.50135400  0.00061700  0.71315900  1
  Fe  Fe1  1  0.50133500  0.50076500  0.71319400  1
  Fe  Fe2  1  0.33452100  0.66712900  0.00277900  1
  Fe  Fe3  1  0.66321100  0.33162400  0.00299800  1
  Co  Co0  1  0.99913900  0.49959900  0.28745100  1
  Co  Co1  1  0.49942200  0.99978100  0.28893500  1
  Co  Co2  1  0.49948000  0.49975100  0.28884400  1
  Co  Co3  1  0.00114300  0.50062900  0.71266900  1
  B  B0  1  0.33102200  0.66561300  0.49694500  1
  B  B1  1  0.66953400  0.33470700  0.49691400  1
loop_
_geom_bond_atom_site_label_1
_geom_bond_atom_site_label_2
_geom_bond_distance
_geom_bond_site_symmetry_2
Dy0 Fe2 2.919696 1_665
Dy0 Fe3 2.920116 1_555
Dy0 Fe3 2.920622 1_665
Dy0 Fe2 2.920863 1_555
Dy0 Fe3 2.922124 1_565
Dy0 Fe2 2.922295 1_655
Dy1 Fe1 2.943839 1_445
Dy1 Fe0 2.945214 1_455
Dy1 Fe1 2.946403 1_555
Dy1 Fe0 2.947222 1_555
Fe0 Fe3 2.455014 1_556
Fe0 Fe2 2.460910 1_546
Fe1 Fe3 2.454993 1_556
Fe1 Fe2 2.460730 1_556
Co0 Fe3 2.442359 1_555
Co0 Fe2 2.444175 1_655
Co0 Dy1 2.889034 1_655
Co0 Dy1 2.889052 1_665
Co1 Fe3 2.436340 1_565
Co1 Fe2 2.438954 1_555
Co1 Dy1 2.892550 1_565
Co1 Dy1 2.899690 1_665
Co2 Fe3 2.436687 1_555
Co2 Fe2 2.437794 1_555
Co2 Dy1 2.891843 1_555
Co2 Dy1 2.898518 1_665
Co3 Fe2 2.466632 1_556
Co3 Fe3 2.481861 1_456
Co3 Dy1 2.932171 1_565
Co3 Dy1 2.933190 1_555
B0 Co1 2.040264 1_555
B0 Co2 2.042050 1_555
B0 Co0 2.044615 1_455
B0 Co3 2.070343 1_555
B0 Fe0 2.081828 1_565
B0 Fe1 2.082775 1_555
B0 Dy1 2.908942 1_555
B0 Dy1 2.909566 1_565
B0 Dy1 2.944499 1_665
B1 Co0 2.039131 1_555
B1 Co1 2.041921 1_545
B1 Co2 2.043203 1_555
B1 Co3 2.074007 1_655
B1 Fe0 2.079737 1_555
B1 Fe1 2.081288 1_555
B1 Dy1 2.910720 1_665
B1 Dy1 2.911946 1_655
B1 Dy1 2.940334 1_555
