# generated using pymatgen
data_HoWClO4
_symmetry_space_group_name_H-M   'P 1'
_cell_length_a   6.34135853
_cell_length_b   6.34135853
_cell_length_c   6.97127782
_cell_angle_alpha   75.51587318
_cell_angle_beta   75.51587318
_cell_angle_gamma   70.55018101
_symmetry_Int_Tables_number   1
_chemical_formula_structural   HoWClO4
_chemical_formula_sum   'Ho2 W2 Cl2 O8'
_cell_volume   251.62630547
_cell_formula_units_Z   2
loop_
 _symmetry_equiv_pos_site_id
 _symmetry_equiv_pos_as_xyz
  1  'x, y, z'
loop_
 _atom_site_type_symbol
 _atom_site_label
 _atom_site_symmetry_multiplicity
 _atom_site_fract_x
 _atom_site_fract_y
 _atom_site_fract_z
 _atom_site_occupancy
  Ho  Ho0  1  0.77753900  0.77753900  0.11781000  1
  Ho  Ho1  1  0.22246100  0.22246100  0.88219000  1
  W  W0  1  0.63689200  0.63689200  0.73345600  1
  W  W1  1  0.36310800  0.36310800  0.26654400  1
  Cl  Cl0  1  0.98890600  0.98890600  0.77062300  1
  Cl  Cl1  1  0.01109400  0.01109400  0.22937700  1
  O  O0  1  0.70412000  0.70412000  0.46373300  1
  O  O1  1  0.29588000  0.29588000  0.53626700  1
  O  O2  1  0.54626200  0.54626200  0.19357400  1
  O  O3  1  0.45373800  0.45373800  0.80642600  1
  O  O4  1  0.10625700  0.49210200  0.15525600  1
  O  O5  1  0.49210200  0.10625700  0.15525600  1
  O  O6  1  0.89374300  0.50789800  0.84474400  1
  O  O7  1  0.50789800  0.89374300  0.84474400  1
loop_
_geom_bond_atom_site_label_1
_geom_bond_atom_site_label_2
_geom_bond_distance
_geom_bond_site_symmetry_2
Ho0 O4 2.283149 1_655
Ho0 O5 2.283149 1_565
Ho0 O2 2.288742 1_555
Ho0 O0 2.295666 1_555
Ho0 O7 2.679162 1_554
Ho0 O6 2.679162 1_554
Ho1 O6 2.283149 1_455
Ho1 O7 2.283149 1_545
Ho1 O3 2.288742 1_555
Ho1 O1 2.295666 1_555
Ho1 O4 2.679162 1_556
Ho1 O5 2.679162 1_556
Cl0 Ho0 2.720662 1_556
Cl0 Ho1 2.757754 1_665
Cl1 Ho1 2.720662 1_554
Cl1 Ho0 2.757754 1_445
O0 W0 1.793918 1_555
O1 W1 1.793918 1_555
O2 W1 1.806640 1_555
O3 W0 1.806640 1_555
O4 W1 1.830660 1_555
O5 W1 1.830660 1_555
O6 W0 1.830660 1_555
O7 W0 1.830660 1_555
