# generated using pymatgen
data_K2FeGe3Se8
_symmetry_space_group_name_H-M   'P 1'
_cell_length_a   7.58193294
_cell_length_b   12.62525459
_cell_length_c   17.84604983
_cell_angle_alpha   90.00000000
_cell_angle_beta   95.95776711
_cell_angle_gamma   90.00000000
_symmetry_Int_Tables_number   1
_chemical_formula_structural   K2FeGe3Se8
_chemical_formula_sum   'K8 Fe4 Ge12 Se32'
_cell_volume   1699.06525956
_cell_formula_units_Z   4
loop_
 _symmetry_equiv_pos_site_id
 _symmetry_equiv_pos_as_xyz
  1  'x, y, z'
loop_
 _atom_site_type_symbol
 _atom_site_label
 _atom_site_symmetry_multiplicity
 _atom_site_fract_x
 _atom_site_fract_y
 _atom_site_fract_z
 _atom_site_occupancy
  K  K0  1  0.74155662  0.75775479  0.20551673  1
  K  K1  1  0.25844338  0.25775479  0.79448327  1
  K  K2  1  0.72289500  0.08070277  0.07955596  1
  K  K3  1  0.27710500  0.58070277  0.92044404  1
  K  K4  1  0.73707039  0.70789422  0.57689413  1
  K  K5  1  0.26292961  0.20789422  0.42310587  1
  K  K6  1  0.75804837  0.04168115  0.69494912  1
  K  K7  1  0.24195163  0.54168115  0.30505088  1
  Fe  Fe0  1  0.49275301  0.89840112  0.90848799  1
  Fe  Fe1  1  0.50724699  0.39840112  0.09151201  1
  Fe  Fe2  1  0.94753718  0.90192638  0.39329333  1
  Fe  Fe3  1  0.05246282  0.40192638  0.60670667  1
  Ge  Ge0  1  0.23374398  0.82815490  0.73512725  1
  Ge  Ge1  1  0.76625602  0.32815490  0.26487275  1
  Ge  Ge2  1  0.24787132  0.85307727  0.07332555  1
  Ge  Ge3  1  0.75212868  0.35307727  0.92667445  1
  Ge  Ge4  1  0.22820395  0.94164564  0.57273386  1
  Ge  Ge5  1  0.77179605  0.44164564  0.42726614  1
  Ge  Ge6  1  0.98759465  0.91812609  0.89350038  1
  Ge  Ge7  1  0.01240535  0.41812609  0.10649962  1
  Ge  Ge8  1  0.18884659  0.96588840  0.23121062  1
  Ge  Ge9  1  0.81115341  0.46588840  0.76878938  1
  Ge  Ge10  1  0.45338588  0.87854851  0.40312284  1
  Ge  Ge11  1  0.54661412  0.37854851  0.59687716  1
  Se  Se0  1  0.94414093  0.80881200  0.77790191  1
  Se  Se1  1  0.05585907  0.30881200  0.22209809  1
  Se  Se2  1  0.52891387  0.81404147  0.03400621  1
  Se  Se3  1  0.47108613  0.31404147  0.96599379  1
  Se  Se4  1  0.00128375  0.78293381  0.99307782  1
  Se  Se5  1  0.99871625  0.28293381  0.00692218  1
  Se  Se6  1  0.25483950  0.02098652  0.90268914  1
  Se  Se7  1  0.74516050  0.52098652  0.09731086  1
  Se  Se8  1  0.72350732  0.02367046  0.89222386  1
  Se  Se9  1  0.27649268  0.52367046  0.10777614  1
  Se  Se10  1  0.47222162  0.75785922  0.81367369  1
  Se  Se11  1  0.52777838  0.25785922  0.18632631  1
  Se  Se12  1  0.20067164  0.75687572  0.60752904  1
  Se  Se13  1  0.79932836  0.25687572  0.39247096  1
  Se  Se14  1  0.27541933  0.01286803  0.70020318  1
  Se  Se15  1  0.72458067  0.51286803  0.29979682  1
  Se  Se16  1  0.55691272  0.52559386  0.68747628  1
  Se  Se17  1  0.44308728  0.02559386  0.31252372  1
  Se  Se18  1  0.21031467  0.03778487  0.10601370  1
  Se  Se19  1  0.78968533  0.53778487  0.89398630  1
  Se  Se20  1  0.22257422  0.77978395  0.19856763  1
  Se  Se21  1  0.77742578  0.27978395  0.80143237  1
  Se  Se22  1  0.50838633  0.97342536  0.52466003  1
  Se  Se23  1  0.49161367  0.47342536  0.47533997  1
  Se  Se24  1  0.01708293  0.52090100  0.49666750  1
  Se  Se25  1  0.98291707  0.02090100  0.50333250  1
  Se  Se26  1  0.08937731  0.50272923  0.72642785  1
  Se  Se27  1  0.91062269  0.00272923  0.27357215  1
  Se  Se28  1  0.28677816  0.27311420  0.60626069  1
  Se  Se29  1  0.71322184  0.77311420  0.39373931  1
  Se  Se30  1  0.18388584  0.77826907  0.40002085  1
  Se  Se31  1  0.81611416  0.27826907  0.59997915  1
loop_
_geom_bond_atom_site_label_1
_geom_bond_atom_site_label_2
_geom_bond_distance
_geom_bond_site_symmetry_2
K0 Se2 3.383538 1_555
K0 Se29 3.393617 1_555
K0 Se27 3.515796 1_565
K0 Se15 3.528652 1_555
K0 Se7 3.560382 1_555
K0 Se20 3.672539 1_655
K0 Se20 3.933801 1_555
K1 Se3 3.383538 1_555
K1 Se28 3.393617 1_555
K1 Se26 3.515796 1_555
K1 Se14 3.528652 1_555
K1 Se6 3.560382 1_555
K1 Se21 3.672539 1_455
K1 Se21 3.933801 1_555
K2 Se11 3.377412 1_555
K2 Se8 3.420275 1_554
K2 Se5 3.624253 1_555
K2 Se18 3.716402 1_655
K2 Se2 3.729631 1_545
K2 Se27 3.736352 1_555
K3 Se10 3.377412 1_555
K3 Se9 3.420275 1_556
K3 Se4 3.624253 1_555
K3 Se19 3.716402 1_455
K3 Se3 3.729631 1_555
K3 Se26 3.736352 1_555
K4 Se29 3.357336 1_555
K4 Se16 3.408404 1_555
K4 Se12 3.554936 1_655
K4 Se24 3.572349 1_655
K4 Se22 3.844255 1_555
K4 Se23 3.848483 1_555
K4 Se0 3.973297 1_555
K5 Se28 3.357336 1_555
K5 Se17 3.408404 1_555
K5 Se13 3.554936 1_455
K5 Se25 3.572349 1_455
K5 Se23 3.844255 1_555
K5 Se22 3.848483 1_545
K5 Se1 3.973297 1_555
K6 Se31 3.484718 1_555
K6 Se22 3.516678 1_545
K6 Se0 3.520294 1_545
K6 Se21 3.551264 1_555
K6 Se8 3.564567 1_555
K6 Se14 3.688162 1_555
K6 Se14 3.930919 1_655
K7 Se30 3.484718 1_555
K7 Se23 3.516678 1_555
K7 Se1 3.520294 1_555
K7 Se20 3.551264 1_555
K7 Se9 3.564567 1_555
K7 Se15 3.688162 1_555
K7 Se15 3.930919 1_455
Fe0 Se6 2.370886 1_565
Fe0 Se8 2.398324 1_565
Fe0 Se10 2.445616 1_555
Fe0 Se2 2.469748 1_556
Fe1 Se7 2.370886 1_555
Fe1 Se9 2.398324 1_555
Fe1 Se11 2.445616 1_555
Fe1 Se3 2.469748 1_554
Fe2 Se30 2.370296 1_655
Fe2 Se29 2.409146 1_555
Fe2 Se25 2.464799 1_565
Fe2 Se27 2.477643 1_565
Fe3 Se31 2.370296 1_455
Fe3 Se28 2.409146 1_555
Fe3 Se24 2.464799 1_555
Fe3 Se26 2.477643 1_555
Ge0 Se10 2.344292 1_555
Ge0 Se0 2.410732 1_455
Ge0 Se12 2.437107 1_555
Ge0 Se14 2.442874 1_565
Ge1 Se11 2.344292 1_555
Ge1 Se1 2.410732 1_655
Ge1 Se13 2.437107 1_555
Ge1 Se15 2.442874 1_555
Ge2 Se2 2.363505 1_555
Ge2 Se4 2.403081 1_554
Ge2 Se18 2.427757 1_565
Ge2 Se20 2.444916 1_555
Ge3 Se3 2.363505 1_555
Ge3 Se5 2.403081 1_556
Ge3 Se19 2.427757 1_555
Ge3 Se21 2.444916 1_555
Ge4 Se25 2.348558 1_465
Ge4 Se22 2.405850 1_555
Ge4 Se12 2.428554 1_555
Ge4 Se14 2.437722 1_565
Ge5 Se24 2.348558 1_655
Ge5 Se23 2.405850 1_555
Ge5 Se13 2.428554 1_555
Ge5 Se15 2.437722 1_555
Ge6 Se6 2.397915 1_665
Ge6 Se8 2.403299 1_565
Ge6 Se4 2.458400 1_655
Ge6 Se0 2.475490 1_555
Ge7 Se7 2.397915 1_455
Ge7 Se9 2.403299 1_555
Ge7 Se5 2.458400 1_455
Ge7 Se1 2.475490 1_555
Ge8 Se27 2.359829 1_465
Ge8 Se17 2.410198 1_565
Ge8 Se18 2.432672 1_565
Ge8 Se20 2.440569 1_555
Ge9 Se26 2.359829 1_655
Ge9 Se16 2.410198 1_555
Ge9 Se19 2.432672 1_555
Ge9 Se21 2.440569 1_555
Ge10 Se29 2.397828 1_555
Ge10 Se30 2.399516 1_555
Ge10 Se17 2.457760 1_565
Ge10 Se22 2.474944 1_555
Ge11 Se28 2.397828 1_555
Ge11 Se31 2.399516 1_555
Ge11 Se16 2.457760 1_555
Ge11 Se23 2.474944 1_555
