# generated using pymatgen
data_Tb2Al
_symmetry_space_group_name_H-M   'P 1'
_cell_length_a   5.11166383
_cell_length_b   6.57490872
_cell_length_c   9.48032037
_cell_angle_alpha   90.00000000
_cell_angle_beta   90.00000000
_cell_angle_gamma   90.00000000
_symmetry_Int_Tables_number   1
_chemical_formula_structural   Tb2Al
_chemical_formula_sum   'Tb8 Al4'
_cell_volume   318.62146212
_cell_formula_units_Z   4
loop_
 _symmetry_equiv_pos_site_id
 _symmetry_equiv_pos_as_xyz
  1  'x, y, z'
loop_
 _atom_site_type_symbol
 _atom_site_label
 _atom_site_symmetry_multiplicity
 _atom_site_fract_x
 _atom_site_fract_y
 _atom_site_fract_z
 _atom_site_occupancy
  Tb  Tb0  1  0.75000000  0.69079252  0.57404508  1
  Tb  Tb1  1  0.75000000  0.19079252  0.92595492  1
  Tb  Tb2  1  0.25000000  0.30920748  0.42595492  1
  Tb  Tb3  1  0.25000000  0.80920748  0.07404508  1
  Tb  Tb4  1  0.75000000  0.52639511  0.20860753  1
  Tb  Tb5  1  0.75000000  0.02639511  0.29139247  1
  Tb  Tb6  1  0.25000000  0.47360489  0.79139247  1
  Tb  Tb7  1  0.25000000  0.97360489  0.70860753  1
  Al  Al0  1  0.75000000  0.21042990  0.60281325  1
  Al  Al1  1  0.75000000  0.71042990  0.89718675  1
  Al  Al2  1  0.25000000  0.78957010  0.39718675  1
  Al  Al3  1  0.25000000  0.28957010  0.10281325  1
loop_
_geom_bond_atom_site_label_1
_geom_bond_atom_site_label_2
_geom_bond_distance
_geom_bond_site_symmetry_2
Tb0 Tb7 3.408414 1_655
Tb0 Tb7 3.408414 1_555
Tb0 Tb5 3.471217 1_565
Tb0 Tb6 3.580109 1_655
Tb0 Tb6 3.580109 1_555
Tb0 Tb4 3.629168 1_555
Tb0 Tb2 3.846797 1_555
Tb0 Tb2 3.846797 1_655
Tb1 Tb6 3.408414 1_655
Tb1 Tb6 3.408414 1_555
Tb1 Tb4 3.471217 1_556
Tb1 Tb7 3.580109 1_545
Tb1 Tb7 3.580109 1_645
Tb1 Tb5 3.629168 1_556
Tb1 Tb3 3.846797 1_546
Tb1 Tb3 3.846797 1_646
Tb2 Tb5 3.408414 1_455
Tb2 Tb5 3.408414 1_555
Tb2 Tb7 3.471217 1_545
Tb2 Tb4 3.580109 1_455
Tb2 Tb4 3.580109 1_555
Tb2 Tb6 3.629168 1_555
Tb3 Tb4 3.408414 1_555
Tb3 Tb4 3.408414 1_455
Tb3 Tb6 3.471217 1_554
Tb3 Tb5 3.580109 1_465
Tb3 Tb5 3.580109 1_565
Tb3 Tb7 3.629168 1_554
Tb4 Tb5 3.379839 1_565
Tb4 Tb5 3.379839 1_555
Tb6 Tb7 3.379839 1_545
Tb6 Tb7 3.379839 1_555
Al0 Tb1 3.066206 1_555
Al0 Tb2 3.124948 1_555
Al0 Tb2 3.124948 1_655
Al0 Tb7 3.156388 1_645
Al0 Tb7 3.156388 1_545
Al0 Tb0 3.170094 1_555
Al0 Tb5 3.190707 1_555
Al0 Tb0 3.427437 1_545
Al0 Tb6 3.566874 1_655
Al0 Tb6 3.566874 1_555
Al1 Tb0 3.066206 1_555
Al1 Tb3 3.124948 1_556
Al1 Tb3 3.124948 1_656
Al1 Tb6 3.156388 1_655
Al1 Tb6 3.156388 1_555
Al1 Tb1 3.170094 1_565
Al1 Tb4 3.190707 1_556
Al1 Tb1 3.427437 1_555
Al1 Tb7 3.566874 1_555
Al1 Tb7 3.566874 1_655
Al2 Tb3 3.066206 1_555
Al2 Tb0 3.124948 1_455
Al2 Tb0 3.124948 1_555
Al2 Tb5 3.156388 1_565
Al2 Tb5 3.156388 1_465
Al2 Tb2 3.170094 1_555
Al2 Tb7 3.190707 1_555
Al2 Tb2 3.427437 1_565
Al2 Tb4 3.566874 1_555
Al2 Tb4 3.566874 1_455
Al3 Tb2 3.066206 1_555
Al3 Tb1 3.124948 1_554
Al3 Tb1 3.124948 1_454
Al3 Tb4 3.156388 1_455
Al3 Tb4 3.156388 1_555
Al3 Tb3 3.170094 1_545
Al3 Tb6 3.190707 1_554
Al3 Tb3 3.427437 1_555
Al3 Tb5 3.566874 1_455
Al3 Tb5 3.566874 1_555
