# generated using pymatgen
data_CaMgO3
_symmetry_space_group_name_H-M   'P 1'
_cell_length_a   3.94517800
_cell_length_b   3.94517800
_cell_length_c   3.94517800
_cell_angle_alpha   90.00000000
_cell_angle_beta   90.00000000
_cell_angle_gamma   90.00000000
_symmetry_Int_Tables_number   1
_chemical_formula_structural   CaMgO3
_chemical_formula_sum   'Ca1 Mg1 O3'
_cell_volume   61.40444466
_cell_formula_units_Z   1
loop_
 _symmetry_equiv_pos_site_id
 _symmetry_equiv_pos_as_xyz
  1  'x, y, z'
loop_
 _atom_site_type_symbol
 _atom_site_label
 _atom_site_symmetry_multiplicity
 _atom_site_fract_x
 _atom_site_fract_y
 _atom_site_fract_z
 _atom_site_occupancy
  Ca  Ca0  1  0.00000000  0.00000000  0.00000000  1
  Mg  Mg0  1  0.50000000  0.50000000  0.50000000  1
  O  O0  1  0.50000000  0.50000000  0.00000000  1
  O  O1  1  0.50000000  0.00000000  0.50000000  1
  O  O2  1  0.00000000  0.50000000  0.50000000  1
loop_
_geom_bond_atom_site_label_1
_geom_bond_atom_site_label_2
_geom_bond_distance
_geom_bond_site_symmetry_2
Ca0 O2 2.789662 1_545
Ca0 O1 2.789662 1_555
Ca0 O1 2.789662 1_454
Ca0 O0 2.789662 1_555
Ca0 O1 2.789662 1_554
Ca0 O0 2.789662 1_545
Ca0 O2 2.789662 1_555
Ca0 O2 2.789662 1_554
Ca0 O0 2.789662 1_445
Ca0 O0 2.789662 1_455
Ca0 O2 2.789662 1_544
Ca0 O1 2.789662 1_455
Mg0 O1 1.972589 1_555
Mg0 O0 1.972589 1_555
Mg0 O2 1.972589 1_555
Mg0 O1 1.972589 1_565
Mg0 O2 1.972589 1_655
Mg0 O0 1.972589 1_556
