# generated using pymatgen
data_ZrMn2H12(O3F4)2
_symmetry_space_group_name_H-M   'P 1'
_cell_length_a   6.98812735
_cell_length_b   6.98812735
_cell_length_c   12.56163067
_cell_angle_alpha   72.65653303
_cell_angle_beta   72.65653303
_cell_angle_gamma   71.98822014
_symmetry_Int_Tables_number   1
_chemical_formula_structural   ZrMn2H12(O3F4)2
_chemical_formula_sum   'Zr2 Mn4 H24 O12 F16'
_cell_volume   542.33112780
_cell_formula_units_Z   2
loop_
 _symmetry_equiv_pos_site_id
 _symmetry_equiv_pos_as_xyz
  1  'x, y, z'
loop_
 _atom_site_type_symbol
 _atom_site_label
 _atom_site_symmetry_multiplicity
 _atom_site_fract_x
 _atom_site_fract_y
 _atom_site_fract_z
 _atom_site_occupancy
  Zr  Zr0  1  0.73303400  0.26696600  0.75000000  1
  Zr  Zr1  1  0.26696600  0.73303400  0.25000000  1
  Mn  Mn0  1  0.57149700  0.79277300  0.79024400  1
  Mn  Mn1  1  0.20722700  0.42850300  0.70975600  1
  Mn  Mn2  1  0.42850300  0.20722700  0.20975600  1
  Mn  Mn3  1  0.79277300  0.57149700  0.29024400  1
  H  H0  1  0.84950400  0.24100200  0.46797100  1
  H  H1  1  0.75899800  0.15049600  0.03202900  1
  H  H2  1  0.15049600  0.75899800  0.53202900  1
  H  H3  1  0.24100200  0.84950400  0.96797100  1
  H  H4  1  0.30262000  0.14452200  0.05343200  1
  H  H5  1  0.85547800  0.69738000  0.44656800  1
  H  H6  1  0.69738000  0.85547800  0.94656800  1
  H  H7  1  0.14452200  0.30262000  0.55343200  1
  H  H8  1  0.96089200  0.15617700  0.35499300  1
  H  H9  1  0.84382300  0.03910800  0.14500700  1
  H  H10  1  0.03910800  0.84382300  0.64500700  1
  H  H11  1  0.15617700  0.96089200  0.85499300  1
  H  H12  1  0.60721400  0.65398000  0.01297100  1
  H  H13  1  0.34602000  0.39278600  0.48702900  1
  H  H14  1  0.39278600  0.34602000  0.98702900  1
  H  H15  1  0.65398000  0.60721400  0.51297100  1
  H  H16  1  0.82950300  0.37704200  0.12485500  1
  H  H17  1  0.62295800  0.17049700  0.37514500  1
  H  H18  1  0.17049700  0.62295800  0.87514500  1
  H  H19  1  0.37704200  0.82950300  0.62485500  1
  H  H20  1  0.04760700  0.41344000  0.11305500  1
  H  H21  1  0.58656000  0.95239300  0.38694500  1
  H  H22  1  0.95239300  0.58656000  0.88694500  1
  H  H23  1  0.41344000  0.04760700  0.61305500  1
  O  O0  1  0.17030000  0.75880400  0.60748100  1
  O  O1  1  0.24119600  0.82970000  0.89251900  1
  O  O2  1  0.82970000  0.24119600  0.39251900  1
  O  O3  1  0.75880400  0.17030000  0.10748100  1
  O  O4  1  0.46919800  0.89714500  0.63958200  1
  O  O5  1  0.10285500  0.53080200  0.86041800  1
  O  O6  1  0.53080200  0.10285500  0.36041800  1
  O  O7  1  0.89714500  0.46919800  0.13958200  1
  O  O8  1  0.68310700  0.72294400  0.93788000  1
  O  O9  1  0.27705600  0.31689300  0.56212000  1
  O  O10  1  0.31689300  0.27705600  0.06212000  1
  O  O11  1  0.72294400  0.68310700  0.43788000  1
  F  F0  1  0.52442700  0.46448800  0.85921800  1
  F  F1  1  0.53551200  0.47557300  0.64078200  1
  F  F2  1  0.47557300  0.53551200  0.14078200  1
  F  F3  1  0.46448800  0.52442700  0.35921800  1
  F  F4  1  0.83703000  0.54337500  0.71287300  1
  F  F5  1  0.45662500  0.16297000  0.78712700  1
  F  F6  1  0.16297000  0.45662500  0.28712700  1
  F  F7  1  0.54337500  0.83703000  0.21287300  1
  F  F8  1  0.81811700  0.95467100  0.72615100  1
  F  F9  1  0.04532900  0.18188300  0.77384900  1
  F  F10  1  0.18188300  0.04532900  0.27384900  1
  F  F11  1  0.95467100  0.81811700  0.22615100  1
  F  F12  1  0.91104000  0.27082800  0.57867800  1
  F  F13  1  0.72917200  0.08896000  0.92132200  1
  F  F14  1  0.08896000  0.72917200  0.42132200  1
  F  F15  1  0.27082800  0.91104000  0.07867800  1
loop_
_geom_bond_atom_site_label_1
_geom_bond_atom_site_label_2
_geom_bond_distance
_geom_bond_site_symmetry_2
Mn0 O4 2.070269 1_555
Mn0 O8 2.091230 1_555
Mn0 O1 2.259689 1_555
Mn1 O5 2.070269 1_555
Mn1 O9 2.091230 1_555
Mn1 O0 2.259689 1_555
Mn2 O6 2.070269 1_555
Mn2 O10 2.091230 1_555
Mn2 O3 2.259689 1_555
Mn3 O7 2.070269 1_555
Mn3 O11 2.091230 1_555
Mn3 O2 2.259689 1_555
H0 O2 0.997397 1_555
H1 O3 0.997397 1_555
H2 O0 0.997397 1_555
H3 O1 0.997397 1_555
H4 O10 1.001758 1_555
H5 O11 1.001758 1_555
H6 O8 1.001758 1_555
H7 O9 1.001758 1_555
H8 O2 0.994062 1_555
H9 O3 0.994062 1_555
H10 O0 0.994062 1_555
H11 O1 0.994062 1_555
H12 O8 0.996023 1_554
H13 O9 0.996023 1_555
H14 O10 0.996023 1_556
H15 O11 0.996023 1_555
H16 O7 0.991873 1_555
H17 O6 0.991873 1_555
H18 O5 0.991873 1_555
H19 O4 0.991873 1_555
H20 O7 0.991746 1_455
H21 O6 0.991746 1_565
H22 O5 0.991746 1_655
H23 O4 0.991746 1_545
F0 H14 1.705077 1_555
F0 Zr0 2.145897 1_555
F0 Mn0 2.287680 1_555
F1 H15 1.705077 1_555
F1 Zr0 2.145897 1_555
F1 Mn1 2.287680 1_555
F2 H12 1.705077 1_555
F2 Zr1 2.145897 1_555
F2 Mn2 2.287680 1_555
F3 H13 1.705077 1_555
F3 Zr1 2.145897 1_555
F3 Mn3 2.287680 1_555
F4 Zr0 2.146072 1_555
F4 Mn0 2.315150 1_555
F4 Mn1 2.452038 1_655
F5 Zr0 2.146072 1_555
F5 Mn1 2.315150 1_555
F5 Mn0 2.452038 1_545
F6 Zr1 2.146072 1_555
F6 Mn2 2.315150 1_555
F6 Mn3 2.452038 1_455
F7 Zr1 2.146072 1_555
F7 Mn3 2.315150 1_555
F7 Mn2 2.452038 1_565
F8 H10 1.678205 1_655
F8 Zr0 2.164970 1_565
F8 Mn0 2.175738 1_555
F9 H11 1.678205 1_545
F9 Zr0 2.164970 1_455
F9 Mn1 2.175738 1_555
F10 H8 1.678205 1_455
F10 Zr1 2.164970 1_545
F10 Mn2 2.175738 1_555
F11 H9 1.678205 1_565
F11 Zr1 2.164970 1_655
F11 Mn3 2.175738 1_555
F12 H7 1.638819 1_655
F12 H0 1.657429 1_555
F12 Zr0 2.137671 1_555
F13 H6 1.638819 1_545
F13 H1 1.657429 1_556
F13 Zr0 2.137671 1_555
F14 H5 1.638819 1_455
F14 H2 1.657429 1_555
F14 Zr1 2.137671 1_555
F15 H4 1.638819 1_565
F15 H3 1.657429 1_554
F15 Zr1 2.137671 1_555
