# generated using pymatgen
data_RbPbF3
_symmetry_space_group_name_H-M   'P 1'
_cell_length_a   11.09595818
_cell_length_b   6.84040333
_cell_length_c   8.16558000
_cell_angle_alpha   53.35437831
_cell_angle_beta   42.61618935
_cell_angle_gamma   35.80034673
_symmetry_Int_Tables_number   1
_chemical_formula_structural   RbPbF3
_chemical_formula_sum   'Rb2 Pb2 F6'
_cell_volume   245.47323968
_cell_formula_units_Z   2
loop_
 _symmetry_equiv_pos_site_id
 _symmetry_equiv_pos_as_xyz
  1  'x, y, z'
loop_
 _atom_site_type_symbol
 _atom_site_label
 _atom_site_symmetry_multiplicity
 _atom_site_fract_x
 _atom_site_fract_y
 _atom_site_fract_z
 _atom_site_occupancy
  Rb  Rb0  1  0.20311100  0.50000000  0.53112500  1
  Rb  Rb1  1  0.70311100  0.50000000  0.56265200  1
  Pb  Pb0  1  0.97539500  0.00000000  0.02460500  1
  Pb  Pb1  1  0.47539500  0.00000000  0.02460500  1
  F  F0  1  0.18062300  0.50000000  0.89631200  1
  F  F1  1  0.83383300  0.50000000  0.75808600  1
  F  F2  1  0.33383300  0.50000000  0.07424900  1
  F  F3  1  0.68062300  0.50000000  0.24244100  1
  F  F4  1  0.68203800  0.00000000  0.31796200  1
  F  F5  1  0.18203800  0.00000000  0.31796200  1
loop_
_geom_bond_atom_site_label_1
_geom_bond_atom_site_label_2
_geom_bond_distance
_geom_bond_site_symmetry_2
F0 Pb1 2.472442 1_556
F0 Pb0 2.472442 1_466
F0 Rb0 2.803432 1_555
F1 Pb1 2.516484 1_566
F1 Pb0 2.516484 1_556
F1 Rb1 2.838563 1_555
F1 Rb0 3.007903 1_655
F2 Pb0 2.516488 1_465
F2 Pb1 2.516489 1_555
F2 Rb0 2.838547 1_555
F2 Rb1 3.007909 1_554
F3 Pb0 2.472437 1_555
F3 Pb1 2.472438 1_565
F3 Rb1 2.803432 1_555
F4 Pb0 2.203960 1_555
F4 Rb1 2.641477 1_545
F4 Rb0 2.641477 1_555
F5 Pb1 2.203960 1_555
F5 Rb1 2.641477 1_455
F5 Rb0 2.641477 1_545
