# generated using pymatgen
data_Y(FeO2)2
_symmetry_space_group_name_H-M   'P 1'
_cell_length_a   6.47641148
_cell_length_b   6.47641148
_cell_length_c   6.47641148
_cell_angle_alpha   127.27193948
_cell_angle_beta   127.27193948
_cell_angle_gamma   77.80746247
_symmetry_Int_Tables_number   1
_chemical_formula_structural   Y(FeO2)2
_chemical_formula_sum   'Y2 Fe4 O8'
_cell_volume   166.74931865
_cell_formula_units_Z   2
loop_
 _symmetry_equiv_pos_site_id
 _symmetry_equiv_pos_as_xyz
  1  'x, y, z'
loop_
 _atom_site_type_symbol
 _atom_site_label
 _atom_site_symmetry_multiplicity
 _atom_site_fract_x
 _atom_site_fract_y
 _atom_site_fract_z
 _atom_site_occupancy
  Y  Y0  1  0.00000000  0.00000000  0.00000000  1
  Y  Y1  1  0.75000000  0.25000000  0.50000000  1
  Fe  Fe0  1  0.37500000  0.12500000  0.75000000  1
  Fe  Fe1  1  0.37500000  0.62500000  0.25000000  1
  Fe  Fe2  1  0.87500000  0.62500000  0.25000000  1
  Fe  Fe3  1  0.37500000  0.62500000  0.75000000  1
  O  O0  1  0.14617600  0.59582500  0.84937700  1
  O  O1  1  0.74644800  0.29679900  0.15062300  1
  O  O2  1  0.60382400  0.65417500  0.65062300  1
  O  O3  1  0.00355200  0.95320100  0.34937700  1
  O  O4  1  0.34582500  0.99644800  0.94964900  1
  O  O5  1  0.04679900  0.39617600  0.05035100  1
  O  O6  1  0.70320100  0.85382400  0.44964900  1
  O  O7  1  0.40417500  0.25355200  0.55035100  1
loop_
_geom_bond_atom_site_label_1
_geom_bond_atom_site_label_2
_geom_bond_distance
_geom_bond_site_symmetry_2
Fe0 O1 1.957339 1_556
Fe0 O3 1.957339 1_545
Fe0 O4 2.016665 1_545
Fe0 O7 2.016665 1_555
Fe1 O2 1.957339 1_555
Fe1 O0 1.957339 1_554
Fe1 O6 2.016665 1_555
Fe1 O5 2.016665 1_555
Fe2 O6 1.957339 1_555
Fe2 O5 1.957339 1_655
Fe2 O3 2.016665 1_655
Fe2 O1 2.016665 1_555
Fe3 O7 1.957339 1_555
Fe3 O4 1.957339 1_555
Fe3 O0 2.016665 1_555
Fe3 O2 2.016665 1_555
O0 Y0 2.383011 1_566
O0 Y1 2.444770 1_455
O1 Y0 2.383011 1_655
O1 Y1 2.444770 1_555
O2 Y1 2.383011 1_555
O2 Y0 2.444770 1_666
O3 Y1 2.383011 1_465
O3 Y0 2.444770 1_565
O4 Y1 2.383011 1_566
O4 Y0 2.444770 1_566
O5 Y1 2.383011 1_454
O5 Y0 2.444770 1_555
O6 Y0 2.383011 1_666
O6 Y1 2.444770 1_565
O7 Y0 2.383011 1_555
O7 Y1 2.444770 1_555
