# generated using pymatgen
data_Te4Mo(WSe)2
_symmetry_space_group_name_H-M   'P 1'
_cell_length_a   3.47679989
_cell_length_b   3.47679989
_cell_length_c   32.10030300
_cell_angle_alpha   90.00000000
_cell_angle_beta   90.00000000
_cell_angle_gamma   119.99999796
_symmetry_Int_Tables_number   1
_chemical_formula_structural   Te4Mo(WSe)2
_chemical_formula_sum   'Te4 Mo1 W2 Se2'
_cell_volume   336.04633526
_cell_formula_units_Z   1
loop_
 _symmetry_equiv_pos_site_id
 _symmetry_equiv_pos_as_xyz
  1  'x, y, z'
loop_
 _atom_site_type_symbol
 _atom_site_label
 _atom_site_symmetry_multiplicity
 _atom_site_fract_x
 _atom_site_fract_y
 _atom_site_fract_z
 _atom_site_occupancy
  Te  Te0  1  0.33333300  0.66666700  0.40428600  1
  Te  Te1  1  0.66666700  0.33333300  0.52065600  1
  Te  Te2  1  0.66666700  0.33333300  0.63598100  1
  Te  Te3  1  0.33333300  0.66666700  0.28960500  1
  Mo  Mo0  1  0.66666700  0.33333300  0.34699600  1
  W  W0  1  0.33333300  0.66666700  0.11565900  1
  W  W1  1  0.33333300  0.66666700  0.57837200  1
  Se  Se0  1  0.66666700  0.33333300  0.06487200  1
  Se  Se1  1  0.66666700  0.33333300  0.16641300  1
loop_
_geom_bond_atom_site_label_1
_geom_bond_atom_site_label_2
_geom_bond_distance
_geom_bond_site_symmetry_2
Te1 W1 2.731643 1_545
Te1 W1 2.731643 1_655
Te1 W1 2.731647 1_555
Te2 W1 2.729314 1_545
Te2 W1 2.729314 1_655
Te2 W1 2.729319 1_555
Mo0 Te0 2.722387 1_545
Mo0 Te0 2.722387 1_655
Mo0 Te0 2.722391 1_555
Mo0 Te3 2.724578 1_545
Mo0 Te3 2.724578 1_655
Mo0 Te3 2.724582 1_555
Se0 W0 2.585958 1_545
Se0 W0 2.585958 1_655
Se0 W0 2.585962 1_555
Se1 W0 2.585290 1_655
Se1 W0 2.585290 1_545
Se1 W0 2.585295 1_555
