# generated using pymatgen
data_CsMoO2F3
_symmetry_space_group_name_H-M   'P 1'
_cell_length_a   5.59936161
_cell_length_b   6.39824871
_cell_length_c   8.26978970
_cell_angle_alpha   112.75830968
_cell_angle_beta   109.78813744
_cell_angle_gamma   90.00000000
_symmetry_Int_Tables_number   1
_chemical_formula_structural   CsMoO2F3
_chemical_formula_sum   'Cs2 Mo2 O4 F6'
_cell_volume   254.13015673
_cell_formula_units_Z   2
loop_
 _symmetry_equiv_pos_site_id
 _symmetry_equiv_pos_as_xyz
  1  'x, y, z'
loop_
 _atom_site_type_symbol
 _atom_site_label
 _atom_site_symmetry_multiplicity
 _atom_site_fract_x
 _atom_site_fract_y
 _atom_site_fract_z
 _atom_site_occupancy
  Cs  Cs0  1  0.36906356  0.11906356  0.73812811  1
  Cs  Cs1  1  0.63093644  0.88093644  0.26187189  1
  Mo  Mo0  1  0.86584851  0.61584851  0.73169702  1
  Mo  Mo1  1  0.13415149  0.38415149  0.26830298  1
  O  O0  1  0.70545462  0.69067852  0.88135703  1
  O  O1  1  0.82409759  0.30932148  0.11864297  1
  O  O2  1  0.29454538  0.30932148  0.11864297  1
  O  O3  1  0.17590241  0.69067852  0.88135703  1
  F  F0  1  0.50000000  0.50000000  0.50000000  1
  F  F1  1  0.00000000  0.50000000  0.50000000  1
  F  F2  1  0.83401910  0.87478940  0.66803920  1
  F  F3  1  0.16598090  0.12521060  0.33196080  1
  F  F4  1  0.16598090  0.70675019  0.33196080  1
  F  F5  1  0.83401910  0.29324981  0.66803920  1
loop_
_geom_bond_atom_site_label_1
_geom_bond_atom_site_label_2
_geom_bond_distance
_geom_bond_site_symmetry_2
Cs0 O2 3.079525 1_556
Cs0 O1 3.079528 1_556
Cs0 F2 3.142852 1_545
Cs0 F2 3.142852 1_445
Cs0 F5 3.142855 1_555
Cs0 F5 3.142855 1_455
Cs0 F4 3.176946 1_545
Cs0 F3 3.176949 1_555
Cs1 O0 3.079525 1_554
Cs1 O3 3.079528 1_554
Cs1 F3 3.142852 1_565
Cs1 F3 3.142852 1_665
Cs1 F4 3.142855 1_555
Cs1 F4 3.142855 1_655
Cs1 F5 3.176946 1_565
Cs1 F2 3.176949 1_555
Mo0 O0 1.691675 1_555
Mo0 O3 1.691675 1_655
Mo1 O2 1.691675 1_555
Mo1 O1 1.691675 1_455
F0 Mo1 2.158874 1_555
F0 Mo0 2.158874 1_555
F1 Mo1 2.158874 1_555
F1 Mo0 2.158874 1_455
F2 Mo0 1.914433 1_555
F3 Mo1 1.914433 1_555
F4 Mo1 1.914433 1_555
F5 Mo0 1.914433 1_555
