# generated using pymatgen
data_Ce(BRu)2
_symmetry_space_group_name_H-M   'P 1'
_cell_length_a   5.56262580
_cell_length_b   5.56262614
_cell_length_c   5.97371313
_cell_angle_alpha   108.79821400
_cell_angle_beta   108.79821290
_cell_angle_gamma   107.93271707
_symmetry_Int_Tables_number   1
_chemical_formula_structural   Ce(BRu)2
_chemical_formula_sum   'Ce2 B4 Ru4'
_cell_volume   147.13156238
_cell_formula_units_Z   2
loop_
 _symmetry_equiv_pos_site_id
 _symmetry_equiv_pos_as_xyz
  1  'x, y, z'
loop_
 _atom_site_type_symbol
 _atom_site_label
 _atom_site_symmetry_multiplicity
 _atom_site_fract_x
 _atom_site_fract_y
 _atom_site_fract_z
 _atom_site_occupancy
  Ce  Ce0  1  0.25000000  0.75000000  0.50000000  1
  Ce  Ce1  1  -0.00000000  -0.00000000  -0.00000000  1
  B  B0  1  0.93216152  0.06783848  0.50000000  1
  B  B1  1  0.56783848  0.43216152  0.50000000  1
  B  B2  1  0.68215734  0.31784266  0.00000000  1
  B  B3  1  0.31784266  0.68215734  -0.00000000  1
  Ru  Ru0  1  0.61203320  0.11203320  0.22406740  1
  Ru  Ru1  1  0.88796680  0.38796680  0.77593260  1
  Ru  Ru2  1  0.36202379  0.36202379  0.72404858  1
  Ru  Ru3  1  0.63797621  0.63797621  0.27595142  1
loop_
_geom_bond_atom_site_label_1
_geom_bond_atom_site_label_2
_geom_bond_distance
_geom_bond_site_symmetry_2
Ce0 Ru3 2.998250 1_455
Ce0 Ru2 2.998251 1_565
Ce0 Ru3 2.998254 1_555
Ce0 Ru2 2.998254 1_555
Ce1 Ru0 2.998286 1_555
Ce1 Ru1 2.998286 1_444
Ce1 Ru0 2.998289 1_455
Ce1 Ru1 2.998289 1_454
B0 Ru2 2.074424 1_655
B0 Ru3 2.074424 1_545
B0 Ru0 2.141864 1_555
B0 Ru1 2.141864 1_555
B0 Ce0 2.859490 1_645
B0 Ce1 3.048574 1_655
B0 Ce1 3.048574 1_656
B1 Ru2 2.074429 1_555
B1 Ru3 2.074429 1_555
B1 Ru1 2.141864 1_555
B1 Ru0 2.141864 1_555
B1 Ce0 2.859490 1_555
B1 Ce1 3.048574 1_555
B1 Ce1 3.048574 1_666
B2 Ru1 2.074491 1_554
B2 Ru0 2.074491 1_555
B2 Ru2 2.141895 1_554
B2 Ru3 2.141896 1_555
B2 Ce1 2.859528 1_655
B2 Ce0 3.048582 1_655
B2 Ce0 3.048582 1_544
B3 Ru1 2.074486 1_454
B3 Ru0 2.074486 1_565
B3 Ru3 2.141895 1_555
B3 Ru2 2.141896 1_554
B3 Ce1 2.859528 1_565
B3 Ce0 3.048582 1_555
B3 Ce0 3.048582 1_554
