# generated using pymatgen
data_PrBi2Au
_symmetry_space_group_name_H-M   'P 1'
_cell_length_a   4.68484500
_cell_length_b   4.68484500
_cell_length_c   10.15275900
_cell_angle_alpha   90.00000000
_cell_angle_beta   90.00000000
_cell_angle_gamma   90.00000000
_symmetry_Int_Tables_number   1
_chemical_formula_structural   PrBi2Au
_chemical_formula_sum   'Pr2 Bi4 Au2'
_cell_volume   222.83044655
_cell_formula_units_Z   2
loop_
 _symmetry_equiv_pos_site_id
 _symmetry_equiv_pos_as_xyz
  1  'x, y, z'
loop_
 _atom_site_type_symbol
 _atom_site_label
 _atom_site_symmetry_multiplicity
 _atom_site_fract_x
 _atom_site_fract_y
 _atom_site_fract_z
 _atom_site_occupancy
  Pr  Pr0  1  0.50000000  0.00000000  0.23585900  1
  Pr  Pr1  1  0.00000000  0.50000000  0.76414100  1
  Bi  Bi0  1  0.00000000  0.50000000  0.18850400  1
  Bi  Bi1  1  0.50000000  0.00000000  0.81149600  1
  Bi  Bi2  1  0.00000000  0.00000000  0.50000000  1
  Bi  Bi3  1  0.50000000  0.50000000  0.50000000  1
  Au  Au0  1  0.00000000  0.00000000  0.00000000  1
  Au  Au1  1  0.50000000  0.50000000  0.00000000  1
loop_
_geom_bond_atom_site_label_1
_geom_bond_atom_site_label_2
_geom_bond_distance
_geom_bond_site_symmetry_2
Bi0 Pr0 3.347393 1_555
Bi0 Pr0 3.347393 1_565
Bi0 Pr0 3.347393 1_465
Bi0 Pr0 3.347393 1_455
Bi1 Pr1 3.347393 1_545
Bi1 Pr1 3.347393 1_555
Bi1 Pr1 3.347393 1_645
Bi1 Pr1 3.347393 1_655
Bi2 Bi3 3.312686 1_455
Bi2 Bi3 3.312686 1_545
Bi2 Bi3 3.312686 1_445
Bi2 Bi3 3.312686 1_555
Bi2 Pr1 3.560727 1_545
Bi2 Pr1 3.560727 1_555
Bi2 Pr0 3.560727 1_555
Bi2 Pr0 3.560727 1_455
Bi3 Pr1 3.560727 1_555
Bi3 Pr1 3.560727 1_655
Bi3 Pr0 3.560727 1_555
Bi3 Pr0 3.560727 1_565
Au0 Bi1 3.024849 1_454
Au0 Bi1 3.024849 1_554
Au0 Bi0 3.024849 1_555
Au0 Bi0 3.024849 1_545
Au0 Pr0 3.349798 1_555
Au0 Pr0 3.349798 1_455
Au0 Pr1 3.349798 1_554
Au0 Pr1 3.349798 1_544
Au1 Bi1 3.024849 1_554
Au1 Bi1 3.024849 1_564
Au1 Bi0 3.024849 1_555
Au1 Bi0 3.024849 1_655
Au1 Pr0 3.349798 1_565
Au1 Pr0 3.349798 1_555
Au1 Pr1 3.349798 1_654
Au1 Pr1 3.349798 1_554
