# generated using pymatgen
data_K2RbCoF6
_symmetry_space_group_name_H-M   'P 1'
_cell_length_a   6.33195500
_cell_length_b   6.33195535
_cell_length_c   6.33195558
_cell_angle_alpha   59.99999894
_cell_angle_beta   59.99999781
_cell_angle_gamma   59.99999660
_symmetry_Int_Tables_number   1
_chemical_formula_structural   K2RbCoF6
_chemical_formula_sum   'K2 Rb1 Co1 F6'
_cell_volume   179.51407410
_cell_formula_units_Z   1
loop_
 _symmetry_equiv_pos_site_id
 _symmetry_equiv_pos_as_xyz
  1  'x, y, z'
loop_
 _atom_site_type_symbol
 _atom_site_label
 _atom_site_symmetry_multiplicity
 _atom_site_fract_x
 _atom_site_fract_y
 _atom_site_fract_z
 _atom_site_occupancy
  K  K0  1  0.25000000  0.25000000  0.25000000  1
  K  K1  1  0.75000000  0.75000000  0.75000000  1
  Rb  Rb0  1  0.50000000  0.50000000  0.50000000  1
  Co  Co0  1  0.00000000  0.00000000  0.00000000  1
  F  F0  1  0.20874200  0.79125800  0.20874200  1
  F  F1  1  0.79125800  0.79125800  0.20874200  1
  F  F2  1  0.79125800  0.20874200  0.79125800  1
  F  F3  1  0.79125800  0.20874200  0.20874200  1
  F  F4  1  0.20874200  0.79125800  0.79125800  1
  F  F5  1  0.20874200  0.20874200  0.79125800  1
loop_
_geom_bond_atom_site_label_1
_geom_bond_atom_site_label_2
_geom_bond_distance
_geom_bond_site_symmetry_2
Co0 F0 1.869230 1_545
Co0 F5 1.869230 1_554
Co0 F1 1.869230 1_445
Co0 F2 1.869230 1_454
Co0 F3 1.869230 1_455
Co0 F4 1.869230 1_544
F0 Rb0 2.608139 1_555
F0 K1 3.187461 1_554
F0 K1 3.187461 1_455
F0 K0 3.187462 1_555
F0 K0 3.187462 1_565
F1 Rb0 2.608139 1_555
F1 K0 3.187461 1_565
F1 K0 3.187461 1_655
F1 K1 3.187462 1_554
F1 K1 3.187462 1_555
F2 Rb0 2.608139 1_555
F2 K0 3.187461 1_556
F2 K0 3.187461 1_655
F2 K1 3.187462 1_555
F2 K1 3.187462 1_545
F3 Rb0 2.608139 1_555
F3 K0 3.187461 1_555
F3 K0 3.187461 1_655
F3 K1 3.187462 1_554
F3 K1 3.187462 1_545
F4 Rb0 2.608139 1_555
F4 K1 3.187461 1_555
F4 K1 3.187461 1_455
F4 K0 3.187462 1_556
F4 K0 3.187462 1_565
F5 Rb0 2.608139 1_555
F5 K1 3.187461 1_545
F5 K1 3.187461 1_455
F5 K0 3.187462 1_556
F5 K0 3.187462 1_555
