# generated using pymatgen
data_Co5SbO8
_symmetry_space_group_name_H-M   'P 1'
_cell_length_a   6.02100761
_cell_length_b   6.01409916
_cell_length_c   10.75465309
_cell_angle_alpha   73.71417193
_cell_angle_beta   89.75576553
_cell_angle_gamma   59.85654750
_symmetry_Int_Tables_number   1
_chemical_formula_structural   Co5SbO8
_chemical_formula_sum   'Co10 Sb2 O16'
_cell_volume   318.85525511
_cell_formula_units_Z   2
loop_
 _symmetry_equiv_pos_site_id
 _symmetry_equiv_pos_as_xyz
  1  'x, y, z'
loop_
 _atom_site_type_symbol
 _atom_site_label
 _atom_site_symmetry_multiplicity
 _atom_site_fract_x
 _atom_site_fract_y
 _atom_site_fract_z
 _atom_site_occupancy
  Co  Co0  1  0.68639400  0.13265800  0.54725000  1
  Co  Co1  1  0.81360600  0.86734200  0.95275000  1
  Co  Co2  1  0.25000000  0.50000000  0.75000000  1
  Co  Co3  1  0.75000000  0.00000000  0.25000000  1
  Co  Co4  1  0.25000000  0.50000000  0.25000000  1
  Co  Co5  1  0.18747400  0.13348500  0.04720200  1
  Co  Co6  1  0.31252700  0.86651500  0.45279800  1
  Co  Co7  1  0.75000000  0.50000000  0.25000000  1
  Co  Co8  1  0.25000000  0.00000000  0.75000000  1
  Co  Co9  1  0.75000000  0.50000000  0.75000000  1
  Sb  Sb0  1  0.50110900  0.50052100  0.99990300  1
  Sb  Sb1  1  0.99889100  0.49947900  0.50009800  1
  O  O0  1  0.63060600  0.24556200  0.35118400  1
  O  O1  1  0.13110000  0.27729700  0.85104100  1
  O  O2  1  0.86939300  0.75443900  0.14881600  1
  O  O3  1  0.36889900  0.72270300  0.64895900  1
  O  O4  1  0.39198400  0.26095300  0.12191100  1
  O  O5  1  0.88670000  0.26556600  0.62117700  1
  O  O6  1  0.85096800  0.26120100  0.11951800  1
  O  O7  1  0.34883900  0.26655100  0.61902200  1
  O  O8  1  0.38790600  0.72596100  0.12067800  1
  O  O9  1  0.88738600  0.72552000  0.62177300  1
  O  O10  1  0.64903200  0.73879900  0.38048200  1
  O  O11  1  0.15116100  0.73344800  0.88097800  1
  O  O12  1  0.11209400  0.27403900  0.37932200  1
  O  O13  1  0.61261500  0.27448000  0.87822700  1
  O  O14  1  0.10801600  0.73904700  0.37809000  1
  O  O15  1  0.61329900  0.73443400  0.87882300  1
loop_
_geom_bond_atom_site_label_1
_geom_bond_atom_site_label_2
_geom_bond_distance
_geom_bond_site_symmetry_2
Co0 O0 1.998528 1_555
Co0 O9 2.008466 1_545
Co0 O5 2.014541 1_555
Co0 O7 2.016556 1_555
Co1 O2 1.998529 1_556
Co1 O13 2.008466 1_565
Co1 O15 2.014546 1_555
Co1 O11 2.016556 1_655
Co2 O3 1.904542 1_555
Co2 O1 1.904547 1_555
Co2 O9 2.123841 1_455
Co2 O13 2.123845 1_555
Co2 O11 2.138327 1_555
Co2 O7 2.138331 1_555
Co3 O2 1.926240 1_545
Co3 O0 1.926245 1_555
Co3 O4 2.102961 1_555
Co3 O14 2.102966 1_645
Co3 O6 2.126495 1_555
Co3 O10 2.126495 1_545
Co4 O0 2.083928 1_555
Co4 O2 2.083933 1_455
Co4 O8 2.129305 1_555
Co4 O12 2.129305 1_555
Co4 O4 2.135809 1_555
Co4 O14 2.135818 1_555
Co5 O1 2.000440 1_554
Co5 O8 2.009730 1_545
Co5 O4 2.012817 1_555
Co5 O6 2.014588 1_455
Co6 O3 2.000441 1_555
Co6 O12 2.009729 1_565
Co6 O14 2.012816 1_555
Co6 O10 2.014583 1_555
Co7 O0 2.051027 1_555
Co7 O2 2.051027 1_555
Co7 O12 2.127080 1_655
Co7 O8 2.127080 1_555
Co7 O10 2.155815 1_555
Co7 O6 2.155815 1_555
Co8 O1 2.070080 1_555
Co8 O3 2.070080 1_545
Co8 O15 2.128657 1_545
Co8 O5 2.128661 1_455
Co8 O7 2.143057 1_555
Co8 O11 2.143062 1_545
Co9 O1 2.087649 1_655
Co9 O3 2.087654 1_555
Co9 O13 2.119808 1_555
Co9 O9 2.119812 1_555
Co9 O5 2.122523 1_555
Co9 O15 2.122523 1_555
O4 Sb0 2.027906 1_554
O5 Sb1 2.012571 1_555
O6 Sb0 2.025693 1_554
O7 Sb1 2.022738 1_455
O8 Sb0 2.010466 1_554
O9 Sb1 2.021077 1_555
O10 Sb1 2.025698 1_555
O11 Sb0 2.022743 1_555
O12 Sb1 2.010475 1_455
O13 Sb0 2.021086 1_555
O14 Sb1 2.027906 1_455
O15 Sb0 2.012571 1_555
