# generated using pymatgen
data_LiMnPO4F
_symmetry_space_group_name_H-M   'P 1'
_cell_length_a   5.19455100
_cell_length_b   5.33774277
_cell_length_c   7.39582499
_cell_angle_alpha   108.70974871
_cell_angle_beta   104.51477451
_cell_angle_gamma   98.04976521
_symmetry_Int_Tables_number   1
_chemical_formula_structural   LiMnPO4F
_chemical_formula_sum   'Li2 Mn2 P2 O8 F2'
_cell_volume   182.51546021
_cell_formula_units_Z   2
loop_
 _symmetry_equiv_pos_site_id
 _symmetry_equiv_pos_as_xyz
  1  'x, y, z'
loop_
 _atom_site_type_symbol
 _atom_site_label
 _atom_site_symmetry_multiplicity
 _atom_site_fract_x
 _atom_site_fract_y
 _atom_site_fract_z
 _atom_site_occupancy
  Li  Li0  1  0.72967100  0.38058200  0.18909800  1
  Li  Li1  1  0.27032900  0.61941800  0.81090200  1
  Mn  Mn0  1  0.00000000  0.00000000  0.00000000  1
  Mn  Mn1  1  0.00000000  0.00000000  0.50000000  1
  P  P0  1  0.68198400  0.35533700  0.76254000  1
  P  P1  1  0.31801600  0.64466300  0.23746000  1
  O  O0  1  0.69458500  0.65902500  0.65908600  1
  O  O1  1  0.30541500  0.34097500  0.34091400  1
  O  O2  1  0.63559700  0.75453600  0.08293800  1
  O  O3  1  0.25057000  0.79203400  0.38545300  1
  O  O4  1  0.36440300  0.24546400  0.91706200  1
  O  O5  1  0.74943000  0.20796600  0.61454700  1
  O  O6  1  0.87548100  0.33566200  0.88211300  1
  O  O7  1  0.12451900  0.66433800  0.11788700  1
  F  F0  1  0.85855900  0.07580100  0.26392700  1
  F  F1  1  0.14144100  0.92419900  0.73607300  1
loop_
_geom_bond_atom_site_label_1
_geom_bond_atom_site_label_2
_geom_bond_distance
_geom_bond_site_symmetry_2
Li0 O4 2.222715 1_554
Li0 O2 2.434304 1_555
Li0 O6 2.519827 1_554
Li1 O2 2.222715 1_556
Li1 O4 2.434304 1_555
Li1 O7 2.519827 1_556
Mn0 O7 2.330815 1_545
Mn0 O6 2.330815 1_454
Mn0 O2 2.465575 1_445
Mn0 O4 2.465575 1_554
Mn0 O1 2.535520 1_555
Mn0 O0 2.535520 1_444
Mn1 O5 1.999542 1_455
Mn1 O3 1.999542 1_545
O0 P0 2.002114 1_555
O1 P1 2.002114 1_555
O2 P1 2.339980 1_555
O3 P1 1.287076 1_555
O4 P0 2.339980 1_555
O5 P0 1.287076 1_555
O6 P0 1.202898 1_555
O7 P1 1.202898 1_555
F0 O2 1.807715 1_545
F0 Mn1 1.909275 1_655
F0 Li0 2.024368 1_555
F0 Mn0 2.192971 1_655
F1 O4 1.807715 1_565
F1 Mn1 1.909275 1_565
F1 Li1 2.024368 1_555
F1 Mn0 2.192971 1_566
