# generated using pymatgen
data_LiSiPO5
_symmetry_space_group_name_H-M   'P 1'
_cell_length_a   6.10852800
_cell_length_b   7.37070200
_cell_length_c   6.64039500
_cell_angle_alpha   90.00000000
_cell_angle_beta   90.00000000
_cell_angle_gamma   90.00000000
_symmetry_Int_Tables_number   1
_chemical_formula_structural   LiSiPO5
_chemical_formula_sum   'Li4 Si4 P4 O20'
_cell_volume   298.97807112
_cell_formula_units_Z   4
loop_
 _symmetry_equiv_pos_site_id
 _symmetry_equiv_pos_as_xyz
  1  'x, y, z'
loop_
 _atom_site_type_symbol
 _atom_site_label
 _atom_site_symmetry_multiplicity
 _atom_site_fract_x
 _atom_site_fract_y
 _atom_site_fract_z
 _atom_site_occupancy
  Li  Li0  1  0.00000000  0.00000000  0.00000000  1
  Li  Li1  1  0.50000000  0.50000000  0.50000000  1
  Li  Li2  1  0.50000000  0.00000000  0.00000000  1
  Li  Li3  1  0.00000000  0.50000000  0.50000000  1
  Si  Si0  1  0.25000000  0.77118500  0.63995600  1
  Si  Si1  1  0.25000000  0.72881500  0.13995600  1
  Si  Si2  1  0.75000000  0.22881500  0.36004400  1
  Si  Si3  1  0.75000000  0.27118500  0.86004400  1
  P  P0  1  0.75000000  0.88446100  0.62100500  1
  P  P1  1  0.75000000  0.61553900  0.12100500  1
  P  P2  1  0.25000000  0.11553900  0.37899500  1
  P  P3  1  0.25000000  0.38446100  0.87899500  1
  O  O0  1  0.75000000  0.01534700  0.80487000  1
  O  O1  1  0.75000000  0.48465300  0.30487000  1
  O  O2  1  0.25000000  0.98465300  0.19513000  1
  O  O3  1  0.25000000  0.51534700  0.69513000  1
  O  O4  1  0.55067600  0.75729100  0.63060000  1
  O  O5  1  0.94932400  0.74270900  0.13060000  1
  O  O6  1  0.05067600  0.24270900  0.36940000  1
  O  O7  1  0.44932400  0.25729100  0.86940000  1
  O  O8  1  0.44932400  0.24270900  0.36940000  1
  O  O9  1  0.05067600  0.25729100  0.86940000  1
  O  O10  1  0.94932400  0.75729100  0.63060000  1
  O  O11  1  0.55067600  0.74270900  0.13060000  1
  O  O12  1  0.75000000  0.99811100  0.42634900  1
  O  O13  1  0.75000000  0.50188900  0.92634900  1
  O  O14  1  0.25000000  0.00188900  0.57365100  1
  O  O15  1  0.25000000  0.49811100  0.07365100  1
  O  O16  1  0.25000000  0.81948600  0.89202300  1
  O  O17  1  0.25000000  0.68051400  0.39202300  1
  O  O18  1  0.75000000  0.18051400  0.10797700  1
  O  O19  1  0.75000000  0.31948600  0.60797700  1
loop_
_geom_bond_atom_site_label_1
_geom_bond_atom_site_label_2
_geom_bond_distance
_geom_bond_site_symmetry_2
Li0 O2 2.005959 1_545
Li0 O0 2.005959 1_454
Li0 O9 2.108154 1_554
Li0 O5 2.108154 1_445
Li0 O16 2.148605 1_544
Li0 O18 2.148605 1_455
Li1 O3 2.005959 1_555
Li1 O1 2.005959 1_555
Li1 O8 2.108154 1_555
Li1 O4 2.108154 1_555
Li1 O19 2.148605 1_555
Li1 O17 2.148605 1_555
Li2 O2 2.005959 1_545
Li2 O0 2.005959 1_554
Li2 O7 2.108154 1_554
Li2 O11 2.108154 1_545
Li2 O16 2.148605 1_544
Li2 O18 2.148605 1_555
Li3 O3 2.005959 1_555
Li3 O1 2.005959 1_455
Li3 O6 2.108154 1_555
Li3 O10 2.108154 1_455
Li3 O19 2.148605 1_455
Li3 O17 2.148605 1_555
O0 P0 1.556076 1_545
O0 Si3 1.920968 1_555
O1 P1 1.556076 1_555
O1 Si2 1.920968 1_555
O2 P2 1.556076 1_565
O2 Si1 1.920968 1_555
O3 P3 1.556076 1_555
O3 Si0 1.920968 1_555
O4 P0 1.537902 1_555
O4 Si0 1.840589 1_555
O5 P1 1.537902 1_555
O5 Si1 1.840589 1_655
O6 P2 1.537902 1_555
O6 Si2 1.840589 1_455
O7 P3 1.537902 1_555
O7 Si3 1.840589 1_555
O8 P2 1.537902 1_555
O8 Si2 1.840589 1_555
O9 P3 1.537902 1_555
O9 Si3 1.840589 1_455
O10 P0 1.537902 1_555
O10 Si0 1.840589 1_655
O11 P1 1.537902 1_555
O11 Si1 1.840589 1_555
O12 P0 1.540294 1_555
O12 Si2 1.756527 1_565
O13 P1 1.540294 1_556
O13 Si3 1.756527 1_555
O14 P2 1.540294 1_555
O14 Si0 1.756527 1_545
O15 P3 1.540294 1_554
O15 Si1 1.756527 1_555
O16 Si0 1.711266 1_555
O16 Si1 1.776846 1_556
O17 Si1 1.711266 1_555
O17 Si0 1.776846 1_555
O18 Si2 1.711266 1_555
O18 Si3 1.776846 1_554
O19 Si3 1.711266 1_555
O19 Si2 1.776846 1_555
