# generated using pymatgen
data_Y(CrFe3)3
_symmetry_space_group_name_H-M   'P 1'
_cell_length_a   4.70469500
_cell_length_b   6.36725968
_cell_length_c   6.36725968
_cell_angle_alpha   98.35662078
_cell_angle_beta   111.68135188
_cell_angle_gamma   68.31864812
_symmetry_Int_Tables_number   1
_chemical_formula_structural   Y(CrFe3)3
_chemical_formula_sum   'Y1 Cr3 Fe9'
_cell_volume   164.69546169
_cell_formula_units_Z   1
loop_
 _symmetry_equiv_pos_site_id
 _symmetry_equiv_pos_as_xyz
  1  'x, y, z'
loop_
 _atom_site_type_symbol
 _atom_site_label
 _atom_site_symmetry_multiplicity
 _atom_site_fract_x
 _atom_site_fract_y
 _atom_site_fract_z
 _atom_site_occupancy
  Y  Y0  1  0.99513300  0.00486700  0.99513300  1
  Cr  Cr0  1  0.36107200  0.63892800  0.36107200  1
  Cr  Cr1  1  0.00279300  0.36594700  0.37153400  1
  Cr  Cr2  1  0.00279300  0.62846600  0.63405300  1
  Fe  Fe0  1  0.50104000  0.77251600  0.77459700  1
  Fe  Fe1  1  0.50104000  0.22540400  0.22748400  1
  Fe  Fe2  1  0.27454800  0.22545200  0.77454800  1
  Fe  Fe3  1  0.72759900  0.77240100  0.22759900  1
  Fe  Fe4  1  0.49983900  0.99764000  0.49763400  1
  Fe  Fe5  1  0.00015500  0.99764000  0.49763400  1
  Fe  Fe6  1  0.49983900  0.50236600  0.00236000  1
  Fe  Fe7  1  0.00015500  0.50236600  0.00236000  1
  Fe  Fe8  1  0.63399400  0.36600600  0.63399400  1
loop_
_geom_bond_atom_site_label_1
_geom_bond_atom_site_label_2
_geom_bond_distance
_geom_bond_site_symmetry_2
Cr0 Fe8 2.295371 1_555
Cr0 Fe5 2.550308 1_555
Cr0 Fe7 2.550308 1_555
Cr0 Fe4 2.550308 1_555
Cr0 Fe6 2.550308 1_555
Cr0 Fe1 2.563524 1_555
Cr0 Fe0 2.563529 1_555
Cr0 Fe3 2.606467 1_455
Cr0 Fe3 2.606467 1_555
Cr0 Cr2 2.854503 1_655
Cr0 Cr1 2.854503 1_655
Cr0 Cr2 2.854507 1_555
Cr0 Cr1 2.854507 1_555
Cr0 Y0 3.077677 1_464
Cr1 Cr2 2.185378 1_555
Cr1 Fe2 2.533321 1_555
Cr1 Fe3 2.559454 1_455
Cr1 Fe5 2.592396 1_545
Cr1 Fe4 2.592398 1_545
Cr1 Fe6 2.616112 1_455
Cr1 Fe7 2.616114 1_555
Cr1 Fe1 2.633808 1_455
Cr1 Fe1 2.633813 1_555
Cr1 Fe8 2.818702 1_455
Cr1 Fe8 2.818706 1_555
Cr1 Y0 3.070310 1_454
Cr2 Fe2 2.533321 1_555
Cr2 Fe3 2.559454 1_455
Cr2 Fe7 2.592396 1_556
Cr2 Fe6 2.592398 1_556
Cr2 Fe4 2.616112 1_455
Cr2 Fe5 2.616114 1_555
Cr2 Fe0 2.633812 1_455
Cr2 Fe0 2.633812 1_555
Cr2 Fe8 2.818702 1_455
Cr2 Fe8 2.818706 1_555
Cr2 Y0 3.070310 1_465
Fe0 Fe6 2.408383 1_556
Fe0 Fe7 2.408385 1_656
Fe0 Fe5 2.426118 1_555
Fe0 Fe4 2.426121 1_555
Fe0 Fe8 2.536978 1_555
Fe0 Fe2 2.679932 1_565
Fe0 Fe3 2.680327 1_556
Fe0 Y0 3.014872 1_465
Fe0 Y0 3.014876 1_565
Fe1 Fe5 2.408387 1_645
Fe1 Fe4 2.408387 1_545
Fe1 Fe7 2.426116 1_555
Fe1 Fe6 2.426116 1_555
Fe1 Fe8 2.536976 1_555
Fe1 Fe2 2.679932 1_554
Fe1 Fe3 2.680333 1_545
Fe1 Y0 3.014877 1_454
Fe1 Y0 3.014877 1_554
Fe2 Fe7 2.416148 1_556
Fe2 Fe5 2.416148 1_545
Fe2 Fe6 2.416148 1_556
Fe2 Fe4 2.416148 1_545
Fe2 Fe8 2.632664 1_455
Fe2 Fe8 2.632664 1_555
Fe2 Y0 2.995880 1_555
Fe2 Y0 2.995881 1_455
Fe3 Fe7 2.381252 1_655
Fe3 Fe5 2.381252 1_655
Fe3 Fe6 2.381252 1_555
Fe3 Fe4 2.381252 1_555
Fe3 Y0 3.058764 1_464
Fe3 Y0 3.058765 1_564
Fe4 Fe5 2.350861 1_555
Fe4 Fe5 2.353834 1_655
Fe4 Fe8 2.598168 1_565
Fe4 Y0 3.170041 1_565
Fe4 Y0 3.197805 1_464
Fe5 Fe8 2.598168 1_465
Fe5 Y0 3.170041 1_465
Fe5 Y0 3.197805 1_464
Fe6 Fe7 2.350861 1_555
Fe6 Fe7 2.353834 1_655
Fe6 Fe8 2.598168 1_554
Fe6 Y0 3.170041 1_554
Fe6 Y0 3.197805 1_464
Fe7 Fe8 2.598168 1_454
Fe7 Y0 3.170041 1_454
Fe7 Y0 3.197805 1_464
Fe8 Y0 3.037308 1_555
