# generated using pymatgen
data_Li3Mn2O5
_symmetry_space_group_name_H-M   'P 1'
_cell_length_a   3.08191052
_cell_length_b   3.08191052
_cell_length_c   24.53725427
_cell_angle_alpha   89.96679423
_cell_angle_beta   89.96679423
_cell_angle_gamma   55.61286710
_symmetry_Int_Tables_number   1
_chemical_formula_structural   Li3Mn2O5
_chemical_formula_sum   'Li6 Mn4 O10'
_cell_volume   192.32971028
_cell_formula_units_Z   2
loop_
 _symmetry_equiv_pos_site_id
 _symmetry_equiv_pos_as_xyz
  1  'x, y, z'
loop_
 _atom_site_type_symbol
 _atom_site_label
 _atom_site_symmetry_multiplicity
 _atom_site_fract_x
 _atom_site_fract_y
 _atom_site_fract_z
 _atom_site_occupancy
  Li  Li0  1  0.69405500  0.69405500  0.59296200  1
  Li  Li1  1  0.30594500  0.30594500  0.40703800  1
  Li  Li2  1  0.89991200  0.89991200  0.20040400  1
  Li  Li3  1  0.50000000  0.50000000  0.00000000  1
  Li  Li4  1  0.10008800  0.10008800  0.79959600  1
  Li  Li5  1  0.00000000  0.00000000  0.50000000  1
  Mn  Mn0  1  0.39705600  0.39705600  0.69945600  1
  Mn  Mn1  1  0.60294400  0.60294400  0.30054400  1
  Mn  Mn2  1  0.20042500  0.20042500  0.10000800  1
  Mn  Mn3  1  0.79957500  0.79957500  0.89999200  1
  O  O0  1  0.03994500  0.03994500  0.65630400  1
  O  O1  1  0.63988600  0.63988600  0.44924000  1
  O  O2  1  0.23577700  0.23577700  0.25371500  1
  O  O3  1  0.83292200  0.83292200  0.05370900  1
  O  O4  1  0.43283800  0.43283800  0.85395800  1
  O  O5  1  0.36011400  0.36011400  0.55076000  1
  O  O6  1  0.96005500  0.96005500  0.34369600  1
  O  O7  1  0.56716200  0.56716200  0.14604200  1
  O  O8  1  0.16707800  0.16707800  0.94629100  1
  O  O9  1  0.76422300  0.76422300  0.74628500  1
loop_
_geom_bond_atom_site_label_1
_geom_bond_atom_site_label_2
_geom_bond_distance
_geom_bond_site_symmetry_2
Li0 O5 1.989385 1_655
Li0 O5 1.989385 1_565
Li0 O5 2.095142 1_555
Li0 O0 2.277456 1_565
Li0 O0 2.277456 1_655
Li0 O0 2.444547 1_665
Li1 O1 1.989385 1_545
Li1 O1 1.989385 1_455
Li1 O1 2.095142 1_555
Li1 O6 2.277456 1_455
Li1 O6 2.277456 1_545
Li1 O6 2.444547 1_445
Li2 O2 2.139462 1_655
Li2 O2 2.139462 1_565
Li2 O7 2.162419 1_655
Li2 O7 2.162419 1_565
Li2 O2 2.251096 1_665
Li2 O7 2.252485 1_555
Li3 O8 2.152180 1_654
Li3 O8 2.152180 1_564
Li3 O3 2.152180 1_545
Li3 O3 2.152180 1_455
Li3 O3 2.243784 1_555
Li3 O8 2.243784 1_554
Li4 O9 2.139462 1_545
Li4 O9 2.139462 1_455
Li4 O4 2.162419 1_545
Li4 O4 2.162419 1_455
Li4 O9 2.251096 1_445
Li4 O4 2.252485 1_555
Li5 O1 2.049050 1_545
Li5 O1 2.049050 1_455
Li5 O5 2.049050 1_455
Li5 O5 2.049050 1_545
Li5 O1 2.325794 1_445
Li5 O5 2.325794 1_555
Mn0 O0 1.947778 1_565
Mn0 O0 1.947778 1_655
Mn0 O9 1.977527 1_545
Mn0 O9 1.977527 1_455
Mn0 O0 2.216894 1_555
Mn0 O9 2.308817 1_555
Mn1 O6 1.947778 1_545
Mn1 O6 1.947778 1_455
Mn1 O2 1.977527 1_565
Mn1 O2 1.977527 1_655
Mn1 O6 2.216894 1_555
Mn1 O2 2.308817 1_555
Mn2 O7 1.967125 1_545
Mn2 O7 1.967125 1_455
Mn2 O3 1.969330 1_455
Mn2 O3 1.969330 1_545
Mn2 O7 2.297118 1_555
Mn2 O3 2.303958 1_445
Mn3 O4 1.967125 1_565
Mn3 O4 1.967125 1_655
Mn3 O8 1.969330 1_565
Mn3 O8 1.969330 1_655
Mn3 O4 2.297118 1_555
Mn3 O8 2.303958 1_665
