# generated using pymatgen
data_Rb4Mg(Se2O7)2
_symmetry_space_group_name_H-M   'P 1'
_cell_length_a   8.25309445
_cell_length_b   7.70335581
_cell_length_c   8.18220438
_cell_angle_alpha   89.54606826
_cell_angle_beta   86.40429909
_cell_angle_gamma   58.99733570
_symmetry_Int_Tables_number   1
_chemical_formula_structural   Rb4Mg(Se2O7)2
_chemical_formula_sum   'Rb4 Mg1 Se4 O14'
_cell_volume   444.82411473
_cell_formula_units_Z   1
loop_
 _symmetry_equiv_pos_site_id
 _symmetry_equiv_pos_as_xyz
  1  'x, y, z'
loop_
 _atom_site_type_symbol
 _atom_site_label
 _atom_site_symmetry_multiplicity
 _atom_site_fract_x
 _atom_site_fract_y
 _atom_site_fract_z
 _atom_site_occupancy
  Rb  Rb0  1  0.12098800  0.60267300  0.27333500  1
  Rb  Rb1  1  0.49922500  0.79240700  0.15651400  1
  Rb  Rb2  1  0.77166800  0.51099600  0.62953200  1
  Rb  Rb3  1  0.61810900  0.16869100  0.98796000  1
  Mg  Mg0  1  0.34547700  0.22386200  0.60332600  1
  Se  Se0  1  0.68907900  0.10847100  0.45029000  1
  Se  Se1  1  0.96549000  0.28336300  0.10752000  1
  Se  Se2  1  0.26169200  0.91044500  0.61690700  1
  Se  Se3  1  0.11571200  0.66050700  0.83092400  1
  O  O0  1  0.59147200  0.19749700  0.65125800  1
  O  O1  1  0.79825700  0.39086100  0.97000600  1
  O  O2  1  0.35804100  0.71801900  0.48514300  1
  O  O3  1  0.30577600  0.58382900  0.93169900  1
  O  O4  1  0.46649300  0.18769300  0.37109400  1
  O  O5  1  0.87432800  0.43722800  0.27561600  1
  O  O6  1  0.41580900  0.92287800  0.73123000  1
  O  O7  1  0.14395700  0.51024600  0.67255100  1
  O  O8  1  0.78650000  0.85571000  0.45439000  1
  O  O9  1  0.16798100  0.27039200  0.03774700  1
  O  O10  1  0.14408700  0.14144400  0.54101200  1
  O  O11  1  0.91087800  0.74803100  0.93192400  1
  O  O12  1  0.00681700  0.05016700  0.14557600  1
  O  O13  1  0.07549400  0.89958900  0.73611300  1
loop_
_geom_bond_atom_site_label_1
_geom_bond_atom_site_label_2
_geom_bond_distance
_geom_bond_site_symmetry_2
Mg0 O0 1.997672 1_555
Mg0 O7 2.018849 1_555
Mg0 O4 2.041927 1_555
Mg0 O10 2.150372 1_555
Mg0 O6 2.336523 1_545
O0 Se0 1.762322 1_555
O0 Rb3 2.775505 1_555
O0 Rb2 3.425689 1_555
O1 Se1 1.690946 1_556
O1 Rb3 2.784075 1_555
O1 Rb2 2.914114 1_555
O1 Rb1 3.118650 1_556
O2 Se2 1.641790 1_555
O2 Rb1 3.030964 1_555
O2 Rb0 3.140235 1_555
O2 Rb2 3.234221 1_555
O3 Se3 1.639936 1_555
O3 Rb3 2.952449 1_555
O3 Rb0 3.066670 1_556
O3 Rb1 3.401786 1_556
O4 Se0 1.776271 1_555
O4 Rb0 3.137700 1_555
O4 Rb3 3.277379 1_554
O4 Rb1 3.406702 1_545
O5 Se1 1.685239 1_555
O5 Rb0 2.904536 1_655
O5 Rb2 2.940893 1_555
O5 Rb1 3.103226 1_555
O6 Se2 1.666782 1_555
O6 Rb2 3.085596 1_555
O7 Se3 1.667721 1_555
O7 Rb2 3.111550 1_455
O7 Rb0 3.333835 1_555
O8 Se0 1.681793 1_565
O8 Rb0 2.757606 1_655
O8 Rb2 3.061471 1_555
O9 Se1 1.684623 1_455
O9 Rb0 3.062656 1_555
O9 Rb3 3.376034 1_554
O9 Rb1 3.447122 1_545
O10 Se2 1.665249 1_545
O10 Rb2 2.969097 1_455
O11 Se3 1.629354 1_655
O11 Rb3 2.892734 1_565
O11 Rb0 3.259168 1_656
O12 Se1 1.677376 1_455
O12 Rb3 3.204882 1_454
O12 Rb0 3.253332 1_545
O12 Rb1 3.492280 1_545
O13 Se2 1.806351 1_555
O13 Se3 1.866514 1_555
