# generated using pymatgen
data_Sr(H2O3)2
_symmetry_space_group_name_H-M   'P 1'
_cell_length_a   5.17397953
_cell_length_b   5.17397953
_cell_length_c   9.27507308
_cell_angle_alpha   78.42877577
_cell_angle_beta   78.42877577
_cell_angle_gamma   69.79686658
_symmetry_Int_Tables_number   1
_chemical_formula_structural   Sr(H2O3)2
_chemical_formula_sum   'Sr2 H8 O12'
_cell_volume   225.94158759
_cell_formula_units_Z   2
loop_
 _symmetry_equiv_pos_site_id
 _symmetry_equiv_pos_as_xyz
  1  'x, y, z'
loop_
 _atom_site_type_symbol
 _atom_site_label
 _atom_site_symmetry_multiplicity
 _atom_site_fract_x
 _atom_site_fract_y
 _atom_site_fract_z
 _atom_site_occupancy
  Sr  Sr0  1  0.89505875  0.17682011  0.71875892  1
  Sr  Sr1  1  0.17682011  0.89505875  0.21875892  1
  H  H0  1  0.14199250  0.34003150  0.94310218  1
  H  H1  1  0.44114415  0.87775953  0.85416927  1
  H  H2  1  0.54854035  0.88404427  0.68606937  1
  H  H3  1  0.88404427  0.54854035  0.18606937  1
  H  H4  1  0.34003150  0.14199250  0.44310218  1
  H  H5  1  0.87775953  0.44114415  0.35416927  1
  H  H6  1  0.37127735  0.82086007  0.50147091  1
  H  H7  1  0.82086007  0.37127735  0.00147091  1
  O  O0  1  0.00820913  0.23412362  0.97988081  1
  O  O1  1  0.86396031  0.68093325  0.60409846  1
  O  O2  1  0.68093325  0.86396031  0.10409846  1
  O  O3  1  0.23412362  0.00820913  0.47988081  1
  O  O4  1  0.42869238  0.00243981  0.76004326  1
  O  O5  1  0.00282001  0.64274465  0.71913219  1
  O  O6  1  0.64274465  0.00282001  0.21913219  1
  O  O7  1  0.00243981  0.42869238  0.26004326  1
  O  O8  1  0.55528578  0.47663353  0.50388017  1
  O  O9  1  0.43963619  0.42248274  0.90343047  1
  O  O10  1  0.42248274  0.43963619  0.40343047  1
  O  O11  1  0.47663353  0.55528578  0.00388017  1
loop_
_geom_bond_atom_site_label_1
_geom_bond_atom_site_label_2
_geom_bond_distance
_geom_bond_site_symmetry_2
H0 O0 0.993996 1_555
H0 O9 1.688922 1_555
H1 O4 0.974882 1_565
H2 O4 0.982894 1_565
H2 O1 1.727412 1_555
H3 O7 0.982894 1_655
H3 O2 1.727412 1_555
H4 O3 0.993996 1_555
H4 O10 1.688922 1_555
H5 O7 0.974882 1_655
H6 O3 0.993639 1_565
H6 O8 1.703039 1_555
H7 O0 0.993639 1_654
H7 O11 1.703039 1_555
O0 Sr1 2.628051 1_546
O0 Sr0 2.696875 1_455
O1 O5 1.348515 1_655
O1 Sr0 2.574092 1_555
O2 O6 1.348515 1_565
O2 Sr1 2.574092 1_555
O3 Sr0 2.628051 1_455
O3 Sr1 2.696875 1_545
O4 Sr0 2.673719 1_455
O4 Sr0 2.788822 1_555
O5 Sr0 2.622874 1_465
O5 Sr0 2.656080 1_455
O6 Sr1 2.622874 1_645
O6 Sr1 2.656080 1_545
O7 Sr1 2.673719 1_545
O7 Sr1 2.788822 1_555
O8 Sr0 2.784001 1_555
O9 Sr0 2.699509 1_555
O10 O8 1.340156 1_555
O10 Sr1 2.699509 1_555
O11 O9 1.340156 1_554
O11 Sr1 2.784001 1_555
