# generated using pymatgen
data_VBiO5
_symmetry_space_group_name_H-M   'P 1'
_cell_length_a   6.01321600
_cell_length_b   11.57487600
_cell_length_c   15.44556200
_cell_angle_alpha   90.00000000
_cell_angle_beta   90.00000000
_cell_angle_gamma   90.00000000
_symmetry_Int_Tables_number   1
_chemical_formula_structural   VBiO5
_chemical_formula_sum   'V8 Bi8 O40'
_cell_volume   1075.04555203
_cell_formula_units_Z   8
loop_
 _symmetry_equiv_pos_site_id
 _symmetry_equiv_pos_as_xyz
  1  'x, y, z'
loop_
 _atom_site_type_symbol
 _atom_site_label
 _atom_site_symmetry_multiplicity
 _atom_site_fract_x
 _atom_site_fract_y
 _atom_site_fract_z
 _atom_site_occupancy
  V  V0  1  0.97800200  0.39955100  0.38586100  1
  V  V1  1  0.52199800  0.89955100  0.61413900  1
  V  V2  1  0.02199800  0.60044900  0.61413900  1
  V  V3  1  0.47800200  0.10044900  0.38586100  1
  V  V4  1  0.02199800  0.10044900  0.88586100  1
  V  V5  1  0.97800200  0.89955100  0.11413900  1
  V  V6  1  0.52199800  0.39955100  0.88586100  1
  V  V7  1  0.47800200  0.60044900  0.11413900  1
  Bi  Bi0  1  0.92087600  0.82167600  0.79151100  1
  Bi  Bi1  1  0.07912400  0.17832400  0.20848900  1
  Bi  Bi2  1  0.57912400  0.32167600  0.20848900  1
  Bi  Bi3  1  0.07912400  0.67832400  0.29151100  1
  Bi  Bi4  1  0.42087600  0.17832400  0.70848900  1
  Bi  Bi5  1  0.42087600  0.67832400  0.79151100  1
  Bi  Bi6  1  0.57912400  0.82167600  0.29151100  1
  Bi  Bi7  1  0.92087600  0.32167600  0.70848900  1
  O  O0  1  0.87879600  0.29644800  0.29813800  1
  O  O1  1  0.24948400  0.04651300  0.92918100  1
  O  O2  1  0.25051600  0.54651300  0.07081900  1
  O  O3  1  0.23276200  0.80224400  0.85567000  1
  O  O4  1  0.26723800  0.30224400  0.14433000  1
  O  O5  1  0.87879600  0.79644800  0.20186200  1
  O  O6  1  0.26723800  0.80224400  0.35567000  1
  O  O7  1  0.62120400  0.79644800  0.70186200  1
  O  O8  1  0.24948400  0.54651300  0.57081900  1
  O  O9  1  0.12120400  0.70355200  0.70186200  1
  O  O10  1  0.62120400  0.29644800  0.79813800  1
  O  O11  1  0.61775600  0.17029100  0.46222300  1
  O  O12  1  0.74948400  0.95348700  0.57081900  1
  O  O13  1  0.76723800  0.69775600  0.35567000  1
  O  O14  1  0.16033600  0.00882100  0.16574600  1
  O  O15  1  0.74948400  0.45348700  0.92918100  1
  O  O16  1  0.12120400  0.20355200  0.79813800  1
  O  O17  1  0.73276200  0.19775600  0.64433000  1
  O  O18  1  0.11775600  0.82970900  0.03777700  1
  O  O19  1  0.25051600  0.04651300  0.42918100  1
  O  O20  1  0.38224400  0.82970900  0.53777700  1
  O  O21  1  0.83966400  0.99117900  0.83425400  1
  O  O22  1  0.76723800  0.19775600  0.14433000  1
  O  O23  1  0.66033600  0.99117900  0.33425400  1
  O  O24  1  0.38224400  0.32970900  0.96222300  1
  O  O25  1  0.11775600  0.32970900  0.46222300  1
  O  O26  1  0.75051600  0.45348700  0.42918100  1
  O  O27  1  0.75051600  0.95348700  0.07081900  1
  O  O28  1  0.66033600  0.49117900  0.16574600  1
  O  O29  1  0.88224400  0.67029100  0.53777700  1
  O  O30  1  0.88224400  0.17029100  0.96222300  1
  O  O31  1  0.61775600  0.67029100  0.03777700  1
  O  O32  1  0.83966400  0.49117900  0.66574600  1
  O  O33  1  0.73276200  0.69775600  0.85567000  1
  O  O34  1  0.23276200  0.30224400  0.64433000  1
  O  O35  1  0.16033600  0.50882100  0.33425400  1
  O  O36  1  0.33966400  0.50882100  0.83425400  1
  O  O37  1  0.37879600  0.20355200  0.29813800  1
  O  O38  1  0.33966400  0.00882100  0.66574600  1
  O  O39  1  0.37879600  0.70355200  0.20186200  1
loop_
_geom_bond_atom_site_label_1
_geom_bond_atom_site_label_2
_geom_bond_distance
_geom_bond_site_symmetry_2
Bi0 O33 2.078210 1_555
Bi0 O21 2.126895 1_555
Bi0 O3 2.133045 1_655
Bi0 O9 2.288638 1_655
Bi0 O7 2.291241 1_555
Bi1 O4 2.078210 1_555
Bi1 O14 2.126895 1_555
Bi1 O22 2.133045 1_455
Bi1 O0 2.288638 1_455
Bi1 O37 2.291241 1_555
Bi2 O22 2.078210 1_555
Bi2 O28 2.126895 1_555
Bi2 O4 2.133045 1_555
Bi2 O37 2.288638 1_555
Bi2 O0 2.291241 1_555
Bi3 O6 2.078210 1_555
Bi3 O35 2.126895 1_555
Bi3 O13 2.133045 1_455
Bi3 O5 2.288638 1_455
Bi3 O39 2.291241 1_555
Bi4 O34 2.078210 1_555
Bi4 O38 2.126895 1_555
Bi4 O17 2.133045 1_555
Bi4 O10 2.288638 1_555
Bi4 O16 2.291241 1_555
Bi5 O3 2.078210 1_555
Bi5 O36 2.126895 1_555
Bi5 O33 2.133045 1_555
Bi5 O7 2.288638 1_555
Bi5 O9 2.291241 1_555
Bi6 O13 2.078210 1_555
Bi6 O23 2.126895 1_555
Bi6 O6 2.133045 1_555
Bi6 O39 2.288638 1_555
Bi6 O5 2.291241 1_555
Bi7 O17 2.078210 1_555
Bi7 O32 2.126895 1_555
Bi7 O34 2.133045 1_655
Bi7 O16 2.288638 1_655
Bi7 O10 2.291241 1_555
O0 V0 1.901557 1_555
O1 V4 1.645802 1_555
O2 V7 1.645802 1_555
O5 V5 1.901557 1_555
O7 V1 1.901557 1_555
O8 V2 1.645802 1_555
O9 V2 1.901557 1_555
O10 V6 1.901557 1_555
O11 V3 1.658573 1_555
O12 V1 1.645802 1_555
O14 V5 1.853962 1_445
O15 V6 1.645802 1_555
O16 V4 1.901557 1_555
O18 V5 1.658573 1_455
O19 V3 1.645802 1_555
O20 V1 1.658573 1_555
O21 V4 1.853962 1_665
O23 V3 1.853962 1_565
O24 V6 1.658573 1_555
O25 V0 1.658573 1_455
O26 V0 1.645802 1_555
O27 V5 1.645802 1_555
O28 V7 1.853962 1_555
O29 V2 1.658573 1_655
O30 V4 1.658573 1_655
O31 V7 1.658573 1_555
O32 V2 1.853962 1_655
O35 V0 1.853962 1_455
O36 V6 1.853962 1_555
O37 V3 1.901557 1_555
O38 V1 1.853962 1_545
O39 V7 1.901557 1_555
