# generated using pymatgen
data_HgH4C2S2(O4F3)2
_symmetry_space_group_name_H-M   'P 1'
_cell_length_a   8.00197800
_cell_length_b   8.13455321
_cell_length_c   10.22447287
_cell_angle_alpha   97.87318036
_cell_angle_beta   98.44466781
_cell_angle_gamma   96.39121164
_symmetry_Int_Tables_number   1
_chemical_formula_structural   HgH4C2S2(O4F3)2
_chemical_formula_sum   'Hg2 H8 C4 S4 O16 F12'
_cell_volume   646.22210828
_cell_formula_units_Z   2
loop_
 _symmetry_equiv_pos_site_id
 _symmetry_equiv_pos_as_xyz
  1  'x, y, z'
loop_
 _atom_site_type_symbol
 _atom_site_label
 _atom_site_symmetry_multiplicity
 _atom_site_fract_x
 _atom_site_fract_y
 _atom_site_fract_z
 _atom_site_occupancy
  Hg  Hg0  1  0.71856100  0.73760700  0.50556000  1
  Hg  Hg1  1  0.28143900  0.26239300  0.49444000  1
  H  H0  1  0.44762300  0.75787300  0.32133900  1
  H  H1  1  0.55237700  0.24212700  0.67866100  1
  H  H2  1  0.55005500  0.94349500  0.35554800  1
  H  H3  1  0.44994500  0.05650500  0.64445200  1
  H  H4  1  0.82178500  0.52459300  0.67375600  1
  H  H5  1  0.17821500  0.47540700  0.32624400  1
  H  H6  1  0.98498800  0.65820600  0.66817300  1
  H  H7  1  0.01501200  0.34179400  0.33182700  1
  C  C0  1  0.56382600  0.29277600  0.12834200  1
  C  C1  1  0.43617400  0.70722400  0.87165800  1
  C  C2  1  0.02423400  0.84249800  0.15976700  1
  C  C3  1  0.97576600  0.15750200  0.84023300  1
  S  S0  1  0.62045900  0.29990300  0.31395000  1
  S  S1  1  0.37954100  0.70009700  0.68605000  1
  S  S2  1  0.09963600  0.79109600  0.33029700  1
  S  S3  1  0.90036400  0.20890400  0.66970300  1
  O  O0  1  0.56454200  0.82244200  0.34030200  1
  O  O1  1  0.43545800  0.17755800  0.65969800  1
  O  O2  1  0.86033100  0.64576400  0.67154900  1
  O  O3  1  0.13966900  0.35423600  0.32845100  1
  O  O4  1  0.80234300  0.29159200  0.33747500  1
  O  O5  1  0.19765700  0.70840800  0.66252500  1
  O  O6  1  0.51404700  0.15365200  0.34404800  1
  O  O7  1  0.48595300  0.84634800  0.65595200  1
  O  O8  1  0.56589800  0.45749800  0.37003600  1
  O  O9  1  0.43410200  0.54250200  0.62996400  1
  O  O10  1  0.23224000  0.68104400  0.30822300  1
  O  O11  1  0.76776000  0.31895600  0.69177700  1
  O  O12  1  0.94923200  0.70028400  0.36540300  1
  O  O13  1  0.05076800  0.29971600  0.63459700  1
  O  O14  1  0.16592700  0.95259700  0.41222100  1
  O  O15  1  0.83407300  0.04740300  0.58777900  1
  F  F0  1  0.60060000  0.14908200  0.06295000  1
  F  F1  1  0.39940000  0.85091800  0.93705000  1
  F  F2  1  0.65550300  0.42336900  0.09121200  1
  F  F3  1  0.34449700  0.57663100  0.90878800  1
  F  F4  1  0.39616900  0.30240500  0.09371200  1
  F  F5  1  0.60383100  0.69759500  0.90628800  1
  F  F6  1  0.15141700  0.93650900  0.11913400  1
  F  F7  1  0.84858300  0.06349100  0.88086600  1
  F  F8  1  0.97412600  0.70137600  0.06996500  1
  F  F9  1  0.02587400  0.29862400  0.93003500  1
  F  F10  1  0.89123900  0.93045600  0.16646400  1
  F  F11  1  0.10876100  0.06954400  0.83353600  1
loop_
_geom_bond_atom_site_label_1
_geom_bond_atom_site_label_2
_geom_bond_distance
_geom_bond_site_symmetry_2
Hg0 O2 2.167028 1_555
Hg0 O0 2.178842 1_555
Hg0 O12 2.517000 1_555
Hg0 O15 2.566035 1_565
Hg0 O8 2.573396 1_555
Hg1 O3 2.167028 1_555
Hg1 O1 2.178842 1_555
Hg1 O13 2.517000 1_555
Hg1 O14 2.566035 1_545
Hg1 O9 2.573396 1_555
H0 O0 0.999102 1_555
H1 O1 0.999102 1_555
H2 O0 0.998030 1_555
H3 O1 0.998030 1_555
H4 O2 1.003817 1_555
H5 O3 1.003817 1_555
H6 O2 0.997517 1_555
H6 O5 1.716606 1_655
H7 O3 0.997517 1_555
H7 O4 1.716606 1_455
C0 F0 1.349136 1_555
C0 F4 1.350124 1_555
C0 F2 1.352622 1_555
C1 F1 1.349136 1_555
C1 F5 1.350124 1_555
C1 F3 1.352622 1_555
C2 F8 1.349916 1_455
C2 F10 1.351556 1_455
C2 F6 1.353189 1_555
C3 F9 1.349916 1_655
C3 F11 1.351556 1_655
C3 F7 1.353189 1_555
O4 S0 1.450603 1_555
O5 S1 1.450603 1_555
O6 S0 1.478800 1_555
O7 S1 1.478800 1_555
O8 S0 1.469570 1_555
O9 S1 1.469570 1_555
O10 S2 1.484841 1_555
O11 S3 1.484841 1_555
O12 S2 1.457604 1_655
O13 S3 1.457604 1_455
O14 S2 1.456637 1_555
O15 S3 1.456637 1_555
