# generated using pymatgen
data_Mg(MoO2)2
_symmetry_space_group_name_H-M   'P 1'
_cell_length_a   6.26320300
_cell_length_b   6.42931511
_cell_length_c   15.23136703
_cell_angle_alpha   89.30371000
_cell_angle_beta   88.70501978
_cell_angle_gamma   61.19604574
_symmetry_Int_Tables_number   1
_chemical_formula_structural   Mg(MoO2)2
_chemical_formula_sum   'Mg6 Mo12 O24'
_cell_volume   537.31422546
_cell_formula_units_Z   6
loop_
 _symmetry_equiv_pos_site_id
 _symmetry_equiv_pos_as_xyz
  1  'x, y, z'
loop_
 _atom_site_type_symbol
 _atom_site_label
 _atom_site_symmetry_multiplicity
 _atom_site_fract_x
 _atom_site_fract_y
 _atom_site_fract_z
 _atom_site_occupancy
  Mg  Mg0  1  0.17896400  0.16816600  0.04210300  1
  Mg  Mg1  1  0.82216500  0.83834800  0.33214000  1
  Mg  Mg2  1  0.15978300  0.66849100  0.16641900  1
  Mg  Mg3  1  0.17222300  0.16269300  0.66269400  1
  Mg  Mg4  1  0.49798700  0.00310800  0.50254300  1
  Mg  Mg5  1  0.84902600  0.32418200  0.83338700  1
  Mo  Mo0  1  0.66195600  0.16433000  0.16947700  1
  Mo  Mo1  1  0.50116600  0.49776200  0.39417500  1
  Mo  Mo2  1  0.50483600  0.50298500  0.00566700  1
  Mo  Mo3  1  0.65767300  0.67339600  0.16581800  1
  Mo  Mo4  1  0.99389600  0.50572800  0.50271400  1
  Mo  Mo5  1  0.84882500  0.82341900  0.74336200  1
  Mo  Mo6  1  0.99089700  0.00249300  0.49903600  1
  Mo  Mo7  1  0.34575100  0.82359300  0.83275500  1
  Mo  Mo8  1  0.12454600  0.18927100  0.29038200  1
  Mo  Mo9  1  0.34421100  0.32272300  0.83108900  1
  Mo  Mo10  1  0.49305500  0.51311600  0.61521000  1
  Mo  Mo11  1  0.82740800  0.84941000  0.93585500  1
  O  O0  1  0.33947400  0.34844200  0.09077600  1
  O  O1  1  0.48886800  0.50203800  0.24018100  1
  O  O2  1  0.34573300  0.82067100  0.09053500  1
  O  O3  1  0.82080800  0.35178400  0.09171700  1
  O  O4  1  0.67232000  0.68518600  0.41924700  1
  O  O5  1  0.52463900  0.96438900  0.24675600  1
  O  O6  1  0.82211700  0.83401900  0.56959300  1
  O  O7  1  0.96071000  0.53882000  0.24584600  1
  O  O8  1  0.67326600  0.14383200  0.41363400  1
  O  O9  1  0.83132900  0.83817000  0.09310800  1
  O  O10  1  0.13295000  0.68532100  0.41272300  1
  O  O11  1  0.98978700  0.98215400  0.24610300  1
  O  O12  1  0.02299100  0.01220100  0.75271600  1
  O  O13  1  0.87193500  0.30050000  0.58262600  1
  O  O14  1  0.30130000  0.87507000  0.57841000  1
  O  O15  1  0.02336200  0.46550600  0.74985400  1
  O  O16  1  0.17904300  0.15049600  0.90878800  1
  O  O17  1  0.17233300  0.17579400  0.42285200  1
  O  O18  1  0.48139000  0.00693300  0.74532400  1
  O  O19  1  0.32185100  0.32026600  0.57651200  1
  O  O20  1  0.21299500  0.62668400  0.91421500  1
  O  O21  1  0.64801900  0.21467700  0.91770200  1
  O  O22  1  0.51694500  0.49512900  0.75583400  1
  O  O23  1  0.67146500  0.62870400  0.91012100  1
loop_
_geom_bond_atom_site_label_1
_geom_bond_atom_site_label_2
_geom_bond_distance
_geom_bond_site_symmetry_2
Mg0 O0 2.020159 1_555
Mg0 O16 2.035099 1_554
Mg0 O2 2.091095 1_545
Mg0 O3 2.095207 1_455
Mg1 O4 2.100786 1_555
Mg1 O5 2.109336 1_555
Mg1 O10 2.120510 1_655
Mg1 O8 2.123643 1_565
Mg1 O11 2.125573 1_555
Mg1 O7 2.142147 1_555
Mg2 O9 2.140225 1_455
Mg2 O0 2.143734 1_555
Mg2 O11 2.146051 1_455
Mg2 O1 2.146082 1_555
Mg2 O7 2.149930 1_455
Mg2 O2 2.158547 1_555
Mg3 O13 2.069112 1_455
Mg3 O14 2.071571 1_545
Mg3 O19 2.110605 1_555
Mg3 O12 2.114508 1_555
Mg3 O18 2.132443 1_555
Mg3 O15 2.163278 1_555
Mg4 O6 2.070296 1_545
Mg4 O14 2.102442 1_545
Mg4 O19 2.115722 1_555
Mg4 O8 2.172048 1_555
Mg4 O17 2.182452 1_555
Mg4 O4 2.197639 1_545
Mg5 O23 2.082003 1_555
Mg5 O21 2.118712 1_555
Mg5 O15 2.121740 1_655
Mg5 O12 2.147944 1_655
Mg5 O16 2.165690 1_655
Mg5 O22 2.192240 1_555
Mo0 O0 2.165333 1_555
Mo0 O11 2.169699 1_545
Mo0 O9 2.176150 1_545
Mo0 O5 2.181847 1_545
Mo0 O1 2.187490 1_555
Mo0 O3 2.216456 1_555
Mo1 O4 2.005353 1_555
Mo1 O8 2.015492 1_555
Mo1 O10 2.037532 1_555
Mo1 O1 2.347935 1_555
Mo2 O21 2.107010 1_554
Mo2 O23 2.139162 1_554
Mo2 O20 2.145037 1_554
Mo2 O0 2.154074 1_555
Mo2 O3 2.193557 1_555
Mo2 O2 2.209166 1_555
Mo3 O5 2.054683 1_555
Mo3 O2 2.078636 1_555
Mo3 O7 2.081643 1_555
Mo3 O9 2.135210 1_555
Mo3 O3 2.135916 1_555
Mo3 O1 2.156953 1_555
Mo4 O6 2.112972 1_555
Mo4 O19 2.148494 1_655
Mo4 O13 2.167070 1_555
Mo4 O4 2.201096 1_555
Mo4 O10 2.201624 1_655
Mo4 O17 2.223771 1_655
Mo5 O12 1.992599 1_665
Mo5 O18 2.017501 1_565
Mo5 O15 2.018747 1_655
Mo5 O6 2.653771 1_555
Mo6 O14 2.111814 1_645
Mo6 O6 2.114097 1_545
Mo6 O13 2.118470 1_555
Mo6 O8 2.195833 1_555
Mo6 O10 2.223115 1_645
Mo6 O17 2.237938 1_655
Mo7 O23 2.174827 1_555
Mo7 O16 2.176829 1_565
Mo7 O12 2.180932 1_565
Mo7 O18 2.181800 1_565
Mo7 O20 2.182450 1_555
Mo7 O22 2.191671 1_555
Mo8 O11 2.017682 1_445
Mo8 O17 2.041140 1_555
Mo8 O7 2.082288 1_455
Mo8 O5 2.295241 1_545
Mo9 O20 2.136131 1_555
Mo9 O21 2.158953 1_555
Mo9 O16 2.171056 1_555
Mo9 O15 2.172340 1_555
Mo9 O22 2.186690 1_555
Mo9 O18 2.213505 1_555
Mo10 O19 2.088551 1_555
Mo10 O14 2.116025 1_555
Mo10 O13 2.140906 1_555
Mo10 O22 2.148318 1_555
Mo11 O21 2.075943 1_565
Mo11 O23 2.118361 1_555
Mo11 O20 2.152790 1_655
Mo11 O9 2.395714 1_556
