# generated using pymatgen
data_La3Si2
_symmetry_space_group_name_H-M   'P 1'
_cell_length_a   4.45903412
_cell_length_b   7.95603333
_cell_length_c   7.95603333
_cell_angle_alpha   90.00024140
_cell_angle_beta   90.00000000
_cell_angle_gamma   90.00000000
_symmetry_Int_Tables_number   1
_chemical_formula_structural   La3Si2
_chemical_formula_sum   'La6 Si4'
_cell_volume   282.25002119
_cell_formula_units_Z   2
loop_
 _symmetry_equiv_pos_site_id
 _symmetry_equiv_pos_as_xyz
  1  'x, y, z'
loop_
 _atom_site_type_symbol
 _atom_site_label
 _atom_site_symmetry_multiplicity
 _atom_site_fract_x
 _atom_site_fract_y
 _atom_site_fract_z
 _atom_site_occupancy
  La  La0  1  0.50000000  0.67594789  0.82405211  1
  La  La1  1  0.50000000  0.82405211  0.32405211  1
  La  La2  1  0.50000000  0.32405211  0.17594789  1
  La  La3  1  0.50000000  0.17594789  0.67594789  1
  La  La4  1  -0.00000000  0.50000000  0.50000000  1
  La  La5  1  -0.00000000  0.00000000  -0.00000000  1
  Si  Si0  1  0.00000000  0.60904693  0.10904693  1
  Si  Si1  1  -0.00000000  0.89095407  0.60904593  1
  Si  Si2  1  0.00000000  0.10904593  0.39095407  1
  Si  Si3  1  -0.00000000  0.39095307  0.89095307  1
loop_
_geom_bond_atom_site_label_1
_geom_bond_atom_site_label_2
_geom_bond_distance
_geom_bond_site_symmetry_2
La0 Si3 3.224174 1_555
La0 Si3 3.224174 1_655
La0 Si0 3.224174 1_556
La0 Si0 3.224174 1_656
La0 Si1 3.289841 1_555
La0 Si1 3.289841 1_655
La1 Si2 3.224166 1_665
La1 Si2 3.224166 1_565
La1 Si1 3.224166 1_555
La1 Si1 3.224166 1_655
La1 Si0 3.289825 1_555
La1 Si0 3.289825 1_655
La2 Si3 3.224174 1_654
La2 Si3 3.224174 1_554
La2 Si0 3.224174 1_555
La2 Si0 3.224174 1_655
La2 Si2 3.289841 1_655
La2 Si2 3.289841 1_555
La3 Si1 3.224166 1_645
La3 Si1 3.224166 1_545
La3 Si2 3.224166 1_655
La3 Si2 3.224166 1_555
La3 Si3 3.289825 1_555
La3 Si3 3.289825 1_655
La4 Si2 3.229167 1_555
La4 Si1 3.229167 1_555
La4 Si0 3.229169 1_555
La4 Si3 3.229169 1_555
La5 Si2 3.229167 1_555
La5 Si1 3.229167 1_544
La5 Si0 3.229169 1_545
La5 Si3 3.229169 1_554
Si0 Si3 2.453884 1_554
Si1 Si2 2.453872 1_565
