# generated using pymatgen
data_Ce33Fe13(B9C17)2
_symmetry_space_group_name_H-M   'P 1'
_cell_length_a   12.26964917
_cell_length_b   12.26964917
_cell_length_c   12.26964917
_cell_angle_alpha   109.47122063
_cell_angle_beta   109.47122063
_cell_angle_gamma   109.47122063
_symmetry_Int_Tables_number   1
_chemical_formula_structural   Ce33Fe13(B9C17)2
_chemical_formula_sum   'Ce33 Fe13 B18 C34'
_cell_volume   1421.91797387
_cell_formula_units_Z   1
loop_
 _symmetry_equiv_pos_site_id
 _symmetry_equiv_pos_as_xyz
  1  'x, y, z'
loop_
 _atom_site_type_symbol
 _atom_site_label
 _atom_site_symmetry_multiplicity
 _atom_site_fract_x
 _atom_site_fract_y
 _atom_site_fract_z
 _atom_site_occupancy
  Ce  Ce0  1  0.56584143  0.82147627  -0.00000000  1
  Ce  Ce1  1  0.74436516  0.17852373  0.17852373  1
  Ce  Ce2  1  0.56584143  -0.00000000  0.82147627  1
  Ce  Ce3  1  0.82147627  0.56584143  0.00000000  1
  Ce  Ce4  1  0.00000000  0.56584143  0.82147627  1
  Ce  Ce5  1  0.17852373  0.74436516  0.17852373  1
  Ce  Ce6  1  0.17852373  0.17852373  0.74436516  1
  Ce  Ce7  1  -0.00000000  0.82147627  0.56584143  1
  Ce  Ce8  1  0.82147627  -0.00000000  0.56584143  1
  Ce  Ce9  1  0.43415857  0.43415857  0.25563484  1
  Ce  Ce10  1  0.25563484  0.43415857  0.43415857  1
  Ce  Ce11  1  0.43415857  0.25563484  0.43415857  1
  Ce  Ce12  1  0.43415857  0.17852373  -0.00000000  1
  Ce  Ce13  1  0.25563484  0.82147627  0.82147627  1
  Ce  Ce14  1  0.43415857  -0.00000000  0.17852373  1
  Ce  Ce15  1  0.17852373  0.43415857  0.00000000  1
  Ce  Ce16  1  0.00000000  0.43415857  0.17852373  1
  Ce  Ce17  1  0.82147627  0.25563484  0.82147627  1
  Ce  Ce18  1  0.82147627  0.82147627  0.25563484  1
  Ce  Ce19  1  0.00000000  0.17852373  0.43415857  1
  Ce  Ce20  1  0.17852373  0.00000000  0.43415857  1
  Ce  Ce21  1  0.56584143  0.56584143  0.74436516  1
  Ce  Ce22  1  0.74436516  0.56584143  0.56584143  1
  Ce  Ce23  1  0.56584143  0.74436516  0.56584143  1
  Ce  Ce24  1  0.50000000  0.75000000  0.25000000  1
  Ce  Ce25  1  0.75000000  0.50000000  0.25000000  1
  Ce  Ce26  1  0.25000000  0.75000000  0.50000000  1
  Ce  Ce27  1  0.25000000  0.50000000  0.75000000  1
  Ce  Ce28  1  0.50000000  0.25000000  0.75000000  1
  Ce  Ce29  1  0.75000000  0.25000000  0.50000000  1
  Ce  Ce30  1  -0.00000000  0.50000000  0.50000000  1
  Ce  Ce31  1  0.50000000  -0.00000000  0.50000000  1
  Ce  Ce32  1  0.50000000  0.50000000  -0.00000000  1
  Fe  Fe0  1  0.87272832  -0.00000000  0.12727168  1
  Fe  Fe1  1  0.87272832  0.12727168  -0.00000000  1
  Fe  Fe2  1  0.74545664  0.87272832  0.87272832  1
  Fe  Fe3  1  0.87272832  0.74545664  0.87272832  1
  Fe  Fe4  1  0.12727168  0.87272832  -0.00000000  1
  Fe  Fe5  1  -0.00000000  0.87272832  0.12727168  1
  Fe  Fe6  1  0.12727168  -0.00000000  0.87272832  1
  Fe  Fe7  1  0.87272832  0.87272832  0.74545664  1
  Fe  Fe8  1  0.00000000  0.12727168  0.87272832  1
  Fe  Fe9  1  0.12727168  0.25454336  0.12727168  1
  Fe  Fe10  1  0.12727168  0.12727168  0.25454336  1
  Fe  Fe11  1  0.25454336  0.12727168  0.12727168  1
  Fe  Fe12  1  -0.00000000  -0.00000000  -0.00000000  1
  B  B0  1  0.40550528  0.70275264  0.70275264  1
  B  B1  1  0.70275264  0.00000000  0.29724736  1
  B  B2  1  0.70275264  0.29724736  0.00000000  1
  B  B3  1  -0.00000000  0.70275264  0.29724736  1
  B  B4  1  0.70275264  0.40550528  0.70275264  1
  B  B5  1  0.29724736  0.70275264  -0.00000000  1
  B  B6  1  0.00000000  0.29724736  0.70275264  1
  B  B7  1  0.29724736  -0.00000000  0.70275264  1
  B  B8  1  0.70275264  0.70275264  0.40550528  1
  B  B9  1  0.59449472  0.29724736  0.29724736  1
  B  B10  1  0.29724736  0.59449472  0.29724736  1
  B  B11  1  0.29724736  0.29724736  0.59449472  1
  B  B12  1  0.00000000  0.21654901  0.21654901  1
  B  B13  1  0.78345099  -0.00000000  0.78345099  1
  B  B14  1  0.78345099  0.78345099  -0.00000000  1
  B  B15  1  -0.00000000  0.78345099  0.78345099  1
  B  B16  1  0.21654901  0.00000000  0.21654901  1
  B  B17  1  0.21654901  0.21654901  0.00000000  1
  C  C0  1  0.55183054  0.77591527  0.77591527  1
  C  C1  1  0.77591527  -0.00000000  0.22408473  1
  C  C2  1  0.77591527  0.22408473  0.00000000  1
  C  C3  1  0.00000000  0.77591527  0.22408473  1
  C  C4  1  0.77591527  0.55183054  0.77591527  1
  C  C5  1  0.22408473  0.77591527  0.00000000  1
  C  C6  1  -0.00000000  0.22408473  0.77591527  1
  C  C7  1  0.22408473  -0.00000000  0.77591527  1
  C  C8  1  0.77591527  0.77591527  0.55183054  1
  C  C9  1  0.44816946  0.22408473  0.22408473  1
  C  C10  1  0.22408473  0.44816946  0.22408473  1
  C  C11  1  0.22408473  0.22408473  0.44816946  1
  C  C12  1  0.25682403  0.62841201  0.62841201  1
  C  C13  1  0.62841201  0.00000000  0.37158799  1
  C  C14  1  0.62841201  0.37158799  0.00000000  1
  C  C15  1  0.00000000  0.62841201  0.37158799  1
  C  C16  1  0.62841201  0.25682403  0.62841201  1
  C  C17  1  0.37158799  0.62841201  0.00000000  1
  C  C18  1  -0.00000000  0.37158799  0.62841201  1
  C  C19  1  0.37158799  -0.00000000  0.62841201  1
  C  C20  1  0.62841201  0.62841201  0.25682403  1
  C  C21  1  0.74317597  0.37158799  0.37158799  1
  C  C22  1  0.37158799  0.74317597  0.37158799  1
  C  C23  1  0.37158799  0.37158799  0.74317597  1
  C  C24  1  -0.00000000  0.32554584  0.32554584  1
  C  C25  1  0.67445416  0.00000000  0.67445416  1
  C  C26  1  0.67445416  0.67445416  0.00000000  1
  C  C27  1  0.00000000  0.67445416  0.67445416  1
  C  C28  1  0.32554584  -0.00000000  0.32554584  1
  C  C29  1  0.32554584  0.32554584  -0.00000000  1
  C  C30  1  0.50000000  0.00000000  -0.00000000  1
  C  C31  1  -0.00000000  0.50000000  -0.00000000  1
  C  C32  1  -0.00000000  0.00000000  0.50000000  1
  C  C33  1  0.50000000  0.50000000  0.50000000  1
loop_
_geom_bond_atom_site_label_1
_geom_bond_atom_site_label_2
_geom_bond_distance
_geom_bond_site_symmetry_2
Fe0 Fe12 2.550048 1_655
Fe1 Fe12 2.550048 1_655
Fe10 Fe12 2.550048 1_555
Fe11 Fe12 2.550048 1_555
Fe12 Fe2 2.550048 1_444
Fe12 Fe6 2.550048 1_554
Fe12 Fe5 2.550048 1_545
Fe12 Fe7 2.550048 1_444
Fe12 Fe8 2.550048 1_554
Fe12 Fe3 2.550048 1_444
Fe12 Fe4 2.550048 1_545
Fe12 Fe9 2.550048 1_555
B0 C0 1.465905 1_555
B0 C12 1.489508 1_555
B1 C1 1.465905 1_555
B1 C13 1.489508 1_555
B2 C2 1.465905 1_555
B2 C14 1.489508 1_555
B3 C3 1.465905 1_555
B3 C15 1.489508 1_555
B4 C4 1.465905 1_555
B4 C16 1.489508 1_555
B5 C5 1.465905 1_555
B5 C17 1.489508 1_555
B6 C6 1.465905 1_555
B6 C18 1.489508 1_555
B7 C7 1.465905 1_555
B7 C19 1.489508 1_555
B8 C8 1.465905 1_555
B8 C20 1.489508 1_555
B9 C9 1.465905 1_555
B9 C21 1.489508 1_555
B10 C10 1.465905 1_555
B10 C22 1.489508 1_555
B11 C11 1.465905 1_555
B11 C23 1.489508 1_555
B12 C24 1.544242 1_555
B12 Fe9 2.202554 1_555
B12 Fe1 2.202554 1_455
B12 Fe10 2.202554 1_555
B12 Fe0 2.202554 1_455
B13 C25 1.544242 1_555
B13 Fe8 2.202554 1_655
B13 Fe1 2.202554 1_556
B13 Fe7 2.202554 1_545
B13 Fe2 2.202554 1_545
B14 C26 1.544242 1_555
B14 Fe5 2.202554 1_655
B14 Fe3 2.202554 1_554
B14 Fe0 2.202554 1_565
B14 Fe2 2.202554 1_554
B15 C27 1.544242 1_555
B15 Fe7 2.202554 1_455
B15 Fe6 2.202554 1_565
B15 Fe3 2.202554 1_455
B15 Fe4 2.202554 1_556
B16 C28 1.544242 1_555
B16 Fe11 2.202554 1_555
B16 Fe10 2.202554 1_555
B16 Fe5 2.202554 1_545
B16 Fe4 2.202554 1_545
B17 C29 1.544242 1_555
B17 Fe6 2.202554 1_554
B17 Fe8 2.202554 1_554
B17 Fe11 2.202554 1_555
B17 Fe9 2.202554 1_555
C0 Fe2 1.939771 1_555
C0 Ce2 2.549050 1_565
C0 Ce0 2.549050 1_556
C0 Ce23 2.549050 1_555
C0 Ce21 2.549050 1_555
C1 Fe0 1.939771 1_555
C1 Ce19 2.549050 1_655
C1 Ce18 2.549050 1_545
C1 Ce1 2.549050 1_555
C1 Ce0 2.549050 1_545
C2 Fe1 1.939771 1_555
C2 Ce16 2.549050 1_655
C2 Ce17 2.549050 1_554
C2 Ce1 2.549050 1_555
C2 Ce2 2.549050 1_554
C3 Fe5 1.939771 1_555
C3 Ce20 2.549050 1_565
C3 Ce18 2.549050 1_455
C3 Ce5 2.549050 1_555
C3 Ce3 2.549050 1_455
C4 Fe3 1.939771 1_555
C4 Ce4 2.549050 1_655
C4 Ce3 2.549050 1_556
C4 Ce21 2.549050 1_555
C4 Ce22 2.549050 1_555
C5 Fe4 1.939771 1_555
C5 Ce14 2.549050 1_565
C5 Ce13 2.549050 1_554
C5 Ce5 2.549050 1_555
C5 Ce4 2.549050 1_554
C6 Fe8 1.939771 1_555
C6 Ce15 2.549050 1_556
C6 Ce17 2.549050 1_455
C6 Ce6 2.549050 1_555
C6 Ce8 2.549050 1_455
C7 Fe6 1.939771 1_555
C7 Ce13 2.549050 1_545
C7 Ce12 2.549050 1_556
C7 Ce7 2.549050 1_545
C7 Ce6 2.549050 1_555
C8 Fe7 1.939771 1_555
C8 Ce7 2.549050 1_655
C8 Ce8 2.549050 1_565
C8 Ce23 2.549050 1_555
C8 Ce22 2.549050 1_555
C9 Fe11 1.939771 1_555
C9 Ce12 2.549050 1_555
C9 Ce11 2.549050 1_555
C9 Ce14 2.549050 1_555
C9 Ce9 2.549050 1_555
C10 Fe9 1.939771 1_555
C10 Ce9 2.549050 1_555
C10 Ce16 2.549050 1_555
C10 Ce10 2.549050 1_555
C10 Ce15 2.549050 1_555
C11 Fe10 1.939771 1_555
C11 Ce20 2.549050 1_555
C11 Ce19 2.549050 1_555
C11 Ce11 2.549050 1_555
C11 Ce10 2.549050 1_555
C12 Ce26 2.505465 1_555
C12 Ce27 2.505465 1_555
C12 Ce30 2.572896 1_555
C12 Ce10 2.743740 1_555
C12 Ce13 2.743740 1_555
C13 Ce24 2.505465 1_545
C13 Ce29 2.505465 1_555
C13 Ce31 2.572896 1_555
C13 Ce14 2.743740 1_555
C13 Ce8 2.743740 1_555
C14 Ce28 2.505465 1_554
C14 Ce25 2.505465 1_555
C14 Ce32 2.572896 1_555
C14 Ce3 2.743740 1_555
C14 Ce12 2.743740 1_555
C15 Ce25 2.505465 1_455
C15 Ce26 2.505465 1_555
C15 Ce30 2.572896 1_555
C15 Ce7 2.743740 1_555
C15 Ce16 2.743740 1_555
C16 Ce29 2.505465 1_555
C16 Ce28 2.505465 1_555
C16 Ce31 2.572896 1_555
C16 Ce11 2.743740 1_555
C16 Ce17 2.743740 1_555
C17 Ce27 2.505465 1_554
C17 Ce24 2.505465 1_555
C17 Ce32 2.572896 1_555
C17 Ce15 2.743740 1_555
C17 Ce0 2.743740 1_555
C18 Ce27 2.505465 1_555
C18 Ce29 2.505465 1_455
C18 Ce30 2.572896 1_555
C18 Ce4 2.743740 1_555
C18 Ce19 2.743740 1_555
C19 Ce28 2.505465 1_555
C19 Ce26 2.505465 1_545
C19 Ce31 2.572896 1_555
C19 Ce20 2.743740 1_555
C19 Ce2 2.743740 1_555
C20 Ce24 2.505465 1_555
C20 Ce25 2.505465 1_555
C20 Ce32 2.572896 1_555
C20 Ce9 2.743740 1_555
C20 Ce18 2.743740 1_555
C21 Ce29 2.505465 1_555
C21 Ce25 2.505465 1_555
C21 Ce30 2.572896 1_655
C21 Ce22 2.743740 1_555
C21 Ce1 2.743740 1_555
C22 Ce26 2.505465 1_555
C22 Ce24 2.505465 1_555
C22 Ce31 2.572896 1_565
C22 Ce23 2.743740 1_555
C22 Ce5 2.743740 1_555
C23 Ce27 2.505465 1_555
C23 Ce28 2.505465 1_555
C23 Ce32 2.572896 1_556
C23 Ce21 2.743740 1_555
C23 Ce6 2.743740 1_555
C24 Ce30 2.471627 1_555
C24 Ce10 2.575395 1_555
C24 Ce19 2.575395 1_555
C24 Ce16 2.575395 1_555
C24 Ce1 2.575395 1_455
C25 Ce31 2.471627 1_555
C25 Ce17 2.575395 1_555
C25 Ce2 2.575395 1_555
C25 Ce8 2.575395 1_555
C25 Ce23 2.575395 1_545
C26 Ce32 2.471627 1_555
C26 Ce18 2.575395 1_555
C26 Ce3 2.575395 1_555
C26 Ce0 2.575395 1_555
C26 Ce21 2.575395 1_554
C27 Ce30 2.471627 1_555
C27 Ce13 2.575395 1_555
C27 Ce4 2.575395 1_555
C27 Ce7 2.575395 1_555
C27 Ce22 2.575395 1_455
C28 Ce31 2.471627 1_555
C28 Ce11 2.575395 1_555
C28 Ce20 2.575395 1_555
C28 Ce5 2.575395 1_545
C28 Ce14 2.575395 1_555
C29 Ce32 2.471627 1_555
C29 Ce9 2.575395 1_555
C29 Ce15 2.575395 1_555
C29 Ce12 2.575395 1_555
C29 Ce6 2.575395 1_554
C30 Ce14 2.574931 1_555
C30 Ce12 2.574931 1_555
C30 Ce2 2.574931 1_554
C30 Ce0 2.574931 1_545
C30 Ce1 2.574931 1_555
C30 Ce13 2.574931 1_544
C31 Ce15 2.574931 1_555
C31 Ce3 2.574931 1_455
C31 Ce4 2.574931 1_554
C31 Ce16 2.574931 1_555
C31 Ce5 2.574931 1_555
C31 Ce17 2.574931 1_454
C32 Ce19 2.574931 1_555
C32 Ce6 2.574931 1_555
C32 Ce7 2.574931 1_545
C32 Ce20 2.574931 1_555
C32 Ce8 2.574931 1_455
C32 Ce18 2.574931 1_445
C33 Ce21 2.574931 1_555
C33 Ce22 2.574931 1_555
C33 Ce23 2.574931 1_555
C33 Ce10 2.574931 1_555
C33 Ce11 2.574931 1_555
C33 Ce9 2.574931 1_555
