# generated using pymatgen
data_Li4CoOF5
_symmetry_space_group_name_H-M   'P 1'
_cell_length_a   6.67760434
_cell_length_b   10.13662206
_cell_length_c   7.54103723
_cell_angle_alpha   76.41200006
_cell_angle_beta   108.04369449
_cell_angle_gamma   78.59209553
_symmetry_Int_Tables_number   1
_chemical_formula_structural   Li4CoOF5
_chemical_formula_sum   'Li16 Co4 O4 F20'
_cell_volume   451.08458987
_cell_formula_units_Z   4
loop_
 _symmetry_equiv_pos_site_id
 _symmetry_equiv_pos_as_xyz
  1  'x, y, z'
loop_
 _atom_site_type_symbol
 _atom_site_label
 _atom_site_symmetry_multiplicity
 _atom_site_fract_x
 _atom_site_fract_y
 _atom_site_fract_z
 _atom_site_occupancy
  Li  Li0  1  0.34003800  0.27302300  0.18066200  1
  Li  Li1  1  0.09087800  0.52345100  0.68122200  1
  Li  Li2  1  0.59451600  0.02545900  0.68445700  1
  Li  Li3  1  0.84342900  0.77302000  0.18453700  1
  Li  Li4  1  0.65980700  0.72771700  0.81756600  1
  Li  Li5  1  0.41043400  0.97627700  0.32049600  1
  Li  Li6  1  0.91051200  0.47608900  0.31632000  1
  Li  Li7  1  0.15641800  0.22512700  0.81666200  1
  Li  Li8  1  0.69491100  0.49830800  0.66808700  1
  Li  Li9  1  0.44390800  0.75080100  0.16476100  1
  Li  Li10  1  0.94467400  0.24789100  0.16589900  1
  Li  Li11  1  0.19942600  0.00086800  0.66727800  1
  Li  Li12  1  0.30105100  0.49958300  0.33390100  1
  Li  Li13  1  0.05923600  0.74971900  0.83665700  1
  Li  Li14  1  0.55668000  0.25072000  0.83267900  1
  Li  Li15  1  0.80722300  0.00192100  0.33239900  1
  Co  Co0  1  0.74959300  0.25105800  0.49748700  1
  Co  Co1  1  0.00315400  0.99790700  0.00417000  1
  Co  Co2  1  0.50036900  0.50023100  0.99935100  1
  Co  Co3  1  0.25183200  0.74974300  0.50121000  1
  O  O0  1  0.37651500  0.62464700  0.75155500  1
  O  O1  1  0.12670700  0.87453700  0.25073100  1
  O  O2  1  0.62665100  0.37514600  0.24911600  1
  O  O3  1  0.87557400  0.12520400  0.74993200  1
  F  F0  1  0.12530700  0.37409000  0.24917200  1
  F  F1  1  0.87519200  0.62604700  0.74855200  1
  F  F2  1  0.37566500  0.12635800  0.74993400  1
  F  F3  1  0.62729200  0.87359500  0.25356200  1
  F  F4  1  0.73040700  0.39022100  0.92709800  1
  F  F5  1  0.46981400  0.64420000  0.43059500  1
  F  F6  1  0.98108400  0.13708900  0.42605000  1
  F  F7  1  0.23076100  0.88817200  0.92382900  1
  F  F8  1  0.27365100  0.60953500  0.07670400  1
  F  F9  1  0.03299700  0.85468700  0.57141900  1
  F  F10  1  0.52005300  0.36345600  0.57236400  1
  F  F11  1  0.76932500  0.11145800  0.07340900  1
  F  F12  1  0.82000200  0.86091300  0.90892000  1
  F  F13  1  0.56874500  0.11262400  0.40720200  1
  F  F14  1  0.06784200  0.60975400  0.40710400  1
  F  F15  1  0.31783700  0.36290400  0.90801800  1
  F  F16  1  0.18406500  0.13769400  0.09255800  1
  F  F17  1  0.93116000  0.38914300  0.59033700  1
  F  F18  1  0.43503400  0.88992800  0.59437000  1
  F  F19  1  0.68220300  0.63794000  0.09299600  1
loop_
_geom_bond_atom_site_label_1
_geom_bond_atom_site_label_2
_geom_bond_distance
_geom_bond_site_symmetry_2
Li0 O2 2.328915 1_555
Li1 O0 2.318305 1_555
Li2 O3 2.280262 1_555
Li3 O1 2.304942 1_655
Li4 O0 2.315341 1_555
Li5 O1 2.310917 1_555
Li6 O2 2.304907 1_555
Li7 O3 2.280888 1_455
Co0 O2 1.815528 1_555
Co0 O3 1.844308 1_555
Co0 F10 2.028283 1_555
Co0 F6 2.028844 1_555
Co0 F13 2.121551 1_555
Co0 F17 2.127298 1_555
Co1 O1 1.802961 1_555
Co1 O3 1.859414 1_464
Co1 F11 2.027803 1_465
Co1 F7 2.032899 1_554
Co1 F16 2.129220 1_565
Co1 F12 2.129880 1_454
Co2 O0 1.813562 1_555
Co2 O2 1.826822 1_556
Co2 F4 2.006580 1_555
Co2 F8 2.011732 1_556
Co2 F15 2.121184 1_555
Co2 F19 2.126982 1_556
Co3 O1 1.829654 1_555
Co3 O0 1.830021 1_555
Co3 F9 1.917370 1_555
Co3 F5 1.918005 1_555
Co3 F18 2.152608 1_555
Co3 F14 2.156253 1_555
F0 Li6 1.868677 1_455
F0 Li0 1.870563 1_555
F0 Li12 1.977774 1_555
F0 Li10 2.001075 1_455
F1 Li1 1.876784 1_655
F1 Li4 1.879073 1_555
F1 Li13 2.004584 1_655
F1 Li8 2.006825 1_555
F2 Li7 1.874103 1_555
F2 Li2 1.875791 1_555
F2 Li11 1.975331 1_555
F2 Li14 1.986128 1_555
F3 Li3 1.877771 1_555
F3 Li5 1.881097 1_555
F3 Li9 1.995980 1_555
F3 Li15 2.007053 1_565
F4 Li8 1.917437 1_555
F4 Li10 1.933403 1_556
F4 Li14 2.112505 1_555
F5 Li8 1.965283 1_555
F5 Li9 1.977278 1_555
F5 Li12 2.144139 1_555
F6 Li11 1.929218 1_655
F6 Li10 1.931437 1_555
F6 Li15 2.073627 1_555
F7 Li9 1.921220 1_556
F7 Li11 1.925585 1_565
F7 Li13 2.077652 1_555
F8 Li12 1.929049 1_555
F8 Li13 1.930535 1_554
F8 Li9 2.099322 1_555
F9 Li13 1.967909 1_555
F9 Li15 1.977804 1_465
F9 Li11 2.147182 1_565
F10 Li12 1.919140 1_555
F10 Li14 1.938351 1_555
F10 Li8 2.079871 1_555
F11 Li15 1.917033 1_555
F11 Li14 1.926294 1_554
F11 Li10 2.087583 1_555
F12 Li4 1.998419 1_555
F12 Li3 2.002871 1_556
F12 Li2 2.003846 1_565
F12 Li13 2.057917 1_655
F13 Li0 1.997684 1_555
F13 Li5 2.007402 1_545
F13 Li2 2.007644 1_555
F13 Li15 2.064066 1_555
F14 Li3 1.989272 1_455
F14 Li6 1.990375 1_455
F14 Li1 1.990500 1_555
F14 Li12 2.027623 1_555
F15 Li0 1.989181 1_556
F15 Li1 1.995288 1_555
F15 Li7 2.043162 1_555
F15 Li14 2.075347 1_555
F16 Li0 1.993173 1_555
F16 Li7 1.994776 1_554
F16 Li5 2.001805 1_545
F16 Li10 2.059278 1_455
F17 Li6 1.996339 1_555
F17 Li1 2.005172 1_655
F17 Li7 2.006657 1_655
F17 Li8 2.060166 1_555
F18 Li5 1.985471 1_555
F18 Li4 1.986885 1_555
F18 Li2 2.013001 1_565
F18 Li11 2.041728 1_565
F19 Li6 1.993456 1_555
F19 Li4 2.007527 1_554
F19 Li3 2.019246 1_555
F19 Li9 2.058635 1_555
