# generated using pymatgen
data_MoF4
_symmetry_space_group_name_H-M   'P 1'
_cell_length_a   5.06927100
_cell_length_b   5.33312029
_cell_length_c   6.37817262
_cell_angle_alpha   113.58654686
_cell_angle_beta   110.85048172
_cell_angle_gamma   90.01892985
_symmetry_Int_Tables_number   1
_chemical_formula_structural   MoF4
_chemical_formula_sum   'Mo2 F8'
_cell_volume   145.61364843
_cell_formula_units_Z   2
loop_
 _symmetry_equiv_pos_site_id
 _symmetry_equiv_pos_as_xyz
  1  'x, y, z'
loop_
 _atom_site_type_symbol
 _atom_site_label
 _atom_site_symmetry_multiplicity
 _atom_site_fract_x
 _atom_site_fract_y
 _atom_site_fract_z
 _atom_site_occupancy
  Mo  Mo0  1  0.98195800  0.46363300  0.02675900  1
  Mo  Mo1  1  0.53979000  0.96287700  0.02551000  1
  F  F0  1  0.65553600  0.60663700  0.81300800  1
  F  F1  1  0.90061500  0.84465800  0.25071000  1
  F  F2  1  0.29256700  0.25427900  0.16986900  1
  F  F3  1  0.35841400  0.75534000  0.17078500  1
  F  F4  1  0.08053700  0.33439400  0.74596800  1
  F  F5  1  0.18949000  0.83378300  0.74425900  1
  F  F6  1  0.67585800  0.10764400  0.81382100  1
  F  F7  1  0.82241500  0.34411700  0.25184300  1
loop_
_geom_bond_atom_site_label_1
_geom_bond_atom_site_label_2
_geom_bond_distance
_geom_bond_site_symmetry_2
F0 Mo1 2.072910 1_556
F0 Mo0 2.098916 1_556
F1 Mo0 2.106321 1_555
F1 Mo1 2.159060 1_555
F2 Mo0 2.086297 1_455
F2 Mo1 2.123948 1_545
F3 Mo1 2.086988 1_555
F3 Mo0 2.124231 1_455
F4 Mo0 1.892539 1_456
F5 Mo1 1.894337 1_556
F6 Mo0 2.071507 1_556
F6 Mo1 2.095638 1_546
F7 Mo1 2.108885 1_545
F7 Mo0 2.163301 1_555
