# generated using pymatgen
data_Mg6AlCuO8
_symmetry_space_group_name_H-M   'P 1'
_cell_length_a   8.67467738
_cell_length_b   4.22038617
_cell_length_c   4.22038617
_cell_angle_alpha   90.00000000
_cell_angle_beta   90.00000000
_cell_angle_gamma   90.00000000
_symmetry_Int_Tables_number   1
_chemical_formula_structural   Mg6AlCuO8
_chemical_formula_sum   'Mg6 Al1 Cu1 O8'
_cell_volume   154.51039911
_cell_formula_units_Z   1
loop_
 _symmetry_equiv_pos_site_id
 _symmetry_equiv_pos_as_xyz
  1  'x, y, z'
loop_
 _atom_site_type_symbol
 _atom_site_label
 _atom_site_symmetry_multiplicity
 _atom_site_fract_x
 _atom_site_fract_y
 _atom_site_fract_z
 _atom_site_occupancy
  Mg  Mg0  1  -0.00000000  0.50000000  0.50000000  1
  Mg  Mg1  1  0.50000000  0.50000000  0.50000000  1
  Mg  Mg2  1  0.25757852  0.00000000  0.50000000  1
  Mg  Mg3  1  0.74242148  0.00000000  0.50000000  1
  Mg  Mg4  1  0.25757852  0.50000000  0.00000000  1
  Mg  Mg5  1  0.74242148  0.50000000  -0.00000000  1
  Al  Al0  1  -0.00000000  0.00000000  0.00000000  1
  Cu  Cu0  1  0.50000000  0.00000000  0.00000000  1
  O  O0  1  0.20955878  0.00000000  0.00000000  1
  O  O1  1  0.79044122  -0.00000000  -0.00000000  1
  O  O2  1  0.24941020  0.50000000  0.50000000  1
  O  O3  1  0.75058980  0.50000000  0.50000000  1
  O  O4  1  -0.00000000  0.00000000  0.50000000  1
  O  O5  1  0.50000000  0.00000000  0.50000000  1
  O  O6  1  -0.00000000  0.50000000  0.00000000  1
  O  O7  1  0.50000000  0.50000000  0.00000000  1
loop_
_geom_bond_atom_site_label_1
_geom_bond_atom_site_label_2
_geom_bond_distance
_geom_bond_site_symmetry_2
Mg0 O4 2.110193 1_565
Mg0 O6 2.110193 1_556
Mg0 O6 2.110193 1_555
Mg0 O4 2.110193 1_555
Mg0 O2 2.163553 1_555
Mg0 O3 2.163553 1_455
Mg1 O5 2.110193 1_555
Mg1 O5 2.110193 1_565
Mg1 O7 2.110193 1_555
Mg1 O7 2.110193 1_556
Mg1 O2 2.173786 1_555
Mg1 O3 2.173786 1_555
Mg2 O5 2.102928 1_555
Mg2 O2 2.111382 1_545
Mg2 O2 2.111382 1_555
Mg2 O0 2.150915 1_555
Mg2 O0 2.150915 1_556
Mg2 O4 2.234411 1_555
Mg3 O5 2.102928 1_555
Mg3 O3 2.111382 1_555
Mg3 O3 2.111382 1_545
Mg3 O1 2.150915 1_555
Mg3 O1 2.150915 1_556
Mg3 O4 2.234411 1_655
Mg4 O7 2.102928 1_555
Mg4 O2 2.111382 1_554
Mg4 O2 2.111382 1_555
Mg4 O0 2.150915 1_565
Mg4 O0 2.150915 1_555
Mg4 O6 2.234411 1_555
Mg5 O7 2.102928 1_555
Mg5 O3 2.111382 1_555
Mg5 O3 2.111382 1_554
Mg5 O1 2.150915 1_555
Mg5 O1 2.150915 1_565
Mg5 O6 2.234411 1_655
Al0 O1 1.817855 1_455
Al0 O0 1.817855 1_555
Al0 O6 2.110193 1_555
Al0 O4 2.110193 1_555
Al0 O4 2.110193 1_554
Al0 O6 2.110193 1_545
Cu0 O5 2.110193 1_554
Cu0 O5 2.110193 1_555
Cu0 O7 2.110193 1_545
Cu0 O7 2.110193 1_555
Cu0 O0 2.519484 1_555
Cu0 O1 2.519484 1_555
