# generated using pymatgen
data_Ba7SiN6
_symmetry_space_group_name_H-M   'P 1'
_cell_length_a   12.50741400
_cell_length_b   7.01253700
_cell_length_c   14.39372000
_cell_angle_alpha   90.00000000
_cell_angle_beta   90.00000000
_cell_angle_gamma   90.00000000
_symmetry_Int_Tables_number   1
_chemical_formula_structural   Ba7SiN6
_chemical_formula_sum   'Ba28 Si4 N24'
_cell_volume   1262.45451901
_cell_formula_units_Z   4
loop_
 _symmetry_equiv_pos_site_id
 _symmetry_equiv_pos_as_xyz
  1  'x, y, z'
loop_
 _atom_site_type_symbol
 _atom_site_label
 _atom_site_symmetry_multiplicity
 _atom_site_fract_x
 _atom_site_fract_y
 _atom_site_fract_z
 _atom_site_occupancy
  Ba  Ba0  1  0.03863800  0.74410800  0.98318800  1
  Ba  Ba1  1  0.46136200  0.75589200  0.48318800  1
  Ba  Ba2  1  0.53863800  0.75589200  0.01681200  1
  Ba  Ba3  1  0.96136200  0.74410800  0.51681200  1
  Ba  Ba4  1  0.96136200  0.25589200  0.01681200  1
  Ba  Ba5  1  0.53863800  0.24410800  0.51681200  1
  Ba  Ba6  1  0.46136200  0.24410800  0.98318800  1
  Ba  Ba7  1  0.03863800  0.25589200  0.48318800  1
  Ba  Ba8  1  0.21737100  0.85597700  0.62569600  1
  Ba  Ba9  1  0.28262900  0.64402300  0.12569600  1
  Ba  Ba10  1  0.71737100  0.64402300  0.37430400  1
  Ba  Ba11  1  0.78262900  0.85597700  0.87430400  1
  Ba  Ba12  1  0.78262900  0.14402300  0.37430400  1
  Ba  Ba13  1  0.71737100  0.35597700  0.87430400  1
  Ba  Ba14  1  0.28262900  0.35597700  0.62569600  1
  Ba  Ba15  1  0.21737100  0.14402300  0.12569600  1
  Ba  Ba16  1  0.28949200  0.60409400  0.86713000  1
  Ba  Ba17  1  0.21050800  0.89590600  0.36713000  1
  Ba  Ba18  1  0.78949200  0.89590600  0.13287000  1
  Ba  Ba19  1  0.71050800  0.60409400  0.63287000  1
  Ba  Ba20  1  0.71050800  0.39590600  0.13287000  1
  Ba  Ba21  1  0.78949200  0.10409400  0.63287000  1
  Ba  Ba22  1  0.21050800  0.10409400  0.86713000  1
  Ba  Ba23  1  0.28949200  0.39590600  0.36713000  1
  Ba  Ba24  1  0.00000000  0.43209300  0.75000000  1
  Ba  Ba25  1  0.50000000  0.06790700  0.25000000  1
  Ba  Ba26  1  0.00000000  0.56790700  0.25000000  1
  Ba  Ba27  1  0.50000000  0.93209300  0.75000000  1
  Si  Si0  1  0.00000000  0.91354500  0.75000000  1
  Si  Si1  1  0.50000000  0.58645500  0.25000000  1
  Si  Si2  1  0.00000000  0.08645500  0.25000000  1
  Si  Si3  1  0.50000000  0.41354500  0.75000000  1
  N  N0  1  0.11132700  0.76274200  0.78707800  1
  N  N1  1  0.38867300  0.73725800  0.28707800  1
  N  N2  1  0.61132700  0.73725800  0.21292200  1
  N  N3  1  0.88867300  0.76274200  0.71292200  1
  N  N4  1  0.88867300  0.23725800  0.21292200  1
  N  N5  1  0.61132700  0.26274200  0.71292200  1
  N  N6  1  0.38867300  0.26274200  0.78707800  1
  N  N7  1  0.11132700  0.23725800  0.28707800  1
  N  N8  1  0.16263100  0.60922600  0.49560000  1
  N  N9  1  0.33736900  0.89077400  0.99560000  1
  N  N10  1  0.66263100  0.89077400  0.50440000  1
  N  N11  1  0.83736900  0.60922600  0.00440000  1
  N  N12  1  0.83736900  0.39077400  0.50440000  1
  N  N13  1  0.66263100  0.10922600  0.00440000  1
  N  N14  1  0.33736900  0.10922600  0.49560000  1
  N  N15  1  0.16263100  0.39077400  0.99560000  1
  N  N16  1  0.46200700  0.56116000  0.65192300  1
  N  N17  1  0.03799300  0.93884000  0.15192300  1
  N  N18  1  0.96200700  0.93884000  0.34807700  1
  N  N19  1  0.53799300  0.56116000  0.84807700  1
  N  N20  1  0.53799300  0.43884000  0.34807700  1
  N  N21  1  0.96200700  0.06116000  0.84807700  1
  N  N22  1  0.03799300  0.06116000  0.65192300  1
  N  N23  1  0.46200700  0.43884000  0.15192300  1
loop_
_geom_bond_atom_site_label_1
_geom_bond_atom_site_label_2
_geom_bond_distance
_geom_bond_site_symmetry_2
Ba0 N11 2.706465 1_456
Ba0 N17 2.786312 1_556
Ba0 N15 2.928537 1_555
Ba0 N0 2.968428 1_555
Ba0 N21 3.105467 1_465
Ba1 N10 2.706465 1_555
Ba1 N16 2.786312 1_555
Ba1 N14 2.928537 1_565
Ba1 N1 2.968428 1_555
Ba1 N20 3.105467 1_555
Ba2 N9 2.706465 1_554
Ba2 N19 2.786312 1_554
Ba2 N13 2.928537 1_565
Ba2 N2 2.968428 1_555
Ba2 N23 3.105467 1_555
Ba3 N8 2.706465 1_655
Ba3 N18 2.786312 1_555
Ba3 N12 2.928537 1_555
Ba3 N3 2.968428 1_555
Ba3 N22 3.105467 1_665
Ba4 N15 2.706465 1_654
Ba4 N21 2.786312 1_554
Ba4 N11 2.928537 1_555
Ba4 N4 2.968428 1_555
Ba4 N17 3.105467 1_645
Ba5 N14 2.706465 1_555
Ba5 N20 2.786312 1_555
Ba5 N10 2.928537 1_545
Ba5 N5 2.968428 1_555
Ba5 N16 3.105467 1_555
Ba6 N13 2.706465 1_556
Ba6 N23 2.786312 1_556
Ba6 N9 2.928537 1_545
Ba6 N6 2.968428 1_555
Ba6 N19 3.105467 1_555
Ba7 N12 2.706465 1_455
Ba7 N22 2.786312 1_555
Ba7 N8 2.928537 1_555
Ba7 N7 2.968428 1_555
Ba7 N18 3.105467 1_445
Ba8 N8 2.639956 1_555
Ba8 N22 2.691904 1_565
Ba8 N0 2.753624 1_555
Ba8 N14 2.985462 1_565
Ba9 N9 2.639956 1_554
Ba9 N23 2.691904 1_555
Ba9 N1 2.753624 1_555
Ba9 N15 2.985462 1_554
Ba10 N10 2.639956 1_555
Ba10 N20 2.691904 1_555
Ba10 N2 2.753624 1_555
Ba10 N12 2.985462 1_555
Ba11 N11 2.639956 1_556
Ba11 N21 2.691904 1_565
Ba11 N3 2.753624 1_555
Ba11 N13 2.985462 1_566
Ba12 N12 2.639956 1_555
Ba12 N18 2.691904 1_545
Ba12 N4 2.753624 1_555
Ba12 N10 2.985462 1_545
Ba13 N13 2.639956 1_556
Ba13 N19 2.691904 1_555
Ba13 N5 2.753624 1_555
Ba13 N11 2.985462 1_556
Ba14 N14 2.639956 1_555
Ba14 N16 2.691904 1_555
Ba14 N6 2.753624 1_555
Ba14 N8 2.985462 1_555
Ba15 N15 2.639956 1_554
Ba15 N17 2.691904 1_545
Ba15 N7 2.753624 1_555
Ba15 N9 2.985462 1_544
Ba16 N0 2.744281 1_555
Ba16 N9 2.796337 1_555
Ba16 N15 2.859158 1_555
Ba16 N6 2.931981 1_555
Ba16 N19 3.134673 1_555
Ba17 N1 2.744281 1_555
Ba17 N8 2.796337 1_555
Ba17 N14 2.859158 1_565
Ba17 N7 2.931981 1_565
Ba17 N18 3.134673 1_455
Ba18 N2 2.744281 1_555
Ba18 N11 2.796337 1_555
Ba18 N13 2.859158 1_565
Ba18 N4 2.931981 1_565
Ba18 N17 3.134673 1_655
Ba19 N3 2.744281 1_555
Ba19 N10 2.796337 1_555
Ba19 N12 2.859158 1_555
Ba19 N5 2.931981 1_555
Ba19 N16 3.134673 1_555
Ba20 N4 2.744281 1_555
Ba20 N13 2.796337 1_555
Ba20 N11 2.859158 1_555
Ba20 N2 2.931981 1_555
Ba20 N23 3.134673 1_555
Ba21 N5 2.744281 1_555
Ba21 N12 2.796337 1_555
Ba21 N10 2.859158 1_545
Ba21 N3 2.931981 1_545
Ba21 N22 3.134673 1_655
Ba22 N6 2.744281 1_555
Ba22 N15 2.796337 1_555
Ba22 N9 2.859158 1_545
Ba22 N0 2.931981 1_545
Ba22 N21 3.134673 1_455
Ba23 N7 2.744281 1_555
Ba23 N14 2.796337 1_555
Ba23 N8 2.859158 1_555
Ba23 N1 2.931981 1_555
Ba23 N20 3.134673 1_555
Ba24 N0 2.756802 1_555
Ba24 N3 2.756802 1_455
Ba24 N21 2.997471 1_455
Ba24 N22 2.997471 1_555
Ba25 N2 2.756802 1_545
Ba25 N1 2.756802 1_545
Ba25 N20 2.997471 1_555
Ba25 N23 2.997471 1_555
Ba26 N7 2.756802 1_555
Ba26 N4 2.756802 1_455
Ba26 N18 2.997471 1_455
Ba26 N17 2.997471 1_555
Ba27 N6 2.756802 1_565
Ba27 N5 2.756802 1_565
Ba27 N19 2.997471 1_555
Ba27 N16 2.997471 1_555
N0 Si0 1.828106 1_555
N1 Si1 1.828106 1_555
N2 Si1 1.828106 1_555
N3 Si0 1.828106 1_655
N4 Si2 1.828106 1_655
N5 Si3 1.828106 1_555
N6 Si3 1.828106 1_555
N7 Si2 1.828106 1_555
N16 Si3 1.813900 1_555
N17 Si2 1.813900 1_565
N18 Si2 1.813900 1_665
N19 Si3 1.813900 1_555
N20 Si1 1.813900 1_555
N21 Si0 1.813900 1_645
N22 Si0 1.813900 1_545
N23 Si1 1.813900 1_555
