# generated using pymatgen
data_Er5Ru2
_symmetry_space_group_name_H-M   'P 1'
_cell_length_a   6.26147700
_cell_length_b   7.26050295
_cell_length_c   8.38790412
_cell_angle_alpha   96.74518021
_cell_angle_beta   111.91584575
_cell_angle_gamma   90.00000000
_symmetry_Int_Tables_number   1
_chemical_formula_structural   Er5Ru2
_chemical_formula_sum   'Er10 Ru4'
_cell_volume   350.92255615
_cell_formula_units_Z   2
loop_
 _symmetry_equiv_pos_site_id
 _symmetry_equiv_pos_as_xyz
  1  'x, y, z'
loop_
 _atom_site_type_symbol
 _atom_site_label
 _atom_site_symmetry_multiplicity
 _atom_site_fract_x
 _atom_site_fract_y
 _atom_site_fract_z
 _atom_site_occupancy
  Er  Er0  1  0.79127700  0.58455000  0.81378800  1
  Er  Er1  1  0.97748900  0.91545000  0.18621200  1
  Er  Er2  1  0.20872300  0.41545000  0.18621200  1
  Er  Er3  1  0.02251100  0.08455000  0.81378800  1
  Er  Er4  1  0.20542500  0.68516200  0.56460800  1
  Er  Er5  1  0.64081700  0.81483800  0.43539200  1
  Er  Er6  1  0.79457500  0.31483800  0.43539200  1
  Er  Er7  1  0.35918300  0.18516200  0.56460800  1
  Er  Er8  1  0.41805300  0.75000000  0.00000000  1
  Er  Er9  1  0.58194700  0.25000000  0.00000000  1
  Ru  Ru0  1  0.60217200  0.92361200  0.78002200  1
  Ru  Ru1  1  0.82214900  0.57638800  0.21997800  1
  Ru  Ru2  1  0.39782800  0.07638800  0.21997800  1
  Ru  Ru3  1  0.17785100  0.42361200  0.78002200  1
loop_
_geom_bond_atom_site_label_1
_geom_bond_atom_site_label_2
_geom_bond_distance
_geom_bond_site_symmetry_2
Er0 Ru0 2.730561 1_555
Er0 Ru3 2.781824 1_655
Er0 Ru1 3.347369 1_556
Er1 Ru1 2.730563 1_555
Er1 Ru2 2.781818 1_665
Er1 Ru0 3.347367 1_554
Er2 Ru2 2.730561 1_555
Er2 Ru1 2.781824 1_455
Er2 Ru3 3.347369 1_554
Er3 Ru3 2.730563 1_555
Er3 Ru0 2.781818 1_445
Er3 Ru2 3.347367 1_556
Er4 Ru3 2.817736 1_555
Er4 Ru0 2.889266 1_555
Er4 Ru1 3.004069 1_455
Er5 Ru2 2.817738 1_565
Er5 Ru1 2.889262 1_555
Er5 Ru0 3.004066 1_555
Er6 Ru1 2.817736 1_555
Er6 Ru2 2.889266 1_555
Er6 Ru3 3.004069 1_655
Er7 Ru0 2.817738 1_545
Er7 Ru3 2.889262 1_555
Er7 Ru2 3.004066 1_555
Er8 Ru3 2.860696 1_554
Er8 Ru2 2.860698 1_565
Er8 Ru1 2.908062 1_555
Er8 Ru0 2.908066 1_554
Er9 Ru1 2.860696 1_555
Er9 Ru0 2.860698 1_544
Er9 Ru3 2.908062 1_554
Er9 Ru2 2.908066 1_555
