# generated using pymatgen
data_Li4MnCo2O7
_symmetry_space_group_name_H-M   'P 1'
_cell_length_a   10.26620600
_cell_length_b   10.26620600
_cell_length_c   5.18520671
_cell_angle_alpha   84.48407268
_cell_angle_beta   84.48407268
_cell_angle_gamma   150.60906244
_symmetry_Int_Tables_number   1
_chemical_formula_structural   Li4MnCo2O7
_chemical_formula_sum   'Li8 Mn2 Co4 O14'
_cell_volume   248.20222008
_cell_formula_units_Z   2
loop_
 _symmetry_equiv_pos_site_id
 _symmetry_equiv_pos_as_xyz
  1  'x, y, z'
loop_
 _atom_site_type_symbol
 _atom_site_label
 _atom_site_symmetry_multiplicity
 _atom_site_fract_x
 _atom_site_fract_y
 _atom_site_fract_z
 _atom_site_occupancy
  Li  Li0  1  0.92687400  0.07312600  0.50000000  1
  Li  Li1  1  0.35818900  0.64181100  0.50000000  1
  Li  Li2  1  0.78444700  0.21555300  0.50000000  1
  Li  Li3  1  0.21269000  0.78731000  0.50000000  1
  Li  Li4  1  0.64314100  0.35685900  0.50000000  1
  Li  Li5  1  0.07451600  0.92548400  0.50000000  1
  Li  Li6  1  0.50043900  0.49956100  0.50000000  1
  Li  Li7  1  0.14412400  0.85587600  0.00000000  1
  Mn  Mn0  1  0.00007700  0.99992300  0.00000000  1
  Mn  Mn1  1  0.57248700  0.42751300  0.00000000  1
  Co  Co0  1  0.42823700  0.57176300  0.00000000  1
  Co  Co1  1  0.85586900  0.14413100  0.00000000  1
  Co  Co2  1  0.28583300  0.71416700  0.00000000  1
  Co  Co3  1  0.71516900  0.28483100  0.00000000  1
  O  O0  1  0.69929800  0.84747000  0.22940700  1
  O  O1  1  0.13240700  0.41825700  0.22339000  1
  O  O2  1  0.56199900  0.99259100  0.23007100  1
  O  O3  1  0.96015000  0.52356100  0.20475600  1
  O  O4  1  0.42508700  0.13668500  0.23526100  1
  O  O5  1  0.80864900  0.67165800  0.21407400  1
  O  O6  1  0.27687000  0.27633000  0.23417800  1
  O  O7  1  0.15253000  0.30070200  0.77059300  1
  O  O8  1  0.58174300  0.86759300  0.77661000  1
  O  O9  1  0.00740900  0.43800100  0.76992900  1
  O  O10  1  0.47643900  0.03985000  0.79524400  1
  O  O11  1  0.86331500  0.57491300  0.76473900  1
  O  O12  1  0.32834200  0.19135100  0.78592600  1
  O  O13  1  0.72367000  0.72313000  0.76582200  1
loop_
_geom_bond_atom_site_label_1
_geom_bond_atom_site_label_2
_geom_bond_distance
_geom_bond_site_symmetry_2
Li0 O8 2.115844 1_545
Li0 O1 2.115844 1_655
Li0 O6 2.143715 1_655
Li0 O13 2.143715 1_545
Li0 O7 2.148802 1_655
Li0 O0 2.148802 1_545
Li1 O0 2.071584 1_555
Li1 O7 2.071584 1_555
Li1 O9 2.154805 1_555
Li1 O2 2.154805 1_555
Li1 O8 2.167724 1_555
Li1 O1 2.167724 1_555
Li2 O3 2.048244 1_555
Li2 O10 2.048244 1_555
Li2 O9 2.129554 1_655
Li2 O2 2.129554 1_545
Li2 O1 2.153074 1_655
Li2 O8 2.153074 1_545
Li3 O4 2.086425 1_565
Li3 O11 2.086425 1_455
Li3 O2 2.135125 1_555
Li3 O9 2.135125 1_555
Li3 O10 2.392470 1_565
Li3 O3 2.392470 1_455
Li4 O11 2.091566 1_555
Li4 O4 2.091566 1_555
Li4 O5 2.134295 1_555
Li4 O12 2.134295 1_555
Li4 O10 2.167257 1_555
Li4 O3 2.167257 1_555
Li5 O11 2.101989 1_455
Li5 O4 2.101989 1_565
Li5 O6 2.155230 1_565
Li5 O13 2.155230 1_455
Li5 O12 2.358998 1_565
Li5 O5 2.358998 1_455
Li6 O12 2.045563 1_555
Li6 O5 2.045563 1_555
Li6 O6 2.114071 1_555
Li6 O13 2.114071 1_555
Li6 O7 2.161715 1_555
Li6 O0 2.161715 1_555
Li7 O10 2.005813 1_564
Li7 O3 2.005813 1_455
Li7 O5 2.044894 1_455
Li7 O12 2.044894 1_564
Li7 O4 2.231843 1_565
Li7 O11 2.231843 1_454
Mn0 O12 1.942145 1_564
Mn0 O5 1.942145 1_455
Mn0 O7 1.978316 1_564
Mn0 O0 1.978316 1_455
Mn0 O6 2.208138 1_565
Mn0 O13 2.208138 1_454
Mn1 O11 1.940156 1_554
Mn1 O4 1.940156 1_555
Mn1 O6 1.953167 1_555
Mn1 O13 1.953167 1_554
Mn1 O5 1.963511 1_555
Mn1 O12 1.963511 1_554
Co0 O8 1.918703 1_554
Co0 O1 1.918703 1_555
Co0 O13 1.950485 1_554
Co0 O6 1.950485 1_555
Co0 O0 2.174494 1_555
Co0 O7 2.174494 1_554
Co1 O0 1.918200 1_545
Co1 O7 1.918200 1_654
Co1 O2 1.928144 1_545
Co1 O9 1.928144 1_654
Co1 O8 2.158207 1_544
Co1 O1 2.158207 1_655
Co2 O3 1.911171 1_455
Co2 O10 1.911171 1_564
Co2 O1 1.919874 1_555
Co2 O8 1.919874 1_554
Co2 O2 2.194439 1_555
Co2 O9 2.194439 1_554
Co3 O2 1.904541 1_545
Co3 O9 1.904541 1_654
Co3 O4 1.929305 1_555
Co3 O11 1.929305 1_554
Co3 O10 1.931737 1_554
Co3 O3 1.931737 1_555
