# generated using pymatgen
data_TbZnSi
_symmetry_space_group_name_H-M   'P 1'
_cell_length_a   4.08570095
_cell_length_b   4.08570095
_cell_length_c   4.07738445
_cell_angle_alpha   90.00000000
_cell_angle_beta   90.00000000
_cell_angle_gamma   119.99998951
_symmetry_Int_Tables_number   1
_chemical_formula_structural   TbZnSi
_chemical_formula_sum   'Tb1 Zn1 Si1'
_cell_volume   58.94479906
_cell_formula_units_Z   1
loop_
 _symmetry_equiv_pos_site_id
 _symmetry_equiv_pos_as_xyz
  1  'x, y, z'
loop_
 _atom_site_type_symbol
 _atom_site_label
 _atom_site_symmetry_multiplicity
 _atom_site_fract_x
 _atom_site_fract_y
 _atom_site_fract_z
 _atom_site_occupancy
  Tb  Tb0  1  0.66666700  0.33333300  -0.00000000  1
  Zn  Zn0  1  0.00000000  -0.00000000  0.50000000  1
  Si  Si0  1  0.33333300  0.66666700  0.50000000  1
loop_
_geom_bond_atom_site_label_1
_geom_bond_atom_site_label_2
_geom_bond_distance
_geom_bond_site_symmetry_2
Tb0 Zn0 3.117783 1_655
Tb0 Zn0 3.117783 1_654
Tb0 Zn0 3.117786 1_665
Tb0 Zn0 3.117786 1_664
Tb0 Zn0 3.117786 1_554
Tb0 Zn0 3.117786 1_555
Si0 Zn0 2.358878 1_565
Si0 Zn0 2.358882 1_665
Si0 Zn0 2.358882 1_555
Si0 Tb0 3.117783 1_455
Si0 Tb0 3.117783 1_565
Si0 Tb0 3.117783 1_566
Si0 Tb0 3.117783 1_456
Si0 Tb0 3.117788 1_555
Si0 Tb0 3.117788 1_556
