# generated using pymatgen
data_Na3Tb(PO4)2
_symmetry_space_group_name_H-M   'P 1'
_cell_length_a   5.33994145
_cell_length_b   13.97359080
_cell_length_c   18.59969415
_cell_angle_alpha   90.00000000
_cell_angle_beta   90.00000000
_cell_angle_gamma   90.00000000
_symmetry_Int_Tables_number   1
_chemical_formula_structural   Na3Tb(PO4)2
_chemical_formula_sum   'Na24 Tb8 P16 O64'
_cell_volume   1387.87489300
_cell_formula_units_Z   8
loop_
 _symmetry_equiv_pos_site_id
 _symmetry_equiv_pos_as_xyz
  1  'x, y, z'
loop_
 _atom_site_type_symbol
 _atom_site_label
 _atom_site_symmetry_multiplicity
 _atom_site_fract_x
 _atom_site_fract_y
 _atom_site_fract_z
 _atom_site_occupancy
  Na  Na0  1  0.99189317  0.21753047  0.99158778  1
  Na  Na1  1  0.00810683  0.78246953  0.49158778  1
  Na  Na2  1  0.00810683  0.71753047  0.99158778  1
  Na  Na3  1  0.99189317  0.28246953  0.49158778  1
  Na  Na4  1  0.99176741  0.95240226  0.64935430  1
  Na  Na5  1  0.00823259  0.04759774  0.14935430  1
  Na  Na6  1  0.00823259  0.45240226  0.64935430  1
  Na  Na7  1  0.99176741  0.54759774  0.14935430  1
  Na  Na8  1  0.99663046  0.86098855  0.82781670  1
  Na  Na9  1  0.00336954  0.13901145  0.32781670  1
  Na  Na10  1  0.00336954  0.36098855  0.82781670  1
  Na  Na11  1  0.99663046  0.63901145  0.32781670  1
  Na  Na12  1  0.48006113  0.79699234  0.72911913  1
  Na  Na13  1  0.51993887  0.20300766  0.22911913  1
  Na  Na14  1  0.51993887  0.29699234  0.72911913  1
  Na  Na15  1  0.48006113  0.70300766  0.22911913  1
  Na  Na16  1  0.53737952  0.96903937  0.88824402  1
  Na  Na17  1  0.46262048  0.03096063  0.38824402  1
  Na  Na18  1  0.46262048  0.46903937  0.88824402  1
  Na  Na19  1  0.53737952  0.53096063  0.38824402  1
  Na  Na20  1  0.50007533  0.88841139  0.54926323  1
  Na  Na21  1  0.49992467  0.11158861  0.04926323  1
  Na  Na22  1  0.49992467  0.38841139  0.54926323  1
  Na  Na23  1  0.50007533  0.61158861  0.04926323  1
  Tb  Tb0  1  0.92988790  0.61129330  0.80406222  1
  Tb  Tb1  1  0.07011210  0.38870670  0.30406222  1
  Tb  Tb2  1  0.07011210  0.11129330  0.80406222  1
  Tb  Tb3  1  0.92988790  0.88870670  0.30406222  1
  Tb  Tb4  1  0.55406119  0.63845990  0.57293857  1
  Tb  Tb5  1  0.44593881  0.36154010  0.07293857  1
  Tb  Tb6  1  0.44593881  0.13845990  0.57293857  1
  Tb  Tb7  1  0.55406119  0.86154010  0.07293857  1
  P  P0  1  0.97057098  0.47562482  0.98063578  1
  P  P1  1  0.02942902  0.52437518  0.48063578  1
  P  P2  1  0.02942902  0.97562482  0.98063578  1
  P  P3  1  0.97057098  0.02437518  0.48063578  1
  P  P4  1  0.99349660  0.22341665  0.65270613  1
  P  P5  1  0.00650340  0.77658335  0.15270613  1
  P  P6  1  0.00650340  0.72341665  0.65270613  1
  P  P7  1  0.99349660  0.27658335  0.15270613  1
  P  P8  1  0.48101584  0.52597543  0.72485784  1
  P  P9  1  0.51898416  0.47402457  0.22485784  1
  P  P10  1  0.51898416  0.02597543  0.72485784  1
  P  P11  1  0.48101584  0.97402457  0.22485784  1
  P  P12  1  0.46206309  0.72695188  0.89653863  1
  P  P13  1  0.53793691  0.27304812  0.39653863  1
  P  P14  1  0.53793691  0.22695188  0.89653863  1
  P  P15  1  0.46206309  0.77304812  0.39653863  1
  O  O0  1  0.57366705  0.80816149  0.85094532  1
  O  O1  1  0.42633295  0.19183851  0.35094532  1
  O  O2  1  0.42633295  0.30816149  0.85094532  1
  O  O3  1  0.57366705  0.69183851  0.35094532  1
  O  O4  1  0.69901724  0.47169820  0.76309389  1
  O  O5  1  0.30098276  0.52830180  0.26309389  1
  O  O6  1  0.30098276  0.97169820  0.76309389  1
  O  O7  1  0.69901724  0.02830180  0.26309389  1
  O  O8  1  0.87746391  0.88174068  0.99399329  1
  O  O9  1  0.12253609  0.11825932  0.49399329  1
  O  O10  1  0.12253609  0.38174068  0.99399329  1
  O  O11  1  0.87746391  0.61825932  0.49399329  1
  O  O12  1  0.79144972  0.77666268  0.61194420  1
  O  O13  1  0.20855028  0.22333732  0.11194420  1
  O  O14  1  0.20855028  0.27666268  0.61194420  1
  O  O15  1  0.79144972  0.72333732  0.11194420  1
  O  O16  1  0.68799200  0.45920087  0.99995504  1
  O  O17  1  0.31200800  0.54079913  0.49995504  1
  O  O18  1  0.31200800  0.95920087  0.99995504  1
  O  O19  1  0.68799200  0.04079913  0.49995504  1
  O  O20  1  0.91991677  0.44246487  0.52648988  1
  O  O21  1  0.08008323  0.55753513  0.02648988  1
  O  O22  1  0.08008323  0.94246487  0.52648988  1
  O  O23  1  0.91991677  0.05753513  0.02648988  1
  O  O24  1  0.77083152  0.99945672  0.76165157  1
  O  O25  1  0.22916848  0.00054328  0.26165157  1
  O  O26  1  0.22916848  0.49945672  0.76165157  1
  O  O27  1  0.77083152  0.50054328  0.26165157  1
  O  O28  1  0.61552527  0.63294967  0.88567105  1
  O  O29  1  0.38447473  0.36705033  0.38567105  1
  O  O30  1  0.38447473  0.13294967  0.88567105  1
  O  O31  1  0.61552527  0.86705033  0.38567105  1
  O  O32  1  0.53612789  0.63419208  0.73117775  1
  O  O33  1  0.46387211  0.36580792  0.23117775  1
  O  O34  1  0.46387211  0.13419208  0.73117775  1
  O  O35  1  0.53612789  0.86580792  0.23117775  1
  O  O36  1  0.95269172  0.61512740  0.64764574  1
  O  O37  1  0.04730828  0.38487260  0.14764574  1
  O  O38  1  0.04730828  0.11512740  0.64764574  1
  O  O39  1  0.95269172  0.88487260  0.14764574  1
  O  O40  1  0.81856741  0.20914111  0.87481725  1
  O  O41  1  0.18143259  0.79085889  0.37481725  1
  O  O42  1  0.18143259  0.70914111  0.87481725  1
  O  O43  1  0.81856741  0.29085889  0.37481725  1
  O  O44  1  0.99170733  0.25386184  0.73316359  1
  O  O45  1  0.00829267  0.74613816  0.23316359  1
  O  O46  1  0.00829267  0.75386184  0.73316359  1
  O  O47  1  0.99170733  0.24613816  0.23316359  1
  O  O48  1  0.52773694  0.99733933  0.64390295  1
  O  O49  1  0.47226306  0.00266067  0.14390295  1
  O  O50  1  0.47226306  0.49733933  0.64390295  1
  O  O51  1  0.52773694  0.50266067  0.14390295  1
  O  O52  1  0.00531553  0.99784016  0.89868361  1
  O  O53  1  0.99468447  0.00215984  0.39868361  1
  O  O54  1  0.99468447  0.49784016  0.89868361  1
  O  O55  1  0.00531553  0.50215984  0.39868361  1
  O  O56  1  0.26109797  0.75025611  0.61766436  1
  O  O57  1  0.73890203  0.24974389  0.11766436  1
  O  O58  1  0.73890203  0.25025611  0.61766436  1
  O  O59  1  0.26109797  0.74974389  0.11766436  1
  O  O60  1  0.46714892  0.75020238  0.97867617  1
  O  O61  1  0.53285108  0.24979762  0.47867617  1
  O  O62  1  0.53285108  0.25020238  0.97867617  1
  O  O63  1  0.46714892  0.74979762  0.47867617  1
loop_
_geom_bond_atom_site_label_1
_geom_bond_atom_site_label_2
_geom_bond_distance
_geom_bond_site_symmetry_2
Na0 O23 2.359564 1_556
Na0 O40 2.363793 1_555
Na0 O10 2.398729 1_655
Na0 O62 2.504949 1_555
Na0 O13 2.521187 1_656
Na0 O57 2.743478 1_556
Na0 O62 2.934382 1_655
Na1 O22 2.359564 1_555
Na1 O41 2.363793 1_555
Na1 O11 2.398729 1_455
Na1 O63 2.504949 1_555
Na1 O12 2.521187 1_455
Na1 O56 2.743478 1_555
Na1 O63 2.934382 1_455
Na2 O21 2.359564 1_556
Na2 O42 2.363793 1_555
Na2 O8 2.398729 1_455
Na2 O60 2.504949 1_555
Na2 O15 2.521187 1_456
Na2 O59 2.743478 1_556
Na2 O60 2.934382 1_455
Na3 O20 2.359564 1_555
Na3 O43 2.363793 1_555
Na3 O9 2.398729 1_655
Na3 O61 2.504949 1_555
Na3 O14 2.521187 1_655
Na3 O58 2.743478 1_555
Na3 O61 2.934382 1_655
Na4 O38 2.293335 1_665
Na4 O22 2.337523 1_655
Na4 O24 2.487342 1_555
Na4 O48 2.558231 1_555
Na4 O6 2.697141 1_655
Na4 O12 2.767474 1_555
Na4 O48 2.931874 1_655
Na5 O39 2.293335 1_445
Na5 O23 2.337523 1_455
Na5 O25 2.487342 1_555
Na5 O49 2.558231 1_555
Na5 O7 2.697141 1_455
Na5 O13 2.767474 1_555
Na5 O49 2.931874 1_455
Na6 O36 2.293335 1_455
Na6 O20 2.337523 1_455
Na6 O26 2.487342 1_555
Na6 O50 2.558231 1_555
Na6 O4 2.697141 1_455
Na6 O14 2.767474 1_555
Na6 O50 2.931874 1_455
Na7 O37 2.293335 1_655
Na7 O21 2.337523 1_655
Na7 O27 2.487342 1_555
Na7 O51 2.558231 1_555
Na7 O5 2.697141 1_655
Na7 O15 2.767474 1_555
Na7 O51 2.931874 1_655
Na8 O46 2.311742 1_655
Na8 O52 2.323030 1_655
Na8 O0 2.414798 1_555
Na8 O42 2.498063 1_655
Na8 O6 2.546328 1_655
Na8 O24 2.590786 1_555
Na9 O47 2.311742 1_455
Na9 O53 2.323030 1_455
Na9 O1 2.414798 1_555
Na9 O43 2.498063 1_455
Na9 O7 2.546328 1_455
Na9 O25 2.590786 1_555
Na10 O44 2.311742 1_455
Na10 O54 2.323030 1_455
Na10 O2 2.414798 1_555
Na10 O40 2.498063 1_455
Na10 O4 2.546328 1_455
Na10 O26 2.590786 1_555
Na11 O45 2.311742 1_655
Na11 O55 2.323030 1_655
Na11 O3 2.414798 1_555
Na11 O41 2.498063 1_655
Na11 O5 2.546328 1_655
Na11 O27 2.590786 1_555
Na12 O32 2.294840 1_555
Na12 O0 2.325650 1_555
Na12 O56 2.468012 1_555
Na12 O46 2.591397 1_555
Na12 O6 2.696954 1_555
Na12 O12 2.755985 1_555
Na12 O46 2.885374 1_655
Na13 O33 2.294840 1_555
Na13 O1 2.325650 1_555
Na13 O57 2.468012 1_555
Na13 O47 2.591397 1_555
Na13 O7 2.696954 1_555
Na13 O13 2.755985 1_555
Na13 O47 2.885374 1_455
Na14 O34 2.294840 1_555
Na14 O2 2.325650 1_555
Na14 O58 2.468012 1_555
Na14 O44 2.591397 1_555
Na14 O4 2.696954 1_555
Na14 O14 2.755985 1_555
Na14 O44 2.885374 1_455
Na15 O35 2.294840 1_555
Na15 O3 2.325650 1_555
Na15 O59 2.468012 1_555
Na15 O45 2.591397 1_555
Na15 O5 2.696954 1_555
Na15 O15 2.755985 1_555
Na15 O45 2.885374 1_655
Na16 O0 2.360619 1_555
Na16 O18 2.405090 1_555
Na16 O30 2.432071 1_565
Na16 O52 2.538390 1_655
Na16 O6 2.648270 1_555
Na16 O24 2.697920 1_555
Na16 O52 2.876114 1_555
Na16 O8 2.941900 1_555
Na17 O1 2.360619 1_555
Na17 O19 2.405090 1_555
Na17 O31 2.432071 1_545
Na17 O53 2.538390 1_455
Na17 O7 2.648270 1_555
Na17 O25 2.697920 1_555
Na17 O53 2.876114 1_555
Na17 O9 2.941900 1_555
Na18 O2 2.360619 1_555
Na18 O16 2.405090 1_555
Na18 O28 2.432071 1_555
Na18 O54 2.538390 1_455
Na18 O4 2.648270 1_555
Na18 O26 2.697920 1_555
Na18 O54 2.876114 1_555
Na18 O10 2.941900 1_555
Na19 O3 2.360619 1_555
Na19 O17 2.405090 1_555
Na19 O29 2.432071 1_555
Na19 O55 2.538390 1_655
Na19 O5 2.648270 1_555
Na19 O27 2.697920 1_555
Na19 O55 2.876114 1_555
Na19 O11 2.941900 1_555
Na20 O48 2.331781 1_555
Na20 O63 2.346555 1_555
Na20 O22 2.404117 1_555
Na20 O12 2.493686 1_555
Na20 O19 2.526342 1_565
Na20 O56 2.640837 1_555
Na21 O49 2.331781 1_555
Na21 O62 2.346555 1_554
Na21 O23 2.404117 1_555
Na21 O13 2.493686 1_555
Na21 O18 2.526342 1_544
Na21 O57 2.640837 1_555
Na22 O50 2.331781 1_555
Na22 O61 2.346555 1_555
Na22 O20 2.404117 1_555
Na22 O14 2.493686 1_555
Na22 O17 2.526342 1_555
Na22 O58 2.640837 1_555
Na23 O51 2.331781 1_555
Na23 O60 2.346555 1_554
Na23 O21 2.404117 1_555
Na23 O15 2.493686 1_555
Na23 O16 2.526342 1_554
Na23 O59 2.640837 1_555
O0 P12 1.536898 1_555
O1 P13 1.536898 1_555
O2 P14 1.536898 1_555
O3 P15 1.536898 1_555
O4 P8 1.560827 1_555
O4 Tb0 2.430132 1_555
O5 P9 1.560827 1_555
O5 Tb1 2.430132 1_555
O6 P10 1.560827 1_565
O6 Tb2 2.430132 1_565
O7 P11 1.560827 1_545
O7 Tb3 2.430132 1_545
O8 P2 1.562469 1_655
O8 Tb7 2.284320 1_556
O9 P3 1.562469 1_455
O9 Tb6 2.284320 1_555
O10 P0 1.562469 1_455
O10 Tb5 2.284320 1_556
O11 P1 1.562469 1_655
O11 Tb4 2.284320 1_555
O12 P6 1.564341 1_655
O12 Tb4 2.421310 1_555
O13 P7 1.564341 1_455
O13 Tb5 2.421310 1_555
O14 P4 1.564341 1_455
O14 Tb6 2.421310 1_555
O15 P5 1.564341 1_655
O15 Tb7 2.421310 1_555
O16 P0 1.568036 1_555
O16 Tb5 2.318565 1_556
O17 P1 1.568036 1_555
O17 Tb4 2.318565 1_555
O18 P2 1.568036 1_555
O18 Tb7 2.318565 1_556
O19 P3 1.568036 1_555
O19 Tb6 2.318565 1_555
O20 P1 1.542542 1_655
O21 P0 1.542542 1_454
O22 P3 1.542542 1_465
O23 P2 1.542542 1_644
O24 P10 1.553794 1_565
O24 Tb2 2.370340 1_665
O25 P11 1.553794 1_545
O25 Tb3 2.370340 1_445
O26 P8 1.553794 1_555
O26 Tb0 2.370340 1_455
O27 P9 1.553794 1_555
O27 Tb1 2.370340 1_655
O28 P12 1.561350 1_555
O28 Tb0 2.283321 1_555
O29 P13 1.561350 1_555
O29 Tb1 2.283321 1_555
O30 P14 1.561350 1_555
O30 Tb2 2.283321 1_555
O31 P15 1.561350 1_555
O31 Tb3 2.283321 1_555
O32 P8 1.545025 1_555
O32 Tb0 2.522157 1_555
O33 P9 1.545025 1_555
O33 Tb1 2.522157 1_555
O34 P10 1.545025 1_555
O34 Tb2 2.522157 1_555
O35 P11 1.545025 1_555
O35 Tb3 2.522157 1_555
O36 P6 1.543105 1_655
O36 Tb4 2.562871 1_555
O36 Tb0 2.912339 1_555
O37 P7 1.543105 1_455
O37 Tb5 2.562871 1_555
O37 Tb1 2.912339 1_555
O38 P4 1.543105 1_455
O38 Tb6 2.562871 1_555
O38 Tb2 2.912339 1_555
O39 P5 1.543105 1_655
O39 Tb7 2.562871 1_555
O39 Tb3 2.912339 1_555
O40 P14 1.571884 1_555
O40 Tb2 2.325008 1_655
O41 P15 1.571884 1_555
O41 Tb3 2.325008 1_455
O42 P12 1.571884 1_555
O42 Tb0 2.325008 1_455
O43 P13 1.571884 1_555
O43 Tb1 2.325008 1_655
O44 P4 1.555810 1_555
O44 Tb2 2.425506 1_655
O45 P5 1.555810 1_555
O45 Tb3 2.425506 1_455
O46 P6 1.555810 1_555
O46 Tb0 2.425506 1_455
O47 P7 1.555810 1_555
O47 Tb1 2.425506 1_655
O48 P10 1.558700 1_565
O48 Tb6 2.412799 1_565
O49 P11 1.558700 1_545
O49 Tb7 2.412799 1_545
O50 P8 1.558700 1_555
O50 Tb4 2.412799 1_555
O51 P9 1.558700 1_555
O51 Tb5 2.412799 1_555
O52 P2 1.560894 1_555
O52 Tb2 2.393825 1_565
O53 P3 1.560894 1_555
O53 Tb3 2.393825 1_545
O54 P0 1.560894 1_555
O54 Tb0 2.393825 1_555
O55 P1 1.560894 1_555
O55 Tb1 2.393825 1_555
O56 P6 1.553625 1_555
O56 Tb4 2.362171 1_555
O57 P7 1.553625 1_555
O57 Tb5 2.362171 1_555
O58 P4 1.553625 1_555
O58 Tb6 2.362171 1_555
O59 P5 1.553625 1_555
O59 Tb7 2.362171 1_555
O60 P12 1.562134 1_555
O60 Tb7 2.389511 1_556
O61 P13 1.562134 1_555
O61 Tb6 2.389511 1_555
O62 P14 1.562134 1_555
O62 Tb5 2.389511 1_556
O63 P15 1.562134 1_555
O63 Tb4 2.389511 1_555
