# generated using pymatgen
data_Gd2CuTe2(SO7)2
_symmetry_space_group_name_H-M   'P 1'
_cell_length_a   5.23753739
_cell_length_b   8.02184621
_cell_length_c   8.26661138
_cell_angle_alpha   62.00842541
_cell_angle_beta   74.25437660
_cell_angle_gamma   85.33282583
_symmetry_Int_Tables_number   1
_chemical_formula_structural   Gd2CuTe2(SO7)2
_chemical_formula_sum   'Gd2 Cu1 Te2 S2 O14'
_cell_volume   294.74794835
_cell_formula_units_Z   1
loop_
 _symmetry_equiv_pos_site_id
 _symmetry_equiv_pos_as_xyz
  1  'x, y, z'
loop_
 _atom_site_type_symbol
 _atom_site_label
 _atom_site_symmetry_multiplicity
 _atom_site_fract_x
 _atom_site_fract_y
 _atom_site_fract_z
 _atom_site_occupancy
  Gd  Gd0  1  0.92894500  0.74899300  0.98225000  1
  Gd  Gd1  1  0.07105500  0.25100700  0.01775000  1
  Cu  Cu0  1  0.00000000  0.00000000  0.50000000  1
  Te  Te0  1  0.49075500  0.73081000  0.65155300  1
  Te  Te1  1  0.50924500  0.26919000  0.34844700  1
  S  S0  1  0.25382000  0.74628200  0.25362400  1
  S  S1  1  0.74618000  0.25371800  0.74637600  1
  O  O0  1  0.14556500  0.58545500  0.24439400  1
  O  O1  1  0.85443400  0.41454500  0.75560600  1
  O  O2  1  0.13868700  0.74668500  0.43615500  1
  O  O3  1  0.86131300  0.25331500  0.56384500  1
  O  O4  1  0.54705200  0.73882100  0.21865100  1
  O  O5  1  0.45294800  0.26117900  0.78134900  1
  O  O6  1  0.17778900  0.91915700  0.09484100  1
  O  O7  1  0.82221100  0.08084300  0.90515900  1
  O  O8  1  0.25536700  0.56202300  0.88763100  1
  O  O9  1  0.74463300  0.43797700  0.11236900  1
  O  O10  1  0.73133800  0.81308900  0.74101200  1
  O  O11  1  0.26866200  0.18691100  0.25898800  1
  O  O12  1  0.25246900  0.92845700  0.65515600  1
  O  O13  1  0.74753100  0.07154300  0.34484400  1
loop_
_geom_bond_atom_site_label_1
_geom_bond_atom_site_label_2
_geom_bond_distance
_geom_bond_site_symmetry_2
Gd0 O10 2.320248 1_555
Gd0 O4 2.362591 1_556
Gd0 O9 2.371249 1_556
Gd0 O8 2.396328 1_655
Gd0 O0 2.475460 1_656
Gd0 O7 2.482714 1_565
Gd0 O12 2.551751 1_655
Gd0 O6 2.562957 1_656
Gd1 O11 2.320248 1_555
Gd1 O5 2.362591 1_554
Gd1 O8 2.371249 1_554
Gd1 O9 2.396328 1_455
Gd1 O1 2.475463 1_454
Gd1 O6 2.482714 1_545
Gd1 O13 2.551751 1_455
Gd1 O7 2.562957 1_454
Cu0 O12 1.956786 1_545
Cu0 O13 1.956786 1_455
Cu0 O10 2.053113 1_445
Cu0 O11 2.053113 1_555
Cu0 O2 2.343901 1_545
Cu0 O3 2.343901 1_455
O0 S0 1.492198 1_555
O1 S1 1.492195 1_555
O2 S0 1.466589 1_555
O3 S1 1.466589 1_555
O4 S0 1.485325 1_555
O5 S1 1.485325 1_555
O6 S0 1.513204 1_555
O7 S1 1.513204 1_555
O8 Te0 1.909784 1_555
O9 Te1 1.909784 1_555
O10 Te0 1.915608 1_555
O11 Te1 1.915608 1_555
O12 Te0 1.942782 1_555
O13 Te1 1.942782 1_555
