# generated using pymatgen
data_UCu4Pd
_symmetry_space_group_name_H-M   'P 1'
_cell_length_a   4.98505472
_cell_length_b   4.98505472
_cell_length_c   4.98505472
_cell_angle_alpha   60.00000000
_cell_angle_beta   60.00000000
_cell_angle_gamma   60.00000000
_symmetry_Int_Tables_number   1
_chemical_formula_structural   UCu4Pd
_chemical_formula_sum   'U1 Cu4 Pd1'
_cell_volume   87.59812145
_cell_formula_units_Z   1
loop_
 _symmetry_equiv_pos_site_id
 _symmetry_equiv_pos_as_xyz
  1  'x, y, z'
loop_
 _atom_site_type_symbol
 _atom_site_label
 _atom_site_symmetry_multiplicity
 _atom_site_fract_x
 _atom_site_fract_y
 _atom_site_fract_z
 _atom_site_occupancy
  U  U0  1  0.00000000  0.00000000  0.00000000  1
  Cu  Cu0  1  0.62431300  0.62431300  0.12706200  1
  Cu  Cu1  1  0.62431300  0.12706200  0.62431300  1
  Cu  Cu2  1  0.12706200  0.62431300  0.62431300  1
  Cu  Cu3  1  0.62431300  0.62431300  0.62431300  1
  Pd  Pd0  1  0.25000000  0.25000000  0.25000000  1
loop_
_geom_bond_atom_site_label_1
_geom_bond_atom_site_label_2
_geom_bond_distance
_geom_bond_site_symmetry_2
Cu0 Cu2 2.478823 1_555
Cu0 Cu3 2.478823 1_555
Cu0 Cu1 2.478823 1_555
Cu0 Cu3 2.506231 1_554
Cu0 Cu1 2.506231 1_564
Cu0 Cu2 2.506231 1_654
Cu0 Pd0 2.921297 1_655
Cu0 Pd0 2.921297 1_565
Cu0 Pd0 2.921301 1_555
Cu0 U0 2.924217 1_665
Cu0 U0 2.924222 1_655
Cu0 U0 2.924222 1_565
Cu1 Cu2 2.478823 1_555
Cu1 Cu3 2.478823 1_555
Cu1 Cu3 2.506231 1_545
Cu1 Cu2 2.506231 1_645
Cu1 Pd0 2.921297 1_655
Cu1 Pd0 2.921297 1_556
Cu1 Pd0 2.921301 1_555
Cu1 U0 2.924217 1_656
Cu1 U0 2.924222 1_556
Cu1 U0 2.924222 1_655
Cu2 Cu3 2.478823 1_555
Cu2 Cu3 2.506231 1_455
Cu2 Pd0 2.921297 1_565
Cu2 Pd0 2.921297 1_556
Cu2 Pd0 2.921301 1_555
Cu2 U0 2.924217 1_566
Cu2 U0 2.924222 1_556
Cu2 U0 2.924222 1_565
Cu3 Pd0 2.921299 1_556
Cu3 Pd0 2.921299 1_565
Cu3 Pd0 2.921299 1_655
Cu3 U0 2.924219 1_566
Cu3 U0 2.924219 1_656
Cu3 U0 2.924219 1_665
Pd0 U0 3.052710 1_565
Pd0 U0 3.052710 1_555
Pd0 U0 3.052710 1_556
Pd0 U0 3.052710 1_655
