# generated using pymatgen
data_CaAl4(SiO3)8
_symmetry_space_group_name_H-M   'P 1'
_cell_length_a   5.22024400
_cell_length_b   9.08413944
_cell_length_c   15.75302611
_cell_angle_alpha   106.48491116
_cell_angle_beta   99.41094524
_cell_angle_gamma   89.80906080
_symmetry_Int_Tables_number   1
_chemical_formula_structural   CaAl4(SiO3)8
_chemical_formula_sum   'Ca1 Al4 Si8 O24'
_cell_volume   705.95009977
_cell_formula_units_Z   1
loop_
 _symmetry_equiv_pos_site_id
 _symmetry_equiv_pos_as_xyz
  1  'x, y, z'
loop_
 _atom_site_type_symbol
 _atom_site_label
 _atom_site_symmetry_multiplicity
 _atom_site_fract_x
 _atom_site_fract_y
 _atom_site_fract_z
 _atom_site_occupancy
  Ca  Ca0  1  0.04432500  0.04430600  0.27801700  1
  Al  Al0  1  0.95890700  0.61582400  0.77855100  1
  Al  Al1  1  0.45684600  0.11627300  0.77855700  1
  Al  Al2  1  0.94645300  0.28744200  0.77887800  1
  Al  Al3  1  0.44422500  0.78697400  0.77829200  1
  Si  Si0  1  0.71079400  0.36801000  0.59840800  1
  Si  Si1  1  0.21111600  0.86776500  0.59850300  1
  Si  Si2  1  0.69655900  0.03950900  0.59841400  1
  Si  Si3  1  0.19650100  0.53968400  0.59850100  1
  Si  Si4  1  0.19216500  0.53527400  0.95876800  1
  Si  Si5  1  0.69232800  0.03555800  0.95862300  1
  Si  Si6  1  0.70659400  0.36387000  0.95886700  1
  Si  Si7  1  0.20701600  0.86345000  0.95861000  1
  O  O0  1  0.98587000  0.98555200  0.99086100  1
  O  O1  1  0.48578200  0.48597100  0.98889900  1
  O  O2  1  0.71906000  0.10949000  0.70673200  1
  O  O3  1  0.21896200  0.60894900  0.70699700  1
  O  O4  1  0.80329100  0.41400600  0.70682100  1
  O  O5  1  0.30519300  0.91416600  0.70691800  1
  O  O6  1  0.71946600  0.18117100  0.55367600  1
  O  O7  1  0.22035700  0.68163500  0.55481300  1
  O  O8  1  0.91292900  0.44958900  0.55409400  1
  O  O9  1  0.41110300  0.95142700  0.55398700  1
  O  O10  1  0.22093400  0.22111000  0.71763000  1
  O  O11  1  0.72128300  0.72079700  0.71688300  1
  O  O12  1  0.49149200  0.95287100  0.00335900  1
  O  O13  1  0.99080600  0.45267400  0.00263500  1
  O  O14  1  0.68388000  0.22151400  0.00275700  1
  O  O15  1  0.18334400  0.72228400  0.00327400  1
  O  O16  1  0.18198800  0.18217300  0.83959100  1
  O  O17  1  0.68226500  0.68249000  0.84025500  1
  O  O18  1  0.91787500  0.91807800  0.56772000  1
  O  O19  1  0.41654100  0.41652700  0.56754700  1
  O  O20  1  0.18420100  0.79475200  0.85035500  1
  O  O21  1  0.68397400  0.29353100  0.85032700  1
  O  O22  1  0.60028900  0.98864200  0.85028100  1
  O  O23  1  0.09848700  0.48986200  0.85030000  1
loop_
_geom_bond_atom_site_label_1
_geom_bond_atom_site_label_2
_geom_bond_distance
_geom_bond_site_symmetry_2
Al0 O11 1.874983 1_555
Al0 O17 1.875174 1_555
Al0 O23 1.891254 1_655
Al0 O3 1.891379 1_655
Al0 O4 1.957531 1_555
Al0 O20 1.959301 1_655
Al1 O16 1.860187 1_555
Al1 O10 1.862576 1_555
Al1 O2 1.903690 1_555
Al1 O22 1.908547 1_545
Al1 O5 1.952620 1_545
Al1 O21 1.953983 1_555
Al2 O10 1.861047 1_655
Al2 O16 1.862159 1_655
Al2 O21 1.901543 1_555
Al2 O4 1.904307 1_555
Al2 O23 1.954626 1_655
Al2 O2 1.960326 1_555
Al3 O11 1.873698 1_555
Al3 O17 1.875913 1_555
Al3 O5 1.894935 1_555
Al3 O20 1.895775 1_555
Al3 O3 1.951796 1_555
Al3 O22 1.958233 1_555
O0 Si5 1.638347 1_565
O0 Si7 1.638475 1_655
O1 Si4 1.628917 1_555
O1 Si6 1.629360 1_555
O2 Si2 1.627528 1_555
O3 Si3 1.629555 1_555
O4 Si0 1.628224 1_555
O5 Si1 1.629169 1_555
O6 Si2 1.646309 1_555
O6 Si0 1.646356 1_555
O7 Si3 1.638513 1_555
O7 Si1 1.638536 1_555
O8 Si0 1.640013 1_555
O8 Si3 1.641654 1_655
O9 Si2 1.643067 1_565
O9 Si1 1.645124 1_555
O12 Si7 1.644025 1_554
O12 Si5 1.645392 1_564
O13 Si4 1.637846 1_654
O13 Si6 1.638650 1_554
O14 Si5 1.637645 1_554
O14 Si6 1.643068 1_554
O15 Si7 1.642054 1_554
O15 Si4 1.647348 1_554
O18 Si2 1.629993 1_565
O18 Si1 1.632705 1_655
O19 Si0 1.631866 1_555
O19 Si3 1.635193 1_555
O20 Si7 1.625400 1_555
O21 Si6 1.631009 1_555
O22 Si5 1.626575 1_565
O23 Si4 1.630036 1_555
