# generated using pymatgen
data_Pr(LuS2)3
_symmetry_space_group_name_H-M   'P 1'
_cell_length_a   3.92094057
_cell_length_b   10.91632952
_cell_length_c   11.16310196
_cell_angle_alpha   70.95291477
_cell_angle_beta   90.00000000
_cell_angle_gamma   90.00000000
_symmetry_Int_Tables_number   1
_chemical_formula_structural   Pr(LuS2)3
_chemical_formula_sum   'Pr2 Lu6 S12'
_cell_volume   451.64665544
_cell_formula_units_Z   2
loop_
 _symmetry_equiv_pos_site_id
 _symmetry_equiv_pos_as_xyz
  1  'x, y, z'
loop_
 _atom_site_type_symbol
 _atom_site_label
 _atom_site_symmetry_multiplicity
 _atom_site_fract_x
 _atom_site_fract_y
 _atom_site_fract_z
 _atom_site_occupancy
  Pr  Pr0  1  0.75000000  0.55110081  0.80272309  1
  Pr  Pr1  1  0.25000000  0.44889919  0.19727691  1
  Lu  Lu0  1  0.75000000  0.17880001  0.99910746  1
  Lu  Lu1  1  0.25000000  0.82119999  0.00089254  1
  Lu  Lu2  1  0.75000000  0.94437655  0.66629632  1
  Lu  Lu3  1  0.25000000  0.05562345  0.33370368  1
  Lu  Lu4  1  0.75000000  0.66173847  0.41160602  1
  Lu  Lu5  1  0.25000000  0.33826153  0.58839398  1
  S  S0  1  0.75000000  0.97743010  0.88829542  1
  S  S1  1  0.25000000  0.02256990  0.11170458  1
  S  S2  1  0.75000000  0.29966806  0.74862825  1
  S  S3  1  0.25000000  0.70033194  0.25137175  1
  S  S4  1  0.75000000  0.89271069  0.44322483  1
  S  S5  1  0.25000000  0.10728931  0.55677517  1
  S  S6  1  0.75000000  0.41847930  0.40969527  1
  S  S7  1  0.25000000  0.58152070  0.59030473  1
  S  S8  1  0.75000000  0.22940432  0.23029742  1
  S  S9  1  0.25000000  0.77059568  0.76970258  1
  S  S10  1  0.75000000  0.62196514  0.03602512  1
  S  S11  1  0.25000000  0.37803486  0.96397488  1
loop_
_geom_bond_atom_site_label_1
_geom_bond_atom_site_label_2
_geom_bond_distance
_geom_bond_site_symmetry_2
Pr0 S11 2.904013 1_655
Pr0 S11 2.904013 1_555
Pr0 S10 2.948925 1_556
Pr0 S2 2.996657 1_555
Pr0 S7 3.010413 1_655
Pr0 S7 3.010413 1_555
Pr0 S9 3.023911 1_655
Pr0 S9 3.023911 1_555
Pr1 S10 2.904013 1_555
Pr1 S10 2.904013 1_455
Pr1 S11 2.948925 1_554
Pr1 S3 2.996657 1_555
Pr1 S6 3.010413 1_455
Pr1 S6 3.010413 1_555
Pr1 S8 3.023911 1_455
Pr1 S8 3.023911 1_555
Lu0 S1 2.633017 1_556
Lu0 S1 2.633017 1_656
Lu0 S2 2.674182 1_555
Lu0 S8 2.810016 1_556
Lu0 S0 2.852571 1_545
Lu0 S11 2.858457 1_555
Lu0 S11 2.858457 1_655
Lu1 S0 2.633017 1_454
Lu1 S0 2.633017 1_554
Lu1 S3 2.674182 1_555
Lu1 S9 2.810016 1_554
Lu1 S1 2.852571 1_565
Lu1 S10 2.858457 1_555
Lu1 S10 2.858457 1_455
Lu2 S0 2.618261 1_555
Lu2 S5 2.661164 1_565
Lu2 S5 2.661164 1_665
Lu2 S9 2.710249 1_655
Lu2 S9 2.710249 1_555
Lu2 S4 2.726852 1_555
Lu3 S1 2.618261 1_555
Lu3 S4 2.661164 1_445
Lu3 S4 2.661164 1_545
Lu3 S8 2.710249 1_455
Lu3 S8 2.710249 1_555
Lu3 S5 2.726852 1_555
Lu4 S3 2.593949 1_555
Lu4 S3 2.593949 1_655
Lu4 S4 2.657583 1_555
Lu4 S6 2.662535 1_555
Lu4 S7 2.729372 1_655
Lu4 S7 2.729372 1_555
Lu5 S2 2.593949 1_455
Lu5 S2 2.593949 1_555
Lu5 S5 2.657583 1_555
Lu5 S7 2.662535 1_555
Lu5 S6 2.729372 1_455
Lu5 S6 2.729372 1_555
