# generated using pymatgen
data_Ba3La3(Cu3O7)2
_symmetry_space_group_name_H-M   'P 1'
_cell_length_a   5.66051100
_cell_length_b   5.74277400
_cell_length_c   11.06282100
_cell_angle_alpha   90.00000000
_cell_angle_beta   90.00000000
_cell_angle_gamma   90.00000000
_symmetry_Int_Tables_number   1
_chemical_formula_structural   Ba3La3(Cu3O7)2
_chemical_formula_sum   'Ba3 La3 Cu6 O14'
_cell_volume   359.61951384
_cell_formula_units_Z   1
loop_
 _symmetry_equiv_pos_site_id
 _symmetry_equiv_pos_as_xyz
  1  'x, y, z'
loop_
 _atom_site_type_symbol
 _atom_site_label
 _atom_site_symmetry_multiplicity
 _atom_site_fract_x
 _atom_site_fract_y
 _atom_site_fract_z
 _atom_site_occupancy
  Ba  Ba0  1  0.50000000  0.00000000  0.83114300  1
  Ba  Ba1  1  0.50000000  0.00000000  0.16885700  1
  Ba  Ba2  1  0.00000000  0.50000000  0.50000000  1
  La  La0  1  0.00000000  0.50000000  0.83761100  1
  La  La1  1  0.00000000  0.50000000  0.16238900  1
  La  La2  1  0.50000000  0.00000000  0.50000000  1
  Cu  Cu0  1  0.00000000  0.00000000  0.64922800  1
  Cu  Cu1  1  0.00000000  0.00000000  0.35077200  1
  Cu  Cu2  1  0.00000000  0.00000000  0.00000000  1
  Cu  Cu3  1  0.50000000  0.50000000  0.00000000  1
  Cu  Cu4  1  0.50000000  0.50000000  0.65863300  1
  Cu  Cu5  1  0.50000000  0.50000000  0.34136700  1
  O  O0  1  0.50000000  0.50000000  0.83341000  1
  O  O1  1  0.50000000  0.50000000  0.16659000  1
  O  O2  1  0.24673600  0.23334700  0.65405500  1
  O  O3  1  0.75326400  0.76665300  0.65405500  1
  O  O4  1  0.75326400  0.23334700  0.65405500  1
  O  O5  1  0.24673600  0.76665300  0.65405500  1
  O  O6  1  0.75326400  0.76665300  0.34594500  1
  O  O7  1  0.24673600  0.23334700  0.34594500  1
  O  O8  1  0.24673600  0.76665300  0.34594500  1
  O  O9  1  0.75326400  0.23334700  0.34594500  1
  O  O10  1  0.21567600  0.25465400  0.00000000  1
  O  O11  1  0.78432400  0.74534600  0.00000000  1
  O  O12  1  0.78432400  0.25465400  0.00000000  1
  O  O13  1  0.21567600  0.74534600  0.00000000  1
loop_
_geom_bond_atom_site_label_1
_geom_bond_atom_site_label_2
_geom_bond_distance
_geom_bond_site_symmetry_2
Ba0 O4 2.772909 1_555
Ba0 O3 2.772909 1_545
Ba0 O2 2.772909 1_555
Ba0 O5 2.772909 1_545
Ba0 O12 2.866785 1_556
Ba0 O10 2.866785 1_556
Ba0 O13 2.866785 1_546
Ba0 O11 2.866785 1_546
Ba0 O0 2.871497 1_555
Ba0 O0 2.871497 1_545
Ba1 O8 2.772909 1_545
Ba1 O7 2.772909 1_555
Ba1 O6 2.772909 1_545
Ba1 O9 2.772909 1_555
Ba1 O13 2.866785 1_545
Ba1 O11 2.866785 1_545
Ba1 O10 2.866785 1_555
Ba1 O12 2.866785 1_555
Ba1 O1 2.871497 1_545
Ba1 O1 2.871497 1_555
Ba2 O9 2.683315 1_455
Ba2 O7 2.683315 1_555
Ba2 O6 2.683315 1_455
Ba2 O8 2.683315 1_555
Ba2 O2 2.683315 1_555
Ba2 O5 2.683315 1_555
Ba2 O3 2.683315 1_455
Ba2 O4 2.683315 1_455
La0 O12 2.589010 1_456
La0 O10 2.589010 1_556
La0 O13 2.589010 1_556
La0 O11 2.589010 1_456
La0 O0 2.830637 1_555
La0 O0 2.830637 1_455
La0 O4 2.901574 1_455
La0 O2 2.901574 1_555
La0 O5 2.901574 1_555
La0 O3 2.901574 1_455
La1 O11 2.589010 1_455
La1 O12 2.589010 1_455
La1 O10 2.589010 1_555
La1 O13 2.589010 1_555
La1 O1 2.830637 1_555
La1 O1 2.830637 1_455
La1 O9 2.901574 1_455
La1 O6 2.901574 1_455
La1 O7 2.901574 1_555
La1 O8 2.901574 1_555
La2 O8 2.599146 1_545
La2 O7 2.599146 1_555
La2 O6 2.599146 1_545
La2 O9 2.599146 1_555
La2 O5 2.599146 1_545
La2 O4 2.599146 1_555
La2 O3 2.599146 1_545
La2 O2 2.599146 1_555
Cu0 O3 1.936297 1_445
Cu0 O5 1.936297 1_545
Cu0 O4 1.936297 1_455
Cu0 O2 1.936297 1_555
Cu1 O6 1.936297 1_445
Cu1 O9 1.936297 1_455
Cu1 O8 1.936297 1_545
Cu1 O7 1.936297 1_555
Cu2 O12 1.905024 1_455
Cu2 O10 1.905024 1_555
Cu2 O13 1.905024 1_545
Cu2 O11 1.905024 1_445
Cu3 O1 1.842955 1_555
Cu3 O0 1.842955 1_554
Cu3 O12 2.139022 1_555
Cu3 O11 2.139022 1_555
Cu3 O13 2.139022 1_555
Cu3 O10 2.139022 1_555
Cu4 O0 1.933527 1_555
Cu4 O5 2.098273 1_555
Cu4 O2 2.098273 1_555
Cu4 O3 2.098273 1_555
Cu4 O4 2.098273 1_555
Cu5 O1 1.933527 1_555
Cu5 O7 2.098273 1_555
Cu5 O8 2.098273 1_555
Cu5 O9 2.098273 1_555
Cu5 O6 2.098273 1_555
