# generated using pymatgen
data_RbSrCl3
_symmetry_space_group_name_H-M   'P 1'
_cell_length_a   7.73440649
_cell_length_b   7.73440649
_cell_length_c   5.71582055
_cell_angle_alpha   90.00000000
_cell_angle_beta   90.00000000
_cell_angle_gamma   90.00000000
_symmetry_Int_Tables_number   1
_chemical_formula_structural   RbSrCl3
_chemical_formula_sum   'Rb2 Sr2 Cl6'
_cell_volume   341.92635120
_cell_formula_units_Z   2
loop_
 _symmetry_equiv_pos_site_id
 _symmetry_equiv_pos_as_xyz
  1  'x, y, z'
loop_
 _atom_site_type_symbol
 _atom_site_label
 _atom_site_symmetry_multiplicity
 _atom_site_fract_x
 _atom_site_fract_y
 _atom_site_fract_z
 _atom_site_occupancy
  Rb  Rb0  1  0.50000000  -0.00000000  0.00000000  1
  Rb  Rb1  1  -0.00000000  0.50000000  0.00000000  1
  Sr  Sr0  1  -0.00000000  -0.00000000  0.50000000  1
  Sr  Sr1  1  0.50000000  0.50000000  0.50000000  1
  Cl  Cl0  1  -0.00000000  -0.00000000  0.00000000  1
  Cl  Cl1  1  0.50000000  0.50000000  0.00000000  1
  Cl  Cl2  1  0.67324465  0.17324465  0.50000000  1
  Cl  Cl3  1  0.32675535  0.82675535  0.50000000  1
  Cl  Cl4  1  0.17324465  0.32675535  0.50000000  1
  Cl  Cl5  1  0.82675535  0.67324465  0.50000000  1
loop_
_geom_bond_atom_site_label_1
_geom_bond_atom_site_label_2
_geom_bond_distance
_geom_bond_site_symmetry_2
Cl0 Sr0 2.857910 1_555
Cl0 Sr0 2.857910 1_554
Cl0 Rb0 3.867203 1_555
Cl0 Rb1 3.867203 1_555
Cl0 Rb1 3.867203 1_545
Cl0 Rb0 3.867203 1_455
Cl1 Sr1 2.857910 1_554
Cl1 Sr1 2.857910 1_555
Cl1 Rb0 3.867203 1_555
Cl1 Rb1 3.867203 1_555
Cl1 Rb0 3.867203 1_565
Cl1 Rb1 3.867203 1_655
Cl2 Sr0 2.860505 1_655
Cl2 Sr1 2.860505 1_555
Cl2 Rb0 3.429075 1_555
Cl2 Rb0 3.429075 1_556
Cl3 Sr0 2.860505 1_565
Cl3 Sr1 2.860505 1_555
Cl3 Rb0 3.429075 1_566
Cl3 Rb0 3.429075 1_565
Cl4 Sr0 2.860505 1_555
Cl4 Sr1 2.860505 1_555
Cl4 Rb1 3.429075 1_556
Cl4 Rb1 3.429075 1_555
Cl5 Sr0 2.860505 1_665
Cl5 Sr1 2.860505 1_555
Cl5 Rb1 3.429075 1_656
Cl5 Rb1 3.429075 1_655
