# generated using pymatgen
data_Cs2Na2SnGeF12
_symmetry_space_group_name_H-M   'P 1'
_cell_length_a   6.67998400
_cell_length_b   8.61901100
_cell_length_c   11.32064800
_cell_angle_alpha   90.00000000
_cell_angle_beta   90.00000000
_cell_angle_gamma   90.00000000
_symmetry_Int_Tables_number   1
_chemical_formula_structural   Cs2Na2SnGeF12
_chemical_formula_sum   'Cs4 Na4 Sn2 Ge2 F24'
_cell_volume   651.78467362
_cell_formula_units_Z   2
loop_
 _symmetry_equiv_pos_site_id
 _symmetry_equiv_pos_as_xyz
  1  'x, y, z'
loop_
 _atom_site_type_symbol
 _atom_site_label
 _atom_site_symmetry_multiplicity
 _atom_site_fract_x
 _atom_site_fract_y
 _atom_site_fract_z
 _atom_site_occupancy
  Cs  Cs0  1  0.82193400  0.49550400  0.75028500  1
  Cs  Cs1  1  0.17806600  0.00449600  0.25028500  1
  Cs  Cs2  1  0.17806600  0.49550400  0.25028500  1
  Cs  Cs3  1  0.82193400  0.00449600  0.75028500  1
  Na  Na0  1  0.29706200  0.25000000  0.92814900  1
  Na  Na1  1  0.70369500  0.75000000  0.07197300  1
  Na  Na2  1  0.29630500  0.75000000  0.57197300  1
  Na  Na3  1  0.70293800  0.25000000  0.42814900  1
  Sn  Sn0  1  0.27023500  0.75000000  0.92106600  1
  Sn  Sn1  1  0.72976500  0.75000000  0.42106600  1
  Ge  Ge0  1  0.73166200  0.25000000  0.07835300  1
  Ge  Ge1  1  0.26833800  0.25000000  0.57835300  1
  F  F0  1  0.99486600  0.25000000  0.03007800  1
  F  F1  1  0.98522500  0.75000000  0.97251900  1
  F  F2  1  0.01477500  0.75000000  0.47251900  1
  F  F3  1  0.00513400  0.25000000  0.53007800  1
  F  F4  1  0.18361100  0.25000000  0.73358000  1
  F  F5  1  0.82869300  0.75000000  0.25387000  1
  F  F6  1  0.17130700  0.75000000  0.75387000  1
  F  F7  1  0.81638900  0.25000000  0.23358000  1
  F  F8  1  0.64800200  0.25000000  0.92155500  1
  F  F9  1  0.36238900  0.75000000  0.09126300  1
  F  F10  1  0.63761100  0.75000000  0.59126300  1
  F  F11  1  0.35199800  0.25000000  0.42155500  1
  F  F12  1  0.46477800  0.25000000  0.12237700  1
  F  F13  1  0.56171100  0.75000000  0.87567500  1
  F  F14  1  0.43828900  0.75000000  0.37567500  1
  F  F15  1  0.53522200  0.25000000  0.62237700  1
  F  F16  1  0.73340700  0.46177300  0.07790500  1
  F  F17  1  0.26519700  0.98119800  0.92163000  1
  F  F18  1  0.73480300  0.51880200  0.42163000  1
  F  F19  1  0.26659300  0.03822700  0.57790500  1
  F  F20  1  0.26519700  0.51880200  0.92163000  1
  F  F21  1  0.73340700  0.03822700  0.07790500  1
  F  F22  1  0.26659300  0.46177300  0.57790500  1
  F  F23  1  0.73480300  0.98119800  0.42163000  1
loop_
_geom_bond_atom_site_label_1
_geom_bond_atom_site_label_2
_geom_bond_distance
_geom_bond_site_symmetry_2
Cs0 F10 3.093272 1_555
Cs0 F8 3.096235 1_555
Cs0 F13 3.138163 1_555
Cs0 F15 3.200357 1_555
Cs0 F6 3.203086 1_655
Cs0 F4 3.217183 1_655
Cs1 F9 3.093272 1_545
Cs1 F11 3.096235 1_555
Cs1 F14 3.138163 1_545
Cs1 F12 3.200357 1_555
Cs1 F5 3.203086 1_445
Cs1 F7 3.217183 1_455
Cs2 F9 3.093272 1_555
Cs2 F11 3.096235 1_555
Cs2 F14 3.138163 1_555
Cs2 F12 3.200357 1_555
Cs2 F5 3.203086 1_455
Cs2 F7 3.217183 1_455
Cs3 F10 3.093272 1_545
Cs3 F8 3.096235 1_555
Cs3 F13 3.138163 1_545
Cs3 F15 3.200357 1_555
Cs3 F6 3.203086 1_645
Cs3 F4 3.217183 1_655
F0 Ge0 1.841176 1_555
F0 Na0 2.325187 1_654
F1 Sn0 1.990974 1_655
F1 Na1 2.191878 1_556
F2 Sn1 1.990974 1_455
F2 Na2 2.191878 1_555
F3 Ge1 1.841176 1_555
F3 Na3 2.325187 1_455
F4 Ge1 1.846165 1_555
F4 Na0 2.329376 1_555
F5 Sn1 2.004813 1_555
F5 Na1 2.222042 1_555
F6 Sn0 2.004813 1_555
F6 Na2 2.222042 1_555
F7 Ge0 1.846165 1_555
F7 Na3 2.329376 1_555
F8 Ge0 1.860949 1_556
F8 Na0 2.345462 1_555
F9 Sn0 2.022690 1_554
F9 Na1 2.290353 1_555
F10 Sn1 2.022690 1_555
F10 Na2 2.290353 1_555
F11 Ge1 1.860949 1_555
F11 Na3 2.345462 1_555
F12 Ge0 1.851132 1_555
F12 Na0 2.467757 1_554
F13 Sn0 2.013721 1_555
F13 Na1 2.416159 1_556
F14 Sn1 2.013721 1_555
F14 Na2 2.416159 1_555
F15 Ge1 1.851132 1_555
F15 Na3 2.467757 1_555
F16 Ge0 1.825318 1_555
F16 Na1 2.493052 1_555
F17 Sn0 1.992992 1_555
F17 Na0 2.327735 1_565
F18 Sn1 1.992992 1_555
F18 Na3 2.327735 1_555
F19 Ge1 1.825318 1_555
F19 Na2 2.493052 1_545
F20 Sn0 1.992992 1_555
F20 Na0 2.327735 1_555
F21 Ge0 1.825318 1_555
F21 Na1 2.493052 1_545
F22 Ge1 1.825318 1_555
F22 Na2 2.493052 1_555
F23 Sn1 1.992992 1_555
F23 Na3 2.327735 1_565
