# generated using pymatgen
data_TmZr3
_symmetry_space_group_name_H-M   'P 1'
_cell_length_a   6.64080957
_cell_length_b   6.64080957
_cell_length_c   5.18363518
_cell_angle_alpha   90.00000000
_cell_angle_beta   90.00000000
_cell_angle_gamma   119.99999490
_symmetry_Int_Tables_number   1
_chemical_formula_structural   TmZr3
_chemical_formula_sum   'Tm2 Zr6'
_cell_volume   197.97353407
_cell_formula_units_Z   2
loop_
 _symmetry_equiv_pos_site_id
 _symmetry_equiv_pos_as_xyz
  1  'x, y, z'
loop_
 _atom_site_type_symbol
 _atom_site_label
 _atom_site_symmetry_multiplicity
 _atom_site_fract_x
 _atom_site_fract_y
 _atom_site_fract_z
 _atom_site_occupancy
  Tm  Tm0  1  0.33333300  0.66666700  0.75000000  1
  Tm  Tm1  1  0.66666700  0.33333300  0.25000000  1
  Zr  Zr0  1  0.16275435  0.32550870  0.25000000  1
  Zr  Zr1  1  0.67449130  0.83724565  0.25000000  1
  Zr  Zr2  1  0.16275435  0.83724565  0.25000000  1
  Zr  Zr3  1  0.83724565  0.67449130  0.75000000  1
  Zr  Zr4  1  0.32550870  0.16275435  0.75000000  1
  Zr  Zr5  1  0.83724565  0.16275435  0.75000000  1
loop_
_geom_bond_atom_site_label_1
_geom_bond_atom_site_label_2
_geom_bond_distance
_geom_bond_site_symmetry_2
Tm0 Zr2 3.250706 1_555
Tm0 Zr2 3.250706 1_556
Tm0 Zr0 3.250710 1_556
Tm0 Zr0 3.250710 1_555
Tm0 Zr1 3.250710 1_555
Tm0 Zr1 3.250710 1_556
Tm0 Zr4 3.320706 1_565
Tm0 Zr3 3.320706 1_455
Tm0 Zr5 3.320710 1_455
Tm0 Zr5 3.320710 1_565
Tm0 Zr4 3.320713 1_555
Tm0 Zr3 3.320713 1_555
Tm1 Zr5 3.250706 1_555
Tm1 Zr5 3.250706 1_554
Tm1 Zr4 3.250710 1_555
Tm1 Zr3 3.250710 1_555
Tm1 Zr3 3.250710 1_554
Tm1 Zr4 3.250710 1_554
Tm1 Zr0 3.320706 1_655
Tm1 Zr1 3.320706 1_545
Tm1 Zr2 3.320710 1_545
Tm1 Zr2 3.320710 1_655
Tm1 Zr0 3.320713 1_555
Tm1 Zr1 3.320713 1_555
Zr0 Zr4 3.197192 1_554
Zr0 Zr4 3.197192 1_555
Zr0 Zr5 3.197192 1_455
Zr0 Zr5 3.197192 1_454
Zr0 Zr2 3.242462 1_545
Zr0 Zr1 3.242462 1_445
Zr0 Zr2 3.398348 1_555
Zr0 Zr1 3.398348 1_555
Zr1 Zr3 3.197192 1_555
Zr1 Zr3 3.197192 1_554
Zr1 Zr5 3.197192 1_564
Zr1 Zr5 3.197192 1_565
Zr1 Zr2 3.242462 1_655
Zr1 Zr2 3.398348 1_555
Zr2 Zr4 3.197192 1_564
Zr2 Zr3 3.197192 1_455
Zr2 Zr3 3.197192 1_454
Zr2 Zr4 3.197192 1_565
Zr3 Zr5 3.242462 1_565
Zr3 Zr4 3.242462 1_665
Zr3 Zr5 3.398348 1_555
Zr3 Zr4 3.398348 1_555
Zr4 Zr5 3.242462 1_455
Zr4 Zr5 3.398348 1_555
