# generated using pymatgen
data_Nd3Dy
_symmetry_space_group_name_H-M   'P 1'
_cell_length_a   7.44303383
_cell_length_b   7.44303383
_cell_length_c   5.82470409
_cell_angle_alpha   90.00000000
_cell_angle_beta   90.00000000
_cell_angle_gamma   120.00000167
_symmetry_Int_Tables_number   1
_chemical_formula_structural   Nd3Dy
_chemical_formula_sum   'Nd6 Dy2'
_cell_volume   279.45023360
_cell_formula_units_Z   2
loop_
 _symmetry_equiv_pos_site_id
 _symmetry_equiv_pos_as_xyz
  1  'x, y, z'
loop_
 _atom_site_type_symbol
 _atom_site_label
 _atom_site_symmetry_multiplicity
 _atom_site_fract_x
 _atom_site_fract_y
 _atom_site_fract_z
 _atom_site_occupancy
  Nd  Nd0  1  0.16756130  0.33512161  0.25000000  1
  Nd  Nd1  1  0.66487839  0.83243870  0.25000000  1
  Nd  Nd2  1  0.16756130  0.83243970  0.25000000  1
  Nd  Nd3  1  0.83243870  0.66487839  0.75000000  1
  Nd  Nd4  1  0.33512161  0.16756130  0.75000000  1
  Nd  Nd5  1  0.83243870  0.16756030  0.75000000  1
  Dy  Dy0  1  0.33333400  0.66666700  0.75000000  1
  Dy  Dy1  1  0.66666600  0.33333300  0.25000000  1
loop_
_geom_bond_atom_site_label_1
_geom_bond_atom_site_label_2
_geom_bond_distance
_geom_bond_site_symmetry_2
Nd0 Nd4 3.626017 1_555
Nd0 Nd4 3.626017 1_554
Nd0 Nd5 3.626024 1_455
Nd0 Nd5 3.626024 1_454
Nd0 Nd1 3.701548 1_555
Nd0 Nd2 3.701555 1_555
Nd0 Nd2 3.741478 1_545
Nd0 Nd1 3.741486 1_445
Nd1 Nd3 3.626017 1_555
Nd1 Nd3 3.626017 1_554
Nd1 Nd5 3.626020 1_564
Nd1 Nd5 3.626020 1_565
Nd1 Nd2 3.701552 1_555
Nd1 Nd2 3.741482 1_655
Nd2 Nd4 3.626020 1_564
Nd2 Nd4 3.626020 1_565
Nd2 Nd3 3.626024 1_454
Nd2 Nd3 3.626024 1_455
Nd3 Nd4 3.701548 1_555
Nd3 Nd5 3.701555 1_555
Nd3 Nd5 3.741478 1_565
Nd3 Nd4 3.741486 1_665
Nd4 Nd5 3.701552 1_555
Nd4 Nd5 3.741482 1_455
Dy0 Nd1 3.612331 1_555
Dy0 Nd1 3.612331 1_556
Dy0 Nd0 3.612335 1_555
Dy0 Nd0 3.612335 1_556
Dy0 Nd2 3.612335 1_555
Dy0 Nd2 3.612335 1_556
Dy0 Nd5 3.721527 1_565
Dy0 Nd3 3.721527 1_555
Dy0 Nd4 3.721531 1_555
Dy0 Nd4 3.721538 1_565
Dy0 Nd5 3.721542 1_455
Dy0 Nd3 3.721542 1_455
Dy1 Nd4 3.612331 1_554
Dy1 Nd4 3.612331 1_555
Dy1 Nd3 3.612335 1_555
Dy1 Nd3 3.612335 1_554
Dy1 Nd5 3.612335 1_555
Dy1 Nd5 3.612335 1_554
Dy1 Nd2 3.721527 1_545
Dy1 Nd0 3.721527 1_555
Dy1 Nd1 3.721531 1_555
Dy1 Nd1 3.721538 1_545
Dy1 Nd2 3.721542 1_655
Dy1 Nd0 3.721542 1_655
