# generated using pymatgen
data_VNiGe
_symmetry_space_group_name_H-M   'P 1'
_cell_length_a   3.71314400
_cell_length_b   5.99371300
_cell_length_c   7.02560700
_cell_angle_alpha   90.00000000
_cell_angle_beta   90.00000000
_cell_angle_gamma   90.00000000
_symmetry_Int_Tables_number   1
_chemical_formula_structural   VNiGe
_chemical_formula_sum   'V4 Ni4 Ge4'
_cell_volume   156.35853333
_cell_formula_units_Z   4
loop_
 _symmetry_equiv_pos_site_id
 _symmetry_equiv_pos_as_xyz
  1  'x, y, z'
loop_
 _atom_site_type_symbol
 _atom_site_label
 _atom_site_symmetry_multiplicity
 _atom_site_fract_x
 _atom_site_fract_y
 _atom_site_fract_z
 _atom_site_occupancy
  V  V0  1  0.25000000  0.02643800  0.81922200  1
  V  V1  1  0.25000000  0.52643800  0.68077800  1
  V  V2  1  0.75000000  0.97356200  0.18077800  1
  V  V3  1  0.75000000  0.47356200  0.31922200  1
  Ni  Ni0  1  0.25000000  0.14556100  0.44220900  1
  Ni  Ni1  1  0.25000000  0.64556100  0.05779100  1
  Ni  Ni2  1  0.75000000  0.85443900  0.55779100  1
  Ni  Ni3  1  0.75000000  0.35443900  0.94220900  1
  Ge  Ge0  1  0.25000000  0.75803400  0.37579000  1
  Ge  Ge1  1  0.25000000  0.25803400  0.12421000  1
  Ge  Ge2  1  0.75000000  0.24196600  0.62421000  1
  Ge  Ge3  1  0.75000000  0.74196600  0.87579000  1
loop_
_geom_bond_atom_site_label_1
_geom_bond_atom_site_label_2
_geom_bond_distance
_geom_bond_site_symmetry_2
Ni0 Ni2 2.674124 1_445
Ni0 Ni2 2.674124 1_545
Ni0 V0 2.743288 1_555
Ni0 V2 2.807695 1_445
Ni0 V2 2.807695 1_545
Ni0 V1 2.832096 1_555
Ni0 V3 2.838731 1_455
Ni0 V3 2.838731 1_555
Ni1 Ni3 2.674124 1_554
Ni1 Ni3 2.674124 1_454
Ni1 V1 2.743288 1_554
Ni1 V3 2.807695 1_455
Ni1 V3 2.807695 1_555
Ni1 V0 2.832096 1_564
Ni1 V2 2.838731 1_555
Ni1 V2 2.838731 1_455
Ni2 V2 2.743288 1_555
Ni2 V0 2.807695 1_565
Ni2 V0 2.807695 1_665
Ni2 V3 2.832096 1_555
Ni2 V1 2.838731 1_655
Ni2 V1 2.838731 1_555
Ni3 V3 2.743288 1_556
Ni3 V1 2.807695 1_555
Ni3 V1 2.807695 1_655
Ni3 V2 2.832096 1_546
Ni3 V0 2.838731 1_655
Ni3 V0 2.838731 1_555
Ge0 Ni2 2.327172 1_455
Ge0 Ni2 2.327172 1_555
Ge0 Ni1 2.333627 1_555
Ge0 Ni0 2.369135 1_565
Ge0 V3 2.551858 1_555
Ge0 V3 2.551858 1_455
Ge0 V1 2.553067 1_555
Ge0 V2 2.644381 1_455
Ge0 V2 2.644381 1_555
Ge1 Ni3 2.327172 1_554
Ge1 Ni3 2.327172 1_454
Ge1 Ni0 2.333627 1_555
Ge1 Ni1 2.369135 1_555
Ge1 V2 2.551858 1_545
Ge1 V2 2.551858 1_445
Ge1 V0 2.553067 1_554
Ge1 V3 2.644381 1_555
Ge1 V3 2.644381 1_455
Ge2 Ni0 2.327172 1_655
Ge2 Ni0 2.327172 1_555
Ge2 Ni3 2.333627 1_555
Ge2 Ni2 2.369135 1_545
Ge2 V1 2.551858 1_655
Ge2 V1 2.551858 1_555
Ge2 V3 2.553067 1_555
Ge2 V0 2.644381 1_555
Ge2 V0 2.644381 1_655
Ge3 Ni1 2.327172 1_656
Ge3 Ni1 2.327172 1_556
Ge3 Ni2 2.333627 1_555
Ge3 Ni3 2.369135 1_555
Ge3 V0 2.551858 1_565
Ge3 V0 2.551858 1_665
Ge3 V2 2.553067 1_556
Ge3 V1 2.644381 1_655
Ge3 V1 2.644381 1_555
