# generated using pymatgen
data_LiMg14MnO16
_symmetry_space_group_name_H-M   'P 1'
_cell_length_a   4.26104100
_cell_length_b   8.48515600
_cell_length_c   8.53358700
_cell_angle_alpha   90.00000000
_cell_angle_beta   90.00000000
_cell_angle_gamma   90.00000000
_symmetry_Int_Tables_number   1
_chemical_formula_structural   LiMg14MnO16
_chemical_formula_sum   'Li1 Mg14 Mn1 O16'
_cell_volume   308.53693772
_cell_formula_units_Z   1
loop_
 _symmetry_equiv_pos_site_id
 _symmetry_equiv_pos_as_xyz
  1  'x, y, z'
loop_
 _atom_site_type_symbol
 _atom_site_label
 _atom_site_symmetry_multiplicity
 _atom_site_fract_x
 _atom_site_fract_y
 _atom_site_fract_z
 _atom_site_occupancy
  Li  Li0  1  0.00000000  0.50000000  0.00000000  1
  Mg  Mg0  1  0.00000000  0.00000000  0.50000000  1
  Mg  Mg1  1  0.00000000  0.50000000  0.50000000  1
  Mg  Mg2  1  0.50000000  0.74198700  0.00000000  1
  Mg  Mg3  1  0.50000000  0.25801300  0.00000000  1
  Mg  Mg4  1  0.50000000  0.74792800  0.50000000  1
  Mg  Mg5  1  0.50000000  0.25207200  0.50000000  1
  Mg  Mg6  1  0.50000000  0.00000000  0.74835000  1
  Mg  Mg7  1  0.50000000  0.50000000  0.75546500  1
  Mg  Mg8  1  0.50000000  0.00000000  0.25165000  1
  Mg  Mg9  1  0.50000000  0.50000000  0.24453500  1
  Mg  Mg10  1  0.00000000  0.74469200  0.74955200  1
  Mg  Mg11  1  0.00000000  0.25530800  0.74955200  1
  Mg  Mg12  1  0.00000000  0.74469200  0.25044800  1
  Mg  Mg13  1  0.00000000  0.25530800  0.25044800  1
  Mn  Mn0  1  0.00000000  0.00000000  0.00000000  1
  O  O0  1  0.00000000  0.00000000  0.75123200  1
  O  O1  1  0.00000000  0.50000000  0.74535900  1
  O  O2  1  0.00000000  0.00000000  0.24876800  1
  O  O3  1  0.00000000  0.50000000  0.25464100  1
  O  O4  1  0.50000000  0.75141500  0.75143200  1
  O  O5  1  0.50000000  0.24858500  0.75143200  1
  O  O6  1  0.50000000  0.75141500  0.24856800  1
  O  O7  1  0.50000000  0.24858500  0.24856800  1
  O  O8  1  0.50000000  0.00000000  0.00000000  1
  O  O9  1  0.50000000  0.50000000  0.00000000  1
  O  O10  1  0.50000000  0.00000000  0.50000000  1
  O  O11  1  0.50000000  0.50000000  0.50000000  1
  O  O12  1  0.00000000  0.77023900  0.00000000  1
  O  O13  1  0.00000000  0.22976100  0.00000000  1
  O  O14  1  0.00000000  0.75288200  0.50000000  1
  O  O15  1  0.00000000  0.24711800  0.50000000  1
loop_
_geom_bond_atom_site_label_1
_geom_bond_atom_site_label_2
_geom_bond_distance
_geom_bond_site_symmetry_2
Li0 O9 2.130520 1_555
Li0 O9 2.130520 1_455
Li0 O1 2.173001 1_554
Li0 O3 2.173001 1_555
Li0 O12 2.293020 1_555
Li0 O13 2.293020 1_555
Mg0 O14 2.096835 1_545
Mg0 O15 2.096835 1_555
Mg0 O10 2.130520 1_455
Mg0 O10 2.130520 1_555
Mg0 O0 2.143910 1_555
Mg0 O2 2.143910 1_555
Mg1 O3 2.093792 1_555
Mg1 O1 2.093792 1_555
Mg1 O11 2.130520 1_455
Mg1 O11 2.130520 1_555
Mg1 O15 2.145743 1_555
Mg1 O14 2.145743 1_555
Mg2 O9 2.053297 1_555
Mg2 O4 2.122685 1_554
Mg2 O6 2.122685 1_555
Mg2 O12 2.143965 1_655
Mg2 O12 2.143965 1_555
Mg2 O8 2.189281 1_565
Mg3 O9 2.053297 1_555
Mg3 O5 2.122685 1_554
Mg3 O7 2.122685 1_555
Mg3 O13 2.143965 1_555
Mg3 O13 2.143965 1_655
Mg3 O8 2.189281 1_555
Mg4 O11 2.103708 1_555
Mg4 O14 2.130935 1_555
Mg4 O14 2.130935 1_655
Mg4 O10 2.138870 1_565
Mg4 O4 2.145821 1_555
Mg4 O6 2.145821 1_555
Mg5 O11 2.103708 1_555
Mg5 O15 2.130935 1_555
Mg5 O15 2.130935 1_655
Mg5 O10 2.138870 1_555
Mg5 O7 2.145821 1_555
Mg5 O5 2.145821 1_555
Mg6 O4 2.109446 1_545
Mg6 O5 2.109446 1_555
Mg6 O10 2.119316 1_555
Mg6 O0 2.130662 1_555
Mg6 O0 2.130662 1_655
Mg6 O8 2.147477 1_556
Mg7 O9 2.086761 1_556
Mg7 O1 2.132265 1_555
Mg7 O1 2.132265 1_655
Mg7 O5 2.133573 1_555
Mg7 O4 2.133573 1_555
Mg7 O11 2.180033 1_555
Mg8 O6 2.109446 1_545
Mg8 O7 2.109446 1_555
Mg8 O10 2.119316 1_555
Mg8 O2 2.130662 1_655
Mg8 O2 2.130662 1_555
Mg8 O8 2.147477 1_555
Mg9 O9 2.086761 1_555
Mg9 O3 2.132265 1_655
Mg9 O3 2.132265 1_555
Mg9 O7 2.133573 1_555
Mg9 O6 2.133573 1_555
Mg9 O11 2.180033 1_555
Mg10 O1 2.076558 1_555
Mg10 O14 2.130707 1_555
Mg10 O4 2.131344 1_455
Mg10 O4 2.131344 1_555
Mg10 O12 2.148185 1_556
Mg10 O0 2.166376 1_565
Mg11 O1 2.076558 1_555
Mg11 O15 2.130707 1_555
Mg11 O5 2.131344 1_455
Mg11 O5 2.131344 1_555
Mg11 O13 2.148185 1_556
Mg11 O0 2.166376 1_555
Mg12 O3 2.076558 1_555
Mg12 O14 2.130707 1_555
Mg12 O6 2.131344 1_555
Mg12 O6 2.131344 1_455
Mg12 O12 2.148185 1_555
Mg12 O2 2.166376 1_565
Mg13 O3 2.076558 1_555
Mg13 O15 2.130707 1_555
Mg13 O7 2.131344 1_455
Mg13 O7 2.131344 1_555
Mg13 O13 2.148185 1_555
Mg13 O2 2.166376 1_555
Mn0 O13 1.949558 1_555
Mn0 O12 1.949558 1_545
Mn0 O0 2.122883 1_554
Mn0 O2 2.122883 1_555
Mn0 O8 2.130520 1_455
Mn0 O8 2.130520 1_555
