# generated using pymatgen
data_V3Sb
_symmetry_space_group_name_H-M   'P 1'
_cell_length_a   4.90962562
_cell_length_b   4.90962562
_cell_length_c   4.90962562
_cell_angle_alpha   90.00000000
_cell_angle_beta   90.00000000
_cell_angle_gamma   90.00000000
_symmetry_Int_Tables_number   1
_chemical_formula_structural   V3Sb
_chemical_formula_sum   'V6 Sb2'
_cell_volume   118.34369629
_cell_formula_units_Z   2
loop_
 _symmetry_equiv_pos_site_id
 _symmetry_equiv_pos_as_xyz
  1  'x, y, z'
loop_
 _atom_site_type_symbol
 _atom_site_label
 _atom_site_symmetry_multiplicity
 _atom_site_fract_x
 _atom_site_fract_y
 _atom_site_fract_z
 _atom_site_occupancy
  V  V0  1  0.50000000  0.25000000  -0.00000000  1
  V  V1  1  0.50000000  0.75000000  -0.00000000  1
  V  V2  1  0.25000000  0.00000000  0.50000000  1
  V  V3  1  0.75000000  0.00000000  0.50000000  1
  V  V4  1  -0.00000000  0.50000000  0.25000000  1
  V  V5  1  -0.00000000  0.50000000  0.75000000  1
  Sb  Sb0  1  0.50000000  0.50000000  0.50000000  1
  Sb  Sb1  1  -0.00000000  0.00000000  -0.00000000  1
loop_
_geom_bond_atom_site_label_1
_geom_bond_atom_site_label_2
_geom_bond_distance
_geom_bond_site_symmetry_2
V0 V1 2.454813 1_545
V0 V1 2.454813 1_555
V2 V3 2.454813 1_555
V2 V3 2.454813 1_455
V4 V5 2.454813 1_555
V4 V5 2.454813 1_554
Sb0 V4 2.744564 1_655
Sb0 V3 2.744564 1_565
Sb0 V1 2.744564 1_556
Sb0 V2 2.744564 1_555
Sb0 V5 2.744564 1_655
Sb0 V0 2.744564 1_555
Sb0 V3 2.744564 1_555
Sb0 V4 2.744564 1_555
Sb0 V0 2.744564 1_556
Sb0 V1 2.744564 1_555
Sb0 V5 2.744564 1_555
Sb0 V2 2.744564 1_565
Sb1 V3 2.744564 1_454
Sb1 V2 2.744564 1_555
Sb1 V5 2.744564 1_554
Sb1 V2 2.744564 1_554
Sb1 V0 2.744564 1_555
Sb1 V3 2.744564 1_455
Sb1 V4 2.744564 1_545
Sb1 V1 2.744564 1_445
Sb1 V0 2.744564 1_455
Sb1 V4 2.744564 1_555
Sb1 V5 2.744564 1_544
Sb1 V1 2.744564 1_545
