# generated using pymatgen
data_La4FeSe6O
_symmetry_space_group_name_H-M   'P 1'
_cell_length_a   9.83320296
_cell_length_b   9.81455988
_cell_length_c   7.11742510
_cell_angle_alpha   90.44163484
_cell_angle_beta   89.77831094
_cell_angle_gamma   120.19994412
_symmetry_Int_Tables_number   1
_chemical_formula_structural   La4FeSe6O
_chemical_formula_sum   'La8 Fe2 Se12 O2'
_cell_volume   593.64653096
_cell_formula_units_Z   2
loop_
 _symmetry_equiv_pos_site_id
 _symmetry_equiv_pos_as_xyz
  1  'x, y, z'
loop_
 _atom_site_type_symbol
 _atom_site_label
 _atom_site_symmetry_multiplicity
 _atom_site_fract_x
 _atom_site_fract_y
 _atom_site_fract_z
 _atom_site_occupancy
  La  La0  1  0.80115000  0.60191900  0.16100200  1
  La  La1  1  0.33327500  0.66672800  0.20739200  1
  La  La2  1  0.39943300  0.19941200  0.15916800  1
  La  La3  1  0.19930000  0.79855300  0.66126000  1
  La  La4  1  0.59984100  0.79875500  0.66098800  1
  La  La5  1  0.19880500  0.39768800  0.65849800  1
  La  La6  1  0.66818000  0.33462400  0.70713300  1
  La  La7  1  0.79932500  0.20043900  0.15835900  1
  Fe  Fe0  1  0.00133400  0.99877900  0.99976200  1
  Fe  Fe1  1  0.00178200  0.00463400  0.49921900  1
  Se  Se0  1  0.12356800  0.24828500  0.26018600  1
  Se  Se1  1  0.12493100  0.87711400  0.26891200  1
  Se  Se2  1  0.53028800  0.46981300  0.44588000  1
  Se  Se3  1  0.94069200  0.47085100  0.44473700  1
  Se  Se4  1  0.87520900  0.12327500  0.76100100  1
  Se  Se5  1  0.75253700  0.87778000  0.26422100  1
  Se  Se6  1  0.52970600  0.06000700  0.44461000  1
  Se  Se7  1  0.24690500  0.12276900  0.76399900  1
  Se  Se8  1  0.05971400  0.52943000  0.94552800  1
  Se  Se9  1  0.46969500  0.93991800  0.94549900  1
  Se  Se10  1  0.46926700  0.52942300  0.94532100  1
  Se  Se11  1  0.87518700  0.75034900  0.76578500  1
  O  O0  1  0.66674100  0.33392400  0.04313400  1
  O  O1  1  0.33313400  0.66553000  0.54336100  1
loop_
_geom_bond_atom_site_label_1
_geom_bond_atom_site_label_2
_geom_bond_distance
_geom_bond_site_symmetry_2
La0 O0 2.417865 1_555
La0 Se1 3.058967 1_655
La0 Se5 3.060586 1_555
La0 Se2 3.067688 1_555
La0 Se3 3.074575 1_555
La0 Se11 3.089519 1_554
La0 Se8 3.330962 1_654
La0 Se10 3.346478 1_554
La1 O1 2.391345 1_555
La1 Se10 2.972929 1_554
La1 Se8 2.979755 1_554
La1 Se9 2.983668 1_554
La1 Se0 3.571763 1_555
La1 Se5 3.586021 1_555
La1 Se1 3.589893 1_555
La1 Se6 3.728844 1_565
La1 Se3 3.739686 1_455
La2 O0 2.417204 1_555
La2 Se1 3.055136 1_545
La2 Se2 3.060122 1_555
La2 Se0 3.064968 1_555
La2 Se6 3.076786 1_555
La2 Se7 3.096934 1_554
La2 Se9 3.313423 1_544
La2 Se10 3.333024 1_554
La3 O1 2.417359 1_555
La3 Se7 3.057358 1_565
La3 Se8 3.060671 1_555
La3 Se9 3.061745 1_555
La3 Se11 3.066735 1_455
La3 Se1 3.089277 1_555
La3 Se3 3.303266 1_455
La3 Se6 3.339604 1_565
La4 O1 2.416359 1_555
La4 Se4 3.047397 1_565
La4 Se9 3.062393 1_555
La4 Se10 3.062564 1_555
La4 Se11 3.070496 1_555
La4 Se5 3.108077 1_555
La4 Se2 3.308328 1_555
La4 Se6 3.357074 1_565
La5 O1 2.420373 1_555
La5 Se4 3.049846 1_455
La5 Se7 3.063619 1_555
La5 Se8 3.071274 1_555
La5 Se10 3.074758 1_555
La5 Se0 3.097611 1_555
La5 Se2 3.327582 1_555
La5 Se3 3.339524 1_455
La6 O0 2.391491 1_556
La6 Se3 2.975142 1_555
La6 Se6 2.976507 1_555
La6 Se2 2.987305 1_555
La6 Se11 3.548270 1_555
La6 Se4 3.586166 1_555
La6 Se7 3.603053 1_555
La6 Se8 3.735281 1_655
La6 Se10 3.747192 1_555
La7 O0 2.414908 1_555
La7 Se3 3.059001 1_555
La7 Se5 3.062038 1_545
La7 Se6 3.066724 1_555
La7 Se0 3.068829 1_655
La7 Se4 3.106128 1_554
La7 Se9 3.313558 1_544
La7 Se8 3.317288 1_654
Fe0 Se11 2.677234 1_455
Fe0 Se7 2.677966 1_565
Fe0 Se4 2.737114 1_465
Fe0 Se0 2.804118 1_566
Fe0 Se5 2.830972 1_456
Fe0 Se1 2.843581 1_556
Fe1 Se1 2.682809 1_545
Fe1 Se0 2.685688 1_555
Fe1 Se5 2.698926 1_445
Fe1 Se4 2.789820 1_455
Fe1 Se7 2.809900 1_555
Fe1 Se11 2.882178 1_445
