# generated using pymatgen
data_MoRh3
_symmetry_space_group_name_H-M   'P 1'
_cell_length_a   5.54583525
_cell_length_b   5.54583525
_cell_length_c   17.65615800
_cell_angle_alpha   90.00000000
_cell_angle_beta   90.00000000
_cell_angle_gamma   119.99999110
_symmetry_Int_Tables_number   1
_chemical_formula_structural   MoRh3
_chemical_formula_sum   'Mo8 Rh24'
_cell_volume   470.28465201
_cell_formula_units_Z   8
loop_
 _symmetry_equiv_pos_site_id
 _symmetry_equiv_pos_as_xyz
  1  'x, y, z'
loop_
 _atom_site_type_symbol
 _atom_site_label
 _atom_site_symmetry_multiplicity
 _atom_site_fract_x
 _atom_site_fract_y
 _atom_site_fract_z
 _atom_site_occupancy
  Mo  Mo0_0  1  0.16666650  0.33333350  0.00000000  1
  Mo  Mo0_1  1  0.16666650  0.33333350  0.50000000  1
  Mo  Mo0_2  1  0.16666650  0.83333350  0.00000000  1
  Mo  Mo0_3  1  0.16666650  0.83333350  0.50000000  1
  Mo  Mo0_4  1  0.66666650  0.33333350  0.00000000  1
  Mo  Mo0_5  1  0.66666650  0.33333350  0.50000000  1
  Mo  Mo0_6  1  0.66666650  0.83333350  0.00000000  1
  Mo  Mo0_7  1  0.66666650  0.83333350  0.50000000  1
  Rh  Rh0_0  1  0.16666650  0.33333350  0.25000000  1
  Rh  Rh0_1  1  0.16666650  0.33333350  0.75000000  1
  Rh  Rh0_2  1  0.16666650  0.83333350  0.25000000  1
  Rh  Rh0_3  1  0.16666650  0.83333350  0.75000000  1
  Rh  Rh0_4  1  0.66666650  0.33333350  0.25000000  1
  Rh  Rh0_5  1  0.66666650  0.33333350  0.75000000  1
  Rh  Rh0_6  1  0.66666650  0.83333350  0.25000000  1
  Rh  Rh0_7  1  0.66666650  0.83333350  0.75000000  1
  Rh  Rh1_0  1  0.00000000  0.00000000  0.12266600  1
  Rh  Rh1_1  1  0.00000000  0.00000000  0.62266600  1
  Rh  Rh1_2  1  0.00000000  0.50000000  0.12266600  1
  Rh  Rh1_3  1  0.00000000  0.50000000  0.62266600  1
  Rh  Rh1_4  1  0.50000000  0.00000000  0.12266600  1
  Rh  Rh1_5  1  0.50000000  0.00000000  0.62266600  1
  Rh  Rh1_6  1  0.50000000  0.50000000  0.12266600  1
  Rh  Rh1_7  1  0.50000000  0.50000000  0.62266600  1
  Rh  Rh2_0  1  0.00000000  0.00000000  0.37733400  1
  Rh  Rh2_1  1  0.00000000  0.00000000  0.87733400  1
  Rh  Rh2_2  1  0.00000000  0.50000000  0.37733400  1
  Rh  Rh2_3  1  0.00000000  0.50000000  0.87733400  1
  Rh  Rh2_4  1  0.50000000  0.00000000  0.37733400  1
  Rh  Rh2_5  1  0.50000000  0.00000000  0.87733400  1
  Rh  Rh2_6  1  0.50000000  0.50000000  0.37733400  1
  Rh  Rh2_7  1  0.50000000  0.50000000  0.87733400  1
loop_
_geom_bond_atom_site_label_1
_geom_bond_atom_site_label_2
_geom_bond_distance
_geom_bond_site_symmetry_2
Mo0_0 Rh1_2 2.693279 1_555
Mo0_0 Rh2_3 2.693279 1_554
Mo0_0 Rh1_0 2.693281 1_555
Mo0_0 Rh1_6 2.693281 1_555
Mo0_0 Rh2_7 2.693281 1_554
Mo0_0 Rh2_1 2.693281 1_554
Mo0_0 Mo0_4 2.772918 1_555
Mo0_0 Mo0_2 2.772918 1_545
Mo0_0 Mo0_2 2.772918 1_555
Mo0_0 Mo0_4 2.772918 1_455
Mo0_0 Mo0_6 2.772918 1_445
Mo0_0 Mo0_6 2.772918 1_555
Mo0_1 Rh1_3 2.693279 1_555
Mo0_1 Rh2_2 2.693279 1_555
Mo0_1 Rh1_1 2.693281 1_555
Mo0_1 Rh1_7 2.693281 1_555
Mo0_1 Rh2_0 2.693281 1_555
Mo0_1 Rh2_6 2.693281 1_555
Mo0_1 Mo0_5 2.772918 1_555
Mo0_1 Mo0_3 2.772918 1_545
Mo0_1 Mo0_5 2.772918 1_455
Mo0_1 Mo0_3 2.772918 1_555
Mo0_1 Mo0_7 2.772918 1_445
Mo0_1 Mo0_7 2.772918 1_555
Mo0_2 Rh1_0 2.693279 1_565
Mo0_2 Rh2_1 2.693279 1_564
Mo0_2 Rh1_2 2.693281 1_555
Mo0_2 Rh1_4 2.693281 1_565
Mo0_2 Rh2_5 2.693281 1_564
Mo0_2 Rh2_3 2.693281 1_554
Mo0_2 Mo0_6 2.772918 1_455
Mo0_2 Mo0_6 2.772918 1_555
Mo0_2 Mo0_4 2.772918 1_565
Mo0_2 Mo0_4 2.772918 1_455
Mo0_3 Rh1_1 2.693279 1_565
Mo0_3 Rh2_0 2.693279 1_565
Mo0_3 Rh1_5 2.693281 1_565
Mo0_3 Rh1_3 2.693281 1_555
Mo0_3 Rh2_4 2.693281 1_565
Mo0_3 Rh2_2 2.693281 1_555
Mo0_3 Mo0_7 2.772918 1_455
Mo0_3 Mo0_7 2.772918 1_555
Mo0_3 Mo0_5 2.772918 1_565
Mo0_3 Mo0_5 2.772918 1_455
Mo0_4 Rh1_6 2.693279 1_555
Mo0_4 Rh2_7 2.693279 1_554
Mo0_4 Rh1_2 2.693281 1_655
Mo0_4 Rh1_4 2.693281 1_555
Mo0_4 Rh2_5 2.693281 1_554
Mo0_4 Rh2_3 2.693281 1_654
Mo0_4 Mo0_6 2.772918 1_545
Mo0_4 Mo0_6 2.772918 1_555
Mo0_5 Rh1_7 2.693279 1_555
Mo0_5 Rh2_6 2.693279 1_555
Mo0_5 Rh1_5 2.693281 1_555
Mo0_5 Rh1_3 2.693281 1_655
Mo0_5 Rh2_2 2.693281 1_655
Mo0_5 Rh2_4 2.693281 1_555
Mo0_5 Mo0_7 2.772918 1_545
Mo0_5 Mo0_7 2.772918 1_555
Mo0_6 Rh1_4 2.693279 1_565
Mo0_6 Rh2_5 2.693279 1_564
Mo0_6 Rh1_0 2.693281 1_665
Mo0_6 Rh2_1 2.693281 1_664
Mo0_6 Rh1_6 2.693281 1_555
Mo0_6 Rh2_7 2.693281 1_554
Mo0_7 Rh1_5 2.693279 1_565
Mo0_7 Rh2_4 2.693279 1_565
Mo0_7 Rh1_1 2.693281 1_665
Mo0_7 Rh1_7 2.693281 1_555
Mo0_7 Rh2_0 2.693281 1_665
Mo0_7 Rh2_6 2.693281 1_555
Rh0_0 Rh1_2 2.759992 1_555
Rh0_0 Rh2_2 2.759992 1_555
Rh0_0 Rh2_0 2.759993 1_555
Rh0_0 Rh1_0 2.759993 1_555
Rh0_0 Rh2_6 2.759993 1_555
Rh0_0 Rh1_6 2.759993 1_555
Rh0_0 Rh0_2 2.772918 1_545
Rh0_0 Rh0_4 2.772918 1_555
Rh0_0 Rh0_2 2.772918 1_555
Rh0_0 Rh0_4 2.772918 1_455
Rh0_0 Rh0_6 2.772918 1_445
Rh0_0 Rh0_6 2.772918 1_555
Rh0_1 Rh1_3 2.759992 1_555
Rh0_1 Rh2_3 2.759992 1_555
Rh0_1 Rh1_1 2.759993 1_555
Rh0_1 Rh1_7 2.759993 1_555
Rh0_1 Rh2_7 2.759993 1_555
Rh0_1 Rh2_1 2.759993 1_555
Rh0_1 Rh0_5 2.772918 1_555
Rh0_1 Rh0_3 2.772918 1_545
Rh0_1 Rh0_3 2.772918 1_555
Rh0_1 Rh0_5 2.772918 1_455
Rh0_1 Rh0_7 2.772918 1_445
Rh0_1 Rh0_7 2.772918 1_555
Rh0_2 Rh2_0 2.759992 1_565
Rh0_2 Rh1_0 2.759992 1_565
Rh0_2 Rh1_4 2.759993 1_565
Rh0_2 Rh2_4 2.759993 1_565
Rh0_2 Rh1_2 2.759993 1_555
Rh0_2 Rh2_2 2.759993 1_555
Rh0_2 Rh0_6 2.772918 1_455
Rh0_2 Rh0_6 2.772918 1_555
Rh0_2 Rh0_4 2.772918 1_565
Rh0_2 Rh0_4 2.772918 1_455
Rh0_3 Rh1_1 2.759992 1_565
Rh0_3 Rh2_1 2.759992 1_565
Rh0_3 Rh1_5 2.759993 1_565
Rh0_3 Rh1_3 2.759993 1_555
Rh0_3 Rh2_5 2.759993 1_565
Rh0_3 Rh2_3 2.759993 1_555
Rh0_3 Rh0_7 2.772918 1_455
Rh0_3 Rh0_7 2.772918 1_555
Rh0_3 Rh0_5 2.772918 1_565
Rh0_3 Rh0_5 2.772918 1_455
Rh0_4 Rh1_6 2.759992 1_555
Rh0_4 Rh2_6 2.759992 1_555
Rh0_4 Rh2_4 2.759993 1_555
Rh0_4 Rh1_4 2.759993 1_555
Rh0_4 Rh1_2 2.759993 1_655
Rh0_4 Rh2_2 2.759993 1_655
Rh0_4 Rh0_6 2.772918 1_545
Rh0_4 Rh0_6 2.772918 1_555
Rh0_5 Rh1_7 2.759992 1_555
Rh0_5 Rh2_7 2.759992 1_555
Rh0_5 Rh1_5 2.759993 1_555
Rh0_5 Rh1_3 2.759993 1_655
Rh0_5 Rh2_5 2.759993 1_555
Rh0_5 Rh2_3 2.759993 1_655
Rh0_5 Rh0_7 2.772918 1_545
Rh0_5 Rh0_7 2.772918 1_555
Rh0_6 Rh2_4 2.759992 1_565
Rh0_6 Rh1_4 2.759992 1_565
Rh0_6 Rh1_0 2.759993 1_665
Rh0_6 Rh2_0 2.759993 1_665
Rh0_6 Rh1_6 2.759993 1_555
Rh0_6 Rh2_6 2.759993 1_555
Rh0_7 Rh1_5 2.759992 1_565
Rh0_7 Rh2_5 2.759992 1_565
Rh0_7 Rh1_1 2.759993 1_665
Rh0_7 Rh1_7 2.759993 1_555
Rh0_7 Rh2_1 2.759993 1_665
Rh0_7 Rh2_7 2.759993 1_555
Rh1_0 Rh1_4 2.772918 1_555
Rh1_0 Rh1_4 2.772918 1_455
Rh1_0 Rh1_2 2.772918 1_555
Rh1_0 Rh1_2 2.772918 1_545
Rh1_0 Rh1_6 2.772918 1_555
Rh1_0 Rh1_6 2.772918 1_445
Rh1_1 Rh1_5 2.772918 1_555
Rh1_1 Rh1_3 2.772918 1_555
Rh1_1 Rh1_5 2.772918 1_455
Rh1_1 Rh1_3 2.772918 1_545
Rh1_1 Rh1_7 2.772918 1_445
Rh1_1 Rh1_7 2.772918 1_555
Rh1_2 Rh1_6 2.772918 1_555
Rh1_2 Rh1_6 2.772918 1_455
Rh1_2 Rh1_4 2.772918 1_565
Rh1_2 Rh1_4 2.772918 1_455
Rh1_3 Rh1_7 2.772918 1_455
Rh1_3 Rh1_7 2.772918 1_555
Rh1_3 Rh1_5 2.772918 1_565
Rh1_3 Rh1_5 2.772918 1_455
Rh1_4 Rh1_6 2.772918 1_555
Rh1_4 Rh1_6 2.772918 1_545
Rh1_5 Rh1_7 2.772918 1_555
Rh1_5 Rh1_7 2.772918 1_545
Rh2_0 Rh2_4 2.772918 1_555
Rh2_0 Rh2_2 2.772918 1_545
Rh2_0 Rh2_4 2.772918 1_455
Rh2_0 Rh2_2 2.772918 1_555
Rh2_0 Rh2_6 2.772918 1_445
Rh2_0 Rh2_6 2.772918 1_555
Rh2_1 Rh2_3 2.772918 1_555
Rh2_1 Rh2_3 2.772918 1_545
Rh2_1 Rh2_5 2.772918 1_555
Rh2_1 Rh2_5 2.772918 1_455
Rh2_1 Rh2_7 2.772918 1_555
Rh2_1 Rh2_7 2.772918 1_445
Rh2_2 Rh2_6 2.772918 1_555
Rh2_2 Rh2_6 2.772918 1_455
Rh2_2 Rh2_4 2.772918 1_455
Rh2_2 Rh2_4 2.772918 1_565
Rh2_3 Rh2_7 2.772918 1_455
Rh2_3 Rh2_7 2.772918 1_555
Rh2_3 Rh2_5 2.772918 1_565
Rh2_3 Rh2_5 2.772918 1_455
Rh2_4 Rh2_6 2.772918 1_555
Rh2_4 Rh2_6 2.772918 1_545
Rh2_5 Rh2_7 2.772918 1_555
Rh2_5 Rh2_7 2.772918 1_545
