# generated using pymatgen
data_Lu4Ir
_symmetry_space_group_name_H-M   'P 1'
_cell_length_a   7.51318491
_cell_length_b   7.51318491
_cell_length_c   7.51318491
_cell_angle_alpha   60.00000000
_cell_angle_beta   60.00000000
_cell_angle_gamma   60.00000000
_symmetry_Int_Tables_number   1
_chemical_formula_structural   Lu4Ir
_chemical_formula_sum   'Lu8 Ir2'
_cell_volume   299.88672080
_cell_formula_units_Z   2
loop_
 _symmetry_equiv_pos_site_id
 _symmetry_equiv_pos_as_xyz
  1  'x, y, z'
loop_
 _atom_site_type_symbol
 _atom_site_label
 _atom_site_symmetry_multiplicity
 _atom_site_fract_x
 _atom_site_fract_y
 _atom_site_fract_z
 _atom_site_occupancy
  Lu  Lu0  1  0.61111200  0.61111200  0.61111200  1
  Lu  Lu1  1  0.16666300  0.61111200  0.61111200  1
  Lu  Lu2  1  0.61111200  0.16666300  0.61111200  1
  Lu  Lu3  1  0.58333700  0.13888800  0.13888800  1
  Lu  Lu4  1  0.13888800  0.13888800  0.13888800  1
  Lu  Lu5  1  0.61111200  0.61111200  0.16666300  1
  Lu  Lu6  1  0.13888800  0.58333700  0.13888800  1
  Lu  Lu7  1  0.13888800  0.13888800  0.58333700  1
  Ir  Ir0  1  0.00000000  0.00000000  0.00000000  1
  Ir  Ir1  1  0.75000000  0.75000000  0.75000000  1
loop_
_geom_bond_atom_site_label_1
_geom_bond_atom_site_label_2
_geom_bond_distance
_geom_bond_site_symmetry_2
Ir0 Lu6 2.556015 1_545
Ir0 Lu7 2.556015 1_554
Ir0 Lu3 2.556015 1_455
Ir0 Lu4 2.556021 1_555
Ir1 Lu5 2.556015 1_556
Ir1 Lu1 2.556015 1_655
Ir1 Lu2 2.556015 1_565
Ir1 Lu0 2.556021 1_555
