# generated using pymatgen
data_CaV2O4
_symmetry_space_group_name_H-M   'P 1'
_cell_length_a   6.17435597
_cell_length_b   6.17433516
_cell_length_c   6.37097202
_cell_angle_alpha   118.98966444
_cell_angle_beta   118.98308278
_cell_angle_gamma   89.99834121
_symmetry_Int_Tables_number   1
_chemical_formula_structural   CaV2O4
_chemical_formula_sum   'Ca2 V4 O8'
_cell_volume   176.87367004
_cell_formula_units_Z   2
loop_
 _symmetry_equiv_pos_site_id
 _symmetry_equiv_pos_as_xyz
  1  'x, y, z'
loop_
 _atom_site_type_symbol
 _atom_site_label
 _atom_site_symmetry_multiplicity
 _atom_site_fract_x
 _atom_site_fract_y
 _atom_site_fract_z
 _atom_site_occupancy
  Ca  Ca0  1  0.37502800  0.62489000  0.74997100  1
  Ca  Ca1  1  0.62497100  0.37510900  0.25002800  1
  V  V0  1  0.00000100  0.00000300  0.50000000  1
  V  V1  1  0.99999900  0.49999700  0.99999800  1
  V  V2  1  0.50000300  0.00000600  0.50000400  1
  V  V3  1  0.00000200  0.00000200  0.00000200  1
  O  O0  1  0.77073900  0.80337200  0.54158700  1
  O  O1  1  0.76194600  0.22918400  0.95831900  1
  O  O2  1  0.19651500  0.22912900  0.95831900  1
  O  O3  1  0.22926000  0.19662700  0.45841200  1
  O  O4  1  0.22915200  0.76197000  0.45831400  1
  O  O5  1  0.23805300  0.77081400  0.04168000  1
  O  O6  1  0.77084700  0.23802800  0.54168500  1
  O  O7  1  0.80348500  0.77086900  0.04168100  1
loop_
_geom_bond_atom_site_label_1
_geom_bond_atom_site_label_2
_geom_bond_distance
_geom_bond_site_symmetry_2
Ca0 O3 2.207136 1_555
Ca0 O7 2.208298 1_556
Ca0 O5 2.209311 1_556
Ca0 O4 2.209694 1_555
Ca1 O0 2.207136 1_555
Ca1 O2 2.208293 1_554
Ca1 O1 2.209311 1_554
Ca1 O6 2.209699 1_555
O0 V2 2.054502 1_565
O0 V0 2.055061 1_665
O0 V3 2.136376 1_666
O1 V1 2.053854 1_555
O1 V3 2.054062 1_656
O1 V2 2.136025 1_555
O2 V3 2.054418 1_556
O2 V1 2.054613 1_455
O2 V0 2.135944 1_555
O3 V2 2.054484 1_555
O3 V0 2.055023 1_555
O3 V3 2.136354 1_555
O4 V0 2.053790 1_565
O4 V2 2.053923 1_565
O4 V1 2.136018 1_454
O5 V1 2.053865 1_454
O5 V3 2.054066 1_565
O5 V2 2.136068 1_565
O6 V0 2.053771 1_655
O6 V2 2.053869 1_555
O6 V1 2.136003 1_555
O7 V3 2.054443 1_665
O7 V1 2.054624 1_554
O7 V0 2.135943 1_665
