# generated using pymatgen
data_Li7Mn4CoO12
_symmetry_space_group_name_H-M   'P 1'
_cell_length_a   2.96866000
_cell_length_b   5.08627566
_cell_length_c   14.46877612
_cell_angle_alpha   87.90236538
_cell_angle_beta   86.62101125
_cell_angle_gamma   88.63674280
_symmetry_Int_Tables_number   1
_chemical_formula_structural   Li7Mn4CoO12
_chemical_formula_sum   'Li7 Mn4 Co1 O12'
_cell_volume   217.89296955
_cell_formula_units_Z   1
loop_
 _symmetry_equiv_pos_site_id
 _symmetry_equiv_pos_as_xyz
  1  'x, y, z'
loop_
 _atom_site_type_symbol
 _atom_site_label
 _atom_site_symmetry_multiplicity
 _atom_site_fract_x
 _atom_site_fract_y
 _atom_site_fract_z
 _atom_site_occupancy
  Li  Li0  1  0.00128700  0.33866500  0.16746100  1
  Li  Li1  1  0.50091100  0.16772600  0.33364600  1
  Li  Li2  1  0.99826400  0.99517000  0.49967200  1
  Li  Li3  1  0.50263800  0.83914500  0.67180900  1
  Li  Li4  1  0.00005000  0.66602300  0.83295100  1
  Li  Li5  1  0.49673800  0.49428700  0.99466800  1
  Li  Li6  1  0.50055200  0.16727100  0.83245000  1
  Mn  Mn0  1  0.99574400  0.00967100  0.99321900  1
  Mn  Mn1  1  0.00389800  0.32586100  0.67124700  1
  Mn  Mn2  1  0.49181100  0.83013200  0.16520200  1
  Mn  Mn3  1  0.00090100  0.66492700  0.33593900  1
  Co  Co0  1  0.51212900  0.50174500  0.50267300  1
  O  O0  1  0.47593900  0.13868000  0.07597400  1
  O  O1  1  0.02994600  0.98218000  0.25146800  1
  O  O2  1  0.53176600  0.81553600  0.42009800  1
  O  O3  1  0.03843100  0.64098200  0.58101000  1
  O  O4  1  0.48239400  0.47941100  0.73858700  1
  O  O5  1  0.00724400  0.31423600  0.92358100  1
  O  O6  1  0.46450900  0.51160400  0.24961200  1
  O  O7  1  0.97125800  0.35159700  0.41939200  1
  O  O8  1  0.52358000  0.20022800  0.58915900  1
  O  O9  1  0.99251400  0.01962800  0.74059200  1
  O  O10  1  0.51757500  0.85584400  0.92640000  1
  O  O11  1  0.95991800  0.68945100  0.08319200  1
loop_
_geom_bond_atom_site_label_1
_geom_bond_atom_site_label_2
_geom_bond_distance
_geom_bond_site_symmetry_2
Li0 O6 2.098656 1_555
Li0 O6 2.124240 1_455
Li0 O11 2.129090 1_455
Li0 O0 2.140759 1_555
Li0 O1 2.148434 1_545
Li0 O0 2.374140 1_455
Li1 O6 2.097626 1_555
Li1 O1 2.135987 1_645
Li1 O1 2.144778 1_545
Li1 O2 2.150251 1_545
Li1 O7 2.161284 1_455
Li1 O7 2.171348 1_555
Li2 O2 2.098431 1_555
Li2 O2 2.112333 1_655
Li2 O7 2.119457 1_565
Li2 O3 2.120315 1_655
Li2 O8 2.136317 1_565
Li2 O8 2.368649 1_665
Li3 O9 1.987351 1_465
Li3 O4 2.038122 1_555
Li3 O9 2.061325 1_565
Li3 O8 2.154712 1_565
Li3 O3 2.239944 1_555
Li3 O3 2.246357 1_655
Li4 O10 2.147855 1_455
Li4 O4 2.148291 1_555
Li4 O5 2.179735 1_555
Li4 O9 2.201509 1_465
Li4 O10 2.351960 1_555
Li4 O4 2.353343 1_455
Li5 O5 2.003130 1_655
Li5 O10 2.055861 1_555
Li5 O5 2.077655 1_555
Li5 O0 2.121359 1_556
Li5 O11 2.209576 1_556
Li5 O11 2.223234 1_456
Li6 O10 2.050877 1_545
Li6 O4 2.052945 1_555
Li6 O5 2.057776 1_555
Li6 O9 2.062861 1_555
Li6 O5 2.217974 1_655
Li6 O9 2.228958 1_455
Mn0 O5 1.816671 1_655
Mn0 O10 1.941089 1_645
Mn0 O10 1.957519 1_545
Mn0 O0 2.009231 1_556
Mn0 O11 2.048280 1_546
Mn0 O0 2.049300 1_656
Mn1 O9 1.821539 1_455
Mn1 O4 1.943310 1_455
Mn1 O4 1.961813 1_555
Mn1 O8 1.997935 1_555
Mn1 O3 2.030503 1_555
Mn1 O8 2.037335 1_455
Mn2 O11 1.916136 1_555
Mn2 O1 1.963271 1_555
Mn2 O6 1.993161 1_555
Mn2 O0 1.996792 1_565
Mn2 O11 2.179457 1_455
Mn2 O1 2.252250 1_655
Mn3 O2 1.956217 1_455
Mn3 O7 1.964386 1_455
Mn3 O6 1.969784 1_555
Mn3 O1 1.988677 1_555
Mn3 O2 2.214755 1_555
Mn3 O6 2.251388 1_455
Co0 O3 1.894004 1_555
Co0 O7 1.928001 1_555
Co0 O8 1.944479 1_555
Co0 O2 1.958259 1_555
Co0 O3 2.132493 1_655
Co0 O7 2.228705 1_455
