# generated using pymatgen
data_Gd4Co3
_symmetry_space_group_name_H-M   'P 1'
_cell_length_a   4.07859120
_cell_length_b   11.32855596
_cell_length_c   11.32702345
_cell_angle_alpha   119.99733402
_cell_angle_beta   89.98457977
_cell_angle_gamma   90.03677890
_symmetry_Int_Tables_number   1
_chemical_formula_structural   Gd4Co3
_chemical_formula_sum   'Gd12 Co9'
_cell_volume   453.25514176
_cell_formula_units_Z   3
loop_
 _symmetry_equiv_pos_site_id
 _symmetry_equiv_pos_as_xyz
  1  'x, y, z'
loop_
 _atom_site_type_symbol
 _atom_site_label
 _atom_site_symmetry_multiplicity
 _atom_site_fract_x
 _atom_site_fract_y
 _atom_site_fract_z
 _atom_site_occupancy
  Gd  Gd0  1  0.74917200  0.61987300  0.48395200  1
  Gd  Gd1  1  0.74959000  0.51602000  0.13676500  1
  Gd  Gd2  1  0.74946400  0.86293100  0.37980700  1
  Gd  Gd3  1  0.25082800  0.38012600  0.51604800  1
  Gd  Gd4  1  0.25041000  0.48398000  0.86323500  1
  Gd  Gd5  1  0.25053600  0.13706900  0.62019300  1
  Gd  Gd6  1  0.75015100  0.77590400  0.01700300  1
  Gd  Gd7  1  0.75055600  0.98128700  0.75773000  1
  Gd  Gd8  1  0.75082800  0.24296300  0.22609500  1
  Gd  Gd9  1  0.24984900  0.22409600  0.98299700  1
  Gd  Gd10  1  0.24944400  0.01871300  0.24227000  1
  Gd  Gd11  1  0.24917200  0.75703700  0.77390500  1
  Co  Co0  1  0.74627000  0.28173400  0.84537900  1
  Co  Co1  1  0.74714300  0.15530300  0.43683900  1
  Co  Co2  1  0.74688700  0.56399700  0.71585600  1
  Co  Co3  1  0.25373000  0.71826600  0.15462100  1
  Co  Co4  1  0.25285700  0.84469700  0.56316100  1
  Co  Co5  1  0.25311300  0.43600300  0.28414400  1
  Co  Co6  1  0.75329300  0.33393400  0.66657100  1
  Co  Co7  1  0.24670700  0.66606600  0.33342900  1
  Co  Co8  1  0.50000000  0.00000000  0.00000000  1
loop_
_geom_bond_atom_site_label_1
_geom_bond_atom_site_label_2
_geom_bond_distance
_geom_bond_site_symmetry_2
Co0 Co6 2.377006 1_555
Co0 Gd9 2.823113 1_555
Co0 Gd9 2.845326 1_655
Co0 Gd4 2.987107 1_555
Co0 Gd4 3.008155 1_655
Co0 Gd5 3.016382 1_555
Co0 Gd1 3.029644 1_556
Co0 Gd7 3.031810 1_545
Co0 Gd5 3.040308 1_655
Co1 Co6 2.366769 1_555
Co1 Gd10 2.821424 1_555
Co1 Gd10 2.835533 1_655
Co1 Gd5 2.980712 1_555
Co1 Gd5 3.000528 1_655
Co1 Gd8 3.009146 1_555
Co1 Gd3 3.018302 1_555
Co1 Gd3 3.036673 1_655
Co1 Gd2 3.041104 1_545
Co2 Co6 2.377029 1_555
Co2 Gd11 2.811174 1_555
Co2 Gd11 2.822891 1_655
Co2 Gd3 2.972817 1_555
Co2 Gd0 2.993883 1_555
Co2 Gd3 2.995779 1_655
Co2 Gd6 3.034899 1_556
Co2 Gd4 3.036075 1_555
Co2 Gd4 3.056693 1_655
Co3 Co7 2.377006 1_555
Co3 Gd6 2.823113 1_555
Co3 Gd6 2.845326 1_455
Co3 Gd1 2.987107 1_555
Co3 Gd1 3.008155 1_455
Co3 Gd2 3.016382 1_555
Co3 Gd4 3.029644 1_554
Co3 Gd10 3.031810 1_565
Co3 Gd2 3.040308 1_455
Co4 Co7 2.366769 1_555
Co4 Gd7 2.821424 1_555
Co4 Gd7 2.835533 1_455
Co4 Gd2 2.980712 1_555
Co4 Gd2 3.000528 1_455
Co4 Gd11 3.009146 1_555
Co4 Gd0 3.018310 1_555
Co4 Gd0 3.036681 1_455
Co4 Gd5 3.041104 1_565
Co5 Co7 2.377029 1_555
Co5 Gd8 2.811174 1_555
Co5 Gd8 2.822891 1_455
Co5 Gd0 2.972813 1_555
Co5 Gd3 2.993890 1_555
Co5 Gd0 2.995776 1_455
Co5 Gd9 3.034899 1_554
Co5 Gd1 3.036075 1_555
Co5 Gd1 3.056693 1_455
Co6 Gd4 2.859077 1_655
Co6 Gd3 2.861381 1_655
Co6 Gd5 2.862950 1_655
Co6 Gd4 2.876499 1_555
Co6 Gd3 2.876803 1_555
Co6 Gd5 2.877096 1_555
Co7 Gd1 2.859077 1_455
Co7 Gd0 2.861386 1_455
Co7 Gd2 2.862950 1_455
Co7 Gd1 2.876499 1_555
Co7 Gd0 2.876808 1_555
Co7 Gd2 2.877096 1_555
Co8 Gd6 2.831126 1_545
Co8 Gd9 2.831126 1_554
Co8 Gd7 2.834950 1_544
Co8 Gd10 2.834950 1_555
Co8 Gd8 2.851402 1_555
Co8 Gd11 2.851402 1_544
