# generated using pymatgen
data_Tb2(NiB2)3
_symmetry_space_group_name_H-M   'P 1'
_cell_length_a   3.48907400
_cell_length_b   5.81126634
_cell_length_c   5.81126634
_cell_angle_alpha   96.62806492
_cell_angle_beta   90.00000000
_cell_angle_gamma   90.00000000
_symmetry_Int_Tables_number   1
_chemical_formula_structural   Tb2(NiB2)3
_chemical_formula_sum   'Tb2 Ni3 B6'
_cell_volume   117.04135056
_cell_formula_units_Z   1
loop_
 _symmetry_equiv_pos_site_id
 _symmetry_equiv_pos_as_xyz
  1  'x, y, z'
loop_
 _atom_site_type_symbol
 _atom_site_label
 _atom_site_symmetry_multiplicity
 _atom_site_fract_x
 _atom_site_fract_y
 _atom_site_fract_z
 _atom_site_occupancy
  Tb  Tb0  1  0.00000000  0.27548100  0.72451900  1
  Tb  Tb1  1  0.00000000  0.72451900  0.27548100  1
  Ni  Ni0  1  0.50000000  0.00000000  0.00000000  1
  Ni  Ni1  1  0.00000000  0.77321300  0.77321300  1
  Ni  Ni2  1  0.00000000  0.22678700  0.22678700  1
  B  B0  1  0.50000000  0.91448500  0.61466100  1
  B  B1  1  0.50000000  0.08551500  0.38533900  1
  B  B2  1  0.50000000  0.61466100  0.91448500  1
  B  B3  1  0.50000000  0.38533900  0.08551500  1
  B  B4  1  0.50000000  0.61323700  0.61323700  1
  B  B5  1  0.50000000  0.38676300  0.38676300  1
loop_
_geom_bond_atom_site_label_1
_geom_bond_atom_site_label_2
_geom_bond_distance
_geom_bond_site_symmetry_2
Ni0 Ni2 2.473110 1_555
Ni0 Ni1 2.473110 1_544
Ni0 Ni1 2.473110 1_644
Ni0 Ni2 2.473110 1_655
Ni0 Tb0 2.959858 1_654
Ni0 Tb0 2.959858 1_554
Ni0 Tb1 2.959858 1_545
Ni0 Tb1 2.959858 1_645
Ni1 Tb1 2.873572 1_555
Ni1 Tb0 2.873572 1_555
Ni1 Tb0 2.964829 1_565
Ni1 Tb1 2.964829 1_556
Ni2 Tb1 2.873572 1_555
Ni2 Tb0 2.873572 1_555
Ni2 Tb0 2.964829 1_554
Ni2 Tb1 2.964829 1_545
B0 B4 1.749697 1_555
B0 B1 1.752016 1_565
B0 Ni1 2.177378 1_655
B0 Ni1 2.177378 1_555
B0 Ni0 2.237089 1_566
B0 Tb0 2.746408 1_565
B0 Tb0 2.746408 1_665
B0 Tb1 2.764939 1_655
B0 Tb1 2.764939 1_555
B1 B5 1.749697 1_555
B1 Ni2 2.177378 1_655
B1 Ni2 2.177378 1_555
B1 Ni0 2.237089 1_555
B1 Tb1 2.746408 1_645
B1 Tb1 2.746408 1_545
B1 Tb0 2.764939 1_555
B1 Tb0 2.764939 1_655
B2 B4 1.749697 1_555
B2 B3 1.752016 1_556
B2 Ni1 2.177378 1_655
B2 Ni1 2.177378 1_555
B2 Ni0 2.237089 1_566
B2 Tb1 2.746408 1_556
B2 Tb1 2.746408 1_656
B2 Tb0 2.764939 1_555
B2 Tb0 2.764939 1_655
B3 B5 1.749697 1_555
B3 Ni2 2.177378 1_655
B3 Ni2 2.177378 1_555
B3 Ni0 2.237089 1_555
B3 Tb0 2.746408 1_554
B3 Tb0 2.746408 1_654
B3 Tb1 2.764939 1_655
B3 Tb1 2.764939 1_555
B4 B5 1.750539 1_555
B4 Ni1 2.138327 1_555
B4 Ni1 2.138327 1_655
B4 Tb0 2.758112 1_555
B4 Tb1 2.758112 1_555
B4 Tb0 2.758112 1_655
B4 Tb1 2.758112 1_655
B5 Ni2 2.138327 1_655
B5 Ni2 2.138327 1_555
B5 Tb0 2.758112 1_655
B5 Tb1 2.758112 1_555
B5 Tb1 2.758112 1_655
B5 Tb0 2.758112 1_555
