# generated using pymatgen
data_Cd3H6C2I6(NO)2
_symmetry_space_group_name_H-M   'P 1'
_cell_length_a   14.19799000
_cell_length_b   16.60059900
_cell_length_c   4.31345400
_cell_angle_alpha   90.00000000
_cell_angle_beta   90.00000000
_cell_angle_gamma   90.00000000
_symmetry_Int_Tables_number   1
_chemical_formula_structural   Cd3H6C2I6(NO)2
_chemical_formula_sum   'Cd6 H12 C4 I12 N4 O4'
_cell_volume   1016.66013836
_cell_formula_units_Z   2
loop_
 _symmetry_equiv_pos_site_id
 _symmetry_equiv_pos_as_xyz
  1  'x, y, z'
loop_
 _atom_site_type_symbol
 _atom_site_label
 _atom_site_symmetry_multiplicity
 _atom_site_fract_x
 _atom_site_fract_y
 _atom_site_fract_z
 _atom_site_occupancy
  Cd  Cd0  1  0.73714900  0.11152300  0.10242600  1
  Cd  Cd1  1  0.26285100  0.88847700  0.10242600  1
  Cd  Cd2  1  0.23714900  0.38847700  0.60242600  1
  Cd  Cd3  1  0.76285100  0.61152300  0.60242600  1
  Cd  Cd4  1  0.50000000  0.00000000  0.62511600  1
  Cd  Cd5  1  0.00000000  0.50000000  0.12511600  1
  H  H0  1  0.07781200  0.05432000  0.04782100  1
  H  H1  1  0.92218800  0.94568000  0.04782100  1
  H  H2  1  0.57781200  0.44568000  0.54782100  1
  H  H3  1  0.42218800  0.55432000  0.54782100  1
  H  H4  1  0.10664200  0.15730800  0.02500900  1
  H  H5  1  0.89335800  0.84269200  0.02500900  1
  H  H6  1  0.60664200  0.34269200  0.52500900  1
  H  H7  1  0.39335800  0.65730800  0.52500900  1
  H  H8  1  0.94848300  0.19515200  0.98393000  1
  H  H9  1  0.05151700  0.80484800  0.98393000  1
  H  H10  1  0.44848300  0.30484800  0.48393000  1
  H  H11  1  0.55151700  0.69515200  0.48393000  1
  C  C0  1  0.96562200  0.13069400  0.01515700  1
  C  C1  1  0.03437800  0.86930600  0.01515700  1
  C  C2  1  0.46562200  0.36930600  0.51515700  1
  C  C3  1  0.53437800  0.63069400  0.51515700  1
  I  I0  1  0.52285700  0.12573200  0.12486800  1
  I  I1  1  0.47714300  0.87426800  0.12486800  1
  I  I2  1  0.02285700  0.37426800  0.62486800  1
  I  I3  1  0.97714300  0.62573200  0.62486800  1
  I  I4  1  0.76102100  0.23182900  0.58788900  1
  I  I5  1  0.23897900  0.76817100  0.58788900  1
  I  I6  1  0.26102100  0.26817100  0.08788900  1
  I  I7  1  0.73897900  0.73182900  0.08788900  1
  I  I8  1  0.71276600  0.98195400  0.61509400  1
  I  I9  1  0.28723400  0.01804600  0.61509400  1
  I  I10  1  0.21276600  0.51804600  0.11509400  1
  I  I11  1  0.78723400  0.48195400  0.11509400  1
  N  N0  1  0.05666500  0.11308100  0.02833300  1
  N  N1  1  0.94333500  0.88691900  0.02833300  1
  N  N2  1  0.55666500  0.38691900  0.52833300  1
  N  N3  1  0.44333500  0.61308100  0.52833300  1
  O  O0  1  0.90150100  0.07835900  0.03331400  1
  O  O1  1  0.09849900  0.92164100  0.03331400  1
  O  O2  1  0.40150100  0.42164100  0.53331400  1
  O  O3  1  0.59849900  0.57835900  0.53331400  1
loop_
_geom_bond_atom_site_label_1
_geom_bond_atom_site_label_2
_geom_bond_distance
_geom_bond_site_symmetry_2
Cd0 O0 2.415997 1_555
Cd0 I4 2.913489 1_555
Cd0 I4 3.004891 1_554
Cd0 I8 3.027387 1_544
Cd0 I0 3.053180 1_555
Cd0 I8 3.104267 1_545
Cd1 O1 2.415997 1_555
Cd1 I5 2.913489 1_555
Cd1 I5 3.004891 1_554
Cd1 I9 3.027387 1_564
Cd1 I1 3.053180 1_555
Cd1 I9 3.104267 1_565
Cd2 O2 2.415997 1_555
Cd2 I6 2.913489 1_556
Cd2 I6 3.004891 1_555
Cd2 I10 3.027387 1_555
Cd2 I2 3.053180 1_555
Cd2 I10 3.104267 1_556
Cd3 O3 2.415997 1_555
Cd3 I7 2.913489 1_556
Cd3 I7 3.004891 1_555
Cd3 I11 3.027387 1_555
Cd3 I3 3.053180 1_555
Cd3 I11 3.104267 1_556
Cd4 I1 3.018060 1_546
Cd4 I0 3.018060 1_556
Cd4 I1 3.019589 1_545
Cd4 I0 3.019589 1_555
Cd4 I8 3.035975 1_545
Cd4 I9 3.035975 1_555
Cd5 I3 3.018060 1_455
Cd5 I2 3.018060 1_555
Cd5 I3 3.019589 1_454
Cd5 I2 3.019589 1_554
Cd5 I10 3.035975 1_555
Cd5 I11 3.035975 1_455
H0 N0 1.024085 1_555
H1 N1 1.024085 1_555
H2 N2 1.024085 1_555
H3 N3 1.024085 1_555
H4 N0 1.021147 1_555
H5 N1 1.021147 1_555
H6 N2 1.021147 1_555
H7 N3 1.021147 1_555
C0 H8 1.105597 1_554
C0 O0 1.260850 1_555
C0 N0 1.326501 1_655
C1 H9 1.105597 1_554
C1 O1 1.260850 1_555
C1 N1 1.326501 1_455
C2 H10 1.105597 1_555
C2 O2 1.260850 1_555
C2 N2 1.326501 1_555
C3 H11 1.105597 1_555
C3 O3 1.260850 1_555
C3 N3 1.326501 1_555
