# generated using pymatgen
data_RbEr(WO4)2
_symmetry_space_group_name_H-M   'P 1'
_cell_length_a   7.58216250
_cell_length_b   7.58216250
_cell_length_c   7.50238358
_cell_angle_alpha   62.46182162
_cell_angle_beta   62.46182162
_cell_angle_gamma   88.35335447
_symmetry_Int_Tables_number   1
_chemical_formula_structural   RbEr(WO4)2
_chemical_formula_sum   'Rb2 Er2 W4 O16'
_cell_volume   329.58756154
_cell_formula_units_Z   2
loop_
 _symmetry_equiv_pos_site_id
 _symmetry_equiv_pos_as_xyz
  1  'x, y, z'
loop_
 _atom_site_type_symbol
 _atom_site_label
 _atom_site_symmetry_multiplicity
 _atom_site_fract_x
 _atom_site_fract_y
 _atom_site_fract_z
 _atom_site_occupancy
  Rb  Rb0  1  0.20017500  0.79982500  0.75000000  1
  Rb  Rb1  1  0.79982500  0.20017500  0.25000000  1
  Er  Er0  1  0.77615600  0.22384400  0.75000000  1
  Er  Er1  1  0.22384400  0.77615600  0.25000000  1
  W  W0  1  0.69983300  0.69035300  0.77968300  1
  W  W1  1  0.30016700  0.30964700  0.22031700  1
  W  W2  1  0.30964700  0.30016700  0.72031700  1
  W  W3  1  0.69035300  0.69983300  0.27968300  1
  O  O0  1  0.61970200  0.75657500  0.55870500  1
  O  O1  1  0.38029800  0.24342500  0.44129500  1
  O  O2  1  0.24342500  0.38029800  0.94129500  1
  O  O3  1  0.75657500  0.61970200  0.05870500  1
  O  O4  1  0.37254600  0.05910500  0.87898800  1
  O  O5  1  0.62745400  0.94089500  0.12101200  1
  O  O6  1  0.94089500  0.62745400  0.62101200  1
  O  O7  1  0.05910500  0.37254600  0.37898800  1
  O  O8  1  0.59132000  0.37010700  0.96447400  1
  O  O9  1  0.40868000  0.62989300  0.03552600  1
  O  O10  1  0.62989300  0.40868000  0.53552600  1
  O  O11  1  0.37010700  0.59132000  0.46447400  1
  O  O12  1  0.78375300  0.95663600  0.69312700  1
  O  O13  1  0.21624700  0.04336400  0.30687300  1
  O  O14  1  0.04336400  0.21624700  0.80687300  1
  O  O15  1  0.95663600  0.78375300  0.19312700  1
loop_
_geom_bond_atom_site_label_1
_geom_bond_atom_site_label_2
_geom_bond_distance
_geom_bond_site_symmetry_2
Er0 O14 2.249451 1_655
Er0 O12 2.249451 1_545
Er0 O8 2.293155 1_555
Er0 O10 2.293155 1_555
Er0 O7 2.310158 1_655
Er0 O5 2.310158 1_546
Er1 O13 2.249451 1_565
Er1 O15 2.249451 1_455
Er1 O11 2.293155 1_555
Er1 O9 2.293155 1_555
Er1 O4 2.310158 1_564
Er1 O6 2.310158 1_455
O0 W0 1.874537 1_555
O0 W3 2.153301 1_555
O0 Rb0 2.905071 1_555
O0 Rb1 2.945852 1_565
O1 W1 1.874537 1_555
O1 W2 2.153301 1_555
O1 Rb1 2.905071 1_555
O1 Rb0 2.945852 1_545
O2 W2 1.874537 1_555
O2 W1 2.153301 1_556
O2 Rb0 2.905071 1_555
O2 Rb1 2.945852 1_456
O3 W3 1.874537 1_555
O3 W0 2.153301 1_554
O3 Rb1 2.905071 1_555
O3 Rb0 2.945852 1_654
O4 W2 1.856937 1_555
O4 Rb0 3.096071 1_545
O5 W3 1.856937 1_555
O5 Rb1 3.096071 1_565
O6 W0 1.856937 1_555
O6 Rb0 3.096071 1_655
O7 W1 1.856937 1_555
O7 Rb1 3.096071 1_455
O8 W1 2.023398 1_556
O8 W0 2.107656 1_555
O8 Rb1 3.034858 1_556
O9 W0 2.023398 1_554
O9 W1 2.107656 1_555
O9 Rb0 3.034858 1_554
O10 W3 2.023398 1_555
O10 W2 2.107656 1_555
O10 Rb1 3.034858 1_555
O11 W2 2.023398 1_555
O11 W3 2.107656 1_555
O11 Rb0 3.034858 1_555
O12 W0 1.839116 1_555
O12 Rb1 2.904960 1_565
O13 W1 1.839116 1_555
O13 Rb0 2.904960 1_545
O14 W2 1.839116 1_555
O14 Rb1 2.904960 1_456
O15 W3 1.839116 1_555
O15 Rb0 2.904960 1_654
