# generated using pymatgen
data_Sm2Fe3Ru
_symmetry_space_group_name_H-M   'P 1'
_cell_length_a   5.23761630
_cell_length_b   5.23761630
_cell_length_c   5.33269676
_cell_angle_alpha   90.00000000
_cell_angle_beta   60.58806147
_cell_angle_gamma   120.00000000
_symmetry_Int_Tables_number   1
_chemical_formula_structural   Sm2Fe3Ru
_chemical_formula_sum   'Sm2 Fe3 Ru1'
_cell_volume   104.35249642
_cell_formula_units_Z   1
loop_
 _symmetry_equiv_pos_site_id
 _symmetry_equiv_pos_as_xyz
  1  'x, y, z'
loop_
 _atom_site_type_symbol
 _atom_site_label
 _atom_site_symmetry_multiplicity
 _atom_site_fract_x
 _atom_site_fract_y
 _atom_site_fract_z
 _atom_site_occupancy
  Sm  Sm0  1  0.50000800  0.75000400  0.74998800  1
  Sm  Sm1  1  0.99999200  0.99999600  0.00001200  1
  Fe  Fe0  1  0.25000000  0.37500000  0.37500000  1
  Fe  Fe1  1  0.25000000  0.87500000  0.37500000  1
  Fe  Fe2  1  0.75000000  0.37500000  0.37500000  1
  Ru  Ru0  1  0.75000000  0.37500000  0.87500000  1
loop_
_geom_bond_atom_site_label_1
_geom_bond_atom_site_label_2
_geom_bond_distance
_geom_bond_site_symmetry_2
Fe0 Fe1 2.618808 1_545
Fe0 Fe2 2.618808 1_555
Fe0 Fe1 2.618808 1_555
Fe0 Fe2 2.618808 1_455
Fe0 Ru0 2.666348 1_554
Fe0 Ru0 2.666348 1_455
Fe0 Sm0 3.093723 1_445
Fe0 Sm1 3.093723 1_555
Fe0 Sm0 3.093723 1_555
Fe0 Sm1 3.093723 1_445
Fe0 Sm1 3.134141 1_446
Fe0 Sm0 3.134141 1_554
Fe1 Fe2 2.618808 1_565
Fe1 Fe2 2.618808 1_455
Fe1 Ru0 2.666348 1_564
Fe1 Ru0 2.666348 1_455
Fe1 Sm0 3.093723 1_455
Fe1 Sm1 3.093723 1_555
Fe1 Sm0 3.093723 1_555
Fe1 Sm1 3.093723 1_455
Fe1 Sm1 3.134141 1_456
Fe1 Sm0 3.134141 1_554
Fe2 Ru0 2.666348 1_555
Fe2 Ru0 2.666348 1_554
Fe2 Sm0 3.093723 1_545
Fe2 Sm1 3.093723 1_555
Fe2 Sm1 3.093723 1_545
Fe2 Sm0 3.093723 1_555
Fe2 Sm1 3.134141 1_446
Fe2 Sm0 3.134141 1_654
Ru0 Sm1 3.073390 1_446
Ru0 Sm0 3.073390 1_655
Ru0 Sm1 3.073390 1_556
Ru0 Sm1 3.073390 1_546
Ru0 Sm0 3.073390 1_555
Ru0 Sm0 3.073390 1_545
