# generated using pymatgen
data_CaV4O10
_symmetry_space_group_name_H-M   'P 1'
_cell_length_a   3.61774900
_cell_length_b   5.17477900
_cell_length_c   11.47621600
_cell_angle_alpha   90.00000000
_cell_angle_beta   90.00000000
_cell_angle_gamma   90.00000000
_symmetry_Int_Tables_number   1
_chemical_formula_structural   CaV4O10
_chemical_formula_sum   'Ca1 V4 O10'
_cell_volume   214.84683136
_cell_formula_units_Z   1
loop_
 _symmetry_equiv_pos_site_id
 _symmetry_equiv_pos_as_xyz
  1  'x, y, z'
loop_
 _atom_site_type_symbol
 _atom_site_label
 _atom_site_symmetry_multiplicity
 _atom_site_fract_x
 _atom_site_fract_y
 _atom_site_fract_z
 _atom_site_occupancy
  Ca  Ca0  1  0.00000000  0.85217100  0.50000000  1
  V  V0  1  0.00000000  0.59270300  0.85093400  1
  V  V1  1  0.50000000  0.39300500  0.65133700  1
  V  V2  1  0.50000000  0.39300500  0.34866300  1
  V  V3  1  0.00000000  0.59270300  0.14906600  1
  O  O0  1  0.50000000  0.56343200  0.50000000  1
  O  O1  1  0.00000000  0.47773800  0.00000000  1
  O  O2  1  0.50000000  0.48766900  0.82070200  1
  O  O3  1  0.00000000  0.52910200  0.67597700  1
  O  O4  1  0.50000000  0.48766900  0.17929800  1
  O  O5  1  0.00000000  0.52910200  0.32402300  1
  O  O6  1  0.00000000  0.90217500  0.13989800  1
  O  O7  1  0.50000000  0.07433400  0.37898800  1
  O  O8  1  0.50000000  0.07433400  0.62101200  1
  O  O9  1  0.00000000  0.90217500  0.86010200  1
loop_
_geom_bond_atom_site_label_1
_geom_bond_atom_site_label_2
_geom_bond_distance
_geom_bond_site_symmetry_2
Ca0 O0 2.346176 1_455
Ca0 O0 2.346176 1_555
Ca0 O8 2.553892 1_465
Ca0 O7 2.553892 1_565
Ca0 O8 2.553892 1_565
Ca0 O7 2.553892 1_465
Ca0 O5 2.621742 1_555
Ca0 O3 2.621742 1_555
O0 V2 1.947865 1_555
O0 V1 1.947865 1_555
O1 V3 1.811207 1_555
O1 V0 1.811207 1_554
O2 V0 1.920371 1_555
O2 V0 1.920371 1_655
O2 V1 2.004450 1_555
O3 V1 1.961629 1_455
O3 V1 1.961629 1_555
O3 V0 2.034640 1_555
O4 V3 1.920371 1_555
O4 V3 1.920371 1_655
O4 V2 2.004450 1_555
O5 V2 1.961629 1_555
O5 V2 1.961629 1_455
O5 V3 2.034640 1_555
O6 V3 1.604902 1_555
O7 V2 1.685375 1_555
O8 V1 1.685375 1_555
O9 V0 1.604902 1_555
