# generated using pymatgen
data_ZnFeO2
_symmetry_space_group_name_H-M   'P 1'
_cell_length_a   3.02330600
_cell_length_b   7.81627772
_cell_length_c   8.11367621
_cell_angle_alpha   100.20487934
_cell_angle_beta   100.47180483
_cell_angle_gamma   97.87291677
_symmetry_Int_Tables_number   1
_chemical_formula_structural   ZnFeO2
_chemical_formula_sum   'Zn4 Fe4 O8'
_cell_volume   182.70110358
_cell_formula_units_Z   4
loop_
 _symmetry_equiv_pos_site_id
 _symmetry_equiv_pos_as_xyz
  1  'x, y, z'
loop_
 _atom_site_type_symbol
 _atom_site_label
 _atom_site_symmetry_multiplicity
 _atom_site_fract_x
 _atom_site_fract_y
 _atom_site_fract_z
 _atom_site_occupancy
  Zn  Zn0  1  0.58431400  0.86133900  0.23124800  1
  Zn  Zn1  1  0.45537700  0.16416800  0.80063700  1
  Zn  Zn2  1  0.95358600  0.14282300  0.10744900  1
  Zn  Zn3  1  0.85750100  0.86996700  0.90037800  1
  Fe  Fe0  1  0.18881300  0.79999800  0.56387500  1
  Fe  Fe1  1  0.38202300  0.50042900  0.19237600  1
  Fe  Fe2  1  0.70088700  0.51201400  0.83866800  1
  Fe  Fe3  1  0.84859600  0.22339600  0.47145700  1
  O  O0  1  0.46148500  0.31940500  0.62961100  1
  O  O1  1  0.23677200  0.70035200  0.77159500  1
  O  O2  1  0.86067100  0.35835500  0.26152800  1
  O  O3  1  0.57495700  0.69677100  0.41123700  1
  O  O4  1  0.82114400  0.97819800  0.66849600  1
  O  O5  1  0.88502600  0.65696800  0.09962400  1
  O  O6  1  0.20623200  0.03469400  0.32447200  1
  O  O7  1  0.17500500  0.34178700  0.95296800  1
loop_
_geom_bond_atom_site_label_1
_geom_bond_atom_site_label_2
_geom_bond_distance
_geom_bond_site_symmetry_2
Fe0 O1 1.968595 1_555
Fe0 O3 1.994294 1_555
Fe0 O3 2.007306 1_455
Fe0 O4 2.060200 1_455
Fe0 O4 2.139398 1_555
Fe1 O2 2.001991 1_555
Fe1 O2 2.023649 1_455
Fe1 O7 2.048049 1_554
Fe1 O3 2.064313 1_555
Fe1 O5 2.146763 1_555
Fe1 O5 2.177164 1_455
Fe2 O0 2.004466 1_555
Fe2 O5 2.150659 1_556
Fe2 O1 2.237025 1_555
Fe2 O1 2.244795 1_655
Fe2 O7 2.271903 1_655
Fe2 O7 2.356239 1_555
Fe3 O0 2.006194 1_555
Fe3 O0 2.014136 1_655
Fe3 O2 2.159637 1_555
Fe3 O6 2.247035 1_655
Fe3 O6 2.262618 1_555
Fe3 O4 2.706698 1_545
O0 Zn1 1.999495 1_555
O1 Zn3 2.118026 1_555
O1 Zn3 2.127298 1_455
O2 Zn2 1.997722 1_555
O3 Zn0 2.111574 1_555
O4 Zn3 2.186716 1_555
O4 Zn1 2.191893 1_565
O4 Zn1 2.208184 1_665
O5 Zn0 2.159890 1_555
O5 Zn0 2.410715 1_655
O5 Zn3 2.516916 1_554
O6 Zn0 2.022408 1_545
O6 Zn0 2.089347 1_445
O6 Zn2 2.147934 1_455
O7 Zn1 2.066097 1_555
O7 Zn2 2.268956 1_456
O7 Zn1 2.403239 1_455
