# generated using pymatgen
data_NiS2(NO7)2
_symmetry_space_group_name_H-M   'P 1'
_cell_length_a   13.69270500
_cell_length_b   6.78550000
_cell_length_c   9.27063641
_cell_angle_alpha   64.90170355
_cell_angle_beta   90.00000000
_cell_angle_gamma   90.00000000
_symmetry_Int_Tables_number   1
_chemical_formula_structural   NiS2(NO7)2
_chemical_formula_sum   'Ni2 S4 N4 O28'
_cell_volume   780.02433903
_cell_formula_units_Z   2
loop_
 _symmetry_equiv_pos_site_id
 _symmetry_equiv_pos_as_xyz
  1  'x, y, z'
loop_
 _atom_site_type_symbol
 _atom_site_label
 _atom_site_symmetry_multiplicity
 _atom_site_fract_x
 _atom_site_fract_y
 _atom_site_fract_z
 _atom_site_occupancy
  Ni  Ni0  1  0.50000000  0.00000000  0.50000000  1
  Ni  Ni1  1  0.00000000  0.00000000  0.00000000  1
  S  S0  1  0.87028800  0.69083600  0.55269000  1
  S  S1  1  0.37028800  0.30916400  0.94731000  1
  S  S2  1  0.12971200  0.30916400  0.44731000  1
  S  S3  1  0.62971200  0.69083600  0.05269000  1
  N  N0  1  0.18174600  0.77013900  0.58062300  1
  N  N1  1  0.68174600  0.22986100  0.91937700  1
  N  N2  1  0.81825400  0.22986100  0.41937700  1
  N  N3  1  0.31825400  0.77013900  0.08062300  1
  O  O0  1  0.76793400  0.64014400  0.57617800  1
  O  O1  1  0.26793400  0.35985600  0.92382200  1
  O  O2  1  0.23206600  0.35985600  0.42382200  1
  O  O3  1  0.73206600  0.64014400  0.07617800  1
  O  O4  1  0.84771000  0.09451700  0.53719000  1
  O  O5  1  0.34771000  0.90548300  0.96281000  1
  O  O6  1  0.15229000  0.90548300  0.46281000  1
  O  O7  1  0.65229000  0.09451700  0.03719000  1
  O  O8  1  0.93570400  0.62071800  0.68670600  1
  O  O9  1  0.43570400  0.37928200  0.81329400  1
  O  O10  1  0.06429600  0.37928200  0.31329400  1
  O  O11  1  0.56429600  0.62071800  0.18670600  1
  O  O12  1  0.91015400  0.78553900  0.39363300  1
  O  O13  1  0.41015400  0.21446100  0.10636700  1
  O  O14  1  0.08984600  0.21446100  0.60636700  1
  O  O15  1  0.58984600  0.78553900  0.89363300  1
  O  O16  1  0.39448800  0.74400400  0.46564000  1
  O  O17  1  0.89448800  0.25599600  0.03436000  1
  O  O18  1  0.60551200  0.25599600  0.53436000  1
  O  O19  1  0.10551200  0.74400400  0.96564000  1
  O  O20  1  0.36970900  0.88952700  0.52975400  1
  O  O21  1  0.86970900  0.11047300  0.97024600  1
  O  O22  1  0.63029100  0.11047300  0.47024600  1
  O  O23  1  0.13029100  0.88952700  0.02975400  1
  O  O24  1  0.49179600  0.77486900  0.42869600  1
  O  O25  1  0.99179600  0.22513100  0.07130400  1
  O  O26  1  0.50820400  0.22513100  0.57130400  1
  O  O27  1  0.00820400  0.77486900  0.92869600  1
loop_
_geom_bond_atom_site_label_1
_geom_bond_atom_site_label_2
_geom_bond_distance
_geom_bond_site_symmetry_2
Ni0 O24 1.907851 1_545
Ni0 O26 1.907851 1_555
Ni0 O20 1.909288 1_545
Ni0 O22 1.909288 1_555
Ni1 O25 1.907851 1_455
Ni1 O27 1.907851 1_544
Ni1 O23 1.909288 1_545
Ni1 O21 1.909288 1_454
N0 O6 1.161061 1_555
N1 O7 1.161061 1_556
N2 O4 1.161061 1_555
N3 O5 1.161061 1_554
O0 S0 1.437498 1_555
O1 S1 1.437498 1_555
O2 S2 1.437498 1_555
O3 S3 1.437498 1_555
O8 S0 1.439029 1_555
O9 S1 1.439029 1_555
O10 S2 1.439029 1_555
O11 S3 1.439029 1_555
O12 S0 1.442702 1_555
O13 S1 1.442702 1_554
O14 S2 1.442702 1_555
O15 S3 1.442702 1_556
O16 O24 1.369536 1_555
O16 O20 1.393327 1_555
O17 O25 1.369536 1_555
O17 O21 1.393327 1_554
O18 O26 1.369536 1_555
O18 O22 1.393327 1_555
O19 O27 1.369536 1_555
O19 O23 1.393327 1_556
