# generated using pymatgen
data_Sr4LaMn5O15
_symmetry_space_group_name_H-M   'P 1'
_cell_length_a   5.45772732
_cell_length_b   9.48193085
_cell_length_c   12.39863357
_cell_angle_alpha   81.85865057
_cell_angle_beta   102.71202238
_cell_angle_gamma   73.27210040
_symmetry_Int_Tables_number   1
_chemical_formula_structural   Sr4LaMn5O15
_chemical_formula_sum   'Sr8 La2 Mn10 O30'
_cell_volume   584.81007081
_cell_formula_units_Z   2
loop_
 _symmetry_equiv_pos_site_id
 _symmetry_equiv_pos_as_xyz
  1  'x, y, z'
loop_
 _atom_site_type_symbol
 _atom_site_label
 _atom_site_symmetry_multiplicity
 _atom_site_fract_x
 _atom_site_fract_y
 _atom_site_fract_z
 _atom_site_occupancy
  Sr  Sr0  1  0.29959700  0.30166100  0.90078100  1
  Sr  Sr1  1  0.79916500  0.80199100  0.40029500  1
  Sr  Sr2  1  0.70012100  0.69910600  0.09937200  1
  Sr  Sr3  1  0.20068100  0.19827900  0.59960600  1
  Sr  Sr4  1  0.60131100  0.59883400  0.80149300  1
  Sr  Sr5  1  0.10089200  0.09901700  0.30083600  1
  Sr  Sr6  1  0.39896200  0.40073100  0.19859300  1
  Sr  Sr7  1  0.89972200  0.90010000  0.69947100  1
  La  La0  1  0.99962200  0.00076000  0.00012900  1
  La  La1  1  0.50016500  0.49953300  0.49994700  1
  Mn  Mn0  1  0.74974100  0.25092300  0.75036900  1
  Mn  Mn1  1  0.25076800  0.74889500  0.25044900  1
  Mn  Mn2  1  0.65015600  0.14939500  0.44970400  1
  Mn  Mn3  1  0.34979900  0.85070300  0.55027500  1
  Mn  Mn4  1  0.44965400  0.94897300  0.84822400  1
  Mn  Mn5  1  0.14998100  0.65009600  0.95007200  1
  Mn  Mn6  1  0.84990100  0.35214200  0.05186900  1
  Mn  Mn7  1  0.04973200  0.55069200  0.65016200  1
  Mn  Mn8  1  0.55057500  0.04968100  0.15102400  1
  Mn  Mn9  1  0.94993700  0.44949300  0.34935100  1
  O  O0  1  0.50194400  0.00151400  0.00543200  1
  O  O1  1  0.00148100  0.50060900  0.50359200  1
  O  O2  1  0.49896100  0.49972300  0.99905600  1
  O  O3  1  0.99791400  0.00123200  0.49931900  1
  O  O4  1  0.00052100  0.49969600  0.99906400  1
  O  O5  1  0.50026900  0.00121900  0.49933300  1
  O  O6  1  0.19645600  0.70431400  0.09702200  1
  O  O7  1  0.69632200  0.20492700  0.59760100  1
  O  O8  1  0.80114000  0.29360900  0.89612800  1
  O  O9  1  0.30079700  0.79371100  0.39545900  1
  O  O10  1  0.09888400  0.60426200  0.80189800  1
  O  O11  1  0.59771800  0.10364500  0.29914400  1
  O  O12  1  0.90083700  0.39601800  0.19767100  1
  O  O13  1  0.40354200  0.89830900  0.70530900  1
  O  O14  1  0.80396100  0.80501900  0.90476300  1
  O  O15  1  0.30448800  0.30430700  0.40362700  1
  O  O16  1  0.19614300  0.19450100  0.09568300  1
  O  O17  1  0.69791300  0.69495500  0.59688500  1
  O  O18  1  0.70484900  0.19450100  0.09565400  1
  O  O19  1  0.20391500  0.69497000  0.59689800  1
  O  O20  1  0.29596800  0.80503700  0.90477100  1
  O  O21  1  0.79486800  0.30428100  0.40360200  1
  O  O22  1  0.59769500  0.59852100  0.30295100  1
  O  O23  1  0.09850900  0.09840000  0.80459500  1
  O  O24  1  0.40201400  0.40065700  0.69601600  1
  O  O25  1  0.90141500  0.90172900  0.19640600  1
  O  O26  1  0.89314300  0.40072900  0.69600700  1
  O  O27  1  0.39307700  0.90178800  0.19640100  1
  O  O28  1  0.10688900  0.59847900  0.30301500  1
  O  O29  1  0.60788200  0.09833500  0.80468300  1
loop_
_geom_bond_atom_site_label_1
_geom_bond_atom_site_label_2
_geom_bond_distance
_geom_bond_site_symmetry_2
La0 O18 2.668183 1_555
La0 O16 2.668355 1_655
La0 O8 2.680715 1_554
La0 O14 2.681410 1_544
La0 O20 2.681984 1_644
La0 O6 2.689917 1_645
La0 O29 2.691735 1_554
La0 O23 2.693262 1_654
La0 O27 2.703172 1_645
La0 O25 2.703297 1_545
La0 O0 2.729399 1_555
La0 O0 2.729923 1_655
La1 O7 2.676830 1_555
La1 O15 2.682575 1_555
La1 O21 2.683146 1_555
La1 O9 2.692927 1_555
La1 O17 2.693324 1_555
La1 O19 2.693455 1_555
La1 O26 2.700117 1_555
La1 O24 2.700431 1_555
La1 O28 2.708232 1_555
La1 O22 2.709334 1_555
La1 O1 2.729098 1_555
La1 O1 2.729446 1_655
Mn0 O8 1.886252 1_555
Mn0 O26 1.919758 1_555
Mn0 O24 1.920056 1_555
Mn0 O23 1.934811 1_655
Mn0 O29 1.935089 1_555
Mn0 O7 1.981669 1_555
Mn1 O9 1.885418 1_555
Mn1 O28 1.918908 1_555
Mn1 O22 1.918960 1_555
Mn1 O27 1.938058 1_555
Mn1 O25 1.938191 1_455
Mn1 O6 1.984178 1_555
Mn2 O5 1.913147 1_555
Mn2 O3 1.913329 1_555
Mn2 O15 1.932835 1_555
Mn2 O21 1.932868 1_555
Mn2 O11 1.954610 1_555
Mn2 O7 1.962085 1_555
Mn3 O3 1.938377 1_465
Mn3 O5 1.938516 1_565
Mn3 O17 1.945368 1_555
Mn3 O19 1.945807 1_555
Mn3 O13 2.014577 1_555
Mn3 O9 2.049175 1_555
Mn4 O13 1.883708 1_555
Mn4 O20 1.924715 1_555
Mn4 O14 1.925299 1_555
Mn4 O29 1.932765 1_565
Mn4 O23 1.932996 1_565
Mn4 O0 2.059355 1_566
Mn5 O4 1.926248 1_555
Mn5 O2 1.926612 1_555
Mn5 O10 1.926709 1_555
Mn5 O14 1.934492 1_455
Mn5 O20 1.935390 1_555
Mn5 O6 1.945560 1_556
Mn6 O12 1.891223 1_555
Mn6 O2 1.923823 1_554
Mn6 O4 1.923893 1_654
Mn6 O16 1.947444 1_655
Mn6 O18 1.948377 1_555
Mn6 O8 2.066380 1_554
Mn7 O19 1.914973 1_555
Mn7 O17 1.915273 1_455
Mn7 O1 1.924350 1_555
Mn7 O24 1.938817 1_555
Mn7 O26 1.939019 1_455
Mn7 O10 1.999080 1_555
Mn8 O0 1.905256 1_555
Mn8 O27 1.924880 1_545
Mn8 O25 1.925359 1_545
Mn8 O16 1.928263 1_555
Mn8 O18 1.928419 1_555
Mn8 O11 1.958234 1_555
Mn9 O15 1.929625 1_655
Mn9 O21 1.929654 1_555
Mn9 O22 1.934616 1_555
Mn9 O28 1.934628 1_655
Mn9 O12 1.998039 1_555
Mn9 O1 2.018783 1_655
O0 Sr2 2.731816 1_545
O0 Sr0 2.741706 1_554
O1 Sr3 2.736183 1_555
O1 Sr1 2.747810 1_455
O2 Sr0 2.726985 1_555
O2 Sr4 2.729044 1_555
O2 Sr6 2.744253 1_556
O2 Sr2 2.754322 1_556
O3 Sr5 2.737534 1_655
O3 Sr1 2.739258 1_545
O3 Sr3 2.739395 1_655
O3 Sr7 2.751772 1_545
O4 Sr0 2.726590 1_555
O4 Sr4 2.729694 1_455
O4 Sr6 2.744030 1_556
O4 Sr2 2.754761 1_456
O5 Sr5 2.738085 1_555
O5 Sr1 2.739004 1_545
O5 Sr3 2.739403 1_555
O5 Sr7 2.751669 1_545
O6 Sr2 2.728691 1_555
O6 Sr2 2.729936 1_455
O6 Sr6 2.760946 1_555
O7 Sr3 2.729345 1_555
O7 Sr3 2.729698 1_655
O7 Sr7 2.771940 1_545
O8 Sr0 2.729895 1_555
O8 Sr0 2.731612 1_655
O8 Sr4 2.756839 1_555
O9 Sr1 2.730383 1_455
O9 Sr1 2.731375 1_555
O9 Sr5 2.757484 1_565
O10 Sr7 2.700233 1_455
O10 Sr4 2.728870 1_555
O10 Sr4 2.729795 1_455
O10 Sr0 2.745710 1_555
O11 Sr6 2.705045 1_555
O11 Sr5 2.729119 1_555
O11 Sr5 2.729271 1_655
O11 Sr1 2.744020 1_545
O12 Sr5 2.711826 1_655
O12 Sr6 2.729147 1_555
O12 Sr6 2.729374 1_655
O12 Sr2 2.748201 1_555
O13 Sr4 2.713035 1_555
O13 Sr7 2.729701 1_555
O13 Sr7 2.729766 1_455
O13 Sr3 2.743401 1_565
O14 Sr2 2.719351 1_556
O14 Sr7 2.787733 1_555
O14 Sr4 2.831134 1_555
O15 Sr3 2.734563 1_555
O15 Sr6 2.784637 1_555
O15 Sr5 2.823563 1_555
O16 Sr0 2.725085 1_554
O16 Sr5 2.785779 1_555
O16 Sr6 2.829888 1_555
O17 Sr1 2.737070 1_555
O17 Sr4 2.784723 1_555
O17 Sr7 2.816401 1_555
O18 Sr0 2.724189 1_554
O18 Sr5 2.786515 1_655
O18 Sr6 2.829345 1_555
O19 Sr1 2.736897 1_455
O19 Sr4 2.784858 1_555
O19 Sr7 2.815628 1_455
O20 Sr2 2.718781 1_556
O20 Sr7 2.788181 1_455
O20 Sr4 2.830595 1_555
O21 Sr3 2.734837 1_655
O21 Sr6 2.784425 1_555
O21 Sr5 2.822905 1_655
O22 Sr6 2.758343 1_555
O22 Sr1 2.772097 1_555
O22 Sr2 2.799869 1_555
O23 Sr0 2.762935 1_555
O23 Sr7 2.767199 1_445
O23 Sr3 2.813093 1_555
O24 Sr3 2.757535 1_555
O24 Sr4 2.769651 1_555
O24 Sr0 2.809039 1_555
O25 Sr5 2.756655 1_665
O25 Sr2 2.762899 1_555
O25 Sr1 2.800686 1_555
O26 Sr3 2.758398 1_655
O26 Sr4 2.768787 1_555
O26 Sr0 2.809925 1_655
O27 Sr5 2.755866 1_565
O27 Sr2 2.763513 1_555
O27 Sr1 2.801367 1_555
O28 Sr6 2.758308 1_555
O28 Sr1 2.772039 1_455
O28 Sr2 2.800963 1_455
O29 Sr0 2.762793 1_555
O29 Sr7 2.767163 1_545
O29 Sr3 2.814339 1_555
