# generated using pymatgen
data_Nd6InFe13
_symmetry_space_group_name_H-M   'P 1'
_cell_length_a   8.09479000
_cell_length_b   8.09479000
_cell_length_c   13.12227260
_cell_angle_alpha   107.96506486
_cell_angle_beta   107.96506486
_cell_angle_gamma   90.00000000
_symmetry_Int_Tables_number   1
_chemical_formula_structural   Nd6InFe13
_chemical_formula_sum   'Nd12 In2 Fe26'
_cell_volume   773.73313426
_cell_formula_units_Z   2
loop_
 _symmetry_equiv_pos_site_id
 _symmetry_equiv_pos_as_xyz
  1  'x, y, z'
loop_
 _atom_site_type_symbol
 _atom_site_label
 _atom_site_symmetry_multiplicity
 _atom_site_fract_x
 _atom_site_fract_y
 _atom_site_fract_z
 _atom_site_occupancy
  Nd  Nd0  1  0.60432700  0.60432700  0.20865400  1
  Nd  Nd1  1  0.10432700  0.10432700  0.20865400  1
  Nd  Nd2  1  0.39567300  0.39567300  0.79134600  1
  Nd  Nd3  1  0.89567300  0.89567300  0.79134600  1
  Nd  Nd4  1  0.97891400  0.47891400  0.63097500  1
  Nd  Nd5  1  0.65206000  0.15206000  0.63097500  1
  Nd  Nd6  1  0.15206000  0.97891400  0.63097500  1
  Nd  Nd7  1  0.47891400  0.65206000  0.63097500  1
  Nd  Nd8  1  0.02108600  0.52108600  0.36902500  1
  Nd  Nd9  1  0.34794000  0.84794000  0.36902500  1
  Nd  Nd10  1  0.84794000  0.02108600  0.36902500  1
  Nd  Nd11  1  0.52108600  0.34794000  0.36902500  1
  In  In0  1  0.25000000  0.25000000  0.50000000  1
  In  In1  1  0.75000000  0.75000000  0.50000000  1
  Fe  Fe0  1  0.00000000  0.50000000  0.00000000  1
  Fe  Fe1  1  0.50000000  0.00000000  0.00000000  1
  Fe  Fe2  1  0.71003400  0.56650500  0.00000000  1
  Fe  Fe3  1  0.28996600  0.43349500  0.00000000  1
  Fe  Fe4  1  0.78996600  0.06650500  0.00000000  1
  Fe  Fe5  1  0.21003400  0.93349500  0.00000000  1
  Fe  Fe6  1  0.56650500  0.28996600  0.00000000  1
  Fe  Fe7  1  0.43349500  0.71003400  0.00000000  1
  Fe  Fe8  1  0.06650500  0.21003400  0.00000000  1
  Fe  Fe9  1  0.93349500  0.78996600  0.00000000  1
  Fe  Fe10  1  0.12067100  0.62067100  0.88318500  1
  Fe  Fe11  1  0.76251400  0.26251400  0.88318500  1
  Fe  Fe12  1  0.26251400  0.12067100  0.88318500  1
  Fe  Fe13  1  0.62067100  0.76251400  0.88318500  1
  Fe  Fe14  1  0.87932900  0.37932900  0.11681500  1
  Fe  Fe15  1  0.23748600  0.73748600  0.11681500  1
  Fe  Fe16  1  0.73748600  0.87932900  0.11681500  1
  Fe  Fe17  1  0.37932900  0.23748600  0.11681500  1
  Fe  Fe18  1  0.29371400  0.79371400  0.81303600  1
  Fe  Fe19  1  0.51932100  0.01932100  0.81303600  1
  Fe  Fe20  1  0.01932100  0.29371400  0.81303600  1
  Fe  Fe21  1  0.79371400  0.51932100  0.81303600  1
  Fe  Fe22  1  0.70628600  0.20628600  0.18696400  1
  Fe  Fe23  1  0.48067900  0.98067900  0.18696400  1
  Fe  Fe24  1  0.98067900  0.70628600  0.18696400  1
  Fe  Fe25  1  0.20628600  0.48067900  0.18696400  1
loop_
_geom_bond_atom_site_label_1
_geom_bond_atom_site_label_2
_geom_bond_distance
_geom_bond_site_symmetry_2
Nd0 Nd11 3.571960 1_555
Nd0 Nd9 3.571963 1_555
Nd0 Nd8 3.571966 1_655
Nd0 Nd10 3.571969 1_565
Nd1 Nd10 3.571960 1_455
Nd1 Nd9 3.571963 1_545
Nd1 Nd8 3.571966 1_555
Nd1 Nd11 3.571969 1_555
Nd2 Nd7 3.571960 1_555
Nd2 Nd5 3.571963 1_555
Nd2 Nd4 3.571966 1_455
Nd2 Nd6 3.571969 1_545
Nd3 Nd6 3.571960 1_655
Nd3 Nd5 3.571963 1_565
Nd3 Nd4 3.571966 1_555
Nd3 Nd7 3.571969 1_555
Nd4 Nd8 3.673740 1_655
Nd4 Nd5 3.741747 1_555
Nd5 Nd9 3.673728 1_545
Nd6 Nd7 3.741747 1_555
Nd6 Nd8 4.070351 1_555
Nd6 Nd9 4.070361 1_555
Nd7 Nd8 4.070351 1_555
Nd7 Nd9 4.070361 1_555
Nd8 Nd9 3.741747 1_555
Nd10 Nd6 3.673734 1_645
Nd10 Nd11 3.741747 1_555
Nd10 Nd4 4.070351 1_555
Nd10 Nd5 4.070361 1_555
Nd11 Nd7 3.673734 1_555
Nd11 Nd4 4.070351 1_555
Nd11 Nd5 4.070361 1_555
In0 Nd7 3.400699 1_555
In0 Nd10 3.400699 1_455
In0 Nd9 3.400702 1_545
In0 Nd5 3.400702 1_555
In0 Nd8 3.400705 1_555
In0 Nd4 3.400705 1_455
In0 Nd11 3.400708 1_555
In0 Nd6 3.400708 1_545
In0 Nd2 3.440243 1_555
In0 Nd1 3.440243 1_555
In1 Nd6 3.400699 1_655
In1 Nd11 3.400699 1_555
In1 Nd9 3.400702 1_555
In1 Nd5 3.400702 1_565
In1 Nd8 3.400705 1_655
In1 Nd4 3.400705 1_555
In1 Nd10 3.400708 1_565
In1 Nd7 3.400708 1_555
In1 Nd3 3.440243 1_555
In1 Nd0 3.440243 1_555
Fe0 Fe9 2.408158 1_455
Fe0 Fe8 2.408158 1_555
Fe0 Fe3 2.408158 1_555
Fe0 Fe2 2.408158 1_455
Fe0 Fe15 2.470899 1_555
Fe0 Fe14 2.470899 1_455
Fe0 Fe10 2.470899 1_554
Fe0 Fe11 2.470899 1_454
Fe0 Fe20 2.557630 1_554
Fe0 Fe24 2.557630 1_455
Fe0 Fe21 2.557630 1_454
Fe0 Fe25 2.557630 1_555
Fe1 Fe6 2.408158 1_555
Fe1 Fe4 2.408158 1_555
Fe1 Fe5 2.408158 1_545
Fe1 Fe7 2.408158 1_545
Fe1 Fe17 2.470899 1_555
Fe1 Fe16 2.470899 1_545
Fe1 Fe13 2.470899 1_544
Fe1 Fe12 2.470899 1_554
Fe1 Fe19 2.557627 1_554
Fe1 Fe23 2.557627 1_545
Fe1 Fe22 2.557633 1_555
Fe1 Fe18 2.557633 1_544
Fe2 Fe6 2.522075 1_555
Fe2 Fe7 2.522075 1_555
Fe2 Fe9 2.558128 1_555
Fe2 Fe21 2.659128 1_554
Fe2 Fe24 2.659133 1_555
Fe2 Nd0 3.041509 1_555
Fe2 Nd2 3.041509 1_554
Fe3 Fe6 2.522075 1_555
Fe3 Fe7 2.522075 1_555
Fe3 Fe8 2.558128 1_555
Fe3 Nd0 3.041509 1_555
Fe3 Nd2 3.041509 1_554
Fe4 Fe9 2.522075 1_545
Fe4 Fe8 2.522075 1_655
Fe4 Fe6 2.558128 1_555
Fe4 Nd1 3.041509 1_655
Fe4 Nd3 3.041509 1_544
Fe5 Fe9 2.522075 1_455
Fe5 Fe8 2.522075 1_565
Fe5 Fe7 2.558128 1_555
Fe5 Nd1 3.041509 1_565
Fe5 Nd3 3.041509 1_454
Fe6 Nd0 3.041509 1_555
Fe6 Nd2 3.041509 1_554
Fe7 Nd0 3.041509 1_555
Fe7 Nd2 3.041509 1_554
Fe8 Nd1 3.041509 1_555
Fe8 Nd3 3.041509 1_444
Fe9 Nd1 3.041509 1_665
Fe9 Nd3 3.041509 1_554
Fe10 Fe7 2.491337 1_556
Fe10 Fe5 2.491337 1_556
Fe10 Fe18 2.522367 1_555
Fe10 Fe20 2.560551 1_555
Fe10 Fe21 2.560551 1_455
Fe10 Fe9 2.580752 1_456
Fe10 Fe3 2.580752 1_556
Fe10 Fe15 2.758726 1_556
Fe10 Nd4 2.983506 1_455
Fe10 Nd3 3.166369 1_455
Fe10 Nd2 3.166369 1_555
Fe11 Fe4 2.491337 1_556
Fe11 Fe6 2.491337 1_556
Fe11 Fe19 2.522377 1_555
Fe11 Fe21 2.560542 1_555
Fe11 Fe20 2.560542 1_655
Fe11 Fe2 2.580752 1_556
Fe11 Fe8 2.580752 1_656
Fe11 Fe14 2.758726 1_556
Fe11 Nd5 2.983506 1_555
Fe11 Nd2 3.166369 1_555
Fe11 Nd3 3.166369 1_545
Fe12 Fe3 2.491337 1_556
Fe12 Fe8 2.491337 1_556
Fe12 Fe20 2.522372 1_555
Fe12 Fe19 2.560544 1_555
Fe12 Fe18 2.560550 1_545
Fe12 Fe5 2.580752 1_546
Fe12 Fe6 2.580752 1_556
Fe12 Fe17 2.758726 1_556
Fe12 Nd6 2.983506 1_545
Fe12 Nd2 3.166369 1_555
Fe12 Nd3 3.166369 1_445
Fe13 Fe9 2.491337 1_556
Fe13 Fe2 2.491337 1_556
Fe13 Fe21 2.522372 1_555
Fe13 Fe19 2.560544 1_565
Fe13 Fe18 2.560550 1_555
Fe13 Fe7 2.580752 1_556
Fe13 Fe4 2.580752 1_566
Fe13 Fe16 2.758726 1_556
Fe13 Nd7 2.983506 1_555
Fe13 Nd2 3.166369 1_555
Fe13 Nd3 3.166369 1_555
Fe14 Fe4 2.491337 1_555
Fe14 Fe6 2.491337 1_555
Fe14 Fe22 2.522367 1_555
Fe14 Fe25 2.560551 1_655
Fe14 Fe24 2.560551 1_555
Fe14 Fe2 2.580752 1_555
Fe14 Fe8 2.580752 1_655
Fe14 Nd8 2.983506 1_655
Fe14 Nd0 3.166369 1_555
Fe14 Nd1 3.166369 1_655
Fe15 Fe7 2.491337 1_555
Fe15 Fe5 2.491337 1_555
Fe15 Fe23 2.522377 1_555
Fe15 Fe24 2.560542 1_455
Fe15 Fe25 2.560542 1_555
Fe15 Fe9 2.580752 1_455
Fe15 Fe3 2.580752 1_555
Fe15 Nd9 2.983506 1_555
Fe15 Nd1 3.166369 1_565
Fe15 Nd0 3.166369 1_555
Fe16 Fe9 2.491337 1_555
Fe16 Fe2 2.491337 1_555
Fe16 Fe24 2.522372 1_555
Fe16 Fe23 2.560544 1_555
Fe16 Fe22 2.560550 1_565
Fe16 Fe4 2.580752 1_565
Fe16 Fe7 2.580752 1_555
Fe16 Nd10 2.983506 1_565
Fe16 Nd1 3.166369 1_665
Fe16 Nd0 3.166369 1_555
Fe17 Fe3 2.491337 1_555
Fe17 Fe8 2.491337 1_555
Fe17 Fe25 2.522372 1_555
Fe17 Fe23 2.560544 1_545
Fe17 Fe22 2.560550 1_555
Fe17 Fe6 2.580752 1_555
Fe17 Fe5 2.580752 1_545
Fe17 Nd11 2.983506 1_555
Fe17 Nd0 3.166369 1_555
Fe17 Nd1 3.166369 1_555
Fe18 Fe19 2.582695 1_565
Fe18 Fe7 2.659129 1_556
Fe18 Fe5 2.659129 1_556
Fe18 Nd7 3.128796 1_555
Fe18 Nd6 3.128796 1_555
Fe18 Nd2 3.274606 1_555
Fe18 Nd3 3.274606 1_455
Fe18 Nd4 3.344207 1_455
Fe19 Fe4 2.659132 1_556
Fe19 Fe6 2.659132 1_556
Fe19 Nd7 3.128796 1_545
Fe19 Nd6 3.128796 1_545
Fe19 Nd3 3.274611 1_545
Fe19 Nd2 3.274611 1_555
Fe19 Nd5 3.344207 1_555
Fe20 Fe21 2.582695 1_455
Fe20 Fe8 2.659128 1_556
Fe20 Fe3 2.659133 1_556
Fe20 Nd5 3.128796 1_455
Fe20 Nd4 3.128796 1_455
Fe20 Nd3 3.274604 1_445
Fe20 Nd2 3.274614 1_555
Fe20 Nd6 3.344207 1_545
Fe21 Fe9 2.659133 1_556
Fe21 Nd5 3.128796 1_555
Fe21 Nd4 3.128796 1_555
Fe21 Nd2 3.274604 1_555
Fe21 Nd3 3.274614 1_555
Fe21 Nd7 3.344207 1_555
Fe22 Fe23 2.582695 1_545
Fe22 Fe4 2.659129 1_555
Fe22 Fe6 2.659129 1_555
Fe22 Nd10 3.128796 1_555
Fe22 Nd11 3.128796 1_555
Fe22 Nd1 3.274606 1_655
Fe22 Nd0 3.274606 1_555
Fe22 Nd8 3.344207 1_655
Fe23 Fe5 2.659132 1_555
Fe23 Fe7 2.659132 1_555
Fe23 Nd11 3.128796 1_565
Fe23 Nd10 3.128796 1_565
Fe23 Nd1 3.274611 1_565
Fe23 Nd0 3.274611 1_555
Fe23 Nd9 3.344207 1_555
Fe24 Fe25 2.582695 1_655
Fe24 Fe9 2.659128 1_555
Fe24 Nd9 3.128796 1_655
Fe24 Nd8 3.128796 1_655
Fe24 Nd1 3.274604 1_665
Fe24 Nd0 3.274614 1_555
Fe24 Nd10 3.344207 1_565
Fe25 Fe3 2.659128 1_555
Fe25 Fe8 2.659133 1_555
Fe25 Nd8 3.128796 1_555
Fe25 Nd9 3.128796 1_555
Fe25 Nd0 3.274604 1_555
Fe25 Nd1 3.274614 1_555
Fe25 Nd11 3.344207 1_555
