# generated using pymatgen
data_CsMg30AlO32
_symmetry_space_group_name_H-M   'P 1'
_cell_length_a   8.64962200
_cell_length_b   8.64962200
_cell_length_c   8.66241600
_cell_angle_alpha   90.00000000
_cell_angle_beta   90.00000000
_cell_angle_gamma   90.00000000
_symmetry_Int_Tables_number   1
_chemical_formula_structural   CsMg30AlO32
_chemical_formula_sum   'Cs1 Mg30 Al1 O32'
_cell_volume   648.08697539
_cell_formula_units_Z   1
loop_
 _symmetry_equiv_pos_site_id
 _symmetry_equiv_pos_as_xyz
  1  'x, y, z'
loop_
 _atom_site_type_symbol
 _atom_site_label
 _atom_site_symmetry_multiplicity
 _atom_site_fract_x
 _atom_site_fract_y
 _atom_site_fract_z
 _atom_site_occupancy
  Cs  Cs0  1  0.50000000  0.50000000  0.00000000  1
  Mg  Mg0  1  0.00000000  0.50000000  0.00000000  1
  Mg  Mg1  1  0.50000000  0.00000000  0.00000000  1
  Mg  Mg2  1  0.00000000  0.00000000  0.50000000  1
  Mg  Mg3  1  0.00000000  0.50000000  0.50000000  1
  Mg  Mg4  1  0.50000000  0.00000000  0.50000000  1
  Mg  Mg5  1  0.50000000  0.50000000  0.50000000  1
  Mg  Mg6  1  0.24713500  0.24713500  0.00000000  1
  Mg  Mg7  1  0.24713500  0.75286500  0.00000000  1
  Mg  Mg8  1  0.75286500  0.24713500  0.00000000  1
  Mg  Mg9  1  0.75286500  0.75286500  0.00000000  1
  Mg  Mg10  1  0.25084500  0.25084500  0.50000000  1
  Mg  Mg11  1  0.25084500  0.74915500  0.50000000  1
  Mg  Mg12  1  0.74915500  0.25084500  0.50000000  1
  Mg  Mg13  1  0.74915500  0.74915500  0.50000000  1
  Mg  Mg14  1  0.00000000  0.25100000  0.25077400  1
  Mg  Mg15  1  0.00000000  0.74900000  0.25077400  1
  Mg  Mg16  1  0.50000000  0.24672500  0.25494000  1
  Mg  Mg17  1  0.50000000  0.75327500  0.25494000  1
  Mg  Mg18  1  0.00000000  0.25100000  0.74922600  1
  Mg  Mg19  1  0.00000000  0.74900000  0.74922600  1
  Mg  Mg20  1  0.50000000  0.24672500  0.74506000  1
  Mg  Mg21  1  0.50000000  0.75327500  0.74506000  1
  Mg  Mg22  1  0.25100000  0.00000000  0.25077400  1
  Mg  Mg23  1  0.24672500  0.50000000  0.25494000  1
  Mg  Mg24  1  0.74900000  0.00000000  0.25077400  1
  Mg  Mg25  1  0.75327500  0.50000000  0.25494000  1
  Mg  Mg26  1  0.25100000  0.00000000  0.74922600  1
  Mg  Mg27  1  0.24672500  0.50000000  0.74506000  1
  Mg  Mg28  1  0.74900000  0.00000000  0.74922600  1
  Mg  Mg29  1  0.75327500  0.50000000  0.74506000  1
  Al  Al0  1  0.00000000  0.00000000  0.00000000  1
  O  O0  1  0.00000000  0.00000000  0.23696400  1
  O  O1  1  0.00000000  0.50000000  0.25515100  1
  O  O2  1  0.50000000  0.00000000  0.25515100  1
  O  O3  1  0.50000000  0.50000000  0.28501700  1
  O  O4  1  0.00000000  0.00000000  0.76303600  1
  O  O5  1  0.00000000  0.50000000  0.74484900  1
  O  O6  1  0.50000000  0.00000000  0.74484900  1
  O  O7  1  0.50000000  0.50000000  0.71498300  1
  O  O8  1  0.25002500  0.25002500  0.24893400  1
  O  O9  1  0.25002500  0.74997500  0.24893400  1
  O  O10  1  0.74997500  0.25002500  0.24893400  1
  O  O11  1  0.74997500  0.74997500  0.24893400  1
  O  O12  1  0.25002500  0.25002500  0.75106600  1
  O  O13  1  0.25002500  0.74997500  0.75106600  1
  O  O14  1  0.74997500  0.25002500  0.75106600  1
  O  O15  1  0.74997500  0.74997500  0.75106600  1
  O  O16  1  0.00000000  0.22725800  0.00000000  1
  O  O17  1  0.00000000  0.77274200  0.00000000  1
  O  O18  1  0.50000000  0.21379100  0.00000000  1
  O  O19  1  0.50000000  0.78620900  0.00000000  1
  O  O20  1  0.00000000  0.24530900  0.50000000  1
  O  O21  1  0.00000000  0.75469100  0.50000000  1
  O  O22  1  0.50000000  0.24209300  0.50000000  1
  O  O23  1  0.50000000  0.75790700  0.50000000  1
  O  O24  1  0.22725800  0.00000000  0.00000000  1
  O  O25  1  0.21379100  0.50000000  0.00000000  1
  O  O26  1  0.77274200  0.00000000  0.00000000  1
  O  O27  1  0.78620900  0.50000000  0.00000000  1
  O  O28  1  0.24530900  0.00000000  0.50000000  1
  O  O29  1  0.24209300  0.50000000  0.50000000  1
  O  O30  1  0.75469100  0.00000000  0.50000000  1
  O  O31  1  0.75790700  0.50000000  0.50000000  1
loop_
_geom_bond_atom_site_label_1
_geom_bond_atom_site_label_2
_geom_bond_distance
_geom_bond_site_symmetry_2
Cs0 O3 2.468936 1_555
Cs0 O7 2.468936 1_554
Cs0 O27 2.475600 1_555
Cs0 O19 2.475600 1_555
Cs0 O25 2.475600 1_555
Cs0 O18 2.475600 1_555
Mg0 O25 1.849211 1_555
Mg0 O27 1.849211 1_455
Mg0 O1 2.210224 1_555
Mg0 O5 2.210224 1_554
Mg0 O17 2.359115 1_555
Mg0 O16 2.359115 1_555
Mg1 O18 1.849211 1_555
Mg1 O19 1.849211 1_545
Mg1 O2 2.210224 1_555
Mg1 O6 2.210224 1_554
Mg1 O26 2.359115 1_555
Mg1 O24 2.359115 1_555
Mg2 O30 2.121830 1_455
Mg2 O21 2.121830 1_545
Mg2 O20 2.121830 1_555
Mg2 O28 2.121830 1_555
Mg2 O4 2.278527 1_555
Mg2 O0 2.278527 1_555
Mg3 O29 2.094013 1_555
Mg3 O31 2.094013 1_455
Mg3 O5 2.120984 1_555
Mg3 O1 2.120984 1_555
Mg3 O21 2.202981 1_555
Mg3 O20 2.202981 1_555
Mg4 O23 2.094013 1_545
Mg4 O22 2.094013 1_555
Mg4 O6 2.120984 1_555
Mg4 O2 2.120984 1_555
Mg4 O30 2.202981 1_555
Mg4 O28 2.202981 1_555
Mg5 O7 1.862272 1_555
Mg5 O3 1.862272 1_555
Mg5 O22 2.230798 1_555
Mg5 O23 2.230798 1_555
Mg5 O29 2.230798 1_555
Mg5 O31 2.230798 1_555
Mg6 O24 2.144527 1_555
Mg6 O16 2.144527 1_555
Mg6 O8 2.156660 1_555
Mg6 O12 2.156660 1_554
Mg6 O25 2.206120 1_555
Mg6 O18 2.206120 1_555
Mg7 O17 2.144527 1_555
Mg7 O24 2.144527 1_565
Mg7 O9 2.156660 1_555
Mg7 O13 2.156660 1_554
Mg7 O19 2.206120 1_555
Mg7 O25 2.206120 1_555
Mg8 O26 2.144527 1_555
Mg8 O16 2.144527 1_655
Mg8 O10 2.156660 1_555
Mg8 O14 2.156660 1_554
Mg8 O27 2.206120 1_555
Mg8 O18 2.206120 1_555
Mg9 O26 2.144527 1_565
Mg9 O17 2.144527 1_655
Mg9 O15 2.156660 1_554
Mg9 O11 2.156660 1_555
Mg9 O27 2.206120 1_555
Mg9 O19 2.206120 1_555
Mg10 O22 2.156426 1_555
Mg10 O29 2.156426 1_555
Mg10 O28 2.170243 1_555
Mg10 O20 2.170243 1_555
Mg10 O12 2.174861 1_555
Mg10 O8 2.174861 1_555
Mg11 O23 2.156426 1_555
Mg11 O29 2.156426 1_555
Mg11 O28 2.170243 1_565
Mg11 O21 2.170243 1_555
Mg11 O9 2.174861 1_555
Mg11 O13 2.174861 1_555
Mg12 O31 2.156426 1_555
Mg12 O22 2.156426 1_555
Mg12 O30 2.170243 1_555
Mg12 O20 2.170243 1_655
Mg12 O10 2.174861 1_555
Mg12 O14 2.174861 1_555
Mg13 O31 2.156426 1_555
Mg13 O23 2.156426 1_555
Mg13 O30 2.170243 1_565
Mg13 O21 2.170243 1_655
Mg13 O11 2.174861 1_555
Mg13 O15 2.174861 1_555
Mg14 O1 2.154090 1_555
Mg14 O20 2.159460 1_555
Mg14 O8 2.162697 1_555
Mg14 O10 2.162697 1_455
Mg14 O0 2.174348 1_555
Mg14 O16 2.181994 1_555
Mg15 O1 2.154090 1_555
Mg15 O21 2.159460 1_555
Mg15 O9 2.162697 1_555
Mg15 O11 2.162697 1_455
Mg15 O0 2.174348 1_565
Mg15 O17 2.181994 1_555
Mg16 O22 2.123190 1_555
Mg16 O2 2.134079 1_555
Mg16 O10 2.163003 1_555
Mg16 O8 2.163003 1_555
Mg16 O3 2.206171 1_555
Mg16 O18 2.226693 1_555
Mg17 O23 2.123190 1_555
Mg17 O2 2.134079 1_565
Mg17 O11 2.163003 1_555
Mg17 O9 2.163003 1_555
Mg17 O3 2.206171 1_555
Mg17 O19 2.226693 1_555
Mg18 O5 2.154090 1_555
Mg18 O20 2.159460 1_555
Mg18 O12 2.162697 1_555
Mg18 O14 2.162697 1_455
Mg18 O4 2.174348 1_555
Mg18 O16 2.181994 1_556
Mg19 O5 2.154090 1_555
Mg19 O21 2.159460 1_555
Mg19 O13 2.162697 1_555
Mg19 O15 2.162697 1_455
Mg19 O4 2.174348 1_565
Mg19 O17 2.181994 1_556
Mg20 O22 2.123190 1_555
Mg20 O6 2.134079 1_555
Mg20 O14 2.163003 1_555
Mg20 O12 2.163003 1_555
Mg20 O7 2.206171 1_555
Mg20 O18 2.226693 1_556
Mg21 O23 2.123190 1_555
Mg21 O6 2.134079 1_565
Mg21 O15 2.163003 1_555
Mg21 O13 2.163003 1_555
Mg21 O7 2.206171 1_555
Mg21 O19 2.226693 1_556
Mg22 O2 2.154090 1_555
Mg22 O28 2.159460 1_555
Mg22 O8 2.162697 1_555
Mg22 O9 2.162697 1_545
Mg22 O0 2.174348 1_555
Mg22 O24 2.181994 1_555
Mg23 O29 2.123190 1_555
Mg23 O1 2.134079 1_555
Mg23 O9 2.163003 1_555
Mg23 O8 2.163003 1_555
Mg23 O3 2.206171 1_555
Mg23 O25 2.226693 1_555
Mg24 O2 2.154090 1_555
Mg24 O30 2.159460 1_555
Mg24 O10 2.162697 1_555
Mg24 O11 2.162697 1_545
Mg24 O0 2.174348 1_655
Mg24 O26 2.181994 1_555
Mg25 O31 2.123190 1_555
Mg25 O1 2.134079 1_655
Mg25 O11 2.163003 1_555
Mg25 O10 2.163003 1_555
Mg25 O3 2.206171 1_555
Mg25 O27 2.226693 1_555
Mg26 O6 2.154090 1_555
Mg26 O28 2.159460 1_555
Mg26 O12 2.162697 1_555
Mg26 O13 2.162697 1_545
Mg26 O4 2.174348 1_555
Mg26 O24 2.181994 1_556
Mg27 O29 2.123190 1_555
Mg27 O5 2.134079 1_555
Mg27 O13 2.163003 1_555
Mg27 O12 2.163003 1_555
Mg27 O7 2.206171 1_555
Mg27 O25 2.226693 1_556
Mg28 O6 2.154090 1_555
Mg28 O30 2.159460 1_555
Mg28 O14 2.162697 1_555
Mg28 O15 2.162697 1_545
Mg28 O4 2.174348 1_655
Mg28 O26 2.181994 1_556
Mg29 O31 2.123190 1_555
Mg29 O5 2.134079 1_655
Mg29 O15 2.163003 1_555
Mg29 O14 2.163003 1_555
Mg29 O7 2.206171 1_555
Mg29 O27 2.226693 1_556
Al0 O16 1.965696 1_555
Al0 O24 1.965696 1_555
Al0 O26 1.965696 1_455
Al0 O17 1.965696 1_545
Al0 O0 2.052681 1_555
Al0 O4 2.052681 1_554
