# generated using pymatgen
data_Li7Mn4CoO12
_symmetry_space_group_name_H-M   'P 1'
_cell_length_a   8.59363600
_cell_length_b   5.21962700
_cell_length_c   5.26114803
_cell_angle_alpha   67.46294871
_cell_angle_beta   90.00000000
_cell_angle_gamma   90.00000000
_symmetry_Int_Tables_number   1
_chemical_formula_structural   Li7Mn4CoO12
_chemical_formula_sum   'Li7 Mn4 Co1 O12'
_cell_volume   217.96956389
_cell_formula_units_Z   1
loop_
 _symmetry_equiv_pos_site_id
 _symmetry_equiv_pos_as_xyz
  1  'x, y, z'
loop_
 _atom_site_type_symbol
 _atom_site_label
 _atom_site_symmetry_multiplicity
 _atom_site_fract_x
 _atom_site_fract_y
 _atom_site_fract_z
 _atom_site_occupancy
  Li  Li0  1  0.16461300  0.50000000  0.00000000  1
  Li  Li1  1  0.33121800  0.50000000  0.50000000  1
  Li  Li2  1  0.49902300  0.50000000  0.00000000  1
  Li  Li3  1  0.66364000  0.50000000  0.50000000  1
  Li  Li4  1  0.83601100  0.50000000  0.00000000  1
  Li  Li5  1  0.00525500  0.50000000  0.50000000  1
  Li  Li6  1  0.16844800  0.00000000  0.50000000  1
  Mn  Mn0  1  0.00160900  0.00000000  0.00000000  1
  Mn  Mn1  1  0.33324200  0.00000000  0.00000000  1
  Mn  Mn2  1  0.66553700  0.00000000  0.00000000  1
  Mn  Mn3  1  0.83523800  0.00000000  0.50000000  1
  Co  Co0  1  0.49760500  0.00000000  0.50000000  1
  O  O0  1  0.16719800  0.23556800  0.78028400  1
  O  O1  1  0.34237200  0.20862400  0.24380800  1
  O  O2  1  0.49733000  0.23560800  0.77479700  1
  O  O3  1  0.66381900  0.22887800  0.27725000  1
  O  O4  1  0.83560800  0.23658900  0.77588800  1
  O  O5  1  0.99295400  0.21239500  0.23867800  1
  O  O6  1  0.16719800  0.76443200  0.21971600  1
  O  O7  1  0.34237200  0.79137600  0.75619200  1
  O  O8  1  0.49733000  0.76439200  0.22520300  1
  O  O9  1  0.66381900  0.77112200  0.72275000  1
  O  O10  1  0.83560800  0.76341100  0.22411200  1
  O  O11  1  0.99295400  0.78760500  0.76132200  1
loop_
_geom_bond_atom_site_label_1
_geom_bond_atom_site_label_2
_geom_bond_distance
_geom_bond_site_symmetry_2
Li0 O6 2.113015 1_555
Li0 O0 2.113015 1_554
Li0 O5 2.135772 1_455
Li0 O11 2.135772 1_454
Li0 O7 2.190094 1_554
Li0 O1 2.190094 1_555
Li1 O8 2.122031 1_555
Li1 O2 2.122031 1_555
Li1 O0 2.122762 1_555
Li1 O6 2.122762 1_555
Li1 O7 2.389641 1_555
Li1 O1 2.389641 1_555
Li2 O7 2.067661 1_554
Li2 O1 2.067661 1_555
Li2 O9 2.133916 1_554
Li2 O3 2.133916 1_555
Li2 O8 2.135861 1_555
Li2 O2 2.135861 1_554
Li3 O8 2.123176 1_555
Li3 O2 2.123176 1_555
Li3 O3 2.155776 1_555
Li3 O9 2.155776 1_555
Li3 O4 2.156704 1_555
Li3 O10 2.156704 1_555
Li4 O5 2.050464 1_555
Li4 O11 2.050464 1_554
Li4 O10 2.126811 1_555
Li4 O4 2.126811 1_554
Li4 O9 2.176616 1_554
Li4 O3 2.176616 1_555
Li5 O0 2.110952 1_555
Li5 O6 2.110952 1_555
Li5 O4 2.143086 1_455
Li5 O10 2.143086 1_455
Li5 O11 2.395223 1_455
Li5 O5 2.395223 1_455
Li6 O1 2.027649 1_555
Li6 O7 2.027649 1_545
Li6 O11 2.055563 1_445
Li6 O5 2.055563 1_455
Li6 O0 2.253078 1_555
Li6 O6 2.253078 1_545
Mn0 O6 1.945126 1_545
Mn0 O0 1.945126 1_554
Mn0 O10 1.958093 1_445
Mn0 O4 1.958093 1_454
Mn0 O5 1.969405 1_455
Mn0 O11 1.969405 1_444
Mn1 O2 1.946191 1_554
Mn1 O8 1.946191 1_545
Mn1 O6 1.947989 1_545
Mn1 O0 1.947989 1_554
Mn1 O1 1.976871 1_555
Mn1 O7 1.976871 1_544
Mn2 O2 1.971989 1_554
Mn2 O8 1.971989 1_545
Mn2 O10 1.983719 1_545
Mn2 O4 1.983719 1_554
Mn2 O9 2.211538 1_544
Mn2 O3 2.211538 1_555
Mn3 O11 1.946243 1_545
Mn3 O5 1.946243 1_555
Mn3 O3 1.974195 1_555
Mn3 O9 1.974195 1_545
Mn3 O4 2.237374 1_555
Mn3 O10 2.237374 1_545
Co0 O7 1.912331 1_545
Co0 O1 1.912331 1_555
Co0 O3 1.941047 1_555
Co0 O9 1.941047 1_545
Co0 O2 2.228336 1_555
Co0 O8 2.228336 1_545
