# generated using pymatgen
data_Er6Al43Cr4
_symmetry_space_group_name_H-M   'P 1'
_cell_length_a   10.82104966
_cell_length_b   10.82105149
_cell_length_c   17.49246457
_cell_angle_alpha   90.00000000
_cell_angle_beta   90.00001018
_cell_angle_gamma   120.00000665
_symmetry_Int_Tables_number   1
_chemical_formula_structural   Er6Al43Cr4
_chemical_formula_sum   'Er12 Al86 Cr8'
_cell_volume   1773.86456971
_cell_formula_units_Z   2
loop_
 _symmetry_equiv_pos_site_id
 _symmetry_equiv_pos_as_xyz
  1  'x, y, z'
loop_
 _atom_site_type_symbol
 _atom_site_label
 _atom_site_symmetry_multiplicity
 _atom_site_fract_x
 _atom_site_fract_y
 _atom_site_fract_z
 _atom_site_occupancy
  Er  Er0  1  0.46839016  0.46839064  0.90435964  1
  Er  Er1  1  0.53160928  0.00000012  0.90436029  1
  Er  Er2  1  0.99999998  0.53160867  0.90436022  1
  Er  Er3  1  0.53160041  0.53159999  0.09564716  1
  Er  Er4  1  0.46839913  0.99999959  0.09564676  1
  Er  Er5  1  0.99999994  0.46840197  0.09564635  1
  Er  Er6  1  0.53160087  0.53160046  0.40435324  1
  Er  Er7  1  0.46839959  0.99999958  0.40435284  1
  Er  Er8  1  0.00000006  0.46840203  0.40435365  1
  Er  Er9  1  0.46839072  0.46839084  0.59563971  1
  Er  Er10  1  0.53160984  0.00000048  0.59564036  1
  Er  Er11  1  0.00000002  0.53160869  0.59563978  1
  Al  Al0  1  0.84261715  0.23357976  0.83492796  1
  Al  Al1  1  0.76642080  0.60903712  0.83492792  1
  Al  Al2  1  0.39096270  0.15738299  0.83492807  1
  Al  Al3  1  0.23357942  0.84261641  0.83492814  1
  Al  Al4  1  0.60903736  0.76642068  0.83492795  1
  Al  Al5  1  0.15738263  0.39096264  0.83492781  1
  Al  Al6  1  0.15737907  0.76641105  0.16506988  1
  Al  Al7  1  0.23358865  0.39096853  0.16506992  1
  Al  Al8  1  0.60903159  0.84262037  0.16506984  1
  Al  Al9  1  0.76641091  0.15737948  0.16506974  1
  Al  Al10  1  0.39096830  0.23358827  0.16506991  1
  Al  Al11  1  0.84262114  0.60903209  0.16507003  1
  Al  Al12  1  0.15737886  0.76641095  0.33492997  1
  Al  Al13  1  0.23358909  0.39096856  0.33493026  1
  Al  Al14  1  0.60903170  0.84261997  0.33493009  1
  Al  Al15  1  0.76641135  0.15737989  0.33493008  1
  Al  Al16  1  0.39096841  0.23358878  0.33493016  1
  Al  Al17  1  0.84262093  0.60903197  0.33493012  1
  Al  Al18  1  0.84261737  0.23358001  0.66507219  1
  Al  Al19  1  0.76642058  0.60903700  0.66507186  1
  Al  Al20  1  0.39096264  0.15738331  0.66507205  1
  Al  Al21  1  0.23357920  0.84261632  0.66507208  1
  Al  Al22  1  0.60903730  0.76642030  0.66507193  1
  Al  Al23  1  0.15738285  0.39096261  0.66507204  1
  Al  Al24  1  0.84599096  0.84599047  0.38300502  1
  Al  Al25  1  0.15400873  0.99999972  0.38300496  1
  Al  Al26  1  0.00000023  0.15400918  0.38300499  1
  Al  Al27  1  0.15401415  0.15401440  0.61699306  1
  Al  Al28  1  0.84598619  0.00000014  0.61699300  1
  Al  Al29  1  0.99999988  0.84598539  0.61699289  1
  Al  Al30  1  0.15401381  0.15401395  0.88300700  1
  Al  Al31  1  0.84598585  0.00000024  0.88300694  1
  Al  Al32  1  0.00000012  0.84598550  0.88300711  1
  Al  Al33  1  0.84599127  0.84599098  0.11699504  1
  Al  Al34  1  0.15400904  0.99999952  0.11699498  1
  Al  Al35  1  0.99999977  0.15400895  0.11699501  1
  Al  Al36  1  0.75011573  0.75011554  0.97001614  1
  Al  Al37  1  0.24988469  0.99999965  0.97001632  1
  Al  Al38  1  0.99999980  0.24988478  0.97001610  1
  Al  Al39  1  0.24987765  0.24987744  0.02998981  1
  Al  Al40  1  0.75012210  0.00000011  0.02998988  1
  Al  Al41  1  0.00000022  0.75012231  0.02998999  1
  Al  Al42  1  0.24987790  0.24987801  0.47001012  1
  Al  Al43  1  0.75012235  0.99999979  0.47001019  1
  Al  Al44  1  0.99999978  0.75012209  0.47001001  1
  Al  Al45  1  0.75011531  0.75011496  0.52998368  1
  Al  Al46  1  0.24988427  0.99999982  0.52998386  1
  Al  Al47  1  0.00000020  0.24988499  0.52998390  1
  Al  Al48  1  0.85171323  0.45039284  0.75000004  1
  Al  Al49  1  0.54960669  0.40131963  0.74999984  1
  Al  Al50  1  0.59868061  0.14828730  0.75000015  1
  Al  Al51  1  0.45039331  0.85171294  0.75000016  1
  Al  Al52  1  0.40131939  0.54960669  0.74999985  1
  Al  Al53  1  0.14828677  0.59867961  0.74999996  1
  Al  Al54  1  0.14827695  0.54960259  0.25000000  1
  Al  Al55  1  0.45039815  0.59867515  0.25000017  1
  Al  Al56  1  0.40132448  0.85172264  0.24999986  1
  Al  Al57  1  0.54960185  0.14827700  0.24999983  1
  Al  Al58  1  0.59867552  0.45039817  0.25000014  1
  Al  Al59  1  0.85172305  0.40132564  0.25000000  1
  Al  Al60  1  0.75293023  0.24706115  -0.00000565  1
  Al  Al61  1  0.75293952  0.50586903  -0.00000567  1
  Al  Al62  1  0.49413123  0.24706945  -0.00000572  1
  Al  Al63  1  0.24706096  0.75293011  -0.00000561  1
  Al  Al64  1  0.50586868  0.75293917  -0.00000573  1
  Al  Al65  1  0.24706941  0.49413117  -0.00000559  1
  Al  Al66  1  0.24706048  0.75292951  0.50000567  1
  Al  Al67  1  0.24706977  0.49413092  0.50000565  1
  Al  Al68  1  0.50586877  0.75293822  0.50000572  1
  Al  Al69  1  0.75293059  0.24706176  0.50000559  1
  Al  Al70  1  0.49413132  0.24707048  0.50000573  1
  Al  Al71  1  0.75293904  0.50586915  0.50000561  1
  Al  Al72  1  0.66666738  0.33333299  0.87340893  1
  Al  Al73  1  0.33333297  0.66666730  0.87340897  1
  Al  Al74  1  0.33333280  0.66666729  0.12658727  1
  Al  Al75  1  0.66666691  0.33333273  0.12658730  1
  Al  Al76  1  0.33333309  0.66666682  0.37341270  1
  Al  Al77  1  0.66666720  0.33333348  0.37341273  1
  Al  Al78  1  0.66666703  0.33333332  0.62659103  1
  Al  Al79  1  0.33333262  0.66666660  0.62659107  1
  Al  Al80  1  0.85551208  0.85551178  0.74999999  1
  Al  Al81  1  0.14448792  0.99999970  0.75000001  1
  Al  Al82  1  -0.00000000  0.14448794  0.75000000  1
  Al  Al83  1  0.14449222  0.14449270  0.25000008  1
  Al  Al84  1  0.85550778  0.00000048  0.24999992  1
  Al  Al85  1  0.00000000  0.85550690  0.25000000  1
  Cr  Cr0  1  0.27056548  0.27056692  0.75000052  1
  Cr  Cr1  1  0.72943452  0.00000144  0.74999948  1
  Cr  Cr2  1  -0.00000000  0.72943344  0.75000000  1
  Cr  Cr3  1  0.72942700  0.72942682  0.25000051  1
  Cr  Cr4  1  0.27057300  0.99999982  0.24999949  1
  Cr  Cr5  1  0.00000000  0.27057050  0.25000000  1
  Cr  Cr6  1  0.00000031  0.00000048  -0.00001015  1
  Cr  Cr7  1  0.99999969  0.00000017  0.50001015  1
loop_
_geom_bond_atom_site_label_1
_geom_bond_atom_site_label_2
_geom_bond_distance
_geom_bond_site_symmetry_2
Er0 Er3 3.415285 1_556
Er1 Er4 3.415267 1_546
Er2 Er5 3.415254 1_556
Er6 Er9 3.415267 1_555
Er10 Er7 3.415285 1_545
Er11 Er8 3.415254 1_555
Al0 Cr1 2.645749 1_555
Al0 Al31 2.681310 1_555
Al0 Al72 2.701583 1_555
Al0 Al48 2.736816 1_555
Al0 Al50 2.755052 1_555
Al0 Al82 2.771039 1_655
Al0 Al38 2.866164 1_555
Al0 Al5 2.949763 1_655
Al0 Al18 2.971196 1_555
Al0 Er2 3.046918 1_555
Al0 Al60 3.072772 1_556
Al0 Er1 3.268563 1_555
Al1 Cr2 2.645750 1_655
Al1 Al32 2.681310 1_655
Al1 Al72 2.701594 1_555
Al1 Al49 2.736824 1_555
Al1 Al48 2.755055 1_555
Al1 Al80 2.771039 1_555
Al1 Al36 2.866171 1_555
Al1 Al4 2.949778 1_555
Al1 Al19 2.971201 1_555
Al1 Er0 3.046929 1_555
Al1 Al61 3.072772 1_556
Al1 Er2 3.268559 1_555
Al2 Cr0 2.645761 1_555
Al2 Al30 2.681314 1_555
Al2 Al72 2.701596 1_555
Al2 Al50 2.736822 1_555
Al2 Al49 2.755058 1_555
Al2 Al81 2.771040 1_545
Al2 Al37 2.866170 1_545
Al2 Al3 2.949774 1_545
Al2 Al20 2.971200 1_555
Al2 Er1 3.046923 1_555
Al2 Al62 3.072769 1_556
Al2 Er0 3.268558 1_555
Al3 Cr2 2.645753 1_555
Al3 Al32 2.681309 1_555
Al3 Al73 2.701579 1_555
Al3 Al51 2.736822 1_555
Al3 Al53 2.755058 1_555
Al3 Al81 2.771042 1_555
Al3 Al37 2.866168 1_555
Al3 Er1 3.046925 1_565
Al3 Al63 3.072768 1_556
Al3 Er2 3.268560 1_455
Al4 Cr1 2.645768 1_565
Al4 Al73 2.701596 1_555
Al4 Al52 2.736826 1_555
Al4 Al51 2.755051 1_555
Al4 Al80 2.771040 1_555
Al4 Er0 3.046924 1_555
Al4 Al64 3.072772 1_556
Al4 Er1 3.268560 1_565
Al5 Cr0 2.645739 1_555
Al5 Al73 2.701598 1_555
Al5 Al53 2.736814 1_555
Al5 Al52 2.755056 1_555
Al5 Al82 2.771037 1_555
Al5 Er2 3.046918 1_455
Al5 Al65 3.072776 1_556
Al5 Er0 3.268556 1_555
Al6 Cr4 2.645840 1_555
Al6 Al74 2.701552 1_555
Al6 Al85 2.771055 1_555
Al6 Er5 3.046689 1_455
Al6 Al63 3.072902 1_555
Al6 Er4 3.268613 1_555
Al7 Cr5 2.645844 1_555
Al7 Al74 2.701564 1_555
Al7 Al83 2.771063 1_555
Al7 Er3 3.046707 1_555
Al7 Er5 3.268630 1_455
Al8 Cr3 2.645852 1_555
Al8 Al84 2.771065 1_565
Al8 Al9 2.949704 1_565
Al8 Er4 3.046708 1_555
Al8 Er3 3.268614 1_555
Al9 Cr5 2.645849 1_655
Al9 Er4 3.046708 1_545
Al9 Er5 3.268633 1_555
Al10 Cr4 2.645837 1_545
Al10 Al34 2.681391 1_545
Al10 Al75 2.701561 1_555
Al10 Al58 2.736780 1_555
Al10 Al57 2.755114 1_555
Al10 Al83 2.771066 1_555
Al10 Al39 2.866071 1_555
Al10 Al7 2.949711 1_555
Al10 Al16 2.971274 1_555
Al10 Er3 3.046706 1_555
Al10 Al62 3.072905 1_555
Al10 Er4 3.268610 1_545
Al11 Cr3 2.645849 1_555
Al11 Al33 2.681390 1_555
Al11 Al75 2.701568 1_555
Al11 Al59 2.736768 1_555
Al11 Al58 2.755122 1_555
Al11 Al85 2.771052 1_655
Al11 Al41 2.866067 1_655
Al11 Al6 2.949692 1_655
Al11 Al17 2.971272 1_555
Al11 Er5 3.046689 1_555
Al11 Al61 3.072905 1_555
Al11 Er3 3.268615 1_555
Al12 Cr4 2.645849 1_555
Al12 Al25 2.681390 1_555
Al12 Al76 2.701560 1_555
Al12 Al54 2.736768 1_555
Al12 Al56 2.755122 1_555
Al12 Al85 2.771052 1_555
Al12 Al44 2.866067 1_455
Al12 Al17 2.949692 1_455
Al12 Al6 2.971272 1_555
Al12 Er8 3.046689 1_555
Al12 Al66 3.072906 1_555
Al12 Er7 3.268615 1_555
Al13 Cr5 2.645849 1_555
Al13 Al26 2.681391 1_555
Al13 Al76 2.701558 1_555
Al13 Al55 2.736773 1_555
Al13 Al54 2.755128 1_555
Al13 Al83 2.771062 1_555
Al13 Al42 2.866066 1_555
Al13 Al16 2.949704 1_555
Al13 Al7 2.971276 1_555
Al13 Er6 3.046708 1_555
Al13 Al67 3.072899 1_555
Al13 Er8 3.268633 1_555
Al14 Cr3 2.645837 1_555
Al14 Al24 2.681391 1_555
Al14 Al76 2.701560 1_555
Al14 Al56 2.736780 1_555
Al14 Al55 2.755114 1_555
Al14 Al84 2.771066 1_565
Al14 Al43 2.866071 1_555
Al14 Al15 2.949711 1_565
Al14 Al8 2.971274 1_555
Al14 Er7 3.046706 1_555
Al14 Al68 3.072905 1_555
Al14 Er6 3.268610 1_555
Al15 Cr5 2.645844 1_655
Al15 Al26 2.681393 1_655
Al15 Al77 2.701554 1_555
Al15 Al57 2.736776 1_555
Al15 Al59 2.755123 1_555
Al15 Al84 2.771063 1_555
Al15 Al43 2.866074 1_545
Al15 Al9 2.971276 1_555
Al15 Er7 3.046707 1_545
Al15 Al69 3.072902 1_555
Al15 Er8 3.268630 1_655
Al16 Cr4 2.645852 1_545
Al16 Al25 2.681394 1_545
Al16 Al77 2.701562 1_555
Al16 Al58 2.736776 1_555
Al16 Al57 2.755121 1_555
Al16 Al83 2.771065 1_555
Al16 Al42 2.866069 1_555
Al16 Er6 3.046708 1_555
Al16 Al70 3.072902 1_555
Al16 Er7 3.268614 1_545
Al17 Cr3 2.645840 1_555
Al17 Al24 2.681386 1_555
Al17 Al77 2.701560 1_555
Al17 Al59 2.736769 1_555
Al17 Al58 2.755119 1_555
Al17 Al85 2.771055 1_655
Al17 Al44 2.866063 1_555
Al17 Er8 3.046689 1_655
Al17 Al71 3.072902 1_555
Al17 Er6 3.268613 1_555
Al18 Cr1 2.645739 1_555
Al18 Al28 2.681315 1_555
Al18 Al78 2.701590 1_555
Al18 Al48 2.736814 1_555
Al18 Al50 2.755056 1_555
Al18 Al82 2.771037 1_655
Al18 Al47 2.866168 1_655
Al18 Al23 2.949763 1_655
Al18 Er11 3.046918 1_655
Al18 Al69 3.072776 1_555
Al18 Er10 3.268556 1_555
Al19 Cr2 2.645753 1_655
Al19 Al29 2.681309 1_555
Al19 Al78 2.701589 1_555
Al19 Al49 2.736822 1_555
Al19 Al48 2.755058 1_555
Al19 Al80 2.771042 1_555
Al19 Al45 2.866168 1_555
Al19 Al22 2.949774 1_555
Al19 Er9 3.046925 1_555
Al19 Al71 3.072768 1_555
Al19 Er11 3.268560 1_655
Al20 Cr0 2.645768 1_555
Al20 Al27 2.681311 1_555
Al20 Al78 2.701595 1_555
Al20 Al50 2.736826 1_555
Al20 Al49 2.755051 1_555
Al20 Al81 2.771040 1_545
Al20 Al46 2.866170 1_545
Al20 Al21 2.949777 1_545
Al20 Er10 3.046924 1_555
Al20 Al70 3.072772 1_555
Al20 Er9 3.268560 1_555
Al21 Cr2 2.645750 1_555
Al21 Al29 2.681310 1_455
Al21 Al79 2.701584 1_555
Al21 Al51 2.736824 1_555
Al21 Al53 2.755055 1_555
Al21 Al81 2.771039 1_555
Al21 Al46 2.866171 1_555
Al21 Al3 2.971201 1_555
Al21 Er10 3.046929 1_565
Al21 Al66 3.072772 1_555
Al21 Er11 3.268559 1_555
Al22 Cr1 2.645761 1_565
Al22 Al28 2.681314 1_565
Al22 Al79 2.701598 1_555
Al22 Al52 2.736822 1_555
Al22 Al51 2.755058 1_555
Al22 Al80 2.771040 1_555
Al22 Al45 2.866170 1_555
Al22 Al4 2.971200 1_555
Al22 Er9 3.046923 1_555
Al22 Al68 3.072769 1_555
Al22 Er10 3.268558 1_565
Al23 Cr0 2.645749 1_555
Al23 Al27 2.681309 1_555
Al23 Al79 2.701591 1_555
Al23 Al53 2.736816 1_555
Al23 Al52 2.755052 1_555
Al23 Al82 2.771039 1_555
Al23 Al47 2.866164 1_555
Al23 Al5 2.971196 1_555
Al23 Er11 3.046918 1_555
Al23 Al67 3.072772 1_555
Al23 Er9 3.268563 1_555
Al24 Cr7 2.639389 1_565
Al24 Cr3 2.646496 1_555
Al24 Al45 2.772452 1_555
Al24 Al44 2.810458 1_555
Al24 Al43 2.810466 1_555
Al24 Al85 2.833610 1_655
Al24 Al84 2.833616 1_565
Al24 Al25 2.886528 1_655
Al24 Al26 2.886537 1_665
Al24 Er6 3.422464 1_555
Al25 Cr7 2.639390 1_465
Al25 Cr4 2.646514 1_555
Al25 Al46 2.772456 1_555
Al25 Al44 2.810462 1_455
Al25 Al42 2.810468 1_565
Al25 Al85 2.833608 1_555
Al25 Al83 2.833610 1_565
Al25 Al26 2.886530 1_565
Al25 Er7 3.422473 1_555
Al26 Cr7 2.639386 1_455
Al26 Cr5 2.646492 1_555
Al26 Al47 2.772457 1_555
Al26 Al42 2.810462 1_555
Al26 Al43 2.810466 1_445
Al26 Al83 2.833604 1_555
Al26 Al84 2.833608 1_455
Al26 Er8 3.422497 1_555
Al27 Cr7 2.639122 1_455
Al27 Cr0 2.646481 1_555
Al27 Al42 2.772474 1_555
Al27 Al47 2.810556 1_555
Al27 Al46 2.810559 1_545
Al27 Al82 2.833641 1_555
Al27 Al81 2.833645 1_545
Al27 Al28 2.886623 1_455
Al27 Al29 2.886634 1_445
Al27 Er9 3.422329 1_555
Al28 Cr7 2.639116 1_555
Al28 Cr1 2.646468 1_555
Al28 Al43 2.772471 1_545
Al28 Al47 2.810558 1_655
Al28 Al45 2.810563 1_545
Al28 Al82 2.833640 1_655
Al28 Al80 2.833644 1_545
Al28 Al29 2.886628 1_545
Al28 Er10 3.422327 1_555
Al29 Cr7 2.639124 1_565
Al29 Cr2 2.646476 1_655
Al29 Al44 2.772471 1_555
Al29 Al46 2.810555 1_655
Al29 Al45 2.810557 1_555
Al29 Al80 2.833644 1_555
Al29 Al81 2.833644 1_655
Al29 Er11 3.422331 1_655
Al30 Cr6 2.639116 1_556
Al30 Cr0 2.646468 1_555
Al30 Al5 2.681315 1_555
Al30 Al39 2.772471 1_556
Al30 Al38 2.810558 1_455
Al30 Al37 2.810563 1_545
Al30 Al82 2.833640 1_555
Al30 Al81 2.833644 1_545
Al30 Al31 2.886623 1_455
Al30 Al32 2.886629 1_545
Al30 Er0 3.422327 1_555
Al31 Cr6 2.639122 1_656
Al31 Cr1 2.646481 1_555
Al31 Al4 2.681311 1_545
Al31 Al40 2.772474 1_556
Al31 Al38 2.810556 1_555
Al31 Al36 2.810559 1_545
Al31 Al82 2.833641 1_655
Al31 Al80 2.833645 1_545
Al31 Al32 2.886634 1_645
Al31 Er1 3.422329 1_555
Al32 Cr6 2.639124 1_566
Al32 Cr2 2.646476 1_555
Al32 Al41 2.772471 1_556
Al32 Al36 2.810555 1_455
Al32 Al37 2.810557 1_555
Al32 Al81 2.833644 1_555
Al32 Al80 2.833644 1_455
Al32 Er2 3.422331 1_455
Al33 Cr6 2.639390 1_665
Al33 Cr3 2.646514 1_555
Al33 Al8 2.681395 1_555
Al33 Al36 2.772456 1_554
Al33 Al41 2.810462 1_655
Al33 Al40 2.810468 1_565
Al33 Al85 2.833608 1_655
Al33 Al84 2.833610 1_565
Al33 Al34 2.886528 1_655
Al33 Al35 2.886530 1_565
Al33 Er3 3.422473 1_555
Al34 Cr6 2.639389 1_565
Al34 Cr4 2.646496 1_555
Al34 Al6 2.681386 1_555
Al34 Al37 2.772453 1_554
Al34 Al41 2.810458 1_555
Al34 Al39 2.810466 1_565
Al34 Al85 2.833610 1_555
Al34 Al83 2.833616 1_565
Al34 Al35 2.886537 1_465
Al34 Er4 3.422465 1_555
Al35 Cr6 2.639386 1_655
Al35 Cr5 2.646492 1_655
Al35 Al9 2.681392 1_555
Al35 Al7 2.681393 1_655
Al35 Al38 2.772457 1_554
Al35 Al40 2.810462 1_555
Al35 Al39 2.810466 1_655
Al35 Al84 2.833604 1_555
Al35 Al83 2.833608 1_655
Al35 Er5 3.422497 1_555
Al36 Al61 2.709641 1_556
Al36 Al64 2.709645 1_556
Al36 Cr6 2.754379 1_666
Al36 Al4 2.866170 1_555
Al36 Al41 2.900358 1_656
Al36 Al40 2.900360 1_566
Al36 Er3 3.228096 1_556
Al36 Er0 3.257725 1_555
Al37 Al63 2.709632 1_556
Al37 Al62 2.709637 1_566
Al37 Cr6 2.754379 1_566
Al37 Al41 2.900355 1_556
Al37 Al39 2.900358 1_566
Al37 Er4 3.228081 1_556
Al37 Er1 3.257714 1_565
Al38 Al60 2.709634 1_556
Al38 Al65 2.709636 1_656
Al38 Cr6 2.754378 1_656
Al38 Al5 2.866168 1_655
Al38 Al40 2.900358 1_556
Al38 Al39 2.900361 1_656
Al38 Er5 3.228100 1_556
Al38 Er2 3.257707 1_555
Al39 Al62 2.709689 1_555
Al39 Al65 2.709692 1_555
Al39 Cr6 2.754386 1_555
Al39 Al7 2.866074 1_555
Al39 Er0 3.228066 1_554
Al39 Er3 3.257704 1_555
Al40 Al60 2.709683 1_555
Al40 Al64 2.709685 1_545
Al40 Cr6 2.754395 1_655
Al40 Al9 2.866066 1_555
Al40 Al8 2.866069 1_545
Al40 Er1 3.228058 1_554
Al40 Er4 3.257702 1_545
Al41 Al63 2.709681 1_555
Al41 Al61 2.709683 1_455
Al41 Cr6 2.754397 1_565
Al41 Al6 2.866063 1_555
Al41 Er2 3.228066 1_454
Al41 Er5 3.257674 1_455
Al42 Al67 2.709683 1_555
Al42 Al70 2.709685 1_555
Al42 Cr7 2.754395 1_455
Al42 Al47 2.900359 1_555
Al42 Al46 2.900360 1_545
Al42 Er9 3.228058 1_555
Al42 Er6 3.257702 1_555
Al43 Al68 2.709689 1_555
Al43 Al69 2.709692 1_565
Al43 Cr7 2.754386 1_565
Al43 Al45 2.900358 1_555
Al43 Al47 2.900361 1_665
Al43 Er10 3.228066 1_565
Al43 Er7 3.257704 1_555
Al44 Al71 2.709681 1_555
Al44 Al66 2.709683 1_655
Al44 Cr7 2.754397 1_565
Al44 Al45 2.900355 1_555
Al44 Al46 2.900358 1_655
Al44 Er11 3.228066 1_655
Al44 Er8 3.257674 1_655
Al45 Al71 2.709632 1_555
Al45 Al68 2.709637 1_555
Al45 Cr7 2.754379 1_565
Al45 Er6 3.228081 1_555
Al45 Er9 3.257714 1_555
Al46 Al66 2.709641 1_555
Al46 Al70 2.709645 1_565
Al46 Cr7 2.754379 1_465
Al46 Er7 3.228096 1_555
Al46 Er10 3.257725 1_565
Al47 Al67 2.709633 1_555
Al47 Al69 2.709636 1_455
Al47 Cr7 2.754378 1_455
Al47 Er8 3.228100 1_555
Al47 Er11 3.257707 1_555
Al48 Cr2 2.616695 1_655
Al48 Al53 2.779281 1_655
Al48 Al72 2.781685 1_555
Al48 Al78 2.781688 1_555
Al48 Er2 3.037715 1_555
Al48 Er11 3.037717 1_655
Al48 Al50 3.038591 1_555
Al48 Al49 3.038600 1_555
Al49 Cr0 2.616700 1_555
Al49 Al52 2.779289 1_555
Al49 Al78 2.781689 1_555
Al49 Al72 2.781696 1_555
Al49 Er0 3.037713 1_555
Al49 Er9 3.037716 1_555
Al49 Al50 3.038595 1_555
Al50 Cr1 2.616687 1_555
Al50 Al51 2.779289 1_545
Al50 Al72 2.781681 1_555
Al50 Al78 2.781689 1_555
Al50 Er10 3.037709 1_555
Al50 Er1 3.037716 1_555
Al51 Cr1 2.616700 1_565
Al51 Al73 2.781683 1_555
Al51 Al79 2.781691 1_555
Al51 Er10 3.037713 1_565
Al51 Er1 3.037716 1_565
Al51 Al52 3.038595 1_555
Al51 Al53 3.038600 1_555
Al52 Cr0 2.616687 1_555
Al52 Al79 2.781688 1_555
Al52 Al73 2.781695 1_555
Al52 Er0 3.037709 1_555
Al52 Er9 3.037716 1_555
Al52 Al53 3.038591 1_555
Al53 Cr2 2.616695 1_555
Al53 Al79 2.781684 1_555
Al53 Al73 2.781687 1_555
Al53 Er11 3.037715 1_555
Al53 Er2 3.037717 1_455
Al54 Cr5 2.616613 1_555
Al54 Al6 2.736769 1_555
Al54 Al7 2.755123 1_555
Al54 Al59 2.779097 1_455
Al54 Al74 2.781795 1_555
Al54 Al76 2.781795 1_555
Al54 Er8 3.037569 1_555
Al54 Er5 3.037569 1_455
Al54 Al56 3.038747 1_555
Al54 Al55 3.038759 1_555
Al55 Cr3 2.616583 1_555
Al55 Al7 2.736776 1_555
Al55 Al8 2.755121 1_555
Al55 Al58 2.779101 1_555
Al55 Al76 2.781798 1_555
Al55 Al74 2.781807 1_555
Al55 Er3 3.037561 1_555
Al55 Er6 3.037562 1_555
Al55 Al56 3.038755 1_555
Al56 Cr4 2.616581 1_555
Al56 Al8 2.736776 1_555
Al56 Al6 2.755119 1_555
Al56 Al57 2.779101 1_565
Al56 Al74 2.781790 1_555
Al56 Al76 2.781796 1_555
Al56 Er7 3.037559 1_555
Al56 Er4 3.037561 1_555
Al57 Cr4 2.616583 1_545
Al57 Al9 2.736773 1_555
Al57 Al75 2.781792 1_555
Al57 Al77 2.781801 1_555
Al57 Er7 3.037561 1_545
Al57 Er4 3.037562 1_545
Al57 Al58 3.038755 1_555
Al57 Al59 3.038759 1_555
Al58 Cr3 2.616581 1_555
Al58 Al77 2.781796 1_555
Al58 Al75 2.781803 1_555
Al58 Er3 3.037559 1_555
Al58 Er6 3.037561 1_555
Al58 Al59 3.038748 1_555
Al59 Cr5 2.616613 1_655
Al59 Al9 2.755128 1_555
Al59 Al77 2.781794 1_555
Al59 Al75 2.781794 1_555
Al59 Er5 3.037569 1_555
Al59 Er8 3.037569 1_655
Al60 Al72 2.741782 1_554
Al60 Al75 2.741890 1_555
Al60 Al62 2.800522 1_555
Al60 Al61 2.800523 1_555
Al60 Er1 3.046117 1_554
Al60 Er5 3.046409 1_555
Al60 Al9 3.072899 1_555
Al60 Er2 3.345913 1_554
Al60 Er4 3.345951 1_545
Al61 Al72 2.741789 1_554
Al61 Al75 2.741898 1_555
Al61 Al62 2.800530 1_555
Al61 Er2 3.046114 1_554
Al61 Er3 3.046413 1_555
Al61 Er5 3.345922 1_555
Al61 Er0 3.345932 1_554
Al62 Al72 2.741789 1_554
Al62 Al75 2.741895 1_555
Al62 Er0 3.046130 1_554
Al62 Er4 3.046404 1_545
Al62 Er1 3.345910 1_554
Al62 Er3 3.345951 1_555
Al63 Al73 2.741783 1_554
Al63 Al74 2.741887 1_555
Al63 Al64 2.800522 1_555
Al63 Al65 2.800522 1_555
Al63 Er2 3.046119 1_454
Al63 Er4 3.046402 1_555
Al63 Er1 3.345918 1_564
Al63 Er5 3.345928 1_455
Al64 Al73 2.741786 1_554
Al64 Al74 2.741896 1_555
Al64 Al65 2.800527 1_555
Al64 Er1 3.046114 1_564
Al64 Er3 3.046419 1_555
Al64 Al8 3.072902 1_555
Al64 Er0 3.345924 1_554
Al64 Er4 3.345941 1_555
Al65 Al73 2.741791 1_554
Al65 Al74 2.741895 1_555
Al65 Er0 3.046125 1_554
Al65 Er5 3.046406 1_455
Al65 Al7 3.072902 1_555
Al65 Er2 3.345909 1_454
Al65 Er3 3.345955 1_555
Al66 Al79 2.741784 1_555
Al66 Al76 2.741892 1_555
Al66 Al67 2.800523 1_555
Al66 Al68 2.800530 1_555
Al66 Er11 3.046114 1_555
Al66 Er7 3.046413 1_555
Al66 Er8 3.345922 1_555
Al66 Er10 3.345932 1_565
Al67 Al79 2.741788 1_555
Al67 Al76 2.741895 1_555
Al67 Al68 2.800522 1_555
Al67 Er9 3.046117 1_555
Al67 Er8 3.046409 1_555
Al67 Er11 3.345913 1_555
Al67 Er6 3.345951 1_555
Al68 Al79 2.741789 1_555
Al68 Al76 2.741895 1_555
Al68 Er10 3.046130 1_565
Al68 Er6 3.046404 1_555
Al68 Er9 3.345910 1_555
Al68 Er7 3.345951 1_555
Al69 Al78 2.741785 1_555
Al69 Al77 2.741890 1_555
Al69 Al71 2.800522 1_555
Al69 Al70 2.800527 1_555
Al69 Er10 3.046125 1_555
Al69 Er8 3.046406 1_655
Al69 Er11 3.345909 1_655
Al69 Er7 3.345955 1_545
Al70 Al78 2.741786 1_555
Al70 Al77 2.741896 1_555
Al70 Al71 2.800522 1_555
Al70 Er9 3.046114 1_555
Al70 Er7 3.046419 1_545
Al70 Er10 3.345924 1_555
Al70 Er6 3.345941 1_555
Al71 Al78 2.741789 1_555
Al71 Al77 2.741893 1_555
Al71 Er11 3.046119 1_655
Al71 Er6 3.046402 1_555
Al71 Er9 3.345918 1_555
Al71 Er8 3.345928 1_655
Al72 Er2 3.188731 1_555
Al72 Er1 3.188733 1_555
Al72 Er0 3.188751 1_555
Al73 Er2 3.188733 1_455
Al73 Er1 3.188734 1_565
Al73 Er0 3.188742 1_555
Al74 Al8 2.701561 1_555
Al74 Er4 3.188686 1_555
Al74 Er5 3.188691 1_455
Al74 Er3 3.188709 1_555
Al75 Al9 2.701548 1_555
Al75 Er5 3.188691 1_555
Al75 Er4 3.188695 1_545
Al75 Er3 3.188699 1_555
Al76 Er7 3.188689 1_555
Al76 Er8 3.188692 1_555
Al76 Er6 3.188704 1_555
Al77 Er8 3.188689 1_655
Al77 Er6 3.188696 1_555
Al77 Er7 3.188700 1_545
Al78 Er10 3.188732 1_555
Al78 Er11 3.188734 1_655
Al78 Er9 3.188743 1_555
Al79 Er11 3.188730 1_555
Al79 Er10 3.188743 1_565
Al79 Er9 3.188743 1_555
Al80 Cr2 2.537515 1_655
Al80 Cr1 2.537524 1_565
Al80 Al81 2.708080 1_655
Al80 Al82 2.708084 1_665
Al81 Cr2 2.537515 1_555
Al81 Cr0 2.537524 1_565
Al81 Al82 2.708084 1_565
Al82 Cr1 2.537506 1_455
Al82 Cr0 2.537506 1_555
Al83 Cr5 2.537551 1_555
Al83 Cr4 2.537584 1_545
Al83 Al84 2.708161 1_455
Al83 Al85 2.708174 1_545
Al84 Cr5 2.537551 1_655
Al84 Cr3 2.537584 1_545
Al84 Al85 2.708174 1_645
Al84 Al9 2.771062 1_555
Al85 Cr4 2.537578 1_555
Al85 Cr3 2.537578 1_455
Cr0 Er0 3.445737 1_555
Cr0 Er9 3.445763 1_555
Cr1 Er10 3.445737 1_555
Cr1 Er1 3.445763 1_555
Cr2 Er2 3.445756 1_455
Cr2 Er11 3.445756 1_555
Cr3 Er6 3.445664 1_555
Cr3 Er3 3.445675 1_555
Cr4 Er4 3.445664 1_555
Cr4 Er7 3.445675 1_555
Cr5 Er5 3.445711 1_455
Cr5 Er8 3.445711 1_555
