# generated using pymatgen
data_MgTiFe(PO4)3
_symmetry_space_group_name_H-M   'P 1'
_cell_length_a   8.50781763
_cell_length_b   8.50781763
_cell_length_c   8.50781773
_cell_angle_alpha   60.88490314
_cell_angle_beta   60.88490314
_cell_angle_gamma   60.88490709
_symmetry_Int_Tables_number   1
_chemical_formula_structural   MgTiFe(PO4)3
_chemical_formula_sum   'Mg2 Ti2 Fe2 P6 O24'
_cell_volume   444.13753994
_cell_formula_units_Z   2
loop_
 _symmetry_equiv_pos_site_id
 _symmetry_equiv_pos_as_xyz
  1  'x, y, z'
loop_
 _atom_site_type_symbol
 _atom_site_label
 _atom_site_symmetry_multiplicity
 _atom_site_fract_x
 _atom_site_fract_y
 _atom_site_fract_z
 _atom_site_occupancy
  Mg  Mg0  1  0.00201900  0.00201900  0.00201900  1
  Mg  Mg1  1  0.50201900  0.50201900  0.50201900  1
  Ti  Ti0  1  0.85553800  0.85553800  0.85553800  1
  Ti  Ti1  1  0.35553800  0.35553800  0.35553800  1
  Fe  Fe0  1  0.64462000  0.64462000  0.64462000  1
  Fe  Fe1  1  0.14462000  0.14462000  0.14462000  1
  P  P0  1  0.95397600  0.54462000  0.24913000  1
  P  P1  1  0.54462000  0.24913000  0.95397600  1
  P  P2  1  0.24913000  0.95397600  0.54462000  1
  P  P3  1  0.74913000  0.04462000  0.45397600  1
  P  P4  1  0.45397600  0.74913000  0.04462000  1
  P  P5  1  0.04462000  0.45397600  0.74913000  1
  O  O0  1  0.88934400  0.49663200  0.68059200  1
  O  O1  1  0.68059200  0.88934400  0.49663200  1
  O  O2  1  0.94611700  0.74170600  0.08799900  1
  O  O3  1  0.49663200  0.68059200  0.88934400  1
  O  O4  1  0.99663200  0.38934400  0.18059200  1
  O  O5  1  0.75878400  0.55995700  0.40847100  1
  O  O6  1  0.74170600  0.08799900  0.94611700  1
  O  O7  1  0.55995700  0.40847100  0.75878400  1
  O  O8  1  0.81431400  0.99620700  0.61997700  1
  O  O9  1  0.40847100  0.75878400  0.55995700  1
  O  O10  1  0.90847100  0.05995700  0.25878400  1
  O  O11  1  0.61997700  0.81431400  0.99620700  1
  O  O12  1  0.38934400  0.18059200  0.99663200  1
  O  O13  1  0.08799900  0.94611700  0.74170600  1
  O  O14  1  0.58799900  0.24170600  0.44611700  1
  O  O15  1  0.18059200  0.99663200  0.38934400  1
  O  O16  1  0.44611700  0.58799900  0.24170600  1
  O  O17  1  0.25878400  0.90847100  0.05995700  1
  O  O18  1  0.24170600  0.44611700  0.58799900  1
  O  O19  1  0.99620700  0.61997700  0.81431400  1
  O  O20  1  0.49620700  0.31431400  0.11997700  1
  O  O21  1  0.05995700  0.25878400  0.90847100  1
  O  O22  1  0.31431400  0.11997700  0.49620700  1
  O  O23  1  0.11997700  0.49620700  0.31431400  1
loop_
_geom_bond_atom_site_label_1
_geom_bond_atom_site_label_2
_geom_bond_distance
_geom_bond_site_symmetry_2
Mg0 O21 2.150042 1_554
Mg0 O10 2.150042 1_455
Mg0 O17 2.150042 1_545
Mg0 O2 2.185430 1_445
Mg0 O13 2.185430 1_544
Mg0 O6 2.185430 1_454
Mg1 O5 2.150042 1_555
Mg1 O7 2.150042 1_555
Mg1 O9 2.150042 1_555
Mg1 O18 2.185430 1_555
Mg1 O16 2.185430 1_555
Mg1 O14 2.185430 1_555
Fe0 O1 1.925615 1_555
Fe0 O3 1.925615 1_555
Fe0 O0 1.925615 1_555
Fe0 O7 2.080198 1_555
Fe0 O5 2.080198 1_555
Fe0 O9 2.080199 1_555
Fe1 O12 1.925615 1_554
Fe1 O15 1.925615 1_545
Fe1 O4 1.925615 1_455
Fe1 O10 2.080198 1_455
Fe1 O21 2.080198 1_554
Fe1 O17 2.080199 1_545
O0 P5 1.514618 1_655
O1 P3 1.514618 1_565
O2 P0 1.561584 1_555
O2 Ti0 2.082356 1_554
O3 P4 1.514618 1_556
O4 P0 1.514618 1_555
O5 P0 1.543723 1_555
O6 P1 1.561584 1_555
O6 Ti0 2.082356 1_545
O7 P1 1.543723 1_555
O8 P3 1.563850 1_565
O8 Ti0 1.874369 1_555
O9 P2 1.543723 1_555
O10 P3 1.543723 1_555
O11 P4 1.563850 1_556
O11 Ti0 1.874369 1_555
O12 P1 1.514618 1_555
O13 P2 1.561584 1_555
O13 Ti0 2.082356 1_455
O14 P3 1.561584 1_555
O14 Ti1 2.082356 1_555
O15 P2 1.514618 1_555
O16 P4 1.561584 1_555
O16 Ti1 2.082356 1_555
O17 P4 1.543723 1_555
O18 P5 1.561584 1_555
O18 Ti1 2.082356 1_555
O19 P5 1.563850 1_655
O19 Ti0 1.874369 1_555
O20 P1 1.563850 1_554
O20 Ti1 1.874369 1_555
O21 P5 1.543723 1_555
O22 P2 1.563850 1_545
O22 Ti1 1.874369 1_555
O23 P0 1.563850 1_455
O23 Ti1 1.874369 1_555
