# generated using pymatgen
data_V2OF5
_symmetry_space_group_name_H-M   'P 1'
_cell_length_a   5.27210664
_cell_length_b   5.42093702
_cell_length_c   17.40400014
_cell_angle_alpha   91.72062376
_cell_angle_beta   98.45997220
_cell_angle_gamma   60.90718669
_symmetry_Int_Tables_number   1
_chemical_formula_structural   V2OF5
_chemical_formula_sum   'V8 O4 F20'
_cell_volume   429.42104322
_cell_formula_units_Z   4
loop_
 _symmetry_equiv_pos_site_id
 _symmetry_equiv_pos_as_xyz
  1  'x, y, z'
loop_
 _atom_site_type_symbol
 _atom_site_label
 _atom_site_symmetry_multiplicity
 _atom_site_fract_x
 _atom_site_fract_y
 _atom_site_fract_z
 _atom_site_occupancy
  V  V0  1  0.76787600  0.60653000  0.12087100  1
  V  V1  1  0.75283100  0.10928300  0.62382300  1
  V  V2  1  0.49999500  0.25500200  0.25094500  1
  V  V3  1  0.49588000  0.73277300  0.75675000  1
  V  V4  1  0.26881900  0.85171500  0.37094300  1
  V  V5  1  0.25319400  0.38210000  0.87366000  1
  V  V6  1  0.99946100  0.01272900  0.00156600  1
  V  V7  1  0.99994200  0.51662100  0.50376900  1
  O  O0  1  0.94985100  0.33048000  0.06608300  1
  O  O1  1  0.95861100  0.78875000  0.55947400  1
  O  O2  1  0.44530400  0.58031100  0.31555200  1
  O  O3  1  0.42383700  0.59128000  0.82976800  1
  F  F0  1  0.92729000  0.84066800  0.09039200  1
  F  F1  1  0.54075100  0.92741100  0.18640700  1
  F  F2  1  0.92172000  0.05038400  0.28942700  1
  F  F3  1  0.93204700  0.31740900  0.58445400  1
  F  F4  1  0.92495200  0.53762900  0.78598000  1
  F  F5  1  0.42423300  0.80085200  0.03858300  1
  F  F6  1  0.56431600  0.42559500  0.16294600  1
  F  F7  1  0.57763800  0.90621400  0.66769500  1
  F  F8  1  0.57427600  0.70040200  0.46253100  1
  F  F9  1  0.52135500  0.44415300  0.68422200  1
  F  F10  1  0.42760700  0.08790300  0.33857800  1
  F  F11  1  0.42672700  0.28136000  0.53656100  1
  F  F12  1  0.57509600  0.21731900  0.96288200  1
  F  F13  1  0.06404000  0.67243300  0.41223300  1
  F  F14  1  0.07261400  0.46259800  0.21296400  1
  F  F15  1  0.07723500  0.96607000  0.71132900  1
  F  F16  1  0.48457500  0.05940400  0.81250100  1
  F  F17  1  0.02656200  0.69128500  0.93838800  1
  F  F18  1  0.04577600  0.18615600  0.43705800  1
  F  F19  1  0.07558500  0.16717900  0.91166900  1
loop_
_geom_bond_atom_site_label_1
_geom_bond_atom_site_label_2
_geom_bond_distance
_geom_bond_site_symmetry_2
O0 V0 1.690078 1_555
O0 V6 1.956629 1_555
O1 V7 1.681449 1_555
O1 V1 1.964160 1_565
O2 V4 1.675477 1_555
O2 V2 1.984734 1_555
O3 V3 1.682675 1_555
O3 V5 1.981170 1_555
F0 V0 1.951329 1_555
F0 V6 2.002359 1_565
F1 V0 2.004433 1_555
F1 V2 2.010373 1_565
F2 V2 1.957174 1_555
F2 V4 1.983091 1_645
F3 V7 1.970054 1_555
F3 V1 1.977037 1_555
F4 V3 1.965110 1_555
F4 V5 1.978789 1_655
F5 V6 1.966723 1_465
F5 V0 1.978455 1_555
F6 V2 1.964338 1_555
F6 V0 1.986956 1_555
F7 V1 1.973489 1_565
F7 V3 2.037206 1_555
F8 V4 1.961048 1_555
F8 V7 1.984623 1_555
F9 V3 1.945832 1_555
F9 V1 1.999545 1_555
F10 V4 1.970229 1_545
F10 V2 1.970460 1_555
F11 V1 1.972232 1_555
F11 V7 1.972382 1_455
F12 V6 1.969133 1_556
F12 V5 1.980662 1_555
F13 V7 1.970368 1_455
F13 V4 1.979162 1_555
F14 V0 1.964004 1_455
F14 V2 1.980130 1_555
F15 V1 1.964843 1_465
F15 V3 1.981925 1_555
F16 V5 1.968816 1_555
F16 V3 1.972669 1_545
F17 V5 1.959873 1_555
F17 V6 1.988688 1_466
F18 V7 2.037722 1_455
F18 V4 2.047773 1_545
F19 V6 1.974876 1_456
F19 V5 1.990280 1_555
