# generated using pymatgen
data_Na7La7Th2Ti18O54
_symmetry_space_group_name_H-M   'P 1'
_cell_length_a   5.47095164
_cell_length_b   5.47095151
_cell_length_c   49.75348350
_cell_angle_alpha   119.66041250
_cell_angle_beta   119.66041164
_cell_angle_gamma   89.99440362
_symmetry_Int_Tables_number   1
_chemical_formula_structural   Na7La7Th2Ti18O54
_chemical_formula_sum   'Na7 La7 Th2 Ti18 O54'
_cell_volume   1063.78225670
_cell_formula_units_Z   1
loop_
 _symmetry_equiv_pos_site_id
 _symmetry_equiv_pos_as_xyz
  1  'x, y, z'
loop_
 _atom_site_type_symbol
 _atom_site_label
 _atom_site_symmetry_multiplicity
 _atom_site_fract_x
 _atom_site_fract_y
 _atom_site_fract_z
 _atom_site_occupancy
  Na  Na0  1  0.23519150  0.73519150  0.94115447  1
  Na  Na1  1  0.25200971  0.75200971  0.72265977  1
  Na  Na2  1  0.25354150  0.75354150  0.61190172  1
  Na  Na3  1  0.25204945  0.75204945  0.50046070  1
  Na  Na4  1  0.25313779  0.75313779  0.38959250  1
  Na  Na5  1  0.76111502  0.26111502  0.16914641  1
  Na  Na6  1  0.74555148  0.24555148  0.05457556  1
  La  La0  1  0.73011026  0.23011026  0.94002340  1
  La  La1  1  0.74371712  0.24371712  0.83193335  1
  La  La2  1  0.75503870  0.25503870  0.72334024  1
  La  La3  1  0.75147255  0.25147255  0.61143791  1
  La  La4  1  0.75193764  0.25193764  0.50042941  1
  La  La5  1  0.74784894  0.24784894  0.38840525  1
  La  La6  1  0.76520037  0.26520037  0.28114992  1
  Th  Th0  1  0.26381641  0.76381641  0.16973794  1
  Th  Th1  1  0.24230770  0.74230770  0.05386252  1
  Ti  Ti0  1  0.98610474  0.98610099  0.88579590  1
  Ti  Ti1  1  0.99990227  0.99988839  0.77775133  1
  Ti  Ti2  1  0.48610099  0.48610474  0.88579590  1
  Ti  Ti3  1  0.00272339  0.00273245  0.66727485  1
  Ti  Ti4  1  0.49988839  0.49990227  0.77775133  1
  Ti  Ti5  1  0.00323157  0.00323499  0.55627312  1
  Ti  Ti6  1  0.50273245  0.50272339  0.66727485  1
  Ti  Ti7  1  0.00353961  0.00353393  0.44522338  1
  Ti  Ti8  1  0.50323499  0.50323157  0.55627312  1
  Ti  Ti9  1  0.00558097  0.00555818  0.33456021  1
  Ti  Ti10  1  0.50353393  0.50353961  0.44522338  1
  Ti  Ti11  1  0.01288083  0.01286888  0.22508511  1
  Ti  Ti12  1  0.50555818  0.50558097  0.33456021  1
  Ti  Ti13  1  0.00202211  0.00204232  0.11157014  1
  Ti  Ti14  1  0.51286888  0.51288083  0.22508511  1
  Ti  Ti15  1  0.99265216  0.99264571  0.99836909  1
  Ti  Ti16  1  0.50204232  0.50202211  0.11157014  1
  Ti  Ti17  1  0.49264571  0.49265216  0.99836909  1
  O  O0  1  0.25768463  0.25772110  0.94615707  1
  O  O1  1  0.21688131  0.71688131  0.88961263  1
  O  O2  1  0.29336753  0.23344653  0.89186783  1
  O  O3  1  0.25000516  0.24999037  0.83333189  1
  O  O4  1  0.75772110  0.75768463  0.94615707  1
  O  O5  1  0.20041034  0.70041034  0.77498234  1
  O  O6  1  0.73344653  0.79336753  0.89186783  1
  O  O7  1  0.29828952  0.20946568  0.77863907  1
  O  O8  1  0.78962505  0.28962505  0.88961107  1
  O  O9  1  0.24825084  0.24825728  0.72183456  1
  O  O10  1  0.74999037  0.75000516  0.83333189  1
  O  O11  1  0.19548163  0.69548163  0.66504075  1
  O  O12  1  0.70946568  0.79828952  0.77863907  1
  O  O13  1  0.30294443  0.20786938  0.66786731  1
  O  O14  1  0.77441152  0.27441152  0.77498268  1
  O  O15  1  0.24880787  0.24877243  0.61084143  1
  O  O16  1  0.74825728  0.74825084  0.72183456  1
  O  O17  1  0.19694884  0.69694884  0.55411924  1
  O  O18  1  0.70786938  0.80294443  0.66786731  1
  O  O19  1  0.30119369  0.20738259  0.55650876  1
  O  O20  1  0.78992659  0.28992659  0.66504542  1
  O  O21  1  0.24895698  0.24888840  0.49975998  1
  O  O22  1  0.74877243  0.74880787  0.61084143  1
  O  O23  1  0.19396753  0.69396753  0.44265888  1
  O  O24  1  0.70738259  0.80119369  0.55650876  1
  O  O25  1  0.30292597  0.20704159  0.44555289  1
  O  O26  1  0.79018247  0.29018247  0.55413000  1
  O  O27  1  0.24954847  0.24950457  0.38878640  1
  O  O28  1  0.74888840  0.74895698  0.49975998  1
  O  O29  1  0.20405436  0.70405436  0.33239269  1
  O  O30  1  0.70704159  0.80292597  0.44555289  1
  O  O31  1  0.29168948  0.22265685  0.33493035  1
  O  O32  1  0.79002813  0.29002813  0.44267204  1
  O  O33  1  0.24550003  0.24546933  0.27677619  1
  O  O34  1  0.74950457  0.74954847  0.38878640  1
  O  O35  1  0.21573590  0.71573590  0.21716294  1
  O  O36  1  0.72265685  0.79168948  0.33493035  1
  O  O37  1  0.28185453  0.19489663  0.21964228  1
  O  O38  1  0.78746746  0.28746746  0.33239953  1
  O  O39  1  0.24287291  0.24283693  0.16507959  1
  O  O40  1  0.74546933  0.74550003  0.27677619  1
  O  O41  1  0.19627870  0.69627870  0.11379103  1
  O  O42  1  0.69489663  0.78185453  0.21964228  1
  O  O43  1  0.30166088  0.16967122  0.10792372  1
  O  O44  1  0.73875305  0.23875305  0.21717203  1
  O  O45  1  0.25495810  0.25508894  0.05666359  1
  O  O46  1  0.74283693  0.74287291  0.16507959  1
  O  O47  1  0.20745807  0.70745807  0.00239437  1
  O  O48  1  0.66967122  0.80166088  0.10792372  1
  O  O49  1  0.29241305  0.23733703  0.00330415  1
  O  O50  1  0.82785134  0.32785134  0.11379054  1
  O  O51  1  0.75508894  0.75495810  0.05666359  1
  O  O52  1  0.73733703  0.79241305  0.00330415  1
  O  O53  1  0.81402720  0.31402720  0.00237938  1
loop_
_geom_bond_atom_site_label_1
_geom_bond_atom_site_label_2
_geom_bond_distance
_geom_bond_site_symmetry_2
Na0 O1 2.467318 1_555
Na0 O8 2.467398 1_455
Na0 O0 2.741146 1_555
Na0 O4 2.741146 1_455
Na0 O0 2.741349 1_565
Na0 O4 2.741349 1_555
Na0 O2 2.785651 1_555
Na0 O6 2.785651 1_455
Na0 O49 2.800229 1_566
Na0 O52 2.800229 1_556
Na1 O7 2.547202 1_565
Na1 O12 2.547202 1_555
Na1 O11 2.579656 1_555
Na1 O20 2.579886 1_455
Na1 O9 2.735419 1_565
Na1 O16 2.735419 1_555
Na1 O9 2.735847 1_555
Na1 O16 2.735847 1_455
Na1 O14 2.896186 1_565
Na1 O5 2.896699 1_555
Na1 O13 3.015174 1_555
Na1 O18 3.015174 1_455
Na2 O13 2.531789 1_565
Na2 O18 2.531789 1_555
Na2 O26 2.586998 1_455
Na2 O17 2.587425 1_555
Na2 O15 2.735724 1_555
Na2 O22 2.735724 1_455
Na2 O15 2.735747 1_565
Na2 O22 2.735747 1_555
Na3 O19 2.537118 1_565
Na3 O24 2.537118 1_555
Na3 O32 2.580836 1_455
Na3 O23 2.581386 1_555
Na3 O21 2.735546 1_565
Na3 O28 2.735546 1_555
Na3 O21 2.735632 1_555
Na3 O28 2.735632 1_455
Na4 O25 2.529708 1_565
Na4 O30 2.529708 1_555
Na4 O38 2.594161 1_455
Na4 O29 2.594342 1_555
Na4 O27 2.735594 1_565
Na4 O34 2.735594 1_555
Na4 O27 2.735658 1_555
Na4 O34 2.735658 1_455
Na4 O31 2.935915 1_555
Na4 O36 2.935916 1_455
Na4 O23 2.978635 1_555
Na4 O32 2.979399 1_565
Na5 O44 2.513566 1_555
Na5 O35 2.513815 1_655
Na5 O48 2.600226 1_545
Na5 O43 2.600226 1_555
Na5 O46 2.738975 1_545
Na5 O39 2.738975 1_555
Na5 O46 2.739609 1_555
Na5 O39 2.739609 1_655
Na5 O42 2.894179 1_555
Na5 O37 2.894179 1_655
Na6 O52 2.506547 1_545
Na6 O49 2.506547 1_555
Na6 O50 2.541562 1_555
Na6 O41 2.542038 1_655
Na6 O51 2.736423 1_545
Na6 O45 2.736423 1_555
Na6 O51 2.736541 1_555
Na6 O45 2.736541 1_655
La0 O6 2.413979 1_545
La0 O2 2.413979 1_555
La0 O53 2.688357 1_556
La0 O47 2.688843 1_656
La0 O4 2.744005 1_555
La0 O0 2.744005 1_655
La0 O4 2.744292 1_545
La0 O0 2.744292 1_555
La0 O8 2.849494 1_555
La0 O1 2.849605 1_545
La0 O52 3.109473 1_556
La0 O49 3.109473 1_656
La1 O12 2.473384 1_545
La1 O7 2.473384 1_555
La1 O1 2.633297 1_655
La1 O8 2.633344 1_555
La1 O10 2.735899 1_555
La1 O3 2.735899 1_655
La1 O10 2.735956 1_545
La1 O3 2.735956 1_555
La1 O14 3.004489 1_555
La1 O5 3.004901 1_545
La1 O6 3.037902 1_555
La1 O2 3.037903 1_655
La2 O5 2.466698 1_655
La2 O14 2.466818 1_555
La2 O18 2.518056 1_545
La2 O13 2.518056 1_555
La2 O16 2.735931 1_555
La2 O9 2.735931 1_655
La2 O16 2.736068 1_545
La2 O9 2.736068 1_555
La2 O12 3.008478 1_555
La2 O7 3.008479 1_655
La2 O20 3.095290 1_555
La2 O11 3.095464 1_545
La3 O20 2.468112 1_555
La3 O11 2.468139 1_655
La3 O24 2.506016 1_545
La3 O19 2.506016 1_555
La3 O22 2.735452 1_545
La3 O15 2.735452 1_555
La3 O22 2.735664 1_555
La3 O15 2.735664 1_655
La3 O18 3.053072 1_555
La3 O13 3.053072 1_655
La3 O26 3.068339 1_555
La3 O17 3.068651 1_545
La4 O17 2.473530 1_655
La4 O26 2.473756 1_555
La4 O30 2.499535 1_545
La4 O25 2.499535 1_555
La4 O28 2.735406 1_545
La4 O21 2.735406 1_555
La4 O28 2.735753 1_555
La4 O21 2.735753 1_655
La4 O24 3.041219 1_555
La4 O19 3.041219 1_655
La4 O32 3.087066 1_555
La4 O23 3.087493 1_545
La5 O23 2.482040 1_655
La5 O32 2.482545 1_555
La5 O36 2.528121 1_545
La5 O31 2.528121 1_555
La5 O34 2.735424 1_555
La5 O27 2.735424 1_655
La5 O34 2.735595 1_545
La5 O27 2.735595 1_555
La5 O38 3.008980 1_555
La5 O29 3.009776 1_545
La5 O30 3.072249 1_555
La5 O25 3.072249 1_655
La6 O29 2.431798 1_655
La6 O38 2.432393 1_555
La6 O42 2.707706 1_545
La6 O37 2.707706 1_555
La6 O40 2.739784 1_555
La6 O33 2.739784 1_655
La6 O40 2.739994 1_545
La6 O33 2.739994 1_555
La6 O36 2.915274 1_555
La6 O31 2.915274 1_655
La6 O44 3.043431 1_555
La6 O35 3.044123 1_545
O0 Ti17 1.855656 1_555
O0 Ti0 2.145283 1_445
O1 Ti0 1.959260 1_455
O1 Ti2 1.959260 1_555
O2 Ti0 1.959978 1_445
O2 Ti2 1.960266 1_555
O3 Ti2 1.864612 1_555
O3 Ti1 1.975377 1_445
O4 Ti15 1.855656 1_555
O4 Ti2 2.145283 1_555
O5 Ti1 1.957702 1_455
O5 Ti4 1.957702 1_555
O6 Ti2 1.959978 1_555
O6 Ti0 1.960266 1_555
O7 Ti1 1.964797 1_445
O7 Ti4 1.965005 1_555
O8 Ti0 1.959238 1_545
O8 Ti2 1.959238 1_555
O9 Ti3 1.939095 1_555
O9 Ti4 1.987326 1_555
O10 Ti0 1.864612 1_555
O10 Ti4 1.975377 1_555
O11 Ti3 1.969982 1_565
O11 Ti6 1.969982 1_555
O12 Ti4 1.964797 1_555
O12 Ti1 1.965006 1_555
O13 Ti6 1.969028 1_555
O13 Ti3 1.969239 1_555
O14 Ti1 1.957750 1_545
O14 Ti4 1.957750 1_555
O15 Ti5 1.939401 1_555
O15 Ti6 2.005688 1_555
O16 Ti6 1.939095 1_555
O16 Ti1 1.987326 1_555
O17 Ti5 1.968991 1_565
O17 Ti8 1.968991 1_555
O18 Ti3 1.969028 1_665
O18 Ti6 1.969239 1_555
O19 Ti5 1.968092 1_555
O19 Ti8 1.968171 1_555
O20 Ti3 1.969960 1_655
O20 Ti6 1.969960 1_555
O21 Ti7 1.938274 1_555
O21 Ti8 2.008521 1_555
O22 Ti8 1.939401 1_555
O22 Ti3 2.005688 1_665
O23 Ti7 1.971643 1_565
O23 Ti10 1.971643 1_555
O24 Ti8 1.968092 1_555
O24 Ti5 1.968171 1_665
O25 Ti7 1.969368 1_555
O25 Ti10 1.969919 1_555
O26 Ti5 1.968951 1_655
O26 Ti8 1.968951 1_555
O27 Ti9 1.927241 1_555
O27 Ti10 2.005815 1_555
O28 Ti10 1.938274 1_555
O28 Ti5 2.008521 1_665
O29 Ti9 1.962410 1_565
O29 Ti12 1.962410 1_555
O30 Ti10 1.969368 1_555
O30 Ti7 1.969919 1_665
O31 Ti9 1.952271 1_555
O31 Ti12 1.953245 1_555
O32 Ti7 1.971581 1_655
O32 Ti10 1.971581 1_555
O33 Ti11 1.837142 1_555
O33 Ti12 2.053689 1_555
O34 Ti12 1.927241 1_555
O34 Ti7 2.005815 1_665
O35 Ti11 1.956540 1_565
O35 Ti14 1.956540 1_555
O35 Th0 2.633344 1_555
O36 Ti12 1.952271 1_555
O36 Ti9 1.953245 1_665
O37 Ti11 1.972842 1_555
O37 Ti14 1.972968 1_555
O37 Th0 2.387204 1_545
O38 Ti9 1.962395 1_655
O38 Ti12 1.962395 1_555
O39 Ti13 1.901768 1_555
O39 Ti14 2.132643 1_555
O39 Th0 2.740386 1_545
O39 Th0 2.740577 1_555
O40 Ti14 1.837142 1_555
O40 Ti9 2.053689 1_665
O41 Ti13 2.001593 1_565
O41 Ti16 2.001593 1_555
O41 Th0 2.446504 1_555
O42 Ti14 1.972842 1_555
O42 Ti11 1.972968 1_665
O42 Th0 2.387204 1_555
O43 Ti16 2.004477 1_555
O43 Ti13 2.005147 1_555
O43 Th1 2.391300 1_545
O44 Ti14 1.956584 1_555
O44 Ti11 1.956584 1_655
O44 Th0 2.633571 1_545
O45 Ti16 1.951422 1_555
O45 Ti15 2.071832 1_444
O45 Th1 2.736320 1_555
O45 Th1 2.738253 1_545
O46 Ti16 1.901768 1_555
O46 Ti11 2.132643 1_665
O46 Th0 2.740386 1_555
O46 Th0 2.740577 1_655
O47 Ti15 1.982807 1_454
O47 Ti17 1.982807 1_554
O47 Th1 2.379828 1_555
O48 Ti13 2.004477 1_665
O48 Ti16 2.005147 1_555
O48 Th1 2.391300 1_555
O49 Ti17 1.953811 1_554
O49 Ti15 1.954097 1_444
O49 Th1 2.799893 1_555
O50 Ti13 2.001599 1_655
O50 Ti16 2.001599 1_555
O50 Th0 2.446491 1_655
O51 Ti13 1.951422 1_665
O51 Ti17 2.071832 1_554
O51 Th1 2.736320 1_655
O51 Th1 2.738253 1_555
O52 Ti15 1.953811 1_554
O52 Ti17 1.954097 1_554
O52 Th1 2.799893 1_655
O53 Ti15 1.982863 1_544
O53 Ti17 1.982863 1_554
O53 Th1 2.379562 1_655
