# generated using pymatgen
data_Al11H2NO17
_symmetry_space_group_name_H-M   'P 1'
_cell_length_a   5.65363838
_cell_length_b   5.65363838
_cell_length_c   22.86601100
_cell_angle_alpha   90.00000000
_cell_angle_beta   90.00000000
_cell_angle_gamma   119.94738482
_symmetry_Int_Tables_number   1
_chemical_formula_structural   Al11H2NO17
_chemical_formula_sum   'Al22 H4 N2 O34'
_cell_volume   633.29652581
_cell_formula_units_Z   2
loop_
 _symmetry_equiv_pos_site_id
 _symmetry_equiv_pos_as_xyz
  1  'x, y, z'
loop_
 _atom_site_type_symbol
 _atom_site_label
 _atom_site_symmetry_multiplicity
 _atom_site_fract_x
 _atom_site_fract_y
 _atom_site_fract_z
 _atom_site_occupancy
  Al  Al0  1  0.66754300  0.33379300  0.52472700  1
  Al  Al1  1  0.33379300  0.66754300  0.47527300  1
  Al  Al2  1  0.33379300  0.66754300  0.02472700  1
  Al  Al3  1  0.66754300  0.33379300  0.97527300  1
  Al  Al4  1  0.17101700  0.33593000  0.60645400  1
  Al  Al5  1  0.17122300  0.83505600  0.60650700  1
  Al  Al6  1  0.66804600  0.83409200  0.60658500  1
  Al  Al7  1  0.83409200  0.66804600  0.39341500  1
  Al  Al8  1  0.83505600  0.17122300  0.39349300  1
  Al  Al9  1  0.33593000  0.17101700  0.39354600  1
  Al  Al10  1  0.83409200  0.66804600  0.10658500  1
  Al  Al11  1  0.83505600  0.17122300  0.10650700  1
  Al  Al12  1  0.33593000  0.17101700  0.10645400  1
  Al  Al13  1  0.17101700  0.33593000  0.89354600  1
  Al  Al14  1  0.17122300  0.83505600  0.89349300  1
  Al  Al15  1  0.66804600  0.83409200  0.89341500  1
  Al  Al16  1  0.00123500  0.00123500  0.50000000  1
  Al  Al17  1  0.00123500  0.00123500  0.00000000  1
  Al  Al18  1  0.66676100  0.33343600  0.67544100  1
  Al  Al19  1  0.33343600  0.66676100  0.32455900  1
  Al  Al20  1  0.33343600  0.66676100  0.17544100  1
  Al  Al21  1  0.66676100  0.33343600  0.82455900  1
  H  H0  1  0.39934400  0.86670100  0.75000000  1
  H  H1  1  0.40064100  0.53196000  0.75000000  1
  H  H2  1  0.53196000  0.40064100  0.25000000  1
  H  H3  1  0.86670100  0.39934400  0.25000000  1
  N  N0  1  0.31146500  0.65554900  0.75000000  1
  N  N1  1  0.65554900  0.31146500  0.25000000  1
  O  O0  1  0.50209900  0.99898100  0.64417800  1
  O  O1  1  0.50215300  0.50323300  0.64402600  1
  O  O2  1  0.00765200  0.50392100  0.64609600  1
  O  O3  1  0.50392100  0.00765200  0.35390400  1
  O  O4  1  0.50323300  0.50215300  0.35597400  1
  O  O5  1  0.99898100  0.50209900  0.35582200  1
  O  O6  1  0.50392100  0.00765200  0.14609600  1
  O  O7  1  0.50323300  0.50215300  0.14402600  1
  O  O8  1  0.99898100  0.50209900  0.14417800  1
  O  O9  1  0.50209900  0.99898100  0.85582200  1
  O  O10  1  0.50215300  0.50323300  0.85597400  1
  O  O11  1  0.00765200  0.50392100  0.85390400  1
  O  O12  1  0.00300600  0.00146600  0.64067900  1
  O  O13  1  0.00146600  0.00300600  0.35932100  1
  O  O14  1  0.00146600  0.00300600  0.14067900  1
  O  O15  1  0.00300600  0.00146600  0.85932100  1
  O  O16  1  0.62275100  0.31218400  0.75000000  1
  O  O17  1  0.31218400  0.62275100  0.25000000  1
  O  O18  1  0.84507500  0.68614500  0.54943900  1
  O  O19  1  0.84492500  0.15911700  0.54973700  1
  O  O20  1  0.31546800  0.15772800  0.54925800  1
  O  O21  1  0.15772800  0.31546800  0.45074200  1
  O  O22  1  0.15911700  0.84492500  0.45026300  1
  O  O23  1  0.68614500  0.84507500  0.45056100  1
  O  O24  1  0.15772800  0.31546800  0.04925800  1
  O  O25  1  0.15911700  0.84492500  0.04973700  1
  O  O26  1  0.68614500  0.84507500  0.04943900  1
  O  O27  1  0.84507500  0.68614500  0.95056100  1
  O  O28  1  0.84492500  0.15911700  0.95026300  1
  O  O29  1  0.31546800  0.15772800  0.95074200  1
  O  O30  1  0.33354500  0.66705700  0.55540300  1
  O  O31  1  0.66705700  0.33354500  0.44459700  1
  O  O32  1  0.66705700  0.33354500  0.05540300  1
  O  O33  1  0.33354500  0.66705700  0.94459700  1
loop_
_geom_bond_atom_site_label_1
_geom_bond_atom_site_label_2
_geom_bond_distance
_geom_bond_site_symmetry_2
Al0 O20 1.813663 1_555
Al0 O19 1.815716 1_555
Al0 O18 1.816259 1_555
Al0 O31 1.832255 1_555
Al1 O21 1.813663 1_555
Al1 O22 1.815716 1_555
Al1 O23 1.816259 1_555
Al1 O30 1.832255 1_555
Al2 O24 1.813663 1_555
Al2 O25 1.815716 1_555
Al2 O26 1.816259 1_555
Al2 O33 1.832255 1_554
Al3 O29 1.813663 1_555
Al3 O28 1.815716 1_555
Al3 O27 1.816259 1_555
Al3 O32 1.832255 1_556
Al4 O12 1.815781 1_555
Al4 O1 1.835657 1_555
Al4 O2 1.858107 1_555
Al4 O30 1.998546 1_555
Al4 O20 2.052786 1_555
Al4 O19 2.059146 1_455
Al5 O12 1.814801 1_565
Al5 O0 1.835572 1_555
Al5 O2 1.857677 1_555
Al5 O30 1.995013 1_555
Al5 O20 2.054581 1_565
Al5 O18 2.064396 1_455
Al6 O12 1.816677 1_665
Al6 O1 1.833027 1_555
Al6 O0 1.833414 1_555
Al6 O30 2.013663 1_555
Al6 O19 2.057118 1_565
Al6 O18 2.060252 1_555
Al7 O13 1.816677 1_665
Al7 O4 1.833027 1_555
Al7 O5 1.833414 1_555
Al7 O31 2.013663 1_555
Al7 O22 2.057118 1_655
Al7 O23 2.060252 1_555
Al8 O13 1.814801 1_655
Al8 O5 1.835572 1_555
Al8 O3 1.857677 1_555
Al8 O31 1.995013 1_555
Al8 O21 2.054581 1_655
Al8 O23 2.064396 1_545
Al9 O13 1.815781 1_555
Al9 O4 1.835657 1_555
Al9 O3 1.858107 1_555
Al9 O31 1.998546 1_555
Al9 O21 2.052786 1_555
Al9 O22 2.059146 1_545
Al10 O14 1.816677 1_665
Al10 O7 1.833027 1_555
Al10 O8 1.833414 1_555
Al10 O32 2.013663 1_555
Al10 O25 2.057118 1_655
Al10 O26 2.060252 1_555
Al11 O14 1.814801 1_655
Al11 O8 1.835572 1_555
Al11 O6 1.857677 1_555
Al11 O32 1.995013 1_555
Al11 O24 2.054581 1_655
Al11 O26 2.064396 1_545
Al12 O14 1.815781 1_555
Al12 O7 1.835657 1_555
Al12 O6 1.858107 1_555
Al12 O32 1.998546 1_555
Al12 O24 2.052786 1_555
Al12 O25 2.059146 1_545
Al13 O15 1.815781 1_555
Al13 O10 1.835657 1_555
Al13 O11 1.858107 1_555
Al13 O33 1.998546 1_555
Al13 O29 2.052786 1_555
Al13 O28 2.059146 1_455
Al14 O15 1.814801 1_565
Al14 O9 1.835572 1_555
Al14 O11 1.857677 1_555
Al14 O33 1.995013 1_555
Al14 O29 2.054581 1_565
Al14 O27 2.064396 1_455
Al15 O15 1.816677 1_665
Al15 O10 1.833027 1_555
Al15 O9 1.833414 1_555
Al15 O33 2.013663 1_555
Al15 O28 2.057118 1_565
Al15 O27 2.060252 1_555
Al16 O21 1.907424 1_555
Al16 O20 1.907424 1_555
Al16 O22 1.912771 1_545
Al16 O19 1.912771 1_455
Al16 O23 1.913265 1_445
Al16 O18 1.913265 1_445
Al17 O24 1.907424 1_555
Al17 O29 1.907424 1_554
Al17 O25 1.912771 1_545
Al17 O28 1.912771 1_454
Al17 O26 1.913265 1_445
Al17 O27 1.913265 1_444
Al18 O16 1.718450 1_555
Al18 O1 1.787621 1_555
Al18 O0 1.787632 1_545
Al18 O2 1.799720 1_655
Al19 O17 1.718450 1_555
Al19 O4 1.787621 1_555
Al19 O5 1.787632 1_455
Al19 O3 1.799720 1_565
Al20 O17 1.718450 1_555
Al20 O7 1.787621 1_555
Al20 O8 1.787632 1_455
Al20 O6 1.799720 1_565
Al21 O16 1.718450 1_555
Al21 O10 1.787621 1_555
Al21 O9 1.787632 1_545
Al21 O11 1.799720 1_655
H0 N0 1.039126 1_555
H1 N0 1.046003 1_555
H2 N1 1.046003 1_555
H3 N1 1.039126 1_555
