# generated using pymatgen
data_Na2Sr2Nb4O13
_symmetry_space_group_name_H-M   'P 1'
_cell_length_a   7.55667150
_cell_length_b   7.55667150
_cell_length_c   7.55667150
_cell_angle_alpha   120.13497106
_cell_angle_beta   119.69816989
_cell_angle_gamma   90.14498023
_symmetry_Int_Tables_number   1
_chemical_formula_structural   Na2Sr2Nb4O13
_chemical_formula_sum   'Na2 Sr2 Nb4 O13'
_cell_volume   305.50236696
_cell_formula_units_Z   1
loop_
 _symmetry_equiv_pos_site_id
 _symmetry_equiv_pos_as_xyz
  1  'x, y, z'
loop_
 _atom_site_type_symbol
 _atom_site_label
 _atom_site_symmetry_multiplicity
 _atom_site_fract_x
 _atom_site_fract_y
 _atom_site_fract_z
 _atom_site_occupancy
  Na  Na0  1  0.75828100  0.98813500  0.22985400  1
  Na  Na1  1  0.75828100  0.52842800  0.77014600  1
  Sr  Sr0  1  0.75246600  0.99131500  0.76115200  1
  Sr  Sr1  1  0.23016300  0.99131500  0.23884800  1
  Nb  Nb0  1  0.24990000  0.49929200  0.24939200  1
  Nb  Nb1  1  0.24990000  0.00050900  0.75060800  1
  Nb  Nb2  1  0.25009400  0.50053300  0.74956100  1
  Nb  Nb3  1  0.75097200  0.50053300  0.25043900  1
  O  O0  1  0.18331300  0.18331300  0.00000000  1
  O  O1  1  0.55919400  0.55919400  0.00000000  1
  O  O2  1  0.19008500  0.56526400  0.00411000  1
  O  O3  1  0.56115400  0.18597500  0.99589000  1
  O  O4  1  0.19008500  0.18597500  0.62482100  1
  O  O5  1  0.56115400  0.56526400  0.37517900  1
  O  O6  1  0.32035000  0.82035000  0.50000000  1
  O  O7  1  0.93477200  0.43477200  0.50000000  1
  O  O8  1  0.31614600  0.42927300  0.49693900  1
  O  O9  1  0.93233400  0.81920700  0.50306100  1
  O  O10  1  0.31614600  0.81920700  0.88687300  1
  O  O11  1  0.93233400  0.42927300  0.11312700  1
  O  O12  1  0.87787300  0.87787300  0.00000000  1
loop_
_geom_bond_atom_site_label_1
_geom_bond_atom_site_label_2
_geom_bond_distance
_geom_bond_site_symmetry_2
Na0 O12 2.152651 1_555
Na0 O1 2.742230 1_555
Na0 O10 2.754244 1_554
Na0 O9 2.754244 1_555
Na0 O4 2.763235 1_665
Na0 O3 2.763235 1_564
Na0 O7 2.774665 1_565
Na1 O12 2.152645 1_556
Na1 O1 2.742232 1_556
Na1 O8 2.754243 1_555
Na1 O11 2.754249 1_556
Na1 O5 2.763230 1_555
Na1 O2 2.763236 1_656
Na1 O7 2.774665 1_555
Nb0 O5 1.996787 1_555
Nb0 O2 1.996787 1_555
Nb0 O0 2.010529 1_555
Nb0 O8 2.024126 1_555
Nb0 O11 2.024126 1_455
Nb0 O6 2.033988 1_555
Nb1 O4 1.996780 1_555
Nb1 O3 1.996785 1_555
Nb1 O0 2.010527 1_556
Nb1 O9 2.024128 1_445
Nb1 O10 2.024133 1_545
Nb1 O6 2.033990 1_545
Nb2 O1 2.001557 1_556
Nb2 O4 2.016333 1_555
Nb2 O2 2.016333 1_556
Nb2 O7 2.020289 1_455
Nb2 O10 2.024018 1_555
Nb2 O8 2.024018 1_555
Nb3 O1 2.001557 1_555
Nb3 O3 2.016333 1_554
Nb3 O5 2.016333 1_555
Nb3 O7 2.020289 1_555
Nb3 O9 2.024018 1_555
Nb3 O11 2.024018 1_555
O0 Sr1 2.736200 1_545
O0 Sr0 2.736206 1_444
O2 Sr1 2.707791 1_555
O3 Sr0 2.707784 1_545
O4 Sr1 2.707791 1_545
O5 Sr0 2.707791 1_555
O6 Sr0 2.694387 1_555
O6 Sr1 2.694393 1_555
O8 Sr1 2.726044 1_545
O9 Sr0 2.726050 1_555
O10 Sr1 2.726044 1_556
O11 Sr0 2.726044 1_544
O12 Sr1 2.180237 1_655
O12 Sr0 2.180237 1_554
