# generated using pymatgen
data_Ba2PrTiO6
_symmetry_space_group_name_H-M   'P 1'
_cell_length_a   8.64192668
_cell_length_b   8.64192668
_cell_length_c   8.64192668
_cell_angle_alpha   90.00000000
_cell_angle_beta   90.00000000
_cell_angle_gamma   90.00000000
_symmetry_Int_Tables_number   1
_chemical_formula_structural   Ba2PrTiO6
_chemical_formula_sum   'Ba8 Pr4 Ti4 O24'
_cell_volume   645.40411790
_cell_formula_units_Z   4
loop_
 _symmetry_equiv_pos_site_id
 _symmetry_equiv_pos_as_xyz
  1  'x, y, z'
loop_
 _atom_site_type_symbol
 _atom_site_label
 _atom_site_symmetry_multiplicity
 _atom_site_fract_x
 _atom_site_fract_y
 _atom_site_fract_z
 _atom_site_occupancy
  Ba  Ba0  1  0.50000000  0.50000000  0.50000000  1
  Ba  Ba1  1  -0.00000000  0.00000000  0.00000000  1
  Ba  Ba2  1  -0.00000000  0.00000000  0.50000000  1
  Ba  Ba3  1  -0.00000000  0.50000000  0.00000000  1
  Ba  Ba4  1  0.50000000  0.00000000  0.00000000  1
  Ba  Ba5  1  0.50000000  0.50000000  0.00000000  1
  Ba  Ba6  1  0.50000000  0.00000000  0.50000000  1
  Ba  Ba7  1  -0.00000000  0.50000000  0.50000000  1
  Pr  Pr0  1  0.75000000  0.75000000  0.75000000  1
  Pr  Pr1  1  0.75000000  0.25000000  0.25000000  1
  Pr  Pr2  1  0.25000000  0.75000000  0.25000000  1
  Pr  Pr3  1  0.25000000  0.25000000  0.75000000  1
  Ti  Ti0  1  0.25000000  0.25000000  0.25000000  1
  Ti  Ti1  1  0.25000000  0.75000000  0.75000000  1
  Ti  Ti2  1  0.75000000  0.25000000  0.75000000  1
  Ti  Ti3  1  0.75000000  0.75000000  0.25000000  1
  O  O0  1  0.23876225  0.26189410  0.47896693  1
  O  O1  1  0.23876225  0.73810590  0.52103307  1
  O  O2  1  0.76123775  0.26189410  0.52103307  1
  O  O3  1  0.76123775  0.73810590  0.47896693  1
  O  O4  1  0.26189410  0.47896693  0.23876225  1
  O  O5  1  0.73810590  0.52103307  0.23876225  1
  O  O6  1  0.26189410  0.52103307  0.76123775  1
  O  O7  1  0.73810590  0.47896693  0.76123775  1
  O  O8  1  0.47896693  0.23876225  0.26189410  1
  O  O9  1  0.52103307  0.23876225  0.73810590  1
  O  O10  1  0.52103307  0.76123775  0.26189410  1
  O  O11  1  0.47896693  0.76123775  0.73810590  1
  O  O12  1  0.26123775  0.23810590  0.02103307  1
  O  O13  1  0.26123775  0.76189410  0.97896693  1
  O  O14  1  0.73876225  0.23810590  0.97896693  1
  O  O15  1  0.73876225  0.76189410  0.02103307  1
  O  O16  1  0.23810590  0.02103307  0.26123775  1
  O  O17  1  0.76189410  0.97896693  0.26123775  1
  O  O18  1  0.23810590  0.97896693  0.73876225  1
  O  O19  1  0.76189410  0.02103307  0.73876225  1
  O  O20  1  0.02103307  0.26123775  0.23810590  1
  O  O21  1  0.97896693  0.26123775  0.76189410  1
  O  O22  1  0.97896693  0.73876225  0.23810590  1
  O  O23  1  0.02103307  0.73876225  0.76189410  1
loop_
_geom_bond_atom_site_label_1
_geom_bond_atom_site_label_2
_geom_bond_distance
_geom_bond_site_symmetry_2
Ba0 O2 3.060047 1_555
Ba0 O3 3.060047 1_555
Ba0 O4 3.060047 1_555
Ba0 O1 3.060047 1_555
Ba0 O8 3.060047 1_555
Ba0 O5 3.060047 1_555
Ba0 O0 3.060047 1_555
Ba0 O9 3.060047 1_555
Ba0 O6 3.060047 1_555
Ba0 O10 3.060047 1_555
Ba0 O11 3.060047 1_555
Ba0 O7 3.060047 1_555
Ba1 O13 3.060047 1_544
Ba1 O17 3.060047 1_445
Ba1 O21 3.060047 1_454
Ba1 O15 3.060047 1_445
Ba1 O12 3.060047 1_555
Ba1 O20 3.060047 1_555
Ba1 O19 3.060047 1_454
Ba1 O16 3.060047 1_555
Ba1 O14 3.060047 1_454
Ba1 O23 3.060047 1_544
Ba1 O22 3.060047 1_445
Ba1 O18 3.060047 1_544
Ba2 O19 2.919695 1_455
Ba2 O17 2.919695 1_445
Ba2 O16 2.919695 1_555
Ba2 O18 2.919695 1_545
Ba2 O2 3.068046 1_455
Ba2 O3 3.068046 1_445
Ba2 O1 3.068046 1_545
Ba2 O0 3.068046 1_555
Ba2 O21 3.201902 1_455
Ba2 O20 3.201902 1_555
Ba2 O23 3.201902 1_545
Ba2 O22 3.201902 1_445
Ba3 O23 2.919695 1_554
Ba3 O22 2.919695 1_455
Ba3 O21 2.919695 1_454
Ba3 O20 2.919695 1_555
Ba3 O7 3.068046 1_454
Ba3 O5 3.068046 1_455
Ba3 O4 3.068046 1_555
Ba3 O6 3.068046 1_554
Ba3 O15 3.201902 1_455
Ba3 O14 3.201902 1_454
Ba3 O12 3.201902 1_555
Ba3 O13 3.201902 1_554
Ba4 O15 2.919695 1_545
Ba4 O12 2.919695 1_555
Ba4 O14 2.919695 1_554
Ba4 O13 2.919695 1_544
Ba4 O9 3.068046 1_554
Ba4 O8 3.068046 1_555
Ba4 O11 3.068046 1_544
Ba4 O10 3.068046 1_545
Ba4 O16 3.201902 1_555
Ba4 O17 3.201902 1_545
Ba4 O18 3.201902 1_544
Ba4 O19 3.201902 1_554
Ba5 O6 2.919695 1_554
Ba5 O7 2.919695 1_554
Ba5 O5 2.919695 1_555
Ba5 O4 2.919695 1_555
Ba5 O14 3.068046 1_554
Ba5 O15 3.068046 1_555
Ba5 O13 3.068046 1_554
Ba5 O12 3.068046 1_555
Ba5 O8 3.201902 1_555
Ba5 O9 3.201902 1_554
Ba5 O10 3.201902 1_555
Ba5 O11 3.201902 1_554
Ba6 O11 2.919695 1_545
Ba6 O10 2.919695 1_545
Ba6 O8 2.919695 1_555
Ba6 O9 2.919695 1_555
Ba6 O18 3.068046 1_545
Ba6 O17 3.068046 1_545
Ba6 O19 3.068046 1_555
Ba6 O16 3.068046 1_555
Ba6 O3 3.201902 1_545
Ba6 O1 3.201902 1_545
Ba6 O0 3.201902 1_555
Ba6 O2 3.201902 1_555
Ba7 O2 2.919695 1_455
Ba7 O3 2.919695 1_455
Ba7 O0 2.919695 1_555
Ba7 O1 2.919695 1_555
Ba7 O20 3.068046 1_555
Ba7 O23 3.068046 1_555
Ba7 O21 3.068046 1_455
Ba7 O22 3.068046 1_455
Ba7 O4 3.201902 1_555
Ba7 O5 3.201902 1_455
Ba7 O6 3.201902 1_555
Ba7 O7 3.201902 1_455
O0 Ti0 1.983762 1_555
O0 Pr3 2.346513 1_555
O1 Ti1 1.983762 1_555
O1 Pr2 2.346513 1_555
O2 Ti2 1.983762 1_555
O2 Pr1 2.346513 1_555
O3 Ti3 1.983762 1_555
O3 Pr0 2.346513 1_555
O4 Ti0 1.983762 1_555
O4 Pr2 2.346513 1_555
O5 Ti3 1.983762 1_555
O5 Pr1 2.346513 1_555
O6 Ti1 1.983762 1_555
O6 Pr3 2.346513 1_555
O7 Ti2 1.983762 1_555
O7 Pr0 2.346513 1_555
O8 Ti0 1.983762 1_555
O8 Pr1 2.346513 1_555
O9 Ti2 1.983762 1_555
O9 Pr3 2.346513 1_555
O10 Ti3 1.983762 1_555
O10 Pr2 2.346513 1_555
O11 Ti1 1.983762 1_555
O11 Pr0 2.346513 1_555
O12 Ti0 1.983762 1_555
O12 Pr3 2.346513 1_554
O13 Ti1 1.983762 1_555
O13 Pr2 2.346513 1_556
O14 Ti2 1.983762 1_555
O14 Pr1 2.346513 1_556
O15 Ti3 1.983762 1_555
O15 Pr0 2.346513 1_554
O16 Ti0 1.983762 1_555
O16 Pr2 2.346513 1_545
O17 Ti3 1.983762 1_555
O17 Pr1 2.346513 1_565
O18 Ti1 1.983762 1_555
O18 Pr3 2.346513 1_565
O19 Ti2 1.983762 1_555
O19 Pr0 2.346513 1_545
O20 Ti0 1.983762 1_555
O20 Pr1 2.346513 1_455
O21 Ti2 1.983762 1_555
O21 Pr3 2.346513 1_655
O22 Ti3 1.983762 1_555
O22 Pr2 2.346513 1_655
O23 Ti1 1.983762 1_555
O23 Pr0 2.346513 1_455
