# generated using pymatgen
data_CaFe2O5
_symmetry_space_group_name_H-M   'P 1'
_cell_length_a   3.61775000
_cell_length_b   5.27881900
_cell_length_c   11.42783001
_cell_angle_alpha   90.00394745
_cell_angle_beta   89.99987147
_cell_angle_gamma   90.00006424
_symmetry_Int_Tables_number   1
_chemical_formula_structural   CaFe2O5
_chemical_formula_sum   'Ca2 Fe4 O10'
_cell_volume   218.24238249
_cell_formula_units_Z   2
loop_
 _symmetry_equiv_pos_site_id
 _symmetry_equiv_pos_as_xyz
  1  'x, y, z'
loop_
 _atom_site_type_symbol
 _atom_site_label
 _atom_site_symmetry_multiplicity
 _atom_site_fract_x
 _atom_site_fract_y
 _atom_site_fract_z
 _atom_site_occupancy
  Ca  Ca0  1  0.75000000  0.86691000  0.25002900  1
  Ca  Ca1  1  0.25000000  0.13315300  0.74999100  1
  Fe  Fe0  1  0.24999800  0.41332800  0.09979100  1
  Fe  Fe1  1  0.75000000  0.58660800  0.90021100  1
  Fe  Fe2  1  0.74999800  0.58667500  0.59979300  1
  Fe  Fe3  1  0.24999900  0.41337600  0.40017500  1
  O  O0  1  0.75000000  0.43552100  0.75001700  1
  O  O1  1  0.24999900  0.56460300  0.24998100  1
  O  O2  1  0.74999800  0.56958600  0.07308100  1
  O  O3  1  0.24999900  0.43030400  0.92690600  1
  O  O4  1  0.75000100  0.56954100  0.42688200  1
  O  O5  1  0.25000000  0.43043100  0.57307400  1
  O  O6  1  0.25000000  0.08181100  0.34933300  1
  O  O7  1  0.75000000  0.91821200  0.65072000  1
  O  O8  1  0.75000000  0.91811000  0.84932800  1
  O  O9  1  0.25000000  0.08183100  0.15068800  1
loop_
_geom_bond_atom_site_label_1
_geom_bond_atom_site_label_2
_geom_bond_distance
_geom_bond_site_symmetry_2
Ca0 O1 2.412193 1_655
Ca0 O1 2.412196 1_555
Ca0 O6 2.417975 1_565
Ca0 O6 2.417976 1_665
Ca0 O9 2.418294 1_665
Ca0 O9 2.418300 1_565
Ca0 O4 2.559141 1_555
Ca0 O2 2.559682 1_555
Ca1 O0 2.412406 1_555
Ca1 O0 2.412409 1_455
Ca1 O7 2.417897 1_545
Ca1 O7 2.417899 1_445
Ca1 O8 2.418575 1_445
Ca1 O8 2.418580 1_545
Ca1 O3 2.558824 1_555
Ca1 O5 2.559424 1_555
Fe0 O9 1.844083 1_555
Fe0 O1 1.892972 1_555
Fe0 O3 1.977738 1_554
Fe0 O2 2.011372 1_555
Fe0 O2 2.011375 1_455
Fe1 O8 1.844058 1_555
Fe1 O0 1.892595 1_555
Fe1 O2 1.977578 1_556
Fe1 O3 2.011445 1_655
Fe1 O3 2.011449 1_555
Fe2 O7 1.844316 1_555
Fe2 O0 1.893154 1_555
Fe2 O4 1.978060 1_555
Fe2 O5 2.011335 1_555
Fe2 O5 2.011348 1_655
Fe3 O6 1.844150 1_555
Fe3 O1 1.893006 1_555
Fe3 O5 1.977904 1_555
Fe3 O4 2.011144 1_455
Fe3 O4 2.011156 1_555
