# generated using pymatgen
data_K2CoH4(I2O7)2
_symmetry_space_group_name_H-M   'P 1'
_cell_length_a   8.10044778
_cell_length_b   8.09462559
_cell_length_c   26.74887849
_cell_angle_alpha   87.68957926
_cell_angle_beta   83.86106431
_cell_angle_gamma   120.90210759
_symmetry_Int_Tables_number   1
_chemical_formula_structural   K2CoH4(I2O7)2
_chemical_formula_sum   'K8 Co4 H16 I16 O56'
_cell_volume   1486.96711606
_cell_formula_units_Z   4
loop_
 _symmetry_equiv_pos_site_id
 _symmetry_equiv_pos_as_xyz
  1  'x, y, z'
loop_
 _atom_site_type_symbol
 _atom_site_label
 _atom_site_symmetry_multiplicity
 _atom_site_fract_x
 _atom_site_fract_y
 _atom_site_fract_z
 _atom_site_occupancy
  K  K0  1  0.34629700  0.34553400  0.99969000  1
  K  K1  1  0.84588800  0.59543800  0.25047200  1
  K  K2  1  0.34560200  0.84566900  0.50008100  1
  K  K3  1  0.84599700  0.09594800  0.74940400  1
  K  K4  1  0.87020000  0.86984200  0.99980600  1
  K  K5  1  0.36930000  0.11960900  0.25042000  1
  K  K6  1  0.86961700  0.36961400  0.50008000  1
  K  K7  1  0.37037200  0.62013900  0.74961700  1
  Co  Co0  1  0.67107500  0.79599800  0.37518100  1
  Co  Co1  1  0.17057000  0.04700800  0.62474100  1
  Co  Co2  1  0.17101300  0.54124000  0.12553500  1
  Co  Co3  1  0.67306100  0.29365200  0.87462300  1
  H  H0  1  0.83068600  0.20253800  0.15695900  1
  H  H1  1  0.33940200  0.45923000  0.40688500  1
  H  H2  1  0.83912400  0.70959600  0.65600900  1
  H  H3  1  0.33094100  0.95280600  0.90619500  1
  H  H4  1  0.85933100  0.23742700  0.09390000  1
  H  H5  1  0.36658700  0.49506700  0.34388200  1
  H  H6  1  0.86586300  0.74548000  0.59306600  1
  H  H7  1  0.35727500  0.98875000  0.84334700  1
  H  H8  1  0.55899700  0.81723700  0.11689100  1
  H  H9  1  0.05243100  0.05808600  0.36672300  1
  H  H10  1  0.55302500  0.30895900  0.61659500  1
  H  H11  1  0.05993900  0.56726600  0.86689800  1
  H  H12  1  0.43167800  0.92523500  0.13379800  1
  H  H13  1  0.92514900  0.16919700  0.38327500  1
  H  H14  1  0.42637800  0.42050300  0.63303700  1
  H  H15  1  0.93182800  0.67567700  0.88285700  1
  I  I0  1  0.10728100  0.96210200  0.12752400  1
  I  I1  1  0.60868900  0.21485700  0.37772500  1
  I  I2  1  0.10968500  0.46574100  0.62737600  1
  I  I3  1  0.60718600  0.71171100  0.87734000  1
  I  I4  1  0.59026500  0.48605200  0.12241400  1
  I  I5  1  0.09228700  0.73602200  0.37273900  1
  I  I6  1  0.59253400  0.98627000  0.62242400  1
  I  I7  1  0.09101100  0.23605800  0.87234500  1
  I  I8  1  0.33460200  0.61100300  0.24097300  1
  I  I9  1  0.83527600  0.86214300  0.48936300  1
  I  I10  1  0.33448700  0.11183900  0.73910600  1
  I  I11  1  0.83375900  0.35972000  0.99068700  1
  I  I12  1  0.34976700  0.82232600  0.00957400  1
  I  I13  1  0.85066800  0.07401300  0.26092300  1
  I  I14  1  0.35151200  0.32448300  0.51064400  1
  I  I15  1  0.85197000  0.57515800  0.75907400  1
  O  O0  1  0.42926200  0.80418000  0.12576800  1
  O  O1  1  0.92304700  0.04817600  0.37470800  1
  O  O2  1  0.42375600  0.29909300  0.62462500  1
  O  O3  1  0.93012000  0.55491600  0.87473500  1
  O  O4  1  0.91322000  0.28953200  0.12552900  1
  O  O5  1  0.42128400  0.54636900  0.37546300  1
  O  O6  1  0.92189800  0.79602600  0.62445400  1
  O  O7  1  0.41120100  0.04162000  0.87476000  1
  O  O8  1  0.71339900  0.47196700  0.02423700  1
  O  O9  1  0.21384800  0.72330800  0.27422100  1
  O  O10  1  0.71287200  0.97233300  0.52292900  1
  O  O11  1  0.21242200  0.22184800  0.77299500  1
  O  O12  1  0.99444000  0.98573100  0.22705200  1
  O  O13  1  0.49519800  0.23555000  0.47711300  1
  O  O14  1  0.99750400  0.48760700  0.72580700  1
  O  O15  1  0.49696800  0.73747800  0.97583600  1
  O  O16  1  0.17352500  0.98862800  0.05860400  1
  O  O17  1  0.67337600  0.23761200  0.30870900  1
  O  O18  1  0.17408900  0.48702900  0.55840300  1
  O  O19  1  0.67367600  0.73740400  0.80839500  1
  O  O20  1  0.54574800  0.48245700  0.19132400  1
  O  O21  1  0.04563200  0.73203900  0.44172200  1
  O  O22  1  0.54622800  0.98217100  0.69142400  1
  O  O23  1  0.04715500  0.23246700  0.94125700  1
  O  O24  1  0.35194200  0.07395300  0.14641700  1
  O  O25  1  0.85301400  0.31951800  0.39656800  1
  O  O26  1  0.35409500  0.57119100  0.64623700  1
  O  O27  1  0.85176000  0.82244300  0.89625500  1
  O  O28  1  0.72041600  0.74949100  0.10353600  1
  O  O29  1  0.21578300  0.99933000  0.35376500  1
  O  O30  1  0.71699100  0.24979900  0.60367000  1
  O  O31  1  0.22055900  0.49954400  0.85349500  1
  O  O32  1  0.02585600  0.70647000  0.14511600  1
  O  O33  1  0.52058800  0.95801200  0.39572800  1
  O  O34  1  0.02236300  0.20929600  0.64586100  1
  O  O35  1  0.52364200  0.45575400  0.89554700  1
  O  O36  1  0.35315300  0.42324400  0.10386300  1
  O  O37  1  0.85395200  0.66596300  0.35449000  1
  O  O38  1  0.35429300  0.91698900  0.60435300  1
  O  O39  1  0.85258900  0.17185300  0.85465000  1
  O  O40  1  0.78754500  0.16753800  0.03855000  1
  O  O41  1  0.28897200  0.41990300  0.28911100  1
  O  O42  1  0.78560700  0.66914200  0.53740100  1
  O  O43  1  0.28467200  0.91782900  0.78680700  1
  O  O44  1  0.70509700  0.07240900  0.21306800  1
  O  O45  1  0.20716800  0.32348500  0.46253400  1
  O  O46  1  0.70871400  0.57680300  0.71094800  1
  O  O47  1  0.20625000  0.82470000  0.96163500  1
  O  O48  1  0.13799100  0.46137900  0.20376700  1
  O  O49  1  0.64106400  0.71451700  0.45093500  1
  O  O50  1  0.13979800  0.96496500  0.70070000  1
  O  O51  1  0.63693200  0.21128100  0.95339200  1
  O  O52  1  0.16318100  0.58813500  0.04655600  1
  O  O53  1  0.66482500  0.84061200  0.29919300  1
  O  O54  1  0.16516800  0.09139800  0.54893100  1
  O  O55  1  0.66483600  0.34255900  0.79665200  1
loop_
_geom_bond_atom_site_label_1
_geom_bond_atom_site_label_2
_geom_bond_distance
_geom_bond_site_symmetry_2
K0 O15 2.766820 1_555
K0 O8 2.768969 1_556
K0 O16 2.792260 1_546
K0 O23 2.792833 1_555
K0 O35 2.871780 1_555
K0 O36 2.881310 1_556
K0 O51 3.220264 1_555
K0 O52 3.228142 1_556
K1 O12 2.756051 1_555
K1 O9 2.765542 1_655
K1 O17 2.789647 1_555
K1 O20 2.811787 1_555
K1 O37 2.863626 1_555
K1 O32 2.906252 1_655
K1 O48 3.232877 1_655
K1 O53 3.252340 1_555
K2 O13 2.749933 1_565
K2 O10 2.753538 1_555
K2 O21 2.796177 1_555
K2 O18 2.796465 1_555
K2 O38 2.871886 1_555
K2 O33 2.872764 1_555
K2 O54 3.253825 1_565
K2 O49 3.260812 1_555
K3 O11 2.755439 1_655
K3 O14 2.762627 1_555
K3 O22 2.788099 1_545
K3 O19 2.803581 1_545
K3 O34 2.855924 1_655
K3 O39 2.905805 1_555
K3 O50 3.244296 1_645
K3 O55 3.248289 1_555
K4 O15 2.800434 1_555
K4 O8 2.804272 1_556
K4 O23 2.819744 1_665
K4 O27 2.820820 1_555
K4 O16 2.820840 1_656
K4 O28 2.822742 1_556
K4 O40 3.006547 1_566
K4 O47 3.007238 1_655
K5 O9 2.792200 1_545
K5 O12 2.804676 1_445
K5 O17 2.816972 1_555
K5 O29 2.817837 1_545
K5 O20 2.828212 1_555
K5 O24 2.829992 1_555
K5 O44 3.010014 1_555
K5 O41 3.014391 1_555
K6 O10 2.794437 1_545
K6 O13 2.797407 1_555
K6 O21 2.816834 1_655
K6 O18 2.820433 1_655
K6 O25 2.821896 1_555
K6 O30 2.822433 1_555
K6 O42 3.013773 1_555
K6 O45 3.019295 1_655
K7 O14 2.796000 1_455
K7 O11 2.802087 1_555
K7 O22 2.812512 1_555
K7 O26 2.816720 1_555
K7 O19 2.821417 1_555
K7 O31 2.826599 1_555
K7 O43 3.006982 1_555
K7 O46 3.019096 1_555
Co0 O5 1.993291 1_555
Co0 O1 2.011441 1_565
Co0 O49 2.054833 1_555
Co0 O53 2.060588 1_555
Co0 O33 2.250516 1_555
Co0 O37 2.254325 1_555
Co1 O6 1.996548 1_445
Co1 O2 2.017328 1_555
Co1 O54 2.054145 1_555
Co1 O50 2.060172 1_545
Co1 O34 2.240726 1_555
Co1 O38 2.258637 1_545
Co2 O4 2.035172 1_455
Co2 O0 2.082506 1_555
Co2 O48 2.112366 1_555
Co2 O52 2.144747 1_555
Co2 O36 2.175861 1_555
Co2 O32 2.232906 1_555
Co3 O7 2.052873 1_555
Co3 O3 2.070526 1_555
Co3 O55 2.121623 1_555
Co3 O51 2.126972 1_555
Co3 O39 2.172860 1_555
Co3 O35 2.246241 1_555
H0 O4 0.999068 1_555
H0 O44 1.685923 1_555
H1 O5 0.998164 1_555
H1 O45 1.699612 1_555
H2 O6 1.000497 1_555
H2 O46 1.674884 1_555
H3 O7 1.000404 1_565
H3 O47 1.665683 1_555
H4 O4 1.001438 1_555
H4 O40 1.662524 1_555
H5 O5 1.000861 1_555
H5 O41 1.669682 1_555
H6 O6 0.998400 1_555
H6 O42 1.700035 1_555
H7 O7 0.997741 1_565
H7 O43 1.695935 1_555
H8 O0 1.001242 1_555
H8 O28 1.670467 1_555
H9 O1 1.007416 1_455
H9 O29 1.630608 1_545
H10 O2 1.006789 1_555
H10 O30 1.637501 1_555
H11 O3 1.001482 1_455
H11 O31 1.664501 1_555
H12 O0 1.002439 1_555
H12 O24 1.662851 1_565
H13 O1 1.007104 1_555
H13 O25 1.633769 1_555
H14 O2 1.007138 1_555
H14 O26 1.636895 1_555
H15 O3 1.003395 1_555
H15 O27 1.654251 1_555
I0 O16 1.835979 1_555
I0 O32 1.841598 1_555
I0 O24 1.846875 1_565
I1 O17 1.839330 1_555
I1 O33 1.839965 1_545
I1 O25 1.847792 1_555
I2 O18 1.838987 1_555
I2 O34 1.840687 1_555
I2 O26 1.848079 1_555
I3 O19 1.837389 1_555
I3 O35 1.842770 1_555
I3 O27 1.846988 1_555
I4 O20 1.836095 1_555
I4 O28 1.844965 1_555
I4 O36 1.847979 1_555
I5 O21 1.839085 1_555
I5 O37 1.840240 1_455
I5 O29 1.848040 1_555
I6 O38 1.839085 1_555
I6 O22 1.839162 1_555
I6 O30 1.847984 1_565
I7 O23 1.835726 1_555
I7 O31 1.845423 1_555
I7 O39 1.846217 1_455
I8 O41 1.826966 1_555
I8 O9 1.834835 1_555
I8 O48 1.857079 1_555
I8 O20 2.688017 1_555
I9 O42 1.826373 1_555
I9 O10 1.835047 1_555
I9 O49 1.863722 1_555
I9 O21 2.669012 1_655
I10 O43 1.826077 1_545
I10 O11 1.835796 1_555
I10 O50 1.864167 1_545
I10 O22 2.675733 1_545
I11 O40 1.827026 1_556
I11 O8 1.835755 1_556
I11 O51 1.857444 1_555
I11 O23 2.692061 1_655
I12 O47 1.826480 1_554
I12 O15 1.835468 1_554
I12 O52 1.855443 1_555
I12 O16 2.699293 1_555
I13 O44 1.826933 1_555
I13 O12 1.835544 1_545
I13 O53 1.864593 1_545
I13 O17 2.673461 1_555
I14 O45 1.826542 1_555
I14 O13 1.834886 1_555
I14 O54 1.864246 1_555
I14 O18 2.667195 1_555
I15 O46 1.827011 1_555
I15 O14 1.835347 1_555
I15 O55 1.855568 1_555
I15 O19 2.689172 1_555
