# generated using pymatgen
data_Mg4FeO5
_symmetry_space_group_name_H-M   'P 1'
_cell_length_a   3.01768734
_cell_length_b   3.02391068
_cell_length_c   24.89874875
_cell_angle_alpha   86.49781525
_cell_angle_beta   86.59882052
_cell_angle_gamma   59.97692049
_symmetry_Int_Tables_number   1
_chemical_formula_structural   Mg4FeO5
_chemical_formula_sum   'Mg8 Fe2 O10'
_cell_volume   196.24465056
_cell_formula_units_Z   2
loop_
 _symmetry_equiv_pos_site_id
 _symmetry_equiv_pos_as_xyz
  1  'x, y, z'
loop_
 _atom_site_type_symbol
 _atom_site_label
 _atom_site_symmetry_multiplicity
 _atom_site_fract_x
 _atom_site_fract_y
 _atom_site_fract_z
 _atom_site_occupancy
  Mg  Mg0  1  0.29944400  0.29929500  0.10162100  1
  Mg  Mg1  1  0.79954800  0.79958100  0.60165300  1
  Mg  Mg2  1  0.20045200  0.20041600  0.39835000  1
  Mg  Mg3  1  0.70056400  0.70069300  0.89837900  1
  Mg  Mg4  1  0.59990100  0.59987700  0.20048800  1
  Mg  Mg5  1  0.09991300  0.09992700  0.70050400  1
  Mg  Mg6  1  0.90009300  0.90006600  0.29949400  1
  Mg  Mg7  1  0.40011000  0.40011500  0.79950800  1
  Fe  Fe0  1  0.49997800  0.50002500  0.50000100  1
  Fe  Fe1  1  0.99997800  0.00002400  0.00000000  1
  O  O0  1  0.25000300  0.24997100  0.24995700  1
  O  O1  1  0.75000700  0.75001800  0.75004500  1
  O  O2  1  0.85171300  0.84363500  0.44661700  1
  O  O3  1  0.35527500  0.35534200  0.94668600  1
  O  O4  1  0.64472300  0.64465300  0.05331400  1
  O  O5  1  0.14827500  0.15638000  0.55338400  1
  O  O6  1  0.55032000  0.54997100  0.34892000  1
  O  O7  1  0.05044100  0.05046800  0.84902700  1
  O  O8  1  0.94957000  0.94952300  0.15098100  1
  O  O9  1  0.44969200  0.45002000  0.65107100  1
loop_
_geom_bond_atom_site_label_1
_geom_bond_atom_site_label_2
_geom_bond_distance
_geom_bond_site_symmetry_2
Mg0 O4 2.099928 1_555
Mg0 O4 2.122408 1_455
Mg0 O8 2.128119 1_545
Mg0 O4 2.128195 1_545
Mg0 O8 2.132740 1_445
Mg0 O8 2.134268 1_455
Mg1 O5 2.102879 1_655
Mg1 O5 2.114464 1_565
Mg1 O9 2.129027 1_655
Mg1 O5 2.131584 1_665
Mg1 O9 2.132996 1_555
Mg1 O9 2.135591 1_565
Mg2 O2 2.102888 1_455
Mg2 O2 2.114408 1_545
Mg2 O6 2.129181 1_455
Mg2 O2 2.131546 1_445
Mg2 O6 2.133163 1_555
Mg2 O6 2.135784 1_545
Mg3 O3 2.099934 1_555
Mg3 O3 2.122386 1_655
Mg3 O7 2.127993 1_565
Mg3 O3 2.128210 1_565
Mg3 O7 2.132650 1_665
Mg3 O7 2.134141 1_655
Mg4 O0 2.129702 1_655
Mg4 O8 2.130761 1_455
Mg4 O8 2.133925 1_555
Mg4 O0 2.134481 1_555
Mg4 O0 2.135618 1_565
Mg4 O8 2.136747 1_545
Mg5 O9 2.129417 1_455
Mg5 O1 2.130766 1_545
Mg5 O9 2.134164 1_555
Mg5 O9 2.134676 1_545
Mg5 O1 2.135433 1_445
Mg5 O1 2.136694 1_455
Mg6 O6 2.129324 1_655
Mg6 O0 2.130697 1_565
Mg6 O6 2.134065 1_555
Mg6 O6 2.134567 1_565
Mg6 O0 2.135381 1_665
Mg6 O0 2.136642 1_655
Mg7 O1 2.129614 1_455
Mg7 O7 2.130941 1_655
Mg7 O7 2.134082 1_555
Mg7 O1 2.134395 1_555
Mg7 O1 2.135534 1_545
Mg7 O7 2.136925 1_565
Fe0 O5 2.177262 1_555
Fe0 O2 2.177270 1_555
Fe0 O2 2.186108 1_455
Fe0 O5 2.186158 1_655
Fe0 O5 2.208925 1_565
Fe0 O2 2.209013 1_545
Fe1 O3 2.177603 1_554
Fe1 O4 2.177691 1_645
Fe1 O4 2.183407 1_555
Fe1 O3 2.183518 1_644
Fe1 O3 2.208122 1_654
Fe1 O4 2.208146 1_545
