# generated using pymatgen
data_BaSrYWO6
_symmetry_space_group_name_H-M   'P 1'
_cell_length_a   8.42068990
_cell_length_b   8.44445002
_cell_length_c   8.46256905
_cell_angle_alpha   90.00000000
_cell_angle_beta   90.00000000
_cell_angle_gamma   90.00000000
_symmetry_Int_Tables_number   1
_chemical_formula_structural   BaSrYWO6
_chemical_formula_sum   'Ba4 Sr4 Y4 W4 O24'
_cell_volume   601.75716390
_cell_formula_units_Z   4
loop_
 _symmetry_equiv_pos_site_id
 _symmetry_equiv_pos_as_xyz
  1  'x, y, z'
loop_
 _atom_site_type_symbol
 _atom_site_label
 _atom_site_symmetry_multiplicity
 _atom_site_fract_x
 _atom_site_fract_y
 _atom_site_fract_z
 _atom_site_occupancy
  Ba  Ba0  1  -0.00000000  -0.00000000  -0.00000000  1
  Ba  Ba1  1  0.50000000  0.50000000  0.50000000  1
  Ba  Ba2  1  -0.00000000  0.50000000  -0.00000000  1
  Ba  Ba3  1  -0.00000000  -0.00000000  0.50000000  1
  Sr  Sr0  1  -0.00000000  0.50000000  0.50000000  1
  Sr  Sr1  1  0.50000000  -0.00000000  0.50000000  1
  Sr  Sr2  1  0.50000000  0.50000000  -0.00000000  1
  Sr  Sr3  1  0.50000000  -0.00000000  -0.00000000  1
  Y  Y0  1  0.25210725  0.25039784  0.25009626  1
  Y  Y1  1  0.74789275  0.74960216  0.25009626  1
  Y  Y2  1  0.74789275  0.25039784  0.74990374  1
  Y  Y3  1  0.25210725  0.74960216  0.74990374  1
  W  W0  1  0.74753321  0.74959883  0.75025295  1
  W  W1  1  0.25246679  0.25040117  0.75025295  1
  W  W2  1  0.25246679  0.74959883  0.24974705  1
  W  W3  1  0.74753321  0.25040117  0.24974705  1
  O  O0  1  0.98358349  0.22917364  0.27441131  1
  O  O1  1  0.01641651  0.77082636  0.27441131  1
  O  O2  1  0.01641651  0.22917364  0.72558869  1
  O  O3  1  0.98358349  0.77082636  0.72558869  1
  O  O4  1  0.28299550  0.98566126  0.22211734  1
  O  O5  1  0.28299550  0.01433874  0.77788266  1
  O  O6  1  0.71700450  0.01433874  0.22211734  1
  O  O7  1  0.71700450  0.98566126  0.77788266  1
  O  O8  1  0.22994849  0.27516813  0.98751025  1
  O  O9  1  0.77005151  0.27516813  0.01248975  1
  O  O10  1  0.22994849  0.72483187  0.01248975  1
  O  O11  1  0.77005151  0.72483187  0.98751025  1
  O  O12  1  0.51471882  0.28064625  0.21760523  1
  O  O13  1  0.48528118  0.71935375  0.21760523  1
  O  O14  1  0.48528118  0.28064625  0.78239477  1
  O  O15  1  0.51471882  0.71935375  0.78239477  1
  O  O16  1  0.21953509  0.51442621  0.28169377  1
  O  O17  1  0.21953509  0.48557379  0.71830623  1
  O  O18  1  0.78046491  0.48557379  0.28169377  1
  O  O19  1  0.78046491  0.51442621  0.71830623  1
  O  O20  1  0.28192961  0.21824309  0.51319959  1
  O  O21  1  0.71807039  0.21824309  0.48680041  1
  O  O22  1  0.28192961  0.78175691  0.48680041  1
  O  O23  1  0.71807039  0.78175691  0.51319959  1
loop_
_geom_bond_atom_site_label_1
_geom_bond_atom_site_label_2
_geom_bond_distance
_geom_bond_site_symmetry_2
Ba0 O3 3.026055 1_444
Ba0 O2 3.026055 1_554
Ba0 O1 3.026055 1_545
Ba0 O0 3.026055 1_455
Ba0 O11 3.026524 1_444
Ba0 O9 3.026524 1_455
Ba0 O10 3.026524 1_545
Ba0 O8 3.026524 1_554
Ba0 O6 3.037539 1_455
Ba0 O4 3.037539 1_545
Ba0 O5 3.037539 1_554
Ba0 O7 3.037539 1_444
Ba1 O18 3.000918 1_555
Ba1 O19 3.000918 1_555
Ba1 O16 3.000918 1_555
Ba1 O17 3.000918 1_555
Ba1 O23 3.007569 1_555
Ba1 O21 3.007569 1_555
Ba1 O22 3.007569 1_555
Ba1 O20 3.007569 1_555
Ba1 O13 3.026141 1_555
Ba1 O12 3.026141 1_555
Ba1 O14 3.026141 1_555
Ba1 O15 3.026141 1_555
Ba2 O9 2.713879 1_455
Ba2 O10 2.713879 1_555
Ba2 O11 2.713879 1_454
Ba2 O8 2.713879 1_554
Ba2 O16 3.019115 1_555
Ba2 O17 3.019115 1_554
Ba2 O19 3.019115 1_454
Ba2 O18 3.019115 1_455
Ba2 O2 3.262225 1_554
Ba2 O0 3.262225 1_455
Ba2 O3 3.262225 1_454
Ba2 O1 3.262225 1_555
Ba3 O3 2.721910 1_445
Ba3 O1 2.721910 1_545
Ba3 O0 2.721910 1_455
Ba3 O2 2.721910 1_555
Ba3 O20 3.007489 1_555
Ba3 O22 3.007489 1_545
Ba3 O23 3.007489 1_445
Ba3 O21 3.007489 1_455
O0 W3 2.006657 1_555
O0 Y0 2.277561 1_655
O0 Sr0 2.982263 1_655
O1 W2 2.006657 1_555
O1 Y1 2.277561 1_455
O1 Sr0 2.982263 1_555
O2 W1 2.006657 1_555
O2 Y2 2.277561 1_455
O2 Sr0 2.982263 1_555
O3 W0 2.006657 1_555
O3 Y3 2.277561 1_655
O3 Sr0 2.982263 1_655
O4 W2 2.023480 1_555
O4 Y0 2.263055 1_565
O4 Sr3 2.624309 1_565
O4 Sr1 2.980573 1_565
O5 W1 2.023480 1_555
O5 Y3 2.263055 1_545
O5 Sr3 2.624309 1_556
O5 Sr1 2.980573 1_555
O6 W3 2.023480 1_555
O6 Y1 2.263055 1_545
O6 Sr3 2.624309 1_555
O6 Sr1 2.980573 1_555
O7 W0 2.023480 1_555
O7 Y2 2.263055 1_565
O7 Sr3 2.624309 1_566
O7 Sr1 2.980573 1_565
O8 W1 2.027556 1_555
O8 Y0 2.239761 1_556
O8 Sr2 2.964279 1_556
O9 W3 2.027556 1_555
O9 Y2 2.239761 1_554
O9 Sr2 2.964279 1_555
O10 W2 2.027556 1_555
O10 Y3 2.239761 1_554
O10 Sr2 2.964279 1_555
O11 W0 2.027556 1_555
O11 Y1 2.239761 1_556
O11 Sr2 2.964279 1_556
O12 W3 1.995648 1_555
O12 Y0 2.242991 1_555
O12 Sr2 2.614876 1_555
O12 Sr3 3.003818 1_555
O13 W2 1.995648 1_555
O13 Y1 2.242991 1_555
O13 Sr2 2.614876 1_555
O13 Sr3 3.003818 1_565
O14 W1 1.995648 1_555
O14 Y2 2.242991 1_555
O14 Sr2 2.614876 1_556
O14 Sr3 3.003818 1_556
O15 W0 1.995648 1_555
O15 Y3 2.242991 1_555
O15 Sr2 2.614876 1_556
O15 Sr3 3.003818 1_566
O16 W2 2.023315 1_555
O16 Y0 2.262241 1_555
O16 Sr0 2.616353 1_555
O17 W1 2.023315 1_555
O17 Y3 2.262241 1_555
O17 Sr0 2.616353 1_555
O18 W3 2.023315 1_555
O18 Y1 2.262241 1_555
O18 Sr0 2.616353 1_655
O19 W0 2.023315 1_555
O19 Y2 2.262241 1_555
O19 Sr0 2.616353 1_655
O20 W1 2.039523 1_555
O20 Y0 2.257040 1_555
O20 Sr1 2.604021 1_555
O21 W3 2.039523 1_555
O21 Y2 2.257040 1_555
O21 Sr1 2.604021 1_555
O22 W2 2.039523 1_555
O22 Y3 2.257040 1_555
O22 Sr1 2.604021 1_565
O23 W0 2.039523 1_555
O23 Y1 2.257040 1_555
O23 Sr1 2.604021 1_565
