# generated using pymatgen
data_Li5V2Ni3O10
_symmetry_space_group_name_H-M   'P 1'
_cell_length_a   5.11172648
_cell_length_b   7.77008520
_cell_length_c   10.20356284
_cell_angle_alpha   108.42341554
_cell_angle_beta   100.41352603
_cell_angle_gamma   71.14073925
_symmetry_Int_Tables_number   1
_chemical_formula_structural   Li5V2Ni3O10
_chemical_formula_sum   'Li10 V4 Ni6 O20'
_cell_volume   362.46084570
_cell_formula_units_Z   2
loop_
 _symmetry_equiv_pos_site_id
 _symmetry_equiv_pos_as_xyz
  1  'x, y, z'
loop_
 _atom_site_type_symbol
 _atom_site_label
 _atom_site_symmetry_multiplicity
 _atom_site_fract_x
 _atom_site_fract_y
 _atom_site_fract_z
 _atom_site_occupancy
  Li  Li0  1  0.99596700  0.50180700  0.24952800  1
  Li  Li1  1  0.99561200  0.50215100  0.74989700  1
  Li  Li2  1  0.50461600  0.39694900  0.10745800  1
  Li  Li3  1  0.50473700  0.39700300  0.60765200  1
  Li  Li4  1  0.50412200  0.60060200  0.39516500  1
  Li  Li5  1  0.50442500  0.60065400  0.89528500  1
  Li  Li6  1  0.50862500  0.79799100  0.20181100  1
  Li  Li7  1  0.50839500  0.79819900  0.70194700  1
  Li  Li8  1  0.49235300  0.20146900  0.29834900  1
  Li  Li9  1  0.49278700  0.20110700  0.79832200  1
  V  V0  1  0.01879400  0.69086300  0.05025100  1
  V  V1  1  0.01839100  0.69050500  0.55031200  1
  V  V2  1  0.98667400  0.30232200  0.44870800  1
  V  V3  1  0.98626800  0.30259200  0.94864900  1
  Ni  Ni0  1  0.50009500  0.99990500  0.49897400  1
  Ni  Ni1  1  0.49974300  0.00039100  0.99899200  1
  Ni  Ni2  1  0.99393700  0.89999000  0.34844500  1
  Ni  Ni3  1  0.99383900  0.89993100  0.84801900  1
  Ni  Ni4  1  0.00139500  0.10179300  0.15196400  1
  Ni  Ni5  1  0.00113500  0.10177000  0.65174000  1
  O  O0  1  0.23331900  0.83960600  0.02441300  1
  O  O1  1  0.23292800  0.83978200  0.52445800  1
  O  O2  1  0.75870500  0.15385300  0.47554900  1
  O  O3  1  0.75893000  0.15385700  0.97535400  1
  O  O4  1  0.76818000  0.92860800  0.16293100  1
  O  O5  1  0.76757100  0.92900300  0.66318300  1
  O  O6  1  0.23520100  0.06182000  0.33194600  1
  O  O7  1  0.23462600  0.06198900  0.83209800  1
  O  O8  1  0.78116300  0.55031500  0.06851600  1
  O  O9  1  0.78103200  0.55031600  0.56859200  1
  O  O10  1  0.22104400  0.46741800  0.43550300  1
  O  O11  1  0.22107500  0.46725200  0.93547400  1
  O  O12  1  0.23492300  0.24864300  0.10944500  1
  O  O13  1  0.23529500  0.24823700  0.60909900  1
  O  O14  1  0.76377500  0.75305000  0.39123600  1
  O  O15  1  0.76416300  0.75294500  0.89098600  1
  O  O16  1  0.23006500  0.65856200  0.21055500  1
  O  O17  1  0.22984200  0.65869200  0.71052000  1
  O  O18  1  0.76825000  0.34387800  0.28939700  1
  O  O19  1  0.76800300  0.34418000  0.78927600  1
loop_
_geom_bond_atom_site_label_1
_geom_bond_atom_site_label_2
_geom_bond_distance
_geom_bond_site_symmetry_2
Li0 O8 2.048982 1_555
Li0 O10 2.080511 1_655
Li0 O18 2.106286 1_555
Li0 O16 2.119919 1_655
Li0 O14 2.156094 1_555
Li0 O12 2.169134 1_655
Li1 O9 2.050417 1_555
Li1 O11 2.078680 1_655
Li1 O19 2.103745 1_555
Li1 O17 2.121037 1_655
Li1 O15 2.149802 1_555
Li1 O13 2.177051 1_655
Li2 O12 2.068998 1_555
Li2 O3 2.123995 1_554
Li2 O16 2.132157 1_555
Li2 O18 2.157004 1_555
Li2 O11 2.157129 1_554
Li2 O8 2.273262 1_555
Li3 O13 2.069002 1_555
Li3 O2 2.123436 1_555
Li3 O17 2.132550 1_555
Li3 O19 2.153137 1_555
Li3 O10 2.159028 1_555
Li3 O9 2.272427 1_555
Li4 O14 2.057195 1_555
Li4 O18 2.095610 1_555
Li4 O9 2.112260 1_555
Li4 O1 2.135855 1_555
Li4 O10 2.187874 1_555
Li4 O16 2.210877 1_555
Li5 O15 2.057797 1_555
Li5 O19 2.094090 1_555
Li5 O8 2.110403 1_556
Li5 O0 2.134041 1_556
Li5 O11 2.189623 1_555
Li5 O17 2.213421 1_555
Li6 O4 2.064714 1_555
Li6 O16 2.076907 1_555
Li6 O0 2.125171 1_555
Li6 O14 2.186239 1_555
Li6 O8 2.188954 1_555
Li6 O6 2.239888 1_565
Li7 O5 2.063650 1_555
Li7 O17 2.076756 1_555
Li7 O1 2.126222 1_555
Li7 O15 2.184803 1_555
Li7 O9 2.190237 1_555
Li7 O7 2.240565 1_565
Li8 O18 2.083521 1_555
Li8 O6 2.083972 1_555
Li8 O2 2.113525 1_555
Li8 O12 2.190670 1_555
Li8 O10 2.274430 1_555
Li8 O4 2.304840 1_545
Li9 O19 2.084807 1_555
Li9 O7 2.085859 1_555
Li9 O3 2.111028 1_555
Li9 O13 2.193390 1_555
Li9 O11 2.276089 1_555
Li9 O5 2.298260 1_545
Ni0 O6 2.057272 1_565
Ni0 O14 2.058096 1_555
Ni0 O5 2.061213 1_555
Ni0 O13 2.075788 1_565
Ni0 O2 2.133721 1_565
Ni0 O1 2.216305 1_555
Ni1 O7 2.056001 1_555
Ni1 O15 2.063310 1_545
Ni1 O4 2.063315 1_546
Ni1 O12 2.076719 1_556
Ni1 O3 2.134036 1_555
Ni1 O0 2.217043 1_546
Ni2 O14 2.060976 1_555
Ni2 O4 2.067545 1_555
Ni2 O1 2.074898 1_655
Ni2 O6 2.083712 1_665
Ni2 O2 2.105266 1_565
Ni2 O16 2.106502 1_655
Ni3 O15 2.060188 1_555
Ni3 O5 2.063381 1_555
Ni3 O0 2.079305 1_656
Ni3 O7 2.080986 1_665
Ni3 O17 2.103563 1_655
Ni3 O3 2.105911 1_565
Ni4 O6 2.055369 1_555
Ni4 O3 2.067950 1_454
Ni4 O12 2.072650 1_555
Ni4 O18 2.100631 1_455
Ni4 O4 2.103571 1_445
Ni4 O0 2.137776 1_545
Ni5 O7 2.057615 1_555
Ni5 O2 2.064398 1_455
Ni5 O13 2.073428 1_555
Ni5 O19 2.102382 1_455
Ni5 O5 2.103985 1_445
Ni5 O1 2.135519 1_545
O0 V0 1.929825 1_555
O1 V1 1.933371 1_555
O2 V2 1.986949 1_555
O3 V3 1.985463 1_555
O4 V0 2.008883 1_655
O5 V1 2.013242 1_655
O6 V2 2.032383 1_455
O7 V3 2.031548 1_455
O8 V0 1.941889 1_655
O8 V3 1.992729 1_554
O9 V1 1.938585 1_655
O9 V2 1.994959 1_555
O10 V1 1.855921 1_555
O10 V2 2.064027 1_455
O11 V0 1.857337 1_556
O11 V3 2.062878 1_455
O12 V3 1.954367 1_454
O13 V2 1.951315 1_455
O14 V1 1.972490 1_655
O15 V0 1.972978 1_656
O16 V0 1.830409 1_555
O17 V1 1.829087 1_555
O18 V2 1.853603 1_555
O19 V3 1.853873 1_555
