# generated using pymatgen
data_Mg4Si7
_symmetry_space_group_name_H-M   'P 1'
_cell_length_a   3.95613800
_cell_length_b   6.88516827
_cell_length_c   14.47181661
_cell_angle_alpha   93.47640111
_cell_angle_beta   96.49420164
_cell_angle_gamma   90.30767687
_symmetry_Int_Tables_number   1
_chemical_formula_structural   Mg4Si7
_chemical_formula_sum   'Mg8 Si14'
_cell_volume   390.91327065
_cell_formula_units_Z   2
loop_
 _symmetry_equiv_pos_site_id
 _symmetry_equiv_pos_as_xyz
  1  'x, y, z'
loop_
 _atom_site_type_symbol
 _atom_site_label
 _atom_site_symmetry_multiplicity
 _atom_site_fract_x
 _atom_site_fract_y
 _atom_site_fract_z
 _atom_site_occupancy
  Mg  Mg0  1  0.90570600  0.98039300  0.94539700  1
  Mg  Mg1  1  0.69667200  0.64383700  0.50309000  1
  Mg  Mg2  1  0.11086700  0.79275700  0.34100700  1
  Mg  Mg3  1  0.26310900  0.48180100  0.65315600  1
  Mg  Mg4  1  0.82619500  0.49652000  0.82710600  1
  Mg  Mg5  1  0.03952500  0.39374500  0.18801500  1
  Mg  Mg6  1  0.15638600  0.30564400  0.41559000  1
  Mg  Mg7  1  0.22700200  0.96866500  0.57796700  1
  Si  Si0  1  0.38896000  0.66361500  0.95618400  1
  Si  Si1  1  0.48052500  0.17875100  0.06931600  1
  Si  Si2  1  0.04305500  0.37224300  0.99312800  1
  Si  Si3  1  0.92059100  0.69292200  0.07341700  1
  Si  Si4  1  0.71992900  0.26792900  0.55420800  1
  Si  Si5  1  0.65990600  0.00640900  0.43482100  1
  Si  Si6  1  0.52412500  0.71128300  0.19464200  1
  Si  Si7  1  0.32117000  0.18508600  0.81042700  1
  Si  Si8  1  0.79082800  0.78074100  0.69561000  1
  Si  Si9  1  0.09972000  0.00228300  0.16454000  1
  Si  Si10  1  0.60744200  0.49112600  0.31848700  1
  Si  Si11  1  0.32865500  0.81421400  0.80602700  1
  Si  Si12  1  0.78529900  0.14321800  0.70643600  1
  Si  Si13  1  0.61168100  0.12316000  0.27502800  1
loop_
_geom_bond_atom_site_label_1
_geom_bond_atom_site_label_2
_geom_bond_distance
_geom_bond_site_symmetry_2
Mg0 Si2 2.779332 1_665
Mg0 Si3 2.788325 1_556
Mg0 Si1 2.884550 1_566
Mg0 Si0 2.907757 1_655
Mg0 Si11 2.946355 1_655
Mg0 Si1 2.999956 1_666
Mg0 Si0 3.004375 1_555
Mg0 Si11 3.039620 1_555
Mg0 Si7 3.088398 1_665
Mg0 Si9 3.171713 1_666
Mg0 Si7 3.239793 1_565
Mg1 Si4 2.733828 1_555
Mg1 Si5 2.738542 1_565
Mg1 Si10 2.794513 1_555
Mg1 Si8 2.869263 1_555
Mg2 Si5 2.742979 1_465
Mg2 Si5 2.789532 1_565
Mg2 Si10 2.848236 1_455
Mg2 Si6 2.850145 1_555
Mg2 Si10 2.895709 1_555
Mg2 Si6 2.986495 1_455
Mg2 Si9 3.004495 1_565
Mg2 Si13 3.141966 1_465
Mg3 Si4 2.800584 1_555
Mg3 Si4 2.801940 1_455
Mg3 Si8 2.872705 1_455
Mg3 Si8 2.912530 1_555
Mg3 Si11 3.074027 1_555
Mg3 Si7 3.139613 1_555
Mg3 Si12 3.178452 1_455
Mg3 Si12 3.194711 1_555
Mg4 Si2 2.651758 1_655
Mg4 Si8 2.804418 1_555
Mg4 Si0 2.880404 1_555
Mg4 Si12 2.899956 1_555
Mg4 Si7 2.903465 1_555
Mg4 Si0 2.922474 1_655
Mg4 Si7 2.929152 1_655
Mg4 Si11 2.956918 1_555
Mg4 Si11 3.000070 1_655
Mg5 Si9 2.711239 1_555
Mg5 Si3 2.731873 1_455
Mg5 Si10 2.743279 1_455
Mg5 Si10 2.816614 1_555
Mg5 Si2 2.816893 1_554
Mg5 Si6 2.890073 1_555
Mg5 Si1 2.929696 1_555
Mg5 Si13 2.941808 1_455
Mg5 Si1 2.971497 1_455
Mg5 Si6 3.002215 1_455
Mg5 Si13 3.140881 1_555
Mg6 Si10 2.747779 1_555
Mg6 Si10 2.806962 1_455
Mg6 Si4 2.813364 1_455
Mg6 Si4 2.849537 1_555
Mg6 Si5 2.877234 1_555
Mg6 Si5 2.886141 1_455
Mg6 Si13 3.004937 1_455
Mg6 Si13 3.082866 1_555
Mg7 Si5 2.855720 1_565
Mg7 Si4 2.891555 1_565
Mg7 Si4 2.891771 1_465
Mg7 Si5 2.900441 1_465
Mg7 Si12 2.905331 1_465
Mg7 Si8 2.908259 1_455
Mg7 Si12 2.924196 1_565
Mg7 Si8 2.997875 1_555
Si0 Si11 2.452110 1_555
Si0 Si2 2.539529 1_555
Si0 Si3 2.547415 1_556
Si0 Si3 2.650669 1_456
Si1 Si2 2.399385 1_554
Si1 Si9 2.509567 1_555
Si2 Si3 2.507480 1_456
Si3 Si6 2.480220 1_555
Si3 Si9 2.491961 1_665
Si3 Si6 2.795887 1_655
Si4 Si5 2.410188 1_555
Si6 Si9 2.645696 1_565
Si10 Si6 2.412418 1_555
Si10 Si13 2.573733 1_555
Si11 Si8 2.512902 1_455
Si11 Si7 2.550862 1_565
Si11 Si8 2.563279 1_555
Si12 Si4 2.400076 1_555
Si12 Si7 2.461988 1_655
Si12 Si8 2.491498 1_545
Si12 Si7 2.509495 1_555
Si13 Si5 2.481430 1_555
Si13 Si9 2.537611 1_555
Si13 Si9 2.744329 1_655
