# generated using pymatgen
data_Sc(VSi)5
_symmetry_space_group_name_H-M   'P 1'
_cell_length_a   9.27359662
_cell_length_b   9.27359662
_cell_length_c   7.62015374
_cell_angle_alpha   65.80670860
_cell_angle_beta   65.80670860
_cell_angle_gamma   30.82804041
_symmetry_Int_Tables_number   1
_chemical_formula_structural   Sc(VSi)5
_chemical_formula_sum   'Sc2 V10 Si10'
_cell_volume   303.97649858
_cell_formula_units_Z   2
loop_
 _symmetry_equiv_pos_site_id
 _symmetry_equiv_pos_as_xyz
  1  'x, y, z'
loop_
 _atom_site_type_symbol
 _atom_site_label
 _atom_site_symmetry_multiplicity
 _atom_site_fract_x
 _atom_site_fract_y
 _atom_site_fract_z
 _atom_site_occupancy
  Sc  Sc0  1  0.64242800  0.64242800  0.74405900  1
  Sc  Sc1  1  0.35757200  0.35757200  0.25594100  1
  V  V0  1  0.56296000  0.05955000  0.68904300  1
  V  V1  1  0.94045000  0.43704000  0.31095700  1
  V  V2  1  0.43704000  0.94045000  0.31095700  1
  V  V3  1  0.05955000  0.56296000  0.68904300  1
  V  V4  1  0.93665400  0.93665400  0.31921300  1
  V  V5  1  0.06334600  0.06334600  0.68078700  1
  V  V6  1  0.56458600  0.56458600  0.18974300  1
  V  V7  1  0.43541400  0.43541400  0.81025700  1
  V  V8  1  0.85769100  0.85769100  0.02469400  1
  V  V9  1  0.14230900  0.14230900  0.97530600  1
  Si  Si0  1  0.78796900  0.78796900  0.41213400  1
  Si  Si1  1  0.21203100  0.21203100  0.58786600  1
  Si  Si2  1  0.71558500  0.71558500  0.99250400  1
  Si  Si3  1  0.28441500  0.28441500  0.00749600  1
  Si  Si4  1  0.24669900  0.75330100  0.00000000  1
  Si  Si5  1  0.75330100  0.24669900  0.00000000  1
  Si  Si6  1  0.56317900  0.56317900  0.51998600  1
  Si  Si7  1  0.43682100  0.43682100  0.48001400  1
  Si  Si8  1  0.93581800  0.93581800  0.65360500  1
  Si  Si9  1  0.06418200  0.06418200  0.34639500  1
loop_
_geom_bond_atom_site_label_1
_geom_bond_atom_site_label_2
_geom_bond_distance
_geom_bond_site_symmetry_2
Sc0 Si6 2.642031 1_555
Sc0 Si2 2.720409 1_555
Sc0 Si0 2.751947 1_555
Sc0 Si5 2.761426 1_556
Sc0 Si4 2.761426 1_556
Sc0 Si1 2.789537 1_655
Sc0 Si1 2.789537 1_565
Sc0 V9 3.029426 1_655
Sc0 V9 3.029426 1_565
Sc1 Si7 2.642031 1_555
Sc1 Si3 2.720409 1_555
Sc1 Si1 2.751947 1_555
Sc1 Si4 2.761426 1_555
Sc1 Si5 2.761426 1_555
Sc1 Si0 2.789537 1_545
Sc1 Si0 2.789537 1_455
Sc1 V8 3.029426 1_455
Sc1 V8 3.029426 1_545
Si0 V4 2.443055 1_555
Si0 V1 2.538614 1_555
Si0 V2 2.538614 1_555
Si0 V0 2.621260 1_565
Si0 V3 2.621260 1_655
Si0 V8 2.672314 1_555
Si1 V5 2.443055 1_555
Si1 V3 2.538614 1_555
Si1 V0 2.538614 1_555
Si1 V2 2.621260 1_545
Si1 V1 2.621260 1_455
Si1 V9 2.672314 1_555
Si2 V6 2.469457 1_556
Si2 V0 2.531503 1_565
Si2 V3 2.531503 1_655
Si2 V2 2.582348 1_556
Si2 V1 2.582348 1_556
Si2 V8 2.654441 1_556
Si2 V9 2.820497 1_655
Si2 V9 2.820497 1_565
Si3 V7 2.469457 1_554
Si3 V1 2.531503 1_455
Si3 V2 2.531503 1_545
Si3 V3 2.582348 1_554
Si3 V0 2.582348 1_554
Si3 V9 2.654441 1_554
Si3 V8 2.820497 1_455
Si3 V8 2.820497 1_545
Si4 Si5 2.432302 1_465
Si4 Si5 2.497394 1_555
Si4 V5 2.517201 1_564
Si4 V4 2.517201 1_455
Si4 V7 2.530405 1_554
Si4 V6 2.530405 1_555
Si4 V9 2.753506 1_564
Si4 V8 2.753506 1_455
Si5 V5 2.517201 1_654
Si5 V4 2.517201 1_545
Si5 V7 2.530405 1_554
Si5 V6 2.530405 1_555
Si5 V8 2.753506 1_545
Si5 V9 2.753506 1_654
Si6 Si7 2.404630 1_555
Si6 V7 2.411455 1_555
Si6 V2 2.465139 1_555
Si6 V1 2.465139 1_555
Si6 V6 2.505911 1_555
Si6 V5 2.753184 1_565
Si6 V5 2.753184 1_655
Si6 Si9 2.793815 1_565
Si6 Si9 2.793815 1_655
Si7 V6 2.411455 1_555
Si7 V3 2.465139 1_555
Si7 V0 2.465139 1_555
Si7 V7 2.505911 1_555
Si7 V4 2.753184 1_545
Si7 V4 2.753184 1_455
Si7 Si8 2.793815 1_455
Si7 Si8 2.793815 1_545
Si8 V5 2.375670 1_665
Si8 V0 2.453607 1_565
Si8 V3 2.453607 1_655
Si8 Si9 2.485924 1_665
Si8 V4 2.541800 1_555
Si8 V8 2.566926 1_556
Si8 V7 2.737361 1_655
Si8 V7 2.737361 1_565
Si9 V4 2.375670 1_445
Si9 V2 2.453607 1_545
Si9 V1 2.453607 1_455
Si9 V5 2.541800 1_555
Si9 V9 2.566926 1_554
Si9 V6 2.737361 1_545
Si9 V6 2.737361 1_455
