# generated using pymatgen
data_Lu3Mg
_symmetry_space_group_name_H-M   'P 1'
_cell_length_a   6.63069201
_cell_length_b   6.63069201
_cell_length_c   21.87481000
_cell_angle_alpha   90.00000000
_cell_angle_beta   90.00000000
_cell_angle_gamma   108.80829169
_symmetry_Int_Tables_number   1
_chemical_formula_structural   Lu3Mg
_chemical_formula_sum   'Lu24 Mg8'
_cell_volume   910.39465592
_cell_formula_units_Z   8
loop_
 _symmetry_equiv_pos_site_id
 _symmetry_equiv_pos_as_xyz
  1  'x, y, z'
loop_
 _atom_site_type_symbol
 _atom_site_label
 _atom_site_symmetry_multiplicity
 _atom_site_fract_x
 _atom_site_fract_y
 _atom_site_fract_z
 _atom_site_occupancy
  Lu  Lu0_0  1  0.25000000  0.25000000  0.37529400  1
  Lu  Lu0_1  1  0.25000000  0.25000000  0.87529400  1
  Lu  Lu0_2  1  0.25000000  0.75000000  0.37529400  1
  Lu  Lu0_3  1  0.25000000  0.75000000  0.87529400  1
  Lu  Lu0_4  1  0.75000000  0.25000000  0.37529400  1
  Lu  Lu0_5  1  0.75000000  0.25000000  0.87529400  1
  Lu  Lu0_6  1  0.75000000  0.75000000  0.37529400  1
  Lu  Lu0_7  1  0.75000000  0.75000000  0.87529400  1
  Lu  Lu1_0  1  0.00000000  0.00000000  0.25000000  1
  Lu  Lu1_1  1  0.00000000  0.00000000  0.75000000  1
  Lu  Lu1_2  1  0.00000000  0.50000000  0.25000000  1
  Lu  Lu1_3  1  0.00000000  0.50000000  0.75000000  1
  Lu  Lu1_4  1  0.50000000  0.00000000  0.25000000  1
  Lu  Lu1_5  1  0.50000000  0.00000000  0.75000000  1
  Lu  Lu1_6  1  0.50000000  0.50000000  0.25000000  1
  Lu  Lu1_7  1  0.50000000  0.50000000  0.75000000  1
  Lu  Lu2_0  1  0.25000000  0.25000000  0.12470600  1
  Lu  Lu2_1  1  0.25000000  0.25000000  0.62470600  1
  Lu  Lu2_2  1  0.25000000  0.75000000  0.12470600  1
  Lu  Lu2_3  1  0.25000000  0.75000000  0.62470600  1
  Lu  Lu2_4  1  0.75000000  0.25000000  0.12470600  1
  Lu  Lu2_5  1  0.75000000  0.25000000  0.62470600  1
  Lu  Lu2_6  1  0.75000000  0.75000000  0.12470600  1
  Lu  Lu2_7  1  0.75000000  0.75000000  0.62470600  1
  Mg  Mg0_0  1  0.00000000  0.00000000  0.00000000  1
  Mg  Mg0_1  1  0.00000000  0.00000000  0.50000000  1
  Mg  Mg0_2  1  0.00000000  0.50000000  0.00000000  1
  Mg  Mg0_3  1  0.00000000  0.50000000  0.50000000  1
  Mg  Mg0_4  1  0.50000000  0.00000000  0.00000000  1
  Mg  Mg0_5  1  0.50000000  0.00000000  0.50000000  1
  Mg  Mg0_6  1  0.50000000  0.50000000  0.00000000  1
  Mg  Mg0_7  1  0.50000000  0.50000000  0.50000000  1
loop_
_geom_bond_atom_site_label_1
_geom_bond_atom_site_label_2
_geom_bond_distance
_geom_bond_site_symmetry_2
Lu0_0 Lu0_4 3.315346 1_555
Lu0_0 Lu0_2 3.315346 1_545
Lu0_0 Lu0_2 3.315346 1_555
Lu0_0 Lu0_4 3.315346 1_455
Lu0_0 Mg0_7 3.341476 1_555
Lu0_0 Mg0_1 3.341476 1_555
Lu0_0 Lu1_6 3.351985 1_555
Lu0_0 Lu1_0 3.351985 1_555
Lu0_1 Lu0_5 3.315346 1_455
Lu0_1 Lu0_5 3.315346 1_555
Lu0_1 Lu0_3 3.315346 1_545
Lu0_1 Lu0_3 3.315346 1_555
Lu0_1 Mg0_6 3.341476 1_556
Lu0_1 Mg0_0 3.341476 1_556
Lu0_1 Lu1_1 3.351985 1_555
Lu0_1 Lu1_7 3.351985 1_555
Lu0_2 Lu0_6 3.315346 1_455
Lu0_2 Lu0_6 3.315346 1_555
Lu0_2 Mg0_3 3.341476 1_555
Lu0_2 Mg0_5 3.341476 1_565
Lu0_2 Lu1_4 3.351985 1_565
Lu0_2 Lu1_2 3.351985 1_555
Lu0_3 Lu0_7 3.315346 1_455
Lu0_3 Lu0_7 3.315346 1_555
Lu0_3 Mg0_4 3.341476 1_566
Lu0_3 Mg0_2 3.341476 1_556
Lu0_3 Lu1_5 3.351985 1_565
Lu0_3 Lu1_3 3.351985 1_555
Lu0_4 Lu0_6 3.315346 1_545
Lu0_4 Lu0_6 3.315346 1_555
Lu0_4 Mg0_3 3.341476 1_655
Lu0_4 Mg0_5 3.341476 1_555
Lu0_4 Lu1_2 3.351985 1_655
Lu0_4 Lu1_4 3.351985 1_555
Lu0_5 Lu0_7 3.315346 1_545
Lu0_5 Lu0_7 3.315346 1_555
Lu0_5 Mg0_2 3.341476 1_656
Lu0_5 Mg0_4 3.341476 1_556
Lu0_5 Lu1_3 3.351985 1_655
Lu0_5 Lu1_5 3.351985 1_555
Lu0_6 Mg0_1 3.341476 1_665
Lu0_6 Mg0_7 3.341476 1_555
Lu0_6 Lu1_0 3.351985 1_665
Lu0_6 Lu1_6 3.351985 1_555
Lu0_7 Mg0_0 3.341476 1_666
Lu0_7 Mg0_6 3.341476 1_556
Lu0_7 Lu1_1 3.351985 1_665
Lu0_7 Lu1_7 3.351985 1_555
Lu1_0 Lu1_2 3.315346 1_555
Lu1_0 Lu1_4 3.315346 1_455
Lu1_0 Lu1_4 3.315346 1_555
Lu1_0 Lu1_2 3.315346 1_545
Lu1_0 Lu2_6 3.351985 1_445
Lu1_0 Lu2_0 3.351985 1_555
Lu1_1 Lu1_3 3.315346 1_555
Lu1_1 Lu1_5 3.315346 1_455
Lu1_1 Lu1_3 3.315346 1_545
Lu1_1 Lu1_5 3.315346 1_555
Lu1_1 Lu2_7 3.351985 1_445
Lu1_1 Lu2_1 3.351985 1_555
Lu1_2 Lu1_6 3.315346 1_455
Lu1_2 Lu1_6 3.315346 1_555
Lu1_2 Lu2_2 3.351985 1_555
Lu1_2 Lu2_4 3.351985 1_455
Lu1_3 Lu1_7 3.315346 1_455
Lu1_3 Lu1_7 3.315346 1_555
Lu1_3 Lu2_5 3.351985 1_455
Lu1_3 Lu2_3 3.351985 1_555
Lu1_4 Lu1_6 3.315346 1_545
Lu1_4 Lu1_6 3.315346 1_555
Lu1_4 Lu2_4 3.351985 1_555
Lu1_4 Lu2_2 3.351985 1_545
Lu1_5 Lu1_7 3.315346 1_555
Lu1_5 Lu1_7 3.315346 1_545
Lu1_5 Lu2_5 3.351985 1_555
Lu1_5 Lu2_3 3.351985 1_545
Lu1_6 Lu2_0 3.351985 1_555
Lu1_6 Lu2_6 3.351985 1_555
Lu1_7 Lu2_1 3.351985 1_555
Lu1_7 Lu2_7 3.351985 1_555
Lu2_0 Lu2_4 3.315346 1_555
Lu2_0 Lu2_2 3.315346 1_555
Lu2_0 Lu2_2 3.315346 1_545
Lu2_0 Lu2_4 3.315346 1_455
Lu2_0 Mg0_6 3.341476 1_555
Lu2_0 Mg0_0 3.341476 1_555
Lu2_1 Lu2_5 3.315346 1_455
Lu2_1 Lu2_5 3.315346 1_555
Lu2_1 Lu2_3 3.315346 1_555
Lu2_1 Lu2_3 3.315346 1_545
Lu2_1 Mg0_7 3.341476 1_555
Lu2_1 Mg0_1 3.341476 1_555
Lu2_2 Lu2_6 3.315346 1_455
Lu2_2 Lu2_6 3.315346 1_555
Lu2_2 Mg0_2 3.341476 1_555
Lu2_2 Mg0_4 3.341476 1_565
Lu2_3 Lu2_7 3.315346 1_455
Lu2_3 Lu2_7 3.315346 1_555
Lu2_3 Mg0_3 3.341476 1_555
Lu2_3 Mg0_5 3.341476 1_565
Lu2_4 Lu2_6 3.315346 1_545
Lu2_4 Lu2_6 3.315346 1_555
Lu2_4 Mg0_4 3.341476 1_555
Lu2_4 Mg0_2 3.341476 1_655
Lu2_5 Lu2_7 3.315346 1_545
Lu2_5 Lu2_7 3.315346 1_555
Lu2_5 Mg0_5 3.341476 1_555
Lu2_5 Mg0_3 3.341476 1_655
Lu2_6 Mg0_0 3.341476 1_665
Lu2_6 Mg0_6 3.341476 1_555
Lu2_7 Mg0_1 3.341476 1_665
Lu2_7 Mg0_7 3.341476 1_555
Mg0_0 Mg0_2 3.315346 1_545
Mg0_0 Mg0_4 3.315346 1_555
Mg0_0 Mg0_4 3.315346 1_455
Mg0_0 Mg0_2 3.315346 1_555
Mg0_1 Mg0_5 3.315346 1_555
Mg0_1 Mg0_3 3.315346 1_555
Mg0_1 Mg0_5 3.315346 1_455
Mg0_1 Mg0_3 3.315346 1_545
Mg0_2 Mg0_6 3.315346 1_555
Mg0_2 Mg0_6 3.315346 1_455
Mg0_3 Mg0_7 3.315346 1_555
Mg0_3 Mg0_7 3.315346 1_455
Mg0_4 Mg0_6 3.315346 1_545
Mg0_4 Mg0_6 3.315346 1_555
Mg0_5 Mg0_7 3.315346 1_545
Mg0_5 Mg0_7 3.315346 1_555
