# generated using pymatgen
data_Ca2Al4Si8O31
_symmetry_space_group_name_H-M   'P 1'
_cell_length_a   10.05471150
_cell_length_b   10.05471150
_cell_length_c   7.57513787
_cell_angle_alpha   75.62842195
_cell_angle_beta   75.62842195
_cell_angle_gamma   83.80409329
_symmetry_Int_Tables_number   1
_chemical_formula_structural   Ca2Al4Si8O31
_chemical_formula_sum   'Ca2 Al4 Si8 O31'
_cell_volume   717.76846838
_cell_formula_units_Z   1
loop_
 _symmetry_equiv_pos_site_id
 _symmetry_equiv_pos_as_xyz
  1  'x, y, z'
loop_
 _atom_site_type_symbol
 _atom_site_label
 _atom_site_symmetry_multiplicity
 _atom_site_fract_x
 _atom_site_fract_y
 _atom_site_fract_z
 _atom_site_occupancy
  Ca  Ca0  1  0.73684500  0.73856300  0.27830000  1
  Ca  Ca1  1  0.26143700  0.26315500  0.72170000  1
  Al  Al0  1  0.82114500  0.43501300  0.26147900  1
  Al  Al1  1  0.43243500  0.82232000  0.26368700  1
  Al  Al2  1  0.17768000  0.56756500  0.73631300  1
  Al  Al3  1  0.56498700  0.17885500  0.73852100  1
  Si  Si0  1  0.69957100  0.46464800  0.67809500  1
  Si  Si1  1  0.46410000  0.69949800  0.67890100  1
  Si  Si2  1  0.30050200  0.53590000  0.32109900  1
  Si  Si3  1  0.53535200  0.30042900  0.32190500  1
  Si  Si4  1  0.85639200  0.62530100  0.85208300  1
  Si  Si5  1  0.62353500  0.85682600  0.85403500  1
  Si  Si6  1  0.14317400  0.37646500  0.14596500  1
  Si  Si7  1  0.37469900  0.14360800  0.14791700  1
  O  O0  1  0.82634900  0.59217600  0.08290900  1
  O  O1  1  0.59016900  0.82734700  0.08455600  1
  O  O2  1  0.17265300  0.40983100  0.91544400  1
  O  O3  1  0.40782400  0.17365100  0.91709100  1
  O  O4  1  0.76565400  0.76725000  0.78319000  1
  O  O5  1  0.23275000  0.23434600  0.21681000  1
  O  O6  1  0.01584900  0.64897600  0.75508800  1
  O  O7  1  0.64648800  0.01679700  0.75842100  1
  O  O8  1  0.98320300  0.35351200  0.24157900  1
  O  O9  1  0.35102400  0.98415100  0.24491200  1
  O  O10  1  0.80467200  0.49577800  0.79546900  1
  O  O11  1  0.49494700  0.80501300  0.79592200  1
  O  O12  1  0.19498700  0.50505300  0.20407800  1
  O  O13  1  0.50422200  0.19532800  0.20453100  1
  O  O14  1  0.69635000  0.32563600  0.27216900  1
  O  O15  1  0.32520700  0.69702000  0.26973700  1
  O  O16  1  0.30298000  0.67479300  0.73026300  1
  O  O17  1  0.67436400  0.30365000  0.72783100  1
  O  O18  1  0.76856100  0.52127000  0.45173100  1
  O  O19  1  0.51988300  0.76844600  0.45258500  1
  O  O20  1  0.23155400  0.48011700  0.54741500  1
  O  O21  1  0.47873000  0.23143900  0.54826900  1
  O  O22  1  0.55490800  0.55506700  0.72763400  1
  O  O23  1  0.44493300  0.44509200  0.27236600  1
  O  O24  1  0.98281100  0.11092500  0.58456500  1
  O  O25  1  0.16986100  0.01724400  0.77502400  1
  O  O26  1  0.98275600  0.83013900  0.22497600  1
  O  O27  1  0.88907500  0.01718900  0.41543500  1
  O  O28  1  0.88670200  0.11329800  0.50000000  1
  O  O29  1  0.99167700  0.87084700  0.05404300  1
  O  O30  1  0.12915300  0.00832300  0.94595700  1
loop_
_geom_bond_atom_site_label_1
_geom_bond_atom_site_label_2
_geom_bond_distance
_geom_bond_site_symmetry_2
Ca0 O19 2.284274 1_555
Ca0 O18 2.287749 1_555
Ca0 O1 2.294725 1_555
Ca0 O0 2.302470 1_555
Ca0 O26 2.633544 1_555
Ca0 O29 2.945055 1_555
Ca1 O20 2.284274 1_555
Ca1 O21 2.287749 1_555
Ca1 O2 2.294725 1_555
Ca1 O3 2.302470 1_555
Ca1 O25 2.633544 1_555
Ca1 O30 2.945055 1_555
Al0 O14 1.730233 1_555
Al0 O8 1.732197 1_555
Al0 O0 1.803115 1_555
Al0 O18 1.803328 1_555
Al1 O15 1.729666 1_555
Al1 O9 1.730127 1_555
Al1 O19 1.803073 1_555
Al1 O1 1.809441 1_555
Al2 O16 1.729666 1_555
Al2 O6 1.730127 1_555
Al2 O20 1.803073 1_555
Al2 O2 1.809441 1_555
Al3 O17 1.730233 1_555
Al3 O7 1.732197 1_555
Al3 O3 1.803115 1_555
Al3 O21 1.803328 1_555
O0 Si4 1.652265 1_554
O1 Si5 1.650280 1_554
O2 Si6 1.650280 1_556
O3 Si7 1.652265 1_556
O4 Si5 1.650025 1_555
O4 Si4 1.651457 1_555
O5 Si6 1.650025 1_555
O5 Si7 1.651457 1_555
O6 Si4 1.605566 1_455
O7 Si5 1.607431 1_545
O8 Si6 1.607431 1_655
O9 Si7 1.605566 1_565
O10 Si0 1.637448 1_555
O10 Si4 1.638454 1_555
O11 Si5 1.636644 1_555
O11 Si1 1.637658 1_555
O12 Si6 1.636644 1_555
O12 Si2 1.637658 1_555
O13 Si3 1.637448 1_555
O13 Si7 1.638454 1_555
O14 Si3 1.601580 1_555
O15 Si2 1.601100 1_555
O16 Si1 1.601100 1_555
O17 Si0 1.601580 1_555
O18 Si0 1.660056 1_555
O19 Si1 1.658575 1_555
O20 Si2 1.658575 1_555
O21 Si3 1.660056 1_555
O22 Si1 1.641291 1_555
O22 Si0 1.641952 1_555
O23 Si2 1.641291 1_555
O23 Si3 1.641952 1_555
O24 O28 1.280426 1_555
O25 O30 1.240711 1_555
O26 O29 1.240711 1_555
O27 O28 1.280426 1_555
O29 O30 1.944367 1_664
