# generated using pymatgen
data_CaBi2
_symmetry_space_group_name_H-M   'P 1'
_cell_length_a   4.55918787
_cell_length_b   4.77821794
_cell_length_c   8.94528102
_cell_angle_alpha   105.49060192
_cell_angle_beta   90.00000000
_cell_angle_gamma   90.00000000
_symmetry_Int_Tables_number   1
_chemical_formula_structural   CaBi2
_chemical_formula_sum   'Ca2 Bi4'
_cell_volume   187.79226373
_cell_formula_units_Z   2
loop_
 _symmetry_equiv_pos_site_id
 _symmetry_equiv_pos_as_xyz
  1  'x, y, z'
loop_
 _atom_site_type_symbol
 _atom_site_label
 _atom_site_symmetry_multiplicity
 _atom_site_fract_x
 _atom_site_fract_y
 _atom_site_fract_z
 _atom_site_occupancy
  Ca  Ca0  1  0.75000000  0.10146749  0.20293599  1
  Ca  Ca1  1  0.25000000  0.89853251  0.79706401  1
  Bi  Bi0  1  0.75000000  0.43619787  0.87239675  1
  Bi  Bi1  1  0.25000000  0.56380213  0.12760325  1
  Bi  Bi2  1  0.75000000  0.74414796  0.48829793  1
  Bi  Bi3  1  0.25000000  0.25585204  0.51170207  1
loop_
_geom_bond_atom_site_label_1
_geom_bond_atom_site_label_2
_geom_bond_distance
_geom_bond_site_symmetry_2
Bi0 Bi1 3.168028 1_656
Bi0 Bi1 3.168028 1_556
Bi0 Ca1 3.365424 1_545
Bi0 Ca1 3.365424 1_645
Bi0 Ca1 3.365431 1_655
Bi0 Ca1 3.365431 1_555
Bi0 Ca0 3.718426 1_556
Bi0 Ca0 3.718426 1_566
Bi1 Ca0 3.365424 1_565
Bi1 Ca0 3.365424 1_465
Bi1 Ca0 3.365431 1_555
Bi1 Ca0 3.365431 1_455
Bi1 Ca1 3.718426 1_554
Bi1 Ca1 3.718426 1_544
Bi2 Bi3 3.308330 1_655
Bi2 Bi3 3.308330 1_555
Bi2 Bi3 3.308344 1_565
Bi2 Bi3 3.308344 1_665
Bi2 Ca0 3.429143 1_555
Bi2 Ca0 3.429146 1_565
Bi2 Ca1 3.504429 1_555
Bi2 Ca1 3.504429 1_655
Bi3 Ca1 3.429143 1_555
Bi3 Ca1 3.429146 1_545
Bi3 Ca0 3.504429 1_455
Bi3 Ca0 3.504429 1_555
