# generated using pymatgen
data_Ba2LaCu3O7
_symmetry_space_group_name_H-M   'P 1'
_cell_length_a   3.99294500
_cell_length_b   3.99294500
_cell_length_c   11.59442000
_cell_angle_alpha   90.00000000
_cell_angle_beta   90.00000000
_cell_angle_gamma   90.00000000
_symmetry_Int_Tables_number   1
_chemical_formula_structural   Ba2LaCu3O7
_chemical_formula_sum   'Ba2 La1 Cu3 O7'
_cell_volume   184.85690802
_cell_formula_units_Z   1
loop_
 _symmetry_equiv_pos_site_id
 _symmetry_equiv_pos_as_xyz
  1  'x, y, z'
loop_
 _atom_site_type_symbol
 _atom_site_label
 _atom_site_symmetry_multiplicity
 _atom_site_fract_x
 _atom_site_fract_y
 _atom_site_fract_z
 _atom_site_occupancy
  Ba  Ba0  1  0.50000000  0.50000000  0.83207200  1
  Ba  Ba1  1  0.50000000  0.50000000  0.17045500  1
  La  La0  1  0.50000000  0.50000000  0.49772900  1
  Cu  Cu0  1  0.00000000  0.00000000  0.65470200  1
  Cu  Cu1  1  0.00000000  0.00000000  0.35408200  1
  Cu  Cu2  1  0.00000000  0.00000000  0.99279900  1
  O  O0  1  0.50000000  0.00000000  0.62690200  1
  O  O1  1  0.00000000  0.50000000  0.62690200  1
  O  O2  1  0.50000000  0.00000000  0.35782500  1
  O  O3  1  0.00000000  0.50000000  0.35782500  1
  O  O4  1  0.00000000  0.50000000  0.01654100  1
  O  O5  1  0.50000000  0.00000000  0.01654100  1
  O  O6  1  0.00000000  0.00000000  0.82362600  1
loop_
_geom_bond_atom_site_label_1
_geom_bond_atom_site_label_2
_geom_bond_distance
_geom_bond_site_symmetry_2
Ba0 O6 2.825136 1_665
Ba0 O6 2.825136 1_555
Ba0 O6 2.825136 1_655
Ba0 O6 2.825136 1_565
Ba0 O5 2.925819 1_566
Ba0 O4 2.925819 1_556
Ba0 O4 2.925819 1_656
Ba0 O5 2.925819 1_556
Ba0 O1 3.105595 1_555
Ba0 O0 3.105595 1_555
Ba0 O0 3.105595 1_565
Ba0 O1 3.105595 1_655
Ba1 O4 2.677779 1_555
Ba1 O5 2.677779 1_555
Ba1 O5 2.677779 1_565
Ba1 O4 2.677779 1_655
Ba1 O2 2.950496 1_555
Ba1 O3 2.950496 1_555
Ba1 O3 2.950496 1_655
Ba1 O2 2.950496 1_565
La0 O1 2.495790 1_655
La0 O1 2.495790 1_555
La0 O0 2.495790 1_555
La0 O0 2.495790 1_565
La0 O3 2.572378 1_555
La0 O3 2.572378 1_655
La0 O2 2.572378 1_565
La0 O2 2.572378 1_555
Cu0 O6 1.958576 1_555
Cu0 O1 2.022324 1_555
Cu0 O0 2.022324 1_555
Cu0 O1 2.022324 1_545
Cu0 O0 2.022324 1_455
Cu1 O3 1.996944 1_555
Cu1 O3 1.996944 1_545
Cu1 O2 1.996944 1_455
Cu1 O2 1.996944 1_555
Cu2 O6 1.961463 1_555
Cu2 O5 2.015361 1_556
Cu2 O4 2.015361 1_546
Cu2 O5 2.015361 1_456
Cu2 O4 2.015361 1_556
