# generated using pymatgen
data_V2P2H6PbO14
_symmetry_space_group_name_H-M   'P 1'
_cell_length_a   6.30030531
_cell_length_b   6.30030531
_cell_length_c   14.42973856
_cell_angle_alpha   82.64461720
_cell_angle_beta   97.35538280
_cell_angle_gamma   89.35429225
_symmetry_Int_Tables_number   1
_chemical_formula_structural   V2P2H6PbO14
_chemical_formula_sum   'V4 P4 H12 Pb2 O28'
_cell_volume   563.16132725
_cell_formula_units_Z   2
loop_
 _symmetry_equiv_pos_site_id
 _symmetry_equiv_pos_as_xyz
  1  'x, y, z'
loop_
 _atom_site_type_symbol
 _atom_site_label
 _atom_site_symmetry_multiplicity
 _atom_site_fract_x
 _atom_site_fract_y
 _atom_site_fract_z
 _atom_site_occupancy
  V  V0  1  0.73651900  0.04595300  0.47128300  1
  V  V1  1  0.95404700  0.26348100  0.97128300  1
  V  V2  1  0.25499000  0.50021600  0.56922400  1
  V  V3  1  0.49978400  0.74501000  0.06922400  1
  P  P0  1  0.25108200  0.02154000  0.52120300  1
  P  P1  1  0.97846000  0.74891800  0.02120300  1
  P  P2  1  0.74756300  0.52144600  0.52591600  1
  P  P3  1  0.47855400  0.25243700  0.02591600  1
  H  H0  1  0.82378600  0.03604300  0.30241800  1
  H  H1  1  0.96395700  0.17621400  0.80241800  1
  H  H2  1  0.14767800  0.42074200  0.76414800  1
  H  H3  1  0.57925800  0.85232200  0.26414800  1
  H  H4  1  0.34721200  0.56901300  0.76273400  1
  H  H5  1  0.43098700  0.65278800  0.26273400  1
  H  H6  1  0.11621400  0.92872100  0.70312700  1
  H  H7  1  0.07127900  0.88378600  0.20312700  1
  H  H8  1  0.77857100  0.57873800  0.78612000  1
  H  H9  1  0.42126200  0.22142900  0.28612000  1
  H  H10  1  0.89376300  0.79656700  0.77831400  1
  H  H11  1  0.20343300  0.10623700  0.27831400  1
  Pb  Pb0  1  0.48864200  0.04136400  0.78990200  1
  Pb  Pb1  1  0.95863600  0.51135800  0.28990200  1
  O  O0  1  0.78715600  0.02825600  0.58630500  1
  O  O1  1  0.97174400  0.21284400  0.08630500  1
  O  O2  1  0.43173100  0.04142000  0.45902200  1
  O  O3  1  0.95858000  0.56826900  0.95902200  1
  O  O4  1  0.04160600  0.05931200  0.45367800  1
  O  O5  1  0.94068800  0.95839400  0.95367800  1
  O  O6  1  0.72735500  0.36161200  0.45206100  1
  O  O7  1  0.63838800  0.27264500  0.95206100  1
  O  O8  1  0.74301200  0.73951700  0.46501600  1
  O  O9  1  0.26048300  0.25698800  0.96501600  1
  O  O10  1  0.21161900  0.52247000  0.45502900  1
  O  O11  1  0.47753000  0.78838100  0.95502900  1
  O  O12  1  0.26053300  0.79984200  0.58396500  1
  O  O13  1  0.20015800  0.73946700  0.08396500  1
  O  O14  1  0.96313600  0.48569600  0.59296600  1
  O  O15  1  0.51430400  0.03686400  0.09296600  1
  O  O16  1  0.56539000  0.49586900  0.58896900  1
  O  O17  1  0.50413100  0.43461000  0.08896900  1
  O  O18  1  0.27858500  0.18657800  0.59449200  1
  O  O19  1  0.81342200  0.72141500  0.09449200  1
  O  O20  1  0.69050900  0.06872600  0.32679300  1
  O  O21  1  0.93127400  0.30949100  0.82679300  1
  O  O22  1  0.28594800  0.44488300  0.73591300  1
  O  O23  1  0.55511700  0.71405200  0.23591300  1
  O  O24  1  0.15714200  0.90680100  0.77147300  1
  O  O25  1  0.09319900  0.84285800  0.27147300  1
  O  O26  1  0.74847000  0.73450700  0.76929900  1
  O  O27  1  0.26549300  0.25153000  0.26929900  1
loop_
_geom_bond_atom_site_label_1
_geom_bond_atom_site_label_2
_geom_bond_distance
_geom_bond_site_symmetry_2
H0 O20 0.980536 1_555
H1 O21 0.980536 1_555
H2 O22 1.012924 1_555
H3 O23 1.012924 1_555
H4 O22 0.977974 1_555
H5 O23 0.977974 1_555
H6 O24 0.978465 1_555
H7 O25 0.978465 1_555
H8 O26 0.990473 1_555
H9 O27 0.990473 1_555
H10 O26 0.999170 1_555
H11 O27 0.999170 1_555
O0 V0 1.638651 1_555
O1 V1 1.638651 1_554
O2 P0 1.533637 1_555
O2 V0 1.906580 1_555
O3 P1 1.533637 1_556
O3 V1 1.906580 1_555
O4 P0 1.533653 1_555
O4 V0 1.972167 1_455
O5 P1 1.533653 1_556
O5 V1 1.972167 1_565
O6 P2 1.552073 1_555
O6 V0 1.971664 1_555
O7 P3 1.552073 1_556
O7 V1 1.971664 1_555
O8 P2 1.531085 1_555
O8 V0 1.944503 1_565
O9 P3 1.531085 1_556
O9 V1 1.944503 1_455
O10 V2 1.623045 1_555
O10 Pb1 2.701035 1_455
O11 V3 1.623045 1_556
O11 Pb0 2.701035 1_565
O12 P0 1.560483 1_565
O12 V2 1.926760 1_555
O13 P1 1.560483 1_455
O13 V3 1.926760 1_555
O14 P2 1.559585 1_555
O14 V2 1.914124 1_655
O15 P3 1.559585 1_555
O15 V3 1.914124 1_545
O16 P2 1.550839 1_555
O16 V2 1.939197 1_555
O17 P3 1.550839 1_555
O17 V3 1.939197 1_555
O18 P0 1.571075 1_555
O18 V2 1.963339 1_555
O19 P1 1.571075 1_555
O19 V3 1.963339 1_555
O20 V0 2.054108 1_555
O21 V1 2.054108 1_555
O22 V2 2.368246 1_555
O22 Pb0 2.804632 1_555
O23 V3 2.368246 1_555
O23 Pb1 2.804632 1_555
O24 Pb0 2.259852 1_565
O25 Pb1 2.259852 1_455
O26 Pb0 2.589634 1_565
O27 Pb1 2.589634 1_455
