# generated using pymatgen
data_MgMn6O5F7
_symmetry_space_group_name_H-M   'P 1'
_cell_length_a   7.96268563
_cell_length_b   6.29833862
_cell_length_c   5.96630483
_cell_angle_alpha   73.35960007
_cell_angle_beta   70.36790234
_cell_angle_gamma   64.09961433
_symmetry_Int_Tables_number   1
_chemical_formula_structural   MgMn6O5F7
_chemical_formula_sum   'Mg1 Mn6 O5 F7'
_cell_volume   250.05312479
_cell_formula_units_Z   1
loop_
 _symmetry_equiv_pos_site_id
 _symmetry_equiv_pos_as_xyz
  1  'x, y, z'
loop_
 _atom_site_type_symbol
 _atom_site_label
 _atom_site_symmetry_multiplicity
 _atom_site_fract_x
 _atom_site_fract_y
 _atom_site_fract_z
 _atom_site_occupancy
  Mg  Mg0  1  0.33674400  0.16548900  0.68311500  1
  Mn  Mn0  1  0.86927900  0.71343800  0.68471600  1
  Mn  Mn1  1  0.66084600  0.33862300  0.29726500  1
  Mn  Mn2  1  0.31859200  0.69528100  0.64102800  1
  Mn  Mn3  1  0.13633500  0.30035600  0.28326800  1
  Mn  Mn4  1  0.62804000  0.85295500  0.26498800  1
  Mn  Mn5  1  0.98510100  0.02221000  0.99736100  1
  O  O0  1  0.59435500  0.55386100  0.51430600  1
  O  O1  1  0.93836900  0.21323700  0.22909100  1
  O  O2  1  0.71270600  0.12712000  0.08179800  1
  O  O3  1  0.04282400  0.82756900  0.76184900  1
  O  O4  1  0.33259400  0.99257200  0.43853600  1
  F  F0  1  0.62303200  0.02160700  0.59710600  1
  F  F1  1  0.30468200  0.38454400  0.89122700  1
  F  F2  1  0.26980600  0.91835000  0.94347300  1
  F  F3  1  0.36482100  0.42681700  0.39227300  1
  F  F4  1  0.67302200  0.65253700  0.00468100  1
  F  F5  1  0.04695800  0.33479100  0.69427200  1
  F  F6  1  0.95818700  0.67739300  0.30797700  1
loop_
_geom_bond_atom_site_label_1
_geom_bond_atom_site_label_2
_geom_bond_distance
_geom_bond_site_symmetry_2
Mg0 O4 2.071379 1_545
Mn0 O3 2.030445 1_655
Mn1 O0 1.926814 1_555
Mn1 O1 1.930762 1_555
Mn1 O2 1.934215 1_555
Mn2 O3 1.928114 1_555
Mn2 O0 1.935994 1_555
Mn2 O4 1.942758 1_555
Mn3 O1 2.022376 1_455
Mn3 O4 2.087096 1_545
Mn4 O2 2.017877 1_565
Mn4 O0 2.098034 1_555
Mn4 O4 2.111218 1_555
Mn5 O2 1.897179 1_556
Mn5 O1 1.927024 1_556
Mn5 O3 1.936200 1_645
F0 Mg0 1.989162 1_555
F0 Mn0 2.160566 1_545
F0 Mn1 2.322758 1_555
F0 Mn4 2.484294 1_545
F1 Mg0 1.992695 1_555
F1 Mn2 2.115654 1_555
F1 Mn3 2.313633 1_556
F2 Mg0 1.975753 1_565
F2 Mn5 2.001446 1_465
F2 Mn2 2.425930 1_555
F3 Mg0 2.048216 1_555
F3 Mn1 2.079587 1_555
F3 Mn2 2.392418 1_555
F3 Mn3 2.593294 1_555
F4 Mn0 2.081642 1_554
F4 Mn4 2.118429 1_555
F4 Mn1 2.245614 1_555
F5 Mg0 2.062477 1_555
F5 Mn0 2.172806 1_455
F5 Mn3 2.358763 1_555
F5 Mn5 2.366059 1_455
F6 Mn0 2.165095 1_555
F6 Mn3 2.188680 1_655
F6 Mn4 2.439370 1_555
F6 Mn5 2.455933 1_564
