# generated using pymatgen
data_KEuZrBiO6
_symmetry_space_group_name_H-M   'P 1'
_cell_length_a   8.41353879
_cell_length_b   8.50422548
_cell_length_c   8.46305809
_cell_angle_alpha   90.00000000
_cell_angle_beta   90.00000000
_cell_angle_gamma   90.00000000
_symmetry_Int_Tables_number   1
_chemical_formula_structural   KEuZrBiO6
_chemical_formula_sum   'K4 Eu4 Zr4 Bi4 O24'
_cell_volume   605.53714615
_cell_formula_units_Z   4
loop_
 _symmetry_equiv_pos_site_id
 _symmetry_equiv_pos_as_xyz
  1  'x, y, z'
loop_
 _atom_site_type_symbol
 _atom_site_label
 _atom_site_symmetry_multiplicity
 _atom_site_fract_x
 _atom_site_fract_y
 _atom_site_fract_z
 _atom_site_occupancy
  K  K0  1  0.50000000  0.00000000  0.50000000  1
  K  K1  1  0.50000000  0.50000000  -0.00000000  1
  K  K2  1  0.00000000  0.50000000  -0.00000000  1
  K  K3  1  0.00000000  0.00000000  0.50000000  1
  Eu  Eu0  1  -0.00000000  0.50000000  0.50000000  1
  Eu  Eu1  1  0.50000000  0.00000000  -0.00000000  1
  Eu  Eu2  1  0.00000000  0.00000000  -0.00000000  1
  Eu  Eu3  1  0.50000000  0.50000000  0.50000000  1
  Zr  Zr0  1  0.25000000  0.25000000  0.25000000  1
  Zr  Zr1  1  0.75000000  0.75000000  0.25000000  1
  Zr  Zr2  1  0.75000000  0.25000000  0.75000000  1
  Zr  Zr3  1  0.25000000  0.75000000  0.75000000  1
  Bi  Bi0  1  0.75000000  0.75000000  0.75000000  1
  Bi  Bi1  1  0.25000000  0.25000000  0.75000000  1
  Bi  Bi2  1  0.25000000  0.75000000  0.25000000  1
  Bi  Bi3  1  0.75000000  0.25000000  0.25000000  1
  O  O0  1  0.00348758  0.23225267  0.26580058  1
  O  O1  1  0.99651242  0.76774733  0.26580058  1
  O  O2  1  0.99651242  0.23225267  0.73419942  1
  O  O3  1  0.00348758  0.76774733  0.73419942  1
  O  O4  1  0.26889802  0.00244379  0.21168898  1
  O  O5  1  0.26889802  0.99755621  0.78831102  1
  O  O6  1  0.73110198  0.99755621  0.21168898  1
  O  O7  1  0.73110198  0.00244379  0.78831102  1
  O  O8  1  0.22973785  0.25254494  0.00347998  1
  O  O9  1  0.77026215  0.25254494  0.99652002  1
  O  O10  1  0.22973785  0.74745506  0.99652002  1
  O  O11  1  0.77026215  0.74745506  0.00347998  1
  O  O12  1  0.49651242  0.26774733  0.23419942  1
  O  O13  1  0.50348758  0.73225267  0.23419942  1
  O  O14  1  0.50348758  0.26774733  0.76580058  1
  O  O15  1  0.49651242  0.73225267  0.76580058  1
  O  O16  1  0.23110198  0.49755621  0.28831102  1
  O  O17  1  0.23110198  0.50244379  0.71168898  1
  O  O18  1  0.76889802  0.50244379  0.28831102  1
  O  O19  1  0.76889802  0.49755621  0.71168898  1
  O  O20  1  0.27026215  0.24745506  0.49652002  1
  O  O21  1  0.72973785  0.24745506  0.50347998  1
  O  O22  1  0.27026215  0.75254494  0.50347998  1
  O  O23  1  0.72973785  0.75254494  0.49652002  1
loop_
_geom_bond_atom_site_label_1
_geom_bond_atom_site_label_2
_geom_bond_distance
_geom_bond_site_symmetry_2
K0 O20 2.857544 1_555
K0 O22 2.857544 1_545
K0 O21 2.857544 1_555
K0 O23 2.857544 1_545
K0 O4 3.120037 1_555
K0 O5 3.120037 1_545
K0 O6 3.120037 1_545
K0 O7 3.120037 1_555
K0 O14 3.200891 1_555
K0 O15 3.200891 1_545
K0 O13 3.200891 1_545
K0 O12 3.200891 1_555
K1 O12 2.798302 1_555
K1 O13 2.798302 1_555
K1 O14 2.798302 1_554
K1 O15 2.798302 1_554
K1 O10 3.098365 1_554
K1 O11 3.098365 1_555
K1 O9 3.098365 1_554
K1 O8 3.098365 1_555
K1 O18 3.327518 1_555
K1 O19 3.327518 1_554
K1 O16 3.327518 1_555
K1 O17 3.327518 1_554
K2 O11 2.857544 1_455
K2 O8 2.857544 1_555
K2 O9 2.857544 1_454
K2 O10 2.857544 1_554
K2 O16 3.120037 1_555
K2 O17 3.120037 1_554
K2 O18 3.120037 1_455
K2 O19 3.120037 1_454
K2 O1 3.200891 1_455
K2 O2 3.200891 1_454
K2 O3 3.200891 1_554
K2 O0 3.200891 1_555
K3 O1 2.798302 1_445
K3 O0 2.798302 1_555
K3 O2 2.798302 1_455
K3 O3 2.798302 1_545
K3 O23 3.098365 1_445
K3 O22 3.098365 1_545
K3 O20 3.098365 1_555
K3 O21 3.098365 1_455
K3 O7 3.327518 1_455
K3 O6 3.327518 1_445
K3 O5 3.327518 1_545
K3 O4 3.327518 1_555
Eu0 O16 2.643987 1_555
Eu0 O17 2.643987 1_555
Eu0 O18 2.643987 1_455
Eu0 O19 2.643987 1_455
Eu0 O3 3.018942 1_555
Eu0 O0 3.018942 1_555
Eu0 O1 3.018942 1_455
Eu0 O2 3.018942 1_455
Eu0 O22 3.127926 1_555
Eu0 O23 3.127926 1_455
Eu0 O21 3.127926 1_455
Eu0 O20 3.127926 1_555
Eu1 O4 2.643987 1_555
Eu1 O7 2.643987 1_554
Eu1 O5 2.643987 1_544
Eu1 O6 2.643987 1_545
Eu1 O13 3.018942 1_545
Eu1 O12 3.018942 1_555
Eu1 O15 3.018942 1_544
Eu1 O14 3.018942 1_554
Eu1 O9 3.127926 1_554
Eu1 O11 3.127926 1_545
Eu1 O10 3.127926 1_544
Eu1 O8 3.127926 1_555
Eu2 O7 2.885899 1_454
Eu2 O6 2.885899 1_445
Eu2 O5 2.885899 1_544
Eu2 O4 2.885899 1_555
Eu2 O8 2.889570 1_555
Eu2 O10 2.889570 1_544
Eu2 O9 2.889570 1_454
Eu2 O11 2.889570 1_445
Eu2 O2 2.993690 1_454
Eu2 O0 2.993690 1_555
Eu2 O3 2.993690 1_544
Eu2 O1 2.993690 1_445
Eu3 O18 2.885899 1_555
Eu3 O19 2.885899 1_555
Eu3 O16 2.885899 1_555
Eu3 O17 2.885899 1_555
Eu3 O22 2.889570 1_555
Eu3 O20 2.889570 1_555
Eu3 O23 2.889570 1_555
Eu3 O21 2.889570 1_555
Eu3 O14 2.993690 1_555
Eu3 O15 2.993690 1_555
Eu3 O12 2.993690 1_555
Eu3 O13 2.993690 1_555
Bi0 O15 2.142239 1_555
Bi0 O3 2.142239 1_655
Bi0 O23 2.152088 1_555
Bi0 O11 2.152088 1_556
Bi0 O19 2.176998 1_555
Bi0 O7 2.176998 1_565
Bi1 O14 2.142239 1_555
Bi1 O2 2.142239 1_455
Bi1 O20 2.152088 1_555
Bi1 O8 2.152088 1_556
Bi1 O17 2.176998 1_555
Bi1 O5 2.176998 1_545
Bi2 O1 2.142239 1_455
Bi2 O13 2.142239 1_555
Bi2 O22 2.152088 1_555
Bi2 O10 2.152088 1_554
Bi2 O16 2.176998 1_555
Bi2 O4 2.176998 1_565
Bi3 O12 2.142239 1_555
Bi3 O0 2.142239 1_655
Bi3 O21 2.152088 1_555
Bi3 O9 2.152088 1_554
Bi3 O6 2.176998 1_545
Bi3 O18 2.176998 1_555
O0 Zr0 2.083821 1_555
O1 Zr1 2.083821 1_555
O2 Zr2 2.083821 1_555
O3 Zr3 2.083821 1_555
O4 Zr0 2.136020 1_555
O5 Zr3 2.136020 1_555
O6 Zr1 2.136020 1_555
O7 Zr2 2.136020 1_555
O8 Zr0 2.093379 1_555
O9 Zr2 2.093379 1_555
O10 Zr3 2.093379 1_555
O11 Zr1 2.093379 1_555
O12 Zr0 2.083821 1_555
O13 Zr1 2.083821 1_555
O14 Zr2 2.083821 1_555
O15 Zr3 2.083821 1_555
O16 Zr0 2.136020 1_555
O17 Zr3 2.136020 1_555
O18 Zr1 2.136020 1_555
O19 Zr2 2.136020 1_555
O20 Zr0 2.093379 1_555
O21 Zr2 2.093379 1_555
O22 Zr3 2.093379 1_555
O23 Zr1 2.093379 1_555
