# generated using pymatgen
data_K3Cu3As2
_symmetry_space_group_name_H-M   'P 1'
_cell_length_a   7.58176901
_cell_length_b   7.58176889
_cell_length_c   7.58176872
_cell_angle_alpha   44.55489305
_cell_angle_beta   44.55490452
_cell_angle_gamma   44.55489183
_symmetry_Int_Tables_number   1
_chemical_formula_structural   K3Cu3As2
_chemical_formula_sum   'K3 Cu3 As2'
_cell_volume   195.07459739
_cell_formula_units_Z   1
loop_
 _symmetry_equiv_pos_site_id
 _symmetry_equiv_pos_as_xyz
  1  'x, y, z'
loop_
 _atom_site_type_symbol
 _atom_site_label
 _atom_site_symmetry_multiplicity
 _atom_site_fract_x
 _atom_site_fract_y
 _atom_site_fract_z
 _atom_site_occupancy
  K  K0  1  0.08912218  0.08912218  0.08912218  1
  K  K1  1  0.91087782  0.91087782  0.91087782  1
  K  K2  1  0.50000000  0.50000000  0.50000000  1
  Cu  Cu0  1  0.50000000  0.50000000  0.00000000  1
  Cu  Cu1  1  -0.00000000  0.50000000  0.50000000  1
  Cu  Cu2  1  0.50000000  0.00000000  0.50000000  1
  As  As0  1  0.74711846  0.74711846  0.74711846  1
  As  As1  1  0.25288154  0.25288154  0.25288154  1
loop_
_geom_bond_atom_site_label_1
_geom_bond_atom_site_label_2
_geom_bond_distance
_geom_bond_site_symmetry_2
K0 K2 3.678234 1_545
K0 K2 3.678235 1_455
K0 K2 3.678235 1_554
K1 K2 3.678234 1_565
K1 K2 3.678235 1_655
K1 K2 3.678235 1_556
Cu0 K0 3.403345 1_655
Cu0 K1 3.403345 1_454
Cu0 K1 3.403345 1_544
Cu0 K0 3.403345 1_565
Cu0 K2 3.790884 1_555
Cu0 K2 3.790884 1_554
Cu1 K1 3.403345 1_454
Cu1 K0 3.403345 1_556
Cu1 K1 3.403345 1_445
Cu1 K0 3.403345 1_565
Cu1 K2 3.790885 1_455
Cu1 K2 3.790885 1_555
Cu2 K0 3.403345 1_556
Cu2 K1 3.403345 1_544
Cu2 K1 3.403346 1_445
Cu2 K0 3.403346 1_655
Cu2 K2 3.790884 1_555
Cu2 K2 3.790884 1_545
As0 Cu2 2.336784 1_565
As0 Cu1 2.336784 1_655
As0 Cu0 2.336784 1_556
As0 K0 3.323559 1_656
As0 K0 3.323560 1_566
As0 K0 3.323560 1_665
As0 K1 3.348939 1_555
As0 K2 3.758087 1_565
As0 K2 3.758087 1_556
As0 K2 3.758087 1_655
As1 Cu2 2.336784 1_555
As1 Cu1 2.336784 1_555
As1 Cu0 2.336784 1_555
As1 K1 3.323559 1_454
As1 K1 3.323560 1_544
As1 K1 3.323560 1_445
As1 K0 3.348939 1_555
As1 K2 3.758087 1_545
As1 K2 3.758087 1_554
As1 K2 3.758087 1_455
