# generated using pymatgen
data_La3Cd(FeO3)4
_symmetry_space_group_name_H-M   'P 1'
_cell_length_a   7.91702100
_cell_length_b   5.55583500
_cell_length_c   5.56084672
_cell_angle_alpha   89.50716039
_cell_angle_beta   90.00000000
_cell_angle_gamma   90.00000000
_symmetry_Int_Tables_number   1
_chemical_formula_structural   La3Cd(FeO3)4
_chemical_formula_sum   'La3 Cd1 Fe4 O12'
_cell_volume   244.58847757
_cell_formula_units_Z   1
loop_
 _symmetry_equiv_pos_site_id
 _symmetry_equiv_pos_as_xyz
  1  'x, y, z'
loop_
 _atom_site_type_symbol
 _atom_site_label
 _atom_site_symmetry_multiplicity
 _atom_site_fract_x
 _atom_site_fract_y
 _atom_site_fract_z
 _atom_site_occupancy
  La  La0  1  0.00000000  0.00919800  0.97085800  1
  La  La1  1  0.50000000  0.50739600  0.52892900  1
  La  La2  1  0.50000000  0.99298600  0.03127200  1
  Cd  Cd0  1  0.00000000  0.49188900  0.47283500  1
  Fe  Fe0  1  0.24464200  0.50263000  0.00303500  1
  Fe  Fe1  1  0.75467800  0.99758500  0.49881300  1
  Fe  Fe2  1  0.75535800  0.50263000  0.00303500  1
  Fe  Fe3  1  0.24532200  0.99758500  0.49881300  1
  O  O0  1  0.00000000  0.57973200  0.03956400  1
  O  O1  1  0.00000000  0.90175300  0.51399000  1
  O  O2  1  0.50000000  0.42452700  0.97892200  1
  O  O3  1  0.50000000  0.07959600  0.49662500  1
  O  O4  1  0.21654600  0.21056800  0.21029700  1
  O  O5  1  0.79998900  0.28558000  0.71297000  1
  O  O6  1  0.70901000  0.78409100  0.78305300  1
  O  O7  1  0.30321000  0.72600600  0.27533400  1
  O  O8  1  0.29099000  0.78409100  0.78305300  1
  O  O9  1  0.69679000  0.72600600  0.27533400  1
  O  O10  1  0.78345400  0.21056800  0.21029700  1
  O  O11  1  0.20001100  0.28558000  0.71297000  1
loop_
_geom_bond_atom_site_label_1
_geom_bond_atom_site_label_2
_geom_bond_distance
_geom_bond_site_symmetry_2
La0 O0 2.413190 1_546
La0 O4 2.447306 1_556
La0 O10 2.447306 1_456
La0 O1 2.614755 1_545
La0 O11 2.623737 1_555
La0 O5 2.623737 1_455
La0 O6 2.825715 1_445
La0 O8 2.825715 1_545
La1 O3 2.385105 1_555
La1 O9 2.421095 1_555
La1 O7 2.421095 1_555
La1 O2 2.540447 1_555
La1 O8 2.671274 1_555
La1 O6 2.671274 1_555
La1 O5 2.860972 1_555
La1 O11 2.860972 1_555
La2 O2 2.412692 1_564
La2 O6 2.453145 1_554
La2 O8 2.453145 1_554
La2 O9 2.536699 1_555
La2 O7 2.536699 1_555
La2 O3 2.636181 1_565
La2 O10 2.740280 1_565
La2 O4 2.740280 1_565
Cd0 O1 2.290566 1_555
Cd0 O11 2.361800 1_555
Cd0 O5 2.361800 1_455
Cd0 O0 2.454168 1_555
Fe0 O0 1.994390 1_555
Fe0 O4 1.994660 1_555
Fe0 O8 2.010841 1_554
Fe0 O7 2.019988 1_555
Fe0 O11 2.052873 1_554
Fe0 O2 2.072304 1_554
Fe1 O10 1.998378 1_565
Fe1 O6 2.000933 1_555
Fe1 O1 2.015451 1_655
Fe1 O9 2.015764 1_555
Fe1 O5 2.034666 1_565
Fe1 O3 2.067145 1_565
Fe2 O0 1.994390 1_655
Fe2 O10 1.994660 1_555
Fe2 O6 2.010841 1_554
Fe2 O9 2.019988 1_555
Fe2 O5 2.052873 1_554
Fe2 O2 2.072304 1_554
Fe3 O4 1.998378 1_565
Fe3 O8 2.000933 1_555
Fe3 O1 2.015451 1_555
Fe3 O7 2.015764 1_555
Fe3 O11 2.034666 1_565
Fe3 O3 2.067145 1_565
