# generated using pymatgen
data_Pr6Fe13Sb
_symmetry_space_group_name_H-M   'P 1'
_cell_length_a   13.12234681
_cell_length_b   13.12234681
_cell_length_c   13.12234681
_cell_angle_alpha   143.97370350
_cell_angle_beta   143.97370350
_cell_angle_gamma   51.86661663
_symmetry_Int_Tables_number   1
_chemical_formula_structural   Pr6Fe13Sb
_chemical_formula_sum   'Pr12 Fe26 Sb2'
_cell_volume   777.28242853
_cell_formula_units_Z   2
loop_
 _symmetry_equiv_pos_site_id
 _symmetry_equiv_pos_as_xyz
  1  'x, y, z'
loop_
 _atom_site_type_symbol
 _atom_site_label
 _atom_site_symmetry_multiplicity
 _atom_site_fract_x
 _atom_site_fract_y
 _atom_site_fract_z
 _atom_site_occupancy
  Pr  Pr0  1  0.60437400  0.60437400  0.00000000  1
  Pr  Pr1  1  0.10437400  0.10437400  0.00000000  1
  Pr  Pr2  1  0.39562600  0.39562600  0.00000000  1
  Pr  Pr3  1  0.89562600  0.89562600  0.00000000  1
  Pr  Pr4  1  0.47631000  0.97631000  0.82435900  1
  Pr  Pr5  1  0.15195000  0.65195000  0.17564100  1
  Pr  Pr6  1  0.97631000  0.15195000  0.50000000  1
  Pr  Pr7  1  0.65195000  0.47631000  0.50000000  1
  Pr  Pr8  1  0.52369000  0.02369000  0.17564100  1
  Pr  Pr9  1  0.84805000  0.34805000  0.82435900  1
  Pr  Pr10  1  0.02369000  0.84805000  0.50000000  1
  Pr  Pr11  1  0.34805000  0.52369000  0.50000000  1
  Fe  Fe0  1  0.50000000  0.00000000  0.50000000  1
  Fe  Fe1  1  0.00000000  0.50000000  0.50000000  1
  Fe  Fe2  1  0.56709000  0.71037000  0.27745900  1
  Fe  Fe3  1  0.43291000  0.28963000  0.72254100  1
  Fe  Fe4  1  0.06709000  0.78963000  0.85672000  1
  Fe  Fe5  1  0.93291000  0.21037000  0.14328000  1
  Fe  Fe6  1  0.28963000  0.56709000  0.85672000  1
  Fe  Fe7  1  0.71037000  0.43291000  0.14328000  1
  Fe  Fe8  1  0.21037000  0.06709000  0.27745900  1
  Fe  Fe9  1  0.78963000  0.93291000  0.72254100  1
  Fe  Fe10  1  0.61973300  0.11973300  0.85600700  1
  Fe  Fe11  1  0.26372600  0.76372600  0.14399300  1
  Fe  Fe12  1  0.11973300  0.26372600  0.50000000  1
  Fe  Fe13  1  0.76372600  0.61973300  0.50000000  1
  Fe  Fe14  1  0.38026700  0.88026700  0.14399300  1
  Fe  Fe15  1  0.73627400  0.23627400  0.85600700  1
  Fe  Fe16  1  0.88026700  0.73627400  0.50000000  1
  Fe  Fe17  1  0.23627400  0.38026700  0.50000000  1
  Fe  Fe18  1  0.79330800  0.29330800  0.27321500  1
  Fe  Fe19  1  0.02009300  0.52009300  0.72678500  1
  Fe  Fe20  1  0.29330800  0.02009300  0.50000000  1
  Fe  Fe21  1  0.52009300  0.79330800  0.50000000  1
  Fe  Fe22  1  0.20669200  0.70669200  0.72678500  1
  Fe  Fe23  1  0.97990700  0.47990700  0.27321500  1
  Fe  Fe24  1  0.70669200  0.97990700  0.50000000  1
  Fe  Fe25  1  0.47990700  0.20669200  0.50000000  1
  Sb  Sb0  1  0.25000000  0.25000000  0.00000000  1
  Sb  Sb1  1  0.75000000  0.75000000  0.00000000  1
loop_
_geom_bond_atom_site_label_1
_geom_bond_atom_site_label_2
_geom_bond_distance
_geom_bond_site_symmetry_2
Pr0 Sb1 3.437058 1_555
Pr1 Sb0 3.437058 1_555
Pr2 Sb0 3.437058 1_555
Pr3 Sb1 3.437058 1_555
Pr4 Sb1 3.397090 1_556
Pr4 Sb0 3.397090 1_566
Pr5 Sb0 3.397079 1_555
Pr5 Sb1 3.397079 1_455
Pr6 Sb0 3.397083 1_656
Pr6 Sb1 3.397083 1_545
Pr7 Sb1 3.397083 1_556
Pr7 Sb0 3.397083 1_555
Pr8 Sb1 3.397090 1_545
Pr8 Sb0 3.397090 1_555
Pr9 Sb1 3.397079 1_556
Pr9 Sb0 3.397079 1_656
Pr10 Sb1 3.397083 1_455
Pr10 Sb0 3.397083 1_566
Pr11 Sb1 3.397083 1_556
Pr11 Sb0 3.397083 1_555
Fe0 Fe8 2.412816 1_555
Fe0 Fe3 2.412816 1_555
Fe0 Fe9 2.412816 1_545
Fe0 Fe2 2.412816 1_545
Fe0 Fe10 2.462803 1_555
Fe0 Fe15 2.462803 1_555
Fe0 Fe14 2.462803 1_545
Fe0 Fe11 2.462803 1_545
Fe0 Fe21 2.557893 1_545
Fe0 Fe20 2.557893 1_555
Fe0 Fe25 2.557893 1_555
Fe0 Fe24 2.557893 1_545
Fe1 Fe7 2.412813 1_455
Fe1 Fe4 2.412813 1_555
Fe1 Fe6 2.412813 1_555
Fe1 Fe5 2.412813 1_455
Fe1 Fe12 2.462803 1_555
Fe1 Fe13 2.462803 1_455
Fe1 Fe16 2.462803 1_455
Fe1 Fe17 2.462803 1_555
Fe1 Fe18 2.557893 1_455
Fe1 Fe22 2.557893 1_555
Fe1 Fe23 2.557893 1_455
Fe1 Fe19 2.557893 1_555
Fe2 Fe6 2.534319 1_554
Fe2 Fe7 2.534323 1_555
Fe2 Fe9 2.554204 1_555
Fe2 Fe24 2.652541 1_555
Fe2 Fe21 2.652560 1_555
Fe2 Pr0 3.046278 1_555
Fe2 Pr2 3.046297 1_555
Fe3 Fe7 2.534319 1_556
Fe3 Fe6 2.534323 1_555
Fe3 Fe8 2.554204 1_555
Fe3 Pr2 3.046278 1_556
Fe3 Pr0 3.046297 1_556
Fe4 Fe8 2.534319 1_566
Fe4 Fe9 2.534323 1_455
Fe4 Fe6 2.554192 1_555
Fe4 Pr1 3.046291 1_566
Fe4 Pr3 3.046291 1_456
Fe5 Fe9 2.534319 1_544
Fe5 Fe8 2.534323 1_655
Fe5 Fe7 2.554192 1_555
Fe5 Pr1 3.046291 1_655
Fe5 Pr3 3.046291 1_545
Fe6 Pr0 3.046291 1_556
Fe6 Pr2 3.046291 1_556
Fe7 Pr0 3.046291 1_555
Fe7 Pr2 3.046291 1_555
Fe8 Pr1 3.046278 1_555
Fe8 Pr3 3.046297 1_445
Fe9 Pr3 3.046278 1_556
Fe9 Pr1 3.046297 1_666
Fe10 Fe7 2.498047 1_556
Fe10 Fe5 2.498047 1_556
Fe10 Fe18 2.532966 1_556
Fe10 Fe21 2.559544 1_545
Fe10 Fe20 2.559544 1_555
Fe10 Fe3 2.582391 1_555
Fe10 Fe9 2.582391 1_545
Fe10 Fe15 2.750595 1_555
Fe10 Pr4 3.017057 1_545
Fe10 Pr3 3.178067 1_546
Fe10 Pr2 3.178067 1_556
Fe11 Fe6 2.498047 1_554
Fe11 Fe4 2.498047 1_554
Fe11 Fe19 2.532966 1_554
Fe11 Fe20 2.559544 1_565
Fe11 Fe21 2.559544 1_555
Fe11 Fe2 2.582404 1_555
Fe11 Fe8 2.582404 1_565
Fe11 Fe14 2.750595 1_555
Fe11 Pr5 3.017080 1_555
Fe11 Pr2 3.178067 1_555
Fe11 Pr3 3.178067 1_455
Fe12 Fe3 2.498043 1_555
Fe12 Fe8 2.498056 1_555
Fe12 Fe20 2.532966 1_555
Fe12 Fe19 2.559544 1_555
Fe12 Fe18 2.559544 1_455
Fe12 Fe6 2.582399 1_555
Fe12 Fe5 2.582399 1_455
Fe12 Fe17 2.750595 1_555
Fe12 Pr6 3.017068 1_455
Fe12 Pr3 3.178067 1_445
Fe12 Pr2 3.178067 1_556
Fe13 Fe9 2.498043 1_555
Fe13 Fe2 2.498056 1_555
Fe13 Fe21 2.532966 1_555
Fe13 Fe19 2.559544 1_655
Fe13 Fe18 2.559544 1_555
Fe13 Fe7 2.582399 1_555
Fe13 Fe4 2.582399 1_655
Fe13 Fe16 2.750595 1_555
Fe13 Pr7 3.017068 1_555
Fe13 Pr3 3.178067 1_556
Fe13 Pr2 3.178067 1_555
Fe14 Fe4 2.498047 1_554
Fe14 Fe6 2.498047 1_554
Fe14 Fe22 2.532966 1_554
Fe14 Fe25 2.559544 1_565
Fe14 Fe24 2.559544 1_555
Fe14 Fe8 2.582391 1_565
Fe14 Fe2 2.582391 1_555
Fe14 Pr8 3.017057 1_565
Fe14 Pr1 3.178067 1_565
Fe14 Pr0 3.178067 1_555
Fe15 Fe5 2.498047 1_556
Fe15 Fe7 2.498047 1_556
Fe15 Fe23 2.532966 1_556
Fe15 Fe25 2.559544 1_555
Fe15 Fe24 2.559544 1_545
Fe15 Fe9 2.582404 1_545
Fe15 Fe3 2.582404 1_555
Fe15 Pr9 3.017080 1_555
Fe15 Pr1 3.178067 1_656
Fe15 Pr0 3.178067 1_556
Fe16 Fe2 2.498043 1_555
Fe16 Fe9 2.498056 1_555
Fe16 Fe24 2.532966 1_555
Fe16 Fe22 2.559544 1_655
Fe16 Fe23 2.559544 1_555
Fe16 Fe4 2.582399 1_655
Fe16 Fe7 2.582399 1_555
Fe16 Pr10 3.017068 1_655
Fe16 Pr1 3.178067 1_666
Fe16 Pr0 3.178067 1_555
Fe17 Fe8 2.498043 1_555
Fe17 Fe3 2.498056 1_555
Fe17 Fe25 2.532966 1_555
Fe17 Fe22 2.559544 1_555
Fe17 Fe23 2.559544 1_455
Fe17 Fe5 2.582399 1_455
Fe17 Fe6 2.582399 1_555
Fe17 Pr11 3.017068 1_555
Fe17 Pr1 3.178067 1_555
Fe17 Pr0 3.178067 1_556
Fe18 Fe19 2.602914 1_655
Fe18 Fe7 2.652548 1_555
Fe18 Fe5 2.652548 1_555
Fe18 Pr7 3.151538 1_555
Fe18 Pr6 3.151538 1_555
Fe18 Pr2 3.280227 1_555
Fe18 Pr3 3.280227 1_545
Fe18 Pr4 3.377655 1_544
Fe19 Fe4 2.652548 1_555
Fe19 Fe6 2.652548 1_555
Fe19 Pr7 3.151538 1_455
Fe19 Pr6 3.151538 1_455
Fe19 Pr3 3.280227 1_456
Fe19 Pr2 3.280227 1_556
Fe19 Pr5 3.377671 1_556
Fe20 Fe21 2.602914 1_545
Fe20 Fe3 2.652541 1_555
Fe20 Fe8 2.652560 1_555
Fe20 Pr4 3.151527 1_545
Fe20 Pr5 3.151543 1_545
Fe20 Pr3 3.280227 1_445
Fe20 Pr2 3.280227 1_556
Fe20 Pr6 3.377659 1_455
Fe21 Fe9 2.652541 1_555
Fe21 Pr4 3.151527 1_555
Fe21 Pr5 3.151543 1_555
Fe21 Pr2 3.280227 1_555
Fe21 Pr3 3.280227 1_556
Fe21 Pr7 3.377659 1_555
Fe22 Fe23 2.602914 1_455
Fe22 Fe4 2.652548 1_555
Fe22 Fe6 2.652548 1_555
Fe22 Pr10 3.151538 1_555
Fe22 Pr11 3.151538 1_555
Fe22 Pr1 3.280227 1_566
Fe22 Pr0 3.280227 1_556
Fe22 Pr8 3.377655 1_566
Fe23 Fe5 2.652548 1_555
Fe23 Fe7 2.652548 1_555
Fe23 Pr11 3.151538 1_655
Fe23 Pr10 3.151538 1_655
Fe23 Pr1 3.280227 1_655
Fe23 Pr0 3.280227 1_555
Fe23 Pr9 3.377671 1_554
Fe24 Fe25 2.602914 1_565
Fe24 Fe9 2.652560 1_555
Fe24 Pr8 3.151527 1_565
Fe24 Pr9 3.151543 1_565
Fe24 Pr0 3.280227 1_555
Fe24 Pr1 3.280227 1_666
Fe24 Pr10 3.377659 1_655
Fe25 Fe8 2.652541 1_555
Fe25 Fe3 2.652560 1_555
Fe25 Pr8 3.151527 1_555
Fe25 Pr9 3.151543 1_555
Fe25 Pr0 3.280227 1_556
Fe25 Pr1 3.280227 1_555
Fe25 Pr11 3.377659 1_555
