# generated using pymatgen
data_NaCo4BiO12
_symmetry_space_group_name_H-M   'P 1'
_cell_length_a   5.26671388
_cell_length_b   5.26671388
_cell_length_c   7.24726708
_cell_angle_alpha   90.00000000
_cell_angle_beta   90.00000000
_cell_angle_gamma   95.17367053
_symmetry_Int_Tables_number   1
_chemical_formula_structural   NaCo4BiO12
_chemical_formula_sum   'Na1 Co4 Bi1 O12'
_cell_volume   200.20769349
_cell_formula_units_Z   1
loop_
 _symmetry_equiv_pos_site_id
 _symmetry_equiv_pos_as_xyz
  1  'x, y, z'
loop_
 _atom_site_type_symbol
 _atom_site_label
 _atom_site_symmetry_multiplicity
 _atom_site_fract_x
 _atom_site_fract_y
 _atom_site_fract_z
 _atom_site_occupancy
  Na  Na0  1  0.01224856  0.98775144  0.50000000  1
  Co  Co0  1  0.50195542  0.01026330  0.25473885  1
  Co  Co1  1  0.50195542  0.01026330  0.74526115  1
  Co  Co2  1  0.98973670  0.49804458  0.74526115  1
  Co  Co3  1  0.98973670  0.49804458  0.25473885  1
  Bi  Bi0  1  0.48793323  0.51206677  -0.00000000  1
  O  O0  1  0.29696282  0.29461729  0.23003392  1
  O  O1  1  0.70538271  0.70303718  0.23003392  1
  O  O2  1  0.70538271  0.70303718  0.76996608  1
  O  O3  1  0.29696282  0.29461729  0.76996608  1
  O  O4  1  0.23600836  0.76399164  0.17668069  1
  O  O5  1  0.78724734  0.21275266  0.31158450  1
  O  O6  1  0.78724734  0.21275266  0.68841550  1
  O  O7  1  0.23600836  0.76399164  0.82331931  1
  O  O8  1  0.56840089  0.08123410  -0.00000000  1
  O  O9  1  0.43475929  0.96189461  0.50000000  1
  O  O10  1  0.91876590  0.43159911  -0.00000000  1
  O  O11  1  0.03810539  0.56524071  0.50000000  1
loop_
_geom_bond_atom_site_label_1
_geom_bond_atom_site_label_2
_geom_bond_distance
_geom_bond_site_symmetry_2
Na0 O5 2.219543 1_465
Na0 O6 2.219543 1_465
Na0 O11 2.241630 1_555
Na0 O9 2.241630 1_555
Co0 O5 1.809893 1_555
Co0 O9 1.825731 1_545
Co0 O4 1.906979 1_545
Co0 O8 1.909685 1_555
Co0 O0 1.931868 1_555
Co0 O1 2.027499 1_545
Co1 O6 1.809893 1_555
Co1 O9 1.825731 1_545
Co1 O7 1.906979 1_545
Co1 O8 1.909685 1_556
Co1 O3 1.931868 1_555
Co1 O2 2.027499 1_545
Co2 O6 1.809893 1_555
Co2 O11 1.825731 1_655
Co2 O7 1.906979 1_655
Co2 O10 1.909685 1_556
Co2 O2 1.931868 1_555
Co2 O3 2.027499 1_655
Co3 O5 1.809893 1_555
Co3 O11 1.825731 1_655
Co3 O4 1.906979 1_655
Co3 O10 1.909685 1_555
Co3 O1 1.931868 1_555
Co3 O0 2.027499 1_655
Bi0 O1 2.212404 1_555
Bi0 O0 2.212404 1_555
Bi0 O2 2.212404 1_554
Bi0 O3 2.212404 1_554
Bi0 O7 2.340499 1_554
Bi0 O4 2.340499 1_555
Bi0 O10 2.345576 1_555
Bi0 O8 2.345576 1_555
