# generated using pymatgen
data_Mn2In2CuPd3
_symmetry_space_group_name_H-M   'P 1'
_cell_length_a   7.83467625
_cell_length_b   7.83467625
_cell_length_c   7.83467672
_cell_angle_alpha   33.33774720
_cell_angle_beta   33.33774720
_cell_angle_gamma   33.33775368
_symmetry_Int_Tables_number   1
_chemical_formula_structural   Mn2In2CuPd3
_chemical_formula_sum   'Mn2 In2 Cu1 Pd3'
_cell_volume   129.33055640
_cell_formula_units_Z   1
loop_
 _symmetry_equiv_pos_site_id
 _symmetry_equiv_pos_as_xyz
  1  'x, y, z'
loop_
 _atom_site_type_symbol
 _atom_site_label
 _atom_site_symmetry_multiplicity
 _atom_site_fract_x
 _atom_site_fract_y
 _atom_site_fract_z
 _atom_site_occupancy
  Mn  Mn0  1  0.25072600  0.25072600  0.25072600  1
  Mn  Mn1  1  0.74936100  0.74936100  0.74936100  1
  In  In0  1  0.99904200  0.99904200  0.99904200  1
  In  In1  1  0.50084400  0.50084400  0.50084400  1
  Cu  Cu0  1  0.62511200  0.62511200  0.62511200  1
  Pd  Pd0  1  0.12488900  0.12488900  0.12488900  1
  Pd  Pd1  1  0.87514600  0.87514600  0.87514600  1
  Pd  Pd2  1  0.37487800  0.37487800  0.37487800  1
loop_
_geom_bond_atom_site_label_1
_geom_bond_atom_site_label_2
_geom_bond_distance
_geom_bond_site_symmetry_2
Mn0 Pd2 2.753363 1_555
Mn0 Pd1 2.758917 1_445
Mn0 Pd1 2.758918 1_544
Mn0 Pd1 2.758918 1_454
Mn0 Pd0 2.790732 1_555
Mn1 Pd2 2.750750 1_556
Mn1 Pd2 2.750751 1_565
Mn1 Pd2 2.750751 1_655
Mn1 Pd0 2.758526 1_665
Mn1 Pd0 2.758526 1_656
Mn1 Pd0 2.758526 1_566
Mn1 Pd1 2.789579 1_555
In0 Pd1 2.747686 1_555
In0 Pd2 2.760850 1_665
In0 Pd2 2.760851 1_566
In0 Pd2 2.760851 1_656
In0 Pd0 2.790954 1_666
In1 Pd1 2.749421 1_554
In1 Pd1 2.749422 1_545
In1 Pd1 2.749422 1_455
In1 Pd0 2.761753 1_556
In1 Pd0 2.761753 1_565
In1 Pd0 2.761753 1_655
In1 Pd2 2.793593 1_555
Cu0 In0 2.746706 1_554
Cu0 In0 2.746707 1_455
Cu0 In0 2.746707 1_545
Cu0 Mn0 2.750038 1_556
Cu0 Mn0 2.750038 1_565
Cu0 Mn0 2.750038 1_655
Cu0 Mn1 2.755514 1_555
Cu0 In1 2.755936 1_555
