# generated using pymatgen
data_GdGaO3
_symmetry_space_group_name_H-M   'P 1'
_cell_length_a   5.37317100
_cell_length_b   5.61965200
_cell_length_c   7.70335400
_cell_angle_alpha   90.00000000
_cell_angle_beta   90.00000000
_cell_angle_gamma   90.00000000
_symmetry_Int_Tables_number   1
_chemical_formula_structural   GdGaO3
_chemical_formula_sum   'Gd4 Ga4 O12'
_cell_volume   232.60547911
_cell_formula_units_Z   4
loop_
 _symmetry_equiv_pos_site_id
 _symmetry_equiv_pos_as_xyz
  1  'x, y, z'
loop_
 _atom_site_type_symbol
 _atom_site_label
 _atom_site_symmetry_multiplicity
 _atom_site_fract_x
 _atom_site_fract_y
 _atom_site_fract_z
 _atom_site_occupancy
  Gd  Gd0  1  0.01691700  0.93692400  0.75000000  1
  Gd  Gd1  1  0.51691700  0.56307600  0.25000000  1
  Gd  Gd2  1  0.48308300  0.43692400  0.75000000  1
  Gd  Gd3  1  0.98308300  0.06307600  0.25000000  1
  Ga  Ga0  1  0.00000000  0.50000000  0.50000000  1
  Ga  Ga1  1  0.50000000  0.00000000  0.50000000  1
  Ga  Ga2  1  0.50000000  0.00000000  0.00000000  1
  Ga  Ga3  1  0.00000000  0.50000000  0.00000000  1
  O  O0  1  0.69872200  0.30102400  0.44709100  1
  O  O1  1  0.19872200  0.19897600  0.55290900  1
  O  O2  1  0.80127800  0.80102500  0.05290900  1
  O  O3  1  0.30127800  0.69897500  0.94709100  1
  O  O4  1  0.30127800  0.69897500  0.55290900  1
  O  O5  1  0.80127800  0.80102500  0.44709100  1
  O  O6  1  0.19872200  0.19897600  0.94709100  1
  O  O7  1  0.69872200  0.30102400  0.05290900  1
  O  O8  1  0.10196800  0.46766800  0.25000000  1
  O  O9  1  0.60196800  0.03233200  0.75000000  1
  O  O10  1  0.39803200  0.96766800  0.25000000  1
  O  O11  1  0.89803200  0.53233200  0.75000000  1
loop_
_geom_bond_atom_site_label_1
_geom_bond_atom_site_label_2
_geom_bond_distance
_geom_bond_site_symmetry_2
Gd0 O9 2.293152 1_465
Gd0 O6 2.329821 1_565
Gd0 O1 2.329821 1_565
Gd0 O11 2.361696 1_455
Gd0 O3 2.535298 1_555
Gd0 O4 2.535298 1_555
Gd0 O2 2.714881 1_456
Gd0 O5 2.714881 1_455
Gd1 O8 2.293152 1_555
Gd1 O0 2.329821 1_555
Gd1 O7 2.329821 1_555
Gd1 O10 2.361696 1_555
Gd1 O5 2.535298 1_555
Gd1 O2 2.535298 1_555
Gd1 O4 2.714881 1_555
Gd1 O3 2.714881 1_554
Gd2 O11 2.293152 1_555
Gd2 O3 2.329817 1_555
Gd2 O4 2.329817 1_555
Gd2 O9 2.361696 1_555
Gd2 O6 2.535295 1_555
Gd2 O1 2.535295 1_555
Gd2 O7 2.714882 1_556
Gd2 O0 2.714882 1_555
Gd3 O10 2.293152 1_645
Gd3 O5 2.329817 1_545
Gd3 O2 2.329817 1_545
Gd3 O8 2.361696 1_655
Gd3 O0 2.535295 1_555
Gd3 O7 2.535295 1_555
Gd3 O1 2.714882 1_655
Gd3 O6 2.714882 1_654
Ga0 O4 2.009228 1_555
Ga0 O0 2.009231 1_455
Ga0 O8 2.010486 1_555
Ga0 O11 2.010486 1_455
Ga0 O1 2.041550 1_555
Ga0 O5 2.041555 1_455
Ga1 O5 2.009228 1_545
Ga1 O1 2.009231 1_555
Ga1 O9 2.010486 1_555
Ga1 O10 2.010486 1_545
Ga1 O0 2.041550 1_555
Ga1 O4 2.041555 1_545
Ga2 O2 2.009228 1_545
Ga2 O6 2.009231 1_554
Ga2 O9 2.010486 1_554
Ga2 O10 2.010486 1_545
Ga2 O7 2.041550 1_555
Ga2 O3 2.041555 1_544
Ga3 O3 2.009228 1_554
Ga3 O7 2.009231 1_455
Ga3 O8 2.010486 1_555
Ga3 O11 2.010486 1_454
Ga3 O6 2.041550 1_554
Ga3 O2 2.041555 1_455
