# generated using pymatgen
data_Ba3Y3Cu3O10
_symmetry_space_group_name_H-M   'P 1'
_cell_length_a   5.69194531
_cell_length_b   9.15544140
_cell_length_c   13.01444900
_cell_angle_alpha   97.31492377
_cell_angle_beta   78.05851152
_cell_angle_gamma   69.07122995
_symmetry_Int_Tables_number   1
_chemical_formula_structural   Ba3Y3Cu3O10
_chemical_formula_sum   'Ba6 Y6 Cu6 O20'
_cell_volume   604.54497527
_cell_formula_units_Z   2
loop_
 _symmetry_equiv_pos_site_id
 _symmetry_equiv_pos_as_xyz
  1  'x, y, z'
loop_
 _atom_site_type_symbol
 _atom_site_label
 _atom_site_symmetry_multiplicity
 _atom_site_fract_x
 _atom_site_fract_y
 _atom_site_fract_z
 _atom_site_occupancy
  Ba  Ba0  1  0.21512300  0.91388400  0.68545600  1
  Ba  Ba1  1  0.89398100  0.54904700  0.65664100  1
  Ba  Ba2  1  0.53860400  0.21073600  0.68899900  1
  Ba  Ba3  1  0.46523200  0.77223400  0.33857200  1
  Ba  Ba4  1  0.09547200  0.47654900  0.34741000  1
  Ba  Ba5  1  0.75152800  0.10986900  0.35461600  1
  Y  Y0  1  0.66418100  0.66906000  0.99985600  1
  Y  Y1  1  0.34342400  0.32929900  0.99333200  1
  Y  Y2  1  0.00221100  0.99692000  0.99217300  1
  Y  Y3  1  0.27457300  0.61201200  0.83542300  1
  Y  Y4  1  0.38288500  0.05076700  0.16364100  1
  Y  Y5  1  0.72951800  0.38759500  0.16010300  1
  Cu  Cu0  1  0.50094400  0.49796100  0.50186300  1
  Cu  Cu1  1  0.15485000  0.16530900  0.49184300  1
  Cu  Cu2  1  0.84634700  0.84040100  0.50803800  1
  Cu  Cu3  1  0.58654100  0.95921800  0.86582600  1
  Cu  Cu4  1  0.92282400  0.28617100  0.87035200  1
  Cu  Cu5  1  0.08292900  0.70853000  0.12403400  1
  O  O0  1  0.41387800  0.80062400  0.88037000  1
  O  O1  1  0.07429600  0.45293700  0.88501700  1
  O  O2  1  0.74880100  0.12748600  0.87606000  1
  O  O3  1  0.89017200  0.80649500  0.89555200  1
  O  O4  1  0.58787200  0.45399300  0.88985900  1
  O  O5  1  0.25639200  0.12020200  0.85979800  1
  O  O6  1  0.93103600  0.54462300  0.11771500  1
  O  O7  1  0.59366800  0.19995300  0.10797800  1
  O  O8  1  0.24796100  0.86584500  0.10780100  1
  O  O9  1  0.41456200  0.54507900  0.11144100  1
  O  O10  1  0.11049900  0.19460100  0.08421300  1
  O  O11  1  0.75982700  0.86232500  0.11868900  1
  O  O12  1  0.38824500  0.55113900  0.66446100  1
  O  O13  1  0.03535300  0.20134200  0.63843700  1
  O  O14  1  0.75779600  0.89423200  0.65574100  1
  O  O15  1  0.62861300  0.43758300  0.33325900  1
  O  O16  1  0.25675300  0.10531500  0.33919600  1
  O  O17  1  0.96174900  0.79964500  0.35969200  1
  O  O18  1  0.33169200  0.35004600  0.49627100  1
  O  O19  1  0.65966700  0.65097500  0.50027200  1
loop_
_geom_bond_atom_site_label_1
_geom_bond_atom_site_label_2
_geom_bond_distance
_geom_bond_site_symmetry_2
Ba0 O13 2.663305 1_565
Ba0 O14 2.773341 1_455
Ba0 O5 2.866637 1_565
Ba0 O14 2.968826 1_555
Ba0 O2 3.058540 1_465
Ba0 O12 3.065097 1_555
Ba0 O19 3.106890 1_555
Ba0 O0 3.131976 1_555
Ba1 O19 2.740200 1_555
Ba1 O18 2.742208 1_655
Ba1 O12 2.842886 1_655
Ba1 O12 2.852379 1_555
Ba1 O13 2.955779 1_655
Ba1 O14 2.975178 1_555
Ba2 O14 2.648605 1_545
Ba2 O13 2.734390 1_655
Ba2 O5 2.855031 1_555
Ba2 O2 2.994249 1_555
Ba2 O12 3.001380 1_555
Ba2 O13 3.096331 1_555
Ba2 O1 3.161062 1_555
Ba2 O18 3.204541 1_555
Ba2 O4 3.337542 1_555
Ba3 O17 2.737514 1_455
Ba3 O19 2.750806 1_555
Ba3 O16 2.848181 1_565
Ba3 O15 2.853214 1_555
Ba3 O17 2.989354 1_555
Ba4 O19 2.641976 1_455
Ba4 O18 2.727516 1_555
Ba4 O17 2.752433 1_455
Ba4 O15 2.843534 1_455
Ba4 O15 2.889396 1_555
Ba4 O16 3.169209 1_555
Ba4 O6 3.378792 1_455
Ba5 O17 2.674998 1_545
Ba5 O18 2.708340 1_555
Ba5 O16 2.825797 1_655
Ba5 O16 2.879030 1_555
Ba5 O15 2.891732 1_555
Cu0 O19 1.919121 1_555
Cu0 O18 1.924390 1_555
Cu0 O12 2.019725 1_555
Cu0 O15 2.095905 1_555
Cu1 O13 1.831321 1_555
Cu1 O16 1.898013 1_555
Cu1 O18 2.256685 1_555
Cu2 O14 1.836414 1_555
Cu2 O17 1.847898 1_555
Cu2 O19 2.337376 1_555
Cu3 O3 1.944131 1_555
Cu3 O5 1.954884 1_565
Cu3 O0 2.030389 1_555
Cu3 O2 2.063789 1_565
Cu3 O14 2.616908 1_555
Cu4 O4 1.915121 1_555
Cu4 O5 1.926266 1_655
Cu4 O1 2.011283 1_655
Cu4 O2 2.030397 1_555
Cu5 O11 1.896726 1_455
Cu5 O9 1.902866 1_555
Cu5 O6 1.982686 1_455
Cu5 O8 1.990820 1_555
O0 Y3 2.205842 1_555
O0 Y2 2.398384 1_555
O0 Y0 2.463055 1_555
O1 Y3 2.226704 1_555
O1 Y1 2.382483 1_555
O1 Y0 2.470118 1_455
O2 Y1 2.417879 1_555
O2 Y2 2.433765 1_645
O3 Y3 2.173358 1_655
O3 Y2 2.365446 1_655
O3 Y0 2.439114 1_555
O4 Y3 2.171569 1_555
O4 Y1 2.409071 1_555
O4 Y0 2.503119 1_555
O5 Y2 2.639219 1_545
O5 Y1 2.667774 1_555
O6 Y5 2.192047 1_555
O6 Y0 2.476025 1_554
O6 Y1 2.515078 1_654
O7 Y5 2.208797 1_555
O7 Y4 2.211973 1_555
O7 Y1 2.404540 1_554
O7 Y2 2.425378 1_644
O8 Y4 2.197923 1_565
O8 Y0 2.400215 1_554
O8 Y2 2.406862 1_554
O9 Y5 2.132963 1_555
O9 Y0 2.476732 1_554
O9 Y1 2.546628 1_554
O10 Y5 2.175307 1_455
O10 Y4 2.181219 1_555
O10 Y1 2.359677 1_554
O10 Y2 2.375031 1_544
O11 Y4 2.121598 1_565
O11 Y0 2.481700 1_554
O11 Y2 2.631382 1_654
O12 Y3 2.123825 1_555
O15 Y5 2.152136 1_555
O16 Y4 2.181611 1_555
