# generated using pymatgen
data_TlIn
_symmetry_space_group_name_H-M   'P 1'
_cell_length_a   11.82670741
_cell_length_b   11.82670741
_cell_length_c   11.82670862
_cell_angle_alpha   33.54429881
_cell_angle_beta   33.54429881
_cell_angle_gamma   33.54429445
_symmetry_Int_Tables_number   1
_chemical_formula_structural   TlIn
_chemical_formula_sum   'Tl8 In8'
_cell_volume   449.90204283
_cell_formula_units_Z   8
loop_
 _symmetry_equiv_pos_site_id
 _symmetry_equiv_pos_as_xyz
  1  'x, y, z'
loop_
 _atom_site_type_symbol
 _atom_site_label
 _atom_site_symmetry_multiplicity
 _atom_site_fract_x
 _atom_site_fract_y
 _atom_site_fract_z
 _atom_site_occupancy
  Tl  Tl0_0  1  0.25000000  0.25000000  0.25000000  1
  Tl  Tl0_1  1  0.25000000  0.25000000  0.75000000  1
  Tl  Tl0_2  1  0.25000000  0.75000000  0.25000000  1
  Tl  Tl0_3  1  0.25000000  0.75000000  0.75000000  1
  Tl  Tl0_4  1  0.75000000  0.25000000  0.25000000  1
  Tl  Tl0_5  1  0.75000000  0.25000000  0.75000000  1
  Tl  Tl0_6  1  0.75000000  0.75000000  0.25000000  1
  Tl  Tl0_7  1  0.75000000  0.75000000  0.75000000  1
  In  In0_0  1  0.00000000  0.00000000  0.00000000  1
  In  In0_1  1  0.00000000  0.00000000  0.50000000  1
  In  In0_2  1  0.00000000  0.50000000  0.00000000  1
  In  In0_3  1  0.00000000  0.50000000  0.50000000  1
  In  In0_4  1  0.50000000  0.00000000  0.00000000  1
  In  In0_5  1  0.50000000  1.00000000  0.50000000  1
  In  In0_6  1  0.50000000  0.50000000  0.00000000  1
  In  In0_7  1  0.50000000  0.50000000  0.50000000  1
loop_
_geom_bond_atom_site_label_1
_geom_bond_atom_site_label_2
_geom_bond_distance
_geom_bond_site_symmetry_2
Tl0_0 Tl0_6 3.412790 1_455
Tl0_0 Tl0_6 3.412790 1_545
Tl0_0 Tl0_5 3.412791 1_455
Tl0_0 Tl0_3 3.412791 1_554
Tl0_0 Tl0_3 3.412791 1_545
Tl0_0 Tl0_5 3.412791 1_554
Tl0_1 Tl0_7 3.412790 1_455
Tl0_1 Tl0_7 3.412790 1_545
Tl0_1 Tl0_4 3.412791 1_555
Tl0_1 Tl0_4 3.412791 1_456
Tl0_1 Tl0_2 3.412791 1_546
Tl0_1 Tl0_2 3.412791 1_555
Tl0_2 Tl0_4 3.412790 1_555
Tl0_2 Tl0_4 3.412790 1_465
Tl0_2 Tl0_7 3.412791 1_455
Tl0_2 Tl0_7 3.412791 1_554
Tl0_3 Tl0_5 3.412790 1_465
Tl0_3 Tl0_5 3.412790 1_555
Tl0_3 Tl0_6 3.412791 1_456
Tl0_3 Tl0_6 3.412791 1_555
Tl0_4 Tl0_7 3.412791 1_554
Tl0_4 Tl0_7 3.412791 1_545
Tl0_5 Tl0_6 3.412791 1_546
Tl0_5 Tl0_6 3.412791 1_555
In0_0 In0_6 3.412790 1_455
In0_0 In0_6 3.412790 1_545
In0_0 In0_3 3.412791 1_554
In0_0 In0_5 3.412791 1_445
In0_0 In0_5 3.412791 1_544
In0_0 In0_3 3.412791 1_545
In0_0 Tl0_6 3.413755 1_445
In0_0 Tl0_1 3.413755 1_554
In0_0 Tl0_5 3.413755 1_454
In0_0 Tl0_3 3.413755 1_544
In0_0 Tl0_4 3.413755 1_455
In0_0 Tl0_2 3.413755 1_545
In0_1 In0_7 3.412790 1_455
In0_1 In0_7 3.412790 1_545
In0_1 In0_4 3.412791 1_555
In0_1 In0_4 3.412791 1_456
In0_1 In0_2 3.412791 1_555
In0_1 In0_2 3.412791 1_546
In0_1 Tl0_7 3.413755 1_445
In0_1 Tl0_0 3.413755 1_555
In0_1 Tl0_4 3.413755 1_455
In0_1 Tl0_5 3.413755 1_455
In0_1 Tl0_2 3.413755 1_545
In0_1 Tl0_3 3.413755 1_545
In0_2 In0_4 3.412790 1_555
In0_2 In0_4 3.412790 1_465
In0_2 In0_7 3.412791 1_455
In0_2 In0_7 3.412791 1_554
In0_2 Tl0_4 3.413755 1_455
In0_2 Tl0_3 3.413755 1_554
In0_2 Tl0_7 3.413755 1_454
In0_2 Tl0_1 3.413755 1_554
In0_2 Tl0_0 3.413755 1_555
In0_2 Tl0_6 3.413755 1_455
In0_3 In0_5 3.412790 1_455
In0_3 In0_5 3.412790 1_545
In0_3 In0_6 3.412791 1_555
In0_3 In0_6 3.412791 1_456
In0_3 Tl0_5 3.413755 1_455
In0_3 Tl0_2 3.413755 1_555
In0_3 Tl0_6 3.413755 1_455
In0_3 Tl0_0 3.413755 1_555
In0_3 Tl0_1 3.413755 1_555
In0_3 Tl0_7 3.413755 1_455
In0_4 In0_7 3.412791 1_554
In0_4 In0_7 3.412791 1_545
In0_4 Tl0_2 3.413755 1_545
In0_4 Tl0_5 3.413755 1_554
In0_4 Tl0_1 3.413755 1_554
In0_4 Tl0_7 3.413755 1_544
In0_4 Tl0_0 3.413755 1_555
In0_4 Tl0_6 3.413755 1_545
In0_5 In0_6 3.412791 1_556
In0_5 In0_6 3.412791 1_565
In0_5 Tl0_3 3.413755 1_555
In0_5 Tl0_4 3.413755 1_565
In0_5 Tl0_6 3.413755 1_555
In0_5 Tl0_0 3.413755 1_565
In0_5 Tl0_1 3.413755 1_565
In0_5 Tl0_7 3.413755 1_555
In0_6 Tl0_0 3.413755 1_555
In0_6 Tl0_7 3.413755 1_554
In0_6 Tl0_2 3.413755 1_555
In0_6 Tl0_4 3.413755 1_555
In0_6 Tl0_3 3.413755 1_554
In0_6 Tl0_5 3.413755 1_554
In0_7 Tl0_1 3.413755 1_555
In0_7 Tl0_6 3.413755 1_555
In0_7 Tl0_4 3.413755 1_555
In0_7 Tl0_2 3.413755 1_555
In0_7 Tl0_3 3.413755 1_555
In0_7 Tl0_5 3.413755 1_555
