# generated using pymatgen
data_CuH8C2(NCl2)2
_symmetry_space_group_name_H-M   'P 1'
_cell_length_a   5.90779268
_cell_length_b   6.15485700
_cell_length_c   16.12801922
_cell_angle_alpha   90.00000000
_cell_angle_beta   109.34878919
_cell_angle_gamma   90.00000000
_symmetry_Int_Tables_number   1
_chemical_formula_structural   CuH8C2(NCl2)2
_chemical_formula_sum   'Cu2 H16 C4 N4 Cl8'
_cell_volume   553.31822104
_cell_formula_units_Z   2
loop_
 _symmetry_equiv_pos_site_id
 _symmetry_equiv_pos_as_xyz
  1  'x, y, z'
loop_
 _atom_site_type_symbol
 _atom_site_label
 _atom_site_symmetry_multiplicity
 _atom_site_fract_x
 _atom_site_fract_y
 _atom_site_fract_z
 _atom_site_occupancy
  Cu  Cu0  1  0.50000000  0.50000000  0.00000000  1
  Cu  Cu1  1  0.00000000  0.00000000  0.00000000  1
  H  H0  1  0.29707700  0.90718100  0.17874900  1
  H  H1  1  0.20292300  0.40718200  0.82125100  1
  H  H2  1  0.70292300  0.09281900  0.82125100  1
  H  H3  1  0.79707700  0.59281900  0.17874900  1
  H  H4  1  0.20252200  0.43929000  0.37066200  1
  H  H5  1  0.29747800  0.93929000  0.62933800  1
  H  H6  1  0.79747800  0.56071000  0.62933800  1
  H  H7  1  0.70252200  0.06071000  0.37066200  1
  H  H8  1  0.16773500  0.75437600  0.36872800  1
  H  H9  1  0.33226500  0.25437600  0.63127200  1
  H  H10  1  0.83226500  0.24562400  0.63127200  1
  H  H11  1  0.66773500  0.74562400  0.36872800  1
  H  H12  1  0.05897200  0.49582000  0.51838900  1
  H  H13  1  0.44102800  0.99582000  0.48161100  1
  H  H14  1  0.94102800  0.50418000  0.48161100  1
  H  H15  1  0.55897200  0.00418000  0.51838900  1
  C  C0  1  0.30960900  0.58625100  0.36991000  1
  C  C1  1  0.19039100  0.08625100  0.63009000  1
  C  C2  1  0.69039100  0.41374900  0.63009000  1
  C  C3  1  0.80960900  0.91374900  0.36991000  1
  N  N0  1  0.01718600  0.92302200  0.37044200  1
  N  N1  1  0.48281400  0.42302200  0.62955800  1
  N  N2  1  0.98281400  0.07697800  0.62955800  1
  N  N3  1  0.51718600  0.57697800  0.37044200  1
  Cl  Cl0  1  0.75432000  0.41565700  0.21461100  1
  Cl  Cl1  1  0.74568000  0.91565700  0.78538900  1
  Cl  Cl2  1  0.24568000  0.58434300  0.78538900  1
  Cl  Cl3  1  0.25432000  0.08434300  0.21461100  1
  Cl  Cl4  1  0.76366300  0.30225800  0.95570600  1
  Cl  Cl5  1  0.73633700  0.80225800  0.04429400  1
  Cl  Cl6  1  0.23633700  0.69774200  0.04429400  1
  Cl  Cl7  1  0.26366300  0.19774200  0.95570600  1
loop_
_geom_bond_atom_site_label_1
_geom_bond_atom_site_label_2
_geom_bond_distance
_geom_bond_site_symmetry_2
H8 N0 1.373149 1_555
H9 N1 1.373149 1_555
H10 N2 1.373149 1_555
H11 N3 1.373149 1_555
H12 H14 0.752413 1_455
H13 H15 0.752413 1_565
C0 H4 1.106182 1_555
C0 N3 1.224836 1_555
C0 H8 1.327807 1_555
C1 H5 1.106182 1_545
C1 N2 1.224836 1_455
C1 H9 1.327807 1_555
C2 H6 1.106182 1_555
C2 N1 1.224836 1_555
C2 H10 1.327807 1_555
C3 H7 1.106182 1_565
C3 N0 1.224836 1_655
C3 H11 1.327807 1_555
Cl0 H3 1.297741 1_555
Cl1 H2 1.297741 1_565
Cl2 H1 1.297736 1_555
Cl3 H0 1.297741 1_545
Cl4 Cu0 2.270523 1_556
Cl4 Cu1 2.293420 1_656
Cl5 Cu1 2.270523 1_665
Cl5 Cu0 2.293420 1_555
Cl6 Cu0 2.270523 1_555
Cl6 Cu1 2.293420 1_565
Cl7 Cu1 2.270523 1_556
Cl7 Cu0 2.293420 1_556
