# generated using pymatgen
data_Na9H4S4BrO20
_symmetry_space_group_name_H-M   'P 1'
_cell_length_a   8.61150774
_cell_length_b   15.11347216
_cell_length_c   15.11347216
_cell_angle_alpha   90.00000000
_cell_angle_beta   90.00000000
_cell_angle_gamma   90.00000000
_symmetry_Int_Tables_number   1
_chemical_formula_structural   Na9H4S4BrO20
_chemical_formula_sum   'Na36 H16 S16 Br4 O80'
_cell_volume   1967.01511420
_cell_formula_units_Z   4
loop_
 _symmetry_equiv_pos_site_id
 _symmetry_equiv_pos_as_xyz
  1  'x, y, z'
loop_
 _atom_site_type_symbol
 _atom_site_label
 _atom_site_symmetry_multiplicity
 _atom_site_fract_x
 _atom_site_fract_y
 _atom_site_fract_z
 _atom_site_occupancy
  Na  Na0  1  0.18447168  0.62657607  0.14818629  1
  Na  Na1  1  0.18447168  0.87342393  0.35181371  1
  Na  Na2  1  0.18447168  0.14818629  0.87342393  1
  Na  Na3  1  0.18447168  0.35181371  0.62657607  1
  Na  Na4  1  0.81552832  0.37342393  0.85181371  1
  Na  Na5  1  0.81552832  0.12657607  0.64818629  1
  Na  Na6  1  0.81552832  0.85181371  0.12657607  1
  Na  Na7  1  0.81552832  0.64818629  0.37342393  1
  Na  Na8  1  0.50000000  0.75000000  0.25000000  1
  Na  Na9  1  0.50000000  0.25000000  0.75000000  1
  Na  Na10  1  0.79502755  0.60879990  0.12740371  1
  Na  Na11  1  0.79502755  0.89120010  0.37259629  1
  Na  Na12  1  0.79502755  0.12740371  0.89120010  1
  Na  Na13  1  0.79502755  0.37259629  0.60879990  1
  Na  Na14  1  0.20497245  0.39120010  0.87259629  1
  Na  Na15  1  0.20497245  0.10879990  0.62740371  1
  Na  Na16  1  0.20497245  0.87259629  0.10879990  1
  Na  Na17  1  0.20497245  0.62740371  0.39120010  1
  Na  Na18  1  0.31273719  0.62490240  0.85420047  1
  Na  Na19  1  0.31273719  0.87509760  0.64579953  1
  Na  Na20  1  0.31273719  0.85420047  0.87509760  1
  Na  Na21  1  0.31273719  0.64579953  0.62490240  1
  Na  Na22  1  0.68726281  0.37509760  0.14579953  1
  Na  Na23  1  0.68726281  0.12490240  0.35420047  1
  Na  Na24  1  0.68726281  0.14579953  0.12490240  1
  Na  Na25  1  0.68726281  0.35420047  0.37509760  1
  Na  Na26  1  0.98047938  0.75000000  0.75000000  1
  Na  Na27  1  0.01952062  0.25000000  0.25000000  1
  Na  Na28  1  0.70109921  0.61115251  0.87054264  1
  Na  Na29  1  0.70109921  0.88884749  0.62945736  1
  Na  Na30  1  0.70109921  0.87054264  0.88884749  1
  Na  Na31  1  0.70109921  0.62945736  0.61115251  1
  Na  Na32  1  0.29890079  0.38884749  0.12945736  1
  Na  Na33  1  0.29890079  0.11115251  0.37054264  1
  Na  Na34  1  0.29890079  0.12945736  0.11115251  1
  Na  Na35  1  0.29890079  0.37054264  0.38884749  1
  H  H0  1  0.38170243  0.56582142  0.02564983  1
  H  H1  1  0.38170243  0.93417858  0.47435017  1
  H  H2  1  0.38170243  0.02564983  0.93417858  1
  H  H3  1  0.38170243  0.47435017  0.56582142  1
  H  H4  1  0.61829757  0.43417858  0.97435017  1
  H  H5  1  0.61829757  0.06582142  0.52564983  1
  H  H6  1  0.61829757  0.97435017  0.06582142  1
  H  H7  1  0.61829757  0.52564983  0.43417858  1
  H  H8  1  0.11224958  0.56419152  0.97690231  1
  H  H9  1  0.11224958  0.93580848  0.52309769  1
  H  H10  1  0.11224958  0.97690231  0.93580848  1
  H  H11  1  0.11224958  0.52309769  0.56419152  1
  H  H12  1  0.88775042  0.43580848  0.02309769  1
  H  H13  1  0.88775042  0.06419152  0.47690231  1
  H  H14  1  0.88775042  0.02309769  0.06419152  1
  H  H15  1  0.88775042  0.47690231  0.43580848  1
  S  S0  1  0.49672804  0.73472541  0.04030576  1
  S  S1  1  0.49672804  0.76527459  0.45969424  1
  S  S2  1  0.49672804  0.04030576  0.76527459  1
  S  S3  1  0.49672804  0.45969424  0.73472541  1
  S  S4  1  0.50327196  0.26527459  0.95969424  1
  S  S5  1  0.50327196  0.23472541  0.54030576  1
  S  S6  1  0.50327196  0.95969424  0.23472541  1
  S  S7  1  0.50327196  0.54030576  0.26527459  1
  S  S8  1  0.00013230  0.73465147  0.95984803  1
  S  S9  1  0.00013230  0.76534853  0.54015197  1
  S  S10  1  0.00013230  0.95984803  0.76534853  1
  S  S11  1  0.00013230  0.54015197  0.73465147  1
  S  S12  1  0.99986770  0.26534853  0.04015197  1
  S  S13  1  0.99986770  0.23465147  0.45984803  1
  S  S14  1  0.99986770  0.04015197  0.23465147  1
  S  S15  1  0.99986770  0.45984803  0.26534853  1
  Br  Br0  1  -0.00000000  0.75000000  0.25000000  1
  Br  Br1  1  -0.00000000  0.25000000  0.75000000  1
  Br  Br2  1  0.50766978  0.75000000  0.75000000  1
  Br  Br3  1  0.49233022  0.25000000  0.25000000  1
  O  O0  1  0.29454910  0.52419665  0.04193890  1
  O  O1  1  0.29454910  0.97580335  0.45806110  1
  O  O2  1  0.29454910  0.04193890  0.97580335  1
  O  O3  1  0.29454910  0.45806110  0.52419665  1
  O  O4  1  0.70545090  0.47580335  0.95806110  1
  O  O5  1  0.70545090  0.02419665  0.54193890  1
  O  O6  1  0.70545090  0.95806110  0.02419665  1
  O  O7  1  0.70545090  0.54193890  0.47580335  1
  O  O8  1  0.20130424  0.52397885  0.96058248  1
  O  O9  1  0.20130424  0.97602115  0.53941752  1
  O  O10  1  0.20130424  0.96058248  0.97602115  1
  O  O11  1  0.20130424  0.53941752  0.52397885  1
  O  O12  1  0.79869576  0.47602115  0.03941752  1
  O  O13  1  0.79869576  0.02397885  0.46058248  1
  O  O14  1  0.79869576  0.03941752  0.02397885  1
  O  O15  1  0.79869576  0.46058248  0.47602115  1
  O  O16  1  0.49731083  0.81464589  0.98320528  1
  O  O17  1  0.49731083  0.68535411  0.51679472  1
  O  O18  1  0.49731083  0.98320528  0.68535411  1
  O  O19  1  0.49731083  0.51679472  0.81464589  1
  O  O20  1  0.50268917  0.18535411  0.01679472  1
  O  O21  1  0.50268917  0.31464589  0.48320528  1
  O  O22  1  0.50268917  0.01679472  0.31464589  1
  O  O23  1  0.50268917  0.48320528  0.18535411  1
  O  O24  1  0.63972403  0.73317222  0.09660866  1
  O  O25  1  0.63972403  0.76682778  0.40339134  1
  O  O26  1  0.63972403  0.09660866  0.76682778  1
  O  O27  1  0.63972403  0.40339134  0.73317222  1
  O  O28  1  0.36027597  0.26682778  0.90339134  1
  O  O29  1  0.36027597  0.23317222  0.59660866  1
  O  O30  1  0.36027597  0.90339134  0.23317222  1
  O  O31  1  0.36027597  0.59660866  0.26682778  1
  O  O32  1  0.49170988  0.65237124  0.98417293  1
  O  O33  1  0.49170988  0.84762876  0.51582707  1
  O  O34  1  0.49170988  0.98417293  0.84762876  1
  O  O35  1  0.49170988  0.51582707  0.65237124  1
  O  O36  1  0.50829012  0.34762876  0.01582707  1
  O  O37  1  0.50829012  0.15237124  0.48417293  1
  O  O38  1  0.50829012  0.01582707  0.15237124  1
  O  O39  1  0.50829012  0.48417293  0.34762876  1
  O  O40  1  0.35807521  0.73682957  0.10006733  1
  O  O41  1  0.35807521  0.76317043  0.39993267  1
  O  O42  1  0.35807521  0.10006733  0.76317043  1
  O  O43  1  0.35807521  0.39993267  0.73682957  1
  O  O44  1  0.64192479  0.26317043  0.89993267  1
  O  O45  1  0.64192479  0.23682957  0.60006733  1
  O  O46  1  0.64192479  0.89993267  0.23682957  1
  O  O47  1  0.64192479  0.60006733  0.26317043  1
  O  O48  1  0.00030138  0.81442796  0.01728801  1
  O  O49  1  0.00030138  0.68557204  0.48271199  1
  O  O50  1  0.00030138  0.01728801  0.68557204  1
  O  O51  1  0.00030138  0.48271199  0.81442796  1
  O  O52  1  0.99969862  0.18557204  0.98271199  1
  O  O53  1  0.99969862  0.31442796  0.51728801  1
  O  O54  1  0.99969862  0.98271199  0.31442796  1
  O  O55  1  0.99969862  0.51728801  0.18557204  1
  O  O56  1  0.85786920  0.73518414  0.90278990  1
  O  O57  1  0.85786920  0.76481586  0.59721010  1
  O  O58  1  0.85786920  0.90278990  0.76481586  1
  O  O59  1  0.85786920  0.59721010  0.73518414  1
  O  O60  1  0.14213080  0.26481586  0.09721010  1
  O  O61  1  0.14213080  0.23518414  0.40278990  1
  O  O62  1  0.14213080  0.09721010  0.23518414  1
  O  O63  1  0.14213080  0.40278990  0.26481586  1
  O  O64  1  0.00152697  0.65213750  0.01583072  1
  O  O65  1  0.00152697  0.84786250  0.48416928  1
  O  O66  1  0.00152697  0.01583072  0.84786250  1
  O  O67  1  0.00152697  0.48416928  0.65213750  1
  O  O68  1  0.99847303  0.34786250  0.98416928  1
  O  O69  1  0.99847303  0.15213750  0.51583072  1
  O  O70  1  0.99847303  0.98416928  0.15213750  1
  O  O71  1  0.99847303  0.51583072  0.34786250  1
  O  O72  1  0.13954318  0.73520289  0.90089330  1
  O  O73  1  0.13954318  0.76479711  0.59910670  1
  O  O74  1  0.13954318  0.90089330  0.76479711  1
  O  O75  1  0.13954318  0.59910670  0.73520289  1
  O  O76  1  0.86045682  0.26479711  0.09910670  1
  O  O77  1  0.86045682  0.23520289  0.40089330  1
  O  O78  1  0.86045682  0.09910670  0.23520289  1
  O  O79  1  0.86045682  0.40089330  0.26479711  1
loop_
_geom_bond_atom_site_label_1
_geom_bond_atom_site_label_2
_geom_bond_distance
_geom_bond_site_symmetry_2
Na0 O40 2.353821 1_555
Na0 O55 2.362050 1_455
Na0 O31 2.390041 1_555
Na0 O0 2.423062 1_555
Na0 O64 2.575390 1_555
Na1 O41 2.353821 1_555
Na1 O54 2.362050 1_455
Na1 O30 2.390041 1_555
Na1 O1 2.423062 1_555
Na1 O65 2.575390 1_555
Na2 O42 2.353821 1_555
Na2 O52 2.362050 1_455
Na2 O28 2.390041 1_555
Na2 O2 2.423062 1_555
Na2 O66 2.575390 1_555
Na3 O43 2.353821 1_555
Na3 O53 2.362050 1_455
Na3 O29 2.390041 1_555
Na3 O3 2.423062 1_555
Na3 O67 2.575390 1_555
Na4 O44 2.353821 1_555
Na4 O51 2.362050 1_655
Na4 O27 2.390041 1_555
Na4 O4 2.423062 1_555
Na4 O68 2.575390 1_555
Na5 O45 2.353821 1_555
Na5 O50 2.362050 1_655
Na5 O26 2.390041 1_555
Na5 O5 2.423062 1_555
Na5 O69 2.575390 1_555
Na6 O46 2.353821 1_555
Na6 O48 2.362050 1_655
Na6 O24 2.390041 1_555
Na6 O6 2.423062 1_555
Na6 O70 2.575390 1_555
Na7 O47 2.353821 1_555
Na7 O49 2.362050 1_655
Na7 O25 2.390041 1_555
Na7 O7 2.423062 1_555
Na7 O71 2.575390 1_555
Na8 O47 2.582273 1_555
Na8 O41 2.582273 1_555
Na8 O46 2.582273 1_555
Na8 O40 2.582273 1_555
Na8 O31 2.624282 1_555
Na8 O25 2.624282 1_555
Na8 O30 2.624282 1_555
Na8 O24 2.624282 1_555
Na9 O44 2.582273 1_555
Na9 O43 2.582273 1_555
Na9 O45 2.582273 1_555
Na9 O42 2.582273 1_555
Na9 O28 2.624282 1_555
Na9 O26 2.624282 1_555
Na9 O29 2.624282 1_555
Na9 O27 2.624282 1_555
Na10 O24 2.353404 1_555
Na10 O55 2.406704 1_555
Na10 O12 2.407559 1_555
Na10 O47 2.442547 1_555
Na10 O64 2.536672 1_655
Na11 O25 2.353404 1_555
Na11 O54 2.406704 1_555
Na11 O13 2.407559 1_565
Na11 O46 2.442547 1_555
Na11 O65 2.536672 1_655
Na12 O26 2.353404 1_555
Na12 O52 2.406704 1_555
Na12 O14 2.407559 1_556
Na12 O44 2.442547 1_555
Na12 O66 2.536672 1_655
Na13 O27 2.353404 1_555
Na13 O53 2.406704 1_555
Na13 O15 2.407559 1_555
Na13 O45 2.442547 1_555
Na13 O67 2.536672 1_655
Na14 O28 2.353404 1_555
Na14 O51 2.406704 1_555
Na14 O8 2.407559 1_555
Na14 O43 2.442547 1_555
Na14 O68 2.536672 1_455
Na15 O29 2.353404 1_555
Na15 O50 2.406704 1_555
Na15 O9 2.407559 1_545
Na15 O42 2.442547 1_555
Na15 O69 2.536672 1_455
Na16 O30 2.353404 1_555
Na16 O48 2.406704 1_555
Na16 O10 2.407559 1_554
Na16 O40 2.442547 1_555
Na16 O70 2.536672 1_455
Na17 O31 2.353404 1_555
Na17 O49 2.406704 1_555
Na17 O11 2.407559 1_555
Na17 O41 2.442547 1_555
Na17 O71 2.536672 1_455
Na18 O72 2.345511 1_555
Na18 O19 2.356548 1_555
Na18 O75 2.368741 1_555
Na18 O8 2.415041 1_555
Na18 O32 2.531074 1_555
Na19 O73 2.345511 1_555
Na19 O18 2.356548 1_555
Na19 O74 2.368741 1_555
Na19 O9 2.415041 1_555
Na19 O33 2.531074 1_555
Na20 O74 2.345511 1_555
Na20 O16 2.356548 1_555
Na20 O72 2.368741 1_555
Na20 O10 2.415041 1_555
Na20 O34 2.531074 1_555
Na21 O75 2.345511 1_555
Na21 O17 2.356548 1_555
Na21 O73 2.368741 1_555
Na21 O11 2.415041 1_555
Na21 O35 2.531074 1_555
Na22 O76 2.345511 1_555
Na22 O23 2.356548 1_555
Na22 O79 2.368741 1_555
Na22 O12 2.415041 1_555
Na22 O36 2.531074 1_555
Na23 O77 2.345511 1_555
Na23 O22 2.356548 1_555
Na23 O78 2.368741 1_555
Na23 O13 2.415041 1_555
Na23 O37 2.531074 1_555
Na24 O78 2.345511 1_555
Na24 O20 2.356548 1_555
Na24 O76 2.368741 1_555
Na24 O14 2.415041 1_555
Na24 O38 2.531074 1_555
Na25 O79 2.345511 1_555
Na25 O21 2.356548 1_555
Na25 O77 2.368741 1_555
Na25 O15 2.415041 1_555
Na25 O39 2.531074 1_555
Na26 O58 2.548983 1_555
Na26 O56 2.548983 1_555
Na26 O59 2.548983 1_555
Na26 O57 2.548983 1_555
Na26 O75 2.669660 1_655
Na26 O73 2.669660 1_655
Na26 O74 2.669660 1_655
Na26 O72 2.669660 1_655
Na27 O61 2.548983 1_555
Na27 O63 2.548983 1_555
Na27 O60 2.548983 1_555
Na27 O62 2.548983 1_555
Na27 O77 2.669660 1_455
Na27 O79 2.669660 1_455
Na27 O76 2.669660 1_455
Na27 O78 2.669660 1_455
Na28 O56 2.360938 1_555
Na28 O19 2.413944 1_555
Na28 O4 2.436272 1_555
Na28 O59 2.460084 1_555
Na28 O32 2.566854 1_555
Na29 O57 2.360938 1_555
Na29 O18 2.413944 1_555
Na29 O5 2.436272 1_565
Na29 O58 2.460084 1_555
Na29 O33 2.566854 1_555
Na30 O58 2.360938 1_555
Na30 O16 2.413944 1_555
Na30 O6 2.436272 1_556
Na30 O56 2.460084 1_555
Na30 O34 2.566854 1_555
Na31 O59 2.360938 1_555
Na31 O17 2.413944 1_555
Na31 O7 2.436272 1_555
Na31 O57 2.460084 1_555
Na31 O35 2.566854 1_555
Na32 O60 2.360938 1_555
Na32 O23 2.413944 1_555
Na32 O0 2.436272 1_555
Na32 O63 2.460084 1_555
Na32 O36 2.566854 1_555
Na33 O61 2.360938 1_555
Na33 O22 2.413944 1_555
Na33 O1 2.436272 1_545
Na33 O62 2.460084 1_555
Na33 O37 2.566854 1_555
Na34 O62 2.360938 1_555
Na34 O20 2.413944 1_555
Na34 O2 2.436272 1_554
Na34 O60 2.460084 1_555
Na34 O38 2.566854 1_555
Na35 O63 2.360938 1_555
Na35 O21 2.413944 1_555
Na35 O3 2.436272 1_555
Na35 O61 2.460084 1_555
Na35 O39 2.566854 1_555
H0 O0 1.009777 1_555
H0 O32 1.732464 1_554
H1 O1 1.009777 1_555
H1 O33 1.732464 1_555
H2 O2 1.009777 1_555
H2 O34 1.732464 1_545
H3 O3 1.009777 1_555
H3 O35 1.732464 1_555
H4 O4 1.009777 1_555
H4 O36 1.732464 1_556
H5 O5 1.009777 1_555
H5 O37 1.732464 1_555
H6 O6 1.009777 1_555
H6 O38 1.732464 1_565
H7 O7 1.009777 1_555
H7 O39 1.732464 1_555
H8 O8 1.009122 1_555
H8 O64 1.738384 1_556
H9 O9 1.009122 1_555
H9 O65 1.738384 1_555
H10 O10 1.009122 1_555
H10 O66 1.738384 1_565
H11 O11 1.009122 1_555
H11 O67 1.738384 1_555
H12 O12 1.009122 1_555
H12 O68 1.738384 1_554
H13 O13 1.009122 1_555
H13 O69 1.738384 1_555
H14 O14 1.009122 1_555
H14 O70 1.738384 1_545
H15 O15 1.009122 1_555
H15 O71 1.738384 1_555
Br0 Na7 2.893259 1_455
Br0 Na0 2.893259 1_555
Br0 Na6 2.893259 1_455
Br0 Na1 2.893259 1_555
Br0 Na11 3.332084 1_455
Br0 Na17 3.332084 1_555
Br0 Na10 3.332084 1_455
Br0 Na16 3.332084 1_555
Br1 Na3 2.893259 1_555
Br1 Na5 2.893259 1_455
Br1 Na4 2.893259 1_455
Br1 Na2 2.893259 1_555
Br1 Na12 3.332084 1_455
Br1 Na14 3.332084 1_555
Br1 Na13 3.332084 1_455
Br1 Na15 3.332084 1_555
Br2 Na20 2.978690 1_555
Br2 Na19 2.978690 1_555
Br2 Na21 2.978690 1_555
Br2 Na18 2.978690 1_555
Br2 Na31 3.239939 1_555
Br2 Na28 3.239939 1_555
Br2 Na29 3.239939 1_555
Br2 Na30 3.239939 1_555
Br3 Na22 2.978690 1_555
Br3 Na24 2.978690 1_555
Br3 Na25 2.978690 1_555
Br3 Na23 2.978690 1_555
Br3 Na33 3.239939 1_555
Br3 Na34 3.239939 1_555
Br3 Na32 3.239939 1_555
Br3 Na35 3.239939 1_555
O16 S0 1.484498 1_556
O17 S1 1.484498 1_555
O18 S2 1.484498 1_565
O19 S3 1.484498 1_555
O20 S4 1.484498 1_554
O21 S5 1.484498 1_555
O22 S6 1.484498 1_545
O23 S7 1.484498 1_555
O24 S0 1.497000 1_555
O25 S1 1.497000 1_555
O26 S2 1.497000 1_555
O27 S3 1.497000 1_555
O28 S4 1.497000 1_555
O29 S5 1.497000 1_555
O30 S6 1.497000 1_555
O31 S7 1.497000 1_555
O32 S0 1.506903 1_556
O33 S1 1.506903 1_555
O34 S2 1.506903 1_565
O35 S3 1.506903 1_555
O36 S4 1.506903 1_554
O37 S5 1.506903 1_555
O38 S6 1.506903 1_545
O39 S7 1.506903 1_555
O40 S0 1.497481 1_555
O41 S1 1.497481 1_555
O42 S2 1.497481 1_555
O43 S3 1.497481 1_555
O44 S4 1.497481 1_555
O45 S5 1.497481 1_555
O46 S6 1.497481 1_555
O47 S7 1.497481 1_555
O48 S8 1.485713 1_554
O49 S9 1.485713 1_555
O50 S10 1.485713 1_545
O51 S11 1.485713 1_555
O52 S12 1.485713 1_556
O53 S13 1.485713 1_555
O54 S14 1.485713 1_565
O55 S15 1.485713 1_555
O56 S8 1.498191 1_655
O57 S9 1.498191 1_655
O58 S10 1.498191 1_655
O59 S11 1.498191 1_655
O60 S12 1.498191 1_455
O61 S13 1.498191 1_455
O62 S14 1.498191 1_455
O63 S15 1.498191 1_455
O64 S8 1.507053 1_554
O65 S9 1.507053 1_555
O66 S10 1.507053 1_545
O67 S11 1.507053 1_555
O68 S12 1.507053 1_556
O69 S13 1.507053 1_555
O70 S14 1.507053 1_565
O71 S15 1.507053 1_555
O72 S8 1.495079 1_555
O73 S9 1.495079 1_555
O74 S10 1.495079 1_555
O75 S11 1.495079 1_555
O76 S12 1.495079 1_555
O77 S13 1.495079 1_555
O78 S14 1.495079 1_555
O79 S15 1.495079 1_555
