# generated using pymatgen
data_Ca2YNiO5
_symmetry_space_group_name_H-M   'P 1'
_cell_length_a   9.11921488
_cell_length_b   9.11921488
_cell_length_c   9.11921488
_cell_angle_alpha   147.31710500
_cell_angle_beta   144.45587711
_cell_angle_gamma   49.05455602
_symmetry_Int_Tables_number   1
_chemical_formula_structural   Ca2YNiO5
_chemical_formula_sum   'Ca4 Y2 Ni2 O10'
_cell_volume   237.00276699
_cell_formula_units_Z   2
loop_
 _symmetry_equiv_pos_site_id
 _symmetry_equiv_pos_as_xyz
  1  'x, y, z'
loop_
 _atom_site_type_symbol
 _atom_site_label
 _atom_site_symmetry_multiplicity
 _atom_site_fract_x
 _atom_site_fract_y
 _atom_site_fract_z
 _atom_site_occupancy
  Ca  Ca0  1  0.37710300  0.91134900  0.48187900  1
  Ca  Ca1  1  0.07053000  0.60477600  0.48187900  1
  Ca  Ca2  1  0.62289700  0.10477600  0.53424600  1
  Ca  Ca3  1  0.92947000  0.41134900  0.53424600  1
  Y  Y0  1  0.71227200  0.73208800  0.94436000  1
  Y  Y1  1  0.28772800  0.23208800  0.01981700  1
  Ni  Ni0  1  0.50000000  0.51555700  0.01555700  1
  Ni  Ni1  1  0.00000000  0.01555700  0.01555700  1
  O  O0  1  0.68093400  0.28380300  0.46473700  1
  O  O1  1  0.31906600  0.78380300  0.60286900  1
  O  O2  1  0.31064500  0.39875200  0.96220100  1
  O  O3  1  0.68935500  0.65155600  0.08810700  1
  O  O4  1  0.93655100  0.89875200  0.08810700  1
  O  O5  1  0.06344900  0.15155600  0.96220100  1
  O  O6  1  0.26310600  0.77895500  0.01114000  1
  O  O7  1  0.73689400  0.74803400  0.51584900  1
  O  O8  1  0.73218500  0.24803400  0.01114000  1
  O  O9  1  0.26781500  0.27895500  0.51584900  1
loop_
_geom_bond_atom_site_label_1
_geom_bond_atom_site_label_2
_geom_bond_distance
_geom_bond_site_symmetry_2
Ca0 O4 2.341340 1_455
Ca0 O7 2.407716 1_555
Ca0 O8 2.420647 1_566
Ca0 O2 2.534851 1_554
Ca0 O6 2.573843 1_555
Ca0 O9 2.588896 1_565
Ca0 O1 2.601471 1_555
Ca0 O2 2.706587 1_565
Ca1 O3 2.341340 1_455
Ca1 O9 2.407716 1_555
Ca1 O6 2.420647 1_556
Ca1 O5 2.534851 1_554
Ca1 O8 2.573843 1_455
Ca1 O7 2.588896 1_455
Ca1 O1 2.601471 1_555
Ca1 O5 2.706587 1_565
Ca2 O5 2.341340 1_655
Ca2 O6 2.407716 1_545
Ca2 O9 2.420647 1_555
Ca2 O3 2.534851 1_545
Ca2 O7 2.573843 1_545
Ca2 O8 2.588896 1_556
Ca2 O0 2.601471 1_555
Ca2 O3 2.706587 1_556
Ca3 O2 2.341340 1_655
Ca3 O8 2.407716 1_555
Ca3 O7 2.420647 1_555
Ca3 O4 2.534851 1_545
Ca3 O9 2.573843 1_655
Ca3 O6 2.588896 1_656
Ca3 O0 2.601471 1_555
Ca3 O4 2.706587 1_556
Ni0 O9 1.907749 1_554
Ni0 O8 1.907749 1_555
Ni0 O6 1.912632 1_555
Ni0 O7 1.912632 1_555
Ni0 O2 2.126994 1_554
Ni0 O3 2.126994 1_555
Ni1 O7 1.907749 1_444
Ni1 O6 1.907749 1_545
Ni1 O9 1.912632 1_555
Ni1 O8 1.912632 1_455
Ni1 O4 2.126994 1_445
Ni1 O5 2.126994 1_554
O0 Y1 2.204977 1_555
O0 Y0 2.307017 1_555
O0 Y0 2.836541 1_544
O1 Y0 2.204980 1_555
O1 Y1 2.307019 1_566
O1 Y1 2.836538 1_555
O2 Y1 2.137494 1_556
O3 Y0 2.137486 1_554
O4 Y0 2.137486 1_554
O5 Y1 2.137478 1_556
