# generated using pymatgen
data_BaAlW4O7
_symmetry_space_group_name_H-M   'P 1'
_cell_length_a   6.10423648
_cell_length_b   6.10423648
_cell_length_c   11.14610000
_cell_angle_alpha   90.00000000
_cell_angle_beta   90.00000000
_cell_angle_gamma   120.00000519
_symmetry_Int_Tables_number   1
_chemical_formula_structural   BaAlW4O7
_chemical_formula_sum   'Ba2 Al2 W8 O14'
_cell_volume   359.67996221
_cell_formula_units_Z   2
loop_
 _symmetry_equiv_pos_site_id
 _symmetry_equiv_pos_as_xyz
  1  'x, y, z'
loop_
 _atom_site_type_symbol
 _atom_site_label
 _atom_site_symmetry_multiplicity
 _atom_site_fract_x
 _atom_site_fract_y
 _atom_site_fract_z
 _atom_site_occupancy
  Ba  Ba0  1  0.66666700  0.33333300  0.47123400  1
  Ba  Ba1  1  0.33333300  0.66666700  0.97123400  1
  Al  Al0  1  0.66666700  0.33333300  0.87008300  1
  Al  Al1  1  0.33333300  0.66666700  0.37008300  1
  W  W0  1  0.83154100  0.16845900  0.17280800  1
  W  W1  1  0.66308200  0.83154100  0.67280800  1
  W  W2  1  0.16845900  0.33691800  0.67280800  1
  W  W3  1  0.83154100  0.66308200  0.17280800  1
  W  W4  1  0.33691800  0.16845900  0.17280800  1
  W  W5  1  0.16845900  0.83154100  0.67280800  1
  W  W6  1  0.00000000  0.00000000  0.48352000  1
  W  W7  1  0.00000000  0.00000000  0.98352000  1
  O  O0  1  0.80833300  0.19166700  0.98373000  1
  O  O1  1  0.61666700  0.80833300  0.48373000  1
  O  O2  1  0.19166700  0.38333300  0.48373000  1
  O  O3  1  0.80833300  0.61666700  0.98373000  1
  O  O4  1  0.38333300  0.19166700  0.98373000  1
  O  O5  1  0.19166700  0.80833300  0.48373000  1
  O  O6  1  0.00000000  0.00000000  0.78642300  1
  O  O7  1  0.00000000  0.00000000  0.28642300  1
  O  O8  1  0.49508900  0.50491100  0.28437400  1
  O  O9  1  0.99017800  0.49508900  0.78437400  1
  O  O10  1  0.50491100  0.00982200  0.78437400  1
  O  O11  1  0.49508900  0.99017800  0.28437400  1
  O  O12  1  0.50491100  0.49508900  0.78437400  1
  O  O13  1  0.00982200  0.50491100  0.28437400  1
loop_
_geom_bond_atom_site_label_1
_geom_bond_atom_site_label_2
_geom_bond_distance
_geom_bond_site_symmetry_2
Ba0 O13 2.762013 1_655
Ba0 O11 2.762013 1_545
Ba0 O8 2.762016 1_555
Ba0 O5 3.066707 1_545
Ba0 O5 3.066707 1_655
Ba0 O1 3.066707 1_545
Ba0 O2 3.066707 1_655
Ba0 O2 3.066707 1_555
Ba0 O1 3.066707 1_555
Ba1 O10 2.762013 1_565
Ba1 O9 2.762013 1_455
Ba1 O12 2.762016 1_555
Ba1 O0 3.066707 1_455
Ba1 O0 3.066707 1_565
Ba1 O3 3.066707 1_455
Ba1 O4 3.066707 1_565
Ba1 O4 3.066707 1_555
Ba1 O3 3.066707 1_555
Al0 O9 1.958948 1_555
Al0 O10 1.958948 1_555
Al0 O12 1.958953 1_555
Al0 O0 1.961639 1_555
Al0 O3 1.961647 1_555
Al0 O4 1.961647 1_555
Al1 O11 1.958948 1_555
Al1 O13 1.958948 1_555
Al1 O8 1.958953 1_555
Al1 O5 1.961639 1_555
Al1 O1 1.961647 1_555
Al1 O2 1.961647 1_555
O0 W7 2.026467 1_655
O0 W0 2.121719 1_556
O1 W6 2.026462 1_665
O1 W1 2.121718 1_555
O2 W6 2.026462 1_555
O2 W2 2.121718 1_555
O3 W7 2.026462 1_665
O3 W3 2.121718 1_556
O4 W7 2.026462 1_555
O4 W4 2.121718 1_556
O5 W6 2.026467 1_565
O5 W5 2.121719 1_555
O6 W2 2.185398 1_555
O6 W1 2.185398 1_445
O6 W5 2.185398 1_545
O6 W7 2.196863 1_555
O7 W3 2.185398 1_445
O7 W4 2.185398 1_555
O7 W0 2.185398 1_455
O7 W6 2.196863 1_555
O8 W4 2.171092 1_555
O8 W3 2.171092 1_555
O9 W5 2.171092 1_655
O9 W2 2.171092 1_655
O10 W5 2.171092 1_545
O10 W1 2.171092 1_545
O11 W0 2.171092 1_565
O11 W4 2.171092 1_565
O12 W1 2.171092 1_555
O12 W2 2.171092 1_555
O13 W0 2.171092 1_455
O13 W3 2.171092 1_455
