# generated using pymatgen
data_Dy4(Al8Pd3)3
_symmetry_space_group_name_H-M   'P 1'
_cell_length_a   7.49948300
_cell_length_b   7.51550054
_cell_length_c   13.09644220
_cell_angle_alpha   84.56319281
_cell_angle_beta   79.04927166
_cell_angle_gamma   59.92401027
_symmetry_Int_Tables_number   1
_chemical_formula_structural   Dy4(Al8Pd3)3
_chemical_formula_sum   'Dy4 Al24 Pd9'
_cell_volume   627.13217503
_cell_formula_units_Z   1
loop_
 _symmetry_equiv_pos_site_id
 _symmetry_equiv_pos_as_xyz
  1  'x, y, z'
loop_
 _atom_site_type_symbol
 _atom_site_label
 _atom_site_symmetry_multiplicity
 _atom_site_fract_x
 _atom_site_fract_y
 _atom_site_fract_z
 _atom_site_occupancy
  Dy  Dy0  1  0.39378021  0.16816684  0.80854590  1
  Dy  Dy1  1  0.60621979  0.83183316  0.19145410  1
  Dy  Dy2  1  0.73361930  0.49829463  0.80853871  1
  Dy  Dy3  1  0.26638070  0.50170537  0.19146129  1
  Al  Al0  1  0.68472020  0.83363381  0.94512294  1
  Al  Al1  1  0.31527980  0.16636619  0.05487706  1
  Al  Al2  1  0.14618388  0.83304725  0.56148449  1
  Al  Al3  1  0.85381612  0.16695275  0.43851551  1
  Al  Al4  1  0.47970660  0.16672763  0.55971679  1
  Al  Al5  1  0.52029340  0.83327237  0.44028321  1
  Al  Al6  1  0.21676267  0.16532628  0.32981357  1
  Al  Al7  1  0.78323733  0.83467372  0.67018643  1
  Al  Al8  1  0.43665515  0.50719683  0.67048219  1
  Al  Al9  1  0.56334485  0.49280317  0.32951781  1
  Al  Al10  1  0.10961125  0.15926066  0.66898721  1
  Al  Al11  1  0.89038875  0.84073934  0.33101279  1
  Al  Al12  1  0.35164478  0.50027699  0.94509049  1
  Al  Al13  1  0.64835522  0.49972301  0.05490951  1
  Al  Al14  1  0.01473503  0.16691845  0.95557933  1
  Al  Al15  1  0.98526497  0.83308155  0.04442067  1
  Al  Al16  1  0.18686620  0.49966490  0.44035311  1
  Al  Al17  1  0.81313380  0.50033510  0.55964689  1
  Al  Al18  1  0.73403689  0.16385198  0.18371065  1
  Al  Al19  1  0.26596311  0.83614802  0.81628935  1
  Al  Al20  1  0.06163298  0.63093659  0.81475880  1
  Al  Al21  1  0.93836702  0.36906341  0.18524120  1
  Al  Al22  1  0.85565464  0.04140374  0.81619496  1
  Al  Al23  1  0.14434536  0.95859626  0.18380504  1
  Pd  Pd0  1  0.12030745  0.49250442  0.63810973  1
  Pd  Pd1  1  0.87969255  0.50749558  0.36189027  1
  Pd  Pd2  1  0.65636169  0.17179138  0.00001407  1
  Pd  Pd3  1  0.34363831  0.82820862  -0.00001407  1
  Pd  Pd4  1  0.53821301  0.16673062  0.36187815  1
  Pd  Pd5  1  0.46178699  0.83326938  0.63812185  1
  Pd  Pd6  1  0.77895765  0.17465749  0.63776568  1
  Pd  Pd7  1  0.22104235  0.82534251  0.36223432  1
  Pd  Pd8  1  0.00000000  0.50000000  0.00000000  1
loop_
_geom_bond_atom_site_label_1
_geom_bond_atom_site_label_2
_geom_bond_distance
_geom_bond_site_symmetry_2
Dy0 Pd0 3.290556 1_555
Dy0 Pd5 3.304849 1_545
Dy0 Pd6 3.318876 1_555
Dy0 Pd2 3.479825 1_556
Dy0 Pd8 3.495344 1_556
Dy0 Pd3 3.513700 1_546
Dy1 Pd1 3.290556 1_555
Dy1 Pd4 3.304849 1_565
Dy1 Pd7 3.318876 1_555
Dy1 Pd3 3.479825 1_555
Dy1 Pd8 3.495344 1_655
Dy1 Pd2 3.513700 1_565
Dy2 Pd0 3.290332 1_655
Dy2 Pd6 3.308578 1_555
Dy2 Pd5 3.315845 1_555
Dy2 Pd3 3.480175 1_556
Dy2 Pd8 3.494753 1_656
Dy2 Pd2 3.514577 1_556
Dy3 Pd1 3.290332 1_455
Dy3 Pd7 3.308578 1_555
Dy3 Pd4 3.315845 1_555
Dy3 Pd2 3.480175 1_555
Dy3 Pd8 3.494753 1_555
Dy3 Pd3 3.514577 1_555
Al0 Pd3 2.541982 1_556
Al0 Pd8 2.599256 1_656
Al0 Pd2 2.601390 1_566
Al0 Dy2 3.060146 1_555
Al0 Dy0 3.068134 1_565
Al0 Dy1 3.167394 1_556
Al1 Pd2 2.541982 1_555
Al1 Pd8 2.599256 1_555
Al1 Pd3 2.601390 1_545
Al1 Dy3 3.060146 1_555
Al1 Dy1 3.068134 1_545
Al1 Dy0 3.167394 1_554
Al2 Pd7 2.562678 1_555
Al2 Pd5 2.741573 1_555
Al2 Pd6 2.743704 1_465
Al2 Pd0 2.744468 1_555
Al3 Pd6 2.562678 1_555
Al3 Pd4 2.741573 1_555
Al3 Pd7 2.743704 1_645
Al3 Pd1 2.744468 1_555
Al4 Pd4 2.544364 1_555
Al4 Pd6 2.664972 1_555
Al4 Pd0 2.669080 1_555
Al4 Pd5 2.674042 1_545
Al4 Dy0 3.199507 1_555
Al5 Pd5 2.544364 1_555
Al5 Pd7 2.664972 1_555
Al5 Pd1 2.669080 1_555
Al5 Pd4 2.674042 1_565
Al5 Dy1 3.199507 1_555
Al6 Pd4 2.529613 1_555
Al6 Pd7 2.535250 1_545
Al6 Pd1 2.542690 1_455
Al6 Dy1 3.099770 1_545
Al6 Dy3 3.103434 1_555
Al7 Pd5 2.529613 1_555
Al7 Pd6 2.535250 1_565
Al7 Pd0 2.542690 1_655
Al7 Dy0 3.099770 1_565
Al7 Dy2 3.103434 1_555
Al8 Pd6 2.524711 1_555
Al8 Pd5 2.540935 1_555
Al8 Pd0 2.544408 1_555
Al8 Dy2 3.096930 1_555
Al8 Dy0 3.097130 1_555
Al9 Pd7 2.524711 1_555
Al9 Pd4 2.540935 1_555
Al9 Pd1 2.544408 1_555
Al9 Dy3 3.096930 1_555
Al9 Dy1 3.097130 1_555
Al10 Pd6 2.533438 1_455
Al10 Pd5 2.537297 1_545
Al10 Pd0 2.537631 1_555
Al10 Dy2 3.083311 1_455
Al10 Dy0 3.087514 1_555
Al11 Pd7 2.533438 1_655
Al11 Pd4 2.537297 1_565
Al11 Pd1 2.537631 1_555
Al11 Dy3 3.083311 1_655
Al11 Dy1 3.087514 1_555
Al12 Pd2 2.543174 1_556
Al12 Pd8 2.599313 1_556
Al12 Pd3 2.601080 1_556
Al12 Dy0 3.060745 1_555
Al12 Dy2 3.069254 1_555
Al12 Dy3 3.167907 1_556
Al13 Pd3 2.543174 1_555
Al13 Pd8 2.599313 1_655
Al13 Pd2 2.601080 1_555
Al13 Dy1 3.060745 1_555
Al13 Dy3 3.069254 1_555
Al13 Dy2 3.167907 1_554
Al14 Pd8 2.567354 1_556
Al14 Pd3 2.621724 1_546
Al14 Pd2 2.621914 1_456
Al14 Dy2 3.118732 1_455
Al14 Dy0 3.119669 1_555
Al15 Pd8 2.567354 1_655
Al15 Pd2 2.621724 1_565
Al15 Pd3 2.621914 1_655
Al15 Dy3 3.118732 1_655
Al15 Dy1 3.119669 1_555
Al16 Pd0 2.543429 1_555
Al16 Pd4 2.666495 1_555
Al16 Pd1 2.667993 1_455
Al16 Pd7 2.675427 1_555
Al16 Dy3 3.200314 1_555
Al17 Pd1 2.543429 1_555
Al17 Pd5 2.666495 1_555
Al17 Pd0 2.667993 1_655
Al17 Pd6 2.675427 1_555
Al17 Dy2 3.200314 1_555
Al18 Pd4 2.505508 1_555
Al18 Pd2 2.569247 1_555
Al18 Dy1 3.077025 1_545
Al18 Dy3 3.121819 1_555
Al19 Pd5 2.505508 1_555
Al19 Pd3 2.569247 1_556
Al19 Dy0 3.077025 1_565
Al19 Dy2 3.121819 1_555
Al20 Pd0 2.497734 1_555
Al20 Pd8 2.577782 1_556
Al20 Dy0 3.098528 1_555
Al20 Dy2 3.098555 1_455
Al21 Pd1 2.497734 1_555
Al21 Pd8 2.577782 1_655
Al21 Dy1 3.098528 1_555
Al21 Dy3 3.098555 1_655
Al22 Pd6 2.506832 1_555
Al22 Pd2 2.569358 1_556
Al22 Dy2 3.075419 1_555
Al22 Dy0 3.118000 1_555
Al23 Pd7 2.506832 1_555
Al23 Pd3 2.569358 1_555
Al23 Dy3 3.075419 1_555
Al23 Dy1 3.118000 1_555
