# generated using pymatgen
data_KNaNbOF5
_symmetry_space_group_name_H-M   'P 1'
_cell_length_a   6.07873900
_cell_length_b   6.07873900
_cell_length_c   8.63966000
_cell_angle_alpha   90.00000000
_cell_angle_beta   90.00000000
_cell_angle_gamma   90.00000000
_symmetry_Int_Tables_number   1
_chemical_formula_structural   KNaNbOF5
_chemical_formula_sum   'K2 Na2 Nb2 O2 F10'
_cell_volume   319.24466269
_cell_formula_units_Z   2
loop_
 _symmetry_equiv_pos_site_id
 _symmetry_equiv_pos_as_xyz
  1  'x, y, z'
loop_
 _atom_site_type_symbol
 _atom_site_label
 _atom_site_symmetry_multiplicity
 _atom_site_fract_x
 _atom_site_fract_y
 _atom_site_fract_z
 _atom_site_occupancy
  K  K0  1  0.50000000  0.50000000  0.50000000  1
  K  K1  1  0.00000000  0.00000000  0.50000000  1
  Na  Na0  1  0.00000000  0.50000000  0.76785300  1
  Na  Na1  1  0.50000000  0.00000000  0.23214700  1
  Nb  Nb0  1  0.00000000  0.50000000  0.23716000  1
  Nb  Nb1  1  0.50000000  0.00000000  0.76284000  1
  O  O0  1  0.00000000  0.50000000  0.03388100  1
  O  O1  1  0.50000000  0.00000000  0.96611900  1
  F  F0  1  0.00000000  0.50000000  0.49004200  1
  F  F1  1  0.50000000  0.00000000  0.50995800  1
  F  F2  1  0.22881100  0.27118900  0.27530600  1
  F  F3  1  0.77118900  0.27118900  0.27530600  1
  F  F4  1  0.22881100  0.72881100  0.27530600  1
  F  F5  1  0.77118900  0.72881100  0.27530600  1
  F  F6  1  0.27118900  0.22881100  0.72469400  1
  F  F7  1  0.72881100  0.22881100  0.72469400  1
  F  F8  1  0.27118900  0.77118900  0.72469400  1
  F  F9  1  0.72881100  0.77118900  0.72469400  1
loop_
_geom_bond_atom_site_label_1
_geom_bond_atom_site_label_2
_geom_bond_distance
_geom_bond_site_symmetry_2
Na0 O0 2.298391 1_556
Na1 O1 2.298391 1_554
Nb0 O0 1.756261 1_555
Nb1 O1 1.756261 1_555
F0 Nb0 2.184815 1_555
F0 Na0 2.400193 1_555
F0 K0 3.040587 1_455
F0 K1 3.040587 1_555
F0 K0 3.040587 1_555
F0 K1 3.040587 1_565
F1 Nb1 2.184815 1_555
F1 Na1 2.400193 1_555
F1 K1 3.040587 1_555
F1 K0 3.040587 1_555
F1 K0 3.040587 1_545
F1 K1 3.040587 1_655
F2 Nb0 1.994423 1_555
F2 Na1 2.360944 1_555
F2 K0 2.901832 1_555
F2 K1 2.901832 1_555
F3 Nb0 1.994423 1_655
F3 Na1 2.360944 1_555
F3 K1 2.901832 1_655
F3 K0 2.901832 1_555
F4 Nb0 1.994423 1_555
F4 Na1 2.360944 1_565
F4 K1 2.901832 1_565
F4 K0 2.901832 1_555
F5 Nb0 1.994423 1_655
F5 Na1 2.360944 1_565
F5 K0 2.901832 1_555
F5 K1 2.901832 1_665
F6 Nb1 1.994423 1_555
F6 Na0 2.360944 1_555
F6 K0 2.901832 1_555
F6 K1 2.901832 1_555
F7 Nb1 1.994423 1_555
F7 Na0 2.360944 1_655
F7 K1 2.901832 1_655
F7 K0 2.901832 1_555
F8 Nb1 1.994423 1_565
F8 Na0 2.360944 1_555
F8 K1 2.901832 1_565
F8 K0 2.901832 1_555
F9 Nb1 1.994423 1_565
F9 Na0 2.360944 1_655
F9 K0 2.901832 1_555
F9 K1 2.901832 1_665
