# generated using pymatgen
data_Li7Mn4CoO12
_symmetry_space_group_name_H-M   'P 1'
_cell_length_a   2.97342641
_cell_length_b   14.61273747
_cell_length_c   5.11350821
_cell_angle_alpha   91.47153774
_cell_angle_beta   87.95853615
_cell_angle_gamma   91.96821303
_symmetry_Int_Tables_number   1
_chemical_formula_structural   Li7Mn4CoO12
_chemical_formula_sum   'Li7 Mn4 Co1 O12'
_cell_volume   221.84286610
_cell_formula_units_Z   1
loop_
 _symmetry_equiv_pos_site_id
 _symmetry_equiv_pos_as_xyz
  1  'x, y, z'
loop_
 _atom_site_type_symbol
 _atom_site_label
 _atom_site_symmetry_multiplicity
 _atom_site_fract_x
 _atom_site_fract_y
 _atom_site_fract_z
 _atom_site_occupancy
  Li  Li0  1  0.99979900  0.16533500  0.66554700  1
  Li  Li1  1  0.49264000  0.50844000  0.49713700  1
  Li  Li2  1  0.99595100  0.81922900  0.31525600  1
  Li  Li3  1  0.49554600  0.16766700  0.16455200  1
  Li  Li4  1  0.99178500  0.51681000  0.01627900  1
  Li  Li5  1  0.50987800  0.82350400  0.83640600  1
  Li  Li6  1  0.49950000  0.66655300  0.16695900  1
  Mn  Mn0  1  0.00527000  0.99981000  0.00081300  1
  Mn  Mn1  1  0.00106700  0.66549000  0.66717600  1
  Mn  Mn2  1  0.49617800  0.33452500  0.83361200  1
  Mn  Mn3  1  0.50520200  0.99955800  0.50055700  1
  Co  Co0  1  0.99757100  0.33488900  0.33302500  1
  O  O0  1  0.46274900  0.07834800  0.82045700  1
  O  O1  1  0.97469700  0.40857800  0.67591800  1
  O  O2  1  0.51969300  0.73778300  0.52009300  1
  O  O3  1  0.96551800  0.07809900  0.32190900  1
  O  O4  1  0.52827500  0.40643700  0.17232100  1
  O  O5  1  0.99767700  0.74369700  0.97262900  1
  O  O6  1  0.47220000  0.25959800  0.49495700  1
  O  O7  1  0.00724600  0.58696400  0.36143700  1
  O  O8  1  0.54102900  0.92324800  0.17904200  1
  O  O9  1  0.02138600  0.25680000  0.99326000  1
  O  O10  1  0.48456200  0.59302200  0.81449500  1
  O  O11  1  0.03457800  0.92561700  0.67616400  1
loop_
_geom_bond_atom_site_label_1
_geom_bond_atom_site_label_2
_geom_bond_distance
_geom_bond_site_symmetry_2
Li0 O0 2.094682 1_655
Li0 O6 2.114906 1_655
Li0 O9 2.117880 1_655
Li0 O3 2.147538 1_555
Li0 O0 2.148349 1_555
Li0 O6 2.329587 1_555
Li1 O7 1.996028 1_655
Li1 O10 2.014442 1_555
Li1 O7 2.026627 1_555
Li1 O4 2.205188 1_555
Li1 O1 2.269544 1_455
Li1 O1 2.307654 1_555
Li2 O5 2.046526 1_554
Li2 O2 2.088431 1_555
Li2 O8 2.210890 1_555
Li2 O8 2.286289 1_655
Li2 O2 2.290489 1_655
Li2 O11 2.385667 1_655
Li3 O6 2.132002 1_555
Li3 O3 2.138490 1_555
Li3 O3 2.160169 1_455
Li3 O0 2.166686 1_554
Li3 O9 2.173506 1_554
Li3 O9 2.174734 1_654
Li4 O7 2.019346 1_655
Li4 O10 2.071484 1_654
Li4 O10 2.205632 1_554
Li4 O4 2.229911 1_555
Li4 O1 2.322168 1_554
Li4 O4 2.473093 1_655
Li5 O5 2.002219 1_455
Li5 O2 2.020198 1_555
Li5 O5 2.044234 1_555
Li5 O8 2.252524 1_556
Li5 O11 2.268000 1_655
Li5 O11 2.277150 1_555
Li6 O2 2.062680 1_555
Li6 O5 2.071332 1_554
Li6 O10 2.075535 1_554
Li6 O7 2.079108 1_555
Li6 O5 2.182522 1_454
Li6 O7 2.215371 1_655
Mn0 O11 1.960271 1_554
Mn0 O8 1.960714 1_455
Mn0 O0 1.968698 1_564
Mn0 O3 1.979307 1_465
Mn0 O8 2.213206 1_555
Mn0 O0 2.248872 1_464
Mn1 O5 1.911484 1_455
Mn1 O7 1.915340 1_555
Mn1 O10 1.973412 1_455
Mn1 O2 1.976356 1_555
Mn1 O2 1.987894 1_455
Mn1 O10 1.994587 1_555
Mn2 O1 1.924318 1_555
Mn2 O9 1.950606 1_555
Mn2 O4 2.006130 1_556
Mn2 O6 2.027006 1_555
Mn2 O1 2.115344 1_455
Mn2 O9 2.157666 1_655
Mn3 O11 1.946396 1_555
Mn3 O8 1.964505 1_555
Mn3 O3 1.970273 1_565
Mn3 O0 1.978871 1_565
Mn3 O11 2.172282 1_655
Mn3 O3 2.238665 1_465
Co0 O4 1.985350 1_555
Co0 O4 2.024083 1_655
Co0 O6 2.030888 1_655
Co0 O1 2.034219 1_555
Co0 O6 2.042793 1_555
Co0 O9 2.054410 1_654
