# generated using pymatgen
data_Pr(ClO2)3
_symmetry_space_group_name_H-M   'P 1'
_cell_length_a   8.36739200
_cell_length_b   8.02335625
_cell_length_c   6.54602630
_cell_angle_alpha   121.93952165
_cell_angle_beta   90.00000000
_cell_angle_gamma   90.00000000
_symmetry_Int_Tables_number   1
_chemical_formula_structural   Pr(ClO2)3
_chemical_formula_sum   'Pr2 Cl6 O12'
_cell_volume   372.93276062
_cell_formula_units_Z   2
loop_
 _symmetry_equiv_pos_site_id
 _symmetry_equiv_pos_as_xyz
  1  'x, y, z'
loop_
 _atom_site_type_symbol
 _atom_site_label
 _atom_site_symmetry_multiplicity
 _atom_site_fract_x
 _atom_site_fract_y
 _atom_site_fract_z
 _atom_site_occupancy
  Pr  Pr0  1  0.12323100  0.25000000  0.25000000  1
  Pr  Pr1  1  0.87676900  0.75000000  0.75000000  1
  Cl  Cl0  1  0.81997500  0.24085300  0.98904400  1
  Cl  Cl1  1  0.18002500  0.75914700  0.01095600  1
  Cl  Cl2  1  0.81997500  0.25914700  0.51095600  1
  Cl  Cl3  1  0.18002500  0.74085300  0.48904400  1
  Cl  Cl4  1  0.38619300  0.25000000  0.75000000  1
  Cl  Cl5  1  0.61380700  0.75000000  0.25000000  1
  O  O0  1  0.02724500  0.57915400  0.36415400  1
  O  O1  1  0.97275500  0.42084600  0.63584600  1
  O  O2  1  0.02724500  0.92084600  0.13584600  1
  O  O3  1  0.97275500  0.07915400  0.86415400  1
  O  O4  1  0.46535900  0.46720300  0.40110600  1
  O  O5  1  0.53464100  0.53279700  0.59889400  1
  O  O6  1  0.46535900  0.03279700  0.09889400  1
  O  O7  1  0.53464100  0.96720300  0.90110600  1
  O  O8  1  0.28599400  0.19066800  0.51984000  1
  O  O9  1  0.71400600  0.80933200  0.48016000  1
  O  O10  1  0.28599400  0.30933200  0.98016000  1
  O  O11  1  0.71400600  0.69066800  0.01984000  1
loop_
_geom_bond_atom_site_label_1
_geom_bond_atom_site_label_2
_geom_bond_distance
_geom_bond_site_symmetry_2
Cl0 O3 1.692202 1_555
Cl1 O2 1.692202 1_555
Cl2 O1 1.692202 1_555
Cl3 O0 1.692202 1_555
Cl4 O8 1.562251 1_555
Cl4 O10 1.562251 1_555
Cl5 O11 1.562251 1_555
Cl5 O9 1.562251 1_555
O0 Pr0 2.467774 1_555
O0 Pr1 2.486075 1_455
O1 Pr1 2.467774 1_555
O1 Pr0 2.486075 1_655
O2 Pr0 2.467774 1_565
O2 Pr1 2.486075 1_454
O3 Pr1 2.467774 1_545
O3 Pr0 2.486075 1_656
O4 O5 1.252360 1_555
O6 O7 1.252360 1_544
O8 Pr0 2.468030 1_555
O9 Pr1 2.468030 1_555
O10 Pr0 2.468030 1_556
O11 Pr1 2.468030 1_554
