# generated using pymatgen
data_Rb3TeH6(ClO2)3
_symmetry_space_group_name_H-M   'P 1'
_cell_length_a   9.26184565
_cell_length_b   9.26184565
_cell_length_c   9.26184554
_cell_angle_alpha   106.20555339
_cell_angle_beta   106.20555339
_cell_angle_gamma   106.20554577
_symmetry_Int_Tables_number   1
_chemical_formula_structural   Rb3TeH6(ClO2)3
_chemical_formula_sum   'Rb6 Te2 H12 Cl6 O12'
_cell_volume   675.49194297
_cell_formula_units_Z   2
loop_
 _symmetry_equiv_pos_site_id
 _symmetry_equiv_pos_as_xyz
  1  'x, y, z'
loop_
 _atom_site_type_symbol
 _atom_site_label
 _atom_site_symmetry_multiplicity
 _atom_site_fract_x
 _atom_site_fract_y
 _atom_site_fract_z
 _atom_site_occupancy
  Rb  Rb0  1  0.25000000  0.79569200  0.70430800  1
  Rb  Rb1  1  0.70430800  0.25000000  0.79569200  1
  Rb  Rb2  1  0.79569200  0.70430800  0.25000000  1
  Rb  Rb3  1  0.20430800  0.29569200  0.75000000  1
  Rb  Rb4  1  0.75000000  0.20430800  0.29569200  1
  Rb  Rb5  1  0.29569200  0.75000000  0.20430800  1
  Te  Te0  1  0.50000000  0.50000000  0.50000000  1
  Te  Te1  1  0.00000000  0.00000000  0.00000000  1
  H  H0  1  0.20136900  0.42701400  0.40268600  1
  H  H1  1  0.40268600  0.20136900  0.42701400  1
  H  H2  1  0.42701400  0.40268600  0.20136900  1
  H  H3  1  0.90268600  0.92701400  0.70136900  1
  H  H4  1  0.70136900  0.90268600  0.92701400  1
  H  H5  1  0.92701400  0.70136900  0.90268600  1
  H  H6  1  0.79863100  0.57298600  0.59731400  1
  H  H7  1  0.59731400  0.79863100  0.57298600  1
  H  H8  1  0.57298600  0.59731400  0.79863100  1
  H  H9  1  0.09731400  0.07298600  0.29863100  1
  H  H10  1  0.29863100  0.09731400  0.07298600  1
  H  H11  1  0.07298600  0.29863100  0.09731400  1
  Cl  Cl0  1  0.25000000  0.01744400  0.48255600  1
  Cl  Cl1  1  0.48255600  0.25000000  0.01744400  1
  Cl  Cl2  1  0.01744400  0.48255600  0.25000000  1
  Cl  Cl3  1  0.98255600  0.51744400  0.75000000  1
  Cl  Cl4  1  0.75000000  0.98255600  0.51744400  1
  Cl  Cl5  1  0.51744400  0.75000000  0.98255600  1
  O  O0  1  0.27975900  0.42017300  0.49734800  1
  O  O1  1  0.49734800  0.27975900  0.42017300  1
  O  O2  1  0.42017300  0.49734800  0.27975900  1
  O  O3  1  0.99734800  0.92017300  0.77975900  1
  O  O4  1  0.77975900  0.99734800  0.92017300  1
  O  O5  1  0.92017300  0.77975900  0.99734800  1
  O  O6  1  0.72024100  0.57982700  0.50265200  1
  O  O7  1  0.50265200  0.72024100  0.57982700  1
  O  O8  1  0.57982700  0.50265200  0.72024100  1
  O  O9  1  0.00265200  0.07982700  0.22024100  1
  O  O10  1  0.22024100  0.00265200  0.07982700  1
  O  O11  1  0.07982700  0.22024100  0.00265200  1
loop_
_geom_bond_atom_site_label_1
_geom_bond_atom_site_label_2
_geom_bond_distance
_geom_bond_site_symmetry_2
H0 O0 1.000603 1_555
H1 O1 1.000603 1_555
H2 O2 1.000603 1_555
H3 O3 1.000603 1_555
H4 O4 1.000603 1_555
H5 O5 1.000603 1_555
H6 O6 1.000603 1_555
H7 O7 1.000603 1_555
H8 O8 1.000603 1_555
H9 O9 1.000603 1_555
H10 O10 1.000603 1_555
H11 O11 1.000603 1_555
Cl0 Rb5 3.253753 1_545
Cl0 Rb3 3.253753 1_555
Cl0 Rb0 3.284957 1_545
Cl1 Rb4 3.253753 1_555
Cl1 Rb3 3.253753 1_554
Cl1 Rb1 3.284957 1_554
Cl2 Rb5 3.253753 1_555
Cl2 Rb4 3.253753 1_455
Cl2 Rb2 3.284957 1_455
Cl3 Rb1 3.253753 1_555
Cl3 Rb0 3.253753 1_655
Cl3 Rb3 3.284957 1_655
Cl4 Rb1 3.253753 1_565
Cl4 Rb2 3.253753 1_555
Cl4 Rb4 3.284957 1_565
Cl5 Rb0 3.253753 1_555
Cl5 Rb2 3.253753 1_556
Cl5 Rb5 3.284957 1_556
O0 Te0 1.956597 1_555
O0 Rb3 3.043385 1_555
O1 Te0 1.956597 1_555
O1 Rb4 3.043384 1_555
O2 Te0 1.956597 1_555
O2 Rb5 3.043384 1_555
O3 Te1 1.956597 1_666
O3 Rb0 3.043384 1_655
O4 Te1 1.956597 1_666
O4 Rb1 3.043384 1_565
O5 Te1 1.956597 1_666
O5 Rb2 3.043385 1_556
O6 Te0 1.956597 1_555
O6 Rb2 3.043385 1_555
O7 Te0 1.956597 1_555
O7 Rb0 3.043384 1_555
O8 Te0 1.956597 1_555
O8 Rb1 3.043384 1_555
O9 Te1 1.956597 1_555
O9 Rb4 3.043384 1_455
O10 Te1 1.956597 1_555
O10 Rb5 3.043384 1_545
O11 Te1 1.956597 1_555
O11 Rb3 3.043385 1_554
