# generated using pymatgen
data_Li3MnV(PO4)3
_symmetry_space_group_name_H-M   'P 1'
_cell_length_a   8.55791400
_cell_length_b   8.86503769
_cell_length_c   12.40447947
_cell_angle_alpha   90.52609506
_cell_angle_beta   92.42084215
_cell_angle_gamma   90.64268002
_symmetry_Int_Tables_number   1
_chemical_formula_structural   Li3MnV(PO4)3
_chemical_formula_sum   'Li12 Mn4 V4 P12 O48'
_cell_volume   940.13814628
_cell_formula_units_Z   4
loop_
 _symmetry_equiv_pos_site_id
 _symmetry_equiv_pos_as_xyz
  1  'x, y, z'
loop_
 _atom_site_type_symbol
 _atom_site_label
 _atom_site_symmetry_multiplicity
 _atom_site_fract_x
 _atom_site_fract_y
 _atom_site_fract_z
 _atom_site_occupancy
  Li  Li0  1  0.00334400  0.99070900  0.99922700  1
  Li  Li1  1  0.99028300  0.88955300  0.75457400  1
  Li  Li2  1  0.99316200  0.00057800  0.49864200  1
  Li  Li3  1  0.97580500  0.11724700  0.24406100  1
  Li  Li4  1  0.27024300  0.19768600  0.93466500  1
  Li  Li5  1  0.27275500  0.79269000  0.43227700  1
  Li  Li6  1  0.51040100  0.49124000  0.00461300  1
  Li  Li7  1  0.50437400  0.59372200  0.73662100  1
  Li  Li8  1  0.48979800  0.49936600  0.49788200  1
  Li  Li9  1  0.50003100  0.41182000  0.24838500  1
  Li  Li10  1  0.72287400  0.19104800  0.55997500  1
  Li  Li11  1  0.71906100  0.78465700  0.06585300  1
  Mn  Mn0  1  0.20383900  0.49718900  0.35049100  1
  Mn  Mn1  1  0.71346000  0.00463400  0.35630900  1
  Mn  Mn2  1  0.78911700  0.50087000  0.64348800  1
  Mn  Mn3  1  0.79578100  0.49586600  0.14755000  1
  V  V0  1  0.21477800  0.49984400  0.85532500  1
  V  V1  1  0.28675000  0.00065800  0.64316900  1
  V  V2  1  0.28985600  0.00007300  0.14518800  1
  V  V3  1  0.71846900  0.99845300  0.85940200  1
  P  P0  1  0.00131200  0.19600900  0.74807600  1
  P  P1  1  0.99883900  0.81318000  0.25107400  1
  P  P2  1  0.16360700  0.64319800  0.60691000  1
  P  P3  1  0.17190000  0.35283200  0.10530700  1
  P  P4  1  0.35013100  0.85339500  0.89787800  1
  P  P5  1  0.35692000  0.14501600  0.40023500  1
  P  P6  1  0.49819600  0.28781100  0.74940500  1
  P  P7  1  0.49787800  0.71725500  0.24771700  1
  P  P8  1  0.65106400  0.85432400  0.60848000  1
  P  P9  1  0.65406400  0.14936500  0.10159000  1
  P  P10  1  0.84335300  0.63935700  0.89229600  1
  P  P11  1  0.82872400  0.35913700  0.39676200  1
  O  O0  1  0.00798700  0.57738100  0.88847700  1
  O  O1  1  0.99520400  0.41401400  0.39254100  1
  O  O2  1  0.07448600  0.08460000  0.66346600  1
  O  O3  1  0.07216600  0.92478300  0.16617900  1
  O  O4  1  0.12756700  0.29361500  0.80805500  1
  O  O5  1  0.12141900  0.72367800  0.31475200  1
  O  O6  1  0.15862000  0.82245100  0.59481600  1
  O  O7  1  0.17067300  0.17442600  0.08552700  1
  O  O8  1  0.25610000  0.59607000  0.71072400  1
  O  O9  1  0.25461900  0.93795500  0.98460000  1
  O  O10  1  0.25838300  0.59245200  0.51082900  1
  O  O11  1  0.27522800  0.39666500  0.20414600  1
  O  O12  1  0.25704600  0.05552000  0.48375300  1
  O  O13  1  0.27198600  0.90864200  0.78887300  1
  O  O14  1  0.25502100  0.41049100  0.00390700  1
  O  O15  1  0.28075300  0.09462900  0.28845200  1
  O  O16  1  0.33777800  0.68074900  0.91175000  1
  O  O17  1  0.35421900  0.31559600  0.41664500  1
  O  O18  1  0.36759600  0.18897900  0.68969700  1
  O  O19  1  0.36589800  0.81590400  0.19160900  1
  O  O20  1  0.42909600  0.39320000  0.83569900  1
  O  O21  1  0.43115300  0.61697900  0.33565100  1
  O  O22  1  0.47863700  0.91451700  0.60639000  1
  O  O23  1  0.48400800  0.08181000  0.10308700  1
  O  O24  1  0.52472800  0.89198400  0.90688800  1
  O  O25  1  0.52895500  0.09591600  0.41229400  1
  O  O26  1  0.56537400  0.38876000  0.66066100  1
  O  O27  1  0.56376700  0.62160300  0.15603000  1
  O  O28  1  0.61530900  0.18415500  0.80482700  1
  O  O29  1  0.62030900  0.82325100  0.30173100  1
  O  O30  1  0.63094300  0.68259200  0.59191600  1
  O  O31  1  0.63292700  0.31911300  0.08354500  1
  O  O32  1  0.73283600  0.89342400  0.71922600  1
  O  O33  1  0.74508300  0.58573200  0.98622200  1
  O  O34  1  0.74641600  0.11188200  0.20616500  1
  O  O35  1  0.74988900  0.93855800  0.52704900  1
  O  O36  1  0.74858100  0.59165000  0.78659900  1
  O  O37  1  0.73929600  0.41514800  0.49748300  1
  O  O38  1  0.74672500  0.06700100  0.01264700  1
  O  O39  1  0.72604400  0.40300900  0.29804600  1
  O  O40  1  0.86225400  0.81585100  0.90696800  1
  O  O41  1  0.84041100  0.18149400  0.41403600  1
  O  O42  1  0.87563000  0.28181100  0.68423600  1
  O  O43  1  0.87685100  0.72130900  0.18525600  1
  O  O44  1  0.93808600  0.08707100  0.83526300  1
  O  O45  1  0.92854600  0.92535000  0.33597000  1
  O  O46  1  0.99270700  0.59415200  0.60870300  1
  O  O47  1  0.00252500  0.39529400  0.11518600  1
loop_
_geom_bond_atom_site_label_1
_geom_bond_atom_site_label_2
_geom_bond_distance
_geom_bond_site_symmetry_2
Li0 O3 2.214545 1_556
Li0 O9 2.220309 1_555
Li0 O40 2.231410 1_455
Li0 O44 2.263845 1_465
Li0 O38 2.317376 1_466
Li0 O7 2.373871 1_566
Li1 O44 2.071352 1_565
Li1 O2 2.205225 1_665
Li1 O32 2.228885 1_555
Li1 O40 2.320011 1_555
Li1 O13 2.434017 1_655
Li1 O6 2.568107 1_655
Li2 O45 2.166808 1_545
Li2 O35 2.191040 1_545
Li2 O2 2.249352 1_655
Li2 O41 2.311838 1_555
Li2 O12 2.320228 1_655
Li2 O6 2.421533 1_645
Li3 O34 1.999125 1_555
Li3 O45 2.101544 1_545
Li3 O3 2.143148 1_645
Li3 O41 2.512301 1_555
Li4 O14 2.073374 1_556
Li4 O7 2.099636 1_556
Li4 O4 2.136927 1_555
Li4 O9 2.393629 1_545
Li4 O20 2.546856 1_555
Li5 O5 1.995811 1_555
Li5 O10 2.037795 1_555
Li5 O6 2.291539 1_555
Li5 O12 2.416949 1_565
Li5 O21 2.418860 1_555
Li6 O31 2.088817 1_555
Li6 O33 2.189027 1_554
Li6 O27 2.224367 1_555
Li6 O14 2.291763 1_555
Li6 O20 2.336578 1_554
Li6 O16 2.505829 1_554
Li7 O26 2.119719 1_555
Li7 O8 2.135759 1_555
Li7 O36 2.154991 1_555
Li7 O20 2.273058 1_555
Li7 O30 2.277499 1_555
Li8 O10 2.165633 1_555
Li8 O17 2.201007 1_555
Li8 O37 2.270026 1_555
Li8 O30 2.293504 1_555
Li8 O21 2.313797 1_555
Li8 O26 2.323172 1_555
Li9 O11 1.980916 1_555
Li9 O39 2.007567 1_555
Li9 O21 2.206549 1_555
Li9 O27 2.266653 1_555
Li9 O31 2.517241 1_555
Li9 O17 2.621055 1_555
Li10 O41 2.109278 1_555
Li10 O42 2.125010 1_555
Li10 O37 2.144452 1_555
Li10 O35 2.287619 1_545
Li10 O25 2.550413 1_555
Li10 O26 2.569768 1_555
Li11 O33 2.032378 1_554
Li11 O43 2.048391 1_555
Li11 O27 2.284531 1_555
Li11 O40 2.380963 1_554
Li11 O38 2.605157 1_565
Mn0 O1 2.014921 1_455
Mn0 O11 2.130500 1_555
Mn0 O5 2.178793 1_555
Mn0 O10 2.183742 1_555
Mn0 O17 2.214199 1_555
Mn0 O21 2.221133 1_555
Mn1 O29 1.893425 1_545
Mn1 O25 1.934235 1_555
Mn1 O45 2.002695 1_545
Mn1 O41 2.006681 1_555
Mn1 O34 2.126761 1_555
Mn1 O35 2.212936 1_545
Mn2 O37 1.985357 1_555
Mn2 O46 1.985799 1_555
Mn2 O36 1.987824 1_555
Mn2 O42 2.143253 1_555
Mn2 O26 2.166829 1_555
Mn2 O30 2.198069 1_555
Mn3 O47 2.043357 1_655
Mn3 O43 2.149109 1_555
Mn3 O39 2.151779 1_555
Mn3 O33 2.188918 1_554
Mn3 O31 2.205144 1_555
Mn3 O27 2.293711 1_555
O0 P10 1.520427 1_455
O0 V0 1.963925 1_555
O1 P11 1.503484 1_555
O2 P0 1.587291 1_555
O2 V1 1.995614 1_555
O3 P1 1.594565 1_455
O3 V2 2.000057 1_565
O4 P0 1.539152 1_555
O4 V0 2.038627 1_555
O5 P1 1.521223 1_455
O6 P2 1.598398 1_555
O6 V1 1.986480 1_565
O7 P3 1.598117 1_555
O7 V2 1.992394 1_555
O8 P2 1.546159 1_555
O8 V0 2.035932 1_555
O9 P4 1.568596 1_555
O9 V2 2.070670 1_566
O10 P2 1.536460 1_555
O11 P3 1.525804 1_555
O12 P5 1.583657 1_555
O12 V1 2.046833 1_555
O13 P4 1.567973 1_555
O13 V1 1.998013 1_565
O14 P3 1.558401 1_555
O14 V0 2.030350 1_554
O15 P5 1.566153 1_555
O15 V2 1.962820 1_555
O16 P4 1.544668 1_555
O16 V0 2.012246 1_555
O17 P5 1.524546 1_555
O18 P6 1.568934 1_555
O18 V1 1.876592 1_555
O19 P7 1.578556 1_555
O19 V2 1.852055 1_565
O20 P6 1.554317 1_555
O20 V0 2.095096 1_555
O21 P7 1.537899 1_555
O22 P8 1.574021 1_555
O22 V1 1.890233 1_565
O23 P9 1.568408 1_555
O23 V2 1.900455 1_555
O24 P4 1.528344 1_555
O24 V3 2.011084 1_555
O25 P5 1.541544 1_555
O26 P6 1.550230 1_555
O27 P7 1.541978 1_555
O28 P6 1.515117 1_555
O28 V3 1.987568 1_545
O29 P7 1.528632 1_555
O30 P8 1.541100 1_555
O31 P9 1.534988 1_555
O32 P8 1.549724 1_555
O32 V3 1.973929 1_555
O33 P10 1.541004 1_555
O34 P9 1.531331 1_555
O35 P8 1.537875 1_555
O36 P10 1.564603 1_555
O37 P11 1.571989 1_555
O38 P9 1.565668 1_555
O38 V3 1.994473 1_544
O39 P11 1.532445 1_555
O40 P10 1.579224 1_555
O40 V3 2.117448 1_555
O41 P11 1.594951 1_555
O42 P0 1.523155 1_655
O43 P1 1.521990 1_555
O44 P0 1.565880 1_655
O44 V3 2.063480 1_545
O45 P1 1.583476 1_555
O46 P2 1.522250 1_655
O47 P3 1.511342 1_555
