# generated using pymatgen
data_K10Ge18WO4
_symmetry_space_group_name_H-M   'P 1'
_cell_length_a   14.18484060
_cell_length_b   15.97533289
_cell_length_c   17.76262745
_cell_angle_alpha   90.00000000
_cell_angle_beta   90.48313030
_cell_angle_gamma   90.00000000
_symmetry_Int_Tables_number   1
_chemical_formula_structural   K10Ge18WO4
_chemical_formula_sum   'K40 Ge72 W4 O16'
_cell_volume   4025.00240053
_cell_formula_units_Z   4
loop_
 _symmetry_equiv_pos_site_id
 _symmetry_equiv_pos_as_xyz
  1  'x, y, z'
loop_
 _atom_site_type_symbol
 _atom_site_label
 _atom_site_symmetry_multiplicity
 _atom_site_fract_x
 _atom_site_fract_y
 _atom_site_fract_z
 _atom_site_occupancy
  K  K0  1  0.35904614  0.25621861  0.89039367  1
  K  K1  1  0.64095386  0.75621861  0.60960633  1
  K  K2  1  0.64095386  0.74378139  0.10960633  1
  K  K3  1  0.35904614  0.24378139  0.39039367  1
  K  K4  1  0.62791798  0.39751012  0.83563441  1
  K  K5  1  0.37208202  0.89751012  0.66436559  1
  K  K6  1  0.37208202  0.60248988  0.16436559  1
  K  K7  1  0.62791798  0.10248988  0.33563441  1
  K  K8  1  0.25421985  0.49896389  0.97914871  1
  K  K9  1  0.74578015  0.99896389  0.52085129  1
  K  K10  1  0.74578015  0.50103611  0.02085129  1
  K  K11  1  0.25421985  0.00103611  0.47914871  1
  K  K12  1  0.28776880  0.68055084  0.53826096  1
  K  K13  1  0.71223120  0.18055084  0.96173904  1
  K  K14  1  0.71223120  0.31944916  0.46173904  1
  K  K15  1  0.28776880  0.81944916  0.03826096  1
  K  K16  1  0.21413063  0.23589260  0.61791056  1
  K  K17  1  0.78586937  0.73589260  0.88208944  1
  K  K18  1  0.78586937  0.76410740  0.38208944  1
  K  K19  1  0.21413063  0.26410740  0.11791056  1
  K  K20  1  0.47531103  0.01858362  0.89289953  1
  K  K21  1  0.52468897  0.51858362  0.60710047  1
  K  K22  1  0.52468897  0.98141638  0.10710047  1
  K  K23  1  0.47531103  0.48141638  0.39289953  1
  K  K24  1  0.17924858  0.05592763  0.81186662  1
  K  K25  1  0.82075142  0.55592763  0.68813338  1
  K  K26  1  0.82075142  0.94407237  0.18813338  1
  K  K27  1  0.17924858  0.44407237  0.31186662  1
  K  K28  1  0.27187646  0.47641653  0.71017208  1
  K  K29  1  0.72812354  0.97641653  0.78982792  1
  K  K30  1  0.72812354  0.52358347  0.28982792  1
  K  K31  1  0.27187646  0.02358347  0.21017208  1
  K  K32  1  0.06458726  0.62288977  0.85868234  1
  K  K33  1  0.93541274  0.12288977  0.64131766  1
  K  K34  1  0.93541274  0.37711023  0.14131766  1
  K  K35  1  0.06458726  0.87711023  0.35868234  1
  K  K36  1  0.00416912  0.40280612  0.56651129  1
  K  K37  1  0.99583088  0.90280612  0.93348871  1
  K  K38  1  0.99583088  0.59719388  0.43348871  1
  K  K39  1  0.00416912  0.09719388  0.06651129  1
  Ge  Ge0  1  0.69047988  0.15383684  0.65849622  1
  Ge  Ge1  1  0.30952012  0.65383684  0.84150378  1
  Ge  Ge2  1  0.30952012  0.84616316  0.34150378  1
  Ge  Ge3  1  0.69047988  0.34616316  0.15849622  1
  Ge  Ge4  1  0.58338731  0.16165998  0.53735967  1
  Ge  Ge5  1  0.41661269  0.66165998  0.96264033  1
  Ge  Ge6  1  0.41661269  0.83834002  0.46264033  1
  Ge  Ge7  1  0.58338731  0.33834002  0.03735967  1
  Ge  Ge8  1  0.54418697  0.05379547  0.65245651  1
  Ge  Ge9  1  0.45581303  0.55379547  0.84754349  1
  Ge  Ge10  1  0.45581303  0.94620453  0.34754349  1
  Ge  Ge11  1  0.54418697  0.44620453  0.15245651  1
  Ge  Ge12  1  0.56958919  0.18383795  0.76463642  1
  Ge  Ge13  1  0.43041081  0.68383795  0.73536358  1
  Ge  Ge14  1  0.43041081  0.81616205  0.23536358  1
  Ge  Ge15  1  0.56958919  0.31616205  0.26463642  1
  Ge  Ge16  1  0.61508714  0.30124619  0.65336588  1
  Ge  Ge17  1  0.38491286  0.80124619  0.84663412  1
  Ge  Ge18  1  0.38491286  0.69875381  0.34663412  1
  Ge  Ge19  1  0.61508714  0.19875381  0.15336588  1
  Ge  Ge20  1  0.41212198  0.13039760  0.57211743  1
  Ge  Ge21  1  0.58787802  0.63039760  0.92788257  1
  Ge  Ge22  1  0.58787802  0.86960240  0.42788257  1
  Ge  Ge23  1  0.41212198  0.36960240  0.07211743  1
  Ge  Ge24  1  0.40364947  0.13055855  0.71931839  1
  Ge  Ge25  1  0.59635053  0.63055855  0.78068161  1
  Ge  Ge26  1  0.59635053  0.86944145  0.28068161  1
  Ge  Ge27  1  0.40364947  0.36944145  0.21931839  1
  Ge  Ge28  1  0.44488061  0.29181979  0.70803949  1
  Ge  Ge29  1  0.55511939  0.79181979  0.79196051  1
  Ge  Ge30  1  0.55511939  0.70818021  0.29196051  1
  Ge  Ge31  1  0.44488061  0.20818021  0.20803949  1
  Ge  Ge32  1  0.47038194  0.28836893  0.56224477  1
  Ge  Ge33  1  0.52961806  0.78836893  0.93775523  1
  Ge  Ge34  1  0.52961806  0.71163107  0.43775523  1
  Ge  Ge35  1  0.47038194  0.21163107  0.06224477  1
  Ge  Ge36  1  0.05156415  0.67876285  0.63543269  1
  Ge  Ge37  1  0.94843585  0.17876285  0.86456731  1
  Ge  Ge38  1  0.94843585  0.32123715  0.36456731  1
  Ge  Ge39  1  0.05156415  0.82123715  0.13543269  1
  Ge  Ge40  1  0.08309509  0.25948884  0.93878119  1
  Ge  Ge41  1  0.91690491  0.75948884  0.56121881  1
  Ge  Ge42  1  0.91690491  0.74051116  0.06121881  1
  Ge  Ge43  1  0.08309509  0.24051116  0.43878119  1
  Ge  Ge44  1  0.09951588  0.80652265  0.55090082  1
  Ge  Ge45  1  0.90048412  0.30652265  0.94909918  1
  Ge  Ge46  1  0.90048412  0.19347735  0.44909918  1
  Ge  Ge47  1  0.09951588  0.69347735  0.05090082  1
  Ge  Ge48  1  0.13384436  0.79914517  0.71272569  1
  Ge  Ge49  1  0.86615564  0.29914517  0.78727431  1
  Ge  Ge50  1  0.86615564  0.20085483  0.28727431  1
  Ge  Ge51  1  0.13384436  0.70085483  0.21272569  1
  Ge  Ge52  1  0.04917060  0.25182001  0.76187541  1
  Ge  Ge53  1  0.95082940  0.75182001  0.73812459  1
  Ge  Ge54  1  0.95082940  0.74817999  0.23812459  1
  Ge  Ge55  1  0.04917060  0.24817999  0.26187541  1
  Ge  Ge56  1  0.03835155  0.41713594  0.94581343  1
  Ge  Ge57  1  0.96164845  0.91713594  0.55418657  1
  Ge  Ge58  1  0.96164845  0.58286406  0.05418657  1
  Ge  Ge59  1  0.03835155  0.08286406  0.44581343  1
  Ge  Ge60  1  0.11373891  0.93971131  0.63721358  1
  Ge  Ge61  1  0.88626109  0.43971131  0.86278642  1
  Ge  Ge62  1  0.88626109  0.06028869  0.36278642  1
  Ge  Ge63  1  0.11373891  0.56028869  0.13721358  1
  Ge  Ge64  1  0.99441669  0.91008504  0.74303501  1
  Ge  Ge65  1  0.00558331  0.41008504  0.75696499  1
  Ge  Ge66  1  0.00558331  0.08991496  0.25696499  1
  Ge  Ge67  1  0.99441669  0.58991496  0.24303501  1
  Ge  Ge68  1  0.14938090  0.36000724  0.83756201  1
  Ge  Ge69  1  0.85061910  0.86000724  0.66243799  1
  Ge  Ge70  1  0.85061910  0.63999276  0.16243799  1
  Ge  Ge71  1  0.14938090  0.13999276  0.33756201  1
  W  W0  1  0.25409990  0.45675288  0.50549458  1
  W  W1  1  0.74590010  0.95675288  0.99450542  1
  W  W2  1  0.74590010  0.54324712  0.49450542  1
  W  W3  1  0.25409990  0.04324712  0.00549458  1
  O  O0  1  0.34413946  0.97758295  0.04993822  1
  O  O1  1  0.65586054  0.47758295  0.45006178  1
  O  O2  1  0.65586054  0.02241705  0.95006178  1
  O  O3  1  0.34413946  0.52241705  0.54993822  1
  O  O4  1  0.16291052  0.97695284  0.96482271  1
  O  O5  1  0.83708948  0.47695284  0.53517729  1
  O  O6  1  0.83708948  0.02304716  0.03517729  1
  O  O7  1  0.16291052  0.52304716  0.46482271  1
  O  O8  1  0.20092215  0.39342893  0.57856598  1
  O  O9  1  0.79907785  0.89342893  0.92143402  1
  O  O10  1  0.79907785  0.60657107  0.42143402  1
  O  O11  1  0.20092215  0.10657107  0.07856598  1
  O  O12  1  0.30486915  0.10090273  0.92711352  1
  O  O13  1  0.69513085  0.60090273  0.57288648  1
  O  O14  1  0.69513085  0.89909727  0.07288648  1
  O  O15  1  0.30486915  0.39909727  0.42711352  1
loop_
_geom_bond_atom_site_label_1
_geom_bond_atom_site_label_2
_geom_bond_distance
_geom_bond_site_symmetry_2
K0 O12 2.679724 1_555
K1 O13 2.679724 1_555
K2 O14 2.679724 1_555
K3 O15 2.679724 1_555
K12 O3 2.657346 1_555
K13 O2 2.657346 1_555
K14 O1 2.657346 1_555
K15 O0 2.657346 1_555
K16 O8 2.618217 1_555
K17 O9 2.618217 1_555
K18 O10 2.618217 1_555
K19 O11 2.618217 1_555
K20 O2 2.747707 1_555
K20 O12 2.822900 1_555
K21 O3 2.747707 1_555
K21 O13 2.822900 1_555
K22 O0 2.747707 1_555
K22 O14 2.822900 1_555
K23 O1 2.747707 1_555
K23 O15 2.822900 1_555
K24 O12 2.796512 1_555
K24 O4 3.006267 1_545
K25 O13 2.796512 1_555
K25 O5 3.006267 1_555
K26 O14 2.796512 1_555
K26 O6 3.006267 1_565
K27 O15 2.796512 1_555
K27 O7 3.006267 1_555
K28 O8 2.862803 1_555
K28 O3 3.121002 1_555
K29 O9 2.862803 1_555
K29 O2 3.121002 1_565
K30 O10 2.862803 1_555
K30 O1 3.121002 1_555
K31 O11 2.862803 1_555
K31 O0 3.121002 1_545
K36 O5 2.703240 1_455
K36 O8 2.801320 1_555
K37 O4 2.703240 1_655
K37 O9 2.801320 1_555
K38 O7 2.703240 1_655
K38 O10 2.801320 1_555
K39 O6 2.703240 1_455
K39 O11 2.801320 1_555
Ge0 Ge16 2.587657 1_555
Ge0 Ge12 2.603706 1_555
Ge0 Ge8 2.620724 1_555
Ge0 Ge4 2.626397 1_555
Ge0 K33 3.525110 1_555
Ge0 K9 3.570263 1_545
Ge0 K29 3.706695 1_545
Ge1 Ge17 2.587657 1_555
Ge1 Ge13 2.603706 1_555
Ge1 Ge9 2.620724 1_555
Ge1 Ge5 2.626397 1_555
Ge1 K32 3.525110 1_555
Ge1 K8 3.570263 1_555
Ge1 K28 3.706695 1_555
Ge2 Ge6 2.626397 1_555
Ge2 K35 3.525110 1_555
Ge2 K11 3.570263 1_565
Ge2 K31 3.706695 1_565
Ge3 Ge7 2.626397 1_555
Ge3 K34 3.525110 1_555
Ge3 K10 3.570263 1_555
Ge3 K30 3.706695 1_555
Ge4 Ge8 2.734474 1_555
Ge4 K14 3.397054 1_555
Ge4 K9 3.486977 1_545
Ge4 K7 3.764279 1_555
Ge5 Ge9 2.734474 1_555
Ge5 K15 3.397054 1_556
Ge5 K8 3.486977 1_555
Ge5 K6 3.764279 1_556
Ge6 K12 3.397054 1_555
Ge6 K11 3.486977 1_565
Ge6 K5 3.764279 1_555
Ge7 K13 3.397054 1_554
Ge7 K10 3.486977 1_555
Ge7 K4 3.764279 1_554
Ge8 K5 3.499553 1_545
Ge8 K29 3.765919 1_545
Ge8 K9 3.810745 1_545
Ge9 K4 3.499553 1_555
Ge9 K28 3.765919 1_555
Ge9 K8 3.810745 1_555
Ge10 Ge2 2.620724 1_555
Ge10 Ge26 2.632171 1_555
Ge10 Ge22 2.645415 1_555
Ge10 Ge6 2.734474 1_555
Ge10 Ge14 2.898984 1_555
Ge10 K7 3.499553 1_565
Ge10 K31 3.765919 1_565
Ge10 K11 3.810745 1_565
Ge11 Ge3 2.620724 1_555
Ge11 Ge27 2.632171 1_555
Ge11 Ge23 2.645415 1_555
Ge11 Ge7 2.734474 1_555
Ge11 Ge15 2.898984 1_555
Ge11 K6 3.499553 1_555
Ge11 K30 3.765919 1_555
Ge11 K10 3.810745 1_555
Ge12 Ge24 2.623165 1_555
Ge12 Ge28 2.661898 1_555
Ge12 Ge16 2.804001 1_555
Ge12 Ge8 2.898984 1_555
Ge12 K4 3.729510 1_555
Ge12 K20 3.741654 1_555
Ge12 K0 3.919007 1_555
Ge12 K29 4.027457 1_545
Ge12 K13 4.029228 1_555
Ge13 Ge25 2.623165 1_555
Ge13 Ge29 2.661898 1_555
Ge13 Ge17 2.804001 1_555
Ge13 Ge9 2.898984 1_555
Ge13 K5 3.729510 1_555
Ge13 K21 3.741654 1_555
Ge13 K1 3.919007 1_555
Ge13 K28 4.027457 1_555
Ge13 K12 4.029228 1_555
Ge14 Ge2 2.603706 1_555
Ge14 Ge26 2.623165 1_555
Ge14 Ge30 2.661898 1_555
Ge14 Ge18 2.804001 1_555
Ge14 K6 3.729510 1_555
Ge14 K22 3.741654 1_555
Ge14 K2 3.919007 1_555
Ge14 K31 4.027457 1_565
Ge14 K15 4.029228 1_555
Ge15 Ge3 2.603706 1_555
Ge15 Ge27 2.623165 1_555
Ge15 Ge31 2.661898 1_555
Ge15 Ge19 2.804001 1_555
Ge15 K7 3.729510 1_555
Ge15 K23 3.741654 1_555
Ge15 K3 3.919007 1_555
Ge15 K30 4.027457 1_555
Ge15 K14 4.029228 1_555
Ge16 Ge32 2.611369 1_555
Ge16 Ge28 2.614277 1_555
Ge16 K4 3.587480 1_555
Ge16 K14 3.694361 1_555
Ge16 K21 3.789047 1_555
Ge17 Ge33 2.611369 1_555
Ge17 Ge29 2.614277 1_555
Ge17 K5 3.587480 1_555
Ge17 K15 3.694361 1_556
Ge17 K20 3.789047 1_565
Ge18 Ge2 2.587657 1_555
Ge18 Ge34 2.611369 1_555
Ge18 Ge30 2.614277 1_555
Ge18 K6 3.587480 1_555
Ge18 K12 3.694361 1_555
Ge18 K23 3.789047 1_555
Ge19 Ge3 2.587657 1_555
Ge19 Ge35 2.611369 1_555
Ge19 Ge31 2.614277 1_555
Ge19 K7 3.587480 1_555
Ge19 K13 3.694361 1_554
Ge19 K22 3.789047 1_545
Ge20 Ge4 2.560808 1_555
Ge20 Ge24 2.618450 1_555
Ge20 Ge8 2.645415 1_555
Ge20 Ge32 2.661753 1_555
Ge20 K16 3.380531 1_555
Ge20 K11 3.457199 1_555
Ge20 K3 3.771748 1_555
Ge21 Ge5 2.560808 1_555
Ge21 Ge25 2.618450 1_555
Ge21 Ge9 2.645415 1_555
Ge21 Ge33 2.661753 1_555
Ge21 K17 3.380531 1_555
Ge21 K10 3.457199 1_556
Ge21 K2 3.771748 1_556
Ge22 Ge6 2.560808 1_555
Ge22 Ge26 2.618450 1_555
Ge22 Ge34 2.661753 1_555
Ge22 K18 3.380531 1_555
Ge22 K9 3.457199 1_555
Ge22 K1 3.771748 1_555
Ge23 Ge7 2.560808 1_555
Ge23 Ge27 2.618450 1_555
Ge23 Ge35 2.661753 1_555
Ge23 K19 3.380531 1_555
Ge23 K8 3.457199 1_554
Ge23 K0 3.771748 1_554
Ge24 Ge8 2.632171 1_555
Ge24 Ge28 2.649715 1_555
Ge24 K16 3.636134 1_555
Ge24 K20 3.699574 1_555
Ge24 K0 3.700892 1_555
Ge24 K24 3.787372 1_555
Ge24 K5 3.873867 1_545
Ge25 Ge9 2.632171 1_555
Ge25 Ge29 2.649715 1_555
Ge25 K17 3.636134 1_555
Ge25 K21 3.699574 1_555
Ge25 K1 3.700892 1_555
Ge25 K25 3.787372 1_555
Ge25 K4 3.873867 1_555
Ge26 Ge30 2.649715 1_555
Ge26 K18 3.636134 1_555
Ge26 K22 3.699574 1_555
Ge26 K2 3.700892 1_555
Ge26 K26 3.787372 1_555
Ge26 K7 3.873867 1_565
Ge27 Ge31 2.649715 1_555
Ge27 K19 3.636134 1_555
Ge27 K23 3.699574 1_555
Ge27 K3 3.700892 1_555
Ge27 K27 3.787372 1_555
Ge27 K6 3.873867 1_555
Ge28 Ge32 2.618438 1_555
Ge28 K0 3.516262 1_555
Ge28 K16 3.739837 1_555
Ge28 K4 3.824829 1_555
Ge28 K28 3.836908 1_555
Ge29 Ge33 2.618438 1_555
Ge29 K1 3.516262 1_555
Ge29 K17 3.739837 1_555
Ge29 K5 3.824829 1_555
Ge29 K29 3.836908 1_555
Ge30 Ge34 2.618438 1_555
Ge30 K2 3.516262 1_555
Ge30 K18 3.739837 1_555
Ge30 K6 3.824829 1_555
Ge30 K30 3.836908 1_555
Ge31 Ge35 2.618438 1_555
Ge31 K3 3.516262 1_555
Ge31 K19 3.739837 1_555
Ge31 K7 3.824829 1_555
Ge31 K31 3.836908 1_555
Ge32 Ge4 2.621885 1_555
Ge32 K3 3.498303 1_555
Ge32 K21 3.839763 1_555
Ge32 K16 3.866969 1_555
Ge32 K14 3.912274 1_555
Ge33 Ge5 2.621885 1_555
Ge33 K2 3.498303 1_556
Ge33 K20 3.839763 1_565
Ge33 K17 3.866969 1_555
Ge33 K15 3.912274 1_556
Ge34 Ge6 2.621885 1_555
Ge34 K1 3.498303 1_555
Ge34 K23 3.839763 1_555
Ge34 K18 3.866969 1_555
Ge34 K12 3.912274 1_555
Ge35 Ge7 2.621885 1_555
Ge35 K0 3.498303 1_554
Ge35 K22 3.839763 1_545
Ge35 K19 3.866969 1_555
Ge35 K13 3.912274 1_554
Ge36 Ge53 2.602910 1_455
Ge36 Ge44 2.626806 1_555
Ge36 Ge48 2.630323 1_555
Ge36 Ge41 2.647067 1_455
Ge36 K12 3.782000 1_555
Ge36 K38 3.891297 1_455
Ge36 K25 3.936760 1_455
Ge37 Ge52 2.602910 1_655
Ge37 Ge45 2.626806 1_555
Ge37 Ge49 2.630323 1_555
Ge37 Ge40 2.647067 1_655
Ge37 K13 3.782000 1_555
Ge37 K39 3.891297 1_656
Ge37 K24 3.936760 1_655
Ge38 Ge55 2.602910 1_655
Ge38 Ge46 2.626806 1_555
Ge38 Ge50 2.630323 1_555
Ge38 Ge43 2.647067 1_655
Ge38 K14 3.782000 1_555
Ge38 K36 3.891297 1_655
Ge38 K27 3.936760 1_655
Ge39 Ge54 2.602910 1_455
Ge39 Ge47 2.626806 1_555
Ge39 Ge51 2.630323 1_555
Ge39 Ge42 2.647067 1_455
Ge39 K15 3.782000 1_555
Ge39 K37 3.891297 1_454
Ge39 K26 3.936760 1_455
Ge40 Ge68 2.593017 1_555
Ge40 Ge56 2.600466 1_555
Ge40 Ge45 2.704785 1_455
Ge40 K39 3.628493 1_556
Ge40 K19 3.672117 1_556
Ge41 Ge69 2.593017 1_555
Ge41 Ge57 2.600466 1_555
Ge41 Ge44 2.704785 1_655
Ge41 K38 3.628493 1_555
Ge41 K18 3.672117 1_555
Ge42 Ge70 2.593017 1_555
Ge42 Ge58 2.600466 1_555
Ge42 Ge47 2.704785 1_655
Ge42 K37 3.628493 1_554
Ge42 K17 3.672117 1_554
Ge43 Ge71 2.593017 1_555
Ge43 Ge59 2.600466 1_555
Ge43 Ge46 2.704785 1_455
Ge43 K36 3.628493 1_555
Ge43 K16 3.672117 1_555
Ge44 Ge60 2.629308 1_555
Ge44 Ge57 2.636740 1_455
Ge44 Ge48 2.913722 1_555
Ge44 K12 3.352781 1_555
Ge44 K35 3.625748 1_555
Ge45 Ge61 2.629308 1_555
Ge45 Ge56 2.636740 1_655
Ge45 Ge49 2.913722 1_555
Ge45 K13 3.352781 1_555
Ge45 K34 3.625748 1_556
Ge46 Ge62 2.629308 1_555
Ge46 Ge59 2.636740 1_655
Ge46 Ge50 2.913722 1_555
Ge46 K14 3.352781 1_555
Ge46 K33 3.625748 1_555
Ge47 Ge63 2.629308 1_555
Ge47 Ge58 2.636740 1_455
Ge47 Ge51 2.913722 1_555
Ge47 K15 3.352781 1_555
Ge47 K32 3.625748 1_554
Ge48 Ge60 2.629949 1_555
Ge48 Ge64 2.713003 1_455
Ge48 Ge53 2.744866 1_455
Ge48 K5 3.830963 1_555
Ge48 K32 3.957005 1_555
Ge49 Ge61 2.629949 1_555
Ge49 Ge65 2.713003 1_655
Ge49 Ge52 2.744866 1_655
Ge49 K4 3.830963 1_555
Ge49 K33 3.957005 1_555
Ge50 Ge62 2.629949 1_555
Ge50 Ge66 2.713003 1_655
Ge50 Ge55 2.744866 1_655
Ge50 K7 3.830963 1_555
Ge50 K34 3.957005 1_555
Ge51 Ge63 2.629949 1_555
Ge51 Ge67 2.713003 1_455
Ge51 Ge54 2.744866 1_455
Ge51 K6 3.830963 1_555
Ge51 K35 3.957005 1_555
Ge52 Ge65 2.604122 1_555
Ge52 Ge68 2.604390 1_555
Ge52 K33 3.372480 1_455
Ge52 K16 3.490011 1_555
Ge52 K24 3.736151 1_555
Ge53 Ge64 2.604122 1_555
Ge53 Ge69 2.604390 1_555
Ge53 K32 3.372480 1_655
Ge53 K17 3.490011 1_555
Ge53 K25 3.736151 1_555
Ge54 Ge67 2.604122 1_555
Ge54 Ge70 2.604390 1_555
Ge54 K35 3.372480 1_655
Ge54 K18 3.490011 1_555
Ge54 K26 3.736151 1_555
Ge55 Ge66 2.604122 1_555
Ge55 Ge71 2.604390 1_555
Ge55 K34 3.372480 1_455
Ge55 K19 3.490011 1_555
Ge55 K27 3.736151 1_555
Ge56 Ge61 2.627863 1_455
Ge56 Ge68 2.657384 1_555
Ge56 K8 3.377140 1_555
Ge56 K32 3.653463 1_555
Ge56 K34 3.832219 1_456
Ge57 Ge60 2.627863 1_655
Ge57 Ge69 2.657384 1_555
Ge57 K9 3.377140 1_555
Ge57 K33 3.653463 1_565
Ge57 K35 3.832219 1_655
Ge58 Ge63 2.627863 1_655
Ge58 Ge70 2.657384 1_555
Ge58 K10 3.377140 1_555
Ge58 K34 3.653463 1_555
Ge58 K32 3.832219 1_654
Ge59 Ge62 2.627863 1_455
Ge59 Ge71 2.657384 1_555
Ge59 K11 3.377140 1_555
Ge59 K35 3.653463 1_545
Ge59 K33 3.832219 1_455
Ge60 Ge64 2.583715 1_455
Ge60 K11 3.592752 1_565
Ge60 K24 3.726401 1_565
Ge60 K5 3.753170 1_555
Ge60 K33 3.869158 1_465
Ge61 Ge65 2.583715 1_655
Ge61 K10 3.592752 1_556
Ge61 K25 3.726401 1_555
Ge61 K4 3.753170 1_555
Ge61 K32 3.869158 1_655
Ge62 Ge66 2.583715 1_655
Ge62 K9 3.592752 1_545
Ge62 K26 3.726401 1_545
Ge62 K7 3.753170 1_555
Ge62 K35 3.869158 1_645
Ge63 Ge67 2.583715 1_455
Ge63 K8 3.592752 1_554
Ge63 K27 3.726401 1_555
Ge63 K6 3.753170 1_555
Ge63 K34 3.869158 1_455
Ge64 Ge69 2.607845 1_555
Ge64 K37 3.384846 1_555
Ge65 Ge68 2.607845 1_555
Ge65 K36 3.384846 1_555
Ge66 Ge71 2.607845 1_555
Ge66 K39 3.384846 1_555
Ge67 Ge70 2.607845 1_555
Ge67 K38 3.384846 1_555
Ge68 K28 3.415269 1_555
Ge68 K0 3.525311 1_555
Ge68 K8 3.660780 1_555
Ge69 K29 3.415269 1_555
Ge69 K1 3.525311 1_555
Ge69 K9 3.660780 1_555
Ge70 K30 3.415269 1_555
Ge70 K2 3.525311 1_555
Ge70 K10 3.660780 1_555
Ge71 K31 3.415269 1_555
Ge71 K3 3.525311 1_555
Ge71 K11 3.660780 1_555
O0 W3 1.826979 1_565
O1 W2 1.826979 1_555
O2 W1 1.826979 1_545
O3 W0 1.826979 1_555
O4 W3 1.816853 1_566
O5 W2 1.816853 1_555
O6 W1 1.816853 1_544
O7 W0 1.816853 1_555
O8 W0 1.814809 1_555
O9 W1 1.814809 1_555
O10 W2 1.814809 1_555
O11 W3 1.814809 1_555
O12 W3 1.822708 1_556
O13 W2 1.822708 1_555
O14 W1 1.822708 1_554
O15 W0 1.822708 1_555
