# generated using pymatgen
data_Hf9B2W3
_symmetry_space_group_name_H-M   'P 1'
_cell_length_a   8.42003817
_cell_length_b   8.42003817
_cell_length_c   8.46539200
_cell_angle_alpha   90.00000000
_cell_angle_beta   90.00000000
_cell_angle_gamma   120.00000130
_symmetry_Int_Tables_number   1
_chemical_formula_structural   Hf9B2W3
_chemical_formula_sum   'Hf18 B4 W6'
_cell_volume   519.76354939
_cell_formula_units_Z   2
loop_
 _symmetry_equiv_pos_site_id
 _symmetry_equiv_pos_as_xyz
  1  'x, y, z'
loop_
 _atom_site_type_symbol
 _atom_site_label
 _atom_site_symmetry_multiplicity
 _atom_site_fract_x
 _atom_site_fract_y
 _atom_site_fract_z
 _atom_site_occupancy
  Hf  Hf0  1  0.20068600  0.79931400  0.44503200  1
  Hf  Hf1  1  0.20068600  0.40137200  0.44503200  1
  Hf  Hf2  1  0.59862800  0.79931400  0.44503200  1
  Hf  Hf3  1  0.79931400  0.20068600  0.55496800  1
  Hf  Hf4  1  0.79931400  0.59862800  0.55496800  1
  Hf  Hf5  1  0.40137200  0.20068600  0.55496800  1
  Hf  Hf6  1  0.79931400  0.20068600  0.94503200  1
  Hf  Hf7  1  0.79931400  0.59862800  0.94503200  1
  Hf  Hf8  1  0.40137200  0.20068600  0.94503200  1
  Hf  Hf9  1  0.20068600  0.79931400  0.05496800  1
  Hf  Hf10  1  0.20068600  0.40137200  0.05496800  1
  Hf  Hf11  1  0.59862800  0.79931400  0.05496800  1
  Hf  Hf12  1  0.54035600  0.45964400  0.25000000  1
  Hf  Hf13  1  0.54035600  0.08071100  0.25000000  1
  Hf  Hf14  1  0.91928900  0.45964400  0.25000000  1
  Hf  Hf15  1  0.45964400  0.54035600  0.75000000  1
  Hf  Hf16  1  0.45964400  0.91928900  0.75000000  1
  Hf  Hf17  1  0.08071100  0.54035600  0.75000000  1
  B  B0  1  0.00000000  0.00000000  0.50000000  1
  B  B1  1  0.00000000  0.00000000  0.00000000  1
  B  B2  1  0.33333300  0.66666700  0.25000000  1
  B  B3  1  0.66666700  0.33333300  0.75000000  1
  W  W0  1  0.89208600  0.10791400  0.25000000  1
  W  W1  1  0.89208600  0.78417200  0.25000000  1
  W  W2  1  0.21582800  0.10791400  0.25000000  1
  W  W3  1  0.10791400  0.89208600  0.75000000  1
  W  W4  1  0.10791400  0.21582800  0.75000000  1
  W  W5  1  0.78417200  0.89208600  0.75000000  1
loop_
_geom_bond_atom_site_label_1
_geom_bond_atom_site_label_2
_geom_bond_distance
_geom_bond_site_symmetry_2
Hf0 W3 2.914721 1_555
Hf0 W1 3.026986 1_455
Hf0 W2 3.026986 1_565
Hf1 W4 2.914721 1_555
Hf1 W0 3.026986 1_455
Hf1 W2 3.026986 1_555
Hf2 W5 2.914721 1_555
Hf2 W0 3.026986 1_565
Hf2 W1 3.026986 1_555
Hf3 W0 2.914721 1_555
Hf3 W5 3.026986 1_545
Hf3 W4 3.026986 1_655
Hf4 W1 2.914721 1_555
Hf4 W3 3.026986 1_655
Hf4 W5 3.026986 1_555
Hf5 W2 2.914721 1_555
Hf5 W3 3.026986 1_545
Hf5 W4 3.026986 1_555
Hf6 W0 2.914721 1_556
Hf6 W5 3.026986 1_545
Hf6 W4 3.026986 1_655
Hf7 W1 2.914721 1_556
Hf7 W3 3.026986 1_655
Hf7 W5 3.026986 1_555
Hf8 W2 2.914721 1_556
Hf8 W3 3.026986 1_545
Hf8 W4 3.026986 1_555
Hf9 W3 2.914721 1_554
Hf9 W1 3.026986 1_455
Hf9 W2 3.026986 1_565
Hf10 W4 2.914721 1_554
Hf10 W0 3.026986 1_455
Hf10 W2 3.026986 1_555
Hf11 W5 2.914721 1_554
Hf11 W0 3.026986 1_565
Hf11 W1 3.026986 1_555
Hf12 W2 2.853960 1_555
Hf12 W1 2.853960 1_555
Hf13 W0 2.853957 1_555
Hf13 W2 2.853965 1_555
Hf14 W0 2.853957 1_555
Hf14 W1 2.853965 1_555
Hf15 W4 2.853960 1_555
Hf15 W5 2.853960 1_555
Hf16 W3 2.853957 1_555
Hf16 W5 2.853965 1_555
Hf17 W3 2.853957 1_555
Hf17 W4 2.853965 1_555
B0 W4 2.637387 1_555
B0 W5 2.637387 1_445
B0 W2 2.637387 1_555
B0 W1 2.637387 1_445
B0 W0 2.637387 1_455
B0 W3 2.637387 1_545
B0 Hf4 2.963551 1_445
B0 Hf2 2.963551 1_445
B0 Hf5 2.963551 1_555
B0 Hf1 2.963551 1_555
B0 Hf3 2.963551 1_455
B0 Hf0 2.963551 1_545
B1 W4 2.637387 1_554
B1 W2 2.637387 1_555
B1 W5 2.637387 1_444
B1 W1 2.637387 1_445
B1 W0 2.637387 1_455
B1 W3 2.637387 1_544
B1 Hf7 2.963551 1_444
B1 Hf11 2.963551 1_445
B1 Hf10 2.963551 1_555
B1 Hf8 2.963551 1_554
B1 Hf6 2.963551 1_454
B1 Hf9 2.963551 1_545
B2 Hf9 2.543270 1_555
B2 Hf0 2.543270 1_555
B2 Hf1 2.543276 1_555
B2 Hf2 2.543276 1_555
B2 Hf10 2.543276 1_555
B2 Hf11 2.543276 1_555
B2 Hf13 3.019195 1_565
B2 Hf14 3.019195 1_455
B2 Hf12 3.019210 1_555
B3 Hf6 2.543270 1_555
B3 Hf3 2.543270 1_555
B3 Hf5 2.543276 1_555
B3 Hf7 2.543276 1_555
B3 Hf4 2.543276 1_555
B3 Hf8 2.543276 1_555
B3 Hf16 3.019195 1_545
B3 Hf17 3.019195 1_655
B3 Hf15 3.019210 1_555
W0 W2 2.725920 1_655
W0 W1 2.725920 1_545
W1 W2 2.725920 1_665
W3 W4 2.725920 1_565
W3 W5 2.725920 1_455
W4 W5 2.725920 1_445
