# generated using pymatgen
data_CsMg6Fe
_symmetry_space_group_name_H-M   'P 1'
_cell_length_a   5.03523600
_cell_length_b   6.96073300
_cell_length_c   12.43328500
_cell_angle_alpha   90.00000000
_cell_angle_beta   90.00000000
_cell_angle_gamma   90.00000000
_symmetry_Int_Tables_number   1
_chemical_formula_structural   CsMg6Fe
_chemical_formula_sum   'Cs2 Mg12 Fe2'
_cell_volume   435.77337776
_cell_formula_units_Z   2
loop_
 _symmetry_equiv_pos_site_id
 _symmetry_equiv_pos_as_xyz
  1  'x, y, z'
loop_
 _atom_site_type_symbol
 _atom_site_label
 _atom_site_symmetry_multiplicity
 _atom_site_fract_x
 _atom_site_fract_y
 _atom_site_fract_z
 _atom_site_occupancy
  Cs  Cs0  1  0.00000000  0.00000000  0.17262900  1
  Cs  Cs1  1  0.00000000  0.50000000  0.67262900  1
  Mg  Mg0  1  0.50000000  0.71051700  0.05724900  1
  Mg  Mg1  1  0.50000000  0.28948300  0.05724900  1
  Mg  Mg2  1  0.50000000  0.50000000  0.33532100  1
  Mg  Mg3  1  0.00000000  0.22097800  0.41477500  1
  Mg  Mg4  1  0.00000000  0.77902200  0.41477500  1
  Mg  Mg5  1  0.00000000  0.50000000  0.17008800  1
  Mg  Mg6  1  0.50000000  0.21051700  0.55724900  1
  Mg  Mg7  1  0.50000000  0.78948300  0.55724900  1
  Mg  Mg8  1  0.50000000  0.00000000  0.83532100  1
  Mg  Mg9  1  0.00000000  0.72097800  0.91477500  1
  Mg  Mg10  1  0.00000000  0.27902200  0.91477500  1
  Mg  Mg11  1  0.00000000  0.00000000  0.67008800  1
  Fe  Fe0  1  0.50000000  0.00000000  0.37791500  1
  Fe  Fe1  1  0.50000000  0.50000000  0.87791500  1
loop_
_geom_bond_atom_site_label_1
_geom_bond_atom_site_label_2
_geom_bond_distance
_geom_bond_site_symmetry_2
Cs0 Mg3 3.380843 1_555
Cs0 Mg4 3.380843 1_545
Cs0 Mg5 3.480510 1_545
Cs0 Mg5 3.480510 1_555
Cs0 Mg1 3.529394 1_555
Cs0 Mg0 3.529394 1_445
Cs0 Mg1 3.529394 1_455
Cs0 Mg0 3.529394 1_545
Cs0 Fe0 3.585114 1_555
Cs0 Fe0 3.585114 1_455
Cs0 Mg10 3.748385 1_554
Cs0 Mg9 3.748385 1_544
Cs1 Mg9 3.380843 1_555
Cs1 Mg10 3.380843 1_555
Cs1 Mg11 3.480510 1_555
Cs1 Mg11 3.480510 1_565
Cs1 Mg7 3.529394 1_555
Cs1 Mg7 3.529394 1_455
Cs1 Mg6 3.529394 1_455
Cs1 Mg6 3.529394 1_555
Cs1 Fe1 3.585114 1_455
Cs1 Fe1 3.585114 1_555
Cs1 Mg4 3.748385 1_555
Cs1 Mg3 3.748385 1_555
Mg0 Mg5 3.233257 1_555
Mg0 Mg5 3.233257 1_655
Mg0 Mg8 3.416721 1_564
Mg1 Mg5 3.233257 1_555
Mg1 Mg5 3.233257 1_655
Mg1 Mg8 3.416721 1_554
Mg2 Mg5 3.249448 1_655
Mg2 Mg5 3.249448 1_555
Mg2 Mg4 3.329629 1_555
Mg2 Mg4 3.329629 1_655
Mg2 Mg3 3.329629 1_555
Mg2 Mg3 3.329629 1_655
Mg2 Mg7 3.416721 1_555
Mg2 Mg6 3.416721 1_555
Mg8 Mg9 3.329629 1_645
Mg8 Mg9 3.329629 1_545
Mg10 Mg8 3.329629 1_455
Mg10 Mg8 3.329629 1_555
Mg11 Mg6 3.233257 1_555
Mg11 Mg6 3.233257 1_455
Mg11 Mg7 3.233257 1_545
Mg11 Mg7 3.233257 1_445
Mg11 Mg8 3.249448 1_455
Mg11 Mg8 3.249448 1_555
Fe0 Mg6 2.668121 1_555
Fe0 Mg7 2.668121 1_545
Fe0 Mg3 2.985698 1_655
Fe0 Mg3 2.985698 1_555
Fe0 Mg4 2.985698 1_545
Fe0 Mg4 2.985698 1_645
Fe0 Mg2 3.520427 1_545
Fe0 Mg2 3.520427 1_555
Fe1 Mg0 2.668121 1_556
Fe1 Mg1 2.668121 1_556
Fe1 Mg9 2.985698 1_655
Fe1 Mg10 2.985698 1_655
Fe1 Mg9 2.985698 1_555
Fe1 Mg10 2.985698 1_555
Fe1 Mg8 3.520427 1_565
Fe1 Mg8 3.520427 1_555
