# generated using pymatgen
data_Zn2InCuTe4
_symmetry_space_group_name_H-M   'P 1'
_cell_length_a   6.24614900
_cell_length_b   6.24614900
_cell_length_c   7.62564918
_cell_angle_alpha   65.82350962
_cell_angle_beta   65.82350962
_cell_angle_gamma   90.00000000
_symmetry_Int_Tables_number   1
_chemical_formula_structural   Zn2InCuTe4
_chemical_formula_sum   'Zn2 In1 Cu1 Te4'
_cell_volume   242.52803889
_cell_formula_units_Z   1
loop_
 _symmetry_equiv_pos_site_id
 _symmetry_equiv_pos_as_xyz
  1  'x, y, z'
loop_
 _atom_site_type_symbol
 _atom_site_label
 _atom_site_symmetry_multiplicity
 _atom_site_fract_x
 _atom_site_fract_y
 _atom_site_fract_z
 _atom_site_occupancy
  Zn  Zn0  1  0.25000000  0.75000000  0.50000000  1
  Zn  Zn1  1  0.75000000  0.25000000  0.50000000  1
  In  In0  1  0.50000000  0.50000000  0.00000000  1
  Cu  Cu0  1  0.00000000  0.00000000  0.00000000  1
  Te  Te0  1  0.36191000  0.89432000  0.74377000  1
  Te  Te1  1  0.63809000  0.63809000  0.25623000  1
  Te  Te2  1  0.89432000  0.36191000  0.74377000  1
  Te  Te3  1  0.10568000  0.10568000  0.25623000  1
loop_
_geom_bond_atom_site_label_1
_geom_bond_atom_site_label_2
_geom_bond_distance
_geom_bond_site_symmetry_2
In0 Te3 2.840175 1_555
In0 Te2 2.840176 1_554
In0 Te0 2.840176 1_554
In0 Te1 2.840176 1_555
Cu0 Te1 2.608091 1_445
Cu0 Te0 2.608092 1_544
Cu0 Te2 2.608092 1_454
Cu0 Te3 2.608092 1_555
Te0 Zn1 2.682093 1_565
Te0 Zn0 2.682093 1_555
Te1 Zn0 2.682093 1_555
Te1 Zn1 2.682093 1_555
Te2 Zn0 2.682093 1_655
Te2 Zn1 2.682093 1_555
Te3 Zn0 2.682093 1_545
Te3 Zn1 2.682093 1_455
