# generated using pymatgen
data_Ba9U4(Ag5S12)2
_symmetry_space_group_name_H-M   'P 1'
_cell_length_a   15.65798000
_cell_length_b   15.65798000
_cell_length_c   15.65798000
_cell_angle_alpha   126.43884830
_cell_angle_beta   126.43884830
_cell_angle_gamma   79.16805321
_symmetry_Int_Tables_number   1
_chemical_formula_structural   Ba9U4(Ag5S12)2
_chemical_formula_sum   'Ba18 U8 Ag20 S48'
_cell_volume   2402.59989191
_cell_formula_units_Z   2
loop_
 _symmetry_equiv_pos_site_id
 _symmetry_equiv_pos_as_xyz
  1  'x, y, z'
loop_
 _atom_site_type_symbol
 _atom_site_label
 _atom_site_symmetry_multiplicity
 _atom_site_fract_x
 _atom_site_fract_y
 _atom_site_fract_z
 _atom_site_occupancy
  Ba  Ba0  1  0.45124000  0.17546200  0.82028100  1
  Ba  Ba1  1  0.35518200  0.63095900  0.17971900  1
  Ba  Ba2  1  0.85518200  0.67546200  0.72422300  1
  Ba  Ba3  1  0.95124000  0.13095900  0.27577700  1
  Ba  Ba4  1  0.17546200  0.35518200  0.72422300  1
  Ba  Ba5  1  0.63095900  0.45124000  0.27577700  1
  Ba  Ba6  1  0.67546200  0.95124000  0.82028100  1
  Ba  Ba7  1  0.13095900  0.85518200  0.17971900  1
  Ba  Ba8  1  0.32337500  0.04633900  0.18181600  1
  Ba  Ba9  1  0.86452300  0.14156000  0.81818400  1
  Ba  Ba10  1  0.36452300  0.54633900  0.72296400  1
  Ba  Ba11  1  0.82337500  0.64156000  0.27703600  1
  Ba  Ba12  1  0.04633900  0.86452300  0.72296400  1
  Ba  Ba13  1  0.14156000  0.32337500  0.27703600  1
  Ba  Ba14  1  0.54633900  0.82337500  0.18181600  1
  Ba  Ba15  1  0.64156000  0.36452300  0.81818400  1
  Ba  Ba16  1  0.25278800  0.25278800  0.00000000  1
  Ba  Ba17  1  0.75278800  0.75278800  0.00000000  1
  U  U0  1  0.49846600  0.50687600  0.50000000  1
  U  U1  1  0.00687600  0.99846600  0.50000000  1
  U  U2  1  0.50687600  0.00687600  0.00841000  1
  U  U3  1  0.99846600  0.49846600  0.99159000  1
  U  U4  1  0.99161900  0.49161900  0.50000000  1
  U  U5  1  0.49161900  0.99161900  0.50000000  1
  U  U6  1  0.50009700  0.50009700  0.00000000  1
  U  U7  1  0.00009700  0.00009700  0.00000000  1
  Ag  Ag0  1  0.25123400  0.96050100  0.71026400  1
  Ag  Ag1  1  0.25023700  0.54097000  0.28973600  1
  Ag  Ag2  1  0.75023700  0.46050100  0.70926700  1
  Ag  Ag3  1  0.75123400  0.04097000  0.29073300  1
  Ag  Ag4  1  0.96050100  0.25023700  0.70926700  1
  Ag  Ag5  1  0.54097000  0.25123400  0.29073300  1
  Ag  Ag6  1  0.46050100  0.75123400  0.71026400  1
  Ag  Ag7  1  0.04097000  0.75023700  0.28973600  1
  Ag  Ag8  1  0.67690800  0.82247200  0.50000000  1
  Ag  Ag9  1  0.32247200  0.17690800  0.50000000  1
  Ag  Ag10  1  0.82247200  0.32247200  0.14556400  1
  Ag  Ag11  1  0.17690800  0.67690800  0.85443600  1
  Ag  Ag12  1  0.81606700  0.95095300  0.50000000  1
  Ag  Ag13  1  0.45095300  0.31606700  0.50000000  1
  Ag  Ag14  1  0.95095300  0.45095300  0.13488700  1
  Ag  Ag15  1  0.31606700  0.81606700  0.86511300  1
  Ag  Ag16  1  0.83905700  0.33905700  0.50000000  1
  Ag  Ag17  1  0.33905700  0.83905700  0.50000000  1
  Ag  Ag18  1  0.67520700  0.17520700  0.50000000  1
  Ag  Ag19  1  0.17520700  0.67520700  0.50000000  1
  S  S0  1  0.30099800  0.00119500  0.93091800  1
  S  S1  1  0.07027700  0.37008000  0.06908200  1
  S  S2  1  0.57027700  0.50119500  0.70019700  1
  S  S3  1  0.80099800  0.87008000  0.29980300  1
  S  S4  1  0.00119500  0.07027700  0.70019700  1
  S  S5  1  0.37008000  0.30099800  0.29980300  1
  S  S6  1  0.50119500  0.80099800  0.93091800  1
  S  S7  1  0.87008000  0.57027700  0.06908200  1
  S  S8  1  0.65626800  0.39734400  0.05374200  1
  S  S9  1  0.34360100  0.60252500  0.94625800  1
  S  S10  1  0.84360100  0.89734400  0.74107600  1
  S  S11  1  0.15626800  0.10252500  0.25892400  1
  S  S12  1  0.39734300  0.34360100  0.74107600  1
  S  S13  1  0.60252500  0.65626800  0.25892400  1
  S  S14  1  0.89734400  0.15626800  0.05374200  1
  S  S15  1  0.10252500  0.84360100  0.94625800  1
  S  S16  1  0.50500700  0.20334300  0.07918000  1
  S  S17  1  0.12416300  0.42582700  0.92082000  1
  S  S18  1  0.62416300  0.70334300  0.69833600  1
  S  S19  1  0.00500700  0.92582700  0.30166400  1
  S  S20  1  0.20334300  0.12416300  0.69833600  1
  S  S21  1  0.42582700  0.50500700  0.30166400  1
  S  S22  1  0.70334300  0.00500700  0.07918000  1
  S  S23  1  0.92582700  0.62416300  0.92082000  1
  S  S24  1  0.50947800  0.82247300  0.50000000  1
  S  S25  1  0.32247300  0.00947800  0.50000000  1
  S  S26  1  0.82247300  0.32247300  0.31299500  1
  S  S27  1  0.00947800  0.50947800  0.68700500  1
  S  S28  1  0.31916500  0.56453700  0.50000000  1
  S  S29  1  0.06453700  0.81916500  0.50000000  1
  S  S30  1  0.56453700  0.06453700  0.24537200  1
  S  S31  1  0.81916500  0.31916500  0.75462800  1
  S  S32  1  0.66075700  0.99303100  0.50000000  1
  S  S33  1  0.49303100  0.16075700  0.50000000  1
  S  S34  1  0.99303100  0.49303100  0.33227400  1
  S  S35  1  0.16075700  0.66075700  0.66772600  1
  S  S36  1  0.12838900  0.36537600  0.50000000  1
  S  S37  1  0.86537600  0.62838900  0.50000000  1
  S  S38  1  0.36537600  0.86537600  0.23698700  1
  S  S39  1  0.62838900  0.12838900  0.76301300  1
  S  S40  1  0.94128100  0.17293200  0.50000000  1
  S  S41  1  0.67293200  0.44128100  0.50000000  1
  S  S42  1  0.17293200  0.67293200  0.23165100  1
  S  S43  1  0.44128100  0.94128100  0.76834900  1
  S  S44  1  0.39375800  0.39375800  0.00000000  1
  S  S45  1  0.89375800  0.89375800  0.00000000  1
  S  S46  1  0.10612200  0.10612200  0.00000000  1
  S  S47  1  0.60612200  0.60612200  0.00000000  1
loop_
_geom_bond_atom_site_label_1
_geom_bond_atom_site_label_2
_geom_bond_distance
_geom_bond_site_symmetry_2
Ba0 S20 3.146931 1_555
Ba0 S39 3.231472 1_555
Ba0 S25 3.231794 1_555
Ba0 S43 3.263931 1_545
Ba0 S44 3.292170 1_556
Ba0 S8 3.302073 1_556
Ba0 S12 3.313873 1_555
Ba0 S16 3.363706 1_556
Ba1 S21 3.146933 1_555
Ba1 S38 3.231470 1_555
Ba1 S24 3.231794 1_555
Ba1 S42 3.263946 1_555
Ba1 S44 3.292163 1_555
Ba1 S9 3.302047 1_554
Ba1 S13 3.313859 1_555
Ba1 S17 3.363714 1_554
Ba2 S23 3.146921 1_555
Ba2 S37 3.231477 1_555
Ba2 S27 3.231786 1_655
Ba2 S41 3.263936 1_555
Ba2 S45 3.292167 1_556
Ba2 S10 3.302078 1_555
Ba2 S15 3.313863 1_655
Ba2 S18 3.363714 1_555
Ba3 S22 3.146933 1_555
Ba3 S36 3.231470 1_655
Ba3 S26 3.231794 1_555
Ba3 S40 3.263946 1_555
Ba3 S45 3.292163 1_545
Ba3 S11 3.302062 1_655
Ba3 S14 3.313874 1_555
Ba3 S19 3.363714 1_645
Ba4 S17 3.146921 1_555
Ba4 S36 3.231477 1_555
Ba4 S27 3.231786 1_555
Ba4 S40 3.263936 1_455
Ba4 S44 3.292167 1_556
Ba4 S12 3.302062 1_555
Ba4 S9 3.313863 1_555
Ba4 S20 3.363714 1_555
Ba5 S16 3.146933 1_555
Ba5 S37 3.231470 1_555
Ba5 S26 3.231794 1_555
Ba5 S41 3.263946 1_555
Ba5 S44 3.292163 1_555
Ba5 S13 3.302062 1_555
Ba5 S8 3.313874 1_555
Ba5 S21 3.363714 1_555
Ba6 S18 3.146931 1_555
Ba6 S39 3.231472 1_565
Ba6 S24 3.231794 1_555
Ba6 S43 3.263931 1_555
Ba6 S45 3.292170 1_556
Ba6 S14 3.302073 1_566
Ba6 S10 3.313874 1_555
Ba6 S22 3.363706 1_566
Ba7 S19 3.146933 1_555
Ba7 S38 3.231470 1_555
Ba7 S25 3.231794 1_565
Ba7 S42 3.263946 1_555
Ba7 S45 3.292163 1_455
Ba7 S15 3.302047 1_554
Ba7 S11 3.313859 1_565
Ba7 S23 3.363714 1_454
Ba8 S33 3.248321 1_555
Ba8 S5 3.253872 1_555
Ba8 S11 3.271676 1_555
Ba8 S15 3.271840 1_544
Ba8 S38 3.277206 1_545
Ba8 S30 3.306670 1_555
Ba8 S46 3.319240 1_555
Ba8 S0 3.348892 1_554
Ba9 S32 3.248321 1_545
Ba9 S4 3.253870 1_655
Ba9 S10 3.271691 1_545
Ba9 S14 3.271832 1_556
Ba9 S39 3.277208 1_555
Ba9 S31 3.306655 1_555
Ba9 S46 3.319248 1_656
Ba9 S1 3.348883 1_656
Ba10 S35 3.248321 1_555
Ba10 S6 3.253872 1_555
Ba10 S9 3.271691 1_555
Ba10 S12 3.271840 1_555
Ba10 S36 3.277206 1_555
Ba10 S28 3.306670 1_555
Ba10 S47 3.319240 1_556
Ba10 S2 3.348892 1_555
Ba11 S34 3.248333 1_555
Ba11 S7 3.253868 1_555
Ba11 S8 3.271685 1_555
Ba11 S13 3.271840 1_555
Ba11 S37 3.277216 1_555
Ba11 S29 3.306663 1_655
Ba11 S47 3.319234 1_555
Ba11 S3 3.348876 1_555
Ba12 S35 3.248321 1_555
Ba12 S0 3.253872 1_565
Ba12 S15 3.271691 1_555
Ba12 S10 3.271839 1_455
Ba12 S37 3.277206 1_455
Ba12 S29 3.306670 1_555
Ba12 S46 3.319240 1_566
Ba12 S4 3.348892 1_565
Ba13 S34 3.248333 1_455
Ba13 S1 3.253868 1_555
Ba13 S14 3.271685 1_455
Ba13 S11 3.271840 1_555
Ba13 S36 3.277216 1_555
Ba13 S28 3.306663 1_555
Ba13 S46 3.319234 1_555
Ba13 S5 3.348876 1_555
Ba14 S32 3.248321 1_555
Ba14 S3 3.253872 1_555
Ba14 S13 3.271676 1_555
Ba14 S9 3.271840 1_554
Ba14 S38 3.277206 1_555
Ba14 S30 3.306670 1_565
Ba14 S47 3.319240 1_555
Ba14 S6 3.348892 1_554
Ba15 S33 3.248321 1_555
Ba15 S2 3.253870 1_555
Ba15 S12 3.271707 1_555
Ba15 S8 3.271832 1_556
Ba15 S39 3.277208 1_555
Ba15 S31 3.306655 1_555
Ba15 S47 3.319248 1_556
Ba15 S7 3.348883 1_556
Ba16 S44 3.402301 1_555
Ba16 S17 3.450744 1_554
Ba16 S21 3.450744 1_555
Ba16 S16 3.450744 1_555
Ba16 S20 3.450744 1_554
Ba16 S5 3.471207 1_555
Ba16 S1 3.471207 1_555
Ba16 S0 3.471207 1_554
Ba16 S4 3.471207 1_554
Ba16 S46 3.539773 1_555
Ba17 S45 3.402301 1_555
Ba17 S18 3.450744 1_554
Ba17 S23 3.450744 1_554
Ba17 S19 3.450744 1_655
Ba17 S22 3.450744 1_565
Ba17 S6 3.471207 1_554
Ba17 S3 3.471207 1_555
Ba17 S2 3.471207 1_554
Ba17 S7 3.471207 1_555
Ba17 S47 3.539773 1_555
Ag0 S43 2.558584 1_555
Ag0 S29 2.574045 1_555
Ag0 S20 2.616127 1_565
Ag0 S0 2.706197 1_565
Ag1 S42 2.558584 1_555
Ag1 S28 2.574045 1_555
Ag1 S21 2.616127 1_555
Ag1 S1 2.706197 1_555
Ag2 S41 2.558584 1_555
Ag2 S31 2.574045 1_555
Ag2 S23 2.616127 1_555
Ag2 S2 2.706197 1_555
Ag3 S40 2.558584 1_555
Ag3 S30 2.574045 1_555
Ag3 S22 2.616127 1_555
Ag3 S3 2.706197 1_545
Ag4 S40 2.558584 1_555
Ag4 S31 2.574045 1_555
Ag4 S17 2.616127 1_655
Ag4 S4 2.706197 1_655
Ag5 S41 2.558584 1_555
Ag5 S30 2.574045 1_555
Ag5 S16 2.616127 1_555
Ag5 S5 2.706197 1_555
Ag6 S43 2.558584 1_555
Ag6 S28 2.574045 1_555
Ag6 S18 2.616127 1_555
Ag6 S6 2.706197 1_555
Ag7 S42 2.558584 1_555
Ag7 S29 2.574045 1_555
Ag7 S19 2.616127 1_555
Ag7 S7 2.706197 1_455
Ag8 S10 2.573883 1_555
Ag8 S13 2.573883 1_555
Ag8 S24 2.621613 1_555
Ag8 S32 2.634818 1_555
Ag9 S11 2.573883 1_555
Ag9 S12 2.573886 1_555
Ag9 S25 2.621613 1_555
Ag9 S33 2.634818 1_555
Ag10 S14 2.573886 1_555
Ag10 S8 2.573886 1_555
Ag10 S26 2.621613 1_555
Ag10 S34 2.634818 1_555
Ag11 S15 2.573886 1_555
Ag11 S9 2.573886 1_555
Ag11 S27 2.621613 1_555
Ag11 S35 2.634818 1_555
Ag12 S32 2.397025 1_555
Ag12 S4 2.450236 1_665
Ag12 S3 2.450236 1_555
Ag13 S33 2.397025 1_555
Ag13 S2 2.450236 1_555
Ag13 S5 2.450236 1_555
Ag14 S34 2.397010 1_555
Ag14 S7 2.450245 1_555
Ag14 S1 2.450245 1_655
Ag15 S35 2.397024 1_555
Ag15 S0 2.450232 1_565
Ag15 S6 2.450232 1_555
Ag16 S27 2.632035 1_655
Ag16 S26 2.632035 1_555
Ag16 S41 2.786261 1_555
Ag16 S40 2.786261 1_555
Ag17 S24 2.632035 1_555
Ag17 S25 2.632035 1_565
Ag17 S42 2.786261 1_555
Ag17 S43 2.786261 1_555
Ag18 S31 2.572089 1_555
Ag18 S30 2.572089 1_555
Ag18 S32 2.903545 1_545
Ag18 S33 2.903545 1_555
Ag19 S29 2.572089 1_555
Ag19 S28 2.572089 1_555
Ag19 S34 2.903545 1_455
Ag19 S35 2.903545 1_555
S0 U2 2.684217 1_556
S1 U3 2.684217 1_454
S2 U0 2.684217 1_555
S3 U1 2.684217 1_655
S4 U1 2.684217 1_545
S5 U0 2.684217 1_555
S6 U2 2.684217 1_566
S7 U3 2.684217 1_554
S8 U6 2.638454 1_555
S9 U6 2.638454 1_556
S10 U7 2.638456 1_666
S11 U7 2.638456 1_555
S12 U6 2.638454 1_556
S13 U6 2.638456 1_555
S14 U7 2.638454 1_655
S15 U7 2.638454 1_566
S16 U2 2.578264 1_555
S17 U3 2.578264 1_455
S18 U0 2.578264 1_555
S19 U1 2.578264 1_555
S20 U1 2.578264 1_545
S21 U0 2.578264 1_555
S22 U2 2.578264 1_555
S23 U3 2.578264 1_555
S24 U5 2.610422 1_555
S25 U5 2.610422 1_545
S26 U4 2.610422 1_555
S27 U4 2.610422 1_455
S28 U0 2.782885 1_555
S29 U1 2.782885 1_555
S30 U2 2.782885 1_555
S31 U3 2.782885 1_555
S32 U5 2.652603 1_555
S33 U5 2.652603 1_545
S34 U4 2.652603 1_555
S35 U4 2.652603 1_455
S36 U4 2.627261 1_455
S37 U4 2.627261 1_555
S38 U5 2.627261 1_555
S39 U5 2.627261 1_545
S40 U1 2.731846 1_645
S41 U0 2.731846 1_555
S42 U3 2.731846 1_454
S43 U2 2.731846 1_566
S44 U6 2.566484 1_555
S45 U7 2.566484 1_665
S46 U7 2.558906 1_555
S47 U6 2.558906 1_555
