# generated using pymatgen
data_AlFeO3
_symmetry_space_group_name_H-M   'P 1'
_cell_length_a   4.98235037
_cell_length_b   5.00152093
_cell_length_c   7.94345649
_cell_angle_alpha   91.03709341
_cell_angle_beta   89.68984125
_cell_angle_gamma   90.23283036
_symmetry_Int_Tables_number   1
_chemical_formula_structural   AlFeO3
_chemical_formula_sum   'Al4 Fe4 O12'
_cell_volume   197.90872811
_cell_formula_units_Z   4
loop_
 _symmetry_equiv_pos_site_id
 _symmetry_equiv_pos_as_xyz
  1  'x, y, z'
loop_
 _atom_site_type_symbol
 _atom_site_label
 _atom_site_symmetry_multiplicity
 _atom_site_fract_x
 _atom_site_fract_y
 _atom_site_fract_z
 _atom_site_occupancy
  Al  Al0  1  0.98168600  0.99390700  0.75323200  1
  Al  Al1  1  0.48536700  0.50781900  0.25627100  1
  Al  Al2  1  0.51474500  0.49210100  0.74309300  1
  Al  Al3  1  0.01793900  0.00636300  0.24643700  1
  Fe  Fe0  1  0.00037400  0.50039200  0.49996800  1
  Fe  Fe1  1  0.49988300  0.00016200  0.49990100  1
  Fe  Fe2  1  0.50004500  0.99967100  0.99982000  1
  Fe  Fe3  1  0.00008200  0.49947600  0.99995300  1
  O  O0  1  0.65590600  0.33409600  0.42131500  1
  O  O1  1  0.15758500  0.16763100  0.58995000  1
  O  O2  1  0.84568700  0.83206400  0.07457900  1
  O  O3  1  0.33717900  0.66187000  0.91416700  1
  O  O4  1  0.34365700  0.66758300  0.57918000  1
  O  O5  1  0.84270500  0.83361800  0.41043200  1
  O  O6  1  0.15381000  0.16674600  0.92578700  1
  O  O7  1  0.66354200  0.33621100  0.08582700  1
  O  O8  1  0.14941100  0.35276800  0.25981700  1
  O  O9  1  0.64201000  0.14285200  0.75370500  1
  O  O10  1  0.35779200  0.85725700  0.24627400  1
  O  O11  1  0.85059900  0.64741300  0.74029300  1
loop_
_geom_bond_atom_site_label_1
_geom_bond_atom_site_label_2
_geom_bond_distance
_geom_bond_site_symmetry_2
Al0 O1 1.796549 1_665
Al0 O6 1.823545 1_665
Al0 O11 1.850808 1_555
Al0 O9 1.851813 1_565
Al1 O0 1.804158 1_555
Al1 O7 1.819050 1_555
Al1 O8 1.842196 1_555
Al1 O10 1.865329 1_555
Al2 O4 1.803247 1_555
Al2 O3 1.817043 1_555
Al2 O11 1.842183 1_555
Al2 O9 1.864216 1_555
Al3 O5 1.796672 1_445
Al3 O2 1.823090 1_445
Al3 O8 1.851209 1_555
Al3 O10 1.852974 1_545
Fe0 O1 1.988485 1_555
Fe0 O5 1.990032 1_455
Fe0 O4 2.000365 1_555
Fe0 O0 2.002217 1_455
Fe0 O8 2.161879 1_555
Fe0 O11 2.163357 1_455
Fe1 O4 1.947162 1_545
Fe1 O0 1.950744 1_555
Fe1 O5 2.023212 1_545
Fe1 O1 2.024474 1_555
Fe1 O10 2.242803 1_545
Fe1 O9 2.243794 1_555
Fe2 O7 1.979086 1_566
Fe2 O3 1.982189 1_555
Fe2 O6 2.015055 1_565
Fe2 O2 2.015408 1_556
Fe2 O9 2.206074 1_565
Fe2 O10 2.207626 1_556
Fe3 O6 1.916539 1_555
Fe3 O2 1.918323 1_456
Fe3 O7 1.985014 1_456
Fe3 O3 1.985309 1_555
Fe3 O8 2.329989 1_556
Fe3 O11 2.330842 1_455
