# generated using pymatgen
data_BaSr2ScInO6
_symmetry_space_group_name_H-M   'P 1'
_cell_length_a   10.82990427
_cell_length_b   10.82990427
_cell_length_c   10.82990427
_cell_angle_alpha   157.86093517
_cell_angle_beta   157.86093517
_cell_angle_gamma   31.51056500
_symmetry_Int_Tables_number   1
_chemical_formula_structural   BaSr2ScInO6
_chemical_formula_sum   'Ba1 Sr2 Sc1 In1 O6'
_cell_volume   180.26280451
_cell_formula_units_Z   1
loop_
 _symmetry_equiv_pos_site_id
 _symmetry_equiv_pos_as_xyz
  1  'x, y, z'
loop_
 _atom_site_type_symbol
 _atom_site_label
 _atom_site_symmetry_multiplicity
 _atom_site_fract_x
 _atom_site_fract_y
 _atom_site_fract_z
 _atom_site_occupancy
  Ba  Ba0  1  0.31887700  0.31887700  0.00000000  1
  Sr  Sr0  1  0.49862900  0.49862900  0.00000000  1
  Sr  Sr1  1  0.68230000  0.68230000  0.00000000  1
  Sc  Sc0  1  0.90043300  0.90043300  0.00000000  1
  In  In0  1  0.09808600  0.09808600  0.00000000  1
  O  O0  1  0.91993200  0.41993200  0.50000000  1
  O  O1  1  0.41993200  0.91993200  0.50000000  1
  O  O2  1  0.07964600  0.57964600  0.50000000  1
  O  O3  1  0.57964600  0.07964600  0.50000000  1
  O  O4  1  0.80445500  0.80445500  0.00000000  1
  O  O5  1  0.19806200  0.19806200  0.00000000  1
loop_
_geom_bond_atom_site_label_1
_geom_bond_atom_site_label_2
_geom_bond_distance
_geom_bond_site_symmetry_2
Ba0 O5 2.518516 1_555
Ba0 O4 2.955963 1_545
Ba0 O4 2.955963 1_455
Ba0 O4 2.955963 1_556
Ba0 O4 2.955963 1_444
Ba0 O1 2.959970 1_555
Ba0 O0 2.959970 1_555
Ba0 O1 2.959970 1_544
Ba0 O0 2.959970 1_454
In0 O5 2.084105 1_555
In0 O2 2.114576 1_555
In0 O3 2.114576 1_454
In0 O2 2.114576 1_544
In0 O3 2.114576 1_555
O0 Sc0 2.118700 1_556
O0 Sc0 2.118700 1_545
O0 Sr0 2.648581 1_656
O0 Sr0 2.648581 1_555
O1 Sc0 2.118700 1_455
O1 Sc0 2.118700 1_556
O1 Sr0 2.648581 1_555
O1 Sr0 2.648581 1_566
O2 Sr0 2.678806 1_455
O2 Sr0 2.678806 1_556
O2 Sr1 2.983785 1_455
O2 Sr1 2.983785 1_556
O3 Sr0 2.678806 1_545
O3 Sr0 2.678806 1_556
O3 Sr1 2.983785 1_545
O3 Sr1 2.983785 1_556
O4 Sc0 2.000763 1_555
O4 Sr1 2.546450 1_555
O5 Sr1 2.958935 1_455
O5 Sr1 2.958935 1_444
O5 Sr1 2.958935 1_545
O5 Sr1 2.958935 1_556
