# generated using pymatgen
data_CaCr2(Si2O5)4
_symmetry_space_group_name_H-M   'P 1'
_cell_length_a   7.40597300
_cell_length_b   7.40597300
_cell_length_c   15.46169600
_cell_angle_alpha   90.00000000
_cell_angle_beta   90.00000000
_cell_angle_gamma   90.00000000
_symmetry_Int_Tables_number   1
_chemical_formula_structural   CaCr2(Si2O5)4
_chemical_formula_sum   'Ca2 Cr4 Si16 O40'
_cell_volume   848.04984469
_cell_formula_units_Z   2
loop_
 _symmetry_equiv_pos_site_id
 _symmetry_equiv_pos_as_xyz
  1  'x, y, z'
loop_
 _atom_site_type_symbol
 _atom_site_label
 _atom_site_symmetry_multiplicity
 _atom_site_fract_x
 _atom_site_fract_y
 _atom_site_fract_z
 _atom_site_occupancy
  Ca  Ca0  1  0.50000000  0.50000000  0.00000000  1
  Ca  Ca1  1  0.00000000  0.00000000  0.50000000  1
  Cr  Cr0  1  0.00000000  0.50000000  0.08258000  1
  Cr  Cr1  1  0.50000000  0.00000000  0.41742000  1
  Cr  Cr2  1  0.50000000  0.00000000  0.91742000  1
  Cr  Cr3  1  0.00000000  0.50000000  0.58258000  1
  Si  Si0  1  0.67317100  0.75186000  0.64947900  1
  Si  Si1  1  0.32682900  0.24814000  0.64947900  1
  Si  Si2  1  0.75491000  0.67305100  0.85242300  1
  Si  Si3  1  0.25491000  0.82694900  0.64757700  1
  Si  Si4  1  0.74509000  0.17305100  0.64757700  1
  Si  Si5  1  0.82682900  0.25186000  0.85052100  1
  Si  Si6  1  0.17317100  0.74814000  0.85052100  1
  Si  Si7  1  0.24509000  0.32694900  0.85242300  1
  Si  Si8  1  0.82694900  0.74509000  0.35242300  1
  Si  Si9  1  0.17305100  0.25491000  0.35242300  1
  Si  Si10  1  0.74814000  0.82682900  0.14947900  1
  Si  Si11  1  0.24814000  0.67317100  0.35052100  1
  Si  Si12  1  0.75186000  0.32682900  0.35052100  1
  Si  Si13  1  0.67305100  0.24509000  0.14757700  1
  Si  Si14  1  0.32694900  0.75491000  0.14757700  1
  Si  Si15  1  0.25186000  0.17317100  0.14947900  1
  O  O0  1  0.77160300  0.60525900  0.58899200  1
  O  O1  1  0.22839700  0.39474100  0.58899200  1
  O  O2  1  0.60721500  0.75643600  0.91922200  1
  O  O3  1  0.10721500  0.74356400  0.58077800  1
  O  O4  1  0.89278500  0.25643600  0.58077800  1
  O  O5  1  0.72839700  0.10525900  0.91100800  1
  O  O6  1  0.27160300  0.89474100  0.91100800  1
  O  O7  1  0.39278500  0.24356400  0.91922200  1
  O  O8  1  0.74356400  0.89278500  0.41922200  1
  O  O9  1  0.25643600  0.10721500  0.41922200  1
  O  O10  1  0.89474100  0.72839700  0.08899200  1
  O  O11  1  0.39474100  0.77160300  0.41100800  1
  O  O12  1  0.60525900  0.22839700  0.41100800  1
  O  O13  1  0.75643600  0.39278500  0.08077800  1
  O  O14  1  0.24356400  0.60721500  0.08077800  1
  O  O15  1  0.75603300  0.54187400  0.37073000  1
  O  O16  1  0.10525900  0.27160300  0.08899200  1
  O  O17  1  0.24354600  0.04582200  0.62606700  1
  O  O18  1  0.95812600  0.74396700  0.87073000  1
  O  O19  1  0.45812600  0.75603300  0.62927000  1
  O  O20  1  0.54187400  0.24396700  0.62927000  1
  O  O21  1  0.74354600  0.45417800  0.87393300  1
  O  O22  1  0.25645400  0.54582200  0.87393300  1
  O  O23  1  0.04187400  0.25603300  0.87073000  1
  O  O24  1  0.21093100  0.20283400  0.25210000  1
  O  O25  1  0.28906900  0.70283400  0.24790000  1
  O  O26  1  0.71093100  0.29716600  0.24790000  1
  O  O27  1  0.78906900  0.79716600  0.25210000  1
  O  O28  1  0.29716600  0.28906900  0.75210000  1
  O  O29  1  0.20283400  0.78906900  0.74790000  1
  O  O30  1  0.79716600  0.21093100  0.74790000  1
  O  O31  1  0.70283400  0.71093100  0.75210000  1
  O  O32  1  0.45417800  0.25645400  0.12606700  1
  O  O33  1  0.25603300  0.95812600  0.12927000  1
  O  O34  1  0.74396700  0.04187400  0.12927000  1
  O  O35  1  0.95417800  0.24354600  0.37393300  1
  O  O36  1  0.04582200  0.75645400  0.37393300  1
  O  O37  1  0.54582200  0.74354600  0.12606700  1
  O  O38  1  0.24396700  0.45812600  0.37073000  1
  O  O39  1  0.75645400  0.95417800  0.62606700  1
loop_
_geom_bond_atom_site_label_1
_geom_bond_atom_site_label_2
_geom_bond_distance
_geom_bond_site_symmetry_2
Ca0 O14 2.407738 1_555
Ca0 O2 2.407738 1_554
Ca0 O13 2.407738 1_555
Ca0 O7 2.407738 1_554
Ca0 O32 2.677293 1_555
Ca0 O21 2.677293 1_554
Ca0 O37 2.677293 1_555
Ca0 O22 2.677293 1_554
Ca1 O8 2.407738 1_445
Ca1 O4 2.407738 1_455
Ca1 O9 2.407738 1_555
Ca1 O3 2.407738 1_545
Ca1 O36 2.677293 1_545
Ca1 O35 2.677293 1_455
Ca1 O39 2.677293 1_445
Ca1 O17 2.677293 1_555
Cr0 O10 1.865127 1_455
Cr0 O16 1.865127 1_555
Cr0 O14 1.971055 1_555
Cr0 O13 1.971055 1_455
Cr1 O11 1.865127 1_545
Cr1 O12 1.865127 1_555
Cr1 O8 1.971055 1_545
Cr1 O9 1.971055 1_555
Cr2 O5 1.865127 1_555
Cr2 O6 1.865127 1_545
Cr2 O2 1.971055 1_545
Cr2 O7 1.971055 1_555
Cr3 O1 1.865127 1_555
Cr3 O0 1.865127 1_455
Cr3 O4 1.971055 1_455
Cr3 O3 1.971055 1_555
O0 Si0 1.607754 1_555
O1 Si1 1.607754 1_555
O2 Si2 1.626206 1_555
O3 Si3 1.626206 1_555
O4 Si4 1.626206 1_555
O5 Si5 1.607754 1_555
O6 Si6 1.607754 1_555
O7 Si7 1.626206 1_555
O8 Si8 1.626206 1_555
O9 Si9 1.626206 1_555
O10 Si10 1.607754 1_555
O11 Si11 1.607754 1_555
O12 Si12 1.607754 1_555
O13 Si13 1.626206 1_555
O14 Si14 1.626206 1_555
O15 Si8 1.618957 1_555
O15 Si12 1.623275 1_555
O16 Si15 1.607754 1_555
O17 Si3 1.656873 1_545
O17 Si1 1.660288 1_555
O18 Si2 1.618957 1_555
O18 Si6 1.623275 1_655
O19 Si3 1.618957 1_555
O19 Si0 1.623275 1_555
O20 Si4 1.618957 1_555
O20 Si1 1.623275 1_555
O21 Si2 1.656873 1_555
O21 Si5 1.660288 1_555
O22 Si7 1.656873 1_555
O22 Si6 1.660288 1_555
O23 Si7 1.618957 1_555
O23 Si5 1.623275 1_455
O24 Si9 1.622823 1_555
O24 Si15 1.630258 1_555
O25 Si14 1.622823 1_555
O25 Si11 1.630258 1_555
O26 Si13 1.622823 1_555
O26 Si12 1.630258 1_555
O27 Si8 1.622823 1_555
O27 Si10 1.630258 1_555
O28 Si7 1.622823 1_555
O28 Si1 1.630258 1_555
O29 Si3 1.622823 1_555
O29 Si6 1.630258 1_555
O30 Si4 1.622823 1_555
O30 Si5 1.630258 1_555
O31 Si2 1.622823 1_555
O31 Si0 1.630258 1_555
O32 Si13 1.656873 1_555
O32 Si15 1.660288 1_555
O33 Si14 1.618957 1_555
O33 Si15 1.623275 1_565
O34 Si13 1.618957 1_555
O34 Si10 1.623275 1_545
O35 Si9 1.656873 1_655
O35 Si12 1.660288 1_555
O36 Si8 1.656873 1_455
O36 Si11 1.660288 1_555
O37 Si14 1.656873 1_555
O37 Si10 1.660288 1_555
O38 Si9 1.618957 1_555
O38 Si11 1.623275 1_555
O39 Si4 1.656873 1_565
O39 Si0 1.660288 1_555
