# generated using pymatgen
data_Nd4V3Fe25B2
_symmetry_space_group_name_H-M   'P 1'
_cell_length_a   8.84306026
_cell_length_b   8.84306026
_cell_length_c   12.21468400
_cell_angle_alpha   90.00000000
_cell_angle_beta   90.00000000
_cell_angle_gamma   89.97202290
_symmetry_Int_Tables_number   1
_chemical_formula_structural   Nd4V3Fe25B2
_chemical_formula_sum   'Nd8 V6 Fe50 B4'
_cell_volume   955.18469160
_cell_formula_units_Z   2
loop_
 _symmetry_equiv_pos_site_id
 _symmetry_equiv_pos_as_xyz
  1  'x, y, z'
loop_
 _atom_site_type_symbol
 _atom_site_label
 _atom_site_symmetry_multiplicity
 _atom_site_fract_x
 _atom_site_fract_y
 _atom_site_fract_z
 _atom_site_occupancy
  Nd  Nd0  1  0.23632400  0.76367600  0.49960500  1
  Nd  Nd1  1  0.76367600  0.23632400  0.49960500  1
  Nd  Nd2  1  0.26335400  0.26335400  0.99715000  1
  Nd  Nd3  1  0.73664600  0.73664600  0.99715000  1
  Nd  Nd4  1  0.64161800  0.64161800  0.50466600  1
  Nd  Nd5  1  0.35838200  0.35838200  0.50466600  1
  Nd  Nd6  1  0.85738800  0.14261200  0.00027000  1
  Nd  Nd7  1  0.14261200  0.85738800  0.00027000  1
  V  V0  1  0.68932400  0.68932400  0.24972900  1
  V  V1  1  0.31067600  0.31067600  0.24972900  1
  V  V2  1  0.50000000  0.50000000  0.12034700  1
  V  V3  1  0.00000000  0.00000000  0.62460300  1
  V  V4  1  0.50000000  0.50000000  0.87485200  1
  V  V5  1  0.00000000  0.00000000  0.37541500  1
  Fe  Fe0  1  0.39998500  0.60001500  0.29184200  1
  Fe  Fe1  1  0.60001500  0.39998500  0.29184200  1
  Fe  Fe2  1  0.09972900  0.09972900  0.79500000  1
  Fe  Fe3  1  0.90027100  0.90027100  0.79500000  1
  Fe  Fe4  1  0.59954800  0.40045200  0.70518800  1
  Fe  Fe5  1  0.40045200  0.59954800  0.70518800  1
  Fe  Fe6  1  0.90072300  0.90072300  0.20423900  1
  Fe  Fe7  1  0.09927700  0.09927700  0.20423900  1
  Fe  Fe8  1  0.13977000  0.53940400  0.32345300  1
  Fe  Fe9  1  0.86023000  0.46059600  0.32345300  1
  Fe  Fe10  1  0.36070500  0.03723700  0.82312400  1
  Fe  Fe11  1  0.63929500  0.96276300  0.82312400  1
  Fe  Fe12  1  0.86075900  0.46205000  0.67657100  1
  Fe  Fe13  1  0.13924100  0.53794900  0.67657100  1
  Fe  Fe14  1  0.63949400  0.96299000  0.17678900  1
  Fe  Fe15  1  0.36050600  0.03701000  0.17678900  1
  Fe  Fe16  1  0.53940400  0.13977000  0.32345300  1
  Fe  Fe17  1  0.46059600  0.86023000  0.32345300  1
  Fe  Fe18  1  0.03723700  0.36070500  0.82312400  1
  Fe  Fe19  1  0.96276300  0.63929500  0.82312400  1
  Fe  Fe20  1  0.46205000  0.86075900  0.67657100  1
  Fe  Fe21  1  0.53794900  0.13924100  0.67657100  1
  Fe  Fe22  1  0.96299000  0.63949400  0.17678900  1
  Fe  Fe23  1  0.03701000  0.36050600  0.17678900  1
  Fe  Fe24  1  0.93260200  0.72248500  0.37411400  1
  Fe  Fe25  1  0.06739800  0.27751500  0.37411400  1
  Fe  Fe26  1  0.56701700  0.22338600  0.87330900  1
  Fe  Fe27  1  0.43298300  0.77661400  0.87330900  1
  Fe  Fe28  1  0.06653800  0.27631200  0.62651300  1
  Fe  Fe29  1  0.93346200  0.72368800  0.62651300  1
  Fe  Fe30  1  0.43512900  0.77685900  0.12669300  1
  Fe  Fe31  1  0.56487100  0.22314100  0.12669300  1
  Fe  Fe32  1  0.72248500  0.93260200  0.37411400  1
  Fe  Fe33  1  0.27751500  0.06739800  0.37411400  1
  Fe  Fe34  1  0.22338600  0.56701700  0.87330900  1
  Fe  Fe35  1  0.77661400  0.43298300  0.87330900  1
  Fe  Fe36  1  0.27631200  0.06653800  0.62651300  1
  Fe  Fe37  1  0.72368800  0.93346200  0.62651300  1
  Fe  Fe38  1  0.77685900  0.43512900  0.12669300  1
  Fe  Fe39  1  0.22314100  0.56487100  0.12669300  1
  Fe  Fe40  1  0.00000000  0.50000000  0.49977800  1
  Fe  Fe41  1  0.50000000  0.00000000  0.00118800  1
  Fe  Fe42  1  0.50000000  0.00000000  0.49977800  1
  Fe  Fe43  1  0.00000000  0.50000000  0.00118800  1
  Fe  Fe44  1  0.18365600  0.81634400  0.25283900  1
  Fe  Fe45  1  0.81634400  0.18365600  0.25283900  1
  Fe  Fe46  1  0.31594900  0.31594900  0.75356800  1
  Fe  Fe47  1  0.68405100  0.68405100  0.75356800  1
  Fe  Fe48  1  0.81603500  0.18396500  0.74682500  1
  Fe  Fe49  1  0.18396500  0.81603500  0.74682500  1
  B  B0  1  0.87032900  0.87032900  0.49950800  1
  B  B1  1  0.12967100  0.12967100  0.49950800  1
  B  B2  1  0.63079300  0.36920700  0.99986400  1
  B  B3  1  0.36920700  0.63079300  0.99986400  1
loop_
_geom_bond_atom_site_label_1
_geom_bond_atom_site_label_2
_geom_bond_distance
_geom_bond_site_symmetry_2
Nd0 Nd5 3.743049 1_555
Nd0 Nd4 3.743049 1_555
Nd1 Nd5 3.743049 1_555
Nd1 Nd4 3.743049 1_555
Nd2 V1 3.141448 1_556
Nd3 V0 3.141448 1_556
Nd4 V0 3.170640 1_555
Nd4 Nd5 3.543007 1_555
Nd5 V1 3.170640 1_555
V0 V2 2.847137 1_555
V1 V2 2.847137 1_555
Fe0 Fe8 2.394289 1_555
Fe0 Fe17 2.394289 1_555
Fe0 V2 2.439612 1_555
Fe0 Fe1 2.500960 1_555
Fe0 Fe30 2.571367 1_555
Fe0 Fe39 2.571367 1_555
Fe0 V0 2.727078 1_555
Fe0 V1 2.727078 1_555
Fe0 Fe44 2.746381 1_555
Fe0 Nd0 3.259958 1_555
Fe0 Nd5 3.385222 1_555
Fe0 Nd4 3.385222 1_555
Fe1 Fe16 2.394289 1_555
Fe1 Fe9 2.394289 1_555
Fe1 V2 2.439612 1_555
Fe1 Fe38 2.571367 1_555
Fe1 Fe31 2.571367 1_555
Fe1 V0 2.727078 1_555
Fe1 V1 2.727078 1_555
Fe1 Fe45 2.746381 1_555
Fe1 Nd1 3.259958 1_555
Fe1 Nd5 3.385222 1_555
Fe1 Nd4 3.385222 1_555
Fe2 V3 2.426579 1_555
Fe2 Fe3 2.495026 1_445
Fe2 Fe28 2.599907 1_555
Fe2 Fe36 2.599907 1_555
Fe2 Fe49 2.681979 1_545
Fe2 Fe48 2.681979 1_455
Fe2 Fe46 2.751641 1_555
Fe2 Nd2 3.207225 1_555
Fe2 Nd6 3.319971 1_456
Fe2 Nd7 3.319971 1_546
Fe3 V3 2.426579 1_665
Fe3 Fe37 2.599907 1_555
Fe3 Fe49 2.681979 1_655
Fe3 Fe48 2.681979 1_565
Fe3 Fe47 2.751641 1_555
Fe3 Nd3 3.207225 1_555
Fe3 Nd7 3.319971 1_656
Fe3 Nd6 3.319971 1_566
Fe4 V4 2.417424 1_555
Fe4 Fe5 2.489282 1_555
Fe4 Fe46 2.683082 1_555
Fe4 Fe47 2.683082 1_555
Fe4 Fe48 2.754086 1_555
Fe4 Nd1 3.242963 1_555
Fe4 Nd5 3.269020 1_555
Fe4 Nd4 3.269020 1_555
Fe5 V4 2.417424 1_555
Fe5 Nd0 3.242963 1_555
Fe5 Nd5 3.269020 1_555
Fe5 Nd4 3.269020 1_555
Fe6 V5 2.431854 1_665
Fe6 Fe7 2.483718 1_665
Fe6 V0 2.702142 1_555
Fe6 Nd3 3.257458 1_554
Fe6 Nd6 3.305858 1_565
Fe6 Nd7 3.305858 1_655
Fe7 V5 2.431854 1_555
Fe7 V1 2.702142 1_555
Fe7 Nd2 3.257458 1_554
Fe7 Nd6 3.305858 1_455
Fe7 Nd7 3.305858 1_545
Fe8 Fe9 2.568674 1_455
Fe8 V1 2.680150 1_555
Fe8 Nd0 3.048529 1_555
Fe8 Nd5 3.346067 1_555
Fe9 V0 2.680150 1_555
Fe9 Nd1 3.048529 1_555
Fe9 Nd4 3.346067 1_555
Fe10 Fe2 2.397544 1_555
Fe10 Fe27 2.468706 1_545
Fe10 Fe41 2.521102 1_556
Fe10 Fe36 2.528102 1_555
Fe10 Fe26 2.533174 1_555
Fe10 Fe20 2.538061 1_545
Fe10 Fe21 2.544831 1_555
Fe10 Fe11 2.549786 1_545
Fe10 Fe46 2.636684 1_555
Fe10 Fe49 2.672193 1_545
Fe10 Nd2 3.042398 1_555
Fe10 Nd7 3.306646 1_546
Fe11 Fe3 2.397544 1_555
Fe11 Fe26 2.468706 1_565
Fe11 Fe41 2.521102 1_566
Fe11 Fe37 2.528102 1_555
Fe11 Fe27 2.533174 1_555
Fe11 Fe21 2.538064 1_565
Fe11 Fe20 2.544837 1_555
Fe11 Fe47 2.636684 1_555
Fe11 Fe48 2.672193 1_565
Fe11 Nd3 3.042398 1_555
Fe11 Nd6 3.306646 1_566
Fe12 Fe4 2.399122 1_555
Fe12 Fe29 2.478260 1_555
Fe12 Fe40 2.508482 1_655
Fe12 Fe28 2.525884 1_655
Fe12 Fe35 2.528793 1_555
Fe12 Fe18 2.538061 1_655
Fe12 Fe19 2.544837 1_555
Fe12 Fe13 2.552775 1_655
Fe12 Fe48 2.634585 1_555
Fe12 Fe47 2.679068 1_555
Fe12 Nd1 3.065226 1_555
Fe12 Nd4 3.268471 1_555
Fe13 Fe5 2.399124 1_555
Fe13 Fe28 2.478252 1_555
Fe13 Fe40 2.508481 1_555
Fe13 Fe29 2.525890 1_455
Fe13 Fe34 2.528794 1_555
Fe13 Fe19 2.538064 1_455
Fe13 Fe18 2.544831 1_555
Fe13 Fe49 2.634593 1_555
Fe13 Fe46 2.679061 1_555
Fe13 Nd0 3.065231 1_555
Fe13 Nd5 3.268466 1_555
Fe14 Fe6 2.398076 1_555
Fe14 Fe31 2.469990 1_565
Fe14 Fe41 2.495800 1_565
Fe14 Fe30 2.520428 1_555
Fe14 Fe32 2.533769 1_555
Fe14 Fe16 2.536769 1_565
Fe14 Fe15 2.552155 1_565
Fe14 Fe17 2.557189 1_555
Fe14 V0 2.616012 1_555
Fe14 Fe45 2.668233 1_565
Fe14 Nd3 3.091499 1_554
Fe14 Nd6 3.299644 1_565
Fe15 Fe7 2.398076 1_555
Fe15 Fe30 2.469990 1_545
Fe15 Fe41 2.495800 1_555
Fe15 Fe31 2.520428 1_555
Fe15 Fe33 2.533769 1_555
Fe15 Fe17 2.536769 1_545
Fe15 Fe16 2.557189 1_555
Fe15 V1 2.616012 1_555
Fe15 Fe44 2.668233 1_545
Fe15 Nd2 3.091499 1_554
Fe15 Nd7 3.299644 1_545
Fe16 Fe33 2.481401 1_555
Fe16 Fe42 2.507624 1_555
Fe16 Fe32 2.521388 1_545
Fe16 Fe31 2.523999 1_555
Fe16 Fe17 2.568674 1_545
Fe16 Fe45 2.625468 1_555
Fe16 V1 2.680150 1_555
Fe16 Nd1 3.048529 1_555
Fe16 Nd5 3.346067 1_555
Fe17 Fe32 2.481401 1_555
Fe17 Fe42 2.507624 1_565
Fe17 Fe33 2.521388 1_565
Fe17 Fe30 2.523999 1_555
Fe17 Fe44 2.625468 1_555
Fe17 V0 2.680150 1_555
Fe17 Nd0 3.048529 1_555
Fe17 Nd4 3.346067 1_555
Fe18 Fe2 2.397544 1_555
Fe18 Fe35 2.468706 1_455
Fe18 Fe43 2.521102 1_556
Fe18 Fe28 2.528102 1_555
Fe18 Fe34 2.533174 1_555
Fe18 Fe19 2.549786 1_455
Fe18 Fe46 2.636684 1_555
Fe18 Fe48 2.672193 1_455
Fe18 Nd2 3.042398 1_555
Fe18 Nd6 3.306646 1_456
Fe19 Fe3 2.397544 1_555
Fe19 Fe34 2.468706 1_655
Fe19 Fe43 2.521102 1_656
Fe19 Fe29 2.528102 1_555
Fe19 Fe35 2.533174 1_555
Fe19 Fe47 2.636684 1_555
Fe19 Fe49 2.672193 1_655
Fe19 Nd3 3.042398 1_555
Fe19 Nd7 3.306646 1_656
Fe20 Fe5 2.399122 1_555
Fe20 Fe37 2.478260 1_555
Fe20 Fe42 2.508482 1_565
Fe20 Fe36 2.525884 1_565
Fe20 Fe27 2.528793 1_555
Fe20 Fe21 2.552775 1_565
Fe20 Fe49 2.634585 1_555
Fe20 Fe47 2.679068 1_555
Fe20 Nd0 3.065226 1_555
Fe20 Nd4 3.268471 1_555
Fe21 Fe4 2.399124 1_555
Fe21 Fe36 2.478252 1_555
Fe21 Fe42 2.508481 1_555
Fe21 Fe37 2.525890 1_545
Fe21 Fe26 2.528794 1_555
Fe21 Fe48 2.634593 1_555
Fe21 Fe46 2.679061 1_555
Fe21 Nd1 3.065231 1_555
Fe21 Nd5 3.268466 1_555
Fe22 Fe6 2.398076 1_555
Fe22 Fe39 2.469990 1_655
Fe22 Fe43 2.495800 1_655
Fe22 Fe38 2.520428 1_555
Fe22 Fe24 2.533769 1_555
Fe22 Fe8 2.536769 1_655
Fe22 Fe23 2.552155 1_655
Fe22 Fe9 2.557189 1_555
Fe22 V0 2.616012 1_555
Fe22 Fe44 2.668233 1_655
Fe22 Nd3 3.091499 1_554
Fe22 Nd7 3.299644 1_655
Fe23 Fe7 2.398076 1_555
Fe23 Fe38 2.469990 1_455
Fe23 Fe43 2.495800 1_555
Fe23 Fe39 2.520428 1_555
Fe23 Fe25 2.533769 1_555
Fe23 Fe9 2.536769 1_455
Fe23 Fe8 2.557189 1_555
Fe23 V1 2.616012 1_555
Fe23 Fe45 2.668233 1_455
Fe23 Nd2 3.091499 1_554
Fe23 Nd6 3.299644 1_455
Fe24 Fe9 2.481401 1_555
Fe24 Fe8 2.521388 1_655
Fe24 Fe40 2.565344 1_655
Fe24 Fe6 2.620848 1_555
Fe24 V0 2.650121 1_555
Fe24 Fe44 2.795324 1_655
Fe24 Nd4 3.110851 1_555
Fe24 Nd0 3.113986 1_655
Fe25 Fe8 2.481401 1_555
Fe25 Fe9 2.521388 1_455
Fe25 Fe40 2.565344 1_555
Fe25 Fe7 2.620848 1_555
Fe25 V1 2.650121 1_555
Fe25 Fe45 2.795324 1_455
Fe25 Nd5 3.110851 1_555
Fe25 Nd1 3.113986 1_455
Fe26 V4 2.516671 1_555
Fe26 Fe41 2.587369 1_556
Fe26 Fe4 2.598459 1_555
Fe26 Fe48 2.712350 1_555
Fe26 Fe46 2.781503 1_555
Fe26 Nd2 3.102109 1_555
Fe27 V4 2.516671 1_555
Fe27 Fe41 2.587369 1_566
Fe27 Fe5 2.598459 1_555
Fe27 Fe49 2.712350 1_555
Fe27 Fe47 2.781503 1_555
Fe27 Nd3 3.102109 1_555
Fe28 V3 2.513678 1_555
Fe28 Fe40 2.579592 1_555
Fe28 Fe46 2.719669 1_555
Fe28 Fe48 2.781270 1_455
Fe28 Nd5 3.066618 1_555
Fe28 Nd1 3.114772 1_455
Fe29 V3 2.513678 1_665
Fe29 Fe40 2.579592 1_655
Fe29 Fe3 2.599907 1_555
Fe29 Fe47 2.719669 1_555
Fe29 Fe49 2.781270 1_655
Fe29 Nd4 3.066618 1_555
Fe29 Nd0 3.114772 1_655
Fe30 V2 2.515512 1_555
Fe30 Fe41 2.563982 1_565
Fe30 Fe44 2.727742 1_555
Fe30 V0 2.812281 1_555
Fe30 Nd3 3.120676 1_554
Fe31 V2 2.515512 1_555
Fe31 Fe41 2.563982 1_555
Fe31 Fe45 2.727742 1_555
Fe31 V1 2.812281 1_555
Fe31 Nd2 3.120676 1_554
Fe32 Fe42 2.565344 1_565
Fe32 Fe6 2.620848 1_555
Fe32 V0 2.650121 1_555
Fe32 Fe45 2.795324 1_565
Fe32 Nd4 3.110851 1_555
Fe32 Nd1 3.113986 1_565
Fe33 Fe42 2.565344 1_555
Fe33 Fe7 2.620848 1_555
Fe33 V1 2.650121 1_555
Fe33 Fe44 2.795324 1_545
Fe33 Nd5 3.110851 1_555
Fe33 Nd0 3.113986 1_545
Fe34 V4 2.516671 1_555
Fe34 Fe43 2.587369 1_556
Fe34 Fe5 2.598459 1_555
Fe34 Fe49 2.712350 1_555
Fe34 Fe46 2.781503 1_555
Fe34 Nd2 3.102109 1_555
Fe35 V4 2.516671 1_555
Fe35 Fe43 2.587369 1_656
Fe35 Fe4 2.598459 1_555
Fe35 Fe48 2.712350 1_555
Fe35 Fe47 2.781503 1_555
Fe35 Nd3 3.102109 1_555
Fe36 V3 2.513678 1_555
Fe36 Fe42 2.579592 1_555
Fe36 Fe46 2.719669 1_555
Fe36 Fe49 2.781270 1_545
Fe36 Nd5 3.066618 1_555
Fe36 Nd0 3.114772 1_545
Fe37 V3 2.513678 1_665
Fe37 Fe42 2.579592 1_565
Fe37 Fe47 2.719669 1_555
Fe37 Fe48 2.781270 1_565
Fe37 Nd4 3.066618 1_555
Fe37 Nd1 3.114772 1_565
Fe38 V2 2.515512 1_555
Fe38 Fe9 2.523999 1_555
Fe38 Fe43 2.563982 1_655
Fe38 Fe45 2.727742 1_555
Fe38 V0 2.812281 1_555
Fe38 Nd3 3.120676 1_554
Fe39 V2 2.515512 1_555
Fe39 Fe8 2.523999 1_555
Fe39 Fe43 2.563982 1_555
Fe39 Fe44 2.727742 1_555
Fe39 V1 2.812281 1_555
Fe39 Nd2 3.120676 1_554
Fe40 Fe8 2.507624 1_555
Fe40 Fe9 2.507624 1_455
Fe40 Nd0 3.131929 1_555
Fe40 Nd1 3.131929 1_455
Fe40 Nd5 3.407613 1_555
Fe40 Nd4 3.407613 1_455
Fe41 Nd2 3.130580 1_554
Fe41 Nd3 3.130580 1_544
Fe41 Nd6 3.403323 1_555
Fe41 Nd7 3.403323 1_545
Fe42 Nd1 3.131929 1_555
Fe42 Nd0 3.131929 1_545
Fe42 Nd4 3.407613 1_545
Fe42 Nd5 3.407613 1_555
Fe43 Nd2 3.130580 1_554
Fe43 Nd3 3.130580 1_454
Fe43 Nd7 3.403323 1_555
Fe43 Nd6 3.403323 1_455
Fe44 Fe8 2.625468 1_555
Fe44 Fe7 2.677185 1_565
Fe44 Fe6 2.677185 1_455
Fe44 V5 2.741239 1_565
Fe44 Nd0 3.085262 1_555
Fe44 Nd7 3.127440 1_555
Fe45 Fe9 2.625468 1_555
Fe45 Fe7 2.677185 1_655
Fe45 Fe6 2.677185 1_545
Fe45 V5 2.741239 1_655
Fe45 Nd1 3.085262 1_555
Fe45 Nd6 3.127440 1_555
Fe46 Fe5 2.683082 1_555
Fe46 V4 2.737748 1_555
Fe46 Nd2 3.047150 1_555
Fe46 Nd5 3.086247 1_555
Fe47 Fe5 2.683082 1_555
Fe47 V4 2.737748 1_555
Fe47 Nd3 3.047150 1_555
Fe47 Nd4 3.086247 1_555
Fe48 V3 2.742120 1_655
Fe48 Nd1 3.089859 1_555
Fe48 Nd6 3.138630 1_556
Fe49 V3 2.742120 1_565
Fe49 Fe5 2.754086 1_555
Fe49 Nd0 3.089859 1_555
Fe49 Nd7 3.138630 1_556
B0 Fe32 2.087528 1_555
B0 Fe24 2.087528 1_555
B0 Fe37 2.097419 1_555
B0 Fe29 2.097419 1_555
B0 V5 2.220043 1_665
B0 V3 2.228417 1_665
B0 Nd4 2.861646 1_555
B1 Fe33 2.087528 1_555
B1 Fe25 2.087528 1_555
B1 Fe36 2.097419 1_555
B1 Fe28 2.097419 1_555
B1 V5 2.220043 1_555
B1 V3 2.228417 1_555
B1 Nd5 2.861646 1_555
B2 Fe26 2.090738 1_555
B2 Fe35 2.090738 1_555
B2 Fe31 2.099745 1_556
B2 Fe38 2.099745 1_556
B2 V2 2.199995 1_556
B2 V4 2.237379 1_555
B2 Nd6 2.833104 1_556
B3 Fe34 2.090738 1_555
B3 Fe27 2.090738 1_555
B3 Fe39 2.099745 1_556
B3 Fe30 2.099745 1_556
B3 V2 2.199995 1_556
B3 V4 2.237379 1_555
B3 Nd7 2.833104 1_556
