# generated using pymatgen
data_UGa2Cu3
_symmetry_space_group_name_H-M   'P 1'
_cell_length_a   5.23992821
_cell_length_b   5.23992821
_cell_length_c   4.02344900
_cell_angle_alpha   90.00000000
_cell_angle_beta   90.00000000
_cell_angle_gamma   120.00000260
_symmetry_Int_Tables_number   1
_chemical_formula_structural   UGa2Cu3
_chemical_formula_sum   'U1 Ga2 Cu3'
_cell_volume   95.67088563
_cell_formula_units_Z   1
loop_
 _symmetry_equiv_pos_site_id
 _symmetry_equiv_pos_as_xyz
  1  'x, y, z'
loop_
 _atom_site_type_symbol
 _atom_site_label
 _atom_site_symmetry_multiplicity
 _atom_site_fract_x
 _atom_site_fract_y
 _atom_site_fract_z
 _atom_site_occupancy
  U  U0  1  0.00000000  0.00000000  0.00000000  1
  Ga  Ga0  1  0.66666700  0.33333300  0.00000000  1
  Ga  Ga1  1  0.33333300  0.66666700  0.00000000  1
  Cu  Cu0  1  0.50000000  0.50000000  0.50000000  1
  Cu  Cu1  1  0.50000000  0.00000000  0.50000000  1
  Cu  Cu2  1  0.00000000  0.50000000  0.50000000  1
loop_
_geom_bond_atom_site_label_1
_geom_bond_atom_site_label_2
_geom_bond_distance
_geom_bond_site_symmetry_2
Ga0 U0 3.025271 1_655
Ga0 U0 3.025275 1_555
Ga0 U0 3.025275 1_665
Ga1 U0 3.025271 1_565
Ga1 U0 3.025275 1_555
Ga1 U0 3.025275 1_665
Cu0 Ga0 2.516965 1_556
Cu0 Ga1 2.516965 1_556
Cu0 Ga0 2.516965 1_555
Cu0 Ga1 2.516965 1_555
Cu0 Cu2 2.619964 1_555
Cu0 Cu2 2.619964 1_655
Cu0 Cu1 2.619964 1_565
Cu0 Cu1 2.619964 1_555
Cu0 U0 3.303218 1_666
Cu0 U0 3.303218 1_555
Cu0 U0 3.303218 1_556
Cu0 U0 3.303218 1_665
Cu1 Ga1 2.516963 1_546
Cu1 Ga1 2.516963 1_545
Cu1 Ga0 2.516963 1_556
Cu1 Ga0 2.516963 1_555
Cu1 Cu2 2.619964 1_655
Cu1 Cu2 2.619964 1_545
Cu1 U0 3.303218 1_655
Cu1 U0 3.303218 1_555
Cu1 U0 3.303218 1_656
Cu1 U0 3.303218 1_556
Cu2 Ga1 2.516963 1_556
Cu2 Ga0 2.516963 1_455
Cu2 Ga0 2.516963 1_456
Cu2 Ga1 2.516963 1_555
Cu2 U0 3.303218 1_555
Cu2 U0 3.303218 1_566
Cu2 U0 3.303218 1_565
Cu2 U0 3.303218 1_556
