# generated using pymatgen
data_SbPC3Cl5O
_symmetry_space_group_name_H-M   'P 1'
_cell_length_a   15.55216500
_cell_length_b   8.05902900
_cell_length_c   10.00968200
_cell_angle_alpha   90.00000000
_cell_angle_beta   90.00000000
_cell_angle_gamma   90.00000000
_symmetry_Int_Tables_number   1
_chemical_formula_structural   SbPC3Cl5O
_chemical_formula_sum   'Sb4 P4 C12 Cl20 O4'
_cell_volume   1254.56698432
_cell_formula_units_Z   4
loop_
 _symmetry_equiv_pos_site_id
 _symmetry_equiv_pos_as_xyz
  1  'x, y, z'
loop_
 _atom_site_type_symbol
 _atom_site_label
 _atom_site_symmetry_multiplicity
 _atom_site_fract_x
 _atom_site_fract_y
 _atom_site_fract_z
 _atom_site_occupancy
  Sb  Sb0  1  0.34785000  0.75000000  0.59737500  1
  Sb  Sb1  1  0.84785000  0.75000000  0.90262500  1
  Sb  Sb2  1  0.65215000  0.25000000  0.40262500  1
  Sb  Sb3  1  0.15215000  0.25000000  0.09737500  1
  P  P0  1  0.43041400  0.75000000  0.26430900  1
  P  P1  1  0.93041400  0.75000000  0.23569100  1
  P  P2  1  0.56958600  0.25000000  0.73569100  1
  P  P3  1  0.06958600  0.25000000  0.76430900  1
  C  C0  1  0.97505700  0.75000000  0.39154100  1
  C  C1  1  0.47505700  0.75000000  0.10845900  1
  C  C2  1  0.02494300  0.25000000  0.60845900  1
  C  C3  1  0.52494300  0.25000000  0.89154100  1
  C  C4  1  0.38049900  0.83792100  0.11386700  1
  C  C5  1  0.88049900  0.66207900  0.38613300  1
  C  C6  1  0.61950100  0.33792100  0.88613300  1
  C  C7  1  0.11950100  0.16207900  0.61386700  1
  C  C8  1  0.61950100  0.16207900  0.88613300  1
  C  C9  1  0.11950100  0.33792100  0.61386700  1
  C  C10  1  0.38049900  0.66207900  0.11386700  1
  C  C11  1  0.88049900  0.83792100  0.38613300  1
  Cl  Cl0  1  0.24365700  0.75000000  0.42117600  1
  Cl  Cl1  1  0.74365700  0.75000000  0.07882400  1
  Cl  Cl2  1  0.75634300  0.25000000  0.57882400  1
  Cl  Cl3  1  0.25634300  0.25000000  0.92117600  1
  Cl  Cl4  1  0.48098000  0.75000000  0.71445300  1
  Cl  Cl5  1  0.98098000  0.75000000  0.78554700  1
  Cl  Cl6  1  0.51902000  0.25000000  0.28554700  1
  Cl  Cl7  1  0.01902000  0.25000000  0.21445300  1
  Cl  Cl8  1  0.25745000  0.75000000  0.78329000  1
  Cl  Cl9  1  0.75745000  0.75000000  0.71671000  1
  Cl  Cl10  1  0.74255000  0.25000000  0.21671000  1
  Cl  Cl11  1  0.24255000  0.25000000  0.28329000  1
  Cl  Cl12  1  0.35663300  0.04298000  0.57517600  1
  Cl  Cl13  1  0.85663300  0.45702000  0.92482400  1
  Cl  Cl14  1  0.64336700  0.54298000  0.42482400  1
  Cl  Cl15  1  0.14336700  0.95702000  0.07517600  1
  Cl  Cl16  1  0.64336700  0.95702000  0.42482400  1
  Cl  Cl17  1  0.14336700  0.54298000  0.07517600  1
  Cl  Cl18  1  0.35663300  0.45702000  0.57517600  1
  Cl  Cl19  1  0.85663300  0.04298000  0.92482400  1
  O  O0  1  0.44529000  0.75000000  0.41215300  1
  O  O1  1  0.94529000  0.75000000  0.08784700  1
  O  O2  1  0.55471000  0.25000000  0.58784700  1
  O  O3  1  0.05471000  0.25000000  0.91215300  1
loop_
_geom_bond_atom_site_label_1
_geom_bond_atom_site_label_2
_geom_bond_distance
_geom_bond_site_symmetry_2
C0 C11 1.633277 1_555
C0 C5 1.633277 1_555
C0 P1 1.707534 1_555
C1 C4 1.633277 1_555
C1 C10 1.633277 1_555
C1 P0 1.707534 1_555
C2 C9 1.633277 1_555
C2 C7 1.633277 1_555
C2 P3 1.707534 1_555
C3 C6 1.633277 1_555
C3 C8 1.633277 1_555
C3 P2 1.707534 1_555
C4 P0 1.836393 1_555
C5 P1 1.836393 1_555
C6 C8 1.417116 1_555
C6 P2 1.836393 1_555
C7 C9 1.417116 1_555
C7 P3 1.836393 1_555
C8 P2 1.836393 1_555
C9 P3 1.836393 1_555
C10 C4 1.417116 1_555
C10 P0 1.836393 1_555
C11 C5 1.417116 1_555
C11 P1 1.836393 1_555
Cl0 Sb0 2.395080 1_555
Cl1 Sb1 2.395080 1_554
Cl2 Sb2 2.395080 1_555
Cl3 Sb3 2.395080 1_556
Cl4 Sb0 2.379114 1_555
Cl5 Sb1 2.379114 1_555
Cl6 Sb2 2.379114 1_555
Cl7 Sb3 2.379114 1_555
Cl8 Sb0 2.332324 1_555
Cl9 Sb1 2.332324 1_555
Cl10 Sb2 2.332324 1_555
Cl11 Sb3 2.332324 1_555
Cl12 Sb0 2.375498 1_545
Cl13 Sb1 2.375498 1_555
Cl14 Sb2 2.375498 1_555
Cl15 Sb3 2.375498 1_565
Cl16 Sb2 2.375498 1_565
Cl17 Sb3 2.375498 1_555
Cl18 Sb0 2.375498 1_555
Cl19 Sb1 2.375498 1_545
O0 P0 1.497846 1_555
O0 Sb0 2.394538 1_555
O1 P1 1.497846 1_555
O1 Sb1 2.394538 1_554
O2 P2 1.497846 1_555
O2 Sb2 2.394538 1_555
O3 P3 1.497846 1_555
O3 Sb3 2.394538 1_556
