# generated using pymatgen
data_Np(GePd)2
_symmetry_space_group_name_H-M   'P 1'
_cell_length_a   4.20304200
_cell_length_b   4.20304200
_cell_length_c   6.06182766
_cell_angle_alpha   110.28444936
_cell_angle_beta   110.28444936
_cell_angle_gamma   90.00000000
_symmetry_Int_Tables_number   1
_chemical_formula_structural   Np(GePd)2
_chemical_formula_sum   'Np1 Ge2 Pd2'
_cell_volume   93.33198703
_cell_formula_units_Z   1
loop_
 _symmetry_equiv_pos_site_id
 _symmetry_equiv_pos_as_xyz
  1  'x, y, z'
loop_
 _atom_site_type_symbol
 _atom_site_label
 _atom_site_symmetry_multiplicity
 _atom_site_fract_x
 _atom_site_fract_y
 _atom_site_fract_z
 _atom_site_occupancy
  Np  Np0  1  0.00000000  0.00000000  0.00000000  1
  Ge  Ge0  1  0.61593700  0.61593700  0.23187400  1
  Ge  Ge1  1  0.38406300  0.38406300  0.76812600  1
  Pd  Pd0  1  0.25000000  0.75000000  0.50000000  1
  Pd  Pd1  1  0.75000000  0.25000000  0.50000000  1
loop_
_geom_bond_atom_site_label_1
_geom_bond_atom_site_label_2
_geom_bond_distance
_geom_bond_site_symmetry_2
Np0 Pd1 3.375594 1_455
Np0 Pd1 3.375594 1_444
Np0 Pd1 3.375594 1_454
Np0 Pd0 3.375594 1_555
Np0 Pd0 3.375594 1_444
Np0 Pd0 3.375594 1_545
Np0 Pd1 3.375594 1_555
Np0 Pd0 3.375594 1_544
Ge0 Ge1 2.450107 1_554
Ge0 Pd0 2.534383 1_555
Ge0 Pd0 2.534383 1_655
Ge0 Pd1 2.534383 1_565
Ge0 Pd1 2.534383 1_555
Ge0 Np0 3.214582 1_665
Ge0 Np0 3.214582 1_565
Ge0 Np0 3.214582 1_555
Ge0 Np0 3.214582 1_655
Ge1 Pd1 2.534383 1_455
Ge1 Pd0 2.534383 1_555
Ge1 Pd0 2.534383 1_545
Ge1 Pd1 2.534383 1_555
Ge1 Np0 3.214582 1_566
Ge1 Np0 3.214582 1_556
Ge1 Np0 3.214582 1_656
Ge1 Np0 3.214582 1_666
