# generated using pymatgen
data_Sr8Fe7CoO20
_symmetry_space_group_name_H-M   'P 1'
_cell_length_a   11.10051847
_cell_length_b   11.47600644
_cell_length_c   17.75288087
_cell_angle_alpha   108.80937988
_cell_angle_beta   108.15318980
_cell_angle_gamma   90.22505001
_symmetry_Int_Tables_number   1
_chemical_formula_structural   Sr8Fe7CoO20
_chemical_formula_sum   'Sr32 Fe28 Co4 O80'
_cell_volume   2020.46347617
_cell_formula_units_Z   4
loop_
 _symmetry_equiv_pos_site_id
 _symmetry_equiv_pos_as_xyz
  1  'x, y, z'
loop_
 _atom_site_type_symbol
 _atom_site_label
 _atom_site_symmetry_multiplicity
 _atom_site_fract_x
 _atom_site_fract_y
 _atom_site_fract_z
 _atom_site_occupancy
  Sr  Sr0  1  0.30702900  0.06153100  0.10829500  1
  Sr  Sr1  1  0.30637100  0.06388300  0.60960900  1
  Sr  Sr2  1  0.30308600  0.56384300  0.10857300  1
  Sr  Sr3  1  0.30640200  0.56376900  0.60979000  1
  Sr  Sr4  1  0.80442300  0.06222500  0.10859000  1
  Sr  Sr5  1  0.80674200  0.06388500  0.60955500  1
  Sr  Sr6  1  0.80919300  0.56528100  0.10767800  1
  Sr  Sr7  1  0.80679700  0.56381800  0.60964700  1
  Sr  Sr8  1  0.19728100  0.43632800  0.39065400  1
  Sr  Sr9  1  0.19419900  0.43706100  0.89150500  1
  Sr  Sr10  1  0.19735200  0.93633200  0.39056600  1
  Sr  Sr11  1  0.19811500  0.93565600  0.89127500  1
  Sr  Sr12  1  0.69679600  0.43604200  0.39016800  1
  Sr  Sr13  1  0.70142000  0.43899000  0.89206200  1
  Sr  Sr14  1  0.69658100  0.93610600  0.39029100  1
  Sr  Sr15  1  0.69590100  0.93685600  0.89164900  1
  Sr  Sr16  1  0.05573700  0.29492600  0.10897600  1
  Sr  Sr17  1  0.05711000  0.29578700  0.60957300  1
  Sr  Sr18  1  0.05327000  0.79363500  0.10835900  1
  Sr  Sr19  1  0.05712600  0.79608600  0.60968900  1
  Sr  Sr20  1  0.55716200  0.29243300  0.10854400  1
  Sr  Sr21  1  0.55579000  0.29554200  0.60941800  1
  Sr  Sr22  1  0.55976500  0.79726400  0.10771400  1
  Sr  Sr23  1  0.55587900  0.79608200  0.60980000  1
  Sr  Sr24  1  0.44727700  0.20413300  0.39034600  1
  Sr  Sr25  1  0.44842100  0.20268800  0.89160600  1
  Sr  Sr26  1  0.44723700  0.70386100  0.39033500  1
  Sr  Sr27  1  0.45189300  0.70762600  0.89215800  1
  Sr  Sr28  1  0.94645600  0.20456100  0.39055700  1
  Sr  Sr29  1  0.94708600  0.20588200  0.89139700  1
  Sr  Sr30  1  0.94666400  0.70382500  0.39044500  1
  Sr  Sr31  1  0.94565300  0.70397500  0.89108000  1
  Fe  Fe0  1  0.00386200  0.99953600  0.49920500  1
  Fe  Fe1  1  0.00429300  0.50009700  0.50008500  1
  Fe  Fe2  1  0.50417100  0.99991500  0.49995600  1
  Fe  Fe3  1  0.50544100  0.50107400  0.99991400  1
  Fe  Fe4  1  0.50456600  0.50044800  0.50077600  1
  Fe  Fe5  1  0.25503200  0.25100100  0.00031900  1
  Fe  Fe6  1  0.25384600  0.24964000  0.49932000  1
  Fe  Fe7  1  0.25476600  0.75071800  0.00039900  1
  Fe  Fe8  1  0.25402200  0.74989000  0.49963900  1
  Fe  Fe9  1  0.75451600  0.24940900  0.99986000  1
  Fe  Fe10  1  0.75443000  0.25018100  0.50047300  1
  Fe  Fe11  1  0.75444000  0.75036800  0.50061000  1
  Fe  Fe12  1  0.10879600  0.09117300  0.25106100  1
  Fe  Fe13  1  0.10807900  0.09076500  0.75031700  1
  Fe  Fe14  1  0.10879800  0.59113000  0.25151100  1
  Fe  Fe15  1  0.10850100  0.59100800  0.75032600  1
  Fe  Fe16  1  0.60817900  0.09082800  0.25089500  1
  Fe  Fe17  1  0.60825100  0.09101500  0.75033900  1
  Fe  Fe18  1  0.60789800  0.59028700  0.24925700  1
  Fe  Fe19  1  0.60748900  0.58999300  0.74891400  1
  Fe  Fe20  1  0.35785800  0.40860700  0.24957500  1
  Fe  Fe21  1  0.35819300  0.40952800  0.75062600  1
  Fe  Fe22  1  0.35750900  0.90876700  0.24949500  1
  Fe  Fe23  1  0.35767600  0.90906600  0.74926600  1
  Fe  Fe24  1  0.85756900  0.40898100  0.24959100  1
  Fe  Fe25  1  0.85708000  0.40855700  0.74824100  1
  Fe  Fe26  1  0.85882800  0.91056000  0.25167900  1
  Fe  Fe27  1  0.85733600  0.90891100  0.74934300  1
  Co  Co0  1  0.00369300  0.99932000  0.99972100  1
  Co  Co1  1  0.00498800  0.50014700  0.00037100  1
  Co  Co2  1  0.50442300  0.99932100  0.99960500  1
  Co  Co3  1  0.75556200  0.75155900  0.00042600  1
  O  O0  1  0.12441700  0.12224300  0.49196200  1
  O  O1  1  0.12073500  0.11743500  0.99221100  1
  O  O2  1  0.12418500  0.62185700  0.49181800  1
  O  O3  1  0.12048300  0.61808100  0.99219200  1
  O  O4  1  0.62423200  0.12186300  0.49155100  1
  O  O5  1  0.62493800  0.12299000  0.99239000  1
  O  O6  1  0.62442500  0.62198000  0.49145400  1
  O  O7  1  0.62388500  0.62030100  0.99168800  1
  O  O8  1  0.13042600  0.37816100  0.00803300  1
  O  O9  1  0.13243300  0.37816800  0.50830300  1
  O  O10  1  0.13431400  0.87564500  0.00821200  1
  O  O11  1  0.13277500  0.87807100  0.50871100  1
  O  O12  1  0.63391000  0.37688200  0.00829000  1
  O  O13  1  0.63261000  0.37788200  0.50797500  1
  O  O14  1  0.63176000  0.88044000  0.00719000  1
  O  O15  1  0.63261400  0.87782800  0.50809200  1
  O  O16  1  0.37473500  0.11948900  0.49182000  1
  O  O17  1  0.37320900  0.12009000  0.99226300  1
  O  O18  1  0.37458900  0.61942600  0.49161300  1
  O  O19  1  0.37315700  0.62026200  0.99177300  1
  O  O20  1  0.87425600  0.11962500  0.49166500  1
  O  O21  1  0.87297100  0.12195000  0.99155900  1
  O  O22  1  0.87429300  0.61958900  0.49170300  1
  O  O23  1  0.87821100  0.61405500  0.99075400  1
  O  O24  1  0.38219900  0.37959600  0.00825300  1
  O  O25  1  0.38283900  0.38040500  0.50823300  1
  O  O26  1  0.38202000  0.87945800  0.00773500  1
  O  O27  1  0.38311400  0.88052100  0.50843600  1
  O  O28  1  0.88731600  0.38407600  0.00815400  1
  O  O29  1  0.88263100  0.38058600  0.50813500  1
  O  O30  1  0.88886500  0.88753100  0.00801800  1
  O  O31  1  0.88249400  0.88020100  0.50834500  1
  O  O32  1  0.08600300  0.10029400  0.14430800  1
  O  O33  1  0.08133000  0.09514800  0.64016600  1
  O  O34  1  0.08641800  0.60120000  0.14590100  1
  O  O35  1  0.08095700  0.59474700  0.63964700  1
  O  O36  1  0.58368500  0.09785800  0.14413300  1
  O  O37  1  0.58142500  0.09461200  0.63984300  1
  O  O38  1  0.58148000  0.59578800  0.14033400  1
  O  O39  1  0.58001000  0.59351900  0.63800100  1
  O  O40  1  0.44134600  0.40491800  0.35986300  1
  O  O41  1  0.44086600  0.40326900  0.85939100  1
  O  O42  1  0.44114600  0.90503500  0.36008400  1
  O  O43  1  0.44008800  0.90306200  0.85612000  1
  O  O44  1  0.94124600  0.40537500  0.36012900  1
  O  O45  1  0.94040300  0.39789300  0.85361000  1
  O  O46  1  0.94229400  0.90662100  0.36226500  1
  O  O47  1  0.94200400  0.90077300  0.85635600  1
  O  O48  1  0.33018900  0.29493500  0.13950500  1
  O  O49  1  0.33111100  0.29525200  0.63995700  1
  O  O50  1  0.33182400  0.79563700  0.14004500  1
  O  O51  1  0.33095000  0.79428600  0.63902800  1
  O  O52  1  0.83191600  0.29481400  0.14050600  1
  O  O53  1  0.83004300  0.29446900  0.63763300  1
  O  O54  1  0.83589400  0.79660500  0.14465500  1
  O  O55  1  0.82984200  0.79479500  0.63839100  1
  O  O56  1  0.19215800  0.20536000  0.36210800  1
  O  O57  1  0.19091400  0.20377600  0.86057200  1
  O  O58  1  0.19192100  0.70553300  0.36212600  1
  O  O59  1  0.19145200  0.70400500  0.85966700  1
  O  O60  1  0.69174600  0.20579600  0.36107000  1
  O  O61  1  0.69136200  0.20500000  0.85976400  1
  O  O62  1  0.69122900  0.70470400  0.35988300  1
  O  O63  1  0.69155600  0.70525000  0.85546800  1
  O  O64  1  0.43465000  0.06050900  0.25048100  1
  O  O65  1  0.43509100  0.06098600  0.74941700  1
  O  O66  1  0.43538400  0.56001800  0.25000900  1
  O  O67  1  0.43473900  0.56059200  0.75001600  1
  O  O68  1  0.93549700  0.06153600  0.25076900  1
  O  O69  1  0.93501500  0.06016100  0.74938200  1
  O  O70  1  0.93493300  0.56004600  0.25020200  1
  O  O71  1  0.93559800  0.56082000  0.74965200  1
  O  O72  1  0.18620800  0.43962600  0.25059700  1
  O  O73  1  0.18498900  0.43960700  0.74979400  1
  O  O74  1  0.18544000  0.93965800  0.25039300  1
  O  O75  1  0.18465500  0.93980100  0.74965800  1
  O  O76  1  0.68501100  0.43939000  0.24986400  1
  O  O77  1  0.68435500  0.43904200  0.74895200  1
  O  O78  1  0.68549900  0.93958700  0.25074900  1
  O  O79  1  0.68478100  0.93989400  0.74998500  1
loop_
_geom_bond_atom_site_label_1
_geom_bond_atom_site_label_2
_geom_bond_distance
_geom_bond_site_symmetry_2
Fe0 O31 1.995476 1_455
Fe0 O0 1.999886 1_565
Fe0 O20 2.000391 1_465
Fe0 O11 2.009024 1_555
Fe0 O46 2.191256 1_455
Fe0 O33 2.255396 1_565
Fe1 O29 1.989333 1_455
Fe1 O2 1.996140 1_555
Fe1 O22 1.999587 1_455
Fe1 O9 2.005107 1_555
Fe1 O35 2.232979 1_555
Fe1 O44 2.239119 1_455
Fe2 O27 1.987564 1_555
Fe2 O16 1.995565 1_565
Fe2 O4 2.000227 1_565
Fe2 O15 2.008628 1_555
Fe2 O42 2.238082 1_555
Fe2 O37 2.238085 1_565
Fe3 O7 1.963788 1_555
Fe3 O19 2.014707 1_555
Fe3 O24 2.020209 1_556
Fe3 O12 2.026712 1_556
Fe3 O38 2.245584 1_556
Fe3 O41 2.251867 1_555
Fe4 O25 1.988874 1_555
Fe4 O18 1.996226 1_555
Fe4 O6 2.003563 1_555
Fe4 O13 2.008345 1_555
Fe4 O39 2.195620 1_555
Fe4 O40 2.254765 1_555
Fe5 O24 1.978907 1_555
Fe5 O17 1.998047 1_554
Fe5 O8 2.016561 1_555
Fe5 O1 2.073321 1_554
Fe5 O48 2.228146 1_555
Fe5 O57 2.232686 1_554
Fe6 O0 1.990510 1_555
Fe6 O9 2.003823 1_555
Fe6 O25 2.004032 1_555
Fe6 O16 2.012021 1_555
Fe6 O56 2.195556 1_555
Fe6 O49 2.250019 1_555
Fe7 O10 1.965910 1_555
Fe7 O26 1.984950 1_555
Fe7 O19 1.996233 1_554
Fe7 O3 2.064923 1_554
Fe7 O50 2.234841 1_555
Fe7 O59 2.250014 1_554
Fe8 O2 1.995617 1_555
Fe8 O11 1.999777 1_555
Fe8 O27 2.004474 1_555
Fe8 O18 2.012493 1_555
Fe8 O58 2.200297 1_555
Fe8 O51 2.231388 1_555
Fe9 O21 1.971577 1_555
Fe9 O5 1.982925 1_555
Fe9 O12 1.988424 1_556
Fe9 O28 2.069612 1_556
Fe9 O61 2.242831 1_555
Fe9 O52 2.250520 1_556
Fe10 O4 1.993138 1_555
Fe10 O13 1.998993 1_555
Fe10 O29 2.003670 1_555
Fe10 O20 2.008151 1_555
Fe10 O53 2.194779 1_555
Fe10 O60 2.231502 1_555
Fe11 O6 1.990699 1_555
Fe11 O15 1.997050 1_555
Fe11 O31 1.997302 1_555
Fe11 O22 2.010287 1_555
Fe11 O55 2.204594 1_555
Fe11 O62 2.251459 1_555
Fe12 O32 1.869757 1_555
Fe12 O56 1.909921 1_555
Fe12 O74 1.937001 1_545
Fe12 O68 1.950351 1_455
Fe13 O57 1.894966 1_555
Fe13 O33 1.901684 1_555
Fe13 O75 1.931015 1_545
Fe13 O69 1.945590 1_455
Fe14 O34 1.854714 1_555
Fe14 O58 1.905319 1_555
Fe14 O72 1.940056 1_555
Fe14 O70 1.952935 1_455
Fe15 O59 1.884433 1_555
Fe15 O35 1.906874 1_555
Fe15 O73 1.935413 1_555
Fe15 O71 1.944664 1_455
Fe16 O36 1.857521 1_555
Fe16 O60 1.903321 1_555
Fe16 O78 1.938895 1_545
Fe16 O64 1.953424 1_555
Fe17 O61 1.889744 1_555
Fe17 O37 1.904381 1_555
Fe17 O79 1.933204 1_545
Fe17 O65 1.945585 1_555
Fe18 O38 1.885387 1_555
Fe18 O62 1.905876 1_555
Fe18 O76 1.936373 1_555
Fe18 O66 1.949806 1_555
Fe19 O63 1.864287 1_555
Fe19 O39 1.910226 1_555
Fe19 O77 1.934156 1_555
Fe19 O67 1.952952 1_555
Fe20 O48 1.895662 1_555
Fe20 O40 1.901909 1_555
Fe20 O66 1.932712 1_555
Fe20 O72 1.944304 1_555
Fe21 O41 1.887190 1_555
Fe21 O49 1.907261 1_555
Fe21 O67 1.932300 1_555
Fe21 O73 1.951096 1_555
Fe22 O50 1.888775 1_555
Fe22 O42 1.907089 1_555
Fe22 O64 1.930104 1_565
Fe22 O74 1.948047 1_555
Fe23 O43 1.855681 1_555
Fe23 O51 1.904188 1_555
Fe23 O65 1.939544 1_565
Fe23 O75 1.955841 1_555
Fe24 O52 1.888198 1_555
Fe24 O44 1.905847 1_555
Fe24 O70 1.927030 1_555
Fe24 O76 1.949571 1_555
Fe25 O45 1.854733 1_555
Fe25 O53 1.905757 1_555
Fe25 O71 1.939023 1_555
Fe25 O77 1.953519 1_555
Fe26 O54 1.865128 1_555
Fe26 O46 1.907575 1_555
Fe26 O68 1.934300 1_565
Fe26 O78 1.949862 1_555
Fe27 O47 1.871833 1_555
Fe27 O55 1.909674 1_555
Fe27 O69 1.934795 1_565
Fe27 O79 1.952394 1_555
Co0 O30 1.875696 1_456
Co0 O1 1.937460 1_565
Co0 O21 2.030678 1_465
Co0 O10 2.038980 1_556
Co0 O47 2.297277 1_455
Co0 O32 2.319164 1_566
Co1 O28 1.927974 1_455
Co1 O3 1.930170 1_554
Co1 O23 1.930560 1_454
Co1 O8 1.984236 1_555
Co1 O34 2.332669 1_555
Co1 O45 2.353129 1_454
Co2 O14 1.972917 1_556
Co2 O26 1.998667 1_556
Co2 O5 2.007322 1_565
Co2 O17 2.018267 1_565
Co2 O43 2.294483 1_555
Co2 O36 2.313152 1_566
Co3 O14 2.023575 1_555
Co3 O7 2.029855 1_554
Co3 O23 2.088295 1_554
Co3 O30 2.089172 1_555
Co3 O54 2.310537 1_555
Co3 O63 2.320680 1_554
O0 Sr10 2.625415 1_545
O0 Sr28 2.632683 1_455
O0 Sr1 2.678478 1_555
O0 Sr17 2.680750 1_555
O1 Sr11 2.619775 1_545
O1 Sr29 2.643134 1_455
O1 Sr0 2.672545 1_556
O1 Sr16 2.680906 1_556
O2 Sr8 2.621616 1_555
O2 Sr30 2.627394 1_455
O2 Sr3 2.682011 1_555
O2 Sr19 2.686077 1_555
O3 Sr9 2.590465 1_555
O3 Sr31 2.635414 1_455
O3 Sr2 2.644705 1_556
O3 Sr18 2.675812 1_556
O4 Sr14 2.619701 1_545
O4 Sr24 2.624346 1_555
O4 Sr5 2.683398 1_555
O4 Sr21 2.690985 1_555
O5 Sr25 2.600370 1_555
O5 Sr15 2.609496 1_545
O5 Sr20 2.644218 1_556
O5 Sr4 2.662487 1_556
O6 Sr12 2.621302 1_555
O6 Sr26 2.622269 1_555
O6 Sr7 2.685776 1_555
O6 Sr23 2.699309 1_555
O7 Sr13 2.605349 1_555
O7 Sr27 2.612708 1_555
O7 Sr6 2.660709 1_556
O7 Sr22 2.664790 1_556
O8 Sr2 2.604533 1_555
O8 Sr16 2.614298 1_555
O8 Sr29 2.653473 1_454
O8 Sr9 2.654816 1_554
O9 Sr3 2.614803 1_555
O9 Sr17 2.617555 1_555
O9 Sr8 2.675433 1_555
O9 Sr28 2.682149 1_455
O10 Sr0 2.604698 1_565
O10 Sr18 2.631539 1_555
O10 Sr11 2.668286 1_554
O10 Sr31 2.683919 1_454
O11 Sr1 2.612044 1_565
O11 Sr19 2.612165 1_555
O11 Sr10 2.682800 1_555
O11 Sr30 2.689288 1_455
O12 Sr20 2.623607 1_555
O12 Sr6 2.634652 1_555
O12 Sr25 2.677024 1_554
O12 Sr13 2.689765 1_554
O13 Sr7 2.618974 1_555
O13 Sr21 2.628931 1_555
O13 Sr12 2.674336 1_555
O13 Sr24 2.678584 1_555
O14 Sr4 2.581316 1_565
O14 Sr22 2.591473 1_555
O14 Sr15 2.626066 1_554
O14 Sr27 2.628036 1_554
O15 Sr5 2.618727 1_565
O15 Sr23 2.628730 1_555
O15 Sr14 2.673677 1_555
O15 Sr26 2.680748 1_555
O16 Sr10 2.617621 1_545
O16 Sr24 2.619812 1_555
O16 Sr21 2.667103 1_555
O16 Sr1 2.683518 1_555
O17 Sr25 2.608529 1_555
O17 Sr11 2.611747 1_545
O17 Sr20 2.655501 1_556
O17 Sr0 2.658236 1_556
O18 Sr8 2.615775 1_555
O18 Sr26 2.615865 1_555
O18 Sr23 2.675082 1_555
O18 Sr3 2.689277 1_555
O19 Sr9 2.624030 1_555
O19 Sr27 2.645008 1_555
O19 Sr2 2.681518 1_556
O19 Sr22 2.695862 1_556
O20 Sr28 2.613958 1_555
O20 Sr14 2.622172 1_545
O20 Sr17 2.679559 1_655
O20 Sr5 2.681026 1_555
O21 Sr29 2.603129 1_555
O21 Sr15 2.624261 1_545
O21 Sr16 2.658301 1_656
O21 Sr4 2.695296 1_556
O22 Sr30 2.612595 1_555
O22 Sr12 2.621855 1_555
O22 Sr19 2.681780 1_655
O22 Sr7 2.682001 1_555
O23 Sr13 2.552251 1_555
O23 Sr31 2.598715 1_555
O23 Sr6 2.635476 1_556
O23 Sr18 2.654855 1_656
O24 Sr20 2.636594 1_555
O24 Sr2 2.640971 1_555
O24 Sr25 2.683209 1_554
O24 Sr9 2.698661 1_554
O25 Sr21 2.618189 1_555
O25 Sr3 2.630459 1_555
O25 Sr24 2.682889 1_555
O25 Sr8 2.684551 1_555
O26 Sr0 2.603879 1_565
O26 Sr22 2.616311 1_555
O26 Sr27 2.663595 1_554
O26 Sr11 2.664237 1_554
O27 Sr23 2.616053 1_555
O27 Sr1 2.628685 1_565
O27 Sr26 2.685698 1_555
O27 Sr10 2.688290 1_555
O28 Sr6 2.607257 1_555
O28 Sr16 2.618466 1_655
O28 Sr29 2.655696 1_554
O28 Sr13 2.664700 1_554
O29 Sr7 2.625553 1_555
O29 Sr17 2.629208 1_655
O29 Sr28 2.674578 1_555
O29 Sr12 2.687774 1_555
O30 Sr4 2.614392 1_565
O30 Sr18 2.625331 1_655
O30 Sr31 2.674014 1_554
O30 Sr15 2.680055 1_554
O31 Sr19 2.624489 1_655
O31 Sr5 2.625260 1_565
O31 Sr30 2.682110 1_555
O31 Sr14 2.691715 1_555
O32 Sr16 2.504653 1_555
O32 Sr0 2.725604 1_555
O32 Sr4 2.989727 1_455
O33 Sr17 2.527686 1_555
O33 Sr1 2.718330 1_555
O33 Sr5 2.923748 1_455
O34 Sr18 2.501845 1_555
O34 Sr2 2.688051 1_555
O34 Sr6 2.934089 1_455
O35 Sr19 2.530041 1_555
O35 Sr3 2.717011 1_555
O35 Sr7 2.920799 1_455
O36 Sr20 2.504175 1_555
O36 Sr4 2.715560 1_555
O36 Sr0 2.934483 1_555
O37 Sr21 2.530274 1_555
O37 Sr5 2.718788 1_555
O37 Sr1 2.929686 1_555
O38 Sr22 2.553481 1_555
O38 Sr6 2.763566 1_555
O38 Sr2 2.962166 1_555
O39 Sr23 2.529434 1_555
O39 Sr7 2.718978 1_555
O39 Sr3 2.919877 1_555
O40 Sr24 2.527775 1_555
O40 Sr12 2.715755 1_555
O40 Sr8 2.927829 1_555
O41 Sr25 2.540325 1_555
O41 Sr13 2.768000 1_555
O41 Sr9 2.968379 1_555
O42 Sr26 2.530034 1_555
O42 Sr14 2.715848 1_555
O42 Sr10 2.922397 1_555
O43 Sr27 2.516368 1_555
O43 Sr15 2.707294 1_555
O43 Sr11 2.940421 1_555
O44 Sr28 2.527922 1_555
O44 Sr8 2.721348 1_655
O44 Sr12 2.925682 1_555
O45 Sr29 2.496894 1_555
O45 Sr9 2.684340 1_655
O45 Sr13 2.942209 1_555
O46 Sr30 2.530898 1_555
O46 Sr10 2.716684 1_655
O46 Sr14 2.923325 1_555
O47 Sr31 2.522934 1_555
O47 Sr11 2.712905 1_655
O47 Sr15 2.989198 1_555
O48 Sr0 2.548827 1_555
O48 Sr20 2.739383 1_555
O48 Sr16 2.923415 1_555
O49 Sr1 2.528902 1_555
O49 Sr21 2.712545 1_555
O49 Sr17 2.919250 1_555
O50 Sr2 2.532546 1_555
O50 Sr22 2.764689 1_555
O50 Sr18 2.963998 1_555
O51 Sr3 2.522429 1_555
O51 Sr23 2.705105 1_555
O51 Sr19 2.920914 1_555
O52 Sr4 2.539563 1_555
O52 Sr16 2.711682 1_655
O52 Sr20 2.921587 1_555
O53 Sr5 2.526138 1_555
O53 Sr17 2.718190 1_655
O53 Sr21 2.928002 1_555
O54 Sr6 2.512950 1_555
O54 Sr18 2.682198 1_655
O54 Sr22 2.928523 1_555
O55 Sr7 2.528462 1_555
O55 Sr19 2.725961 1_655
O55 Sr23 2.923983 1_555
O56 Sr8 2.529893 1_555
O56 Sr24 2.718769 1_555
O56 Sr28 2.924911 1_455
O57 Sr9 2.551258 1_555
O57 Sr25 2.738228 1_555
O57 Sr29 2.922454 1_455
O58 Sr10 2.528111 1_555
O58 Sr26 2.721348 1_555
O58 Sr30 2.919561 1_455
O59 Sr11 2.529475 1_555
O59 Sr27 2.763512 1_555
O59 Sr31 2.950245 1_455
O60 Sr12 2.520394 1_555
O60 Sr28 2.711333 1_555
O60 Sr24 2.918849 1_555
O61 Sr13 2.552805 1_555
O61 Sr29 2.715933 1_555
O61 Sr25 2.924354 1_555
O62 Sr14 2.530091 1_555
O62 Sr30 2.716515 1_555
O62 Sr26 2.922932 1_555
O63 Sr15 2.521546 1_555
O63 Sr31 2.692744 1_555
O63 Sr27 2.927718 1_555
O64 Sr24 2.458433 1_555
O64 Sr0 2.483886 1_555
O65 Sr1 2.459022 1_555
O65 Sr25 2.481251 1_555
O66 Sr26 2.467905 1_555
O66 Sr2 2.497421 1_555
O67 Sr3 2.465180 1_555
O67 Sr27 2.490686 1_555
O68 Sr28 2.459898 1_555
O68 Sr4 2.492513 1_555
O69 Sr5 2.461241 1_555
O69 Sr29 2.497967 1_555
O70 Sr30 2.466865 1_555
O70 Sr6 2.500369 1_555
O71 Sr7 2.462570 1_555
O71 Sr31 2.485840 1_555
O72 Sr8 2.463551 1_555
O72 Sr16 2.489205 1_555
O73 Sr17 2.462966 1_555
O73 Sr9 2.495517 1_555
O74 Sr10 2.463270 1_555
O74 Sr18 2.503896 1_555
O75 Sr19 2.458798 1_555
O75 Sr11 2.487657 1_555
O76 Sr12 2.466047 1_555
O76 Sr20 2.487321 1_555
O77 Sr21 2.456221 1_555
O77 Sr13 2.488312 1_555
O78 Sr14 2.455111 1_555
O78 Sr22 2.482522 1_555
O79 Sr23 2.465507 1_555
O79 Sr15 2.490890 1_555
