# generated using pymatgen
data_CaLaCrFeO6
_symmetry_space_group_name_H-M   'P 1'
_cell_length_a   5.52926900
_cell_length_b   5.50652593
_cell_length_c   7.71058333
_cell_angle_alpha   89.74754638
_cell_angle_beta   90.00043231
_cell_angle_gamma   89.99929438
_symmetry_Int_Tables_number   1
_chemical_formula_structural   CaLaCrFeO6
_chemical_formula_sum   'Ca2 La2 Cr2 Fe2 O12'
_cell_volume   234.76233842
_cell_formula_units_Z   2
loop_
 _symmetry_equiv_pos_site_id
 _symmetry_equiv_pos_as_xyz
  1  'x, y, z'
loop_
 _atom_site_type_symbol
 _atom_site_label
 _atom_site_symmetry_multiplicity
 _atom_site_fract_x
 _atom_site_fract_y
 _atom_site_fract_z
 _atom_site_occupancy
  Ca  Ca0  1  0.53750100  0.51139900  0.25040600  1
  Ca  Ca1  1  0.96250200  0.01139300  0.75039800  1
  La  La0  1  0.02842900  0.99135500  0.24851900  1
  La  La1  1  0.47157000  0.49135400  0.74852300  1
  Cr  Cr0  1  0.50049200  0.99977500  0.49894600  1
  Cr  Cr1  1  0.99951300  0.49978200  0.99893700  1
  Fe  Fe0  1  0.49971500  0.99943500  0.00009700  1
  Fe  Fe1  1  0.00028600  0.49944000  0.50009500  1
  O  O0  1  0.01356700  0.58075100  0.75688900  1
  O  O1  1  0.21621800  0.21651700  0.95577400  1
  O  O2  1  0.22396100  0.20813200  0.54243500  1
  O  O3  1  0.27603400  0.70814000  0.04243700  1
  O  O4  1  0.28378700  0.71652300  0.45577600  1
  O  O5  1  0.48642900  0.08074300  0.25689200  1
  O  O6  1  0.51710500  0.92705900  0.74386400  1
  O  O7  1  0.72050700  0.27905200  0.54169400  1
  O  O8  1  0.72726400  0.28651500  0.96137600  1
  O  O9  1  0.77273700  0.78652200  0.46137500  1
  O  O10  1  0.77948900  0.77905500  0.04169500  1
  O  O11  1  0.98289500  0.42705800  0.24387100  1
loop_
_geom_bond_atom_site_label_1
_geom_bond_atom_site_label_2
_geom_bond_distance
_geom_bond_site_symmetry_2
Ca0 O5 2.388481 1_555
Ca0 O4 2.401481 1_555
Ca0 O3 2.412428 1_555
Ca0 O11 2.506655 1_555
Ca0 O10 2.555682 1_555
Ca0 O9 2.579687 1_555
Ca0 O8 2.761399 1_554
Ca0 O7 2.771277 1_555
Ca1 O0 2.388394 1_645
Ca1 O1 2.401521 1_655
Ca1 O2 2.412396 1_655
Ca1 O6 2.506674 1_545
Ca1 O7 2.555646 1_555
Ca1 O8 2.579727 1_555
Ca1 O9 2.761326 1_545
Ca1 O10 2.771349 1_546
La0 O11 2.412490 1_465
La0 O10 2.412651 1_455
La0 O9 2.438943 1_455
La0 O5 2.580665 1_565
La0 O4 2.610806 1_555
La0 O3 2.617877 1_555
La0 O1 2.772347 1_564
La0 O2 2.784522 1_565
La1 O6 2.412509 1_555
La1 O7 2.412670 1_555
La1 O8 2.438919 1_555
La1 O0 2.580678 1_555
La1 O1 2.610809 1_555
La1 O2 2.617947 1_555
La1 O4 2.772340 1_555
La1 O3 2.784541 1_556
Cr0 O5 1.918557 1_565
Cr0 O6 1.930903 1_555
Cr0 O9 1.931787 1_555
Cr0 O2 1.941657 1_565
Cr0 O7 1.989484 1_565
Cr0 O4 1.995976 1_555
Cr1 O0 1.918513 1_655
Cr1 O11 1.931035 1_556
Cr1 O8 1.931858 1_555
Cr1 O3 1.941650 1_656
Cr1 O10 1.989491 1_556
Cr1 O1 1.996002 1_655
Fe0 O10 1.991252 1_555
Fe0 O1 1.999800 1_564
Fe0 O6 2.019513 1_554
Fe0 O5 2.033279 1_565
Fe0 O8 2.041328 1_564
Fe0 O3 2.050504 1_555
Fe1 O7 1.991329 1_455
Fe1 O4 1.999843 1_555
Fe1 O11 2.019451 1_455
Fe1 O0 2.033273 1_555
Fe1 O9 2.041309 1_455
Fe1 O2 2.050513 1_555
