# generated using pymatgen
data_KHfMg14O15
_symmetry_space_group_name_H-M   'P 1'
_cell_length_a   8.66891787
_cell_length_b   8.74881754
_cell_length_c   4.42313614
_cell_angle_alpha   90.00000000
_cell_angle_beta   90.00000000
_cell_angle_gamma   90.00000000
_symmetry_Int_Tables_number   1
_chemical_formula_structural   KHfMg14O15
_chemical_formula_sum   'K1 Hf1 Mg14 O15'
_cell_volume   335.46294433
_cell_formula_units_Z   1
loop_
 _symmetry_equiv_pos_site_id
 _symmetry_equiv_pos_as_xyz
  1  'x, y, z'
loop_
 _atom_site_type_symbol
 _atom_site_label
 _atom_site_symmetry_multiplicity
 _atom_site_fract_x
 _atom_site_fract_y
 _atom_site_fract_z
 _atom_site_occupancy
  K  K0  1  0.00054467  0.00000000  -0.00000000  1
  Hf  Hf0  1  0.00895120  0.50000000  -0.00000000  1
  Mg  Mg0  1  0.50074410  0.00000000  -0.00000000  1
  Mg  Mg1  1  0.50186075  0.50000000  -0.00000000  1
  Mg  Mg2  1  0.00048567  0.23870114  0.50000000  1
  Mg  Mg3  1  0.00048567  0.76129886  0.50000000  1
  Mg  Mg4  1  0.49935580  0.24825388  0.50000000  1
  Mg  Mg5  1  0.49935580  0.75174612  0.50000000  1
  Mg  Mg6  1  0.25395644  0.00000000  0.50000000  1
  Mg  Mg7  1  0.25342303  0.50000000  0.50000000  1
  Mg  Mg8  1  0.74670566  0.00000000  0.50000000  1
  Mg  Mg9  1  0.74444763  0.50000000  0.50000000  1
  Mg  Mg10  1  0.25945102  0.24061168  -0.00000000  1
  Mg  Mg11  1  0.25945102  0.75938832  0.00000000  1
  Mg  Mg12  1  0.74181157  0.24500075  -0.00000000  1
  Mg  Mg13  1  0.74181157  0.75499925  -0.00000000  1
  O  O0  1  0.27624507  0.00000000  -0.00000000  1
  O  O1  1  0.72489909  0.00000000  -0.00000000  1
  O  O2  1  0.74537898  0.50000000  -0.00000000  1
  O  O3  1  0.25000269  0.24324694  0.50000000  1
  O  O4  1  0.25000269  0.75675306  0.50000000  1
  O  O5  1  0.75031072  0.25032021  0.50000000  1
  O  O6  1  0.75031072  0.74967979  0.50000000  1
  O  O7  1  0.99793478  0.00000000  0.50000000  1
  O  O8  1  0.99451952  0.50000000  0.50000000  1
  O  O9  1  0.50123020  0.00000000  0.50000000  1
  O  O10  1  0.50062471  0.50000000  0.50000000  1
  O  O11  1  0.99771037  0.27060404  -0.00000000  1
  O  O12  1  0.99771037  0.72939596  -0.00000000  1
  O  O13  1  0.50013924  0.25729851  -0.00000000  1
  O  O14  1  0.50013924  0.74270149  -0.00000000  1
loop_
_geom_bond_atom_site_label_1
_geom_bond_atom_site_label_2
_geom_bond_distance
_geom_bond_site_symmetry_2
K0 O7 2.211684 1_455
K0 O7 2.211684 1_454
K0 O11 2.367593 1_455
K0 O12 2.367593 1_445
K0 O1 2.389549 1_455
K0 O0 2.390024 1_555
Hf0 O12 2.009308 1_455
Hf0 O11 2.009308 1_455
Hf0 O8 2.215104 1_455
Hf0 O8 2.215104 1_454
Hf0 O2 2.284886 1_455
Mg0 O1 1.943181 1_555
Mg0 O0 1.946164 1_555
Mg0 O9 2.211572 1_554
Mg0 O9 2.211572 1_555
Mg0 O13 2.251064 1_555
Mg0 O14 2.251064 1_545
Mg1 O2 2.111040 1_555
Mg1 O14 2.123403 1_555
Mg1 O13 2.123403 1_555
Mg1 O10 2.211594 1_555
Mg1 O10 2.211594 1_554
Mg2 O7 2.088470 1_455
Mg2 O3 2.163408 1_555
Mg2 O5 2.171127 1_455
Mg2 O11 2.229241 1_455
Mg2 O11 2.229241 1_456
Mg2 O8 2.286641 1_455
Mg3 O7 2.088470 1_465
Mg3 O4 2.163408 1_555
Mg3 O6 2.171127 1_455
Mg3 O12 2.229241 1_455
Mg3 O12 2.229241 1_456
Mg3 O8 2.286641 1_455
Mg4 O3 2.162065 1_555
Mg4 O9 2.171989 1_555
Mg4 O5 2.175583 1_555
Mg4 O10 2.202508 1_555
Mg4 O13 2.212994 1_556
Mg4 O13 2.212994 1_555
Mg5 O4 2.162065 1_555
Mg5 O9 2.171989 1_565
Mg5 O6 2.175583 1_555
Mg5 O10 2.202508 1_555
Mg5 O14 2.212994 1_556
Mg5 O14 2.212994 1_555
Mg6 O4 2.128399 1_545
Mg6 O3 2.128399 1_555
Mg6 O9 2.143596 1_555
Mg6 O7 2.219431 1_455
Mg6 O0 2.219992 1_556
Mg6 O0 2.219992 1_555
Mg7 O10 2.142971 1_555
Mg7 O8 2.244413 1_455
Mg7 O4 2.246481 1_555
Mg7 O3 2.246481 1_555
Mg8 O9 2.128007 1_555
Mg8 O7 2.177885 1_555
Mg8 O5 2.190229 1_555
Mg8 O6 2.190229 1_545
Mg8 O1 2.219633 1_556
Mg8 O1 2.219633 1_555
Mg9 O10 2.113681 1_555
Mg9 O8 2.167853 1_555
Mg9 O6 2.184994 1_555
Mg9 O5 2.184994 1_555
Mg9 O2 2.211583 1_555
Mg9 O2 2.211583 1_556
Mg10 O13 2.091608 1_555
Mg10 O0 2.110096 1_555
Mg10 O3 2.213204 1_555
Mg10 O3 2.213204 1_554
Mg10 O11 2.284130 1_455
Mg11 O14 2.091608 1_555
Mg11 O0 2.110096 1_565
Mg11 O4 2.213204 1_554
Mg11 O4 2.213204 1_555
Mg11 O12 2.284130 1_455
Mg12 O13 2.097798 1_555
Mg12 O1 2.148475 1_555
Mg12 O5 2.213284 1_554
Mg12 O5 2.213284 1_555
Mg12 O11 2.229646 1_555
Mg12 O2 2.231156 1_555
Mg13 O14 2.097798 1_555
Mg13 O1 2.148475 1_565
Mg13 O6 2.213284 1_554
Mg13 O6 2.213284 1_555
Mg13 O12 2.229646 1_555
Mg13 O2 2.231156 1_555
