# generated using pymatgen
data_Rb3Na
_symmetry_space_group_name_H-M   'P 1'
_cell_length_a   9.60008612
_cell_length_b   9.60008612
_cell_length_c   7.65744731
_cell_angle_alpha   90.00000000
_cell_angle_beta   90.00000000
_cell_angle_gamma   120.00000466
_symmetry_Int_Tables_number   1
_chemical_formula_structural   Rb3Na
_chemical_formula_sum   'Rb6 Na2'
_cell_volume   611.17402182
_cell_formula_units_Z   2
loop_
 _symmetry_equiv_pos_site_id
 _symmetry_equiv_pos_as_xyz
  1  'x, y, z'
loop_
 _atom_site_type_symbol
 _atom_site_label
 _atom_site_symmetry_multiplicity
 _atom_site_fract_x
 _atom_site_fract_y
 _atom_site_fract_z
 _atom_site_occupancy
  Rb  Rb0  1  0.82700016  0.17299984  0.75000000  1
  Rb  Rb1  1  0.34599968  0.17299984  0.75000000  1
  Rb  Rb2  1  0.82700016  0.65400032  0.75000000  1
  Rb  Rb3  1  0.17299984  0.82700016  0.25000000  1
  Rb  Rb4  1  0.65400032  0.82700016  0.25000000  1
  Rb  Rb5  1  0.17299984  0.34599968  0.25000000  1
  Na  Na0  1  0.66666700  0.33333300  0.25000000  1
  Na  Na1  1  0.33333300  0.66666700  0.75000000  1
loop_
_geom_bond_atom_site_label_1
_geom_bond_atom_site_label_2
_geom_bond_distance
_geom_bond_site_symmetry_2
Rb0 Rb1 4.617646 1_555
Rb0 Rb2 4.617646 1_555
Rb0 Rb4 4.788948 1_545
Rb0 Rb4 4.788948 1_546
Rb0 Rb5 4.788948 1_656
Rb0 Rb5 4.788948 1_655
Rb0 Rb1 4.982440 1_655
Rb0 Rb2 4.982440 1_545
Rb1 Rb2 4.617646 1_555
Rb1 Rb3 4.788948 1_545
Rb1 Rb3 4.788948 1_546
Rb1 Rb5 4.788949 1_555
Rb1 Rb5 4.788949 1_556
Rb1 Rb2 4.982440 1_445
Rb2 Rb3 4.788948 1_655
Rb2 Rb3 4.788948 1_656
Rb2 Rb4 4.788949 1_555
Rb2 Rb4 4.788949 1_556
Rb3 Rb4 4.617646 1_555
Rb3 Rb5 4.617646 1_555
Rb3 Rb5 4.982440 1_565
Rb3 Rb4 4.982440 1_455
Rb4 Rb5 4.617646 1_555
Rb4 Rb5 4.982440 1_665
Na0 Rb0 4.665474 1_554
Na0 Rb0 4.665474 1_555
Na0 Rb2 4.665479 1_555
Na0 Rb2 4.665479 1_554
Na0 Rb1 4.665479 1_555
Na0 Rb1 4.665479 1_554
Na1 Rb3 4.665474 1_556
Na1 Rb3 4.665474 1_555
Na1 Rb4 4.665479 1_555
Na1 Rb4 4.665479 1_556
Na1 Rb5 4.665479 1_555
Na1 Rb5 4.665479 1_556
