# generated using pymatgen
data_NaMg2(SO4)3
_symmetry_space_group_name_H-M   'P 1'
_cell_length_a   8.67528000
_cell_length_b   8.69148684
_cell_length_c   9.02971141
_cell_angle_alpha   61.27858598
_cell_angle_beta   61.29015841
_cell_angle_gamma   60.06166398
_symmetry_Int_Tables_number   1
_chemical_formula_structural   NaMg2(SO4)3
_chemical_formula_sum   'Na2 Mg4 S6 O24'
_cell_volume   490.80576840
_cell_formula_units_Z   2
loop_
 _symmetry_equiv_pos_site_id
 _symmetry_equiv_pos_as_xyz
  1  'x, y, z'
loop_
 _atom_site_type_symbol
 _atom_site_label
 _atom_site_symmetry_multiplicity
 _atom_site_fract_x
 _atom_site_fract_y
 _atom_site_fract_z
 _atom_site_occupancy
  Na  Na0  1  0.50000000  0.00000000  0.50000000  1
  Na  Na1  1  0.00000000  0.50000000  0.00000000  1
  Mg  Mg0  1  0.65139300  0.14761100  0.05227200  1
  Mg  Mg1  1  0.34860700  0.85238900  0.94772800  1
  Mg  Mg2  1  0.85127600  0.35238900  0.44772800  1
  Mg  Mg3  1  0.14872400  0.64761100  0.55227200  1
  S  S0  1  0.95159100  0.75000000  0.25000000  1
  S  S1  1  0.04840900  0.25000000  0.75000000  1
  S  S2  1  0.54074800  0.45592200  0.25127000  1
  S  S3  1  0.45925200  0.54407800  0.74873000  1
  S  S4  1  0.24794000  0.04407800  0.24873000  1
  S  S5  1  0.75206000  0.95592200  0.75127000  1
  O  O0  1  0.41101500  0.07158600  0.23574500  1
  O  O1  1  0.58898500  0.92841400  0.76425500  1
  O  O2  1  0.71834600  0.42841400  0.26425500  1
  O  O3  1  0.28165400  0.57158600  0.73574500  1
  O  O4  1  0.77180300  0.91195000  0.24252400  1
  O  O5  1  0.22819700  0.08805000  0.75747600  1
  O  O6  1  0.92627700  0.58805000  0.25747600  1
  O  O7  1  0.07372300  0.41195000  0.74252400  1
  O  O8  1  0.56822100  0.28109200  0.23389400  1
  O  O9  1  0.43177900  0.71890800  0.76610600  1
  O  O10  1  0.08320600  0.21890800  0.26610600  1
  O  O11  1  0.91679400  0.78109200  0.73389400  1
  O  O12  1  0.50746300  0.61650400  0.09219600  1
  O  O13  1  0.49253700  0.38349600  0.90780400  1
  O  O14  1  0.21616400  0.88349600  0.40780400  1
  O  O15  1  0.78383600  0.11650400  0.59219600  1
  O  O16  1  0.28113200  0.01759800  0.08541100  1
  O  O17  1  0.71886800  0.98240200  0.91458900  1
  O  O18  1  0.38414000  0.48240200  0.41458900  1
  O  O19  1  0.61586000  0.51759800  0.58541100  1
  O  O20  1  0.10599500  0.79111100  0.08742200  1
  O  O21  1  0.89400500  0.20888900  0.91257800  1
  O  O22  1  0.98452700  0.70888900  0.41257800  1
  O  O23  1  0.01547300  0.29111100  0.58742200  1
loop_
_geom_bond_atom_site_label_1
_geom_bond_atom_site_label_2
_geom_bond_distance
_geom_bond_site_symmetry_2
Na0 O5 2.488560 1_555
Na0 O4 2.488560 1_545
Na0 O8 2.554922 1_555
Na0 O9 2.554922 1_545
Na0 O1 2.557378 1_545
Na0 O0 2.557378 1_555
Na1 O6 2.488560 1_455
Na1 O7 2.488560 1_554
Na1 O10 2.554919 1_555
Na1 O11 2.554919 1_454
Na1 O3 2.557378 1_554
Na1 O2 2.557378 1_455
Mg0 O17 2.031681 1_544
Mg0 O13 2.034904 1_554
Mg0 O21 2.056008 1_554
Mg0 O8 2.100564 1_555
Mg0 O4 2.108168 1_545
Mg0 O0 2.129321 1_555
Mg1 O16 2.031681 1_566
Mg1 O12 2.034904 1_556
Mg1 O20 2.056008 1_556
Mg1 O9 2.100564 1_555
Mg1 O5 2.108168 1_565
Mg1 O1 2.129321 1_555
Mg2 O19 2.031678 1_555
Mg2 O15 2.034908 1_555
Mg2 O23 2.056015 1_655
Mg2 O10 2.100561 1_655
Mg2 O6 2.108168 1_555
Mg2 O2 2.129321 1_555
Mg3 O18 2.031678 1_555
Mg3 O14 2.034908 1_555
Mg3 O22 2.056015 1_455
Mg3 O11 2.100561 1_455
Mg3 O7 2.108168 1_555
Mg3 O3 2.129321 1_555
O0 S4 1.491189 1_555
O1 S5 1.491189 1_555
O2 S2 1.491189 1_555
O3 S3 1.491189 1_555
O4 S0 1.495678 1_555
O5 S1 1.495678 1_555
O6 S0 1.495678 1_555
O7 S1 1.495678 1_555
O8 S2 1.490682 1_555
O9 S3 1.490682 1_555
O10 S4 1.490685 1_555
O11 S5 1.490685 1_555
O12 S2 1.471056 1_555
O13 S3 1.471056 1_555
O14 S4 1.471055 1_565
O15 S5 1.471055 1_545
O16 S4 1.470637 1_555
O17 S5 1.470637 1_555
O18 S2 1.470640 1_555
O19 S3 1.470640 1_555
O20 S0 1.470167 1_455
O21 S1 1.470167 1_655
O22 S0 1.470162 1_555
O23 S1 1.470162 1_555
