# generated using pymatgen
data_Ca2Mg
_symmetry_space_group_name_H-M   'P 1'
_cell_length_a   13.41240182
_cell_length_b   13.41240182
_cell_length_c   18.55629957
_cell_angle_alpha   69.15642236
_cell_angle_beta   69.15642236
_cell_angle_gamma   33.42444941
_symmetry_Int_Tables_number   1
_chemical_formula_structural   Ca2Mg
_chemical_formula_sum   'Ca32 Mg16'
_cell_volume   1707.16781706
_cell_formula_units_Z   16
loop_
 _symmetry_equiv_pos_site_id
 _symmetry_equiv_pos_as_xyz
  1  'x, y, z'
loop_
 _atom_site_type_symbol
 _atom_site_label
 _atom_site_symmetry_multiplicity
 _atom_site_fract_x
 _atom_site_fract_y
 _atom_site_fract_z
 _atom_site_occupancy
  Ca  Ca0_0  1  0.08228979  0.08228979  0.44588167  1
  Ca  Ca0_1  1  0.08228979  0.08228979  0.94588167  1
  Ca  Ca0_2  1  0.08228979  0.58228979  0.44588167  1
  Ca  Ca0_3  1  0.08228979  0.58228979  0.94588167  1
  Ca  Ca0_4  1  0.58228979  0.08228979  0.44588167  1
  Ca  Ca0_5  1  0.58228979  0.08228979  0.94588167  1
  Ca  Ca0_6  1  0.58228979  0.58228979  0.44588167  1
  Ca  Ca0_7  1  0.58228979  0.58228979  0.94588167  1
  Ca  Ca1_0  1  0.24181387  0.24181387  0.35389935  1
  Ca  Ca1_1  1  0.24181387  0.24181387  0.85389935  1
  Ca  Ca1_2  1  0.24181387  0.74181387  0.35389935  1
  Ca  Ca1_3  1  0.24181387  0.74181387  0.85389935  1
  Ca  Ca1_4  1  0.74181387  0.24181388  0.35389935  1
  Ca  Ca1_5  1  0.74181387  0.24181387  0.85389935  1
  Ca  Ca1_6  1  0.74181387  0.74181387  0.35389935  1
  Ca  Ca1_7  1  0.74181387  0.74181387  0.85389936  1
  Ca  Ca2_0  1  0.25818612  0.25818612  0.14610065  1
  Ca  Ca2_1  1  0.25818612  0.25818612  0.64610064  1
  Ca  Ca2_2  1  0.25818612  0.75818612  0.14610065  1
  Ca  Ca2_3  1  0.25818612  0.75818612  0.64610064  1
  Ca  Ca2_4  1  0.75818612  0.25818613  0.14610065  1
  Ca  Ca2_5  1  0.75818612  0.25818612  0.64610064  1
  Ca  Ca2_6  1  0.75818613  0.75818613  0.14610065  1
  Ca  Ca2_7  1  0.75818613  0.75818613  0.64610064  1
  Ca  Ca3_0  1  0.41771021  0.41771021  0.05411833  1
  Ca  Ca3_1  1  0.41771021  0.41771021  0.55411833  1
  Ca  Ca3_2  1  0.41771021  0.91771021  0.05411833  1
  Ca  Ca3_3  1  0.41771021  0.91771021  0.55411833  1
  Ca  Ca3_4  1  0.91771021  0.41771021  0.05411833  1
  Ca  Ca3_5  1  0.91771021  0.41771021  0.55411833  1
  Ca  Ca3_6  1  0.91771021  0.91771021  0.05411833  1
  Ca  Ca3_7  1  0.91771021  0.91771021  0.55411833  1
  Mg  Mg0_0  1  0.40595683  0.40595683  0.28430103  1
  Mg  Mg0_1  1  0.40595682  0.40595682  0.78430103  1
  Mg  Mg0_2  1  0.40595682  0.90595682  0.28430103  1
  Mg  Mg0_3  1  0.40595682  0.90595682  0.78430103  1
  Mg  Mg0_4  1  0.90595682  0.40595683  0.28430103  1
  Mg  Mg0_5  1  0.90595683  0.40595683  0.78430103  1
  Mg  Mg0_6  1  0.90595682  0.90595682  0.28430103  1
  Mg  Mg0_7  1  0.90595683  0.90595683  0.78430103  1
  Mg  Mg1_0  1  0.09404317  0.09404317  0.21569896  1
  Mg  Mg1_1  1  0.09404317  0.09404317  0.71569896  1
  Mg  Mg1_2  1  0.09404317  0.59404317  0.21569896  1
  Mg  Mg1_3  1  0.09404317  0.59404317  0.71569896  1
  Mg  Mg1_4  1  0.59404317  0.09404318  0.21569896  1
  Mg  Mg1_5  1  0.59404317  0.09404317  0.71569896  1
  Mg  Mg1_6  1  0.59404317  0.59404317  0.21569896  1
  Mg  Mg1_7  1  0.59404318  0.59404318  0.71569896  1
loop_
_geom_bond_atom_site_label_1
_geom_bond_atom_site_label_2
_geom_bond_distance
_geom_bond_site_symmetry_2
Ca0_0 Mg0_2 3.474857 1_545
Ca0_0 Mg0_4 3.474857 1_455
Ca0_0 Ca1_0 3.809581 1_555
Ca0_0 Ca0_6 3.856936 1_455
Ca0_0 Ca0_6 3.856936 1_545
Ca0_0 Ca1_4 3.870857 1_455
Ca0_0 Ca1_2 3.870857 1_545
Ca0_0 Ca3_7 3.950026 1_445
Ca0_0 Ca3_3 3.980490 1_545
Ca0_0 Ca3_5 3.980490 1_455
Ca0_0 Ca2_5 3.986423 1_455
Ca0_0 Ca2_3 3.986423 1_545
Ca0_1 Mg0_3 3.474857 1_545
Ca0_1 Mg0_5 3.474857 1_455
Ca0_1 Ca1_1 3.809581 1_555
Ca0_1 Ca0_7 3.856936 1_455
Ca0_1 Ca0_7 3.856936 1_545
Ca0_1 Ca1_3 3.870857 1_545
Ca0_1 Ca1_5 3.870857 1_455
Ca0_1 Ca3_6 3.950026 1_446
Ca0_1 Ca3_4 3.980490 1_456
Ca0_1 Ca3_2 3.980490 1_546
Ca0_1 Ca2_4 3.986423 1_456
Ca0_1 Ca2_2 3.986423 1_546
Ca0_2 Mg0_6 3.474857 1_455
Ca0_2 Mg0_0 3.474857 1_555
Ca0_2 Ca1_2 3.809581 1_555
Ca0_2 Ca0_4 3.856936 1_555
Ca0_2 Ca0_4 3.856936 1_465
Ca0_2 Ca1_6 3.870857 1_455
Ca0_2 Ca1_0 3.870857 1_555
Ca0_2 Ca3_5 3.950026 1_455
Ca0_2 Ca3_1 3.980490 1_555
Ca0_2 Ca3_7 3.980490 1_455
Ca0_2 Ca2_7 3.986423 1_455
Ca0_2 Ca2_1 3.986423 1_555
Ca0_3 Mg0_1 3.474857 1_555
Ca0_3 Mg0_7 3.474857 1_455
Ca0_3 Ca1_3 3.809581 1_555
Ca0_3 Ca0_5 3.856936 1_555
Ca0_3 Ca0_5 3.856936 1_465
Ca0_3 Ca1_7 3.870857 1_455
Ca0_3 Ca1_1 3.870857 1_555
Ca0_3 Ca3_4 3.950026 1_456
Ca0_3 Ca3_6 3.980490 1_456
Ca0_3 Ca3_0 3.980490 1_556
Ca0_3 Ca2_6 3.986423 1_456
Ca0_3 Ca2_0 3.986423 1_556
Ca0_4 Mg0_6 3.474857 1_545
Ca0_4 Mg0_0 3.474857 1_555
Ca0_4 Ca1_4 3.809581 1_555
Ca0_4 Ca1_6 3.870857 1_545
Ca0_4 Ca1_0 3.870857 1_555
Ca0_4 Ca3_3 3.950026 1_545
Ca0_4 Ca3_1 3.980490 1_555
Ca0_4 Ca3_7 3.980490 1_545
Ca0_4 Ca2_7 3.986423 1_545
Ca0_4 Ca2_1 3.986423 1_555
Ca0_5 Mg0_1 3.474857 1_555
Ca0_5 Mg0_7 3.474857 1_545
Ca0_5 Ca1_5 3.809581 1_555
Ca0_5 Ca1_7 3.870857 1_545
Ca0_5 Ca1_1 3.870857 1_555
Ca0_5 Ca3_2 3.950026 1_546
Ca0_5 Ca3_0 3.980490 1_556
Ca0_5 Ca3_6 3.980490 1_546
Ca0_5 Ca2_0 3.986423 1_556
Ca0_5 Ca2_6 3.986423 1_546
Ca0_6 Mg0_4 3.474857 1_555
Ca0_6 Mg0_2 3.474857 1_555
Ca0_6 Ca1_6 3.809581 1_555
Ca0_6 Ca1_4 3.870857 1_555
Ca0_6 Ca1_2 3.870857 1_555
Ca0_6 Ca3_1 3.950026 1_555
Ca0_6 Ca3_3 3.980490 1_555
Ca0_6 Ca3_5 3.980490 1_555
Ca0_6 Ca2_5 3.986423 1_555
Ca0_6 Ca2_3 3.986423 1_555
Ca0_7 Mg0_3 3.474857 1_555
Ca0_7 Mg0_5 3.474857 1_555
Ca0_7 Ca1_7 3.809581 1_555
Ca0_7 Ca1_5 3.870857 1_555
Ca0_7 Ca1_3 3.870857 1_555
Ca0_7 Ca3_0 3.950026 1_556
Ca0_7 Ca3_2 3.980490 1_556
Ca0_7 Ca3_4 3.980490 1_556
Ca0_7 Ca2_2 3.986423 1_556
Ca0_7 Ca2_4 3.986423 1_556
Ca1_0 Mg1_2 3.491306 1_555
Ca1_0 Mg1_4 3.491306 1_555
Ca1_0 Mg0_4 3.516997 1_455
Ca1_0 Mg0_2 3.516997 1_545
Ca1_0 Ca2_0 3.720260 1_555
Ca1_0 Ca1_6 3.856936 1_455
Ca1_0 Ca1_6 3.856936 1_545
Ca1_0 Ca3_3 3.986423 1_545
Ca1_0 Ca3_5 3.986423 1_455
Ca1_1 Mg1_3 3.491306 1_555
Ca1_1 Mg1_5 3.491306 1_555
Ca1_1 Mg0_5 3.516997 1_455
Ca1_1 Mg0_3 3.516997 1_545
Ca1_1 Ca2_1 3.720260 1_555
Ca1_1 Ca1_7 3.856936 1_545
Ca1_1 Ca1_7 3.856936 1_455
Ca1_1 Ca3_2 3.986423 1_546
Ca1_1 Ca3_4 3.986423 1_456
Ca1_2 Mg1_0 3.491306 1_565
Ca1_2 Mg1_6 3.491306 1_555
Ca1_2 Mg0_0 3.516997 1_555
Ca1_2 Mg0_6 3.516997 1_455
Ca1_2 Ca2_2 3.720260 1_555
Ca1_2 Ca1_4 3.856936 1_555
Ca1_2 Ca1_4 3.856936 1_465
Ca1_2 Ca3_1 3.986423 1_555
Ca1_2 Ca3_7 3.986423 1_455
Ca1_3 Mg1_1 3.491306 1_565
Ca1_3 Mg1_7 3.491306 1_555
Ca1_3 Mg0_7 3.516997 1_455
Ca1_3 Mg0_1 3.516997 1_555
Ca1_3 Ca2_3 3.720260 1_555
Ca1_3 Ca1_5 3.856936 1_555
Ca1_3 Ca1_5 3.856936 1_465
Ca1_3 Ca3_0 3.986423 1_556
Ca1_3 Ca3_6 3.986423 1_456
Ca1_4 Mg1_6 3.491306 1_555
Ca1_4 Mg1_0 3.491306 1_655
Ca1_4 Mg0_0 3.516997 1_555
Ca1_4 Mg0_6 3.516997 1_545
Ca1_4 Ca2_4 3.720260 1_555
Ca1_4 Ca3_1 3.986423 1_555
Ca1_4 Ca3_7 3.986423 1_545
Ca1_5 Mg1_7 3.491306 1_555
Ca1_5 Mg1_1 3.491306 1_655
Ca1_5 Mg0_7 3.516997 1_545
Ca1_5 Mg0_1 3.516997 1_555
Ca1_5 Ca2_5 3.720260 1_555
Ca1_5 Ca3_0 3.986423 1_556
Ca1_5 Ca3_6 3.986423 1_546
Ca1_6 Mg1_2 3.491306 1_655
Ca1_6 Mg1_4 3.491306 1_565
Ca1_6 Mg0_4 3.516997 1_555
Ca1_6 Mg0_2 3.516997 1_555
Ca1_6 Ca2_6 3.720260 1_555
Ca1_6 Ca3_3 3.986423 1_555
Ca1_6 Ca3_5 3.986423 1_555
Ca1_7 Mg1_5 3.491306 1_565
Ca1_7 Mg1_3 3.491306 1_655
Ca1_7 Mg0_5 3.516997 1_555
Ca1_7 Mg0_3 3.516997 1_555
Ca1_7 Ca2_7 3.720260 1_555
Ca1_7 Ca3_4 3.986423 1_556
Ca1_7 Ca3_2 3.986423 1_556
Ca2_0 Mg0_4 3.491306 1_455
Ca2_0 Mg0_2 3.491306 1_545
Ca2_0 Mg1_2 3.516997 1_555
Ca2_0 Mg1_4 3.516997 1_555
Ca2_0 Ca3_0 3.809581 1_555
Ca2_0 Ca2_6 3.856936 1_455
Ca2_0 Ca2_6 3.856936 1_545
Ca2_0 Ca3_4 3.870857 1_455
Ca2_0 Ca3_2 3.870857 1_545
Ca2_1 Mg0_5 3.491306 1_455
Ca2_1 Mg0_3 3.491306 1_545
Ca2_1 Mg1_3 3.516997 1_555
Ca2_1 Mg1_5 3.516997 1_555
Ca2_1 Ca3_1 3.809581 1_555
Ca2_1 Ca2_7 3.856936 1_455
Ca2_1 Ca2_7 3.856936 1_545
Ca2_1 Ca3_5 3.870857 1_455
Ca2_1 Ca3_3 3.870857 1_545
Ca2_2 Mg0_0 3.491306 1_555
Ca2_2 Mg0_6 3.491306 1_455
Ca2_2 Mg1_6 3.516997 1_555
Ca2_2 Mg1_0 3.516997 1_565
Ca2_2 Ca3_2 3.809581 1_555
Ca2_2 Ca2_4 3.856936 1_555
Ca2_2 Ca2_4 3.856936 1_465
Ca2_2 Ca3_0 3.870857 1_555
Ca2_2 Ca3_6 3.870857 1_455
Ca2_3 Mg0_7 3.491306 1_455
Ca2_3 Mg0_1 3.491306 1_555
Ca2_3 Mg1_1 3.516997 1_565
Ca2_3 Mg1_7 3.516997 1_555
Ca2_3 Ca3_3 3.809581 1_555
Ca2_3 Ca2_5 3.856936 1_555
Ca2_3 Ca2_5 3.856936 1_465
Ca2_3 Ca3_7 3.870857 1_455
Ca2_3 Ca3_1 3.870857 1_555
Ca2_4 Mg0_0 3.491306 1_555
Ca2_4 Mg0_6 3.491306 1_545
Ca2_4 Mg1_6 3.516997 1_555
Ca2_4 Mg1_0 3.516997 1_655
Ca2_4 Ca3_4 3.809581 1_555
Ca2_4 Ca3_0 3.870857 1_555
Ca2_4 Ca3_6 3.870857 1_545
Ca2_5 Mg0_7 3.491306 1_545
Ca2_5 Mg0_1 3.491306 1_555
Ca2_5 Mg1_1 3.516997 1_655
Ca2_5 Mg1_7 3.516997 1_555
Ca2_5 Ca3_5 3.809581 1_555
Ca2_5 Ca3_7 3.870857 1_545
Ca2_5 Ca3_1 3.870857 1_555
Ca2_6 Mg0_4 3.491306 1_555
Ca2_6 Mg0_2 3.491306 1_555
Ca2_6 Mg1_2 3.516997 1_655
Ca2_6 Mg1_4 3.516997 1_565
Ca2_6 Ca3_6 3.809581 1_555
Ca2_6 Ca3_4 3.870857 1_555
Ca2_6 Ca3_2 3.870857 1_555
Ca2_7 Mg0_5 3.491306 1_555
Ca2_7 Mg0_3 3.491306 1_555
Ca2_7 Mg1_5 3.516997 1_565
Ca2_7 Mg1_3 3.516997 1_655
Ca2_7 Ca3_7 3.809581 1_555
Ca2_7 Ca3_5 3.870857 1_555
Ca2_7 Ca3_3 3.870857 1_555
Ca3_0 Mg1_4 3.474857 1_555
Ca3_0 Mg1_2 3.474857 1_555
Ca3_0 Ca3_6 3.856936 1_455
Ca3_0 Ca3_6 3.856936 1_545
Ca3_1 Mg1_5 3.474857 1_555
Ca3_1 Mg1_3 3.474857 1_555
Ca3_1 Ca3_7 3.856936 1_455
Ca3_1 Ca3_7 3.856936 1_545
Ca3_2 Mg1_0 3.474857 1_565
Ca3_2 Mg1_6 3.474857 1_555
Ca3_2 Ca3_4 3.856936 1_465
Ca3_2 Ca3_4 3.856936 1_555
Ca3_3 Mg1_1 3.474857 1_565
Ca3_3 Mg1_7 3.474857 1_555
Ca3_3 Ca3_5 3.856936 1_555
Ca3_3 Ca3_5 3.856936 1_465
Ca3_4 Mg1_0 3.474857 1_655
Ca3_4 Mg1_6 3.474857 1_555
Ca3_5 Mg1_1 3.474857 1_655
Ca3_5 Mg1_7 3.474857 1_555
Ca3_6 Mg1_2 3.474857 1_655
Ca3_6 Mg1_4 3.474857 1_565
Ca3_7 Mg1_5 3.474857 1_565
Ca3_7 Mg1_3 3.474857 1_655
Mg0_0 Mg1_4 3.061749 1_555
Mg0_0 Mg1_2 3.061749 1_555
Mg0_1 Mg1_5 3.061749 1_555
Mg0_1 Mg1_3 3.061749 1_555
Mg0_2 Mg1_0 3.061749 1_565
Mg0_2 Mg1_6 3.061749 1_555
Mg0_3 Mg1_7 3.061749 1_555
Mg0_3 Mg1_1 3.061749 1_565
Mg0_4 Mg1_0 3.061749 1_655
Mg0_4 Mg1_6 3.061749 1_555
Mg0_5 Mg1_7 3.061749 1_555
Mg0_5 Mg1_1 3.061749 1_655
Mg0_6 Mg1_4 3.061749 1_565
Mg0_6 Mg1_2 3.061749 1_655
Mg0_7 Mg1_5 3.061749 1_565
Mg0_7 Mg1_3 3.061749 1_655
