# generated using pymatgen
data_LiMg5
_symmetry_space_group_name_H-M   'P 1'
_cell_length_a   11.94460664
_cell_length_b   11.94460664
_cell_length_c   14.95821854
_cell_angle_alpha   75.97242062
_cell_angle_beta   75.97242062
_cell_angle_gamma   30.60463467
_symmetry_Int_Tables_number   1
_chemical_formula_structural   LiMg5
_chemical_formula_sum   'Li8 Mg40'
_cell_volume   1051.64929205
_cell_formula_units_Z   8
loop_
 _symmetry_equiv_pos_site_id
 _symmetry_equiv_pos_as_xyz
  1  'x, y, z'
loop_
 _atom_site_type_symbol
 _atom_site_label
 _atom_site_symmetry_multiplicity
 _atom_site_fract_x
 _atom_site_fract_y
 _atom_site_fract_z
 _atom_site_occupancy
  Li  Li0_0  1  0.30538241  0.30538241  0.13952611  1
  Li  Li0_1  1  0.30538241  0.30538241  0.63952611  1
  Li  Li0_2  1  0.30538241  0.80538241  0.13952611  1
  Li  Li0_3  1  0.30538241  0.80538241  0.63952611  1
  Li  Li0_4  1  0.80538241  0.30538241  0.13952611  1
  Li  Li0_5  1  0.80538241  0.30538241  0.63952611  1
  Li  Li0_6  1  0.80538241  0.80538241  0.13952611  1
  Li  Li0_7  1  0.80538241  0.80538241  0.63952611  1
  Mg  Mg0_0  1  0.00085658  0.00085658  0.00238254  1
  Mg  Mg0_1  1  0.00085658  0.00085658  0.50238254  1
  Mg  Mg0_2  1  0.00085658  0.50085658  0.00238254  1
  Mg  Mg0_3  1  0.00085658  0.50085658  0.50238254  1
  Mg  Mg0_4  1  0.50085658  0.00085658  0.00238254  1
  Mg  Mg0_5  1  0.50085658  0.00085658  0.50238254  1
  Mg  Mg0_6  1  0.50085658  0.50085658  0.00238254  1
  Mg  Mg0_7  1  0.50085658  0.50085658  0.50238254  1
  Mg  Mg1_0  1  0.16563944  0.16563944  0.16592392  1
  Mg  Mg1_1  1  0.16563944  0.16563944  0.66592392  1
  Mg  Mg1_2  1  0.16563944  0.66563944  0.16592392  1
  Mg  Mg1_3  1  0.16563944  0.66563944  0.66592392  1
  Mg  Mg1_4  1  0.66563944  0.16563944  0.16592392  1
  Mg  Mg1_5  1  0.66563944  0.16563944  0.66592392  1
  Mg  Mg1_6  1  0.66563944  0.66563944  0.16592392  1
  Mg  Mg1_7  1  0.66563944  0.66563944  0.66592392  1
  Mg  Mg2_0  1  0.47308146  0.47308146  0.30290530  1
  Mg  Mg2_1  1  0.47308146  0.47308146  0.80290530  1
  Mg  Mg2_2  1  0.47308146  0.97308146  0.30290530  1
  Mg  Mg2_3  1  0.47308146  0.97308146  0.80290530  1
  Mg  Mg2_4  1  0.97308146  0.47308146  0.30290530  1
  Mg  Mg2_5  1  0.97308146  0.47308146  0.80290530  1
  Mg  Mg2_6  1  0.97308146  0.97308146  0.30290530  1
  Mg  Mg2_7  1  0.97308146  0.97308146  0.80290530  1
  Mg  Mg3_0  1  0.33302865  0.33302866  0.33261507  1
  Mg  Mg3_1  1  0.33302865  0.33302865  0.83261507  1
  Mg  Mg3_2  1  0.33302866  0.83302866  0.33261507  1
  Mg  Mg3_3  1  0.33302866  0.83302866  0.83261507  1
  Mg  Mg3_4  1  0.83302865  0.33302866  0.33261507  1
  Mg  Mg3_5  1  0.83302865  0.33302865  0.83261507  1
  Mg  Mg3_6  1  0.83302866  0.83302866  0.33261507  1
  Mg  Mg3_7  1  0.83302866  0.83302866  0.83261507  1
  Mg  Mg4_0  1  0.13867846  0.13867846  0.47331406  1
  Mg  Mg4_1  1  0.13867846  0.13867846  0.97331406  1
  Mg  Mg4_2  1  0.13867846  0.63867845  0.47331406  1
  Mg  Mg4_3  1  0.13867846  0.63867845  0.97331406  1
  Mg  Mg4_4  1  0.63867845  0.13867845  0.47331406  1
  Mg  Mg4_5  1  0.63867845  0.13867845  0.97331406  1
  Mg  Mg4_6  1  0.63867846  0.63867846  0.47331405  1
  Mg  Mg4_7  1  0.63867845  0.63867845  0.97331406  1
loop_
_geom_bond_atom_site_label_1
_geom_bond_atom_site_label_2
_geom_bond_distance
_geom_bond_site_symmetry_2
Li0_0 Mg0_2 3.092986 1_555
Li0_0 Mg0_4 3.092986 1_555
Li0_0 Mg1_4 3.098210 1_555
Li0_0 Mg1_2 3.098210 1_555
Li0_0 Mg3_0 3.110086 1_555
Li0_0 Mg2_4 3.118297 1_455
Li0_0 Mg2_2 3.118297 1_545
Li0_0 Mg1_0 3.144082 1_555
Li0_0 Li0_6 3.152326 1_545
Li0_0 Li0_6 3.152326 1_455
Li0_0 Mg4_3 3.154543 1_554
Li0_0 Mg4_5 3.154543 1_554
Li0_1 Mg0_3 3.092986 1_555
Li0_1 Mg0_5 3.092986 1_555
Li0_1 Mg1_5 3.098210 1_555
Li0_1 Mg1_3 3.098210 1_555
Li0_1 Mg3_1 3.110086 1_555
Li0_1 Mg2_5 3.118297 1_455
Li0_1 Mg2_3 3.118297 1_545
Li0_1 Mg1_1 3.144082 1_555
Li0_1 Li0_7 3.152326 1_455
Li0_1 Li0_7 3.152326 1_545
Li0_1 Mg4_4 3.154543 1_555
Li0_1 Mg4_2 3.154543 1_555
Li0_2 Mg0_0 3.092986 1_565
Li0_2 Mg0_6 3.092986 1_555
Li0_2 Mg1_6 3.098210 1_555
Li0_2 Mg1_0 3.098210 1_565
Li0_2 Mg3_2 3.110086 1_555
Li0_2 Mg2_6 3.118297 1_455
Li0_2 Mg2_0 3.118297 1_555
Li0_2 Mg1_2 3.144082 1_555
Li0_2 Li0_4 3.152326 1_465
Li0_2 Li0_4 3.152326 1_555
Li0_2 Mg4_7 3.154543 1_554
Li0_2 Mg4_1 3.154543 1_564
Li0_3 Mg0_7 3.092986 1_555
Li0_3 Mg0_1 3.092986 1_565
Li0_3 Mg1_7 3.098210 1_555
Li0_3 Mg1_1 3.098210 1_565
Li0_3 Mg3_3 3.110086 1_555
Li0_3 Mg2_7 3.118297 1_455
Li0_3 Mg2_1 3.118297 1_555
Li0_3 Mg1_3 3.144082 1_555
Li0_3 Li0_5 3.152326 1_465
Li0_3 Li0_5 3.152326 1_555
Li0_3 Mg4_0 3.154543 1_565
Li0_3 Mg4_6 3.154543 1_555
Li0_4 Mg0_0 3.092986 1_655
Li0_4 Mg0_6 3.092986 1_555
Li0_4 Mg1_6 3.098210 1_555
Li0_4 Mg1_0 3.098210 1_655
Li0_4 Mg3_4 3.110086 1_555
Li0_4 Mg2_6 3.118297 1_545
Li0_4 Mg2_0 3.118297 1_555
Li0_4 Mg1_4 3.144082 1_555
Li0_4 Mg4_7 3.154543 1_554
Li0_4 Mg4_1 3.154543 1_654
Li0_5 Mg0_7 3.092986 1_555
Li0_5 Mg0_1 3.092986 1_655
Li0_5 Mg1_7 3.098210 1_555
Li0_5 Mg1_1 3.098210 1_655
Li0_5 Mg3_5 3.110086 1_555
Li0_5 Mg2_7 3.118297 1_545
Li0_5 Mg2_1 3.118297 1_555
Li0_5 Mg1_5 3.144082 1_555
Li0_5 Mg4_0 3.154543 1_655
Li0_5 Mg4_6 3.154543 1_555
Li0_6 Mg0_2 3.092986 1_655
Li0_6 Mg0_4 3.092986 1_565
Li0_6 Mg1_4 3.098210 1_565
Li0_6 Mg1_2 3.098210 1_655
Li0_6 Mg3_6 3.110086 1_555
Li0_6 Mg2_2 3.118297 1_555
Li0_6 Mg2_4 3.118297 1_555
Li0_6 Mg1_6 3.144082 1_555
Li0_6 Mg4_5 3.154543 1_564
Li0_6 Mg4_3 3.154543 1_654
Li0_7 Mg0_3 3.092986 1_655
Li0_7 Mg0_5 3.092986 1_565
Li0_7 Mg1_5 3.098210 1_565
Li0_7 Mg1_3 3.098210 1_655
Li0_7 Mg3_7 3.110086 1_555
Li0_7 Mg2_3 3.118297 1_555
Li0_7 Mg2_5 3.118297 1_555
Li0_7 Mg1_7 3.144082 1_555
Li0_7 Mg4_2 3.154543 1_655
Li0_7 Mg4_4 3.154543 1_565
Mg0_0 Mg4_1 3.095206 1_554
Mg0_0 Mg1_2 3.148029 1_545
Mg0_0 Mg1_4 3.148029 1_455
Mg0_0 Mg4_3 3.149542 1_544
Mg0_0 Mg4_5 3.149542 1_454
Mg0_0 Mg0_6 3.152326 1_455
Mg0_0 Mg0_6 3.152326 1_545
Mg0_0 Mg3_5 3.178274 1_454
Mg0_0 Mg3_3 3.178274 1_544
Mg0_0 Mg2_7 3.205089 1_444
Mg0_1 Mg4_0 3.095206 1_555
Mg0_1 Mg1_3 3.148029 1_545
Mg0_1 Mg1_5 3.148029 1_455
Mg0_1 Mg4_2 3.149542 1_545
Mg0_1 Mg4_4 3.149542 1_455
Mg0_1 Mg0_7 3.152326 1_545
Mg0_1 Mg0_7 3.152326 1_455
Mg0_1 Mg3_4 3.178274 1_455
Mg0_1 Mg3_2 3.178274 1_545
Mg0_1 Mg2_6 3.205089 1_445
Mg0_2 Mg4_3 3.095206 1_554
Mg0_2 Mg1_0 3.148029 1_555
Mg0_2 Mg1_6 3.148029 1_455
Mg0_2 Mg4_1 3.149542 1_554
Mg0_2 Mg4_7 3.149542 1_454
Mg0_2 Mg0_4 3.152326 1_555
Mg0_2 Mg0_4 3.152326 1_465
Mg0_2 Mg3_7 3.178274 1_454
Mg0_2 Mg3_1 3.178274 1_554
Mg0_2 Mg2_5 3.205089 1_454
Mg0_3 Mg4_2 3.095206 1_555
Mg0_3 Mg1_1 3.148029 1_555
Mg0_3 Mg1_7 3.148029 1_455
Mg0_3 Mg4_6 3.149542 1_455
Mg0_3 Mg4_0 3.149542 1_555
Mg0_3 Mg0_5 3.152326 1_555
Mg0_3 Mg0_5 3.152326 1_465
Mg0_3 Mg3_0 3.178274 1_555
Mg0_3 Mg3_6 3.178274 1_455
Mg0_3 Mg2_4 3.205089 1_455
Mg0_4 Mg4_5 3.095206 1_554
Mg0_4 Mg1_0 3.148029 1_555
Mg0_4 Mg1_6 3.148029 1_545
Mg0_4 Mg4_1 3.149542 1_554
Mg0_4 Mg4_7 3.149542 1_544
Mg0_4 Mg3_7 3.178274 1_544
Mg0_4 Mg3_1 3.178274 1_554
Mg0_4 Mg2_3 3.205089 1_544
Mg0_5 Mg4_4 3.095206 1_555
Mg0_5 Mg1_1 3.148029 1_555
Mg0_5 Mg1_7 3.148029 1_545
Mg0_5 Mg4_6 3.149542 1_545
Mg0_5 Mg4_0 3.149542 1_555
Mg0_5 Mg3_0 3.178274 1_555
Mg0_5 Mg3_6 3.178274 1_545
Mg0_5 Mg2_2 3.205089 1_545
Mg0_6 Mg4_7 3.095206 1_554
Mg0_6 Mg1_2 3.148029 1_555
Mg0_6 Mg1_4 3.148029 1_555
Mg0_6 Mg4_3 3.149542 1_554
Mg0_6 Mg4_5 3.149542 1_554
Mg0_6 Mg3_5 3.178274 1_554
Mg0_6 Mg3_3 3.178274 1_554
Mg0_6 Mg2_1 3.205089 1_554
Mg0_7 Mg4_6 3.095206 1_555
Mg0_7 Mg1_3 3.148029 1_555
Mg0_7 Mg1_5 3.148029 1_555
Mg0_7 Mg4_4 3.149542 1_555
Mg0_7 Mg4_2 3.149542 1_555
Mg0_7 Mg3_4 3.178274 1_555
Mg0_7 Mg3_2 3.178274 1_555
Mg0_7 Mg2_0 3.205089 1_555
Mg1_0 Mg4_1 3.096169 1_554
Mg1_0 Mg2_2 3.130119 1_545
Mg1_0 Mg2_4 3.130119 1_455
Mg1_0 Mg1_6 3.152326 1_455
Mg1_0 Mg1_6 3.152326 1_545
Mg1_0 Mg3_2 3.152672 1_545
Mg1_0 Mg3_4 3.152672 1_455
Mg1_1 Mg4_0 3.096169 1_555
Mg1_1 Mg2_5 3.130119 1_455
Mg1_1 Mg2_3 3.130119 1_545
Mg1_1 Mg1_7 3.152326 1_545
Mg1_1 Mg1_7 3.152326 1_455
Mg1_1 Mg3_3 3.152672 1_545
Mg1_1 Mg3_5 3.152672 1_455
Mg1_2 Mg4_3 3.096169 1_554
Mg1_2 Mg2_0 3.130119 1_555
Mg1_2 Mg2_6 3.130119 1_455
Mg1_2 Mg1_4 3.152326 1_555
Mg1_2 Mg1_4 3.152326 1_465
Mg1_2 Mg3_6 3.152672 1_455
Mg1_2 Mg3_0 3.152672 1_555
Mg1_3 Mg4_2 3.096169 1_555
Mg1_3 Mg2_1 3.130119 1_555
Mg1_3 Mg2_7 3.130119 1_455
Mg1_3 Mg1_5 3.152326 1_555
Mg1_3 Mg1_5 3.152326 1_465
Mg1_3 Mg3_1 3.152672 1_555
Mg1_3 Mg3_7 3.152672 1_455
Mg1_4 Mg4_5 3.096169 1_554
Mg1_4 Mg2_0 3.130119 1_555
Mg1_4 Mg2_6 3.130119 1_545
Mg1_4 Mg3_0 3.152672 1_555
Mg1_4 Mg3_6 3.152672 1_545
Mg1_5 Mg4_4 3.096169 1_555
Mg1_5 Mg2_1 3.130119 1_555
Mg1_5 Mg2_7 3.130119 1_545
Mg1_5 Mg3_1 3.152672 1_555
Mg1_5 Mg3_7 3.152672 1_545
Mg1_6 Mg4_7 3.096169 1_554
Mg1_6 Mg2_4 3.130119 1_555
Mg1_6 Mg2_2 3.130119 1_555
Mg1_6 Mg3_2 3.152672 1_555
Mg1_6 Mg3_4 3.152672 1_555
Mg1_7 Mg4_6 3.096169 1_555
Mg1_7 Mg2_3 3.130119 1_555
Mg1_7 Mg2_5 3.130119 1_555
Mg1_7 Mg3_3 3.152672 1_555
Mg1_7 Mg3_5 3.152672 1_555
Mg2_0 Mg3_4 3.109007 1_555
Mg2_0 Mg3_2 3.109007 1_555
Mg2_0 Mg3_0 3.145010 1_555
Mg2_0 Mg2_6 3.152326 1_545
Mg2_0 Mg2_6 3.152326 1_455
Mg2_0 Mg4_2 3.205083 1_555
Mg2_0 Mg4_4 3.205083 1_555
Mg2_1 Mg3_5 3.109007 1_555
Mg2_1 Mg3_3 3.109007 1_555
Mg2_1 Mg3_1 3.145010 1_555
Mg2_1 Mg2_7 3.152326 1_545
Mg2_1 Mg2_7 3.152326 1_455
Mg2_1 Mg4_3 3.205083 1_555
Mg2_1 Mg4_5 3.205083 1_555
Mg2_2 Mg3_6 3.109007 1_555
Mg2_2 Mg3_0 3.109007 1_565
Mg2_2 Mg3_2 3.145010 1_555
Mg2_2 Mg2_4 3.152326 1_555
Mg2_2 Mg2_4 3.152326 1_465
Mg2_2 Mg4_6 3.205083 1_555
Mg2_2 Mg4_0 3.205083 1_565
Mg2_3 Mg3_1 3.109007 1_565
Mg2_3 Mg3_7 3.109007 1_555
Mg2_3 Mg3_3 3.145010 1_555
Mg2_3 Mg2_5 3.152326 1_465
Mg2_3 Mg2_5 3.152326 1_555
Mg2_3 Mg4_1 3.205083 1_565
Mg2_3 Mg4_7 3.205083 1_555
Mg2_4 Mg3_0 3.109007 1_655
Mg2_4 Mg3_6 3.109007 1_555
Mg2_4 Mg3_4 3.145010 1_555
Mg2_4 Mg4_6 3.205083 1_555
Mg2_4 Mg4_0 3.205083 1_655
Mg2_5 Mg3_1 3.109007 1_655
Mg2_5 Mg3_7 3.109007 1_555
Mg2_5 Mg3_5 3.145010 1_555
Mg2_5 Mg4_1 3.205083 1_655
Mg2_5 Mg4_7 3.205083 1_555
Mg2_6 Mg3_4 3.109007 1_565
Mg2_6 Mg3_2 3.109007 1_655
Mg2_6 Mg3_6 3.145010 1_555
Mg2_6 Mg4_4 3.205083 1_565
Mg2_6 Mg4_2 3.205083 1_655
Mg2_7 Mg3_5 3.109007 1_565
Mg2_7 Mg3_3 3.109007 1_655
Mg2_7 Mg3_7 3.145010 1_555
Mg2_7 Mg4_5 3.205083 1_565
Mg2_7 Mg4_3 3.205083 1_655
Mg3_0 Mg4_4 3.148701 1_555
Mg3_0 Mg4_2 3.148701 1_555
Mg3_0 Mg3_6 3.152326 1_545
Mg3_0 Mg3_6 3.152326 1_455
Mg3_1 Mg4_5 3.148701 1_555
Mg3_1 Mg4_3 3.148701 1_555
Mg3_1 Mg3_7 3.152326 1_455
Mg3_1 Mg3_7 3.152326 1_545
Mg3_2 Mg4_0 3.148701 1_565
Mg3_2 Mg4_6 3.148701 1_555
Mg3_2 Mg3_4 3.152326 1_555
Mg3_2 Mg3_4 3.152326 1_465
Mg3_3 Mg4_7 3.148701 1_555
Mg3_3 Mg4_1 3.148701 1_565
Mg3_3 Mg3_5 3.152326 1_555
Mg3_3 Mg3_5 3.152326 1_465
Mg3_4 Mg4_0 3.148701 1_655
Mg3_4 Mg4_6 3.148701 1_555
Mg3_5 Mg4_7 3.148701 1_555
Mg3_5 Mg4_1 3.148701 1_655
Mg3_6 Mg4_4 3.148701 1_565
Mg3_6 Mg4_2 3.148701 1_655
Mg3_7 Mg4_5 3.148701 1_565
Mg3_7 Mg4_3 3.148701 1_655
Mg4_0 Mg4_6 3.152326 1_545
Mg4_0 Mg4_6 3.152326 1_455
Mg4_1 Mg4_7 3.152326 1_455
Mg4_1 Mg4_7 3.152326 1_545
Mg4_2 Mg4_4 3.152326 1_555
Mg4_2 Mg4_4 3.152326 1_465
Mg4_3 Mg4_5 3.152326 1_555
Mg4_3 Mg4_5 3.152326 1_465
