# generated using pymatgen
data_Te2MoWSeS
_symmetry_space_group_name_H-M   'P 1'
_cell_length_a   3.39472294
_cell_length_b   3.39472294
_cell_length_c   38.72364900
_cell_angle_alpha   90.00000000
_cell_angle_beta   90.00000000
_cell_angle_gamma   119.99997936
_symmetry_Int_Tables_number   1
_chemical_formula_structural   Te2MoWSeS
_chemical_formula_sum   'Te4 Mo2 W2 Se2 S2'
_cell_volume   386.46989353
_cell_formula_units_Z   2
loop_
 _symmetry_equiv_pos_site_id
 _symmetry_equiv_pos_as_xyz
  1  'x, y, z'
loop_
 _atom_site_type_symbol
 _atom_site_label
 _atom_site_symmetry_multiplicity
 _atom_site_fract_x
 _atom_site_fract_y
 _atom_site_fract_z
 _atom_site_occupancy
  Te  Te0  1  0.00000000  0.00000000  0.33018300  1
  Te  Te1  1  0.00000000  0.00000000  0.70619300  1
  Te  Te2  1  0.00000000  0.00000000  0.23344100  1
  Te  Te3  1  0.00000000  0.00000000  0.60887100  1
  Mo  Mo0  1  0.00000000  0.00000000  0.09390400  1
  Mo  Mo1  1  0.33333300  0.66666700  0.28180500  1
  W  W0  1  0.00000000  0.00000000  0.46965400  1
  W  W1  1  0.33333300  0.66666700  0.65753400  1
  Se  Se0  1  0.33333300  0.66666700  0.05130400  1
  Se  Se1  1  0.33333300  0.66666700  0.13652400  1
  S  S0  1  0.33333300  0.66666700  0.43077100  1
  S  S1  1  0.33333300  0.66666700  0.50856500  1
loop_
_geom_bond_atom_site_label_1
_geom_bond_atom_site_label_2
_geom_bond_distance
_geom_bond_site_symmetry_2
Te1 W1 2.718784 1_545
Te1 W1 2.718786 1_445
Te1 W1 2.718786 1_555
Te3 W1 2.718891 1_545
Te3 W1 2.718894 1_445
Te3 W1 2.718894 1_555
Mo0 Se0 2.561766 1_545
Mo0 Se0 2.561768 1_445
Mo0 Se0 2.561768 1_555
Mo0 Se1 2.562264 1_545
Mo0 Se1 2.562267 1_445
Mo0 Se1 2.562267 1_555
Mo1 Te2 2.710879 1_565
Mo1 Te2 2.710882 1_665
Mo1 Te2 2.710882 1_555
Mo1 Te0 2.711254 1_565
Mo1 Te0 2.711257 1_665
Mo1 Te0 2.711257 1_555
S0 W0 2.471534 1_565
S0 W0 2.471537 1_555
S0 W0 2.471537 1_665
S1 W0 2.472195 1_565
S1 W0 2.472197 1_665
S1 W0 2.472197 1_555
