# generated using pymatgen
data_FeN3Cl5
_symmetry_space_group_name_H-M   'P 1'
_cell_length_a   7.10757600
_cell_length_b   8.19412200
_cell_length_c   15.66675700
_cell_angle_alpha   90.00000000
_cell_angle_beta   90.00000000
_cell_angle_gamma   90.00000000
_symmetry_Int_Tables_number   1
_chemical_formula_structural   FeN3Cl5
_chemical_formula_sum   'Fe4 N12 Cl20'
_cell_volume   912.43733065
_cell_formula_units_Z   4
loop_
 _symmetry_equiv_pos_site_id
 _symmetry_equiv_pos_as_xyz
  1  'x, y, z'
loop_
 _atom_site_type_symbol
 _atom_site_label
 _atom_site_symmetry_multiplicity
 _atom_site_fract_x
 _atom_site_fract_y
 _atom_site_fract_z
 _atom_site_occupancy
  Fe  Fe0  1  0.86690500  0.75000000  0.42743900  1
  Fe  Fe1  1  0.63309500  0.75000000  0.92743900  1
  Fe  Fe2  1  0.13309500  0.25000000  0.57256100  1
  Fe  Fe3  1  0.36690500  0.25000000  0.07256100  1
  N  N0  1  0.98643600  0.75000000  0.50768800  1
  N  N1  1  0.51356400  0.75000000  0.00768800  1
  N  N2  1  0.01356400  0.25000000  0.49231200  1
  N  N3  1  0.48643600  0.25000000  0.99231200  1
  N  N4  1  0.78491600  0.92100700  0.16430300  1
  N  N5  1  0.71508400  0.57899300  0.66430300  1
  N  N6  1  0.21508400  0.42100700  0.83569700  1
  N  N7  1  0.28491600  0.07899300  0.33569700  1
  N  N8  1  0.21508400  0.07899300  0.83569700  1
  N  N9  1  0.28491600  0.42100700  0.33569700  1
  N  N10  1  0.78491600  0.57899300  0.16430300  1
  N  N11  1  0.71508400  0.92100700  0.66430300  1
  Cl  Cl0  1  0.71814500  0.75000000  0.18262200  1
  Cl  Cl1  1  0.78185500  0.75000000  0.68262200  1
  Cl  Cl2  1  0.28185500  0.25000000  0.81737800  1
  Cl  Cl3  1  0.21814500  0.25000000  0.31737800  1
  Cl  Cl4  1  0.80965400  0.49135600  0.39529700  1
  Cl  Cl5  1  0.69034600  0.00864400  0.89529700  1
  Cl  Cl6  1  0.19034600  0.99135600  0.60470300  1
  Cl  Cl7  1  0.30965400  0.50864400  0.10470300  1
  Cl  Cl8  1  0.19034600  0.50864400  0.60470300  1
  Cl  Cl9  1  0.30965400  0.99135600  0.10470300  1
  Cl  Cl10  1  0.80965400  0.00864400  0.39529700  1
  Cl  Cl11  1  0.69034600  0.49135600  0.89529700  1
  Cl  Cl12  1  0.58199100  0.75000000  0.47952700  1
  Cl  Cl13  1  0.91800900  0.75000000  0.97952700  1
  Cl  Cl14  1  0.41800900  0.25000000  0.52047300  1
  Cl  Cl15  1  0.08199100  0.25000000  0.02047300  1
  Cl  Cl16  1  0.07529300  0.75000000  0.32643700  1
  Cl  Cl17  1  0.42470700  0.75000000  0.82643700  1
  Cl  Cl18  1  0.92470700  0.25000000  0.67356300  1
  Cl  Cl19  1  0.57529300  0.25000000  0.17356300  1
loop_
_geom_bond_atom_site_label_1
_geom_bond_atom_site_label_2
_geom_bond_distance
_geom_bond_site_symmetry_2
Fe0 N0 1.517378 1_555
Fe1 N1 1.517378 1_556
Fe2 N2 1.517378 1_555
Fe3 N3 1.517378 1_554
Cl0 N4 1.507018 1_555
Cl0 N10 1.507018 1_555
Cl1 N11 1.507018 1_555
Cl1 N5 1.507018 1_555
Cl2 N6 1.507018 1_555
Cl2 N8 1.507018 1_555
Cl3 N9 1.507018 1_555
Cl3 N7 1.507018 1_555
Cl4 Fe0 2.216042 1_555
Cl5 Fe1 2.216042 1_545
Cl6 Fe2 2.216042 1_565
Cl7 Fe3 2.216042 1_555
Cl8 Fe2 2.216042 1_555
Cl9 Fe3 2.216042 1_565
Cl10 Fe0 2.216042 1_545
Cl11 Fe1 2.216042 1_555
Cl12 Fe0 2.183290 1_555
Cl13 Fe1 2.183290 1_555
Cl14 Fe2 2.183290 1_555
Cl15 Fe3 2.183290 1_555
Cl16 Fe0 2.167409 1_455
Cl17 Fe1 2.167409 1_555
Cl18 Fe2 2.167409 1_655
Cl19 Fe3 2.167409 1_555
