# generated using pymatgen
data_GaN
_symmetry_space_group_name_H-M   'P 1'
_cell_length_a   13.05497689
_cell_length_b   13.35866475
_cell_length_c   13.30047825
_cell_angle_alpha   79.02945107
_cell_angle_beta   83.86757256
_cell_angle_gamma   83.11349080
_symmetry_Int_Tables_number   1
_chemical_formula_structural   GaN
_chemical_formula_sum   'Ga50 N50'
_cell_volume   2252.33238996
_cell_formula_units_Z   50
loop_
 _symmetry_equiv_pos_site_id
 _symmetry_equiv_pos_as_xyz
  1  'x, y, z'
loop_
 _atom_site_type_symbol
 _atom_site_label
 _atom_site_symmetry_multiplicity
 _atom_site_fract_x
 _atom_site_fract_y
 _atom_site_fract_z
 _atom_site_occupancy
  Ga  Ga0  1  0.98107639  0.45069477  0.32379482  1
  Ga  Ga1  1  0.14519643  0.68032679  0.56263777  1
  Ga  Ga2  1  0.47673579  0.54768314  0.23789004  1
  Ga  Ga3  1  0.13856632  0.46381375  0.92762028  1
  Ga  Ga4  1  0.71416053  0.19837358  0.35162202  1
  Ga  Ga5  1  0.39932254  0.60994334  0.03752301  1
  Ga  Ga6  1  0.07652323  0.08573226  0.51249004  1
  Ga  Ga7  1  0.32910508  0.57894347  0.59004779  1
  Ga  Ga8  1  0.06489737  0.27723091  0.42682475  1
  Ga  Ga9  1  0.81020219  0.54226910  0.79854414  1
  Ga  Ga10  1  0.33792434  0.45918910  0.18131144  1
  Ga  Ga11  1  0.37460208  0.91300003  0.79084595  1
  Ga  Ga12  1  0.77222506  0.57347620  0.98416782  1
  Ga  Ga13  1  0.17479903  0.87319627  0.57164278  1
  Ga  Ga14  1  0.16901990  0.20578503  0.61758866  1
  Ga  Ga15  1  0.89406847  0.97338026  0.62724807  1
  Ga  Ga16  1  0.02047941  0.56977621  0.75955296  1
  Ga  Ga17  1  0.63864147  0.95728327  0.64833552  1
  Ga  Ga18  1  0.20340020  0.00663924  0.69149177  1
  Ga  Ga19  1  0.38443561  0.78430483  0.13484711  1
  Ga  Ga20  1  0.81975883  0.58969374  0.16458584  1
  Ga  Ga21  1  0.60378091  0.61019638  0.88157875  1
  Ga  Ga22  1  0.66222311  0.82290507  0.82872834  1
  Ga  Ga23  1  0.27037733  0.65364010  0.25418940  1
  Ga  Ga24  1  0.85602457  0.81223752  0.52554607  1
  Ga  Ga25  1  0.00845138  0.39410253  0.11556726  1
  Ga  Ga26  1  0.88345449  0.63070628  0.34670778  1
  Ga  Ga27  1  0.61489488  0.02795812  0.44726087  1
  Ga  Ga28  1  0.97382364  0.21711462  0.23332509  1
  Ga  Ga29  1  0.08241282  0.93854994  0.39565851  1
  Ga  Ga30  1  0.19850626  0.34066796  0.26524827  1
  Ga  Ga31  1  0.16666786  0.40474701  0.50783058  1
  Ga  Ga32  1  0.19599891  0.46300403  0.68974648  1
  Ga  Ga33  1  0.90434620  0.72409362  0.84473587  1
  Ga  Ga34  1  0.99321978  0.77010201  0.66322128  1
  Ga  Ga35  1  0.10388038  0.73309494  0.36946763  1
  Ga  Ga36  1  0.98923321  0.74539246  0.14067879  1
  Ga  Ga37  1  0.87239685  0.85099705  0.31893148  1
  Ga  Ga38  1  0.61398121  0.63142068  0.10820662  1
  Ga  Ga39  1  0.57422364  0.68509361  0.30550940  1
  Ga  Ga40  1  0.83285908  0.02211100  0.42080342  1
  Ga  Ga41  1  0.98179410  0.01187237  0.23008651  1
  Ga  Ga42  1  0.58986152  0.83693330  0.08294722  1
  Ga  Ga43  1  0.48495095  0.78951203  0.94227818  1
  Ga  Ga44  1  0.14789694  0.57474640  0.13069434  1
  Ga  Ga45  1  0.02617762  0.93881846  0.75302962  1
  Ga  Ga46  1  0.16064923  0.13728376  0.30084093  1
  Ga  Ga47  1  0.39529865  0.63184864  0.40204315  1
  Ga  Ga48  1  0.74111127  0.77262787  0.22164657  1
  Ga  Ga49  1  0.97693983  0.59396871  0.99823720  1
  N  N0  1  0.49196671  0.25564113  0.67083535  1
  N  N1  1  0.96594714  0.00742575  0.48418853  1
  N  N2  1  0.63505625  0.12742554  0.18351501  1
  N  N3  1  0.17627146  0.92927482  0.11523917  1
  N  N4  1  0.84643649  0.28221855  0.55468835  1
  N  N5  1  0.35712960  0.12368196  0.49502357  1
  N  N6  1  0.58799310  0.35688170  0.12436704  1
  N  N7  1  0.41952320  0.33785376  0.45432769  1
  N  N8  1  0.07029395  0.17119287  0.95137116  1
  N  N9  1  0.96397629  0.45928299  0.57520384  1
  N  N10  1  0.37362008  0.11447120  0.41283683  1
  N  N11  1  0.42404605  0.22963460  0.72303193  1
  N  N12  1  0.65137161  0.41312670  0.47951690  1
  N  N13  1  0.64212926  0.04180390  0.19781572  1
  N  N14  1  0.80240694  0.21825314  0.54553920  1
  N  N15  1  0.41748140  0.63754345  0.68494975  1
  N  N16  1  0.26750799  0.92285096  0.10421572  1
  N  N17  1  0.70713295  0.19996801  0.77679872  1
  N  N18  1  0.21035076  0.69959112  0.86902071  1
  N  N19  1  0.82465098  0.27062068  0.99361715  1
  N  N20  1  0.47486264  0.33715611  0.38425088  1
  N  N21  1  0.60371751  0.37126393  0.03902880  1
  N  N22  1  0.43392672  0.81253660  0.68322676  1
  N  N23  1  0.68102153  0.47858900  0.42341834  1
  N  N24  1  0.09083853  0.45023520  0.20963392  1
  N  N25  1  0.82449328  0.27402159  0.26480076  1
  N  N26  1  0.83022738  0.94405491  0.91762670  1
  N  N27  1  0.79459625  0.37234882  0.24505504  1
  N  N28  1  0.86367068  0.43631480  0.21183962  1
  N  N29  1  0.67145356  0.69138023  0.56731513  1
  N  N30  1  0.65840443  0.61050131  0.60188548  1
  N  N31  1  0.54826631  0.10927537  0.95032514  1
  N  N32  1  0.02880476  0.10365257  0.94894777  1
  N  N33  1  0.29844732  0.14199143  0.96438445  1
  N  N34  1  0.99656420  0.24992859  0.73698146  1
  N  N35  1  0.82362403  0.95951272  0.99778081  1
  N  N36  1  0.92338314  0.29197190  0.76545379  1
  N  N37  1  0.43439122  0.94630180  0.27030264  1
  N  N38  1  0.08386285  0.93512390  0.12373656  1
  N  N39  1  0.29010732  0.20141421  0.01394147  1
  N  N40  1  0.20847992  0.77945676  0.88385054  1
  N  N41  1  0.89709293  0.52051693  0.56691207  1
  N  N42  1  0.78789370  0.19884249  0.99750706  1
  N  N43  1  0.75902189  0.70350745  0.86430150  1
  N  N44  1  0.52742787  0.18388570  0.97672616  1
  N  N45  1  0.77280190  0.94323216  0.56301334  1
  N  N46  1  0.70960594  0.12247053  0.75656929  1
  N  N47  1  0.45628937  0.91292188  0.34960888  1
  N  N48  1  0.98427505  0.73366234  0.29477885  1
  N  N49  1  0.42387174  0.72560020  0.68373030  1
loop_
_geom_bond_atom_site_label_1
_geom_bond_atom_site_label_2
_geom_bond_distance
_geom_bond_site_symmetry_2
Ga0 N24 1.973692 1_655
Ga0 N28 2.295769 1_555
Ga1 Ga34 2.576317 1_455
Ga1 Ga35 2.627639 1_555
Ga1 Ga7 2.636457 1_555
Ga1 Ga13 2.677323 1_555
Ga2 Ga38 2.553962 1_555
Ga2 Ga39 2.689103 1_555
Ga2 Ga47 2.704262 1_555
Ga2 Ga5 2.888852 1_555
Ga2 Ga23 2.895811 1_555
Ga3 Ga49 2.770526 1_455
Ga4 N25 1.994735 1_555
Ga6 N1 1.986943 1_455
Ga7 N15 2.107371 1_555
Ga9 N43 2.469374 1_555
Ga10 Ga2 2.528138 1_555
Ga10 Ga30 2.578772 1_555
Ga10 Ga5 2.636163 1_555
Ga10 Ga44 2.834348 1_555
Ga10 Ga23 2.948073 1_555
Ga11 N22 2.166761 1_555
Ga11 Ga18 2.763658 1_565
Ga11 Ga43 2.763829 1_555
Ga12 N43 2.126414 1_555
Ga12 Ga38 2.638776 1_556
Ga12 Ga49 2.748501 1_555
Ga13 Ga18 2.688207 1_565
Ga13 Ga29 2.696018 1_555
Ga13 Ga34 2.920130 1_455
Ga13 Ga6 2.969517 1_565
Ga13 Ga45 3.122550 1_555
Ga14 Ga18 2.656613 1_555
Ga14 N34 2.685598 1_455
Ga15 N45 1.992802 1_555
Ga15 N1 2.024693 1_565
Ga15 Ga45 2.473458 1_655
Ga15 Ga34 2.841374 1_555
Ga16 Ga32 2.722633 1_555
Ga16 Ga34 2.737467 1_455
Ga16 Ga33 2.757602 1_455
Ga16 Ga9 2.793761 1_455
Ga16 Ga3 2.895830 1_555
Ga17 N45 1.992048 1_555
Ga18 Ga45 2.580600 1_545
Ga18 Ga6 2.998937 1_555
Ga19 N16 2.256093 1_555
Ga19 Ga23 2.616737 1_555
Ga19 Ga43 2.742776 1_554
Ga19 Ga42 2.834589 1_555
Ga19 Ga5 2.850263 1_555
Ga20 N28 2.055959 1_555
Ga20 Ga48 2.745876 1_555
Ga20 Ga38 2.828797 1_555
Ga20 Ga49 2.849417 1_554
Ga21 N43 2.472097 1_555
Ga21 Ga43 2.893743 1_555
Ga22 N43 1.929243 1_555
Ga22 Ga43 2.660864 1_555
Ga23 Ga47 2.639147 1_555
Ga23 Ga35 2.748849 1_555
Ga23 Ga44 2.826578 1_555
Ga24 N45 2.061856 1_555
Ga24 Ga34 2.635254 1_555
Ga25 N24 2.030380 1_555
Ga25 N28 2.243263 1_455
Ga25 Ga49 2.832151 1_454
Ga26 N48 1.994839 1_555
Ga26 Ga48 2.903393 1_555
Ga28 N25 2.035951 1_555
Ga28 Ga46 2.715165 1_655
Ga29 N1 2.058932 1_465
Ga29 Ga46 2.963519 1_565
Ga30 N24 1.995470 1_555
Ga30 Ga46 2.762718 1_555
Ga31 Ga32 2.755482 1_555
Ga32 Ga7 2.558936 1_555
Ga33 N43 1.932649 1_555
Ga33 Ga34 2.561291 1_555
Ga33 Ga49 2.599170 1_555
Ga34 Ga45 2.838785 1_655
Ga35 N48 1.936674 1_455
Ga36 N48 2.020265 1_555
Ga36 Ga49 3.050945 1_554
Ga37 N48 2.058084 1_555
Ga37 Ga48 2.669745 1_555
Ga38 Ga42 2.685767 1_555
Ga38 Ga39 2.829471 1_555
Ga39 Ga48 2.636969 1_555
Ga39 Ga47 2.649670 1_555
Ga40 N1 1.984002 1_555
Ga40 N45 2.103654 1_545
Ga41 N38 2.156201 1_645
Ga42 Ga43 2.642780 1_554
Ga42 Ga48 2.794340 1_555
Ga43 Ga5 2.791517 1_556
Ga44 N24 1.972093 1_555
Ga44 Ga49 2.946396 1_454
Ga46 Ga8 2.837218 1_555
Ga46 Ga6 2.896176 1_555
Ga47 Ga7 2.551697 1_555
N0 N11 1.113310 1_555
N3 N38 1.194105 1_555
N10 N5 1.118466 1_555
N12 N23 1.114633 1_555
N13 N2 1.117400 1_555
N14 N4 1.116992 1_555
N15 N49 1.186143 1_555
N16 N3 1.179205 1_555
N17 N46 1.114160 1_555
N18 N40 1.118298 1_555
N19 N42 1.112886 1_555
N20 N7 1.117398 1_555
N21 N6 1.115367 1_555
N22 N49 1.182975 1_555
N25 N27 1.309316 1_555
N26 N35 1.116467 1_555
N27 N28 1.301733 1_555
N29 N30 1.116288 1_555
N31 N44 1.112873 1_555
N32 N8 1.113757 1_555
N33 N39 1.113341 1_556
N34 N36 1.116502 1_555
N37 N47 1.117151 1_555
N41 N9 1.121900 1_555
