# generated using pymatgen
data_Lu3(GeRh)2
_symmetry_space_group_name_H-M   'P 1'
_cell_length_a   5.50527400
_cell_length_b   7.76218600
_cell_length_c   13.06480100
_cell_angle_alpha   90.00000000
_cell_angle_beta   90.00000000
_cell_angle_gamma   90.00000000
_symmetry_Int_Tables_number   1
_chemical_formula_structural   Lu3(GeRh)2
_chemical_formula_sum   'Lu12 Ge8 Rh8'
_cell_volume   558.29762859
_cell_formula_units_Z   4
loop_
 _symmetry_equiv_pos_site_id
 _symmetry_equiv_pos_as_xyz
  1  'x, y, z'
loop_
 _atom_site_type_symbol
 _atom_site_label
 _atom_site_symmetry_multiplicity
 _atom_site_fract_x
 _atom_site_fract_y
 _atom_site_fract_z
 _atom_site_occupancy
  Lu  Lu0  1  0.62895500  0.25329000  0.25000000  1
  Lu  Lu1  1  0.37104500  0.74671000  0.75000000  1
  Lu  Lu2  1  0.37104500  0.75329000  0.25000000  1
  Lu  Lu3  1  0.62895500  0.24671000  0.75000000  1
  Lu  Lu4  1  0.14796500  0.39428600  0.10039700  1
  Lu  Lu5  1  0.85203500  0.60571400  0.89960300  1
  Lu  Lu6  1  0.85203500  0.60571400  0.60039700  1
  Lu  Lu7  1  0.85203500  0.89428600  0.39960300  1
  Lu  Lu8  1  0.14796500  0.39428600  0.39960300  1
  Lu  Lu9  1  0.14796500  0.10571400  0.60039700  1
  Lu  Lu10  1  0.14796500  0.10571400  0.89960300  1
  Lu  Lu11  1  0.85203500  0.89428600  0.10039700  1
  Ge  Ge0  1  0.12118900  0.11042800  0.25000000  1
  Ge  Ge1  1  0.87881100  0.88957200  0.75000000  1
  Ge  Ge2  1  0.87881100  0.61042800  0.25000000  1
  Ge  Ge3  1  0.12118900  0.38957200  0.75000000  1
  Ge  Ge4  1  0.66114900  0.25000000  0.00000000  1
  Ge  Ge5  1  0.33885100  0.75000000  0.00000000  1
  Ge  Ge6  1  0.33885100  0.75000000  0.50000000  1
  Ge  Ge7  1  0.66114900  0.25000000  0.50000000  1
  Rh  Rh0  1  0.37108600  0.03854300  0.09383800  1
  Rh  Rh1  1  0.62891400  0.96145700  0.90616200  1
  Rh  Rh2  1  0.62891400  0.96145700  0.59383800  1
  Rh  Rh3  1  0.62891400  0.53854300  0.40616200  1
  Rh  Rh4  1  0.37108600  0.03854300  0.40616200  1
  Rh  Rh5  1  0.37108600  0.46145700  0.59383800  1
  Rh  Rh6  1  0.37108600  0.46145700  0.90616200  1
  Rh  Rh7  1  0.62891400  0.53854300  0.09383800  1
loop_
_geom_bond_atom_site_label_1
_geom_bond_atom_site_label_2
_geom_bond_distance
_geom_bond_site_symmetry_2
Lu0 Rh4 2.992737 1_555
Lu0 Rh0 2.992737 1_555
Lu0 Rh3 3.010838 1_555
Lu0 Rh7 3.010838 1_555
Lu1 Rh1 2.992737 1_555
Lu1 Rh2 2.992737 1_555
Lu1 Rh6 3.010838 1_555
Lu1 Rh5 3.010838 1_555
Lu2 Rh3 2.992737 1_555
Lu2 Rh7 2.992737 1_555
Lu2 Rh4 3.010838 1_565
Lu2 Rh0 3.010838 1_565
Lu3 Rh6 2.992737 1_555
Lu3 Rh5 2.992737 1_555
Lu3 Rh1 3.010838 1_545
Lu3 Rh2 3.010838 1_545
Lu4 Rh6 2.867107 1_554
Lu4 Rh7 2.876073 1_555
Lu4 Rh0 3.023439 1_555
Lu4 Rh7 3.070275 1_455
Lu5 Rh7 2.867107 1_556
Lu5 Rh6 2.876073 1_555
Lu5 Rh1 3.023439 1_555
Lu5 Rh6 3.070275 1_655
Lu6 Rh3 2.867107 1_555
Lu6 Rh5 2.876073 1_555
Lu6 Rh2 3.023439 1_555
Lu6 Rh5 3.070275 1_655
Lu7 Rh2 2.867107 1_555
Lu7 Rh4 2.876073 1_565
Lu7 Rh3 3.023439 1_555
Lu7 Rh4 3.070275 1_665
Lu8 Rh5 2.867107 1_555
Lu8 Rh3 2.876073 1_555
Lu8 Rh4 3.023439 1_555
Lu8 Rh3 3.070275 1_455
Lu9 Rh4 2.867107 1_555
Lu9 Rh2 2.876073 1_545
Lu9 Rh5 3.023439 1_555
Lu9 Rh2 3.070275 1_445
Lu10 Rh0 2.867107 1_556
Lu10 Rh1 2.876073 1_545
Lu10 Rh6 3.023439 1_555
Lu10 Rh1 3.070275 1_445
Lu11 Rh1 2.867107 1_554
Lu11 Rh0 2.876073 1_565
Lu11 Rh7 3.023439 1_555
Lu11 Rh0 3.070275 1_665
Ge0 Rh4 2.523204 1_555
Ge0 Rh0 2.523204 1_555
Ge0 Lu0 2.927998 1_455
Ge0 Lu8 2.949020 1_555
Ge0 Lu4 2.949020 1_555
Ge0 Lu7 2.971637 1_445
Ge0 Lu11 2.971637 1_445
Ge0 Lu0 3.007311 1_555
Ge0 Lu2 3.094674 1_545
Ge1 Rh1 2.523204 1_555
Ge1 Rh2 2.523204 1_555
Ge1 Lu1 2.927998 1_655
Ge1 Lu5 2.949020 1_555
Ge1 Lu6 2.949020 1_555
Ge1 Lu10 2.971637 1_665
Ge1 Lu9 2.971637 1_665
Ge1 Lu1 3.007311 1_555
Ge1 Lu3 3.094674 1_565
Ge2 Rh3 2.523204 1_555
Ge2 Rh7 2.523204 1_555
Ge2 Lu2 2.927998 1_655
Ge2 Lu11 2.949020 1_555
Ge2 Lu7 2.949020 1_555
Ge2 Lu4 2.971637 1_655
Ge2 Lu8 2.971637 1_655
Ge2 Lu2 3.007311 1_555
Ge2 Lu0 3.094674 1_555
Ge3 Rh6 2.523204 1_555
Ge3 Rh5 2.523204 1_555
Ge3 Lu3 2.927998 1_455
Ge3 Lu10 2.949020 1_555
Ge3 Lu9 2.949020 1_555
Ge3 Lu5 2.971637 1_455
Ge3 Lu6 2.971637 1_455
Ge3 Lu3 3.007311 1_555
Ge3 Lu1 3.094674 1_555
Ge4 Rh7 2.559467 1_555
Ge4 Rh1 2.559467 1_544
Ge4 Rh0 2.597522 1_555
Ge4 Rh6 2.597522 1_554
Ge4 Lu4 3.187085 1_655
Ge4 Lu10 3.187085 1_654
Ge4 Lu5 3.232428 1_554
Ge4 Lu11 3.232428 1_545
Ge4 Lu0 3.271105 1_555
Ge4 Lu3 3.271105 1_554
Ge4 Lu4 3.310087 1_555
Ge4 Lu10 3.310087 1_554
Ge5 Rh0 2.559467 1_565
Ge5 Rh6 2.559467 1_554
Ge5 Rh7 2.597522 1_555
Ge5 Rh1 2.597522 1_554
Ge5 Lu11 3.187085 1_455
Ge5 Lu5 3.187085 1_454
Ge5 Lu10 3.232428 1_564
Ge5 Lu4 3.232428 1_555
Ge5 Lu1 3.271105 1_554
Ge5 Lu2 3.271105 1_555
Ge5 Lu11 3.310087 1_555
Ge5 Lu5 3.310087 1_554
Ge6 Rh5 2.559467 1_555
Ge6 Rh4 2.559467 1_565
Ge6 Rh2 2.597522 1_555
Ge6 Rh3 2.597522 1_555
Ge6 Lu7 3.187085 1_455
Ge6 Lu6 3.187085 1_455
Ge6 Lu9 3.232428 1_565
Ge6 Lu8 3.232428 1_555
Ge6 Lu1 3.271105 1_555
Ge6 Lu2 3.271105 1_555
Ge6 Lu7 3.310087 1_555
Ge6 Lu6 3.310087 1_555
Ge7 Rh2 2.559467 1_545
Ge7 Rh3 2.559467 1_555
Ge7 Rh5 2.597522 1_555
Ge7 Rh4 2.597522 1_555
Ge7 Lu8 3.187085 1_655
Ge7 Lu9 3.187085 1_655
Ge7 Lu6 3.232428 1_555
Ge7 Lu7 3.232428 1_545
Ge7 Lu3 3.271105 1_555
Ge7 Lu0 3.271105 1_555
Ge7 Lu8 3.310087 1_555
Ge7 Lu9 3.310087 1_555
