# generated using pymatgen
data_Te2MoWSe2
_symmetry_space_group_name_H-M   'P 1'
_cell_length_a   3.43779405
_cell_length_b   3.43779405
_cell_length_c   39.08963800
_cell_angle_alpha   90.00000000
_cell_angle_beta   90.00000000
_cell_angle_gamma   120.00000105
_symmetry_Int_Tables_number   1
_chemical_formula_structural   Te2MoWSe2
_chemical_formula_sum   'Te4 Mo2 W2 Se4'
_cell_volume   400.08474103
_cell_formula_units_Z   2
loop_
 _symmetry_equiv_pos_site_id
 _symmetry_equiv_pos_as_xyz
  1  'x, y, z'
loop_
 _atom_site_type_symbol
 _atom_site_label
 _atom_site_symmetry_multiplicity
 _atom_site_fract_x
 _atom_site_fract_y
 _atom_site_fract_z
 _atom_site_occupancy
  Te  Te0  1  0.00000000  0.00000000  0.70524100  1
  Te  Te1  1  0.33333300  0.66666700  0.04650300  1
  Te  Te2  1  0.33333300  0.66666700  0.14134200  1
  Te  Te3  1  0.00000000  0.00000000  0.60981700  1
  Mo  Mo0  1  0.00000000  0.00000000  0.09391100  1
  Mo  Mo1  1  0.00000000  0.00000000  0.46964300  1
  W  W0  1  0.33333300  0.66666700  0.28179700  1
  W  W1  1  0.33333300  0.66666700  0.65755400  1
  Se  Se0  1  0.00000000  0.00000000  0.32378200  1
  Se  Se1  1  0.33333300  0.66666700  0.42780300  1
  Se  Se2  1  0.33333300  0.66666700  0.51149500  1
  Se  Se3  1  0.00000000  0.00000000  0.23986100  1
loop_
_geom_bond_atom_site_label_1
_geom_bond_atom_site_label_2
_geom_bond_distance
_geom_bond_site_symmetry_2
Te0 W1 2.722906 1_545
Te0 W1 2.722908 1_555
Te0 W1 2.722908 1_445
Te3 W1 2.724244 1_545
Te3 W1 2.724246 1_445
Te3 W1 2.724246 1_555
Mo0 Te1 2.715451 1_545
Mo0 Te1 2.715453 1_555
Mo0 Te1 2.715453 1_445
Mo0 Te2 2.716065 1_545
Mo0 Te2 2.716067 1_555
Mo0 Te2 2.716067 1_445
Mo1 Se1 2.571840 1_545
Mo1 Se1 2.571843 1_445
Mo1 Se1 2.571843 1_555
Mo1 Se2 2.572139 1_545
Mo1 Se2 2.572141 1_555
Mo1 Se2 2.572141 1_445
Se0 W0 2.575448 1_545
Se0 W0 2.575451 1_445
Se0 W0 2.575451 1_555
Se3 W0 2.574228 1_545
Se3 W0 2.574231 1_555
Se3 W0 2.574231 1_445
