# generated using pymatgen
data_YMg6W
_symmetry_space_group_name_H-M   'P 1'
_cell_length_a   5.06047800
_cell_length_b   6.19241400
_cell_length_c   11.30984500
_cell_angle_alpha   90.00000000
_cell_angle_beta   90.00000000
_cell_angle_gamma   90.00000000
_symmetry_Int_Tables_number   1
_chemical_formula_structural   YMg6W
_chemical_formula_sum   'Y2 Mg12 W2'
_cell_volume   354.41180398
_cell_formula_units_Z   2
loop_
 _symmetry_equiv_pos_site_id
 _symmetry_equiv_pos_as_xyz
  1  'x, y, z'
loop_
 _atom_site_type_symbol
 _atom_site_label
 _atom_site_symmetry_multiplicity
 _atom_site_fract_x
 _atom_site_fract_y
 _atom_site_fract_z
 _atom_site_occupancy
  Y  Y0  1  0.50000000  0.00000000  0.16831400  1
  Y  Y1  1  0.50000000  0.50000000  0.66831400  1
  Mg  Mg0  1  0.50000000  0.24798400  0.41886000  1
  Mg  Mg1  1  0.50000000  0.75201600  0.41886000  1
  Mg  Mg2  1  0.00000000  0.73072900  0.08684600  1
  Mg  Mg3  1  0.00000000  0.26927100  0.08684600  1
  Mg  Mg4  1  0.00000000  0.00000000  0.33658300  1
  Mg  Mg5  1  0.00000000  0.50000000  0.31826100  1
  Mg  Mg6  1  0.50000000  0.74798400  0.91886000  1
  Mg  Mg7  1  0.50000000  0.25201600  0.91886000  1
  Mg  Mg8  1  0.00000000  0.23072900  0.58684600  1
  Mg  Mg9  1  0.00000000  0.76927100  0.58684600  1
  Mg  Mg10  1  0.00000000  0.50000000  0.83658300  1
  Mg  Mg11  1  0.00000000  0.00000000  0.81826100  1
  W  W0  1  0.50000000  0.50000000  0.16542600  1
  W  W1  1  0.50000000  0.00000000  0.66542600  1
loop_
_geom_bond_atom_site_label_1
_geom_bond_atom_site_label_2
_geom_bond_distance
_geom_bond_site_symmetry_2
Mg0 Mg1 3.071239 1_545
Mg0 Mg4 3.102602 1_655
Mg0 Mg4 3.102602 1_555
Mg0 Mg1 3.121175 1_555
Mg0 Mg8 3.165933 1_555
Mg0 Mg8 3.165933 1_655
Mg0 Mg5 3.183086 1_655
Mg0 Mg5 3.183086 1_555
Mg0 W1 3.183480 1_555
Mg0 Y0 3.222984 1_555
Mg0 Y1 3.224141 1_555
Mg0 W0 3.263603 1_555
Mg1 Mg4 3.102602 1_665
Mg1 Mg4 3.102602 1_565
Mg1 Mg9 3.165933 1_555
Mg1 Mg9 3.165933 1_655
Mg1 Mg5 3.183086 1_655
Mg1 Mg5 3.183086 1_555
Mg1 W1 3.183480 1_565
Mg1 Y0 3.222984 1_565
Mg1 Y1 3.224141 1_555
Mg1 W0 3.263603 1_555
Mg2 W0 3.038639 1_455
Mg2 W0 3.038639 1_555
Mg2 Mg6 3.165933 1_554
Mg2 Mg6 3.165933 1_454
Mg2 Y0 3.167241 1_565
Mg2 Y0 3.167241 1_465
Mg2 Mg4 3.279950 1_565
Mg3 W0 3.038639 1_455
Mg3 W0 3.038639 1_555
Mg3 Mg7 3.165933 1_554
Mg3 Mg7 3.165933 1_454
Mg3 Y0 3.167241 1_455
Mg3 Y0 3.167241 1_555
Mg3 Mg4 3.279950 1_555
Mg4 Mg5 3.103133 1_545
Mg4 Mg5 3.103133 1_555
Mg4 Y0 3.166052 1_555
Mg4 Y0 3.166052 1_455
Mg4 Mg8 3.170607 1_555
Mg4 Mg9 3.170607 1_545
Mg5 W0 3.064304 1_455
Mg5 W0 3.064304 1_555
Mg6 Mg7 3.071239 1_555
Mg6 Mg7 3.121175 1_565
Mg6 W0 3.183480 1_556
Mg6 Y1 3.222984 1_555
Mg6 Y0 3.224141 1_566
Mg6 W1 3.263603 1_565
Mg7 W0 3.183480 1_556
Mg7 Y1 3.222984 1_555
Mg7 Y0 3.224141 1_556
Mg7 W1 3.263603 1_555
Mg8 W1 3.038639 1_455
Mg8 W1 3.038639 1_555
Mg8 Y1 3.167241 1_555
Mg8 Y1 3.167241 1_455
Mg9 W1 3.038639 1_565
Mg9 W1 3.038639 1_465
Mg9 Y1 3.167241 1_555
Mg9 Y1 3.167241 1_455
Mg10 Mg6 3.102602 1_455
Mg10 Mg6 3.102602 1_555
Mg10 Mg7 3.102602 1_455
Mg10 Mg7 3.102602 1_555
Mg10 Mg11 3.103133 1_565
Mg10 Mg11 3.103133 1_555
Mg10 Y1 3.166052 1_555
Mg10 Y1 3.166052 1_455
Mg10 Mg2 3.170607 1_556
Mg10 Mg3 3.170607 1_556
Mg10 Mg9 3.279950 1_555
Mg10 Mg8 3.279950 1_555
Mg11 W1 3.064304 1_555
Mg11 W1 3.064304 1_455
Mg11 Mg7 3.183086 1_455
Mg11 Mg7 3.183086 1_555
Mg11 Mg6 3.183086 1_445
Mg11 Mg6 3.183086 1_545
W0 Y0 3.096379 1_555
W0 Y0 3.096379 1_565
W1 Y1 3.096379 1_555
W1 Y1 3.096379 1_545
