# generated using pymatgen
data_LiMn2O4
_symmetry_space_group_name_H-M   'P 1'
_cell_length_a   5.81217252
_cell_length_b   5.81217252
_cell_length_c   14.24257461
_cell_angle_alpha   87.82151430
_cell_angle_beta   87.82151430
_cell_angle_gamma   60.17343167
_symmetry_Int_Tables_number   1
_chemical_formula_structural   LiMn2O4
_chemical_formula_sum   'Li6 Mn12 O24'
_cell_volume   416.99703037
_cell_formula_units_Z   6
loop_
 _symmetry_equiv_pos_site_id
 _symmetry_equiv_pos_as_xyz
  1  'x, y, z'
loop_
 _atom_site_type_symbol
 _atom_site_label
 _atom_site_symmetry_multiplicity
 _atom_site_fract_x
 _atom_site_fract_y
 _atom_site_fract_z
 _atom_site_occupancy
  Li  Li0  1  0.47822400  0.70359500  0.18153000  1
  Li  Li1  1  0.93995400  0.23281200  0.19091600  1
  Li  Li2  1  0.70359500  0.47822400  0.68153000  1
  Li  Li3  1  0.23281200  0.93995400  0.69091600  1
  Li  Li4  1  0.28670600  0.02565800  0.32220000  1
  Li  Li5  1  0.02565800  0.28670600  0.82220000  1
  Mn  Mn0  1  0.76083600  0.51366900  0.49114200  1
  Mn  Mn1  1  0.24636200  0.00008900  0.50444800  1
  Mn  Mn2  1  0.47058100  0.22321400  0.15807100  1
  Mn  Mn3  1  0.97337700  0.72003000  0.15982500  1
  Mn  Mn4  1  0.52391600  0.27305100  0.84557300  1
  Mn  Mn5  1  0.02367400  0.77275000  0.84488700  1
  Mn  Mn6  1  0.51366900  0.76083600  0.99114200  1
  Mn  Mn7  1  0.00008900  0.24636200  0.00444800  1
  Mn  Mn8  1  0.72003000  0.97337700  0.65982500  1
  Mn  Mn9  1  0.22321400  0.47058100  0.65807100  1
  Mn  Mn10  1  0.77275000  0.02367400  0.34488700  1
  Mn  Mn11  1  0.27305100  0.52391600  0.34557300  1
  O  O0  1  0.69400400  0.42708200  0.92502200  1
  O  O1  1  0.17669800  0.93921300  0.92066300  1
  O  O2  1  0.32252300  0.05810200  0.08045300  1
  O  O3  1  0.81097400  0.56607100  0.08426400  1
  O  O4  1  0.42708200  0.69400400  0.42502200  1
  O  O5  1  0.93921300  0.17669800  0.42066300  1
  O  O6  1  0.56607100  0.81097400  0.58426400  1
  O  O7  1  0.05810200  0.32252300  0.58045300  1
  O  O8  1  0.17817400  0.43342000  0.90677900  1
  O  O9  1  0.68974600  0.93411000  0.90797300  1
  O  O10  1  0.31080800  0.56464100  0.09775300  1
  O  O11  1  0.81862400  0.06456600  0.09958200  1
  O  O12  1  0.43342000  0.17817400  0.40677900  1
  O  O13  1  0.93411000  0.68974600  0.40797300  1
  O  O14  1  0.56464100  0.31080800  0.59775300  1
  O  O15  1  0.06456600  0.81862400  0.59958200  1
  O  O16  1  0.35475400  0.59931900  0.76084000  1
  O  O17  1  0.85705700  0.10530500  0.76173600  1
  O  O18  1  0.14347400  0.38137600  0.23333700  1
  O  O19  1  0.63488800  0.89610800  0.23715500  1
  O  O20  1  0.59931900  0.35475400  0.26084000  1
  O  O21  1  0.10530500  0.85705700  0.26173600  1
  O  O22  1  0.38137600  0.14347400  0.73333700  1
  O  O23  1  0.89610800  0.63488800  0.73715500  1
loop_
_geom_bond_atom_site_label_1
_geom_bond_atom_site_label_2
_geom_bond_distance
_geom_bond_site_symmetry_2
Li0 O19 1.960733 1_555
Li0 O10 1.991502 1_555
Li0 O20 2.085417 1_555
Li0 O3 2.154322 1_555
Li0 O21 2.182782 1_555
Li0 O2 2.270586 1_565
Li1 O18 1.902607 1_655
Li1 O20 1.980350 1_555
Li1 O11 1.999528 1_555
Li1 O21 2.128147 1_645
Li1 O3 2.244907 1_555
Li1 O2 2.461704 1_655
Li2 O23 1.960733 1_555
Li2 O14 1.991502 1_555
Li2 O16 2.085417 1_555
Li2 O6 2.154322 1_555
Li2 O17 2.182782 1_555
Li2 O7 2.270586 1_655
Li3 O22 1.902607 1_565
Li3 O16 1.980350 1_555
Li3 O15 1.999528 1_555
Li3 O17 2.128147 1_465
Li3 O6 2.244907 1_555
Li3 O7 2.461704 1_565
Li4 O12 1.968568 1_555
Li4 O21 1.993601 1_545
Li4 O19 2.120531 1_545
Li4 O18 2.176796 1_555
Li4 O4 2.199498 1_545
Li4 O5 2.220580 1_455
Li5 O8 1.968568 1_555
Li5 O17 1.993601 1_455
Li5 O23 2.120531 1_455
Li5 O22 2.176796 1_555
Li5 O0 2.199498 1_455
Li5 O1 2.220580 1_545
Mn0 O4 1.946711 1_555
Mn0 O5 1.992188 1_555
Mn0 O7 1.996916 1_655
Mn0 O6 2.034874 1_555
Mn0 O13 2.075356 1_555
Mn0 O14 2.462887 1_555
Mn1 O4 1.936934 1_545
Mn1 O7 1.976231 1_555
Mn1 O5 1.977519 1_455
Mn1 O6 1.996800 1_545
Mn1 O15 2.226177 1_545
Mn1 O12 2.254642 1_555
Mn2 O10 1.906898 1_555
Mn2 O11 1.926409 1_555
Mn2 O18 1.946844 1_555
Mn2 O2 1.964186 1_555
Mn2 O19 1.976896 1_545
Mn2 O20 2.006037 1_555
Mn3 O10 1.900132 1_655
Mn3 O11 1.921345 1_565
Mn3 O3 1.959728 1_555
Mn3 O18 1.983471 1_655
Mn3 O19 2.012214 1_555
Mn3 O21 2.027072 1_655
Mn4 O9 1.908640 1_545
Mn4 O8 1.931896 1_555
Mn4 O16 2.020069 1_555
Mn4 O0 2.025252 1_555
Mn4 O17 2.039686 1_555
Mn4 O22 2.149819 1_555
Mn5 O9 1.890656 1_455
Mn5 O8 1.907728 1_555
Mn5 O1 1.974901 1_555
Mn5 O17 2.031625 1_465
Mn5 O16 2.034452 1_555
Mn5 O23 2.077748 1_455
Mn6 O0 1.946711 1_555
Mn6 O1 1.992188 1_555
Mn6 O2 1.996916 1_566
Mn6 O3 2.034874 1_556
Mn6 O9 2.075356 1_555
Mn6 O10 2.462887 1_556
Mn7 O0 1.936934 1_454
Mn7 O2 1.976231 1_555
Mn7 O1 1.977519 1_544
Mn7 O3 1.996800 1_455
Mn7 O11 2.226177 1_455
Mn7 O8 2.254642 1_554
Mn8 O14 1.900132 1_565
Mn8 O15 1.921345 1_655
Mn8 O6 1.959728 1_555
Mn8 O22 1.983471 1_565
Mn8 O23 2.012214 1_555
Mn8 O17 2.027072 1_565
Mn9 O14 1.906898 1_555
Mn9 O15 1.926409 1_555
Mn9 O22 1.946844 1_555
Mn9 O7 1.964186 1_555
Mn9 O23 1.976896 1_455
Mn9 O16 2.006037 1_555
Mn10 O13 1.890656 1_545
Mn10 O12 1.907728 1_555
Mn10 O5 1.974901 1_555
Mn10 O21 2.031625 1_645
Mn10 O20 2.034452 1_555
Mn10 O19 2.077748 1_545
Mn11 O13 1.908640 1_455
Mn11 O12 1.931896 1_555
Mn11 O20 2.020069 1_555
Mn11 O4 2.025252 1_555
Mn11 O21 2.039686 1_555
Mn11 O18 2.149819 1_555
