# generated using pymatgen
data_AcMg149
_symmetry_space_group_name_H-M   'P 1'
_cell_length_a   16.04660982
_cell_length_b   16.04661546
_cell_length_c   15.66822415
_cell_angle_alpha   90.00000000
_cell_angle_beta   90.00000000
_cell_angle_gamma   120.00000968
_symmetry_Int_Tables_number   1
_chemical_formula_structural   AcMg149
_chemical_formula_sum   'Ac1 Mg149'
_cell_volume   3493.95335983
_cell_formula_units_Z   1
loop_
 _symmetry_equiv_pos_site_id
 _symmetry_equiv_pos_as_xyz
  1  'x, y, z'
loop_
 _atom_site_type_symbol
 _atom_site_label
 _atom_site_symmetry_multiplicity
 _atom_site_fract_x
 _atom_site_fract_y
 _atom_site_fract_z
 _atom_site_occupancy
  Ac  Ac0  1  0.00000000  0.00000000  0.00000000  1
  Mg  Mg0  1  0.60029035  0.20058069  0.00000000  1
  Mg  Mg1  1  0.40224674  0.20112387  0.00000000  1
  Mg  Mg2  1  0.79887613  0.20112387  0.00000000  1
  Mg  Mg3  1  0.20740027  0.21161067  0.00000000  1
  Mg  Mg4  1  0.00421140  0.21161167  0.00000000  1
  Mg  Mg5  1  0.60029035  0.39970965  0.00000000  1
  Mg  Mg6  1  0.79941931  0.39970965  0.00000000  1
  Mg  Mg7  1  0.40163637  0.40204192  0.00000000  1
  Mg  Mg8  1  0.00040454  0.40204192  0.00000000  1
  Mg  Mg9  1  0.20248215  0.40496331  0.00000000  1
  Mg  Mg10  1  0.79887613  0.59775226  0.00000000  1
  Mg  Mg11  1  0.59795808  0.59836263  0.00000000  1
  Mg  Mg12  1  0.00040454  0.59836263  0.00000000  1
  Mg  Mg13  1  0.39944035  0.60055965  0.00000000  1
  Mg  Mg14  1  0.20111930  0.60055965  0.00000000  1
  Mg  Mg15  1  0.00421140  0.79259973  0.00000000  1
  Mg  Mg16  1  0.78838833  0.79260073  0.00000000  1
  Mg  Mg17  1  0.59503669  0.79751785  0.00000000  1
  Mg  Mg18  1  0.20248215  0.79751885  0.00000000  1
  Mg  Mg19  1  0.39944035  0.79888070  0.00000000  1
  Mg  Mg20  1  0.78838833  0.99578860  0.00000000  1
  Mg  Mg21  1  0.20740027  0.99578860  0.00000000  1
  Mg  Mg22  1  0.40163637  0.99959446  0.00000000  1
  Mg  Mg23  1  0.59795808  0.99959546  0.00000000  1
  Mg  Mg24  1  0.86899001  0.13100899  0.16395669  1
  Mg  Mg25  1  0.26201998  0.13100999  0.16395669  1
  Mg  Mg26  1  0.86899001  0.73798102  0.16395669  1
  Mg  Mg27  1  0.66666700  0.33333300  0.16604325  1
  Mg  Mg28  1  0.66757089  0.13288311  0.16645511  1
  Mg  Mg29  1  0.46531122  0.13288311  0.16645511  1
  Mg  Mg30  1  0.86711689  0.33242911  0.16645511  1
  Mg  Mg31  1  0.46531122  0.33242911  0.16645511  1
  Mg  Mg32  1  0.66757089  0.53468878  0.16645511  1
  Mg  Mg33  1  0.86711689  0.53468878  0.16645511  1
  Mg  Mg34  1  0.26729913  0.53459926  0.16747109  1
  Mg  Mg35  1  0.46539974  0.73269987  0.16747109  1
  Mg  Mg36  1  0.26729913  0.73269987  0.16747109  1
  Mg  Mg37  1  0.06687007  0.53343503  0.16769951  1
  Mg  Mg38  1  0.46656497  0.53343503  0.16769951  1
  Mg  Mg39  1  0.46656497  0.93312993  0.16769951  1
  Mg  Mg40  1  0.26868845  0.33702611  0.16826390  1
  Mg  Mg41  1  0.06833866  0.33702711  0.16826390  1
  Mg  Mg42  1  0.66297289  0.73131155  0.16826390  1
  Mg  Mg43  1  0.06833866  0.73131155  0.16826390  1
  Mg  Mg44  1  0.26868845  0.93166134  0.16826390  1
  Mg  Mg45  1  0.66297289  0.93166134  0.16826390  1
  Mg  Mg46  1  0.07020974  0.14041947  0.17478304  1
  Mg  Mg47  1  0.85958053  0.92979026  0.17478304  1
  Mg  Mg48  1  0.07020974  0.92979026  0.17478304  1
  Mg  Mg49  1  0.39972041  0.19986021  0.33254239  1
  Mg  Mg50  1  0.80013979  0.19986021  0.33254239  1
  Mg  Mg51  1  0.80013979  0.60027959  0.33254239  1
  Mg  Mg52  1  0.60003622  0.20007144  0.33277337  1
  Mg  Mg53  1  0.79992756  0.39996378  0.33277337  1
  Mg  Mg54  1  0.60003622  0.39996378  0.33277337  1
  Mg  Mg55  1  0.19992663  0.59996282  0.33377719  1
  Mg  Mg56  1  0.40003618  0.59996282  0.33377719  1
  Mg  Mg57  1  0.40003618  0.80007337  0.33377719  1
  Mg  Mg58  1  0.40072803  0.00023055  0.33392667  1
  Mg  Mg59  1  0.59950253  0.00023055  0.33392667  1
  Mg  Mg60  1  0.99976945  0.40049747  0.33392667  1
  Mg  Mg61  1  0.40072803  0.40049747  0.33392667  1
  Mg  Mg62  1  0.59950253  0.59927197  0.33392667  1
  Mg  Mg63  1  0.99976945  0.59927197  0.33392667  1
  Mg  Mg64  1  0.20016201  0.40032302  0.33420802  1
  Mg  Mg65  1  0.59967698  0.79983799  0.33420802  1
  Mg  Mg66  1  0.20016201  0.79983799  0.33420802  1
  Mg  Mg67  1  0.00000000  0.00000000  0.33478781  1
  Mg  Mg68  1  0.20160318  0.00046068  0.33480786  1
  Mg  Mg69  1  0.79885750  0.00046068  0.33480786  1
  Mg  Mg70  1  0.99953932  0.20114250  0.33480786  1
  Mg  Mg71  1  0.20160318  0.20114350  0.33480786  1
  Mg  Mg72  1  0.79885750  0.79839682  0.33480786  1
  Mg  Mg73  1  0.99953932  0.79839682  0.33480786  1
  Mg  Mg74  1  0.06677939  0.13355778  0.50000000  1
  Mg  Mg75  1  0.26745494  0.13372697  0.50000000  1
  Mg  Mg76  1  0.86627303  0.13372797  0.50000000  1
  Mg  Mg77  1  0.66723033  0.13431550  0.50000000  1
  Mg  Mg78  1  0.46708517  0.13431550  0.50000000  1
  Mg  Mg79  1  0.46708517  0.33276967  0.50000000  1
  Mg  Mg80  1  0.86568350  0.33276967  0.50000000  1
  Mg  Mg81  1  0.66666700  0.33333300  0.50000000  1
  Mg  Mg82  1  0.06709778  0.33400072  0.50000000  1
  Mg  Mg83  1  0.26690395  0.33400172  0.50000000  1
  Mg  Mg84  1  0.86568350  0.53291483  0.50000000  1
  Mg  Mg85  1  0.66723033  0.53291483  0.50000000  1
  Mg  Mg86  1  0.06621622  0.53310761  0.50000000  1
  Mg  Mg87  1  0.46689139  0.53310761  0.50000000  1
  Mg  Mg88  1  0.26684495  0.53368989  0.50000000  1
  Mg  Mg89  1  0.86627303  0.73254506  0.50000000  1
  Mg  Mg90  1  0.06709778  0.73309605  0.50000000  1
  Mg  Mg91  1  0.66599928  0.73309605  0.50000000  1
  Mg  Mg92  1  0.46631011  0.73315505  0.50000000  1
  Mg  Mg93  1  0.26684495  0.73315505  0.50000000  1
  Mg  Mg94  1  0.26690395  0.93290222  0.50000000  1
  Mg  Mg95  1  0.66599928  0.93290222  0.50000000  1
  Mg  Mg96  1  0.86644222  0.93322061  0.50000000  1
  Mg  Mg97  1  0.06677939  0.93322061  0.50000000  1
  Mg  Mg98  1  0.46689139  0.93378378  0.50000000  1
  Mg  Mg99  1  0.20160318  0.00046068  0.66519214  1
  Mg  Mg100  1  0.79885750  0.00046068  0.66519214  1
  Mg  Mg101  1  0.99953932  0.20114250  0.66519214  1
  Mg  Mg102  1  0.20160318  0.20114350  0.66519214  1
  Mg  Mg103  1  0.79885750  0.79839682  0.66519214  1
  Mg  Mg104  1  0.99953932  0.79839682  0.66519214  1
  Mg  Mg105  1  0.00000000  0.00000000  0.66521219  1
  Mg  Mg106  1  0.20016201  0.40032302  0.66579198  1
  Mg  Mg107  1  0.59967698  0.79983799  0.66579198  1
  Mg  Mg108  1  0.20016201  0.79983799  0.66579198  1
  Mg  Mg109  1  0.40072803  0.00023055  0.66607333  1
  Mg  Mg110  1  0.59950253  0.00023055  0.66607333  1
  Mg  Mg111  1  0.99976945  0.40049747  0.66607333  1
  Mg  Mg112  1  0.40072803  0.40049747  0.66607333  1
  Mg  Mg113  1  0.59950253  0.59927197  0.66607333  1
  Mg  Mg114  1  0.99976945  0.59927197  0.66607333  1
  Mg  Mg115  1  0.19992663  0.59996282  0.66622281  1
  Mg  Mg116  1  0.40003618  0.59996282  0.66622281  1
  Mg  Mg117  1  0.40003618  0.80007337  0.66622281  1
  Mg  Mg118  1  0.60003622  0.20007144  0.66722563  1
  Mg  Mg119  1  0.79992756  0.39996378  0.66722563  1
  Mg  Mg120  1  0.60003622  0.39996378  0.66722563  1
  Mg  Mg121  1  0.39972041  0.19986021  0.66745761  1
  Mg  Mg122  1  0.80013979  0.19986021  0.66745761  1
  Mg  Mg123  1  0.80013979  0.60027959  0.66745761  1
  Mg  Mg124  1  0.07020974  0.14041947  0.82521696  1
  Mg  Mg125  1  0.85958053  0.92979026  0.82521696  1
  Mg  Mg126  1  0.07020974  0.92979026  0.82521696  1
  Mg  Mg127  1  0.26868845  0.33702611  0.83173610  1
  Mg  Mg128  1  0.06833866  0.33702711  0.83173610  1
  Mg  Mg129  1  0.66297289  0.73131155  0.83173610  1
  Mg  Mg130  1  0.06833866  0.73131155  0.83173610  1
  Mg  Mg131  1  0.26868845  0.93166134  0.83173610  1
  Mg  Mg132  1  0.66297289  0.93166134  0.83173610  1
  Mg  Mg133  1  0.06687007  0.53343503  0.83230049  1
  Mg  Mg134  1  0.46656497  0.53343503  0.83230049  1
  Mg  Mg135  1  0.46656497  0.93312993  0.83230049  1
  Mg  Mg136  1  0.26729913  0.53459926  0.83252891  1
  Mg  Mg137  1  0.46539974  0.73269987  0.83252891  1
  Mg  Mg138  1  0.26729913  0.73269987  0.83252891  1
  Mg  Mg139  1  0.66757089  0.13288311  0.83354389  1
  Mg  Mg140  1  0.46531122  0.13288311  0.83354389  1
  Mg  Mg141  1  0.86711689  0.33242911  0.83354389  1
  Mg  Mg142  1  0.46531122  0.33242911  0.83354389  1
  Mg  Mg143  1  0.66757089  0.53468878  0.83354389  1
  Mg  Mg144  1  0.86711689  0.53468878  0.83354389  1
  Mg  Mg145  1  0.66666700  0.33333300  0.83395675  1
  Mg  Mg146  1  0.86899001  0.13100899  0.83604431  1
  Mg  Mg147  1  0.26201998  0.13100999  0.83604431  1
  Mg  Mg148  1  0.86899001  0.73798102  0.83604431  1
loop_
_geom_bond_atom_site_label_1
_geom_bond_atom_site_label_2
_geom_bond_distance
_geom_bond_site_symmetry_2
Ac0 Mg3 3.362362 1_555
Ac0 Mg16 3.362362 1_445
Ac0 Mg20 3.362370 1_445
Ac0 Mg21 3.362370 1_545
Ac0 Mg15 3.362371 1_545
Ac0 Mg4 3.362371 1_555
Ac0 Mg125 3.362659 1_444
Ac0 Mg47 3.362659 1_445
Ac0 Mg46 3.362659 1_555
Ac0 Mg124 3.362659 1_554
Ac0 Mg126 3.362659 1_544
Ac0 Mg48 3.362659 1_545
Mg0 Mg2 3.182279 1_555
Mg0 Mg1 3.182296 1_555
Mg0 Mg145 3.189315 1_554
Mg0 Mg27 3.189315 1_555
Mg0 Mg6 3.195345 1_555
Mg0 Mg5 3.195346 1_555
Mg0 Mg23 3.206584 1_545
Mg0 Mg22 3.206599 1_545
Mg0 Mg28 3.212545 1_555
Mg0 Mg29 3.212553 1_555
Mg0 Mg139 3.212558 1_554
Mg0 Mg140 3.212565 1_554
Mg1 Mg5 3.182288 1_555
Mg1 Mg29 3.183282 1_555
Mg1 Mg31 3.183282 1_555
Mg1 Mg140 3.183294 1_554
Mg1 Mg142 3.183294 1_554
Mg1 Mg3 3.214070 1_555
Mg1 Mg21 3.214087 1_545
Mg1 Mg147 3.224383 1_554
Mg1 Mg25 3.224396 1_555
Mg1 Mg7 3.228963 1_555
Mg1 Mg22 3.228979 1_545
Mg2 Mg6 3.182281 1_555
Mg2 Mg28 3.183281 1_555
Mg2 Mg30 3.183282 1_555
Mg2 Mg4 3.214094 1_655
Mg2 Mg20 3.214095 1_545
Mg2 Mg24 3.224413 1_555
Mg2 Mg8 3.228962 1_655
Mg2 Mg23 3.228962 1_545
Mg3 Mg7 3.086756 1_555
Mg3 Mg9 3.142858 1_555
Mg3 Mg40 3.160491 1_555
Mg3 Mg4 3.260501 1_555
Mg3 Mg46 3.337079 1_555
Mg4 Mg8 3.086758 1_555
Mg4 Mg9 3.142849 1_555
Mg4 Mg41 3.160491 1_555
Mg4 Mg46 3.337080 1_555
Mg5 Mg6 3.195345 1_555
Mg5 Mg7 3.206599 1_555
Mg6 Mg8 3.206583 1_655
Mg7 Mg9 3.219445 1_555
Mg8 Mg9 3.219477 1_555
Mg10 Mg5 3.182280 1_555
Mg10 Mg6 3.182281 1_555
Mg10 Mg33 3.183274 1_555
Mg10 Mg32 3.183281 1_555
Mg10 Mg144 3.183287 1_554
Mg10 Mg143 3.183294 1_554
Mg10 Mg15 3.214094 1_655
Mg10 Mg16 3.214112 1_555
Mg10 Mg148 3.224400 1_554
Mg10 Mg26 3.224413 1_555
Mg10 Mg12 3.228962 1_655
Mg10 Mg11 3.228962 1_555
Mg11 Mg16 3.086765 1_555
Mg11 Mg7 3.150290 1_555
Mg11 Mg32 3.199230 1_555
Mg11 Mg143 3.199243 1_554
Mg11 Mg134 3.199726 1_554
Mg11 Mg38 3.199726 1_555
Mg11 Mg13 3.203309 1_555
Mg11 Mg5 3.206584 1_555
Mg11 Mg42 3.219413 1_555
Mg11 Mg129 3.219413 1_554
Mg11 Mg17 3.219462 1_555
Mg12 Mg15 3.086758 1_555
Mg12 Mg8 3.150283 1_555
Mg12 Mg33 3.199238 1_455
Mg12 Mg144 3.199251 1_454
Mg12 Mg133 3.199726 1_554
Mg12 Mg37 3.199726 1_555
Mg12 Mg14 3.203310 1_555
Mg12 Mg6 3.206583 1_455
Mg12 Mg43 3.219413 1_555
Mg12 Mg130 3.219413 1_554
Mg12 Mg18 3.219477 1_555
Mg13 Mg9 3.149642 1_555
Mg13 Mg17 3.149642 1_555
Mg13 Mg14 3.182381 1_555
Mg13 Mg19 3.182382 1_555
Mg13 Mg137 3.202706 1_554
Mg13 Mg35 3.202706 1_555
Mg13 Mg136 3.202714 1_554
Mg13 Mg34 3.202714 1_555
Mg13 Mg7 3.203302 1_555
Mg13 Mg134 3.222517 1_554
Mg13 Mg38 3.222517 1_555
Mg14 Mg9 3.149651 1_555
Mg14 Mg18 3.149651 1_555
Mg14 Mg19 3.182381 1_555
Mg14 Mg34 3.202706 1_555
Mg14 Mg36 3.202706 1_555
Mg14 Mg8 3.203310 1_555
Mg14 Mg37 3.222517 1_555
Mg15 Mg18 3.142849 1_555
Mg15 Mg43 3.160491 1_555
Mg15 Mg26 3.189660 1_455
Mg15 Mg21 3.260493 1_555
Mg15 Mg48 3.337080 1_555
Mg15 Mg16 3.463237 1_455
Mg16 Mg17 3.142833 1_555
Mg16 Mg42 3.160490 1_555
Mg16 Mg26 3.189659 1_555
Mg16 Mg20 3.260478 1_555
Mg16 Mg47 3.337072 1_555
Mg17 Mg20 3.142849 1_555
Mg17 Mg19 3.149650 1_555
Mg17 Mg35 3.182887 1_555
Mg17 Mg23 3.219478 1_555
Mg17 Mg42 3.228905 1_555
Mg17 Mg45 3.228913 1_555
Mg18 Mg21 3.142842 1_555
Mg18 Mg19 3.149642 1_555
Mg18 Mg36 3.182880 1_555
Mg18 Mg22 3.219445 1_555
Mg18 Mg44 3.228905 1_555
Mg18 Mg43 3.228913 1_555
Mg19 Mg35 3.202706 1_555
Mg19 Mg36 3.202714 1_555
Mg19 Mg22 3.203303 1_555
Mg19 Mg23 3.203310 1_555
Mg19 Mg39 3.222517 1_555
Mg20 Mg23 3.086757 1_555
Mg20 Mg45 3.160490 1_555
Mg20 Mg24 3.189652 1_565
Mg20 Mg47 3.337080 1_555
Mg20 Mg4 3.463229 1_665
Mg21 Mg22 3.086748 1_555
Mg21 Mg44 3.160491 1_555
Mg21 Mg25 3.189660 1_565
Mg21 Mg48 3.337079 1_555
Mg21 Mg3 3.463214 1_565
Mg22 Mg23 3.150290 1_555
Mg22 Mg29 3.199246 1_565
Mg22 Mg39 3.199726 1_555
Mg22 Mg44 3.219404 1_555
Mg23 Mg28 3.199238 1_565
Mg23 Mg39 3.199726 1_555
Mg23 Mg45 3.219413 1_555
Mg24 Mg47 3.160650 1_545
Mg24 Mg46 3.160657 1_655
Mg24 Mg4 3.189660 1_655
Mg24 Mg69 3.234715 1_555
Mg24 Mg70 3.234722 1_555
Mg24 Mg28 3.247471 1_555
Mg24 Mg30 3.247480 1_555
Mg24 Mg45 3.254385 1_545
Mg24 Mg41 3.254401 1_655
Mg24 Mg50 3.261761 1_555
Mg25 Mg46 3.160664 1_555
Mg25 Mg48 3.160665 1_545
Mg25 Mg3 3.189651 1_555
Mg25 Mg68 3.234722 1_555
Mg25 Mg71 3.234730 1_555
Mg25 Mg29 3.247447 1_555
Mg25 Mg31 3.247455 1_555
Mg25 Mg40 3.254378 1_555
Mg25 Mg44 3.254394 1_545
Mg25 Mg49 3.261752 1_555
Mg26 Mg47 3.160649 1_555
Mg26 Mg48 3.160657 1_655
Mg26 Mg72 3.234715 1_555
Mg26 Mg73 3.234722 1_555
Mg26 Mg32 3.247463 1_555
Mg26 Mg33 3.247464 1_555
Mg26 Mg42 3.254385 1_555
Mg26 Mg43 3.254401 1_655
Mg26 Mg51 3.261761 1_555
Mg27 Mg6 3.189315 1_555
Mg27 Mg5 3.189323 1_555
Mg27 Mg53 3.202179 1_555
Mg27 Mg54 3.202188 1_555
Mg27 Mg52 3.202188 1_555
Mg27 Mg30 3.223824 1_555
Mg27 Mg28 3.223825 1_555
Mg27 Mg29 3.223841 1_555
Mg27 Mg33 3.223841 1_555
Mg27 Mg31 3.223856 1_555
Mg27 Mg32 3.223858 1_555
Mg28 Mg50 3.188424 1_555
Mg28 Mg45 3.192802 1_545
Mg28 Mg30 3.202037 1_555
Mg28 Mg59 3.206921 1_555
Mg28 Mg52 3.208734 1_555
Mg28 Mg39 3.215519 1_545
Mg28 Mg29 3.245582 1_555
Mg29 Mg49 3.188416 1_555
Mg29 Mg44 3.192794 1_545
Mg29 Mg31 3.202038 1_555
Mg29 Mg58 3.206921 1_555
Mg29 Mg52 3.208750 1_555
Mg29 Mg39 3.215528 1_545
Mg30 Mg50 3.188424 1_555
Mg30 Mg41 3.192801 1_655
Mg30 Mg8 3.199238 1_655
Mg30 Mg60 3.206921 1_555
Mg30 Mg53 3.208742 1_555
Mg30 Mg6 3.212545 1_555
Mg30 Mg37 3.215519 1_655
Mg30 Mg33 3.245583 1_555
Mg31 Mg49 3.188424 1_555
Mg31 Mg40 3.192777 1_555
Mg31 Mg7 3.199238 1_555
Mg31 Mg61 3.206913 1_555
Mg31 Mg54 3.208750 1_555
Mg31 Mg5 3.212553 1_555
Mg31 Mg38 3.215512 1_555
Mg31 Mg32 3.245582 1_555
Mg32 Mg51 3.188424 1_555
Mg32 Mg42 3.192786 1_555
Mg32 Mg33 3.202037 1_555
Mg32 Mg62 3.206913 1_555
Mg32 Mg54 3.208750 1_555
Mg32 Mg5 3.212553 1_555
Mg32 Mg38 3.215511 1_555
Mg33 Mg51 3.188416 1_555
Mg33 Mg43 3.192794 1_655
Mg33 Mg63 3.206921 1_555
Mg33 Mg53 3.208750 1_555
Mg33 Mg6 3.212553 1_555
Mg33 Mg37 3.215527 1_655
Mg34 Mg35 3.178843 1_555
Mg34 Mg36 3.178844 1_555
Mg34 Mg41 3.181585 1_555
Mg34 Mg40 3.181610 1_555
Mg34 Mg9 3.182880 1_555
Mg34 Mg55 3.192586 1_555
Mg34 Mg56 3.192593 1_555
Mg34 Mg37 3.206909 1_555
Mg34 Mg38 3.206925 1_555
Mg34 Mg64 3.210450 1_555
Mg35 Mg36 3.178843 1_555
Mg35 Mg42 3.181601 1_555
Mg35 Mg45 3.181601 1_555
Mg35 Mg56 3.192594 1_555
Mg35 Mg57 3.192594 1_555
Mg35 Mg39 3.206918 1_555
Mg35 Mg38 3.206918 1_555
Mg35 Mg65 3.210458 1_555
Mg36 Mg43 3.181585 1_555
Mg36 Mg44 3.181594 1_555
Mg36 Mg57 3.192593 1_555
Mg36 Mg55 3.192594 1_555
Mg36 Mg37 3.206909 1_555
Mg36 Mg39 3.206925 1_555
Mg36 Mg66 3.210442 1_555
Mg37 Mg41 3.163544 1_555
Mg37 Mg43 3.163544 1_555
Mg37 Mg55 3.192202 1_555
Mg37 Mg63 3.193171 1_455
Mg37 Mg60 3.193171 1_455
Mg37 Mg8 3.199726 1_555
Mg38 Mg42 3.163543 1_555
Mg38 Mg40 3.163550 1_555
Mg38 Mg56 3.192203 1_555
Mg38 Mg62 3.193171 1_555
Mg38 Mg61 3.193171 1_555
Mg38 Mg7 3.199726 1_555
Mg39 Mg45 3.163542 1_555
Mg39 Mg44 3.163543 1_555
Mg39 Mg57 3.192203 1_555
Mg39 Mg59 3.193171 1_565
Mg39 Mg58 3.193171 1_565
Mg40 Mg46 3.171642 1_555
Mg40 Mg61 3.178989 1_555
Mg40 Mg64 3.180872 1_555
Mg40 Mg41 3.214943 1_555
Mg40 Mg7 3.219404 1_555
Mg40 Mg71 3.221056 1_555
Mg40 Mg9 3.228913 1_555
Mg41 Mg46 3.171651 1_555
Mg41 Mg60 3.178990 1_455
Mg41 Mg64 3.180872 1_555
Mg41 Mg8 3.219413 1_555
Mg41 Mg70 3.221072 1_455
Mg41 Mg9 3.228913 1_555
Mg42 Mg47 3.171650 1_555
Mg42 Mg62 3.178990 1_555
Mg42 Mg65 3.180864 1_555
Mg42 Mg45 3.214936 1_555
Mg42 Mg72 3.221071 1_555
Mg43 Mg48 3.171651 1_555
Mg43 Mg63 3.178990 1_455
Mg43 Mg66 3.180872 1_555
Mg43 Mg44 3.214935 1_555
Mg43 Mg73 3.221072 1_455
Mg44 Mg48 3.171650 1_555
Mg44 Mg58 3.178989 1_565
Mg44 Mg66 3.180872 1_555
Mg44 Mg68 3.221072 1_565
Mg45 Mg47 3.171650 1_555
Mg45 Mg59 3.178990 1_565
Mg45 Mg65 3.180872 1_555
Mg45 Mg69 3.221071 1_565
Mg46 Mg71 3.102744 1_555
Mg46 Mg70 3.102744 1_455
Mg46 Mg67 3.176929 1_555
Mg46 Mg47 3.379885 1_445
Mg46 Mg48 3.379886 1_545
Mg47 Mg72 3.102744 1_555
Mg47 Mg69 3.102744 1_565
Mg47 Mg67 3.176928 1_665
Mg47 Mg48 3.379885 1_655
Mg48 Mg68 3.102744 1_565
Mg48 Mg73 3.102744 1_455
Mg48 Mg67 3.176929 1_565
Mg49 Mg68 3.189646 1_555
Mg49 Mg71 3.189653 1_555
Mg49 Mg75 3.203531 1_555
Mg49 Mg79 3.208708 1_555
Mg49 Mg78 3.208708 1_555
Mg49 Mg61 3.211568 1_555
Mg49 Mg58 3.211569 1_555
Mg49 Mg54 3.212690 1_555
Mg49 Mg52 3.212698 1_555
Mg50 Mg70 3.189646 1_555
Mg50 Mg69 3.189647 1_555
Mg50 Mg76 3.203531 1_555
Mg50 Mg77 3.208707 1_555
Mg50 Mg80 3.208708 1_555
Mg50 Mg59 3.211567 1_555
Mg50 Mg60 3.211567 1_555
Mg50 Mg52 3.212682 1_555
Mg50 Mg53 3.212691 1_555
Mg51 Mg73 3.189646 1_555
Mg51 Mg72 3.189647 1_555
Mg51 Mg89 3.203531 1_555
Mg51 Mg84 3.208700 1_555
Mg51 Mg85 3.208707 1_555
Mg51 Mg62 3.211567 1_555
Mg51 Mg63 3.211567 1_555
Mg51 Mg54 3.212690 1_555
Mg51 Mg53 3.212691 1_555
Mg52 Mg59 3.202548 1_555
Mg52 Mg58 3.202554 1_555
Mg52 Mg77 3.206061 1_555
Mg52 Mg78 3.206069 1_555
Mg52 Mg53 3.207586 1_555
Mg52 Mg54 3.207596 1_555
Mg52 Mg81 3.208537 1_555
Mg53 Mg60 3.202562 1_555
Mg53 Mg63 3.202562 1_555
Mg53 Mg80 3.206061 1_555
Mg53 Mg84 3.206069 1_555
Mg53 Mg54 3.207578 1_555
Mg53 Mg81 3.208529 1_555
Mg54 Mg61 3.202562 1_555
Mg54 Mg62 3.202563 1_555
Mg54 Mg79 3.206069 1_555
Mg54 Mg85 3.206069 1_555
Mg54 Mg81 3.208537 1_555
Mg55 Mg88 3.195144 1_555
Mg55 Mg93 3.195152 1_555
Mg55 Mg86 3.199325 1_555
Mg55 Mg66 3.205440 1_555
Mg55 Mg64 3.205440 1_555
Mg55 Mg60 3.206309 1_455
Mg55 Mg63 3.206316 1_455
Mg55 Mg56 3.211080 1_555
Mg55 Mg57 3.211088 1_555
Mg56 Mg88 3.195144 1_555
Mg56 Mg92 3.195152 1_555
Mg56 Mg87 3.199325 1_555
Mg56 Mg64 3.205431 1_555
Mg56 Mg65 3.205447 1_555
Mg56 Mg61 3.206310 1_555
Mg56 Mg62 3.206317 1_555
Mg56 Mg57 3.211097 1_555
Mg57 Mg93 3.195144 1_555
Mg57 Mg92 3.195153 1_555
Mg57 Mg98 3.199325 1_555
Mg57 Mg66 3.205423 1_555
Mg57 Mg65 3.205455 1_555
Mg57 Mg58 3.206310 1_565
Mg57 Mg59 3.206317 1_565
Mg58 Mg98 3.188558 1_545
Mg58 Mg59 3.189657 1_555
Mg58 Mg68 3.197157 1_555
Mg58 Mg94 3.198344 1_545
Mg58 Mg78 3.200465 1_555
Mg58 Mg66 3.217017 1_545
Mg59 Mg98 3.188566 1_545
Mg59 Mg69 3.197156 1_555
Mg59 Mg95 3.198352 1_545
Mg59 Mg77 3.200465 1_555
Mg59 Mg65 3.217026 1_545
Mg60 Mg86 3.188558 1_655
Mg60 Mg63 3.189658 1_555
Mg60 Mg70 3.197158 1_555
Mg60 Mg82 3.198352 1_655
Mg60 Mg80 3.200473 1_555
Mg60 Mg64 3.217025 1_655
Mg61 Mg87 3.188558 1_555
Mg61 Mg62 3.189657 1_555
Mg61 Mg71 3.197149 1_555
Mg61 Mg83 3.198344 1_555
Mg61 Mg79 3.200465 1_555
Mg61 Mg64 3.217009 1_555
Mg62 Mg87 3.188566 1_555
Mg62 Mg72 3.197157 1_555
Mg62 Mg91 3.198344 1_555
Mg62 Mg85 3.200465 1_555
Mg62 Mg65 3.217010 1_555
Mg63 Mg86 3.188566 1_655
Mg63 Mg73 3.197158 1_555
Mg63 Mg90 3.198344 1_655
Mg63 Mg84 3.200473 1_555
Mg63 Mg66 3.217017 1_655
Mg64 Mg83 3.188610 1_555
Mg64 Mg82 3.188618 1_555
Mg64 Mg88 3.191057 1_555
Mg64 Mg71 3.207796 1_555
Mg64 Mg70 3.207820 1_455
Mg65 Mg95 3.188618 1_555
Mg65 Mg91 3.188618 1_555
Mg65 Mg92 3.191057 1_555
Mg65 Mg72 3.207811 1_555
Mg65 Mg69 3.207820 1_565
Mg66 Mg90 3.188618 1_555
Mg66 Mg94 3.188618 1_555
Mg66 Mg93 3.191049 1_555
Mg66 Mg73 3.207827 1_455
Mg66 Mg68 3.207828 1_565
Mg67 Mg96 3.185211 1_445
Mg67 Mg74 3.185212 1_555
Mg67 Mg97 3.185220 1_545
Mg67 Mg68 3.231358 1_555
Mg67 Mg69 3.231358 1_455
Mg67 Mg72 3.231358 1_445
Mg67 Mg70 3.231359 1_455
Mg67 Mg73 3.231359 1_445
Mg67 Mg71 3.231366 1_555
Mg68 Mg94 3.179361 1_545
Mg68 Mg75 3.182622 1_555
Mg68 Mg97 3.195242 1_545
Mg68 Mg71 3.220280 1_555
Mg68 Mg73 3.242440 1_445
Mg69 Mg95 3.179352 1_545
Mg69 Mg76 3.182630 1_555
Mg69 Mg96 3.195250 1_545
Mg69 Mg70 3.220263 1_555
Mg69 Mg72 3.242441 1_545
Mg70 Mg82 3.179353 1_655
Mg70 Mg76 3.182622 1_555
Mg70 Mg74 3.195250 1_655
Mg70 Mg71 3.242432 1_655
Mg71 Mg83 3.179353 1_555
Mg71 Mg75 3.182639 1_555
Mg71 Mg74 3.195242 1_555
Mg72 Mg91 3.179352 1_555
Mg72 Mg89 3.182630 1_555
Mg72 Mg96 3.195242 1_555
Mg72 Mg73 3.220263 1_555
Mg73 Mg90 3.179361 1_655
Mg73 Mg89 3.182622 1_555
Mg73 Mg97 3.195242 1_655
Mg74 Mg82 3.213879 1_555
Mg74 Mg83 3.213886 1_555
Mg74 Mg96 3.214732 1_445
Mg74 Mg97 3.214734 1_545
Mg74 Mg75 3.218806 1_555
Mg74 Mg76 3.218814 1_455
Mg75 Mg99 3.182622 1_555
Mg75 Mg78 3.198677 1_555
Mg75 Mg79 3.198685 1_555
Mg75 Mg94 3.218146 1_545
Mg75 Mg83 3.218162 1_555
Mg75 Mg97 3.218806 1_545
Mg76 Mg77 3.198685 1_555
Mg76 Mg80 3.198686 1_555
Mg76 Mg82 3.218137 1_655
Mg76 Mg95 3.218153 1_545
Mg76 Mg96 3.218823 1_545
Mg77 Mg80 3.184509 1_555
Mg77 Mg81 3.198087 1_555
Mg77 Mg78 3.211651 1_555
Mg77 Mg98 3.216309 1_545
Mg77 Mg95 3.222170 1_545
Mg78 Mg79 3.184518 1_555
Mg78 Mg81 3.198094 1_555
Mg78 Mg98 3.216302 1_545
Mg78 Mg94 3.222161 1_545
Mg79 Mg81 3.198102 1_555
Mg79 Mg85 3.211651 1_555
Mg79 Mg87 3.216302 1_555
Mg79 Mg83 3.222161 1_555
Mg80 Mg81 3.198069 1_555
Mg80 Mg84 3.211652 1_555
Mg80 Mg86 3.216309 1_655
Mg80 Mg82 3.222185 1_655
Mg81 Mg84 3.198086 1_555
Mg81 Mg85 3.198103 1_555
Mg82 Mg86 3.202088 1_555
Mg82 Mg88 3.204800 1_555
Mg82 Mg83 3.206204 1_555
Mg83 Mg87 3.202071 1_555
Mg83 Mg88 3.204793 1_555
Mg84 Mg85 3.184501 1_555
Mg84 Mg89 3.198670 1_555
Mg84 Mg86 3.216325 1_655
Mg84 Mg90 3.222169 1_655
Mg85 Mg89 3.198685 1_555
Mg85 Mg87 3.216309 1_555
Mg85 Mg91 3.222154 1_555
Mg86 Mg90 3.202088 1_555
Mg86 Mg88 3.214749 1_555
Mg86 Mg93 3.214757 1_555
Mg87 Mg91 3.202095 1_555
Mg87 Mg88 3.214749 1_555
Mg87 Mg92 3.214758 1_555
Mg88 Mg92 3.200740 1_555
Mg88 Mg93 3.200741 1_555
Mg89 Mg91 3.218145 1_555
Mg89 Mg90 3.218145 1_655
Mg89 Mg97 3.218806 1_655
Mg89 Mg96 3.218807 1_555
Mg90 Mg93 3.204792 1_555
Mg90 Mg94 3.206212 1_555
Mg90 Mg97 3.213879 1_555
Mg91 Mg92 3.204808 1_555
Mg91 Mg95 3.206213 1_555
Mg91 Mg96 3.213878 1_555
Mg92 Mg93 3.200740 1_555
Mg92 Mg95 3.204800 1_555
Mg92 Mg98 3.214758 1_555
Mg93 Mg94 3.204793 1_555
Mg93 Mg98 3.214749 1_555
Mg94 Mg99 3.179361 1_565
Mg94 Mg98 3.202071 1_555
Mg94 Mg97 3.213878 1_555
Mg95 Mg98 3.202103 1_555
Mg95 Mg96 3.213878 1_555
Mg96 Mg97 3.214732 1_655
Mg97 Mg99 3.195242 1_565
Mg100 Mg125 3.102744 1_545
Mg100 Mg95 3.179352 1_545
Mg100 Mg76 3.182630 1_555
Mg100 Mg122 3.189647 1_555
Mg100 Mg96 3.195250 1_545
Mg100 Mg110 3.197156 1_555
Mg100 Mg107 3.207820 1_545
Mg100 Mg101 3.220263 1_555
Mg100 Mg132 3.221071 1_545
Mg100 Mg105 3.231358 1_655
Mg100 Mg146 3.234728 1_555
Mg100 Mg103 3.242441 1_545
Mg101 Mg124 3.102744 1_655
Mg101 Mg82 3.179353 1_655
Mg101 Mg76 3.182622 1_555
Mg101 Mg122 3.189646 1_555
Mg101 Mg74 3.195250 1_655
Mg101 Mg111 3.197158 1_555
Mg101 Mg106 3.207820 1_655
Mg101 Mg128 3.221072 1_655
Mg101 Mg105 3.231359 1_655
Mg101 Mg146 3.234735 1_555
Mg101 Mg102 3.242432 1_655
Mg102 Mg124 3.102744 1_555
Mg102 Mg83 3.179353 1_555
Mg102 Mg75 3.182639 1_555
Mg102 Mg121 3.189653 1_555
Mg102 Mg74 3.195242 1_555
Mg102 Mg112 3.197149 1_555
Mg102 Mg106 3.207796 1_555
Mg102 Mg99 3.220280 1_555
Mg102 Mg127 3.221056 1_555
Mg102 Mg105 3.231366 1_555
Mg102 Mg147 3.234743 1_555
Mg103 Mg125 3.102744 1_555
Mg103 Mg91 3.179352 1_555
Mg103 Mg89 3.182630 1_555
Mg103 Mg123 3.189647 1_555
Mg103 Mg96 3.195242 1_555
Mg103 Mg113 3.197157 1_555
Mg103 Mg107 3.207811 1_555
Mg103 Mg104 3.220263 1_555
Mg103 Mg129 3.221071 1_555
Mg103 Mg105 3.231358 1_665
Mg103 Mg148 3.234728 1_555
Mg104 Mg126 3.102744 1_655
Mg104 Mg90 3.179361 1_655
Mg104 Mg89 3.182622 1_555
Mg104 Mg123 3.189646 1_555
Mg104 Mg97 3.195242 1_655
Mg104 Mg114 3.197158 1_555
Mg104 Mg108 3.207827 1_655
Mg104 Mg130 3.221072 1_655
Mg104 Mg105 3.231359 1_665
Mg104 Mg148 3.234735 1_555
Mg104 Mg99 3.242440 1_665
Mg105 Mg125 3.176928 1_445
Mg105 Mg124 3.176929 1_555
Mg105 Mg126 3.176929 1_545
Mg105 Mg96 3.185211 1_445
Mg105 Mg74 3.185212 1_555
Mg105 Mg97 3.185220 1_545
Mg105 Mg99 3.231358 1_555
Mg106 Mg128 3.180872 1_555
Mg106 Mg127 3.180872 1_555
Mg106 Mg83 3.188610 1_555
Mg106 Mg82 3.188618 1_555
Mg106 Mg88 3.191057 1_555
Mg106 Mg116 3.205431 1_555
Mg106 Mg115 3.205440 1_555
Mg106 Mg136 3.210450 1_555
Mg106 Mg112 3.217009 1_555
Mg106 Mg111 3.217025 1_455
Mg107 Mg129 3.180864 1_555
Mg107 Mg132 3.180872 1_555
Mg107 Mg95 3.188618 1_555
Mg107 Mg91 3.188618 1_555
Mg107 Mg92 3.191057 1_555
Mg107 Mg116 3.205447 1_555
Mg107 Mg117 3.205455 1_555
Mg107 Mg137 3.210458 1_555
Mg107 Mg113 3.217010 1_555
Mg107 Mg110 3.217026 1_565
Mg108 Mg130 3.180872 1_555
Mg108 Mg131 3.180872 1_555
Mg108 Mg90 3.188618 1_555
Mg108 Mg94 3.188618 1_555
Mg108 Mg93 3.191049 1_555
Mg108 Mg117 3.205423 1_555
Mg108 Mg115 3.205440 1_555
Mg108 Mg99 3.207828 1_565
Mg108 Mg138 3.210442 1_555
Mg108 Mg109 3.217017 1_565
Mg108 Mg114 3.217017 1_455
Mg109 Mg131 3.178989 1_545
Mg109 Mg98 3.188558 1_545
Mg109 Mg110 3.189657 1_555
Mg109 Mg135 3.193171 1_545
Mg109 Mg99 3.197157 1_555
Mg109 Mg94 3.198344 1_545
Mg109 Mg78 3.200465 1_555
Mg109 Mg118 3.202554 1_555
Mg109 Mg117 3.206310 1_545
Mg109 Mg140 3.206909 1_555
Mg109 Mg121 3.211569 1_555
Mg110 Mg132 3.178990 1_545
Mg110 Mg98 3.188566 1_545
Mg110 Mg135 3.193171 1_545
Mg110 Mg95 3.198352 1_545
Mg110 Mg77 3.200465 1_555
Mg110 Mg118 3.202547 1_555
Mg110 Mg117 3.206317 1_545
Mg110 Mg139 3.206908 1_555
Mg110 Mg122 3.211567 1_555
Mg111 Mg128 3.178990 1_655
Mg111 Mg86 3.188558 1_655
Mg111 Mg114 3.189658 1_555
Mg111 Mg133 3.193171 1_655
Mg111 Mg82 3.198352 1_655
Mg111 Mg80 3.200473 1_555
Mg111 Mg119 3.202562 1_555
Mg111 Mg115 3.206309 1_655
Mg111 Mg141 3.206908 1_555
Mg111 Mg122 3.211567 1_555
Mg112 Mg127 3.178989 1_555
Mg112 Mg87 3.188558 1_555
Mg112 Mg113 3.189657 1_555
Mg112 Mg134 3.193171 1_555
Mg112 Mg83 3.198344 1_555
Mg112 Mg79 3.200465 1_555
Mg112 Mg120 3.202562 1_555
Mg112 Mg116 3.206310 1_555
Mg112 Mg142 3.206900 1_555
Mg112 Mg121 3.211568 1_555
Mg113 Mg129 3.178990 1_555
Mg113 Mg87 3.188566 1_555
Mg113 Mg134 3.193171 1_555
Mg113 Mg91 3.198344 1_555
Mg113 Mg85 3.200465 1_555
Mg113 Mg120 3.202563 1_555
Mg113 Mg116 3.206317 1_555
Mg113 Mg143 3.206900 1_555
Mg113 Mg123 3.211567 1_555
Mg114 Mg130 3.178990 1_655
Mg114 Mg86 3.188566 1_655
Mg114 Mg133 3.193171 1_655
Mg114 Mg90 3.198344 1_655
Mg114 Mg84 3.200473 1_555
Mg114 Mg119 3.202562 1_555
Mg114 Mg115 3.206316 1_655
Mg114 Mg144 3.206908 1_555
Mg114 Mg123 3.211567 1_555
Mg115 Mg133 3.192202 1_555
Mg115 Mg136 3.192586 1_555
Mg115 Mg138 3.192594 1_555
Mg115 Mg88 3.195144 1_555
Mg115 Mg93 3.195152 1_555
Mg115 Mg86 3.199325 1_555
Mg115 Mg116 3.211080 1_555
Mg115 Mg117 3.211088 1_555
Mg116 Mg134 3.192203 1_555
Mg116 Mg136 3.192593 1_555
Mg116 Mg137 3.192594 1_555
Mg116 Mg88 3.195144 1_555
Mg116 Mg92 3.195152 1_555
Mg116 Mg87 3.199325 1_555
Mg116 Mg117 3.211097 1_555
Mg117 Mg135 3.192203 1_555
Mg117 Mg138 3.192593 1_555
Mg117 Mg137 3.192594 1_555
Mg117 Mg93 3.195144 1_555
Mg117 Mg92 3.195153 1_555
Mg117 Mg98 3.199325 1_555
Mg118 Mg145 3.202200 1_555
Mg118 Mg77 3.206049 1_555
Mg118 Mg78 3.206056 1_555
Mg118 Mg119 3.207586 1_555
Mg118 Mg120 3.207596 1_555
Mg118 Mg81 3.208525 1_555
Mg118 Mg139 3.208734 1_555
Mg118 Mg140 3.208750 1_555
Mg118 Mg122 3.212682 1_555
Mg118 Mg121 3.212698 1_555
Mg119 Mg145 3.202192 1_555
Mg119 Mg80 3.206049 1_555
Mg119 Mg84 3.206057 1_555
Mg119 Mg120 3.207578 1_555
Mg119 Mg81 3.208516 1_555
Mg119 Mg141 3.208742 1_555
Mg119 Mg144 3.208750 1_555
Mg119 Mg122 3.212691 1_555
Mg119 Mg123 3.212691 1_555
Mg120 Mg145 3.202200 1_555
Mg120 Mg79 3.206056 1_555
Mg120 Mg85 3.206057 1_555
Mg120 Mg81 3.208525 1_555
Mg120 Mg142 3.208750 1_555
Mg120 Mg143 3.208750 1_555
Mg120 Mg121 3.212690 1_555
Mg120 Mg123 3.212690 1_555
Mg121 Mg140 3.188403 1_555
Mg121 Mg142 3.188411 1_555
Mg121 Mg99 3.189646 1_555
Mg121 Mg75 3.203531 1_555
Mg121 Mg79 3.208708 1_555
Mg121 Mg78 3.208708 1_555
Mg121 Mg147 3.261765 1_555
Mg122 Mg139 3.188411 1_555
Mg122 Mg141 3.188411 1_555
Mg122 Mg76 3.203531 1_555
Mg122 Mg77 3.208707 1_555
Mg122 Mg80 3.208708 1_555
Mg122 Mg146 3.261774 1_555
Mg123 Mg144 3.188403 1_555
Mg123 Mg143 3.188411 1_555
Mg123 Mg89 3.203531 1_555
Mg123 Mg84 3.208700 1_555
Mg123 Mg85 3.208707 1_555
Mg123 Mg148 3.261774 1_555
Mg124 Mg146 3.160658 1_455
Mg124 Mg147 3.160665 1_555
Mg124 Mg127 3.171642 1_555
Mg124 Mg128 3.171651 1_555
Mg124 Mg3 3.337079 1_556
Mg124 Mg4 3.337080 1_556
Mg124 Mg125 3.379885 1_445
Mg124 Mg126 3.379886 1_545
Mg125 Mg148 3.160650 1_555
Mg125 Mg146 3.160650 1_565
Mg125 Mg132 3.171650 1_555
Mg125 Mg129 3.171650 1_555
Mg125 Mg16 3.337072 1_556
Mg125 Mg20 3.337080 1_556
Mg125 Mg126 3.379885 1_655
Mg126 Mg99 3.102744 1_565
Mg126 Mg148 3.160658 1_455
Mg126 Mg147 3.160665 1_565
Mg126 Mg131 3.171650 1_555
Mg126 Mg130 3.171651 1_555
Mg126 Mg21 3.337079 1_556
Mg126 Mg15 3.337080 1_556
Mg127 Mg3 3.160491 1_556
Mg127 Mg134 3.163550 1_555
Mg127 Mg136 3.181610 1_555
Mg127 Mg142 3.192777 1_555
Mg127 Mg128 3.214943 1_555
Mg127 Mg7 3.219404 1_556
Mg127 Mg9 3.228913 1_556
Mg127 Mg147 3.254378 1_555
Mg128 Mg4 3.160491 1_556
Mg128 Mg133 3.163544 1_555
Mg128 Mg136 3.181585 1_555
Mg128 Mg141 3.192801 1_455
Mg128 Mg8 3.219413 1_556
Mg128 Mg9 3.228913 1_556
Mg128 Mg146 3.254402 1_455
Mg129 Mg16 3.160490 1_556
Mg129 Mg134 3.163543 1_555
Mg129 Mg137 3.181601 1_555
Mg129 Mg143 3.192786 1_555
Mg129 Mg132 3.214936 1_555
Mg129 Mg17 3.228905 1_556
Mg129 Mg148 3.254386 1_555
Mg130 Mg15 3.160491 1_556
Mg130 Mg133 3.163544 1_555
Mg130 Mg138 3.181585 1_555
Mg130 Mg144 3.192794 1_455
Mg130 Mg131 3.214935 1_555
Mg130 Mg18 3.228913 1_556
Mg130 Mg148 3.254402 1_455
Mg131 Mg21 3.160491 1_556
Mg131 Mg135 3.163543 1_555
Mg131 Mg138 3.181594 1_555
Mg131 Mg140 3.192794 1_565
Mg131 Mg22 3.219404 1_556
Mg131 Mg99 3.221072 1_565
Mg131 Mg18 3.228905 1_556
Mg131 Mg147 3.254394 1_565
Mg132 Mg20 3.160490 1_556
Mg132 Mg135 3.163542 1_555
Mg132 Mg137 3.181601 1_555
Mg132 Mg139 3.192802 1_565
Mg132 Mg23 3.219413 1_556
Mg132 Mg17 3.228913 1_556
Mg132 Mg146 3.254386 1_565
Mg133 Mg8 3.199726 1_556
Mg133 Mg136 3.206909 1_555
Mg133 Mg138 3.206909 1_555
Mg133 Mg141 3.215519 1_455
Mg133 Mg144 3.215527 1_455
Mg133 Mg14 3.222517 1_556
Mg134 Mg7 3.199726 1_556
Mg134 Mg137 3.206918 1_555
Mg134 Mg136 3.206925 1_555
Mg134 Mg143 3.215511 1_555
Mg134 Mg142 3.215512 1_555
Mg135 Mg23 3.199726 1_556
Mg135 Mg22 3.199726 1_556
Mg135 Mg137 3.206918 1_555
Mg135 Mg138 3.206925 1_555
Mg135 Mg139 3.215519 1_565
Mg135 Mg140 3.215528 1_565
Mg135 Mg19 3.222517 1_556
Mg136 Mg137 3.178843 1_555
Mg136 Mg138 3.178844 1_555
Mg136 Mg9 3.182880 1_556
Mg136 Mg14 3.202706 1_556
Mg137 Mg138 3.178843 1_555
Mg137 Mg17 3.182887 1_556
Mg137 Mg19 3.202706 1_556
Mg138 Mg18 3.182880 1_556
Mg138 Mg14 3.202706 1_556
Mg138 Mg19 3.202714 1_556
Mg139 Mg2 3.183294 1_556
Mg139 Mg23 3.199251 1_546
Mg139 Mg141 3.202037 1_555
Mg139 Mg145 3.223825 1_555
Mg139 Mg140 3.245582 1_555
Mg139 Mg146 3.247471 1_555
Mg140 Mg22 3.199259 1_546
Mg140 Mg142 3.202038 1_555
Mg140 Mg145 3.223841 1_555
Mg140 Mg147 3.247447 1_555
Mg141 Mg2 3.183294 1_556
Mg141 Mg8 3.199250 1_656
Mg141 Mg6 3.212558 1_556
Mg141 Mg145 3.223824 1_555
Mg141 Mg144 3.245583 1_555
Mg141 Mg146 3.247480 1_555
Mg142 Mg7 3.199251 1_556
Mg142 Mg5 3.212565 1_556
Mg142 Mg145 3.223856 1_555
Mg142 Mg143 3.245582 1_555
Mg142 Mg147 3.247455 1_555
Mg143 Mg144 3.202037 1_555
Mg143 Mg5 3.212566 1_556
Mg143 Mg145 3.223858 1_555
Mg143 Mg148 3.247463 1_555
Mg144 Mg6 3.212566 1_556
Mg144 Mg145 3.223841 1_555
Mg144 Mg148 3.247464 1_555
Mg145 Mg6 3.189315 1_556
Mg145 Mg5 3.189323 1_556
Mg146 Mg20 3.189639 1_546
Mg146 Mg4 3.189648 1_656
Mg146 Mg2 3.224400 1_556
Mg147 Mg3 3.189638 1_556
Mg147 Mg21 3.189647 1_546
Mg147 Mg99 3.234735 1_555
Mg148 Mg16 3.189647 1_556
Mg148 Mg15 3.189648 1_656
