# generated using pymatgen
data_K2AgBiBr6
_symmetry_space_group_name_H-M   'P 1'
_cell_length_a   8.04214745
_cell_length_b   8.04214745
_cell_length_c   8.04214745
_cell_angle_alpha   60.00000000
_cell_angle_beta   60.00000000
_cell_angle_gamma   60.00000000
_symmetry_Int_Tables_number   1
_chemical_formula_structural   K2AgBiBr6
_chemical_formula_sum   'K2 Ag1 Bi1 Br6'
_cell_volume   367.79099965
_cell_formula_units_Z   1
loop_
 _symmetry_equiv_pos_site_id
 _symmetry_equiv_pos_as_xyz
  1  'x, y, z'
loop_
 _atom_site_type_symbol
 _atom_site_label
 _atom_site_symmetry_multiplicity
 _atom_site_fract_x
 _atom_site_fract_y
 _atom_site_fract_z
 _atom_site_occupancy
  K  K0  1  0.75000000  0.75000000  0.75000000  1
  K  K1  1  0.25000000  0.25000000  0.25000000  1
  Ag  Ag0  1  0.50000000  0.50000000  0.50000000  1
  Bi  Bi0  1  0.00000000  0.00000000  0.00000000  1
  Br  Br0  1  0.74804000  0.25196000  0.25196000  1
  Br  Br1  1  0.25196000  0.25196000  0.74804000  1
  Br  Br2  1  0.25196000  0.74804000  0.74804000  1
  Br  Br3  1  0.25196000  0.74804000  0.25196000  1
  Br  Br4  1  0.74804000  0.25196000  0.74804000  1
  Br  Br5  1  0.74804000  0.74804000  0.25196000  1
loop_
_geom_bond_atom_site_label_1
_geom_bond_atom_site_label_2
_geom_bond_distance
_geom_bond_site_symmetry_2
Ag0 Br1 2.821037 1_555
Ag0 Br3 2.821037 1_555
Ag0 Br0 2.821037 1_555
Ag0 Br4 2.821037 1_555
Ag0 Br5 2.821037 1_555
Ag0 Br2 2.821037 1_555
Bi0 Br2 2.865620 1_544
Bi0 Br4 2.865620 1_454
Bi0 Br5 2.865620 1_445
Bi0 Br1 2.865620 1_554
Bi0 Br0 2.865620 1_455
Bi0 Br3 2.865620 1_545
