# generated using pymatgen
data_Hf2Rh
_symmetry_space_group_name_H-M   'P 1'
_cell_length_a   8.68342269
_cell_length_b   8.68342269
_cell_length_c   8.68342269
_cell_angle_alpha   60.00000000
_cell_angle_beta   60.00000000
_cell_angle_gamma   60.00000000
_symmetry_Int_Tables_number   1
_chemical_formula_structural   Hf2Rh
_chemical_formula_sum   'Hf16 Rh8'
_cell_volume   462.97530740
_cell_formula_units_Z   8
loop_
 _symmetry_equiv_pos_site_id
 _symmetry_equiv_pos_as_xyz
  1  'x, y, z'
loop_
 _atom_site_type_symbol
 _atom_site_label
 _atom_site_symmetry_multiplicity
 _atom_site_fract_x
 _atom_site_fract_y
 _atom_site_fract_z
 _atom_site_occupancy
  Hf  Hf0  1  -0.00000000  -0.00000000  0.50000000  1
  Hf  Hf1  1  -0.00000000  0.50000000  -0.00000000  1
  Hf  Hf2  1  0.50000000  -0.00000000  -0.00000000  1
  Hf  Hf3  1  -0.00000000  -0.00000000  -0.00000000  1
  Hf  Hf4  1  0.43879733  0.81120267  0.81120267  1
  Hf  Hf5  1  0.81120267  0.43879733  0.43879733  1
  Hf  Hf6  1  0.81120267  0.43879733  0.81120267  1
  Hf  Hf7  1  0.43879733  0.81120267  0.43879733  1
  Hf  Hf8  1  0.81120267  0.81120267  0.43879733  1
  Hf  Hf9  1  0.43879733  0.43879733  0.81120267  1
  Hf  Hf10  1  0.56120267  0.18879733  0.18879733  1
  Hf  Hf11  1  0.18879733  0.56120267  0.56120267  1
  Hf  Hf12  1  0.18879733  0.56120267  0.18879733  1
  Hf  Hf13  1  0.56120267  0.18879733  0.56120267  1
  Hf  Hf14  1  0.18879733  0.18879733  0.56120267  1
  Hf  Hf15  1  0.56120267  0.56120267  0.18879733  1
  Rh  Rh0  1  0.22179304  0.22179304  0.83462089  1
  Rh  Rh1  1  0.22179304  0.83462089  0.22179304  1
  Rh  Rh2  1  0.83462089  0.22179304  0.22179304  1
  Rh  Rh3  1  0.22179304  0.22179304  0.22179304  1
  Rh  Rh4  1  0.77820696  0.77820696  0.16537911  1
  Rh  Rh5  1  0.77820696  0.16537911  0.77820696  1
  Rh  Rh6  1  0.16537911  0.77820696  0.77820696  1
  Rh  Rh7  1  0.77820696  0.77820696  0.77820696  1
loop_
_geom_bond_atom_site_label_1
_geom_bond_atom_site_label_2
_geom_bond_distance
_geom_bond_site_symmetry_2
Hf0 Rh6 2.767368 1_545
Hf0 Rh2 2.767368 1_455
Hf0 Rh1 2.767368 1_545
Hf0 Rh5 2.767368 1_455
Hf0 Rh7 2.767368 1_445
Hf0 Rh3 2.767368 1_555
Hf1 Rh4 2.767368 1_455
Hf1 Rh2 2.767368 1_455
Hf1 Rh6 2.767368 1_554
Hf1 Rh0 2.767368 1_554
Hf1 Rh3 2.767368 1_555
Hf1 Rh7 2.767368 1_454
Hf2 Rh1 2.767368 1_545
Hf2 Rh5 2.767368 1_554
Hf2 Rh4 2.767368 1_545
Hf2 Rh0 2.767368 1_554
Hf2 Rh3 2.767368 1_555
Hf2 Rh7 2.767368 1_544
Hf3 Rh5 2.767368 1_454
Hf3 Rh0 2.767368 1_554
Hf3 Rh1 2.767368 1_545
Hf3 Rh6 2.767368 1_544
Hf3 Rh2 2.767368 1_455
Hf3 Rh4 2.767368 1_445
Hf4 Rh7 2.691398 1_555
Hf4 Rh6 2.691398 1_555
Hf4 Rh0 3.150746 1_565
Hf4 Rh1 3.150746 1_556
Hf5 Rh4 2.691398 1_555
Hf5 Rh5 2.691398 1_555
Hf5 Rh2 3.150746 1_555
Hf5 Rh3 3.150746 1_655
Hf6 Rh7 2.691398 1_555
Hf6 Rh5 2.691398 1_555
Hf6 Rh0 3.150746 1_655
Hf6 Rh2 3.150746 1_556
Hf7 Rh6 2.691398 1_555
Hf7 Rh4 2.691398 1_555
Hf7 Rh1 3.150746 1_555
Hf7 Rh3 3.150746 1_565
Hf8 Rh7 2.691398 1_555
Hf8 Rh4 2.691398 1_555
Hf8 Rh1 3.150746 1_655
Hf8 Rh2 3.150746 1_565
Hf9 Rh6 2.691398 1_555
Hf9 Rh5 2.691398 1_555
Hf9 Rh0 3.150746 1_555
Hf9 Rh3 3.150746 1_556
Hf10 Rh3 2.691398 1_555
Hf10 Rh2 2.691398 1_555
Hf10 Rh4 3.150746 1_545
Hf10 Rh5 3.150746 1_554
Hf11 Rh1 2.691398 1_555
Hf11 Rh0 2.691398 1_555
Hf11 Rh6 3.150746 1_555
Hf11 Rh7 3.150746 1_455
Hf12 Rh3 2.691398 1_555
Hf12 Rh1 2.691398 1_555
Hf12 Rh6 3.150746 1_554
Hf12 Rh4 3.150746 1_455
Hf13 Rh0 2.691398 1_555
Hf13 Rh2 2.691398 1_555
Hf13 Rh5 3.150746 1_555
Hf13 Rh7 3.150746 1_545
Hf14 Rh3 2.691398 1_555
Hf14 Rh0 2.691398 1_555
Hf14 Rh5 3.150746 1_455
Hf14 Rh6 3.150746 1_545
Hf15 Rh1 2.691398 1_555
Hf15 Rh2 2.691398 1_555
Hf15 Rh4 3.150746 1_555
Hf15 Rh7 3.150746 1_554
