# generated using pymatgen
data_Cu3Ag2P2O9
_symmetry_space_group_name_H-M   'P 1'
_cell_length_a   11.61652400
_cell_length_b   8.54784000
_cell_length_c   16.53463270
_cell_angle_alpha   89.85128046
_cell_angle_beta   90.00000000
_cell_angle_gamma   90.00000000
_symmetry_Int_Tables_number   1
_chemical_formula_structural   Cu3Ag2P2O9
_chemical_formula_sum   'Cu24 Ag16 P16 O72'
_cell_volume   1641.82047469
_cell_formula_units_Z   8
loop_
 _symmetry_equiv_pos_site_id
 _symmetry_equiv_pos_as_xyz
  1  'x, y, z'
loop_
 _atom_site_type_symbol
 _atom_site_label
 _atom_site_symmetry_multiplicity
 _atom_site_fract_x
 _atom_site_fract_y
 _atom_site_fract_z
 _atom_site_occupancy
  Cu  Cu0  1  0.84164900  0.78822000  0.15695200  1
  Cu  Cu1  1  0.34164900  0.21178000  0.34304800  1
  Cu  Cu2  1  0.15835100  0.21178000  0.84304800  1
  Cu  Cu3  1  0.65835100  0.78822000  0.65695200  1
  Cu  Cu4  1  0.83014600  0.47564500  0.07359600  1
  Cu  Cu5  1  0.33014600  0.52435500  0.42640400  1
  Cu  Cu6  1  0.16985400  0.52435500  0.92640400  1
  Cu  Cu7  1  0.66985400  0.47564500  0.57359600  1
  Cu  Cu8  1  0.65625000  0.50162300  0.92430200  1
  Cu  Cu9  1  0.15625000  0.49837700  0.57569800  1
  Cu  Cu10  1  0.34375000  0.49837700  0.07569800  1
  Cu  Cu11  1  0.84375000  0.50162300  0.42430200  1
  Cu  Cu12  1  0.68474400  0.19594200  0.83376200  1
  Cu  Cu13  1  0.18474400  0.80405800  0.66623800  1
  Cu  Cu14  1  0.31525600  0.80405800  0.16623800  1
  Cu  Cu15  1  0.81525600  0.19594200  0.33376200  1
  Cu  Cu16  1  0.94557000  0.50146900  0.25223600  1
  Cu  Cu17  1  0.44557000  0.49853100  0.24776400  1
  Cu  Cu18  1  0.05443000  0.49853100  0.74776400  1
  Cu  Cu19  1  0.55443000  0.50146900  0.75223600  1
  Cu  Cu20  1  0.69950600  0.49341900  0.24632100  1
  Cu  Cu21  1  0.19950600  0.50658100  0.25367900  1
  Cu  Cu22  1  0.30049400  0.50658100  0.75367900  1
  Cu  Cu23  1  0.80049400  0.49341900  0.74632100  1
  Ag  Ag0  1  0.58602600  0.24733000  0.07273200  1
  Ag  Ag1  1  0.08602600  0.75267000  0.42726800  1
  Ag  Ag2  1  0.41397400  0.75267000  0.92726800  1
  Ag  Ag3  1  0.91397400  0.24733000  0.57273200  1
  Ag  Ag4  1  0.74699900  0.99210400  0.00293500  1
  Ag  Ag5  1  0.24699900  0.00789600  0.49706500  1
  Ag  Ag6  1  0.25300100  0.00789600  0.99706500  1
  Ag  Ag7  1  0.75300100  0.99210400  0.50293500  1
  Ag  Ag8  1  0.90295800  0.74585000  0.92641100  1
  Ag  Ag9  1  0.40295800  0.25415000  0.57358900  1
  Ag  Ag10  1  0.09704200  0.25415000  0.07358900  1
  Ag  Ag11  1  0.59704200  0.74585000  0.42641100  1
  Ag  Ag12  1  0.59088100  0.99976900  0.23185700  1
  Ag  Ag13  1  0.09088100  0.00023100  0.26814300  1
  Ag  Ag14  1  0.40911900  0.00023100  0.76814300  1
  Ag  Ag15  1  0.90911900  0.99976900  0.73185700  1
  P  P0  1  0.65936300  0.83417500  0.83796200  1
  P  P1  1  0.15936300  0.16582500  0.66203800  1
  P  P2  1  0.34063700  0.16582500  0.16203800  1
  P  P3  1  0.84063700  0.83417500  0.33796200  1
  P  P4  1  0.85124200  0.15836800  0.15904900  1
  P  P5  1  0.35124200  0.84163200  0.34095100  1
  P  P6  1  0.14875800  0.84163200  0.84095100  1
  P  P7  1  0.64875800  0.15836800  0.65904900  1
  P  P8  1  0.58637400  0.65778200  0.09431000  1
  P  P9  1  0.08637400  0.34221800  0.40569000  1
  P  P10  1  0.41362600  0.34221800  0.90569000  1
  P  P11  1  0.91362600  0.65778200  0.59431000  1
  P  P12  1  0.08511100  0.66754800  0.10173000  1
  P  P13  1  0.58511100  0.33245200  0.39827000  1
  P  P14  1  0.91488900  0.33245200  0.89827000  1
  P  P15  1  0.41488900  0.66754800  0.60173000  1
  O  O0  1  0.66494700  0.54601300  0.04223100  1
  O  O1  1  0.16494700  0.45398700  0.45776900  1
  O  O2  1  0.33505300  0.45398700  0.95776900  1
  O  O3  1  0.83505300  0.54601300  0.54223100  1
  O  O4  1  0.71849900  0.71725400  0.89850000  1
  O  O5  1  0.21849900  0.28274600  0.60150000  1
  O  O6  1  0.28150100  0.28274600  0.10150000  1
  O  O7  1  0.78150100  0.71725400  0.39850000  1
  O  O8  1  0.82176300  0.56687600  0.17959400  1
  O  O9  1  0.32176300  0.43312400  0.32040600  1
  O  O10  1  0.17823700  0.43312400  0.82040600  1
  O  O11  1  0.67823700  0.56687600  0.67959400  1
  O  O12  1  0.41798600  0.85135500  0.25919800  1
  O  O13  1  0.91798600  0.14864500  0.24080200  1
  O  O14  1  0.58201400  0.14864500  0.74080200  1
  O  O15  1  0.08201400  0.85135500  0.75919800  1
  O  O16  1  0.96080800  0.70817600  0.07422500  1
  O  O17  1  0.46080800  0.29182400  0.42577500  1
  O  O18  1  0.03919200  0.29182400  0.92577500  1
  O  O19  1  0.53919200  0.70817600  0.57422500  1
  O  O20  1  0.53651100  0.33389400  0.94440000  1
  O  O21  1  0.03651100  0.66610600  0.55560000  1
  O  O22  1  0.46348900  0.66610600  0.05560000  1
  O  O23  1  0.96348900  0.33389400  0.44440000  1
  O  O24  1  0.76603000  0.85327500  0.26008800  1
  O  O25  1  0.26603000  0.14672500  0.23991200  1
  O  O26  1  0.23397000  0.14672500  0.73991200  1
  O  O27  1  0.73397000  0.85327500  0.76008800  1
  O  O28  1  0.64205200  0.81727000  0.10424300  1
  O  O29  1  0.14205200  0.18273000  0.39575700  1
  O  O30  1  0.35794800  0.18273000  0.89575700  1
  O  O31  1  0.85794800  0.81727000  0.60424300  1
  O  O32  1  0.07323300  0.42923800  0.32145400  1
  O  O33  1  0.57323300  0.57076200  0.17854600  1
  O  O34  1  0.92676700  0.57076200  0.67854600  1
  O  O35  1  0.42676700  0.42923800  0.82145400  1
  O  O36  1  0.72495800  0.20757400  0.17310700  1
  O  O37  1  0.22495800  0.79242600  0.32689300  1
  O  O38  1  0.27504200  0.79242600  0.82689300  1
  O  O39  1  0.77504200  0.20757400  0.67310700  1
  O  O40  1  0.68158100  0.42207100  0.81676900  1
  O  O41  1  0.18158100  0.57792900  0.68323100  1
  O  O42  1  0.31841900  0.57792900  0.18323100  1
  O  O43  1  0.81841900  0.42207100  0.31676900  1
  O  O44  1  0.91261200  0.28246200  0.10404500  1
  O  O45  1  0.41261200  0.71753800  0.39595500  1
  O  O46  1  0.08738800  0.71753800  0.89595500  1
  O  O47  1  0.58738800  0.28246200  0.60404500  1
  O  O48  1  0.84239000  0.18498700  0.88194800  1
  O  O49  1  0.34239000  0.81501300  0.61805200  1
  O  O50  1  0.15761000  0.81501300  0.11805200  1
  O  O51  1  0.65761000  0.18498700  0.38194800  1
  O  O52  1  0.46128500  0.22686300  0.18449200  1
  O  O53  1  0.96128500  0.77313700  0.31550800  1
  O  O54  1  0.53871500  0.77313700  0.81550800  1
  O  O55  1  0.03871500  0.22686300  0.68449200  1
  O  O56  1  0.65251000  0.99306700  0.88498600  1
  O  O57  1  0.15251000  0.00693300  0.61501400  1
  O  O58  1  0.34749000  0.00693300  0.11501400  1
  O  O59  1  0.84749000  0.99306700  0.38498600  1
  O  O60  1  0.86193200  0.99900700  0.11313500  1
  O  O61  1  0.36193200  0.00099300  0.38686500  1
  O  O62  1  0.13806800  0.00099300  0.88686500  1
  O  O63  1  0.63806800  0.99900700  0.61313500  1
  O  O64  1  0.07434100  0.56748800  0.18260800  1
  O  O65  1  0.57434100  0.43251200  0.31739200  1
  O  O66  1  0.92565900  0.43251200  0.81739200  1
  O  O67  1  0.42565900  0.56748800  0.68260800  1
  O  O68  1  0.85290400  0.44228800  0.95874200  1
  O  O69  1  0.35290400  0.55771200  0.54125800  1
  O  O70  1  0.14709600  0.55771200  0.04125800  1
  O  O71  1  0.64709600  0.44228800  0.45874200  1
loop_
_geom_bond_atom_site_label_1
_geom_bond_atom_site_label_2
_geom_bond_distance
_geom_bond_site_symmetry_2
Cu0 O8 1.941535 1_555
Cu0 O60 1.954488 1_555
Cu0 O24 1.998472 1_555
Cu0 O16 2.063997 1_555
Cu0 O28 2.489198 1_555
Cu1 O9 1.941535 1_555
Cu1 O61 1.954488 1_555
Cu1 O25 1.998472 1_555
Cu1 O17 2.063997 1_555
Cu1 O29 2.489198 1_555
Cu2 O10 1.941535 1_555
Cu2 O62 1.954488 1_555
Cu2 O26 1.998472 1_555
Cu2 O18 2.063997 1_555
Cu2 O30 2.489198 1_555
Cu3 O11 1.941535 1_555
Cu3 O63 1.954488 1_555
Cu3 O27 1.998472 1_555
Cu3 O19 2.063997 1_555
Cu3 O31 2.489198 1_555
Cu4 O8 1.922615 1_555
Cu4 O68 1.939191 1_554
Cu4 O44 1.973232 1_555
Cu4 O0 2.076497 1_555
Cu4 O16 2.500950 1_555
Cu5 O9 1.922615 1_555
Cu5 O69 1.939191 1_555
Cu5 O45 1.973232 1_555
Cu5 O1 2.076497 1_555
Cu5 O17 2.500950 1_555
Cu6 O10 1.922615 1_555
Cu6 O70 1.939191 1_556
Cu6 O46 1.973232 1_555
Cu6 O2 2.076497 1_555
Cu6 O18 2.500950 1_555
Cu7 O11 1.922615 1_555
Cu7 O71 1.939191 1_555
Cu7 O47 1.973232 1_555
Cu7 O3 2.076497 1_555
Cu7 O19 2.500950 1_555
Cu8 O40 1.927852 1_555
Cu8 O0 1.990020 1_556
Cu8 O4 2.024385 1_555
Cu8 O20 2.024415 1_555
Cu8 O68 2.408041 1_555
Cu9 O41 1.927852 1_555
Cu9 O1 1.990020 1_555
Cu9 O5 2.024385 1_555
Cu9 O21 2.024415 1_555
Cu9 O69 2.408041 1_555
Cu10 O42 1.927852 1_555
Cu10 O2 1.990020 1_554
Cu10 O6 2.024385 1_555
Cu10 O22 2.024415 1_555
Cu10 O70 2.408041 1_555
Cu11 O43 1.927852 1_555
Cu11 O3 1.990020 1_555
Cu11 O7 2.024385 1_555
Cu11 O23 2.024415 1_555
Cu11 O71 2.408041 1_555
Cu12 O40 1.952853 1_555
Cu12 O56 1.963975 1_545
Cu12 O14 1.988303 1_555
Cu12 O48 1.999207 1_555
Cu13 O41 1.952853 1_555
Cu13 O57 1.963975 1_565
Cu13 O15 1.988303 1_555
Cu13 O49 1.999207 1_555
Cu14 O42 1.952853 1_555
Cu14 O58 1.963975 1_565
Cu14 O12 1.988303 1_555
Cu14 O50 1.999207 1_555
Cu15 O43 1.952853 1_555
Cu15 O59 1.963975 1_545
Cu15 O13 1.988303 1_555
Cu15 O51 1.999207 1_555
Cu16 O43 1.943473 1_555
Cu16 O8 1.954532 1_555
Cu16 O64 1.969301 1_655
Cu16 O32 1.971470 1_655
Cu16 O53 2.555958 1_555
Cu17 O42 1.943473 1_555
Cu17 O9 1.954532 1_555
Cu17 O65 1.969301 1_555
Cu17 O33 1.971470 1_555
Cu17 O52 2.555958 1_555
Cu18 O41 1.943473 1_555
Cu18 O10 1.954532 1_555
Cu18 O66 1.969301 1_455
Cu18 O34 1.971470 1_455
Cu18 O55 2.555958 1_555
Cu19 O40 1.943473 1_555
Cu19 O11 1.954532 1_555
Cu19 O67 1.969301 1_555
Cu19 O35 1.971470 1_555
Cu19 O54 2.555958 1_555
Cu20 O8 1.903922 1_555
Cu20 O43 1.906104 1_555
Cu20 O65 1.939813 1_555
Cu20 O33 1.959773 1_555
Cu21 O9 1.903922 1_555
Cu21 O42 1.906104 1_555
Cu21 O64 1.939813 1_555
Cu21 O32 1.959773 1_555
Cu22 O10 1.903922 1_555
Cu22 O41 1.906104 1_555
Cu22 O67 1.939813 1_555
Cu22 O35 1.959773 1_555
Cu23 O11 1.903922 1_555
Cu23 O40 1.906104 1_555
Cu23 O66 1.939813 1_555
Cu23 O34 1.959773 1_555
Ag0 O20 2.317920 1_554
Ag0 O36 2.339174 1_555
Ag0 O52 2.354457 1_555
Ag1 O21 2.317920 1_555
Ag1 O37 2.339174 1_555
Ag1 O53 2.354457 1_455
Ag2 O22 2.317920 1_556
Ag2 O38 2.339174 1_555
Ag2 O54 2.354457 1_555
Ag3 O23 2.317920 1_555
Ag3 O39 2.339174 1_555
Ag3 O55 2.354457 1_655
Ag4 O56 2.237908 1_554
Ag4 O60 2.259801 1_555
Ag4 O28 2.551975 1_555
Ag5 O57 2.237908 1_555
Ag5 O61 2.259801 1_555
Ag5 O29 2.551975 1_555
Ag6 O58 2.237908 1_556
Ag6 O62 2.259801 1_555
Ag6 O30 2.551975 1_555
Ag7 O59 2.237908 1_555
Ag7 O63 2.259801 1_555
Ag7 O31 2.551975 1_555
Ag8 O4 2.205626 1_555
Ag8 O46 2.214232 1_655
Ag8 O16 2.554331 1_556
Ag8 O68 2.711023 1_555
Ag9 O5 2.205626 1_555
Ag9 O47 2.214232 1_555
Ag9 O17 2.554331 1_555
Ag9 O69 2.711023 1_555
Ag10 O6 2.205626 1_555
Ag10 O44 2.214232 1_455
Ag10 O18 2.554331 1_554
Ag10 O70 2.711023 1_555
Ag11 O7 2.205626 1_555
Ag11 O45 2.214232 1_555
Ag11 O19 2.554331 1_555
Ag11 O71 2.711023 1_555
Ag12 O12 2.417564 1_555
Ag12 O24 2.433633 1_555
Ag12 O36 2.552586 1_565
Ag12 O52 2.576812 1_565
Ag12 O28 2.693745 1_555
Ag13 O13 2.417564 1_455
Ag13 O25 2.433633 1_555
Ag13 O37 2.552586 1_545
Ag13 O53 2.576812 1_445
Ag13 O29 2.693745 1_555
Ag14 O14 2.417564 1_555
Ag14 O26 2.433633 1_555
Ag14 O38 2.552586 1_545
Ag14 O54 2.576812 1_545
Ag14 O30 2.693745 1_555
Ag15 O15 2.417564 1_655
Ag15 O27 2.433633 1_555
Ag15 O39 2.552586 1_565
Ag15 O55 2.576812 1_665
Ag15 O31 2.693745 1_555
O0 P8 1.578492 1_555
O1 P9 1.578492 1_555
O2 P10 1.578492 1_555
O3 P11 1.578492 1_555
O4 P0 1.570830 1_555
O5 P1 1.570830 1_555
O6 P2 1.570830 1_555
O7 P3 1.570830 1_555
O12 P5 1.560356 1_555
O13 P4 1.560356 1_555
O14 P7 1.560356 1_555
O15 P6 1.560356 1_555
O16 P12 1.552952 1_655
O17 P13 1.552952 1_555
O18 P14 1.552952 1_455
O19 P15 1.552952 1_555
O20 P10 1.565964 1_555
O21 P11 1.565964 1_455
O22 P8 1.565964 1_555
O23 P9 1.565964 1_655
O24 P3 1.560336 1_555
O25 P2 1.560336 1_555
O26 P1 1.560336 1_555
O27 P0 1.560336 1_555
O28 P8 1.518221 1_555
O29 P9 1.518221 1_555
O30 P10 1.518221 1_555
O31 P11 1.518221 1_555
O32 P9 1.584656 1_555
O33 P8 1.584656 1_555
O34 P11 1.584656 1_555
O35 P10 1.584656 1_555
O36 P4 1.543852 1_555
O37 P5 1.543852 1_555
O38 P6 1.543852 1_555
O39 P7 1.543852 1_555
O44 P4 1.567011 1_555
O45 P5 1.567011 1_555
O46 P6 1.567011 1_555
O47 P7 1.567011 1_555
O48 P14 1.540375 1_555
O49 P15 1.540375 1_555
O50 P12 1.540375 1_555
O51 P13 1.540375 1_555
O52 P2 1.541199 1_555
O53 P3 1.541199 1_555
O54 P0 1.541199 1_555
O55 P1 1.541199 1_555
O56 P0 1.568766 1_555
O57 P1 1.568766 1_555
O58 P2 1.568766 1_555
O59 P3 1.568766 1_555
O60 P4 1.566109 1_565
O61 P5 1.566109 1_545
O62 P6 1.566109 1_545
O63 P7 1.566109 1_565
O64 P12 1.590467 1_555
O65 P13 1.590467 1_555
O66 P14 1.590467 1_555
O67 P15 1.590467 1_555
O68 P14 1.550667 1_555
O69 P15 1.550667 1_555
O70 P12 1.550667 1_555
O71 P13 1.550667 1_555
