# generated using pymatgen
data_RbFeS2
_symmetry_space_group_name_H-M   'P 1'
_cell_length_a   7.21071659
_cell_length_b   7.21071659
_cell_length_c   7.21071659
_cell_angle_alpha   136.45433878
_cell_angle_beta   123.62515125
_cell_angle_gamma   73.82436661
_symmetry_Int_Tables_number   1
_chemical_formula_structural   RbFeS2
_chemical_formula_sum   'Rb2 Fe2 S4'
_cell_volume   210.08951390
_cell_formula_units_Z   2
loop_
 _symmetry_equiv_pos_site_id
 _symmetry_equiv_pos_as_xyz
  1  'x, y, z'
loop_
 _atom_site_type_symbol
 _atom_site_label
 _atom_site_symmetry_multiplicity
 _atom_site_fract_x
 _atom_site_fract_y
 _atom_site_fract_z
 _atom_site_occupancy
  Rb  Rb0  1  0.32606860  0.32606860  0.00000000  1
  Rb  Rb1  1  0.67393140  0.67393140  0.00000000  1
  Fe  Fe0  1  -0.00000000  0.25015677  0.25015677  1
  Fe  Fe1  1  -0.00000000  0.74984323  0.74984323  1
  S  S0  1  0.15294762  0.65294762  0.50000000  1
  S  S1  1  0.84705238  0.34705238  0.50000000  1
  S  S2  1  0.74446458  0.00000000  0.74446458  1
  S  S3  1  0.25553542  -0.00000000  0.25553542  1
loop_
_geom_bond_atom_site_label_1
_geom_bond_atom_site_label_2
_geom_bond_distance
_geom_bond_site_symmetry_2
Rb0 S0 3.337461 1_544
Rb0 S0 3.337461 1_555
Rb0 S1 3.414618 1_454
Rb0 S1 3.414618 1_555
Rb0 S2 3.734876 1_565
Rb0 S2 3.734876 1_554
Rb0 S3 3.734876 1_565
Rb0 S3 3.734876 1_554
Rb1 S1 3.337461 1_554
Rb1 S1 3.337461 1_565
Rb1 S0 3.414618 1_655
Rb1 S0 3.414618 1_554
Rb1 S3 3.734876 1_565
Rb1 S3 3.734876 1_554
Rb1 S2 3.734876 1_565
Rb1 S2 3.734876 1_554
Fe0 S3 2.195634 1_555
Fe0 S2 2.195634 1_454
Fe0 S1 2.212802 1_455
Fe0 S0 2.212802 1_555
Fe1 S2 2.195634 1_465
Fe1 S3 2.195634 1_566
Fe1 S0 2.212802 1_555
Fe1 S1 2.212802 1_455
