# generated using pymatgen
data_Cr11NiS16
_symmetry_space_group_name_H-M   'P 1'
_cell_length_a   6.94254800
_cell_length_b   8.12883347
_cell_length_c   8.24612557
_cell_angle_alpha   93.80282133
_cell_angle_beta   91.27979226
_cell_angle_gamma   90.55143090
_symmetry_Int_Tables_number   1
_chemical_formula_structural   Cr11NiS16
_chemical_formula_sum   'Cr11 Ni1 S16'
_cell_volume   464.19933733
_cell_formula_units_Z   1
loop_
 _symmetry_equiv_pos_site_id
 _symmetry_equiv_pos_as_xyz
  1  'x, y, z'
loop_
 _atom_site_type_symbol
 _atom_site_label
 _atom_site_symmetry_multiplicity
 _atom_site_fract_x
 _atom_site_fract_y
 _atom_site_fract_z
 _atom_site_occupancy
  Cr  Cr0  1  0.23831200  0.01017800  0.52051900  1
  Cr  Cr1  1  0.98706200  0.25345100  0.26313100  1
  Cr  Cr2  1  0.73987400  0.51062600  0.01908200  1
  Cr  Cr3  1  0.48534300  0.76524900  0.76826500  1
  Cr  Cr4  1  0.01293800  0.74654900  0.73686900  1
  Cr  Cr5  1  0.76168800  0.98982200  0.47948100  1
  Cr  Cr6  1  0.51465700  0.23475100  0.23173500  1
  Cr  Cr7  1  0.26012600  0.48937400  0.98091800  1
  Cr  Cr8  1  0.75427900  0.24630600  0.75401900  1
  Cr  Cr9  1  0.50000000  0.50000000  0.50000000  1
  Cr  Cr10  1  0.24572100  0.75369400  0.24598100  1
  Ni  Ni0  1  0.00000000  0.00000000  0.00000000  1
  S  S0  1  0.24086300  0.95873100  0.79707000  1
  S  S1  1  0.99184600  0.20525400  0.54310100  1
  S  S2  1  0.74409500  0.45420200  0.29480600  1
  S  S3  1  0.49095500  0.70616100  0.04311100  1
  S  S4  1  0.00815400  0.79474600  0.45689900  1
  S  S5  1  0.75913700  0.04126900  0.20293000  1
  S  S6  1  0.50904500  0.29383900  0.95688900  1
  S  S7  1  0.25590500  0.54579800  0.70519400  1
  S  S8  1  0.50907500  0.20262100  0.53188700  1
  S  S9  1  0.25767800  0.45255800  0.27977400  1
  S  S10  1  0.00775000  0.70294700  0.02967800  1
  S  S11  1  0.75798400  0.95155300  0.77854300  1
  S  S12  1  0.74232200  0.54744200  0.72022600  1
  S  S13  1  0.49092500  0.79737900  0.46811300  1
  S  S14  1  0.24201600  0.04844700  0.22145700  1
  S  S15  1  0.99225000  0.29705300  0.97032200  1
loop_
_geom_bond_atom_site_label_1
_geom_bond_atom_site_label_2
_geom_bond_distance
_geom_bond_site_symmetry_2
Cr0 S0 2.345339 1_545
Cr0 S1 2.346148 1_455
Cr0 S4 2.383699 1_545
Cr0 S8 2.430145 1_555
Cr0 S13 2.499563 1_545
Cr0 S14 2.506698 1_555
Cr1 S5 2.350335 1_555
Cr1 S2 2.364885 1_555
Cr1 S1 2.366717 1_555
Cr1 S14 2.456852 1_655
Cr1 S9 2.463462 1_655
Cr1 S15 2.464565 1_554
Cr2 S2 2.348690 1_555
Cr2 S3 2.361888 1_555
Cr2 S6 2.392832 1_554
Cr2 S10 2.414329 1_655
Cr2 S15 2.498621 1_554
Cr2 S12 2.502547 1_554
Cr3 S0 2.330403 1_555
Cr3 S3 2.347269 1_556
Cr3 S7 2.403173 1_555
Cr3 S11 2.409171 1_555
Cr3 S13 2.507116 1_555
Cr3 S12 2.544399 1_555
Cr4 S0 2.350335 1_555
Cr4 S7 2.364885 1_555
Cr4 S4 2.366717 1_555
Cr4 S11 2.456852 1_455
Cr4 S12 2.463462 1_455
Cr4 S10 2.464565 1_556
Cr5 S5 2.345339 1_565
Cr5 S4 2.346148 1_655
Cr5 S1 2.383699 1_565
Cr5 S13 2.430145 1_555
Cr5 S8 2.499563 1_565
Cr5 S11 2.506698 1_555
Cr6 S5 2.330403 1_555
Cr6 S6 2.347269 1_554
Cr6 S2 2.403173 1_555
Cr6 S14 2.409171 1_555
Cr6 S8 2.507116 1_555
Cr6 S9 2.544399 1_555
Cr7 S7 2.348690 1_555
Cr7 S6 2.361888 1_555
Cr7 S3 2.392832 1_556
Cr7 S15 2.414329 1_455
Cr7 S10 2.498621 1_556
Cr7 S9 2.502547 1_556
Cr8 S15 2.416357 1_555
Cr8 S11 2.418179 1_545
Cr8 S6 2.429132 1_555
Cr8 S1 2.432771 1_555
Cr8 S8 2.478324 1_555
Cr8 S12 2.483957 1_555
Cr9 S2 2.435186 1_555
Cr9 S7 2.435186 1_555
Cr9 S13 2.450136 1_555
Cr9 S8 2.450136 1_555
Cr9 S12 2.456625 1_555
Cr9 S9 2.456625 1_555
Cr10 S10 2.416357 1_555
Cr10 S14 2.418179 1_565
Cr10 S3 2.429132 1_555
Cr10 S4 2.432771 1_555
Cr10 S13 2.478324 1_555
Cr10 S9 2.483957 1_555
Ni0 S0 2.402156 1_544
Ni0 S5 2.402156 1_455
Ni0 S10 2.444143 1_545
Ni0 S15 2.444143 1_454
Ni0 S14 2.463304 1_555
Ni0 S11 2.463304 1_444
