# generated using pymatgen
data_Li9Mn2Co5O16
_symmetry_space_group_name_H-M   'P 1'
_cell_length_a   2.96909200
_cell_length_b   5.06506583
_cell_length_c   19.37955770
_cell_angle_alpha   93.61474820
_cell_angle_beta   92.79357397
_cell_angle_gamma   91.31592190
_symmetry_Int_Tables_number   1
_chemical_formula_structural   Li9Mn2Co5O16
_chemical_formula_sum   'Li9 Mn2 Co5 O16'
_cell_volume   290.41771645
_cell_formula_units_Z   1
loop_
 _symmetry_equiv_pos_site_id
 _symmetry_equiv_pos_as_xyz
  1  'x, y, z'
loop_
 _atom_site_type_symbol
 _atom_site_label
 _atom_site_symmetry_multiplicity
 _atom_site_fract_x
 _atom_site_fract_y
 _atom_site_fract_z
 _atom_site_occupancy
  Li  Li0  1  0.94006600  0.32387500  0.88066800  1
  Li  Li1  1  0.54643900  0.18640400  0.11775800  1
  Li  Li2  1  0.18886100  0.06403700  0.37473500  1
  Li  Li3  1  0.81113900  0.93596300  0.62526500  1
  Li  Li4  1  0.45356100  0.81359600  0.88224200  1
  Li  Li5  1  0.05993400  0.67612500  0.11933200  1
  Li  Li6  1  0.69010000  0.56197700  0.37586600  1
  Li  Li7  1  0.30990000  0.43802300  0.62413400  1
  Li  Li8  1  0.50000000  0.50000000  0.00000000  1
  Mn  Mn0  1  0.87739300  0.62603900  0.75123900  1
  Mn  Mn1  1  0.12260700  0.37396100  0.24876100  1
  Co  Co0  1  0.74991900  0.24957200  0.49972100  1
  Co  Co1  1  0.37653600  0.12568600  0.75118000  1
  Co  Co2  1  0.00000000  0.00000000  0.00000000  1
  Co  Co3  1  0.62346400  0.87431400  0.24882000  1
  Co  Co4  1  0.25008100  0.75042800  0.50027900  1
  O  O0  1  0.44672300  0.47060600  0.81076600  1
  O  O1  1  0.02835500  0.29850400  0.05510700  1
  O  O2  1  0.69320300  0.22028300  0.30867100  1
  O  O3  1  0.27171500  0.08480100  0.55715700  1
  O  O4  1  0.91496300  0.97189100  0.80599000  1
  O  O5  1  0.51249700  0.85848800  0.05451800  1
  O  O6  1  0.16570400  0.71742900  0.30617900  1
  O  O7  1  0.77057100  0.58390500  0.55691700  1
  O  O8  1  0.48750300  0.14151200  0.94548200  1
  O  O9  1  0.08503700  0.02810900  0.19401000  1
  O  O10  1  0.72828500  0.91519900  0.44284300  1
  O  O11  1  0.30679700  0.77971700  0.69132900  1
  O  O12  1  0.97164500  0.70149600  0.94489300  1
  O  O13  1  0.55327700  0.52939400  0.18923400  1
  O  O14  1  0.22942900  0.41609500  0.44308300  1
  O  O15  1  0.83429600  0.28257100  0.69382100  1
loop_
_geom_bond_atom_site_label_1
_geom_bond_atom_site_label_2
_geom_bond_distance
_geom_bond_site_symmetry_2
Li0 O8 2.119016 1_555
Li0 O0 2.125228 1_555
Li0 O12 2.212799 1_555
Li0 O0 2.219160 1_655
Li0 O4 2.221827 1_545
Li0 O8 2.255888 1_655
Li1 O5 1.998600 1_545
Li1 O1 2.015649 1_655
Li1 O1 2.026751 1_555
Li1 O13 2.151608 1_555
Li1 O9 2.235969 1_555
Li1 O9 2.315544 1_655
Li2 O2 2.104475 1_455
Li2 O10 2.105840 1_445
Li2 O6 2.131528 1_545
Li2 O14 2.150697 1_555
Li2 O2 2.183570 1_555
Li2 O10 2.202376 1_545
Li3 O11 2.104475 1_655
Li3 O3 2.105840 1_665
Li3 O15 2.131528 1_565
Li3 O7 2.150697 1_555
Li3 O11 2.183570 1_555
Li3 O3 2.202376 1_565
Li4 O8 1.998600 1_565
Li4 O12 2.015649 1_455
Li4 O12 2.026751 1_555
Li4 O0 2.151608 1_555
Li4 O4 2.235969 1_555
Li4 O4 2.315544 1_455
Li5 O5 2.119016 1_555
Li5 O13 2.125228 1_555
Li5 O1 2.212799 1_555
Li5 O13 2.219160 1_455
Li5 O9 2.221827 1_565
Li5 O5 2.255888 1_455
Li6 O14 2.088604 1_555
Li6 O2 2.099734 1_555
Li6 O10 2.140558 1_555
Li6 O6 2.169513 1_655
Li6 O14 2.186193 1_655
Li6 O6 2.203051 1_555
Li7 O7 2.088604 1_555
Li7 O11 2.099734 1_555
Li7 O3 2.140558 1_555
Li7 O15 2.169513 1_455
Li7 O7 2.186193 1_455
Li7 O15 2.203051 1_555
Li8 O5 2.041036 1_555
Li8 O8 2.041036 1_554
Li8 O1 2.088226 1_555
Li8 O12 2.088226 1_554
Li8 O1 2.165806 1_655
Li8 O12 2.165806 1_454
Mn0 O11 1.947309 1_655
Mn0 O0 1.948784 1_555
Mn0 O4 1.987979 1_555
Mn0 O15 2.003215 1_555
Mn0 O0 2.189431 1_655
Mn0 O11 2.192447 1_555
Mn1 O2 1.947309 1_455
Mn1 O13 1.948784 1_555
Mn1 O9 1.987979 1_555
Mn1 O6 2.003215 1_555
Mn1 O13 2.189431 1_455
Mn1 O2 2.192447 1_555
Co0 O10 1.959639 1_545
Co0 O7 1.962644 1_555
Co0 O14 2.038880 1_655
Co0 O3 2.041606 1_555
Co0 O14 2.077413 1_555
Co0 O3 2.084253 1_655
Co1 O4 1.952025 1_445
Co1 O15 1.980747 1_555
Co1 O0 2.033340 1_555
Co1 O11 2.040243 1_545
Co1 O4 2.070441 1_545
Co1 O15 2.110627 1_455
Co2 O1 1.793143 1_555
Co2 O12 1.793143 1_444
Co2 O5 1.980407 1_445
Co2 O8 1.980407 1_554
Co2 O5 1.983512 1_545
Co2 O8 1.983512 1_454
Co3 O9 1.952025 1_665
Co3 O6 1.980747 1_555
Co3 O13 2.033340 1_555
Co3 O2 2.040243 1_565
Co3 O9 2.070441 1_565
Co3 O6 2.110627 1_655
Co4 O3 1.959639 1_565
Co4 O14 1.962644 1_555
Co4 O7 2.038880 1_455
Co4 O10 2.041606 1_555
Co4 O7 2.077413 1_555
Co4 O10 2.084253 1_455
