# generated using pymatgen
data_Nb6GaSn
_symmetry_space_group_name_H-M   'P 1'
_cell_length_a   5.26731900
_cell_length_b   5.26731900
_cell_length_c   5.26731900
_cell_angle_alpha   90.00000000
_cell_angle_beta   90.00000000
_cell_angle_gamma   90.00000000
_symmetry_Int_Tables_number   1
_chemical_formula_structural   Nb6GaSn
_chemical_formula_sum   'Nb6 Ga1 Sn1'
_cell_volume   146.13991918
_cell_formula_units_Z   1
loop_
 _symmetry_equiv_pos_site_id
 _symmetry_equiv_pos_as_xyz
  1  'x, y, z'
loop_
 _atom_site_type_symbol
 _atom_site_label
 _atom_site_symmetry_multiplicity
 _atom_site_fract_x
 _atom_site_fract_y
 _atom_site_fract_z
 _atom_site_occupancy
  Nb  Nb0  1  0.00000000  0.50000000  0.74989600  1
  Nb  Nb1  1  0.50000000  0.25010400  0.00000000  1
  Nb  Nb2  1  0.74989600  0.00000000  0.50000000  1
  Nb  Nb3  1  0.00000000  0.50000000  0.25010400  1
  Nb  Nb4  1  0.50000000  0.74989600  0.00000000  1
  Nb  Nb5  1  0.25010400  0.00000000  0.50000000  1
  Ga  Ga0  1  0.50000000  0.50000000  0.50000000  1
  Sn  Sn0  1  0.00000000  0.00000000  0.00000000  1
loop_
_geom_bond_atom_site_label_1
_geom_bond_atom_site_label_2
_geom_bond_distance
_geom_bond_site_symmetry_2
Nb0 Nb3 2.632564 1_555
Nb0 Nb3 2.634755 1_556
Nb0 Sn0 2.944766 1_556
Nb0 Sn0 2.944766 1_566
Nb0 Nb2 3.225561 1_465
Nb0 Nb1 3.225561 1_556
Nb0 Nb1 3.225561 1_456
Nb0 Nb5 3.225561 1_555
Nb0 Nb2 3.225561 1_455
Nb0 Nb5 3.225561 1_565
Nb0 Nb4 3.225561 1_456
Nb0 Nb4 3.225561 1_556
Nb1 Nb4 2.632564 1_555
Nb1 Nb4 2.634755 1_545
Nb1 Sn0 2.944766 1_655
Nb1 Sn0 2.944766 1_555
Nb1 Nb2 3.225561 1_555
Nb1 Nb3 3.225561 1_655
Nb1 Nb2 3.225561 1_554
Nb1 Nb5 3.225561 1_555
Nb1 Nb5 3.225561 1_554
Nb1 Nb3 3.225561 1_555
Nb2 Nb5 2.632564 1_555
Nb2 Nb5 2.634755 1_655
Nb2 Sn0 2.944766 1_655
Nb2 Sn0 2.944766 1_656
Nb2 Nb3 3.225561 1_655
Nb2 Nb4 3.225561 1_546
Nb2 Nb3 3.225561 1_645
Nb2 Nb4 3.225561 1_545
Nb3 Sn0 2.944766 1_565
Nb3 Sn0 2.944766 1_555
Nb3 Nb4 3.225561 1_555
Nb3 Nb5 3.225561 1_555
Nb3 Nb5 3.225561 1_565
Nb3 Nb4 3.225561 1_455
Nb4 Sn0 2.944766 1_665
Nb4 Sn0 2.944766 1_565
Nb4 Nb5 3.225561 1_565
Nb4 Nb5 3.225561 1_564
Nb5 Sn0 2.944766 1_556
Nb5 Sn0 2.944766 1_555
Ga0 Nb3 2.944276 1_555
Ga0 Nb0 2.944276 1_655
Ga0 Nb2 2.944276 1_565
Ga0 Nb4 2.944276 1_556
Ga0 Nb4 2.944276 1_555
Ga0 Nb1 2.944276 1_556
Ga0 Nb1 2.944276 1_555
Ga0 Nb2 2.944276 1_555
Ga0 Nb3 2.944276 1_655
Ga0 Nb5 2.944276 1_555
Ga0 Nb5 2.944276 1_565
Ga0 Nb0 2.944276 1_555
