# generated using pymatgen
data_Cu2H13C2S2NO11
_symmetry_space_group_name_H-M   'P 1'
_cell_length_a   7.00601426
_cell_length_b   10.51449420
_cell_length_c   17.52405800
_cell_angle_alpha   90.00000000
_cell_angle_beta   90.00000000
_cell_angle_gamma   90.35912469
_symmetry_Int_Tables_number   1
_chemical_formula_structural   Cu2H13C2S2NO11
_chemical_formula_sum   'Cu8 H52 C8 S8 N4 O44'
_cell_volume   1290.87905300
_cell_formula_units_Z   4
loop_
 _symmetry_equiv_pos_site_id
 _symmetry_equiv_pos_as_xyz
  1  'x, y, z'
loop_
 _atom_site_type_symbol
 _atom_site_label
 _atom_site_symmetry_multiplicity
 _atom_site_fract_x
 _atom_site_fract_y
 _atom_site_fract_z
 _atom_site_occupancy
  Cu  Cu0  1  0.75327500  0.75502700  0.53748400  1
  Cu  Cu1  1  0.25327500  0.25502700  0.96251600  1
  Cu  Cu2  1  0.24672500  0.24497300  0.46251600  1
  Cu  Cu3  1  0.74672500  0.74497300  0.03748400  1
  Cu  Cu4  1  0.50000000  0.50000000  0.50000000  1
  Cu  Cu5  1  0.00000000  0.00000000  0.00000000  1
  Cu  Cu6  1  0.00000000  0.50000000  0.50000000  1
  Cu  Cu7  1  0.50000000  0.00000000  0.00000000  1
  H  H0  1  0.74396500  0.61143800  0.42632200  1
  H  H1  1  0.24396500  0.11143800  0.07367800  1
  H  H2  1  0.25603500  0.38856200  0.57367800  1
  H  H3  1  0.75603500  0.88856200  0.92632200  1
  H  H4  1  0.77052900  0.99253300  0.57653800  1
  H  H5  1  0.27052900  0.49253300  0.92346200  1
  H  H6  1  0.22947100  0.00746700  0.42346200  1
  H  H7  1  0.72947100  0.50746700  0.07653800  1
  H  H8  1  0.95995600  0.91358300  0.59654500  1
  H  H9  1  0.45995600  0.41358300  0.90345500  1
  H  H10  1  0.04004400  0.08641700  0.40345500  1
  H  H11  1  0.54004400  0.58641700  0.09654500  1
  H  H12  1  0.54369300  0.84876400  0.43942900  1
  H  H13  1  0.04369300  0.34876400  0.06057100  1
  H  H14  1  0.45630700  0.15123600  0.56057100  1
  H  H15  1  0.95630700  0.65123600  0.93942900  1
  H  H16  1  0.73201200  0.93484500  0.43417500  1
  H  H17  1  0.23201200  0.43484500  0.06582500  1
  H  H18  1  0.26798800  0.06515500  0.56582500  1
  H  H19  1  0.76798800  0.56515500  0.93417500  1
  H  H20  1  0.95774200  0.22459600  0.82120400  1
  H  H21  1  0.45774200  0.72459600  0.67879600  1
  H  H22  1  0.04225800  0.77540400  0.17879600  1
  H  H23  1  0.54225800  0.27540400  0.32120400  1
  H  H24  1  0.84199600  0.33106900  0.76706400  1
  H  H25  1  0.34199600  0.83106900  0.73293600  1
  H  H26  1  0.15800400  0.66893100  0.23293600  1
  H  H27  1  0.65800400  0.16893100  0.26706400  1
  H  H28  1  0.14489500  0.28242400  0.71135900  1
  H  H29  1  0.64489500  0.78242400  0.78864100  1
  H  H30  1  0.85510500  0.71757600  0.28864100  1
  H  H31  1  0.35510500  0.21757600  0.21135900  1
  H  H32  1  0.94807100  0.23728000  0.65133800  1
  H  H33  1  0.44807100  0.73728000  0.84866200  1
  H  H34  1  0.05192900  0.76272000  0.34866200  1
  H  H35  1  0.55192900  0.26272000  0.15133800  1
  H  H36  1  0.07465500  0.11945400  0.70592500  1
  H  H37  1  0.57465500  0.61945400  0.79407500  1
  H  H38  1  0.92534500  0.88054600  0.29407500  1
  H  H39  1  0.42534500  0.38054600  0.20592500  1
  H  H40  1  0.62659800  0.17080000  0.81474500  1
  H  H41  1  0.12659800  0.67080000  0.68525500  1
  H  H42  1  0.37340300  0.82920000  0.18525500  1
  H  H43  1  0.87340200  0.32920000  0.31474500  1
  H  H44  1  0.76714000  0.05313700  0.76677200  1
  H  H45  1  0.26714000  0.55313700  0.73322800  1
  H  H46  1  0.23286000  0.94686300  0.23322800  1
  H  H47  1  0.73286000  0.44686300  0.26677200  1
  H  H48  1  0.64252000  0.17055200  0.71243900  1
  H  H49  1  0.14252000  0.67055200  0.78756100  1
  H  H50  1  0.35748000  0.82944800  0.28756100  1
  H  H51  1  0.85748000  0.32944800  0.21243900  1
  C  C0  1  0.02355000  0.21740600  0.70460400  1
  C  C1  1  0.52355000  0.71740600  0.79539600  1
  C  C2  1  0.97645000  0.78259400  0.29539600  1
  C  C3  1  0.47645000  0.28259400  0.20460400  1
  C  C4  1  0.71880600  0.15193000  0.76575500  1
  C  C5  1  0.21880600  0.65193000  0.73424500  1
  C  C6  1  0.28119400  0.84807000  0.23424500  1
  C  C7  1  0.78119400  0.34807000  0.26575500  1
  S  S0  1  0.75555000  0.51708800  0.64383000  1
  S  S1  1  0.25555000  0.01708800  0.85617000  1
  S  S2  1  0.24445000  0.48291200  0.35617000  1
  S  S3  1  0.74445000  0.98291200  0.14383000  1
  S  S4  1  0.24880000  0.80644200  0.52717100  1
  S  S5  1  0.74880000  0.30644200  0.97282900  1
  S  S6  1  0.75120000  0.19355800  0.47282900  1
  S  S7  1  0.25120000  0.69355800  0.02717100  1
  N  N0  1  0.88895600  0.23727900  0.76935000  1
  N  N1  1  0.38895600  0.73727900  0.73065000  1
  N  N2  1  0.11104400  0.76272100  0.23065000  1
  N  N3  1  0.61104400  0.26272100  0.26935000  1
  O  O0  1  0.74269600  0.58726200  0.48036800  1
  O  O1  1  0.24269600  0.08726200  0.01963200  1
  O  O2  1  0.25730400  0.41273800  0.51963200  1
  O  O3  1  0.75730400  0.91273800  0.98036800  1
  O  O4  1  0.40889700  0.72966600  0.55800800  1
  O  O5  1  0.90889700  0.22966600  0.94199200  1
  O  O6  1  0.59110300  0.27033400  0.44199200  1
  O  O7  1  0.09110300  0.77033400  0.05800800  1
  O  O8  1  0.30914200  0.86447800  0.45226600  1
  O  O9  1  0.80914200  0.36447800  0.04773400  1
  O  O10  1  0.69085800  0.13552200  0.54773400  1
  O  O11  1  0.19085800  0.63552200  0.95226600  1
  O  O12  1  0.19958800  0.91188000  0.58200800  1
  O  O13  1  0.69958800  0.41188000  0.91799200  1
  O  O14  1  0.80041200  0.08812000  0.41799200  1
  O  O15  1  0.30041200  0.58812000  0.08200800  1
  O  O16  1  0.07735000  0.72480500  0.51649800  1
  O  O17  1  0.57735000  0.22480500  0.98350200  1
  O  O18  1  0.92265000  0.27519500  0.48350200  1
  O  O19  1  0.42265000  0.77519500  0.01649800  1
  O  O20  1  0.74726600  0.65943400  0.63861700  1
  O  O21  1  0.24726600  0.15943400  0.86138300  1
  O  O22  1  0.25273400  0.34056600  0.36138300  1
  O  O23  1  0.75273400  0.84056600  0.13861700  1
  O  O24  1  0.58373100  0.45932000  0.60425700  1
  O  O25  1  0.08373100  0.95932000  0.89574300  1
  O  O26  1  0.41626900  0.54068000  0.39574300  1
  O  O27  1  0.91626900  0.04068000  0.10425700  1
  O  O28  1  0.93675900  0.47192300  0.60673400  1
  O  O29  1  0.43675900  0.97192300  0.89326600  1
  O  O30  1  0.06324100  0.52807700  0.39326600  1
  O  O31  1  0.56324100  0.02807700  0.10673400  1
  O  O32  1  0.75445800  0.47713200  0.72360400  1
  O  O33  1  0.25445800  0.97713200  0.77639600  1
  O  O34  1  0.24554200  0.52286800  0.27639600  1
  O  O35  1  0.74554200  0.02286800  0.22360400  1
  O  O36  1  0.81632500  0.90960900  0.59805300  1
  O  O37  1  0.31632500  0.40960900  0.90194700  1
  O  O38  1  0.18367500  0.09039100  0.40194700  1
  O  O39  1  0.68367500  0.59039100  0.09805300  1
  O  O40  1  0.68752700  0.84416000  0.43947800  1
  O  O41  1  0.18752700  0.34416000  0.06052200  1
  O  O42  1  0.31247300  0.15584000  0.56052200  1
  O  O43  1  0.81247300  0.65584000  0.93947800  1
loop_
_geom_bond_atom_site_label_1
_geom_bond_atom_site_label_2
_geom_bond_distance
_geom_bond_site_symmetry_2
Cu0 O36 1.988591 1_555
Cu0 O40 2.011366 1_555
Cu0 O0 2.029097 1_555
Cu0 O20 2.037744 1_555
Cu0 O16 2.323859 1_655
Cu0 O4 2.452265 1_555
Cu1 O37 1.988591 1_555
Cu1 O41 2.011366 1_556
Cu1 O1 2.029097 1_556
Cu1 O21 2.037744 1_555
Cu1 O17 2.323859 1_555
Cu1 O5 2.452265 1_455
Cu2 O38 1.988591 1_555
Cu2 O42 2.011366 1_555
Cu2 O2 2.029097 1_555
Cu2 O22 2.037744 1_555
Cu2 O18 2.323859 1_455
Cu2 O6 2.452265 1_555
Cu3 O39 1.988591 1_555
Cu3 O43 2.011366 1_554
Cu3 O3 2.029097 1_554
Cu3 O23 2.037744 1_555
Cu3 O19 2.323859 1_555
Cu3 O7 2.452265 1_655
Cu4 O0 1.957489 1_555
Cu4 O2 1.957489 1_555
Cu4 O26 1.966767 1_555
Cu4 O24 1.966767 1_555
Cu5 O3 1.957489 1_444
Cu5 O1 1.957489 1_555
Cu5 O27 1.966767 1_455
Cu5 O25 1.966767 1_544
Cu6 O30 1.944290 1_555
Cu6 O28 1.944290 1_455
Cu6 O0 2.056834 1_455
Cu6 O2 2.056834 1_555
Cu6 O18 2.438920 1_455
Cu6 O16 2.438920 1_555
Cu7 O29 1.944290 1_544
Cu7 O31 1.944290 1_555
Cu7 O3 2.056834 1_544
Cu7 O1 2.056834 1_555
Cu7 O19 2.438920 1_545
Cu7 O17 2.438920 1_554
H0 O0 0.980651 1_555
H1 O1 0.980651 1_555
H2 O2 0.980651 1_555
H3 O3 0.980651 1_555
H4 O36 1.004399 1_555
H4 O10 1.684414 1_565
H5 O37 1.004399 1_555
H5 O11 1.684414 1_555
H6 O38 1.004399 1_555
H6 O8 1.684414 1_545
H7 O39 1.004399 1_555
H7 O9 1.684414 1_555
H8 O36 1.007233 1_555
H8 O12 1.698288 1_655
H9 O37 1.007233 1_555
H9 O13 1.698288 1_555
H10 O38 1.007233 1_555
H10 O14 1.698288 1_455
H11 O39 1.007233 1_555
H11 O15 1.698288 1_555
H12 O40 1.009169 1_555
H12 O8 1.667824 1_555
H13 O41 1.009169 1_555
H13 O9 1.667824 1_455
H14 O42 1.009169 1_555
H14 O10 1.667824 1_555
H15 O43 1.009169 1_555
H15 O11 1.667824 1_655
H16 O40 1.005594 1_555
H16 O14 1.702255 1_565
H17 O41 1.005594 1_555
H17 O15 1.702255 1_555
H18 O42 1.005594 1_555
H18 O12 1.702255 1_545
H19 O43 1.005594 1_555
H19 O13 1.702255 1_555
H20 N0 1.037571 1_555
H21 N1 1.037571 1_555
H22 N2 1.037571 1_555
H23 N3 1.037571 1_555
H24 N0 1.042312 1_555
H25 N1 1.042312 1_555
H26 N2 1.042312 1_555
H27 N3 1.042312 1_555
C0 H36 1.092739 1_555
C0 H32 1.093614 1_455
C0 H28 1.093995 1_555
C0 N0 1.490861 1_455
C1 H37 1.092739 1_555
C1 H33 1.093614 1_555
C1 H29 1.093995 1_555
C1 N1 1.490861 1_555
C2 H38 1.092739 1_555
C2 H34 1.093614 1_655
C2 H30 1.093995 1_555
C2 N2 1.490861 1_655
C3 H39 1.092739 1_555
C3 H35 1.093614 1_555
C3 H31 1.093995 1_555
C3 N3 1.490861 1_555
C4 H40 1.093312 1_555
C4 H48 1.094641 1_555
C4 H44 1.094722 1_555
C4 N0 1.488935 1_555
C5 H41 1.093312 1_555
C5 H49 1.094641 1_555
C5 H45 1.094722 1_555
C5 N1 1.488935 1_555
C6 H42 1.093316 1_555
C6 H50 1.094641 1_555
C6 H46 1.094722 1_555
C6 N2 1.488935 1_555
C7 H43 1.093312 1_555
C7 H51 1.094641 1_555
C7 H47 1.094722 1_555
C7 N3 1.488935 1_555
O4 S4 1.487656 1_555
O5 S5 1.487656 1_555
O6 S6 1.487656 1_555
O7 S7 1.487656 1_555
O8 S4 1.506944 1_555
O9 S5 1.506944 1_554
O10 S6 1.506944 1_555
O11 S7 1.506944 1_556
O12 S4 1.508700 1_555
O13 S5 1.508700 1_555
O14 S6 1.508700 1_555
O15 S7 1.508700 1_555
O16 S4 1.483811 1_555
O17 S5 1.483811 1_555
O18 S6 1.483811 1_555
O19 S7 1.483811 1_555
O20 S0 1.500967 1_555
O21 S1 1.500967 1_555
O22 S2 1.500967 1_555
O23 S3 1.500967 1_555
O24 S0 1.513188 1_555
O25 S1 1.513188 1_565
O26 S2 1.513188 1_555
O27 S3 1.513188 1_545
O28 S0 1.505800 1_555
O29 S1 1.505800 1_565
O30 S2 1.505800 1_555
O31 S3 1.505800 1_545
O32 S0 1.459733 1_555
O33 S1 1.459733 1_565
O34 S2 1.459733 1_555
O35 S3 1.459733 1_545
