# generated using pymatgen
data_NdFe5Bi4O15
_symmetry_space_group_name_H-M   'P 1'
_cell_length_a   3.75528876
_cell_length_b   22.07687924
_cell_length_c   4.89426159
_cell_angle_alpha   88.00459171
_cell_angle_beta   91.01804529
_cell_angle_gamma   120.78336180
_symmetry_Int_Tables_number   1
_chemical_formula_structural   NdFe5Bi4O15
_chemical_formula_sum   'Nd1 Fe5 Bi4 O15'
_cell_volume   348.37967735
_cell_formula_units_Z   1
loop_
 _symmetry_equiv_pos_site_id
 _symmetry_equiv_pos_as_xyz
  1  'x, y, z'
loop_
 _atom_site_type_symbol
 _atom_site_label
 _atom_site_symmetry_multiplicity
 _atom_site_fract_x
 _atom_site_fract_y
 _atom_site_fract_z
 _atom_site_occupancy
  Nd  Nd0  1  0.60405200  0.19577700  0.02663900  1
  Fe  Fe0  1  0.80693100  0.09485300  0.48342600  1
  Fe  Fe1  1  0.38987400  0.28934900  0.47504400  1
  Fe  Fe2  1  0.00016500  0.49217400  0.48712200  1
  Fe  Fe3  1  0.59645000  0.69139300  0.48234800  1
  Fe  Fe4  1  0.19458200  0.89066300  0.48320000  1
  Bi  Bi0  1  0.00003600  0.99733300  0.06917700  1
  Bi  Bi1  1  0.20633100  0.39929800  0.06716600  1
  Bi  Bi2  1  0.78334500  0.59822200  0.05383500  1
  Bi  Bi3  1  0.37816900  0.79769600  0.05159300  1
  O  O0  1  0.28607800  0.08847200  0.33987800  1
  O  O1  1  0.90594000  0.29525000  0.33119500  1
  O  O2  1  0.49934100  0.49250100  0.33756600  1
  O  O3  1  0.09667000  0.69197200  0.33346200  1
  O  O4  1  0.69840400  0.89255100  0.33179700  1
  O  O5  1  0.09743900  0.19159100  0.34399500  1
  O  O6  1  0.70172400  0.39313400  0.33869600  1
  O  O7  1  0.30039700  0.59258800  0.33791100  1
  O  O8  1  0.89892000  0.79229700  0.33843900  1
  O  O9  1  0.49567800  0.99168400  0.33550800  1
  O  O10  1  0.82982400  0.10103000  0.86402700  1
  O  O11  1  0.34232300  0.27343100  0.85290900  1
  O  O12  1  0.00862800  0.48881800  0.86454800  1
  O  O13  1  0.61359200  0.68704200  0.86132100  1
  O  O14  1  0.19510500  0.88388000  0.86069600  1
loop_
_geom_bond_atom_site_label_1
_geom_bond_atom_site_label_2
_geom_bond_distance
_geom_bond_site_symmetry_2
Nd0 O5 2.432479 1_655
Nd0 O1 2.439111 1_555
Nd0 O5 2.440392 1_555
Nd0 O11 2.494304 1_554
Nd0 O0 2.510936 1_555
Nd0 O11 2.542743 1_654
Nd0 O10 2.696413 1_454
Nd0 O10 2.771767 1_554
Fe0 O10 1.869723 1_555
Fe0 O5 1.938312 1_655
Fe0 O0 2.003800 1_555
Fe0 O0 2.015518 1_655
Fe0 O9 2.106593 1_545
Fe1 O11 1.864885 1_555
Fe1 O5 1.980038 1_555
Fe1 O1 2.001435 1_455
Fe1 O1 2.012973 1_555
Fe1 O6 2.059451 1_555
Fe2 O12 1.846489 1_555
Fe2 O2 2.009382 1_455
Fe2 O7 2.019153 1_555
Fe2 O2 2.020966 1_555
Fe2 O6 2.034186 1_455
Fe3 O13 1.855615 1_555
Fe3 O3 2.007213 1_555
Fe3 O8 2.019369 1_555
Fe3 O3 2.020696 1_655
Fe3 O7 2.022622 1_555
Fe4 O14 1.848466 1_555
Fe4 O4 2.012701 1_455
Fe4 O8 2.015396 1_455
Fe4 O4 2.024210 1_555
Fe4 O9 2.027433 1_555
Bi0 O0 2.209151 1_565
Bi0 O9 2.266396 1_455
Bi0 O9 2.306312 1_555
Bi0 O4 2.334288 1_455
Bi1 O2 2.239731 1_555
Bi1 O6 2.277796 1_455
Bi1 O6 2.324685 1_555
Bi1 O1 2.326282 1_455
Bi1 O12 2.603787 1_554
Bi1 O12 2.800254 1_654
Bi2 O7 2.254853 1_555
Bi2 O3 2.277814 1_655
Bi2 O2 2.406718 1_555
Bi2 O7 2.420305 1_655
Bi2 O13 2.503721 1_554
Bi3 O8 2.254481 1_455
Bi3 O4 2.296920 1_555
Bi3 O3 2.402180 1_555
Bi3 O8 2.436960 1_555
Bi3 O14 2.481517 1_554
Bi3 O14 2.812111 1_654
Bi3 O13 2.821824 1_454
