# generated using pymatgen
data_UAlNi
_symmetry_space_group_name_H-M   'P 1'
_cell_length_a   6.67267331
_cell_length_b   6.67267331
_cell_length_c   4.09889100
_cell_angle_alpha   90.00000000
_cell_angle_beta   90.00000000
_cell_angle_gamma   121.14180957
_symmetry_Int_Tables_number   1
_chemical_formula_structural   UAlNi
_chemical_formula_sum   'U3 Al3 Ni3'
_cell_volume   156.20107323
_cell_formula_units_Z   3
loop_
 _symmetry_equiv_pos_site_id
 _symmetry_equiv_pos_as_xyz
  1  'x, y, z'
loop_
 _atom_site_type_symbol
 _atom_site_label
 _atom_site_symmetry_multiplicity
 _atom_site_fract_x
 _atom_site_fract_y
 _atom_site_fract_z
 _atom_site_occupancy
  U  U0  1  0.57297500  0.57297500  0.50000000  1
  U  U1  1  0.00100800  0.42957600  0.50000000  1
  U  U2  1  0.42957600  0.00100800  0.50000000  1
  Al  Al0  1  0.23474800  0.23474800  0.00000000  1
  Al  Al1  1  0.00090200  0.76430500  0.00000000  1
  Al  Al2  1  0.76430500  0.00090200  0.00000000  1
  Ni  Ni0  1  0.99680300  0.99680300  0.50000000  1
  Ni  Ni1  1  0.66455100  0.33503300  0.00000000  1
  Ni  Ni2  1  0.33503300  0.66455100  0.00000000  1
loop_
_geom_bond_atom_site_label_1
_geom_bond_atom_site_label_2
_geom_bond_distance
_geom_bond_site_symmetry_2
Al0 Ni0 2.575773 1_444
Al0 Ni0 2.575773 1_445
Al0 Ni2 2.586087 1_555
Al0 Ni1 2.586087 1_555
Al1 Ni1 2.567598 1_455
Al1 Ni0 2.579080 1_455
Al1 Ni0 2.579080 1_454
Al1 Ni2 2.636078 1_555
Al2 Ni2 2.567598 1_545
Al2 Ni0 2.579080 1_545
Al2 Ni0 2.579080 1_544
Al2 Ni1 2.636078 1_555
Ni0 U0 2.779118 1_555
Ni0 U1 2.873342 1_665
Ni0 U2 2.873342 1_665
Ni1 U2 2.830504 1_555
Ni1 U2 2.830504 1_554
Ni1 U0 2.845683 1_555
Ni1 U0 2.845683 1_554
Ni1 U1 2.858954 1_655
Ni1 U1 2.858954 1_654
Ni2 U1 2.830504 1_554
Ni2 U1 2.830504 1_555
Ni2 U0 2.845683 1_555
Ni2 U0 2.845683 1_554
Ni2 U2 2.858954 1_565
Ni2 U2 2.858954 1_564
