# generated using pymatgen
data_Mg7Si4
_symmetry_space_group_name_H-M   'P 1'
_cell_length_a   5.37930700
_cell_length_b   6.06310348
_cell_length_c   13.83106706
_cell_angle_alpha   99.64461422
_cell_angle_beta   99.40058644
_cell_angle_gamma   93.68189363
_symmetry_Int_Tables_number   1
_chemical_formula_structural   Mg7Si4
_chemical_formula_sum   'Mg14 Si8'
_cell_volume   436.80656098
_cell_formula_units_Z   2
loop_
 _symmetry_equiv_pos_site_id
 _symmetry_equiv_pos_as_xyz
  1  'x, y, z'
loop_
 _atom_site_type_symbol
 _atom_site_label
 _atom_site_symmetry_multiplicity
 _atom_site_fract_x
 _atom_site_fract_y
 _atom_site_fract_z
 _atom_site_occupancy
  Mg  Mg0  1  0.31206200  0.96063100  0.20295300  1
  Mg  Mg1  1  0.22265100  0.50358500  0.26680700  1
  Mg  Mg2  1  0.92550300  0.89215400  0.36216400  1
  Mg  Mg3  1  0.73152000  0.33418500  0.33321000  1
  Mg  Mg4  1  0.98571500  0.50029600  0.03833300  1
  Mg  Mg5  1  0.23072200  0.90532300  0.57981200  1
  Mg  Mg6  1  0.16575900  0.35299600  0.83717700  1
  Mg  Mg7  1  0.39311200  0.43269500  0.65689400  1
  Mg  Mg8  1  0.48118000  0.24903000  0.04936100  1
  Mg  Mg9  1  0.48090700  0.73477600  0.01014100  1
  Mg  Mg10  1  0.97902100  0.97638900  0.98085400  1
  Mg  Mg11  1  0.31779800  0.87141800  0.80593400  1
  Mg  Mg12  1  0.82219100  0.22593800  0.54854700  1
  Mg  Mg13  1  0.65886000  0.68496000  0.51211600  1
  Si  Si0  1  0.67278600  0.21385300  0.86398300  1
  Si  Si1  1  0.80779900  0.01918900  0.16637600  1
  Si  Si2  1  0.71413200  0.61286100  0.18949900  1
  Si  Si3  1  0.90932200  0.61995100  0.69566500  1
  Si  Si4  1  0.70729300  0.59829000  0.84331400  1
  Si  Si5  1  0.43418300  0.96796000  0.40222400  1
  Si  Si6  1  0.26817300  0.33186200  0.44878100  1
  Si  Si7  1  0.77565000  0.00421000  0.70212500  1
loop_
_geom_bond_atom_site_label_1
_geom_bond_atom_site_label_2
_geom_bond_distance
_geom_bond_site_symmetry_2
Mg0 Si5 2.719105 1_555
Mg0 Si1 2.734172 1_465
Mg0 Si1 2.805831 1_565
Mg0 Mg1 3.078642 1_555
Mg0 Si2 3.121596 1_555
Mg0 Mg1 3.349093 1_565
Mg1 Si6 2.861510 1_555
Mg1 Si2 2.929127 1_455
Mg1 Mg3 3.040965 1_555
Mg1 Si2 3.083501 1_555
Mg1 Mg3 3.104594 1_455
Mg1 Si5 3.139341 1_555
Mg1 Mg2 3.158503 1_455
Mg1 Mg4 3.204783 1_455
Mg2 Si5 2.695125 1_655
Mg2 Si2 2.715552 1_555
Mg2 Si5 2.837702 1_555
Mg2 Si1 2.920373 1_565
Mg2 Si6 3.085103 1_665
Mg2 Mg5 3.170501 1_655
Mg3 Si2 2.810585 1_555
Mg3 Si1 2.841430 1_555
Mg3 Si5 3.025339 1_545
Mg3 Si6 3.065025 1_655
Mg3 Si6 3.173695 1_555
Mg4 Si2 2.760298 1_555
Mg4 Si0 2.925769 1_554
Mg4 Si4 3.033692 1_554
Mg5 Si5 2.917628 1_555
Mg5 Si7 3.102992 1_565
Mg5 Si3 3.162314 1_455
Mg5 Mg7 3.212252 1_565
Mg5 Si7 3.227296 1_465
Mg5 Mg7 3.339501 1_555
Mg6 Si0 2.831989 1_455
Mg6 Si0 2.891052 1_555
Mg6 Si4 2.966235 1_455
Mg6 Si3 2.969818 1_455
Mg6 Si7 3.031648 1_455
Mg6 Si4 3.166324 1_555
Mg7 Si6 2.799359 1_555
Mg7 Si4 2.829065 1_555
Mg7 Si3 2.862191 1_555
Mg7 Si3 2.996786 1_455
Mg8 Si2 2.759022 1_555
Mg8 Si1 2.790984 1_555
Mg8 Si0 2.896570 1_554
Mg9 Si1 2.802844 1_565
Mg9 Si4 2.810601 1_554
Mg9 Si2 2.826863 1_555
Mg10 Si0 2.759368 1_565
Mg10 Si1 2.842448 1_566
Mg10 Si4 2.865449 1_555
Mg11 Si0 2.652024 1_565
Mg11 Si3 2.678561 1_455
Mg11 Si4 2.788942 1_555
Mg11 Mg5 3.129250 1_555
Mg11 Si7 3.172316 1_565
Mg11 Si7 3.245927 1_465
Mg12 Si7 2.733006 1_555
Mg12 Si3 2.825416 1_555
Mg12 Si5 2.835299 1_545
Mg12 Si6 3.041797 1_655
Mg12 Mg5 3.052085 1_645
Mg12 Si6 3.224541 1_555
Mg13 Si5 2.693544 1_555
Mg13 Si3 2.775183 1_555
Mg13 Si6 2.821321 1_555
Mg13 Mg5 2.940487 1_555
Mg13 Si7 2.940734 1_565
Mg13 Mg5 3.199527 1_655
Si0 Si4 2.394624 1_555
Si0 Si7 2.544605 1_555
Si1 Si2 2.565686 1_545
Si3 Si7 2.473744 1_565
Si3 Si4 2.482985 1_555
Si5 Si6 2.458674 1_565
