# generated using pymatgen
data_MgMn2O5
_symmetry_space_group_name_H-M   'P 1'
_cell_length_a   3.57136000
_cell_length_b   4.43336400
_cell_length_c   11.48164300
_cell_angle_alpha   90.00000000
_cell_angle_beta   90.00000000
_cell_angle_gamma   90.00000000
_symmetry_Int_Tables_number   1
_chemical_formula_structural   MgMn2O5
_chemical_formula_sum   'Mg2 Mn4 O10'
_cell_volume   181.79044790
_cell_formula_units_Z   2
loop_
 _symmetry_equiv_pos_site_id
 _symmetry_equiv_pos_as_xyz
  1  'x, y, z'
loop_
 _atom_site_type_symbol
 _atom_site_label
 _atom_site_symmetry_multiplicity
 _atom_site_fract_x
 _atom_site_fract_y
 _atom_site_fract_z
 _atom_site_occupancy
  Mg  Mg0  1  0.50000000  0.11572300  0.00000000  1
  Mg  Mg1  1  0.00000000  0.88427700  0.50000000  1
  Mn  Mn0  1  0.00000000  0.56697400  0.84734200  1
  Mn  Mn1  1  0.50000000  0.43302600  0.65265800  1
  Mn  Mn2  1  0.50000000  0.43302600  0.34734200  1
  Mn  Mn3  1  0.00000000  0.56697400  0.15265800  1
  O  O0  1  0.50000000  0.57368700  0.50000000  1
  O  O1  1  0.00000000  0.42631300  0.00000000  1
  O  O2  1  0.50000000  0.45465100  0.82660300  1
  O  O3  1  0.00000000  0.54534900  0.67339700  1
  O  O4  1  0.50000000  0.45465100  0.17339700  1
  O  O5  1  0.00000000  0.54534900  0.32660300  1
  O  O6  1  0.00000000  0.95217700  0.11666800  1
  O  O7  1  0.50000000  0.04782300  0.38333200  1
  O  O8  1  0.50000000  0.04782300  0.61666800  1
  O  O9  1  0.00000000  0.95217700  0.88333200  1
loop_
_geom_bond_atom_site_label_1
_geom_bond_atom_site_label_2
_geom_bond_distance
_geom_bond_site_symmetry_2
Mg0 O1 2.254921 1_655
Mg0 O1 2.254921 1_555
Mg0 O9 2.347069 1_544
Mg0 O6 2.347069 1_545
Mg0 O9 2.347069 1_644
Mg0 O6 2.347069 1_645
Mg0 O4 2.494272 1_555
Mg0 O2 2.494272 1_554
Mg1 O0 2.254921 1_455
Mg1 O0 2.254921 1_555
Mg1 O8 2.347069 1_565
Mg1 O7 2.347069 1_465
Mg1 O8 2.347069 1_465
Mg1 O7 2.347069 1_565
Mg1 O3 2.494272 1_555
Mg1 O5 2.494272 1_555
Mn0 O9 1.757028 1_555
Mn0 O1 1.860393 1_556
Mn0 O2 1.869044 1_455
Mn0 O2 1.869044 1_555
Mn0 O3 1.999474 1_555
Mn1 O8 1.757028 1_555
Mn1 O0 1.860393 1_555
Mn1 O3 1.869044 1_555
Mn1 O3 1.869044 1_655
Mn1 O2 1.999474 1_555
Mn2 O7 1.757028 1_555
Mn2 O0 1.860393 1_555
Mn2 O5 1.869044 1_555
Mn2 O5 1.869044 1_655
Mn2 O4 1.999474 1_555
Mn3 O6 1.757028 1_555
Mn3 O1 1.860393 1_555
Mn3 O4 1.869044 1_555
Mn3 O4 1.869044 1_455
Mn3 O5 1.999474 1_555
