# generated using pymatgen
data_Hf3Ni
_symmetry_space_group_name_H-M   'P 1'
_cell_length_a   5.92399684
_cell_length_b   5.92399684
_cell_length_c   4.99494900
_cell_angle_alpha   90.00000000
_cell_angle_beta   90.00000000
_cell_angle_gamma   120.00000940
_symmetry_Int_Tables_number   1
_chemical_formula_structural   Hf3Ni
_chemical_formula_sum   'Hf6 Ni2'
_cell_volume   151.80682091
_cell_formula_units_Z   2
loop_
 _symmetry_equiv_pos_site_id
 _symmetry_equiv_pos_as_xyz
  1  'x, y, z'
loop_
 _atom_site_type_symbol
 _atom_site_label
 _atom_site_symmetry_multiplicity
 _atom_site_fract_x
 _atom_site_fract_y
 _atom_site_fract_z
 _atom_site_occupancy
  Hf  Hf0  1  0.65632500  0.82816300  0.25000000  1
  Hf  Hf1  1  0.17183700  0.34367500  0.25000000  1
  Hf  Hf2  1  0.82816300  0.17183700  0.75000000  1
  Hf  Hf3  1  0.34367500  0.17183700  0.75000000  1
  Hf  Hf4  1  0.82816300  0.65632500  0.75000000  1
  Hf  Hf5  1  0.17183700  0.82816300  0.25000000  1
  Ni  Ni0  1  0.66666700  0.33333300  0.25000000  1
  Ni  Ni1  1  0.33333300  0.66666700  0.75000000  1
loop_
_geom_bond_atom_site_label_1
_geom_bond_atom_site_label_2
_geom_bond_distance
_geom_bond_site_symmetry_2
Hf0 Hf1 2.870105 1_555
Hf0 Hf5 2.870105 1_555
Hf0 Ni0 2.962468 1_565
Hf0 Ni0 2.962480 1_555
Hf0 Ni1 2.997201 1_555
Hf0 Ni1 2.997201 1_554
Hf0 Hf1 3.053891 1_665
Hf0 Hf5 3.053891 1_655
Hf0 Hf2 3.057142 1_564
Hf0 Hf2 3.057142 1_565
Hf0 Hf4 3.057148 1_554
Hf0 Hf4 3.057148 1_555
Hf1 Hf5 2.870105 1_555
Hf1 Ni0 2.962468 1_455
Hf1 Ni0 2.962480 1_555
Hf1 Ni1 2.997201 1_554
Hf1 Ni1 2.997201 1_555
Hf1 Hf5 3.053891 1_545
Hf1 Hf2 3.057142 1_454
Hf1 Hf2 3.057142 1_455
Hf1 Hf3 3.057148 1_554
Hf1 Hf3 3.057148 1_555
Hf2 Hf4 2.870105 1_555
Hf2 Hf3 2.870105 1_555
Hf2 Ni1 2.962473 1_545
Hf2 Ni1 2.962473 1_655
Hf2 Ni0 2.997201 1_556
Hf2 Ni0 2.997201 1_555
Hf2 Hf3 3.053891 1_655
Hf2 Hf4 3.053891 1_545
Hf3 Hf4 2.870105 1_555
Hf3 Ni1 2.962468 1_545
Hf3 Ni1 2.962480 1_555
Hf3 Ni0 2.997201 1_556
Hf3 Ni0 2.997201 1_555
Hf3 Hf4 3.053891 1_445
Hf3 Hf5 3.057142 1_546
Hf3 Hf5 3.057142 1_545
Hf4 Ni1 2.962468 1_655
Hf4 Ni1 2.962480 1_555
Hf4 Ni0 2.997201 1_556
Hf4 Ni0 2.997201 1_555
Hf4 Hf5 3.057142 1_655
Hf4 Hf5 3.057142 1_656
Hf5 Ni0 2.962473 1_455
Hf5 Ni0 2.962473 1_565
Hf5 Ni1 2.997201 1_554
Hf5 Ni1 2.997201 1_555
