# generated using pymatgen
data_Tb5Si3O13
_symmetry_space_group_name_H-M   'P 1'
_cell_length_a   9.51090359
_cell_length_b   9.51090359
_cell_length_c   6.83990600
_cell_angle_alpha   90.00000000
_cell_angle_beta   90.00000000
_cell_angle_gamma   119.99999713
_symmetry_Int_Tables_number   1
_chemical_formula_structural   Tb5Si3O13
_chemical_formula_sum   'Tb10 Si6 O26'
_cell_volume   535.82668209
_cell_formula_units_Z   2
loop_
 _symmetry_equiv_pos_site_id
 _symmetry_equiv_pos_as_xyz
  1  'x, y, z'
loop_
 _atom_site_type_symbol
 _atom_site_label
 _atom_site_symmetry_multiplicity
 _atom_site_fract_x
 _atom_site_fract_y
 _atom_site_fract_z
 _atom_site_occupancy
  Tb  Tb0  1  0.76607100  0.99863300  0.75000000  1
  Tb  Tb1  1  0.23392900  0.00136700  0.25000000  1
  Tb  Tb2  1  0.23256100  0.23392900  0.75000000  1
  Tb  Tb3  1  0.76743900  0.76607100  0.25000000  1
  Tb  Tb4  1  0.00136700  0.76743900  0.75000000  1
  Tb  Tb5  1  0.99863300  0.23256100  0.25000000  1
  Tb  Tb6  1  0.66666700  0.33333300  0.00356400  1
  Tb  Tb7  1  0.33333300  0.66666700  0.99643600  1
  Tb  Tb8  1  0.33333300  0.66666700  0.50356400  1
  Tb  Tb9  1  0.66666700  0.33333300  0.49643600  1
  Si  Si0  1  0.97287300  0.37152100  0.75000000  1
  Si  Si1  1  0.02712700  0.62847900  0.25000000  1
  Si  Si2  1  0.39864700  0.02712700  0.75000000  1
  Si  Si3  1  0.60135300  0.97287300  0.25000000  1
  Si  Si4  1  0.62847900  0.60135300  0.75000000  1
  Si  Si5  1  0.37152100  0.39864700  0.25000000  1
  O  O0  1  0.51069900  0.68013800  0.75000000  1
  O  O1  1  0.48930100  0.31986200  0.25000000  1
  O  O2  1  0.16943900  0.48930100  0.75000000  1
  O  O3  1  0.83056100  0.51069900  0.25000000  1
  O  O4  1  0.31986200  0.83056100  0.75000000  1
  O  O5  1  0.68013800  0.16943900  0.25000000  1
  O  O6  1  0.91055100  0.24817600  0.93954600  1
  O  O7  1  0.08944900  0.75182400  0.06045400  1
  O  O8  1  0.33762500  0.08944900  0.93954600  1
  O  O9  1  0.08944900  0.75182400  0.43954600  1
  O  O10  1  0.66237500  0.91055100  0.06045400  1
  O  O11  1  0.91055100  0.24817600  0.56045400  1
  O  O12  1  0.75182400  0.66237500  0.93954600  1
  O  O13  1  0.66237500  0.91055100  0.43954600  1
  O  O14  1  0.24817600  0.33762500  0.06045400  1
  O  O15  1  0.33762500  0.08944900  0.56045400  1
  O  O16  1  0.24817600  0.33762500  0.43954600  1
  O  O17  1  0.75182400  0.66237500  0.56045400  1
  O  O18  1  0.87182000  0.47072800  0.75000000  1
  O  O19  1  0.12818000  0.52927200  0.25000000  1
  O  O20  1  0.59890800  0.12818000  0.75000000  1
  O  O21  1  0.40109200  0.87182000  0.25000000  1
  O  O22  1  0.52927200  0.40109200  0.75000000  1
  O  O23  1  0.47072800  0.59890800  0.25000000  1
  O  O24  1  0.00000000  0.00000000  0.75000000  1
  O  O25  1  0.00000000  0.00000000  0.25000000  1
loop_
_geom_bond_atom_site_label_1
_geom_bond_atom_site_label_2
_geom_bond_distance
_geom_bond_site_symmetry_2
O0 Si4 1.629629 1_555
O0 Tb8 2.342477 1_555
O0 Tb7 2.342477 1_555
O0 Tb0 2.778083 1_555
O1 Si5 1.629629 1_555
O1 Tb9 2.342477 1_555
O1 Tb6 2.342477 1_555
O1 Tb1 2.778083 1_555
O2 Si0 1.629637 1_455
O2 Tb8 2.342474 1_555
O2 Tb7 2.342474 1_555
O2 Tb2 2.778077 1_555
O3 Si1 1.629637 1_655
O3 Tb6 2.342474 1_555
O3 Tb9 2.342474 1_555
O3 Tb3 2.778077 1_555
O4 Si2 1.629638 1_565
O4 Tb8 2.342470 1_555
O4 Tb7 2.342470 1_555
O4 Tb4 2.778086 1_555
O5 Si3 1.629638 1_545
O5 Tb6 2.342470 1_555
O5 Tb9 2.342470 1_555
O5 Tb5 2.778086 1_555
O6 Si0 1.647135 1_555
O6 Tb5 2.314612 1_556
O6 Tb0 2.437352 1_545
O6 Tb6 2.847228 1_556
O7 Si1 1.647135 1_555
O7 Tb4 2.314612 1_554
O7 Tb1 2.437352 1_565
O7 Tb7 2.847228 1_554
O8 Si2 1.647130 1_555
O8 Tb1 2.314610 1_556
O8 Tb2 2.437359 1_555
O8 Tb6 2.847235 1_556
O9 Si1 1.647135 1_555
O9 Tb4 2.314612 1_555
O9 Tb1 2.437352 1_565
O9 Tb8 2.847228 1_555
O10 Si3 1.647130 1_555
O10 Tb0 2.314610 1_554
O10 Tb3 2.437359 1_555
O10 Tb7 2.847235 1_554
O11 Si0 1.647135 1_555
O11 Tb5 2.314612 1_555
O11 Tb0 2.437352 1_545
O11 Tb9 2.847228 1_555
O12 Si4 1.647135 1_555
O12 Tb3 2.314608 1_556
O12 Tb4 2.437351 1_655
O12 Tb6 2.847237 1_556
O13 Si3 1.647130 1_555
O13 Tb0 2.314610 1_555
O13 Tb3 2.437359 1_555
O13 Tb8 2.847235 1_555
O14 Si5 1.647135 1_555
O14 Tb2 2.314608 1_554
O14 Tb5 2.437351 1_455
O14 Tb7 2.847237 1_554
O15 Si2 1.647130 1_555
O15 Tb1 2.314610 1_555
O15 Tb2 2.437359 1_555
O15 Tb9 2.847235 1_555
O16 Si5 1.647135 1_555
O16 Tb2 2.314608 1_555
O16 Tb5 2.437351 1_455
O16 Tb8 2.847237 1_555
O17 Si4 1.647135 1_555
O17 Tb3 2.314608 1_555
O17 Tb4 2.437351 1_655
O17 Tb9 2.847237 1_555
O18 Si0 1.649502 1_555
O18 Tb6 2.443973 1_556
O18 Tb9 2.443973 1_555
O18 Tb4 2.450453 1_655
O19 Si1 1.649502 1_555
O19 Tb8 2.443973 1_555
O19 Tb7 2.443973 1_554
O19 Tb5 2.450453 1_455
O20 Si2 1.649510 1_555
O20 Tb6 2.443972 1_556
O20 Tb9 2.443972 1_555
O20 Tb0 2.450444 1_545
O21 Si3 1.649510 1_555
O21 Tb7 2.443972 1_554
O21 Tb8 2.443972 1_555
O21 Tb1 2.450444 1_565
O22 Si4 1.649510 1_555
O22 Tb6 2.443978 1_556
O22 Tb9 2.443978 1_555
O22 Tb2 2.450452 1_555
O23 Si5 1.649510 1_555
O23 Tb8 2.443978 1_555
O23 Tb7 2.443978 1_554
O23 Tb3 2.450452 1_555
O24 Tb4 2.218395 1_545
O24 Tb2 2.218399 1_555
O24 Tb0 2.218404 1_445
O25 Tb5 2.218395 1_455
O25 Tb3 2.218399 1_445
O25 Tb1 2.218404 1_555
