# generated using pymatgen
data_Li9Mn2Co5O16
_symmetry_space_group_name_H-M   'P 1'
_cell_length_a   19.52274741
_cell_length_b   19.52274741
_cell_length_c   5.17308084
_cell_angle_alpha   88.16895787
_cell_angle_beta   88.16895787
_cell_angle_gamma   8.45827396
_symmetry_Int_Tables_number   1
_chemical_formula_structural   Li9Mn2Co5O16
_chemical_formula_sum   'Li9 Mn2 Co5 O16'
_cell_volume   289.86023951
_cell_formula_units_Z   1
loop_
 _symmetry_equiv_pos_site_id
 _symmetry_equiv_pos_as_xyz
  1  'x, y, z'
loop_
 _atom_site_type_symbol
 _atom_site_label
 _atom_site_symmetry_multiplicity
 _atom_site_fract_x
 _atom_site_fract_y
 _atom_site_fract_z
 _atom_site_occupancy
  Li  Li0  1  0.43912000  0.43912000  0.17712200  1
  Li  Li1  1  0.31443700  0.31443700  0.55852400  1
  Li  Li2  1  0.18530800  0.18530800  0.93900000  1
  Li  Li3  1  0.05897800  0.05897800  0.33430200  1
  Li  Li4  1  0.94110500  0.94110500  0.66839200  1
  Li  Li5  1  0.81393000  0.81393000  0.06058500  1
  Li  Li6  1  0.68586900  0.68586900  0.43805200  1
  Li  Li7  1  0.56113300  0.56113300  0.82257500  1
  Li  Li8  1  0.50001600  0.50001600  0.50020500  1
  Mn  Mn0  1  0.00017200  0.00017200  0.00082100  1
  Mn  Mn1  1  0.74984400  0.74984400  0.74960800  1
  Co  Co0  1  0.87558800  0.87558800  0.37267000  1
  Co  Co1  1  0.62467200  0.62467200  0.12771800  1
  Co  Co2  1  0.37515700  0.37515700  0.87199700  1
  Co  Co3  1  0.24987000  0.24987000  0.24988000  1
  Co  Co4  1  0.12472800  0.12472800  0.62672300  1
  O  O0  1  0.47256200  0.47256200  0.85780500  1
  O  O1  1  0.34560900  0.34560900  0.21914000  1
  O  O2  1  0.22118300  0.22118300  0.61752400  1
  O  O3  1  0.09709200  0.09709200  0.97771100  1
  O  O4  1  0.97085700  0.97085700  0.31020300  1
  O  O5  1  0.84562300  0.84562300  0.71507700  1
  O  O6  1  0.72232400  0.72232400  0.11810700  1
  O  O7  1  0.59655100  0.59655100  0.47613600  1
  O  O8  1  0.40390000  0.40390000  0.52887800  1
  O  O9  1  0.27874100  0.27874100  0.88262100  1
  O  O10  1  0.15428100  0.15428100  0.27893500  1
  O  O11  1  0.02932700  0.02932700  0.68997000  1
  O  O12  1  0.90296400  0.90296400  0.02695700  1
  O  O13  1  0.77747500  0.77747500  0.38130000  1
  O  O14  1  0.65393000  0.65393000  0.77868700  1
  O  O15  1  0.52765300  0.52765300  0.14277500  1
loop_
_geom_bond_atom_site_label_1
_geom_bond_atom_site_label_2
_geom_bond_distance
_geom_bond_site_symmetry_2
Li0 O4 2.031863 1_545
Li0 O4 2.031863 1_455
Li0 O0 2.070390 1_554
Li0 O12 2.174496 1_455
Li0 O12 2.174496 1_545
Li0 O8 2.243234 1_555
Li1 O5 2.065509 1_455
Li1 O5 2.065509 1_545
Li1 O1 2.102173 1_555
Li1 O9 2.143272 1_555
Li1 O13 2.251518 1_545
Li1 O13 2.251518 1_455
Li2 O14 2.078061 1_545
Li2 O14 2.078061 1_455
Li2 O10 2.101401 1_556
Li2 O2 2.137341 1_555
Li2 O6 2.257071 1_546
Li2 O6 2.257071 1_456
Li3 O11 2.140601 1_555
Li3 O15 2.149350 1_455
Li3 O15 2.149350 1_545
Li3 O7 2.195552 1_545
Li3 O7 2.195552 1_455
Li3 O3 2.330242 1_554
Li4 O0 2.147135 1_655
Li4 O0 2.147135 1_565
Li4 O4 2.153601 1_555
Li4 O8 2.181621 1_565
Li4 O8 2.181621 1_655
Li4 O12 2.338767 1_556
Li5 O1 2.081350 1_565
Li5 O1 2.081350 1_655
Li5 O5 2.139216 1_554
Li5 O13 2.148652 1_555
Li5 O9 2.208774 1_564
Li5 O9 2.208774 1_654
Li6 O10 2.080411 1_565
Li6 O10 2.080411 1_655
Li6 O14 2.124009 1_555
Li6 O6 2.145663 1_555
Li6 O2 2.215275 1_565
Li6 O2 2.215275 1_655
Li7 O11 2.032647 1_655
Li7 O11 2.032647 1_565
Li7 O15 2.074836 1_556
Li7 O3 2.179319 1_565
Li7 O3 2.179319 1_655
Li7 O7 2.226094 1_555
Li8 O4 2.097513 1_545
Li8 O4 2.097513 1_455
Li8 O11 2.100217 1_565
Li8 O11 2.100217 1_655
Li8 O0 2.106709 1_555
Li8 O15 2.109377 1_555
Mn0 O4 1.935827 1_445
Mn0 O11 1.938481 1_554
Mn0 O15 1.951273 1_545
Mn0 O15 1.951273 1_455
Mn0 O0 1.956261 1_454
Mn0 O0 1.956261 1_544
Mn1 O2 1.958072 1_655
Mn1 O2 1.958072 1_565
Mn1 O9 1.965192 1_655
Mn1 O9 1.965192 1_565
Mn1 O6 2.156693 1_556
Mn1 O13 2.157865 1_555
Co0 O8 1.999558 1_655
Co0 O8 1.999558 1_565
Co0 O1 2.031181 1_565
Co0 O1 2.031181 1_655
Co0 O12 2.052455 1_555
Co0 O5 2.089621 1_555
Co1 O3 1.970203 1_654
Co1 O3 1.970203 1_564
Co1 O10 2.017866 1_655
Co1 O10 2.017866 1_565
Co1 O7 2.078750 1_555
Co1 O14 2.103858 1_554
Co2 O12 1.985800 1_456
Co2 O12 1.985800 1_546
Co2 O5 2.028328 1_455
Co2 O5 2.028328 1_545
Co2 O8 2.067833 1_555
Co2 O1 2.101503 1_556
Co3 O6 1.932566 1_545
Co3 O6 1.932566 1_455
Co3 O13 1.933193 1_545
Co3 O13 1.933193 1_455
Co3 O2 2.174559 1_555
Co3 O9 2.176341 1_554
Co4 O7 1.984491 1_455
Co4 O7 1.984491 1_545
Co4 O14 2.010234 1_545
Co4 O14 2.010234 1_455
Co4 O3 2.080760 1_555
Co4 O10 2.104398 1_555
