# generated using pymatgen
data_Fe(ReO5)3
_symmetry_space_group_name_H-M   'P 1'
_cell_length_a   8.08773800
_cell_length_b   8.29708159
_cell_length_c   11.73399946
_cell_angle_alpha   85.05364617
_cell_angle_beta   84.30550035
_cell_angle_gamma   64.54286533
_symmetry_Int_Tables_number   1
_chemical_formula_structural   Fe(ReO5)3
_chemical_formula_sum   'Fe2 Re6 O30'
_cell_volume   706.61317364
_cell_formula_units_Z   2
loop_
 _symmetry_equiv_pos_site_id
 _symmetry_equiv_pos_as_xyz
  1  'x, y, z'
loop_
 _atom_site_type_symbol
 _atom_site_label
 _atom_site_symmetry_multiplicity
 _atom_site_fract_x
 _atom_site_fract_y
 _atom_site_fract_z
 _atom_site_occupancy
  Fe  Fe0  1  0.29465200  0.39849700  0.74794800  1
  Fe  Fe1  1  0.70534800  0.60150300  0.25205200  1
  Re  Re0  1  0.78190800  0.67302500  0.76228400  1
  Re  Re1  1  0.21809200  0.32697500  0.23771600  1
  Re  Re2  1  0.22625300  0.76436100  0.92492700  1
  Re  Re3  1  0.77374700  0.23563900  0.07507300  1
  Re  Re4  1  0.15531400  0.12439100  0.59618700  1
  Re  Re5  1  0.84468600  0.87560900  0.40381300  1
  O  O0  1  0.02596200  0.54178300  0.74740100  1
  O  O1  1  0.97403800  0.45821700  0.25259900  1
  O  O2  1  0.32629100  0.56746400  0.84096700  1
  O  O3  1  0.67370900  0.43253600  0.15903300  1
  O  O4  1  0.29354600  0.22556400  0.64593200  1
  O  O5  1  0.70645400  0.77443600  0.35406800  1
  O  O6  1  0.28655900  0.25923200  0.87470100  1
  O  O7  1  0.71344100  0.74076800  0.12529900  1
  O  O8  1  0.56329700  0.29292200  0.71138800  1
  O  O9  1  0.43670300  0.70707800  0.28861200  1
  O  O10  1  0.36285000  0.51178100  0.61560500  1
  O  O11  1  0.63715000  0.48821900  0.38439500  1
  O  O12  1  0.72116100  0.89858000  0.72787300  1
  O  O13  1  0.27883900  0.10142000  0.27212700  1
  O  O14  1  0.67389800  0.60049200  0.67120800  1
  O  O15  1  0.32610200  0.39950800  0.32879200  1
  O  O16  1  0.69611000  0.65089200  0.90299400  1
  O  O17  1  0.30389000  0.34910800  0.09700600  1
  O  O18  1  0.30056700  0.71374000  0.06285500  1
  O  O19  1  0.69943300  0.28626000  0.93714500  1
  O  O20  1  0.28814000  0.92993800  0.85886300  1
  O  O21  1  0.71186000  0.07006200  0.14113700  1
  O  O22  1  0.98966100  0.84282600  0.93371700  1
  O  O23  1  0.01033900  0.15717400  0.06628300  1
  O  O24  1  0.00853600  0.09698900  0.70721900  1
  O  O25  1  0.99146400  0.90301100  0.29278100  1
  O  O26  1  0.02037700  0.25994500  0.48825800  1
  O  O27  1  0.97962300  0.74005500  0.51174200  1
  O  O28  1  0.29561900  0.91813100  0.54250600  1
  O  O29  1  0.70438100  0.08186900  0.45749400  1
loop_
_geom_bond_atom_site_label_1
_geom_bond_atom_site_label_2
_geom_bond_distance
_geom_bond_site_symmetry_2
Fe0 O6 1.816839 1_555
Fe0 O10 1.903477 1_555
Fe0 O4 1.949650 1_555
Fe0 O2 1.962124 1_555
Fe0 O8 1.978833 1_555
Fe0 O0 1.978952 1_555
Fe1 O7 1.816839 1_555
Fe1 O11 1.903477 1_555
Fe1 O5 1.949650 1_555
Fe1 O3 1.962124 1_555
Fe1 O9 1.978833 1_555
Fe1 O1 1.978952 1_555
O0 Re0 1.796929 1_455
O1 Re1 1.796929 1_655
O2 Re2 1.810292 1_555
O3 Re3 1.810292 1_555
O4 Re4 1.821002 1_555
O5 Re5 1.821002 1_555
O12 Re0 1.739359 1_555
O13 Re1 1.739359 1_555
O14 Re0 1.736515 1_555
O15 Re1 1.736515 1_555
O16 Re0 1.752494 1_555
O17 Re1 1.752494 1_555
O18 Re2 1.736612 1_554
O19 Re3 1.736612 1_556
O20 Re2 1.751936 1_555
O21 Re3 1.751936 1_555
O22 Re2 1.731307 1_655
O23 Re3 1.731307 1_455
O24 Re4 1.741361 1_555
O25 Re5 1.741361 1_555
O26 Re4 1.741638 1_555
O27 Re5 1.741638 1_555
O28 Re4 1.728514 1_565
O29 Re5 1.728514 1_545
