# generated using pymatgen
data_MgGa5
_symmetry_space_group_name_H-M   'P 1'
_cell_length_a   14.60300097
_cell_length_b   14.60300097
_cell_length_c   10.01068800
_cell_angle_alpha   90.00000000
_cell_angle_beta   90.00000000
_cell_angle_gamma   154.74554472
_symmetry_Int_Tables_number   1
_chemical_formula_structural   MgGa5
_chemical_formula_sum   'Mg8 Ga40'
_cell_volume   910.77012485
_cell_formula_units_Z   8
loop_
 _symmetry_equiv_pos_site_id
 _symmetry_equiv_pos_as_xyz
  1  'x, y, z'
loop_
 _atom_site_type_symbol
 _atom_site_label
 _atom_site_symmetry_multiplicity
 _atom_site_fract_x
 _atom_site_fract_y
 _atom_site_fract_z
 _atom_site_occupancy
  Mg  Mg0_0  1  0.38933600  0.11066400  0.25000000  1
  Mg  Mg0_1  1  0.38933600  0.11066400  0.75000000  1
  Mg  Mg0_2  1  0.38933600  0.61066400  0.25000000  1
  Mg  Mg0_3  1  0.38933600  0.61066400  0.75000000  1
  Mg  Mg0_4  1  0.88933600  0.11066400  0.25000000  1
  Mg  Mg0_5  1  0.88933600  0.11066400  0.75000000  1
  Mg  Mg0_6  1  0.88933600  0.61066400  0.25000000  1
  Mg  Mg0_7  1  0.88933600  0.61066400  0.75000000  1
  Ga  Ga0_0  1  0.49976750  0.00023250  0.00000000  1
  Ga  Ga0_1  1  0.49976750  0.00023250  0.50000000  1
  Ga  Ga0_2  1  0.49976750  0.50023250  0.00000000  1
  Ga  Ga0_3  1  0.49976750  0.50023250  0.50000000  1
  Ga  Ga0_4  1  0.99976750  0.00023250  0.00000000  1
  Ga  Ga0_5  1  0.99976750  0.00023250  0.50000000  1
  Ga  Ga0_6  1  0.99976750  0.50023250  0.00000000  1
  Ga  Ga0_7  1  0.99976750  0.50023250  0.50000000  1
  Ga  Ga1_0  1  0.16725700  0.33274300  0.00000000  1
  Ga  Ga1_1  1  0.16725700  0.33274300  0.50000000  1
  Ga  Ga1_2  1  0.16725700  0.83274300  0.00000000  1
  Ga  Ga1_3  1  0.16725700  0.83274300  0.50000000  1
  Ga  Ga1_4  1  0.66725700  0.33274300  0.00000000  1
  Ga  Ga1_5  1  0.66725700  0.33274300  0.50000000  1
  Ga  Ga1_6  1  0.66725700  0.83274300  0.00000000  1
  Ga  Ga1_7  1  0.66725700  0.83274300  0.50000000  1
  Ga  Ga2_0  1  0.33238500  0.16761500  0.00000000  1
  Ga  Ga2_1  1  0.33238500  0.16761500  0.50000000  1
  Ga  Ga2_2  1  0.33238500  0.66761500  0.00000000  1
  Ga  Ga2_3  1  0.33238500  0.66761500  0.50000000  1
  Ga  Ga2_4  1  0.83238500  0.16761500  0.00000000  1
  Ga  Ga2_5  1  0.83238500  0.16761500  0.50000000  1
  Ga  Ga2_6  1  0.83238500  0.66761500  0.00000000  1
  Ga  Ga2_7  1  0.83238500  0.66761500  0.50000000  1
  Ga  Ga3_0  1  0.05415600  0.44584400  0.25000000  1
  Ga  Ga3_1  1  0.05415600  0.44584400  0.75000000  1
  Ga  Ga3_2  1  0.05415600  0.94584400  0.25000000  1
  Ga  Ga3_3  1  0.05415600  0.94584400  0.75000000  1
  Ga  Ga3_4  1  0.55415600  0.44584400  0.25000000  1
  Ga  Ga3_5  1  0.55415600  0.44584400  0.75000000  1
  Ga  Ga3_6  1  0.55415600  0.94584400  0.25000000  1
  Ga  Ga3_7  1  0.55415600  0.94584400  0.75000000  1
  Ga  Ga4_0  1  0.22376500  0.27623500  0.25000000  1
  Ga  Ga4_1  1  0.22376500  0.27623500  0.75000000  1
  Ga  Ga4_2  1  0.22376500  0.77623500  0.25000000  1
  Ga  Ga4_3  1  0.22376500  0.77623500  0.75000000  1
  Ga  Ga4_4  1  0.72376500  0.27623500  0.25000000  1
  Ga  Ga4_5  1  0.72376500  0.27623500  0.75000000  1
  Ga  Ga4_6  1  0.72376500  0.77623500  0.25000000  1
  Ga  Ga4_7  1  0.72376500  0.77623500  0.75000000  1
loop_
_geom_bond_atom_site_label_1
_geom_bond_atom_site_label_2
_geom_bond_distance
_geom_bond_site_symmetry_2
Mg0_0 Mg0_6 3.192318 1_555
Mg0_0 Mg0_6 3.192318 1_445
Mg0_1 Mg0_7 3.192318 1_555
Mg0_1 Mg0_7 3.192318 1_445
Mg0_2 Mg0_4 3.192318 1_455
Mg0_2 Mg0_4 3.192318 1_565
Mg0_3 Mg0_5 3.192318 1_455
Mg0_3 Mg0_5 3.192318 1_565
Ga0_0 Ga1_2 2.842068 1_545
Ga0_0 Ga1_4 2.842068 1_555
Ga0_0 Ga2_2 2.844592 1_545
Ga0_0 Ga2_4 2.844592 1_555
Ga0_0 Ga3_6 2.943811 1_545
Ga0_0 Ga3_7 2.943811 1_544
Ga0_0 Ga4_2 3.059454 1_545
Ga0_0 Ga4_3 3.059454 1_544
Ga0_0 Ga4_4 3.059454 1_555
Ga0_0 Ga4_5 3.059454 1_554
Ga0_1 Ga1_3 2.842068 1_545
Ga0_1 Ga1_5 2.842068 1_555
Ga0_1 Ga2_3 2.844592 1_545
Ga0_1 Ga2_5 2.844592 1_555
Ga0_1 Ga3_6 2.943811 1_545
Ga0_1 Ga3_7 2.943811 1_545
Ga0_1 Ga4_2 3.059454 1_545
Ga0_1 Ga4_3 3.059454 1_545
Ga0_1 Ga4_4 3.059454 1_555
Ga0_1 Ga4_5 3.059454 1_555
Ga0_2 Ga1_0 2.842068 1_555
Ga0_2 Ga1_6 2.842068 1_555
Ga0_2 Ga2_0 2.844592 1_555
Ga0_2 Ga2_6 2.844592 1_555
Ga0_2 Ga3_4 2.943811 1_555
Ga0_2 Ga3_5 2.943811 1_554
Ga0_2 Ga4_0 3.059454 1_555
Ga0_2 Ga4_1 3.059454 1_554
Ga0_2 Ga4_6 3.059454 1_555
Ga0_2 Ga4_7 3.059454 1_554
Ga0_3 Ga1_1 2.842068 1_555
Ga0_3 Ga1_7 2.842068 1_555
Ga0_3 Ga2_1 2.844592 1_555
Ga0_3 Ga2_7 2.844592 1_555
Ga0_3 Ga3_5 2.943811 1_555
Ga0_3 Ga3_4 2.943811 1_555
Ga0_3 Ga4_0 3.059454 1_555
Ga0_3 Ga4_1 3.059454 1_555
Ga0_3 Ga4_7 3.059454 1_555
Ga0_3 Ga4_6 3.059454 1_555
Ga0_4 Ga1_6 2.842068 1_545
Ga0_4 Ga1_0 2.842068 1_655
Ga0_4 Ga2_0 2.844592 1_655
Ga0_4 Ga2_6 2.844592 1_545
Ga0_4 Ga3_2 2.943811 1_645
Ga0_4 Ga3_3 2.943811 1_644
Ga0_4 Ga4_6 3.059454 1_545
Ga0_4 Ga4_0 3.059454 1_655
Ga0_4 Ga4_7 3.059454 1_544
Ga0_4 Ga4_1 3.059454 1_654
Ga0_5 Ga1_7 2.842068 1_545
Ga0_5 Ga1_1 2.842068 1_655
Ga0_5 Ga2_1 2.844592 1_655
Ga0_5 Ga2_7 2.844592 1_545
Ga0_5 Ga3_2 2.943811 1_645
Ga0_5 Ga3_3 2.943811 1_645
Ga0_5 Ga4_7 3.059454 1_545
Ga0_5 Ga4_6 3.059454 1_545
Ga0_5 Ga4_0 3.059454 1_655
Ga0_5 Ga4_1 3.059454 1_655
Ga0_6 Ga1_4 2.842068 1_555
Ga0_6 Ga1_2 2.842068 1_655
Ga0_6 Ga2_4 2.844592 1_555
Ga0_6 Ga2_2 2.844592 1_655
Ga0_6 Ga3_0 2.943811 1_655
Ga0_6 Ga3_1 2.943811 1_654
Ga0_6 Ga4_4 3.059454 1_555
Ga0_6 Ga4_2 3.059454 1_655
Ga0_6 Ga4_5 3.059454 1_554
Ga0_6 Ga4_3 3.059454 1_654
Ga0_7 Ga1_5 2.842068 1_555
Ga0_7 Ga1_3 2.842068 1_655
Ga0_7 Ga2_5 2.844592 1_555
Ga0_7 Ga2_3 2.844592 1_655
Ga0_7 Ga3_0 2.943811 1_655
Ga0_7 Ga3_1 2.943811 1_655
Ga0_7 Ga4_4 3.059454 1_555
Ga0_7 Ga4_5 3.059454 1_555
Ga0_7 Ga4_3 3.059454 1_655
Ga0_7 Ga4_2 3.059454 1_655
Ga1_0 Ga2_2 2.898000 1_555
Ga1_0 Ga2_4 2.898000 1_455
Ga1_0 Ga4_0 2.976060 1_555
Ga1_0 Ga4_1 2.976060 1_554
Ga1_0 Mg0_2 3.073156 1_555
Ga1_0 Mg0_3 3.073156 1_554
Ga1_0 Mg0_4 3.073156 1_455
Ga1_0 Mg0_5 3.073156 1_454
Ga1_1 Ga2_3 2.898000 1_555
Ga1_1 Ga2_5 2.898000 1_455
Ga1_1 Ga4_0 2.976060 1_555
Ga1_1 Ga4_1 2.976060 1_555
Ga1_1 Mg0_2 3.073156 1_555
Ga1_1 Mg0_3 3.073156 1_555
Ga1_1 Mg0_5 3.073156 1_455
Ga1_1 Mg0_4 3.073156 1_455
Ga1_2 Ga2_6 2.898000 1_455
Ga1_2 Ga2_0 2.898000 1_565
Ga1_2 Ga4_2 2.976060 1_555
Ga1_2 Ga4_3 2.976060 1_554
Ga1_2 Mg0_0 3.073156 1_565
Ga1_2 Mg0_6 3.073156 1_455
Ga1_2 Mg0_1 3.073156 1_564
Ga1_2 Mg0_7 3.073156 1_454
Ga1_3 Ga2_7 2.898000 1_455
Ga1_3 Ga2_1 2.898000 1_565
Ga1_3 Ga4_2 2.976060 1_555
Ga1_3 Ga4_3 2.976060 1_555
Ga1_3 Mg0_1 3.073156 1_565
Ga1_3 Mg0_0 3.073156 1_565
Ga1_3 Mg0_7 3.073156 1_455
Ga1_3 Mg0_6 3.073156 1_455
Ga1_4 Ga2_6 2.898000 1_555
Ga1_4 Ga2_0 2.898000 1_555
Ga1_4 Ga4_4 2.976060 1_555
Ga1_4 Ga4_5 2.976060 1_554
Ga1_4 Mg0_6 3.073156 1_555
Ga1_4 Mg0_7 3.073156 1_554
Ga1_4 Mg0_0 3.073156 1_555
Ga1_4 Mg0_1 3.073156 1_554
Ga1_5 Ga2_7 2.898000 1_555
Ga1_5 Ga2_1 2.898000 1_555
Ga1_5 Ga4_5 2.976060 1_555
Ga1_5 Ga4_4 2.976060 1_555
Ga1_5 Mg0_7 3.073156 1_555
Ga1_5 Mg0_6 3.073156 1_555
Ga1_5 Mg0_0 3.073156 1_555
Ga1_5 Mg0_1 3.073156 1_555
Ga1_6 Ga2_2 2.898000 1_555
Ga1_6 Ga2_4 2.898000 1_565
Ga1_6 Ga4_6 2.976060 1_555
Ga1_6 Ga4_7 2.976060 1_554
Ga1_6 Mg0_4 3.073156 1_565
Ga1_6 Mg0_5 3.073156 1_564
Ga1_6 Mg0_2 3.073156 1_555
Ga1_6 Mg0_3 3.073156 1_554
Ga1_7 Ga2_3 2.898000 1_555
Ga1_7 Ga2_5 2.898000 1_565
Ga1_7 Ga4_7 2.976060 1_555
Ga1_7 Ga4_6 2.976060 1_555
Ga1_7 Mg0_4 3.073156 1_565
Ga1_7 Mg0_5 3.073156 1_565
Ga1_7 Mg0_3 3.073156 1_555
Ga1_7 Mg0_2 3.073156 1_555
Ga2_0 Mg0_0 2.982911 1_555
Ga2_0 Mg0_1 2.982911 1_554
Ga2_0 Ga3_4 3.075441 1_555
Ga2_0 Ga3_5 3.075441 1_554
Ga2_0 Ga3_2 3.075441 1_545
Ga2_0 Ga3_3 3.075441 1_544
Ga2_1 Mg0_1 2.982911 1_555
Ga2_1 Mg0_0 2.982911 1_555
Ga2_1 Ga3_4 3.075441 1_555
Ga2_1 Ga3_5 3.075441 1_555
Ga2_1 Ga3_3 3.075441 1_545
Ga2_1 Ga3_2 3.075441 1_545
Ga2_2 Mg0_2 2.982911 1_555
Ga2_2 Mg0_3 2.982911 1_554
Ga2_2 Ga3_6 3.075441 1_555
Ga2_2 Ga3_7 3.075441 1_554
Ga2_2 Ga3_0 3.075441 1_555
Ga2_2 Ga3_1 3.075441 1_554
Ga2_3 Mg0_3 2.982911 1_555
Ga2_3 Mg0_2 2.982911 1_555
Ga2_3 Ga3_7 3.075441 1_555
Ga2_3 Ga3_6 3.075441 1_555
Ga2_3 Ga3_0 3.075441 1_555
Ga2_3 Ga3_1 3.075441 1_555
Ga2_4 Mg0_4 2.982911 1_555
Ga2_4 Mg0_5 2.982911 1_554
Ga2_4 Ga3_0 3.075441 1_655
Ga2_4 Ga3_1 3.075441 1_654
Ga2_4 Ga3_6 3.075441 1_545
Ga2_4 Ga3_7 3.075441 1_544
Ga2_5 Mg0_4 2.982911 1_555
Ga2_5 Mg0_5 2.982911 1_555
Ga2_5 Ga3_0 3.075441 1_655
Ga2_5 Ga3_1 3.075441 1_655
Ga2_5 Ga3_6 3.075441 1_545
Ga2_5 Ga3_7 3.075441 1_545
Ga2_6 Mg0_6 2.982911 1_555
Ga2_6 Mg0_7 2.982911 1_554
Ga2_6 Ga3_2 3.075441 1_655
Ga2_6 Ga3_3 3.075441 1_654
Ga2_6 Ga3_4 3.075441 1_555
Ga2_6 Ga3_5 3.075441 1_554
Ga2_7 Mg0_6 2.982911 1_555
Ga2_7 Mg0_7 2.982911 1_555
Ga2_7 Ga3_3 3.075441 1_655
Ga2_7 Ga3_2 3.075441 1_655
Ga2_7 Ga3_5 3.075441 1_555
Ga2_7 Ga3_4 3.075441 1_555
Ga3_0 Ga4_4 2.792295 1_455
Ga3_0 Ga4_2 2.792295 1_555
Ga3_0 Mg0_4 2.905330 1_455
Ga3_0 Mg0_2 2.905330 1_555
Ga3_1 Ga4_5 2.792295 1_455
Ga3_1 Ga4_3 2.792295 1_555
Ga3_1 Mg0_5 2.905330 1_455
Ga3_1 Mg0_3 2.905330 1_555
Ga3_2 Ga4_6 2.792295 1_455
Ga3_2 Ga4_0 2.792295 1_565
Ga3_2 Mg0_0 2.905330 1_565
Ga3_2 Mg0_6 2.905330 1_455
Ga3_3 Ga4_7 2.792295 1_455
Ga3_3 Ga4_1 2.792295 1_565
Ga3_3 Mg0_1 2.905330 1_565
Ga3_3 Mg0_7 2.905330 1_455
Ga3_4 Ga4_0 2.792295 1_555
Ga3_4 Ga4_6 2.792295 1_555
Ga3_4 Mg0_0 2.905330 1_555
Ga3_4 Mg0_6 2.905330 1_555
Ga3_5 Ga4_1 2.792295 1_555
Ga3_5 Ga4_7 2.792295 1_555
Ga3_5 Mg0_1 2.905330 1_555
Ga3_5 Mg0_7 2.905330 1_555
Ga3_6 Ga4_2 2.792295 1_555
Ga3_6 Ga4_4 2.792295 1_565
Ga3_6 Mg0_2 2.905330 1_555
Ga3_6 Mg0_4 2.905330 1_565
Ga3_7 Ga4_3 2.792295 1_555
Ga3_7 Ga4_5 2.792295 1_565
Ga3_7 Mg0_3 2.905330 1_555
Ga3_7 Mg0_5 2.905330 1_565
Ga4_0 Mg0_2 2.887470 1_555
Ga4_0 Mg0_4 2.887470 1_455
Ga4_1 Mg0_3 2.887470 1_555
Ga4_1 Mg0_5 2.887470 1_455
Ga4_2 Mg0_6 2.887470 1_455
Ga4_2 Mg0_0 2.887470 1_565
Ga4_3 Mg0_7 2.887470 1_455
Ga4_3 Mg0_1 2.887470 1_565
Ga4_4 Mg0_6 2.887470 1_555
Ga4_4 Mg0_0 2.887470 1_555
Ga4_5 Mg0_7 2.887470 1_555
Ga4_5 Mg0_1 2.887470 1_555
Ga4_6 Mg0_4 2.887470 1_565
Ga4_6 Mg0_2 2.887470 1_555
Ga4_7 Mg0_5 2.887470 1_565
Ga4_7 Mg0_3 2.887470 1_555
