# generated using pymatgen
data_ZrSiOs
_symmetry_space_group_name_H-M   'P 1'
_cell_length_a   4.07037380
_cell_length_b   6.43591263
_cell_length_c   7.42227979
_cell_angle_alpha   90.00000000
_cell_angle_beta   90.00000000
_cell_angle_gamma   90.00000000
_symmetry_Int_Tables_number   1
_chemical_formula_structural   ZrSiOs
_chemical_formula_sum   'Zr4 Si4 Os4'
_cell_volume   194.43827318
_cell_formula_units_Z   4
loop_
 _symmetry_equiv_pos_site_id
 _symmetry_equiv_pos_as_xyz
  1  'x, y, z'
loop_
 _atom_site_type_symbol
 _atom_site_label
 _atom_site_symmetry_multiplicity
 _atom_site_fract_x
 _atom_site_fract_y
 _atom_site_fract_z
 _atom_site_occupancy
  Zr  Zr0  1  0.25000000  0.00921279  0.81474881  1
  Zr  Zr1  1  0.25000000  0.50921279  0.68525119  1
  Zr  Zr2  1  0.75000000  0.99078721  0.18525119  1
  Zr  Zr3  1  0.75000000  0.49078721  0.31474881  1
  Si  Si0  1  0.25000000  0.78998172  0.37900339  1
  Si  Si1  1  0.25000000  0.28998172  0.12099661  1
  Si  Si2  1  0.75000000  0.21001828  0.62099661  1
  Si  Si3  1  0.75000000  0.71001828  0.87900339  1
  Os  Os0  1  0.25000000  0.16244535  0.44144467  1
  Os  Os1  1  0.25000000  0.66244535  0.05855533  1
  Os  Os2  1  0.75000000  0.83755465  0.55855533  1
  Os  Os3  1  0.75000000  0.33755465  0.94144467  1
loop_
_geom_bond_atom_site_label_1
_geom_bond_atom_site_label_2
_geom_bond_distance
_geom_bond_site_symmetry_2
Si0 Zr2 2.807184 1_455
Si0 Zr2 2.807184 1_555
Si0 Zr3 2.842064 1_455
Si0 Zr3 2.842064 1_555
Si0 Zr1 2.903800 1_555
Si1 Zr3 2.807184 1_555
Si1 Zr3 2.807184 1_455
Si1 Zr2 2.842064 1_445
Si1 Zr2 2.842064 1_545
Si1 Zr0 2.903800 1_554
Si2 Zr0 2.807184 1_555
Si2 Zr0 2.807184 1_655
Si2 Zr1 2.842064 1_655
Si2 Zr1 2.842064 1_555
Si2 Zr3 2.903800 1_555
Si3 Zr1 2.807184 1_655
Si3 Zr1 2.807184 1_555
Si3 Zr0 2.842064 1_565
Si3 Zr0 2.842064 1_665
Si3 Zr2 2.903800 1_556
Os0 Si0 2.441534 1_545
Os0 Si2 2.451893 1_555
Os0 Si2 2.451893 1_455
Os0 Si1 2.516105 1_555
Os0 Zr1 2.873226 1_555
Os0 Zr0 2.941042 1_555
Os0 Zr2 2.996393 1_445
Os0 Zr2 2.996393 1_545
Os0 Zr3 3.080879 1_455
Os0 Zr3 3.080879 1_555
Os1 Si1 2.441534 1_555
Os1 Si3 2.451893 1_454
Os1 Si3 2.451893 1_554
Os1 Si0 2.516105 1_555
Os1 Zr0 2.873226 1_564
Os1 Zr1 2.941042 1_554
Os1 Zr3 2.996393 1_455
Os1 Zr3 2.996393 1_555
Os1 Zr2 3.080879 1_555
Os1 Zr2 3.080879 1_455
Os2 Si2 2.441534 1_565
Os2 Si0 2.451893 1_555
Os2 Si0 2.451893 1_655
Os2 Si3 2.516105 1_555
Os2 Zr3 2.873226 1_555
Os2 Zr2 2.941042 1_555
Os2 Zr0 2.996393 1_565
Os2 Zr0 2.996393 1_665
Os2 Zr1 3.080879 1_555
Os2 Zr1 3.080879 1_655
Os3 Si3 2.441534 1_555
Os3 Si1 2.451893 1_656
Os3 Si1 2.451893 1_556
Os3 Si2 2.516105 1_555
Os3 Zr2 2.873226 1_546
Os3 Zr3 2.941042 1_556
Os3 Zr1 2.996393 1_655
Os3 Zr1 2.996393 1_555
Os3 Zr0 3.080879 1_555
Os3 Zr0 3.080879 1_655
