# generated using pymatgen
data_ErTm3
_symmetry_space_group_name_H-M   'P 1'
_cell_length_a   7.06384092
_cell_length_b   7.06384200
_cell_length_c   5.68566046
_cell_angle_alpha   90.00000000
_cell_angle_beta   90.00000000
_cell_angle_gamma   120.00000928
_symmetry_Int_Tables_number   1
_chemical_formula_structural   ErTm3
_chemical_formula_sum   'Er2 Tm6'
_cell_volume   245.69334799
_cell_formula_units_Z   2
loop_
 _symmetry_equiv_pos_site_id
 _symmetry_equiv_pos_as_xyz
  1  'x, y, z'
loop_
 _atom_site_type_symbol
 _atom_site_label
 _atom_site_symmetry_multiplicity
 _atom_site_fract_x
 _atom_site_fract_y
 _atom_site_fract_z
 _atom_site_occupancy
  Er  Er0  1  0.33333400  0.66666800  0.75000000  1
  Er  Er1  1  0.66666600  0.33333400  0.25000000  1
  Tm  Tm0  1  0.16643371  0.33286641  0.25000000  1
  Tm  Tm1  1  0.66713459  0.83356729  0.25000000  1
  Tm  Tm2  1  0.16643371  0.83356729  0.25000000  1
  Tm  Tm3  1  0.83356929  0.66713658  0.75000000  1
  Tm  Tm4  1  0.33286342  0.16643271  0.75000000  1
  Tm  Tm5  1  0.83356829  0.16643271  0.75000000  1
loop_
_geom_bond_atom_site_label_1
_geom_bond_atom_site_label_2
_geom_bond_distance
_geom_bond_site_symmetry_2
Er0 Tm2 3.500211 1_556
Er0 Tm2 3.500211 1_555
Er0 Tm1 3.500215 1_555
Er0 Tm1 3.500215 1_556
Er0 Tm0 3.500218 1_556
Er0 Tm0 3.500218 1_555
Er0 Tm3 3.531915 1_455
Er0 Tm5 3.531918 1_565
Er0 Tm4 3.531922 1_555
Er0 Tm4 3.531922 1_565
Er0 Tm5 3.531925 1_455
Er0 Tm3 3.531929 1_555
Er1 Tm4 3.500222 1_555
Er1 Tm4 3.500222 1_554
Er1 Tm3 3.500222 1_554
Er1 Tm3 3.500222 1_555
Er1 Tm5 3.500226 1_555
Er1 Tm5 3.500226 1_554
Er1 Tm0 3.531911 1_555
Er1 Tm1 3.531915 1_555
Er1 Tm2 3.531918 1_545
Er1 Tm2 3.531925 1_655
Er1 Tm1 3.531929 1_545
Er1 Tm0 3.531932 1_655
Tm0 Tm4 3.496873 1_554
Tm0 Tm4 3.496873 1_555
Tm0 Tm5 3.496880 1_455
Tm0 Tm5 3.496880 1_454
Tm0 Tm1 3.526969 1_445
Tm0 Tm2 3.526970 1_545
Tm0 Tm1 3.536871 1_555
Tm0 Tm2 3.536872 1_555
Tm1 Tm5 3.496880 1_565
Tm1 Tm5 3.496880 1_564
Tm1 Tm3 3.496880 1_554
Tm1 Tm3 3.496880 1_555
Tm1 Tm2 3.526970 1_655
Tm1 Tm2 3.536871 1_555
Tm2 Tm3 3.496877 1_455
Tm2 Tm3 3.496877 1_454
Tm2 Tm4 3.496880 1_564
Tm2 Tm4 3.496880 1_565
Tm3 Tm4 3.526941 1_665
Tm3 Tm5 3.526953 1_565
Tm3 Tm5 3.536889 1_555
Tm3 Tm4 3.536899 1_555
Tm4 Tm5 3.526941 1_455
Tm4 Tm5 3.536900 1_555
