# generated using pymatgen
data_Nb3Co8Si
_symmetry_space_group_name_H-M   'P 1'
_cell_length_a   8.14524503
_cell_length_b   8.14524503
_cell_length_c   8.14524515
_cell_angle_alpha   33.78015383
_cell_angle_beta   33.78015383
_cell_angle_gamma   33.78015670
_symmetry_Int_Tables_number   1
_chemical_formula_structural   Nb3Co8Si
_chemical_formula_sum   'Nb3 Co8 Si1'
_cell_volume   148.85956269
_cell_formula_units_Z   1
loop_
 _symmetry_equiv_pos_site_id
 _symmetry_equiv_pos_as_xyz
  1  'x, y, z'
loop_
 _atom_site_type_symbol
 _atom_site_label
 _atom_site_symmetry_multiplicity
 _atom_site_fract_x
 _atom_site_fract_y
 _atom_site_fract_z
 _atom_site_occupancy
  Nb  Nb0  1  0.62214000  0.62214000  0.62214000  1
  Nb  Nb1  1  0.00630300  0.00630300  0.00630300  1
  Nb  Nb2  1  0.49596300  0.49596300  0.49596300  1
  Co  Co0  1  0.56283700  0.05971200  0.56283700  1
  Co  Co1  1  0.06190000  0.56117100  0.06190000  1
  Co  Co2  1  0.05971200  0.56283700  0.56283700  1
  Co  Co3  1  0.56117100  0.06190000  0.06190000  1
  Co  Co4  1  0.81080100  0.81080100  0.81080100  1
  Co  Co5  1  0.31158800  0.31158800  0.31158800  1
  Co  Co6  1  0.56283700  0.56283700  0.05971100  1
  Co  Co7  1  0.06190000  0.06190000  0.56117100  1
  Si  Si0  1  0.13285000  0.13285000  0.13285000  1
loop_
_geom_bond_atom_site_label_1
_geom_bond_atom_site_label_2
_geom_bond_distance
_geom_bond_site_symmetry_2
Nb0 Nb2 2.904544 1_555
Nb0 Nb1 2.972561 1_665
Nb0 Nb1 2.972562 1_656
Nb0 Nb1 2.972562 1_566
Nb1 Si0 2.913061 1_555
Nb2 Si0 2.817263 1_556
Nb2 Si0 2.817263 1_655
Nb2 Si0 2.817263 1_565
Co0 Co4 2.331540 1_545
Co0 Co6 2.351698 1_546
Co0 Co2 2.351700 1_645
Co0 Co5 2.363974 1_555
Co0 Co2 2.381282 1_555
Co0 Co6 2.381284 1_555
Co0 Nb1 2.689262 1_556
Co0 Nb1 2.689262 1_655
Co0 Nb2 2.697773 1_555
Co0 Nb0 2.798875 1_545
Co0 Si0 2.876752 1_655
Co0 Si0 2.876752 1_556
Co1 Co5 2.352680 1_555
Co1 Co7 2.363040 1_555
Co1 Co3 2.363041 1_555
Co1 Co7 2.369941 1_564
Co1 Co3 2.369941 1_465
Co1 Co4 2.372355 1_454
Co1 Si0 2.586792 1_555
Co1 Nb0 2.745681 1_554
Co1 Nb0 2.745681 1_455
Co1 Nb2 2.808412 1_455
Co1 Nb2 2.808413 1_554
Co1 Nb1 2.904817 1_565
Co2 Co4 2.331540 1_455
Co2 Co6 2.351698 1_456
Co2 Co5 2.363974 1_555
Co2 Co6 2.381284 1_555
Co2 Nb1 2.689262 1_556
Co2 Nb1 2.689262 1_565
Co2 Nb2 2.697773 1_555
Co2 Nb0 2.798875 1_455
Co2 Si0 2.876752 1_565
Co2 Si0 2.876752 1_556
Co3 Co5 2.352680 1_555
Co3 Co7 2.363040 1_555
Co3 Co7 2.369941 1_654
Co3 Co4 2.372355 1_544
Co3 Si0 2.586792 1_555
Co3 Nb0 2.745681 1_554
Co3 Nb0 2.745681 1_545
Co3 Nb2 2.808412 1_545
Co3 Nb2 2.808413 1_554
Co3 Nb1 2.904817 1_655
Co4 Co6 2.331545 1_556
Co4 Co7 2.372355 1_665
Co4 Si0 2.744907 1_665
Co4 Si0 2.744907 1_566
Co4 Si0 2.744907 1_656
Co4 Nb2 2.765557 1_556
Co4 Nb2 2.765557 1_655
Co4 Nb2 2.765557 1_565
Co5 Co7 2.352680 1_555
Co5 Co6 2.363970 1_555
Co5 Nb0 2.782454 1_554
Co5 Nb0 2.782454 1_545
Co5 Nb0 2.782454 1_455
Co5 Nb1 2.807831 1_556
Co5 Nb1 2.807831 1_655
Co5 Nb1 2.807831 1_565
Co6 Nb1 2.689259 1_655
Co6 Nb1 2.689259 1_565
Co6 Nb2 2.697781 1_555
Co6 Nb0 2.798867 1_554
Co6 Si0 2.876756 1_655
Co6 Si0 2.876756 1_565
Co7 Si0 2.586792 1_555
Co7 Nb0 2.745681 1_455
Co7 Nb0 2.745681 1_545
Co7 Nb2 2.808413 1_545
Co7 Nb2 2.808413 1_455
Co7 Nb1 2.904817 1_556
