# generated using pymatgen
data_ErAlGa
_symmetry_space_group_name_H-M   'P 1'
_cell_length_a   8.80607554
_cell_length_b   8.80607554
_cell_length_c   7.02057110
_cell_angle_alpha   90.00000000
_cell_angle_beta   90.00000000
_cell_angle_gamma   120.00000405
_symmetry_Int_Tables_number   1
_chemical_formula_structural   ErAlGa
_chemical_formula_sum   'Er8 Al8 Ga8'
_cell_volume   471.48498756
_cell_formula_units_Z   8
loop_
 _symmetry_equiv_pos_site_id
 _symmetry_equiv_pos_as_xyz
  1  'x, y, z'
loop_
 _atom_site_type_symbol
 _atom_site_label
 _atom_site_symmetry_multiplicity
 _atom_site_fract_x
 _atom_site_fract_y
 _atom_site_fract_z
 _atom_site_occupancy
  Er  Er0_0  1  0.16666650  0.33333350  0.00000000  1
  Er  Er0_1  1  0.16666650  0.33333350  0.50000000  1
  Er  Er0_2  1  0.16666650  0.83333350  0.00000000  1
  Er  Er0_3  1  0.16666650  0.83333350  0.50000000  1
  Er  Er0_4  1  0.66666650  0.33333350  0.00000000  1
  Er  Er0_5  1  0.66666650  0.33333350  0.50000000  1
  Er  Er0_6  1  0.66666650  0.83333350  0.00000000  1
  Er  Er0_7  1  0.66666650  0.83333350  0.50000000  1
  Al  Al0_0  1  0.33333350  0.16666650  0.25000000  1
  Al  Al0_1  1  0.33333350  0.16666650  0.75000000  1
  Al  Al0_2  1  0.33333350  0.66666650  0.25000000  1
  Al  Al0_3  1  0.33333350  0.66666650  0.75000000  1
  Al  Al0_4  1  0.83333350  0.16666650  0.25000000  1
  Al  Al0_5  1  0.83333350  0.16666650  0.75000000  1
  Al  Al0_6  1  0.83333350  0.66666650  0.25000000  1
  Al  Al0_7  1  0.83333350  0.66666650  0.75000000  1
  Ga  Ga0_0  1  0.00000000  0.00000000  0.25000000  1
  Ga  Ga0_1  1  0.00000000  0.00000000  0.75000000  1
  Ga  Ga0_2  1  0.00000000  0.50000000  0.25000000  1
  Ga  Ga0_3  1  0.00000000  0.50000000  0.75000000  1
  Ga  Ga0_4  1  0.50000000  0.00000000  0.25000000  1
  Ga  Ga0_5  1  0.50000000  0.00000000  0.75000000  1
  Ga  Ga0_6  1  0.50000000  0.50000000  0.25000000  1
  Ga  Ga0_7  1  0.50000000  0.50000000  0.75000000  1
loop_
_geom_bond_atom_site_label_1
_geom_bond_atom_site_label_2
_geom_bond_distance
_geom_bond_site_symmetry_2
Er0_0 Ga0_3 3.089136 1_554
Er0_0 Ga0_2 3.089136 1_555
Er0_0 Ga0_7 3.089139 1_554
Er0_0 Ga0_1 3.089139 1_554
Er0_0 Ga0_6 3.089139 1_555
Er0_0 Ga0_0 3.089139 1_555
Er0_0 Er0_1 3.510286 1_554
Er0_0 Er0_1 3.510286 1_555
Er0_1 Ga0_2 3.089136 1_555
Er0_1 Ga0_3 3.089136 1_555
Er0_1 Ga0_6 3.089139 1_555
Er0_1 Ga0_0 3.089139 1_555
Er0_1 Ga0_7 3.089139 1_555
Er0_1 Ga0_1 3.089139 1_555
Er0_2 Ga0_1 3.089136 1_564
Er0_2 Ga0_0 3.089136 1_565
Er0_2 Ga0_5 3.089139 1_564
Er0_2 Ga0_3 3.089139 1_554
Er0_2 Ga0_4 3.089139 1_565
Er0_2 Ga0_2 3.089139 1_555
Er0_2 Er0_3 3.510286 1_555
Er0_2 Er0_3 3.510286 1_554
Er0_3 Ga0_0 3.089136 1_565
Er0_3 Ga0_1 3.089136 1_565
Er0_3 Ga0_4 3.089139 1_565
Er0_3 Ga0_2 3.089139 1_555
Er0_3 Ga0_3 3.089139 1_555
Er0_3 Ga0_5 3.089139 1_565
Er0_4 Ga0_7 3.089136 1_554
Er0_4 Ga0_6 3.089136 1_555
Er0_4 Ga0_3 3.089139 1_654
Er0_4 Ga0_5 3.089139 1_554
Er0_4 Ga0_2 3.089139 1_655
Er0_4 Ga0_4 3.089139 1_555
Er0_4 Er0_5 3.510286 1_554
Er0_4 Er0_5 3.510286 1_555
Er0_5 Ga0_7 3.089136 1_555
Er0_5 Ga0_6 3.089136 1_555
Er0_5 Ga0_2 3.089139 1_655
Er0_5 Ga0_4 3.089139 1_555
Er0_5 Ga0_3 3.089139 1_655
Er0_5 Ga0_5 3.089139 1_555
Er0_6 Ga0_5 3.089136 1_564
Er0_6 Ga0_4 3.089136 1_565
Er0_6 Ga0_1 3.089139 1_664
Er0_6 Ga0_7 3.089139 1_554
Er0_6 Ga0_0 3.089139 1_665
Er0_6 Ga0_6 3.089139 1_555
Er0_6 Er0_7 3.510286 1_554
Er0_6 Er0_7 3.510286 1_555
Er0_7 Ga0_4 3.089136 1_565
Er0_7 Ga0_5 3.089136 1_565
Er0_7 Ga0_0 3.089139 1_665
Er0_7 Ga0_6 3.089139 1_555
Er0_7 Ga0_1 3.089139 1_665
Er0_7 Ga0_7 3.089139 1_555
Al0_0 Ga0_4 2.542093 1_555
Al0_0 Ga0_6 2.542096 1_555
Al0_0 Ga0_0 2.542096 1_555
Al0_0 Er0_3 3.089136 1_545
Al0_0 Er0_2 3.089136 1_545
Al0_0 Er0_5 3.089136 1_555
Al0_0 Er0_4 3.089136 1_555
Al0_0 Er0_0 3.089142 1_555
Al0_0 Er0_1 3.089142 1_555
Al0_1 Ga0_5 2.542093 1_555
Al0_1 Ga0_7 2.542096 1_555
Al0_1 Ga0_1 2.542096 1_555
Al0_1 Er0_2 3.089136 1_546
Al0_1 Er0_4 3.089136 1_556
Al0_1 Er0_3 3.089136 1_545
Al0_1 Er0_5 3.089136 1_555
Al0_1 Er0_0 3.089142 1_556
Al0_1 Er0_1 3.089142 1_555
Al0_2 Ga0_6 2.542093 1_555
Al0_2 Ga0_2 2.542096 1_555
Al0_2 Ga0_4 2.542096 1_565
Al0_2 Er0_1 3.089136 1_555
Al0_2 Er0_0 3.089136 1_555
Al0_2 Er0_7 3.089136 1_555
Al0_2 Er0_6 3.089136 1_555
Al0_2 Er0_2 3.089142 1_555
Al0_2 Er0_3 3.089142 1_555
Al0_3 Ga0_7 2.542093 1_555
Al0_3 Ga0_5 2.542096 1_565
Al0_3 Ga0_3 2.542096 1_555
Al0_3 Er0_0 3.089136 1_556
Al0_3 Er0_6 3.089136 1_556
Al0_3 Er0_7 3.089136 1_555
Al0_3 Er0_1 3.089136 1_555
Al0_3 Er0_2 3.089142 1_556
Al0_3 Er0_3 3.089142 1_555
Al0_4 Ga0_0 2.542093 1_655
Al0_4 Ga0_4 2.542096 1_555
Al0_4 Ga0_2 2.542096 1_655
Al0_4 Er0_6 3.089136 1_545
Al0_4 Er0_7 3.089136 1_545
Al0_4 Er0_0 3.089136 1_655
Al0_4 Er0_1 3.089136 1_655
Al0_4 Er0_5 3.089142 1_555
Al0_4 Er0_4 3.089142 1_555
Al0_5 Ga0_1 2.542093 1_655
Al0_5 Ga0_5 2.542096 1_555
Al0_5 Ga0_3 2.542096 1_655
Al0_5 Er0_6 3.089136 1_546
Al0_5 Er0_0 3.089136 1_656
Al0_5 Er0_7 3.089136 1_545
Al0_5 Er0_1 3.089136 1_655
Al0_5 Er0_4 3.089142 1_556
Al0_5 Er0_5 3.089142 1_555
Al0_6 Ga0_2 2.542093 1_655
Al0_6 Ga0_0 2.542096 1_665
Al0_6 Ga0_6 2.542096 1_555
Al0_6 Er0_4 3.089136 1_555
Al0_6 Er0_5 3.089136 1_555
Al0_6 Er0_3 3.089136 1_655
Al0_6 Er0_2 3.089136 1_655
Al0_6 Er0_6 3.089142 1_555
Al0_6 Er0_7 3.089142 1_555
Al0_7 Ga0_3 2.542093 1_655
Al0_7 Ga0_1 2.542096 1_665
Al0_7 Ga0_7 2.542096 1_555
Al0_7 Er0_4 3.089136 1_556
Al0_7 Er0_2 3.089136 1_656
Al0_7 Er0_5 3.089136 1_555
Al0_7 Er0_3 3.089136 1_655
Al0_7 Er0_6 3.089142 1_556
Al0_7 Er0_7 3.089142 1_555
