# generated using pymatgen
data_TmMn6InSn5
_symmetry_space_group_name_H-M   'P 1'
_cell_length_a   5.41244896
_cell_length_b   5.41244896
_cell_length_c   9.02801900
_cell_angle_alpha   90.00000000
_cell_angle_beta   90.00000000
_cell_angle_gamma   119.99998733
_symmetry_Int_Tables_number   1
_chemical_formula_structural   TmMn6InSn5
_chemical_formula_sum   'Tm1 Mn6 In1 Sn5'
_cell_volume   229.03970729
_cell_formula_units_Z   1
loop_
 _symmetry_equiv_pos_site_id
 _symmetry_equiv_pos_as_xyz
  1  'x, y, z'
loop_
 _atom_site_type_symbol
 _atom_site_label
 _atom_site_symmetry_multiplicity
 _atom_site_fract_x
 _atom_site_fract_y
 _atom_site_fract_z
 _atom_site_occupancy
  Tm  Tm0  1  0.33333300  0.66666700  0.00000000  1
  Mn  Mn0  1  0.33399000  0.16699500  0.75407700  1
  Mn  Mn1  1  0.83300500  0.16699500  0.75407700  1
  Mn  Mn2  1  0.83300500  0.66601000  0.75407700  1
  Mn  Mn3  1  0.33399000  0.16699500  0.24592300  1
  Mn  Mn4  1  0.83300500  0.16699500  0.24592300  1
  Mn  Mn5  1  0.83300500  0.66601000  0.24592300  1
  In  In0  1  0.00000000  0.00000000  0.50000000  1
  Sn  Sn0  1  0.66666700  0.33333300  0.00000000  1
  Sn  Sn1  1  0.00000000  0.00000000  0.00000000  1
  Sn  Sn2  1  0.33333300  0.66666700  0.66691100  1
  Sn  Sn3  1  0.33333300  0.66666700  0.33308900  1
  Sn  Sn4  1  0.66666700  0.33333300  0.50000000  1
loop_
_geom_bond_atom_site_label_1
_geom_bond_atom_site_label_2
_geom_bond_distance
_geom_bond_site_symmetry_2
Mn0 Sn0 2.713096 1_556
Mn0 Sn1 2.716638 1_556
Mn0 Sn4 2.773659 1_555
Mn0 Sn2 2.818318 1_545
Mn0 Sn2 2.818323 1_555
Mn1 Sn0 2.713093 1_556
Mn1 Sn1 2.716638 1_656
Mn1 Sn4 2.773657 1_555
Mn1 Sn2 2.818321 1_545
Mn1 Sn2 2.818321 1_655
Mn2 Sn0 2.713096 1_556
Mn2 Sn1 2.716638 1_666
Mn2 Sn4 2.773659 1_555
Mn2 Sn2 2.818318 1_655
Mn2 Sn2 2.818323 1_555
Mn3 Sn0 2.713096 1_555
Mn3 Sn1 2.716638 1_555
Mn3 Sn4 2.773659 1_555
Mn3 Sn3 2.818318 1_545
Mn3 Sn3 2.818323 1_555
Mn4 Sn0 2.713093 1_555
Mn4 Sn1 2.716638 1_655
Mn4 Sn4 2.773657 1_555
Mn4 Sn3 2.818321 1_545
Mn4 Sn3 2.818321 1_655
Mn5 Sn0 2.713096 1_555
Mn5 Sn1 2.716638 1_665
Mn5 Sn4 2.773659 1_555
Mn5 Sn3 2.818318 1_655
Mn5 Sn3 2.818323 1_555
In0 Mn1 2.777124 1_455
In0 Mn4 2.777124 1_455
In0 Mn5 2.777124 1_445
In0 Mn2 2.777124 1_445
In0 Mn3 2.777124 1_555
In0 Mn0 2.777124 1_555
In0 Sn4 3.124876 1_455
In0 Sn4 3.124881 1_555
In0 Sn4 3.124881 1_445
Sn0 Tm0 3.124876 1_545
Sn0 Tm0 3.124876 1_655
Sn0 Tm0 3.124885 1_555
Sn1 Tm0 3.124876 1_545
Sn1 Tm0 3.124881 1_555
Sn1 Tm0 3.124881 1_445
Sn2 Tm0 3.007134 1_556
Sn3 Tm0 3.007134 1_555
