# generated using pymatgen
data_Ba2MgMo4(Se2O11)2
_symmetry_space_group_name_H-M   'P 1'
_cell_length_a   8.14536268
_cell_length_b   7.91597240
_cell_length_c   9.08013805
_cell_angle_alpha   114.58539853
_cell_angle_beta   90.10444608
_cell_angle_gamma   89.77442337
_symmetry_Int_Tables_number   1
_chemical_formula_structural   Ba2MgMo4(Se2O11)2
_chemical_formula_sum   'Ba2 Mg1 Mo4 Se4 O22'
_cell_volume   532.39148894
_cell_formula_units_Z   1
loop_
 _symmetry_equiv_pos_site_id
 _symmetry_equiv_pos_as_xyz
  1  'x, y, z'
loop_
 _atom_site_type_symbol
 _atom_site_label
 _atom_site_symmetry_multiplicity
 _atom_site_fract_x
 _atom_site_fract_y
 _atom_site_fract_z
 _atom_site_occupancy
  Ba  Ba0  1  0.64330100  0.22412100  0.00065300  1
  Ba  Ba1  1  0.14419600  0.79447900  0.04450600  1
  Mg  Mg0  1  0.02532500  0.56815200  0.65789700  1
  Mo  Mo0  1  0.64189900  0.84659900  0.20993500  1
  Mo  Mo1  1  0.14203400  0.17758900  0.77350400  1
  Mo  Mo2  1  0.67032300  0.62944400  0.78618800  1
  Mo  Mo3  1  0.15063100  0.37746300  0.21215700  1
  Se  Se0  1  0.81926600  0.24559800  0.39281100  1
  Se  Se1  1  0.31010500  0.11633800  0.42118700  1
  Se  Se2  1  0.79643200  0.87748100  0.57502100  1
  Se  Se3  1  0.32803300  0.70427000  0.58137800  1
  O  O0  1  0.08459200  0.57891900  0.18726800  1
  O  O1  1  0.57171900  0.82355700  0.00252000  1
  O  O2  1  0.39294400  0.90505500  0.28649000  1
  O  O3  1  0.64802300  0.86148800  0.70537300  1
  O  O4  1  0.42793700  0.58585200  0.67512600  1
  O  O5  1  0.85278200  0.88544500  0.19255900  1
  O  O6  1  0.36248000  0.32901900  0.16430100  1
  O  O7  1  0.89448900  0.31935600  0.25256300  1
  O  O8  1  0.17587700  0.02772800  0.52450700  1
  O  O9  1  0.89391300  0.07899900  0.70497200  1
  O  O10  1  0.63897700  0.43670900  0.82951000  1
  O  O11  1  0.79771500  0.47527100  0.55656700  1
  O  O12  1  0.62902400  0.17533100  0.30589000  1
  O  O13  1  0.63614900  0.61633500  0.18454100  1
  O  O14  1  0.35313100  0.18095700  0.80531500  1
  O  O15  1  0.07603900  0.19854100  0.97493100  1
  O  O16  1  0.16500500  0.13715200  0.29147700  1
  O  O17  1  0.17986100  0.81899500  0.72762200  1
  O  O18  1  0.66862900  0.96185600  0.46848000  1
  O  O19  1  0.88416400  0.72045000  0.84390500  1
  O  O20  1  0.18454700  0.52257700  0.46957500  1
  O  O21  1  0.10525800  0.40043500  0.76984000  1
loop_
_geom_bond_atom_site_label_1
_geom_bond_atom_site_label_2
_geom_bond_distance
_geom_bond_site_symmetry_2
Ba0 O6 2.664662 1_555
Ba0 O10 2.724610 1_554
Ba0 O13 2.848885 1_555
Ba0 O14 2.887188 1_554
Ba0 O7 2.923495 1_555
Ba0 O12 2.955786 1_555
Ba0 O3 3.004283 1_544
Ba0 O9 3.182780 1_554
Ba0 O1 3.233246 1_545
Ba1 O0 2.584022 1_555
Ba1 O5 2.674466 1_455
Ba1 O19 2.693490 1_454
Ba1 O16 2.712258 1_565
Ba1 O2 2.845470 1_555
Ba1 O17 2.978143 1_554
Ba1 O21 3.095481 1_554
Mg0 O19 1.982419 1_455
Mg0 O20 2.056038 1_555
Mg0 O11 2.065417 1_455
Mg0 O21 2.081688 1_555
Mg0 O17 2.213337 1_555
Mo0 O13 1.740326 1_555
Mo0 O5 1.765086 1_555
Mo0 O1 1.902137 1_555
Mo0 O2 2.130614 1_555
Mo0 O18 2.146763 1_555
Mo0 O12 2.377674 1_565
Mo1 O14 1.741504 1_555
Mo1 O21 1.802033 1_555
Mo1 O15 1.847194 1_555
Mo1 O8 2.088775 1_555
Mo1 O9 2.164399 1_455
Mo1 O17 2.708468 1_545
Mo2 O10 1.746559 1_555
Mo2 O19 1.876151 1_555
Mo2 O1 2.085478 1_556
Mo2 O4 2.177740 1_555
Mo2 O11 2.189505 1_555
Mo2 O3 2.250329 1_555
Mo3 O6 1.781122 1_555
Mo3 O0 1.782202 1_555
Mo3 O15 2.116240 1_554
Mo3 O20 2.150634 1_555
Mo3 O7 2.202248 1_455
Mo3 O16 2.299821 1_555
O2 Se1 1.743693 1_565
O3 Se2 1.734758 1_555
O4 Se3 1.709082 1_555
O7 Se0 1.721165 1_555
O8 Se1 1.767734 1_555
O9 Se2 1.734299 1_545
O11 Se0 1.815538 1_555
O12 Se0 1.723536 1_555
O16 Se1 1.722225 1_555
O17 Se3 1.743127 1_555
O18 Se2 1.730367 1_555
O20 Se3 1.805314 1_555
