# generated using pymatgen
data_Cs2Ni2(MoO4)3
_symmetry_space_group_name_H-M   'P 1'
_cell_length_a   10.93457400
_cell_length_b   10.93457400
_cell_length_c   10.93457400
_cell_angle_alpha   90.00000000
_cell_angle_beta   90.00000000
_cell_angle_gamma   90.00000000
_symmetry_Int_Tables_number   1
_chemical_formula_structural   Cs2Ni2(MoO4)3
_chemical_formula_sum   'Cs8 Ni8 Mo12 O48'
_cell_volume   1307.39134047
_cell_formula_units_Z   4
loop_
 _symmetry_equiv_pos_site_id
 _symmetry_equiv_pos_as_xyz
  1  'x, y, z'
loop_
 _atom_site_type_symbol
 _atom_site_label
 _atom_site_symmetry_multiplicity
 _atom_site_fract_x
 _atom_site_fract_y
 _atom_site_fract_z
 _atom_site_occupancy
  Cs  Cs0  1  0.42928600  0.92928600  0.57071400  1
  Cs  Cs1  1  0.92928600  0.57071400  0.42928600  1
  Cs  Cs2  1  0.57071400  0.42928600  0.92928600  1
  Cs  Cs3  1  0.07071400  0.07071400  0.07071400  1
  Cs  Cs4  1  0.20902300  0.70902300  0.79097700  1
  Cs  Cs5  1  0.70902300  0.79097700  0.20902300  1
  Cs  Cs6  1  0.79097700  0.20902300  0.70902300  1
  Cs  Cs7  1  0.29097700  0.29097700  0.29097700  1
  Ni  Ni0  1  0.91261200  0.41261200  0.08738800  1
  Ni  Ni1  1  0.41261200  0.08738800  0.91261200  1
  Ni  Ni2  1  0.08738800  0.91261200  0.41261200  1
  Ni  Ni3  1  0.58738800  0.58738800  0.58738800  1
  Ni  Ni4  1  0.63755700  0.13755700  0.36244300  1
  Ni  Ni5  1  0.13755700  0.36244300  0.63755700  1
  Ni  Ni6  1  0.36244300  0.63755700  0.13755700  1
  Ni  Ni7  1  0.86244300  0.86244300  0.86244300  1
  Mo  Mo0  1  0.22342600  0.37377100  0.94724800  1
  Mo  Mo1  1  0.05275200  0.72342600  0.12622900  1
  Mo  Mo2  1  0.87377100  0.55275200  0.77657400  1
  Mo  Mo3  1  0.72342600  0.12622900  0.05275200  1
  Mo  Mo4  1  0.55275200  0.77657400  0.87377100  1
  Mo  Mo5  1  0.37377100  0.94724800  0.22342600  1
  Mo  Mo6  1  0.77657400  0.87377100  0.55275200  1
  Mo  Mo7  1  0.94724800  0.22342600  0.37377100  1
  Mo  Mo8  1  0.12622900  0.05275200  0.72342600  1
  Mo  Mo9  1  0.27657400  0.62622900  0.44724800  1
  Mo  Mo10  1  0.44724800  0.27657400  0.62622900  1
  Mo  Mo11  1  0.62622900  0.44724800  0.27657400  1
  O  O0  1  0.06839000  0.35403300  0.99596900  1
  O  O1  1  0.00403100  0.56839000  0.14596700  1
  O  O2  1  0.85403300  0.50403100  0.93161000  1
  O  O3  1  0.56839000  0.14596700  0.00403100  1
  O  O4  1  0.50403100  0.93161000  0.85403300  1
  O  O5  1  0.35403300  0.99596900  0.06839000  1
  O  O6  1  0.93161000  0.85403300  0.50403100  1
  O  O7  1  0.99596900  0.06839000  0.35403300  1
  O  O8  1  0.14596700  0.00403100  0.56839000  1
  O  O9  1  0.43161000  0.64596700  0.49596900  1
  O  O10  1  0.49596900  0.43161000  0.64596700  1
  O  O11  1  0.64596700  0.49596900  0.43161000  1
  O  O12  1  0.29860100  0.48896300  0.03687000  1
  O  O13  1  0.96313000  0.79860100  0.01103700  1
  O  O14  1  0.98896300  0.46313000  0.70139900  1
  O  O15  1  0.79860100  0.01103700  0.96313000  1
  O  O16  1  0.46313000  0.70139900  0.98896300  1
  O  O17  1  0.48896300  0.03687000  0.29860100  1
  O  O18  1  0.70139900  0.98896300  0.46313000  1
  O  O19  1  0.03687000  0.29860100  0.48896300  1
  O  O20  1  0.01103700  0.96313000  0.79860100  1
  O  O21  1  0.20139900  0.51103700  0.53687000  1
  O  O22  1  0.53687000  0.20139900  0.51103700  1
  O  O23  1  0.51103700  0.53687000  0.20139900  1
  O  O24  1  0.23502500  0.42061500  0.78958600  1
  O  O25  1  0.21041400  0.73502500  0.07938500  1
  O  O26  1  0.92061500  0.71041400  0.76497500  1
  O  O27  1  0.73502500  0.07938500  0.21041400  1
  O  O28  1  0.71041400  0.76497500  0.92061500  1
  O  O29  1  0.42061500  0.78958600  0.23502500  1
  O  O30  1  0.76497500  0.92061500  0.71041400  1
  O  O31  1  0.78958600  0.23502500  0.42061500  1
  O  O32  1  0.07938500  0.21041400  0.73502500  1
  O  O33  1  0.26497500  0.57938500  0.28958600  1
  O  O34  1  0.28958600  0.26497500  0.57938500  1
  O  O35  1  0.57938500  0.28958600  0.26497500  1
  O  O36  1  0.30464400  0.23311100  0.97417800  1
  O  O37  1  0.02582200  0.80464400  0.26688900  1
  O  O38  1  0.73311100  0.52582200  0.69535600  1
  O  O39  1  0.80464400  0.26688900  0.02582200  1
  O  O40  1  0.52582200  0.69535600  0.73311100  1
  O  O41  1  0.23311100  0.97417800  0.30464400  1
  O  O42  1  0.69535600  0.73311100  0.52582200  1
  O  O43  1  0.97417800  0.30464400  0.23311100  1
  O  O44  1  0.26688900  0.02582200  0.80464400  1
  O  O45  1  0.19535600  0.76688900  0.47417800  1
  O  O46  1  0.47417800  0.19535600  0.76688900  1
  O  O47  1  0.76688900  0.47417800  0.19535600  1
loop_
_geom_bond_atom_site_label_1
_geom_bond_atom_site_label_2
_geom_bond_distance
_geom_bond_site_symmetry_2
Cs0 O8 3.204070 1_565
Cs0 O4 3.204070 1_555
Cs0 O9 3.204070 1_555
Cs0 O22 3.265415 1_565
Cs0 O17 3.265415 1_565
Cs0 O18 3.265415 1_555
Cs0 O40 3.287931 1_555
Cs0 O45 3.287931 1_555
Cs0 O44 3.287931 1_565
Cs1 O1 3.204070 1_655
Cs1 O6 3.204070 1_555
Cs1 O11 3.204070 1_555
Cs1 O21 3.265415 1_655
Cs1 O19 3.265415 1_655
Cs1 O14 3.265415 1_555
Cs1 O47 3.287931 1_555
Cs1 O42 3.287931 1_555
Cs1 O37 3.287931 1_655
Cs2 O3 3.204070 1_556
Cs2 O2 3.204070 1_555
Cs2 O10 3.204070 1_555
Cs2 O23 3.265415 1_556
Cs2 O16 3.265415 1_555
Cs2 O12 3.265415 1_556
Cs2 O38 3.287931 1_555
Cs2 O46 3.287931 1_555
Cs2 O39 3.287931 1_556
Cs3 O7 3.204070 1_455
Cs3 O0 3.204070 1_554
Cs3 O5 3.204070 1_545
Cs3 O13 3.265415 1_445
Cs3 O20 3.265415 1_544
Cs3 O15 3.265415 1_454
Cs3 O43 3.287931 1_455
Cs3 O36 3.287931 1_554
Cs3 O41 3.287931 1_545
Cs4 O24 3.166446 1_555
Cs4 O26 3.166446 1_455
Cs4 O25 3.166446 1_556
Cs4 O16 3.523359 1_555
Cs4 O21 3.523359 1_555
Cs4 O20 3.523359 1_555
Cs4 O44 3.524545 1_565
Cs4 O45 3.524545 1_555
Cs4 O40 3.524545 1_555
Cs5 O29 3.166446 1_555
Cs5 O28 3.166446 1_554
Cs5 O27 3.166446 1_565
Cs5 O18 3.523359 1_555
Cs5 O23 3.523359 1_555
Cs5 O13 3.523359 1_555
Cs5 O37 3.524545 1_655
Cs5 O42 3.524545 1_555
Cs5 O47 3.524545 1_555
Cs6 O31 3.166446 1_555
Cs6 O32 3.166446 1_655
Cs6 O30 3.166446 1_545
Cs6 O14 3.523359 1_555
Cs6 O15 3.523359 1_555
Cs6 O22 3.523359 1_555
Cs6 O39 3.524545 1_556
Cs6 O46 3.524545 1_555
Cs6 O38 3.524545 1_555
Cs7 O34 3.166446 1_555
Cs7 O33 3.166446 1_555
Cs7 O35 3.166446 1_555
Cs7 O17 3.523359 1_555
Cs7 O19 3.523359 1_555
Cs7 O12 3.523359 1_555
Cs7 O41 3.524545 1_545
Cs7 O36 3.524545 1_554
Cs7 O43 3.524545 1_455
Ni0 O1 2.076294 1_655
Ni0 O0 2.076294 1_654
Ni0 O2 2.076294 1_554
Ni0 O39 2.094268 1_555
Ni0 O47 2.094268 1_555
Ni0 O43 2.094268 1_555
Ni1 O3 2.076294 1_556
Ni1 O4 2.076294 1_545
Ni1 O5 2.076294 1_546
Ni1 O46 2.094268 1_555
Ni1 O44 2.094268 1_555
Ni1 O36 2.094268 1_555
Ni2 O8 2.076294 1_565
Ni2 O6 2.076294 1_455
Ni2 O7 2.076294 1_465
Ni2 O45 2.094268 1_555
Ni2 O41 2.094268 1_555
Ni2 O37 2.094268 1_555
Ni3 O10 2.076294 1_555
Ni3 O11 2.076294 1_555
Ni3 O9 2.076294 1_555
Ni3 O40 2.094268 1_555
Ni3 O38 2.094268 1_555
Ni3 O42 2.094268 1_555
Ni4 O31 2.074598 1_555
Ni4 O27 2.074598 1_555
Ni4 O35 2.074598 1_555
Ni4 O18 2.083140 1_545
Ni4 O22 2.083140 1_555
Ni4 O17 2.083140 1_555
Ni5 O24 2.074598 1_555
Ni5 O34 2.074598 1_555
Ni5 O32 2.074598 1_555
Ni5 O14 2.083140 1_455
Ni5 O21 2.083140 1_555
Ni5 O19 2.083140 1_555
Ni6 O29 2.074598 1_555
Ni6 O33 2.074598 1_555
Ni6 O25 2.074598 1_555
Ni6 O16 2.083140 1_554
Ni6 O23 2.083140 1_555
Ni6 O12 2.083140 1_555
Ni7 O28 2.074598 1_555
Ni7 O26 2.074598 1_555
Ni7 O30 2.074598 1_555
Ni7 O20 2.083140 1_655
Ni7 O15 2.083140 1_565
Ni7 O13 2.083140 1_556
Mo0 O0 1.790050 1_555
Mo0 O12 1.795155 1_556
Mo0 O36 1.800285 1_555
Mo0 O24 1.802919 1_555
Mo1 O1 1.790050 1_555
Mo1 O13 1.795155 1_455
Mo1 O37 1.800285 1_555
Mo1 O25 1.802919 1_555
Mo2 O2 1.790050 1_555
Mo2 O14 1.795155 1_555
Mo2 O38 1.800285 1_555
Mo2 O26 1.802919 1_555
Mo3 O3 1.790050 1_555
Mo3 O15 1.795155 1_554
Mo3 O39 1.800285 1_555
Mo3 O27 1.802919 1_555
Mo4 O4 1.790050 1_555
Mo4 O16 1.795155 1_555
Mo4 O40 1.800285 1_555
Mo4 O28 1.802919 1_555
Mo5 O5 1.790050 1_555
Mo5 O17 1.795155 1_565
Mo5 O41 1.800285 1_555
Mo5 O29 1.802919 1_555
Mo6 O6 1.790050 1_555
Mo6 O18 1.795155 1_555
Mo6 O42 1.800285 1_555
Mo6 O30 1.802919 1_555
Mo7 O7 1.790050 1_555
Mo7 O19 1.795155 1_655
Mo7 O43 1.800285 1_555
Mo7 O31 1.802919 1_555
Mo8 O8 1.790050 1_555
Mo8 O20 1.795155 1_545
Mo8 O44 1.800285 1_555
Mo8 O32 1.802919 1_555
Mo9 O9 1.790050 1_555
Mo9 O21 1.795155 1_555
Mo9 O45 1.800285 1_555
Mo9 O33 1.802919 1_555
Mo10 O10 1.790050 1_555
Mo10 O22 1.795155 1_555
Mo10 O46 1.800285 1_555
Mo10 O34 1.802919 1_555
Mo11 O11 1.790050 1_555
Mo11 O23 1.795155 1_555
Mo11 O47 1.800285 1_555
Mo11 O35 1.802919 1_555
