# generated using pymatgen
data_MgMn2(P2O7)2
_symmetry_space_group_name_H-M   'P 1'
_cell_length_a   5.81969410
_cell_length_b   5.36840037
_cell_length_c   9.68902353
_cell_angle_alpha   98.79038131
_cell_angle_beta   109.17659928
_cell_angle_gamma   99.10624774
_symmetry_Int_Tables_number   1
_chemical_formula_structural   MgMn2(P2O7)2
_chemical_formula_sum   'Mg1 Mn2 P4 O14'
_cell_volume   275.41660366
_cell_formula_units_Z   1
loop_
 _symmetry_equiv_pos_site_id
 _symmetry_equiv_pos_as_xyz
  1  'x, y, z'
loop_
 _atom_site_type_symbol
 _atom_site_label
 _atom_site_symmetry_multiplicity
 _atom_site_fract_x
 _atom_site_fract_y
 _atom_site_fract_z
 _atom_site_occupancy
  Mg  Mg0  1  0.27649100  0.67321700  0.56006400  1
  Mn  Mn0  1  0.85775500  0.48784700  0.17750600  1
  Mn  Mn1  1  0.74739400  0.27870600  0.60565200  1
  P  P0  1  0.19919600  0.13569500  0.36391200  1
  P  P1  1  0.67914000  0.64236500  0.86968700  1
  P  P2  1  0.36337000  0.33558100  0.14307400  1
  P  P3  1  0.88501800  0.87453200  0.68026500  1
  O  O0  1  0.13275300  0.86768000  0.39214800  1
  O  O1  1  0.98824200  0.28623000  0.33558100  1
  O  O2  1  0.43219500  0.69238900  0.77882100  1
  O  O3  1  0.13129200  0.45159800  0.10948500  1
  O  O4  1  0.43775600  0.21576600  0.01934900  1
  O  O5  1  0.61853100  0.90511300  0.58191500  1
  O  O6  1  0.89546100  0.86086600  0.84160300  1
  O  O7  1  0.29922800  0.10384900  0.23048000  1
  O  O8  1  0.41430100  0.33232700  0.50163800  1
  O  O9  1  0.75191200  0.71344700  0.03974600  1
  O  O10  1  0.72848200  0.38458300  0.80991900  1
  O  O11  1  0.60043800  0.53344800  0.26039300  1
  O  O12  1  0.93976300  0.62675800  0.60453900  1
  O  O13  1  0.04627700  0.12925300  0.67755700  1
loop_
_geom_bond_atom_site_label_1
_geom_bond_atom_site_label_2
_geom_bond_distance
_geom_bond_site_symmetry_2
Mg0 O2 1.991529 1_555
Mg0 O0 2.082780 1_555
Mg0 O5 2.101232 1_555
Mg0 O12 2.126277 1_455
Mg0 O8 2.181495 1_555
Mg0 O1 2.641891 1_455
Mn0 O3 1.937650 1_655
Mn0 O11 1.947679 1_555
Mn0 O9 1.953938 1_555
Mn0 O1 2.024030 1_555
Mn0 O4 2.486210 1_555
Mn0 O0 2.555110 1_655
Mn1 O8 1.959118 1_555
Mn1 O5 1.976701 1_545
Mn1 O13 1.992762 1_655
Mn1 O10 2.017744 1_555
Mn1 O12 2.024018 1_555
O0 P0 1.519292 1_565
O1 P0 1.547931 1_655
O2 P1 1.508578 1_555
O3 P2 1.535402 1_555
O4 P2 1.493852 1_555
O5 P3 1.580418 1_555
O6 P3 1.557801 1_555
O6 P1 1.700010 1_555
O7 P0 1.580483 1_555
O7 P2 1.669388 1_555
O8 P0 1.586142 1_555
O9 P1 1.529098 1_554
O10 P1 1.524145 1_555
O11 P2 1.568656 1_555
O12 P3 1.548729 1_555
O13 P3 1.540216 1_445
