# generated using pymatgen
data_NaPrTiNbO6F
_symmetry_space_group_name_H-M   'P 1'
_cell_length_a   7.37994881
_cell_length_b   7.37994881
_cell_length_c   7.37994881
_cell_angle_alpha   121.12603239
_cell_angle_beta   117.90606299
_cell_angle_gamma   90.86258318
_symmetry_Int_Tables_number   1
_chemical_formula_structural   NaPrTiNbO6F
_chemical_formula_sum   'Na2 Pr2 Ti2 Nb2 O12 F2'
_cell_volume   285.98019541
_cell_formula_units_Z   2
loop_
 _symmetry_equiv_pos_site_id
 _symmetry_equiv_pos_as_xyz
  1  'x, y, z'
loop_
 _atom_site_type_symbol
 _atom_site_label
 _atom_site_symmetry_multiplicity
 _atom_site_fract_x
 _atom_site_fract_y
 _atom_site_fract_z
 _atom_site_occupancy
  Na  Na0  1  0.00000000  0.00000000  0.50000000  1
  Na  Na1  1  0.00000000  0.50000000  0.00000000  1
  Pr  Pr0  1  0.00000000  0.00000000  0.00000000  1
  Pr  Pr1  1  0.50000000  0.00000000  0.50000000  1
  Ti  Ti0  1  0.50000000  0.50000000  0.50000000  1
  Ti  Ti1  1  0.50000000  0.00000000  0.00000000  1
  Nb  Nb0  1  0.50000000  0.50000000  0.00000000  1
  Nb  Nb1  1  0.00000000  0.50000000  0.50000000  1
  O  O0  1  0.42206100  0.17206100  0.25000000  1
  O  O1  1  0.81569000  0.56569000  0.25000000  1
  O  O2  1  0.43767900  0.58143700  0.26510900  1
  O  O3  1  0.81632800  0.17257100  0.23489100  1
  O  O4  1  0.43767900  0.17257100  0.85624200  1
  O  O5  1  0.81632800  0.58143700  0.64375800  1
  O  O6  1  0.57793900  0.82793900  0.75000000  1
  O  O7  1  0.18431000  0.43431000  0.75000000  1
  O  O8  1  0.56232100  0.41856300  0.73489100  1
  O  O9  1  0.18367200  0.82742900  0.76510900  1
  O  O10  1  0.56232100  0.82742900  0.14375800  1
  O  O11  1  0.18367200  0.41856300  0.35624200  1
  F  F0  1  0.11982200  0.86982200  0.25000000  1
  F  F1  1  0.88017800  0.13017800  0.75000000  1
loop_
_geom_bond_atom_site_label_1
_geom_bond_atom_site_label_2
_geom_bond_distance
_geom_bond_site_symmetry_2
Na0 O1 2.633125 1_445
Na0 O7 2.633125 1_555
Na0 O4 2.726311 1_555
Na0 O10 2.726311 1_445
Na0 O3 2.726317 1_455
Na0 O9 2.726317 1_545
Na1 O1 2.633125 1_455
Na1 O7 2.633125 1_554
Na1 O5 2.726311 1_454
Na1 O11 2.726311 1_555
Na1 O2 2.726311 1_555
Na1 O8 2.726311 1_454
Nb0 O4 2.008863 1_554
Nb0 O10 2.008863 1_555
Nb0 O8 2.008869 1_554
Nb0 O2 2.008869 1_555
Nb0 O1 2.021049 1_555
Nb0 O7 2.021049 1_554
Nb1 O3 2.008864 1_455
Nb1 O9 2.008864 1_555
Nb1 O5 2.008869 1_455
Nb1 O11 2.008869 1_555
Nb1 O1 2.021049 1_455
Nb1 O7 2.021049 1_555
O0 Ti1 1.985066 1_555
O0 Ti0 1.985066 1_555
O0 Pr0 2.607282 1_555
O0 Pr1 2.607282 1_555
O2 Ti0 1.979096 1_555
O2 Pr1 2.536391 1_565
O3 Ti1 1.979097 1_555
O3 Pr0 2.536393 1_655
O4 Ti1 1.979103 1_556
O4 Pr1 2.536391 1_555
O5 Ti0 1.979096 1_555
O5 Pr0 2.536391 1_666
O6 Ti0 1.985066 1_555
O6 Ti1 1.985066 1_566
O6 Pr0 2.607282 1_666
O6 Pr1 2.607282 1_565
O8 Ti0 1.979096 1_555
O8 Pr1 2.536391 1_555
O9 Ti1 1.979097 1_566
O9 Pr0 2.536393 1_566
O10 Ti1 1.979103 1_565
O10 Pr1 2.536391 1_565
O11 Ti0 1.979096 1_555
O11 Pr0 2.536391 1_555
F0 Na0 2.197528 1_565
F0 Na1 2.197528 1_555
F0 Pr0 2.332338 1_565
F0 Pr1 2.332338 1_565
F1 Na1 2.197528 1_656
F1 Na0 2.197528 1_655
F1 Pr0 2.332338 1_656
F1 Pr1 2.332338 1_555
