# generated using pymatgen
data_Ag3B5O9
_symmetry_space_group_name_H-M   'P 1'
_cell_length_a   6.82145500
_cell_length_b   9.54878200
_cell_length_c   11.15106100
_cell_angle_alpha   90.00000000
_cell_angle_beta   90.00000000
_cell_angle_gamma   90.00000000
_symmetry_Int_Tables_number   1
_chemical_formula_structural   Ag3B5O9
_chemical_formula_sum   'Ag12 B20 O36'
_cell_volume   726.34205182
_cell_formula_units_Z   4
loop_
 _symmetry_equiv_pos_site_id
 _symmetry_equiv_pos_as_xyz
  1  'x, y, z'
loop_
 _atom_site_type_symbol
 _atom_site_label
 _atom_site_symmetry_multiplicity
 _atom_site_fract_x
 _atom_site_fract_y
 _atom_site_fract_z
 _atom_site_occupancy
  Ag  Ag0  1  0.81563800  0.72973100  0.77109800  1
  Ag  Ag1  1  0.68436200  0.27026900  0.27109800  1
  Ag  Ag2  1  0.31563800  0.77026900  0.22890200  1
  Ag  Ag3  1  0.18436200  0.22973100  0.72890200  1
  Ag  Ag4  1  0.56447000  0.69114500  0.98730900  1
  Ag  Ag5  1  0.93553000  0.30885500  0.48730900  1
  Ag  Ag6  1  0.06447000  0.80885500  0.01269100  1
  Ag  Ag7  1  0.43553000  0.19114500  0.51269100  1
  Ag  Ag8  1  0.02810600  0.60265000  0.57409800  1
  Ag  Ag9  1  0.47189400  0.39735000  0.07409800  1
  Ag  Ag10  1  0.52810600  0.89735000  0.42590200  1
  Ag  Ag11  1  0.97189400  0.10265000  0.92590200  1
  B  B0  1  0.52754600  0.96564800  0.73439700  1
  B  B1  1  0.97245400  0.03435200  0.23439700  1
  B  B2  1  0.02754600  0.53435200  0.26560300  1
  B  B3  1  0.47245400  0.46564800  0.76560300  1
  B  B4  1  0.29718400  0.76425500  0.78358300  1
  B  B5  1  0.20281600  0.23574500  0.28358300  1
  B  B6  1  0.79718400  0.73574500  0.21641700  1
  B  B7  1  0.70281600  0.26425500  0.71641700  1
  B  B8  1  0.85131000  0.02666000  0.62373700  1
  B  B9  1  0.64869000  0.97334000  0.12373700  1
  B  B10  1  0.35131000  0.47334000  0.37626300  1
  B  B11  1  0.14869000  0.52666000  0.87626300  1
  B  B12  1  0.79715500  0.42647700  0.88309600  1
  B  B13  1  0.70284500  0.57352300  0.38309600  1
  B  B14  1  0.29715500  0.07352300  0.11690400  1
  B  B15  1  0.20284500  0.92647700  0.61690400  1
  B  B16  1  0.49711000  0.57352000  0.56849000  1
  B  B17  1  0.00289000  0.42648000  0.06849000  1
  B  B18  1  0.99711000  0.92648000  0.43151000  1
  B  B19  1  0.50289000  0.07352000  0.93151000  1
  O  O0  1  0.94100200  0.53215100  0.84063400  1
  O  O1  1  0.55899800  0.46784900  0.34063400  1
  O  O2  1  0.44100200  0.96784900  0.15936600  1
  O  O3  1  0.05899800  0.03215100  0.65936600  1
  O  O4  1  0.67047700  0.60687900  0.51112600  1
  O  O5  1  0.82952300  0.39312100  0.01112600  1
  O  O6  1  0.17047700  0.89312100  0.48887400  1
  O  O7  1  0.32952300  0.10687900  0.98887400  1
  O  O8  1  0.45518200  0.84792700  0.81064400  1
  O  O9  1  0.04481800  0.15207300  0.31064400  1
  O  O10  1  0.95518200  0.65207300  0.18935600  1
  O  O11  1  0.54481800  0.34792700  0.68935600  1
  O  O12  1  0.73357200  0.93893000  0.70301100  1
  O  O13  1  0.76642800  0.06107000  0.20301100  1
  O  O14  1  0.23357200  0.56107000  0.29698900  1
  O  O15  1  0.26642800  0.43893000  0.79698900  1
  O  O16  1  0.73445300  0.82607700  0.12313900  1
  O  O17  1  0.76554700  0.17392300  0.62313900  1
  O  O18  1  0.23445300  0.67392300  0.87686100  1
  O  O19  1  0.26554700  0.32607700  0.37686100  1
  O  O20  1  0.33949500  0.52339200  0.50388300  1
  O  O21  1  0.16050500  0.47660800  0.00388300  1
  O  O22  1  0.83949500  0.97660800  0.49611700  1
  O  O23  1  0.66050500  0.02339200  0.99611700  1
  O  O24  1  0.48718300  0.59487100  0.69116300  1
  O  O25  1  0.01281700  0.40512900  0.19116300  1
  O  O26  1  0.98718300  0.90512900  0.30883700  1
  O  O27  1  0.51281700  0.09487100  0.80883700  1
  O  O28  1  0.17790700  0.79354400  0.68685300  1
  O  O29  1  0.32209300  0.20645600  0.18685300  1
  O  O30  1  0.67790700  0.70645600  0.31314700  1
  O  O31  1  0.82209300  0.29354400  0.81314700  1
  O  O32  1  0.40391100  0.97994400  0.62602000  1
  O  O33  1  0.09608900  0.02005600  0.12602000  1
  O  O34  1  0.90391100  0.52005600  0.37398000  1
  O  O35  1  0.59608900  0.47994400  0.87398000  1
loop_
_geom_bond_atom_site_label_1
_geom_bond_atom_site_label_2
_geom_bond_distance
_geom_bond_site_symmetry_2
Ag0 O12 2.209123 1_555
Ag0 O0 2.211785 1_555
Ag1 O13 2.209123 1_555
Ag1 O1 2.211785 1_555
Ag2 O14 2.209123 1_555
Ag2 O2 2.211785 1_555
Ag3 O15 2.209123 1_555
Ag3 O3 2.211785 1_555
Ag4 O16 2.301900 1_556
Ag4 O35 2.389704 1_555
Ag4 O18 2.571341 1_555
Ag4 O8 2.584168 1_555
Ag5 O17 2.301900 1_555
Ag5 O34 2.389704 1_555
Ag5 O19 2.571341 1_655
Ag5 O9 2.584168 1_655
Ag6 O18 2.301900 1_554
Ag6 O33 2.389704 1_565
Ag6 O16 2.571341 1_455
Ag6 O10 2.584168 1_455
Ag7 O19 2.301900 1_555
Ag7 O32 2.389704 1_545
Ag7 O17 2.571341 1_555
Ag7 O11 2.584168 1_555
Ag8 O20 2.386992 1_555
Ag8 O28 2.438794 1_555
Ag8 O34 2.513852 1_455
Ag8 O4 2.538922 1_455
Ag9 O21 2.386992 1_555
Ag9 O29 2.438794 1_555
Ag9 O35 2.513852 1_554
Ag9 O5 2.538922 1_555
Ag10 O22 2.386992 1_555
Ag10 O30 2.438794 1_555
Ag10 O32 2.513852 1_555
Ag10 O6 2.538922 1_555
Ag11 O23 2.386992 1_555
Ag11 O31 2.438794 1_555
Ag11 O33 2.513852 1_656
Ag11 O7 2.538922 1_655
B0 O12 1.470619 1_555
B0 O32 1.480009 1_555
B0 O27 1.490537 1_565
B0 O8 1.493369 1_555
B1 O13 1.470619 1_555
B1 O33 1.480009 1_655
B1 O26 1.490537 1_545
B1 O9 1.493369 1_655
B2 O14 1.470619 1_555
B2 O34 1.480009 1_455
B2 O25 1.490537 1_555
B2 O10 1.493369 1_455
B3 O15 1.470619 1_555
B3 O35 1.480009 1_555
B3 O24 1.490537 1_555
B3 O11 1.493369 1_555
B4 O8 1.375139 1_555
B4 O28 1.379747 1_555
B4 O18 1.417404 1_555
B5 O9 1.375139 1_555
B5 O29 1.379747 1_555
B5 O19 1.417404 1_555
B6 O10 1.375139 1_555
B6 O30 1.379747 1_555
B6 O16 1.417404 1_555
B7 O11 1.375139 1_555
B7 O31 1.379747 1_555
B7 O17 1.417404 1_555
B8 O12 1.458850 1_545
B8 O3 1.472323 1_655
B8 O22 1.503372 1_545
B8 O17 1.523040 1_555
B9 O13 1.458850 1_565
B9 O2 1.472323 1_555
B9 O23 1.503372 1_564
B9 O16 1.523040 1_555
B10 O14 1.458850 1_555
B10 O1 1.472323 1_555
B10 O20 1.503372 1_555
B10 O19 1.523040 1_555
B11 O15 1.458850 1_555
B11 O0 1.472323 1_455
B11 O21 1.503372 1_556
B11 O18 1.523040 1_555
B12 O35 1.467029 1_555
B12 O5 1.479338 1_556
B12 O0 1.485005 1_555
B12 O31 1.499531 1_555
B13 O34 1.467029 1_555
B13 O4 1.479338 1_555
B13 O1 1.485005 1_555
B13 O30 1.499531 1_555
B14 O33 1.467029 1_555
B14 O7 1.479338 1_554
B14 O2 1.485005 1_545
B14 O29 1.499531 1_555
B15 O32 1.467029 1_555
B15 O6 1.479338 1_555
B15 O3 1.485005 1_565
B15 O28 1.499531 1_555
B16 O20 1.379899 1_555
B16 O4 1.381746 1_555
B16 O24 1.384700 1_555
B17 O21 1.379899 1_555
B17 O5 1.381746 1_455
B17 O25 1.384700 1_555
B18 O22 1.379899 1_555
B18 O6 1.381746 1_655
B18 O26 1.384700 1_555
B19 O23 1.379899 1_555
B19 O7 1.381746 1_555
B19 O27 1.384700 1_555
