# generated using pymatgen
data_BaYbCuTe3
_symmetry_space_group_name_H-M   'P 1'
_cell_length_a   7.75071789
_cell_length_b   7.75071789
_cell_length_c   11.65004100
_cell_angle_alpha   90.00000000
_cell_angle_beta   90.00000000
_cell_angle_gamma   146.80564553
_symmetry_Int_Tables_number   1
_chemical_formula_structural   BaYbCuTe3
_chemical_formula_sum   'Ba2 Yb2 Cu2 Te6'
_cell_volume   383.16001691
_cell_formula_units_Z   2
loop_
 _symmetry_equiv_pos_site_id
 _symmetry_equiv_pos_as_xyz
  1  'x, y, z'
loop_
 _atom_site_type_symbol
 _atom_site_label
 _atom_site_symmetry_multiplicity
 _atom_site_fract_x
 _atom_site_fract_y
 _atom_site_fract_z
 _atom_site_occupancy
  Ba  Ba0  1  0.25186200  0.74813800  0.25000000  1
  Ba  Ba1  1  0.74813800  0.25186200  0.75000000  1
  Yb  Yb0  1  0.00000000  0.00000000  0.00000000  1
  Yb  Yb1  1  0.00000000  0.00000000  0.50000000  1
  Cu  Cu0  1  0.53490700  0.46509300  0.25000000  1
  Cu  Cu1  1  0.46509300  0.53490700  0.75000000  1
  Te  Te0  1  0.63971900  0.36028100  0.06478200  1
  Te  Te1  1  0.36028100  0.63971900  0.93521800  1
  Te  Te2  1  0.36028100  0.63971900  0.56478200  1
  Te  Te3  1  0.63971900  0.36028100  0.43521800  1
  Te  Te4  1  0.93511700  0.06488300  0.25000000  1
  Te  Te5  1  0.06488300  0.93511700  0.75000000  1
loop_
_geom_bond_atom_site_label_1
_geom_bond_atom_site_label_2
_geom_bond_distance
_geom_bond_site_symmetry_2
Ba0 Te4 3.508948 1_565
Ba0 Te4 3.508948 1_455
Ba0 Te0 3.511829 1_455
Ba0 Te3 3.511829 1_455
Ba0 Te0 3.511829 1_565
Ba0 Te3 3.511829 1_565
Ba0 Cu0 3.910135 1_565
Ba0 Cu0 3.910135 1_455
Ba0 Te1 4.005328 1_554
Ba0 Te2 4.005328 1_555
Ba1 Te5 3.508948 1_655
Ba1 Te5 3.508948 1_545
Ba1 Te1 3.511829 1_545
Ba1 Te2 3.511829 1_545
Ba1 Te1 3.511829 1_655
Ba1 Te2 3.511829 1_655
Ba1 Cu1 3.910135 1_655
Ba1 Cu1 3.910135 1_545
Ba1 Te3 4.005328 1_555
Ba1 Te0 4.005328 1_556
Cu0 Te3 2.660917 1_555
Cu0 Te0 2.660917 1_555
Cu0 Te4 2.664411 1_565
Cu0 Te4 2.664411 1_455
Cu1 Te2 2.660917 1_555
Cu1 Te1 2.660917 1_555
Cu1 Te5 2.664411 1_655
Cu1 Te5 2.664411 1_545
Te0 Yb0 3.127172 1_555
Te0 Yb0 3.127172 1_665
Te1 Yb0 3.127172 1_666
Te1 Yb0 3.127172 1_556
Te2 Yb1 3.127172 1_665
Te2 Yb1 3.127172 1_555
Te3 Yb1 3.127172 1_555
Te3 Yb1 3.127172 1_665
Te4 Yb0 3.067861 1_655
Te4 Yb1 3.067861 1_655
Te5 Yb0 3.067861 1_566
Te5 Yb1 3.067861 1_565
