# generated using pymatgen
data_Mg2TeWO6
_symmetry_space_group_name_H-M   'P 1'
_cell_length_a   5.31206600
_cell_length_b   5.09139400
_cell_length_c   10.32314691
_cell_angle_alpha   65.23250107
_cell_angle_beta   90.00000000
_cell_angle_gamma   90.00000000
_symmetry_Int_Tables_number   1
_chemical_formula_structural   Mg2TeWO6
_chemical_formula_sum   'Mg4 Te2 W2 O12'
_cell_volume   253.51603121
_cell_formula_units_Z   2
loop_
 _symmetry_equiv_pos_site_id
 _symmetry_equiv_pos_as_xyz
  1  'x, y, z'
loop_
 _atom_site_type_symbol
 _atom_site_label
 _atom_site_symmetry_multiplicity
 _atom_site_fract_x
 _atom_site_fract_y
 _atom_site_fract_z
 _atom_site_occupancy
  Mg  Mg0  1  0.47481000  0.22827800  0.75167500  1
  Mg  Mg1  1  0.97481000  0.77172200  0.74832500  1
  Mg  Mg2  1  0.52519000  0.77172200  0.24832500  1
  Mg  Mg3  1  0.02519000  0.22827800  0.25167500  1
  Te  Te0  1  0.50000000  0.00000000  0.50000000  1
  Te  Te1  1  0.00000000  0.00000000  0.00000000  1
  W  W0  1  0.50000000  0.50000000  0.00000000  1
  W  W1  1  0.00000000  0.50000000  0.50000000  1
  O  O0  1  0.19841500  0.45522900  0.89449500  1
  O  O1  1  0.69841500  0.54477100  0.60550500  1
  O  O2  1  0.80158500  0.54477100  0.10550500  1
  O  O3  1  0.30158500  0.45522900  0.39449500  1
  O  O4  1  0.33873500  0.75176900  0.07358900  1
  O  O5  1  0.83873500  0.24823100  0.42641100  1
  O  O6  1  0.66126500  0.24823100  0.92641100  1
  O  O7  1  0.16126500  0.75176900  0.57358900  1
  O  O8  1  0.12372400  0.18085400  0.66860200  1
  O  O9  1  0.62372400  0.81914600  0.83139800  1
  O  O10  1  0.37627600  0.18085400  0.16860200  1
  O  O11  1  0.87627600  0.81914600  0.33139800  1
loop_
_geom_bond_atom_site_label_1
_geom_bond_atom_site_label_2
_geom_bond_distance
_geom_bond_site_symmetry_2
Mg0 O9 2.050798 1_545
Mg0 O1 2.060841 1_555
Mg0 O6 2.097298 1_555
Mg0 O8 2.108417 1_555
Mg0 O0 2.663079 1_555
Mg1 O8 2.050798 1_665
Mg1 O0 2.060841 1_655
Mg1 O7 2.097298 1_655
Mg1 O9 2.108417 1_555
Mg1 O1 2.663079 1_555
Mg2 O10 2.050798 1_565
Mg2 O3 2.060841 1_555
Mg2 O4 2.097298 1_555
Mg2 O11 2.108417 1_555
Mg2 O2 2.663079 1_555
Mg3 O11 2.050798 1_445
Mg3 O2 2.060841 1_455
Mg3 O5 2.097298 1_455
Mg3 O10 2.108417 1_555
Mg3 O3 2.663079 1_555
O0 W0 2.003183 1_556
O0 Te1 2.356693 1_556
O1 W1 2.003183 1_655
O1 Te0 2.356693 1_565
O2 W0 2.003183 1_555
O2 Te1 2.356693 1_665
O3 W1 2.003183 1_555
O3 Te0 2.356693 1_555
O4 W0 1.941652 1_555
O4 Te1 2.146562 1_565
O5 W1 1.941652 1_655
O5 Te0 2.146562 1_555
O6 W0 1.941652 1_556
O6 Te1 2.146562 1_656
O7 W1 1.941652 1_555
O7 Te0 2.146562 1_565
O8 W1 1.931831 1_555
O9 W0 1.931831 1_556
O10 W0 1.931831 1_555
O11 W1 1.931831 1_655
