# generated using pymatgen
data_Al13Co4
_symmetry_space_group_name_H-M   'P 1'
_cell_length_a   8.17928400
_cell_length_b   12.37200300
_cell_length_c   14.30622400
_cell_angle_alpha   90.00000000
_cell_angle_beta   90.00000000
_cell_angle_gamma   90.00000000
_symmetry_Int_Tables_number   1
_chemical_formula_structural   Al13Co4
_chemical_formula_sum   'Al78 Co24'
_cell_volume   1447.70583670
_cell_formula_units_Z   6
loop_
 _symmetry_equiv_pos_site_id
 _symmetry_equiv_pos_as_xyz
  1  'x, y, z'
loop_
 _atom_site_type_symbol
 _atom_site_label
 _atom_site_symmetry_multiplicity
 _atom_site_fract_x
 _atom_site_fract_y
 _atom_site_fract_z
 _atom_site_occupancy
  Al  Al0  1  0.50000000  0.99399500  0.31681400  1
  Al  Al1  1  0.00000000  0.00600500  0.81681400  1
  Al  Al2  1  0.50000000  0.89899500  0.47845100  1
  Al  Al3  1  0.00000000  0.10100500  0.97845200  1
  Al  Al4  1  0.50000000  0.09449000  0.12508200  1
  Al  Al5  1  0.00000000  0.90551000  0.62508200  1
  Al  Al6  1  0.50000000  0.08976600  0.93954700  1
  Al  Al7  1  0.00000000  0.91023400  0.43954700  1
  Al  Al8  1  0.50000000  0.86148500  0.16995300  1
  Al  Al9  1  0.00000000  0.13851500  0.66995300  1
  Al  Al10  1  0.50000000  0.18026300  0.65259200  1
  Al  Al11  1  0.00000000  0.81973700  0.15259200  1
  Al  Al12  1  0.50000000  0.19460300  0.33241400  1
  Al  Al13  1  0.00000000  0.80539700  0.83241400  1
  Al  Al14  1  0.50000000  0.75119100  0.91339300  1
  Al  Al15  1  0.00000000  0.24880900  0.41339300  1
  Al  Al16  1  0.50000000  0.60126600  0.34962700  1
  Al  Al17  1  0.00000000  0.39873400  0.84962700  1
  Al  Al18  1  0.50000000  0.63074100  0.65766900  1
  Al  Al19  1  0.00000000  0.36925900  0.15766900  1
  Al  Al20  1  0.50000000  0.32777900  0.17361800  1
  Al  Al21  1  0.00000000  0.67222100  0.67361800  1
  Al  Al22  1  0.50000000  0.41008700  0.89199400  1
  Al  Al23  1  0.00000000  0.58991300  0.39199400  1
  Al  Al24  1  0.50000000  0.50257700  0.50820900  1
  Al  Al25  1  0.00000000  0.49742300  0.00820900  1
  Al  Al26  1  0.50000000  0.40582900  0.70776200  1
  Al  Al27  1  0.00000000  0.59417100  0.20776200  1
  Al  Al28  1  0.50000000  0.30206700  0.48829300  1
  Al  Al29  1  0.00000000  0.69793300  0.98829300  1
  Al  Al30  1  0.50000000  0.90262200  0.74229000  1
  Al  Al31  1  0.00000000  0.09737800  0.24229000  1
  Al  Al32  1  0.50000000  0.59355800  0.08973700  1
  Al  Al33  1  0.00000000  0.40644200  0.58973700  1
  Al  Al34  1  0.72098300  0.79492400  0.59836100  1
  Al  Al35  1  0.27901700  0.79492400  0.59836100  1
  Al  Al36  1  0.77901700  0.20507600  0.09836100  1
  Al  Al37  1  0.22098300  0.20507600  0.09836100  1
  Al  Al38  1  0.70880600  0.09159200  0.78276700  1
  Al  Al39  1  0.29119400  0.09159200  0.78276700  1
  Al  Al40  1  0.79119400  0.90840800  0.28276700  1
  Al  Al41  1  0.20880600  0.90840800  0.28276700  1
  Al  Al42  1  0.73276700  0.92124100  0.90641900  1
  Al  Al43  1  0.26723300  0.92124100  0.90641900  1
  Al  Al44  1  0.76723300  0.07875900  0.40641900  1
  Al  Al45  1  0.23276700  0.07875900  0.40641900  1
  Al  Al46  1  0.75099100  0.75178600  0.41474800  1
  Al  Al47  1  0.24900900  0.75178600  0.41474800  1
  Al  Al48  1  0.74900900  0.24821400  0.91474800  1
  Al  Al49  1  0.25099100  0.24821400  0.91474800  1
  Al  Al50  1  0.72075900  0.01619300  0.59332100  1
  Al  Al51  1  0.27924100  0.01619300  0.59332100  1
  Al  Al52  1  0.77924100  0.98380700  0.09332100  1
  Al  Al53  1  0.22075900  0.98380700  0.09332100  1
  Al  Al54  1  0.72127200  0.77793700  0.04769500  1
  Al  Al55  1  0.27872800  0.77793700  0.04769500  1
  Al  Al56  1  0.77872800  0.22206300  0.54769500  1
  Al  Al57  1  0.22127200  0.22206300  0.54769500  1
  Al  Al58  1  0.71469100  0.40768500  0.04488700  1
  Al  Al59  1  0.28530900  0.40768500  0.04488700  1
  Al  Al60  1  0.78530900  0.59231500  0.54488700  1
  Al  Al61  1  0.21469100  0.59231500  0.54488700  1
  Al  Al62  1  0.72244800  0.70536700  0.23121400  1
  Al  Al63  1  0.27755200  0.70536700  0.23121400  1
  Al  Al64  1  0.77755200  0.29463300  0.73121400  1
  Al  Al65  1  0.22244800  0.29463300  0.73121400  1
  Al  Al66  1  0.72989900  0.58114000  0.92365900  1
  Al  Al67  1  0.27010100  0.58114000  0.92365900  1
  Al  Al68  1  0.77010100  0.41886000  0.42365900  1
  Al  Al69  1  0.22989900  0.41886000  0.42365900  1
  Al  Al70  1  0.72098000  0.48531500  0.23741600  1
  Al  Al71  1  0.27902000  0.48531500  0.23741600  1
  Al  Al72  1  0.77902000  0.51468500  0.73741600  1
  Al  Al73  1  0.22098000  0.51468500  0.73741600  1
  Al  Al74  1  0.72092700  0.72069700  0.77956800  1
  Al  Al75  1  0.27907300  0.72069700  0.77956800  1
  Al  Al76  1  0.77907300  0.27930300  0.27956800  1
  Al  Al77  1  0.22092700  0.27930300  0.27956800  1
  Co  Co0  1  0.50000000  0.10332500  0.49719000  1
  Co  Co1  1  0.00000000  0.89667500  0.99719000  1
  Co  Co2  1  0.50000000  0.91143600  0.01465800  1
  Co  Co3  1  0.00000000  0.08856400  0.51465800  1
  Co  Co4  1  0.50000000  0.79848000  0.32322500  1
  Co  Co5  1  0.00000000  0.20152000  0.82322500  1
  Co  Co6  1  0.50000000  0.23166100  0.81232900  1
  Co  Co7  1  0.00000000  0.76833900  0.31232900  1
  Co  Co8  1  0.50000000  0.39610000  0.33101600  1
  Co  Co9  1  0.00000000  0.60390000  0.83101600  1
  Co  Co10  1  0.50000000  0.58736500  0.81458100  1
  Co  Co11  1  0.00000000  0.41263500  0.31458100  1
  Co  Co12  1  0.50000000  0.26890400  0.01698600  1
  Co  Co13  1  0.00000000  0.73109600  0.51698600  1
  Co  Co14  1  0.50000000  0.69988600  0.50564100  1
  Co  Co15  1  0.00000000  0.30011400  0.00564100  1
  Co  Co16  1  0.72456100  0.09310000  0.23710200  1
  Co  Co17  1  0.27543900  0.09310000  0.23710200  1
  Co  Co18  1  0.77543900  0.90690000  0.73710200  1
  Co  Co19  1  0.22456000  0.90690000  0.73710200  1
  Co  Co20  1  0.72164700  0.40677900  0.59245700  1
  Co  Co21  1  0.27835300  0.40677900  0.59245700  1
  Co  Co22  1  0.77835300  0.59322100  0.09245700  1
  Co  Co23  1  0.22164700  0.59322100  0.09245700  1
loop_
_geom_bond_atom_site_label_1
_geom_bond_atom_site_label_2
_geom_bond_distance
_geom_bond_site_symmetry_2
Al0 Co4 2.420650 1_555
Al0 Co16 2.485456 1_565
Al0 Co17 2.485456 1_565
Al0 Al12 2.491937 1_565
Al0 Co0 2.913518 1_565
Al1 Co5 2.420650 1_555
Al1 Co19 2.485450 1_545
Al1 Co18 2.485456 1_445
Al1 Al13 2.491937 1_545
Al1 Co1 2.913518 1_545
Al2 Co14 2.493900 1_555
Al2 Co0 2.542146 1_565
Al2 Co4 2.545186 1_555
Al3 Co15 2.493898 1_556
Al3 Co1 2.542145 1_545
Al3 Co5 2.545198 1_555
Al4 Co16 2.437665 1_555
Al4 Co17 2.437665 1_555
Al4 Co12 2.654772 1_555
Al4 Co2 2.761282 1_545
Al5 Co19 2.437659 1_555
Al5 Co18 2.437665 1_455
Al5 Co13 2.654772 1_555
Al5 Co3 2.761282 1_565
Al6 Co2 2.454063 1_546
Al6 Co12 2.477765 1_556
Al6 Co6 2.528696 1_555
Al7 Co3 2.454063 1_565
Al7 Co13 2.477765 1_555
Al7 Co7 2.528696 1_555
Al8 Co2 2.306036 1_555
Al8 Co4 2.327175 1_555
Al9 Co3 2.306036 1_555
Al9 Co5 2.327175 1_555
Al10 Co6 2.372057 1_555
Al10 Co0 2.418421 1_555
Al10 Al28 2.792090 1_555
Al10 Al26 2.900169 1_555
Al11 Co7 2.372057 1_555
Al11 Co1 2.418421 1_554
Al11 Al29 2.792090 1_554
Al11 Al27 2.900169 1_555
Al12 Co8 2.493002 1_555
Al12 Al28 2.596299 1_555
Al12 Co17 2.609588 1_555
Al12 Co16 2.609588 1_555
Al12 Co0 2.613861 1_555
Al12 Al76 2.622981 1_555
Al12 Al77 2.622981 1_555
Al12 Al20 2.806369 1_555
Al12 Al44 2.820044 1_555
Al12 Al45 2.820044 1_555
Al13 Co9 2.493002 1_555
Al13 Al29 2.596299 1_555
Al13 Co19 2.609582 1_555
Al13 Co18 2.609588 1_455
Al13 Co1 2.613861 1_555
Al13 Al75 2.622981 1_555
Al13 Al74 2.622981 1_455
Al13 Al21 2.806369 1_555
Al13 Al43 2.820044 1_555
Al13 Al42 2.820044 1_455
Al14 Co2 2.455463 1_556
Al14 Co10 2.471130 1_555
Al15 Co3 2.455463 1_555
Al15 Co11 2.471130 1_555
Al16 Co4 2.468995 1_555
Al16 Co14 2.543699 1_555
Al16 Co8 2.552240 1_555
Al17 Co5 2.468995 1_555
Al17 Co15 2.543699 1_556
Al17 Co9 2.552240 1_555
Al18 Co10 2.308073 1_555
Al18 Co14 2.337137 1_555
Al18 Al26 2.873413 1_555
Al18 Al60 2.876655 1_555
Al18 Al61 2.876655 1_555
Al19 Co11 2.308073 1_555
Al19 Co15 2.337137 1_555
Al19 Al27 2.873413 1_555
Al19 Al59 2.876655 1_555
Al19 Al58 2.876655 1_455
Al20 Co12 2.356228 1_555
Al20 Co8 2.405192 1_555
Al20 Al58 2.729948 1_555
Al20 Al59 2.729948 1_555
Al21 Co13 2.356228 1_555
Al21 Co9 2.405192 1_555
Al21 Al61 2.729948 1_555
Al21 Al60 2.729948 1_455
Al22 Co10 2.457036 1_555
Al22 Co6 2.484336 1_555
Al22 Co12 2.499709 1_556
Al22 Al26 2.636191 1_555
Al22 Al58 2.805149 1_556
Al22 Al59 2.805149 1_556
Al23 Co11 2.457036 1_555
Al23 Co7 2.484336 1_555
Al23 Co13 2.499709 1_555
Al23 Al27 2.636191 1_555
Al23 Al61 2.805149 1_555
Al23 Al60 2.805149 1_455
Al24 Co14 2.441384 1_555
Al24 Co20 2.478722 1_555
Al24 Co21 2.478722 1_555
Al24 Al28 2.497019 1_555
Al24 Al60 2.636999 1_555
Al24 Al61 2.636999 1_555
Al24 Co8 2.856817 1_555
Al25 Co15 2.441384 1_555
Al25 Co23 2.478722 1_555
Al25 Co22 2.478722 1_455
Al25 Al29 2.497019 1_554
Al25 Al59 2.636999 1_555
Al25 Al58 2.636999 1_455
Al25 Co9 2.856817 1_554
Al26 Co20 2.451103 1_555
Al26 Co21 2.451103 1_555
Al26 Co6 2.623182 1_555
Al26 Al64 2.675606 1_555
Al26 Al65 2.675606 1_555
Al26 Al73 2.683677 1_555
Al26 Al72 2.683677 1_555
Al26 Co10 2.716556 1_555
Al27 Co23 2.451103 1_555
Al27 Co22 2.451103 1_455
Al27 Co7 2.623182 1_555
Al27 Al63 2.675606 1_555
Al27 Al62 2.675606 1_455
Al27 Al70 2.683677 1_455
Al27 Al71 2.683677 1_555
Al27 Co11 2.716556 1_555
Al28 Co0 2.462129 1_555
Al28 Co8 2.533007 1_555
Al28 Al57 2.626667 1_555
Al28 Al56 2.626667 1_555
Al28 Co20 2.680606 1_555
Al28 Co21 2.680606 1_555
Al28 Al68 2.797077 1_555
Al28 Al69 2.797077 1_555
Al29 Co1 2.462129 1_555
Al29 Co9 2.533007 1_555
Al29 Al55 2.626667 1_556
Al29 Al54 2.626667 1_456
Al29 Co23 2.680606 1_556
Al29 Co22 2.680606 1_456
Al29 Al66 2.797077 1_455
Al29 Al67 2.797077 1_555
Al30 Co18 2.254737 1_555
Al30 Co19 2.254746 1_555
Al31 Co16 2.254737 1_455
Al31 Co17 2.254737 1_555
Al32 Co22 2.277065 1_555
Al32 Co23 2.277065 1_555
Al32 Al58 2.963706 1_555
Al32 Al59 2.963706 1_555
Al33 Co21 2.277065 1_555
Al33 Co20 2.277065 1_455
Al33 Al61 2.963706 1_555
Al33 Al60 2.963706 1_455
Al34 Co18 2.461159 1_555
Al34 Co14 2.531611 1_555
Al34 Al60 2.673108 1_555
Al34 Co13 2.680883 1_655
Al35 Co19 2.461160 1_555
Al35 Co14 2.531611 1_555
Al35 Al61 2.673108 1_555
Al35 Co13 2.680883 1_555
Al36 Co16 2.461159 1_555
Al36 Co15 2.531611 1_655
Al36 Al58 2.673108 1_555
Al36 Co12 2.680883 1_555
Al37 Co17 2.461159 1_555
Al37 Co15 2.531611 1_555
Al37 Al59 2.673108 1_555
Al37 Co12 2.680883 1_555
Al38 Co18 2.438257 1_545
Al38 Co6 2.469573 1_555
Al38 Co5 2.803117 1_655
Al39 Co19 2.438259 1_545
Al39 Co6 2.469573 1_555
Al39 Co5 2.803117 1_555
Al40 Co16 2.438257 1_565
Al40 Co7 2.469573 1_655
Al40 Co4 2.803117 1_555
Al41 Co17 2.438257 1_565
Al41 Co7 2.469573 1_555
Al41 Co4 2.803117 1_555
Al42 Co18 2.453726 1_555
Al42 Co2 2.457082 1_556
Al42 Co1 2.560531 1_655
Al43 Co19 2.453728 1_555
Al43 Co2 2.457082 1_556
Al43 Co1 2.560531 1_555
Al44 Co16 2.453726 1_555
Al44 Co3 2.457082 1_655
Al44 Co0 2.560531 1_555
Al45 Co17 2.453726 1_555
Al45 Co3 2.457082 1_555
Al45 Co0 2.560531 1_555
Al46 Co4 2.502526 1_555
Al46 Co14 2.513500 1_555
Al46 Co7 2.517349 1_655
Al46 Co13 2.520525 1_655
Al46 Al60 2.727217 1_555
Al47 Co4 2.502526 1_555
Al47 Co14 2.513500 1_555
Al47 Co7 2.517349 1_555
Al47 Co13 2.520525 1_555
Al47 Al61 2.727217 1_555
Al48 Co5 2.502526 1_655
Al48 Co15 2.513500 1_656
Al48 Co6 2.517349 1_555
Al48 Co12 2.520525 1_556
Al48 Al58 2.727217 1_556
Al49 Co5 2.502526 1_555
Al49 Co15 2.513500 1_556
Al49 Co6 2.517349 1_555
Al49 Co12 2.520525 1_556
Al49 Al59 2.727217 1_556
Al50 Co18 2.501899 1_545
Al50 Co0 2.512732 1_555
Al50 Co3 2.699031 1_655
Al51 Co19 2.501900 1_545
Al51 Co0 2.512732 1_555
Al51 Co3 2.699031 1_555
Al52 Co16 2.501899 1_565
Al52 Co1 2.512732 1_654
Al52 Co2 2.699031 1_555
Al53 Co17 2.501899 1_565
Al53 Co1 2.512732 1_554
Al53 Co2 2.699031 1_555
Al54 Co22 2.418819 1_555
Al54 Co2 2.495371 1_555
Al54 Co1 2.806700 1_654
Al55 Co23 2.418819 1_555
Al55 Co2 2.495371 1_555
Al55 Co1 2.806700 1_554
Al56 Co20 2.418819 1_555
Al56 Co3 2.495371 1_655
Al56 Co0 2.806700 1_555
Al57 Co21 2.418819 1_555
Al57 Co3 2.495371 1_555
Al57 Co0 2.806700 1_555
Al58 Co22 2.450180 1_555
Al58 Co12 2.488175 1_555
Al58 Co15 2.744494 1_655
Al58 Al66 2.761988 1_554
Al58 Al70 2.917465 1_555
Al59 Co23 2.450180 1_555
Al59 Co12 2.488175 1_555
Al59 Co15 2.744494 1_555
Al59 Al67 2.761988 1_554
Al59 Al71 2.917465 1_555
Al60 Co20 2.450180 1_555
Al60 Co13 2.488175 1_655
Al60 Co14 2.744494 1_555
Al60 Al68 2.761988 1_555
Al60 Al72 2.917465 1_555
Al61 Co21 2.450180 1_555
Al61 Co13 2.488175 1_555
Al61 Co14 2.744494 1_555
Al61 Al69 2.761988 1_555
Al61 Al73 2.917465 1_555
Al62 Co22 2.464699 1_555
Al62 Co4 2.523939 1_555
Al62 Co7 2.665957 1_655
Al63 Co23 2.464699 1_555
Al63 Co4 2.523939 1_555
Al63 Co7 2.665957 1_555
Al64 Co20 2.464699 1_555
Al64 Co5 2.523939 1_655
Al64 Co6 2.665957 1_555
Al65 Co21 2.464699 1_555
Al65 Co5 2.523939 1_555
Al65 Co6 2.665957 1_555
Al66 Co10 2.444793 1_555
Al66 Co22 2.451727 1_556
Al66 Co9 2.591642 1_655
Al67 Co10 2.444793 1_555
Al67 Co23 2.451727 1_556
Al67 Co9 2.591642 1_555
Al68 Co11 2.444793 1_655
Al68 Co20 2.451727 1_555
Al68 Co8 2.591642 1_555
Al69 Co11 2.444793 1_555
Al69 Co21 2.451727 1_555
Al69 Co8 2.591642 1_555
Al70 Co8 2.505653 1_555
Al70 Co22 2.510615 1_555
Al70 Co11 2.689907 1_655
Al71 Co8 2.505653 1_555
Al71 Co23 2.510615 1_555
Al71 Co11 2.689907 1_555
Al72 Co9 2.505653 1_655
Al72 Co20 2.510615 1_555
Al72 Co10 2.689907 1_555
Al73 Co9 2.505653 1_555
Al73 Co21 2.510615 1_555
Al73 Co10 2.689907 1_555
Al74 Co18 2.423828 1_555
Al74 Co10 2.497473 1_555
Al74 Co9 2.800025 1_655
Al75 Co19 2.423829 1_555
Al75 Co10 2.497473 1_555
Al75 Co9 2.800025 1_555
Al76 Co16 2.423828 1_555
Al76 Co11 2.497473 1_655
Al76 Co8 2.800025 1_555
Al77 Co17 2.423828 1_555
Al77 Co11 2.497473 1_555
Al77 Co8 2.800025 1_555
