# generated using pymatgen
data_PdW
_symmetry_space_group_name_H-M   'P 1'
_cell_length_a   9.80641111
_cell_length_b   9.80641111
_cell_length_c   9.80641116
_cell_angle_alpha   33.08310891
_cell_angle_beta   33.08310891
_cell_angle_gamma   33.08311094
_symmetry_Int_Tables_number   1
_chemical_formula_structural   PdW
_chemical_formula_sum   'Pd8 W8'
_cell_volume   250.08710592
_cell_formula_units_Z   8
loop_
 _symmetry_equiv_pos_site_id
 _symmetry_equiv_pos_as_xyz
  1  'x, y, z'
loop_
 _atom_site_type_symbol
 _atom_site_label
 _atom_site_symmetry_multiplicity
 _atom_site_fract_x
 _atom_site_fract_y
 _atom_site_fract_z
 _atom_site_occupancy
  Pd  Pd0_0  1  0.00000000  0.00000000  0.00000000  1
  Pd  Pd0_1  1  0.00000000  0.00000000  0.50000000  1
  Pd  Pd0_2  1  0.00000000  0.50000000  0.00000000  1
  Pd  Pd0_3  1  1.00000000  0.50000000  0.50000000  1
  Pd  Pd0_4  1  0.50000000  0.00000000  0.00000000  1
  Pd  Pd0_5  1  0.50000000  0.00000000  0.50000000  1
  Pd  Pd0_6  1  0.50000000  0.50000000  0.00000000  1
  Pd  Pd0_7  1  0.50000000  0.50000000  0.50000000  1
  W  W0_0  1  0.25000000  0.25000000  0.25000000  1
  W  W0_1  1  0.25000000  0.25000000  0.75000000  1
  W  W0_2  1  0.25000000  0.75000000  0.25000000  1
  W  W0_3  1  0.25000000  0.75000000  0.75000000  1
  W  W0_4  1  0.75000000  0.25000000  0.25000000  1
  W  W0_5  1  0.75000000  0.25000000  0.75000000  1
  W  W0_6  1  0.75000000  0.75000000  0.25000000  1
  W  W0_7  1  0.75000000  0.75000000  0.75000000  1
loop_
_geom_bond_atom_site_label_1
_geom_bond_atom_site_label_2
_geom_bond_distance
_geom_bond_site_symmetry_2
Pd0_0 Pd0_3 2.791990 1_454
Pd0_0 Pd0_5 2.791990 1_554
Pd0_0 Pd0_3 2.791990 1_445
Pd0_0 Pd0_5 2.791990 1_455
Pd0_0 Pd0_6 2.791990 1_455
Pd0_0 Pd0_6 2.791990 1_545
Pd0_0 W0_1 2.821198 1_554
Pd0_0 W0_6 2.821198 1_445
Pd0_0 W0_4 2.821198 1_455
Pd0_0 W0_2 2.821198 1_545
Pd0_0 W0_5 2.821198 1_454
Pd0_0 W0_3 2.821198 1_544
Pd0_1 Pd0_4 2.791990 1_456
Pd0_1 Pd0_2 2.791990 1_555
Pd0_1 Pd0_2 2.791990 1_546
Pd0_1 Pd0_4 2.791990 1_555
Pd0_1 Pd0_7 2.791990 1_545
Pd0_1 Pd0_7 2.791990 1_455
Pd0_1 W0_0 2.821198 1_555
Pd0_1 W0_7 2.821198 1_445
Pd0_1 W0_3 2.821198 1_545
Pd0_1 W0_5 2.821198 1_455
Pd0_1 W0_2 2.821198 1_545
Pd0_1 W0_4 2.821198 1_455
Pd0_2 Pd0_7 2.791990 1_554
Pd0_2 Pd0_7 2.791990 1_455
Pd0_2 Pd0_4 2.791990 1_555
Pd0_2 Pd0_4 2.791990 1_465
Pd0_2 W0_3 2.821198 1_554
Pd0_2 W0_4 2.821198 1_455
Pd0_2 W0_0 2.821198 1_555
Pd0_2 W0_6 2.821198 1_455
Pd0_2 W0_1 2.821198 1_554
Pd0_2 W0_7 2.821198 1_454
Pd0_3 Pd0_6 2.791990 1_556
Pd0_3 Pd0_6 2.791990 1_655
Pd0_3 Pd0_5 2.791990 1_565
Pd0_3 Pd0_5 2.791990 1_655
Pd0_3 W0_5 2.821198 1_555
Pd0_3 W0_2 2.821198 1_655
Pd0_3 W0_0 2.821198 1_655
Pd0_3 W0_7 2.821198 1_555
Pd0_3 W0_6 2.821198 1_555
Pd0_3 W0_1 2.821198 1_655
Pd0_4 Pd0_7 2.791990 1_554
Pd0_4 Pd0_7 2.791990 1_545
Pd0_4 W0_5 2.821198 1_554
Pd0_4 W0_2 2.821198 1_545
Pd0_4 W0_6 2.821198 1_545
Pd0_4 W0_0 2.821198 1_555
Pd0_4 W0_1 2.821198 1_554
Pd0_4 W0_7 2.821198 1_544
Pd0_5 Pd0_6 2.791990 1_546
Pd0_5 Pd0_6 2.791990 1_555
Pd0_5 W0_4 2.821198 1_555
Pd0_5 W0_3 2.821198 1_545
Pd0_5 W0_7 2.821198 1_545
Pd0_5 W0_1 2.821198 1_555
Pd0_5 W0_6 2.821198 1_545
Pd0_5 W0_0 2.821198 1_555
Pd0_6 W0_7 2.821198 1_554
Pd0_6 W0_0 2.821198 1_555
Pd0_6 W0_2 2.821198 1_555
Pd0_6 W0_4 2.821198 1_555
Pd0_6 W0_5 2.821198 1_554
Pd0_6 W0_3 2.821198 1_554
Pd0_7 W0_1 2.821198 1_555
Pd0_7 W0_6 2.821198 1_555
Pd0_7 W0_4 2.821198 1_555
Pd0_7 W0_2 2.821198 1_555
Pd0_7 W0_3 2.821198 1_555
Pd0_7 W0_5 2.821198 1_555
W0_0 W0_3 2.791990 1_554
W0_0 W0_5 2.791990 1_554
W0_0 W0_5 2.791990 1_455
W0_0 W0_3 2.791990 1_545
W0_0 W0_6 2.791990 1_545
W0_0 W0_6 2.791990 1_455
W0_1 W0_2 2.791990 1_555
W0_1 W0_2 2.791990 1_546
W0_1 W0_4 2.791990 1_456
W0_1 W0_4 2.791990 1_555
W0_1 W0_7 2.791990 1_455
W0_1 W0_7 2.791990 1_545
W0_2 W0_7 2.791990 1_554
W0_2 W0_7 2.791990 1_455
W0_2 W0_4 2.791990 1_555
W0_2 W0_4 2.791990 1_465
W0_3 W0_6 2.791990 1_456
W0_3 W0_6 2.791990 1_555
W0_3 W0_5 2.791990 1_555
W0_3 W0_5 2.791990 1_465
W0_4 W0_7 2.791990 1_554
W0_4 W0_7 2.791990 1_545
W0_5 W0_6 2.791990 1_546
W0_5 W0_6 2.791990 1_555
