# generated using pymatgen
data_CsNbF6
_symmetry_space_group_name_H-M   'P 1'
_cell_length_a   5.26391763
_cell_length_b   5.26391725
_cell_length_c   5.26391724
_cell_angle_alpha   96.36788521
_cell_angle_beta   96.36786905
_cell_angle_gamma   96.36787630
_symmetry_Int_Tables_number   1
_chemical_formula_structural   CsNbF6
_chemical_formula_sum   'Cs1 Nb1 F6'
_cell_volume   142.93737610
_cell_formula_units_Z   1
loop_
 _symmetry_equiv_pos_site_id
 _symmetry_equiv_pos_as_xyz
  1  'x, y, z'
loop_
 _atom_site_type_symbol
 _atom_site_label
 _atom_site_symmetry_multiplicity
 _atom_site_fract_x
 _atom_site_fract_y
 _atom_site_fract_z
 _atom_site_occupancy
  Cs  Cs0  1  -0.00000000  -0.00000000  0.00000000  1
  Nb  Nb0  1  0.50000000  0.50000000  0.50000000  1
  F  F0  1  0.42229520  0.69023769  0.81133947  1
  F  F1  1  0.69023769  0.81133947  0.42229520  1
  F  F2  1  0.18866053  0.57770480  0.30976231  1
  F  F3  1  0.30976231  0.18866053  0.57770480  1
  F  F4  1  0.57770480  0.30976231  0.18866053  1
  F  F5  1  0.81133947  0.42229520  0.69023769  1
loop_
_geom_bond_atom_site_label_1
_geom_bond_atom_site_label_2
_geom_bond_distance
_geom_bond_site_symmetry_2
Cs0 F0 3.085595 1_544
Cs0 F4 3.085595 1_455
Cs0 F1 3.085595 1_445
Cs0 F3 3.085595 1_554
Cs0 F2 3.085595 1_545
Cs0 F5 3.085595 1_454
Cs0 F5 3.280788 1_444
Cs0 F2 3.280788 1_555
Cs0 F3 3.280788 1_555
Cs0 F1 3.280788 1_444
Cs0 F0 3.280788 1_444
Cs0 F4 3.280788 1_555
F0 Nb0 1.931707 1_555
F1 Nb0 1.931707 1_555
F2 Nb0 1.931707 1_555
F3 Nb0 1.931707 1_555
F4 Nb0 1.931707 1_555
F5 Nb0 1.931707 1_555
