# generated using pymatgen
data_Eu2Ge3Au
_symmetry_space_group_name_H-M   'P 1'
_cell_length_a   4.38986600
_cell_length_b   4.39287600
_cell_length_c   8.72413200
_cell_angle_alpha   90.00000000
_cell_angle_beta   90.00000000
_cell_angle_gamma   120.01014546
_symmetry_Int_Tables_number   1
_chemical_formula_structural   Eu2Ge3Au
_chemical_formula_sum   'Eu2 Ge3 Au1'
_cell_volume   145.68292725
_cell_formula_units_Z   1
loop_
 _symmetry_equiv_pos_site_id
 _symmetry_equiv_pos_as_xyz
  1  'x, y, z'
loop_
 _atom_site_type_symbol
 _atom_site_label
 _atom_site_symmetry_multiplicity
 _atom_site_fract_x
 _atom_site_fract_y
 _atom_site_fract_z
 _atom_site_occupancy
  Eu  Eu0  1  0.99999300  0.99998200  0.00493000  1
  Eu  Eu1  1  0.99999300  0.99998200  0.49507000  1
  Ge  Ge0  1  0.33325000  0.66663800  0.75000000  1
  Ge  Ge1  1  0.66647400  0.33332300  0.25000000  1
  Ge  Ge2  1  0.66665000  0.33334700  0.75000000  1
  Au  Au0  1  0.33344000  0.66672700  0.25000000  1
loop_
_geom_bond_atom_site_label_1
_geom_bond_atom_site_label_2
_geom_bond_distance
_geom_bond_site_symmetry_2
Eu0 Ge1 3.315101 1_665
Eu0 Ge1 3.316946 1_555
Eu0 Ge1 3.317164 1_565
Eu0 Ge2 3.371722 1_664
Eu0 Ge0 3.371968 1_554
Eu0 Ge0 3.372507 1_654
Eu0 Ge2 3.372813 1_564
Eu0 Ge2 3.372965 1_554
Eu0 Ge0 3.373026 1_664
Eu1 Ge1 3.315101 1_665
Eu1 Ge1 3.316946 1_555
Eu1 Ge1 3.317164 1_565
Eu1 Ge2 3.371722 1_665
Eu1 Ge0 3.371968 1_555
Eu1 Ge0 3.372507 1_655
Eu1 Ge2 3.372813 1_565
Eu1 Ge2 3.372965 1_555
Eu1 Ge0 3.373026 1_665
Ge0 Ge2 2.533978 1_455
Ge0 Ge2 2.535581 1_555
Ge0 Ge2 2.536130 1_565
Au0 Ge1 2.534620 1_555
Au0 Ge1 2.535369 1_455
Au0 Ge1 2.535701 1_565
Au0 Eu0 3.315310 1_555
Au0 Eu1 3.315310 1_555
Au0 Eu0 3.316704 1_455
Au0 Eu1 3.316704 1_455
Au0 Eu0 3.317197 1_445
Au0 Eu1 3.317197 1_445
