# generated using pymatgen
data_Li2MnP2O7
_symmetry_space_group_name_H-M   'P 1'
_cell_length_a   7.36964535
_cell_length_b   8.38557880
_cell_length_c   10.45898205
_cell_angle_alpha   94.17407005
_cell_angle_beta   98.61051932
_cell_angle_gamma   65.62844118
_symmetry_Int_Tables_number   1
_chemical_formula_structural   Li2MnP2O7
_chemical_formula_sum   'Li8 Mn4 P8 O28'
_cell_volume   582.07523966
_cell_formula_units_Z   4
loop_
 _symmetry_equiv_pos_site_id
 _symmetry_equiv_pos_as_xyz
  1  'x, y, z'
loop_
 _atom_site_type_symbol
 _atom_site_label
 _atom_site_symmetry_multiplicity
 _atom_site_fract_x
 _atom_site_fract_y
 _atom_site_fract_z
 _atom_site_occupancy
  Li  Li0  1  0.82395100  0.56579300  0.15028100  1
  Li  Li1  1  0.82422100  0.56580300  0.65026500  1
  Li  Li2  1  0.17575100  0.43416900  0.34976200  1
  Li  Li3  1  0.17605700  0.43422400  0.84969400  1
  Li  Li4  1  0.86858100  0.99222000  0.14978700  1
  Li  Li5  1  0.86880900  0.99216300  0.64984700  1
  Li  Li6  1  0.13117600  0.00785000  0.35014300  1
  Li  Li7  1  0.13140900  0.00773400  0.85019600  1
  Mn  Mn0  1  0.27760800  0.72018600  0.58786900  1
  Mn  Mn1  1  0.72197900  0.27976700  0.41189800  1
  Mn  Mn2  1  0.27798700  0.72014100  0.08811600  1
  Mn  Mn3  1  0.72237900  0.27976500  0.91216100  1
  P  P0  1  0.86523600  0.82313000  0.38794100  1
  P  P1  1  0.86522300  0.82316300  0.88798100  1
  P  P2  1  0.13477400  0.17684800  0.11202900  1
  P  P3  1  0.13475100  0.17688200  0.61203300  1
  P  P4  1  0.54896100  0.70147500  0.36797700  1
  P  P5  1  0.54902400  0.70144500  0.86802900  1
  P  P6  1  0.45095300  0.29856000  0.13195100  1
  P  P7  1  0.45108300  0.29853400  0.63204900  1
  O  O0  1  0.66136900  0.21198500  0.08873400  1
  O  O1  1  0.66147700  0.21194600  0.58880000  1
  O  O2  1  0.33849800  0.78809500  0.41112500  1
  O  O3  1  0.33867300  0.78800300  0.91133000  1
  O  O4  1  0.68953600  0.54647600  0.45424600  1
  O  O5  1  0.68978100  0.54650000  0.95432700  1
  O  O6  1  0.31023500  0.45351700  0.04570300  1
  O  O7  1  0.31046000  0.45354800  0.54575500  1
  O  O8  1  0.96033600  0.79665600  0.03036600  1
  O  O9  1  0.96029900  0.79653800  0.53033800  1
  O  O10  1  0.03962800  0.20346500  0.46964200  1
  O  O11  1  0.03980000  0.20333100  0.96962400  1
  O  O12  1  0.36754500  0.14542500  0.10872600  1
  O  O13  1  0.36751200  0.14547300  0.60868600  1
  O  O14  1  0.63249000  0.85454900  0.39132400  1
  O  O15  1  0.63246000  0.85460600  0.89128200  1
  O  O16  1  0.14743300  0.00421900  0.16480000  1
  O  O17  1  0.14749000  0.00419800  0.66476300  1
  O  O18  1  0.85249700  0.99582200  0.33521600  1
  O  O19  1  0.85258600  0.99577700  0.83521100  1
  O  O20  1  0.03883600  0.33261200  0.19960900  1
  O  O21  1  0.03884400  0.33254700  0.69971500  1
  O  O22  1  0.96116400  0.66744000  0.30028900  1
  O  O23  1  0.96111200  0.66742100  0.80036900  1
  O  O24  1  0.45679400  0.34282400  0.27732300  1
  O  O25  1  0.45689600  0.34262300  0.77743200  1
  O  O26  1  0.54322300  0.65732400  0.22258800  1
  O  O27  1  0.54311900  0.65722500  0.72266200  1
loop_
_geom_bond_atom_site_label_1
_geom_bond_atom_site_label_2
_geom_bond_distance
_geom_bond_site_symmetry_2
Li0 O20 1.985971 1_655
Li0 O22 2.062096 1_555
Li0 O26 2.124785 1_555
Li0 O5 2.163606 1_554
Li1 O21 1.985987 1_655
Li1 O23 2.061324 1_555
Li1 O27 2.127714 1_555
Li1 O4 2.165571 1_555
Li2 O22 1.986030 1_455
Li2 O20 2.061471 1_555
Li2 O24 2.127584 1_555
Li2 O7 2.165480 1_555
Li3 O23 1.986210 1_455
Li3 O21 2.062038 1_555
Li3 O25 2.125240 1_555
Li3 O6 2.164129 1_556
Li4 O0 1.921614 1_565
Li4 O8 1.935501 1_555
Li4 O18 1.957953 1_555
Li4 O16 2.080793 1_665
Li5 O1 1.922004 1_565
Li5 O9 1.936235 1_555
Li5 O19 1.957474 1_555
Li5 O17 2.079751 1_665
Li6 O2 1.921632 1_545
Li6 O10 1.936154 1_555
Li6 O16 1.957294 1_555
Li6 O18 2.079701 1_445
Li7 O3 1.921801 1_545
Li7 O11 1.935625 1_555
Li7 O17 1.958036 1_555
Li7 O19 2.080444 1_445
Mn0 O27 2.127151 1_555
Mn0 O2 2.134327 1_555
Mn0 O9 2.153941 1_455
Mn0 O7 2.166504 1_555
Mn0 O17 2.303400 1_565
Mn1 O24 2.124121 1_555
Mn1 O1 2.134251 1_555
Mn1 O10 2.156613 1_655
Mn1 O4 2.168295 1_555
Mn1 O18 2.302311 1_545
Mn2 O26 2.123973 1_555
Mn2 O3 2.133890 1_554
Mn2 O8 2.156402 1_455
Mn2 O6 2.168111 1_555
Mn2 O16 2.303262 1_565
Mn3 O25 2.126711 1_555
Mn3 O0 2.132635 1_556
Mn3 O11 2.154513 1_655
Mn3 O5 2.167905 1_555
Mn3 O19 2.303456 1_545
O0 P6 1.539158 1_555
O1 P7 1.539160 1_555
O2 P4 1.539172 1_555
O3 P5 1.539103 1_555
O4 P4 1.535019 1_555
O5 P5 1.535228 1_555
O6 P6 1.534934 1_555
O7 P7 1.535323 1_555
O8 P1 1.538017 1_554
O9 P0 1.538058 1_555
O10 P3 1.538110 1_555
O11 P2 1.537945 1_556
O12 P6 1.627006 1_555
O12 P2 1.629947 1_555
O13 P7 1.627296 1_555
O13 P3 1.629983 1_555
O14 P4 1.627181 1_555
O14 P0 1.629914 1_555
O15 P5 1.627361 1_555
O15 P1 1.629839 1_555
O16 P2 1.548643 1_555
O17 P3 1.548673 1_555
O18 P0 1.548714 1_555
O19 P1 1.548582 1_555
O20 P2 1.517435 1_555
O21 P3 1.517522 1_555
O22 P0 1.517493 1_555
O23 P1 1.517451 1_555
O24 P6 1.537143 1_555
O25 P7 1.536993 1_555
O26 P4 1.537159 1_555
O27 P5 1.537016 1_555
