# generated using pymatgen
data_Ti5As3
_symmetry_space_group_name_H-M   'P 1'
_cell_length_a   6.74450603
_cell_length_b   7.73640819
_cell_length_c   9.82129843
_cell_angle_alpha   89.99956715
_cell_angle_beta   90.00106953
_cell_angle_gamma   90.00018631
_symmetry_Int_Tables_number   1
_chemical_formula_structural   Ti5As3
_chemical_formula_sum   'Ti20 As12'
_cell_volume   512.45818133
_cell_formula_units_Z   4
loop_
 _symmetry_equiv_pos_site_id
 _symmetry_equiv_pos_as_xyz
  1  'x, y, z'
loop_
 _atom_site_type_symbol
 _atom_site_label
 _atom_site_symmetry_multiplicity
 _atom_site_fract_x
 _atom_site_fract_y
 _atom_site_fract_z
 _atom_site_occupancy
  Ti  Ti0  1  0.69900497  0.94764569  0.43881175  1
  Ti  Ti1  1  0.80101004  0.55235237  0.93883228  1
  Ti  Ti2  1  0.30098467  0.44765062  0.56116858  1
  Ti  Ti3  1  0.19900235  0.05234913  0.06119395  1
  Ti  Ti4  1  0.30098213  0.05234546  0.56116982  1
  Ti  Ti5  1  0.19900081  0.44765561  0.06119418  1
  Ti  Ti6  1  0.69900801  0.55235035  0.43881206  1
  Ti  Ti7  1  0.80100671  0.94764778  0.93883159  1
  Ti  Ti8  1  0.33065422  0.74999907  0.26914686  1
  Ti  Ti9  1  0.16932350  0.74999951  0.76912276  1
  Ti  Ti10  1  0.66932220  0.25000141  0.73084796  1
  Ti  Ti11  1  0.83070243  0.25000346  0.23087272  1
  Ti  Ti12  1  0.02932852  0.74999476  0.49818584  1
  Ti  Ti13  1  0.47066203  0.75000229  0.99819911  1
  Ti  Ti14  1  0.97071267  0.25000493  0.50179883  1
  Ti  Ti15  1  0.52928387  0.24999603  0.00183366  1
  Ti  Ti16  1  0.84192468  0.74999770  0.20952525  1
  Ti  Ti17  1  0.65809355  0.74999726  0.70949523  1
  Ti  Ti18  1  0.15810848  0.24999802  0.79048018  1
  Ti  Ti19  1  0.34189562  0.25000009  0.29050433  1
  As  As0  1  0.08406696  0.74998973  0.01900673  1
  As  As1  1  0.41595398  0.75002851  0.51899154  1
  As  As2  1  0.91591794  0.25001493  0.98100985  1
  As  As3  1  0.58404483  0.24998425  0.48099324  1
  As  As4  1  0.57201310  0.99043851  0.17493739  1
  As  As5  1  0.92798772  0.50957752  0.67491480  1
  As  As6  1  0.42795413  0.49043718  0.82506490  1
  As  As7  1  0.07203278  0.00957845  0.32507321  1
  As  As8  1  0.42795445  0.00956456  0.82506777  1
  As  As9  1  0.07205034  0.49042550  0.32507494  1
  As  As10  1  0.57202343  0.50955114  0.17492575  1
  As  As11  1  0.92798589  0.99041920  0.67491195  1
loop_
_geom_bond_atom_site_label_1
_geom_bond_atom_site_label_2
_geom_bond_distance
_geom_bond_site_symmetry_2
As0 Ti16 2.483624 1_455
As0 Ti5 2.498675 1_555
As0 Ti3 2.498863 1_565
As0 Ti9 2.520658 1_554
As0 Ti1 2.569514 1_454
As0 Ti7 2.569628 1_454
As0 Ti13 2.615393 1_554
As0 Ti8 2.966675 1_555
As1 Ti17 2.483457 1_555
As1 Ti4 2.498626 1_565
As1 Ti2 2.499050 1_555
As1 Ti8 2.520328 1_555
As1 Ti0 2.569422 1_555
As1 Ti6 2.569732 1_555
As1 Ti12 2.615588 1_555
As1 Ti9 2.966817 1_555
As2 Ti18 2.483921 1_655
As2 Ti1 2.498629 1_555
As2 Ti7 2.498854 1_545
As2 Ti11 2.520393 1_556
As2 Ti5 2.569689 1_656
As2 Ti3 2.569812 1_656
As2 Ti15 2.615667 1_556
As2 Ti10 2.966884 1_555
As3 Ti19 2.483390 1_555
As3 Ti0 2.498764 1_545
As3 Ti6 2.498958 1_555
As3 Ti10 2.520390 1_555
As3 Ti4 2.569571 1_555
As3 Ti2 2.569696 1_555
As3 Ti14 2.615873 1_555
As3 Ti11 2.966833 1_555
As4 Ti16 2.624779 1_555
As4 Ti13 2.634440 1_554
As4 Ti8 2.639339 1_555
As4 Ti15 2.646804 1_565
As4 Ti11 2.716304 1_565
As4 Ti0 2.749442 1_555
As4 Ti19 2.780205 1_565
As4 Ti3 2.793984 1_565
As4 Ti7 2.805744 1_554
As5 Ti17 2.624585 1_555
As5 Ti12 2.634256 1_655
As5 Ti9 2.639131 1_655
As5 Ti14 2.646993 1_555
As5 Ti10 2.716268 1_555
As5 Ti1 2.749829 1_555
As5 Ti18 2.780275 1_655
As5 Ti2 2.793974 1_655
As5 Ti6 2.805600 1_555
As6 Ti18 2.624453 1_555
As6 Ti15 2.634611 1_556
As6 Ti10 2.639400 1_555
As6 Ti13 2.647044 1_555
As6 Ti9 2.716051 1_555
As6 Ti2 2.749596 1_555
As6 Ti17 2.780271 1_555
As6 Ti1 2.794359 1_555
As6 Ti5 2.805771 1_556
As7 Ti19 2.624422 1_555
As7 Ti14 2.634271 1_455
As7 Ti11 2.639097 1_455
As7 Ti12 2.647001 1_545
As7 Ti8 2.716096 1_545
As7 Ti3 2.749449 1_555
As7 Ti16 2.780170 1_445
As7 Ti0 2.794133 1_445
As7 Ti4 2.805435 1_555
As8 Ti18 2.624432 1_555
As8 Ti15 2.634555 1_556
As8 Ti10 2.639398 1_555
As8 Ti13 2.646991 1_545
As8 Ti9 2.716071 1_545
As8 Ti4 2.749608 1_555
As8 Ti17 2.780341 1_545
As8 Ti7 2.794325 1_545
As8 Ti3 2.805750 1_556
As9 Ti19 2.624375 1_555
As9 Ti14 2.634236 1_455
As9 Ti11 2.639162 1_455
As9 Ti12 2.646940 1_555
As9 Ti8 2.715976 1_555
As9 Ti5 2.749427 1_555
As9 Ti16 2.780190 1_455
As9 Ti6 2.794211 1_455
As9 Ti2 2.805359 1_555
As10 Ti16 2.624772 1_555
As10 Ti13 2.634449 1_554
As10 Ti8 2.639486 1_555
As10 Ti15 2.646743 1_555
As10 Ti11 2.716186 1_555
As10 Ti6 2.749547 1_555
As10 Ti19 2.780212 1_555
As10 Ti5 2.793990 1_555
As10 Ti1 2.805622 1_554
As11 Ti17 2.624580 1_555
As11 Ti12 2.634302 1_655
As11 Ti9 2.639134 1_655
As11 Ti14 2.647033 1_565
As11 Ti10 2.716315 1_565
As11 Ti7 2.749844 1_555
As11 Ti18 2.780295 1_665
As11 Ti4 2.793947 1_665
As11 Ti0 2.805587 1_555
