# generated using pymatgen
data_Er3Ir2
_symmetry_space_group_name_H-M   'P 1'
_cell_length_a   14.81805563
_cell_length_b   14.81805563
_cell_length_c   14.81805563
_cell_angle_alpha   135.68755955
_cell_angle_beta   135.68755955
_cell_angle_gamma   64.46374464
_symmetry_Int_Tables_number   1
_chemical_formula_structural   Er3Ir2
_chemical_formula_sum   'Er42 Ir28'
_cell_volume   1565.81522192
_cell_formula_units_Z   14
loop_
 _symmetry_equiv_pos_site_id
 _symmetry_equiv_pos_as_xyz
  1  'x, y, z'
loop_
 _atom_site_type_symbol
 _atom_site_label
 _atom_site_symmetry_multiplicity
 _atom_site_fract_x
 _atom_site_fract_y
 _atom_site_fract_z
 _atom_site_occupancy
  Er  Er0  1  0.63230200  0.50376900  0.27925900  1
  Er  Er1  1  0.22451000  0.35304300  0.72074100  1
  Er  Er2  1  0.13230200  0.85304300  0.12853300  1
  Er  Er3  1  0.72451000  0.00376900  0.87146700  1
  Er  Er4  1  0.35304300  0.63230200  0.12853300  1
  Er  Er5  1  0.50376900  0.22451000  0.87146700  1
  Er  Er6  1  0.00376900  0.13230200  0.27925900  1
  Er  Er7  1  0.85304300  0.72451000  0.72074100  1
  Er  Er8  1  0.36769800  0.49623100  0.72074100  1
  Er  Er9  1  0.77549000  0.64695700  0.27925900  1
  Er  Er10  1  0.86769800  0.14695700  0.87146700  1
  Er  Er11  1  0.27549000  0.99623100  0.12853300  1
  Er  Er12  1  0.64695700  0.36769800  0.87146700  1
  Er  Er13  1  0.49623100  0.77549000  0.12853300  1
  Er  Er14  1  0.99623100  0.86769800  0.72074100  1
  Er  Er15  1  0.14695700  0.27549000  0.27925900  1
  Er  Er16  1  0.38555000  0.51678600  0.29012200  1
  Er  Er17  1  0.22666300  0.09542700  0.70987800  1
  Er  Er18  1  0.88555000  0.59542700  0.86876400  1
  Er  Er19  1  0.72666300  0.01678600  0.13123600  1
  Er  Er20  1  0.09542700  0.38555000  0.86876400  1
  Er  Er21  1  0.51678600  0.22666300  0.13123600  1
  Er  Er22  1  0.01678600  0.88555000  0.29012200  1
  Er  Er23  1  0.59542700  0.72666300  0.70987800  1
  Er  Er24  1  0.61445000  0.48321400  0.70987800  1
  Er  Er25  1  0.77333700  0.90457300  0.29012200  1
  Er  Er26  1  0.11445000  0.40457300  0.13123600  1
  Er  Er27  1  0.27333700  0.98321400  0.86876400  1
  Er  Er28  1  0.90457300  0.61445000  0.13123600  1
  Er  Er29  1  0.48321400  0.77333700  0.86876400  1
  Er  Er30  1  0.98321400  0.11445000  0.70987800  1
  Er  Er31  1  0.40457300  0.27333700  0.29012200  1
  Er  Er32  1  0.85026000  0.35026000  0.20052000  1
  Er  Er33  1  0.14974000  0.64974000  0.79948000  1
  Er  Er34  1  0.35026000  0.14974000  0.50000000  1
  Er  Er35  1  0.64974000  0.85026000  0.50000000  1
  Er  Er36  1  0.38765600  0.88765600  0.50000000  1
  Er  Er37  1  0.88765600  0.38765600  0.50000000  1
  Er  Er38  1  0.61234400  0.11234400  0.50000000  1
  Er  Er39  1  0.11234400  0.61234400  0.50000000  1
  Er  Er40  1  0.25000000  0.75000000  0.50000000  1
  Er  Er41  1  0.75000000  0.25000000  0.50000000  1
  Ir  Ir0  1  0.71469500  0.21469500  0.14145500  1
  Ir  Ir1  1  0.07324000  0.57324000  0.85854500  1
  Ir  Ir2  1  0.21469500  0.07324000  0.50000000  1
  Ir  Ir3  1  0.57324000  0.71469500  0.50000000  1
  Ir  Ir4  1  0.28530500  0.78530500  0.85854500  1
  Ir  Ir5  1  0.92676000  0.42676000  0.14145500  1
  Ir  Ir6  1  0.78530500  0.92676000  0.50000000  1
  Ir  Ir7  1  0.42676000  0.28530500  0.50000000  1
  Ir  Ir8  1  0.46569600  0.96569600  0.80838500  1
  Ir  Ir9  1  0.15731100  0.65731100  0.19161500  1
  Ir  Ir10  1  0.96569600  0.15731100  0.50000000  1
  Ir  Ir11  1  0.65731100  0.46569600  0.50000000  1
  Ir  Ir12  1  0.53430400  0.03430400  0.19161500  1
  Ir  Ir13  1  0.84268900  0.34268900  0.80838500  1
  Ir  Ir14  1  0.03430400  0.84268900  0.50000000  1
  Ir  Ir15  1  0.34268900  0.53430400  0.50000000  1
  Ir  Ir16  1  0.59661600  0.09661600  0.69323300  1
  Ir  Ir17  1  0.40338400  0.90338400  0.30676700  1
  Ir  Ir18  1  0.09661600  0.40338400  0.50000000  1
  Ir  Ir19  1  0.90338400  0.59661600  0.50000000  1
  Ir  Ir20  1  0.36613500  0.36613500  0.00000000  1
  Ir  Ir21  1  0.86613500  0.86613500  0.00000000  1
  Ir  Ir22  1  0.63386500  0.63386500  0.00000000  1
  Ir  Ir23  1  0.13386500  0.13386500  0.00000000  1
  Ir  Ir24  1  0.50000000  0.50000000  0.00000000  1
  Ir  Ir25  1  0.00000000  0.00000000  0.00000000  1
  Ir  Ir26  1  0.25000000  0.25000000  0.00000000  1
  Ir  Ir27  1  0.75000000  0.75000000  0.00000000  1
loop_
_geom_bond_atom_site_label_1
_geom_bond_atom_site_label_2
_geom_bond_distance
_geom_bond_site_symmetry_2
Er0 Ir19 2.872102 1_555
Er0 Ir20 2.887876 1_555
Er0 Ir3 2.888209 1_555
Er0 Ir24 3.020622 1_555
Er0 Ir0 3.248105 1_555
Er0 Ir11 3.446833 1_555
Er0 Er37 3.564516 1_555
Er1 Ir18 2.872102 1_555
Er1 Ir20 2.887876 1_556
Er1 Ir2 2.888209 1_555
Er1 Ir24 3.020622 1_556
Er1 Ir1 3.248105 1_555
Er1 Ir10 3.446833 1_455
Er1 Er37 3.564516 1_455
Er2 Ir17 2.872106 1_555
Er2 Ir21 2.887876 1_455
Er2 Ir1 2.888209 1_554
Er2 Ir25 3.020622 1_565
Er2 Ir2 3.248105 1_565
Er2 Ir9 3.446833 1_555
Er2 Er36 3.564516 1_555
Er3 Ir16 2.872090 1_555
Er3 Ir21 2.887876 1_546
Er3 Ir0 2.888209 1_556
Er3 Ir25 3.020622 1_656
Er3 Ir3 3.248105 1_545
Er3 Ir8 3.446833 1_545
Er3 Er36 3.564516 1_545
Er4 Ir17 2.872106 1_555
Er4 Ir20 2.887876 1_555
Er4 Ir1 2.888209 1_554
Er4 Ir24 3.020622 1_555
Er4 Ir3 3.248105 1_555
Er4 Ir9 3.446833 1_555
Er5 Ir16 2.872090 1_555
Er5 Ir20 2.887876 1_556
Er5 Ir0 2.888209 1_556
Er5 Ir24 3.020622 1_556
Er5 Ir2 3.248105 1_555
Er5 Ir8 3.446833 1_545
Er6 Ir18 2.872102 1_555
Er6 Ir21 2.887876 1_445
Er6 Ir2 2.888209 1_555
Er6 Ir25 3.020622 1_555
Er6 Ir0 3.248105 1_455
Er6 Ir10 3.446833 1_455
Er7 Ir19 2.872102 1_555
Er7 Ir21 2.887876 1_556
Er7 Ir3 2.888209 1_555
Er7 Ir25 3.020622 1_666
Er7 Ir1 3.248105 1_655
Er7 Ir11 3.446833 1_555
Er8 Ir18 2.872102 1_555
Er8 Ir22 2.887876 1_556
Er8 Ir7 2.888209 1_555
Er8 Ir24 3.020622 1_556
Er8 Ir4 3.248105 1_555
Er8 Ir15 3.446833 1_555
Er9 Ir19 2.872102 1_555
Er9 Ir22 2.887876 1_555
Er9 Ir6 2.888209 1_555
Er9 Ir24 3.020622 1_555
Er9 Ir5 3.248105 1_555
Er9 Ir14 3.446833 1_655
Er10 Ir16 2.872106 1_555
Er10 Ir23 2.887876 1_656
Er10 Ir5 2.888209 1_556
Er10 Ir25 3.020622 1_656
Er10 Ir6 3.248105 1_545
Er10 Ir13 3.446833 1_555
Er10 Er38 3.564516 1_555
Er11 Ir17 2.872090 1_555
Er11 Ir23 2.887876 1_565
Er11 Ir4 2.888209 1_554
Er11 Ir25 3.020622 1_565
Er11 Ir7 3.248105 1_565
Er11 Ir12 3.446833 1_565
Er11 Er38 3.564516 1_565
Er12 Ir16 2.872106 1_555
Er12 Ir22 2.887876 1_556
Er12 Ir5 2.888209 1_556
Er12 Ir24 3.020622 1_556
Er12 Ir7 3.248105 1_555
Er12 Ir13 3.446833 1_555
Er12 Er38 3.564516 1_555
Er13 Ir17 2.872090 1_555
Er13 Ir22 2.887876 1_555
Er13 Ir4 2.888209 1_554
Er13 Ir24 3.020622 1_555
Er13 Ir6 3.248105 1_555
Er13 Ir12 3.446833 1_565
Er13 Er38 3.564516 1_565
Er14 Ir19 2.872102 1_555
Er14 Ir23 2.887876 1_666
Er14 Ir6 2.888209 1_555
Er14 Ir25 3.020622 1_666
Er14 Ir4 3.248105 1_655
Er14 Ir14 3.446833 1_655
Er14 Er39 3.564516 1_655
Er15 Ir18 2.872102 1_555
Er15 Ir23 2.887876 1_555
Er15 Ir7 2.888209 1_555
Er15 Ir25 3.020622 1_555
Er15 Ir5 3.248105 1_455
Er15 Ir15 3.446833 1_555
Er15 Er39 3.564516 1_555
Er16 Ir3 2.758474 1_555
Er16 Ir26 2.882956 1_555
Er16 Ir20 2.932169 1_555
Er16 Ir9 3.019625 1_555
Er16 Ir11 3.046304 1_555
Er16 Ir15 3.416428 1_555
Er17 Ir2 2.758494 1_555
Er17 Ir26 2.882944 1_556
Er17 Ir20 2.932182 1_556
Er17 Ir8 3.019626 1_545
Er17 Ir10 3.046305 1_455
Er17 Ir14 3.416407 1_545
Er18 Ir1 2.758479 1_655
Er18 Ir27 2.882956 1_556
Er18 Ir21 2.932181 1_556
Er18 Ir11 3.019627 1_555
Er18 Ir9 3.046300 1_656
Er18 Ir13 3.416414 1_555
Er19 Ir0 2.758479 1_555
Er19 Ir27 2.882956 1_545
Er19 Ir21 2.932181 1_545
Er19 Ir10 3.019627 1_555
Er19 Ir8 3.046300 1_544
Er19 Ir12 3.416414 1_555
Er20 Ir1 2.758479 1_555
Er20 Ir26 2.882956 1_556
Er20 Ir20 2.932181 1_556
Er20 Ir10 3.019627 1_455
Er20 Ir9 3.046300 1_556
Er20 Ir13 3.416414 1_455
Er21 Ir0 2.758479 1_555
Er21 Ir26 2.882956 1_555
Er21 Ir20 2.932181 1_555
Er21 Ir11 3.019627 1_555
Er21 Ir8 3.046300 1_544
Er21 Ir12 3.416414 1_555
Er22 Ir2 2.758474 1_565
Er22 Ir27 2.882956 1_455
Er22 Ir21 2.932169 1_455
Er22 Ir9 3.019625 1_555
Er22 Ir10 3.046304 1_465
Er22 Ir14 3.416428 1_555
Er23 Ir3 2.758494 1_555
Er23 Ir27 2.882944 1_556
Er23 Ir21 2.932182 1_556
Er23 Ir8 3.019626 1_555
Er23 Ir11 3.046305 1_555
Er23 Ir15 3.416407 1_555
Er24 Ir7 2.758474 1_555
Er24 Ir27 2.882956 1_556
Er24 Ir22 2.932169 1_556
Er24 Ir13 3.019625 1_555
Er24 Ir15 3.046304 1_555
Er24 Ir11 3.416428 1_555
Er25 Ir6 2.758494 1_555
Er25 Ir27 2.882944 1_555
Er25 Ir22 2.932182 1_555
Er25 Ir12 3.019626 1_565
Er25 Ir14 3.046305 1_655
Er25 Ir10 3.416407 1_565
Er26 Ir5 2.758479 1_455
Er26 Ir26 2.882956 1_555
Er26 Ir23 2.932181 1_555
Er26 Ir15 3.019627 1_555
Er26 Ir13 3.046300 1_454
Er26 Ir9 3.416414 1_555
Er27 Ir4 2.758479 1_555
Er27 Ir26 2.882956 1_566
Er27 Ir23 2.932181 1_566
Er27 Ir14 3.019627 1_555
Er27 Ir12 3.046300 1_566
Er27 Ir8 3.416414 1_555
Er28 Ir5 2.758479 1_555
Er28 Ir27 2.882956 1_555
Er28 Ir22 2.932181 1_555
Er28 Ir14 3.019627 1_655
Er28 Ir13 3.046300 1_554
Er28 Ir9 3.416414 1_655
Er29 Ir4 2.758479 1_555
Er29 Ir27 2.882956 1_556
Er29 Ir22 2.932181 1_556
Er29 Ir15 3.019627 1_555
Er29 Ir12 3.046300 1_566
Er29 Ir8 3.416414 1_555
Er30 Ir6 2.758474 1_545
Er30 Ir26 2.882956 1_656
Er30 Ir23 2.932169 1_656
Er30 Ir13 3.019625 1_555
Er30 Ir14 3.046304 1_645
Er30 Ir10 3.416428 1_555
Er31 Ir7 2.758494 1_555
Er31 Ir26 2.882944 1_555
Er31 Ir23 2.932182 1_555
Er31 Ir12 3.019626 1_555
Er31 Ir15 3.046305 1_555
Er31 Ir11 3.416407 1_555
Er32 Ir5 2.698814 1_555
Er32 Ir0 2.698814 1_555
Er32 Ir19 2.816753 1_555
Er32 Ir18 2.816753 1_655
Er33 Ir4 2.698814 1_555
Er33 Ir1 2.698814 1_555
Er33 Ir19 2.816753 1_455
Er33 Ir18 2.816753 1_555
Er34 Ir7 2.698814 1_555
Er34 Ir2 2.698814 1_555
Er34 Ir16 2.816758 1_555
Er34 Ir17 2.816758 1_545
Er35 Ir6 2.698814 1_555
Er35 Ir3 2.698814 1_555
Er35 Ir17 2.816758 1_555
Er35 Ir16 2.816758 1_565
Er36 Ir2 2.838054 1_565
Er36 Ir3 2.838054 1_555
Er36 Ir8 3.095899 1_555
Er36 Ir9 3.095899 1_555
Er36 Ir16 3.203750 1_565
Er36 Ir17 3.203772 1_555
Er36 Er40 3.450910 1_555
Er36 Er5 3.564516 1_565
Er36 Er4 3.564516 1_555
Er37 Ir0 2.838054 1_555
Er37 Ir1 2.838054 1_655
Er37 Ir10 3.095899 1_555
Er37 Ir11 3.095899 1_555
Er37 Ir19 3.203757 1_555
Er37 Ir18 3.203757 1_655
Er37 Er41 3.450910 1_555
Er37 Er6 3.564516 1_655
Er37 Er7 3.564516 1_555
Er38 Ir6 2.838054 1_545
Er38 Ir7 2.838054 1_555
Er38 Ir13 3.095899 1_555
Er38 Ir12 3.095899 1_555
Er38 Ir17 3.203750 1_545
Er38 Ir16 3.203772 1_555
Er38 Er41 3.450910 1_555
Er39 Ir4 2.838054 1_555
Er39 Ir5 2.838054 1_455
Er39 Ir15 3.095899 1_555
Er39 Ir14 3.095899 1_555
Er39 Ir19 3.203757 1_455
Er39 Ir18 3.203757 1_555
Er39 Er40 3.450910 1_555
Er39 Er8 3.564516 1_555
Er39 Er9 3.564516 1_455
Er40 Ir15 2.883971 1_555
Er40 Ir8 2.883971 1_555
Er40 Ir14 2.883971 1_555
Er40 Ir9 2.883971 1_555
Er41 Ir10 2.883971 1_555
Er41 Ir11 2.883971 1_555
Er41 Ir12 2.883971 1_555
Er41 Ir13 2.883971 1_555
Ir0 Ir8 3.347052 1_544
Ir1 Ir9 3.347052 1_556
Ir10 Ir2 3.347052 1_655
Ir11 Ir3 3.347052 1_555
Ir12 Ir4 3.347052 1_544
Ir13 Ir5 3.347052 1_556
Ir14 Ir6 3.347052 1_455
Ir15 Ir7 3.347052 1_555
Ir16 Ir17 3.054304 1_545
Ir18 Ir19 3.054288 1_455
Ir20 Ir26 2.911398 1_555
Ir21 Ir27 2.911398 1_555
Ir22 Ir27 2.911398 1_555
Ir23 Ir26 2.911398 1_555
