# generated using pymatgen
data_Ba2HRu3O10
_symmetry_space_group_name_H-M   'P 1'
_cell_length_a   7.16095700
_cell_length_b   10.07833500
_cell_length_c   12.33789000
_cell_angle_alpha   90.00000000
_cell_angle_beta   90.00000000
_cell_angle_gamma   90.00000000
_symmetry_Int_Tables_number   1
_chemical_formula_structural   Ba2HRu3O10
_chemical_formula_sum   'Ba8 H4 Ru12 O40'
_cell_volume   890.43198101
_cell_formula_units_Z   4
loop_
 _symmetry_equiv_pos_site_id
 _symmetry_equiv_pos_as_xyz
  1  'x, y, z'
loop_
 _atom_site_type_symbol
 _atom_site_label
 _atom_site_symmetry_multiplicity
 _atom_site_fract_x
 _atom_site_fract_y
 _atom_site_fract_z
 _atom_site_occupancy
  Ba  Ba0  1  0.47236600  0.41153900  0.35654200  1
  Ba  Ba1  1  0.97236600  0.58846100  0.14345800  1
  Ba  Ba2  1  0.52763400  0.08846100  0.85654200  1
  Ba  Ba3  1  0.02763400  0.91153900  0.64345800  1
  Ba  Ba4  1  0.52752900  0.62171400  0.63801000  1
  Ba  Ba5  1  0.02752900  0.37828600  0.86199000  1
  Ba  Ba6  1  0.47247100  0.87828600  0.13801000  1
  Ba  Ba7  1  0.97247100  0.12171400  0.36199000  1
  H  H0  1  0.88508000  0.87201500  0.22629400  1
  H  H1  1  0.38508000  0.12798500  0.27370600  1
  H  H2  1  0.11492000  0.62798500  0.72629400  1
  H  H3  1  0.61492000  0.37201500  0.77370600  1
  Ru  Ru0  1  0.80914300  0.24386100  0.10106700  1
  Ru  Ru1  1  0.30914300  0.75613900  0.39893300  1
  Ru  Ru2  1  0.19085700  0.25613900  0.60106700  1
  Ru  Ru3  1  0.69085700  0.74386100  0.89893300  1
  Ru  Ru4  1  0.18221500  0.74307700  0.91059600  1
  Ru  Ru5  1  0.68221500  0.25692300  0.58940400  1
  Ru  Ru6  1  0.81778500  0.75692300  0.41059600  1
  Ru  Ru7  1  0.31778500  0.24307700  0.08940400  1
  Ru  Ru8  1  0.50320900  0.49005500  0.99516700  1
  Ru  Ru9  1  0.00320900  0.50994500  0.50483300  1
  Ru  Ru10  1  0.49679100  0.00994500  0.49516700  1
  Ru  Ru11  1  0.99679100  0.99005500  0.00483300  1
  O  O0  1  0.74635800  0.40105900  0.01684900  1
  O  O1  1  0.24635800  0.59894100  0.48315100  1
  O  O2  1  0.25364200  0.09894100  0.51684900  1
  O  O3  1  0.75364200  0.90105900  0.98315100  1
  O  O4  1  0.91077800  0.06203600  0.14184700  1
  O  O5  1  0.41077800  0.93796400  0.35815300  1
  O  O6  1  0.08922200  0.43796400  0.64184700  1
  O  O7  1  0.58922200  0.56203600  0.85815300  1
  O  O8  1  0.06502900  0.84065900  0.40703400  1
  O  O9  1  0.56502900  0.15934100  0.09296600  1
  O  O10  1  0.93497100  0.65934100  0.90703400  1
  O  O11  1  0.43497100  0.34065900  0.59296600  1
  O  O12  1  0.37883600  0.84604300  0.54245900  1
  O  O13  1  0.87883600  0.15395700  0.95754100  1
  O  O14  1  0.62116400  0.65395700  0.04245900  1
  O  O15  1  0.12116400  0.34604200  0.45754100  1
  O  O16  1  0.78126900  0.30682700  0.23819100  1
  O  O17  1  0.28126900  0.69317300  0.26180900  1
  O  O18  1  0.21873100  0.19317300  0.73819100  1
  O  O19  1  0.71873100  0.80682700  0.76180900  1
  O  O20  1  0.62046100  0.17957300  0.44580900  1
  O  O21  1  0.12046100  0.82042700  0.05419100  1
  O  O22  1  0.37953900  0.32042700  0.94580900  1
  O  O23  1  0.87953900  0.67957300  0.55419100  1
  O  O24  1  0.41864800  0.41687600  0.13272900  1
  O  O25  1  0.91864800  0.58312400  0.36727100  1
  O  O26  1  0.58135200  0.08312400  0.63272900  1
  O  O27  1  0.08135200  0.91687600  0.86727100  1
  O  O28  1  0.56779200  0.68257700  0.40408400  1
  O  O29  1  0.06779200  0.31742200  0.09591600  1
  O  O30  1  0.43220800  0.81742300  0.90408400  1
  O  O31  1  0.93220800  0.18257800  0.59591600  1
  O  O32  1  0.24255100  0.07690300  0.02491700  1
  O  O33  1  0.74255100  0.92309700  0.47508300  1
  O  O34  1  0.75744900  0.42309700  0.52491700  1
  O  O35  1  0.25744900  0.57690300  0.97508300  1
  O  O36  1  0.20831400  0.69410300  0.74888000  1
  O  O37  1  0.70831400  0.30589700  0.75112000  1
  O  O38  1  0.79168600  0.80589700  0.24888000  1
  O  O39  1  0.29168600  0.19410300  0.25112000  1
loop_
_geom_bond_atom_site_label_1
_geom_bond_atom_site_label_2
_geom_bond_distance
_geom_bond_site_symmetry_2
Ba0 O24 2.788564 1_555
Ba0 O20 2.793408 1_555
Ba0 O16 2.852897 1_555
Ba0 O39 2.857973 1_555
Ba0 O28 2.876234 1_555
Ba0 O15 2.883309 1_555
Ba0 O34 2.914913 1_555
Ba0 O1 2.937113 1_555
Ba0 O11 3.015086 1_555
Ba0 O17 3.360841 1_555
Ba1 O25 2.788564 1_555
Ba1 O21 2.793408 1_655
Ba1 O17 2.852897 1_655
Ba1 O38 2.857973 1_555
Ba1 O29 2.876243 1_655
Ba1 O14 2.883307 1_555
Ba1 O35 2.914913 1_654
Ba1 O0 2.937113 1_555
Ba1 O10 3.015086 1_554
Ba1 O16 3.360841 1_555
Ba2 O26 2.788564 1_555
Ba2 O22 2.793408 1_555
Ba2 O18 2.852897 1_555
Ba2 O37 2.857973 1_555
Ba2 O30 2.876234 1_545
Ba2 O13 2.883307 1_555
Ba2 O32 2.914913 1_556
Ba2 O3 2.937113 1_545
Ba2 O9 3.015086 1_556
Ba2 O19 3.360841 1_545
Ba3 O27 2.788564 1_555
Ba3 O23 2.793408 1_455
Ba3 O19 2.852897 1_455
Ba3 O36 2.857973 1_555
Ba3 O31 2.876243 1_465
Ba3 O12 2.883307 1_555
Ba3 O33 2.914913 1_455
Ba3 O2 2.937113 1_565
Ba3 O8 3.015086 1_555
Ba3 O18 3.360841 1_565
Ba4 O36 2.762007 1_555
Ba4 O12 2.763162 1_555
Ba4 O19 2.772772 1_555
Ba4 O1 2.785173 1_555
Ba4 O23 2.786318 1_555
Ba4 O7 2.816757 1_555
Ba4 O34 2.943578 1_555
Ba4 O11 2.961688 1_555
Ba4 O28 2.964670 1_555
Ba4 H3 3.086682 1_555
Ba5 O37 2.762007 1_455
Ba5 O13 2.763162 1_455
Ba5 O18 2.772772 1_555
Ba5 O0 2.785173 1_456
Ba5 O22 2.786318 1_555
Ba5 O6 2.816757 1_555
Ba5 O35 2.943578 1_555
Ba5 O10 2.961688 1_455
Ba5 O29 2.964672 1_556
Ba5 H2 3.086682 1_555
Ba6 O38 2.762007 1_555
Ba6 O14 2.763162 1_555
Ba6 O17 2.772772 1_555
Ba6 O3 2.785173 1_554
Ba6 O21 2.786318 1_555
Ba6 O5 2.816757 1_555
Ba6 O32 2.943578 1_565
Ba6 O9 2.961688 1_565
Ba6 O30 2.964670 1_554
Ba6 H1 3.086682 1_565
Ba7 O39 2.762007 1_655
Ba7 O15 2.763154 1_655
Ba7 O16 2.772772 1_555
Ba7 O2 2.785173 1_655
Ba7 O20 2.786318 1_555
Ba7 O4 2.816757 1_555
Ba7 O33 2.943578 1_545
Ba7 O8 2.961688 1_645
Ba7 O31 2.964672 1_555
Ba7 H0 3.086682 1_545
H0 O38 0.984362 1_555
H1 O39 0.984362 1_555
H2 O36 0.984362 1_555
H3 O37 0.984362 1_555
O0 Ru0 1.947254 1_555
O0 Ru8 1.976804 1_554
O1 Ru1 1.947254 1_555
O1 Ru9 1.976804 1_555
O2 Ru2 1.947254 1_555
O2 Ru10 1.976804 1_555
O3 Ru3 1.947254 1_555
O3 Ru11 1.976804 1_556
O4 Ru11 1.939928 1_545
O4 Ru0 2.034915 1_555
O5 Ru10 1.939928 1_565
O5 Ru1 2.034915 1_555
O6 Ru9 1.939928 1_555
O6 Ru2 2.034915 1_555
O7 Ru8 1.939928 1_555
O7 Ru3 2.034915 1_555
O8 Ru1 1.947154 1_555
O8 Ru6 1.961840 1_455
O9 Ru0 1.947154 1_555
O9 Ru7 1.961840 1_555
O10 Ru3 1.947154 1_555
O10 Ru4 1.961840 1_655
O11 Ru2 1.947154 1_555
O11 Ru5 1.961840 1_555
O12 Ru10 1.944881 1_565
O12 Ru1 2.050809 1_555
O13 Ru11 1.944881 1_546
O13 Ru0 2.050809 1_556
O14 Ru8 1.944881 1_554
O14 Ru3 2.050809 1_554
O15 Ru9 1.944889 1_555
O15 Ru2 2.050804 1_555
O16 Ru0 1.817913 1_555
O17 Ru1 1.817913 1_555
O18 Ru2 1.817913 1_555
O19 Ru3 1.817913 1_555
O20 Ru5 1.985459 1_555
O20 Ru10 2.019344 1_555
O21 Ru4 1.985459 1_554
O21 Ru11 2.019344 1_455
O22 Ru7 1.985459 1_556
O22 Ru8 2.019344 1_555
O23 Ru6 1.985459 1_555
O23 Ru9 2.019344 1_655
O24 Ru8 1.947097 1_554
O24 Ru7 1.968637 1_555
O25 Ru9 1.947097 1_655
O25 Ru6 1.968637 1_555
O26 Ru10 1.947097 1_555
O26 Ru5 1.968637 1_555
O27 Ru11 1.947097 1_456
O27 Ru4 1.968637 1_555
O28 Ru6 1.942333 1_555
O28 Ru1 1.996055 1_555
O29 Ru7 1.942329 1_555
O29 Ru0 1.996052 1_455
O30 Ru4 1.942333 1_555
O30 Ru3 1.996055 1_555
O31 Ru5 1.942329 1_555
O31 Ru2 1.996052 1_655
O32 Ru7 1.930827 1_555
O32 Ru11 1.981083 1_445
O33 Ru6 1.930827 1_555
O33 Ru10 1.981083 1_565
O34 Ru5 1.930827 1_555
O34 Ru9 1.981083 1_655
O35 Ru4 1.930827 1_555
O35 Ru8 1.981083 1_555
O36 Ru4 2.063857 1_555
O37 Ru5 2.063857 1_555
O38 Ru6 2.063857 1_555
O39 Ru7 2.063857 1_555
