# generated using pymatgen
data_CsFeP(H6O5)2
_symmetry_space_group_name_H-M   'P 1'
_cell_length_a   7.19897395
_cell_length_b   7.19619163
_cell_length_c   7.18661715
_cell_angle_alpha   59.65104488
_cell_angle_beta   60.05016140
_cell_angle_gamma   59.84314607
_symmetry_Int_Tables_number   1
_chemical_formula_structural   CsFeP(H6O5)2
_chemical_formula_sum   'Cs1 Fe1 P1 H12 O10'
_cell_volume   262.34495367
_cell_formula_units_Z   1
loop_
 _symmetry_equiv_pos_site_id
 _symmetry_equiv_pos_as_xyz
  1  'x, y, z'
loop_
 _atom_site_type_symbol
 _atom_site_label
 _atom_site_symmetry_multiplicity
 _atom_site_fract_x
 _atom_site_fract_y
 _atom_site_fract_z
 _atom_site_occupancy
  Cs  Cs0  1  0.24972900  0.25040200  0.25020600  1
  Fe  Fe0  1  0.99813900  0.00252500  0.00141300  1
  P  P0  1  0.75023700  0.74958700  0.74986100  1
  H  H0  1  0.38249000  0.73417600  0.73272200  1
  H  H1  1  0.38231400  0.73425900  0.14873000  1
  H  H2  1  0.38309800  0.14907900  0.73287200  1
  H  H3  1  0.73491000  0.38317400  0.14861100  1
  H  H4  1  0.73454700  0.38151000  0.73550800  1
  H  H5  1  0.14897800  0.38218000  0.73569300  1
  H  H6  1  0.73329300  0.14862900  0.38328300  1
  H  H7  1  0.14864500  0.73538300  0.38173700  1
  H  H8  1  0.73296800  0.73551600  0.38211600  1
  H  H9  1  0.15060900  0.73273600  0.73404500  1
  H  H10  1  0.73475800  0.14850500  0.73409100  1
  H  H11  1  0.73479700  0.73288100  0.14949100  1
  O  O0  1  0.21222500  0.78802500  0.78730400  1
  O  O1  1  0.21158800  0.79056800  0.21035400  1
  O  O2  1  0.21260200  0.21074100  0.78939100  1
  O  O3  1  0.78825600  0.21173400  0.21209900  1
  O  O4  1  0.78825000  0.20988600  0.78986800  1
  O  O5  1  0.78692600  0.78968500  0.21094000  1
  O  O6  1  0.01586600  0.66082500  0.66119900  1
  O  O7  1  0.66130100  0.01669400  0.66058100  1
  O  O8  1  0.66140800  0.66043900  0.01659100  1
  O  O9  1  0.66206100  0.66085500  0.66128800  1
loop_
_geom_bond_atom_site_label_1
_geom_bond_atom_site_label_2
_geom_bond_distance
_geom_bond_site_symmetry_2
Cs0 O0 3.595363 1_545
Cs0 O0 3.598480 1_554
Cs0 O5 3.605659 1_545
Cs0 O2 3.610518 1_554
Cs0 O1 3.613359 1_545
Cs0 O5 3.616848 1_455
Cs0 O4 3.618319 1_554
Cs0 O2 3.618402 1_555
Cs0 O3 3.619837 1_455
Cs0 O3 3.621512 1_555
Cs0 O4 3.623388 1_455
Cs0 O1 3.626073 1_555
Fe0 O4 2.134675 1_554
Fe0 O3 2.139110 1_555
Fe0 O1 2.139376 1_645
Fe0 O2 2.149124 1_654
Fe0 O5 2.156035 1_545
Fe0 O0 2.183492 1_644
H0 O0 1.001373 1_555
H0 O9 1.663645 1_555
H1 O1 1.004178 1_555
H1 O8 1.659259 1_555
H2 O2 1.002752 1_555
H2 O7 1.653120 1_555
H3 O3 1.003896 1_555
H3 O8 1.639731 1_555
H4 O4 1.005438 1_555
H4 O9 1.654760 1_555
H5 O2 1.004180 1_555
H5 O6 1.649994 1_555
H6 O3 1.003097 1_555
H6 O7 1.640903 1_555
H7 O1 1.004639 1_555
H7 O6 1.656714 1_555
H8 O5 1.003293 1_555
H8 O9 1.654742 1_555
H9 O0 1.001142 1_555
H9 O6 1.663712 1_555
H10 O4 1.004008 1_555
H10 O7 1.657635 1_555
H11 O5 1.002481 1_555
H11 O8 1.657352 1_555
O6 P0 1.561462 1_455
O7 P0 1.563226 1_545
O8 P0 1.562209 1_554
O9 P0 1.561177 1_555
