# generated using pymatgen
data_Mn2HO4
_symmetry_space_group_name_H-M   'P 1'
_cell_length_a   5.63905640
_cell_length_b   6.21881592
_cell_length_c   8.13475281
_cell_angle_alpha   90.00000000
_cell_angle_beta   90.00000000
_cell_angle_gamma   90.00000000
_symmetry_Int_Tables_number   1
_chemical_formula_structural   Mn2HO4
_chemical_formula_sum   'Mn8 H4 O16'
_cell_volume   285.27157544
_cell_formula_units_Z   4
loop_
 _symmetry_equiv_pos_site_id
 _symmetry_equiv_pos_as_xyz
  1  'x, y, z'
loop_
 _atom_site_type_symbol
 _atom_site_label
 _atom_site_symmetry_multiplicity
 _atom_site_fract_x
 _atom_site_fract_y
 _atom_site_fract_z
 _atom_site_occupancy
  Mn  Mn0  1  0.50000000  -0.00000000  0.00000000  1
  Mn  Mn1  1  -0.00000000  0.50000000  0.50000000  1
  Mn  Mn2  1  0.50000000  0.50000000  0.00000000  1
  Mn  Mn3  1  -0.00000000  -0.00000000  0.50000000  1
  Mn  Mn4  1  0.21100164  0.75000000  0.24692436  1
  Mn  Mn5  1  0.78899836  0.25000000  0.75307564  1
  Mn  Mn6  1  0.71100164  0.75000000  0.25307564  1
  Mn  Mn7  1  0.28899836  0.25000000  0.74692436  1
  H  H0  1  0.93763754  0.25000000  0.04262022  1
  H  H1  1  0.56236246  0.75000000  0.54262022  1
  H  H2  1  0.43763754  0.25000000  0.45737978  1
  H  H3  1  0.06236246  0.75000000  0.95737978  1
  O  O0  1  0.21669286  0.75000000  0.01195715  1
  O  O1  1  0.79786293  0.25000000  0.51890611  1
  O  O2  1  0.70213707  0.75000000  0.01890611  1
  O  O3  1  0.28330714  0.25000000  0.51195715  1
  O  O4  1  0.46301401  0.95378506  0.23447461  1
  O  O5  1  0.03698599  0.45378506  0.73447461  1
  O  O6  1  0.46301401  0.54621494  0.23447461  1
  O  O7  1  0.03698599  0.04621494  0.73447461  1
  O  O8  1  0.71669286  0.75000000  0.48804285  1
  O  O9  1  0.29786293  0.25000000  0.98109389  1
  O  O10  1  0.20213707  0.75000000  0.48109389  1
  O  O11  1  0.78330714  0.25000000  0.98804285  1
  O  O12  1  0.96301401  0.95378506  0.26552539  1
  O  O13  1  0.53698599  0.45378506  0.76552539  1
  O  O14  1  0.96301401  0.54621494  0.26552539  1
  O  O15  1  0.53698599  0.04621494  0.76552539  1
loop_
_geom_bond_atom_site_label_1
_geom_bond_atom_site_label_2
_geom_bond_distance
_geom_bond_site_symmetry_2
Mn0 O9 1.933919 1_554
Mn0 O2 1.933919 1_545
Mn0 O15 1.940167 1_554
Mn0 O4 1.940167 1_545
Mn0 O11 2.231332 1_554
Mn0 O0 2.231332 1_545
Mn1 O10 1.933919 1_555
Mn1 O1 1.933919 1_455
Mn1 O5 1.940167 1_555
Mn1 O14 1.940167 1_455
Mn1 O3 2.231332 1_555
Mn1 O8 2.231332 1_455
Mn2 O9 1.933919 1_554
Mn2 O2 1.933919 1_555
Mn2 O6 1.940167 1_555
Mn2 O13 1.940167 1_554
Mn2 O0 2.231332 1_555
Mn2 O11 2.231332 1_554
Mn3 O10 1.933919 1_545
Mn3 O1 1.933919 1_455
Mn3 O7 1.940167 1_555
Mn3 O12 1.940167 1_445
Mn3 O8 2.231332 1_445
Mn3 O3 2.231332 1_555
Mn4 O14 1.893282 1_455
Mn4 O12 1.893282 1_455
Mn4 O10 1.905567 1_555
Mn4 O4 1.906796 1_555
Mn4 O6 1.906796 1_555
Mn4 O0 1.911670 1_555
Mn5 O7 1.893282 1_655
Mn5 O5 1.893282 1_655
Mn5 O1 1.905567 1_555
Mn5 O15 1.906796 1_555
Mn5 O13 1.906796 1_555
Mn5 O11 1.911670 1_555
Mn6 O6 1.893282 1_555
Mn6 O4 1.893282 1_555
Mn6 O2 1.905567 1_555
Mn6 O12 1.906796 1_555
Mn6 O14 1.906796 1_555
Mn6 O8 1.911670 1_555
Mn7 O15 1.893282 1_555
Mn7 O13 1.893282 1_555
Mn7 O9 1.905567 1_555
Mn7 O7 1.906796 1_555
Mn7 O5 1.906796 1_555
Mn7 O3 1.911670 1_555
H0 O11 0.976983 1_554
H1 O8 0.976983 1_555
H2 O3 0.976983 1_555
H3 O0 0.976983 1_556
