# generated using pymatgen
data_Dy2Si3Rh
_symmetry_space_group_name_H-M   'P 1'
_cell_length_a   8.18211710
_cell_length_b   8.18211710
_cell_length_c   7.91073000
_cell_angle_alpha   90.00000000
_cell_angle_beta   90.00000000
_cell_angle_gamma   119.99999268
_symmetry_Int_Tables_number   1
_chemical_formula_structural   Dy2Si3Rh
_chemical_formula_sum   'Dy8 Si12 Rh4'
_cell_volume   458.64705215
_cell_formula_units_Z   4
loop_
 _symmetry_equiv_pos_site_id
 _symmetry_equiv_pos_as_xyz
  1  'x, y, z'
loop_
 _atom_site_type_symbol
 _atom_site_label
 _atom_site_symmetry_multiplicity
 _atom_site_fract_x
 _atom_site_fract_y
 _atom_site_fract_z
 _atom_site_occupancy
  Dy  Dy0  1  0.00000000  0.00000000  0.25000000  1
  Dy  Dy1  1  0.00000000  0.00000000  0.75000000  1
  Dy  Dy2  1  0.50910400  0.49089600  0.25000000  1
  Dy  Dy3  1  0.50910400  0.01820900  0.25000000  1
  Dy  Dy4  1  0.98179100  0.49089600  0.25000000  1
  Dy  Dy5  1  0.49089600  0.50910400  0.75000000  1
  Dy  Dy6  1  0.49089600  0.98179100  0.75000000  1
  Dy  Dy7  1  0.01820900  0.50910400  0.75000000  1
  Si  Si0  1  0.16675700  0.83324300  0.49927400  1
  Si  Si1  1  0.16675700  0.33351500  0.49927400  1
  Si  Si2  1  0.66648500  0.83324300  0.49927400  1
  Si  Si3  1  0.83324300  0.16675700  0.50072600  1
  Si  Si4  1  0.83324300  0.66648500  0.50072600  1
  Si  Si5  1  0.33351500  0.16675700  0.50072600  1
  Si  Si6  1  0.83324300  0.16675700  0.99927400  1
  Si  Si7  1  0.83324300  0.66648500  0.99927400  1
  Si  Si8  1  0.33351500  0.16675700  0.99927400  1
  Si  Si9  1  0.16675700  0.83324300  0.00072600  1
  Si  Si10  1  0.16675700  0.33351500  0.00072600  1
  Si  Si11  1  0.66648500  0.83324300  0.00072600  1
  Rh  Rh0  1  0.33333300  0.66666700  0.46762100  1
  Rh  Rh1  1  0.66666700  0.33333300  0.53237900  1
  Rh  Rh2  1  0.66666700  0.33333300  0.96762100  1
  Rh  Rh3  1  0.33333300  0.66666700  0.03237900  1
loop_
_geom_bond_atom_site_label_1
_geom_bond_atom_site_label_2
_geom_bond_distance
_geom_bond_site_symmetry_2
Dy0 Si9 3.077907 1_545
Dy0 Si0 3.077907 1_545
Dy0 Si10 3.077913 1_555
Dy0 Si1 3.077913 1_555
Dy0 Si11 3.077913 1_445
Dy0 Si2 3.077913 1_445
Dy0 Si3 3.085279 1_455
Dy0 Si6 3.085279 1_454
Dy0 Si8 3.085285 1_554
Dy0 Si7 3.085285 1_444
Dy0 Si4 3.085285 1_445
Dy0 Si5 3.085285 1_555
Dy1 Si6 3.077907 1_455
Dy1 Si3 3.077907 1_455
Dy1 Si5 3.077913 1_555
Dy1 Si8 3.077913 1_555
Dy1 Si4 3.077913 1_445
Dy1 Si7 3.077913 1_445
Dy1 Si0 3.085279 1_545
Dy1 Si9 3.085279 1_546
Dy1 Si1 3.085285 1_555
Dy1 Si10 3.085285 1_556
Dy1 Si11 3.085285 1_446
Dy1 Si2 3.085285 1_445
Dy2 Rh3 3.027999 1_555
Dy2 Rh0 3.027999 1_555
Dy2 Si4 3.036711 1_555
Dy2 Si7 3.036711 1_554
Dy2 Si5 3.036711 1_555
Dy2 Si8 3.036711 1_554
Dy2 Si11 3.128258 1_555
Dy2 Si2 3.128258 1_555
Dy2 Si10 3.128258 1_555
Dy2 Si1 3.128258 1_555
Dy2 Rh2 3.158492 1_554
Dy2 Rh1 3.158492 1_555
Dy3 Rh3 3.027999 1_545
Dy3 Rh0 3.027999 1_545
Dy3 Si8 3.036700 1_554
Dy3 Si5 3.036700 1_555
Dy3 Si3 3.036711 1_555
Dy3 Si6 3.036711 1_554
Dy3 Si2 3.128258 1_545
Dy3 Si11 3.128258 1_545
Dy3 Si9 3.128258 1_545
Dy3 Si0 3.128258 1_545
Dy3 Rh1 3.158482 1_555
Dy3 Rh2 3.158482 1_554
Dy4 Rh3 3.027999 1_655
Dy4 Rh0 3.027999 1_655
Dy4 Si4 3.036700 1_555
Dy4 Si7 3.036700 1_554
Dy4 Si6 3.036711 1_554
Dy4 Si3 3.036711 1_555
Dy4 Si1 3.128258 1_655
Dy4 Si10 3.128258 1_655
Dy4 Si9 3.128258 1_655
Dy4 Si0 3.128258 1_655
Dy4 Rh1 3.158482 1_555
Dy4 Rh2 3.158482 1_554
Dy5 Rh1 3.027999 1_555
Dy5 Rh2 3.027999 1_555
Dy5 Si2 3.036711 1_555
Dy5 Si11 3.036711 1_556
Dy5 Si1 3.036711 1_555
Dy5 Si10 3.036711 1_556
Dy5 Si7 3.128258 1_555
Dy5 Si4 3.128258 1_555
Dy5 Si8 3.128258 1_555
Dy5 Si5 3.128258 1_555
Dy5 Rh3 3.158492 1_556
Dy5 Rh0 3.158492 1_555
Dy6 Rh1 3.027999 1_565
Dy6 Rh2 3.027999 1_565
Dy6 Si2 3.036700 1_555
Dy6 Si11 3.036700 1_556
Dy6 Si0 3.036711 1_555
Dy6 Si9 3.036711 1_556
Dy6 Si8 3.128258 1_565
Dy6 Si5 3.128258 1_565
Dy6 Si6 3.128258 1_565
Dy6 Si3 3.128258 1_565
Dy6 Rh0 3.158482 1_555
Dy6 Rh3 3.158482 1_556
Dy7 Rh2 3.027999 1_455
Dy7 Rh1 3.027999 1_455
Dy7 Si1 3.036700 1_555
Dy7 Si10 3.036700 1_556
Dy7 Si0 3.036711 1_555
Dy7 Si9 3.036711 1_556
Dy7 Si4 3.128258 1_455
Dy7 Si7 3.128258 1_455
Dy7 Si6 3.128258 1_455
Dy7 Si3 3.128258 1_455
Dy7 Rh3 3.158482 1_556
Dy7 Rh0 3.158482 1_555
Si0 Si4 2.363282 1_455
Si0 Si5 2.363282 1_565
Si1 Si3 2.363282 1_455
Si1 Si5 2.363296 1_555
Si2 Si3 2.363282 1_565
Si2 Si4 2.363296 1_555
Si7 Si9 2.363282 1_656
Si8 Si9 2.363282 1_546
Si10 Si6 2.363282 1_454
Si10 Si8 2.363296 1_554
Si11 Si6 2.363282 1_564
Si11 Si7 2.363296 1_554
Rh0 Si0 2.373931 1_555
Rh0 Si2 2.373932 1_555
Rh0 Si1 2.373932 1_555
Rh1 Si3 2.373931 1_555
Rh1 Si5 2.373932 1_555
Rh1 Si4 2.373932 1_555
Rh2 Si6 2.373931 1_555
Rh2 Si7 2.373932 1_555
Rh2 Si8 2.373932 1_555
Rh3 Si9 2.373931 1_555
Rh3 Si11 2.373932 1_555
Rh3 Si10 2.373932 1_555
