# generated using pymatgen
data_Eu2Se3
_symmetry_space_group_name_H-M   'P 1'
_cell_length_a   14.20738917
_cell_length_b   13.55202583
_cell_length_c   7.37937307
_cell_angle_alpha   79.55431569
_cell_angle_beta   69.72882446
_cell_angle_gamma   30.71685985
_symmetry_Int_Tables_number   1
_chemical_formula_structural   Eu2Se3
_chemical_formula_sum   'Eu8 Se12'
_cell_volume   660.34932028
_cell_formula_units_Z   4
loop_
 _symmetry_equiv_pos_site_id
 _symmetry_equiv_pos_as_xyz
  1  'x, y, z'
loop_
 _atom_site_type_symbol
 _atom_site_label
 _atom_site_symmetry_multiplicity
 _atom_site_fract_x
 _atom_site_fract_y
 _atom_site_fract_z
 _atom_site_occupancy
  Eu  Eu0  1  0.33533800  0.33533800  0.16466200  1
  Eu  Eu1  1  0.16466200  0.16466200  0.33533800  1
  Eu  Eu2  1  0.91466200  0.91466200  0.08533800  1
  Eu  Eu3  1  0.08533800  0.08533800  0.91466200  1
  Eu  Eu4  1  0.99644900  0.99644900  0.50355100  1
  Eu  Eu5  1  0.50355100  0.50355100  0.99644900  1
  Eu  Eu6  1  0.25355100  0.25355100  0.74644900  1
  Eu  Eu7  1  0.74644900  0.74644900  0.25355100  1
  Se  Se0  1  0.01837600  0.48162400  0.48162400  1
  Se  Se1  1  0.48162400  0.01837600  0.01837600  1
  Se  Se2  1  0.23162400  0.76837600  0.76837600  1
  Se  Se3  1  0.76837600  0.23162400  0.23162400  1
  Se  Se4  1  0.66419000  0.17546500  0.85139400  1
  Se  Se5  1  0.85139400  0.30895000  0.66419000  1
  Se  Se6  1  0.30895000  0.85139400  0.17546500  1
  Se  Se7  1  0.17546500  0.66419000  0.30895000  1
  Se  Se8  1  0.58581000  0.07453500  0.39860600  1
  Se  Se9  1  0.39860600  0.94105000  0.58581000  1
  Se  Se10  1  0.94105000  0.39860600  0.07453500  1
  Se  Se11  1  0.07453500  0.58581000  0.94105000  1
loop_
_geom_bond_atom_site_label_1
_geom_bond_atom_site_label_2
_geom_bond_distance
_geom_bond_site_symmetry_2
Eu0 Se11 2.924794 1_554
Eu0 Se8 2.924800 1_555
Eu0 Se1 2.951742 1_555
Eu0 Se0 2.951742 1_555
Eu0 Se7 2.965492 1_555
Eu0 Se4 2.965495 1_554
Eu1 Se10 2.924794 1_455
Eu1 Se9 2.924801 1_545
Eu1 Se1 2.951742 1_555
Eu1 Se0 2.951742 1_555
Eu1 Se5 2.965501 1_455
Eu1 Se6 2.965504 1_545
Eu2 Se7 2.924794 1_655
Eu2 Se4 2.924800 1_564
Eu2 Se2 2.951742 1_654
Eu2 Se3 2.951742 1_565
Eu2 Se11 2.965492 1_654
Eu2 Se8 2.965495 1_565
Eu3 Se6 2.924794 1_546
Eu3 Se5 2.924801 1_455
Eu3 Se3 2.951742 1_456
Eu3 Se2 2.951742 1_545
Eu3 Se9 2.965501 1_545
Eu3 Se10 2.965504 1_456
Eu4 Se5 2.951063 1_565
Eu4 Se6 2.951066 1_655
Eu4 Se4 2.988116 1_565
Eu4 Se7 2.988120 1_655
Eu4 Se3 3.018906 1_565
Eu4 Se2 3.018906 1_655
Eu5 Se7 2.951073 1_556
Eu5 Se4 2.951075 1_555
Eu5 Se6 2.988108 1_556
Eu5 Se5 2.988111 1_555
Eu5 Se2 3.018906 1_555
Eu5 Se3 3.018906 1_556
Eu6 Se9 2.951063 1_545
Eu6 Se10 2.951066 1_456
Eu6 Se8 2.988116 1_555
Eu6 Se11 2.988120 1_555
Eu6 Se0 3.018906 1_555
Eu6 Se1 3.018906 1_556
Eu7 Se11 2.951073 1_654
Eu7 Se8 2.951075 1_565
Eu7 Se10 2.988108 1_555
Eu7 Se9 2.988111 1_555
Eu7 Se1 3.018906 1_565
Eu7 Se0 3.018906 1_655
