# generated using pymatgen
data_Li10Cr2Fe3Co3O16
_symmetry_space_group_name_H-M   'P 1'
_cell_length_a   5.98655488
_cell_length_b   5.97135832
_cell_length_c   9.84649755
_cell_angle_alpha   89.97371522
_cell_angle_beta   90.06606392
_cell_angle_gamma   119.94879817
_symmetry_Int_Tables_number   1
_chemical_formula_structural   Li10Cr2Fe3Co3O16
_chemical_formula_sum   'Li10 Cr2 Fe3 Co3 O16'
_cell_volume   304.99032126
_cell_formula_units_Z   1
loop_
 _symmetry_equiv_pos_site_id
 _symmetry_equiv_pos_as_xyz
  1  'x, y, z'
loop_
 _atom_site_type_symbol
 _atom_site_label
 _atom_site_symmetry_multiplicity
 _atom_site_fract_x
 _atom_site_fract_y
 _atom_site_fract_z
 _atom_site_occupancy
  Li  Li0  1  0.19186900  0.80103600  0.04646300  1
  Li  Li1  1  0.59968900  0.79658700  0.04763500  1
  Li  Li2  1  0.33257800  0.67393000  0.26869700  1
  Li  Li3  1  0.99206800  0.00105200  0.97738200  1
  Li  Li4  1  0.99324300  0.01024000  0.47926600  1
  Li  Li5  1  0.18834400  0.38577500  0.05045100  1
  Li  Li6  1  0.80812800  0.62007100  0.55089400  1
  Li  Li7  1  0.79552300  0.20146900  0.54706300  1
  Li  Li8  1  0.38587600  0.18762700  0.55110500  1
  Li  Li9  1  0.66200300  0.33865500  0.76932600  1
  Cr  Cr0  1  0.65793700  0.33990700  0.02290200  1
  Cr  Cr1  1  0.33386300  0.67687400  0.52331500  1
  Fe  Fe0  1  0.16321700  0.34108700  0.77854900  1
  Fe  Fe1  1  0.33439700  0.17717400  0.28090100  1
  Fe  Fe2  1  0.82760200  0.17858100  0.27798400  1
  Co  Co0  1  0.16516900  0.83531900  0.78129600  1
  Co  Co1  1  0.82885300  0.67281900  0.28208800  1
  Co  Co2  1  0.65394600  0.83553100  0.78087700  1
  O  O0  1  0.17607600  0.85606100  0.40863900  1
  O  O1  1  0.49665200  0.98102500  0.65630600  1
  O  O2  1  0.32789300  0.66301800  0.89950800  1
  O  O3  1  0.01920800  0.51066700  0.65175500  1
  O  O4  1  0.99309900  0.00735600  0.66938500  1
  O  O5  1  0.00107100  0.01665900  0.16873300  1
  O  O6  1  0.66175800  0.85264400  0.40306600  1
  O  O7  1  0.48339500  0.51057900  0.65289600  1
  O  O8  1  0.81017900  0.66918200  0.90301200  1
  O  O9  1  0.16346700  0.34502100  0.39772700  1
  O  O10  1  0.49907000  0.48720200  0.15377400  1
  O  O11  1  0.97237700  0.48910700  0.15043400  1
  O  O12  1  0.66017500  0.33506500  0.39861700  1
  O  O13  1  0.32648900  0.17606100  0.90385600  1
  O  O14  1  0.50473800  0.02499700  0.15412100  1
  O  O15  1  0.82690800  0.17343600  0.89940900  1
loop_
_geom_bond_atom_site_label_1
_geom_bond_atom_site_label_2
_geom_bond_distance
_geom_bond_site_symmetry_2
Li0 O11 1.949800 1_455
Li0 O14 1.978917 1_565
Li0 O2 2.027319 1_554
Li0 O13 2.415351 1_564
Li0 O5 2.425889 1_565
Li0 O8 2.456333 1_454
Li1 O10 1.938222 1_555
Li1 O14 2.014831 1_565
Li1 O2 2.027515 1_554
Li1 O8 2.270868 1_554
Li1 O5 2.400967 1_665
Li1 O15 2.447372 1_564
Li2 O9 2.124124 1_555
Li2 O14 2.138443 1_565
Li2 O10 2.151881 1_555
Li2 O6 2.160635 1_555
Li2 O11 2.200716 1_455
Li2 O0 2.231826 1_555
Li3 O8 1.869245 1_545
Li3 O13 1.880972 1_655
Li3 O5 1.885862 1_656
Li3 O15 1.907979 1_555
Li4 O4 1.872075 1_555
Li4 O6 1.875958 1_545
Li4 O0 1.880885 1_645
Li4 O9 1.909410 1_655
Li5 O10 1.932211 1_555
Li5 O11 1.954875 1_455
Li5 O2 2.065751 1_554
Li5 O5 2.237165 1_555
Li5 O13 2.318220 1_554
Li5 O15 2.399256 1_454
Li6 O3 1.957202 1_655
Li6 O7 1.987538 1_555
Li6 O12 2.103161 1_555
Li6 O4 2.319105 1_565
Li6 O0 2.388704 1_655
Li6 O6 2.454688 1_555
Li7 O1 1.934593 1_545
Li7 O3 1.948012 1_655
Li7 O12 2.017676 1_555
Li7 O6 2.307593 1_545
Li7 O4 2.357450 1_555
Li7 O9 2.422809 1_655
Li8 O1 1.961867 1_545
Li8 O7 1.985118 1_555
Li8 O12 2.070516 1_555
Li8 O0 2.231800 1_545
Li8 O4 2.349908 1_455
Li8 O9 2.486050 1_555
Li9 O15 2.134695 1_555
Li9 O7 2.145609 1_555
Li9 O8 2.160257 1_555
Li9 O1 2.160510 1_545
Li9 O3 2.186235 1_655
Li9 O13 2.188506 1_555
Cr0 O10 2.043964 1_555
Cr0 O11 2.057960 1_555
Cr0 O8 2.073970 1_554
Cr0 O14 2.079696 1_555
Cr0 O13 2.079852 1_554
Cr0 O15 2.120829 1_554
Cr1 O1 2.048193 1_555
Cr1 O3 2.066511 1_555
Cr1 O7 2.073435 1_555
Cr1 O6 2.074582 1_555
Cr1 O0 2.077913 1_555
Cr1 O9 2.116035 1_555
Fe0 O4 2.033952 1_455
Fe0 O2 2.047703 1_555
Fe0 O3 2.048256 1_555
Fe0 O7 2.072791 1_555
Fe0 O13 2.099193 1_555
Fe0 O15 2.112801 1_455
Fe1 O10 2.035807 1_555
Fe1 O12 2.048387 1_555
Fe1 O5 2.051016 1_555
Fe1 O0 2.083989 1_545
Fe1 O14 2.086430 1_555
Fe1 O9 2.098263 1_555
Fe2 O11 2.040237 1_555
Fe2 O5 2.043679 1_655
Fe2 O12 2.056104 1_555
Fe2 O14 2.071266 1_555
Fe2 O6 2.088519 1_545
Fe2 O9 2.102641 1_655
Co0 O2 2.087919 1_555
Co0 O4 2.093713 1_465
Co0 O3 2.111178 1_555
Co0 O1 2.119058 1_555
Co0 O13 2.136957 1_565
Co0 O8 2.199231 1_455
Co1 O12 2.090694 1_555
Co1 O5 2.100318 1_665
Co1 O10 2.129132 1_555
Co1 O11 2.137086 1_555
Co1 O6 2.156172 1_555
Co1 O0 2.189791 1_655
Co2 O1 1.989780 1_555
Co2 O8 2.057101 1_555
Co2 O2 2.057230 1_555
Co2 O4 2.074703 1_565
Co2 O7 2.101623 1_555
Co2 O15 2.102139 1_565
