# generated using pymatgen
data_Ba4TiSi12(SnO12)3
_symmetry_space_group_name_H-M   'P 1'
_cell_length_a   6.80306379
_cell_length_b   6.80306379
_cell_length_c   19.95181800
_cell_angle_alpha   90.00000000
_cell_angle_beta   90.00000000
_cell_angle_gamma   119.99999791
_symmetry_Int_Tables_number   1
_chemical_formula_structural   Ba4TiSi12(SnO12)3
_chemical_formula_sum   'Ba4 Ti1 Si12 Sn3 O36'
_cell_volume   799.69098686
_cell_formula_units_Z   1
loop_
 _symmetry_equiv_pos_site_id
 _symmetry_equiv_pos_as_xyz
  1  'x, y, z'
loop_
 _atom_site_type_symbol
 _atom_site_label
 _atom_site_symmetry_multiplicity
 _atom_site_fract_x
 _atom_site_fract_y
 _atom_site_fract_z
 _atom_site_occupancy
  Ba  Ba0  1  0.33333300  0.66666700  0.74993400  1
  Ba  Ba1  1  0.33333300  0.66666700  0.25006600  1
  Ba  Ba2  1  0.33333300  0.66666700  0.00000000  1
  Ba  Ba3  1  0.33333300  0.66666700  0.50000000  1
  Ti  Ti0  1  0.66666700  0.33333300  0.50000000  1
  Si  Si0  1  0.28289700  0.06508700  0.12504300  1
  Si  Si1  1  0.28530400  0.06765300  0.62372700  1
  Si  Si2  1  0.93491300  0.21781000  0.12504300  1
  Si  Si3  1  0.93234700  0.21765100  0.62372700  1
  Si  Si4  1  0.78219000  0.71710300  0.12504300  1
  Si  Si5  1  0.78234900  0.71469600  0.62372700  1
  Si  Si6  1  0.28289700  0.21781000  0.87495700  1
  Si  Si7  1  0.28530400  0.21765100  0.37627300  1
  Si  Si8  1  0.93491300  0.71710300  0.87495700  1
  Si  Si9  1  0.93234700  0.71469600  0.37627300  1
  Si  Si10  1  0.78219000  0.06508700  0.87495700  1
  Si  Si11  1  0.78234900  0.06765300  0.37627300  1
  Sn  Sn0  1  0.66666700  0.33333300  0.25052000  1
  Sn  Sn1  1  0.66666700  0.33333300  0.74948000  1
  Sn  Sn2  1  0.66666700  0.33333300  0.00000000  1
  O  O0  1  0.41946400  0.07525300  0.19308300  1
  O  O1  1  0.41901300  0.07476400  0.69209400  1
  O  O2  1  0.92474700  0.34421100  0.19308300  1
  O  O3  1  0.92523600  0.34424900  0.69209400  1
  O  O4  1  0.65578900  0.58053600  0.19308300  1
  O  O5  1  0.65575100  0.58098700  0.69209400  1
  O  O6  1  0.41925900  0.07500900  0.05700600  1
  O  O7  1  0.43013200  0.09073300  0.55630100  1
  O  O8  1  0.92499100  0.34424900  0.05700600  1
  O  O9  1  0.90926700  0.33939800  0.55630100  1
  O  O10  1  0.65575100  0.58074100  0.05700600  1
  O  O11  1  0.66060200  0.56986800  0.55630100  1
  O  O12  1  0.41925900  0.34424900  0.94299400  1
  O  O13  1  0.43013200  0.33939800  0.44369900  1
  O  O14  1  0.92499100  0.58074100  0.94299400  1
  O  O15  1  0.90926700  0.56986800  0.44369900  1
  O  O16  1  0.65575100  0.07500900  0.94299400  1
  O  O17  1  0.66060200  0.09073300  0.44369900  1
  O  O18  1  0.41946400  0.34421100  0.80691700  1
  O  O19  1  0.41901300  0.34424900  0.30790600  1
  O  O20  1  0.92474700  0.58053600  0.80691700  1
  O  O21  1  0.92523600  0.58098700  0.30790600  1
  O  O22  1  0.65578900  0.07525300  0.80691700  1
  O  O23  1  0.65575100  0.07476400  0.30790600  1
  O  O24  1  0.19371300  0.25040400  0.12500000  1
  O  O25  1  0.19184200  0.25062800  0.62369700  1
  O  O26  1  0.74959600  0.94330900  0.12500000  1
  O  O27  1  0.74937200  0.94121400  0.62369700  1
  O  O28  1  0.05669100  0.80628700  0.12500000  1
  O  O29  1  0.05878600  0.80815800  0.62369700  1
  O  O30  1  0.19371300  0.94330900  0.87500000  1
  O  O31  1  0.19184200  0.94121400  0.37630300  1
  O  O32  1  0.74959600  0.80628700  0.87500000  1
  O  O33  1  0.74937200  0.80815800  0.37630300  1
  O  O34  1  0.05669100  0.25040400  0.87500000  1
  O  O35  1  0.05878600  0.25062800  0.37630300  1
loop_
_geom_bond_atom_site_label_1
_geom_bond_atom_site_label_2
_geom_bond_distance
_geom_bond_site_symmetry_2
Ba0 O20 2.780927 1_455
Ba0 O22 2.780929 1_565
Ba0 O18 2.780933 1_555
Ba0 O1 2.785880 1_565
Ba0 O3 2.785882 1_455
Ba0 O5 2.785886 1_555
Ba1 O0 2.780927 1_565
Ba1 O2 2.780929 1_455
Ba1 O4 2.780933 1_555
Ba1 O21 2.785880 1_455
Ba1 O23 2.785882 1_565
Ba1 O19 2.785886 1_555
Ba2 O6 2.780034 1_565
Ba2 O14 2.780034 1_454
Ba2 O8 2.780038 1_455
Ba2 O16 2.780038 1_564
Ba2 O10 2.780046 1_555
Ba2 O12 2.780046 1_554
Ba3 O7 2.849313 1_565
Ba3 O15 2.849313 1_455
Ba3 O9 2.849316 1_455
Ba3 O17 2.849316 1_565
Ba3 O11 2.849325 1_555
Ba3 O13 2.849325 1_555
O0 Si0 1.626829 1_555
O0 Sn0 2.066740 1_555
O1 Si1 1.626771 1_555
O1 Sn1 2.068843 1_555
O2 Si2 1.626829 1_555
O2 Sn0 2.066737 1_555
O3 Si3 1.626771 1_555
O3 Sn1 2.068841 1_555
O4 Si4 1.626829 1_555
O4 Sn0 2.066743 1_555
O5 Si5 1.626771 1_555
O5 Sn1 2.068846 1_555
O6 Si0 1.626416 1_555
O6 Sn2 2.063265 1_555
O7 Si1 1.628027 1_555
O7 Ti0 1.979728 1_555
O8 Si2 1.626412 1_555
O8 Sn2 2.063265 1_555
O9 Si3 1.628023 1_555
O9 Ti0 1.979728 1_555
O10 Si4 1.626415 1_555
O10 Sn2 2.063265 1_555
O11 Si5 1.628025 1_555
O11 Ti0 1.979728 1_555
O12 Si6 1.626415 1_555
O12 Sn2 2.063265 1_556
O13 Si7 1.628025 1_555
O13 Ti0 1.979728 1_555
O14 Si8 1.626416 1_555
O14 Sn2 2.063265 1_556
O15 Si9 1.628027 1_555
O15 Ti0 1.979728 1_555
O16 Si10 1.626412 1_555
O16 Sn2 2.063265 1_556
O17 Si11 1.628023 1_555
O17 Ti0 1.979728 1_555
O18 Si6 1.626829 1_555
O18 Sn1 2.066743 1_555
O19 Si7 1.626771 1_555
O19 Sn0 2.068846 1_555
O20 Si8 1.626829 1_555
O20 Sn1 2.066740 1_555
O21 Si9 1.626771 1_555
O21 Sn0 2.068843 1_555
O22 Si10 1.626829 1_555
O22 Sn1 2.066737 1_555
O23 Si11 1.626771 1_555
O23 Sn0 2.068841 1_555
O24 Si0 1.649985 1_555
O24 Si2 1.660902 1_455
O25 Si1 1.656881 1_555
O25 Si3 1.664566 1_455
O26 Si2 1.649985 1_565
O26 Si4 1.660902 1_555
O27 Si3 1.656881 1_565
O27 Si5 1.664566 1_555
O28 Si4 1.649985 1_455
O28 Si0 1.660902 1_565
O29 Si5 1.656881 1_455
O29 Si1 1.664566 1_565
O30 Si6 1.649985 1_565
O30 Si8 1.660902 1_455
O31 Si7 1.656881 1_565
O31 Si9 1.664566 1_455
O32 Si8 1.649985 1_555
O32 Si10 1.660902 1_565
O33 Si9 1.656881 1_555
O33 Si11 1.664566 1_565
O34 Si10 1.649985 1_455
O34 Si6 1.660902 1_555
O35 Si11 1.656881 1_455
O35 Si7 1.664566 1_555
