# generated using pymatgen
data_Fe3C7O19
_symmetry_space_group_name_H-M   'P 1'
_cell_length_a   7.86519400
_cell_length_b   10.55069434
_cell_length_c   13.82637482
_cell_angle_alpha   81.05905953
_cell_angle_beta   78.79539090
_cell_angle_gamma   82.65479063
_symmetry_Int_Tables_number   1
_chemical_formula_structural   Fe3C7O19
_chemical_formula_sum   'Fe6 C14 O38'
_cell_volume   1106.15334955
_cell_formula_units_Z   2
loop_
 _symmetry_equiv_pos_site_id
 _symmetry_equiv_pos_as_xyz
  1  'x, y, z'
loop_
 _atom_site_type_symbol
 _atom_site_label
 _atom_site_symmetry_multiplicity
 _atom_site_fract_x
 _atom_site_fract_y
 _atom_site_fract_z
 _atom_site_occupancy
  Fe  Fe0  1  0.14437700  0.80216200  0.37764900  1
  Fe  Fe1  1  0.85562300  0.19783800  0.62235100  1
  Fe  Fe2  1  0.04371600  0.69400000  0.17974600  1
  Fe  Fe3  1  0.95628400  0.30600000  0.82025400  1
  Fe  Fe4  1  0.93852400  0.00689000  0.21595900  1
  Fe  Fe5  1  0.06147600  0.99311000  0.78404100  1
  C  C0  1  0.69811800  0.82346000  0.16194100  1
  C  C1  1  0.30188200  0.17654000  0.83805900  1
  C  C2  1  0.39532500  0.02525200  0.28761100  1
  C  C3  1  0.60467500  0.97474800  0.71238900  1
  C  C4  1  0.30406400  0.85908800  0.04083400  1
  C  C5  1  0.69593600  0.14091200  0.95916600  1
  C  C6  1  0.81934600  0.96288300  0.44729300  1
  C  C7  1  0.18065400  0.03711700  0.55270700  1
  C  C8  1  0.85552100  0.58011100  0.41595400  1
  C  C9  1  0.14447900  0.41988900  0.58404600  1
  C  C10  1  0.36663900  0.72851400  0.57556900  1
  C  C11  1  0.63336100  0.27148600  0.42443100  1
  C  C12  1  0.43711700  0.58861500  0.28064900  1
  C  C13  1  0.56288300  0.41138500  0.71935100  1
  O  O0  1  0.24730200  0.73991100  0.53355300  1
  O  O1  1  0.75269800  0.26008900  0.46644700  1
  O  O2  1  0.37741500  0.93051800  0.34614000  1
  O  O3  1  0.62258500  0.06948200  0.65386000  1
  O  O4  1  0.07954800  0.40702400  0.25228200  1
  O  O5  1  0.92045200  0.59297600  0.74771800  1
  O  O6  1  0.32845600  0.96747600  0.03201700  1
  O  O7  1  0.67154400  0.03252400  0.96798300  1
  O  O8  1  0.79332600  0.71943200  0.15488700  1
  O  O9  1  0.20667400  0.28056800  0.84511300  1
  O  O10  1  0.96377200  0.62352100  0.44522100  1
  O  O11  1  0.03622800  0.37647900  0.55477900  1
  O  O12  1  0.40858600  0.11903000  0.23101000  1
  O  O13  1  0.59141400  0.88097000  0.76899000  1
  O  O14  1  0.51155500  0.53858400  0.21316500  1
  O  O15  1  0.48844500  0.46141600  0.78683500  1
  O  O16  1  0.13460500  0.52437100  0.24071900  1
  O  O17  1  0.86539500  0.47562900  0.75928100  1
  O  O18  1  0.08611600  0.83750600  0.24644200  1
  O  O19  1  0.91388400  0.16249400  0.75355800  1
  O  O20  1  0.27704700  0.74937800  0.05059300  1
  O  O21  1  0.72295300  0.25062200  0.94940700  1
  O  O22  1  0.01229600  0.14984600  0.10521500  1
  O  O23  1  0.98770400  0.85015400  0.89478500  1
  O  O24  1  0.79078700  0.02162800  0.36636900  1
  O  O25  1  0.20921300  0.97837200  0.63363100  1
  O  O26  1  0.74506600  0.53882800  0.38826500  1
  O  O27  1  0.25493400  0.46117200  0.61173500  1
  O  O28  1  0.72112900  0.93279900  0.17523500  1
  O  O29  1  0.27887100  0.06720100  0.82476500  1
  O  O30  1  0.48686400  0.71438200  0.61574000  1
  O  O31  1  0.51313600  0.28561800  0.38426000  1
  O  O32  1  0.37067400  0.64141800  0.35079800  1
  O  O33  1  0.62932600  0.35858200  0.64920200  1
  O  O34  1  0.93881900  0.88334800  0.47465700  1
  O  O35  1  0.06118100  0.11665200  0.52534300  1
  O  O36  1  0.87129800  0.19847300  0.16871200  1
  O  O37  1  0.12870200  0.80152700  0.83128800  1
loop_
_geom_bond_atom_site_label_1
_geom_bond_atom_site_label_2
_geom_bond_distance
_geom_bond_site_symmetry_2
Fe0 O18 1.925915 1_555
Fe0 O34 2.075302 1_455
Fe0 O32 2.312817 1_555
Fe0 O2 2.350368 1_555
Fe0 O0 2.415657 1_555
Fe0 O10 2.462633 1_455
Fe1 O19 1.925915 1_555
Fe1 O35 2.075302 1_655
Fe1 O33 2.312817 1_555
Fe1 O3 2.350368 1_555
Fe1 O1 2.415657 1_555
Fe1 O11 2.462633 1_655
Fe2 O16 1.965418 1_555
Fe2 O18 1.984106 1_555
Fe2 O8 2.041522 1_455
Fe2 O20 2.361013 1_555
Fe3 O17 1.965418 1_555
Fe3 O19 1.984106 1_555
Fe3 O9 2.041522 1_655
Fe3 O21 2.361013 1_555
Fe4 O22 2.028983 1_655
Fe4 O18 2.035814 1_645
Fe4 O36 2.059762 1_555
Fe4 O28 2.168974 1_545
Fe4 O24 2.194179 1_555
Fe5 O23 2.028983 1_455
Fe5 O19 2.035814 1_465
Fe5 O37 2.059762 1_555
Fe5 O29 2.168974 1_565
Fe5 O25 2.194179 1_555
C0 O28 1.236755 1_555
C0 O8 1.252857 1_555
C1 O29 1.236755 1_555
C1 O9 1.252857 1_555
C2 O12 1.164587 1_555
C2 O2 1.189126 1_545
C3 O13 1.164587 1_555
C3 O3 1.189126 1_565
C4 O6 1.167515 1_555
C4 O20 1.185920 1_555
C5 O7 1.167515 1_555
C5 O21 1.185920 1_555
C6 O24 1.238155 1_565
C6 O34 1.252266 1_555
C7 O25 1.238155 1_545
C7 O35 1.252266 1_555
C8 O26 1.169977 1_555
C8 O10 1.178828 1_555
C9 O27 1.169977 1_555
C9 O11 1.178828 1_555
C10 O30 1.169266 1_555
C10 O0 1.180786 1_555
C11 O31 1.169266 1_555
C11 O1 1.180786 1_555
C12 O14 1.163523 1_555
C12 O32 1.191939 1_555
C13 O15 1.163523 1_555
C13 O33 1.191939 1_555
O16 O4 1.339629 1_555
O17 O5 1.339629 1_555
O22 O36 1.371121 1_455
O23 O37 1.371121 1_655
