# generated using pymatgen
data_NaMg14BO15
_symmetry_space_group_name_H-M   'P 1'
_cell_length_a   8.63994059
_cell_length_b   8.35197031
_cell_length_c   4.35247280
_cell_angle_alpha   90.00000000
_cell_angle_beta   90.00000000
_cell_angle_gamma   90.00000000
_symmetry_Int_Tables_number   1
_chemical_formula_structural   NaMg14BO15
_chemical_formula_sum   'Na1 Mg14 B1 O15'
_cell_volume   314.07673225
_cell_formula_units_Z   1
loop_
 _symmetry_equiv_pos_site_id
 _symmetry_equiv_pos_as_xyz
  1  'x, y, z'
loop_
 _atom_site_type_symbol
 _atom_site_label
 _atom_site_symmetry_multiplicity
 _atom_site_fract_x
 _atom_site_fract_y
 _atom_site_fract_z
 _atom_site_occupancy
  Na  Na0  1  0.00656453  -0.00000000  -0.00000000  1
  Mg  Mg0  1  0.50006054  -0.00000000  -0.00000000  1
  Mg  Mg1  1  0.50330013  0.50000000  -0.00000000  1
  Mg  Mg2  1  -0.00018838  0.26090739  0.50000000  1
  Mg  Mg3  1  -0.00018838  0.73909261  0.50000000  1
  Mg  Mg4  1  0.50129591  0.24948960  0.50000000  1
  Mg  Mg5  1  0.50129591  0.75051040  0.50000000  1
  Mg  Mg6  1  0.24498089  -0.00000000  0.50000000  1
  Mg  Mg7  1  0.24173239  0.50000000  0.50000000  1
  Mg  Mg8  1  0.75628570  -0.00000000  0.50000000  1
  Mg  Mg9  1  0.75351103  0.50000000  0.50000000  1
  Mg  Mg10  1  0.25380979  0.26483689  0.00000000  1
  Mg  Mg11  1  0.25380979  0.73516311  -0.00000000  1
  Mg  Mg12  1  0.74815631  0.24324542  0.00000000  1
  Mg  Mg13  1  0.74815631  0.75675458  -0.00000000  1
  B  B0  1  0.94206092  0.50000000  -0.00000000  1
  O  O0  1  0.27594911  0.50000000  -0.00000000  1
  O  O1  1  0.74346743  -0.00000000  -0.00000000  1
  O  O2  1  0.76892705  0.50000000  -0.00000000  1
  O  O3  1  0.24711624  0.25397536  0.50000000  1
  O  O4  1  0.24711624  0.74602464  0.50000000  1
  O  O5  1  0.75350606  0.24946598  0.50000000  1
  O  O6  1  0.75350606  0.75053402  0.50000000  1
  O  O7  1  0.00030858  -0.00000000  0.50000000  1
  O  O8  1  0.98973255  0.50000000  0.50000000  1
  O  O9  1  0.50015515  -0.00000000  0.50000000  1
  O  O10  1  0.51436960  0.50000000  0.50000000  1
  O  O11  1  0.99272956  0.33051943  -0.00000000  1
  O  O12  1  0.99272956  0.66948057  0.00000000  1
  O  O13  1  0.50787171  0.25247111  -0.00000000  1
  O  O14  1  0.50787171  0.74752889  0.00000000  1
loop_
_geom_bond_atom_site_label_1
_geom_bond_atom_site_label_2
_geom_bond_distance
_geom_bond_site_symmetry_2
Na0 O7 2.176908 1_555
Na0 O7 2.176908 1_554
Na0 O1 2.273143 1_455
Mg0 O1 2.103021 1_555
Mg0 O14 2.109711 1_545
Mg0 O13 2.109711 1_555
Mg0 O9 2.176237 1_555
Mg0 O9 2.176237 1_554
Mg1 O0 1.964299 1_555
Mg1 O13 2.067731 1_555
Mg1 O14 2.067731 1_555
Mg1 O10 2.178337 1_555
Mg1 O10 2.178337 1_554
Mg1 O2 2.295001 1_555
Mg2 O8 1.998792 1_455
Mg2 O5 2.130210 1_455
Mg2 O3 2.137481 1_555
Mg2 O7 2.179095 1_555
Mg2 O11 2.253391 1_455
Mg2 O11 2.253391 1_456
Mg3 O8 1.998792 1_455
Mg3 O6 2.130210 1_455
Mg3 O4 2.137481 1_555
Mg3 O7 2.179095 1_565
Mg3 O12 2.253391 1_455
Mg3 O12 2.253391 1_456
Mg4 O9 2.083753 1_555
Mg4 O10 2.095302 1_555
Mg4 O13 2.177120 1_555
Mg4 O13 2.177120 1_556
Mg4 O5 2.179081 1_555
Mg4 O3 2.196417 1_555
Mg5 O9 2.083753 1_565
Mg5 O10 2.095302 1_555
Mg5 O14 2.177120 1_556
Mg5 O14 2.177120 1_555
Mg5 O6 2.179081 1_555
Mg5 O4 2.196417 1_555
Mg6 O7 2.113954 1_555
Mg6 O3 2.121275 1_555
Mg6 O4 2.121275 1_545
Mg6 O9 2.204690 1_555
Mg7 O4 2.055317 1_555
Mg7 O3 2.055317 1_555
Mg7 O8 2.177264 1_455
Mg7 O0 2.196225 1_555
Mg7 O0 2.196225 1_556
Mg7 O10 2.355569 1_555
Mg8 O6 2.083671 1_545
Mg8 O5 2.083671 1_555
Mg8 O7 2.108343 1_655
Mg8 O1 2.179053 1_556
Mg8 O1 2.179053 1_555
Mg8 O9 2.212953 1_555
Mg9 O8 2.040940 1_555
Mg9 O10 2.066168 1_555
Mg9 O6 2.092453 1_555
Mg9 O5 2.092453 1_555
Mg9 O2 2.180309 1_556
Mg9 O2 2.180309 1_555
Mg10 O0 1.973368 1_555
Mg10 O3 2.178894 1_554
Mg10 O3 2.178894 1_555
Mg10 O13 2.197508 1_555
Mg10 O11 2.321465 1_455
Mg11 O0 1.973368 1_555
Mg11 O4 2.178894 1_554
Mg11 O4 2.178894 1_555
Mg11 O14 2.197508 1_555
Mg11 O12 2.321465 1_455
Mg12 O1 2.031982 1_555
Mg12 O13 2.077474 1_555
Mg12 O2 2.151903 1_555
Mg12 O5 2.177347 1_554
Mg12 O5 2.177347 1_555
Mg12 O11 2.235284 1_555
Mg13 O1 2.031982 1_565
Mg13 O14 2.077474 1_555
Mg13 O2 2.151903 1_555
Mg13 O6 2.177347 1_555
Mg13 O6 2.177347 1_554
Mg13 O12 2.235284 1_555
B0 O11 1.481647 1_555
B0 O12 1.481647 1_555
B0 O2 1.495866 1_555
