# generated using pymatgen
data_RbMnCu3Se4
_symmetry_space_group_name_H-M   'P 1'
_cell_length_a   6.14088100
_cell_length_b   6.14088100
_cell_length_c   6.14088100
_cell_angle_alpha   90.00000000
_cell_angle_beta   90.00000000
_cell_angle_gamma   90.00000000
_symmetry_Int_Tables_number   1
_chemical_formula_structural   RbMnCu3Se4
_chemical_formula_sum   'Rb1 Mn1 Cu3 Se4'
_cell_volume   231.57519834
_cell_formula_units_Z   1
loop_
 _symmetry_equiv_pos_site_id
 _symmetry_equiv_pos_as_xyz
  1  'x, y, z'
loop_
 _atom_site_type_symbol
 _atom_site_label
 _atom_site_symmetry_multiplicity
 _atom_site_fract_x
 _atom_site_fract_y
 _atom_site_fract_z
 _atom_site_occupancy
  Rb  Rb0  1  0.50000000  0.50000000  0.50000000  1
  Mn  Mn0  1  0.00000000  0.00000000  0.00000000  1
  Cu  Cu0  1  0.00000000  0.50000000  0.00000000  1
  Cu  Cu1  1  0.00000000  0.00000000  0.50000000  1
  Cu  Cu2  1  0.50000000  0.00000000  0.00000000  1
  Se  Se0  1  0.21696400  0.21696400  0.21696400  1
  Se  Se1  1  0.78303600  0.78303600  0.21696400  1
  Se  Se2  1  0.21696400  0.78303600  0.78303600  1
  Se  Se3  1  0.78303600  0.21696400  0.78303600  1
loop_
_geom_bond_atom_site_label_1
_geom_bond_atom_site_label_2
_geom_bond_distance
_geom_bond_site_symmetry_2
Rb0 Se2 3.010461 1_555
Rb0 Se1 3.010461 1_555
Rb0 Se3 3.010461 1_555
Rb0 Se0 3.010461 1_555
Mn0 Se0 2.307698 1_555
Mn0 Se2 2.307698 1_544
Mn0 Se1 2.307698 1_445
Mn0 Se3 2.307698 1_454
Cu0 Se2 2.563449 1_554
Cu0 Se1 2.563449 1_455
Cu0 Se0 2.563449 1_555
Cu0 Se3 2.563449 1_454
Cu1 Se2 2.563449 1_545
Cu1 Se3 2.563449 1_455
Cu1 Se0 2.563449 1_555
Cu1 Se1 2.563449 1_445
Cu2 Se3 2.563449 1_554
Cu2 Se1 2.563449 1_545
Cu2 Se0 2.563449 1_555
Cu2 Se2 2.563449 1_544
