# generated using pymatgen
data_Ba2Er2Zn8O13
_symmetry_space_group_name_H-M   'P 1'
_cell_length_a   6.42447060
_cell_length_b   6.42447060
_cell_length_c   10.57047097
_cell_angle_alpha   89.45530075
_cell_angle_beta   89.45530075
_cell_angle_gamma   59.69846925
_symmetry_Int_Tables_number   1
_chemical_formula_structural   Ba2Er2Zn8O13
_chemical_formula_sum   'Ba2 Er2 Zn8 O13'
_cell_volume   376.65693440
_cell_formula_units_Z   1
loop_
 _symmetry_equiv_pos_site_id
 _symmetry_equiv_pos_as_xyz
  1  'x, y, z'
loop_
 _atom_site_type_symbol
 _atom_site_label
 _atom_site_symmetry_multiplicity
 _atom_site_fract_x
 _atom_site_fract_y
 _atom_site_fract_z
 _atom_site_occupancy
  Ba  Ba0  1  0.15412700  0.15412700  0.06173600  1
  Ba  Ba1  1  0.83297900  0.83297900  0.49125000  1
  Er  Er0  1  0.18441800  0.18441800  0.62614100  1
  Er  Er1  1  0.83253700  0.83253700  0.14235200  1
  Zn  Zn0  1  0.17788900  0.60863100  0.84669200  1
  Zn  Zn1  1  0.60863100  0.17788900  0.84669200  1
  Zn  Zn2  1  0.83785000  0.32837000  0.33705600  1
  Zn  Zn3  1  0.32837000  0.83785000  0.33705600  1
  Zn  Zn4  1  0.50881300  0.50881300  0.08319500  1
  Zn  Zn5  1  0.50335300  0.50335300  0.57960000  1
  Zn  Zn6  1  0.66956200  0.66956200  0.83352900  1
  Zn  Zn7  1  0.33247600  0.33247600  0.32643100  1
  O  O0  1  0.50238500  0.50238500  0.27016700  1
  O  O1  1  0.49973100  0.49973200  0.77028900  1
  O  O2  1  0.69365300  0.17028200  0.01709700  1
  O  O3  1  0.17028200  0.69365300  0.01709700  1
  O  O4  1  0.31337400  0.84079600  0.52445500  1
  O  O5  1  0.84079600  0.31337400  0.52445500  1
  O  O6  1  0.99742900  0.50520800  0.75556100  1
  O  O7  1  0.50520800  0.99742900  0.75556100  1
  O  O8  1  0.99608200  0.50334500  0.26631100  1
  O  O9  1  0.50334500  0.99608200  0.26631100  1
  O  O10  1  0.67512900  0.67513000  0.01793800  1
  O  O11  1  0.33664000  0.33664000  0.51302900  1
  O  O12  1  0.99904100  0.99904100  0.26399700  1
loop_
_geom_bond_atom_site_label_1
_geom_bond_atom_site_label_2
_geom_bond_distance
_geom_bond_site_symmetry_2
Ba0 O12 2.734440 1_445
Ba0 O9 2.914173 1_545
Ba0 O8 2.914173 1_455
Ba0 O2 2.949703 1_455
Ba0 O3 2.949703 1_545
Ba0 O10 3.239023 1_545
Ba0 O10 3.239029 1_455
Ba1 O9 3.007552 1_555
Ba1 O8 3.007552 1_555
Ba1 O12 3.016273 1_555
Ba1 O4 3.134996 1_655
Ba1 O5 3.134996 1_565
Ba1 O11 3.206152 1_565
Ba1 O11 3.206152 1_655
Ba1 O6 3.324983 1_555
Ba1 O7 3.324983 1_555
Ba1 O4 3.328378 1_555
Ba1 O5 3.328378 1_555
Er0 O11 2.064690 1_555
Er0 O5 2.213091 1_455
Er0 O4 2.213091 1_545
Er0 O6 2.255221 1_455
Er0 O7 2.255221 1_545
Er1 O10 2.203939 1_555
Er1 O8 2.241598 1_555
Er1 O9 2.241598 1_555
Er1 O12 2.269117 1_555
Er1 O2 2.295965 1_565
Er1 O3 2.295965 1_655
O0 Zn4 1.976895 1_555
O0 Zn7 1.978505 1_555
O0 Zn2 1.994286 1_555
O0 Zn3 1.994286 1_555
O1 Zn0 1.983985 1_555
O1 Zn1 1.983989 1_555
O1 Zn6 2.014135 1_555
O1 Zn5 2.015634 1_555
O2 Zn1 1.880262 1_554
O2 Zn4 2.008823 1_555
O3 Zn0 1.880262 1_554
O3 Zn4 2.008823 1_555
O4 Zn5 1.961803 1_555
O4 Zn3 1.982128 1_555
O5 Zn5 1.961803 1_555
O5 Zn2 1.982128 1_555
O6 Zn0 1.877305 1_655
O6 Zn6 1.992522 1_555
O7 Zn1 1.877305 1_565
O7 Zn6 1.992522 1_555
O8 Zn7 1.974423 1_655
O8 Zn2 1.994731 1_555
O9 Zn7 1.974423 1_565
O9 Zn3 1.994731 1_555
O10 Zn6 1.950957 1_554
O10 Zn4 1.970592 1_555
O11 Zn7 1.973483 1_555
O11 Zn5 1.993909 1_555
O12 Zn2 1.987501 1_565
O12 Zn3 1.987501 1_655
