# generated using pymatgen
data_NaAl(SiO3)2
_symmetry_space_group_name_H-M   'P 1'
_cell_length_a   11.95374480
_cell_length_b   11.95374480
_cell_length_c   13.87794420
_cell_angle_alpha   54.75402814
_cell_angle_beta   54.75402814
_cell_angle_gamma   69.60725749
_symmetry_Int_Tables_number   1
_chemical_formula_structural   NaAl(SiO3)2
_chemical_formula_sum   'Na8 Al8 Si16 O48'
_cell_volume   1322.27886762
_cell_formula_units_Z   8
loop_
 _symmetry_equiv_pos_site_id
 _symmetry_equiv_pos_as_xyz
  1  'x, y, z'
loop_
 _atom_site_type_symbol
 _atom_site_label
 _atom_site_symmetry_multiplicity
 _atom_site_fract_x
 _atom_site_fract_y
 _atom_site_fract_z
 _atom_site_occupancy
  Na  Na0  1  0.27983700  0.24928700  0.88689600  1
  Na  Na1  1  0.75071300  0.72016300  0.61310400  1
  Na  Na2  1  0.72016300  0.75071300  0.11310400  1
  Na  Na3  1  0.24928700  0.27983700  0.38689600  1
  Na  Na4  1  0.86080800  0.35315000  0.89711900  1
  Na  Na5  1  0.64685000  0.13919200  0.60288100  1
  Na  Na6  1  0.13919200  0.64685000  0.10288100  1
  Na  Na7  1  0.35315000  0.86080800  0.39712000  1
  Al  Al0  1  0.71725000  0.53741900  0.03290300  1
  Al  Al1  1  0.46258100  0.28275000  0.46709700  1
  Al  Al2  1  0.28275000  0.46258100  0.96709700  1
  Al  Al3  1  0.53741900  0.71725000  0.53290300  1
  Al  Al4  1  0.03623200  0.21541500  0.71562900  1
  Al  Al5  1  0.78458500  0.96376800  0.78437100  1
  Al  Al6  1  0.96376800  0.78458500  0.28437100  1
  Al  Al7  1  0.21541500  0.03623200  0.21562900  1
  Si  Si0  1  0.25191200  0.56757700  0.70893800  1
  Si  Si1  1  0.43242300  0.74808800  0.79106200  1
  Si  Si2  1  0.74808800  0.43242300  0.29106200  1
  Si  Si3  1  0.56757700  0.25191200  0.20893800  1
  Si  Si4  1  0.06741100  0.74845800  0.47112900  1
  Si  Si5  1  0.25154200  0.93258900  0.02887100  1
  Si  Si6  1  0.93258900  0.25154200  0.52887100  1
  Si  Si7  1  0.74845800  0.06741100  0.97112900  1
  Si  Si8  1  0.04293600  0.29933800  0.24724000  1
  Si  Si9  1  0.70066200  0.95706400  0.25276000  1
  Si  Si10  1  0.95706400  0.70066200  0.75276000  1
  Si  Si11  1  0.29933800  0.04293600  0.74724000  1
  Si  Si12  1  0.79914200  0.54467300  0.41147300  1
  Si  Si13  1  0.45532700  0.20085800  0.08852700  1
  Si  Si14  1  0.20085800  0.45532700  0.58852700  1
  Si  Si15  1  0.54467300  0.79914200  0.91147300  1
  O  O0  1  0.86835100  0.56224400  0.87801600  1
  O  O1  1  0.43775600  0.13164900  0.62198400  1
  O  O2  1  0.13164900  0.43775600  0.12198400  1
  O  O3  1  0.56224400  0.86835100  0.37801600  1
  O  O4  1  0.06085900  0.36802600  0.69416900  1
  O  O5  1  0.63197400  0.93914100  0.80583100  1
  O  O6  1  0.93914100  0.63197400  0.30583100  1
  O  O7  1  0.36802600  0.06085900  0.19416900  1
  O  O8  1  0.33655500  0.61601000  0.91616700  1
  O  O9  1  0.38399000  0.66344500  0.58383300  1
  O  O10  1  0.66344500  0.38399000  0.08383300  1
  O  O11  1  0.61601000  0.33655500  0.41616700  1
  O  O12  1  0.11844300  0.83825500  0.13017500  1
  O  O13  1  0.16174500  0.88155700  0.36982500  1
  O  O14  1  0.88155700  0.16174500  0.86982500  1
  O  O15  1  0.83825500  0.11844300  0.63017500  1
  O  O16  1  0.25201600  0.47555800  0.85162400  1
  O  O17  1  0.52444200  0.74798400  0.64837600  1
  O  O18  1  0.74798400  0.52444200  0.14837600  1
  O  O19  1  0.47555800  0.25201600  0.35162400  1
  O  O20  1  0.97482900  0.74629100  0.42140900  1
  O  O21  1  0.25370900  0.02517100  0.07859100  1
  O  O22  1  0.02517100  0.25370900  0.57859100  1
  O  O23  1  0.74629100  0.97482900  0.92140900  1
  O  O24  1  0.89948700  0.82611400  0.78315000  1
  O  O25  1  0.17388600  0.10051300  0.71685000  1
  O  O26  1  0.10051300  0.17388600  0.21685000  1
  O  O27  1  0.82611400  0.89948700  0.28315000  1
  O  O28  1  0.32058300  0.39424100  0.49080800  1
  O  O29  1  0.60575900  0.67941700  0.00919200  1
  O  O30  1  0.67941700  0.60575900  0.50919200  1
  O  O31  1  0.39424100  0.32058300  0.99080800  1
  O  O32  1  0.88166300  0.32923300  0.28521900  1
  O  O33  1  0.67076700  0.11833700  0.21478100  1
  O  O34  1  0.11833700  0.67076700  0.71478100  1
  O  O35  1  0.32923300  0.88166300  0.78521900  1
  O  O36  1  0.82718700  0.38382900  0.50640600  1
  O  O37  1  0.61617100  0.17281300  0.99359400  1
  O  O38  1  0.17281300  0.61617100  0.49359400  1
  O  O39  1  0.38382900  0.82718700  0.00640600  1
  O  O40  1  0.75033700  0.54978300  0.31825100  1
  O  O41  1  0.45021700  0.24966300  0.18174900  1
  O  O42  1  0.24966300  0.45021700  0.68174900  1
  O  O43  1  0.54978300  0.75033700  0.81825100  1
  O  O44  1  0.04980700  0.25950100  0.38029000  1
  O  O45  1  0.74049900  0.95019300  0.11971000  1
  O  O46  1  0.95019300  0.74049900  0.61971000  1
  O  O47  1  0.25950100  0.04980700  0.88029000  1
loop_
_geom_bond_atom_site_label_1
_geom_bond_atom_site_label_2
_geom_bond_distance
_geom_bond_site_symmetry_2
Na0 O16 2.387250 1_555
Na0 O21 2.397978 1_556
Na0 O47 2.536829 1_555
Na0 O42 2.587200 1_555
Na1 O17 2.387250 1_555
Na1 O20 2.397978 1_555
Na1 O46 2.536829 1_555
Na1 O43 2.587200 1_555
Na2 O18 2.387250 1_555
Na2 O23 2.397978 1_554
Na2 O45 2.536829 1_555
Na2 O40 2.587200 1_555
Na3 O19 2.387250 1_555
Na3 O22 2.397978 1_555
Na3 O44 2.536829 1_555
Na3 O41 2.587200 1_555
Na4 O4 2.372254 1_655
Na4 O0 2.385450 1_555
Na4 O10 2.420095 1_556
Na4 O14 2.436458 1_555
Na5 O5 2.372254 1_545
Na5 O1 2.385450 1_555
Na5 O11 2.420095 1_555
Na5 O15 2.436458 1_555
Na6 O6 2.372254 1_455
Na6 O2 2.385450 1_555
Na6 O8 2.420095 1_554
Na6 O12 2.436458 1_555
Na7 O7 2.372261 1_565
Na7 O3 2.385443 1_555
Na7 O9 2.420087 1_555
Na7 O13 2.436467 1_555
Al0 O29 1.746602 1_555
Al0 O10 1.754481 1_555
Al0 O18 1.754997 1_555
Al0 O0 1.768375 1_554
Al1 O28 1.746602 1_555
Al1 O11 1.754481 1_555
Al1 O19 1.754997 1_555
Al1 O1 1.768375 1_555
Al2 O31 1.746602 1_555
Al2 O8 1.754481 1_555
Al2 O16 1.754997 1_555
Al2 O2 1.768375 1_556
Al3 O30 1.746602 1_555
Al3 O9 1.754481 1_555
Al3 O17 1.754997 1_555
Al3 O3 1.768375 1_555
Al4 O25 1.739159 1_555
Al4 O14 1.756411 1_455
Al4 O22 1.757029 1_555
Al4 O4 1.774637 1_555
Al5 O24 1.739159 1_555
Al5 O15 1.756411 1_565
Al5 O23 1.757029 1_555
Al5 O5 1.774637 1_555
Al6 O27 1.739159 1_555
Al6 O12 1.756411 1_655
Al6 O20 1.757029 1_555
Al6 O6 1.774637 1_555
Al7 O26 1.739159 1_555
Al7 O13 1.756411 1_545
Al7 O21 1.757029 1_555
Al7 O7 1.774637 1_555
O0 Si10 1.630817 1_555
O1 Si11 1.630817 1_555
O2 Si8 1.630817 1_555
O3 Si9 1.630817 1_555
O4 Si14 1.630509 1_555
O5 Si15 1.630509 1_555
O6 Si12 1.630509 1_555
O7 Si13 1.630509 1_555
O8 Si1 1.618977 1_555
O9 Si0 1.618977 1_555
O10 Si3 1.618977 1_555
O11 Si2 1.618977 1_555
O12 Si5 1.618141 1_555
O13 Si4 1.618141 1_555
O14 Si7 1.618141 1_555
O15 Si6 1.618141 1_555
O16 Si0 1.618334 1_555
O17 Si1 1.618334 1_555
O18 Si2 1.618334 1_555
O19 Si3 1.618334 1_555
O20 Si4 1.619739 1_655
O21 Si5 1.619739 1_545
O22 Si6 1.619739 1_455
O23 Si7 1.619739 1_565
O24 Si10 1.605021 1_555
O25 Si11 1.605021 1_555
O26 Si8 1.605021 1_555
O27 Si9 1.605021 1_555
O28 Si14 1.610928 1_555
O29 Si15 1.610928 1_554
O30 Si12 1.610928 1_555
O31 Si13 1.610928 1_556
O32 Si2 1.634331 1_555
O32 Si8 1.639058 1_655
O33 Si3 1.634331 1_555
O33 Si9 1.639058 1_545
O34 Si0 1.634331 1_555
O34 Si10 1.639058 1_455
O35 Si1 1.634331 1_555
O35 Si11 1.639058 1_565
O36 Si6 1.637409 1_555
O36 Si12 1.637617 1_555
O37 Si7 1.637409 1_555
O37 Si13 1.637617 1_556
O38 Si4 1.637409 1_555
O38 Si14 1.637617 1_555
O39 Si5 1.637409 1_555
O39 Si15 1.637617 1_554
O40 Si2 1.661372 1_555
O40 Si12 1.665207 1_555
O41 Si3 1.661372 1_555
O41 Si13 1.665207 1_555
O42 Si0 1.661372 1_555
O42 Si14 1.665207 1_555
O43 Si1 1.661372 1_555
O43 Si15 1.665207 1_555
O44 Si6 1.660121 1_455
O44 Si8 1.666091 1_555
O45 Si7 1.660121 1_564
O45 Si9 1.666091 1_555
O46 Si4 1.660121 1_655
O46 Si10 1.666091 1_555
O47 Si5 1.660121 1_546
O47 Si11 1.666091 1_555
