# generated using pymatgen
data_Na3Ho(PO4)2
_symmetry_space_group_name_H-M   'P 1'
_cell_length_a   5.30527746
_cell_length_b   13.90276017
_cell_length_c   18.54216873
_cell_angle_alpha   90.00000000
_cell_angle_beta   90.00000000
_cell_angle_gamma   90.00000000
_symmetry_Int_Tables_number   1
_chemical_formula_structural   Na3Ho(PO4)2
_chemical_formula_sum   'Na24 Ho8 P16 O64'
_cell_volume   1367.63328419
_cell_formula_units_Z   8
loop_
 _symmetry_equiv_pos_site_id
 _symmetry_equiv_pos_as_xyz
  1  'x, y, z'
loop_
 _atom_site_type_symbol
 _atom_site_label
 _atom_site_symmetry_multiplicity
 _atom_site_fract_x
 _atom_site_fract_y
 _atom_site_fract_z
 _atom_site_occupancy
  Na  Na0  1  0.99014150  0.21697924  0.99243456  1
  Na  Na1  1  0.00985850  0.78302076  0.49243456  1
  Na  Na2  1  0.00985850  0.71697924  0.99243456  1
  Na  Na3  1  0.99014150  0.28302076  0.49243456  1
  Na  Na4  1  0.99250846  0.95159707  0.64935480  1
  Na  Na5  1  0.00749154  0.04840293  0.14935480  1
  Na  Na6  1  0.00749154  0.45159707  0.64935480  1
  Na  Na7  1  0.99250846  0.54840293  0.14935480  1
  Na  Na8  1  0.99618366  0.86119494  0.82803393  1
  Na  Na9  1  0.00381634  0.13880506  0.32803393  1
  Na  Na10  1  0.00381634  0.36119494  0.82803393  1
  Na  Na11  1  0.99618366  0.63880506  0.32803393  1
  Na  Na12  1  0.48033348  0.79813014  0.72942724  1
  Na  Na13  1  0.51966652  0.20186986  0.22942724  1
  Na  Na14  1  0.51966652  0.29813014  0.72942724  1
  Na  Na15  1  0.48033348  0.70186986  0.22942724  1
  Na  Na16  1  0.53964854  0.96829689  0.88817608  1
  Na  Na17  1  0.46035146  0.03170311  0.38817608  1
  Na  Na18  1  0.46035146  0.46829689  0.88817608  1
  Na  Na19  1  0.53964854  0.53170311  0.38817608  1
  Na  Na20  1  0.50000178  0.88690635  0.54988162  1
  Na  Na21  1  0.49999822  0.11309365  0.04988162  1
  Na  Na22  1  0.49999822  0.38690635  0.54988162  1
  Na  Na23  1  0.50000178  0.61309365  0.04988162  1
  Ho  Ho0  1  0.92801394  0.61100548  0.80446558  1
  Ho  Ho1  1  0.07198606  0.38899452  0.30446558  1
  Ho  Ho2  1  0.07198606  0.11100548  0.80446558  1
  Ho  Ho3  1  0.92801394  0.88899452  0.30446558  1
  Ho  Ho4  1  0.55777845  0.63823306  0.57305804  1
  Ho  Ho5  1  0.44222155  0.36176694  0.07305804  1
  Ho  Ho6  1  0.44222155  0.13823306  0.57305804  1
  Ho  Ho7  1  0.55777845  0.86176694  0.07305804  1
  P  P0  1  0.96887292  0.47529114  0.98108864  1
  P  P1  1  0.03112708  0.52470886  0.48108864  1
  P  P2  1  0.03112708  0.97529114  0.98108864  1
  P  P3  1  0.96887292  0.02470886  0.48108864  1
  P  P4  1  0.99118040  0.22329242  0.65264614  1
  P  P5  1  0.00881960  0.77670758  0.15264614  1
  P  P6  1  0.00881960  0.72329242  0.65264614  1
  P  P7  1  0.99118040  0.27670758  0.15264614  1
  P  P8  1  0.47910385  0.52612717  0.72451959  1
  P  P9  1  0.52089615  0.47387283  0.22451959  1
  P  P10  1  0.52089615  0.02612717  0.72451959  1
  P  P11  1  0.47910385  0.97387283  0.22451959  1
  P  P12  1  0.46114065  0.72650570  0.89621164  1
  P  P13  1  0.53885935  0.27349430  0.39621164  1
  P  P14  1  0.53885935  0.22650570  0.89621164  1
  P  P15  1  0.46114065  0.77349430  0.39621164  1
  O  O0  1  0.57556465  0.80782338  0.85056302  1
  O  O1  1  0.42443535  0.19217662  0.35056302  1
  O  O2  1  0.42443535  0.30782338  0.85056302  1
  O  O3  1  0.57556465  0.69217662  0.35056302  1
  O  O4  1  0.69828393  0.47243974  0.76364833  1
  O  O5  1  0.30171607  0.52756026  0.26364833  1
  O  O6  1  0.30171607  0.97243974  0.76364833  1
  O  O7  1  0.69828393  0.02756026  0.26364833  1
  O  O8  1  0.88076398  0.88044914  0.99487104  1
  O  O9  1  0.11923602  0.11955086  0.49487104  1
  O  O10  1  0.11923602  0.38044914  0.99487104  1
  O  O11  1  0.88076398  0.61955086  0.49487104  1
  O  O12  1  0.79374501  0.77720571  0.61129946  1
  O  O13  1  0.20625499  0.22279429  0.11129946  1
  O  O14  1  0.20625499  0.27720571  0.61129946  1
  O  O15  1  0.79374501  0.72279429  0.11129946  1
  O  O16  1  0.68367236  0.45949006  0.00013988  1
  O  O17  1  0.31632764  0.54050994  0.50013988  1
  O  O18  1  0.31632764  0.95949006  0.00013988  1
  O  O19  1  0.68367236  0.04050994  0.50013988  1
  O  O20  1  0.91840093  0.44295745  0.52730481  1
  O  O21  1  0.08159907  0.55704255  0.02730481  1
  O  O22  1  0.08159907  0.94295745  0.52730481  1
  O  O23  1  0.91840093  0.05704255  0.02730481  1
  O  O24  1  0.77467712  0.99925817  0.76124178  1
  O  O25  1  0.22532288  0.00074183  0.26124178  1
  O  O26  1  0.22532288  0.49925817  0.76124178  1
  O  O27  1  0.77467712  0.50074183  0.26124178  1
  O  O28  1  0.61240182  0.63160782  0.88444448  1
  O  O29  1  0.38759818  0.36839218  0.38444448  1
  O  O30  1  0.38759818  0.13160782  0.88444448  1
  O  O31  1  0.61240182  0.86839218  0.38444448  1
  O  O32  1  0.53336506  0.63473704  0.72981931  1
  O  O33  1  0.46663494  0.36526296  0.22981931  1
  O  O34  1  0.46663494  0.13473704  0.72981931  1
  O  O35  1  0.53336506  0.86526296  0.22981931  1
  O  O36  1  0.95250885  0.61481659  0.64724415  1
  O  O37  1  0.04749115  0.38518341  0.14724415  1
  O  O38  1  0.04749115  0.11481659  0.64724415  1
  O  O39  1  0.95250885  0.88518341  0.14724415  1
  O  O40  1  0.82200440  0.20944004  0.87470110  1
  O  O41  1  0.17799560  0.79055996  0.37470110  1
  O  O42  1  0.17799560  0.70944004  0.87470110  1
  O  O43  1  0.82200440  0.29055996  0.37470110  1
  O  O44  1  0.99111080  0.25369472  0.73334998  1
  O  O45  1  0.00888920  0.74630528  0.23334998  1
  O  O46  1  0.00888920  0.75369472  0.73334998  1
  O  O47  1  0.99111080  0.24630528  0.23334998  1
  O  O48  1  0.52717644  0.99628497  0.64330305  1
  O  O49  1  0.47282356  0.00371503  0.14330305  1
  O  O50  1  0.47282356  0.49628497  0.64330305  1
  O  O51  1  0.52717644  0.50371503  0.14330305  1
  O  O52  1  0.00383163  0.99818657  0.89910619  1
  O  O53  1  0.99616837  0.00181343  0.39910619  1
  O  O54  1  0.99616837  0.49818657  0.89910619  1
  O  O55  1  0.00383163  0.50181343  0.39910619  1
  O  O56  1  0.26604412  0.74988074  0.61767087  1
  O  O57  1  0.73395588  0.25011926  0.11767087  1
  O  O58  1  0.73395588  0.24988074  0.61767087  1
  O  O59  1  0.26604412  0.75011926  0.11767087  1
  O  O60  1  0.46914429  0.75024807  0.97859467  1
  O  O61  1  0.53085571  0.24975193  0.47859467  1
  O  O62  1  0.53085571  0.25024807  0.97859467  1
  O  O63  1  0.46914429  0.74975193  0.47859467  1
loop_
_geom_bond_atom_site_label_1
_geom_bond_atom_site_label_2
_geom_bond_distance
_geom_bond_site_symmetry_2
Na0 O23 2.346729 1_556
Na0 O40 2.360574 1_555
Na0 O10 2.374067 1_655
Na0 O13 2.485713 1_656
Na0 O62 2.493390 1_555
Na0 O57 2.729821 1_556
Na0 O62 2.916998 1_655
Na1 O22 2.346729 1_555
Na1 O41 2.360574 1_555
Na1 O11 2.374067 1_455
Na1 O12 2.485713 1_455
Na1 O63 2.493390 1_555
Na1 O56 2.729821 1_555
Na1 O63 2.916998 1_455
Na2 O21 2.346729 1_556
Na2 O42 2.360574 1_555
Na2 O8 2.374067 1_455
Na2 O15 2.485713 1_456
Na2 O60 2.493390 1_555
Na2 O59 2.729821 1_556
Na2 O60 2.916998 1_455
Na3 O20 2.346729 1_555
Na3 O43 2.360574 1_555
Na3 O9 2.374067 1_655
Na3 O14 2.485713 1_655
Na3 O61 2.493390 1_555
Na3 O58 2.729821 1_555
Na3 O61 2.916998 1_655
Na4 O38 2.288208 1_665
Na4 O22 2.315020 1_655
Na4 O24 2.465499 1_555
Na4 O48 2.548165 1_555
Na4 O6 2.695590 1_655
Na4 O12 2.736453 1_555
Na4 O48 2.905972 1_655
Na5 O39 2.288208 1_445
Na5 O23 2.315020 1_455
Na5 O25 2.465499 1_555
Na5 O49 2.548165 1_555
Na5 O7 2.695590 1_455
Na5 O13 2.736453 1_555
Na5 O49 2.905972 1_455
Na6 O36 2.288208 1_455
Na6 O20 2.315020 1_455
Na6 O26 2.465499 1_555
Na6 O50 2.548165 1_555
Na6 O4 2.695590 1_455
Na6 O14 2.736453 1_555
Na6 O50 2.905972 1_455
Na7 O37 2.288208 1_655
Na7 O21 2.315020 1_655
Na7 O27 2.465499 1_555
Na7 O51 2.548165 1_555
Na7 O5 2.695590 1_655
Na7 O15 2.736453 1_555
Na7 O51 2.905972 1_655
Na8 O46 2.306624 1_655
Na8 O52 2.316395 1_655
Na8 O0 2.388448 1_555
Na8 O42 2.475975 1_655
Na8 O6 2.538642 1_655
Na8 O24 2.568876 1_555
Na9 O47 2.306624 1_455
Na9 O53 2.316395 1_455
Na9 O1 2.388448 1_555
Na9 O43 2.475975 1_455
Na9 O7 2.538642 1_455
Na9 O25 2.568876 1_555
Na10 O44 2.306624 1_455
Na10 O54 2.316395 1_455
Na10 O2 2.388448 1_555
Na10 O40 2.475975 1_455
Na10 O4 2.538642 1_455
Na10 O26 2.568876 1_555
Na11 O45 2.306624 1_655
Na11 O55 2.316395 1_655
Na11 O3 2.388448 1_555
Na11 O41 2.475975 1_655
Na11 O5 2.538642 1_655
Na11 O27 2.568876 1_555
Na12 O32 2.288983 1_555
Na12 O0 2.306181 1_555
Na12 O56 2.456923 1_555
Na12 O46 2.577334 1_555
Na12 O6 2.678320 1_555
Na12 O12 2.765308 1_555
Na12 O46 2.872300 1_655
Na13 O33 2.288983 1_555
Na13 O1 2.306181 1_555
Na13 O57 2.456923 1_555
Na13 O47 2.577334 1_555
Na13 O7 2.678320 1_555
Na13 O13 2.765308 1_555
Na13 O47 2.872300 1_455
Na14 O34 2.288983 1_555
Na14 O2 2.306181 1_555
Na14 O58 2.456923 1_555
Na14 O44 2.577334 1_555
Na14 O4 2.678320 1_555
Na14 O14 2.765308 1_555
Na14 O44 2.872300 1_455
Na15 O35 2.288983 1_555
Na15 O3 2.306181 1_555
Na15 O59 2.456923 1_555
Na15 O45 2.577334 1_555
Na15 O5 2.678320 1_555
Na15 O15 2.765308 1_555
Na15 O45 2.872300 1_655
Na16 O0 2.345247 1_555
Na16 O18 2.393467 1_556
Na16 O30 2.410508 1_565
Na16 O52 2.505644 1_655
Na16 O6 2.632159 1_555
Na16 O24 2.698079 1_555
Na16 O52 2.880010 1_555
Na16 O8 2.946284 1_555
Na17 O1 2.345247 1_555
Na17 O19 2.393467 1_555
Na17 O31 2.410508 1_545
Na17 O53 2.505644 1_455
Na17 O7 2.632159 1_555
Na17 O25 2.698079 1_555
Na17 O53 2.880010 1_555
Na17 O9 2.946284 1_555
Na18 O2 2.345247 1_555
Na18 O16 2.393467 1_556
Na18 O28 2.410508 1_555
Na18 O54 2.505644 1_455
Na18 O4 2.632159 1_555
Na18 O26 2.698079 1_555
Na18 O54 2.880010 1_555
Na18 O10 2.946284 1_555
Na19 O3 2.345247 1_555
Na19 O17 2.393467 1_555
Na19 O29 2.410508 1_555
Na19 O55 2.505644 1_655
Na19 O5 2.632159 1_555
Na19 O27 2.698079 1_555
Na19 O55 2.880010 1_555
Na19 O11 2.946284 1_555
Na20 O48 2.309512 1_555
Na20 O63 2.325935 1_555
Na20 O22 2.389510 1_555
Na20 O12 2.459989 1_555
Na20 O19 2.522022 1_565
Na20 O56 2.598020 1_555
Na21 O49 2.309512 1_555
Na21 O62 2.325935 1_554
Na21 O23 2.389510 1_555
Na21 O13 2.459989 1_555
Na21 O18 2.522022 1_545
Na21 O57 2.598020 1_555
Na22 O50 2.309512 1_555
Na22 O61 2.325935 1_555
Na22 O20 2.389510 1_555
Na22 O14 2.459989 1_555
Na22 O17 2.522022 1_555
Na22 O58 2.598020 1_555
Na23 O51 2.309512 1_555
Na23 O60 2.325935 1_554
Na23 O21 2.389510 1_555
Na23 O15 2.459989 1_555
Na23 O16 2.522022 1_555
Na23 O59 2.598020 1_555
Ho0 O28 2.254978 1_555
Ho0 O42 2.308186 1_655
Ho0 O26 2.354549 1_655
Ho0 O54 2.381257 1_555
Ho0 O4 2.401964 1_555
Ho0 O46 2.420385 1_655
Ho0 O32 2.531456 1_555
Ho1 O29 2.254978 1_555
Ho1 O43 2.308186 1_455
Ho1 O27 2.354549 1_455
Ho1 O55 2.381257 1_555
Ho1 O5 2.401964 1_555
Ho1 O47 2.420385 1_455
Ho1 O33 2.531456 1_555
Ho2 O30 2.254978 1_555
Ho2 O40 2.308186 1_455
Ho2 O24 2.354549 1_445
Ho2 O52 2.381257 1_545
Ho2 O6 2.401964 1_545
Ho2 O44 2.420385 1_455
Ho2 O34 2.531456 1_555
Ho3 O31 2.254978 1_555
Ho3 O41 2.308186 1_655
Ho3 O25 2.354549 1_665
Ho3 O53 2.381257 1_565
Ho3 O7 2.401964 1_565
Ho3 O45 2.420385 1_655
Ho3 O35 2.531456 1_555
Ho4 O11 2.259521 1_555
Ho4 O17 2.305382 1_555
Ho4 O56 2.342888 1_555
Ho4 O63 2.385973 1_555
Ho4 O50 2.407118 1_555
Ho4 O12 2.408940 1_555
Ho4 O36 2.526591 1_555
Ho5 O10 2.259521 1_554
Ho5 O16 2.305382 1_555
Ho5 O57 2.342888 1_555
Ho5 O62 2.385973 1_554
Ho5 O51 2.407118 1_555
Ho5 O13 2.408940 1_555
Ho5 O37 2.526591 1_555
Ho6 O9 2.259521 1_555
Ho6 O19 2.305382 1_555
Ho6 O58 2.342888 1_555
Ho6 O61 2.385973 1_555
Ho6 O48 2.407118 1_545
Ho6 O14 2.408940 1_555
Ho6 O38 2.526591 1_555
Ho7 O8 2.259521 1_554
Ho7 O18 2.305382 1_555
Ho7 O59 2.342888 1_555
Ho7 O60 2.385973 1_554
Ho7 O49 2.407118 1_565
Ho7 O15 2.408940 1_555
Ho7 O39 2.526591 1_555
O0 P12 1.537227 1_555
O1 P13 1.537227 1_555
O2 P14 1.537227 1_555
O3 P15 1.537227 1_555
O4 P8 1.560655 1_555
O5 P9 1.560655 1_555
O6 P10 1.560655 1_565
O7 P11 1.560655 1_545
O8 P2 1.562139 1_655
O9 P3 1.562139 1_455
O10 P0 1.562139 1_455
O11 P1 1.562139 1_655
O12 P6 1.565736 1_655
O13 P7 1.565736 1_455
O14 P4 1.565736 1_455
O15 P5 1.565736 1_655
O16 P0 1.569210 1_554
O17 P1 1.569210 1_555
O18 P2 1.569210 1_554
O19 P3 1.569210 1_555
O20 P1 1.543959 1_655
O21 P0 1.543959 1_454
O22 P3 1.543959 1_465
O23 P2 1.543959 1_644
O24 P10 1.554321 1_565
O25 P11 1.554321 1_545
O26 P8 1.554321 1_555
O27 P9 1.554321 1_555
O28 P12 1.559567 1_555
O29 P13 1.559567 1_555
O30 P14 1.559567 1_555
O31 P15 1.559567 1_555
O32 P8 1.540311 1_555
O33 P9 1.540311 1_555
O34 P10 1.540311 1_555
O35 P11 1.540311 1_555
O36 P6 1.540678 1_655
O37 P7 1.540678 1_455
O38 P4 1.540678 1_455
O39 P5 1.540678 1_655
O40 P14 1.572218 1_555
O41 P15 1.572218 1_555
O42 P12 1.572218 1_555
O43 P13 1.572218 1_555
O44 P4 1.554973 1_555
O45 P5 1.554973 1_555
O46 P6 1.554973 1_555
O47 P7 1.554973 1_555
O48 P10 1.562393 1_565
O49 P11 1.562393 1_545
O50 P8 1.562393 1_555
O51 P9 1.562393 1_555
O52 P2 1.559838 1_555
O53 P3 1.559838 1_555
O54 P0 1.559838 1_555
O55 P1 1.559838 1_555
O56 P6 1.555468 1_555
O57 P7 1.555468 1_555
O58 P4 1.555468 1_555
O59 P5 1.555468 1_555
O60 P12 1.563393 1_555
O61 P13 1.563393 1_555
O62 P14 1.563393 1_555
O63 P15 1.563393 1_555
