# generated using pymatgen
data_Sr4GaSi3
_symmetry_space_group_name_H-M   'P 1'
_cell_length_a   4.14757447
_cell_length_b   4.78817520
_cell_length_c   11.50746343
_cell_angle_alpha   90.00000000
_cell_angle_beta   90.00000000
_cell_angle_gamma   90.00000000
_symmetry_Int_Tables_number   1
_chemical_formula_structural   Sr4GaSi3
_chemical_formula_sum   'Sr4 Ga1 Si3'
_cell_volume   228.53032059
_cell_formula_units_Z   1
loop_
 _symmetry_equiv_pos_site_id
 _symmetry_equiv_pos_as_xyz
  1  'x, y, z'
loop_
 _atom_site_type_symbol
 _atom_site_label
 _atom_site_symmetry_multiplicity
 _atom_site_fract_x
 _atom_site_fract_y
 _atom_site_fract_z
 _atom_site_occupancy
  Sr  Sr0  1  -0.00000000  -0.00000000  0.36501438  1
  Sr  Sr1  1  -0.00000000  0.50000000  0.85862497  1
  Sr  Sr2  1  0.50000000  0.50000000  0.14013972  1
  Sr  Sr3  1  0.50000000  -0.00000000  0.63799843  1
  Ga  Ga0  1  0.00000000  0.00000000  0.06255490  1
  Si  Si0  1  -0.00000000  0.50000000  0.56238807  1
  Si  Si1  1  0.50000000  0.50000000  0.43965979  1
  Si  Si2  1  0.50000000  0.00000000  0.93361672  1
loop_
_geom_bond_atom_site_label_1
_geom_bond_atom_site_label_2
_geom_bond_distance
_geom_bond_site_symmetry_2
Ga0 Si2 2.549924 1_454
Ga0 Si2 2.549924 1_554
Ga0 Sr2 3.290798 1_445
Ga0 Sr2 3.290798 1_545
Ga0 Sr2 3.290798 1_455
Ga0 Sr2 3.290798 1_555
Ga0 Sr1 3.352422 1_544
Ga0 Sr1 3.352422 1_554
Ga0 Sr0 3.480541 1_555
Si0 Si1 2.509016 1_455
Si0 Si1 2.509016 1_555
Si0 Sr3 3.284706 1_455
Si0 Sr3 3.284706 1_565
Si0 Sr3 3.284706 1_555
Si0 Sr3 3.284706 1_465
Si0 Sr0 3.300049 1_565
Si0 Sr0 3.300049 1_555
Si0 Sr1 3.408935 1_555
Si1 Sr0 3.281782 1_565
Si1 Sr0 3.281782 1_665
Si1 Sr0 3.281782 1_655
Si1 Sr0 3.281782 1_555
Si1 Sr3 3.307702 1_555
Si1 Sr3 3.307702 1_565
Si1 Sr2 3.446716 1_555
Si2 Sr1 3.282828 1_545
Si2 Sr1 3.282828 1_645
Si2 Sr1 3.282828 1_655
Si2 Sr1 3.282828 1_555
Si2 Sr2 3.373377 1_546
Si2 Sr2 3.373377 1_556
Si2 Sr3 3.401817 1_555
