# generated using pymatgen
data_Gd2B4O9
_symmetry_space_group_name_H-M   'P 1'
_cell_length_a   4.45929170
_cell_length_b   12.96054961
_cell_length_c   25.04778391
_cell_angle_alpha   99.71359505
_cell_angle_beta   90.00000000
_cell_angle_gamma   99.90605930
_symmetry_Int_Tables_number   1
_chemical_formula_structural   Gd2B4O9
_chemical_formula_sum   'Gd20 B40 O90'
_cell_volume   1404.97805222
_cell_formula_units_Z   10
loop_
 _symmetry_equiv_pos_site_id
 _symmetry_equiv_pos_as_xyz
  1  'x, y, z'
loop_
 _atom_site_type_symbol
 _atom_site_label
 _atom_site_symmetry_multiplicity
 _atom_site_fract_x
 _atom_site_fract_y
 _atom_site_fract_z
 _atom_site_occupancy
  Gd  Gd0  1  0.13763611  0.87103527  0.42821001  1
  Gd  Gd1  1  0.26660083  0.12896473  0.07178999  1
  Gd  Gd2  1  0.86236389  0.12896473  0.57178999  1
  Gd  Gd3  1  0.73339917  0.87103527  0.92821001  1
  Gd  Gd4  1  0.99014224  0.56887606  0.37022665  1
  Gd  Gd5  1  0.42126618  0.43112394  0.12977335  1
  Gd  Gd6  1  0.00985776  0.43112394  0.62977335  1
  Gd  Gd7  1  0.57873382  0.56887606  0.87022665  1
  Gd  Gd8  1  0.65909483  0.97558771  0.32149548  1
  Gd  Gd9  1  0.68350712  0.02441229  0.17850452  1
  Gd  Gd10  1  0.34090517  0.02441229  0.67850452  1
  Gd  Gd11  1  0.31649288  0.97558771  0.82149548  1
  Gd  Gd12  1  0.81693141  0.28192055  0.29233426  1
  Gd  Gd13  1  0.53501085  0.71807945  0.20766574  1
  Gd  Gd14  1  0.18306859  0.71807945  0.70766574  1
  Gd  Gd15  1  0.46498915  0.28192055  0.79233426  1
  Gd  Gd16  1  0.07567918  0.69134507  0.53905225  1
  Gd  Gd17  1  0.38433410  0.30865493  0.96094775  1
  Gd  Gd18  1  0.92432082  0.30865493  0.46094775  1
  Gd  Gd19  1  0.61566590  0.69134507  0.03905225  1
  B  B0  1  0.48092047  0.51597877  0.46130420  1
  B  B1  1  0.96494169  0.48402123  0.03869580  1
  B  B2  1  0.51907953  0.48402123  0.53869580  1
  B  B3  1  0.03505831  0.51597877  0.96130420  1
  B  B4  1  0.91868747  0.49739664  0.21829891  1
  B  B5  1  0.42129083  0.50260336  0.28170109  1
  B  B6  1  0.08131253  0.50260336  0.78170109  1
  B  B7  1  0.57870917  0.49739664  0.71829891  1
  B  B8  1  0.37383104  0.14567862  0.46960199  1
  B  B9  1  0.22815243  0.85432138  0.03039801  1
  B  B10  1  0.62616896  0.85432138  0.53039801  1
  B  B11  1  0.77184757  0.14567862  0.96960199  1
  B  B12  1  0.57404417  0.70549955  0.44137967  1
  B  B13  1  0.86854462  0.29450045  0.05862033  1
  B  B14  1  0.42595583  0.29450045  0.55862033  1
  B  B15  1  0.13145538  0.70549955  0.94137967  1
  B  B16  1  0.07485005  0.80195313  0.30776315  1
  B  B17  1  0.27289691  0.19804687  0.19223685  1
  B  B18  1  0.92514995  0.19804687  0.69223685  1
  B  B19  1  0.72710309  0.80195313  0.80776315  1
  B  B20  1  0.83817059  0.29122618  0.16287598  1
  B  B21  1  0.54694442  0.70877382  0.33712402  1
  B  B22  1  0.16182941  0.70877382  0.83712402  1
  B  B23  1  0.45305558  0.29122618  0.66287598  1
  B  B24  1  0.22958107  0.10420147  0.27527752  1
  B  B25  1  0.12537961  0.89579853  0.22472248  1
  B  B26  1  0.77041893  0.89579853  0.72472248  1
  B  B27  1  0.87462039  0.10420147  0.77527752  1
  B  B28  1  0.35366371  0.39073105  0.36655598  1
  B  B29  1  0.96293266  0.60926895  0.13344402  1
  B  B30  1  0.64633629  0.60926895  0.63344402  1
  B  B31  1  0.03706734  0.39073105  0.86655598  1
  B  B32  1  0.84484005  0.06023714  0.43457702  1
  B  B33  1  0.78460291  0.93976286  0.06542298  1
  B  B34  1  0.15515995  0.93976286  0.56542298  1
  B  B35  1  0.21539709  0.06023714  0.93457702  1
  B  B36  1  0.22298149  0.18322034  0.37654566  1
  B  B37  1  0.03976115  0.81677966  0.12345434  1
  B  B38  1  0.77701851  0.81677966  0.62345434  1
  B  B39  1  0.96023885  0.18322034  0.87654566  1
  O  O0  1  0.25347944  0.45768384  0.41851674  1
  O  O1  1  0.79579561  0.54231616  0.08148326  1
  O  O2  1  0.74652056  0.54231616  0.58148326  1
  O  O3  1  0.20420439  0.45768384  0.91851674  1
  O  O4  1  0.68539787  0.60254099  0.44477172  1
  O  O5  1  0.08285689  0.39745901  0.05522828  1
  O  O6  1  0.31460213  0.39745901  0.55522828  1
  O  O7  1  0.91714311  0.60254099  0.94477172  1
  O  O8  1  0.33890436  0.55295655  0.51393100  1
  O  O9  1  0.78594781  0.44704345  0.98606900  1
  O  O10  1  0.66109564  0.44704345  0.48606900  1
  O  O11  1  0.21405219  0.55295655  0.01393100  1
  O  O12  1  0.31707038  0.87484239  0.52123222  1
  O  O13  1  0.44222799  0.12515761  0.97876778  1
  O  O14  1  0.68292962  0.12515761  0.47876778  1
  O  O15  1  0.55777201  0.87484239  0.02123222  1
  O  O16  1  0.38583020  0.19213974  0.24663396  1
  O  O17  1  0.19369046  0.80786026  0.25336604  1
  O  O18  1  0.61416980  0.80786026  0.75336604  1
  O  O19  1  0.80630954  0.19213974  0.74663396  1
  O  O20  1  0.31838445  -0.00000000  0.25000000  1
  O  O21  1  0.68161555  -0.00000000  0.75000000  1
  O  O22  1  0.08139174  0.87590859  0.61080238  1
  O  O23  1  0.20548314  0.12409141  0.88919762  1
  O  O24  1  0.91860826  0.12409141  0.38919762  1
  O  O25  1  0.79451686  0.87590859  0.11080238  1
  O  O26  1  0.66913301  0.95752411  0.41472448  1
  O  O27  1  0.71160890  0.04247589  0.08527552  1
  O  O28  1  0.33086699  0.04247589  0.58527552  1
  O  O29  1  0.28839110  0.95752411  0.91472448  1
  O  O30  1  0.97278352  0.23806736  0.20081868  1
  O  O31  1  0.73471615  0.76193264  0.29918132  1
  O  O32  1  0.02721648  0.76193264  0.79918132  1
  O  O33  1  0.26528385  0.23806736  0.70081868  1
  O  O34  1  0.95711137  0.25944032  0.10902356  1
  O  O35  1  0.69767105  0.74055968  0.39097644  1
  O  O36  1  0.04288863  0.74055968  0.89097644  1
  O  O37  1  0.30232895  0.25944032  0.60902356  1
  O  O38  1  0.14496847  0.05038384  0.45692992  1
  O  O39  1  0.09458463  0.94961616  0.04307008  1
  O  O40  1  0.85503153  0.94961616  0.54307008  1
  O  O41  1  0.90541537  0.05038384  0.95692992  1
  O  O42  1  0.37733537  0.13009491  0.33111476  1
  O  O43  1  0.24724046  0.86990509  0.16888524  1
  O  O44  1  0.62266463  0.86990509  0.66888524  1
  O  O45  1  0.75275954  0.13009491  0.83111476  1
  O  O46  1  0.74518139  0.78676137  0.48411932  1
  O  O47  1  0.95842002  0.21323863  0.01588068  1
  O  O48  1  0.25481861  0.21323863  0.51588068  1
  O  O49  1  0.04157998  0.78676137  0.98411932  1
  O  O50  1  0.25210851  0.69475522  0.44454178  1
  O  O51  1  0.55735329  0.30524478  0.05545822  1
  O  O52  1  0.74789149  0.30524478  0.55545822  1
  O  O53  1  0.44264671  0.69475522  0.94454178  1
  O  O54  1  0.59356372  0.78421935  0.57278720  1
  O  O55  1  0.80934437  0.21578065  0.92721280  1
  O  O56  1  0.40643628  0.21578065  0.42721280  1
  O  O57  1  0.19065563  0.78421935  0.07278720  1
  O  O58  1  0.12916029  0.90685456  0.34030794  1
  O  O59  1  0.22230574  0.09314544  0.15969206  1
  O  O60  1  0.87083971  0.09314544  0.65969206  1
  O  O61  1  0.77769426  0.90685456  0.84030794  1
  O  O62  1  0.94279060  0.40853004  0.17275289  1
  O  O63  1  0.53426056  0.59146996  0.32724711  1
  O  O64  1  0.05720940  0.59146996  0.82724711  1
  O  O65  1  0.46573944  0.40853004  0.67275289  1
  O  O66  1  0.66859338  0.39463633  0.36647751  1
  O  O67  1  0.27395704  0.60536367  0.13352249  1
  O  O68  1  0.33140662  0.60536367  0.63352249  1
  O  O69  1  0.72604296  0.39463633  0.86647751  1
  O  O70  1  0.91059236  0.10341612  0.27377823  1
  O  O71  1  0.80717624  0.89658388  0.22622177  1
  O  O72  1  0.08940764  0.89658388  0.72622177  1
  O  O73  1  0.19282376  0.10341612  0.77377823  1
  O  O74  1  0.80887480  0.57489320  0.18650918  1
  O  O75  1  0.23398160  0.42510680  0.31349082  1
  O  O76  1  0.19112520  0.42510680  0.81349082  1
  O  O77  1  0.76601840  0.57489320  0.68650918  1
  O  O78  1  0.22889788  0.54095329  0.24327743  1
  O  O79  1  0.68794459  0.45904671  0.25672257  1
  O  O80  1  0.77110212  0.45904671  0.75672257  1
  O  O81  1  0.31205541  0.54095329  0.74327743  1
  O  O82  1  0.49706652  0.27257999  0.16479177  1
  O  O83  1  0.22448653  0.72742001  0.33520823  1
  O  O84  1  0.50293348  0.72742001  0.83520823  1
  O  O85  1  0.77551347  0.27257999  0.66479177  1
  O  O86  1  0.14897087  0.28534109  0.36405060  1
  O  O87  1  0.86362978  0.71465891  0.13594940  1
  O  O88  1  0.85102913  0.71465891  0.63594940  1
  O  O89  1  0.13637022  0.28534109  0.86405060  1
loop_
_geom_bond_atom_site_label_1
_geom_bond_atom_site_label_2
_geom_bond_distance
_geom_bond_site_symmetry_2
Gd0 O38 2.308950 1_565
Gd0 O58 2.327146 1_555
Gd0 O35 2.429993 1_455
Gd0 O12 2.453405 1_555
Gd0 O46 2.464818 1_455
Gd0 O26 2.490312 1_555
Gd0 O50 2.522768 1_555
Gd0 O26 2.582414 1_455
Gd0 O83 2.797490 1_555
Gd1 O39 2.308950 1_545
Gd1 O59 2.327146 1_555
Gd1 O34 2.429993 1_455
Gd1 O13 2.453405 1_554
Gd1 O47 2.464818 1_455
Gd1 O27 2.490312 1_555
Gd1 O51 2.522768 1_555
Gd1 O27 2.582414 1_455
Gd1 O82 2.797490 1_555
Gd2 O40 2.308950 1_545
Gd2 O60 2.327146 1_555
Gd2 O37 2.429993 1_655
Gd2 O14 2.453405 1_555
Gd2 O48 2.464818 1_655
Gd2 O28 2.490312 1_555
Gd2 O52 2.522768 1_555
Gd2 O28 2.582414 1_655
Gd2 O85 2.797490 1_555
Gd3 O41 2.308950 1_565
Gd3 O61 2.327146 1_555
Gd3 O36 2.429993 1_655
Gd3 O15 2.453405 1_556
Gd3 O49 2.464818 1_655
Gd3 O29 2.490312 1_555
Gd3 O53 2.522768 1_555
Gd3 O29 2.582414 1_655
Gd3 O84 2.797490 1_555
Gd4 O4 2.335078 1_555
Gd4 O63 2.385081 1_555
Gd4 O50 2.410546 1_655
Gd4 O83 2.439890 1_655
Gd4 O66 2.445164 1_555
Gd4 O0 2.467647 1_655
Gd4 O75 2.545079 1_655
Gd4 O63 2.644605 1_655
Gd4 O35 2.744171 1_555
Gd5 O5 2.335078 1_555
Gd5 O62 2.385081 1_455
Gd5 O51 2.410546 1_555
Gd5 O82 2.439890 1_555
Gd5 O67 2.445164 1_555
Gd5 O1 2.467647 1_555
Gd5 O74 2.545079 1_555
Gd5 O62 2.644605 1_555
Gd5 O34 2.744171 1_455
Gd6 O6 2.335078 1_555
Gd6 O65 2.385081 1_555
Gd6 O52 2.410546 1_455
Gd6 O85 2.439890 1_455
Gd6 O68 2.445164 1_555
Gd6 O2 2.467647 1_455
Gd6 O77 2.545079 1_455
Gd6 O65 2.644605 1_455
Gd6 O37 2.744171 1_555
Gd7 O7 2.335078 1_555
Gd7 O64 2.385081 1_655
Gd7 O53 2.410546 1_555
Gd7 O84 2.439890 1_555
Gd7 O69 2.445164 1_555
Gd7 O3 2.467647 1_555
Gd7 O76 2.545079 1_555
Gd7 O64 2.644605 1_555
Gd7 O36 2.744171 1_655
Gd8 O70 2.336653 1_565
Gd8 O26 2.387041 1_555
Gd8 O20 2.443774 1_565
Gd8 O58 2.453027 1_555
Gd8 O24 2.460003 1_565
Gd8 O58 2.488695 1_655
Gd8 O42 2.519838 1_565
Gd8 O71 2.566603 1_555
Gd8 O31 2.809443 1_555
Gd9 O71 2.336653 1_545
Gd9 O27 2.387041 1_555
Gd9 O20 2.443774 1_555
Gd9 O59 2.453027 1_555
Gd9 O25 2.460003 1_545
Gd9 O59 2.488695 1_655
Gd9 O43 2.519838 1_545
Gd9 O70 2.566603 1_555
Gd9 O30 2.809443 1_555
Gd10 O72 2.336653 1_545
Gd10 O28 2.387041 1_555
Gd10 O21 2.443774 1_555
Gd10 O60 2.453027 1_555
Gd10 O22 2.460003 1_545
Gd10 O60 2.488695 1_455
Gd10 O44 2.519838 1_545
Gd10 O73 2.566603 1_555
Gd10 O33 2.809443 1_555
Gd11 O73 2.336653 1_565
Gd11 O29 2.387041 1_555
Gd11 O21 2.443774 1_565
Gd11 O61 2.453027 1_555
Gd11 O23 2.460003 1_565
Gd11 O61 2.488695 1_455
Gd11 O45 2.519838 1_565
Gd11 O72 2.566603 1_555
Gd11 O32 2.809443 1_555
Gd12 O16 2.267339 1_555
Gd12 O86 2.317690 1_655
Gd12 O66 2.331859 1_555
Gd12 O75 2.379928 1_655
Gd12 O70 2.390069 1_555
Gd12 O30 2.399330 1_555
Gd12 O79 2.746239 1_555
Gd12 O42 2.824200 1_555
Gd13 O17 2.267339 1_555
Gd13 O87 2.317690 1_555
Gd13 O67 2.331859 1_555
Gd13 O74 2.379928 1_555
Gd13 O71 2.390069 1_555
Gd13 O31 2.399330 1_555
Gd13 O78 2.746239 1_555
Gd13 O43 2.824200 1_555
Gd14 O18 2.267339 1_555
Gd14 O88 2.317690 1_455
Gd14 O68 2.331859 1_555
Gd14 O77 2.379928 1_455
Gd14 O72 2.390069 1_555
Gd14 O32 2.399330 1_555
Gd14 O81 2.746239 1_555
Gd14 O44 2.824200 1_555
Gd15 O19 2.267339 1_555
Gd15 O89 2.317690 1_555
Gd15 O69 2.331859 1_555
Gd15 O76 2.379928 1_555
Gd15 O73 2.390069 1_555
Gd15 O33 2.399330 1_555
Gd15 O80 2.746239 1_555
Gd15 O45 2.824200 1_555
Gd16 O8 2.309596 1_555
Gd16 O54 2.489288 1_555
Gd16 O50 2.499655 1_555
Gd16 O12 2.547802 1_555
Gd16 O2 2.594603 1_455
Gd16 O46 2.606884 1_455
Gd16 O88 2.615752 1_455
Gd16 O54 2.707786 1_455
Gd16 O22 2.735098 1_555
Gd16 O4 2.885134 1_455
Gd16 O68 3.077096 1_555
Gd17 O9 2.309596 1_555
Gd17 O55 2.489288 1_555
Gd17 O51 2.499655 1_556
Gd17 O13 2.547802 1_555
Gd17 O3 2.594603 1_555
Gd17 O47 2.606884 1_456
Gd17 O89 2.615752 1_555
Gd17 O55 2.707786 1_455
Gd17 O23 2.735098 1_555
Gd17 O5 2.885134 1_556
Gd17 O69 3.077096 1_555
Gd18 O10 2.309596 1_555
Gd18 O56 2.489288 1_555
Gd18 O52 2.499655 1_555
Gd18 O14 2.547802 1_555
Gd18 O0 2.594603 1_655
Gd18 O48 2.606884 1_655
Gd18 O86 2.615752 1_655
Gd18 O56 2.707786 1_655
Gd18 O24 2.735098 1_555
Gd18 O6 2.885134 1_655
Gd18 O66 3.077096 1_555
Gd19 O11 2.309596 1_555
Gd19 O57 2.489288 1_555
Gd19 O53 2.499655 1_554
Gd19 O15 2.547802 1_555
Gd19 O1 2.594603 1_555
Gd19 O49 2.606884 1_654
Gd19 O87 2.615752 1_555
Gd19 O57 2.707786 1_655
Gd19 O25 2.735098 1_555
Gd19 O7 2.885134 1_554
Gd19 O67 3.077096 1_555
B0 O4 1.437481 1_555
B0 O0 1.487011 1_555
B0 O8 1.503196 1_555
B0 O10 1.504176 1_555
B1 O5 1.437481 1_655
B1 O1 1.487011 1_555
B1 O9 1.503196 1_554
B1 O11 1.504176 1_655
B2 O6 1.437481 1_555
B2 O2 1.487011 1_555
B2 O10 1.503196 1_555
B2 O8 1.504176 1_555
B3 O7 1.437481 1_455
B3 O3 1.487011 1_555
B3 O11 1.503196 1_556
B3 O9 1.504176 1_455
B4 O79 1.489129 1_555
B4 O78 1.495269 1_655
B4 O62 1.496259 1_555
B4 O74 1.523728 1_555
B5 O78 1.489129 1_555
B5 O79 1.495269 1_555
B5 O63 1.496259 1_555
B5 O75 1.523728 1_555
B6 O81 1.489129 1_555
B6 O80 1.495269 1_455
B6 O64 1.496259 1_555
B6 O76 1.523728 1_555
B7 O80 1.489129 1_555
B7 O81 1.495269 1_555
B7 O65 1.496259 1_555
B7 O77 1.523728 1_555
B8 O38 1.449735 1_555
B8 O14 1.473113 1_555
B8 O48 1.486416 1_555
B8 O56 1.501339 1_555
B9 O39 1.449735 1_555
B9 O15 1.473112 1_555
B9 O49 1.486416 1_554
B9 O57 1.501339 1_555
B10 O40 1.449735 1_555
B10 O12 1.473113 1_555
B10 O46 1.486416 1_555
B10 O54 1.501339 1_555
B11 O41 1.449735 1_555
B11 O13 1.473112 1_555
B11 O47 1.486416 1_556
B11 O55 1.501339 1_555
B12 O50 1.421818 1_555
B12 O46 1.476705 1_555
B12 O35 1.487168 1_555
B12 O4 1.516790 1_555
B13 O51 1.421818 1_555
B13 O47 1.476705 1_555
B13 O34 1.487168 1_555
B13 O5 1.516790 1_655
B14 O52 1.421818 1_555
B14 O48 1.476705 1_555
B14 O37 1.487168 1_555
B14 O6 1.516790 1_555
B15 O53 1.421818 1_555
B15 O49 1.476705 1_555
B15 O36 1.487168 1_555
B15 O7 1.516790 1_455
B16 O58 1.443725 1_555
B16 O17 1.471198 1_555
B16 O83 1.515528 1_555
B16 O31 1.519040 1_455
B17 O59 1.443725 1_555
B17 O16 1.471198 1_555
B17 O82 1.515528 1_555
B17 O30 1.519040 1_455
B18 O60 1.443725 1_555
B18 O19 1.471198 1_555
B18 O85 1.515528 1_555
B18 O33 1.519040 1_655
B19 O61 1.443725 1_555
B19 O18 1.471198 1_555
B19 O84 1.515528 1_555
B19 O32 1.519040 1_655
B20 O30 1.449649 1_555
B20 O34 1.469074 1_555
B20 O62 1.489724 1_555
B20 O82 1.500611 1_555
B21 O31 1.449649 1_555
B21 O35 1.469074 1_555
B21 O63 1.489724 1_555
B21 O83 1.500611 1_555
B22 O32 1.449649 1_555
B22 O36 1.469074 1_555
B22 O64 1.489724 1_555
B22 O84 1.500611 1_555
B23 O33 1.449649 1_555
B23 O37 1.469074 1_555
B23 O65 1.489724 1_555
B23 O85 1.500611 1_555
B24 O70 1.421199 1_455
B24 O42 1.506108 1_555
B24 O20 1.508983 1_555
B24 O16 1.517203 1_555
B25 O71 1.421199 1_455
B25 O43 1.506108 1_555
B25 O20 1.508983 1_565
B25 O17 1.517203 1_555
B26 O72 1.421199 1_655
B26 O44 1.506108 1_555
B26 O21 1.508983 1_565
B26 O18 1.517203 1_555
B27 O73 1.421199 1_655
B27 O45 1.506108 1_555
B27 O21 1.508983 1_555
B27 O19 1.517203 1_555
B28 O66 1.396560 1_555
B28 O86 1.498308 1_555
B28 O0 1.548792 1_555
B28 O75 1.591115 1_555
B29 O67 1.396560 1_655
B29 O87 1.498308 1_555
B29 O1 1.548791 1_555
B29 O74 1.591115 1_555
B30 O68 1.396560 1_555
B30 O88 1.498308 1_555
B30 O2 1.548792 1_555
B30 O77 1.591115 1_555
B31 O69 1.396560 1_455
B31 O89 1.498308 1_555
B31 O3 1.548791 1_555
B31 O76 1.591115 1_555
B32 O26 1.432156 1_545
B32 O38 1.484563 1_655
B32 O24 1.519491 1_555
B32 O14 1.532705 1_555
B33 O27 1.432156 1_565
B33 O39 1.484563 1_655
B33 O25 1.519491 1_555
B33 O15 1.532705 1_555
B34 O28 1.432156 1_565
B34 O40 1.484563 1_455
B34 O22 1.519491 1_555
B34 O12 1.532705 1_555
B35 O29 1.432156 1_545
B35 O41 1.484563 1_455
B35 O23 1.519491 1_555
B35 O13 1.532705 1_555
B36 O42 1.463363 1_555
B36 O56 1.469165 1_555
B36 O86 1.499570 1_555
B36 O24 1.501337 1_455
B37 O43 1.463363 1_555
B37 O57 1.469165 1_555
B37 O87 1.499570 1_455
B37 O25 1.501337 1_455
B38 O44 1.463363 1_555
B38 O54 1.469165 1_555
B38 O88 1.499570 1_555
B38 O22 1.501337 1_655
B39 O45 1.463363 1_555
B39 O55 1.469165 1_555
B39 O89 1.499570 1_655
B39 O23 1.501337 1_655
