# generated using pymatgen
data_SmZnGa
_symmetry_space_group_name_H-M   'P 1'
_cell_length_a   4.41058843
_cell_length_b   4.41157602
_cell_length_c   7.52239497
_cell_angle_alpha   90.00000000
_cell_angle_beta   90.00000000
_cell_angle_gamma   119.99258740
_symmetry_Int_Tables_number   1
_chemical_formula_structural   SmZnGa
_chemical_formula_sum   'Sm2 Zn2 Ga2'
_cell_volume   126.76795944
_cell_formula_units_Z   2
loop_
 _symmetry_equiv_pos_site_id
 _symmetry_equiv_pos_as_xyz
  1  'x, y, z'
loop_
 _atom_site_type_symbol
 _atom_site_label
 _atom_site_symmetry_multiplicity
 _atom_site_fract_x
 _atom_site_fract_y
 _atom_site_fract_z
 _atom_site_occupancy
  Sm  Sm0  1  0.00000000  0.00000000  0.50000000  1
  Sm  Sm1  1  0.00000000  0.00000000  0.00000000  1
  Zn  Zn0  1  0.33343138  0.66686375  0.75000000  1
  Zn  Zn1  1  0.66656862  0.33313625  0.25000000  1
  Ga  Ga0  1  0.33322691  0.66645583  0.25000000  1
  Ga  Ga1  1  0.66677309  0.33354417  0.75000000  1
loop_
_geom_bond_atom_site_label_1
_geom_bond_atom_site_label_2
_geom_bond_distance
_geom_bond_site_symmetry_2
Sm0 Zn0 3.165458 1_545
Sm0 Zn1 3.165458 1_455
Sm0 Zn0 3.165461 1_445
Sm0 Zn1 3.165461 1_555
Sm0 Zn1 3.166827 1_445
Sm0 Zn0 3.166827 1_555
Sm1 Zn0 3.165458 1_544
Sm1 Zn1 3.165458 1_455
Sm1 Zn0 3.165461 1_444
Sm1 Zn1 3.165461 1_555
Sm1 Zn1 3.166827 1_445
Sm1 Zn0 3.166827 1_554
Ga0 Zn1 2.546613 1_455
Ga0 Zn1 2.546624 1_555
Ga0 Zn1 2.547267 1_565
Ga0 Sm0 3.165573 1_555
Ga0 Sm1 3.165573 1_555
Ga0 Sm0 3.166083 1_565
Ga0 Sm1 3.166083 1_565
Ga0 Sm0 3.166090 1_665
Ga0 Sm1 3.166090 1_665
Ga1 Zn0 2.546613 1_655
Ga1 Zn0 2.546624 1_555
Ga1 Zn0 2.547267 1_545
Ga1 Sm0 3.165573 1_665
Ga1 Sm1 3.165573 1_666
Ga1 Sm1 3.166083 1_656
Ga1 Sm0 3.166083 1_655
Ga1 Sm0 3.166090 1_555
Ga1 Sm1 3.166090 1_556
