# generated using pymatgen
data_K2TlCoF6
_symmetry_space_group_name_H-M   'P 1'
_cell_length_a   6.28872400
_cell_length_b   6.28872422
_cell_length_c   6.28872422
_cell_angle_alpha   60.00000380
_cell_angle_beta   60.00000115
_cell_angle_gamma   60.00000118
_symmetry_Int_Tables_number   1
_chemical_formula_structural   K2TlCoF6
_chemical_formula_sum   'K2 Tl1 Co1 F6'
_cell_volume   175.86226296
_cell_formula_units_Z   1
loop_
 _symmetry_equiv_pos_site_id
 _symmetry_equiv_pos_as_xyz
  1  'x, y, z'
loop_
 _atom_site_type_symbol
 _atom_site_label
 _atom_site_symmetry_multiplicity
 _atom_site_fract_x
 _atom_site_fract_y
 _atom_site_fract_z
 _atom_site_occupancy
  K  K0  1  0.25000000  0.25000000  0.25000000  1
  K  K1  1  0.75000000  0.75000000  0.75000000  1
  Tl  Tl0  1  0.50000000  0.50000000  0.50000000  1
  Co  Co0  1  0.00000000  0.00000000  0.00000000  1
  F  F0  1  0.21139400  0.78860600  0.21139400  1
  F  F1  1  0.78860600  0.78860600  0.21139400  1
  F  F2  1  0.78860600  0.21139400  0.78860600  1
  F  F3  1  0.78860600  0.21139400  0.21139400  1
  F  F4  1  0.21139400  0.78860600  0.78860600  1
  F  F5  1  0.21139400  0.21139400  0.78860600  1
loop_
_geom_bond_atom_site_label_1
_geom_bond_atom_site_label_2
_geom_bond_distance
_geom_bond_site_symmetry_2
Co0 F4 1.880053 1_544
Co0 F3 1.880053 1_455
Co0 F5 1.880054 1_554
Co0 F1 1.880054 1_445
Co0 F2 1.880054 1_454
Co0 F0 1.880054 1_545
F0 Tl0 2.566746 1_555
F0 K1 3.163052 1_554
F0 K0 3.163052 1_565
F0 K1 3.163052 1_455
F0 K0 3.163052 1_555
F1 Tl0 2.566746 1_555
F1 K1 3.163052 1_554
F1 K0 3.163052 1_565
F1 K1 3.163052 1_555
F1 K0 3.163052 1_655
F2 Tl0 2.566746 1_555
F2 K0 3.163052 1_556
F2 K1 3.163052 1_545
F2 K0 3.163052 1_655
F2 K1 3.163052 1_555
F3 Tl0 2.566746 1_555
F3 K0 3.163052 1_555
F3 K0 3.163052 1_655
F3 K1 3.163052 1_545
F3 K1 3.163052 1_554
F4 Tl0 2.566746 1_555
F4 K1 3.163052 1_455
F4 K1 3.163052 1_555
F4 K0 3.163052 1_565
F4 K0 3.163052 1_556
F5 Tl0 2.566746 1_555
F5 K0 3.163052 1_556
F5 K1 3.163052 1_545
F5 K0 3.163052 1_555
F5 K1 3.163052 1_455
