# generated using pymatgen
data_Ba3La3(Cu3O7)2
_symmetry_space_group_name_H-M   'P 1'
_cell_length_a   12.44956956
_cell_length_b   12.41840729
_cell_length_c   5.56129537
_cell_angle_alpha   77.39062383
_cell_angle_beta   76.76477812
_cell_angle_gamma   25.84459805
_symmetry_Int_Tables_number   1
_chemical_formula_structural   Ba3La3(Cu3O7)2
_chemical_formula_sum   'Ba3 La3 Cu6 O14'
_cell_volume   364.70526361
_cell_formula_units_Z   1
loop_
 _symmetry_equiv_pos_site_id
 _symmetry_equiv_pos_as_xyz
  1  'x, y, z'
loop_
 _atom_site_type_symbol
 _atom_site_label
 _atom_site_symmetry_multiplicity
 _atom_site_fract_x
 _atom_site_fract_y
 _atom_site_fract_z
 _atom_site_occupancy
  Ba  Ba0  1  0.41110500  0.41110500  0.58889500  1
  Ba  Ba1  1  0.90871500  0.90871500  0.09128500  1
  Ba  Ba2  1  0.09038600  0.09038600  0.90961400  1
  La  La0  1  0.74931300  0.74931300  0.25068700  1
  La  La1  1  0.24850200  0.24850200  0.75149800  1
  La  La2  1  0.59165700  0.59165700  0.40834300  1
  Cu  Cu0  1  0.32517700  0.32517700  0.17482300  1
  Cu  Cu1  1  0.82517700  0.82517700  0.67482300  1
  Cu  Cu2  1  0.17299300  0.17299300  0.32700700  1
  Cu  Cu3  1  0.67299300  0.67299300  0.82700700  1
  Cu  Cu4  1  0.00206800  0.00206800  0.49793200  1
  Cu  Cu5  1  0.50206800  0.50206800  0.99793200  1
  O  O0  1  0.42281400  0.42281400  0.07718600  1
  O  O1  1  0.92281400  0.92281400  0.57718600  1
  O  O2  1  0.08147500  0.08147500  0.41852500  1
  O  O3  1  0.58147500  0.58147500  0.91852500  1
  O  O4  1  0.06578500  0.56446600  0.93421500  1
  O  O5  1  0.56446600  0.06578500  0.43553400  1
  O  O6  1  0.06405200  0.56129700  0.43870300  1
  O  O7  1  0.56129700  0.06405200  0.93594800  1
  O  O8  1  0.92489100  0.43388500  0.07510900  1
  O  O9  1  0.43388500  0.92489100  0.56611500  1
  O  O10  1  0.92191200  0.43615100  0.56384900  1
  O  O11  1  0.43615100  0.92191200  0.07808800  1
  O  O12  1  0.29719300  0.72163400  0.70280700  1
  O  O13  1  0.72163400  0.29719300  0.27836600  1
loop_
_geom_bond_atom_site_label_1
_geom_bond_atom_site_label_2
_geom_bond_distance
_geom_bond_site_symmetry_2
Ba0 O0 2.794335 1_556
Ba0 O1 2.794335 1_545
Ba0 O1 2.794335 1_455
Ba0 O0 2.794335 1_555
Ba0 O13 2.845164 1_555
Ba0 O12 2.845164 1_555
Ba0 O4 2.979321 1_555
Ba0 O5 2.979321 1_555
Ba0 O7 3.051491 1_555
Ba0 O6 3.051491 1_555
Ba1 O1 2.800471 1_554
Ba1 O0 2.800471 1_565
Ba1 O0 2.800471 1_655
Ba1 O1 2.800471 1_555
Ba1 O4 2.943461 1_654
Ba1 O5 2.943461 1_565
Ba1 O7 3.023286 1_564
Ba1 O6 3.023286 1_655
Ba1 O12 3.261596 1_654
Ba1 O13 3.261596 1_565
Ba2 O3 2.788583 1_455
Ba2 O3 2.788583 1_545
Ba2 O2 2.788583 1_556
Ba2 O2 2.788583 1_555
Ba2 O8 2.883517 1_456
Ba2 O9 2.883517 1_545
Ba2 O11 2.926647 1_546
Ba2 O10 2.926647 1_455
Ba2 O12 2.939982 1_545
Ba2 O13 2.939982 1_456
La0 O5 2.489914 1_565
La0 O4 2.489914 1_654
La0 O6 2.498214 1_655
La0 O7 2.498214 1_564
La0 O9 2.521123 1_555
La0 O8 2.521123 1_555
La0 O10 2.547450 1_555
La0 O11 2.547450 1_555
La1 O7 2.492248 1_555
La1 O6 2.492248 1_555
La1 O4 2.493928 1_555
La1 O5 2.493928 1_555
La1 O8 2.562128 1_456
La1 O9 2.562128 1_545
La1 O11 2.622564 1_546
La1 O10 2.622564 1_455
La2 O13 2.545705 1_555
La2 O12 2.545705 1_555
La2 O3 2.791004 1_555
La2 O3 2.791004 1_554
La2 O2 2.791004 1_565
La2 O2 2.791004 1_655
La2 O9 2.813975 1_555
La2 O8 2.813975 1_555
La2 O10 2.826540 1_555
La2 O11 2.826540 1_555
Cu0 O7 1.963734 1_554
Cu0 O6 1.963734 1_555
Cu0 O4 2.004776 1_554
Cu0 O5 2.004776 1_555
Cu0 O0 2.303408 1_555
Cu1 O6 1.963734 1_655
Cu1 O7 1.963734 1_565
Cu1 O5 2.004776 1_565
Cu1 O4 2.004776 1_655
Cu1 O1 2.303408 1_555
Cu2 O10 1.947470 1_455
Cu2 O11 1.947470 1_545
Cu2 O9 1.996710 1_545
Cu2 O8 1.996710 1_455
Cu2 O2 2.159051 1_555
Cu3 O11 1.947470 1_556
Cu3 O10 1.947470 1_555
Cu3 O8 1.996710 1_556
Cu3 O9 1.996710 1_555
Cu3 O3 2.159051 1_555
Cu4 O1 1.869725 1_445
Cu4 O2 1.873334 1_555
Cu4 O12 2.019647 1_545
Cu4 O13 2.019647 1_455
Cu5 O0 1.869725 1_556
Cu5 O3 1.873334 1_555
Cu5 O12 2.019647 1_555
Cu5 O13 2.019647 1_556
