# generated using pymatgen
data_Na6TeP6(H3O5)6
_symmetry_space_group_name_H-M   'P 1'
_cell_length_a   11.77312963
_cell_length_b   11.77312963
_cell_length_c   12.17457274
_cell_angle_alpha   90.00000000
_cell_angle_beta   90.00000000
_cell_angle_gamma   119.99999768
_symmetry_Int_Tables_number   1
_chemical_formula_structural   Na6TeP6(H3O5)6
_chemical_formula_sum   'Na12 Te2 P12 H36 O60'
_cell_volume   1461.39703641
_cell_formula_units_Z   2
loop_
 _symmetry_equiv_pos_site_id
 _symmetry_equiv_pos_as_xyz
  1  'x, y, z'
loop_
 _atom_site_type_symbol
 _atom_site_label
 _atom_site_symmetry_multiplicity
 _atom_site_fract_x
 _atom_site_fract_y
 _atom_site_fract_z
 _atom_site_occupancy
  Na  Na0  1  0.71789530  0.84728489  0.75000000  1
  Na  Na1  1  0.28210470  0.15271511  0.25000000  1
  Na  Na2  1  0.12938959  0.28210470  0.75000000  1
  Na  Na3  1  0.87061041  0.71789530  0.25000000  1
  Na  Na4  1  0.15271511  0.87061041  0.75000000  1
  Na  Na5  1  0.84728489  0.12938959  0.25000000  1
  Na  Na6  1  0.42942521  0.55881464  0.75000000  1
  Na  Na7  1  0.57057479  0.44118536  0.25000000  1
  Na  Na8  1  0.12938943  0.57057479  0.75000000  1
  Na  Na9  1  0.87061057  0.42942521  0.25000000  1
  Na  Na10  1  0.44118536  0.87061057  0.75000000  1
  Na  Na11  1  0.55881464  0.12938943  0.25000000  1
  Te  Te0  1  -0.00000000  0.00000000  0.00000000  1
  Te  Te1  1  -0.00000000  0.00000000  0.50000000  1
  P  P0  1  0.49753272  0.74740478  0.99314654  1
  P  P1  1  0.50246728  0.25259522  0.00685346  1
  P  P2  1  0.24987206  0.50246728  0.99314654  1
  P  P3  1  0.50246728  0.25259522  0.49314654  1
  P  P4  1  0.75012794  0.49753272  0.00685346  1
  P  P5  1  0.49753272  0.74740478  0.50685346  1
  P  P6  1  0.25259522  0.75012794  0.99314654  1
  P  P7  1  0.75012794  0.49753272  0.49314654  1
  P  P8  1  0.74740478  0.24987206  0.00685346  1
  P  P9  1  0.24987206  0.50246728  0.50685346  1
  P  P10  1  0.74740478  0.24987206  0.49314654  1
  P  P11  1  0.25259522  0.75012794  0.50685346  1
  H  H0  1  0.92967554  0.15112973  0.92759169  1
  H  H1  1  0.07032446  0.84887027  0.07240831  1
  H  H2  1  0.22145419  0.07032446  0.92759169  1
  H  H3  1  0.07032446  0.84887027  0.42759169  1
  H  H4  1  0.77854581  0.92967554  0.07240831  1
  H  H5  1  0.92967554  0.15112973  0.57240831  1
  H  H6  1  0.84887027  0.77854581  0.92759169  1
  H  H7  1  0.77854581  0.92967554  0.42759169  1
  H  H8  1  0.15112973  0.22145419  0.07240831  1
  H  H9  1  0.22145419  0.07032446  0.57240831  1
  H  H10  1  0.15112973  0.22145419  0.42759169  1
  H  H11  1  0.84887027  0.77854581  0.57240831  1
  H  H12  1  0.71204261  0.08355109  0.81455460  1
  H  H13  1  0.28795739  0.91644891  0.18544540  1
  H  H14  1  0.37150847  0.28795739  0.81455460  1
  H  H15  1  0.28795739  0.91644891  0.31455460  1
  H  H16  1  0.62849153  0.71204261  0.18544540  1
  H  H17  1  0.71204261  0.08355109  0.68544540  1
  H  H18  1  0.91644891  0.62849153  0.81455460  1
  H  H19  1  0.62849153  0.71204261  0.31455460  1
  H  H20  1  0.08355109  0.37150847  0.18544540  1
  H  H21  1  0.37150847  0.28795739  0.68544540  1
  H  H22  1  0.08355109  0.37150847  0.31455460  1
  H  H23  1  0.91644891  0.62849153  0.68544540  1
  H  H24  1  0.90524969  0.30438778  0.81434808  1
  H  H25  1  0.09475031  0.69561222  0.18565192  1
  H  H26  1  0.39913809  0.09475031  0.81434808  1
  H  H27  1  0.09475031  0.69561222  0.31434808  1
  H  H28  1  0.60086191  0.90524969  0.18565192  1
  H  H29  1  0.90524969  0.30438778  0.68565192  1
  H  H30  1  0.69561222  0.60086191  0.81434808  1
  H  H31  1  0.60086191  0.90524969  0.31434808  1
  H  H32  1  0.30438778  0.39913809  0.18565192  1
  H  H33  1  0.39913809  0.09475031  0.68565192  1
  H  H34  1  0.30438778  0.39913809  0.31434808  1
  H  H35  1  0.69561222  0.60086191  0.68565192  1
  O  O0  1  0.80438840  0.19352325  0.92766937  1
  O  O1  1  0.19561160  0.80647675  0.07233063  1
  O  O2  1  0.38913486  0.19561160  0.92766937  1
  O  O3  1  0.19561160  0.80647675  0.42766937  1
  O  O4  1  0.61086514  0.80438840  0.07233063  1
  O  O5  1  0.80438840  0.19352325  0.57233063  1
  O  O6  1  0.80647675  0.61086514  0.92766937  1
  O  O7  1  0.61086514  0.80438840  0.42766937  1
  O  O8  1  0.19352325  0.38913486  0.07233063  1
  O  O9  1  0.38913486  0.19561160  0.57233063  1
  O  O10  1  0.19352325  0.38913486  0.42766937  1
  O  O11  1  0.80647675  0.61086514  0.57233063  1
  O  O12  1  0.67523553  0.02562019  0.75000000  1
  O  O13  1  0.32476447  0.97437981  0.25000000  1
  O  O14  1  0.35038466  0.32476447  0.75000000  1
  O  O15  1  0.64961534  0.67523553  0.25000000  1
  O  O16  1  0.97437981  0.64961534  0.75000000  1
  O  O17  1  0.02562019  0.35038466  0.25000000  1
  O  O18  1  0.80977310  0.40388764  0.97240516  1
  O  O19  1  0.19022690  0.59611236  0.02759484  1
  O  O20  1  0.59411455  0.19022690  0.97240516  1
  O  O21  1  0.19022690  0.59611236  0.47240516  1
  O  O22  1  0.40588545  0.80977310  0.02759484  1
  O  O23  1  0.80977310  0.40388764  0.52759484  1
  O  O24  1  0.59611236  0.40588545  0.97240516  1
  O  O25  1  0.40588545  0.80977310  0.47240516  1
  O  O26  1  0.40388764  0.59411455  0.02759484  1
  O  O27  1  0.59411455  0.19022690  0.52759484  1
  O  O28  1  0.40388764  0.59411455  0.47240516  1
  O  O29  1  0.59611236  0.40588545  0.52759484  1
  O  O30  1  0.00225178  0.13541603  0.90564940  1
  O  O31  1  0.99774822  0.86458397  0.09435060  1
  O  O32  1  0.13316425  0.99774822  0.90564940  1
  O  O33  1  0.99774822  0.86458397  0.40564940  1
  O  O34  1  0.86683575  0.00225178  0.09435060  1
  O  O35  1  0.00225178  0.13541603  0.59435060  1
  O  O36  1  0.86458397  0.86683575  0.90564940  1
  O  O37  1  0.86683575  0.00225178  0.40564940  1
  O  O38  1  0.13541603  0.13316425  0.09435060  1
  O  O39  1  0.13316425  0.99774822  0.59435060  1
  O  O40  1  0.13541603  0.13316425  0.40564940  1
  O  O41  1  0.86458397  0.86683575  0.59435060  1
  O  O42  1  0.96225915  0.34535751  0.75000000  1
  O  O43  1  0.03774085  0.65464249  0.25000000  1
  O  O44  1  0.38309836  0.03774085  0.75000000  1
  O  O45  1  0.61690164  0.96225915  0.25000000  1
  O  O46  1  0.65464249  0.61690164  0.75000000  1
  O  O47  1  0.34535751  0.38309836  0.25000000  1
  O  O48  1  0.52034916  0.75798138  0.87179834  1
  O  O49  1  0.47965084  0.24201862  0.12820166  1
  O  O50  1  0.23763222  0.47965084  0.87179834  1
  O  O51  1  0.47965084  0.24201862  0.37179834  1
  O  O52  1  0.76236778  0.52034916  0.12820166  1
  O  O53  1  0.52034916  0.75798138  0.62820166  1
  O  O54  1  0.24201862  0.76236778  0.87179834  1
  O  O55  1  0.76236778  0.52034916  0.37179834  1
  O  O56  1  0.75798138  0.23763222  0.12820166  1
  O  O57  1  0.23763222  0.47965084  0.62820166  1
  O  O58  1  0.75798138  0.23763222  0.37179834  1
  O  O59  1  0.24201862  0.76236778  0.62820166  1
loop_
_geom_bond_atom_site_label_1
_geom_bond_atom_site_label_2
_geom_bond_distance
_geom_bond_site_symmetry_2
Na0 O12 2.390585 1_565
Na0 O46 2.427235 1_555
Na0 O36 2.495765 1_555
Na0 O41 2.495765 1_555
Na0 O48 2.503605 1_555
Na0 O53 2.503605 1_555
Na1 O13 2.390585 1_545
Na1 O47 2.427235 1_555
Na1 O40 2.495765 1_555
Na1 O38 2.495765 1_555
Na1 O49 2.503605 1_555
Na1 O51 2.503605 1_555
Na2 O14 2.390585 1_555
Na2 O42 2.427235 1_455
Na2 O30 2.495765 1_555
Na2 O35 2.495765 1_555
Na2 O57 2.503605 1_555
Na2 O50 2.503605 1_555
Na3 O15 2.390585 1_555
Na3 O43 2.427235 1_655
Na3 O33 2.495765 1_555
Na3 O31 2.495765 1_555
Na3 O55 2.503605 1_555
Na3 O52 2.503605 1_555
Na4 O16 2.390586 1_455
Na4 O44 2.427235 1_565
Na4 O32 2.495764 1_555
Na4 O39 2.495764 1_555
Na4 O59 2.503605 1_555
Na4 O54 2.503605 1_555
Na5 O17 2.390586 1_655
Na5 O45 2.427235 1_545
Na5 O37 2.495764 1_555
Na5 O34 2.495764 1_555
Na5 O56 2.503605 1_555
Na5 O58 2.503605 1_555
Na6 O46 2.384305 1_555
Na6 O14 2.427876 1_555
Na6 O57 2.462025 1_555
Na6 O50 2.462025 1_555
Na6 O53 2.516513 1_555
Na6 O48 2.516513 1_555
Na7 O47 2.384305 1_555
Na7 O15 2.427876 1_555
Na7 O55 2.462025 1_555
Na7 O52 2.462025 1_555
Na7 O51 2.516513 1_555
Na7 O49 2.516513 1_555
Na8 O42 2.384305 1_455
Na8 O16 2.427876 1_455
Na8 O59 2.462025 1_555
Na8 O54 2.462025 1_555
Na8 O57 2.516513 1_555
Na8 O50 2.516513 1_555
Na9 O43 2.384305 1_655
Na9 O17 2.427876 1_655
Na9 O58 2.462025 1_555
Na9 O56 2.462025 1_555
Na9 O55 2.516513 1_555
Na9 O52 2.516513 1_555
Na10 O44 2.384305 1_565
Na10 O12 2.427876 1_565
Na10 O48 2.462025 1_555
Na10 O53 2.462025 1_555
Na10 O59 2.516513 1_555
Na10 O54 2.516513 1_555
Na11 O45 2.384305 1_545
Na11 O13 2.427876 1_545
Na11 O51 2.462025 1_555
Na11 O49 2.462025 1_555
Na11 O56 2.516513 1_555
Na11 O58 2.516513 1_555
H0 O30 0.996867 1_655
H1 O31 0.996867 1_455
H2 O32 0.996867 1_545
H3 O33 0.996867 1_455
H4 O34 0.996867 1_565
H5 O35 0.996867 1_655
H6 O36 0.996867 1_555
H7 O37 0.996867 1_565
H8 O38 0.996867 1_555
H9 O39 0.996867 1_545
H10 O40 0.996867 1_555
H11 O41 0.996867 1_555
H12 O12 0.987458 1_555
H13 O13 0.987458 1_555
H14 O14 0.987457 1_555
H15 O13 0.987458 1_555
H16 O15 0.987457 1_555
H17 O12 0.987458 1_555
H18 O16 0.987458 1_555
H19 O15 0.987457 1_555
H20 O17 0.987458 1_555
H21 O14 0.987457 1_555
H22 O17 0.987458 1_555
H23 O16 0.987458 1_555
H24 O42 0.986473 1_555
H25 O43 0.986473 1_555
H26 O44 0.986473 1_555
H27 O43 0.986473 1_555
H28 O45 0.986473 1_555
H29 O42 0.986473 1_555
H30 O46 0.986473 1_555
H31 O45 0.986473 1_555
H32 O47 0.986473 1_555
H33 O44 0.986473 1_555
H34 O47 0.986473 1_555
H35 O46 0.986473 1_555
O0 P8 1.504857 1_556
O1 P6 1.504857 1_554
O2 P1 1.504857 1_556
O3 P11 1.504857 1_555
O4 P0 1.504857 1_554
O5 P10 1.504857 1_555
O6 P4 1.504857 1_556
O7 P5 1.504857 1_555
O8 P2 1.504857 1_554
O9 P3 1.504857 1_555
O10 P9 1.504857 1_555
O11 P7 1.504857 1_555
O18 P4 1.630543 1_556
O18 P8 1.634469 1_556
O19 P2 1.630543 1_554
O19 P6 1.634469 1_554
O20 P8 1.630543 1_556
O20 P1 1.634469 1_556
O21 P9 1.630543 1_555
O21 P11 1.634469 1_555
O22 P6 1.630543 1_554
O22 P0 1.634469 1_554
O23 P7 1.630543 1_555
O23 P10 1.634469 1_555
O24 P1 1.630543 1_556
O24 P4 1.634469 1_556
O25 P11 1.630543 1_555
O25 P5 1.634469 1_555
O26 P0 1.630543 1_554
O26 P2 1.634469 1_554
O27 P10 1.630543 1_555
O27 P3 1.634469 1_555
O28 P5 1.630543 1_555
O28 P9 1.634469 1_555
O29 P3 1.630543 1_555
O29 P7 1.634469 1_555
O30 Te0 1.954379 1_556
O31 Te0 1.954379 1_665
O32 Te0 1.954379 1_566
O33 Te1 1.954379 1_665
O34 Te0 1.954379 1_655
O35 Te1 1.954379 1_555
O36 Te0 1.954379 1_666
O37 Te1 1.954379 1_655
O38 Te0 1.954379 1_555
O39 Te1 1.954379 1_565
O40 Te1 1.954379 1_555
O41 Te1 1.954379 1_665
O48 P0 1.495598 1_555
O49 P1 1.495598 1_555
O50 P2 1.495598 1_555
O51 P3 1.495598 1_555
O52 P4 1.495598 1_555
O53 P5 1.495598 1_555
O54 P6 1.495598 1_555
O55 P7 1.495598 1_555
O56 P8 1.495598 1_555
O57 P9 1.495598 1_555
O58 P10 1.495598 1_555
O59 P11 1.495598 1_555
