# generated using pymatgen
data_DyScRu2
_symmetry_space_group_name_H-M   'P 1'
_cell_length_a   4.67346529
_cell_length_b   4.67346529
_cell_length_c   4.67346529
_cell_angle_alpha   60.00000000
_cell_angle_beta   60.00000000
_cell_angle_gamma   60.00000000
_symmetry_Int_Tables_number   1
_chemical_formula_structural   DyScRu2
_chemical_formula_sum   'Dy1 Sc1 Ru2'
_cell_volume   72.17753856
_cell_formula_units_Z   1
loop_
 _symmetry_equiv_pos_site_id
 _symmetry_equiv_pos_as_xyz
  1  'x, y, z'
loop_
 _atom_site_type_symbol
 _atom_site_label
 _atom_site_symmetry_multiplicity
 _atom_site_fract_x
 _atom_site_fract_y
 _atom_site_fract_z
 _atom_site_occupancy
  Dy  Dy0  1  0.25000100  0.25000100  0.25000100  1
  Sc  Sc0  1  0.75000000  0.75000000  0.75000000  1
  Ru  Ru0  1  0.00000000  0.00000000  0.00000000  1
  Ru  Ru1  1  0.50000000  0.50000000  0.50000000  1
loop_
_geom_bond_atom_site_label_1
_geom_bond_atom_site_label_2
_geom_bond_distance
_geom_bond_site_symmetry_2
Dy0 Ru1 2.861890 1_555
Dy0 Ru0 2.861898 1_565
Dy0 Ru0 2.861898 1_655
Dy0 Ru0 2.861898 1_556
Dy0 Ru1 2.861905 1_455
Dy0 Ru1 2.861905 1_545
Dy0 Ru1 2.861905 1_554
Dy0 Ru0 2.861913 1_555
Ru0 Sc0 2.861901 1_454
Ru0 Sc0 2.861901 1_445
Ru0 Sc0 2.861901 1_544
Ru0 Sc0 2.861901 1_444
Ru1 Sc0 2.861901 1_545
Ru1 Sc0 2.861901 1_554
Ru1 Sc0 2.861901 1_455
Ru1 Sc0 2.861901 1_555
