# generated using pymatgen
data_Ba3TmIrRuO9
_symmetry_space_group_name_H-M   'P 1'
_cell_length_a   5.92643589
_cell_length_b   5.92643589
_cell_length_c   14.61042100
_cell_angle_alpha   90.00000000
_cell_angle_beta   90.00000000
_cell_angle_gamma   119.99999874
_symmetry_Int_Tables_number   1
_chemical_formula_structural   Ba3TmIrRuO9
_chemical_formula_sum   'Ba6 Tm2 Ir2 Ru2 O18'
_cell_volume   444.40664960
_cell_formula_units_Z   2
loop_
 _symmetry_equiv_pos_site_id
 _symmetry_equiv_pos_as_xyz
  1  'x, y, z'
loop_
 _atom_site_type_symbol
 _atom_site_label
 _atom_site_symmetry_multiplicity
 _atom_site_fract_x
 _atom_site_fract_y
 _atom_site_fract_z
 _atom_site_occupancy
  Ba  Ba0  1  0.66666700  0.33333300  0.40616800  1
  Ba  Ba1  1  0.33333300  0.66666700  0.59398700  1
  Ba  Ba2  1  0.33333300  0.66666700  0.90616800  1
  Ba  Ba3  1  0.66666700  0.33333300  0.09398700  1
  Ba  Ba4  1  0.00000000  0.00000000  0.74989800  1
  Ba  Ba5  1  0.00000000  0.00000000  0.24989800  1
  Tm  Tm0  1  0.00000000  0.00000000  0.50084400  1
  Tm  Tm1  1  0.00000000  0.00000000  0.00084400  1
  Ir  Ir0  1  0.66666700  0.33333300  0.66345800  1
  Ir  Ir1  1  0.33333300  0.66666700  0.16345800  1
  Ru  Ru0  1  0.33333300  0.66666700  0.33775700  1
  Ru  Ru1  1  0.66666700  0.33333300  0.83775700  1
  O  O0  1  0.50976900  0.01953800  0.75035800  1
  O  O1  1  0.50976900  0.49023100  0.75035800  1
  O  O2  1  0.98046200  0.49023100  0.75035800  1
  O  O3  1  0.49023100  0.98046200  0.25035800  1
  O  O4  1  0.49023100  0.50976900  0.25035800  1
  O  O5  1  0.01953800  0.50976900  0.25035800  1
  O  O6  1  0.82470100  0.64940200  0.91313500  1
  O  O7  1  0.82470100  0.17529900  0.91313500  1
  O  O8  1  0.35059800  0.17529900  0.91313500  1
  O  O9  1  0.17444400  0.34888700  0.08580200  1
  O  O10  1  0.17444400  0.82555600  0.08580200  1
  O  O11  1  0.65111300  0.82555600  0.08580200  1
  O  O12  1  0.17529900  0.35059800  0.41313500  1
  O  O13  1  0.17529900  0.82470100  0.41313500  1
  O  O14  1  0.64940200  0.82470100  0.41313500  1
  O  O15  1  0.82555600  0.65111300  0.58580200  1
  O  O16  1  0.82555600  0.17444400  0.58580200  1
  O  O17  1  0.34888700  0.17444400  0.58580200  1
loop_
_geom_bond_atom_site_label_1
_geom_bond_atom_site_label_2
_geom_bond_distance
_geom_bond_site_symmetry_2
Ba0 O5 2.908999 1_655
Ba0 O3 2.908999 1_545
Ba0 O4 2.909002 1_555
Ba0 O12 2.966287 1_655
Ba0 O14 2.966287 1_545
Ba0 O13 2.966289 1_655
Ba0 O13 2.966289 1_545
Ba0 O12 2.966293 1_555
Ba0 O14 2.966293 1_555
Ba0 O16 3.090022 1_555
Ba0 O15 3.090028 1_555
Ba0 O17 3.090028 1_555
Ba1 O0 2.915417 1_565
Ba1 O2 2.915417 1_455
Ba1 O1 2.915420 1_555
Ba1 O17 2.966704 1_555
Ba1 O15 2.966704 1_555
Ba1 O15 2.966704 1_455
Ba1 O17 2.966704 1_565
Ba1 O16 2.966704 1_565
Ba1 O16 2.966704 1_455
Ba1 O13 3.100550 1_555
Ba1 O14 3.100553 1_555
Ba1 O12 3.100553 1_555
Ba2 O0 2.908999 1_565
Ba2 O2 2.908999 1_455
Ba2 O1 2.909002 1_555
Ba2 O8 2.966287 1_565
Ba2 O6 2.966287 1_455
Ba2 O7 2.966289 1_565
Ba2 O7 2.966289 1_455
Ba2 O8 2.966293 1_555
Ba2 O6 2.966293 1_555
Ba2 O10 3.090022 1_556
Ba2 O11 3.090028 1_556
Ba2 O9 3.090028 1_556
Ba3 O3 2.915417 1_545
Ba3 O5 2.915417 1_655
Ba3 O4 2.915420 1_555
Ba3 O9 2.966704 1_555
Ba3 O11 2.966704 1_555
Ba3 O11 2.966704 1_545
Ba3 O9 2.966704 1_655
Ba3 O10 2.966704 1_655
Ba3 O10 2.966704 1_545
Ba3 O7 3.100550 1_554
Ba3 O6 3.100553 1_554
Ba3 O8 3.100553 1_554
Ba4 O0 2.964922 1_455
Ba4 O2 2.964922 1_455
Ba4 O2 2.964922 1_445
Ba4 O0 2.964922 1_555
Ba4 O1 2.964922 1_555
Ba4 O1 2.964922 1_445
Ba4 O7 2.987636 1_455
Ba4 O8 2.987636 1_555
Ba4 O6 2.987636 1_445
Ba4 O17 2.992401 1_555
Ba4 O15 2.992401 1_445
Ba4 O16 2.992404 1_455
Ba5 O5 2.964922 1_545
Ba5 O3 2.964922 1_545
Ba5 O5 2.964922 1_555
Ba5 O3 2.964922 1_445
Ba5 O4 2.964922 1_555
Ba5 O4 2.964922 1_445
Ba5 O13 2.987636 1_545
Ba5 O12 2.987636 1_555
Ba5 O14 2.987636 1_445
Ba5 O9 2.992401 1_555
Ba5 O11 2.992401 1_445
Ba5 O10 2.992404 1_545
Ir0 O16 1.986800 1_555
Ir0 O15 1.986809 1_555
Ir0 O17 1.986809 1_555
Ir0 O2 2.050811 1_555
Ir0 O0 2.050811 1_555
Ir0 O1 2.050815 1_555
Ir1 O10 1.986800 1_555
Ir1 O11 1.986809 1_555
Ir1 O9 1.986809 1_555
Ir1 O3 2.050811 1_555
Ir1 O5 2.050811 1_555
Ir1 O4 2.050815 1_555
O0 Ru1 2.055332 1_555
O1 Ru1 2.055336 1_555
O2 Ru1 2.055332 1_555
O3 Ru0 2.055332 1_555
O4 Ru0 2.055336 1_555
O5 Ru0 2.055332 1_555
O6 Ru1 1.960721 1_555
O6 Tm1 2.209091 1_666
O7 Ru1 1.960716 1_555
O7 Tm1 2.209091 1_656
O8 Ru1 1.960721 1_555
O8 Tm1 2.209091 1_556
O9 Tm1 2.178798 1_555
O10 Tm1 2.178802 1_565
O11 Tm1 2.178798 1_665
O12 Ru0 1.960721 1_555
O12 Tm0 2.209091 1_555
O13 Ru0 1.960716 1_555
O13 Tm0 2.209091 1_565
O14 Ru0 1.960721 1_555
O14 Tm0 2.209091 1_665
O15 Tm0 2.178798 1_665
O16 Tm0 2.178802 1_655
O17 Tm0 2.178798 1_555
