# generated using pymatgen
data_K2Li3B(P2O7)2
_symmetry_space_group_name_H-M   'P 1'
_cell_length_a   14.10716454
_cell_length_b   14.10716454
_cell_length_c   7.00045200
_cell_angle_alpha   90.00000000
_cell_angle_beta   90.00000000
_cell_angle_gamma   119.70923873
_symmetry_Int_Tables_number   1
_chemical_formula_structural   K2Li3B(P2O7)2
_chemical_formula_sum   'K8 Li12 B4 P16 O56'
_cell_volume   1210.04403815
_cell_formula_units_Z   4
loop_
 _symmetry_equiv_pos_site_id
 _symmetry_equiv_pos_as_xyz
  1  'x, y, z'
loop_
 _atom_site_type_symbol
 _atom_site_label
 _atom_site_symmetry_multiplicity
 _atom_site_fract_x
 _atom_site_fract_y
 _atom_site_fract_z
 _atom_site_occupancy
  K  K0  1  0.59198000  0.09198000  0.75000000  1
  K  K1  1  0.90802000  0.40802000  0.25000000  1
  K  K2  1  0.40802000  0.90802000  0.25000000  1
  K  K3  1  0.09198000  0.59198000  0.75000000  1
  K  K4  1  0.60897000  0.60897000  0.69826300  1
  K  K5  1  0.39103000  0.39103000  0.30173700  1
  K  K6  1  0.89103000  0.89103000  0.19826300  1
  K  K7  1  0.10897000  0.10897000  0.80173700  1
  Li  Li0  1  0.62964900  0.89866200  0.97417200  1
  Li  Li1  1  0.10133800  0.37035100  0.02582800  1
  Li  Li2  1  0.60133800  0.87035100  0.47417200  1
  Li  Li3  1  0.12964900  0.39866200  0.52582800  1
  Li  Li4  1  0.37035100  0.10133800  0.02582800  1
  Li  Li5  1  0.89866200  0.62964900  0.97417200  1
  Li  Li6  1  0.39866200  0.12964900  0.52582800  1
  Li  Li7  1  0.87035100  0.60133800  0.47417200  1
  Li  Li8  1  0.88215600  0.11784400  0.00000000  1
  Li  Li9  1  0.38215600  0.61784400  0.50000000  1
  Li  Li10  1  0.11784400  0.88215600  0.00000000  1
  Li  Li11  1  0.61784400  0.38215600  0.50000000  1
  B  B0  1  0.88114700  0.11885300  0.50000000  1
  B  B1  1  0.38114700  0.61885300  0.00000000  1
  B  B2  1  0.11885300  0.88114700  0.50000000  1
  B  B3  1  0.61885300  0.38114700  0.00000000  1
  P  P0  1  0.79990100  0.92366200  0.69706100  1
  P  P1  1  0.07633800  0.20009900  0.30293900  1
  P  P2  1  0.57633800  0.70009900  0.19706100  1
  P  P3  1  0.29990100  0.42366200  0.80293900  1
  P  P4  1  0.20009900  0.07633800  0.30293900  1
  P  P5  1  0.92366200  0.79990100  0.69706100  1
  P  P6  1  0.42366200  0.29990100  0.80293900  1
  P  P7  1  0.70009900  0.57633800  0.19706100  1
  P  P8  1  0.40415700  0.78444200  0.75723600  1
  P  P9  1  0.21555800  0.59584300  0.24276400  1
  P  P10  1  0.71555800  0.09584300  0.25723600  1
  P  P11  1  0.90415700  0.28444200  0.74276400  1
  P  P12  1  0.59584300  0.21555800  0.24276400  1
  P  P13  1  0.78444200  0.40415700  0.75723600  1
  P  P14  1  0.28444200  0.90415700  0.74276400  1
  P  P15  1  0.09584300  0.71555800  0.25723600  1
  O  O0  1  0.86459700  0.98345700  0.87002300  1
  O  O1  1  0.01654300  0.13540300  0.12997700  1
  O  O2  1  0.51654300  0.63540300  0.37002300  1
  O  O3  1  0.36459700  0.48345700  0.62997700  1
  O  O4  1  0.13540300  0.01654300  0.12997700  1
  O  O5  1  0.98345700  0.86459700  0.87002300  1
  O  O6  1  0.48345700  0.36459700  0.62997700  1
  O  O7  1  0.63540300  0.51654300  0.37002300  1
  O  O8  1  0.83264200  0.99861200  0.51325400  1
  O  O9  1  0.00138800  0.16735800  0.48674600  1
  O  O10  1  0.50138800  0.66735800  0.01325400  1
  O  O11  1  0.33264200  0.49861200  0.98674600  1
  O  O12  1  0.16735800  0.00138800  0.48674600  1
  O  O13  1  0.99861200  0.83264200  0.51325400  1
  O  O14  1  0.49861200  0.33264200  0.98674600  1
  O  O15  1  0.66735800  0.50138800  0.01325400  1
  O  O16  1  0.83127400  0.83127400  0.62920200  1
  O  O17  1  0.16872600  0.16872600  0.37079800  1
  O  O18  1  0.66872600  0.66872600  0.12920200  1
  O  O19  1  0.33127400  0.33127400  0.87079800  1
  O  O20  1  0.67644500  0.86181100  0.71650100  1
  O  O21  1  0.13818900  0.32355500  0.28349900  1
  O  O22  1  0.63818900  0.82355500  0.21650100  1
  O  O23  1  0.17644500  0.36181100  0.78349900  1
  O  O24  1  0.32355500  0.13818900  0.28349900  1
  O  O25  1  0.86181100  0.67644500  0.71650100  1
  O  O26  1  0.36181100  0.17644500  0.78349900  1
  O  O27  1  0.82355500  0.63818900  0.21650100  1
  O  O28  1  0.48139700  0.86840300  0.89761800  1
  O  O29  1  0.13159700  0.51860300  0.10238200  1
  O  O30  1  0.63159700  0.01860300  0.39761800  1
  O  O31  1  0.98139700  0.36840300  0.60238200  1
  O  O32  1  0.51860300  0.13159700  0.10238200  1
  O  O33  1  0.86840300  0.48139700  0.89761800  1
  O  O34  1  0.36840300  0.98139700  0.60238200  1
  O  O35  1  0.01860300  0.63159700  0.39761800  1
  O  O36  1  0.29181100  0.79181100  0.75000000  1
  O  O37  1  0.20818900  0.70818900  0.25000000  1
  O  O38  1  0.70818900  0.20818900  0.25000000  1
  O  O39  1  0.79181100  0.29181100  0.75000000  1
  O  O40  1  0.35556200  0.66196500  0.82690600  1
  O  O41  1  0.33803500  0.64443800  0.17309400  1
  O  O42  1  0.83803500  0.14443800  0.32690600  1
  O  O43  1  0.85556200  0.16196500  0.67309400  1
  O  O44  1  0.64443800  0.33803500  0.17309400  1
  O  O45  1  0.66196500  0.35556200  0.82690600  1
  O  O46  1  0.16196500  0.85556200  0.67309400  1
  O  O47  1  0.14443800  0.83803500  0.32690600  1
  O  O48  1  0.44317000  0.78902700  0.55390900  1
  O  O49  1  0.21097300  0.55683000  0.44609100  1
  O  O50  1  0.71097300  0.05683000  0.05390900  1
  O  O51  1  0.94317000  0.28902700  0.94609100  1
  O  O52  1  0.55683000  0.21097300  0.44609100  1
  O  O53  1  0.78902700  0.44317000  0.55390900  1
  O  O54  1  0.28902700  0.94317000  0.94609100  1
  O  O55  1  0.05683000  0.71097300  0.05390900  1
loop_
_geom_bond_atom_site_label_1
_geom_bond_atom_site_label_2
_geom_bond_distance
_geom_bond_site_symmetry_2
K0 O39 2.831429 1_555
K0 O32 2.835942 1_556
K0 O30 2.835942 1_555
K0 O52 2.900876 1_555
K0 O50 2.900876 1_556
K0 O28 2.927877 1_545
K0 O34 2.927877 1_545
K1 O38 2.831429 1_555
K1 O31 2.835942 1_555
K1 O33 2.835942 1_554
K1 O51 2.900876 1_554
K1 O53 2.900876 1_555
K1 O29 2.927877 1_655
K1 O35 2.927877 1_655
K2 O37 2.831429 1_555
K2 O34 2.835942 1_555
K2 O28 2.835942 1_554
K2 O54 2.900876 1_554
K2 O48 2.900876 1_555
K2 O32 2.927877 1_565
K2 O30 2.927877 1_565
K3 O36 2.831429 1_555
K3 O29 2.835942 1_556
K3 O35 2.835942 1_555
K3 O49 2.900876 1_555
K3 O55 2.900876 1_556
K3 O31 2.927877 1_455
K3 O33 2.927877 1_455
K4 O2 2.757011 1_555
K4 O7 2.757011 1_555
K4 O15 3.013847 1_556
K4 O10 3.013847 1_556
K4 O6 3.032808 1_555
K4 O3 3.032808 1_555
K4 O18 3.133332 1_556
K4 O16 3.186738 1_555
K4 O25 3.206180 1_555
K4 O20 3.206180 1_555
K5 O6 2.757011 1_555
K5 O3 2.757011 1_555
K5 O14 3.013847 1_554
K5 O11 3.013847 1_554
K5 O2 3.032808 1_555
K5 O7 3.032808 1_555
K5 O19 3.133332 1_554
K5 O17 3.186738 1_555
K5 O24 3.206180 1_555
K5 O21 3.206180 1_555
K6 O5 2.757011 1_554
K6 O0 2.757011 1_554
K6 O8 3.013847 1_555
K6 O13 3.013847 1_555
K6 O4 3.032808 1_665
K6 O1 3.032808 1_665
K6 O16 3.133332 1_555
K6 O18 3.186738 1_555
K6 O22 3.206180 1_555
K6 O27 3.206180 1_555
K7 O4 2.757011 1_556
K7 O1 2.757011 1_556
K7 O9 3.013847 1_555
K7 O12 3.013847 1_555
K7 O5 3.032808 1_445
K7 O0 3.032808 1_445
K7 O17 3.133332 1_555
K7 O19 3.186738 1_555
K7 O26 3.206180 1_555
K7 O23 3.206180 1_555
Li0 O28 1.989607 1_555
Li0 O50 2.017212 1_566
Li0 O22 2.035066 1_556
Li0 O20 2.073640 1_555
Li1 O29 1.989607 1_555
Li1 O51 2.017212 1_454
Li1 O23 2.035066 1_554
Li1 O21 2.073640 1_555
Li2 O30 1.989607 1_565
Li2 O48 2.017212 1_555
Li2 O20 2.035066 1_555
Li2 O22 2.073640 1_555
Li3 O31 1.989607 1_455
Li3 O49 2.017212 1_555
Li3 O21 2.035066 1_555
Li3 O23 2.073640 1_555
Li4 O32 1.989607 1_555
Li4 O54 2.017212 1_544
Li4 O26 2.035066 1_554
Li4 O24 2.073640 1_555
Li5 O33 1.989607 1_555
Li5 O55 2.017212 1_656
Li5 O27 2.035066 1_556
Li5 O25 2.073640 1_555
Li6 O34 1.989607 1_545
Li6 O52 2.017212 1_555
Li6 O24 2.035066 1_555
Li6 O26 2.073640 1_555
Li7 O35 1.989607 1_655
Li7 O53 2.017212 1_555
Li7 O25 2.035066 1_555
Li7 O27 2.073640 1_555
Li8 O0 2.004477 1_544
Li8 O1 2.004477 1_655
Li8 O51 2.157490 1_554
Li8 O50 2.157490 1_555
Li8 O42 2.448837 1_555
Li8 O43 2.448837 1_554
Li9 O3 2.004477 1_555
Li9 O2 2.004477 1_555
Li9 O49 2.157490 1_555
Li9 O48 2.157490 1_555
Li9 O41 2.448837 1_555
Li9 O40 2.448837 1_555
Li10 O4 2.004477 1_565
Li10 O5 2.004477 1_454
Li10 O54 2.157490 1_554
Li10 O55 2.157490 1_555
Li10 O47 2.448837 1_555
Li10 O46 2.448837 1_554
Li11 O6 2.004477 1_555
Li11 O7 2.004477 1_555
Li11 O52 2.157490 1_555
Li11 O53 2.157490 1_555
Li11 O44 2.448837 1_555
Li11 O45 2.448837 1_555
B0 O43 1.478530 1_555
B0 O42 1.478530 1_555
B0 O9 1.484469 1_655
B0 O8 1.484469 1_545
B1 O41 1.478530 1_555
B1 O40 1.478530 1_554
B1 O10 1.484469 1_555
B1 O11 1.484469 1_554
B2 O46 1.478530 1_555
B2 O47 1.478530 1_555
B2 O12 1.484469 1_565
B2 O13 1.484469 1_455
B3 O44 1.478530 1_555
B3 O45 1.478530 1_554
B3 O15 1.484469 1_555
B3 O14 1.484469 1_554
O0 P0 1.499167 1_555
O1 P1 1.499167 1_555
O2 P2 1.499167 1_555
O3 P3 1.499167 1_555
O4 P4 1.499167 1_555
O5 P5 1.499167 1_555
O6 P6 1.499167 1_555
O7 P7 1.499167 1_555
O8 P0 1.582056 1_555
O9 P1 1.582056 1_555
O10 P2 1.582056 1_555
O11 P3 1.582056 1_555
O12 P4 1.582056 1_555
O13 P5 1.582056 1_555
O14 P6 1.582056 1_555
O15 P7 1.582056 1_555
O16 P0 1.640725 1_555
O16 P5 1.640725 1_555
O17 P1 1.640725 1_555
O17 P4 1.640725 1_555
O18 P2 1.640725 1_555
O18 P7 1.640725 1_555
O19 P3 1.640725 1_555
O19 P6 1.640725 1_555
O20 P0 1.518820 1_555
O21 P1 1.518820 1_555
O22 P2 1.518820 1_555
O23 P3 1.518820 1_555
O24 P4 1.518820 1_555
O25 P5 1.518820 1_555
O26 P6 1.518820 1_555
O27 P7 1.518820 1_555
O28 P8 1.508889 1_555
O29 P9 1.508889 1_555
O30 P10 1.508889 1_555
O31 P11 1.508889 1_555
O32 P12 1.508889 1_555
O33 P13 1.508889 1_555
O34 P14 1.508889 1_555
O35 P15 1.508889 1_555
O36 P14 1.639676 1_555
O36 P8 1.639676 1_555
O37 P9 1.639676 1_555
O37 P15 1.639676 1_555
O38 P12 1.639676 1_555
O38 P10 1.639676 1_555
O39 P11 1.639676 1_555
O39 P13 1.639676 1_555
O40 P8 1.587164 1_555
O41 P9 1.587164 1_555
O42 P10 1.587164 1_555
O43 P11 1.587164 1_555
O44 P12 1.587164 1_555
O45 P13 1.587164 1_555
O46 P14 1.587164 1_555
O47 P15 1.587164 1_555
O48 P8 1.515853 1_555
O49 P9 1.515853 1_555
O50 P10 1.515853 1_555
O51 P11 1.515853 1_555
O52 P12 1.515853 1_555
O53 P13 1.515853 1_555
O54 P14 1.515853 1_555
O55 P15 1.515853 1_555
