# generated using pymatgen
data_SrLa3CoNiO8
_symmetry_space_group_name_H-M   'P 1'
_cell_length_a   6.92519358
_cell_length_b   6.92519358
_cell_length_c   5.46401000
_cell_angle_alpha   90.00000000
_cell_angle_beta   90.00000000
_cell_angle_gamma   133.09443213
_symmetry_Int_Tables_number   1
_chemical_formula_structural   SrLa3CoNiO8
_chemical_formula_sum   'Sr1 La3 Co1 Ni1 O8'
_cell_volume   191.35252731
_cell_formula_units_Z   1
loop_
 _symmetry_equiv_pos_site_id
 _symmetry_equiv_pos_as_xyz
  1  'x, y, z'
loop_
 _atom_site_type_symbol
 _atom_site_label
 _atom_site_symmetry_multiplicity
 _atom_site_fract_x
 _atom_site_fract_y
 _atom_site_fract_z
 _atom_site_occupancy
  Sr  Sr0  1  0.14183600  0.85816400  0.50000000  1
  La  La0  1  0.63783200  0.36216800  0.00000000  1
  La  La1  1  0.35863300  0.64136700  0.00000000  1
  La  La2  1  0.86228600  0.13771400  0.50000000  1
  Co  Co0  1  0.00333300  0.99666700  0.00000000  1
  Ni  Ni0  1  0.50183700  0.49816300  0.50000000  1
  O  O0  1  0.82140300  0.17859700  0.00000000  1
  O  O1  1  0.33175300  0.66824700  0.50000000  1
  O  O2  1  0.67905000  0.32095000  0.50000000  1
  O  O3  1  0.17398100  0.82601900  0.00000000  1
  O  O4  1  0.24759800  0.25357000  0.76032900  1
  O  O5  1  0.74643000  0.75240200  0.23967100  1
  O  O6  1  0.74643000  0.75240200  0.76032900  1
  O  O7  1  0.24759800  0.25357000  0.23967100  1
loop_
_geom_bond_atom_site_label_1
_geom_bond_atom_site_label_2
_geom_bond_distance
_geom_bond_site_symmetry_2
La0 O0 2.332487 1_555
La0 O5 2.608961 1_555
La0 O6 2.608961 1_554
La0 O7 2.608961 1_555
La0 O4 2.608961 1_554
La0 O2 2.781751 1_554
La0 O2 2.781751 1_555
La0 O3 2.794190 1_655
La0 O3 2.794190 1_545
La1 O3 2.346222 1_555
La1 O7 2.587823 1_555
La1 O5 2.587823 1_555
La1 O4 2.587823 1_554
La1 O6 2.587823 1_554
La1 O1 2.753271 1_555
La1 O1 2.753271 1_554
La1 O0 2.796481 1_565
La1 O0 2.796481 1_455
La2 O2 2.328230 1_555
La2 O4 2.619519 1_655
La2 O7 2.619519 1_655
La2 O6 2.619519 1_545
La2 O5 2.619519 1_545
La2 O0 2.780953 1_555
La2 O0 2.780953 1_556
La2 O1 2.783350 1_655
La2 O1 2.783350 1_545
Co0 O7 1.905104 1_565
Co0 O5 1.905104 1_455
Co0 O4 1.905104 1_564
Co0 O6 1.905104 1_454
Co0 O3 2.168285 1_555
Co0 O0 2.311636 1_465
Ni0 O4 1.979233 1_555
Ni0 O6 1.979233 1_555
Ni0 O7 1.979233 1_555
Ni0 O5 1.979233 1_555
Ni0 O1 2.161119 1_555
Ni0 O2 2.251701 1_555
O1 Sr0 2.413120 1_555
O2 Sr0 2.796447 1_655
O2 Sr0 2.796447 1_545
O3 Sr0 2.762368 1_554
O3 Sr0 2.762368 1_555
O4 Sr0 2.705078 1_545
O5 Sr0 2.705078 1_655
O6 Sr0 2.705078 1_655
O7 Sr0 2.705078 1_545
