# generated using pymatgen
data_Co3Se4(ClO5)2
_symmetry_space_group_name_H-M   'P 1'
_cell_length_a   7.51742849
_cell_length_b   9.21456556
_cell_length_c   9.21452470
_cell_angle_alpha   80.52463374
_cell_angle_beta   101.92566843
_cell_angle_gamma   78.07463139
_symmetry_Int_Tables_number   1
_chemical_formula_structural   Co3Se4(ClO5)2
_chemical_formula_sum   'Co6 Se8 Cl4 O20'
_cell_volume   596.53188178
_cell_formula_units_Z   2
loop_
 _symmetry_equiv_pos_site_id
 _symmetry_equiv_pos_as_xyz
  1  'x, y, z'
loop_
 _atom_site_type_symbol
 _atom_site_label
 _atom_site_symmetry_multiplicity
 _atom_site_fract_x
 _atom_site_fract_y
 _atom_site_fract_z
 _atom_site_occupancy
  Co  Co0  1  0.50000400  0.50000500  0.49999900  1
  Co  Co1  1  0.99999500  0.99999000  0.99999700  1
  Co  Co2  1  0.74974800  0.12173800  0.62184600  1
  Co  Co3  1  0.25028800  0.62185400  0.12174800  1
  Co  Co4  1  0.25025700  0.87825900  0.37816500  1
  Co  Co5  1  0.74977500  0.37816400  0.87826600  1
  Se  Se0  1  0.26869800  0.22742900  0.45193500  1
  Se  Se1  1  0.76871500  0.72739100  0.95196600  1
  Se  Se2  1  0.76874100  0.04801900  0.27260900  1
  Se  Se3  1  0.26866200  0.54808600  0.77256900  1
  Se  Se4  1  0.73130500  0.77256800  0.54805800  1
  Se  Se5  1  0.23124100  0.27260500  0.04800100  1
  Se  Se6  1  0.23125900  0.95198900  0.72739500  1
  Se  Se7  1  0.73129400  0.45194700  0.22742700  1
  Cl  Cl0  1  0.32909200  0.87368000  0.12633100  1
  Cl  Cl1  1  0.82887900  0.37376800  0.62622400  1
  Cl  Cl2  1  0.17111900  0.62621000  0.37378600  1
  Cl  Cl3  1  0.67090100  0.12631000  0.87369700  1
  O  O0  1  0.24998900  0.13943600  0.63930900  1
  O  O1  1  0.75001900  0.63930900  0.13943500  1
  O  O2  1  0.75001700  0.86056400  0.36069100  1
  O  O3  1  0.24999300  0.36069400  0.86056100  1
  O  O4  1  0.47995400  0.27358600  0.51058400  1
  O  O5  1  0.97986900  0.77335800  0.01047100  1
  O  O6  1  0.97989800  0.98950900  0.22662700  1
  O  O7  1  0.47991900  0.48943700  0.72641200  1
  O  O8  1  0.52005200  0.72641500  0.48941700  1
  O  O9  1  0.02009000  0.22660900  0.98949500  1
  O  O10  1  0.02010700  0.01048500  0.77337200  1
  O  O11  1  0.52005700  0.51061000  0.27360400  1
  O  O12  1  0.32970600  0.08130100  0.36791100  1
  O  O13  1  0.82938500  0.58148400  0.86764900  1
  O  O14  1  0.82937900  0.13234300  0.41851000  1
  O  O15  1  0.32971800  0.63208200  0.91871400  1
  O  O16  1  0.67029800  0.91870000  0.63208200  1
  O  O17  1  0.17064100  0.41849900  0.13233600  1
  O  O18  1  0.17062800  0.86765700  0.58149500  1
  O  O19  1  0.67030700  0.36791100  0.08130600  1
loop_
_geom_bond_atom_site_label_1
_geom_bond_atom_site_label_2
_geom_bond_distance
_geom_bond_site_symmetry_2
Co0 O11 2.110241 1_555
Co0 O8 2.110398 1_555
Co0 O4 2.110482 1_555
Co0 O7 2.110510 1_555
Co1 O9 2.112492 1_665
Co1 O10 2.112581 1_665
Co1 O6 2.112608 1_556
Co1 O5 2.112704 1_556
Co2 O16 2.071929 1_545
Co2 O14 2.075060 1_555
Co2 O4 2.148918 1_555
Co2 O10 2.150805 1_655
Co3 O15 2.071819 1_554
Co3 O17 2.075297 1_555
Co3 O11 2.148779 1_555
Co3 O5 2.151092 1_455
Co4 O12 2.071953 1_565
Co4 O18 2.075001 1_555
Co4 O8 2.148893 1_555
Co4 O6 2.150841 1_455
Co5 O19 2.072000 1_556
Co5 O13 2.074843 1_555
Co5 O7 2.149284 1_555
Co5 O9 2.150634 1_655
Cl0 Co1 2.450296 1_454
Cl0 Co3 2.515418 1_555
Cl0 Co4 2.515577 1_555
Cl1 Co0 2.448623 1_555
Cl1 Co2 2.518063 1_555
Cl1 Co5 2.518097 1_555
Cl2 Co0 2.448608 1_555
Cl2 Co3 2.518224 1_555
Cl2 Co4 2.518257 1_555
Cl3 Co1 2.450236 1_545
Cl3 Co2 2.515760 1_555
Cl3 Co5 2.515876 1_555
O0 Se0 1.828876 1_555
O0 Se6 1.829796 1_545
O1 Se7 1.828824 1_555
O1 Se1 1.829866 1_554
O2 Se4 1.828835 1_555
O2 Se2 1.829834 1_565
O3 Se3 1.828916 1_555
O3 Se5 1.829802 1_556
O4 Se0 1.730648 1_555
O5 Se1 1.728887 1_554
O6 Se2 1.728986 1_565
O7 Se3 1.730658 1_555
O8 Se4 1.730597 1_555
O9 Se5 1.728998 1_556
O10 Se6 1.728908 1_545
O11 Se7 1.730633 1_555
O12 Se0 1.690458 1_555
O13 Se1 1.690030 1_555
O14 Se2 1.689973 1_555
O15 Se3 1.690486 1_555
O16 Se4 1.690487 1_555
O17 Se5 1.689934 1_555
O18 Se6 1.690003 1_555
O19 Se7 1.690439 1_555
