# generated using pymatgen
data_Cs3SnPSe7
_symmetry_space_group_name_H-M   'P 1'
_cell_length_a   7.74486443
_cell_length_b   10.24949271
_cell_length_c   12.76308508
_cell_angle_alpha   79.53441541
_cell_angle_beta   88.32606609
_cell_angle_gamma   69.68035107
_symmetry_Int_Tables_number   1
_chemical_formula_structural   Cs3SnPSe7
_chemical_formula_sum   'Cs6 Sn2 P2 Se14'
_cell_volume   933.66155639
_cell_formula_units_Z   2
loop_
 _symmetry_equiv_pos_site_id
 _symmetry_equiv_pos_as_xyz
  1  'x, y, z'
loop_
 _atom_site_type_symbol
 _atom_site_label
 _atom_site_symmetry_multiplicity
 _atom_site_fract_x
 _atom_site_fract_y
 _atom_site_fract_z
 _atom_site_occupancy
  Cs  Cs0  1  0.66943400  0.61934000  0.40148200  1
  Cs  Cs1  1  0.33056600  0.38066000  0.59851800  1
  Cs  Cs2  1  0.62667000  0.68787000  0.02152300  1
  Cs  Cs3  1  0.37333000  0.31213000  0.97847700  1
  Cs  Cs4  1  0.05665200  0.97133600  0.79997400  1
  Cs  Cs5  1  0.94334800  0.02866400  0.20002600  1
  Sn  Sn0  1  0.59508800  0.92347900  0.63361100  1
  Sn  Sn1  1  0.40491200  0.07652100  0.36638900  1
  P  P0  1  0.21962200  0.55833800  0.22199900  1
  P  P1  1  0.78037800  0.44166200  0.77800100  1
  Se  Se0  1  0.32594900  0.90492100  0.52729400  1
  Se  Se1  1  0.67405100  0.09507900  0.47270600  1
  Se  Se2  1  0.53096400  0.01649500  0.80225100  1
  Se  Se3  1  0.46903600  0.98350500  0.19774900  1
  Se  Se4  1  0.92351900  0.73058800  0.62758300  1
  Se  Se5  1  0.07648100  0.26941200  0.37241700  1
  Se  Se6  1  0.03210800  0.42623400  0.20617500  1
  Se  Se7  1  0.96789200  0.57376600  0.79382500  1
  Se  Se8  1  0.14362200  0.66849300  0.35655100  1
  Se  Se9  1  0.85637800  0.33150700  0.64344900  1
  Se  Se10  1  0.13338400  0.69129700  0.06224300  1
  Se  Se11  1  0.86661500  0.30870300  0.93775700  1
  Se  Se12  1  0.50321900  0.40732400  0.23638100  1
  Se  Se13  1  0.49678100  0.59267600  0.76361900  1
loop_
_geom_bond_atom_site_label_1
_geom_bond_atom_site_label_2
_geom_bond_distance
_geom_bond_site_symmetry_2
Cs0 Se0 3.777960 1_555
Cs0 Se9 3.784406 1_555
Cs0 Se12 3.818962 1_555
Cs0 Se8 3.889353 1_655
Cs0 Se5 3.937245 1_655
Cs0 Se6 3.942454 1_655
Cs0 Se8 3.971554 1_555
Cs0 Se3 3.973456 1_555
Cs0 Se4 4.072546 1_555
Cs1 Se1 3.777960 1_555
Cs1 Se8 3.784406 1_555
Cs1 Se13 3.818962 1_555
Cs1 Se9 3.889353 1_455
Cs1 Se4 3.937245 1_455
Cs1 Se7 3.942454 1_455
Cs1 Se9 3.971554 1_555
Cs1 Se2 3.973456 1_555
Cs1 Se5 4.072546 1_555
Cs2 Se10 3.829423 1_555
Cs2 Se2 3.832663 1_564
Cs2 Se13 3.852376 1_554
Cs2 Se6 3.859219 1_655
Cs2 Se7 3.928970 1_554
Cs2 Se3 3.934101 1_555
Cs2 Se12 3.948914 1_555
Cs2 Se10 3.986731 1_655
Cs2 Se11 4.009623 1_554
Cs3 Se11 3.829415 1_555
Cs3 Se3 3.832663 1_546
Cs3 Se12 3.852376 1_556
Cs3 Se7 3.859219 1_455
Cs3 Se6 3.928970 1_556
Cs3 Se2 3.934101 1_555
Cs3 Se13 3.948914 1_555
Cs3 Se11 3.986738 1_455
Cs3 Se10 4.009624 1_556
Cs4 Se9 3.680982 1_465
Cs4 Se2 3.860253 1_565
Cs4 Se10 3.903527 1_556
Cs4 Se2 3.934516 1_465
Cs4 Se11 3.967192 1_465
Cs4 Se4 3.983083 1_455
Cs4 Se0 4.046727 1_555
Cs4 Se13 4.274485 1_555
Cs5 Se8 3.680982 1_645
Cs5 Se3 3.860253 1_545
Cs5 Se11 3.903527 1_554
Cs5 Se3 3.934516 1_645
Cs5 Se10 3.967191 1_645
Cs5 Se5 3.983083 1_655
Cs5 Se1 4.046727 1_555
Cs5 Se12 4.274485 1_555
P0 Se8 2.180382 1_555
P0 Se12 2.193837 1_555
P0 Se10 2.213282 1_555
P0 Se6 2.337808 1_555
P1 Se9 2.180382 1_555
P1 Se13 2.193837 1_555
P1 Se11 2.213282 1_555
P1 Se7 2.337808 1_555
Se0 Sn0 2.599372 1_555
Se0 Sn1 2.654495 1_565
Se1 Sn1 2.599372 1_555
Se1 Sn0 2.654495 1_545
Se2 Sn0 2.478390 1_545
Se3 Sn1 2.478390 1_565
Se4 Se7 2.371398 1_555
Se4 Sn0 2.633618 1_555
Se5 Se6 2.371398 1_555
Se5 Sn1 2.633618 1_555
