# generated using pymatgen
data_ThH2(SO4)3
_symmetry_space_group_name_H-M   'P 1'
_cell_length_a   5.79009200
_cell_length_b   9.23420924
_cell_length_c   9.80005057
_cell_angle_alpha   65.03082046
_cell_angle_beta   87.90115954
_cell_angle_gamma   89.00970674
_symmetry_Int_Tables_number   1
_chemical_formula_structural   ThH2(SO4)3
_chemical_formula_sum   'Th2 H4 S6 O24'
_cell_volume   474.68524649
_cell_formula_units_Z   2
loop_
 _symmetry_equiv_pos_site_id
 _symmetry_equiv_pos_as_xyz
  1  'x, y, z'
loop_
 _atom_site_type_symbol
 _atom_site_label
 _atom_site_symmetry_multiplicity
 _atom_site_fract_x
 _atom_site_fract_y
 _atom_site_fract_z
 _atom_site_occupancy
  Th  Th0  1  0.74710000  0.32090200  0.82709400  1
  Th  Th1  1  0.25290000  0.67909800  0.17290600  1
  H  H0  1  0.66576900  0.78659100  0.58443700  1
  H  H1  1  0.33423100  0.21340900  0.41556300  1
  H  H2  1  0.07875600  0.82158500  0.72560700  1
  H  H3  1  0.92124400  0.17841500  0.27439300  1
  S  S0  1  0.76396600  0.87809400  0.90899400  1
  S  S1  1  0.23603400  0.12190600  0.09100600  1
  S  S2  1  0.75355700  0.69465200  0.42229900  1
  S  S3  1  0.24644300  0.30534800  0.57770100  1
  S  S4  1  0.25357900  0.59702300  0.81577100  1
  S  S5  1  0.74642100  0.40297700  0.18422900  1
  O  O0  1  0.80936800  0.85873300  0.76938200  1
  O  O1  1  0.19063200  0.14126700  0.23061800  1
  O  O2  1  0.70598000  0.04544200  0.87867300  1
  O  O3  1  0.29402000  0.95455800  0.12132700  1
  O  O4  1  0.02783200  0.17220400  0.99583000  1
  O  O5  1  0.97216800  0.82779600  0.00417000  1
  O  O6  1  0.43365700  0.22411400  0.00182600  1
  O  O7  1  0.56634300  0.77588600  0.99817400  1
  O  O8  1  0.76658600  0.54206200  0.55272700  1
  O  O9  1  0.23341400  0.45793800  0.44727300  1
  O  O10  1  0.55707600  0.70659300  0.32820600  1
  O  O11  1  0.44292400  0.29340700  0.67179400  1
  O  O12  1  0.96871500  0.74035900  0.33073800  1
  O  O13  1  0.03128500  0.25964100  0.66926200  1
  O  O14  1  0.72171500  0.83066500  0.47849000  1
  O  O15  1  0.27828500  0.16933500  0.52151000  1
  O  O16  1  0.22937400  0.57796300  0.97128300  1
  O  O17  1  0.77062600  0.42203700  0.02871700  1
  O  O18  1  0.07155600  0.51138000  0.77926900  1
  O  O19  1  0.92844400  0.48862000  0.22073100  1
  O  O20  1  0.48441700  0.55540500  0.77622300  1
  O  O21  1  0.51558300  0.44459500  0.22377700  1
  O  O22  1  0.23425500  0.77818800  0.70785300  1
  O  O23  1  0.76574500  0.22181200  0.29214700  1
loop_
_geom_bond_atom_site_label_1
_geom_bond_atom_site_label_2
_geom_bond_distance
_geom_bond_site_symmetry_2
H0 O14 0.985785 1_555
H1 O15 0.985785 1_555
H2 O22 1.018047 1_555
H2 O0 1.670737 1_455
H3 O23 1.018047 1_555
H3 O1 1.670737 1_655
O0 S0 1.466834 1_555
O1 S1 1.466834 1_555
O2 S0 1.480119 1_545
O2 Th0 2.389347 1_555
O3 S1 1.480119 1_565
O3 Th1 2.389347 1_555
O4 S1 1.495399 1_556
O4 Th0 2.337686 1_455
O5 S0 1.495399 1_554
O5 Th1 2.337686 1_655
O6 S1 1.493854 1_555
O6 Th0 2.358203 1_554
O7 S0 1.493854 1_555
O7 Th1 2.358203 1_556
O8 S2 1.451806 1_555
O8 Th0 2.600560 1_555
O9 S3 1.451806 1_555
O9 Th1 2.600560 1_555
O10 S2 1.464018 1_555
O10 Th1 2.453704 1_555
O11 S3 1.464018 1_555
O11 Th0 2.453704 1_555
O12 S2 1.466911 1_555
O12 Th1 2.437241 1_655
O13 S3 1.466911 1_555
O13 Th0 2.437241 1_455
O14 S2 1.575811 1_555
O15 S3 1.575811 1_555
O16 S4 1.460144 1_555
O16 Th1 2.525274 1_556
O17 S5 1.460144 1_555
O17 Th0 2.525274 1_554
O18 S4 1.469503 1_555
O18 Th0 2.489263 1_455
O19 S5 1.469503 1_555
O19 Th1 2.489263 1_655
O20 S4 1.467783 1_555
O20 Th0 2.506251 1_555
O21 S5 1.467783 1_555
O21 Th1 2.506251 1_555
O22 S4 1.561458 1_555
O23 S5 1.561458 1_555
