# generated using pymatgen
data_CsEr2Cu3S5
_symmetry_space_group_name_H-M   'P 1'
_cell_length_a   7.29792233
_cell_length_b   7.29792233
_cell_length_c   16.70246800
_cell_angle_alpha   90.00000000
_cell_angle_beta   90.00000000
_cell_angle_gamma   148.63276701
_symmetry_Int_Tables_number   1
_chemical_formula_structural   CsEr2Cu3S5
_chemical_formula_sum   'Cs2 Er4 Cu6 S10'
_cell_volume   463.03915628
_cell_formula_units_Z   2
loop_
 _symmetry_equiv_pos_site_id
 _symmetry_equiv_pos_as_xyz
  1  'x, y, z'
loop_
 _atom_site_type_symbol
 _atom_site_label
 _atom_site_symmetry_multiplicity
 _atom_site_fract_x
 _atom_site_fract_y
 _atom_site_fract_z
 _atom_site_occupancy
  Cs  Cs0  1  0.93623000  0.06377000  0.25000000  1
  Cs  Cs1  1  0.06377000  0.93623000  0.75000000  1
  Er  Er0  1  0.19205600  0.80794400  0.40823200  1
  Er  Er1  1  0.19205600  0.80794400  0.09176800  1
  Er  Er2  1  0.80794400  0.19205600  0.59176800  1
  Er  Er3  1  0.80794400  0.19205600  0.90823200  1
  Cu  Cu0  1  0.58428300  0.41571700  0.53611000  1
  Cu  Cu1  1  0.58428300  0.41571700  0.96389000  1
  Cu  Cu2  1  0.41571700  0.58428300  0.03611000  1
  Cu  Cu3  1  0.34393100  0.65606900  0.75000000  1
  Cu  Cu4  1  0.65606900  0.34393100  0.25000000  1
  Cu  Cu5  1  0.41571700  0.58428300  0.46389000  1
  S  S0  1  0.82980400  0.17019600  0.06823500  1
  S  S1  1  0.43722700  0.56277300  0.89153200  1
  S  S2  1  0.43722700  0.56277300  0.60846800  1
  S  S3  1  0.56277300  0.43722700  0.39153200  1
  S  S4  1  0.23164000  0.76836000  0.25000000  1
  S  S5  1  0.76836000  0.23164000  0.75000000  1
  S  S6  1  0.56277300  0.43722700  0.10846800  1
  S  S7  1  0.17019600  0.82980400  0.93176500  1
  S  S8  1  0.17019600  0.82980400  0.56823500  1
  S  S9  1  0.82980400  0.17019600  0.43176500  1
loop_
_geom_bond_atom_site_label_1
_geom_bond_atom_site_label_2
_geom_bond_distance
_geom_bond_site_symmetry_2
Cs0 S0 3.384300 1_555
Cs0 S9 3.384300 1_555
Cs0 S4 3.486765 1_655
Cs0 S4 3.486765 1_545
Cs0 S3 3.555600 1_655
Cs0 S6 3.555600 1_545
Cs0 S3 3.555600 1_545
Cs0 S6 3.555600 1_655
Cs0 Cu4 3.665459 1_545
Cs0 Cu4 3.665459 1_655
Cs1 S8 3.384300 1_555
Cs1 S7 3.384300 1_555
Cs1 S5 3.486765 1_455
Cs1 S5 3.486765 1_565
Cs1 S1 3.555600 1_565
Cs1 S2 3.555600 1_455
Cs1 S2 3.555600 1_565
Cs1 S1 3.555600 1_455
Cs1 Cu3 3.665459 1_565
Cs1 Cu3 3.665459 1_455
Er0 S8 2.690042 1_555
Er0 S3 2.696356 1_455
Er0 S3 2.696356 1_565
Er0 S4 2.700768 1_555
Er0 S9 2.791665 1_455
Er0 S9 2.791665 1_565
Er1 S7 2.690042 1_554
Er1 S6 2.696356 1_455
Er1 S6 2.696356 1_565
Er1 S4 2.700768 1_555
Er1 S0 2.791665 1_455
Er1 S0 2.791665 1_565
Er2 S9 2.690042 1_555
Er2 S2 2.696356 1_545
Er2 S2 2.696356 1_655
Er2 S5 2.700768 1_555
Er2 S8 2.791665 1_545
Er2 S8 2.791665 1_655
Er3 S0 2.690042 1_556
Er3 S1 2.696356 1_545
Er3 S1 2.696356 1_655
Er3 S5 2.700768 1_555
Er3 S7 2.791665 1_545
Er3 S7 2.791665 1_655
Cu0 S8 2.374328 1_545
Cu0 S8 2.374328 1_655
Cu0 S2 2.393952 1_555
Cu0 S3 2.433654 1_555
Cu1 S7 2.374328 1_545
Cu1 S7 2.374328 1_655
Cu1 S1 2.393952 1_555
Cu1 S6 2.433654 1_556
Cu2 S0 2.374328 1_455
Cu2 S0 2.374328 1_565
Cu2 S6 2.393952 1_555
Cu2 S1 2.433654 1_554
Cu3 S5 2.240477 1_455
Cu3 S5 2.240477 1_565
Cu3 S1 2.703146 1_555
Cu3 S2 2.703146 1_555
Cu4 S4 2.240477 1_545
Cu4 S4 2.240477 1_655
Cu4 S6 2.703146 1_555
Cu4 S3 2.703146 1_555
Cu5 S9 2.374328 1_565
Cu5 S9 2.374328 1_455
Cu5 S3 2.393952 1_555
Cu5 S2 2.433654 1_555
