# generated using pymatgen
data_Zn2NiWO6
_symmetry_space_group_name_H-M   'P 1'
_cell_length_a   5.25020464
_cell_length_b   5.26477000
_cell_length_c   7.75528153
_cell_angle_alpha   89.99831130
_cell_angle_beta   89.16652393
_cell_angle_gamma   89.99973353
_symmetry_Int_Tables_number   1
_chemical_formula_structural   Zn2NiWO6
_chemical_formula_sum   'Zn4 Ni2 W2 O12'
_cell_volume   214.34198572
_cell_formula_units_Z   2
loop_
 _symmetry_equiv_pos_site_id
 _symmetry_equiv_pos_as_xyz
  1  'x, y, z'
loop_
 _atom_site_type_symbol
 _atom_site_label
 _atom_site_symmetry_multiplicity
 _atom_site_fract_x
 _atom_site_fract_y
 _atom_site_fract_z
 _atom_site_occupancy
  Zn  Zn0  1  0.00973700  0.03091000  0.25710600  1
  Zn  Zn1  1  0.49027800  0.53092600  0.24287000  1
  Zn  Zn2  1  0.99027500  0.96909700  0.74289600  1
  Zn  Zn3  1  0.50972500  0.46906900  0.75713200  1
  Ni  Ni0  1  0.99998600  0.49995500  0.49993500  1
  Ni  Ni1  1  0.49997400  0.00003500  0.00005400  1
  W  W0  1  0.49997700  0.00000900  0.50000100  1
  W  W1  1  0.00001000  0.49997400  0.00000300  1
  O  O0  1  0.65665400  0.31396400  0.42317500  1
  O  O1  1  0.84333800  0.81396400  0.07682300  1
  O  O2  1  0.34335800  0.68603700  0.57682500  1
  O  O3  1  0.15667200  0.18603600  0.92318000  1
  O  O4  1  0.18125600  0.16948700  0.55502200  1
  O  O5  1  0.31874900  0.66947100  0.94498300  1
  O  O6  1  0.81874100  0.83054000  0.44497300  1
  O  O7  1  0.68125700  0.33052100  0.05501700  1
  O  O8  1  0.11641900  0.41561600  0.23808600  1
  O  O9  1  0.38357200  0.91560000  0.26191500  1
  O  O10  1  0.61644000  0.08439700  0.73808800  1
  O  O11  1  0.88358500  0.58439100  0.76191600  1
loop_
_geom_bond_atom_site_label_1
_geom_bond_atom_site_label_2
_geom_bond_distance
_geom_bond_site_symmetry_2
Ni0 O4 2.031517 1_655
Ni0 O6 2.031772 1_555
Ni0 O0 2.143295 1_555
Ni0 O2 2.143984 1_655
Ni0 O8 2.158373 1_655
Ni0 O11 2.159391 1_555
Ni1 O7 2.031451 1_555
Ni1 O5 2.031840 1_544
Ni1 O3 2.143419 1_554
Ni1 O1 2.143626 1_545
Ni1 O9 2.158497 1_545
Ni1 O10 2.159271 1_554
O0 W0 1.936340 1_555
O0 Zn1 2.014568 1_555
O1 W1 1.936496 1_655
O1 Zn0 2.014505 1_665
O2 W0 1.936284 1_565
O2 Zn3 2.014575 1_555
O3 W1 1.936247 1_556
O3 Zn2 2.014485 1_445
O4 W0 1.938439 1_555
O4 Zn2 2.049082 1_445
O5 W1 1.938560 1_556
O5 Zn3 2.049016 1_555
O6 W0 1.938623 1_565
O6 Zn0 2.049027 1_665
O7 W1 1.938507 1_655
O7 Zn1 2.049043 1_555
O8 W1 2.003186 1_555
O8 Zn1 2.055427 1_555
O8 Zn0 2.106006 1_555
O9 W0 2.003285 1_565
O9 Zn0 2.055307 1_565
O9 Zn1 2.105893 1_555
O10 W0 2.003365 1_555
O10 Zn2 2.055291 1_545
O10 Zn3 2.105895 1_555
O11 W1 2.003310 1_656
O11 Zn3 2.055451 1_555
O11 Zn2 2.106017 1_555
