# generated using pymatgen
data_Mg16Al12In
_symmetry_space_group_name_H-M   'P 1'
_cell_length_a   9.15138744
_cell_length_b   9.15138744
_cell_length_c   9.15138744
_cell_angle_alpha   109.47122063
_cell_angle_beta   109.47122063
_cell_angle_gamma   109.47122063
_symmetry_Int_Tables_number   1
_chemical_formula_structural   Mg16Al12In
_chemical_formula_sum   'Mg16 Al12 In1'
_cell_volume   589.98223646
_cell_formula_units_Z   1
loop_
 _symmetry_equiv_pos_site_id
 _symmetry_equiv_pos_as_xyz
  1  'x, y, z'
loop_
 _atom_site_type_symbol
 _atom_site_label
 _atom_site_symmetry_multiplicity
 _atom_site_fract_x
 _atom_site_fract_y
 _atom_site_fract_z
 _atom_site_occupancy
  Mg  Mg0  1  0.31511900  0.60066000  0.00000000  1
  Mg  Mg1  1  0.60066000  0.31511900  0.00000000  1
  Mg  Mg2  1  0.34509600  0.00000000  0.00000000  1
  Mg  Mg3  1  0.00000000  0.34509600  0.00000000  1
  Mg  Mg4  1  0.39934000  0.39934000  0.71445800  1
  Mg  Mg5  1  0.68488100  0.28554200  0.68488100  1
  Mg  Mg6  1  0.28554200  0.68488100  0.68488100  1
  Mg  Mg7  1  0.65490400  0.65490400  0.65490400  1
  Mg  Mg8  1  0.31511900  0.00000000  0.60066000  1
  Mg  Mg9  1  0.00000000  0.31511900  0.60066000  1
  Mg  Mg10  1  0.39934000  0.71445800  0.39934000  1
  Mg  Mg11  1  0.71445800  0.39934000  0.39934000  1
  Mg  Mg12  1  0.00000000  0.00000000  0.34509600  1
  Mg  Mg13  1  0.60066000  0.00000000  0.31511900  1
  Mg  Mg14  1  0.00000000  0.60066000  0.31511900  1
  Mg  Mg15  1  0.68488100  0.68488100  0.28554200  1
  Al  Al0  1  0.62993500  0.81311300  0.00000000  1
  Al  Al1  1  0.81311300  0.62993500  0.00000000  1
  Al  Al2  1  0.18688700  0.18688700  0.81682300  1
  Al  Al3  1  0.00000000  0.62993500  0.81311300  1
  Al  Al4  1  0.62993500  0.00000000  0.81311300  1
  Al  Al5  1  0.00000000  0.81311300  0.62993500  1
  Al  Al6  1  0.81311300  0.00000000  0.62993500  1
  Al  Al7  1  0.37006500  0.18317700  0.37006500  1
  Al  Al8  1  0.18317700  0.37006500  0.37006500  1
  Al  Al9  1  0.81682300  0.18688700  0.18688700  1
  Al  Al10  1  0.18688700  0.81682300  0.18688700  1
  Al  Al11  1  0.37006500  0.37006500  0.18317700  1
  In  In0  1  0.00000000  0.00000000  0.00000000  1
loop_
_geom_bond_atom_site_label_1
_geom_bond_atom_site_label_2
_geom_bond_distance
_geom_bond_site_symmetry_2
Mg0 Mg3 3.047896 1_555
Mg0 Mg15 3.145860 1_555
Mg0 Mg4 3.145863 1_554
Mg0 Mg9 3.175520 1_554
Mg0 Mg13 3.175520 1_565
Mg0 Mg10 3.175521 1_555
Mg0 Mg6 3.175521 1_554
Mg1 Mg2 3.047896 1_555
Mg1 Mg15 3.145860 1_555
Mg1 Mg4 3.145863 1_554
Mg1 Mg14 3.175520 1_655
Mg1 Mg8 3.175520 1_554
Mg1 Mg11 3.175521 1_555
Mg1 Mg5 3.175521 1_554
Mg2 Mg6 3.047900 1_544
Mg3 Mg5 3.047900 1_454
Mg4 Mg7 3.047890 1_555
Mg4 Mg5 3.175512 1_555
Mg4 Mg6 3.175512 1_555
Mg4 Mg8 3.175521 1_555
Mg4 Mg9 3.175521 1_555
Mg5 Mg8 3.145860 1_555
Mg5 Mg9 3.175521 1_655
Mg6 Mg9 3.145860 1_555
Mg6 Mg8 3.175521 1_565
Mg10 Mg7 3.047890 1_555
Mg10 Mg8 3.145863 1_565
Mg10 Mg13 3.145863 1_565
Mg10 Mg6 3.175512 1_555
Mg10 Mg15 3.175512 1_555
Mg10 Mg14 3.175521 1_555
Mg11 Mg7 3.047890 1_555
Mg11 Mg9 3.145863 1_655
Mg11 Mg14 3.145863 1_655
Mg11 Mg15 3.175512 1_555
Mg11 Mg5 3.175512 1_555
Mg11 Mg13 3.175521 1_555
Mg12 Mg9 3.047896 1_555
Mg12 Mg8 3.047896 1_555
Mg12 Mg15 3.047900 1_445
Mg13 Mg2 3.047896 1_555
Mg13 Mg5 3.145860 1_555
Mg13 Mg9 3.175520 1_655
Mg13 Mg15 3.175521 1_545
Mg14 Mg3 3.047896 1_555
Mg14 Mg6 3.145860 1_555
Mg14 Mg8 3.175520 1_565
Mg14 Mg15 3.175521 1_455
Al0 Al1 2.737440 1_555
Al0 Al4 2.792868 1_564
Al0 Al9 2.792868 1_565
Al0 Mg0 2.888946 1_555
Al0 Mg6 2.974127 1_554
Al0 Mg13 2.974133 1_565
Al0 Mg12 3.126570 1_665
Al0 Mg7 3.126570 1_554
Al0 Mg4 3.165432 1_554
Al0 Mg15 3.165438 1_555
Al0 In0 3.245428 1_665
Al1 Al3 2.792868 1_654
Al1 Al10 2.792868 1_655
Al1 Mg1 2.888946 1_555
Al1 Mg5 2.974127 1_554
Al1 Mg14 2.974133 1_655
Al1 Mg7 3.126570 1_554
Al1 Mg12 3.126570 1_665
Al1 Mg4 3.165432 1_554
Al1 Mg15 3.165438 1_555
Al1 In0 3.245428 1_665
Al2 Al5 2.792868 1_545
Al2 Al6 2.792868 1_455
Al2 Mg4 2.888960 1_555
Al2 Mg9 2.974138 1_555
Al2 Mg8 2.974138 1_555
Al2 Mg3 3.126565 1_556
Al2 Mg2 3.126565 1_556
Al2 Mg0 3.165430 1_556
Al2 Mg1 3.165430 1_556
Al2 In0 3.245420 1_556
Al3 Al5 2.737440 1_555
Al3 Mg9 2.888946 1_555
Al3 Mg5 2.974127 1_455
Al3 Mg0 2.974133 1_556
Al3 Mg7 3.126570 1_455
Al3 Mg2 3.126570 1_566
Al3 Mg11 3.165432 1_455
Al3 Mg6 3.165438 1_555
Al3 In0 3.245428 1_566
Al4 Al6 2.737440 1_555
Al4 Al9 2.792868 1_556
Al4 Mg8 2.888946 1_555
Al4 Mg6 2.974127 1_545
Al4 Mg1 2.974133 1_556
Al4 Mg3 3.126570 1_656
Al4 Mg7 3.126570 1_545
Al4 Mg10 3.165432 1_545
Al4 Mg5 3.165438 1_555
Al4 In0 3.245428 1_656
Al5 Al6 2.792868 1_465
Al5 Mg14 2.888946 1_555
Al5 Mg15 2.974127 1_455
Al5 Mg8 2.974133 1_565
Al5 Mg2 3.126570 1_566
Al5 Mg7 3.126570 1_455
Al5 Mg11 3.165432 1_455
Al5 Mg6 3.165438 1_555
Al5 In0 3.245428 1_566
Al6 Mg13 2.888946 1_555
Al6 Mg15 2.974127 1_545
Al6 Mg9 2.974133 1_655
Al6 Mg3 3.126570 1_656
Al6 Mg7 3.126570 1_545
Al6 Mg10 3.165432 1_545
Al6 Mg5 3.165438 1_555
Al6 In0 3.245428 1_656
Al7 Al8 2.792883 1_555
Al7 Mg5 2.888939 1_555
Al7 Mg4 2.974128 1_555
Al7 Mg11 2.974128 1_555
Al7 Mg12 3.126569 1_555
Al7 Mg2 3.126569 1_555
Al7 Mg8 3.165424 1_555
Al7 Mg13 3.165424 1_555
Al7 In0 3.245429 1_555
Al8 Al9 2.737425 1_455
Al8 Mg6 2.888939 1_555
Al8 Mg4 2.974128 1_555
Al8 Mg10 2.974128 1_555
Al8 Mg12 3.126569 1_555
Al8 Mg3 3.126569 1_555
Al8 Mg9 3.165424 1_555
Al8 Mg14 3.165424 1_555
Al8 In0 3.245429 1_555
Al9 Mg11 2.888960 1_555
Al9 Mg13 2.974138 1_555
Al9 Mg1 2.974138 1_555
Al9 Mg12 3.126565 1_655
Al9 Mg3 3.126565 1_655
Al9 Mg14 3.165430 1_655
Al9 Mg9 3.165430 1_655
Al9 In0 3.245420 1_655
Al10 Al7 2.737425 1_565
Al10 Al3 2.792868 1_554
Al10 Mg10 2.888960 1_555
Al10 Mg14 2.974138 1_555
Al10 Mg0 2.974138 1_555
Al10 Mg12 3.126565 1_565
Al10 Mg2 3.126565 1_565
Al10 Mg13 3.165430 1_565
Al10 Mg8 3.165430 1_565
Al10 In0 3.245420 1_565
Al11 Al2 2.737425 1_554
Al11 Al8 2.792883 1_555
Al11 Al7 2.792883 1_555
Al11 Mg15 2.888939 1_555
Al11 Mg11 2.974128 1_555
Al11 Mg10 2.974128 1_555
Al11 Mg2 3.126569 1_555
Al11 Mg3 3.126569 1_555
Al11 Mg1 3.165424 1_555
Al11 Mg0 3.165424 1_555
Al11 In0 3.245429 1_555
In0 Mg7 3.158107 1_444
In0 Mg2 3.158107 1_555
In0 Mg12 3.158107 1_555
In0 Mg3 3.158107 1_555
