# generated using pymatgen
data_CaLaFeCoO6
_symmetry_space_group_name_H-M   'P 1'
_cell_length_a   5.45918000
_cell_length_b   5.47893322
_cell_length_c   7.78523389
_cell_angle_alpha   90.19509220
_cell_angle_beta   90.00000000
_cell_angle_gamma   90.00000000
_symmetry_Int_Tables_number   1
_chemical_formula_structural   CaLaFeCoO6
_chemical_formula_sum   'Ca2 La2 Fe2 Co2 O12'
_cell_volume   232.85875341
_cell_formula_units_Z   2
loop_
 _symmetry_equiv_pos_site_id
 _symmetry_equiv_pos_as_xyz
  1  'x, y, z'
loop_
 _atom_site_type_symbol
 _atom_site_label
 _atom_site_symmetry_multiplicity
 _atom_site_fract_x
 _atom_site_fract_y
 _atom_site_fract_z
 _atom_site_occupancy
  Ca  Ca0  1  0.53616500  0.50895900  0.25030400  1
  Ca  Ca1  1  0.96383500  0.00895900  0.75030400  1
  La  La0  1  0.02623700  0.99496900  0.24929800  1
  La  La1  1  0.47376300  0.49496900  0.74929800  1
  Fe  Fe0  1  0.50004800  0.00027400  0.00033400  1
  Fe  Fe1  1  0.99995200  0.50027400  0.50033400  1
  Co  Co0  1  0.49925600  0.99986900  0.49972900  1
  Co  Co1  1  0.00074400  0.49986900  0.99972900  1
  O  O0  1  0.01103600  0.57751500  0.74855000  1
  O  O1  1  0.22071500  0.21520800  0.95802900  1
  O  O2  1  0.22595700  0.20776500  0.54035300  1
  O  O3  1  0.27404300  0.70776500  0.04035300  1
  O  O4  1  0.27928500  0.71520800  0.45802900  1
  O  O5  1  0.48896400  0.07751500  0.24854900  1
  O  O6  1  0.51487400  0.93102700  0.75185700  1
  O  O7  1  0.72425000  0.27854400  0.53843800  1
  O  O8  1  0.73086000  0.28587000  0.96311000  1
  O  O9  1  0.76914000  0.78587000  0.46311000  1
  O  O10  1  0.77575000  0.77854400  0.03843800  1
  O  O11  1  0.98512600  0.43102700  0.25185700  1
loop_
_geom_bond_atom_site_label_1
_geom_bond_atom_site_label_2
_geom_bond_distance
_geom_bond_site_symmetry_2
Ca0 O5 2.377849 1_555
Ca0 O4 2.417934 1_555
Ca0 O3 2.432674 1_555
Ca0 O11 2.487910 1_555
Ca0 O10 2.574790 1_555
Ca0 O9 2.578201 1_555
Ca0 O8 2.757573 1_554
Ca0 O7 2.774745 1_555
Ca1 O0 2.377849 1_645
Ca1 O1 2.417934 1_655
Ca1 O2 2.432674 1_655
Ca1 O6 2.487910 1_545
Ca1 O7 2.574790 1_555
Ca1 O8 2.578201 1_555
Ca1 O9 2.757573 1_545
Ca1 O10 2.774745 1_546
La0 O11 2.399666 1_465
La0 O10 2.440814 1_455
La0 O9 2.462968 1_455
La0 O5 2.566286 1_565
La0 O4 2.629727 1_555
La0 O3 2.633423 1_555
La0 O2 2.768490 1_565
La0 O1 2.782783 1_564
La0 O5 2.967742 1_465
La0 O11 3.098073 1_455
La0 O8 3.182584 1_464
La0 O7 3.189846 1_465
La1 O6 2.399666 1_555
La1 O7 2.440814 1_555
La1 O8 2.462968 1_555
La1 O0 2.566286 1_555
La1 O1 2.629727 1_555
La1 O2 2.633423 1_555
La1 O3 2.768490 1_556
La1 O4 2.782783 1_555
La1 O0 2.967742 1_655
La1 O6 3.098073 1_545
La1 O9 3.182584 1_555
La1 O10 3.189846 1_556
Fe0 O1 1.955323 1_554
Fe0 O10 1.957459 1_545
Fe0 O6 1.971700 1_544
Fe0 O5 1.977727 1_555
Fe0 O8 2.030581 1_554
Fe0 O3 2.047238 1_545
Fe1 O4 1.955323 1_655
Fe1 O7 1.957459 1_555
Fe1 O11 1.971700 1_555
Fe1 O0 1.977735 1_655
Fe1 O9 2.030581 1_555
Fe1 O2 2.047238 1_655
Co0 O2 1.902901 1_565
Co0 O9 1.903804 1_555
Co0 O7 1.981819 1_565
Co0 O4 1.994113 1_555
Co0 O6 2.001863 1_555
Co0 O5 2.003438 1_565
Co1 O3 1.902901 1_556
Co1 O8 1.903804 1_455
Co1 O10 1.981819 1_456
Co1 O1 1.994113 1_555
Co1 O11 2.001863 1_456
Co1 O0 2.003430 1_555
