# generated using pymatgen
data_Sc2W5(SeO4)3
_symmetry_space_group_name_H-M   'P 1'
_cell_length_a   7.95801376
_cell_length_b   10.35317711
_cell_length_c   10.85587883
_cell_angle_alpha   102.00836621
_cell_angle_beta   94.05279987
_cell_angle_gamma   69.22163554
_symmetry_Int_Tables_number   1
_chemical_formula_structural   Sc2W5(SeO4)3
_chemical_formula_sum   'Sc4 W10 Se6 O24'
_cell_volume   817.94588368
_cell_formula_units_Z   2
loop_
 _symmetry_equiv_pos_site_id
 _symmetry_equiv_pos_as_xyz
  1  'x, y, z'
loop_
 _atom_site_type_symbol
 _atom_site_label
 _atom_site_symmetry_multiplicity
 _atom_site_fract_x
 _atom_site_fract_y
 _atom_site_fract_z
 _atom_site_occupancy
  Sc  Sc0  1  0.69960500  0.72609800  0.58530200  1
  Sc  Sc1  1  0.44628000  0.38719200  0.77366100  1
  Sc  Sc2  1  0.35265600  0.39823000  0.23911200  1
  Sc  Sc3  1  0.10278000  0.03138500  0.89578800  1
  W  W0  1  0.77359000  0.89148900  0.17861400  1
  W  W1  1  0.15479500  0.74720700  0.00247400  1
  W  W2  1  0.09105200  0.82914500  0.36770100  1
  W  W3  1  0.71160800  0.97187900  0.46631100  1
  W  W4  1  0.00398000  0.50358800  0.07044200  1
  W  W5  1  0.02980300  0.83250000  0.65039600  1
  W  W6  1  0.75464100  0.28689000  0.36016300  1
  W  W7  1  0.96904700  0.53002300  0.79155500  1
  W  W8  1  0.84685100  0.22022600  0.64829600  1
  W  W9  1  0.74995900  0.92277000  0.89303000  1
  Se  Se0  1  0.36299900  0.05236600  0.67874200  1
  Se  Se1  1  0.47726300  0.73163800  0.81193000  1
  Se  Se2  1  0.46657900  0.70885800  0.30246300  1
  Se  Se3  1  0.20094500  0.10833800  0.22102700  1
  Se  Se4  1  0.69709600  0.28928000  0.03642800  1
  Se  Se5  1  0.15989800  0.46020300  0.51614900  1
  O  O0  1  0.15019300  0.13312700  0.06778200  1
  O  O1  1  0.60689100  0.95619300  0.64685900  1
  O  O2  1  0.35580800  0.02750900  0.83057900  1
  O  O3  1  0.20542600  0.53188800  0.39959400  1
  O  O4  1  0.19422800  0.80643000  0.83133300  1
  O  O5  1  0.02538300  0.38771100  0.90570100  1
  O  O6  1  0.49984400  0.33655900  0.95484700  1
  O  O7  1  0.35801700  0.22151100  0.70106200  1
  O  O8  1  0.17657200  0.80429800  0.18532700  1
  O  O9  1  0.64774600  0.65451300  0.41243000  1
  O  O10  1  0.53114300  0.55627600  0.81339400  1
  O  O11  1  0.23065600  0.26574200  0.28524400  1
  O  O12  1  0.33487200  0.46266500  0.61434200  1
  O  O13  1  0.77777100  0.36524000  0.54202300  1
  O  O14  1  0.89664900  0.67804000  0.17042100  1
  O  O15  1  0.74609600  0.71732800  0.78639000  1
  O  O16  1  0.99243100  0.61767100  0.61289400  1
  O  O17  1  0.62099700  0.24864900  0.16852000  1
  O  O18  1  0.60172800  0.03233700  0.30839200  1
  O  O19  1  0.45037300  0.74238300  0.65425700  1
  O  O20  1  0.01141500  0.04945200  0.71871200  1
  O  O21  1  0.46463900  0.53956000  0.23016500  1
  O  O22  1  0.81270500  0.11859100  0.95055000  1
  O  O23  1  0.99279100  0.13031900  0.27939900  1
loop_
_geom_bond_atom_site_label_1
_geom_bond_atom_site_label_2
_geom_bond_distance
_geom_bond_site_symmetry_2
O0 Se3 1.733703 1_555
O0 Sc3 2.025382 1_554
O1 Se0 1.859754 1_565
O1 Sc0 2.196839 1_555
O1 W3 2.240938 1_555
O2 Se0 1.728227 1_555
O2 Sc3 2.165561 1_555
O3 Se5 1.711556 1_555
O3 Sc2 2.111362 1_555
O4 Se1 2.116362 1_555
O4 W1 2.149210 1_556
O4 Sc3 2.152851 1_565
O4 W5 2.291274 1_555
O5 W4 1.916241 1_556
O5 W7 2.029746 1_455
O6 Se4 1.710768 1_556
O6 Sc1 2.115967 1_555
O7 Se0 1.703666 1_555
O7 Sc1 2.066617 1_555
O8 W1 1.963562 1_555
O8 W2 2.074462 1_555
O9 Se2 1.811340 1_555
O9 Sc0 1.941725 1_555
O10 Se1 1.714366 1_555
O10 Sc1 2.046951 1_555
O11 Se3 1.724804 1_555
O11 Sc2 2.091490 1_555
O12 Se5 1.697032 1_555
O12 Sc1 2.059614 1_555
O13 W8 1.983122 1_555
O13 W6 1.994426 1_555
O14 W4 1.841322 1_655
O14 W0 2.060473 1_555
O15 W7 2.121705 1_555
O15 Se1 2.125470 1_555
O15 Sc0 2.203415 1_555
O15 W9 2.209511 1_555
O16 Se5 1.865695 1_655
O16 Sc0 2.228332 1_555
O16 W5 2.297068 1_655
O16 W7 2.350104 1_555
O17 Se4 1.776088 1_555
O17 Sc2 2.221904 1_555
O17 W6 2.293339 1_555
O18 W3 1.985368 1_545
O18 W0 1.996073 1_545
O19 Se1 1.731641 1_555
O19 Sc0 2.107773 1_555
O20 Sc3 2.028423 1_555
O20 W8 2.050239 1_455
O20 W5 2.169231 1_545
O21 Se2 1.770171 1_555
O21 Sc2 1.985231 1_555
O22 Se4 1.766534 1_556
O22 W9 2.212891 1_545
O22 Sc3 2.233669 1_655
O23 Se3 1.737299 1_655
O23 W6 2.109964 1_555
