# generated using pymatgen
data_CsSb(SO4)2
_symmetry_space_group_name_H-M   'P 1'
_cell_length_a   5.33639500
_cell_length_b   9.82409600
_cell_length_c   15.45447700
_cell_angle_alpha   90.00000000
_cell_angle_beta   90.00000000
_cell_angle_gamma   90.00000000
_symmetry_Int_Tables_number   1
_chemical_formula_structural   CsSb(SO4)2
_chemical_formula_sum   'Cs4 Sb4 S8 O32'
_cell_volume   810.20492503
_cell_formula_units_Z   4
loop_
 _symmetry_equiv_pos_site_id
 _symmetry_equiv_pos_as_xyz
  1  'x, y, z'
loop_
 _atom_site_type_symbol
 _atom_site_label
 _atom_site_symmetry_multiplicity
 _atom_site_fract_x
 _atom_site_fract_y
 _atom_site_fract_z
 _atom_site_occupancy
  Cs  Cs0  1  0.76252900  0.33826000  0.76116400  1
  Cs  Cs1  1  0.73747100  0.66174000  0.26116400  1
  Cs  Cs2  1  0.26252900  0.16174000  0.23883600  1
  Cs  Cs3  1  0.23747100  0.83826000  0.73883600  1
  Sb  Sb0  1  0.79357800  0.98722300  0.97883700  1
  Sb  Sb1  1  0.70642200  0.01277700  0.47883700  1
  Sb  Sb2  1  0.29357800  0.51277700  0.02116300  1
  Sb  Sb3  1  0.20642200  0.48722300  0.52116300  1
  S  S0  1  0.73686100  0.65490400  0.58376300  1
  S  S1  1  0.76313900  0.34509600  0.08376300  1
  S  S2  1  0.23686100  0.84509600  0.41623700  1
  S  S3  1  0.26313900  0.15490400  0.91623700  1
  S  S4  1  0.72803500  0.67201100  0.90243600  1
  S  S5  1  0.77196500  0.32798900  0.40243600  1
  S  S6  1  0.22803500  0.82798900  0.09756400  1
  S  S7  1  0.27196500  0.17201100  0.59756400  1
  O  O0  1  0.74027200  0.78123100  0.63280700  1
  O  O1  1  0.75972800  0.21876900  0.13280700  1
  O  O2  1  0.24027200  0.71876900  0.36719300  1
  O  O3  1  0.25972800  0.28123100  0.86719300  1
  O  O4  1  0.74252800  0.33150400  0.98965700  1
  O  O5  1  0.75747200  0.66849600  0.48965700  1
  O  O6  1  0.24252800  0.16849600  0.01034300  1
  O  O7  1  0.25747200  0.83150400  0.51034300  1
  O  O8  1  0.51043400  0.57057700  0.60934400  1
  O  O9  1  0.98956600  0.42942300  0.10934400  1
  O  O10  1  0.01043400  0.92942300  0.39065600  1
  O  O11  1  0.48956600  0.07057700  0.89065600  1
  O  O12  1  0.96789000  0.56858600  0.61624500  1
  O  O13  1  0.53211000  0.43141400  0.11624500  1
  O  O14  1  0.46789000  0.93141400  0.38375500  1
  O  O15  1  0.03211000  0.06858600  0.88375500  1
  O  O16  1  0.98639900  0.62421900  0.89237000  1
  O  O17  1  0.51360100  0.37578100  0.39237000  1
  O  O18  1  0.48639900  0.87578100  0.10763000  1
  O  O19  1  0.01360100  0.12421900  0.60763000  1
  O  O20  1  0.55398400  0.61998800  0.83796700  1
  O  O21  1  0.94601600  0.38001200  0.33796700  1
  O  O22  1  0.05398400  0.88001200  0.16203300  1
  O  O23  1  0.44601600  0.11998800  0.66203300  1
  O  O24  1  0.63657700  0.64470500  0.99349000  1
  O  O25  1  0.86342300  0.35529500  0.49349000  1
  O  O26  1  0.13657700  0.85529500  0.00651000  1
  O  O27  1  0.36342300  0.14470500  0.50651000  1
  O  O28  1  0.72468600  0.83063400  0.89141700  1
  O  O29  1  0.77531400  0.16936600  0.39141700  1
  O  O30  1  0.22468600  0.66936600  0.10858300  1
  O  O31  1  0.27531400  0.33063400  0.60858300  1
loop_
_geom_bond_atom_site_label_1
_geom_bond_atom_site_label_2
_geom_bond_distance
_geom_bond_site_symmetry_2
Cs0 O23 3.130185 1_555
Cs0 O3 3.168392 1_655
Cs0 O3 3.193468 1_555
Cs0 O20 3.210551 1_555
Cs0 O12 3.367047 1_555
Cs0 O19 3.441923 1_655
Cs0 O31 3.510828 1_555
Cs0 O4 3.533476 1_555
Cs0 O8 3.538899 1_555
Cs0 O15 3.560588 1_655
Cs0 O11 3.611409 1_555
Cs0 O31 3.613042 1_655
Cs0 O16 3.664828 1_555
Cs1 O22 3.130185 1_655
Cs1 O2 3.168392 1_555
Cs1 O2 3.193468 1_655
Cs1 O21 3.210551 1_555
Cs1 O13 3.367047 1_555
Cs1 O18 3.441923 1_555
Cs1 O30 3.510828 1_655
Cs1 O5 3.533476 1_555
Cs1 O9 3.538899 1_555
Cs1 O14 3.560588 1_555
Cs1 O10 3.611409 1_655
Cs1 O30 3.613042 1_555
Cs1 O17 3.664828 1_555
Cs2 O21 3.130185 1_455
Cs2 O1 3.168392 1_555
Cs2 O1 3.193468 1_455
Cs2 O22 3.210551 1_545
Cs2 O14 3.367047 1_545
Cs2 O17 3.441923 1_555
Cs2 O29 3.510828 1_455
Cs2 O6 3.533476 1_555
Cs2 O10 3.538899 1_545
Cs2 O13 3.560588 1_555
Cs2 O9 3.611409 1_455
Cs2 O29 3.613042 1_555
Cs2 O18 3.664828 1_545
Cs3 O20 3.130185 1_555
Cs3 O0 3.168392 1_455
Cs3 O0 3.193468 1_555
Cs3 O23 3.210551 1_565
Cs3 O15 3.367047 1_565
Cs3 O16 3.441923 1_455
Cs3 O28 3.510828 1_555
Cs3 O7 3.533476 1_555
Cs3 O11 3.538899 1_565
Cs3 O12 3.560588 1_455
Cs3 O8 3.611409 1_555
Cs3 O28 3.613042 1_455
Cs3 O19 3.664828 1_565
O0 S0 1.454311 1_555
O1 S1 1.454311 1_555
O2 S2 1.454311 1_555
O3 S3 1.454311 1_555
O4 S1 1.464612 1_556
O5 S0 1.464612 1_555
O6 S3 1.464612 1_554
O7 S2 1.464612 1_555
O8 S0 1.517432 1_555
O8 Sb3 2.271499 1_555
O9 S1 1.517432 1_555
O9 Sb2 2.271499 1_655
O10 S2 1.517432 1_555
O10 Sb1 2.271499 1_465
O11 S3 1.517432 1_555
O11 Sb0 2.271499 1_545
O12 S0 1.578304 1_555
O12 Sb3 2.102010 1_655
O13 S1 1.578304 1_555
O13 Sb2 2.102010 1_555
O14 S2 1.578304 1_555
O14 Sb1 2.102010 1_565
O15 S3 1.578304 1_555
O15 Sb0 2.102010 1_445
O16 S4 1.464768 1_555
O17 S5 1.464768 1_555
O18 S6 1.464768 1_555
O19 S7 1.464768 1_555
O20 S4 1.454841 1_555
O21 S5 1.454841 1_555
O22 S6 1.454841 1_555
O23 S7 1.454841 1_555
O24 S4 1.513390 1_555
O24 Sb2 2.283198 1_556
O25 S5 1.513390 1_555
O25 Sb3 2.283198 1_655
O26 S6 1.513390 1_555
O26 Sb0 2.283198 1_454
O27 S7 1.513390 1_555
O27 Sb1 2.283198 1_555
O28 S4 1.567707 1_555
O28 Sb0 2.080131 1_555
O29 S5 1.567707 1_555
O29 Sb1 2.080131 1_555
O30 S6 1.567707 1_555
O30 Sb2 2.080131 1_555
O31 S7 1.567707 1_555
O31 Sb3 2.080131 1_555
