# generated using pymatgen
data_Li7Co5O12
_symmetry_space_group_name_H-M   'P 1'
_cell_length_a   7.79058188
_cell_length_b   7.79058188
_cell_length_c   10.13991304
_cell_angle_alpha   70.24547567
_cell_angle_beta   70.24547567
_cell_angle_gamma   21.22000677
_symmetry_Int_Tables_number   1
_chemical_formula_structural   Li7Co5O12
_chemical_formula_sum   'Li7 Co5 O12'
_cell_volume   209.16850095
_cell_formula_units_Z   1
loop_
 _symmetry_equiv_pos_site_id
 _symmetry_equiv_pos_as_xyz
  1  'x, y, z'
loop_
 _atom_site_type_symbol
 _atom_site_label
 _atom_site_symmetry_multiplicity
 _atom_site_fract_x
 _atom_site_fract_y
 _atom_site_fract_z
 _atom_site_occupancy
  Li  Li0  1  0.83500000  0.83500000  0.42052900  1
  Li  Li1  1  0.83440500  0.83440500  0.91459200  1
  Li  Li2  1  0.49960100  0.49960100  0.25879600  1
  Li  Li3  1  0.50039900  0.50039900  0.74120400  1
  Li  Li4  1  0.16500000  0.16500000  0.57947100  1
  Li  Li5  1  0.16559500  0.16559500  0.08540800  1
  Li  Li6  1  0.00000000  0.00000000  0.50000000  1
  Co  Co0  1  0.33797200  0.33797200  0.65910300  1
  Co  Co1  1  0.66202800  0.66202800  0.34089700  1
  Co  Co2  1  0.33190900  0.33190900  0.16697400  1
  Co  Co3  1  0.00000000  0.00000000  0.00000000  1
  Co  Co4  1  0.66809100  0.66809100  0.83302600  1
  O  O0  1  0.75983800  0.75983800  0.63429200  1
  O  O1  1  0.74890000  0.74890000  0.13866900  1
  O  O2  1  0.40690100  0.40690100  0.47674700  1
  O  O3  1  0.41829500  0.41829500  0.96480900  1
  O  O4  1  0.08556700  0.08556700  0.79703600  1
  O  O5  1  0.09464300  0.09464300  0.29695200  1
  O  O6  1  0.91443300  0.91443300  0.20296400  1
  O  O7  1  0.90535700  0.90535700  0.70304800  1
  O  O8  1  0.58170500  0.58170500  0.03519100  1
  O  O9  1  0.59309900  0.59309900  0.52325300  1
  O  O10  1  0.24016200  0.24016200  0.36570800  1
  O  O11  1  0.25110000  0.25110000  0.86133100  1
loop_
_geom_bond_atom_site_label_1
_geom_bond_atom_site_label_2
_geom_bond_distance
_geom_bond_site_symmetry_2
Li0 O2 2.006677 1_565
Li0 O2 2.006677 1_655
Li0 O0 2.075403 1_555
Li0 O6 2.121558 1_555
Li0 O10 2.243072 1_565
Li0 O10 2.243072 1_655
Li1 O7 2.044239 1_555
Li1 O3 2.101754 1_565
Li1 O3 2.101754 1_655
Li1 O11 2.109683 1_565
Li1 O11 2.109683 1_655
Li1 O1 2.197965 1_556
Li2 O6 2.141774 1_545
Li2 O6 2.141774 1_455
Li2 O5 2.170987 1_565
Li2 O5 2.170987 1_655
Li2 O2 2.177573 1_555
Li2 O8 2.182008 1_555
Li3 O4 2.141774 1_655
Li3 O4 2.141774 1_565
Li3 O7 2.170987 1_455
Li3 O7 2.170987 1_545
Li3 O9 2.177573 1_555
Li3 O3 2.182008 1_555
Li4 O9 2.006677 1_545
Li4 O9 2.006677 1_455
Li4 O10 2.075403 1_555
Li4 O4 2.121558 1_555
Li4 O0 2.243072 1_545
Li4 O0 2.243072 1_455
Li5 O5 2.044239 1_555
Li5 O8 2.101754 1_455
Li5 O8 2.101754 1_545
Li5 O1 2.109683 1_545
Li5 O1 2.109683 1_455
Li5 O11 2.197965 1_554
Li6 O5 2.070632 1_555
Li6 O7 2.070632 1_445
Li6 O9 2.092188 1_455
Li6 O9 2.092188 1_545
Li6 O2 2.092188 1_455
Li6 O2 2.092188 1_545
Co0 O2 1.786338 1_555
Co0 O7 1.907193 1_545
Co0 O7 1.907193 1_455
Co0 O0 1.939013 1_455
Co0 O0 1.939013 1_545
Co0 O11 2.024509 1_555
Co1 O9 1.786338 1_555
Co1 O5 1.907193 1_655
Co1 O5 1.907193 1_565
Co1 O10 1.939013 1_655
Co1 O10 1.939013 1_565
Co1 O1 2.024509 1_555
Co2 O1 2.001748 1_455
Co2 O1 2.001748 1_545
Co2 O3 2.021719 1_554
Co2 O10 2.021824 1_555
Co2 O6 2.026138 1_455
Co2 O6 2.026138 1_545
Co3 O8 2.014378 1_545
Co3 O8 2.014378 1_455
Co3 O3 2.014378 1_544
Co3 O3 2.014378 1_454
Co3 O4 2.024347 1_554
Co3 O6 2.024347 1_445
Co4 O11 2.001748 1_655
Co4 O11 2.001748 1_565
Co4 O8 2.021719 1_556
Co4 O0 2.021824 1_555
Co4 O4 2.026138 1_565
Co4 O4 2.026138 1_655
