# generated using pymatgen
data_Li2LuUS4
_symmetry_space_group_name_H-M   'P 1'
_cell_length_a   6.68495342
_cell_length_b   6.68495342
_cell_length_c   6.68495342
_cell_angle_alpha   132.43539745
_cell_angle_beta   132.43539745
_cell_angle_gamma   69.54222714
_symmetry_Int_Tables_number   1
_chemical_formula_structural   Li2LuUS4
_chemical_formula_sum   'Li2 Lu1 U1 S4'
_cell_volume   159.62661803
_cell_formula_units_Z   1
loop_
 _symmetry_equiv_pos_site_id
 _symmetry_equiv_pos_as_xyz
  1  'x, y, z'
loop_
 _atom_site_type_symbol
 _atom_site_label
 _atom_site_symmetry_multiplicity
 _atom_site_fract_x
 _atom_site_fract_y
 _atom_site_fract_z
 _atom_site_occupancy
  Li  Li0  1  0.50000000  0.50000000  0.00000000  1
  Li  Li1  1  0.25000000  0.75000000  0.50000000  1
  Lu  Lu0  1  0.00000000  0.00000000  0.00000000  1
  U  U0  1  0.75000000  0.25000000  0.50000000  1
  S  S0  1  0.00075100  0.50075100  0.50000000  1
  S  S1  1  0.75601400  0.75601400  0.00000000  1
  S  S2  1  0.49924900  0.99924900  0.50000000  1
  S  S3  1  0.24398600  0.24398600  0.00000000  1
loop_
_geom_bond_atom_site_label_1
_geom_bond_atom_site_label_2
_geom_bond_distance
_geom_bond_site_symmetry_2
Li0 S2 2.695805 1_555
Li0 S0 2.695805 1_655
Li0 S0 2.695805 1_554
Li0 S2 2.695805 1_544
Li0 S1 2.811682 1_555
Li0 S3 2.811682 1_555
Li1 S1 2.696601 1_455
Li1 S1 2.696601 1_556
Li1 S3 2.696601 1_555
Li1 S3 2.696601 1_566
Li1 S2 2.737386 1_555
Li1 S0 2.737386 1_555
Lu0 S3 2.679585 1_555
Lu0 S1 2.679585 1_445
Lu0 S0 2.695805 1_544
Lu0 S2 2.695805 1_444
Lu0 S2 2.695805 1_545
Lu0 S0 2.695805 1_555
S0 U0 2.753881 1_455
S1 U0 2.696601 1_554
S1 U0 2.696601 1_565
S2 U0 2.753881 1_565
S3 U0 2.696601 1_555
S3 U0 2.696601 1_454
