# generated using pymatgen
data_NaMg6SbO8
_symmetry_space_group_name_H-M   'P 1'
_cell_length_a   8.90116197
_cell_length_b   4.43901808
_cell_length_c   4.43901808
_cell_angle_alpha   90.00000000
_cell_angle_beta   90.00000000
_cell_angle_gamma   90.00000000
_symmetry_Int_Tables_number   1
_chemical_formula_structural   NaMg6SbO8
_chemical_formula_sum   'Na1 Mg6 Sb1 O8'
_cell_volume   175.39634196
_cell_formula_units_Z   1
loop_
 _symmetry_equiv_pos_site_id
 _symmetry_equiv_pos_as_xyz
  1  'x, y, z'
loop_
 _atom_site_type_symbol
 _atom_site_label
 _atom_site_symmetry_multiplicity
 _atom_site_fract_x
 _atom_site_fract_y
 _atom_site_fract_z
 _atom_site_occupancy
  Na  Na0  1  -0.00000000  -0.00000000  -0.00000000  1
  Mg  Mg0  1  -0.00000000  0.50000000  0.50000000  1
  Mg  Mg1  1  0.50000000  0.50000000  0.50000000  1
  Mg  Mg2  1  0.22821240  -0.00000000  0.50000000  1
  Mg  Mg3  1  0.77178760  0.00000000  0.50000000  1
  Mg  Mg4  1  0.22821240  0.50000000  -0.00000000  1
  Mg  Mg5  1  0.77178760  0.50000000  0.00000000  1
  Sb  Sb0  1  0.50000000  -0.00000000  -0.00000000  1
  O  O0  1  0.25080091  -0.00000000  0.00000000  1
  O  O1  1  0.74919909  0.00000000  -0.00000000  1
  O  O2  1  0.25323003  0.50000000  0.50000000  1
  O  O3  1  0.74676997  0.50000000  0.50000000  1
  O  O4  1  -0.00000000  -0.00000000  0.50000000  1
  O  O5  1  0.50000000  -0.00000000  0.50000000  1
  O  O6  1  -0.00000000  0.50000000  -0.00000000  1
  O  O7  1  0.50000000  0.50000000  -0.00000000  1
loop_
_geom_bond_atom_site_label_1
_geom_bond_atom_site_label_2
_geom_bond_distance
_geom_bond_site_symmetry_2
Na0 O4 2.219509 1_555
Na0 O4 2.219509 1_554
Na0 O6 2.219509 1_545
Na0 O6 2.219509 1_555
Na0 O0 2.232420 1_555
Na0 O1 2.232420 1_455
Mg0 O4 2.219509 1_555
Mg0 O4 2.219509 1_565
Mg0 O6 2.219509 1_556
Mg0 O6 2.219509 1_555
Mg0 O2 2.254042 1_555
Mg0 O3 2.254042 1_455
Mg1 O2 2.196539 1_555
Mg1 O3 2.196539 1_555
Mg1 O7 2.219509 1_556
Mg1 O5 2.219509 1_555
Mg1 O5 2.219509 1_565
Mg1 O7 2.219509 1_555
Mg2 O4 2.031356 1_555
Mg2 O0 2.228598 1_556
Mg2 O0 2.228598 1_555
Mg2 O2 2.230652 1_555
Mg2 O2 2.230652 1_545
Mg2 O5 2.419225 1_555
Mg3 O4 2.031356 1_655
Mg3 O1 2.228598 1_555
Mg3 O1 2.228598 1_556
Mg3 O3 2.230652 1_545
Mg3 O3 2.230652 1_555
Mg3 O5 2.419225 1_555
Mg4 O6 2.031356 1_555
Mg4 O0 2.228598 1_565
Mg4 O0 2.228598 1_555
Mg4 O2 2.230652 1_555
Mg4 O2 2.230652 1_554
Mg4 O7 2.419225 1_555
Mg5 O6 2.031356 1_655
Mg5 O1 2.228598 1_555
Mg5 O1 2.228598 1_565
Mg5 O3 2.230652 1_555
Mg5 O3 2.230652 1_554
Mg5 O7 2.419225 1_555
O0 Sb0 2.218161 1_555
O1 Sb0 2.218161 1_555
O5 Sb0 2.219509 1_555
O5 Sb0 2.219509 1_556
O7 Sb0 2.219509 1_555
O7 Sb0 2.219509 1_565
