# generated using pymatgen
data_SmAlCu4
_symmetry_space_group_name_H-M   'P 1'
_cell_length_a   5.27311564
_cell_length_b   5.27311564
_cell_length_c   3.99592500
_cell_angle_alpha   90.00000000
_cell_angle_beta   90.00000000
_cell_angle_gamma   119.99999551
_symmetry_Int_Tables_number   1
_chemical_formula_structural   SmAlCu4
_chemical_formula_sum   'Sm1 Al1 Cu4'
_cell_volume   96.22381493
_cell_formula_units_Z   1
loop_
 _symmetry_equiv_pos_site_id
 _symmetry_equiv_pos_as_xyz
  1  'x, y, z'
loop_
 _atom_site_type_symbol
 _atom_site_label
 _atom_site_symmetry_multiplicity
 _atom_site_fract_x
 _atom_site_fract_y
 _atom_site_fract_z
 _atom_site_occupancy
  Sm  Sm0  1  0.66666700  0.33333300  0.00000000  1
  Al  Al0  1  0.00000000  0.00000000  0.00000000  1
  Cu  Cu0  1  0.33333300  0.66666700  0.00000000  1
  Cu  Cu1  1  0.66417500  0.83208800  0.50000000  1
  Cu  Cu2  1  0.16791200  0.83208800  0.50000000  1
  Cu  Cu3  1  0.16791200  0.33582500  0.50000000  1
loop_
_geom_bond_atom_site_label_1
_geom_bond_atom_site_label_2
_geom_bond_distance
_geom_bond_site_symmetry_2
Al0 Cu2 2.518682 1_544
Al0 Cu2 2.518682 1_545
Al0 Cu1 2.518684 1_445
Al0 Cu1 2.518684 1_444
Al0 Cu3 2.518684 1_554
Al0 Cu3 2.518684 1_555
Al0 Cu0 3.044432 1_545
Al0 Sm0 3.044432 1_455
Al0 Cu0 3.044436 1_445
Al0 Cu0 3.044436 1_555
Al0 Sm0 3.044436 1_555
Al0 Sm0 3.044436 1_445
Cu0 Cu2 2.504894 1_554
Cu0 Cu2 2.504894 1_555
Cu0 Cu3 2.504894 1_554
Cu0 Cu1 2.504894 1_554
Cu0 Cu3 2.504894 1_555
Cu0 Cu1 2.504894 1_555
Cu0 Sm0 3.044432 1_455
Cu0 Sm0 3.044432 1_565
Cu0 Sm0 3.044441 1_555
Cu1 Cu2 2.616852 1_555
Cu1 Cu3 2.616852 1_555
Cu1 Cu2 2.656263 1_655
Cu1 Cu3 2.656264 1_665
Cu1 Sm0 3.308080 1_565
Cu1 Sm0 3.308080 1_566
Cu1 Sm0 3.308088 1_556
Cu1 Sm0 3.308088 1_555
Cu2 Cu3 2.616852 1_555
Cu2 Cu3 2.656263 1_565
Cu2 Sm0 3.308084 1_456
Cu2 Sm0 3.308084 1_455
Cu2 Sm0 3.308084 1_565
Cu2 Sm0 3.308084 1_566
Cu3 Sm0 3.308080 1_455
Cu3 Sm0 3.308080 1_456
Cu3 Sm0 3.308088 1_556
Cu3 Sm0 3.308088 1_555
