# generated using pymatgen
data_RbAgBr3
_symmetry_space_group_name_H-M   'P 1'
_cell_length_a   5.37140765
_cell_length_b   5.37140765
_cell_length_c   5.37382690
_cell_angle_alpha   90.03922598
_cell_angle_beta   90.03922598
_cell_angle_gamma   89.99489578
_symmetry_Int_Tables_number   1
_chemical_formula_structural   RbAgBr3
_chemical_formula_sum   'Rb1 Ag1 Br3'
_cell_volume   155.04568877
_cell_formula_units_Z   1
loop_
 _symmetry_equiv_pos_site_id
 _symmetry_equiv_pos_as_xyz
  1  'x, y, z'
loop_
 _atom_site_type_symbol
 _atom_site_label
 _atom_site_symmetry_multiplicity
 _atom_site_fract_x
 _atom_site_fract_y
 _atom_site_fract_z
 _atom_site_occupancy
  Rb  Rb0  1  0.99899892  0.99899892  0.00736142  1
  Ag  Ag0  1  0.49816743  0.49816743  0.51445151  1
  Br  Br0  1  0.99816492  0.49602315  0.51357929  1
  Br  Br1  1  0.50041758  0.50041758  0.01433950  1
  Br  Br2  1  0.49602315  0.99816492  0.51357929  1
loop_
_geom_bond_atom_site_label_1
_geom_bond_atom_site_label_2
_geom_bond_distance
_geom_bond_site_symmetry_2
Ag0 Br0 2.685721 1_555
Ag0 Br2 2.685721 1_555
Ag0 Br0 2.685744 1_455
Ag0 Br2 2.685744 1_545
Ag0 Br1 2.686349 1_556
Ag0 Br1 2.687586 1_555
Br0 Rb0 3.765391 1_546
Br0 Rb0 3.785547 1_556
Br0 Rb0 3.810207 1_545
Br0 Rb0 3.835284 1_555
Br1 Rb0 3.787773 1_555
Br1 Rb0 3.798190 1_455
Br1 Rb0 3.798190 1_545
Br1 Rb0 3.809253 1_445
Br2 Rb0 3.765391 1_456
Br2 Rb0 3.785547 1_556
Br2 Rb0 3.810207 1_455
Br2 Rb0 3.835284 1_555
