# generated using pymatgen
data_Mg2TaCuO6
_symmetry_space_group_name_H-M   'P 1'
_cell_length_a   7.51650300
_cell_length_b   5.16164000
_cell_length_c   5.43788915
_cell_angle_alpha   86.51290146
_cell_angle_beta   90.00000000
_cell_angle_gamma   90.00000000
_symmetry_Int_Tables_number   1
_chemical_formula_structural   Mg2TaCuO6
_chemical_formula_sum   'Mg4 Ta2 Cu2 O12'
_cell_volume   210.58579050
_cell_formula_units_Z   2
loop_
 _symmetry_equiv_pos_site_id
 _symmetry_equiv_pos_as_xyz
  1  'x, y, z'
loop_
 _atom_site_type_symbol
 _atom_site_label
 _atom_site_symmetry_multiplicity
 _atom_site_fract_x
 _atom_site_fract_y
 _atom_site_fract_z
 _atom_site_occupancy
  Mg  Mg0  1  0.75000000  0.97310400  0.05105900  1
  Mg  Mg1  1  0.75000000  0.50622600  0.57175600  1
  Mg  Mg2  1  0.25000000  0.49377400  0.42824400  1
  Mg  Mg3  1  0.25000000  0.02689600  0.94894100  1
  Ta  Ta0  1  0.00000000  0.00000000  0.50000000  1
  Ta  Ta1  1  0.50000000  0.00000000  0.50000000  1
  Cu  Cu0  1  0.00000000  0.50000000  0.00000000  1
  Cu  Cu1  1  0.50000000  0.50000000  0.00000000  1
  O  O0  1  0.43456900  0.18176300  0.18168500  1
  O  O1  1  0.57071600  0.69398300  0.32525800  1
  O  O2  1  0.56543100  0.81823700  0.81831500  1
  O  O3  1  0.07071600  0.30601700  0.67474200  1
  O  O4  1  0.25000000  0.86386800  0.55119200  1
  O  O5  1  0.42928400  0.30601700  0.67474200  1
  O  O6  1  0.92928400  0.69398300  0.32525800  1
  O  O7  1  0.06543100  0.18176300  0.18168500  1
  O  O8  1  0.75000000  0.36741900  0.93583300  1
  O  O9  1  0.93456900  0.81823700  0.81831500  1
  O  O10  1  0.25000000  0.63258100  0.06416700  1
  O  O11  1  0.75000000  0.13613200  0.44880800  1
loop_
_geom_bond_atom_site_label_1
_geom_bond_atom_site_label_2
_geom_bond_distance
_geom_bond_site_symmetry_2
Mg0 O9 2.070878 1_554
Mg0 O2 2.070878 1_554
Mg0 O8 2.092837 1_564
Mg0 O11 2.368062 1_565
Mg0 O1 2.419426 1_555
Mg0 O6 2.419426 1_555
Mg1 O11 2.061935 1_555
Mg1 O8 2.064080 1_555
Mg1 O6 2.096172 1_555
Mg1 O1 2.096172 1_555
Mg1 O3 2.668792 1_655
Mg1 O5 2.668792 1_555
Mg2 O4 2.061935 1_555
Mg2 O10 2.064080 1_555
Mg2 O5 2.096172 1_555
Mg2 O3 2.096172 1_555
Mg2 O1 2.668792 1_555
Mg2 O6 2.668792 1_455
Mg3 O0 2.070878 1_556
Mg3 O7 2.070878 1_556
Mg3 O10 2.092837 1_546
Mg3 O4 2.368062 1_545
Mg3 O3 2.419426 1_555
Mg3 O5 2.419426 1_555
Cu0 O9 1.928415 1_454
Cu0 O7 1.928415 1_555
Cu0 O10 2.037211 1_555
Cu0 O8 2.037211 1_454
Cu0 O6 2.151480 1_455
Cu0 O3 2.151480 1_554
Cu1 O2 1.928415 1_554
Cu1 O0 1.928415 1_555
Cu1 O10 2.037211 1_555
Cu1 O8 2.037211 1_554
Cu1 O1 2.151480 1_555
Cu1 O5 2.151480 1_554
O0 Ta1 1.980092 1_555
O1 Ta1 1.965458 1_565
O2 Ta1 1.980092 1_565
O3 Ta0 1.965458 1_555
O4 Ta0 2.019542 1_565
O4 Ta1 2.019542 1_565
O5 Ta1 1.965458 1_555
O6 Ta0 1.965458 1_665
O7 Ta0 1.980092 1_555
O9 Ta0 1.980092 1_665
O11 Ta1 2.019542 1_555
O11 Ta0 2.019542 1_655
