# generated using pymatgen
data_Li4Nb2V3Ni3O16
_symmetry_space_group_name_H-M   'P 1'
_cell_length_a   5.95780400
_cell_length_b   5.97096096
_cell_length_c   9.74757468
_cell_angle_alpha   89.88816537
_cell_angle_beta   90.59299018
_cell_angle_gamma   119.88899979
_symmetry_Int_Tables_number   1
_chemical_formula_structural   Li4Nb2V3Ni3O16
_chemical_formula_sum   'Li4 Nb2 V3 Ni3 O16'
_cell_volume   300.61877111
_cell_formula_units_Z   1
loop_
 _symmetry_equiv_pos_site_id
 _symmetry_equiv_pos_as_xyz
  1  'x, y, z'
loop_
 _atom_site_type_symbol
 _atom_site_label
 _atom_site_symmetry_multiplicity
 _atom_site_fract_x
 _atom_site_fract_y
 _atom_site_fract_z
 _atom_site_occupancy
  Li  Li0  1  0.68652700  0.34227100  0.89768100  1
  Li  Li1  1  0.99163500  0.99865700  0.99019200  1
  Li  Li2  1  0.99220200  0.99767800  0.49388500  1
  Li  Li3  1  0.34100000  0.66804900  0.39979000  1
  Nb  Nb0  1  0.65661300  0.33179000  0.50036300  1
  Nb  Nb1  1  0.30893500  0.65516500  0.99921200  1
  V  V0  1  0.81794100  0.17069700  0.22447500  1
  V  V1  1  0.81859900  0.65287600  0.21681200  1
  V  V2  1  0.64102900  0.82276600  0.73176900  1
  Ni  Ni0  1  0.33904600  0.16952900  0.21386500  1
  Ni  Ni1  1  0.16717300  0.33850000  0.70934500  1
  Ni  Ni2  1  0.16744500  0.82919300  0.70923800  1
  O  O0  1  0.81855000  0.15712700  0.59512800  1
  O  O1  1  0.96517300  0.47157200  0.34498300  1
  O  O2  1  0.68892100  0.32870300  0.10462300  1
  O  O3  1  0.98578700  0.00344800  0.30270200  1
  O  O4  1  0.97534400  0.98775700  0.79955000  1
  O  O5  1  0.82221700  0.66277500  0.59430000  1
  O  O6  1  0.52758000  0.03670300  0.34237100  1
  O  O7  1  0.52774300  0.48620700  0.34274800  1
  O  O8  1  0.65864700  0.83425200  0.09169500  1
  O  O9  1  0.32962300  0.16418500  0.58871100  1
  O  O10  1  0.51003500  0.53812300  0.83941700  1
  O  O11  1  0.50825300  0.97293000  0.83869200  1
  O  O12  1  0.37377700  0.68646400  0.60677800  1
  O  O13  1  0.16525700  0.33319900  0.09180900  1
  O  O14  1  0.05506400  0.52809200  0.84578800  1
  O  O15  1  0.15988400  0.83098800  0.09191600  1
loop_
_geom_bond_atom_site_label_1
_geom_bond_atom_site_label_2
_geom_bond_distance
_geom_bond_site_symmetry_2
Li0 O14 1.975021 1_655
Li0 O11 1.994999 1_545
Li0 O10 2.001584 1_555
Li0 O2 2.018839 1_556
Li1 O4 1.859400 1_555
Li1 O15 1.991483 1_656
Li1 O13 1.992101 1_666
Li1 O8 1.993549 1_556
Li2 O3 1.864170 1_565
Li2 O9 1.963994 1_665
Li2 O0 1.989270 1_565
Li2 O5 1.994236 1_555
Li3 O7 1.986203 1_555
Li3 O6 1.990901 1_565
Li3 O1 2.008725 1_455
Li3 O12 2.022961 1_555
Nb0 O9 1.904388 1_555
Nb0 O5 1.939758 1_555
Nb0 O0 1.962739 1_555
Nb0 O7 2.115563 1_555
Nb0 O6 2.168711 1_555
Nb0 O1 2.212140 1_555
Nb1 O13 1.900617 1_556
Nb1 O15 1.912260 1_556
Nb1 O14 1.978332 1_555
Nb1 O8 2.010368 1_556
Nb1 O10 2.286352 1_555
Nb1 O11 2.289035 1_555
Ni0 O3 2.029058 1_455
Ni0 O7 2.068567 1_555
Ni0 O6 2.077164 1_555
Ni0 O13 2.102627 1_555
Ni0 O2 2.109451 1_555
Ni0 O15 2.114519 1_545
Ni1 O4 2.023223 1_445
Ni1 O14 2.067454 1_555
Ni1 O12 2.073635 1_555
Ni1 O9 2.105962 1_555
Ni1 O0 2.107469 1_455
Ni1 O10 2.174071 1_555
Ni2 O4 2.021212 1_455
Ni2 O14 2.064374 1_555
Ni2 O12 2.075515 1_555
Ni2 O5 2.095891 1_455
Ni2 O9 2.098308 1_565
Ni2 O11 2.160112 1_555
O0 V2 2.189242 1_545
O1 V0 1.947580 1_555
O1 V1 2.099935 1_555
O2 V0 1.882998 1_555
O2 V1 2.009921 1_555
O3 V0 1.885531 1_555
O3 V1 1.996584 1_545
O4 V2 1.842262 1_555
O5 V2 2.221747 1_555
O6 V0 1.900403 1_555
O7 V1 1.954653 1_555
O8 V1 2.137233 1_555
O8 V0 2.167054 1_565
O10 V2 1.812942 1_555
O11 V2 1.800992 1_555
O12 V2 1.831445 1_555
O13 V0 2.223731 1_455
O15 V1 2.153727 1_455
