# generated using pymatgen
data_Nd2In3Cu
_symmetry_space_group_name_H-M   'P 1'
_cell_length_a   7.63203400
_cell_length_b   9.65454236
_cell_length_c   16.79235829
_cell_angle_alpha   90.02603719
_cell_angle_beta   90.00000000
_cell_angle_gamma   90.00000000
_symmetry_Int_Tables_number   1
_chemical_formula_structural   Nd2In3Cu
_chemical_formula_sum   'Nd16 In24 Cu8'
_cell_volume   1237.32456776
_cell_formula_units_Z   8
loop_
 _symmetry_equiv_pos_site_id
 _symmetry_equiv_pos_as_xyz
  1  'x, y, z'
loop_
 _atom_site_type_symbol
 _atom_site_label
 _atom_site_symmetry_multiplicity
 _atom_site_fract_x
 _atom_site_fract_y
 _atom_site_fract_z
 _atom_site_occupancy
  Nd  Nd0_0  1  0.00000000  0.00001400  0.00392850  1
  Nd  Nd0_1  1  0.00000000  0.00001400  0.50392850  1
  Nd  Nd0_2  1  0.00000000  0.50001400  0.00392850  1
  Nd  Nd0_3  1  0.00000000  0.50001400  0.50392850  1
  Nd  Nd0_4  1  0.50000000  0.00001400  0.00392850  1
  Nd  Nd0_5  1  0.50000000  0.00001400  0.50392850  1
  Nd  Nd0_6  1  0.50000000  0.50001400  0.00392850  1
  Nd  Nd0_7  1  0.50000000  0.50001400  0.50392850  1
  Nd  Nd1_0  1  0.00000000  0.24997950  0.24841550  1
  Nd  Nd1_1  1  0.00000000  0.24997950  0.74841550  1
  Nd  Nd1_2  1  0.00000000  0.74997950  0.24841550  1
  Nd  Nd1_3  1  0.00000000  0.74997950  0.74841550  1
  Nd  Nd1_4  1  0.50000000  0.24997950  0.24841550  1
  Nd  Nd1_5  1  0.50000000  0.24997950  0.74841550  1
  Nd  Nd1_6  1  0.50000000  0.74997950  0.24841550  1
  Nd  Nd1_7  1  0.50000000  0.74997950  0.74841550  1
  In  In0_0  1  0.25000000  0.24997800  0.41867600  1
  In  In0_1  1  0.25000000  0.24997800  0.91867600  1
  In  In0_2  1  0.25000000  0.74997800  0.41867600  1
  In  In0_3  1  0.25000000  0.74997800  0.91867600  1
  In  In0_4  1  0.75000000  0.24997800  0.41867600  1
  In  In0_5  1  0.75000000  0.24997800  0.91867600  1
  In  In0_6  1  0.75000000  0.74997800  0.41867600  1
  In  In0_7  1  0.75000000  0.74997800  0.91867600  1
  In  In1_0  1  0.25000000  0.24992350  0.09093250  1
  In  In1_1  1  0.25000000  0.24992350  0.59093250  1
  In  In1_2  1  0.25000000  0.74992350  0.09093250  1
  In  In1_3  1  0.25000000  0.74992350  0.59093250  1
  In  In1_4  1  0.75000000  0.24992350  0.09093250  1
  In  In1_5  1  0.75000000  0.24992350  0.59093250  1
  In  In1_6  1  0.75000000  0.74992350  0.09093250  1
  In  In1_7  1  0.75000000  0.74992350  0.59093250  1
  In  In2_0  1  0.25000000  0.49998200  0.32363450  1
  In  In2_1  1  0.25000000  0.49998200  0.82363450  1
  In  In2_2  1  0.25000000  0.99998200  0.32363450  1
  In  In2_3  1  0.25000000  0.99998200  0.82363450  1
  In  In2_4  1  0.75000000  0.49998200  0.32363450  1
  In  In2_5  1  0.75000000  0.49998200  0.82363450  1
  In  In2_6  1  0.75000000  0.99998200  0.32363450  1
  In  In2_7  1  0.75000000  0.99998200  0.82363450  1
  Cu  Cu0_0  1  0.25000000  0.00002300  0.16441300  1
  Cu  Cu0_1  1  0.25000000  0.00002300  0.66441300  1
  Cu  Cu0_2  1  0.25000000  0.50002300  0.16441300  1
  Cu  Cu0_3  1  0.25000000  0.50002300  0.66441300  1
  Cu  Cu0_4  1  0.75000000  0.00002300  0.16441300  1
  Cu  Cu0_5  1  0.75000000  0.00002300  0.66441300  1
  Cu  Cu0_6  1  0.75000000  0.50002300  0.16441300  1
  Cu  Cu0_7  1  0.75000000  0.50002300  0.66441300  1
loop_
_geom_bond_atom_site_label_1
_geom_bond_atom_site_label_2
_geom_bond_distance
_geom_bond_site_symmetry_2
Nd0_0 Nd0_4 3.816017 1_555
Nd0_0 Nd0_4 3.816017 1_455
Nd0_1 Nd0_5 3.816017 1_455
Nd0_1 Nd0_5 3.816017 1_555
Nd0_2 Nd0_6 3.816017 1_555
Nd0_2 Nd0_6 3.816017 1_455
Nd0_3 Nd0_7 3.816017 1_455
Nd0_3 Nd0_7 3.816017 1_555
Nd1_0 Nd1_4 3.816017 1_455
Nd1_0 Nd1_4 3.816017 1_555
Nd1_1 Nd1_5 3.816017 1_455
Nd1_1 Nd1_5 3.816017 1_555
Nd1_2 Nd1_6 3.816017 1_555
Nd1_2 Nd1_6 3.816017 1_455
Nd1_3 Nd1_7 3.816017 1_455
Nd1_3 Nd1_7 3.816017 1_555
In0_0 In1_1 2.892593 1_555
In0_0 In2_2 2.892935 1_545
In0_0 In2_0 2.894209 1_555
In0_0 Nd0_3 3.393246 1_555
In0_0 Nd0_7 3.393246 1_555
In0_0 Nd0_5 3.393677 1_555
In0_0 Nd0_1 3.393677 1_555
In0_0 Nd1_4 3.437268 1_555
In0_0 Nd1_0 3.437268 1_555
In0_1 In1_0 2.892593 1_556
In0_1 In2_3 2.892935 1_545
In0_1 In2_1 2.894209 1_555
In0_1 Nd0_2 3.393246 1_556
In0_1 Nd0_6 3.393246 1_556
In0_1 Nd0_0 3.393677 1_556
In0_1 Nd0_4 3.393677 1_556
In0_1 Nd1_1 3.437268 1_555
In0_1 Nd1_5 3.437268 1_555
In0_2 In1_3 2.892593 1_555
In0_2 In2_0 2.892935 1_555
In0_2 In2_2 2.894209 1_555
In0_2 Nd0_1 3.393246 1_565
In0_2 Nd0_5 3.393246 1_565
In0_2 Nd0_3 3.393677 1_555
In0_2 Nd0_7 3.393677 1_555
In0_2 Nd1_2 3.437268 1_555
In0_2 Nd1_6 3.437268 1_555
In0_3 In1_2 2.892593 1_556
In0_3 In2_1 2.892935 1_555
In0_3 In2_3 2.894209 1_555
In0_3 Nd0_0 3.393246 1_566
In0_3 Nd0_4 3.393246 1_566
In0_3 Nd0_2 3.393677 1_556
In0_3 Nd0_6 3.393677 1_556
In0_3 Nd1_7 3.437268 1_555
In0_3 Nd1_3 3.437268 1_555
In0_4 In1_5 2.892593 1_555
In0_4 In2_6 2.892935 1_545
In0_4 In2_4 2.894209 1_555
In0_4 Nd0_7 3.393246 1_555
In0_4 Nd0_3 3.393246 1_655
In0_4 Nd0_5 3.393677 1_555
In0_4 Nd0_1 3.393677 1_655
In0_4 Nd1_4 3.437268 1_555
In0_4 Nd1_0 3.437268 1_655
In0_5 In1_4 2.892593 1_556
In0_5 In2_7 2.892935 1_545
In0_5 In2_5 2.894209 1_555
In0_5 Nd0_2 3.393246 1_656
In0_5 Nd0_6 3.393246 1_556
In0_5 Nd0_0 3.393677 1_656
In0_5 Nd0_4 3.393677 1_556
In0_5 Nd1_1 3.437268 1_655
In0_5 Nd1_5 3.437268 1_555
In0_6 In1_7 2.892593 1_555
In0_6 In2_4 2.892935 1_555
In0_6 In2_6 2.894209 1_555
In0_6 Nd0_1 3.393246 1_665
In0_6 Nd0_5 3.393246 1_565
In0_6 Nd0_3 3.393677 1_655
In0_6 Nd0_7 3.393677 1_555
In0_6 Nd1_2 3.437268 1_655
In0_6 Nd1_6 3.437268 1_555
In0_7 In1_6 2.892593 1_556
In0_7 In2_5 2.892935 1_555
In0_7 In2_7 2.894209 1_555
In0_7 Nd0_0 3.393246 1_666
In0_7 Nd0_4 3.393246 1_566
In0_7 Nd0_6 3.393677 1_556
In0_7 Nd0_2 3.393677 1_656
In0_7 Nd1_3 3.437268 1_655
In0_7 Nd1_7 3.437268 1_555
In1_0 Nd1_0 3.260971 1_555
In1_0 Nd1_4 3.260971 1_555
In1_0 Nd0_4 3.404885 1_555
In1_0 Nd0_0 3.404885 1_555
In1_0 Nd0_6 3.407064 1_555
In1_0 Nd0_2 3.407064 1_555
In1_1 Nd1_5 3.260971 1_555
In1_1 Nd1_1 3.260971 1_555
In1_1 Nd0_1 3.404885 1_555
In1_1 Nd0_5 3.404885 1_555
In1_1 Nd0_3 3.407064 1_555
In1_1 Nd0_7 3.407064 1_555
In1_2 Nd1_2 3.260971 1_555
In1_2 Nd1_6 3.260971 1_555
In1_2 Nd0_6 3.404885 1_555
In1_2 Nd0_2 3.404885 1_555
In1_2 Nd0_0 3.407064 1_565
In1_2 Nd0_4 3.407064 1_565
In1_3 Nd1_3 3.260971 1_555
In1_3 Nd1_7 3.260971 1_555
In1_3 Nd0_3 3.404885 1_555
In1_3 Nd0_7 3.404885 1_555
In1_3 Nd0_1 3.407064 1_565
In1_3 Nd0_5 3.407064 1_565
In1_4 Nd1_0 3.260971 1_655
In1_4 Nd1_4 3.260971 1_555
In1_4 Nd0_0 3.404885 1_655
In1_4 Nd0_4 3.404885 1_555
In1_4 Nd0_6 3.407064 1_555
In1_4 Nd0_2 3.407064 1_655
In1_5 Nd1_5 3.260971 1_555
In1_5 Nd1_1 3.260971 1_655
In1_5 Nd0_1 3.404885 1_655
In1_5 Nd0_5 3.404885 1_555
In1_5 Nd0_7 3.407064 1_555
In1_5 Nd0_3 3.407064 1_655
In1_6 Nd1_6 3.260971 1_555
In1_6 Nd1_2 3.260971 1_655
In1_6 Nd0_6 3.404885 1_555
In1_6 Nd0_2 3.404885 1_655
In1_6 Nd0_0 3.407064 1_665
In1_6 Nd0_4 3.407064 1_565
In1_7 Nd1_3 3.260971 1_655
In1_7 Nd1_7 3.260971 1_555
In1_7 Nd0_3 3.404885 1_655
In1_7 Nd0_7 3.404885 1_555
In1_7 Nd0_1 3.407064 1_665
In1_7 Nd0_5 3.407064 1_565
In2_0 Nd1_4 3.325494 1_555
In2_0 Nd1_0 3.325494 1_555
In2_0 Nd1_2 3.326292 1_555
In2_0 Nd1_6 3.326292 1_555
In2_0 Nd0_3 3.578634 1_555
In2_0 Nd0_7 3.578634 1_555
In2_1 Nd1_1 3.325494 1_555
In2_1 Nd1_5 3.325494 1_555
In2_1 Nd1_3 3.326292 1_555
In2_1 Nd1_7 3.326292 1_555
In2_1 Nd0_6 3.578634 1_556
In2_1 Nd0_2 3.578634 1_556
In2_2 Nd1_6 3.325494 1_555
In2_2 Nd1_2 3.325494 1_555
In2_2 Nd1_0 3.326292 1_565
In2_2 Nd1_4 3.326292 1_565
In2_2 Nd0_1 3.578634 1_565
In2_2 Nd0_5 3.578634 1_565
In2_3 Nd1_3 3.325494 1_555
In2_3 Nd1_7 3.325494 1_555
In2_3 Nd1_1 3.326292 1_565
In2_3 Nd1_5 3.326292 1_565
In2_3 Nd0_0 3.578634 1_566
In2_3 Nd0_4 3.578634 1_566
In2_4 Nd1_4 3.325494 1_555
In2_4 Nd1_0 3.325494 1_655
In2_4 Nd1_6 3.326292 1_555
In2_4 Nd1_2 3.326292 1_655
In2_4 Nd0_7 3.578634 1_555
In2_4 Nd0_3 3.578634 1_655
In2_5 Nd1_1 3.325494 1_655
In2_5 Nd1_5 3.325494 1_555
In2_5 Nd1_3 3.326292 1_655
In2_5 Nd1_7 3.326292 1_555
In2_5 Nd0_6 3.578634 1_556
In2_5 Nd0_2 3.578634 1_656
In2_6 Nd1_6 3.325494 1_555
In2_6 Nd1_2 3.325494 1_655
In2_6 Nd1_0 3.326292 1_665
In2_6 Nd1_4 3.326292 1_565
In2_6 Nd0_1 3.578634 1_665
In2_6 Nd0_5 3.578634 1_565
In2_7 Nd1_3 3.325494 1_655
In2_7 Nd1_7 3.325494 1_555
In2_7 Nd1_5 3.326292 1_565
In2_7 Nd1_1 3.326292 1_665
In2_7 Nd0_0 3.578634 1_666
In2_7 Nd0_4 3.578634 1_566
Cu0_0 In2_2 2.673705 1_545
Cu0_0 In1_0 2.710395 1_555
Cu0_0 In1_2 2.711107 1_545
Cu0_0 Nd0_0 3.301977 1_555
Cu0_0 Nd0_4 3.301977 1_555
Cu0_0 Nd1_0 3.383904 1_555
Cu0_0 Nd1_4 3.383904 1_555
Cu0_0 Nd1_6 3.385417 1_545
Cu0_0 Nd1_2 3.385417 1_545
Cu0_1 In2_3 2.673705 1_545
Cu0_1 In1_1 2.710395 1_555
Cu0_1 In1_3 2.711107 1_545
Cu0_1 Nd0_1 3.301977 1_555
Cu0_1 Nd0_5 3.301977 1_555
Cu0_1 Nd1_1 3.383904 1_555
Cu0_1 Nd1_5 3.383904 1_555
Cu0_1 Nd1_3 3.385417 1_545
Cu0_1 Nd1_7 3.385417 1_545
Cu0_2 In2_0 2.673705 1_555
Cu0_2 In1_2 2.710395 1_555
Cu0_2 In1_0 2.711107 1_555
Cu0_2 Nd0_6 3.301977 1_555
Cu0_2 Nd0_2 3.301977 1_555
Cu0_2 Nd1_2 3.383904 1_555
Cu0_2 Nd1_6 3.383904 1_555
Cu0_2 Nd1_4 3.385417 1_555
Cu0_2 Nd1_0 3.385417 1_555
Cu0_3 In2_1 2.673705 1_555
Cu0_3 In1_3 2.710395 1_555
Cu0_3 In1_1 2.711107 1_555
Cu0_3 Nd0_3 3.301977 1_555
Cu0_3 Nd0_7 3.301977 1_555
Cu0_3 Nd1_3 3.383904 1_555
Cu0_3 Nd1_7 3.383904 1_555
Cu0_3 Nd1_1 3.385417 1_555
Cu0_3 Nd1_5 3.385417 1_555
Cu0_4 In2_6 2.673705 1_545
Cu0_4 In1_4 2.710395 1_555
Cu0_4 In1_6 2.711107 1_545
Cu0_4 Nd0_0 3.301977 1_655
Cu0_4 Nd0_4 3.301977 1_555
Cu0_4 Nd1_0 3.383904 1_655
Cu0_4 Nd1_4 3.383904 1_555
Cu0_4 Nd1_6 3.385417 1_545
Cu0_4 Nd1_2 3.385417 1_645
Cu0_5 In2_7 2.673705 1_545
Cu0_5 In1_5 2.710395 1_555
Cu0_5 In1_7 2.711107 1_545
Cu0_5 Nd0_5 3.301977 1_555
Cu0_5 Nd0_1 3.301977 1_655
Cu0_5 Nd1_1 3.383904 1_655
Cu0_5 Nd1_5 3.383904 1_555
Cu0_5 Nd1_3 3.385417 1_645
Cu0_5 Nd1_7 3.385417 1_545
Cu0_6 In2_4 2.673705 1_555
Cu0_6 In1_6 2.710395 1_555
Cu0_6 In1_4 2.711107 1_555
Cu0_6 Nd0_2 3.301977 1_655
Cu0_6 Nd0_6 3.301977 1_555
Cu0_6 Nd1_2 3.383904 1_655
Cu0_6 Nd1_6 3.383904 1_555
Cu0_6 Nd1_4 3.385417 1_555
Cu0_6 Nd1_0 3.385417 1_655
Cu0_7 In2_5 2.673705 1_555
Cu0_7 In1_7 2.710395 1_555
Cu0_7 In1_5 2.711107 1_555
Cu0_7 Nd0_7 3.301977 1_555
Cu0_7 Nd0_3 3.301977 1_655
Cu0_7 Nd1_3 3.383904 1_655
Cu0_7 Nd1_7 3.383904 1_555
Cu0_7 Nd1_1 3.385417 1_655
Cu0_7 Nd1_5 3.385417 1_555
