# generated using pymatgen
data_MgAlCu
_symmetry_space_group_name_H-M   'P 1'
_cell_length_a   12.76845220
_cell_length_b   12.76845220
_cell_length_c   12.76845186
_cell_angle_alpha   23.74511088
_cell_angle_beta   23.74511088
_cell_angle_gamma   23.74510758
_symmetry_Int_Tables_number   1
_chemical_formula_structural   MgAlCu
_chemical_formula_sum   'Mg6 Al6 Cu6'
_cell_volume   296.48948148
_cell_formula_units_Z   6
loop_
 _symmetry_equiv_pos_site_id
 _symmetry_equiv_pos_as_xyz
  1  'x, y, z'
loop_
 _atom_site_type_symbol
 _atom_site_label
 _atom_site_symmetry_multiplicity
 _atom_site_fract_x
 _atom_site_fract_y
 _atom_site_fract_z
 _atom_site_occupancy
  Mg  Mg0  1  0.26899000  0.26899000  0.26899000  1
  Mg  Mg1  1  0.73101000  0.73101000  0.73101000  1
  Mg  Mg2  1  0.96177700  0.96177700  0.96177700  1
  Mg  Mg3  1  0.03822300  0.03822300  0.03822300  1
  Mg  Mg4  1  0.81906600  0.81906600  0.81906600  1
  Mg  Mg5  1  0.18093400  0.18093400  0.18093400  1
  Al  Al0  1  0.27648500  0.27648500  0.77790800  1
  Al  Al1  1  0.77790800  0.27648500  0.27648500  1
  Al  Al2  1  0.27648500  0.77790800  0.27648500  1
  Al  Al3  1  0.72351500  0.72351500  0.22209200  1
  Al  Al4  1  0.22209200  0.72351500  0.72351500  1
  Al  Al5  1  0.72351500  0.22209200  0.72351500  1
  Cu  Cu0  1  0.61164000  0.61164000  0.61164000  1
  Cu  Cu1  1  0.38836000  0.38836000  0.38836000  1
  Cu  Cu2  1  0.50000000  0.50000000  0.00000000  1
  Cu  Cu3  1  0.00000000  0.50000000  0.50000000  1
  Cu  Cu4  1  0.50000000  0.00000000  0.50000000  1
  Cu  Cu5  1  0.50000000  0.50000000  0.50000000  1
loop_
_geom_bond_atom_site_label_1
_geom_bond_atom_site_label_2
_geom_bond_distance
_geom_bond_site_symmetry_2
Mg0 Mg2 3.185211 1_454
Mg0 Mg2 3.185211 1_544
Mg0 Mg2 3.185211 1_445
Mg0 Mg5 3.276454 1_555
Mg1 Mg3 3.185211 1_566
Mg1 Mg3 3.185211 1_656
Mg1 Mg3 3.185211 1_665
Mg1 Mg4 3.276454 1_555
Mg2 Mg3 2.844461 1_666
Mg4 Mg5 3.213761 1_566
Mg4 Mg5 3.213761 1_656
Mg4 Mg5 3.213761 1_665
Al0 Cu1 2.557743 1_555
Al0 Cu5 2.591005 1_555
Al0 Al2 2.619447 1_546
Al0 Al1 2.619447 1_456
Al0 Al2 2.634400 1_555
Al0 Al1 2.634400 1_555
Al0 Mg5 3.032500 1_556
Al0 Mg4 3.058661 1_455
Al0 Mg4 3.058661 1_545
Al0 Mg3 3.078680 1_556
Al0 Mg1 3.134307 1_455
Al0 Mg1 3.134307 1_545
Al1 Cu1 2.557743 1_555
Al1 Cu5 2.591005 1_555
Al1 Al2 2.619447 1_645
Al1 Al2 2.634399 1_555
Al1 Mg5 3.032500 1_655
Al1 Mg4 3.058661 1_545
Al1 Mg4 3.058661 1_554
Al1 Mg3 3.078679 1_655
Al1 Mg1 3.134307 1_554
Al1 Mg1 3.134307 1_545
Al2 Cu1 2.557743 1_555
Al2 Cu5 2.591005 1_555
Al2 Mg5 3.032500 1_565
Al2 Mg4 3.058661 1_455
Al2 Mg4 3.058661 1_554
Al2 Mg3 3.078679 1_565
Al2 Mg1 3.134307 1_554
Al2 Mg1 3.134307 1_455
Al3 Cu0 2.557743 1_555
Al3 Cu5 2.591005 1_555
Al3 Al4 2.619447 1_654
Al3 Al5 2.619447 1_564
Al3 Al4 2.634400 1_555
Al3 Al5 2.634400 1_555
Al3 Mg4 3.032500 1_554
Al3 Mg5 3.058661 1_655
Al3 Mg5 3.058661 1_565
Al3 Mg2 3.078680 1_554
Al3 Mg0 3.134307 1_655
Al3 Mg0 3.134307 1_565
Al4 Cu0 2.557743 1_555
Al4 Cu5 2.591005 1_555
Al4 Al5 2.619447 1_465
Al4 Al5 2.634399 1_555
Al4 Mg4 3.032500 1_455
Al4 Mg5 3.058661 1_565
Al4 Mg5 3.058661 1_556
Al4 Mg2 3.078679 1_455
Al4 Mg0 3.134307 1_556
Al4 Mg0 3.134307 1_565
Al5 Cu0 2.557743 1_555
Al5 Cu5 2.591005 1_555
Al5 Mg4 3.032500 1_545
Al5 Mg5 3.058661 1_655
Al5 Mg5 3.058661 1_556
Al5 Mg2 3.078679 1_545
Al5 Mg0 3.134307 1_556
Al5 Mg0 3.134307 1_655
Cu0 Cu2 2.548017 1_556
Cu0 Cu4 2.548017 1_565
Cu0 Cu3 2.548017 1_655
Cu0 Mg0 3.053054 1_565
Cu0 Mg0 3.053054 1_655
Cu0 Mg0 3.053055 1_556
Cu0 Mg2 3.097079 1_545
Cu0 Mg2 3.097079 1_455
Cu0 Mg2 3.097079 1_554
Cu1 Cu2 2.548017 1_555
Cu1 Cu4 2.548017 1_555
Cu1 Cu3 2.548017 1_555
Cu1 Mg1 3.053054 1_455
Cu1 Mg1 3.053054 1_545
Cu1 Mg1 3.053055 1_554
Cu1 Mg3 3.097079 1_565
Cu1 Mg3 3.097079 1_655
Cu1 Mg3 3.097079 1_556
Cu2 Cu3 2.626923 1_654
Cu2 Cu4 2.626923 1_564
Cu2 Cu4 2.626923 1_555
Cu2 Cu3 2.626923 1_555
Cu2 Mg0 2.834101 1_555
Cu2 Mg1 2.834101 1_554
Cu2 Mg3 2.987217 1_655
Cu2 Mg3 2.987217 1_565
Cu2 Mg2 2.987217 1_544
Cu2 Mg2 2.987217 1_454
Cu3 Cu4 2.626923 1_555
Cu3 Cu4 2.626923 1_465
Cu3 Mg0 2.834101 1_555
Cu3 Mg1 2.834101 1_455
Cu3 Mg3 2.987217 1_556
Cu3 Mg2 2.987217 1_454
Cu3 Mg3 2.987217 1_565
Cu3 Mg2 2.987217 1_445
Cu4 Mg0 2.834101 1_555
Cu4 Mg1 2.834101 1_545
Cu4 Mg3 2.987217 1_556
Cu4 Mg2 2.987217 1_544
Cu4 Mg3 2.987217 1_655
Cu4 Mg2 2.987217 1_445
Cu5 Mg5 3.079414 1_655
Cu5 Mg5 3.079414 1_565
Cu5 Mg4 3.079414 1_455
Cu5 Mg4 3.079414 1_545
Cu5 Mg5 3.079414 1_556
Cu5 Mg4 3.079414 1_554
