# generated using pymatgen
data_Ba3Ta2CoO9
_symmetry_space_group_name_H-M   'P 1'
_cell_length_a   5.75179690
_cell_length_b   5.75179690
_cell_length_c   7.08185059
_cell_angle_alpha   90.00000000
_cell_angle_beta   90.00000000
_cell_angle_gamma   119.99999426
_symmetry_Int_Tables_number   1
_chemical_formula_structural   Ba3Ta2CoO9
_chemical_formula_sum   'Ba3 Ta2 Co1 O9'
_cell_volume   202.90114683
_cell_formula_units_Z   1
loop_
 _symmetry_equiv_pos_site_id
 _symmetry_equiv_pos_as_xyz
  1  'x, y, z'
loop_
 _atom_site_type_symbol
 _atom_site_label
 _atom_site_symmetry_multiplicity
 _atom_site_fract_x
 _atom_site_fract_y
 _atom_site_fract_z
 _atom_site_occupancy
  Ba  Ba0  1  -0.00000000  -0.00000000  0.00000000  1
  Ba  Ba1  1  0.33333300  0.66666700  0.66089186  1
  Ba  Ba2  1  0.66666700  0.33333300  0.33910814  1
  Ta  Ta0  1  0.33333300  0.66666700  0.17784496  1
  Ta  Ta1  1  0.66666700  0.33333300  0.82215504  1
  Co  Co0  1  -0.00000000  -0.00000000  0.50000000  1
  O  O0  1  0.17016379  0.82983621  0.32678383  1
  O  O1  1  0.82983621  0.17016379  0.67321617  1
  O  O2  1  0.17016379  0.34032759  0.32678383  1
  O  O3  1  0.82983621  0.65967241  0.67321617  1
  O  O4  1  0.65967241  0.82983621  0.32678383  1
  O  O5  1  0.34032759  0.17016379  0.67321617  1
  O  O6  1  0.50000000  -0.00000000  0.00000000  1
  O  O7  1  -0.00000000  0.50000000  0.00000000  1
  O  O8  1  0.50000000  0.50000000  0.00000000  1
loop_
_geom_bond_atom_site_label_1
_geom_bond_atom_site_label_2
_geom_bond_distance
_geom_bond_site_symmetry_2
Ba0 O0 2.868714 1_545
Ba0 O1 2.868714 1_454
Ba0 O4 2.868714 1_445
Ba0 O3 2.868714 1_444
Ba0 O2 2.868714 1_555
Ba0 O5 2.868714 1_554
Ba0 O7 2.875898 1_555
Ba0 O6 2.875898 1_455
Ba0 O7 2.875898 1_545
Ba0 O6 2.875898 1_555
Ba0 O8 2.875899 1_555
Ba0 O8 2.875899 1_445
Ba1 O0 2.870694 1_555
Ba1 O4 2.870696 1_555
Ba1 O2 2.870696 1_555
Ba1 O5 2.877431 1_565
Ba1 O3 2.877431 1_455
Ba1 O1 2.877434 1_565
Ba1 O1 2.877434 1_455
Ba1 O3 2.877436 1_555
Ba1 O5 2.877436 1_555
Ba1 O6 2.919622 1_566
Ba1 O7 2.919622 1_556
Ba1 O8 2.919624 1_556
Ba2 O1 2.870694 1_555
Ba2 O5 2.870696 1_555
Ba2 O3 2.870696 1_555
Ba2 O2 2.877431 1_655
Ba2 O4 2.877431 1_545
Ba2 O0 2.877434 1_545
Ba2 O0 2.877434 1_655
Ba2 O4 2.877436 1_555
Ba2 O2 2.877436 1_555
Ba2 O6 2.919622 1_555
Ba2 O7 2.919622 1_655
Ba2 O8 2.919624 1_555
Co0 O0 2.092513 1_545
Co0 O1 2.092513 1_455
Co0 O3 2.092513 1_445
Co0 O5 2.092513 1_555
Co0 O4 2.092513 1_445
Co0 O2 2.092513 1_555
O0 Ta0 1.937772 1_555
O1 Ta1 1.937772 1_555
O2 Ta0 1.937777 1_555
O3 Ta1 1.937777 1_555
O4 Ta0 1.937777 1_555
O5 Ta1 1.937777 1_555
O6 Ta0 2.084033 1_545
O6 Ta1 2.084033 1_554
O7 Ta0 2.084033 1_555
O7 Ta1 2.084033 1_454
O8 Ta0 2.084037 1_555
O8 Ta1 2.084037 1_554
