# generated using pymatgen
data_La2CuTe2O
_symmetry_space_group_name_H-M   'P 1'
_cell_length_a   3.67217000
_cell_length_b   3.67217000
_cell_length_c   15.39542400
_cell_angle_alpha   90.00000000
_cell_angle_beta   90.00000000
_cell_angle_gamma   90.00000000
_symmetry_Int_Tables_number   1
_chemical_formula_structural   La2CuTe2O
_chemical_formula_sum   'La2 Cu1 Te2 O1'
_cell_volume   207.60471404
_cell_formula_units_Z   1
loop_
 _symmetry_equiv_pos_site_id
 _symmetry_equiv_pos_as_xyz
  1  'x, y, z'
loop_
 _atom_site_type_symbol
 _atom_site_label
 _atom_site_symmetry_multiplicity
 _atom_site_fract_x
 _atom_site_fract_y
 _atom_site_fract_z
 _atom_site_occupancy
  La  La0  1  0.50000000  0.50000000  0.63670600  1
  La  La1  1  0.50000000  0.50000000  0.36329400  1
  Cu  Cu0  1  0.50000000  0.50000000  0.00000000  1
  Te  Te0  1  0.50000000  0.50000000  0.15761000  1
  Te  Te1  1  0.50000000  0.50000000  0.84239000  1
  O  O0  1  0.50000000  0.50000000  0.50000000  1
loop_
_geom_bond_atom_site_label_1
_geom_bond_atom_site_label_2
_geom_bond_distance
_geom_bond_site_symmetry_2
La0 O0 2.104647 1_555
La0 Te1 3.166592 1_555
La1 O0 2.104647 1_555
La1 Te0 3.166592 1_555
Cu0 Te1 2.426473 1_554
Cu0 Te0 2.426473 1_555
