# generated using pymatgen
data_Al3P3C4NO13
_symmetry_space_group_name_H-M   'P 1'
_cell_length_a   17.64079200
_cell_length_b   8.68489700
_cell_length_c   10.54076933
_cell_angle_alpha   58.09479833
_cell_angle_beta   90.00000000
_cell_angle_gamma   90.00000000
_symmetry_Int_Tables_number   1
_chemical_formula_structural   Al3P3C4NO13
_chemical_formula_sum   'Al12 P12 C16 N4 O52'
_cell_volume   1370.95665508
_cell_formula_units_Z   4
loop_
 _symmetry_equiv_pos_site_id
 _symmetry_equiv_pos_as_xyz
  1  'x, y, z'
loop_
 _atom_site_type_symbol
 _atom_site_label
 _atom_site_symmetry_multiplicity
 _atom_site_fract_x
 _atom_site_fract_y
 _atom_site_fract_z
 _atom_site_occupancy
  Al  Al0  1  0.70217500  0.23182400  0.21178300  1
  Al  Al1  1  0.79782500  0.23182400  0.71178300  1
  Al  Al2  1  0.29782500  0.76817600  0.78821700  1
  Al  Al3  1  0.20217500  0.76817600  0.28821700  1
  Al  Al4  1  0.82718200  0.67461700  0.81187500  1
  Al  Al5  1  0.67281800  0.67461700  0.31187500  1
  Al  Al6  1  0.17281800  0.32538300  0.18812500  1
  Al  Al7  1  0.32718200  0.32538300  0.68812500  1
  Al  Al8  1  0.88804500  0.02446600  0.33436000  1
  Al  Al9  1  0.61195500  0.02446600  0.83436000  1
  Al  Al10  1  0.11195500  0.97553400  0.66564000  1
  Al  Al11  1  0.38804500  0.97553400  0.16564000  1
  P  P0  1  0.07324000  0.97715700  0.36636300  1
  P  P1  1  0.42676000  0.97715700  0.86636300  1
  P  P2  1  0.92676000  0.02284300  0.63363700  1
  P  P3  1  0.57324000  0.02284300  0.13363700  1
  P  P4  1  0.83622300  0.24549400  0.00249600  1
  P  P5  1  0.66377700  0.24549400  0.50249600  1
  P  P6  1  0.16377700  0.75450600  0.99750400  1
  P  P7  1  0.33622300  0.75450600  0.49750400  1
  P  P8  1  0.71101600  0.67517600  0.03082400  1
  P  P9  1  0.78898400  0.67517600  0.53082400  1
  P  P10  1  0.28898400  0.32482400  0.96917600  1
  P  P11  1  0.21101600  0.32482400  0.46917600  1
  C  C0  1  0.51750300  0.50011900  0.94802300  1
  C  C1  1  0.98249700  0.50011900  0.44802300  1
  C  C2  1  0.48249700  0.49988100  0.05197700  1
  C  C3  1  0.01750300  0.49988100  0.55197700  1
  C  C4  1  0.54971100  0.52886200  0.82772900  1
  C  C5  1  0.95028900  0.52886200  0.32772900  1
  C  C6  1  0.45028900  0.47113800  0.17227100  1
  C  C7  1  0.04971100  0.47113800  0.67227100  1
  C  C8  1  0.51914100  0.92460700  0.52521400  1
  C  C9  1  0.98085900  0.92460700  0.02521400  1
  C  C10  1  0.48085900  0.07539300  0.47478600  1
  C  C11  1  0.01914100  0.07539300  0.97478600  1
  C  C12  1  0.55210900  0.77586300  0.58640200  1
  C  C13  1  0.94789100  0.77586300  0.08640200  1
  C  C14  1  0.44789100  0.22413700  0.41359800  1
  C  C15  1  0.05210900  0.22413700  0.91359800  1
  N  N0  1  0.56705300  0.61829700  0.69626700  1
  N  N1  1  0.93294700  0.61829700  0.19626700  1
  N  N2  1  0.43294700  0.38170300  0.30373300  1
  N  N3  1  0.06705300  0.38170300  0.80373300  1
  O  O0  1  0.09412800  0.18098500  0.26660800  1
  O  O1  1  0.40587200  0.18098500  0.76660800  1
  O  O2  1  0.90587200  0.81901500  0.73339200  1
  O  O3  1  0.59412800  0.81901500  0.23339200  1
  O  O4  1  0.89368400  0.13069900  0.12958800  1
  O  O5  1  0.60631600  0.13069900  0.62958800  1
  O  O6  1  0.10631600  0.86930100  0.87041200  1
  O  O7  1  0.39368400  0.86930100  0.37041200  1
  O  O8  1  0.69233700  0.47511400  0.09396500  1
  O  O9  1  0.80766300  0.47511400  0.59396500  1
  O  O10  1  0.30766300  0.52488600  0.90603500  1
  O  O11  1  0.19233700  0.52488600  0.40603500  1
  O  O12  1  0.08939200  0.90491600  0.53341800  1
  O  O13  1  0.41060800  0.90491600  0.03341800  1
  O  O14  1  0.91060800  0.09508400  0.46658200  1
  O  O15  1  0.58939200  0.09508400  0.96658200  1
  O  O16  1  0.64279500  0.79083100  0.93907500  1
  O  O17  1  0.85720500  0.79083100  0.43907500  1
  O  O18  1  0.35720500  0.20916900  0.06092500  1
  O  O19  1  0.14279500  0.20916900  0.56092500  1
  O  O20  1  0.98915500  0.95362500  0.34542300  1
  O  O21  1  0.51084500  0.95362500  0.84542300  1
  O  O22  1  0.01084500  0.04637500  0.65457700  1
  O  O23  1  0.48915500  0.04637500  0.15457700  1
  O  O24  1  0.72941500  0.70382700  0.16143700  1
  O  O25  1  0.77058500  0.70382700  0.66143700  1
  O  O26  1  0.27058500  0.29617300  0.83856300  1
  O  O27  1  0.22941500  0.29617300  0.33856300  1
  O  O28  1  0.75464100  0.20841200  0.06708400  1
  O  O29  1  0.74535900  0.20841200  0.56708400  1
  O  O30  1  0.24535900  0.79158800  0.93291600  1
  O  O31  1  0.25464100  0.79158800  0.43291600  1
  O  O32  1  0.84056100  0.19353200  0.88485300  1
  O  O33  1  0.65943900  0.19353200  0.38485300  1
  O  O34  1  0.15943900  0.80646800  0.11514700  1
  O  O35  1  0.34056100  0.80646800  0.61514700  1
  O  O36  1  0.11847800  0.86327900  0.32124100  1
  O  O37  1  0.38152200  0.86327900  0.82124100  1
  O  O38  1  0.88152200  0.13672100  0.67875900  1
  O  O39  1  0.61847800  0.13672100  0.17875900  1
  O  O40  1  0.79415100  0.14407000  0.29878200  1
  O  O41  1  0.70584900  0.14407000  0.79878200  1
  O  O42  1  0.20584900  0.85593000  0.70121800  1
  O  O43  1  0.29415100  0.85593000  0.20121800  1
  O  O44  1  0.78155000  0.73489800  0.92781900  1
  O  O45  1  0.71845000  0.73489800  0.42781900  1
  O  O46  1  0.21845000  0.26510200  0.07218100  1
  O  O47  1  0.28155000  0.26510200  0.57218100  1
  O  O48  1  0.85771300  0.44910000  0.92836300  1
  O  O49  1  0.64228700  0.44910000  0.42836300  1
  O  O50  1  0.14228700  0.55090000  0.07163700  1
  O  O51  1  0.35771300  0.55090000  0.57163700  1
loop_
_geom_bond_atom_site_label_1
_geom_bond_atom_site_label_2
_geom_bond_distance
_geom_bond_site_symmetry_2
Al0 O8 1.806450 1_555
Al0 O39 1.813089 1_555
Al0 O40 1.820891 1_555
Al0 O33 1.834586 1_555
Al0 O28 1.884712 1_555
Al1 O9 1.806450 1_555
Al1 O38 1.813089 1_555
Al1 O41 1.820891 1_555
Al1 O32 1.834586 1_555
Al1 O29 1.884712 1_555
Al2 O10 1.806450 1_555
Al2 O37 1.813089 1_555
Al2 O42 1.820891 1_555
Al2 O35 1.834586 1_555
Al2 O30 1.884712 1_555
Al3 O11 1.806450 1_555
Al3 O36 1.813089 1_555
Al3 O43 1.820891 1_555
Al3 O34 1.834586 1_555
Al3 O31 1.884712 1_555
Al4 O2 1.757110 1_555
Al4 O48 1.758346 1_555
Al4 O44 1.758418 1_555
Al4 O25 1.774970 1_555
Al5 O3 1.757110 1_555
Al5 O49 1.758346 1_555
Al5 O45 1.758418 1_555
Al5 O24 1.774970 1_555
Al6 O0 1.757110 1_555
Al6 O50 1.758346 1_555
Al6 O46 1.758418 1_555
Al6 O27 1.774970 1_555
Al7 O1 1.757110 1_555
Al7 O51 1.758346 1_555
Al7 O47 1.758418 1_555
Al7 O26 1.774970 1_555
Al8 O17 1.806692 1_545
Al8 O14 1.838632 1_555
Al8 O4 1.847983 1_555
Al8 O20 1.870223 1_545
Al8 O40 1.884520 1_555
Al9 O16 1.806692 1_545
Al9 O15 1.838632 1_555
Al9 O5 1.847983 1_555
Al9 O21 1.870223 1_545
Al9 O41 1.884520 1_555
Al10 O19 1.806692 1_565
Al10 O12 1.838632 1_555
Al10 O6 1.847983 1_555
Al10 O22 1.870223 1_565
Al10 O42 1.884520 1_555
Al11 O18 1.806692 1_565
Al11 O13 1.838632 1_555
Al11 O7 1.847983 1_555
Al11 O23 1.870223 1_565
Al11 O43 1.884520 1_555
C0 C2 1.256836 1_556
C0 C4 1.287773 1_555
C1 C3 1.256836 1_655
C1 C5 1.287773 1_555
C2 C6 1.287773 1_555
C3 C7 1.287773 1_555
C4 N0 1.216301 1_555
C5 N1 1.216301 1_555
C6 N2 1.216301 1_555
C7 N3 1.216301 1_555
C10 C14 1.241907 1_555
C10 C8 1.310634 1_545
C11 C15 1.241907 1_555
C11 C9 1.310634 1_446
C12 C8 1.241907 1_555
C12 N0 1.268118 1_555
C13 C9 1.241907 1_555
C13 N1 1.268118 1_555
C14 N2 1.268118 1_555
C15 N3 1.268118 1_555
O0 P0 1.551637 1_545
O1 P1 1.551637 1_545
O2 P2 1.551637 1_565
O3 P3 1.551637 1_565
O4 P4 1.550598 1_555
O5 P5 1.550598 1_555
O6 P6 1.550598 1_555
O7 P7 1.550598 1_555
O8 P8 1.532366 1_555
O9 P9 1.532366 1_555
O10 P10 1.532366 1_555
O11 P11 1.532366 1_555
O12 P0 1.551694 1_555
O13 P1 1.551694 1_554
O14 P2 1.551694 1_555
O15 P3 1.551694 1_556
O16 P8 1.538100 1_556
O17 P9 1.538100 1_555
O18 P10 1.538100 1_554
O19 P11 1.538100 1_555
O20 P0 1.529191 1_655
O21 P1 1.529191 1_555
O22 P2 1.529191 1_455
O23 P3 1.529191 1_555
O24 P8 1.557195 1_555
O25 P9 1.557195 1_555
O26 P10 1.557195 1_555
O27 P11 1.557195 1_555
O28 P4 1.551344 1_555
O29 P5 1.551344 1_555
O30 P6 1.551344 1_555
O31 P7 1.551344 1_555
O32 P4 1.529301 1_556
O33 P5 1.529301 1_555
O34 P6 1.529301 1_554
O35 P7 1.529301 1_555
O36 P0 1.529201 1_555
O37 P1 1.529201 1_555
O38 P2 1.529201 1_555
O39 P3 1.529201 1_555
O44 P8 1.549462 1_556
O45 P9 1.549462 1_555
O46 P10 1.549462 1_554
O47 P11 1.549462 1_555
O48 P4 1.555835 1_556
O49 P5 1.555835 1_555
O50 P6 1.555835 1_554
O51 P7 1.555835 1_555
