# generated using pymatgen
data_Li2Mn2P4H3O16
_symmetry_space_group_name_H-M   'P 1'
_cell_length_a   4.86400487
_cell_length_b   8.21834628
_cell_length_c   7.39129605
_cell_angle_alpha   87.87799255
_cell_angle_beta   104.44301656
_cell_angle_gamma   89.83203649
_symmetry_Int_Tables_number   1
_chemical_formula_structural   Li2Mn2P4H3O16
_chemical_formula_sum   'Li2 Mn2 P4 H3 O16'
_cell_volume   285.90375083
_cell_formula_units_Z   1
loop_
 _symmetry_equiv_pos_site_id
 _symmetry_equiv_pos_as_xyz
  1  'x, y, z'
loop_
 _atom_site_type_symbol
 _atom_site_label
 _atom_site_symmetry_multiplicity
 _atom_site_fract_x
 _atom_site_fract_y
 _atom_site_fract_z
 _atom_site_occupancy
  Li  Li0  1  0.39044800  0.86046700  0.84911700  1
  Li  Li1  1  0.58533500  0.13360000  0.14284900  1
  Mn  Mn0  1  0.49737400  0.49726000  0.00133200  1
  Mn  Mn1  1  0.99196500  0.00123200  0.49770700  1
  P  P0  1  0.11376900  0.34164200  0.26604500  1
  P  P1  1  0.37325200  0.84957500  0.25010000  1
  P  P2  1  0.61916800  0.14872500  0.75243100  1
  P  P3  1  0.87368300  0.65530200  0.73813000  1
  H  H0  1  0.42807700  0.45550100  0.50334500  1
  H  H1  1  0.67400600  0.62120900  0.42524000  1
  H  H2  1  0.95650500  0.99966600  0.98242200  1
  O  O0  1  0.97066100  0.82759300  0.68780700  1
  O  O1  1  0.12749700  0.55761700  0.85266500  1
  O  O2  1  0.15798400  0.83815500  0.37447500  1
  O  O3  1  0.22980700  0.41665900  0.45966100  1
  O  O4  1  0.36306000  0.04082700  0.65900200  1
  O  O5  1  0.24684300  0.93410300  0.05757000  1
  O  O6  1  0.34483400  0.32679600  0.15508900  1
  O  O7  1  0.54399400  0.31275700  0.81119100  1
  O  O8  1  0.48824700  0.67817900  0.23299000  1
  O  O9  1  0.64950300  0.67231800  0.85469400  1
  O  O10  1  0.74566900  0.04087900  0.93990900  1
  O  O11  1  0.62028800  0.96639900  0.34351900  1
  O  O12  1  0.73487800  0.56264300  0.55595300  1
  O  O13  1  0.83401400  0.16203000  0.63028500  1
  O  O14  1  0.86509000  0.44745500  0.15733000  1
  O  O15  1  0.00406500  0.16768300  0.30072900  1
loop_
_geom_bond_atom_site_label_1
_geom_bond_atom_site_label_2
_geom_bond_distance
_geom_bond_site_symmetry_2
Li0 O5 1.957399 1_556
Li0 O9 1.984520 1_555
Li0 O4 1.985104 1_565
Li0 O0 2.115744 1_455
Li0 O10 2.268105 1_565
Li1 O11 1.959317 1_545
Li1 O6 1.987488 1_555
Li1 O10 2.025714 1_554
Li1 O15 2.104837 1_655
Li1 O5 2.317495 1_545
Mn0 O14 1.904738 1_555
Mn0 O1 1.912710 1_554
Mn0 O9 2.020620 1_554
Mn0 O6 2.028169 1_555
Mn0 O7 2.154182 1_554
Mn0 O8 2.317452 1_555
Mn1 O11 1.910099 1_545
Mn1 O2 1.931031 1_645
Mn1 O4 1.934934 1_655
Mn1 O13 1.939674 1_555
Mn1 O15 1.972357 1_655
Mn1 O0 1.986558 1_545
H0 O3 0.995139 1_555
H1 O12 1.036719 1_555
H1 O8 1.537060 1_555
H2 O10 1.046164 1_565
H2 O5 1.474875 1_656
O0 P3 1.555053 1_555
O1 P3 1.519146 1_455
O2 P1 1.557111 1_555
O3 P0 1.552766 1_555
O4 P2 1.561311 1_555
O5 P1 1.540621 1_555
O6 P0 1.554674 1_555
O7 P2 1.503099 1_555
O8 P1 1.535200 1_555
O9 P3 1.558044 1_555
O10 P2 1.601519 1_555
O11 P1 1.576184 1_555
O12 P3 1.572990 1_555
O13 P2 1.543720 1_555
O14 P0 1.523883 1_655
O15 P0 1.562028 1_555
