# generated using pymatgen
data_CaSO6
_symmetry_space_group_name_H-M   'P 1'
_cell_length_a   9.61573420
_cell_length_b   9.50232112
_cell_length_c   9.50232112
_cell_angle_alpha   120.55290533
_cell_angle_beta   96.32995803
_cell_angle_gamma   96.32995803
_symmetry_Int_Tables_number   1
_chemical_formula_structural   CaSO6
_chemical_formula_sum   'Ca2 S2 O12'
_cell_volume   728.97683657
_cell_formula_units_Z   2
loop_
 _symmetry_equiv_pos_site_id
 _symmetry_equiv_pos_as_xyz
  1  'x, y, z'
loop_
 _atom_site_type_symbol
 _atom_site_label
 _atom_site_symmetry_multiplicity
 _atom_site_fract_x
 _atom_site_fract_y
 _atom_site_fract_z
 _atom_site_occupancy
  Ca  Ca0  1  0.50000000  0.75693400  0.24306600  1
  Ca  Ca1  1  0.50000000  0.24306600  0.75693400  1
  S  S0  1  0.00000000  0.74728900  0.25271100  1
  S  S1  1  0.00000000  0.25271100  0.74728900  1
  O  O0  1  0.46466900  0.02962900  0.45919800  1
  O  O1  1  0.46466900  0.45919800  0.02962900  1
  O  O2  1  0.53533100  0.97037100  0.54080200  1
  O  O3  1  0.53533100  0.54080200  0.97037100  1
  O  O4  1  0.04884200  0.83670100  0.43172300  1
  O  O5  1  0.04884200  0.43172300  0.83670100  1
  O  O6  1  0.95115800  0.16329900  0.56827700  1
  O  O7  1  0.95115800  0.56827700  0.16329900  1
  O  O8  1  0.50000000  0.88805700  0.11194300  1
  O  O9  1  0.50000000  0.11194300  0.88805700  1
  O  O10  1  0.50000000  0.62706100  0.37293900  1
  O  O11  1  0.50000000  0.37293900  0.62706100  1
loop_
_geom_bond_atom_site_label_1
_geom_bond_atom_site_label_2
_geom_bond_distance
_geom_bond_site_symmetry_2
Ca0 O10 2.143445 1_555
Ca0 O8 2.164075 1_555
Ca0 O3 2.446496 1_554
Ca0 O0 2.446496 1_565
Ca0 O1 2.456737 1_555
Ca0 O2 2.456737 1_555
Ca1 O11 2.143445 1_555
Ca1 O9 2.164075 1_555
Ca1 O2 2.446496 1_545
Ca1 O1 2.446496 1_556
Ca1 O0 2.456737 1_555
Ca1 O3 2.456737 1_555
O0 O2 1.338704 1_545
O1 O3 1.338704 1_554
O4 S0 1.449986 1_555
O5 S1 1.449986 1_555
O6 S1 1.449986 1_655
O7 S0 1.449986 1_655
