# generated using pymatgen
data_GeBiNO7
_symmetry_space_group_name_H-M   'P 1'
_cell_length_a   5.18486000
_cell_length_b   12.27912600
_cell_length_c   19.16602800
_cell_angle_alpha   90.00000000
_cell_angle_beta   90.00000000
_cell_angle_gamma   90.00000000
_symmetry_Int_Tables_number   1
_chemical_formula_structural   GeBiNO7
_chemical_formula_sum   'Ge8 Bi8 N8 O56'
_cell_volume   1220.21569922
_cell_formula_units_Z   8
loop_
 _symmetry_equiv_pos_site_id
 _symmetry_equiv_pos_as_xyz
  1  'x, y, z'
loop_
 _atom_site_type_symbol
 _atom_site_label
 _atom_site_symmetry_multiplicity
 _atom_site_fract_x
 _atom_site_fract_y
 _atom_site_fract_z
 _atom_site_occupancy
  Ge  Ge0  1  0.45895400  0.17540800  0.68989700  1
  Ge  Ge1  1  0.04104600  0.67540800  0.31010300  1
  Ge  Ge2  1  0.95895400  0.82459200  0.81010300  1
  Ge  Ge3  1  0.54104600  0.32459200  0.18989700  1
  Ge  Ge4  1  0.54104600  0.82459200  0.31010300  1
  Ge  Ge5  1  0.95895400  0.32459200  0.68989700  1
  Ge  Ge6  1  0.04104600  0.17540800  0.18989700  1
  Ge  Ge7  1  0.45895400  0.67540800  0.81010300  1
  Bi  Bi0  1  0.57763600  0.08271500  0.33134400  1
  Bi  Bi1  1  0.92236400  0.58271500  0.66865600  1
  Bi  Bi2  1  0.07763600  0.91728500  0.16865600  1
  Bi  Bi3  1  0.42236400  0.41728500  0.83134400  1
  Bi  Bi4  1  0.42236400  0.91728500  0.66865600  1
  Bi  Bi5  1  0.07763600  0.41728500  0.33134400  1
  Bi  Bi6  1  0.92236400  0.08271500  0.83134400  1
  Bi  Bi7  1  0.57763600  0.58271500  0.16865600  1
  N  N0  1  0.39141700  0.62373500  0.58177700  1
  N  N1  1  0.10858300  0.12373500  0.41822300  1
  N  N2  1  0.89141700  0.37626500  0.91822300  1
  N  N3  1  0.60858300  0.87626500  0.08177700  1
  N  N4  1  0.60858300  0.37626500  0.41822300  1
  N  N5  1  0.89141700  0.87626500  0.58177700  1
  N  N6  1  0.10858300  0.62373500  0.08177700  1
  N  N7  1  0.39141700  0.12373500  0.91822300  1
  O  O0  1  0.85493400  0.28766600  0.22167100  1
  O  O1  1  0.64506600  0.78766600  0.77832900  1
  O  O2  1  0.35493400  0.71233400  0.27832900  1
  O  O3  1  0.14506600  0.21233400  0.72167100  1
  O  O4  1  0.14506600  0.71233400  0.77832900  1
  O  O5  1  0.35493400  0.21233400  0.22167100  1
  O  O6  1  0.64506600  0.28766600  0.72167100  1
  O  O7  1  0.85493400  0.78766600  0.27832900  1
  O  O8  1  0.59153500  0.05505900  0.72738800  1
  O  O9  1  0.90846500  0.55505900  0.27261200  1
  O  O10  1  0.09153500  0.94494100  0.77261200  1
  O  O11  1  0.40846500  0.44494100  0.22738800  1
  O  O12  1  0.40846500  0.94494100  0.27261200  1
  O  O13  1  0.09153500  0.44494100  0.72738800  1
  O  O14  1  0.90846500  0.05505900  0.22738800  1
  O  O15  1  0.59153500  0.55505900  0.77261200  1
  O  O16  1  0.42275400  0.14507900  0.59888200  1
  O  O17  1  0.07724600  0.64507900  0.40111800  1
  O  O18  1  0.92275400  0.85492100  0.90111800  1
  O  O19  1  0.57724600  0.35492100  0.09888200  1
  O  O20  1  0.57724600  0.85492100  0.40111800  1
  O  O21  1  0.92275400  0.35492100  0.59888200  1
  O  O22  1  0.07724600  0.14507900  0.09888200  1
  O  O23  1  0.42275400  0.64507900  0.90111800  1
  O  O24  1  0.19004600  0.57065800  0.56383800  1
  O  O25  1  0.30995400  0.07065800  0.43616200  1
  O  O26  1  0.69004600  0.42934200  0.93616200  1
  O  O27  1  0.80995400  0.92934200  0.06383800  1
  O  O28  1  0.80995400  0.42934200  0.43616200  1
  O  O29  1  0.69004600  0.92934200  0.56383800  1
  O  O30  1  0.30995400  0.57065800  0.06383800  1
  O  O31  1  0.19004600  0.07065800  0.93616200  1
  O  O32  1  0.07415000  0.85895800  0.54293200  1
  O  O33  1  0.42585000  0.35895800  0.45706800  1
  O  O34  1  0.57415000  0.14104200  0.95706800  1
  O  O35  1  0.92585000  0.64104200  0.04293200  1
  O  O36  1  0.92585000  0.14104200  0.45706800  1
  O  O37  1  0.57415000  0.64104200  0.54293200  1
  O  O38  1  0.42585000  0.85895800  0.04293200  1
  O  O39  1  0.07415000  0.35895800  0.95706800  1
  O  O40  1  0.60385200  0.34191800  0.35307600  1
  O  O41  1  0.89614800  0.84191800  0.64692400  1
  O  O42  1  0.10385200  0.65808200  0.14692400  1
  O  O43  1  0.39614800  0.15808200  0.85307600  1
  O  O44  1  0.39614800  0.65808200  0.64692400  1
  O  O45  1  0.10385200  0.15808200  0.35307600  1
  O  O46  1  0.89614800  0.34191800  0.85307600  1
  O  O47  1  0.60385200  0.84191800  0.14692400  1
  O  O48  1  0.76289800  0.94536600  0.38542100  1
  O  O49  1  0.73710200  0.44536600  0.61457900  1
  O  O50  1  0.26289800  0.05463400  0.11457900  1
  O  O51  1  0.23710200  0.55463400  0.88542100  1
  O  O52  1  0.23710200  0.05463400  0.61457900  1
  O  O53  1  0.26289800  0.55463400  0.38542100  1
  O  O54  1  0.73710200  0.94536600  0.88542100  1
  O  O55  1  0.76289800  0.44536600  0.11457900  1
loop_
_geom_bond_atom_site_label_1
_geom_bond_atom_site_label_2
_geom_bond_distance
_geom_bond_site_symmetry_2
Ge0 O8 1.781205 1_555
Ge0 O6 1.789437 1_555
Ge0 O16 1.793554 1_555
Ge0 O3 1.795854 1_555
Ge0 O52 2.367750 1_555
Ge1 O9 1.781205 1_455
Ge1 O7 1.789437 1_455
Ge1 O17 1.793554 1_555
Ge1 O2 1.795854 1_555
Ge1 O53 2.367750 1_555
Ge2 O10 1.781205 1_655
Ge2 O4 1.789437 1_655
Ge2 O18 1.793554 1_555
Ge2 O1 1.795854 1_555
Ge2 O54 2.367750 1_555
Ge3 O11 1.781205 1_555
Ge3 O5 1.789437 1_555
Ge3 O19 1.793554 1_555
Ge3 O0 1.795854 1_555
Ge3 O55 2.367750 1_555
Ge4 O12 1.781205 1_555
Ge4 O2 1.789437 1_555
Ge4 O20 1.793554 1_555
Ge4 O7 1.795854 1_555
Ge4 O48 2.367750 1_555
Ge5 O13 1.781205 1_655
Ge5 O3 1.789437 1_655
Ge5 O21 1.793554 1_555
Ge5 O6 1.795854 1_555
Ge5 O49 2.367750 1_555
Ge6 O14 1.781205 1_455
Ge6 O0 1.789437 1_455
Ge6 O22 1.793554 1_555
Ge6 O5 1.795854 1_555
Ge6 O50 2.367750 1_555
Ge7 O15 1.781205 1_555
Ge7 O1 1.789437 1_555
Ge7 O23 1.793554 1_555
Ge7 O4 1.795854 1_555
Ge7 O51 2.367750 1_555
Bi0 O48 2.200284 1_545
Bi0 O12 2.213247 1_545
Bi0 O25 2.446227 1_555
Bi0 O14 2.650912 1_555
Bi0 O45 2.657882 1_555
Bi1 O49 2.200284 1_555
Bi1 O13 2.213247 1_655
Bi1 O24 2.446227 1_655
Bi1 O15 2.650912 1_555
Bi1 O44 2.657882 1_655
Bi2 O50 2.200284 1_565
Bi2 O14 2.213247 1_465
Bi2 O27 2.446227 1_455
Bi2 O12 2.650912 1_555
Bi2 O47 2.657882 1_455
Bi3 O51 2.200284 1_555
Bi3 O15 2.213247 1_555
Bi3 O26 2.446227 1_555
Bi3 O13 2.650912 1_555
Bi3 O46 2.657882 1_555
Bi4 O52 2.200284 1_565
Bi4 O8 2.213247 1_565
Bi4 O29 2.446227 1_555
Bi4 O10 2.650912 1_555
Bi4 O41 2.657882 1_555
Bi5 O53 2.200284 1_555
Bi5 O9 2.213247 1_455
Bi5 O28 2.446227 1_455
Bi5 O11 2.650912 1_555
Bi5 O40 2.657882 1_455
Bi6 O54 2.200284 1_545
Bi6 O10 2.213247 1_645
Bi6 O31 2.446227 1_655
Bi6 O8 2.650912 1_555
Bi6 O43 2.657882 1_655
Bi7 O55 2.200284 1_555
Bi7 O11 2.213247 1_555
Bi7 O30 2.446227 1_555
Bi7 O9 2.650912 1_555
Bi7 O42 2.657882 1_555
N0 O37 1.223561 1_555
N0 O24 1.277920 1_555
N0 O44 1.318143 1_555
N1 O36 1.223561 1_455
N1 O25 1.277920 1_555
N1 O45 1.318143 1_555
N2 O39 1.223561 1_655
N2 O26 1.277920 1_555
N2 O46 1.318143 1_555
N3 O38 1.223561 1_555
N3 O27 1.277920 1_555
N3 O47 1.318143 1_555
N4 O33 1.223561 1_555
N4 O28 1.277920 1_555
N4 O40 1.318143 1_555
N5 O32 1.223561 1_655
N5 O29 1.277920 1_555
N5 O41 1.318143 1_555
N6 O35 1.223561 1_455
N6 O30 1.277920 1_555
N6 O42 1.318143 1_555
N7 O34 1.223561 1_555
N7 O31 1.277920 1_555
N7 O43 1.318143 1_555
O16 O52 1.500157 1_555
O17 O53 1.500157 1_555
O18 O54 1.500157 1_555
O19 O55 1.500157 1_555
O20 O48 1.500157 1_555
O21 O49 1.500157 1_555
O22 O50 1.500157 1_555
O23 O51 1.500157 1_555
