# generated using pymatgen
data_Sr2RhO4
_symmetry_space_group_name_H-M   'P 1'
_cell_length_a   5.55280903
_cell_length_b   5.55280940
_cell_length_c   13.50376751
_cell_angle_alpha   101.13932677
_cell_angle_beta   101.13932935
_cell_angle_gamma   90.06092262
_symmetry_Int_Tables_number   1
_chemical_formula_structural   Sr2RhO4
_chemical_formula_sum   'Sr8 Rh4 O16'
_cell_volume   400.51133930
_cell_formula_units_Z   4
loop_
 _symmetry_equiv_pos_site_id
 _symmetry_equiv_pos_as_xyz
  1  'x, y, z'
loop_
 _atom_site_type_symbol
 _atom_site_label
 _atom_site_symmetry_multiplicity
 _atom_site_fract_x
 _atom_site_fract_y
 _atom_site_fract_z
 _atom_site_occupancy
  Sr  Sr0  1  0.83203900  0.83452100  0.64752500  1
  Sr  Sr1  1  0.08452100  0.58203900  0.14752500  1
  Sr  Sr2  1  0.16919500  0.16770900  0.35224100  1
  Sr  Sr3  1  0.41770900  0.91919500  0.85224100  1
  Sr  Sr4  1  0.33229100  0.33080500  0.64775900  1
  Sr  Sr5  1  0.58080500  0.08229100  0.14775900  1
  Sr  Sr6  1  0.66547900  0.66796100  0.35247500  1
  Sr  Sr7  1  0.91796100  0.41547900  0.85247500  1
  Rh  Rh0  1  0.99989900  0.99923100  0.99998300  1
  Rh  Rh1  1  0.24923100  0.74989900  0.49998300  1
  Rh  Rh2  1  0.50076900  0.50010100  0.00001700  1
  Rh  Rh3  1  0.75010100  0.25076900  0.50001700  1
  O  O0  1  0.05331200  0.44668800  0.50000000  1
  O  O1  1  0.91590700  0.93405500  0.83994700  1
  O  O2  1  0.08106900  0.06227000  0.16000200  1
  O  O3  1  0.18405500  0.66590700  0.33994700  1
  O  O4  1  0.31227000  0.83106900  0.66000200  1
  O  O5  1  0.19337300  0.69366000  0.98943700  1
  O  O6  1  0.30150100  0.19849900  0.00000000  1
  O  O7  1  0.44849900  0.05150100  0.50000000  1
  O  O8  1  0.55662700  0.55634000  0.51056300  1
  O  O9  1  0.43773000  0.41893100  0.83999800  1
  O  O10  1  0.56594500  0.58409300  0.16005300  1
  O  O11  1  0.66893100  0.18773000  0.33999800  1
  O  O12  1  0.83409300  0.31594500  0.66005300  1
  O  O13  1  0.69668800  0.80331200  0.00000000  1
  O  O14  1  0.80634000  0.30662700  0.01056300  1
  O  O15  1  0.94366000  0.94337300  0.48943700  1
loop_
_geom_bond_atom_site_label_1
_geom_bond_atom_site_label_2
_geom_bond_distance
_geom_bond_site_symmetry_2
O0 Rh3 2.003655 1_455
O0 Rh1 2.003655 1_555
O0 Sr4 2.469607 1_555
O0 Sr2 2.469607 1_555
O0 Sr6 3.067547 1_455
O0 Sr0 3.067547 1_455
O1 Rh0 2.080095 1_555
O1 Sr0 2.500224 1_555
O1 Sr7 2.645655 1_565
O1 Sr3 2.761430 1_655
O1 Sr3 2.805279 1_555
O1 Sr7 2.916871 1_555
O2 Rh0 2.079921 1_444
O2 Sr2 2.498498 1_555
O2 Sr1 2.639589 1_545
O2 Sr5 2.754372 1_455
O2 Sr5 2.814904 1_555
O2 Sr1 2.923663 1_555
O3 Rh1 2.080095 1_555
O3 Sr1 2.500224 1_555
O3 Sr6 2.645655 1_555
O3 Sr2 2.761430 1_565
O3 Sr2 2.805280 1_555
O3 Sr6 2.916870 1_455
O4 Rh1 2.079921 1_555
O4 Sr3 2.498498 1_555
O4 Sr0 2.639589 1_455
O4 Sr4 2.754372 1_555
O4 Sr4 2.814905 1_565
O4 Sr0 2.923663 1_555
O5 Rh0 2.005775 1_455
O5 Rh2 2.014485 1_556
O5 Sr7 2.437972 1_455
O5 Sr1 2.513134 1_556
O5 Sr3 2.887459 1_555
O6 Rh0 2.006215 1_444
O6 Rh2 2.006215 1_555
O6 Sr5 2.471212 1_555
O6 Sr3 2.471212 1_544
O6 Sr7 3.041309 1_454
O6 Sr1 3.041309 1_555
O7 Rh3 2.006215 1_555
O7 Rh1 2.006215 1_545
O7 Sr2 2.471212 1_555
O7 Sr4 2.471212 1_555
O7 Sr0 3.041309 1_545
O7 Sr6 3.041309 1_545
O8 Rh3 2.005775 1_555
O8 Rh1 2.014485 1_555
O8 Sr0 2.437972 1_555
O8 Sr6 2.513134 1_555
O8 Sr4 2.887459 1_555
O9 Rh2 2.079921 1_556
O9 Sr4 2.498498 1_555
O9 Sr7 2.639589 1_555
O9 Sr3 2.754372 1_555
O9 Sr3 2.814905 1_545
O9 Sr7 2.923663 1_455
O10 Rh2 2.080095 1_555
O10 Sr6 2.500224 1_555
O10 Sr1 2.645655 1_555
O10 Sr5 2.761430 1_555
O10 Sr5 2.805280 1_565
O10 Sr1 2.916870 1_655
O11 Rh3 2.079921 1_555
O11 Sr5 2.498498 1_555
O11 Sr6 2.639589 1_555
O11 Sr2 2.754372 1_655
O11 Sr2 2.814904 1_555
O11 Sr6 2.923663 1_545
O12 Rh3 2.080095 1_555
O12 Sr7 2.500224 1_555
O12 Sr0 2.645655 1_545
O12 Sr4 2.761430 1_555
O12 Sr4 2.805279 1_655
O12 Sr0 2.916871 1_555
O13 Rh0 2.003655 1_554
O13 Rh2 2.003655 1_555
O13 Sr3 2.469607 1_554
O13 Sr5 2.469607 1_565
O13 Sr1 3.067547 1_655
O13 Sr7 3.067547 1_554
O14 Rh2 2.005775 1_555
O14 Rh0 2.014485 1_544
O14 Sr1 2.437972 1_655
O14 Sr7 2.513134 1_554
O14 Sr5 2.887459 1_555
O15 Rh1 2.005775 1_655
O15 Rh3 2.014485 1_565
O15 Sr6 2.437972 1_555
O15 Sr0 2.513134 1_555
O15 Sr2 2.887459 1_665
