# generated using pymatgen
data_Na2SmCl5
_symmetry_space_group_name_H-M   'P 1'
_cell_length_a   7.68415653
_cell_length_b   8.30175440
_cell_length_c   12.00980329
_cell_angle_alpha   90.00000000
_cell_angle_beta   90.00000000
_cell_angle_gamma   90.00000000
_symmetry_Int_Tables_number   1
_chemical_formula_structural   Na2SmCl5
_chemical_formula_sum   'Na8 Sm4 Cl20'
_cell_volume   766.12913468
_cell_formula_units_Z   4
loop_
 _symmetry_equiv_pos_site_id
 _symmetry_equiv_pos_as_xyz
  1  'x, y, z'
loop_
 _atom_site_type_symbol
 _atom_site_label
 _atom_site_symmetry_multiplicity
 _atom_site_fract_x
 _atom_site_fract_y
 _atom_site_fract_z
 _atom_site_occupancy
  Na  Na0  1  0.52097770  0.50355947  0.67744239  1
  Na  Na1  1  0.47902230  0.49644053  0.32255761  1
  Na  Na2  1  0.02097770  0.49644053  0.82255761  1
  Na  Na3  1  0.47902230  0.00355947  0.32255761  1
  Na  Na4  1  0.97902230  0.50355947  0.17744239  1
  Na  Na5  1  0.52097770  -0.00355947  0.67744239  1
  Na  Na6  1  0.97902230  -0.00355947  0.17744239  1
  Na  Na7  1  0.02097770  0.00355947  0.82255761  1
  Sm  Sm0  1  0.58610235  0.75000000  0.99342052  1
  Sm  Sm1  1  0.41389765  0.25000000  0.00657948  1
  Sm  Sm2  1  0.08610235  0.25000000  0.50657948  1
  Sm  Sm3  1  0.91389765  0.75000000  0.49342052  1
  Cl  Cl0  1  0.35551782  0.75000000  0.81940408  1
  Cl  Cl1  1  0.64448218  0.25000000  0.18059592  1
  Cl  Cl2  1  0.85551782  0.25000000  0.68059592  1
  Cl  Cl3  1  0.14448218  0.75000000  0.31940408  1
  Cl  Cl4  1  0.66277621  0.45425799  0.90866250  1
  Cl  Cl5  1  0.33722379  0.54574201  0.09133750  1
  Cl  Cl6  1  0.16277621  0.54574201  0.59133750  1
  Cl  Cl7  1  0.33722379  0.95425799  0.09133750  1
  Cl  Cl8  1  0.83722379  0.45425799  0.40866250  1
  Cl  Cl9  1  0.66277621  0.04574201  0.90866250  1
  Cl  Cl10  1  0.83722379  0.04574201  0.40866250  1
  Cl  Cl11  1  0.16277621  0.95425799  0.59133750  1
  Cl  Cl12  1  0.94610481  0.75000000  0.99501198  1
  Cl  Cl13  1  0.05389519  0.25000000  0.00498802  1
  Cl  Cl14  1  0.44610481  0.25000000  0.50498802  1
  Cl  Cl15  1  0.55389519  0.75000000  0.49501198  1
  Cl  Cl16  1  0.81685240  0.75000000  0.71508579  1
  Cl  Cl17  1  0.18314760  0.25000000  0.28491421  1
  Cl  Cl18  1  0.31685240  0.25000000  0.78491421  1
  Cl  Cl19  1  0.68314760  0.75000000  0.21508579  1
loop_
_geom_bond_atom_site_label_1
_geom_bond_atom_site_label_2
_geom_bond_distance
_geom_bond_site_symmetry_2
Cl0 Sm0 2.739916 1_555
Cl0 Na5 2.951095 1_565
Cl0 Na0 2.951095 1_555
Cl0 Na7 3.322754 1_565
Cl0 Na2 3.322754 1_555
Cl1 Sm1 2.739916 1_555
Cl1 Na3 2.951095 1_555
Cl1 Na1 2.951095 1_555
Cl1 Na4 3.322754 1_555
Cl1 Na6 3.322754 1_555
Cl2 Sm2 2.739916 1_655
Cl2 Na7 2.951095 1_655
Cl2 Na2 2.951095 1_655
Cl2 Na0 3.322754 1_555
Cl2 Na5 3.322754 1_555
Cl3 Sm3 2.739916 1_455
Cl3 Na4 2.951095 1_455
Cl3 Na6 2.951095 1_465
Cl3 Na3 3.322754 1_565
Cl3 Na1 3.322754 1_555
Cl4 Sm0 2.722352 1_555
Cl4 Sm1 2.813476 1_556
Cl4 Na2 2.961102 1_655
Cl4 Na0 3.010975 1_555
Cl5 Sm1 2.722352 1_555
Cl5 Sm0 2.813476 1_554
Cl5 Na4 2.961102 1_455
Cl5 Na1 3.010975 1_555
Cl6 Sm2 2.722352 1_555
Cl6 Sm3 2.813476 1_455
Cl6 Na0 2.961102 1_555
Cl6 Na2 3.010975 1_555
Cl7 Sm1 2.722352 1_565
Cl7 Sm0 2.813476 1_554
Cl7 Na6 2.961102 1_465
Cl7 Na3 3.010975 1_565
Cl8 Sm3 2.722352 1_555
Cl8 Sm2 2.813476 1_655
Cl8 Na1 2.961102 1_555
Cl8 Na4 3.010975 1_555
Cl9 Sm0 2.722352 1_545
Cl9 Sm1 2.813476 1_556
Cl9 Na7 2.961102 1_655
Cl9 Na5 3.010975 1_555
Cl10 Sm3 2.722352 1_545
Cl10 Sm2 2.813476 1_655
Cl10 Na3 2.961102 1_555
Cl10 Na6 3.010975 1_555
Cl11 Sm2 2.722352 1_565
Cl11 Sm3 2.813476 1_455
Cl11 Na5 2.961102 1_565
Cl11 Na7 3.010975 1_565
Cl12 Sm0 2.766381 1_555
Cl12 Na6 3.008308 1_566
Cl12 Na4 3.008308 1_556
Cl12 Na7 3.008591 1_665
Cl12 Na2 3.008591 1_655
Cl13 Sm1 2.766381 1_555
Cl13 Na7 3.008308 1_554
Cl13 Na2 3.008308 1_554
Cl13 Na6 3.008591 1_455
Cl13 Na4 3.008591 1_455
Cl14 Sm2 2.766381 1_555
Cl14 Na3 3.008308 1_555
Cl14 Na1 3.008308 1_555
Cl14 Na0 3.008591 1_555
Cl14 Na5 3.008591 1_555
Cl15 Sm3 2.766381 1_555
Cl15 Na5 3.008308 1_565
Cl15 Na0 3.008308 1_555
Cl15 Na3 3.008591 1_565
Cl15 Na1 3.008591 1_555
Cl16 Sm3 2.764627 1_555
Cl16 Na7 2.925271 1_665
Cl16 Na2 2.925271 1_655
Cl16 Na5 3.091774 1_565
Cl16 Na0 3.091774 1_555
Cl17 Sm2 2.764627 1_555
Cl17 Na6 2.925271 1_455
Cl17 Na4 2.925271 1_455
Cl17 Na1 3.091774 1_555
Cl17 Na3 3.091774 1_555
Cl18 Sm1 2.764627 1_556
Cl18 Na5 2.925271 1_555
Cl18 Na0 2.925271 1_555
Cl18 Na2 3.091774 1_555
Cl18 Na7 3.091774 1_555
Cl19 Sm0 2.764627 1_554
Cl19 Na3 2.925271 1_565
Cl19 Na1 2.925271 1_555
Cl19 Na4 3.091774 1_555
Cl19 Na6 3.091774 1_565
