# generated using pymatgen
data_Li7Mn2(CoO4)3
_symmetry_space_group_name_H-M   'P 1'
_cell_length_a   2.89016500
_cell_length_b   5.14726465
_cell_length_c   14.88654638
_cell_angle_alpha   99.94665723
_cell_angle_beta   94.72920981
_cell_angle_gamma   90.85167648
_symmetry_Int_Tables_number   1
_chemical_formula_structural   Li7Mn2(CoO4)3
_chemical_formula_sum   'Li7 Mn2 Co3 O12'
_cell_volume   217.29192081
_cell_formula_units_Z   1
loop_
 _symmetry_equiv_pos_site_id
 _symmetry_equiv_pos_as_xyz
  1  'x, y, z'
loop_
 _atom_site_type_symbol
 _atom_site_label
 _atom_site_symmetry_multiplicity
 _atom_site_fract_x
 _atom_site_fract_y
 _atom_site_fract_z
 _atom_site_occupancy
  Li  Li0  1  0.06896400  0.56799000  0.14615300  1
  Li  Li1  1  0.75284800  0.24645300  0.50475400  1
  Li  Li2  1  0.42999100  0.92320700  0.83877500  1
  Li  Li3  1  0.56722900  0.07840300  0.15811500  1
  Li  Li4  1  0.25249900  0.74177600  0.50761100  1
  Li  Li5  1  0.92239200  0.43378200  0.84353100  1
  Li  Li6  1  0.50053300  0.49944600  0.99877200  1
  Mn  Mn0  1  0.00161300  0.00055200  0.00017100  1
  Mn  Mn1  1  0.16298500  0.16638900  0.33227700  1
  Co  Co0  1  0.66480900  0.66523600  0.33194800  1
  Co  Co1  1  0.33356800  0.33570200  0.66843800  1
  Co  Co2  1  0.83508300  0.83523800  0.66895000  1
  O  O0  1  0.53467500  0.80950000  0.07499300  1
  O  O1  1  0.20246600  0.44187600  0.40743300  1
  O  O2  1  0.89093400  0.14271300  0.74194400  1
  O  O3  1  0.03746100  0.26447000  0.07731500  1
  O  O4  1  0.69453000  0.98176100  0.40697500  1
  O  O5  1  0.39272400  0.63907600  0.74415600  1
  O  O6  1  0.63200200  0.34986000  0.25911100  1
  O  O7  1  0.28090600  0.02808000  0.58980400  1
  O  O8  1  0.96408200  0.73887500  0.92282100  1
  O  O9  1  0.12945700  0.88932900  0.26087700  1
  O  O10  1  0.77742900  0.53201500  0.58844900  1
  O  O11  1  0.47082100  0.18827100  0.92662700  1
loop_
_geom_bond_atom_site_label_1
_geom_bond_atom_site_label_2
_geom_bond_distance
_geom_bond_site_symmetry_2
Li0 O3 1.710703 1_555
Li0 O9 2.156241 1_555
Li0 O0 2.262625 1_555
Li0 O0 2.300929 1_455
Li1 O10 1.751435 1_555
Li1 O4 1.808594 1_545
Li1 O7 2.328017 1_655
Li1 O7 2.336179 1_555
Li1 O1 2.361019 1_655
Li1 O1 2.410827 1_555
Li2 O11 1.714384 1_565
Li2 O5 1.842054 1_555
Li2 O8 2.220079 1_455
Li2 O8 2.232384 1_555
Li2 O2 2.442078 1_565
Li2 O2 2.454862 1_465
Li3 O0 1.685539 1_545
Li3 O6 1.862236 1_555
Li3 O3 2.199979 1_655
Li3 O3 2.201424 1_555
Li3 O9 2.384330 1_545
Li3 O9 2.465603 1_645
Li4 O7 1.741413 1_565
Li4 O1 1.946876 1_555
Li4 O10 2.260999 1_555
Li4 O10 2.275163 1_455
Li4 O4 2.512041 1_555
Li4 O4 2.582821 1_455
Li5 O8 1.790100 1_555
Li5 O2 1.931437 1_555
Li5 O11 2.363832 1_555
Li5 O5 2.421412 1_555
Li5 O11 2.432246 1_655
Li5 O5 2.445776 1_655
Li6 O11 1.764287 1_555
Li6 O0 1.787589 1_556
Li6 O8 2.296548 1_555
Li6 O3 2.306427 1_556
Li6 O8 2.334554 1_455
Li6 O3 2.341629 1_656
Mn0 O8 1.609696 1_444
Mn0 O3 1.616240 1_555
Mn0 O11 2.131320 1_554
Mn0 O0 2.148428 1_445
Mn0 O11 2.149000 1_454
Mn0 O0 2.172959 1_545
Mn1 O9 1.621162 1_545
Mn1 O1 1.643645 1_555
Mn1 O6 2.115749 1_555
Mn1 O4 2.132560 1_445
Mn1 O6 2.134495 1_455
Mn1 O4 2.150934 1_545
Co0 O6 1.786130 1_555
Co0 O4 1.805722 1_555
Co0 O9 2.205239 1_655
Co0 O1 2.240160 1_555
Co0 O9 2.246902 1_555
Co0 O1 2.282690 1_655
Co1 O5 1.757957 1_555
Co1 O7 1.795486 1_555
Co1 O2 2.095064 1_455
Co1 O10 2.171093 1_555
Co1 O2 2.216195 1_555
Co1 O10 2.273950 1_455
Co2 O2 1.755274 1_565
Co2 O10 1.792505 1_555
Co2 O5 2.120282 1_555
Co2 O7 2.156390 1_665
Co2 O5 2.238696 1_655
Co2 O7 2.253639 1_565
