# generated using pymatgen
data_Tm4Al
_symmetry_space_group_name_H-M   'P 1'
_cell_length_a   7.78860725
_cell_length_b   7.78860725
_cell_length_c   7.78860725
_cell_angle_alpha   60.00000000
_cell_angle_beta   60.00000000
_cell_angle_gamma   60.00000000
_symmetry_Int_Tables_number   1
_chemical_formula_structural   Tm4Al
_chemical_formula_sum   'Tm8 Al2'
_cell_volume   334.09072217
_cell_formula_units_Z   2
loop_
 _symmetry_equiv_pos_site_id
 _symmetry_equiv_pos_as_xyz
  1  'x, y, z'
loop_
 _atom_site_type_symbol
 _atom_site_label
 _atom_site_symmetry_multiplicity
 _atom_site_fract_x
 _atom_site_fract_y
 _atom_site_fract_z
 _atom_site_occupancy
  Tm  Tm0  1  0.60586600  0.60586600  0.60586600  1
  Tm  Tm1  1  0.18240200  0.60586600  0.60586600  1
  Tm  Tm2  1  0.60586600  0.18240200  0.60586600  1
  Tm  Tm3  1  0.56759800  0.14413400  0.14413400  1
  Tm  Tm4  1  0.14413400  0.14413400  0.14413400  1
  Tm  Tm5  1  0.60586600  0.60586600  0.18240200  1
  Tm  Tm6  1  0.14413400  0.56759800  0.14413400  1
  Tm  Tm7  1  0.14413400  0.14413400  0.56759800  1
  Al  Al0  1  0.00000000  0.00000000  0.00000000  1
  Al  Al1  1  0.75000000  0.75000000  0.75000000  1
loop_
_geom_bond_atom_site_label_1
_geom_bond_atom_site_label_2
_geom_bond_distance
_geom_bond_site_symmetry_2
Tm0 Tm5 3.298195 1_555
Tm0 Tm1 3.298195 1_555
Tm0 Tm2 3.298195 1_555
Tm0 Tm6 3.917049 1_556
Tm0 Tm7 3.917049 1_565
Tm0 Tm7 3.917049 1_655
Tm0 Tm6 3.917049 1_655
Tm0 Tm3 3.917049 1_565
Tm0 Tm3 3.917049 1_556
Tm1 Tm5 3.298195 1_555
Tm1 Tm2 3.298195 1_555
Tm1 Tm7 3.917049 1_565
Tm1 Tm6 3.917049 1_556
Tm1 Tm4 3.917049 1_556
Tm1 Tm4 3.917049 1_565
Tm1 Tm7 3.917049 1_555
Tm1 Tm6 3.917049 1_555
Tm2 Tm5 3.298195 1_555
Tm2 Tm7 3.917049 1_655
Tm2 Tm3 3.917049 1_556
Tm2 Tm4 3.917049 1_556
Tm2 Tm4 3.917049 1_655
Tm2 Tm7 3.917049 1_555
Tm2 Tm3 3.917049 1_555
Tm3 Tm7 3.298195 1_555
Tm3 Tm6 3.298195 1_555
Tm3 Tm4 3.298195 1_555
Tm3 Tm5 3.917049 1_545
Tm3 Tm5 3.917049 1_555
Tm4 Tm7 3.298195 1_555
Tm4 Tm6 3.298195 1_555
Tm4 Tm5 3.917049 1_545
Tm4 Tm5 3.917049 1_455
Tm5 Tm6 3.917049 1_655
Tm5 Tm6 3.917049 1_555
Tm6 Tm7 3.298195 1_555
Al0 Tm4 2.749805 1_555
Al0 Tm6 2.749805 1_545
Al0 Tm7 2.749805 1_554
Al0 Tm3 2.749805 1_455
Al1 Tm5 2.749805 1_556
Al1 Tm2 2.749805 1_565
Al1 Tm1 2.749805 1_655
Al1 Tm0 2.749805 1_555
