# generated using pymatgen
data_VZn2IO7
_symmetry_space_group_name_H-M   'P 1'
_cell_length_a   10.18096700
_cell_length_b   5.34606800
_cell_length_c   5.60723737
_cell_angle_alpha   78.47427760
_cell_angle_beta   90.00000000
_cell_angle_gamma   90.00000000
_symmetry_Int_Tables_number   1
_chemical_formula_structural   VZn2IO7
_chemical_formula_sum   'V2 Zn4 I2 O14'
_cell_volume   299.03735546
_cell_formula_units_Z   2
loop_
 _symmetry_equiv_pos_site_id
 _symmetry_equiv_pos_as_xyz
  1  'x, y, z'
loop_
 _atom_site_type_symbol
 _atom_site_label
 _atom_site_symmetry_multiplicity
 _atom_site_fract_x
 _atom_site_fract_y
 _atom_site_fract_z
 _atom_site_occupancy
  V  V0  1  0.64402100  0.74093900  0.10621000  1
  V  V1  1  0.35597900  0.74093900  0.60621000  1
  Zn  Zn0  1  0.56120300  0.23840000  0.58611000  1
  Zn  Zn1  1  0.43879700  0.23840000  0.08611000  1
  Zn  Zn2  1  0.86535100  0.60563900  0.63514700  1
  Zn  Zn3  1  0.13464900  0.60563900  0.13514700  1
  I  I0  1  0.86953900  0.17863100  0.31652400  1
  I  I1  1  0.13046100  0.17863100  0.81652400  1
  O  O0  1  0.75214500  0.62468500  0.92445300  1
  O  O1  1  0.24785500  0.62468500  0.42445300  1
  O  O2  1  0.73480900  0.83762800  0.34424000  1
  O  O3  1  0.26519100  0.83762800  0.84424000  1
  O  O4  1  0.56201500  0.01295300  0.94012800  1
  O  O5  1  0.43798500  0.01295300  0.44012800  1
  O  O6  1  0.46210800  0.49225800  0.73876500  1
  O  O7  1  0.53789200  0.49225800  0.23876500  1
  O  O8  1  0.75779800  0.28433100  0.54504400  1
  O  O9  1  0.24220200  0.28433100  0.04504400  1
  O  O10  1  0.98192000  0.44361400  0.36398100  1
  O  O11  1  0.01808000  0.44361400  0.86398100  1
  O  O12  1  0.96230400  0.94432200  0.53832900  1
  O  O13  1  0.03769600  0.94432200  0.03832900  1
loop_
_geom_bond_atom_site_label_1
_geom_bond_atom_site_label_2
_geom_bond_distance
_geom_bond_site_symmetry_2
I0 O12 1.839920 1_545
I0 O10 1.880779 1_555
I0 O8 1.882756 1_555
I0 O2 2.261828 1_545
I1 O13 1.839920 1_546
I1 O11 1.880779 1_555
I1 O9 1.882756 1_556
I1 O3 2.261828 1_545
O0 V0 1.699952 1_556
O0 Zn2 2.009053 1_555
O1 V1 1.699952 1_555
O1 Zn3 2.009053 1_555
O2 V0 1.782874 1_555
O2 Zn2 2.270870 1_555
O3 V1 1.782874 1_555
O3 Zn3 2.270870 1_556
O4 V0 1.771395 1_546
O4 Zn1 2.022532 1_556
O4 Zn0 2.106442 1_555
O5 V1 1.771395 1_545
O5 Zn0 2.022532 1_555
O5 Zn1 2.106442 1_555
O6 V1 1.758555 1_555
O6 Zn0 2.014099 1_555
O6 Zn1 2.152953 1_556
O7 V0 1.758555 1_555
O7 Zn1 2.014099 1_555
O7 Zn0 2.152953 1_555
O8 Zn0 2.024064 1_555
O8 Zn2 2.179836 1_555
O9 Zn1 2.024064 1_555
O9 Zn3 2.179836 1_555
O10 Zn3 2.090542 1_655
O10 Zn2 2.235389 1_555
O11 Zn2 2.090542 1_455
O11 Zn3 2.235389 1_556
O12 Zn2 2.038281 1_555
O13 Zn3 2.038281 1_555
