# generated using pymatgen
data_SmCoSb2
_symmetry_space_group_name_H-M   'P 1'
_cell_length_a   4.36486200
_cell_length_b   4.36486200
_cell_length_c   9.67248600
_cell_angle_alpha   90.00000000
_cell_angle_beta   90.00000000
_cell_angle_gamma   90.00000000
_symmetry_Int_Tables_number   1
_chemical_formula_structural   SmCoSb2
_chemical_formula_sum   'Sm2 Co2 Sb4'
_cell_volume   184.28039942
_cell_formula_units_Z   2
loop_
 _symmetry_equiv_pos_site_id
 _symmetry_equiv_pos_as_xyz
  1  'x, y, z'
loop_
 _atom_site_type_symbol
 _atom_site_label
 _atom_site_symmetry_multiplicity
 _atom_site_fract_x
 _atom_site_fract_y
 _atom_site_fract_z
 _atom_site_occupancy
  Sm  Sm0  1  0.00000000  0.50000000  0.74312100  1
  Sm  Sm1  1  0.50000000  0.00000000  0.25687900  1
  Co  Co0  1  0.50000000  0.50000000  0.50000000  1
  Co  Co1  1  0.00000000  0.00000000  0.50000000  1
  Sb  Sb0  1  0.50000000  0.50000000  0.00000000  1
  Sb  Sb1  1  0.00000000  0.00000000  0.00000000  1
  Sb  Sb2  1  0.00000000  0.50000000  0.36503200  1
  Sb  Sb3  1  0.50000000  0.00000000  0.63496800  1
loop_
_geom_bond_atom_site_label_1
_geom_bond_atom_site_label_2
_geom_bond_distance
_geom_bond_site_symmetry_2
Co0 Sb3 2.543083 1_555
Co0 Sb2 2.543083 1_655
Co0 Sb3 2.543083 1_565
Co0 Sb2 2.543083 1_555
Co0 Sm1 3.208263 1_555
Co0 Sm1 3.208263 1_565
Co0 Sm0 3.208263 1_555
Co0 Sm0 3.208263 1_655
Co1 Sb3 2.543083 1_555
Co1 Sb3 2.543083 1_455
Co1 Sb2 2.543083 1_545
Co1 Sb2 2.543083 1_555
Co1 Sm1 3.208263 1_555
Co1 Sm1 3.208263 1_455
Co1 Sm0 3.208263 1_555
Co1 Sm0 3.208263 1_545
Sb0 Sb1 3.086424 1_565
Sb0 Sb1 3.086424 1_655
Sb0 Sb1 3.086424 1_665
Sb0 Sb1 3.086424 1_555
Sb0 Sm1 3.307043 1_555
Sb0 Sm0 3.307043 1_654
Sb0 Sm1 3.307043 1_565
Sb0 Sm0 3.307043 1_554
Sb1 Sm1 3.307043 1_555
Sb1 Sm1 3.307043 1_455
Sb1 Sm0 3.307043 1_544
Sb1 Sm0 3.307043 1_554
Sb2 Sm1 3.258888 1_565
Sb2 Sm1 3.258888 1_465
Sb2 Sm1 3.258888 1_555
Sb2 Sm1 3.258888 1_455
Sb3 Sm0 3.258888 1_645
Sb3 Sm0 3.258888 1_555
Sb3 Sm0 3.258888 1_545
Sb3 Sm0 3.258888 1_655
