# generated using pymatgen
data_Mg14ZnCu
_symmetry_space_group_name_H-M   'P 1'
_cell_length_a   6.24905681
_cell_length_b   6.24905632
_cell_length_c   9.97630643
_cell_angle_alpha   90.00000000
_cell_angle_beta   90.00000000
_cell_angle_gamma   120.00000256
_symmetry_Int_Tables_number   1
_chemical_formula_structural   Mg14ZnCu
_chemical_formula_sum   'Mg14 Zn1 Cu1'
_cell_volume   337.38775173
_cell_formula_units_Z   1
loop_
 _symmetry_equiv_pos_site_id
 _symmetry_equiv_pos_as_xyz
  1  'x, y, z'
loop_
 _atom_site_type_symbol
 _atom_site_label
 _atom_site_symmetry_multiplicity
 _atom_site_fract_x
 _atom_site_fract_y
 _atom_site_fract_z
 _atom_site_occupancy
  Mg  Mg0  1  0.16578697  0.83289299  0.12500000  1
  Mg  Mg1  1  0.16418769  0.83209334  0.62500000  1
  Mg  Mg2  1  0.66710701  0.33421303  0.12500000  1
  Mg  Mg3  1  0.66790666  0.33581231  0.62500000  1
  Mg  Mg4  1  0.66710701  0.83289299  0.12500000  1
  Mg  Mg5  1  0.66790666  0.83209334  0.62500000  1
  Mg  Mg6  1  0.32862419  0.17137581  0.37784162  1
  Mg  Mg7  1  0.32862419  0.17137581  0.87215838  1
  Mg  Mg8  1  0.32862419  0.65724938  0.37784162  1
  Mg  Mg9  1  0.32862419  0.65724938  0.87215838  1
  Mg  Mg10  1  0.84275062  0.17137581  0.37784162  1
  Mg  Mg11  1  0.84275062  0.17137581  0.87215838  1
  Mg  Mg12  1  0.83333300  0.66666700  0.37477283  1
  Mg  Mg13  1  0.83333300  0.66666700  0.87522717  1
  Zn  Zn0  1  0.16666700  0.33333300  0.12500000  1
  Cu  Cu0  1  0.16666700  0.33333300  0.62500000  1
loop_
_geom_bond_atom_site_label_1
_geom_bond_atom_site_label_2
_geom_bond_distance
_geom_bond_site_symmetry_2
Mg0 Mg13 3.073467 1_454
Mg0 Mg12 3.073467 1_455
Mg0 Mg2 3.116279 1_455
Mg0 Mg4 3.116279 1_455
Mg0 Mg8 3.117650 1_555
Mg0 Mg9 3.117650 1_554
Mg0 Mg6 3.117656 1_565
Mg0 Mg7 3.117656 1_564
Mg0 Zn0 3.124532 1_565
Mg0 Zn0 3.124532 1_555
Mg0 Mg2 3.132777 1_565
Mg0 Mg4 3.132777 1_555
Mg1 Mg12 3.072090 1_455
Mg1 Mg13 3.072090 1_455
Mg1 Mg9 3.074452 1_555
Mg1 Mg8 3.074452 1_555
Mg1 Mg7 3.074458 1_565
Mg1 Mg6 3.074458 1_565
Mg1 Mg3 3.101288 1_455
Mg1 Mg5 3.101288 1_455
Mg1 Mg3 3.147768 1_565
Mg1 Mg5 3.147768 1_555
Mg2 Mg4 3.116279 1_555
Mg2 Mg6 3.117656 1_555
Mg2 Mg7 3.117656 1_554
Mg2 Zn0 3.124532 1_555
Mg2 Zn0 3.124532 1_655
Mg2 Mg4 3.132777 1_545
Mg3 Mg6 3.074458 1_555
Mg3 Mg7 3.074458 1_555
Mg3 Mg5 3.101288 1_555
Mg3 Mg5 3.147768 1_545
Mg4 Mg8 3.117656 1_555
Mg4 Mg9 3.117656 1_554
Mg4 Zn0 3.124532 1_665
Mg4 Zn0 3.124532 1_555
Mg5 Mg9 3.074458 1_555
Mg5 Mg8 3.074458 1_555
Mg6 Mg8 3.036251 1_555
Mg6 Zn0 3.071733 1_555
Mg6 Mg8 3.212805 1_545
Mg7 Mg9 3.036251 1_555
Mg7 Zn0 3.071733 1_556
Mg7 Mg9 3.212805 1_545
Mg8 Zn0 3.071739 1_555
Mg9 Zn0 3.071739 1_556
Mg10 Mg8 3.036251 1_655
Mg10 Mg6 3.036252 1_655
Mg10 Zn0 3.071740 1_655
Mg10 Mg3 3.074452 1_555
Mg10 Mg5 3.074458 1_545
Mg10 Mg2 3.117650 1_555
Mg10 Mg4 3.117656 1_545
Mg10 Mg12 3.125094 1_545
Mg10 Mg12 3.125094 1_555
Mg10 Mg8 3.212805 1_545
Mg10 Mg6 3.212805 1_555
Mg11 Mg9 3.036251 1_655
Mg11 Mg7 3.036252 1_655
Mg11 Zn0 3.071740 1_656
Mg11 Mg3 3.074452 1_555
Mg11 Mg5 3.074458 1_545
Mg11 Mg2 3.117650 1_556
Mg11 Mg4 3.117656 1_546
Mg11 Mg13 3.125094 1_545
Mg11 Mg13 3.125094 1_555
Mg11 Mg9 3.212805 1_545
Mg11 Mg7 3.212805 1_555
Mg12 Mg5 3.072084 1_555
Mg12 Mg3 3.072090 1_555
Mg12 Mg4 3.073460 1_555
Mg12 Mg2 3.073467 1_555
Mg12 Mg6 3.125094 1_665
Mg12 Mg6 3.125094 1_555
Mg12 Mg8 3.125094 1_655
Mg12 Mg8 3.125094 1_555
Mg13 Mg5 3.072084 1_555
Mg13 Mg3 3.072090 1_555
Mg13 Mg4 3.073460 1_556
Mg13 Mg2 3.073467 1_556
Mg13 Mg7 3.125094 1_665
Mg13 Mg7 3.125094 1_555
Mg13 Mg9 3.125094 1_655
Mg13 Mg9 3.125094 1_555
Cu0 Mg7 3.025348 1_555
Cu0 Mg6 3.025348 1_555
Cu0 Mg9 3.025354 1_555
Cu0 Mg8 3.025354 1_555
Cu0 Mg11 3.025354 1_455
Cu0 Mg10 3.025354 1_455
Cu0 Mg1 3.124557 1_555
Cu0 Mg5 3.124557 1_445
Cu0 Mg5 3.124557 1_555
Cu0 Mg1 3.124557 1_545
Cu0 Mg3 3.124557 1_455
Cu0 Mg3 3.124557 1_555
