# generated using pymatgen
data_K2NiO2
_symmetry_space_group_name_H-M   'P 1'
_cell_length_a   3.92366929
_cell_length_b   3.92366933
_cell_length_c   6.94785951
_cell_angle_alpha   106.40143450
_cell_angle_beta   106.40142832
_cell_angle_gamma   90.00000766
_symmetry_Int_Tables_number   1
_chemical_formula_structural   K2NiO2
_chemical_formula_sum   'K2 Ni1 O2'
_cell_volume   98.06519351
_cell_formula_units_Z   1
loop_
 _symmetry_equiv_pos_site_id
 _symmetry_equiv_pos_as_xyz
  1  'x, y, z'
loop_
 _atom_site_type_symbol
 _atom_site_label
 _atom_site_symmetry_multiplicity
 _atom_site_fract_x
 _atom_site_fract_y
 _atom_site_fract_z
 _atom_site_occupancy
  K  K0  1  0.65440690  0.65440690  0.30881479  1
  K  K1  1  0.34559210  0.34559310  0.69118521  1
  Ni  Ni0  1  -0.00000000  0.00000000  -0.00000000  1
  O  O0  1  0.13271130  0.13271030  0.26542161  1
  O  O1  1  0.86729070  0.86728870  0.73457739  1
loop_
_geom_bond_atom_site_label_1
_geom_bond_atom_site_label_2
_geom_bond_distance
_geom_bond_site_symmetry_2
K0 O1 2.712049 1_555
K0 O0 2.788185 1_555
K0 O0 2.788185 1_565
K0 O0 2.788191 1_665
K0 O0 2.788191 1_655
K1 O0 2.712056 1_555
K1 O1 2.788179 1_455
K1 O1 2.788182 1_445
K1 O1 2.788193 1_555
K1 O1 2.788196 1_545
Ni0 O0 1.690699 1_555
Ni0 O1 1.690706 1_444
