# generated using pymatgen
data_Ho2B6Rh
_symmetry_space_group_name_H-M   'P 1'
_cell_length_a   3.64162725
_cell_length_b   9.14219883
_cell_length_c   11.46898688
_cell_angle_alpha   90.00000000
_cell_angle_beta   90.00000000
_cell_angle_gamma   90.00000000
_symmetry_Int_Tables_number   1
_chemical_formula_structural   Ho2B6Rh
_chemical_formula_sum   'Ho8 B24 Rh4'
_cell_volume   381.83102073
_cell_formula_units_Z   4
loop_
 _symmetry_equiv_pos_site_id
 _symmetry_equiv_pos_as_xyz
  1  'x, y, z'
loop_
 _atom_site_type_symbol
 _atom_site_label
 _atom_site_symmetry_multiplicity
 _atom_site_fract_x
 _atom_site_fract_y
 _atom_site_fract_z
 _atom_site_occupancy
  Ho  Ho0  1  0.50000000  0.32304577  0.41347933  1
  Ho  Ho1  1  0.50000000  0.67695423  0.58652067  1
  Ho  Ho2  1  0.50000000  0.17695423  0.91347933  1
  Ho  Ho3  1  0.50000000  0.82304577  0.08652067  1
  Ho  Ho4  1  0.50000000  0.44443713  0.12616347  1
  Ho  Ho5  1  0.50000000  0.55556287  0.87383653  1
  Ho  Ho6  1  0.50000000  0.05556287  0.62616347  1
  Ho  Ho7  1  0.50000000  0.94443713  0.37383653  1
  B  B0  1  0.00000000  0.11199785  0.46944346  1
  B  B1  1  0.00000000  0.88800215  0.53055654  1
  B  B2  1  -0.00000000  0.38800215  0.96944346  1
  B  B3  1  -0.00000000  0.61199785  0.03055654  1
  B  B4  1  0.00000000  0.13372517  0.31555166  1
  B  B5  1  0.00000000  0.86627483  0.68444834  1
  B  B6  1  -0.00000000  0.36627483  0.81555166  1
  B  B7  1  -0.00000000  0.63372517  0.18444834  1
  B  B8  1  0.00000000  0.05328155  0.06621277  1
  B  B9  1  0.00000000  0.94671845  0.93378723  1
  B  B10  1  -0.00000000  0.44671845  0.56621277  1
  B  B11  1  -0.00000000  0.55328155  0.43378723  1
  B  B12  1  0.00000000  0.48312535  0.28731480  1
  B  B13  1  -0.00000000  0.51687465  0.71268520  1
  B  B14  1  -0.00000000  0.01687465  0.78731480  1
  B  B15  1  -0.00000000  0.98312535  0.21268520  1
  B  B16  1  0.00000000  0.24883960  0.07977549  1
  B  B17  1  -0.00000000  0.75116040  0.92022451  1
  B  B18  1  -0.00000000  0.25116040  0.57977549  1
  B  B19  1  -0.00000000  0.74883960  0.42022451  1
  B  B20  1  0.00000000  0.29398170  0.23521399  1
  B  B21  1  0.00000000  0.70601830  0.76478601  1
  B  B22  1  0.00000000  0.20601830  0.73521399  1
  B  B23  1  0.00000000  0.79398170  0.26478601  1
  Rh  Rh0  1  0.50000000  0.13940079  0.17887308  1
  Rh  Rh1  1  0.50000000  0.86059921  0.82112692  1
  Rh  Rh2  1  0.50000000  0.36059921  0.67887308  1
  Rh  Rh3  1  0.50000000  0.63940079  0.32112692  1
loop_
_geom_bond_atom_site_label_1
_geom_bond_atom_site_label_2
_geom_bond_distance
_geom_bond_site_symmetry_2
Ho0 Rh2 3.063098 1_555
Ho0 Rh3 3.080031 1_555
Ho0 Rh0 3.171532 1_555
Ho1 Rh3 3.063098 1_555
Ho1 Rh2 3.080031 1_555
Ho1 Rh1 3.171532 1_555
Ho2 Rh0 3.063098 1_556
Ho2 Rh1 3.080031 1_545
Ho2 Rh2 3.171532 1_555
Ho3 Rh1 3.063098 1_554
Ho3 Rh0 3.080031 1_565
Ho3 Rh3 3.171532 1_555
Ho4 Rh0 2.853474 1_555
Ho4 Rh3 2.859507 1_555
Ho5 Rh1 2.853474 1_555
Ho5 Rh2 2.859507 1_555
Ho6 Rh2 2.853474 1_555
Ho6 Rh1 2.859507 1_545
Ho7 Rh3 2.853474 1_555
Ho7 Rh0 2.859507 1_565
B0 B4 1.776125 1_555
B0 B18 1.794395 1_555
B0 B1 2.164441 1_545
B0 Ho6 2.610033 1_555
B0 Ho6 2.610033 1_455
B0 Ho7 2.619989 1_445
B0 Ho7 2.619989 1_545
B0 Ho0 2.729484 1_455
B0 Ho0 2.729484 1_555
B1 B5 1.776125 1_555
B1 B19 1.794395 1_555
B1 Ho7 2.610033 1_455
B1 Ho7 2.610033 1_555
B1 Ho6 2.619989 1_565
B1 Ho6 2.619989 1_465
B1 Ho1 2.729484 1_555
B1 Ho1 2.729484 1_455
B2 B6 1.776125 1_555
B2 B3 2.164441 1_556
B2 Ho4 2.610033 1_556
B2 Ho4 2.610033 1_456
B2 Ho5 2.619989 1_555
B2 Ho5 2.619989 1_455
B2 Ho2 2.729484 1_455
B2 Ho2 2.729484 1_555
B3 B7 1.776125 1_555
B3 Ho5 2.610033 1_454
B3 Ho5 2.610033 1_554
B3 Ho4 2.619989 1_555
B3 Ho4 2.619989 1_455
B3 Ho3 2.729484 1_555
B3 Ho3 2.729484 1_455
B4 Rh0 2.403188 1_455
B4 Rh0 2.403188 1_555
B4 Ho7 2.599399 1_545
B4 Ho7 2.599399 1_445
B4 Ho0 2.751813 1_455
B4 Ho0 2.751813 1_555
B5 Rh1 2.403188 1_455
B5 Rh1 2.403188 1_555
B5 Ho6 2.599399 1_465
B5 Ho6 2.599399 1_565
B5 Ho1 2.751813 1_555
B5 Ho1 2.751813 1_455
B6 Rh2 2.403188 1_455
B6 Rh2 2.403188 1_555
B6 Ho5 2.599399 1_455
B6 Ho5 2.599399 1_555
B6 Ho2 2.751813 1_455
B6 Ho2 2.751813 1_555
B7 Rh3 2.403188 1_555
B7 Rh3 2.403188 1_455
B7 Ho4 2.599399 1_455
B7 Ho4 2.599399 1_555
B7 Ho3 2.751813 1_455
B7 Ho3 2.751813 1_555
B8 B9 1.804389 1_544
B8 Rh0 2.367436 1_455
B8 Rh0 2.367436 1_555
B8 Ho2 2.768060 1_554
B8 Ho2 2.768060 1_454
B8 Ho3 2.792857 1_445
B8 Ho3 2.792857 1_545
B9 Rh1 2.367436 1_455
B9 Rh1 2.367436 1_555
B9 Ho3 2.768060 1_456
B9 Ho3 2.768060 1_556
B9 Ho2 2.792857 1_565
B9 Ho2 2.792857 1_465
B10 B18 1.794585 1_555
B10 B13 1.798166 1_555
B10 B11 1.804389 1_555
B10 Rh2 2.367436 1_455
B10 Rh2 2.367436 1_555
B10 Ho0 2.768060 1_555
B10 Ho0 2.768060 1_455
B10 Ho1 2.792857 1_555
B10 Ho1 2.792857 1_455
B11 B19 1.794585 1_555
B11 B12 1.798166 1_555
B11 Rh3 2.367436 1_455
B11 Rh3 2.367436 1_555
B11 Ho1 2.768060 1_555
B11 Ho1 2.768060 1_455
B11 Ho0 2.792857 1_455
B11 Ho0 2.792857 1_555
B12 B7 1.813142 1_555
B12 B20 1.829522 1_555
B12 Rh3 2.346685 1_455
B12 Rh3 2.346685 1_555
B12 Ho4 2.618485 1_455
B12 Ho4 2.618485 1_555
B12 Ho0 2.747887 1_555
B12 Ho0 2.747887 1_455
B13 B6 1.813142 1_555
B13 B21 1.829522 1_555
B13 Rh2 2.346685 1_455
B13 Rh2 2.346685 1_555
B13 Ho5 2.618485 1_555
B13 Ho5 2.618485 1_455
B13 Ho1 2.747887 1_555
B13 Ho1 2.747887 1_455
B14 B9 1.798166 1_545
B14 B5 1.813142 1_545
B14 B22 1.829522 1_555
B14 Rh1 2.346685 1_445
B14 Rh1 2.346685 1_545
B14 Ho6 2.618485 1_555
B14 Ho6 2.618485 1_455
B14 Ho2 2.747887 1_455
B14 Ho2 2.747887 1_555
B15 B8 1.798166 1_565
B15 B4 1.813142 1_565
B15 B23 1.829522 1_555
B15 Rh0 2.346685 1_465
B15 Rh0 2.346685 1_565
B15 Ho7 2.618485 1_455
B15 Ho7 2.618485 1_555
B15 Ho3 2.747887 1_555
B15 Ho3 2.747887 1_455
B16 B2 1.794395 1_554
B16 B8 1.794585 1_555
B16 B20 1.829868 1_555
B16 Rh0 2.368149 1_455
B16 Rh0 2.368149 1_555
B16 Ho4 2.606922 1_555
B16 Ho4 2.606922 1_455
B16 Ho2 2.717510 1_454
B16 Ho2 2.717510 1_554
B17 B3 1.794395 1_556
B17 B9 1.794585 1_555
B17 B21 1.829868 1_555
B17 Rh1 2.368149 1_455
B17 Rh1 2.368149 1_555
B17 Ho5 2.606922 1_455
B17 Ho5 2.606922 1_555
B17 Ho3 2.717510 1_456
B17 Ho3 2.717510 1_556
B18 B22 1.829868 1_555
B18 Rh2 2.368149 1_455
B18 Rh2 2.368149 1_555
B18 Ho6 2.606922 1_555
B18 Ho6 2.606922 1_455
B18 Ho0 2.717510 1_555
B18 Ho0 2.717510 1_455
B19 B23 1.829868 1_555
B19 Rh3 2.368149 1_555
B19 Rh3 2.368149 1_455
B19 Ho7 2.606922 1_455
B19 Ho7 2.606922 1_555
B19 Ho1 2.717510 1_455
B19 Ho1 2.717510 1_555
B20 B4 1.730743 1_555
B20 Rh0 2.393755 1_555
B20 Rh0 2.393755 1_455
B20 Ho4 2.602228 1_455
B20 Ho4 2.602228 1_555
B20 Ho0 2.750643 1_455
B20 Ho0 2.750643 1_555
B21 B5 1.730743 1_555
B21 Rh1 2.393755 1_455
B21 Rh1 2.393755 1_555
B21 Ho5 2.602228 1_455
B21 Ho5 2.602228 1_555
B21 Ho1 2.750643 1_555
B21 Ho1 2.750643 1_455
B22 B6 1.730743 1_555
B22 Rh2 2.393755 1_455
B22 Rh2 2.393755 1_555
B22 Ho6 2.602228 1_555
B22 Ho6 2.602228 1_455
B22 Ho2 2.750643 1_555
B22 Ho2 2.750643 1_455
B23 B7 1.730743 1_555
B23 Rh3 2.393755 1_555
B23 Rh3 2.393755 1_455
B23 Ho7 2.602228 1_555
B23 Ho7 2.602228 1_455
B23 Ho3 2.750643 1_455
B23 Ho3 2.750643 1_555
