# generated using pymatgen
data_Bi2O3
_symmetry_space_group_name_H-M   'P 1'
_cell_length_a   6.04826864
_cell_length_b   7.76099771
_cell_length_c   7.76088416
_cell_angle_alpha   120.00048355
_cell_angle_beta   90.00004422
_cell_angle_gamma   89.99989910
_symmetry_Int_Tables_number   1
_chemical_formula_structural   Bi2O3
_chemical_formula_sum   'Bi8 O12'
_cell_volume   315.49199501
_cell_formula_units_Z   4
loop_
 _symmetry_equiv_pos_site_id
 _symmetry_equiv_pos_as_xyz
  1  'x, y, z'
loop_
 _atom_site_type_symbol
 _atom_site_label
 _atom_site_symmetry_multiplicity
 _atom_site_fract_x
 _atom_site_fract_y
 _atom_site_fract_z
 _atom_site_occupancy
  Bi  Bi0  1  0.23993255  0.19743151  0.34494364  1
  Bi  Bi1  1  0.23989973  0.14750369  0.80255084  1
  Bi  Bi2  1  0.23992280  0.65505290  0.85250173  1
  Bi  Bi3  1  0.73993255  0.85248887  0.65505636  1
  Bi  Bi4  1  0.73989973  0.34495385  0.19744916  1
  Bi  Bi5  1  0.73992280  0.80255117  0.14749827  1
  Bi  Bi6  1  0.24662451  0.66663637  0.33332126  1
  Bi  Bi7  1  0.74662451  0.33331411  0.66667874  1
  O  O0  1  0.54201066  0.41862487  0.49588176  1
  O  O1  1  0.54197798  0.07727923  0.58136500  1
  O  O2  1  0.54201712  0.50414215  0.92273560  1
  O  O3  1  0.04201066  0.92274211  0.50411824  1
  O  O4  1  0.04197798  0.49591324  0.41863500  1
  O  O5  1  0.04201712  0.58140654  0.07726440  1
  O  O6  1  0.36022093  0.86560922  0.74834471  1
  O  O7  1  0.36020988  0.88275765  0.13437462  1
  O  O8  1  0.36018583  0.25166871  0.11729046  1
  O  O9  1  0.86022093  0.11726451  0.25165529  1
  O  O10  1  0.86020988  0.74838303  0.86562538  1
  O  O11  1  0.86018583  0.13437726  0.88270954  1
loop_
_geom_bond_atom_site_label_1
_geom_bond_atom_site_label_2
_geom_bond_distance
_geom_bond_site_symmetry_2
Bi0 O8 2.138095 1_555
Bi0 O7 2.274424 1_545
Bi0 O0 2.376205 1_555
Bi0 O9 2.394824 1_455
Bi0 O4 2.408723 1_555
Bi1 O6 2.138358 1_545
Bi1 O8 2.274793 1_556
Bi1 O1 2.376190 1_555
Bi1 O11 2.394827 1_455
Bi1 O3 2.408215 1_545
Bi2 O7 2.138196 1_556
Bi2 O6 2.274680 1_555
Bi2 O2 2.376075 1_555
Bi2 O10 2.394922 1_455
Bi2 O5 2.408172 1_556
Bi3 O11 2.138086 1_565
Bi3 O10 2.274429 1_555
Bi3 O3 2.376197 1_655
Bi3 O6 2.394825 1_555
Bi3 O1 2.408723 1_565
Bi4 O9 2.138366 1_555
Bi4 O11 2.274795 1_554
Bi4 O4 2.376189 1_655
Bi4 O8 2.394827 1_555
Bi4 O0 2.408215 1_555
Bi5 O10 2.138196 1_554
Bi5 O9 2.274680 1_565
Bi5 O5 2.376075 1_655
Bi5 O7 2.394922 1_555
Bi5 O2 2.408172 1_554
Bi6 O4 2.145533 1_555
Bi6 O5 2.145591 1_555
Bi6 O3 2.145826 1_555
Bi7 O1 2.145521 1_555
Bi7 O2 2.145592 1_555
Bi7 O0 2.145836 1_555
