# generated using pymatgen
data_Fe4H14O13
_symmetry_space_group_name_H-M   'P 1'
_cell_length_a   6.64770500
_cell_length_b   6.71244023
_cell_length_c   6.75158319
_cell_angle_alpha   110.80895477
_cell_angle_beta   109.87198967
_cell_angle_gamma   107.28397031
_symmetry_Int_Tables_number   1
_chemical_formula_structural   Fe4H14O13
_chemical_formula_sum   'Fe4 H14 O13'
_cell_volume   233.01749430
_cell_formula_units_Z   1
loop_
 _symmetry_equiv_pos_site_id
 _symmetry_equiv_pos_as_xyz
  1  'x, y, z'
loop_
 _atom_site_type_symbol
 _atom_site_label
 _atom_site_symmetry_multiplicity
 _atom_site_fract_x
 _atom_site_fract_y
 _atom_site_fract_z
 _atom_site_occupancy
  Fe  Fe0  1  0.00000000  0.00000000  0.50000000  1
  Fe  Fe1  1  0.50000000  0.50000000  0.50000000  1
  Fe  Fe2  1  0.00000000  0.50000000  0.00000000  1
  Fe  Fe3  1  0.50000000  0.00000000  0.00000000  1
  H  H0  1  0.18164300  0.44235600  0.37342900  1
  H  H1  1  0.81835700  0.55764400  0.62657100  1
  H  H2  1  0.94249600  0.32400300  0.73872500  1
  H  H3  1  0.05750400  0.67599700  0.26127500  1
  H  H4  1  0.67506600  0.13301100  0.55773000  1
  H  H5  1  0.54967200  0.28732500  0.28358600  1
  H  H6  1  0.45032800  0.71267500  0.71641400  1
  H  H7  1  0.32493400  0.86698900  0.44227000  1
  H  H8  1  0.13923800  0.95172500  0.80845500  1
  H  H9  1  0.75835300  0.80628600  0.04388200  1
  H  H10  1  0.86076200  0.04827500  0.19154500  1
  H  H11  1  0.24164700  0.19371400  0.95611800  1
  H  H12  1  0.39313100  0.56028500  0.06246700  1
  H  H13  1  0.60686900  0.43971500  0.93753300  1
  O  O0  1  0.17981300  0.31628000  0.50718200  1
  O  O1  1  0.82018700  0.68372000  0.49281800  1
  O  O2  1  0.81624600  0.33490000  0.86468000  1
  O  O3  1  0.18375400  0.66510000  0.13532000  1
  O  O4  1  0.68661200  0.01178600  0.68409600  1
  O  O5  1  0.67794700  0.36829900  0.31353500  1
  O  O6  1  0.32205300  0.63170100  0.68646500  1
  O  O7  1  0.31338800  0.98821400  0.31590400  1
  O  O8  1  0.00558900  0.82670600  0.81535300  1
  O  O9  1  0.63615200  0.81604300  0.17419500  1
  O  O10  1  0.99441100  0.17329400  0.18464700  1
  O  O11  1  0.36384800  0.18395700  0.82580500  1
  O  O12  1  0.50000000  0.50000000  0.00000000  1
loop_
_geom_bond_atom_site_label_1
_geom_bond_atom_site_label_2
_geom_bond_distance
_geom_bond_site_symmetry_2
Fe0 O1 2.077948 1_445
Fe0 O0 2.077948 1_555
Fe0 H8 2.155466 1_545
Fe0 H10 2.155466 1_455
Fe0 O11 2.211803 1_555
Fe0 O9 2.211803 1_445
Fe1 H0 1.846038 1_555
Fe1 H1 1.846038 1_555
Fe1 H5 1.846076 1_555
Fe1 H6 1.846076 1_555
Fe1 O0 2.146300 1_555
Fe1 O1 2.146300 1_555
Fe2 O3 1.128056 1_555
Fe2 O2 1.128056 1_454
Fe3 H6 2.015616 1_544
Fe3 H5 2.015616 1_555
Fe3 H10 2.158927 1_555
Fe3 H8 2.158927 1_544
Fe3 O11 2.167806 1_554
Fe3 O9 2.167806 1_545
Fe3 O6 2.198572 1_544
Fe3 O5 2.198572 1_555
H0 O0 1.440889 1_555
H0 O10 1.544592 1_455
H1 O1 1.440889 1_555
H1 O8 1.544592 1_655
H2 O2 1.382171 1_555
H3 O3 1.382171 1_555
H4 O4 1.371779 1_555
H5 O5 0.769902 1_555
H6 O6 0.769902 1_555
H7 O7 1.371779 1_555
H8 O8 1.052910 1_555
H9 O9 1.383787 1_555
H10 O10 1.052910 1_555
H11 O11 1.383787 1_555
H12 O12 1.048621 1_555
H13 O12 1.048621 1_556
