# generated using pymatgen
data_Li3VSi4(HO6)2
_symmetry_space_group_name_H-M   'P 1'
_cell_length_a   7.53761171
_cell_length_b   8.10728845
_cell_length_c   9.21296457
_cell_angle_alpha   64.99353172
_cell_angle_beta   87.60042964
_cell_angle_gamma   89.09097889
_symmetry_Int_Tables_number   1
_chemical_formula_structural   Li3VSi4(HO6)2
_chemical_formula_sum   'Li6 V2 Si8 H4 O24'
_cell_volume   509.77644249
_cell_formula_units_Z   2
loop_
 _symmetry_equiv_pos_site_id
 _symmetry_equiv_pos_as_xyz
  1  'x, y, z'
loop_
 _atom_site_type_symbol
 _atom_site_label
 _atom_site_symmetry_multiplicity
 _atom_site_fract_x
 _atom_site_fract_y
 _atom_site_fract_z
 _atom_site_occupancy
  Li  Li0  1  0.08889200  0.73319100  0.14971700  1
  Li  Li1  1  0.38365800  0.78097900  0.33212700  1
  Li  Li2  1  0.32879900  0.35002600  0.89092200  1
  Li  Li3  1  0.67120100  0.64997400  0.10907800  1
  Li  Li4  1  0.61634200  0.21902100  0.66787300  1
  Li  Li5  1  0.91110800  0.26680900  0.85028300  1
  V  V0  1  0.00000000  0.50000000  0.00000000  1
  V  V1  1  0.50000000  0.00000000  0.00000000  1
  Si  Si0  1  0.12126200  0.06240800  0.16558100  1
  Si  Si1  1  0.23798500  0.30551300  0.31544900  1
  Si  Si2  1  0.24990700  0.11095100  0.68672600  1
  Si  Si3  1  0.39533400  0.73275000  0.82148700  1
  Si  Si4  1  0.60466600  0.26725000  0.17851300  1
  Si  Si5  1  0.75009300  0.88904900  0.31327400  1
  Si  Si6  1  0.76201500  0.69448800  0.68455100  1
  Si  Si7  1  0.87873800  0.93759200  0.83441900  1
  H  H0  1  0.17367100  0.62900300  0.59289100  1
  H  H1  1  0.21843600  0.49161900  0.51534000  1
  H  H2  1  0.78156400  0.50838100  0.48466000  1
  H  H3  1  0.82632900  0.37099700  0.40710900  1
  O  O0  1  0.08095400  0.24759500  0.00969100  1
  O  O1  1  0.11023700  0.47198100  0.21128100  1
  O  O2  1  0.05173800  0.07692500  0.77395600  1
  O  O3  1  0.18092600  0.11113600  0.31331600  1
  O  O4  1  0.23394900  0.61837900  0.50133000  1
  O  O5  1  0.22557700  0.27484900  0.50531100  1
  O  O6  1  0.26741900  0.92735900  0.13597600  1
  O  O7  1  0.23679500  0.58382200  0.87936600  1
  O  O8  1  0.32589900  0.92627000  0.67586900  1
  O  O9  1  0.44798900  0.35013500  0.26008600  1
  O  O10  1  0.38505000  0.18331100  0.77951200  1
  O  O11  1  0.51856600  0.22233200  0.03989700  1
  O  O12  1  0.48143400  0.77766800  0.96010300  1
  O  O13  1  0.61495000  0.81668900  0.22048800  1
  O  O14  1  0.55201100  0.64986500  0.73991400  1
  O  O15  1  0.67410100  0.07373000  0.32413100  1
  O  O16  1  0.76320500  0.41617800  0.12063400  1
  O  O17  1  0.73258100  0.07264100  0.86402400  1
  O  O18  1  0.77442300  0.72515100  0.49468900  1
  O  O19  1  0.76605100  0.38162100  0.49867000  1
  O  O20  1  0.81907400  0.88886400  0.68668400  1
  O  O21  1  0.94826200  0.92307500  0.22604400  1
  O  O22  1  0.88976300  0.52801900  0.78871900  1
  O  O23  1  0.91904600  0.75240500  0.99030900  1
loop_
_geom_bond_atom_site_label_1
_geom_bond_atom_site_label_2
_geom_bond_distance
_geom_bond_site_symmetry_2
Li0 O23 1.943658 1_454
Li0 O1 1.952845 1_555
Li0 O6 2.046788 1_555
Li0 O21 2.188386 1_455
Li1 O4 1.898359 1_555
Li1 O6 1.930857 1_555
Li1 O13 1.948129 1_555
Li2 O7 1.969484 1_555
Li2 O11 1.979307 1_556
Li2 O10 2.044116 1_555
Li2 O0 2.118200 1_556
Li3 O16 1.969484 1_555
Li3 O12 1.979307 1_554
Li3 O13 2.044116 1_555
Li3 O23 2.118200 1_554
Li4 O19 1.898359 1_555
Li4 O17 1.930857 1_555
Li4 O10 1.948129 1_555
Li5 O0 1.943658 1_656
Li5 O22 1.952845 1_555
Li5 O17 2.046788 1_555
Li5 O2 2.188386 1_655
H0 O4 0.976483 1_555
H1 O4 0.988364 1_555
H2 O19 0.988364 1_555
H3 O19 0.976483 1_555
O0 Si0 1.614981 1_555
O0 V0 2.092420 1_555
O1 Si1 1.615790 1_555
O1 V0 2.070413 1_555
O2 Si2 1.636544 1_555
O2 Si7 1.655500 1_445
O3 Si1 1.648370 1_555
O3 Si0 1.649949 1_555
O5 Si2 1.653197 1_555
O5 Si1 1.658198 1_555
O6 Si0 1.635813 1_565
O6 V1 2.052971 1_565
O7 Si3 1.618116 1_555
O7 V0 2.028944 1_556
O8 Si2 1.635391 1_565
O8 Si3 1.669878 1_555
O9 Si1 1.640505 1_555
O9 Si4 1.654838 1_555
O10 Si2 1.621235 1_555
O10 V1 2.154063 1_556
O11 Si4 1.629348 1_555
O11 V1 1.994038 1_555
O12 Si3 1.629348 1_555
O12 V1 1.994038 1_566
O13 Si5 1.621235 1_555
O13 V1 2.154063 1_565
O14 Si6 1.640506 1_555
O14 Si3 1.654838 1_555
O15 Si5 1.635391 1_545
O15 Si4 1.669878 1_555
O16 Si4 1.618116 1_555
O16 V0 2.028944 1_655
O17 Si7 1.635813 1_545
O17 V1 2.052971 1_556
O18 Si5 1.653197 1_555
O18 Si6 1.658200 1_555
O20 Si6 1.648362 1_555
O20 Si7 1.649949 1_555
O21 Si5 1.636544 1_555
O21 Si0 1.655500 1_665
O22 Si6 1.615794 1_555
O22 V0 2.070413 1_656
O23 Si7 1.614981 1_555
O23 V0 2.092420 1_656
