# generated using pymatgen
data_SiSnPd5
_symmetry_space_group_name_H-M   'P 1'
_cell_length_a   3.98161655
_cell_length_b   3.98161655
_cell_length_c   6.93750928
_cell_angle_alpha   90.00000000
_cell_angle_beta   90.00000000
_cell_angle_gamma   90.00000000
_symmetry_Int_Tables_number   1
_chemical_formula_structural   SiSnPd5
_chemical_formula_sum   'Si1 Sn1 Pd5'
_cell_volume   109.98221018
_cell_formula_units_Z   1
loop_
 _symmetry_equiv_pos_site_id
 _symmetry_equiv_pos_as_xyz
  1  'x, y, z'
loop_
 _atom_site_type_symbol
 _atom_site_label
 _atom_site_symmetry_multiplicity
 _atom_site_fract_x
 _atom_site_fract_y
 _atom_site_fract_z
 _atom_site_occupancy
  Si  Si0  1  0.00000000  -0.00000000  0.50000000  1
  Sn  Sn0  1  0.50000000  0.50000000  0.00000000  1
  Pd  Pd0  1  0.00000000  -0.00000000  0.00000000  1
  Pd  Pd1  1  0.50000000  -0.00000000  0.70478515  1
  Pd  Pd2  1  -0.00000000  0.50000000  0.70478515  1
  Pd  Pd3  1  0.50000000  0.00000000  0.29521485  1
  Pd  Pd4  1  -0.00000000  0.50000000  0.29521485  1
loop_
_geom_bond_atom_site_label_1
_geom_bond_atom_site_label_2
_geom_bond_distance
_geom_bond_site_symmetry_2
Pd0 Sn0 2.815428 1_545
Pd0 Sn0 2.815428 1_555
Pd0 Sn0 2.815428 1_455
Pd0 Sn0 2.815428 1_445
Pd0 Pd3 2.856195 1_555
Pd0 Pd4 2.856195 1_545
Pd0 Pd3 2.856195 1_455
Pd0 Pd4 2.856195 1_555
Pd0 Pd2 2.856195 1_554
Pd0 Pd1 2.856195 1_554
Pd0 Pd2 2.856195 1_544
Pd0 Pd1 2.856195 1_454
Pd1 Si0 2.445752 1_555
Pd1 Si0 2.445752 1_655
Pd1 Sn0 2.856195 1_556
Pd1 Sn0 2.856195 1_546
Pd2 Si0 2.445752 1_555
Pd2 Si0 2.445752 1_565
Pd2 Sn0 2.856195 1_556
Pd2 Sn0 2.856195 1_456
Pd3 Si0 2.445752 1_555
Pd3 Si0 2.445752 1_655
Pd3 Sn0 2.856195 1_545
Pd3 Sn0 2.856195 1_555
Pd4 Si0 2.445752 1_555
Pd4 Si0 2.445752 1_565
Pd4 Sn0 2.856195 1_555
Pd4 Sn0 2.856195 1_455
