# generated using pymatgen
data_CaTmMn2O6
_symmetry_space_group_name_H-M   'P 1'
_cell_length_a   5.31059300
_cell_length_b   5.54242300
_cell_length_c   7.56601200
_cell_angle_alpha   90.00000000
_cell_angle_beta   90.00000000
_cell_angle_gamma   90.00000000
_symmetry_Int_Tables_number   1
_chemical_formula_structural   CaTmMn2O6
_chemical_formula_sum   'Ca2 Tm2 Mn4 O12'
_cell_volume   222.69461359
_cell_formula_units_Z   2
loop_
 _symmetry_equiv_pos_site_id
 _symmetry_equiv_pos_as_xyz
  1  'x, y, z'
loop_
 _atom_site_type_symbol
 _atom_site_label
 _atom_site_symmetry_multiplicity
 _atom_site_fract_x
 _atom_site_fract_y
 _atom_site_fract_z
 _atom_site_occupancy
  Ca  Ca0  1  0.23697000  0.44650500  0.50000000  1
  Ca  Ca1  1  0.76303000  0.94650500  0.50000000  1
  Tm  Tm0  1  0.26542900  0.56935200  0.00000000  1
  Tm  Tm1  1  0.73457100  0.06935200  0.00000000  1
  Mn  Mn0  1  0.75367800  0.50230200  0.74907600  1
  Mn  Mn1  1  0.24632200  0.00230200  0.25092400  1
  Mn  Mn2  1  0.75367800  0.50230200  0.25092400  1
  Mn  Mn3  1  0.24632200  0.00230200  0.74907600  1
  O  O0  1  0.14428800  0.96616300  0.00000000  1
  O  O1  1  0.85571200  0.46616300  0.00000000  1
  O  O2  1  0.33594500  0.02922000  0.50000000  1
  O  O3  1  0.66405500  0.52922000  0.50000000  1
  O  O4  1  0.54561100  0.79697400  0.81190600  1
  O  O5  1  0.45438900  0.29697400  0.18809400  1
  O  O6  1  0.94159600  0.19510500  0.28539700  1
  O  O7  1  0.05840400  0.69510500  0.71460300  1
  O  O8  1  0.94159600  0.19510500  0.71460300  1
  O  O9  1  0.05840400  0.69510500  0.28539700  1
  O  O10  1  0.54561100  0.79697400  0.18809400  1
  O  O11  1  0.45438900  0.29697400  0.81190600  1
loop_
_geom_bond_atom_site_label_1
_geom_bond_atom_site_label_2
_geom_bond_distance
_geom_bond_site_symmetry_2
Ca0 O3 2.313943 1_555
Ca0 O7 2.331112 1_555
Ca0 O9 2.331112 1_555
Ca0 O2 2.371746 1_555
Ca0 O8 2.652993 1_455
Ca0 O6 2.652993 1_455
Ca0 O11 2.754825 1_555
Ca0 O5 2.754825 1_555
Ca1 O2 2.313943 1_565
Ca1 O8 2.331112 1_565
Ca1 O6 2.331112 1_565
Ca1 O3 2.371746 1_555
Ca1 O9 2.652993 1_655
Ca1 O7 2.652993 1_655
Ca1 O4 2.754825 1_555
Ca1 O10 2.754825 1_555
Mn0 O3 1.949403 1_555
Mn0 O7 1.956717 1_655
Mn0 O1 1.984442 1_556
Mn0 O8 1.990690 1_555
Mn0 O11 2.011779 1_555
Mn0 O4 2.028360 1_555
Mn1 O2 1.949403 1_555
Mn1 O6 1.956717 1_455
Mn1 O0 1.984442 1_545
Mn1 O9 1.990690 1_545
Mn1 O10 2.011779 1_545
Mn1 O5 2.028360 1_555
Mn2 O3 1.949403 1_555
Mn2 O9 1.956717 1_655
Mn2 O1 1.984442 1_555
Mn2 O6 1.990690 1_555
Mn2 O5 2.011779 1_555
Mn2 O10 2.028360 1_555
Mn3 O2 1.949403 1_555
Mn3 O8 1.956717 1_455
Mn3 O0 1.984442 1_546
Mn3 O7 1.990690 1_545
Mn3 O4 2.011779 1_545
Mn3 O11 2.028360 1_555
O0 Tm1 2.249749 1_465
O0 Tm0 2.291456 1_555
O1 Tm0 2.249749 1_655
O1 Tm1 2.291456 1_555
O4 Tm1 2.304617 1_566
O4 Tm0 2.414704 1_556
O5 Tm0 2.304617 1_555
O5 Tm1 2.414704 1_555
O6 Tm1 2.521341 1_555
O7 Tm0 2.521341 1_556
O8 Tm1 2.521341 1_556
O9 Tm0 2.521341 1_555
O10 Tm1 2.304617 1_565
O10 Tm0 2.414704 1_555
O11 Tm0 2.304617 1_556
O11 Tm1 2.414704 1_556
