# generated using pymatgen
data_Li3MnP2
_symmetry_space_group_name_H-M   'P 1'
_cell_length_a   3.95802200
_cell_length_b   3.95802200
_cell_length_c   5.62621800
_cell_angle_alpha   90.00000000
_cell_angle_beta   90.00000000
_cell_angle_gamma   90.00000000
_symmetry_Int_Tables_number   1
_chemical_formula_structural   Li3MnP2
_chemical_formula_sum   'Li3 Mn1 P2'
_cell_volume   88.13998322
_cell_formula_units_Z   1
loop_
 _symmetry_equiv_pos_site_id
 _symmetry_equiv_pos_as_xyz
  1  'x, y, z'
loop_
 _atom_site_type_symbol
 _atom_site_label
 _atom_site_symmetry_multiplicity
 _atom_site_fract_x
 _atom_site_fract_y
 _atom_site_fract_z
 _atom_site_occupancy
  Li  Li0  1  0.00000000  0.00000000  0.00000000  1
  Li  Li1  1  0.50000000  0.50000000  0.00000000  1
  Li  Li2  1  0.50000000  0.50000000  0.50000000  1
  Mn  Mn0  1  0.00000000  0.00000000  0.50000000  1
  P  P0  1  0.00000000  0.50000000  0.28911200  1
  P  P1  1  0.50000000  0.00000000  0.71088800  1
loop_
_geom_bond_atom_site_label_1
_geom_bond_atom_site_label_2
_geom_bond_distance
_geom_bond_site_symmetry_2
Li0 P0 2.561706 1_555
Li0 P0 2.561706 1_545
Li0 P1 2.561706 1_454
Li0 P1 2.561706 1_554
Li1 P0 2.561706 1_655
Li1 P0 2.561706 1_555
Li1 P1 2.561706 1_554
Li1 P1 2.561706 1_564
Li2 P1 2.307438 1_565
Li2 P0 2.307438 1_655
Li2 P0 2.307438 1_555
Li2 P1 2.307438 1_555
Mn0 P0 2.307438 1_545
Mn0 P1 2.307438 1_455
Mn0 P0 2.307438 1_555
Mn0 P1 2.307438 1_555
