# generated using pymatgen
data_BaMgP2O7
_symmetry_space_group_name_H-M   'P 1'
_cell_length_a   8.65081100
_cell_length_b   5.55309800
_cell_length_c   13.96031124
_cell_angle_alpha   68.02658153
_cell_angle_beta   90.00000000
_cell_angle_gamma   90.00000000
_symmetry_Int_Tables_number   1
_chemical_formula_structural   BaMgP2O7
_chemical_formula_sum   'Ba4 Mg4 P8 O28'
_cell_volume   621.91992890
_cell_formula_units_Z   4
loop_
 _symmetry_equiv_pos_site_id
 _symmetry_equiv_pos_as_xyz
  1  'x, y, z'
loop_
 _atom_site_type_symbol
 _atom_site_label
 _atom_site_symmetry_multiplicity
 _atom_site_fract_x
 _atom_site_fract_y
 _atom_site_fract_z
 _atom_site_occupancy
  Ba  Ba0  1  0.12679200  0.05763100  0.70295900  1
  Ba  Ba1  1  0.62679200  0.94236900  0.79704100  1
  Ba  Ba2  1  0.87320800  0.94236900  0.29704100  1
  Ba  Ba3  1  0.37320800  0.05763100  0.20295900  1
  Mg  Mg0  1  0.33365800  0.33354200  0.87847000  1
  Mg  Mg1  1  0.83365800  0.66645800  0.62153000  1
  Mg  Mg2  1  0.66634200  0.66645800  0.12153000  1
  Mg  Mg3  1  0.16634200  0.33354200  0.37847000  1
  P  P0  1  0.18585800  0.69752600  0.51844000  1
  P  P1  1  0.68585800  0.30247400  0.98156000  1
  P  P2  1  0.81414200  0.30247400  0.48156000  1
  P  P3  1  0.31414200  0.69752600  0.01844000  1
  P  P4  1  0.93834400  0.40214300  0.83035700  1
  P  P5  1  0.43834400  0.59785700  0.66964300  1
  P  P6  1  0.06165600  0.59785700  0.16964300  1
  P  P7  1  0.56165600  0.40214300  0.33035700  1
  O  O0  1  0.90433100  0.69403900  0.79324000  1
  O  O1  1  0.40433100  0.30596100  0.70676000  1
  O  O2  1  0.09566900  0.30596100  0.20676000  1
  O  O3  1  0.59566900  0.69403900  0.29324000  1
  O  O4  1  0.18972200  0.43987000  0.50175300  1
  O  O5  1  0.68972200  0.56013000  0.99824700  1
  O  O6  1  0.81027800  0.56013000  0.49824700  1
  O  O7  1  0.31027800  0.43987000  0.00175300  1
  O  O8  1  0.10743700  0.32517400  0.84568700  1
  O  O9  1  0.60743700  0.67482600  0.65431300  1
  O  O10  1  0.89256300  0.67482600  0.15431300  1
  O  O11  1  0.39256300  0.32517400  0.34568700  1
  O  O12  1  0.16042000  0.93360500  0.41901100  1
  O  O13  1  0.66042000  0.06639500  0.08098900  1
  O  O14  1  0.83958000  0.06639500  0.58098900  1
  O  O15  1  0.33958000  0.93360500  0.91901100  1
  O  O16  1  0.64263100  0.25499800  0.44201800  1
  O  O17  1  0.14263100  0.74500200  0.05798200  1
  O  O18  1  0.35736900  0.74500200  0.55798200  1
  O  O19  1  0.85736900  0.25499800  0.94201800  1
  O  O20  1  0.63586000  0.30115100  0.25115100  1
  O  O21  1  0.13586000  0.69884900  0.24884900  1
  O  O22  1  0.36414000  0.69884900  0.74884900  1
  O  O23  1  0.86414000  0.30115100  0.75115100  1
  O  O24  1  0.42466900  0.68183400  0.10667500  1
  O  O25  1  0.92466900  0.31816600  0.39332500  1
  O  O26  1  0.57533100  0.31816600  0.89332500  1
  O  O27  1  0.07533100  0.68183400  0.60667500  1
loop_
_geom_bond_atom_site_label_1
_geom_bond_atom_site_label_2
_geom_bond_distance
_geom_bond_site_symmetry_2
Ba0 O0 2.732091 1_445
Ba0 O22 2.764154 1_545
Ba0 O1 2.779158 1_555
Ba0 O23 2.850410 1_455
Ba0 O4 2.868785 1_555
Ba0 O8 2.901865 1_555
Ba0 O27 2.908433 1_545
Ba0 O14 3.002165 1_455
Ba0 O27 3.245486 1_555
Ba0 O15 3.377198 1_545
Ba1 O1 2.732091 1_565
Ba1 O23 2.764154 1_565
Ba1 O0 2.779158 1_555
Ba1 O22 2.850410 1_555
Ba1 O5 2.868785 1_555
Ba1 O9 2.901865 1_555
Ba1 O26 2.908433 1_565
Ba1 O15 3.002165 1_555
Ba1 O26 3.245486 1_555
Ba1 O14 3.377198 1_565
Ba2 O2 2.732091 1_665
Ba2 O20 2.764154 1_565
Ba2 O3 2.779158 1_555
Ba2 O21 2.850410 1_655
Ba2 O6 2.868785 1_555
Ba2 O10 2.901865 1_555
Ba2 O25 2.908433 1_565
Ba2 O12 3.002165 1_655
Ba2 O25 3.245486 1_555
Ba2 O13 3.377198 1_565
Ba3 O3 2.732091 1_545
Ba3 O21 2.764154 1_545
Ba3 O2 2.779158 1_555
Ba3 O20 2.850410 1_555
Ba3 O7 2.868785 1_555
Ba3 O11 2.901865 1_555
Ba3 O24 2.908433 1_545
Ba3 O13 3.002165 1_555
Ba3 O24 3.245486 1_555
Ba3 O12 3.377198 1_545
Mg0 O8 2.014288 1_555
Mg0 O7 2.027831 1_556
Mg0 O15 2.077174 1_545
Mg0 O26 2.099509 1_555
Mg0 O22 2.170735 1_555
Mg0 O1 2.533417 1_555
Mg1 O9 2.014288 1_555
Mg1 O6 2.027831 1_555
Mg1 O14 2.077174 1_565
Mg1 O27 2.099509 1_655
Mg1 O23 2.170735 1_555
Mg1 O0 2.533417 1_555
Mg2 O10 2.014288 1_555
Mg2 O5 2.027831 1_554
Mg2 O13 2.077174 1_565
Mg2 O24 2.099509 1_555
Mg2 O20 2.170735 1_555
Mg2 O3 2.533417 1_555
Mg3 O11 2.014288 1_555
Mg3 O4 2.027831 1_555
Mg3 O12 2.077174 1_545
Mg3 O25 2.099509 1_455
Mg3 O21 2.170735 1_555
Mg3 O2 2.533417 1_555
O0 P4 1.534252 1_555
O1 P5 1.534252 1_555
O2 P6 1.534252 1_555
O3 P7 1.534252 1_555
O4 P0 1.533616 1_555
O5 P1 1.533616 1_555
O6 P2 1.533616 1_555
O7 P3 1.533616 1_555
O8 P4 1.516506 1_455
O9 P5 1.516506 1_555
O10 P6 1.516506 1_655
O11 P7 1.516506 1_555
O12 P0 1.527088 1_555
O13 P1 1.527088 1_554
O14 P2 1.527088 1_555
O15 P3 1.527088 1_556
O16 P7 1.623298 1_555
O16 P2 1.638455 1_555
O17 P6 1.623298 1_555
O17 P3 1.638455 1_555
O18 P5 1.623298 1_555
O18 P0 1.638455 1_555
O19 P4 1.623298 1_555
O19 P1 1.638455 1_555
O20 P7 1.553485 1_555
O21 P6 1.553485 1_555
O22 P5 1.553485 1_555
O23 P4 1.553485 1_555
O24 P3 1.535835 1_555
O25 P2 1.535835 1_555
O26 P1 1.535835 1_555
O27 P0 1.535835 1_555
