# generated using pymatgen
data_Nd2Sn4Ru
_symmetry_space_group_name_H-M   'P 1'
_cell_length_a   4.69880200
_cell_length_b   4.72000500
_cell_length_c   8.67136261
_cell_angle_alpha   74.20713291
_cell_angle_beta   90.00000000
_cell_angle_gamma   90.00000000
_symmetry_Int_Tables_number   1
_chemical_formula_structural   Nd2Sn4Ru
_chemical_formula_sum   'Nd2 Sn4 Ru1'
_cell_volume   185.05708663
_cell_formula_units_Z   1
loop_
 _symmetry_equiv_pos_site_id
 _symmetry_equiv_pos_as_xyz
  1  'x, y, z'
loop_
 _atom_site_type_symbol
 _atom_site_label
 _atom_site_symmetry_multiplicity
 _atom_site_fract_x
 _atom_site_fract_y
 _atom_site_fract_z
 _atom_site_occupancy
  Nd  Nd0  1  0.25000000  0.89912000  0.20175900  1
  Nd  Nd1  1  0.75000000  0.09990700  0.80018700  1
  Sn  Sn0  1  0.25000000  0.54299900  0.91400100  1
  Sn  Sn1  1  0.75000000  0.42150700  0.15698600  1
  Sn  Sn2  1  0.25000000  0.26442000  0.47116100  1
  Sn  Sn3  1  0.75000000  0.75959900  0.48080200  1
  Ru  Ru0  1  0.25000000  0.69744800  0.60510400  1
loop_
_geom_bond_atom_site_label_1
_geom_bond_atom_site_label_2
_geom_bond_distance
_geom_bond_site_symmetry_2
Nd0 Sn2 3.259240 1_555
Nd0 Sn2 3.259246 1_565
Nd0 Sn3 3.307699 1_555
Nd0 Sn3 3.307699 1_455
Nd0 Sn1 3.350948 1_555
Nd0 Sn1 3.350948 1_455
Nd0 Sn1 3.350951 1_565
Nd0 Sn1 3.350951 1_465
Nd0 Ru0 3.365525 1_555
Nd0 Sn0 3.366707 1_554
Nd0 Sn0 3.366707 1_564
Nd0 Nd1 4.092320 1_464
Nd0 Nd1 4.092320 1_564
Nd1 Sn0 3.462823 1_555
Nd1 Sn0 3.462823 1_655
Nd1 Sn0 3.462830 1_545
Nd1 Sn0 3.462830 1_645
Nd1 Sn3 3.559721 1_555
Nd1 Sn3 3.559724 1_545
Nd1 Sn2 3.613438 1_555
Nd1 Sn2 3.613438 1_655
Nd1 Ru0 3.706609 1_655
Nd1 Ru0 3.706609 1_555
Nd1 Ru0 3.706612 1_645
Nd1 Ru0 3.706612 1_545
Nd1 Sn1 3.799077 1_556
Nd1 Sn1 3.799080 1_546
Sn0 Sn1 3.103279 1_456
Sn0 Sn1 3.103279 1_556
Ru0 Sn3 2.568157 1_555
Ru0 Sn3 2.568157 1_455
Ru0 Sn0 2.577447 1_555
Ru0 Sn2 2.611261 1_555
Ru0 Sn2 2.611266 1_565
