# generated using pymatgen
data_HfCuGeAs
_symmetry_space_group_name_H-M   'P 1'
_cell_length_a   3.73292400
_cell_length_b   3.73292400
_cell_length_c   9.49474400
_cell_angle_alpha   90.00000000
_cell_angle_beta   90.00000000
_cell_angle_gamma   90.00000000
_symmetry_Int_Tables_number   1
_chemical_formula_structural   HfCuGeAs
_chemical_formula_sum   'Hf2 Cu2 Ge2 As2'
_cell_volume   132.30661421
_cell_formula_units_Z   2
loop_
 _symmetry_equiv_pos_site_id
 _symmetry_equiv_pos_as_xyz
  1  'x, y, z'
loop_
 _atom_site_type_symbol
 _atom_site_label
 _atom_site_symmetry_multiplicity
 _atom_site_fract_x
 _atom_site_fract_y
 _atom_site_fract_z
 _atom_site_occupancy
  Hf  Hf0  1  0.00000000  0.50000000  0.77306800  1
  Hf  Hf1  1  0.50000000  0.00000000  0.22693200  1
  Cu  Cu0  1  0.50000000  0.50000000  0.50000000  1
  Cu  Cu1  1  0.00000000  0.00000000  0.50000000  1
  Ge  Ge0  1  0.50000000  0.50000000  0.00000000  1
  Ge  Ge1  1  0.00000000  0.00000000  0.00000000  1
  As  As0  1  0.00000000  0.50000000  0.31977500  1
  As  As1  1  0.50000000  0.00000000  0.68022500  1
loop_
_geom_bond_atom_site_label_1
_geom_bond_atom_site_label_2
_geom_bond_distance
_geom_bond_site_symmetry_2
Ge0 Ge1 2.639576 1_665
Ge0 Ge1 2.639576 1_555
Ge0 Ge1 2.639576 1_565
Ge0 Ge1 2.639576 1_655
Ge0 Hf1 2.850657 1_555
Ge0 Hf1 2.850657 1_565
Ge0 Hf0 2.850657 1_554
Ge0 Hf0 2.850657 1_654
Ge1 Hf1 2.850657 1_455
Ge1 Hf1 2.850657 1_555
Ge1 Hf0 2.850657 1_554
Ge1 Hf0 2.850657 1_544
As0 Cu0 2.532164 1_455
As0 Cu1 2.532164 1_565
As0 Cu0 2.532164 1_555
As0 Cu1 2.532164 1_555
As0 Hf1 2.782883 1_555
As0 Hf1 2.782883 1_565
As0 Hf1 2.782883 1_465
As0 Hf1 2.782883 1_455
As1 Cu0 2.532164 1_545
As1 Cu0 2.532164 1_555
As1 Cu1 2.532164 1_655
As1 Cu1 2.532164 1_555
As1 Hf0 2.782883 1_645
As1 Hf0 2.782883 1_555
As1 Hf0 2.782883 1_545
As1 Hf0 2.782883 1_655
