# generated using pymatgen
data_PrSiAg
_symmetry_space_group_name_H-M   'P 1'
_cell_length_a   8.19170763
_cell_length_b   8.19170763
_cell_length_c   8.19170763
_cell_angle_alpha   149.65656036
_cell_angle_beta   149.65656036
_cell_angle_gamma   43.44576944
_symmetry_Int_Tables_number   1
_chemical_formula_structural   PrSiAg
_chemical_formula_sum   'Pr2 Si2 Ag2'
_cell_volume   139.90781370
_cell_formula_units_Z   2
loop_
 _symmetry_equiv_pos_site_id
 _symmetry_equiv_pos_as_xyz
  1  'x, y, z'
loop_
 _atom_site_type_symbol
 _atom_site_label
 _atom_site_symmetry_multiplicity
 _atom_site_fract_x
 _atom_site_fract_y
 _atom_site_fract_z
 _atom_site_occupancy
  Pr  Pr0  1  0.58108000  0.58108000  0.00000000  1
  Pr  Pr1  1  0.33108000  0.83108000  0.50000000  1
  Si  Si0  1  0.99972300  0.99972300  0.00000000  1
  Si  Si1  1  0.74972300  0.24972300  0.50000000  1
  Ag  Ag0  1  0.16619700  0.16619700  0.00000000  1
  Ag  Ag1  1  0.91619700  0.41619700  0.50000000  1
loop_
_geom_bond_atom_site_label_1
_geom_bond_atom_site_label_2
_geom_bond_distance
_geom_bond_site_symmetry_2
Pr0 Si0 3.275005 1_556
Pr0 Si0 3.275005 1_455
Pr0 Si0 3.275005 1_444
Pr0 Si0 3.275005 1_545
Pr0 Si1 3.344299 1_554
Pr0 Si1 3.344299 1_565
Pr1 Si1 3.275005 1_555
Pr1 Si1 3.275005 1_566
Pr1 Si1 3.275005 1_454
Pr1 Si1 3.275005 1_465
Pr1 Si0 3.344299 1_455
Pr1 Si0 3.344299 1_556
Ag0 Si1 2.492450 1_555
Ag0 Si1 2.492450 1_454
Ag0 Si0 2.533725 1_445
Ag0 Pr0 3.297068 1_455
Ag0 Pr0 3.297068 1_444
Ag0 Pr0 3.297068 1_545
Ag0 Pr0 3.297068 1_556
Ag0 Pr1 3.300582 1_544
Ag0 Pr1 3.300582 1_555
Ag1 Si0 2.492450 1_556
Ag1 Si0 2.492450 1_545
Ag1 Si1 2.533725 1_555
Ag1 Pr1 3.297068 1_555
Ag1 Pr1 3.297068 1_544
Ag1 Pr1 3.297068 1_656
Ag1 Pr1 3.297068 1_645
Ag1 Pr0 3.300582 1_555
Ag1 Pr0 3.300582 1_656
