# generated using pymatgen
data_Tm3B7W
_symmetry_space_group_name_H-M   'P 1'
_cell_length_a   8.08606165
_cell_length_b   8.08606165
_cell_length_c   9.40249800
_cell_angle_alpha   90.00000000
_cell_angle_beta   90.00000000
_cell_angle_gamma   155.49786445
_symmetry_Int_Tables_number   1
_chemical_formula_structural   Tm3B7W
_chemical_formula_sum   'Tm6 B14 W2'
_cell_volume   254.96456286
_cell_formula_units_Z   2
loop_
 _symmetry_equiv_pos_site_id
 _symmetry_equiv_pos_as_xyz
  1  'x, y, z'
loop_
 _atom_site_type_symbol
 _atom_site_label
 _atom_site_symmetry_multiplicity
 _atom_site_fract_x
 _atom_site_fract_y
 _atom_site_fract_z
 _atom_site_occupancy
  Tm  Tm0  1  0.89284600  0.10715400  0.44020900  1
  Tm  Tm1  1  0.10715400  0.89284600  0.55979100  1
  Tm  Tm2  1  0.89284600  0.10715400  0.05979100  1
  Tm  Tm3  1  0.10715400  0.89284600  0.94020900  1
  Tm  Tm4  1  0.24374000  0.75626000  0.25000000  1
  Tm  Tm5  1  0.75626000  0.24374000  0.75000000  1
  B  B0  1  0.72762400  0.27237600  0.46726900  1
  B  B1  1  0.27237600  0.72762400  0.53273100  1
  B  B2  1  0.72762400  0.27237600  0.03273100  1
  B  B3  1  0.27237600  0.72762400  0.96726900  1
  B  B4  1  0.63491400  0.36508600  0.14612400  1
  B  B5  1  0.36508600  0.63491400  0.85387600  1
  B  B6  1  0.63491400  0.36508600  0.35387600  1
  B  B7  1  0.36508600  0.63491400  0.64612400  1
  B  B8  1  0.51887200  0.48112800  0.09114700  1
  B  B9  1  0.48112800  0.51887200  0.90885300  1
  B  B10  1  0.51887200  0.48112800  0.40885300  1
  B  B11  1  0.48112800  0.51887200  0.59114700  1
  B  B12  1  0.45297200  0.54702800  0.25000000  1
  B  B13  1  0.54702800  0.45297200  0.75000000  1
  W  W0  1  0.05259800  0.94740200  0.25000000  1
  W  W1  1  0.94740200  0.05259800  0.75000000  1
loop_
_geom_bond_atom_site_label_1
_geom_bond_atom_site_label_2
_geom_bond_distance
_geom_bond_site_symmetry_2
B0 B6 1.812034 1_555
B0 B1 1.955281 1_655
B0 B1 1.955281 1_545
B0 Tm0 2.623508 1_555
B0 Tm4 2.679974 1_655
B0 Tm4 2.679974 1_545
B0 Tm5 2.696624 1_555
B0 Tm1 2.706594 1_655
B0 Tm1 2.706594 1_545
B1 B7 1.812034 1_555
B1 Tm1 2.623508 1_555
B1 Tm5 2.679974 1_455
B1 Tm5 2.679974 1_565
B1 Tm4 2.696624 1_555
B1 Tm0 2.706594 1_455
B1 Tm0 2.706594 1_565
B2 B4 1.812034 1_555
B2 B3 1.955281 1_654
B2 B3 1.955281 1_544
B2 Tm2 2.623508 1_555
B2 Tm4 2.679974 1_655
B2 Tm4 2.679974 1_545
B2 Tm5 2.696624 1_554
B2 Tm3 2.706594 1_544
B2 Tm3 2.706594 1_654
B3 B5 1.812034 1_555
B3 Tm3 2.623508 1_555
B3 Tm5 2.679974 1_455
B3 Tm5 2.679974 1_565
B3 Tm4 2.696624 1_556
B3 Tm2 2.706594 1_456
B3 Tm2 2.706594 1_566
B4 B8 1.905369 1_555
B4 B6 1.953388 1_555
B4 W0 2.364395 1_545
B4 W0 2.364395 1_655
B4 Tm4 2.618386 1_545
B4 Tm4 2.618386 1_655
B4 Tm3 2.623944 1_654
B4 Tm3 2.623944 1_544
B5 B9 1.905369 1_555
B5 B7 1.953388 1_555
B5 W1 2.364395 1_455
B5 W1 2.364395 1_565
B5 Tm5 2.618386 1_455
B5 Tm5 2.618386 1_565
B5 Tm2 2.623944 1_566
B5 Tm2 2.623944 1_456
B6 W0 2.364395 1_545
B6 W0 2.364395 1_655
B6 Tm4 2.618386 1_545
B6 Tm4 2.618386 1_655
B6 Tm1 2.623944 1_655
B6 Tm1 2.623944 1_545
B7 W1 2.364395 1_455
B7 W1 2.364395 1_565
B7 Tm5 2.618386 1_455
B7 Tm5 2.618386 1_565
B7 Tm0 2.623944 1_455
B7 Tm0 2.623944 1_565
B8 B9 1.814848 1_554
B8 W0 2.336460 1_545
B8 W0 2.336460 1_655
B8 Tm3 2.627689 1_544
B8 Tm3 2.627689 1_654
B8 Tm2 2.645343 1_565
B8 Tm2 2.645343 1_455
B9 W1 2.336460 1_565
B9 W1 2.336460 1_455
B9 Tm2 2.627689 1_456
B9 Tm2 2.627689 1_566
B9 Tm3 2.645343 1_655
B9 Tm3 2.645343 1_545
B10 B11 1.814848 1_555
B10 B12 1.820866 1_555
B10 B6 1.905369 1_555
B10 W0 2.336460 1_545
B10 W0 2.336460 1_655
B10 Tm1 2.627689 1_655
B10 Tm1 2.627689 1_545
B10 Tm0 2.645343 1_455
B10 Tm0 2.645343 1_565
B11 B13 1.820866 1_555
B11 B7 1.905369 1_555
B11 W1 2.336460 1_565
B11 W1 2.336460 1_455
B11 Tm0 2.627689 1_455
B11 Tm0 2.627689 1_565
B11 Tm1 2.645343 1_545
B11 Tm1 2.645343 1_655
B12 B8 1.820866 1_555
B12 W0 2.328741 1_655
B12 W0 2.328741 1_545
B12 Tm2 2.654337 1_455
B12 Tm2 2.654337 1_565
B12 Tm0 2.654337 1_455
B12 Tm0 2.654337 1_565
B12 Tm4 3.306669 1_555
B13 B9 1.820866 1_555
B13 W1 2.328741 1_455
B13 W1 2.328741 1_565
B13 Tm1 2.654337 1_655
B13 Tm3 2.654337 1_545
B13 Tm1 2.654337 1_545
B13 Tm3 2.654337 1_655
B13 Tm5 3.306669 1_555
