# generated using pymatgen
data_HgC6(S2N)2
_symmetry_space_group_name_H-M   'P 1'
_cell_length_a   9.94335499
_cell_length_b   9.94335499
_cell_length_c   10.25562030
_cell_angle_alpha   67.92769009
_cell_angle_beta   67.92769009
_cell_angle_gamma   45.65354759
_symmetry_Int_Tables_number   1
_chemical_formula_structural   HgC6(S2N)2
_chemical_formula_sum   'Hg2 C12 S8 N4'
_cell_volume   662.11728411
_cell_formula_units_Z   2
loop_
 _symmetry_equiv_pos_site_id
 _symmetry_equiv_pos_as_xyz
  1  'x, y, z'
loop_
 _atom_site_type_symbol
 _atom_site_label
 _atom_site_symmetry_multiplicity
 _atom_site_fract_x
 _atom_site_fract_y
 _atom_site_fract_z
 _atom_site_occupancy
  Hg  Hg0  1  0.00000000  0.00000000  0.50000000  1
  Hg  Hg1  1  0.00000000  0.00000000  0.00000000  1
  C  C0  1  0.09067000  0.69421500  0.39072900  1
  C  C1  1  0.30578500  0.90933000  0.10927100  1
  C  C2  1  0.90933000  0.30578500  0.60927100  1
  C  C3  1  0.69421500  0.09067000  0.89072900  1
  C  C4  1  0.34697700  0.34125600  0.33243300  1
  C  C5  1  0.65874400  0.65302300  0.16756700  1
  C  C6  1  0.65302300  0.65874400  0.66756700  1
  C  C7  1  0.34125600  0.34697700  0.83243300  1
  C  C8  1  0.16358000  0.43510000  0.28808100  1
  C  C9  1  0.56490000  0.83642000  0.21191900  1
  C  C10  1  0.83642000  0.56490000  0.71191900  1
  C  C11  1  0.43510000  0.16358000  0.78808100  1
  S  S0  1  0.23481700  0.66406900  0.47100700  1
  S  S1  1  0.33593100  0.76518300  0.02899300  1
  S  S2  1  0.76518300  0.33593100  0.52899300  1
  S  S3  1  0.66406900  0.23481700  0.97100700  1
  S  S4  1  0.87227300  0.88409900  0.35898500  1
  S  S5  1  0.11590100  0.12772700  0.14101500  1
  S  S6  1  0.12772700  0.11590100  0.64101500  1
  S  S7  1  0.88409900  0.87227300  0.85898500  1
  N  N0  1  0.18293200  0.52122700  0.34615000  1
  N  N1  1  0.47877300  0.81706800  0.15385000  1
  N  N2  1  0.81706800  0.47877300  0.65385000  1
  N  N3  1  0.52122700  0.18293200  0.84615000  1
loop_
_geom_bond_atom_site_label_1
_geom_bond_atom_site_label_2
_geom_bond_distance
_geom_bond_site_symmetry_2
Hg0 S0 2.453382 1_545
Hg0 S2 2.453382 1_455
Hg1 S1 2.453382 1_545
Hg1 S3 2.453382 1_454
C0 N0 1.441906 1_555
C0 S4 1.650476 1_455
C0 S0 1.709620 1_555
C1 N1 1.441906 1_555
C1 S5 1.650476 1_565
C1 S1 1.709620 1_555
C2 N2 1.441906 1_555
C2 S6 1.650476 1_655
C2 S2 1.709620 1_555
C3 N3 1.441906 1_555
C3 S7 1.650476 1_545
C3 S3 1.709620 1_555
C4 N0 1.348653 1_555
C5 N1 1.348653 1_555
C6 N2 1.348653 1_555
C7 N3 1.348653 1_555
C8 N0 1.350886 1_555
C9 N1 1.350886 1_555
C10 N2 1.350886 1_555
C11 N3 1.350886 1_555
