# generated using pymatgen
data_Mn6Te5O16
_symmetry_space_group_name_H-M   'P 1'
_cell_length_a   10.71596206
_cell_length_b   11.55576465
_cell_length_c   13.43799685
_cell_angle_alpha   90.00000000
_cell_angle_beta   90.00000000
_cell_angle_gamma   90.00000000
_symmetry_Int_Tables_number   1
_chemical_formula_structural   Mn6Te5O16
_chemical_formula_sum   'Mn24 Te20 O64'
_cell_volume   1664.04240964
_cell_formula_units_Z   4
loop_
 _symmetry_equiv_pos_site_id
 _symmetry_equiv_pos_as_xyz
  1  'x, y, z'
loop_
 _atom_site_type_symbol
 _atom_site_label
 _atom_site_symmetry_multiplicity
 _atom_site_fract_x
 _atom_site_fract_y
 _atom_site_fract_z
 _atom_site_occupancy
  Mn  Mn0  1  0.92953869  0.74996437  0.99185966  1
  Mn  Mn1  1  0.07046131  0.25003563  0.00814034  1
  Mn  Mn2  1  0.07046131  0.75003563  0.49185966  1
  Mn  Mn3  1  0.42953869  0.25003563  0.00814034  1
  Mn  Mn4  1  0.92953869  0.24996437  0.50814034  1
  Mn  Mn5  1  0.57046131  0.74996437  0.99185966  1
  Mn  Mn6  1  0.57046131  0.24996437  0.50814034  1
  Mn  Mn7  1  0.42953869  0.75003563  0.49185966  1
  Mn  Mn8  1  0.90967173  0.74991824  0.72916784  1
  Mn  Mn9  1  0.09032827  0.25008176  0.27083216  1
  Mn  Mn10  1  0.09032827  0.75008176  0.22916784  1
  Mn  Mn11  1  0.40967173  0.25008176  0.27083216  1
  Mn  Mn12  1  0.90967173  0.24991824  0.77083216  1
  Mn  Mn13  1  0.59032827  0.74991824  0.72916784  1
  Mn  Mn14  1  0.59032827  0.24991824  0.77083216  1
  Mn  Mn15  1  0.40967173  0.75008176  0.22916784  1
  Mn  Mn16  1  0.42540176  0.98416699  0.89315848  1
  Mn  Mn17  1  0.57459824  0.01583301  0.10684152  1
  Mn  Mn18  1  0.57459824  0.51583301  0.39315848  1
  Mn  Mn19  1  0.92540176  0.01583301  0.10684152  1
  Mn  Mn20  1  0.42540176  0.48416699  0.60684152  1
  Mn  Mn21  1  0.07459824  0.98416699  0.89315848  1
  Mn  Mn22  1  0.07459824  0.48416699  0.60684152  1
  Mn  Mn23  1  0.92540176  0.51583301  0.39315848  1
  Te  Te0  1  0.75000000  0.80211530  0.18306355  1
  Te  Te1  1  0.25000000  0.19788470  0.81693645  1
  Te  Te2  1  0.25000000  0.69788470  0.68306355  1
  Te  Te3  1  0.75000000  0.30211530  0.31693645  1
  Te  Te4  1  0.75000000  0.96399361  0.86367964  1
  Te  Te5  1  0.25000000  0.03600639  0.13632036  1
  Te  Te6  1  0.25000000  0.53600639  0.36367964  1
  Te  Te7  1  0.75000000  0.46399361  0.63632036  1
  Te  Te8  1  0.75000000  0.77933885  0.49408342  1
  Te  Te9  1  0.25000000  0.22066115  0.50591658  1
  Te  Te10  1  0.25000000  0.72066115  0.99408342  1
  Te  Te11  1  0.75000000  0.27933885  0.00591658  1
  Te  Te12  1  0.96477028  0.99275899  0.36381019  1
  Te  Te13  1  0.03522972  0.00724101  0.63618981  1
  Te  Te14  1  0.03522972  0.50724101  0.86381019  1
  Te  Te15  1  0.46477028  0.00724101  0.63618981  1
  Te  Te16  1  0.96477028  0.49275899  0.13618981  1
  Te  Te17  1  0.53522972  0.99275899  0.36381019  1
  Te  Te18  1  0.53522972  0.49275899  0.13618981  1
  Te  Te19  1  0.46477028  0.50724101  0.86381019  1
  O  O0  1  0.92169334  0.63285726  0.85683280  1
  O  O1  1  0.07830666  0.36714274  0.14316720  1
  O  O2  1  0.07830666  0.86714274  0.35683280  1
  O  O3  1  0.42169334  0.36714274  0.14316720  1
  O  O4  1  0.92169334  0.13285726  0.64316720  1
  O  O5  1  0.57830666  0.63285726  0.85683280  1
  O  O6  1  0.57830666  0.13285726  0.64316720  1
  O  O7  1  0.42169334  0.86714274  0.35683280  1
  O  O8  1  0.43905703  0.67451503  0.65062685  1
  O  O9  1  0.56094297  0.32548497  0.34937315  1
  O  O10  1  0.56094297  0.82548497  0.15062685  1
  O  O11  1  0.93905703  0.32548497  0.34937315  1
  O  O12  1  0.43905703  0.17451503  0.84937315  1
  O  O13  1  0.06094297  0.67451503  0.65062685  1
  O  O14  1  0.06094297  0.17451503  0.84937315  1
  O  O15  1  0.93905703  0.82548497  0.15062685  1
  O  O16  1  0.75000000  0.21797108  0.44155630  1
  O  O17  1  0.25000000  0.78202892  0.55844370  1
  O  O18  1  0.25000000  0.28202892  0.94155630  1
  O  O19  1  0.75000000  0.71797108  0.05844370  1
  O  O20  1  0.75000000  0.72226649  0.62807771  1
  O  O21  1  0.25000000  0.27773351  0.37192229  1
  O  O22  1  0.25000000  0.77773351  0.12807771  1
  O  O23  1  0.75000000  0.22226649  0.87192229  1
  O  O24  1  0.88504830  0.94054854  0.95607912  1
  O  O25  1  0.11495170  0.05945146  0.04392088  1
  O  O26  1  0.11495170  0.55945146  0.45607912  1
  O  O27  1  0.38504830  0.05945146  0.04392088  1
  O  O28  1  0.88504830  0.44054854  0.54392088  1
  O  O29  1  0.61495170  0.94054854  0.95607912  1
  O  O30  1  0.61495170  0.44054854  0.54392088  1
  O  O31  1  0.38504830  0.55945146  0.45607912  1
  O  O32  1  0.75000000  0.80940492  0.81917119  1
  O  O33  1  0.25000000  0.19059508  0.18082881  1
  O  O34  1  0.25000000  0.69059508  0.31917119  1
  O  O35  1  0.75000000  0.30940492  0.68082881  1
  O  O36  1  0.95596434  0.89916533  0.55009022  1
  O  O37  1  0.04403566  0.10083467  0.44990978  1
  O  O38  1  0.04403566  0.60083467  0.05009022  1
  O  O39  1  0.45596434  0.10083467  0.44990978  1
  O  O40  1  0.95596434  0.39916533  0.94990978  1
  O  O41  1  0.54403566  0.89916533  0.55009022  1
  O  O42  1  0.54403566  0.39916533  0.94990978  1
  O  O43  1  0.45596434  0.60083467  0.05009022  1
  O  O44  1  0.98400693  0.92565477  0.75427629  1
  O  O45  1  0.01599307  0.07434523  0.24572371  1
  O  O46  1  0.01599307  0.57434523  0.25427629  1
  O  O47  1  0.48400693  0.07434523  0.24572371  1
  O  O48  1  0.98400693  0.42565477  0.74572371  1
  O  O49  1  0.51599307  0.92565477  0.75427629  1
  O  O50  1  0.51599307  0.42565477  0.74572371  1
  O  O51  1  0.48400693  0.57434523  0.25427629  1
  O  O52  1  0.38541238  0.81107941  0.94507982  1
  O  O53  1  0.61458762  0.18892059  0.05492018  1
  O  O54  1  0.61458762  0.68892059  0.44507982  1
  O  O55  1  0.88541238  0.18892059  0.05492018  1
  O  O56  1  0.38541238  0.31107941  0.55492018  1
  O  O57  1  0.11458762  0.81107941  0.94507982  1
  O  O58  1  0.11458762  0.31107941  0.55492018  1
  O  O59  1  0.88541238  0.68892059  0.44507982  1
  O  O60  1  0.75000000  0.96875556  0.16918125  1
  O  O61  1  0.25000000  0.03124444  0.83081875  1
  O  O62  1  0.25000000  0.53124444  0.66918125  1
  O  O63  1  0.75000000  0.46875556  0.33081875  1
loop_
_geom_bond_atom_site_label_1
_geom_bond_atom_site_label_2
_geom_bond_distance
_geom_bond_site_symmetry_2
Mn0 O19 2.153782 1_556
Mn0 O57 2.196846 1_655
Mn0 O38 2.255547 1_656
Mn0 O0 2.265119 1_555
Mn0 O24 2.304086 1_555
Mn0 O15 2.307354 1_556
Mn1 O18 2.153782 1_554
Mn1 O55 2.196846 1_455
Mn1 O40 2.255547 1_454
Mn1 O1 2.265119 1_555
Mn1 O25 2.304086 1_555
Mn1 O14 2.307354 1_554
Mn2 O17 2.153782 1_555
Mn2 O59 2.196846 1_455
Mn2 O36 2.255547 1_455
Mn2 O2 2.265119 1_555
Mn2 O26 2.304086 1_555
Mn2 O13 2.307354 1_555
Mn3 O18 2.153782 1_554
Mn3 O53 2.196846 1_555
Mn3 O42 2.255547 1_554
Mn3 O3 2.265119 1_555
Mn3 O27 2.304086 1_555
Mn3 O12 2.307354 1_554
Mn4 O16 2.153782 1_555
Mn4 O58 2.196846 1_655
Mn4 O37 2.255547 1_655
Mn4 O4 2.265119 1_555
Mn4 O28 2.304086 1_555
Mn4 O11 2.307354 1_555
Mn5 O19 2.153782 1_556
Mn5 O52 2.196846 1_555
Mn5 O43 2.255547 1_556
Mn5 O5 2.265119 1_555
Mn5 O29 2.304086 1_555
Mn5 O10 2.307354 1_556
Mn6 O16 2.153782 1_555
Mn6 O56 2.196846 1_555
Mn6 O39 2.255547 1_555
Mn6 O6 2.265119 1_555
Mn6 O30 2.304086 1_555
Mn6 O9 2.307354 1_555
Mn7 O17 2.153782 1_555
Mn7 O54 2.196846 1_555
Mn7 O41 2.255547 1_555
Mn7 O7 2.265119 1_555
Mn7 O31 2.304086 1_555
Mn7 O8 2.307354 1_555
Mn8 O13 2.121526 1_655
Mn8 O0 2.188521 1_555
Mn8 O32 2.205218 1_555
Mn8 O44 2.207351 1_555
Mn8 O20 2.207970 1_555
Mn9 O11 2.121526 1_455
Mn9 O1 2.188521 1_555
Mn9 O33 2.205218 1_555
Mn9 O45 2.207351 1_555
Mn9 O21 2.207970 1_555
Mn10 O15 2.121526 1_455
Mn10 O2 2.188521 1_555
Mn10 O34 2.205218 1_555
Mn10 O46 2.207351 1_555
Mn10 O22 2.207970 1_555
Mn11 O9 2.121526 1_555
Mn11 O3 2.188521 1_555
Mn11 O33 2.205218 1_555
Mn11 O47 2.207351 1_555
Mn11 O21 2.207970 1_555
Mn12 O14 2.121526 1_655
Mn12 O4 2.188521 1_555
Mn12 O35 2.205218 1_555
Mn12 O48 2.207351 1_555
Mn12 O23 2.207970 1_555
Mn13 O8 2.121526 1_555
Mn13 O5 2.188521 1_555
Mn13 O32 2.205218 1_555
Mn13 O49 2.207351 1_555
Mn13 O20 2.207970 1_555
Mn14 O12 2.121526 1_555
Mn14 O6 2.188521 1_555
Mn14 O35 2.205218 1_555
Mn14 O50 2.207351 1_555
Mn14 O23 2.207970 1_555
Mn15 O10 2.121526 1_555
Mn15 O7 2.188521 1_555
Mn15 O34 2.205218 1_555
Mn15 O51 2.207351 1_555
Mn15 O22 2.207970 1_555
Mn16 O61 2.128526 1_565
Mn16 O52 2.161269 1_555
Mn16 O49 2.209673 1_555
Mn16 O27 2.246840 1_566
Mn16 O29 2.257164 1_555
Mn16 O12 2.281650 1_565
Mn17 O60 2.128526 1_545
Mn17 O53 2.161269 1_555
Mn17 O47 2.209673 1_555
Mn17 O29 2.246840 1_544
Mn17 O27 2.257164 1_555
Mn17 O10 2.281650 1_545
Mn18 O63 2.128526 1_555
Mn18 O54 2.161269 1_555
Mn18 O51 2.209673 1_555
Mn18 O30 2.246840 1_555
Mn18 O31 2.257164 1_555
Mn18 O9 2.281650 1_555
Mn19 O60 2.128526 1_545
Mn19 O55 2.161269 1_555
Mn19 O45 2.209673 1_655
Mn19 O24 2.246840 1_544
Mn19 O25 2.257164 1_655
Mn19 O15 2.281650 1_545
Mn20 O62 2.128526 1_555
Mn20 O56 2.161269 1_555
Mn20 O50 2.209673 1_555
Mn20 O31 2.246840 1_555
Mn20 O30 2.257164 1_555
Mn20 O8 2.281650 1_555
Mn21 O61 2.128526 1_565
Mn21 O57 2.161269 1_555
Mn21 O44 2.209673 1_455
Mn21 O25 2.246840 1_566
Mn21 O24 2.257164 1_455
Mn21 O14 2.281650 1_565
Mn22 O62 2.128526 1_555
Mn22 O58 2.161269 1_555
Mn22 O48 2.209673 1_455
Mn22 O26 2.246840 1_555
Mn22 O28 2.257164 1_455
Mn22 O13 2.281650 1_555
Mn23 O63 2.128526 1_555
Mn23 O59 2.161269 1_555
Mn23 O46 2.209673 1_655
Mn23 O28 2.246840 1_555
Mn23 O26 2.257164 1_655
Mn23 O11 2.281650 1_555
O0 Te14 1.896352 1_655
O1 Te16 1.896352 1_455
O2 Te12 1.896352 1_455
O3 Te18 1.896352 1_555
O4 Te13 1.896352 1_655
O5 Te19 1.896352 1_555
O6 Te15 1.896352 1_555
O7 Te17 1.896352 1_555
O8 Te2 2.089811 1_555
O9 Te3 2.089811 1_555
O10 Te0 2.089811 1_555
O11 Te3 2.089811 1_555
O12 Te1 2.089811 1_555
O13 Te2 2.089811 1_555
O14 Te1 2.089811 1_555
O15 Te0 2.089811 1_555
O16 Te3 1.936463 1_555
O17 Te2 1.936463 1_555
O18 Te1 1.936463 1_555
O19 Te0 1.936463 1_555
O20 Te8 1.917596 1_555
O21 Te9 1.917596 1_555
O22 Te10 1.917596 1_554
O23 Te11 1.917596 1_556
O24 Te4 1.925990 1_555
O25 Te5 1.925990 1_555
O26 Te6 1.925990 1_555
O27 Te5 1.925990 1_555
O28 Te7 1.925990 1_555
O29 Te4 1.925990 1_555
O30 Te7 1.925990 1_555
O31 Te6 1.925990 1_555
O32 Te4 1.883858 1_555
O33 Te5 1.883858 1_555
O34 Te6 1.883858 1_555
O35 Te7 1.883858 1_555
O36 Te13 1.902602 1_665
O37 Te12 1.902602 1_445
O38 Te16 1.902602 1_455
O39 Te17 1.902602 1_545
O40 Te14 1.902602 1_655
O41 Te15 1.902602 1_565
O42 Te19 1.902602 1_555
O43 Te18 1.902602 1_555
O44 Te13 1.925676 1_665
O45 Te12 1.925676 1_445
O46 Te16 1.925676 1_455
O47 Te17 1.925676 1_545
O48 Te14 1.925676 1_655
O49 Te15 1.925676 1_565
O50 Te19 1.925676 1_555
O51 Te18 1.925676 1_555
O52 Te10 1.905510 1_555
O53 Te11 1.905510 1_555
O54 Te8 1.905510 1_555
O55 Te11 1.905510 1_555
O56 Te9 1.905510 1_555
O57 Te10 1.905510 1_555
O58 Te9 1.905510 1_555
O59 Te8 1.905510 1_555
O60 Te0 1.934671 1_555
O61 Te1 1.934671 1_555
O62 Te2 1.934671 1_555
O63 Te3 1.934671 1_555
