# generated using pymatgen
data_Li2VPO4F
_symmetry_space_group_name_H-M   'P 1'
_cell_length_a   5.45739297
_cell_length_b   7.75930680
_cell_length_c   10.45667052
_cell_angle_alpha   78.74270864
_cell_angle_beta   99.55201145
_cell_angle_gamma   69.56919525
_symmetry_Int_Tables_number   1
_chemical_formula_structural   Li2VPO4F
_chemical_formula_sum   'Li8 V4 P4 O16 F4'
_cell_volume   393.53480718
_cell_formula_units_Z   4
loop_
 _symmetry_equiv_pos_site_id
 _symmetry_equiv_pos_as_xyz
  1  'x, y, z'
loop_
 _atom_site_type_symbol
 _atom_site_label
 _atom_site_symmetry_multiplicity
 _atom_site_fract_x
 _atom_site_fract_y
 _atom_site_fract_z
 _atom_site_occupancy
  Li  Li0  1  0.49475500  0.53197400  0.81194500  1
  Li  Li1  1  0.99473000  0.03198400  0.31192900  1
  Li  Li2  1  0.71530900  0.56457000  0.59147000  1
  Li  Li3  1  0.21531300  0.06455300  0.09147900  1
  Li  Li4  1  0.31126700  0.66587500  0.26724400  1
  Li  Li5  1  0.81124400  0.16587800  0.76723800  1
  Li  Li6  1  0.30654600  0.29478300  0.27205900  1
  Li  Li7  1  0.80654300  0.79472100  0.77206600  1
  V  V0  1  0.50125900  0.99945600  0.50071500  1
  V  V1  1  0.25178100  0.24947300  0.75033200  1
  V  V2  1  0.00137000  0.49947600  0.00086900  1
  V  V3  1  0.75200900  0.74936800  0.25031200  1
  P  P0  1  0.65815600  0.19723500  0.05261000  1
  P  P1  1  0.15817100  0.69720300  0.55259600  1
  P  P2  1  0.34277800  0.80247500  0.94757700  1
  P  P3  1  0.84276500  0.30251400  0.44755800  1
  O  O0  1  0.85545900  0.29224600  0.09375900  1
  O  O1  1  0.35544400  0.79224200  0.59371400  1
  O  O2  1  0.31794100  0.48291600  0.63037600  1
  O  O3  1  0.81797300  0.98290900  0.13033700  1
  O  O4  1  0.16626500  0.69361900  0.90337800  1
  O  O5  1  0.66629600  0.19363200  0.40338200  1
  O  O6  1  0.68744100  0.52172000  0.38143600  1
  O  O7  1  0.18745300  0.02168400  0.88145200  1
  O  O8  1  0.38673800  0.26750000  0.09469700  1
  O  O9  1  0.88675600  0.76750800  0.59467500  1
  O  O10  1  0.58440600  0.24234500  0.89576900  1
  O  O11  1  0.08449600  0.74231100  0.39574700  1
  O  O12  1  0.60740700  0.71998600  0.90247100  1
  O  O13  1  0.10746300  0.21998600  0.40248400  1
  O  O14  1  0.40784900  0.77482000  0.10249500  1
  O  O15  1  0.90783000  0.27481500  0.60246800  1
  F  F0  1  0.91216200  0.44648000  0.80406600  1
  F  F1  1  0.41219000  0.94647300  0.30406100  1
  F  F2  1  0.07303000  0.55904300  0.19121000  1
  F  F3  1  0.57300300  0.05902600  0.69122500  1
loop_
_geom_bond_atom_site_label_1
_geom_bond_atom_site_label_2
_geom_bond_distance
_geom_bond_site_symmetry_2
Li0 O12 2.091509 1_555
Li0 O10 2.092623 1_555
Li0 O2 2.147394 1_555
Li0 O4 2.273381 1_555
Li0 O1 2.533138 1_555
Li1 O13 2.091808 1_655
Li1 O11 2.092791 1_645
Li1 O3 2.147551 1_545
Li1 O5 2.273324 1_555
Li1 O0 2.532698 1_555
Li2 O15 2.093259 1_555
Li2 O9 2.096408 1_555
Li2 O1 2.141877 1_555
Li2 O6 2.273053 1_555
Li2 O2 2.533996 1_555
Li3 O14 2.093072 1_545
Li3 O8 2.096399 1_555
Li3 O0 2.142044 1_455
Li3 O7 2.273035 1_554
Li3 O3 2.533681 1_445
Li4 O6 1.988283 1_555
Li4 O14 2.001014 1_555
Li4 O11 2.009861 1_555
Li5 O7 1.988523 1_655
Li5 O15 2.001185 1_555
Li5 O10 2.010383 1_555
Li6 O5 1.991199 1_555
Li6 O13 2.000051 1_555
Li6 O8 2.008464 1_555
Li7 O4 1.991067 1_655
Li7 O12 1.999954 1_555
Li7 O9 2.008686 1_555
O0 P0 1.553167 1_555
O0 V2 2.168851 1_655
O1 P1 1.553119 1_555
O1 V0 2.168802 1_555
O2 P1 1.552699 1_555
O2 V1 2.169003 1_555
O3 P0 1.552836 1_565
O3 V3 2.169092 1_555
O4 P2 1.558104 1_555
O4 V2 2.183954 1_556
O5 P3 1.558014 1_555
O5 V0 2.184049 1_545
O6 P3 1.558639 1_555
O6 V3 2.184852 1_555
O7 P2 1.558663 1_545
O7 V1 2.184926 1_555
O8 P0 1.559231 1_555
O8 V2 2.146711 1_555
O9 P1 1.559197 1_655
O9 V0 2.147234 1_555
O10 P0 1.559701 1_556
O10 V1 2.142870 1_555
O11 P1 1.559781 1_555
O11 V3 2.142541 1_455
O12 P2 1.554476 1_555
O12 V2 2.149172 1_656
O13 P3 1.554655 1_455
O13 V0 2.148367 1_545
O14 P2 1.554502 1_554
O14 V3 2.148060 1_555
O15 P3 1.554370 1_555
O15 V1 2.147811 1_655
F0 Li2 2.158820 1_555
F0 Li0 2.159757 1_555
F0 V2 2.186032 1_656
F0 V1 2.188746 1_655
F0 Li7 2.498239 1_555
F0 Li5 2.507251 1_555
F1 Li3 2.158713 1_565
F1 Li1 2.159995 1_465
F1 V0 2.184420 1_555
F1 V3 2.189878 1_555
F1 Li6 2.498736 1_565
F1 Li4 2.507202 1_555
F2 Li4 1.917380 1_555
F2 Li6 1.919509 1_555
F2 V3 2.131083 1_455
F2 V2 2.134251 1_555
F3 Li5 1.917429 1_555
F3 Li7 1.919789 1_545
F3 V1 2.132239 1_555
F3 V0 2.135978 1_545
