# generated using pymatgen
data_MnTlRh2
_symmetry_space_group_name_H-M   'P 1'
_cell_length_a   6.35470800
_cell_length_b   6.35470800
_cell_length_c   12.82050600
_cell_angle_alpha   90.00000000
_cell_angle_beta   90.00000000
_cell_angle_gamma   90.00000000
_symmetry_Int_Tables_number   1
_chemical_formula_structural   MnTlRh2
_chemical_formula_sum   'Mn8 Tl8 Rh16'
_cell_volume   517.72169592
_cell_formula_units_Z   8
loop_
 _symmetry_equiv_pos_site_id
 _symmetry_equiv_pos_as_xyz
  1  'x, y, z'
loop_
 _atom_site_type_symbol
 _atom_site_label
 _atom_site_symmetry_multiplicity
 _atom_site_fract_x
 _atom_site_fract_y
 _atom_site_fract_z
 _atom_site_occupancy
  Mn  Mn0_0  1  0.00000000  0.00000000  0.00000000  1
  Mn  Mn0_1  1  0.00000000  0.00000000  0.50000000  1
  Mn  Mn0_2  1  0.00000000  0.50000000  0.00000000  1
  Mn  Mn0_3  1  0.00000000  0.50000000  0.50000000  1
  Mn  Mn0_4  1  0.50000000  0.00000000  0.00000000  1
  Mn  Mn0_5  1  0.50000000  0.00000000  0.50000000  1
  Mn  Mn0_6  1  0.50000000  0.50000000  0.00000000  1
  Mn  Mn0_7  1  0.50000000  0.50000000  0.50000000  1
  Tl  Tl0_0  1  0.00000000  0.00000000  0.25000000  1
  Tl  Tl0_1  1  0.00000000  0.00000000  0.75000000  1
  Tl  Tl0_2  1  0.00000000  0.50000000  0.25000000  1
  Tl  Tl0_3  1  0.00000000  0.50000000  0.75000000  1
  Tl  Tl0_4  1  0.50000000  0.00000000  0.25000000  1
  Tl  Tl0_5  1  0.50000000  0.00000000  0.75000000  1
  Tl  Tl0_6  1  0.50000000  0.50000000  0.25000000  1
  Tl  Tl0_7  1  0.50000000  0.50000000  0.75000000  1
  Rh  Rh0_0  1  0.25000000  0.25000000  0.11302900  1
  Rh  Rh0_1  1  0.25000000  0.25000000  0.61302900  1
  Rh  Rh0_2  1  0.25000000  0.75000000  0.11302900  1
  Rh  Rh0_3  1  0.25000000  0.75000000  0.61302900  1
  Rh  Rh0_4  1  0.75000000  0.25000000  0.11302900  1
  Rh  Rh0_5  1  0.75000000  0.25000000  0.61302900  1
  Rh  Rh0_6  1  0.75000000  0.75000000  0.11302900  1
  Rh  Rh0_7  1  0.75000000  0.75000000  0.61302900  1
  Rh  Rh1_0  1  0.25000000  0.25000000  0.38697100  1
  Rh  Rh1_1  1  0.25000000  0.25000000  0.88697100  1
  Rh  Rh1_2  1  0.25000000  0.75000000  0.38697100  1
  Rh  Rh1_3  1  0.25000000  0.75000000  0.88697100  1
  Rh  Rh1_4  1  0.75000000  0.25000000  0.38697100  1
  Rh  Rh1_5  1  0.75000000  0.25000000  0.88697100  1
  Rh  Rh1_6  1  0.75000000  0.75000000  0.38697100  1
  Rh  Rh1_7  1  0.75000000  0.75000000  0.88697100  1
loop_
_geom_bond_atom_site_label_1
_geom_bond_atom_site_label_2
_geom_bond_distance
_geom_bond_site_symmetry_2
Mn0_0 Rh0_4 2.673509 1_455
Mn0_0 Rh0_2 2.673509 1_545
Mn0_0 Rh0_6 2.673509 1_445
Mn0_0 Rh0_0 2.673509 1_555
Mn0_0 Rh1_1 2.673509 1_554
Mn0_0 Rh1_3 2.673509 1_544
Mn0_0 Rh1_7 2.673509 1_444
Mn0_0 Rh1_5 2.673509 1_454
Mn0_0 Tl0_1 3.205126 1_554
Mn0_0 Tl0_0 3.205126 1_555
Mn0_1 Rh0_1 2.673509 1_555
Mn0_1 Rh0_5 2.673509 1_455
Mn0_1 Rh0_3 2.673509 1_545
Mn0_1 Rh0_7 2.673509 1_445
Mn0_1 Rh1_6 2.673509 1_445
Mn0_1 Rh1_2 2.673509 1_545
Mn0_1 Rh1_4 2.673509 1_455
Mn0_1 Rh1_0 2.673509 1_555
Mn0_1 Tl0_0 3.205126 1_555
Mn0_1 Tl0_1 3.205126 1_555
Mn0_2 Rh0_4 2.673509 1_455
Mn0_2 Rh0_2 2.673509 1_555
Mn0_2 Rh0_6 2.673509 1_455
Mn0_2 Rh0_0 2.673509 1_555
Mn0_2 Rh1_3 2.673509 1_554
Mn0_2 Rh1_7 2.673509 1_454
Mn0_2 Rh1_5 2.673509 1_454
Mn0_2 Rh1_1 2.673509 1_554
Mn0_2 Tl0_3 3.205126 1_554
Mn0_2 Tl0_2 3.205126 1_555
Mn0_3 Rh0_1 2.673509 1_555
Mn0_3 Rh0_3 2.673509 1_555
Mn0_3 Rh0_5 2.673509 1_455
Mn0_3 Rh0_7 2.673509 1_455
Mn0_3 Rh1_0 2.673509 1_555
Mn0_3 Rh1_6 2.673509 1_455
Mn0_3 Rh1_4 2.673509 1_455
Mn0_3 Rh1_2 2.673509 1_555
Mn0_3 Tl0_2 3.205126 1_555
Mn0_3 Tl0_3 3.205126 1_555
Mn0_4 Rh0_6 2.673509 1_545
Mn0_4 Rh0_4 2.673509 1_555
Mn0_4 Rh0_2 2.673509 1_545
Mn0_4 Rh0_0 2.673509 1_555
Mn0_4 Rh1_1 2.673509 1_554
Mn0_4 Rh1_3 2.673509 1_544
Mn0_4 Rh1_5 2.673509 1_554
Mn0_4 Rh1_7 2.673509 1_544
Mn0_4 Tl0_4 3.205126 1_555
Mn0_4 Tl0_5 3.205126 1_554
Mn0_5 Rh0_1 2.673509 1_555
Mn0_5 Rh0_3 2.673509 1_545
Mn0_5 Rh0_7 2.673509 1_545
Mn0_5 Rh0_5 2.673509 1_555
Mn0_5 Rh1_4 2.673509 1_555
Mn0_5 Rh1_2 2.673509 1_545
Mn0_5 Rh1_6 2.673509 1_545
Mn0_5 Rh1_0 2.673509 1_555
Mn0_5 Tl0_4 3.205126 1_555
Mn0_5 Tl0_5 3.205126 1_555
Mn0_6 Rh0_6 2.673509 1_555
Mn0_6 Rh0_4 2.673509 1_555
Mn0_6 Rh0_2 2.673509 1_555
Mn0_6 Rh0_0 2.673509 1_555
Mn0_6 Rh1_3 2.673509 1_554
Mn0_6 Rh1_1 2.673509 1_554
Mn0_6 Rh1_7 2.673509 1_554
Mn0_6 Rh1_5 2.673509 1_554
Mn0_6 Tl0_7 3.205126 1_554
Mn0_6 Tl0_6 3.205126 1_555
Mn0_7 Rh0_1 2.673509 1_555
Mn0_7 Rh0_3 2.673509 1_555
Mn0_7 Rh0_7 2.673509 1_555
Mn0_7 Rh0_5 2.673509 1_555
Mn0_7 Rh1_4 2.673509 1_555
Mn0_7 Rh1_6 2.673509 1_555
Mn0_7 Rh1_0 2.673509 1_555
Mn0_7 Rh1_2 2.673509 1_555
Mn0_7 Tl0_7 3.205126 1_555
Mn0_7 Tl0_6 3.205126 1_555
Tl0_0 Tl0_4 3.177354 1_455
Tl0_0 Tl0_4 3.177354 1_555
Tl0_0 Tl0_2 3.177354 1_545
Tl0_0 Tl0_2 3.177354 1_555
Tl0_1 Tl0_3 3.177354 1_555
Tl0_1 Tl0_3 3.177354 1_545
Tl0_1 Tl0_5 3.177354 1_455
Tl0_1 Tl0_5 3.177354 1_555
Tl0_2 Tl0_6 3.177354 1_555
Tl0_2 Tl0_6 3.177354 1_455
Tl0_3 Tl0_7 3.177354 1_555
Tl0_3 Tl0_7 3.177354 1_455
Tl0_4 Tl0_6 3.177354 1_545
Tl0_4 Tl0_6 3.177354 1_555
Tl0_5 Tl0_7 3.177354 1_555
Tl0_5 Tl0_7 3.177354 1_545
Rh0_0 Tl0_2 2.851571 1_555
Rh0_0 Tl0_6 2.851571 1_555
Rh0_0 Tl0_0 2.851571 1_555
Rh0_0 Tl0_4 2.851571 1_555
Rh0_1 Tl0_3 2.851571 1_555
Rh0_1 Tl0_5 2.851571 1_555
Rh0_1 Tl0_7 2.851571 1_555
Rh0_1 Tl0_1 2.851571 1_555
Rh0_2 Tl0_4 2.851571 1_565
Rh0_2 Tl0_2 2.851571 1_555
Rh0_2 Tl0_6 2.851571 1_555
Rh0_2 Tl0_0 2.851571 1_565
Rh0_3 Tl0_1 2.851571 1_565
Rh0_3 Tl0_3 2.851571 1_555
Rh0_3 Tl0_5 2.851571 1_565
Rh0_3 Tl0_7 2.851571 1_555
Rh0_4 Tl0_2 2.851571 1_655
Rh0_4 Tl0_6 2.851571 1_555
Rh0_4 Tl0_4 2.851571 1_555
Rh0_4 Tl0_0 2.851571 1_655
Rh0_5 Tl0_1 2.851571 1_655
Rh0_5 Tl0_5 2.851571 1_555
Rh0_5 Tl0_7 2.851571 1_555
Rh0_5 Tl0_3 2.851571 1_655
Rh0_6 Tl0_4 2.851571 1_565
Rh0_6 Tl0_2 2.851571 1_655
Rh0_6 Tl0_6 2.851571 1_555
Rh0_6 Tl0_0 2.851571 1_665
Rh0_7 Tl0_1 2.851571 1_665
Rh0_7 Tl0_5 2.851571 1_565
Rh0_7 Tl0_7 2.851571 1_555
Rh0_7 Tl0_3 2.851571 1_655
Rh1_0 Tl0_2 2.851571 1_555
Rh1_0 Tl0_0 2.851571 1_555
Rh1_0 Tl0_6 2.851571 1_555
Rh1_0 Tl0_4 2.851571 1_555
Rh1_1 Tl0_1 2.851571 1_555
Rh1_1 Tl0_7 2.851571 1_555
Rh1_1 Tl0_3 2.851571 1_555
Rh1_1 Tl0_5 2.851571 1_555
Rh1_2 Tl0_2 2.851571 1_555
Rh1_2 Tl0_6 2.851571 1_555
Rh1_2 Tl0_0 2.851571 1_565
Rh1_2 Tl0_4 2.851571 1_565
Rh1_3 Tl0_5 2.851571 1_565
Rh1_3 Tl0_7 2.851571 1_555
Rh1_3 Tl0_1 2.851571 1_565
Rh1_3 Tl0_3 2.851571 1_555
Rh1_4 Tl0_2 2.851571 1_655
Rh1_4 Tl0_6 2.851571 1_555
Rh1_4 Tl0_0 2.851571 1_655
Rh1_4 Tl0_4 2.851571 1_555
Rh1_5 Tl0_7 2.851571 1_555
Rh1_5 Tl0_3 2.851571 1_655
Rh1_5 Tl0_1 2.851571 1_655
Rh1_5 Tl0_5 2.851571 1_555
Rh1_6 Tl0_2 2.851571 1_655
Rh1_6 Tl0_6 2.851571 1_555
Rh1_6 Tl0_0 2.851571 1_665
Rh1_6 Tl0_4 2.851571 1_565
Rh1_7 Tl0_5 2.851571 1_565
Rh1_7 Tl0_7 2.851571 1_555
Rh1_7 Tl0_3 2.851571 1_655
Rh1_7 Tl0_1 2.851571 1_665
