# generated using pymatgen
data_C4Cl5
_symmetry_space_group_name_H-M   'P 1'
_cell_length_a   10.06505703
_cell_length_b   16.68624575
_cell_length_c   18.80913649
_cell_angle_alpha   90.00000000
_cell_angle_beta   90.00000000
_cell_angle_gamma   90.00000000
_symmetry_Int_Tables_number   1
_chemical_formula_structural   C4Cl5
_chemical_formula_sum   'C64 Cl80'
_cell_volume   3158.95713906
_cell_formula_units_Z   16
loop_
 _symmetry_equiv_pos_site_id
 _symmetry_equiv_pos_as_xyz
  1  'x, y, z'
loop_
 _atom_site_type_symbol
 _atom_site_label
 _atom_site_symmetry_multiplicity
 _atom_site_fract_x
 _atom_site_fract_y
 _atom_site_fract_z
 _atom_site_occupancy
  C  C0  1  0.16423477  0.03487458  0.33626866  1
  C  C1  1  0.83576523  0.96512542  0.66373134  1
  C  C2  1  0.33576523  0.96512542  0.83626866  1
  C  C3  1  0.83576523  0.53487458  0.16373134  1
  C  C4  1  0.66423477  0.03487458  0.16373134  1
  C  C5  1  0.16423477  0.46512542  0.83626866  1
  C  C6  1  0.66423477  0.46512542  0.66373134  1
  C  C7  1  0.33576523  0.53487458  0.33626866  1
  C  C8  1  0.07141970  0.14169432  0.24866855  1
  C  C9  1  0.92858030  0.85830568  0.75133145  1
  C  C10  1  0.42858030  0.85830568  0.74866855  1
  C  C11  1  0.92858030  0.64169432  0.25133145  1
  C  C12  1  0.57141970  0.14169432  0.25133145  1
  C  C13  1  0.07141970  0.35830568  0.74866855  1
  C  C14  1  0.57141970  0.35830568  0.75133145  1
  C  C15  1  0.42858030  0.64169432  0.24866855  1
  C  C16  1  0.15666087  0.05482447  0.13141121  1
  C  C17  1  0.84333913  0.94517553  0.86858879  1
  C  C18  1  0.34333913  0.94517553  0.63141121  1
  C  C19  1  0.84333913  0.55482447  0.36858879  1
  C  C20  1  0.65666087  0.05482447  0.36858879  1
  C  C21  1  0.15666087  0.44517553  0.63141121  1
  C  C22  1  0.65666087  0.44517553  0.86858879  1
  C  C23  1  0.34333913  0.55482447  0.13141121  1
  C  C24  1  0.13580766  0.13835219  0.12260998  1
  C  C25  1  0.86419234  0.86164781  0.87739002  1
  C  C26  1  0.36419234  0.86164781  0.62260998  1
  C  C27  1  0.86419234  0.63835219  0.37739002  1
  C  C28  1  0.63580766  0.13835219  0.37739002  1
  C  C29  1  0.13580766  0.36164781  0.62260998  1
  C  C30  1  0.63580766  0.36164781  0.87739002  1
  C  C31  1  0.36419234  0.63835219  0.12260998  1
  C  C32  1  0.13262778  0.06620648  0.26112035  1
  C  C33  1  0.86737222  0.93379352  0.73887965  1
  C  C34  1  0.36737222  0.93379352  0.76112035  1
  C  C35  1  0.86737222  0.56620648  0.23887965  1
  C  C36  1  0.63262778  0.06620648  0.23887965  1
  C  C37  1  0.13262778  0.43379352  0.76112035  1
  C  C38  1  0.63262778  0.43379352  0.73887965  1
  C  C39  1  0.36737222  0.56620648  0.26112035  1
  C  C40  1  0.15428586  0.01938052  0.19940736  1
  C  C41  1  0.84571414  0.98061948  0.80059264  1
  C  C42  1  0.34571414  0.98061948  0.69940736  1
  C  C43  1  0.84571414  0.51938052  0.30059264  1
  C  C44  1  0.65428586  0.01938052  0.30059264  1
  C  C45  1  0.15428586  0.48061948  0.69940736  1
  C  C46  1  0.65428586  0.48061948  0.80059264  1
  C  C47  1  0.34571414  0.51938052  0.19940736  1
  C  C48  1  0.07224259  0.17694661  0.18046386  1
  C  C49  1  0.92775741  0.82305339  0.81953614  1
  C  C50  1  0.42775741  0.82305339  0.68046386  1
  C  C51  1  0.92775741  0.67694661  0.31953614  1
  C  C52  1  0.57224259  0.17694661  0.31953614  1
  C  C53  1  0.07224259  0.32305339  0.68046386  1
  C  C54  1  0.57224259  0.32305339  0.81953614  1
  C  C55  1  0.42775741  0.67694661  0.18046386  1
  C  C56  1  0.17221892  0.18185942  0.05314409  1
  C  C57  1  0.82778108  0.81814058  0.94685591  1
  C  C58  1  0.32778108  0.81814058  0.55314409  1
  C  C59  1  0.82778108  0.68185942  0.44685591  1
  C  C60  1  0.67221892  0.18185942  0.44685591  1
  C  C61  1  0.17221892  0.31814058  0.55314409  1
  C  C62  1  0.67221892  0.31814058  0.94685591  1
  C  C63  1  0.32778108  0.68185942  0.05314409  1
  Cl  Cl0  1  0.47739396  0.48238924  0.37107597  1
  Cl  Cl1  1  0.52260604  0.51761076  0.62892403  1
  Cl  Cl2  1  0.02260604  0.51761076  0.87107597  1
  Cl  Cl3  1  0.52260604  0.98238924  0.12892403  1
  Cl  Cl4  1  0.97739396  0.48238924  0.12892403  1
  Cl  Cl5  1  0.47739396  0.01761076  0.87107597  1
  Cl  Cl6  1  0.97739396  0.01761076  0.62892403  1
  Cl  Cl7  1  0.02260604  0.98238924  0.37107597  1
  Cl  Cl8  1  0.03657330  0.32376184  0.49210602  1
  Cl  Cl9  1  0.96342670  0.67623816  0.50789398  1
  Cl  Cl10  1  0.46342670  0.67623816  0.99210602  1
  Cl  Cl11  1  0.96342670  0.82376184  0.00789398  1
  Cl  Cl12  1  0.53657330  0.32376184  0.00789398  1
  Cl  Cl13  1  0.03657330  0.17623816  0.99210602  1
  Cl  Cl14  1  0.53657330  0.17623816  0.50789398  1
  Cl  Cl15  1  0.46342670  0.82376184  0.49210602  1
  Cl  Cl16  1  0.19342071  0.46979000  0.33828865  1
  Cl  Cl17  1  0.80657929  0.53021000  0.66171135  1
  Cl  Cl18  1  0.30657929  0.53021000  0.83828865  1
  Cl  Cl19  1  0.80657929  0.96979000  0.16171135  1
  Cl  Cl20  1  0.69342071  0.46979000  0.16171135  1
  Cl  Cl21  1  0.19342071  0.03021000  0.83828865  1
  Cl  Cl22  1  0.69342071  0.03021000  0.66171135  1
  Cl  Cl23  1  0.30657929  0.96979000  0.33828865  1
  Cl  Cl24  1  0.48222535  0.26342306  0.33120895  1
  Cl  Cl25  1  0.51777465  0.73657694  0.66879105  1
  Cl  Cl26  1  0.01777465  0.73657694  0.83120895  1
  Cl  Cl27  1  0.51777465  0.76342306  0.16879105  1
  Cl  Cl28  1  0.98222535  0.26342306  0.16879105  1
  Cl  Cl29  1  0.48222535  0.23657694  0.83120895  1
  Cl  Cl30  1  0.98222535  0.23657694  0.66879105  1
  Cl  Cl31  1  0.01777465  0.76342306  0.33120895  1
  Cl  Cl32  1  0.31942093  0.14274422  0.01257777  1
  Cl  Cl33  1  0.68057907  0.85725578  0.98742223  1
  Cl  Cl34  1  0.18057907  0.85725578  0.51257777  1
  Cl  Cl35  1  0.68057907  0.64274422  0.48742223  1
  Cl  Cl36  1  0.81942093  0.14274422  0.48742223  1
  Cl  Cl37  1  0.31942093  0.35725578  0.51257777  1
  Cl  Cl38  1  0.81942093  0.35725578  0.98742223  1
  Cl  Cl39  1  0.18057907  0.64274422  0.01257777  1
  Cl  Cl40  1  0.32755503  0.49284559  0.05912508  1
  Cl  Cl41  1  0.67244497  0.50715441  0.94087492  1
  Cl  Cl42  1  0.17244497  0.50715441  0.55912508  1
  Cl  Cl43  1  0.67244497  0.99284559  0.44087492  1
  Cl  Cl44  1  0.82755503  0.49284559  0.44087492  1
  Cl  Cl45  1  0.32755503  0.00715441  0.55912508  1
  Cl  Cl46  1  0.82755503  0.00715441  0.94087492  1
  Cl  Cl47  1  0.17244497  0.99284559  0.05912508  1
  Cl  Cl48  1  0.21346148  0.28559947  0.06772716  1
  Cl  Cl49  1  0.78653852  0.71440053  0.93227284  1
  Cl  Cl50  1  0.28653852  0.71440053  0.56772716  1
  Cl  Cl51  1  0.78653852  0.78559947  0.43227284  1
  Cl  Cl52  1  0.71346148  0.28559947  0.43227284  1
  Cl  Cl53  1  0.21346148  0.21440053  0.56772716  1
  Cl  Cl54  1  0.71346148  0.21440053  0.93227284  1
  Cl  Cl55  1  0.28653852  0.78559947  0.06772716  1
  Cl  Cl56  1  0.20928698  0.11331204  0.39658260  1
  Cl  Cl57  1  0.79071302  0.88668796  0.60341740  1
  Cl  Cl58  1  0.29071302  0.88668796  0.89658260  1
  Cl  Cl59  1  0.79071302  0.61331204  0.10341740  1
  Cl  Cl60  1  0.70928698  0.11331204  0.10341740  1
  Cl  Cl61  1  0.20928698  0.38668796  0.89658260  1
  Cl  Cl62  1  0.70928698  0.38668796  0.60341740  1
  Cl  Cl63  1  0.29071302  0.61331204  0.39658260  1
  Cl  Cl64  1  0.48123825  0.18894588  0.18613973  1
  Cl  Cl65  1  0.51876175  0.81105412  0.81386027  1
  Cl  Cl66  1  0.01876175  0.81105412  0.68613973  1
  Cl  Cl67  1  0.51876175  0.68894588  0.31386027  1
  Cl  Cl68  1  0.98123825  0.18894588  0.31386027  1
  Cl  Cl69  1  0.48123825  0.31105412  0.68613973  1
  Cl  Cl70  1  0.98123825  0.31105412  0.81386027  1
  Cl  Cl71  1  0.01876175  0.68894588  0.18613973  1
  Cl  Cl72  1  0.33638105  0.41666778  0.20415112  1
  Cl  Cl73  1  0.66361895  0.58333222  0.79584888  1
  Cl  Cl74  1  0.16361895  0.58333222  0.70415112  1
  Cl  Cl75  1  0.66361895  0.91666778  0.29584888  1
  Cl  Cl76  1  0.83638105  0.41666778  0.29584888  1
  Cl  Cl77  1  0.33638105  0.08333222  0.70415112  1
  Cl  Cl78  1  0.83638105  0.08333222  0.79584888  1
  Cl  Cl79  1  0.16361895  0.91666778  0.20415112  1
loop_
_geom_bond_atom_site_label_1
_geom_bond_atom_site_label_2
_geom_bond_distance
_geom_bond_site_symmetry_2
C0 C32 1.540275 1_555
C0 Cl56 1.790428 1_555
C0 Cl7 1.796573 1_545
C0 Cl23 1.798200 1_545
C1 C33 1.540275 1_555
C1 Cl57 1.790428 1_555
C1 Cl6 1.796573 1_565
C1 Cl22 1.798200 1_565
C2 C34 1.540275 1_555
C2 Cl58 1.790428 1_555
C2 Cl5 1.796573 1_565
C2 Cl21 1.798200 1_565
C3 C35 1.540275 1_555
C3 Cl59 1.790428 1_555
C3 Cl4 1.796573 1_555
C3 Cl20 1.798200 1_555
C4 Cl60 1.790428 1_555
C4 Cl3 1.796573 1_545
C4 Cl19 1.798200 1_545
C5 Cl61 1.790428 1_555
C5 Cl2 1.796573 1_555
C5 Cl18 1.798200 1_555
C6 Cl62 1.790428 1_555
C6 Cl1 1.796573 1_555
C6 Cl17 1.798200 1_555
C7 Cl63 1.790428 1_555
C7 Cl0 1.796573 1_555
C7 Cl16 1.798200 1_555
C8 Cl68 1.717296 1_455
C9 Cl66 1.717296 1_655
C10 C50 1.411326 1_555
C10 C34 1.421619 1_555
C10 Cl65 1.717296 1_555
C11 C51 1.411326 1_555
C11 C35 1.421619 1_555
C11 Cl71 1.717296 1_655
C12 C52 1.411326 1_555
C12 C36 1.421619 1_555
C12 Cl64 1.717296 1_555
C13 C53 1.411326 1_555
C13 C37 1.421619 1_555
C13 Cl70 1.717296 1_455
C14 C54 1.411326 1_555
C14 C38 1.421619 1_555
C14 Cl69 1.717296 1_555
C15 C55 1.411326 1_555
C15 C39 1.421619 1_555
C15 Cl67 1.717296 1_555
C16 C40 1.409279 1_555
C16 C24 1.419167 1_555
C16 Cl47 1.715639 1_545
C17 C41 1.409279 1_555
C17 C25 1.419167 1_555
C17 Cl46 1.715639 1_565
C18 C42 1.409279 1_555
C18 C26 1.419167 1_555
C18 Cl45 1.715639 1_565
C19 C43 1.409279 1_555
C19 C27 1.419167 1_555
C19 Cl44 1.715639 1_555
C20 C44 1.409279 1_555
C20 C28 1.419167 1_555
C20 Cl43 1.715639 1_545
C21 C45 1.409279 1_555
C21 C29 1.419167 1_555
C21 Cl42 1.715639 1_555
C22 C46 1.409279 1_555
C22 C30 1.419167 1_555
C22 Cl41 1.715639 1_555
C23 C47 1.409279 1_555
C23 C31 1.419167 1_555
C23 Cl40 1.715639 1_555
C24 C48 1.417108 1_555
C24 C56 1.539003 1_555
C25 C49 1.417108 1_555
C25 C57 1.539003 1_555
C26 C50 1.417108 1_555
C26 C58 1.539003 1_555
C27 C51 1.417108 1_555
C27 C59 1.539003 1_555
C28 C52 1.417108 1_555
C28 C60 1.539003 1_555
C29 C53 1.417108 1_555
C29 C61 1.539003 1_555
C30 C54 1.417108 1_555
C30 C62 1.539003 1_555
C31 C55 1.417108 1_555
C31 C63 1.539003 1_555
C32 C40 1.416125 1_555
C32 C8 1.421619 1_555
C33 C41 1.416125 1_555
C33 C9 1.421619 1_555
C34 C42 1.416125 1_555
C35 C43 1.416125 1_555
C36 C44 1.416125 1_555
C36 C4 1.540275 1_555
C37 C45 1.416125 1_555
C37 C5 1.540275 1_555
C38 C46 1.416125 1_555
C38 C6 1.540275 1_555
C39 C47 1.416125 1_555
C39 C7 1.540275 1_555
C40 Cl79 1.718780 1_545
C41 Cl78 1.718780 1_565
C42 Cl77 1.718780 1_565
C43 Cl76 1.718780 1_555
C44 Cl75 1.718780 1_545
C45 Cl74 1.718780 1_555
C46 Cl73 1.718780 1_555
C47 Cl72 1.718780 1_555
C48 C8 1.411326 1_555
C48 Cl28 1.717919 1_455
C49 C9 1.411326 1_555
C49 Cl26 1.717919 1_655
C50 Cl25 1.717919 1_555
C51 Cl31 1.717919 1_655
C52 Cl24 1.717919 1_555
C53 Cl30 1.717919 1_455
C54 Cl29 1.717919 1_555
C55 Cl27 1.717919 1_555
C56 Cl13 1.786299 1_554
C56 Cl32 1.789783 1_555
C56 Cl48 1.801118 1_555
C57 Cl11 1.786299 1_556
C57 Cl33 1.789783 1_555
C57 Cl49 1.801118 1_555
C58 Cl15 1.786299 1_555
C58 Cl34 1.789783 1_555
C58 Cl50 1.801118 1_555
C59 Cl9 1.786299 1_555
C59 Cl35 1.789783 1_555
C59 Cl51 1.801118 1_555
C60 Cl14 1.786299 1_555
C60 Cl36 1.789783 1_555
C60 Cl52 1.801118 1_555
C61 Cl8 1.786299 1_555
C61 Cl37 1.789783 1_555
C61 Cl53 1.801118 1_555
C62 Cl12 1.786299 1_556
C62 Cl38 1.789783 1_555
C62 Cl54 1.801118 1_555
C63 Cl10 1.786299 1_554
C63 Cl39 1.789783 1_555
C63 Cl55 1.801118 1_555
