# generated using pymatgen
data_In2CuSe4
_symmetry_space_group_name_H-M   'P 1'
_cell_length_a   7.07766045
_cell_length_b   7.07766045
_cell_length_c   7.07766045
_cell_angle_alpha   132.10044847
_cell_angle_beta   132.10044847
_cell_angle_gamma   70.07042565
_symmetry_Int_Tables_number   1
_chemical_formula_structural   In2CuSe4
_chemical_formula_sum   'In2 Cu1 Se4'
_cell_volume   191.34677513
_cell_formula_units_Z   1
loop_
 _symmetry_equiv_pos_site_id
 _symmetry_equiv_pos_as_xyz
  1  'x, y, z'
loop_
 _atom_site_type_symbol
 _atom_site_label
 _atom_site_symmetry_multiplicity
 _atom_site_fract_x
 _atom_site_fract_y
 _atom_site_fract_z
 _atom_site_occupancy
  In  In0  1  0.50000000  0.50000000  0.00000000  1
  In  In1  1  0.75000000  0.25000000  0.50000000  1
  Cu  Cu0  1  0.00000000  0.00000000  0.00000000  1
  Se  Se0  1  0.61127400  0.66237800  0.53258900  1
  Se  Se1  1  0.12979000  0.07868500  0.46741100  1
  Se  Se2  1  0.92131500  0.38872600  0.05110500  1
  Se  Se3  1  0.33762200  0.87021000  0.94889500  1
loop_
_geom_bond_atom_site_label_1
_geom_bond_atom_site_label_2
_geom_bond_distance
_geom_bond_site_symmetry_2
In0 Se3 2.641532 1_554
In0 Se1 2.641532 1_554
In0 Se2 2.641532 1_555
In0 Se0 2.641535 1_555
In1 Se0 2.642581 1_555
In1 Se3 2.642584 1_544
In1 Se2 2.642587 1_556
In1 Se1 2.642587 1_655
Cu0 Se1 2.429333 1_555
Cu0 Se2 2.429333 1_455
Cu0 Se0 2.429337 1_444
Cu0 Se3 2.429340 1_544
