# generated using pymatgen
data_Zn2Si2As3P
_symmetry_space_group_name_H-M   'P 1'
_cell_length_a   5.60204610
_cell_length_b   5.62000000
_cell_length_c   6.73706896
_cell_angle_alpha   65.34866114
_cell_angle_beta   65.73683843
_cell_angle_gamma   90.00000000
_symmetry_Int_Tables_number   1
_chemical_formula_structural   Zn2Si2As3P
_chemical_formula_sum   'Zn2 Si2 As3 P1'
_cell_volume   171.94623200
_cell_formula_units_Z   1
loop_
 _symmetry_equiv_pos_site_id
 _symmetry_equiv_pos_as_xyz
  1  'x, y, z'
loop_
 _atom_site_type_symbol
 _atom_site_label
 _atom_site_symmetry_multiplicity
 _atom_site_fract_x
 _atom_site_fract_y
 _atom_site_fract_z
 _atom_site_occupancy
  Zn  Zn0  1  0.73974000  0.23936100  0.50578500  1
  Zn  Zn1  1  0.01026000  0.99514600  0.99421500  1
  Si  Si0  1  0.25475700  0.75432800  0.50565500  1
  Si  Si1  1  0.49524300  0.50998300  0.99434500  1
  As  As0  1  0.87500000  0.39076900  0.75000000  1
  As  As1  1  0.13782600  0.12580400  0.25012000  1
  As  As2  1  0.61217400  0.62592400  0.24988000  1
  P  P0  1  0.37500000  0.85868500  0.75000000  1
loop_
_geom_bond_atom_site_label_1
_geom_bond_atom_site_label_2
_geom_bond_distance
_geom_bond_site_symmetry_2
As0 Si0 2.393004 1_655
As0 Si1 2.393004 1_555
As0 Zn0 2.489512 1_555
As0 Zn1 2.489512 1_645
As1 Si0 2.383272 1_545
As1 Si1 2.387645 1_554
As1 Zn1 2.467969 1_544
As1 Zn0 2.471327 1_455
As2 Si1 2.383272 1_554
As2 Si0 2.387645 1_555
As2 Zn0 2.467969 1_555
As2 Zn1 2.471327 1_654
P0 Si1 2.285671 1_555
P0 Si0 2.285671 1_555
P0 Zn0 2.399964 1_565
P0 Zn1 2.399964 1_555
