# generated using pymatgen
data_La5S8
_symmetry_space_group_name_H-M   'P 1'
_cell_length_a   8.57816975
_cell_length_b   8.57816975
_cell_length_c   8.57816975
_cell_angle_alpha   60.00000000
_cell_angle_beta   60.00000000
_cell_angle_gamma   60.00000000
_symmetry_Int_Tables_number   1
_chemical_formula_structural   La5S8
_chemical_formula_sum   'La5 S8'
_cell_volume   446.34318723
_cell_formula_units_Z   1
loop_
 _symmetry_equiv_pos_site_id
 _symmetry_equiv_pos_as_xyz
  1  'x, y, z'
loop_
 _atom_site_type_symbol
 _atom_site_label
 _atom_site_symmetry_multiplicity
 _atom_site_fract_x
 _atom_site_fract_y
 _atom_site_fract_z
 _atom_site_occupancy
  La  La0  1  0.36661600  0.87779500  0.87779500  1
  La  La1  1  0.87779500  0.36661600  0.87779500  1
  La  La2  1  0.87779500  0.87779500  0.36661600  1
  La  La3  1  0.87779500  0.87779500  0.87779500  1
  La  La4  1  0.50000000  0.50000000  0.50000000  1
  S  S0  1  0.10040400  0.63319900  0.63319900  1
  S  S1  1  0.63319900  0.10040400  0.63319900  1
  S  S2  1  0.63319900  0.63319900  0.10040400  1
  S  S3  1  0.63319900  0.63319900  0.63319900  1
  S  S4  1  0.66976400  0.11007900  0.11007900  1
  S  S5  1  0.11007900  0.66976400  0.11007900  1
  S  S6  1  0.11007900  0.11007900  0.66976400  1
  S  S7  1  0.11007900  0.11007900  0.11007900  1
loop_
_geom_bond_atom_site_label_1
_geom_bond_atom_site_label_2
_geom_bond_distance
_geom_bond_site_symmetry_2
La0 S7 2.825591 1_566
La0 S5 2.825591 1_556
La0 S6 2.825591 1_565
La0 S2 2.973271 1_556
La0 S1 2.973271 1_565
La0 S3 2.973271 1_555
La1 S7 2.825591 1_656
La1 S4 2.825591 1_556
La1 S6 2.825591 1_655
La1 S0 2.973271 1_655
La1 S2 2.973271 1_556
La1 S3 2.973271 1_555
La2 S7 2.825591 1_665
La2 S4 2.825591 1_565
La2 S5 2.825591 1_655
La2 S1 2.973271 1_565
La2 S0 2.973271 1_655
La2 S3 2.973271 1_555
La3 S5 2.825591 1_656
La3 S4 2.825591 1_566
La3 S6 2.825591 1_665
La3 S2 2.973271 1_556
La3 S0 2.973271 1_655
La3 S1 2.973271 1_565
La4 S2 2.798789 1_555
La4 S1 2.798789 1_555
La4 S0 2.798789 1_555
La4 S3 2.798796 1_555
