# generated using pymatgen
data_Mg5Sc
_symmetry_space_group_name_H-M   'P 1'
_cell_length_a   6.17213430
_cell_length_b   6.17213430
_cell_length_c   6.17213500
_cell_angle_alpha   52.69450297
_cell_angle_beta   52.69450297
_cell_angle_gamma   52.69450940
_symmetry_Int_Tables_number   1
_chemical_formula_structural   Mg5Sc
_chemical_formula_sum   'Mg5 Sc1'
_cell_volume   137.76418473
_cell_formula_units_Z   1
loop_
 _symmetry_equiv_pos_site_id
 _symmetry_equiv_pos_as_xyz
  1  'x, y, z'
loop_
 _atom_site_type_symbol
 _atom_site_label
 _atom_site_symmetry_multiplicity
 _atom_site_fract_x
 _atom_site_fract_y
 _atom_site_fract_z
 _atom_site_occupancy
  Mg  Mg0  1  0.33801078  0.00000000  0.66198922  1
  Mg  Mg1  1  0.66198922  0.33801078  0.00000000  1
  Mg  Mg2  1  0.00000000  0.66198922  0.33801078  1
  Mg  Mg3  1  0.16469316  0.16469316  0.16469316  1
  Mg  Mg4  1  0.83530684  0.83530684  0.83530684  1
  Sc  Sc0  1  0.50000000  0.50000000  0.50000000  1
loop_
_geom_bond_atom_site_label_1
_geom_bond_atom_site_label_2
_geom_bond_distance
_geom_bond_site_symmetry_2
Mg0 Mg1 3.141065 1_555
Mg0 Mg1 3.141065 1_546
Mg0 Mg2 3.141065 1_645
Mg0 Mg2 3.141065 1_555
Mg0 Mg4 3.207251 1_445
Mg0 Mg3 3.207251 1_556
Mg0 Mg2 3.207406 1_546
Mg0 Mg1 3.207407 1_456
Mg0 Sc0 3.211136 1_555
Mg0 Sc0 3.211136 1_545
Mg0 Mg4 3.237081 1_545
Mg0 Mg3 3.237081 1_555
Mg1 Mg2 3.141065 1_654
Mg1 Mg2 3.141065 1_555
Mg1 Mg4 3.207251 1_544
Mg1 Mg3 3.207251 1_655
Mg1 Mg2 3.207407 1_645
Mg1 Sc0 3.211137 1_555
Mg1 Sc0 3.211137 1_554
Mg1 Mg4 3.237081 1_554
Mg1 Mg3 3.237081 1_555
Mg2 Mg3 3.207251 1_565
Mg2 Mg4 3.207251 1_454
Mg2 Sc0 3.211136 1_455
Mg2 Sc0 3.211136 1_555
Mg2 Mg3 3.237081 1_555
Mg2 Mg4 3.237081 1_455
Mg3 Sc0 3.163178 1_554
Mg3 Sc0 3.163178 1_455
Mg3 Sc0 3.163178 1_545
Mg3 Mg4 3.163644 1_445
Mg3 Mg4 3.163645 1_544
Mg3 Mg4 3.163645 1_454
Mg4 Sc0 3.163178 1_556
Mg4 Sc0 3.163178 1_655
Mg4 Sc0 3.163178 1_565
