# generated using pymatgen
data_Na2MnP2O7
_symmetry_space_group_name_H-M   'P 1'
_cell_length_a   6.68860151
_cell_length_b   9.68660453
_cell_length_c   11.20795469
_cell_angle_alpha   64.86282524
_cell_angle_beta   86.00498753
_cell_angle_gamma   73.20268479
_symmetry_Int_Tables_number   1
_chemical_formula_structural   Na2MnP2O7
_chemical_formula_sum   'Na8 Mn4 P8 O28'
_cell_volume   628.15862513
_cell_formula_units_Z   4
loop_
 _symmetry_equiv_pos_site_id
 _symmetry_equiv_pos_as_xyz
  1  'x, y, z'
loop_
 _atom_site_type_symbol
 _atom_site_label
 _atom_site_symmetry_multiplicity
 _atom_site_fract_x
 _atom_site_fract_y
 _atom_site_fract_z
 _atom_site_occupancy
  Na  Na0  1  0.60162300  0.86076900  0.65718000  1
  Na  Na1  1  0.41980100  0.13956800  0.34503800  1
  Na  Na2  1  0.18200400  0.85234100  0.10324700  1
  Na  Na3  1  0.75963200  0.14653400  0.86339100  1
  Na  Na4  1  0.96927700  0.17650400  0.52570200  1
  Na  Na5  1  0.03319300  0.81911500  0.47565500  1
  Na  Na6  1  0.41051800  0.51621800  0.02395400  1
  Na  Na7  1  0.86444400  0.48301300  0.95221900  1
  Mn  Mn0  1  0.65510900  0.48950700  0.27300900  1
  Mn  Mn1  1  0.72886300  0.88795700  0.22109000  1
  Mn  Mn2  1  0.34963600  0.50405200  0.73440400  1
  Mn  Mn3  1  0.27196600  0.10567900  0.78704200  1
  P  P0  1  0.94242800  0.17036900  0.21659800  1
  P  P1  1  0.57322700  0.70245500  0.46210400  1
  P  P2  1  0.30365600  0.18830300  0.04351300  1
  P  P3  1  0.86840500  0.45602000  0.68893700  1
  P  P4  1  0.06970400  0.82223400  0.79060500  1
  P  P5  1  0.42004700  0.29097500  0.54547200  1
  P  P6  1  0.70969700  0.80339200  0.96031200  1
  P  P7  1  0.13144100  0.53869500  0.31656700  1
  O  O0  1  0.09042900  0.26495500  0.10206900  1
  O  O1  1  0.36232100  0.33520200  0.94360300  1
  O  O2  1  0.24854300  0.09172100  0.97958400  1
  O  O3  1  0.45867700  0.08630100  0.16296900  1
  O  O4  1  0.73913000  0.30719200  0.19149000  1
  O  O5  1  0.05859200  0.10033500  0.35034700  1
  O  O6  1  0.91842700  0.04306500  0.17683100  1
  O  O7  1  0.76148300  0.54177800  0.54000100  1
  O  O8  1  0.55775500  0.70308500  0.32482300  1
  O  O9  1  0.64610500  0.84666300  0.44737900  1
  O  O10  1  0.38123900  0.68821900  0.54214000  1
  O  O11  1  0.69087400  0.46797700  0.78366700  1
  O  O12  1  0.96908100  0.28349900  0.70937400  1
  O  O13  1  0.01938900  0.54471900  0.69567900  1
  O  O14  1  0.92658400  0.72201900  0.90536600  1
  O  O15  1  0.63649400  0.65806800  0.04960100  1
  O  O16  1  0.56627800  0.91848100  0.83721200  1
  O  O17  1  0.76905400  0.89085900  0.03173400  1
  O  O18  1  0.27480400  0.69208800  0.80648400  1
  O  O19  1  0.94882100  0.89847700  0.65758100  1
  O  O20  1  0.09434800  0.94293100  0.83898800  1
  O  O21  1  0.23572000  0.45233100  0.46766200  1
  O  O22  1  0.34096400  0.14717900  0.56708800  1
  O  O23  1  0.61108900  0.29648400  0.46254500  1
  O  O24  1  0.44682100  0.29194700  0.68141700  1
  O  O25  1  0.02986100  0.71074900  0.29674000  1
  O  O26  1  0.31437600  0.52733500  0.22546800  1
  O  O27  1  0.97997000  0.44983600  0.31222200  1
loop_
_geom_bond_atom_site_label_1
_geom_bond_atom_site_label_2
_geom_bond_distance
_geom_bond_site_symmetry_2
Na0 O16 2.292458 1_555
Na0 O9 2.405919 1_555
Na0 O19 2.453463 1_555
Na0 O22 2.612635 1_565
Na1 O3 2.289329 1_555
Na1 O22 2.535311 1_555
Na1 O5 2.544871 1_555
Na1 O9 2.579093 1_545
Na2 O2 2.296940 1_564
Na2 O25 2.364737 1_555
Na2 O6 2.531944 1_465
Na2 O26 2.732345 1_555
Na2 O20 2.760905 1_554
Na2 O17 2.805241 1_455
Na3 O12 2.343966 1_555
Na3 O17 2.377816 1_546
Na3 O20 2.607219 1_645
Na3 O24 2.640453 1_555
Na3 O11 2.751530 1_555
Na4 O23 2.349384 1_555
Na4 O5 2.361682 1_655
Na4 O22 2.473248 1_655
Na4 O19 2.501871 1_545
Na4 O12 2.668970 1_555
Na4 O27 2.728309 1_555
Na5 O10 2.305485 1_555
Na5 O19 2.446970 1_455
Na5 O5 2.530967 1_565
Na5 O9 2.553064 1_455
Na5 O25 2.632778 1_555
Na5 O13 2.774177 1_555
Na6 O26 2.343169 1_555
Na6 O18 2.356669 1_554
Na6 O1 2.387085 1_554
Na6 O15 2.419006 1_555
Na6 O4 2.688753 1_555
Na7 O0 2.249793 1_656
Na7 O14 2.302462 1_555
Na7 O11 2.361115 1_555
Na7 O15 2.497489 1_556
Na7 O4 2.725150 1_556
Na7 O13 2.860303 1_655
Mn0 O27 2.137558 1_555
Mn0 O23 2.225289 1_555
Mn0 O4 2.234963 1_555
Mn0 O26 2.265572 1_555
Mn0 O8 2.287090 1_555
Mn0 O15 2.324602 1_555
Mn1 O17 2.109828 1_555
Mn1 O3 2.115535 1_565
Mn1 O6 2.119273 1_565
Mn1 O25 2.173154 1_655
Mn1 O8 2.258043 1_555
Mn1 O9 2.443229 1_555
Mn2 O13 2.169832 1_555
Mn2 O10 2.181568 1_555
Mn2 O1 2.206664 1_555
Mn2 O18 2.210803 1_555
Mn2 O11 2.277508 1_555
Mn2 O24 2.281981 1_555
Mn3 O2 2.101677 1_555
Mn3 O20 2.107594 1_545
Mn3 O16 2.168937 1_545
Mn3 O12 2.187207 1_455
Mn3 O24 2.288411 1_555
Mn3 O22 2.357695 1_555
O0 P2 1.639382 1_555
O0 P0 1.677824 1_455
O1 P2 1.529855 1_556
O2 P2 1.526488 1_556
O3 P2 1.523593 1_555
O4 P0 1.542591 1_555
O5 P0 1.518137 1_455
O6 P0 1.528528 1_555
O7 P3 1.622614 1_555
O7 P1 1.623640 1_555
O8 P1 1.546610 1_555
O9 P1 1.550038 1_555
O10 P1 1.519683 1_555
O11 P3 1.549193 1_555
O12 P3 1.531179 1_555
O13 P3 1.526776 1_455
O14 P6 1.652884 1_555
O14 P4 1.678648 1_655
O15 P6 1.534956 1_554
O16 P6 1.525181 1_555
O17 P6 1.526814 1_554
O18 P4 1.531905 1_555
O19 P4 1.519673 1_655
O20 P4 1.533165 1_555
O21 P5 1.612928 1_555
O21 P7 1.636429 1_555
O22 P5 1.549171 1_555
O23 P5 1.526853 1_555
O24 P5 1.550773 1_555
O25 P7 1.529885 1_555
O26 P7 1.547682 1_555
O27 P7 1.521901 1_655
