# generated using pymatgen
data_AgGeBiTe3
_symmetry_space_group_name_H-M   'P 1'
_cell_length_a   7.55471917
_cell_length_b   7.55471917
_cell_length_c   7.55471917
_cell_angle_alpha   146.46736555
_cell_angle_beta   131.97921324
_cell_angle_gamma   59.83895164
_symmetry_Int_Tables_number   1
_chemical_formula_structural   AgGeBiTe3
_chemical_formula_sum   'Ag1 Ge1 Bi1 Te3'
_cell_volume   175.46346933
_cell_formula_units_Z   1
loop_
 _symmetry_equiv_pos_site_id
 _symmetry_equiv_pos_as_xyz
  1  'x, y, z'
loop_
 _atom_site_type_symbol
 _atom_site_label
 _atom_site_symmetry_multiplicity
 _atom_site_fract_x
 _atom_site_fract_y
 _atom_site_fract_z
 _atom_site_occupancy
  Ag  Ag0  1  0.99904700  0.99904700  0.00000000  1
  Ge  Ge0  1  0.67121200  0.67121200  0.00000000  1
  Bi  Bi0  1  0.33208100  0.33208100  0.00000000  1
  Te  Te0  1  0.82904800  0.32904800  0.50000000  1
  Te  Te1  1  0.50744400  0.00744400  0.50000000  1
  Te  Te2  1  0.16116900  0.66116900  0.50000000  1
loop_
_geom_bond_atom_site_label_1
_geom_bond_atom_site_label_2
_geom_bond_distance
_geom_bond_site_symmetry_2
Ag0 Te2 3.042525 1_654
Ag0 Te2 3.042525 1_665
Ag0 Te1 3.075999 1_564
Ag0 Te1 3.075999 1_665
Ag0 Te0 3.115384 1_554
Ag0 Te0 3.115384 1_565
Ge0 Te0 3.003627 1_554
Ge0 Te0 3.003627 1_565
Ge0 Te1 3.057606 1_554
Ge0 Te1 3.057606 1_565
Ge0 Te2 3.076845 1_655
Ge0 Te2 3.076845 1_554
Bi0 Te0 3.074290 1_454
Bi0 Te0 3.074290 1_555
Bi0 Te2 3.123940 1_544
Bi0 Te2 3.123940 1_555
Bi0 Te1 3.165964 1_554
Bi0 Te1 3.165964 1_565
