# generated using pymatgen
data_TaReO6
_symmetry_space_group_name_H-M   'P 1'
_cell_length_a   7.50785200
_cell_length_b   5.29283100
_cell_length_c   5.42421643
_cell_angle_alpha   89.92675642
_cell_angle_beta   90.00000000
_cell_angle_gamma   90.00000000
_symmetry_Int_Tables_number   1
_chemical_formula_structural   TaReO6
_chemical_formula_sum   'Ta2 Re2 O12'
_cell_volume   215.54620718
_cell_formula_units_Z   2
loop_
 _symmetry_equiv_pos_site_id
 _symmetry_equiv_pos_as_xyz
  1  'x, y, z'
loop_
 _atom_site_type_symbol
 _atom_site_label
 _atom_site_symmetry_multiplicity
 _atom_site_fract_x
 _atom_site_fract_y
 _atom_site_fract_z
 _atom_site_occupancy
  Ta  Ta0  1  0.00000000  0.00000000  0.50000000  1
  Ta  Ta1  1  0.50000000  0.00000000  0.50000000  1
  Re  Re0  1  0.00000000  0.50000000  0.00000000  1
  Re  Re1  1  0.50000000  0.50000000  0.00000000  1
  O  O0  1  0.45734800  0.22295300  0.20523100  1
  O  O1  1  0.53884400  0.70395900  0.27573700  1
  O  O2  1  0.54265200  0.77704700  0.79476900  1
  O  O3  1  0.03884400  0.29604100  0.72426300  1
  O  O4  1  0.25000000  0.91328800  0.51622600  1
  O  O5  1  0.46115600  0.29604100  0.72426300  1
  O  O6  1  0.96115600  0.70395900  0.27573700  1
  O  O7  1  0.04265200  0.22295300  0.20523100  1
  O  O8  1  0.75000000  0.41982600  0.99215700  1
  O  O9  1  0.95734800  0.77704700  0.79476900  1
  O  O10  1  0.25000000  0.58017400  0.00784300  1
  O  O11  1  0.75000000  0.08671200  0.48377400  1
loop_
_geom_bond_atom_site_label_1
_geom_bond_atom_site_label_2
_geom_bond_distance
_geom_bond_site_symmetry_2
O0 Re1 1.867577 1_555
O0 Ta1 2.011640 1_555
O1 Re1 1.868565 1_555
O1 Ta1 2.006200 1_565
O2 Re1 1.867577 1_556
O2 Ta1 2.011640 1_565
O3 Re0 1.868565 1_556
O3 Ta0 2.006200 1_555
O4 Ta1 1.934236 1_565
O4 Ta0 1.934236 1_565
O5 Re1 1.868565 1_556
O5 Ta1 2.006200 1_555
O6 Re0 1.868565 1_655
O6 Ta0 2.006200 1_665
O7 Re0 1.867577 1_555
O7 Ta0 2.011640 1_555
O8 Re1 1.924816 1_556
O8 Re0 1.924816 1_656
O9 Re0 1.867577 1_656
O9 Ta0 2.011640 1_665
O10 Re0 1.924816 1_555
O10 Re1 1.924816 1_555
O11 Ta0 1.934236 1_655
O11 Ta1 1.934236 1_555
