# generated using pymatgen
data_Na2HgAu
_symmetry_space_group_name_H-M   'P 1'
_cell_length_a   5.03664045
_cell_length_b   5.03664045
_cell_length_c   5.03664045
_cell_angle_alpha   60.00000000
_cell_angle_beta   60.00000929
_cell_angle_gamma   59.99999071
_symmetry_Int_Tables_number   1
_chemical_formula_structural   Na2HgAu
_chemical_formula_sum   'Na2 Hg1 Au1'
_cell_volume   90.34577559
_cell_formula_units_Z   1
loop_
 _symmetry_equiv_pos_site_id
 _symmetry_equiv_pos_as_xyz
  1  'x, y, z'
loop_
 _atom_site_type_symbol
 _atom_site_label
 _atom_site_symmetry_multiplicity
 _atom_site_fract_x
 _atom_site_fract_y
 _atom_site_fract_z
 _atom_site_occupancy
  Na  Na0  1  0.25000000  0.25000000  0.25000000  1
  Na  Na1  1  0.75000000  0.75000000  0.75000000  1
  Hg  Hg0  1  0.00000000  0.00000000  -0.00000000  1
  Au  Au0  1  0.50000000  0.50000000  0.50000000  1
loop_
_geom_bond_atom_site_label_1
_geom_bond_atom_site_label_2
_geom_bond_distance
_geom_bond_site_symmetry_2
Hg0 Na0 3.084299 1_545
Hg0 Na1 3.084299 1_454
Hg0 Na0 3.084300 1_455
Hg0 Na1 3.084300 1_544
Hg0 Na0 3.084300 1_555
Hg0 Na1 3.084300 1_444
Hg0 Na0 3.084300 1_554
Hg0 Na1 3.084300 1_445
Au0 Na1 3.084299 1_545
Au0 Na0 3.084299 1_565
Au0 Na1 3.084300 1_455
Au0 Na0 3.084300 1_655
Au0 Na0 3.084300 1_555
Au0 Na1 3.084300 1_555
Au0 Na0 3.084300 1_556
Au0 Na1 3.084300 1_554
