# generated using pymatgen
data_Ba6MgNb2Ir(ClO6)2
_symmetry_space_group_name_H-M   'P 1'
_cell_length_a   5.99666001
_cell_length_b   5.96963616
_cell_length_c   15.84510251
_cell_angle_alpha   90.26636212
_cell_angle_beta   90.05976416
_cell_angle_gamma   120.12254496
_symmetry_Int_Tables_number   1
_chemical_formula_structural   Ba6MgNb2Ir(ClO6)2
_chemical_formula_sum   'Ba6 Mg1 Nb2 Ir1 Cl2 O12'
_cell_volume   490.61108956
_cell_formula_units_Z   1
loop_
 _symmetry_equiv_pos_site_id
 _symmetry_equiv_pos_as_xyz
  1  'x, y, z'
loop_
 _atom_site_type_symbol
 _atom_site_label
 _atom_site_symmetry_multiplicity
 _atom_site_fract_x
 _atom_site_fract_y
 _atom_site_fract_z
 _atom_site_occupancy
  Ba  Ba0  1  0.33719800  0.67304200  0.39078400  1
  Ba  Ba1  1  0.33401700  0.66788200  0.78457300  1
  Ba  Ba2  1  0.66592100  0.33208800  0.64086300  1
  Ba  Ba3  1  0.66851300  0.33615200  0.90875500  1
  Ba  Ba4  1  0.33700500  0.67240700  0.02269800  1
  Ba  Ba5  1  0.66622100  0.33269500  0.21049300  1
  Mg  Mg0  1  0.33093800  0.66314600  0.20689700  1
  Nb  Nb0  1  0.00085000  0.00133000  0.81571100  1
  Nb  Nb1  1  0.99798500  0.99651800  0.17854200  1
  Ir  Ir0  1  0.00106700  0.00182400  0.00138600  1
  Cl  Cl0  1  0.66540400  0.33155900  0.43076000  1
  Cl  Cl1  1  0.33307200  0.66613700  0.58691400  1
  O  O0  1  0.15327400  0.30614700  0.91051800  1
  O  O1  1  0.32816900  0.16390600  0.75931000  1
  O  O2  1  0.16118700  0.32303300  0.25091000  1
  O  O3  1  0.83494500  0.66982600  0.76002700  1
  O  O4  1  0.83567900  0.16401400  0.75937200  1
  O  O5  1  0.84888200  0.69797600  0.08919600  1
  O  O6  1  0.16312700  0.83409400  0.25138500  1
  O  O7  1  0.30326200  0.14984000  0.08922200  1
  O  O8  1  0.84648700  0.14975800  0.08904400  1
  O  O9  1  0.69672600  0.84966200  0.91060200  1
  O  O10  1  0.67008500  0.83391100  0.25117600  1
  O  O11  1  0.15331700  0.84971800  0.91068400  1
loop_
_geom_bond_atom_site_label_1
_geom_bond_atom_site_label_2
_geom_bond_distance
_geom_bond_site_symmetry_2
Ba0 O10 2.811643 1_555
Ba0 O6 2.813348 1_555
Ba0 O2 2.851378 1_555
Ba0 Cl1 3.108125 1_555
Ba0 Cl0 3.455002 1_565
Ba0 Cl0 3.530831 1_555
Ba0 Cl0 3.544076 1_455
Ba1 O9 2.738237 1_555
Ba1 O11 2.740510 1_555
Ba1 O0 2.741485 1_555
Ba1 O1 3.007440 1_565
Ba1 O4 3.008636 1_565
Ba1 O1 3.015914 1_555
Ba1 O4 3.016889 1_455
Ba1 O3 3.023329 1_455
Ba1 O3 3.023620 1_555
Ba1 Cl1 3.131886 1_555
Ba2 O3 2.562608 1_555
Ba2 O4 2.570555 1_555
Ba2 O1 2.572359 1_555
Ba2 Cl0 3.329087 1_555
Ba2 Cl1 3.538308 1_545
Ba2 Cl1 3.563514 1_555
Ba2 Cl1 3.567672 1_655
Ba3 O3 2.927558 1_555
Ba3 O4 2.946139 1_555
Ba3 O1 2.948033 1_555
Ba3 O11 2.984116 1_655
Ba3 O9 2.984155 1_555
Ba3 O9 2.992927 1_545
Ba3 O11 2.995741 1_545
Ba3 O0 3.000950 1_655
Ba3 O0 3.003988 1_555
Ba3 O5 3.406029 1_556
Ba3 O8 3.428262 1_556
Ba3 O7 3.436389 1_556
Ba4 O9 2.581107 1_554
Ba4 O11 2.582157 1_554
Ba4 O0 2.587632 1_554
Ba4 Mg0 2.919351 1_555
Ba4 O8 3.128375 1_565
Ba4 O7 3.134718 1_565
Ba4 O5 3.174454 1_555
Ba4 O5 3.186668 1_455
Ba4 O7 3.206397 1_555
Ba4 O8 3.212079 1_455
Ba5 O7 2.684837 1_555
Ba5 O8 2.689620 1_555
Ba5 O5 2.700876 1_555
Ba5 O10 3.046482 1_555
Ba5 O6 3.046949 1_655
Ba5 O10 3.060882 1_545
Ba5 O6 3.064290 1_545
Ba5 O2 3.064561 1_655
Ba5 O2 3.068295 1_555
Ba5 Cl0 3.490195 1_555
Mg0 O6 1.891163 1_555
Mg0 O10 1.891311 1_555
Mg0 O2 1.893436 1_555
Nb0 O3 1.921033 1_445
Nb0 O4 1.921666 1_455
Nb0 O1 1.921705 1_555
Nb0 O0 2.169240 1_555
Nb0 O11 2.181749 1_545
Nb0 O9 2.183456 1_445
Nb1 O2 2.033265 1_665
Nb1 O6 2.055435 1_655
Nb1 O10 2.057308 1_555
Nb1 O5 2.086708 1_555
Nb1 O8 2.125256 1_565
Nb1 O7 2.127843 1_665
Ir0 O7 2.092332 1_555
Ir0 O8 2.093145 1_455
Ir0 O5 2.103204 1_445
Ir0 O9 2.131557 1_444
Ir0 O11 2.132189 1_544
Ir0 O0 2.137591 1_554
