# generated using pymatgen
data_Tm2Fe17C3
_symmetry_space_group_name_H-M   'P 1'
_cell_length_a   6.47439155
_cell_length_b   6.47439155
_cell_length_c   6.47439153
_cell_angle_alpha   83.08804178
_cell_angle_beta   83.08804178
_cell_angle_gamma   83.08804343
_symmetry_Int_Tables_number   1
_chemical_formula_structural   Tm2Fe17C3
_chemical_formula_sum   'Tm2 Fe17 C3'
_cell_volume   265.91389788
_cell_formula_units_Z   1
loop_
 _symmetry_equiv_pos_site_id
 _symmetry_equiv_pos_as_xyz
  1  'x, y, z'
loop_
 _atom_site_type_symbol
 _atom_site_label
 _atom_site_symmetry_multiplicity
 _atom_site_fract_x
 _atom_site_fract_y
 _atom_site_fract_z
 _atom_site_occupancy
  Tm  Tm0  1  0.65785400  0.65785400  0.65785400  1
  Tm  Tm1  1  0.34214600  0.34214600  0.34214600  1
  Fe  Fe0  1  0.00000000  0.00000000  0.50000000  1
  Fe  Fe1  1  0.50000000  0.00000000  0.00000000  1
  Fe  Fe2  1  0.00000000  0.50000000  0.00000000  1
  Fe  Fe3  1  0.71617200  0.28382800  0.00000000  1
  Fe  Fe4  1  0.00000000  0.71617200  0.28382800  1
  Fe  Fe5  1  0.28382800  0.00000000  0.71617200  1
  Fe  Fe6  1  0.00000000  0.28382800  0.71617200  1
  Fe  Fe7  1  0.71617200  0.00000000  0.28382800  1
  Fe  Fe8  1  0.28382800  0.71617200  0.00000000  1
  Fe  Fe9  1  0.34395400  0.34395400  0.85376200  1
  Fe  Fe10  1  0.85376200  0.34395400  0.34395400  1
  Fe  Fe11  1  0.34395400  0.85376200  0.34395400  1
  Fe  Fe12  1  0.65604600  0.65604600  0.14623800  1
  Fe  Fe13  1  0.14623800  0.65604600  0.65604600  1
  Fe  Fe14  1  0.65604600  0.14623800  0.65604600  1
  Fe  Fe15  1  0.90390400  0.90390400  0.90390400  1
  Fe  Fe16  1  0.09609600  0.09609600  0.09609600  1
  C  C0  1  0.50000000  0.50000000  0.00000000  1
  C  C1  1  0.00000000  0.50000000  0.50000000  1
  C  C2  1  0.50000000  0.00000000  0.50000000  1
loop_
_geom_bond_atom_site_label_1
_geom_bond_atom_site_label_2
_geom_bond_distance
_geom_bond_site_symmetry_2
Fe0 Fe5 2.440221 1_555
Fe0 Fe6 2.440221 1_555
Fe0 Fe7 2.440221 1_455
Fe0 Fe4 2.440221 1_545
Fe0 Fe14 2.461188 1_455
Fe0 Fe13 2.461188 1_545
Fe0 Fe10 2.461188 1_455
Fe0 Fe11 2.461188 1_545
Fe0 Fe15 2.631074 1_445
Fe0 Fe16 2.631074 1_555
Fe0 Tm1 3.309059 1_555
Fe0 Tm0 3.309059 1_445
Fe1 Fe3 2.440221 1_555
Fe1 Fe8 2.440221 1_545
Fe1 Fe7 2.440221 1_555
Fe1 Fe5 2.440221 1_554
Fe1 Fe14 2.461188 1_554
Fe1 Fe11 2.461188 1_545
Fe1 Fe12 2.461188 1_545
Fe1 Fe9 2.461188 1_554
Fe1 Fe15 2.631074 1_544
Fe1 Fe16 2.631074 1_555
Fe1 Tm1 3.309059 1_555
Fe1 Tm0 3.309059 1_544
Fe2 Fe8 2.440221 1_555
Fe2 Fe3 2.440221 1_455
Fe2 Fe4 2.440221 1_555
Fe2 Fe6 2.440221 1_554
Fe2 Fe9 2.461188 1_554
Fe2 Tm1 3.309059 1_555
Fe2 Tm0 3.309059 1_454
Fe10 Fe2 2.461188 1_655
Fe10 Fe16 2.649488 1_655
Fe11 Fe16 2.649488 1_565
Fe12 Fe2 2.461188 1_655
Fe12 Fe15 2.649488 1_554
Fe13 Fe2 2.461188 1_556
Fe13 Fe15 2.649488 1_455
Fe14 Fe15 2.649488 1_545
Fe15 Fe16 2.400635 1_666
Fe15 Fe2 2.631074 1_656
Fe15 Fe5 2.716919 1_665
Fe15 Fe6 2.716919 1_665
Fe15 Fe4 2.716919 1_656
Fe15 Fe7 2.716919 1_566
Fe15 Fe3 2.716919 1_566
Fe15 Fe8 2.716919 1_656
Fe15 Tm0 3.073366 1_555
Fe16 Fe2 2.631074 1_555
Fe16 Fe9 2.649488 1_554
Fe16 Fe4 2.716919 1_545
Fe16 Fe7 2.716919 1_455
Fe16 Fe6 2.716919 1_554
Fe16 Fe5 2.716919 1_554
Fe16 Fe3 2.716919 1_455
Fe16 Fe8 2.716919 1_545
Fe16 Tm1 3.073366 1_555
C0 Fe3 1.856393 1_555
C0 Fe8 1.856393 1_555
C0 Fe12 1.908925 1_555
C0 Fe9 1.908925 1_554
C0 Tm1 2.481461 1_555
C0 Tm0 2.481461 1_554
C1 Fe6 1.856393 1_555
C1 Fe4 1.856393 1_555
C1 Fe13 1.908925 1_555
C1 Fe10 1.908925 1_455
C1 Tm1 2.481461 1_555
C1 Tm0 2.481461 1_455
C2 Fe5 1.856393 1_555
C2 Fe7 1.856393 1_555
C2 Fe14 1.908925 1_555
C2 Fe11 1.908925 1_545
C2 Tm1 2.481461 1_555
C2 Tm0 2.481461 1_545
