# generated using pymatgen
data_NaCa2Ta3O10
_symmetry_space_group_name_H-M   'P 1'
_cell_length_a   14.95346508
_cell_length_b   14.95346508
_cell_length_c   14.95346508
_cell_angle_alpha   164.83474540
_cell_angle_beta   164.83474540
_cell_angle_gamma   21.51046236
_symmetry_Int_Tables_number   1
_chemical_formula_structural   NaCa2Ta3O10
_chemical_formula_sum   'Na1 Ca2 Ta3 O10'
_cell_volume   228.79463057
_cell_formula_units_Z   1
loop_
 _symmetry_equiv_pos_site_id
 _symmetry_equiv_pos_as_xyz
  1  'x, y, z'
loop_
 _atom_site_type_symbol
 _atom_site_label
 _atom_site_symmetry_multiplicity
 _atom_site_fract_x
 _atom_site_fract_y
 _atom_site_fract_z
 _atom_site_occupancy
  Na  Na0  1  0.25000000  0.75000000  0.50000000  1
  Ca  Ca0  1  0.57824400  0.57824400  0.00000000  1
  Ca  Ca1  1  0.42175600  0.42175600  0.00000000  1
  Ta  Ta0  1  0.85442200  0.85442200  0.00000000  1
  Ta  Ta1  1  0.14557800  0.14557800  0.00000000  1
  Ta  Ta2  1  0.00000000  0.00000000  0.00000000  1
  O  O0  1  0.79319800  0.79319800  0.00000000  1
  O  O1  1  0.20680200  0.20680200  0.00000000  1
  O  O2  1  0.93291900  0.93291900  0.00000000  1
  O  O3  1  0.06708100  0.06708100  0.00000000  1
  O  O4  1  0.36822200  0.86822200  0.50000000  1
  O  O5  1  0.86892100  0.36892100  0.50000000  1
  O  O6  1  0.63107900  0.13107900  0.50000000  1
  O  O7  1  0.13177800  0.63177800  0.50000000  1
  O  O8  1  0.49995200  0.99995200  0.50000000  1
  O  O9  1  0.00004800  0.50004800  0.50000000  1
loop_
_geom_bond_atom_site_label_1
_geom_bond_atom_site_label_2
_geom_bond_distance
_geom_bond_site_symmetry_2
Na0 O1 2.346154 1_555
Na0 O0 2.346154 1_455
Na0 O0 2.346154 1_556
Na0 O1 2.346154 1_566
Ca0 O6 2.510652 1_554
Ca0 O6 2.510652 1_565
Ca0 O7 2.523403 1_655
Ca0 O7 2.523403 1_554
Ca0 O3 2.809731 1_554
Ca0 O3 2.809731 1_565
Ca0 O3 2.809731 1_655
Ca0 O3 2.809731 1_666
Ca0 O9 3.028549 1_655
Ca0 O9 3.028549 1_554
Ca0 O8 3.030689 1_544
Ca0 O8 3.030689 1_555
Ca1 O5 2.510652 1_555
Ca1 O5 2.510652 1_454
Ca1 O4 2.523403 1_544
Ca1 O4 2.523403 1_555
Ca1 O2 2.809731 1_556
Ca1 O2 2.809731 1_444
Ca1 O2 2.809731 1_545
Ca1 O2 2.809731 1_455
Ca1 O8 3.028549 1_555
Ca1 O8 3.028549 1_544
Ca1 O9 3.030689 1_655
Ca1 O9 3.030689 1_554
O0 Ta0 1.798857 1_555
O1 Ta1 1.798857 1_555
O2 Ta2 1.970945 1_665
O2 Ta0 2.306365 1_555
O3 Ta2 1.970945 1_555
O3 Ta1 2.306365 1_555
O4 Ta0 2.014425 1_455
O4 Ta0 2.014425 1_556
O5 Ta0 2.018659 1_556
O5 Ta0 2.018659 1_545
O6 Ta1 2.018659 1_555
O6 Ta1 2.018659 1_656
O7 Ta1 2.014425 1_566
O7 Ta1 2.014425 1_555
O8 Ta2 1.973198 1_565
O8 Ta2 1.973198 1_666
O9 Ta2 1.973198 1_566
O9 Ta2 1.973198 1_555
