# generated using pymatgen
data_Na4NiH38(W3O20)2
_symmetry_space_group_name_H-M   'P 1'
_cell_length_a   8.02240200
_cell_length_b   10.62125008
_cell_length_c   12.41604411
_cell_angle_alpha   109.82929354
_cell_angle_beta   108.41740966
_cell_angle_gamma   84.49274721
_symmetry_Int_Tables_number   1
_chemical_formula_structural   Na4NiH38(W3O20)2
_chemical_formula_sum   'Na4 Ni1 H38 W6 O40'
_cell_volume   944.16791735
_cell_formula_units_Z   1
loop_
 _symmetry_equiv_pos_site_id
 _symmetry_equiv_pos_as_xyz
  1  'x, y, z'
loop_
 _atom_site_type_symbol
 _atom_site_label
 _atom_site_symmetry_multiplicity
 _atom_site_fract_x
 _atom_site_fract_y
 _atom_site_fract_z
 _atom_site_occupancy
  Na  Na0  1  0.21984100  0.13522000  0.41920500  1
  Na  Na1  1  0.78015900  0.86478000  0.58079500  1
  Na  Na2  1  0.39341800  0.12651200  0.19056000  1
  Na  Na3  1  0.60658200  0.87348800  0.80944000  1
  Ni  Ni0  1  0.00000000  0.50000000  0.00000000  1
  H  H0  1  0.21071100  0.45788000  0.20624500  1
  H  H1  1  0.78928900  0.54212000  0.79375500  1
  H  H2  1  0.94333500  0.76520300  0.05036500  1
  H  H3  1  0.05666500  0.23479700  0.94963500  1
  H  H4  1  0.32884300  0.43872100  0.97554300  1
  H  H5  1  0.67115700  0.56127900  0.02445700  1
  H  H6  1  0.23931300  0.18861100  0.66039000  1
  H  H7  1  0.76068700  0.81138900  0.33961000  1
  H  H8  1  0.43404900  0.21531100  0.67614100  1
  H  H9  1  0.56595100  0.78468900  0.32385900  1
  H  H10  1  0.88383400  0.29745800  0.47466000  1
  H  H11  1  0.11616600  0.70254200  0.52534000  1
  H  H12  1  0.84499300  0.19775000  0.34610100  1
  H  H13  1  0.15500700  0.80225000  0.65389900  1
  H  H14  1  0.01941500  0.10055400  0.16000300  1
  H  H15  1  0.98058500  0.89944600  0.83999700  1
  H  H16  1  0.08370400  0.24550900  0.22831000  1
  H  H17  1  0.91629600  0.75449100  0.77169000  1
  H  H18  1  0.58063900  0.16678800  0.44733900  1
  H  H19  1  0.41936100  0.83321200  0.55266100  1
  H  H20  1  0.56503300  0.01126500  0.37939000  1
  H  H21  1  0.43496700  0.98873500  0.62061000  1
  H  H22  1  0.35455300  0.40049500  0.55728600  1
  H  H23  1  0.64544700  0.59950500  0.44271400  1
  H  H24  1  0.20420500  0.41480300  0.44516200  1
  H  H25  1  0.79579500  0.58519700  0.55483800  1
  H  H26  1  0.34771400  0.20771600  0.97122000  1
  H  H27  1  0.65228600  0.79228400  0.02878000  1
  H  H28  1  0.30855400  0.06008600  0.96070700  1
  H  H29  1  0.69144600  0.93991400  0.03929300  1
  H  H30  1  0.74562200  0.17839400  0.15814400  1
  H  H31  1  0.25437800  0.82160600  0.84185600  1
  H  H32  1  0.77630700  0.04500000  0.19392700  1
  H  H33  1  0.22369300  0.95500000  0.80607300  1
  H  H34  1  0.49135100  0.42364500  0.26094300  1
  H  H35  1  0.50864900  0.57635500  0.73905700  1
  H  H36  1  0.40871400  0.39027400  0.34971100  1
  H  H37  1  0.59128600  0.60972600  0.65028900  1
  W  W0  1  0.15136500  0.73522100  0.27720200  1
  W  W1  1  0.84863500  0.26477900  0.72279800  1
  W  W2  1  0.30230800  0.72609800  0.04796400  1
  W  W3  1  0.69769200  0.27390200  0.95203600  1
  W  W4  1  0.13659900  0.50027400  0.76804000  1
  W  W5  1  0.86340100  0.49972600  0.23196000  1
  O  O0  1  0.10693900  0.51203900  0.17745500  1
  O  O1  1  0.89306100  0.48796100  0.82254500  1
  O  O2  1  0.04302400  0.70666300  0.07325900  1
  O  O3  1  0.95697600  0.29333700  0.92674100  1
  O  O4  1  0.23432200  0.50572000  0.96242300  1
  O  O5  1  0.76567800  0.49428000  0.03757700  1
  O  O6  1  0.34881800  0.71354000  0.20787800  1
  O  O7  1  0.65118200  0.28646000  0.79212200  1
  O  O8  1  0.16662700  0.69075800  0.87471300  1
  O  O9  1  0.83337300  0.30924200  0.12528700  1
  O  O10  1  0.08768400  0.30970600  0.73252000  1
  O  O11  1  0.91231600  0.69029400  0.26748000  1
  O  O12  1  0.27864600  0.71352100  0.41532200  1
  O  O13  1  0.72135400  0.28647900  0.58467800  1
  O  O14  1  0.11964700  0.91054700  0.31408900  1
  O  O15  1  0.88035300  0.08945300  0.68591100  1
  O  O16  1  0.29379500  0.90190200  0.07776400  1
  O  O17  1  0.70620500  0.09809800  0.92223600  1
  O  O18  1  0.52054300  0.68705400  0.03536100  1
  O  O19  1  0.47945700  0.31294600  0.96463900  1
  O  O20  1  0.34237500  0.47917100  0.73718200  1
  O  O21  1  0.65762500  0.52082900  0.26281800  1
  O  O22  1  0.98852500  0.53013400  0.63973100  1
  O  O23  1  0.01147500  0.46986600  0.36026900  1
  O  O24  1  0.33564500  0.15183400  0.62550800  1
  O  O25  1  0.66435500  0.84816600  0.37449200  1
  O  O26  1  0.94033700  0.23145900  0.42064100  1
  O  O27  1  0.05966300  0.76854100  0.57935900  1
  O  O28  1  0.11889800  0.15291500  0.22120000  1
  O  O29  1  0.88110200  0.84708500  0.77880000  1
  O  O30  1  0.50308300  0.09661500  0.38004100  1
  O  O31  1  0.49691700  0.90338500  0.61995900  1
  O  O32  1  0.31798200  0.37059000  0.46930200  1
  O  O33  1  0.68201800  0.62941000  0.53069800  1
  O  O34  1  0.26626500  0.15199900  0.98428800  1
  O  O35  1  0.73373500  0.84800100  0.01571200  1
  O  O36  1  0.69137800  0.11511500  0.18116200  1
  O  O37  1  0.30862200  0.88488500  0.81883800  1
  O  O38  1  0.39609800  0.37258700  0.26381000  1
  O  O39  1  0.60390200  0.62741300  0.73619000  1
loop_
_geom_bond_atom_site_label_1
_geom_bond_atom_site_label_2
_geom_bond_distance
_geom_bond_site_symmetry_2
Na0 O14 2.374080 1_545
Na0 O26 2.376132 1_455
Na0 O24 2.382541 1_555
Na0 O28 2.400274 1_555
Na0 O30 2.439653 1_555
Na0 O32 2.503956 1_555
Na1 O15 2.374080 1_565
Na1 O27 2.376132 1_655
Na1 O25 2.382541 1_555
Na1 O29 2.400274 1_555
Na1 O31 2.439653 1_555
Na1 O33 2.503956 1_555
Na2 O28 2.326373 1_555
Na2 O30 2.356897 1_555
Na2 O16 2.383987 1_545
Na2 O36 2.419336 1_555
Na2 O38 2.458537 1_555
Na2 O34 2.537629 1_554
Na3 O29 2.326373 1_555
Na3 O31 2.356897 1_555
Na3 O17 2.383987 1_565
Na3 O37 2.419336 1_555
Na3 O39 2.458537 1_555
Na3 O35 2.537629 1_556
Ni0 O0 2.059703 1_555
Ni0 O1 2.059703 1_454
Ni0 O5 2.085772 1_455
Ni0 O4 2.085772 1_554
Ni0 O2 2.087365 1_555
Ni0 O3 2.087365 1_454
H0 O0 1.005623 1_555
H1 O1 1.005623 1_555
H2 O2 0.993884 1_655
H3 O3 0.993884 1_455
H4 O4 1.002470 1_555
H4 O19 1.712811 1_555
H5 O5 1.002470 1_555
H5 O18 1.712811 1_555
H6 O24 0.988013 1_555
H7 O25 0.988013 1_555
H8 O24 0.986911 1_555
H9 O25 0.986911 1_555
H10 O26 0.979206 1_555
H11 O27 0.979206 1_555
H12 O26 0.974799 1_555
H13 O27 0.974799 1_555
H14 O28 0.968973 1_555
H15 O29 0.968973 1_555
H16 O28 0.978908 1_555
H17 O29 0.978908 1_555
H18 O30 0.989346 1_555
H19 O31 0.989346 1_555
H20 O30 0.989918 1_555
H21 O31 0.989918 1_555
H22 O32 0.979947 1_555
H23 O33 0.979947 1_555
H24 O32 0.991890 1_555
H24 O23 1.748860 1_555
H25 O33 0.991890 1_555
H25 O22 1.748860 1_555
H26 O34 1.004909 1_555
H26 O19 1.648078 1_555
H27 O35 1.004909 1_555
H27 O18 1.648078 1_555
H28 O34 0.979349 1_555
H28 Na2 2.569883 1_556
H29 O35 0.979349 1_555
H29 Na3 2.569883 1_554
H30 O36 0.993885 1_555
H31 O37 0.993885 1_555
H32 O36 0.978968 1_555
H33 O37 0.978968 1_555
H34 O38 0.994545 1_555
H35 O39 0.994545 1_555
H36 O38 0.991248 1_555
H37 O39 0.991248 1_555
O0 W0 2.274091 1_555
O0 W5 2.288404 1_455
O1 W1 2.274091 1_555
O1 W4 2.288404 1_655
O2 W2 2.237671 1_555
O2 W0 2.323394 1_555
O3 W3 2.237671 1_555
O3 W1 2.323394 1_555
O4 W2 2.257595 1_556
O4 W4 2.271830 1_555
O5 W3 2.257595 1_554
O5 W5 2.271830 1_555
O6 W2 1.949672 1_555
O6 W0 1.990006 1_555
O7 W3 1.949672 1_555
O7 W1 1.990006 1_555
O8 W4 1.994859 1_555
O8 W2 2.001008 1_556
O9 W5 1.994859 1_555
O9 W3 2.001008 1_554
O10 W4 1.970493 1_555
O10 W1 1.977455 1_455
O11 W5 1.970493 1_555
O11 W0 1.977455 1_655
O12 W0 1.775718 1_555
O13 W1 1.775718 1_555
O14 W0 1.773780 1_555
O15 W1 1.773780 1_555
O16 W2 1.775101 1_555
O17 W3 1.775101 1_555
O18 W2 1.803157 1_555
O19 W3 1.803157 1_555
O20 W4 1.786784 1_555
O21 W5 1.786784 1_555
O22 W4 1.767576 1_655
O23 W5 1.767576 1_455
