# generated using pymatgen
data_BaFe2(PO4)2
_symmetry_space_group_name_H-M   'P 1'
_cell_length_a   4.94383889
_cell_length_b   4.94692745
_cell_length_c   16.21488493
_cell_angle_alpha   81.46214804
_cell_angle_beta   90.50132137
_cell_angle_gamma   60.01263940
_symmetry_Int_Tables_number   1
_chemical_formula_structural   BaFe2(PO4)2
_chemical_formula_sum   'Ba2 Fe4 P4 O16'
_cell_volume   338.07545842
_cell_formula_units_Z   2
loop_
 _symmetry_equiv_pos_site_id
 _symmetry_equiv_pos_as_xyz
  1  'x, y, z'
loop_
 _atom_site_type_symbol
 _atom_site_label
 _atom_site_symmetry_multiplicity
 _atom_site_fract_x
 _atom_site_fract_y
 _atom_site_fract_z
 _atom_site_occupancy
  Ba  Ba0  1  0.00285300  0.99050800  0.99989900  1
  Ba  Ba1  1  0.49512200  0.01067900  0.49991600  1
  Fe  Fe0  1  0.90678600  0.17165700  0.74479000  1
  Fe  Fe1  1  0.59220400  0.82282000  0.75507700  1
  Fe  Fe2  1  0.41710200  0.17749600  0.24497700  1
  Fe  Fe3  1  0.07757800  0.82836200  0.25505700  1
  P  P0  1  0.71678700  0.56851400  0.13814100  1
  P  P1  1  0.20980200  0.58224100  0.63806500  1
  P  P2  1  0.78334200  0.42976500  0.36193800  1
  P  P3  1  0.29091800  0.41950900  0.86191600  1
  O  O0  1  0.68632300  0.62849500  0.04236700  1
  O  O1  1  0.17413600  0.64902800  0.54229500  1
  O  O2  1  0.80910600  0.37651700  0.45769500  1
  O  O3  1  0.32324100  0.34513900  0.95764800  1
  O  O4  1  0.73992100  0.84243500  0.16991700  1
  O  O5  1  0.23503600  0.85209400  0.67105200  1
  O  O6  1  0.02018900  0.24201600  0.17186200  1
  O  O7  1  0.51659600  0.25446400  0.66967300  1
  O  O8  1  0.42036200  0.56051400  0.16950800  1
  O  O9  1  0.91444800  0.57416000  0.67030800  1
  O  O10  1  0.76523600  0.15149600  0.33174300  1
  O  O11  1  0.26638000  0.15270800  0.82589700  1
  O  O12  1  0.47948400  0.75591700  0.32640000  1
  O  O13  1  0.98834900  0.75028500  0.83102600  1
  O  O14  1  0.08252000  0.43158800  0.33088200  1
  O  O15  1  0.58617700  0.43159300  0.83195200  1
loop_
_geom_bond_atom_site_label_1
_geom_bond_atom_site_label_2
_geom_bond_distance
_geom_bond_site_symmetry_2
Ba0 O3 2.914748 1_565
Ba0 O3 2.923465 1_465
Ba0 O0 2.929888 1_456
Ba0 O0 2.934455 1_466
Ba0 O0 2.939889 1_556
Ba0 O3 2.963843 1_555
Ba0 O13 3.156478 1_455
Ba0 O15 3.172541 1_465
Ba0 O8 3.181740 1_556
Ba0 O4 3.200199 1_456
Ba0 O6 3.234631 1_566
Ba0 O11 3.277002 1_565
Ba1 O2 2.916920 1_545
Ba1 O1 2.921145 1_645
Ba1 O2 2.934704 1_555
Ba1 O1 2.935418 1_555
Ba1 O1 2.946732 1_545
Ba1 O2 2.949997 1_455
Ba1 O14 3.157646 1_555
Ba1 O10 3.183420 1_555
Ba1 O7 3.186058 1_555
Ba1 O9 3.201189 1_545
Ba1 O5 3.223901 1_545
Ba1 O12 3.264472 1_545
Fe0 O7 2.096036 1_555
Fe0 O5 2.143117 1_645
Fe0 O11 2.157490 1_655
Fe0 O15 2.169044 1_555
Fe0 O13 2.178860 1_545
Fe0 O9 2.187892 1_555
Fe1 O9 2.126476 1_555
Fe1 O11 2.130186 1_565
Fe1 O13 2.145948 1_555
Fe1 O5 2.153820 1_555
Fe1 O15 2.154607 1_555
Fe1 O7 2.220824 1_565
Fe2 O8 2.104823 1_555
Fe2 O6 2.139810 1_555
Fe2 O10 2.154245 1_555
Fe2 O12 2.172551 1_545
Fe2 O14 2.176738 1_555
Fe2 O4 2.182762 1_545
Fe3 O4 2.124223 1_455
Fe3 O12 2.130618 1_555
Fe3 O14 2.144728 1_555
Fe3 O10 2.154590 1_465
Fe3 O6 2.163559 1_565
Fe3 O8 2.212261 1_555
O0 P0 1.528672 1_555
O1 P1 1.528522 1_555
O2 P2 1.529056 1_555
O3 P3 1.528984 1_555
O4 P0 1.573520 1_555
O5 P1 1.568775 1_555
O6 P0 1.568210 1_455
O7 P1 1.572770 1_555
O8 P0 1.572551 1_555
O9 P1 1.572441 1_655
O10 P2 1.570103 1_555
O11 P3 1.576551 1_555
O12 P2 1.574137 1_555
O13 P3 1.569323 1_655
O14 P2 1.570472 1_455
O15 P3 1.568889 1_555
