# generated using pymatgen
data_Sr2YIrO6
_symmetry_space_group_name_H-M   'P 1'
_cell_length_a   5.87991000
_cell_length_b   5.82488600
_cell_length_c   10.08386292
_cell_angle_alpha   55.10138944
_cell_angle_beta   90.00000000
_cell_angle_gamma   90.00000000
_symmetry_Int_Tables_number   1
_chemical_formula_structural   Sr2YIrO6
_chemical_formula_sum   'Sr4 Y2 Ir2 O12'
_cell_volume   283.26092666
_cell_formula_units_Z   2
loop_
 _symmetry_equiv_pos_site_id
 _symmetry_equiv_pos_as_xyz
  1  'x, y, z'
loop_
 _atom_site_type_symbol
 _atom_site_label
 _atom_site_symmetry_multiplicity
 _atom_site_fract_x
 _atom_site_fract_y
 _atom_site_fract_z
 _atom_site_occupancy
  Sr  Sr0  1  0.96410000  0.74130000  0.25079100  1
  Sr  Sr1  1  0.46410000  0.25870000  0.24920900  1
  Sr  Sr2  1  0.03590000  0.25870000  0.74920900  1
  Sr  Sr3  1  0.53590000  0.74130000  0.75079100  1
  Y  Y0  1  0.50000000  0.00000000  0.00000000  1
  Y  Y1  1  0.00000000  0.00000000  0.50000000  1
  Ir  Ir0  1  0.00000000  0.50000000  0.00000000  1
  Ir  Ir1  1  0.50000000  0.50000000  0.50000000  1
  O  O0  1  0.51814900  0.80718300  0.26524700  1
  O  O1  1  0.01814900  0.19281700  0.23475300  1
  O  O2  1  0.48185100  0.19281700  0.73475300  1
  O  O3  1  0.98185100  0.80718300  0.76524700  1
  O  O4  1  0.77221900  0.65704800  0.53941400  1
  O  O5  1  0.27221900  0.34295200  0.96058600  1
  O  O6  1  0.22778100  0.34295200  0.46058600  1
  O  O7  1  0.72778100  0.65704800  0.03941400  1
  O  O8  1  0.19958500  0.73389100  0.03745800  1
  O  O9  1  0.69958500  0.26610900  0.46254200  1
  O  O10  1  0.80041500  0.26610900  0.96254200  1
  O  O11  1  0.30041500  0.73389100  0.53745800  1
loop_
_geom_bond_atom_site_label_1
_geom_bond_atom_site_label_2
_geom_bond_distance
_geom_bond_site_symmetry_2
Ir0 O8 1.991183 1_555
Ir0 O10 1.991183 1_454
Ir0 O3 1.992496 1_454
Ir0 O1 1.992496 1_555
Ir0 O5 1.993193 1_554
Ir0 O7 1.993193 1_455
Ir1 O9 1.991183 1_555
Ir1 O11 1.991183 1_555
Ir1 O0 1.992496 1_555
Ir1 O2 1.992496 1_555
Ir1 O4 1.993193 1_555
Ir1 O6 1.993193 1_555
O0 Y0 2.233721 1_565
O0 Sr1 2.560769 1_565
O0 Sr0 2.666123 1_555
O1 Y1 2.233721 1_555
O1 Sr0 2.560769 1_445
O1 Sr1 2.666123 1_555
O2 Y0 2.233721 1_556
O2 Sr3 2.560769 1_545
O2 Sr2 2.666123 1_555
O3 Y1 2.233721 1_665
O3 Sr2 2.560769 1_665
O3 Sr3 2.666123 1_555
O4 Y1 2.243638 1_665
O4 Sr2 2.578063 1_655
O4 Sr3 2.812805 1_555
O4 Sr0 2.889645 1_555
O5 Y0 2.243638 1_556
O5 Sr3 2.578063 1_555
O5 Sr2 2.812805 1_555
O5 Sr1 2.889645 1_556
O6 Y1 2.243638 1_555
O6 Sr0 2.578063 1_455
O6 Sr1 2.812805 1_555
O6 Sr2 2.889645 1_555
O7 Y0 2.243638 1_565
O7 Sr1 2.578063 1_555
O7 Sr0 2.812805 1_555
O7 Sr3 2.889645 1_554
O8 Y0 2.235086 1_565
O8 Sr0 2.579350 1_455
O8 Sr1 2.806601 1_555
O8 Sr2 2.924496 1_564
O9 Y1 2.235086 1_655
O9 Sr1 2.579350 1_555
O9 Sr0 2.806601 1_555
O9 Sr3 2.924496 1_545
O10 Y0 2.235086 1_556
O10 Sr2 2.579350 1_655
O10 Sr3 2.806601 1_555
O10 Sr0 2.924496 1_546
O11 Y1 2.235086 1_565
O11 Sr3 2.579350 1_555
O11 Sr2 2.806601 1_555
O11 Sr1 2.924496 1_565
