# generated using pymatgen
data_Rb2LaNb2O8
_symmetry_space_group_name_H-M   'P 1'
_cell_length_a   3.91706200
_cell_length_b   3.91706200
_cell_length_c   14.84155900
_cell_angle_alpha   90.00000000
_cell_angle_beta   90.00000000
_cell_angle_gamma   90.00000000
_symmetry_Int_Tables_number   1
_chemical_formula_structural   Rb2LaNb2O8
_chemical_formula_sum   'Rb2 La1 Nb2 O8'
_cell_volume   227.71960104
_cell_formula_units_Z   1
loop_
 _symmetry_equiv_pos_site_id
 _symmetry_equiv_pos_as_xyz
  1  'x, y, z'
loop_
 _atom_site_type_symbol
 _atom_site_label
 _atom_site_symmetry_multiplicity
 _atom_site_fract_x
 _atom_site_fract_y
 _atom_site_fract_z
 _atom_site_occupancy
  Rb  Rb0  1  0.00000000  0.00000000  0.61489800  1
  Rb  Rb1  1  0.00000000  0.00000000  0.38510200  1
  La  La0  1  0.00000000  0.00000000  0.00000000  1
  Nb  Nb0  1  0.50000000  0.50000000  0.84478000  1
  Nb  Nb1  1  0.50000000  0.50000000  0.15522000  1
  O  O0  1  0.50000000  0.50000000  0.50000000  1
  O  O1  1  0.50000000  0.50000000  0.72288900  1
  O  O2  1  0.50000000  0.50000000  0.27711100  1
  O  O3  1  0.50000000  0.50000000  0.00000000  1
  O  O4  1  0.50000000  0.00000000  0.87520100  1
  O  O5  1  0.00000000  0.50000000  0.87520100  1
  O  O6  1  0.50000000  0.00000000  0.12479900  1
  O  O7  1  0.00000000  0.50000000  0.12479900  1
loop_
_geom_bond_atom_site_label_1
_geom_bond_atom_site_label_2
_geom_bond_distance
_geom_bond_site_symmetry_2
La0 O5 2.695651 1_544
La0 O7 2.695651 1_555
La0 O4 2.695651 1_554
La0 O5 2.695651 1_554
La0 O6 2.695651 1_455
La0 O4 2.695651 1_454
La0 O7 2.695651 1_545
La0 O6 2.695651 1_555
La0 O3 2.769781 1_545
La0 O3 2.769781 1_455
La0 O3 2.769781 1_555
La0 O3 2.769781 1_445
Nb0 O1 1.809052 1_555
Nb0 O5 2.009898 1_655
Nb0 O4 2.009898 1_555
Nb0 O4 2.009898 1_565
Nb0 O5 2.009898 1_555
Nb0 O3 2.303707 1_556
Nb1 O2 1.809052 1_555
Nb1 O6 2.009898 1_555
Nb1 O6 2.009898 1_565
Nb1 O7 2.009898 1_555
Nb1 O7 2.009898 1_655
Nb1 O3 2.303707 1_555
O0 Rb1 3.252632 1_665
O0 Rb0 3.252632 1_555
O0 Rb1 3.252632 1_555
O0 Rb0 3.252632 1_565
O0 Rb0 3.252632 1_655
O0 Rb1 3.252632 1_565
O0 Rb1 3.252632 1_655
O0 Rb0 3.252632 1_665
O1 Rb0 3.200080 1_555
O1 Rb0 3.200080 1_565
O1 Rb0 3.200080 1_655
O1 Rb0 3.200080 1_665
O2 Rb1 3.200080 1_565
O2 Rb1 3.200080 1_655
O2 Rb1 3.200080 1_665
O2 Rb1 3.200080 1_555
