# generated using pymatgen
data_CeMg14Si
_symmetry_space_group_name_H-M   'P 1'
_cell_length_a   6.36923002
_cell_length_b   6.36923002
_cell_length_c   10.40161000
_cell_angle_alpha   90.00000000
_cell_angle_beta   90.00000000
_cell_angle_gamma   120.00000016
_symmetry_Int_Tables_number   1
_chemical_formula_structural   CeMg14Si
_chemical_formula_sum   'Ce1 Mg14 Si1'
_cell_volume   365.43072820
_cell_formula_units_Z   1
loop_
 _symmetry_equiv_pos_site_id
 _symmetry_equiv_pos_as_xyz
  1  'x, y, z'
loop_
 _atom_site_type_symbol
 _atom_site_label
 _atom_site_symmetry_multiplicity
 _atom_site_fract_x
 _atom_site_fract_y
 _atom_site_fract_z
 _atom_site_occupancy
  Ce  Ce0  1  0.00000000  0.00000000  0.00000000  1
  Mg  Mg0  1  0.00764800  0.50382400  0.00000000  1
  Mg  Mg1  1  0.99701100  0.49850500  0.50000000  1
  Mg  Mg2  1  0.49617600  0.99235200  0.00000000  1
  Mg  Mg3  1  0.50149500  0.00298900  0.50000000  1
  Mg  Mg4  1  0.49617600  0.50382400  0.00000000  1
  Mg  Mg5  1  0.50149500  0.49850500  0.50000000  1
  Mg  Mg6  1  0.16507100  0.83492900  0.25648600  1
  Mg  Mg7  1  0.16507100  0.83492900  0.74351400  1
  Mg  Mg8  1  0.16507100  0.33014200  0.25648600  1
  Mg  Mg9  1  0.16507100  0.33014200  0.74351400  1
  Mg  Mg10  1  0.66985800  0.83492900  0.25648600  1
  Mg  Mg11  1  0.66985800  0.83492900  0.74351400  1
  Mg  Mg12  1  0.66666700  0.33333300  0.24383900  1
  Mg  Mg13  1  0.66666700  0.33333300  0.75616100  1
  Si  Si0  1  0.00000000  0.00000000  0.50000000  1
loop_
_geom_bond_atom_site_label_1
_geom_bond_atom_site_label_2
_geom_bond_distance
_geom_bond_site_symmetry_2
Ce0 Mg4 3.184894 1_555
Ce0 Mg4 3.184894 1_445
Ce0 Mg0 3.184894 1_555
Ce0 Mg2 3.184894 1_445
Ce0 Mg2 3.184894 1_545
Ce0 Mg0 3.184894 1_545
Ce0 Mg8 3.230122 1_555
Ce0 Mg9 3.230122 1_554
Ce0 Mg10 3.230122 1_445
Ce0 Mg11 3.230122 1_444
Ce0 Mg6 3.230122 1_545
Ce0 Mg7 3.230122 1_544
Mg0 Mg2 3.111547 1_555
Mg0 Mg4 3.111547 1_555
Mg0 Mg12 3.157594 1_455
Mg0 Mg13 3.157594 1_454
Mg0 Mg7 3.233534 1_554
Mg0 Mg6 3.233534 1_555
Mg0 Mg9 3.233534 1_554
Mg0 Mg8 3.233534 1_555
Mg0 Mg2 3.257683 1_445
Mg0 Mg4 3.257683 1_455
Mg1 Mg8 3.139956 1_655
Mg1 Mg9 3.139956 1_655
Mg1 Mg6 3.139959 1_655
Mg1 Mg7 3.139959 1_655
Mg1 Mg3 3.156055 1_555
Mg1 Mg5 3.156055 1_555
Mg1 Si0 3.184655 1_655
Mg1 Si0 3.184661 1_665
Mg1 Mg3 3.213175 1_665
Mg1 Mg5 3.213175 1_655
Mg1 Mg12 3.227959 1_555
Mg1 Mg13 3.227959 1_555
Mg2 Mg4 3.111547 1_555
Mg2 Mg6 3.233534 1_555
Mg2 Mg7 3.233534 1_554
Mg2 Mg4 3.257683 1_565
Mg3 Mg6 3.139959 1_545
Mg3 Mg7 3.139959 1_545
Mg3 Mg5 3.156055 1_555
Mg3 Si0 3.184655 1_655
Mg3 Si0 3.184661 1_555
Mg3 Mg5 3.213175 1_545
Mg4 Mg8 3.233534 1_555
Mg4 Mg9 3.233534 1_554
Mg5 Mg8 3.139959 1_555
Mg5 Mg9 3.139959 1_555
Mg5 Si0 3.184658 1_665
Mg5 Si0 3.184658 1_555
Mg6 Si0 3.119606 1_565
Mg6 Mg8 3.154126 1_565
Mg6 Mg8 3.215105 1_555
Mg7 Si0 3.119606 1_565
Mg7 Mg9 3.154126 1_565
Mg7 Mg9 3.215105 1_555
Mg8 Si0 3.119606 1_555
Mg9 Si0 3.119606 1_555
Mg10 Si0 3.119606 1_665
Mg10 Mg3 3.139956 1_565
Mg10 Mg5 3.139959 1_555
Mg10 Mg8 3.154125 1_665
Mg10 Mg6 3.154126 1_655
Mg10 Mg12 3.187376 1_565
Mg10 Mg12 3.187383 1_555
Mg10 Mg8 3.215105 1_555
Mg10 Mg6 3.215105 1_555
Mg10 Mg4 3.233534 1_555
Mg10 Mg2 3.233534 1_555
Mg11 Si0 3.119606 1_665
Mg11 Mg3 3.139956 1_565
Mg11 Mg5 3.139959 1_555
Mg11 Mg9 3.154125 1_665
Mg11 Mg7 3.154126 1_655
Mg11 Mg13 3.187376 1_565
Mg11 Mg13 3.187383 1_555
Mg11 Mg9 3.215105 1_555
Mg11 Mg7 3.215105 1_555
Mg11 Mg4 3.233534 1_556
Mg11 Mg2 3.233534 1_556
Mg12 Mg2 3.157594 1_545
Mg12 Mg4 3.157598 1_555
Mg12 Mg8 3.187376 1_655
Mg12 Mg6 3.187379 1_655
Mg12 Mg6 3.187379 1_545
Mg12 Mg8 3.187383 1_555
Mg12 Mg3 3.227959 1_555
Mg12 Mg5 3.227959 1_555
Mg13 Mg2 3.157594 1_546
Mg13 Mg4 3.157598 1_556
Mg13 Mg9 3.187376 1_655
Mg13 Mg7 3.187379 1_655
Mg13 Mg7 3.187379 1_545
Mg13 Mg9 3.187383 1_555
Mg13 Mg3 3.227959 1_555
Mg13 Mg5 3.227959 1_555
