# generated using pymatgen
data_Na3Sc2(PO4)3
_symmetry_space_group_name_H-M   'P 1'
_cell_length_a   8.87545981
_cell_length_b   8.87546044
_cell_length_c   9.07933739
_cell_angle_alpha   61.53223100
_cell_angle_beta   61.53222991
_cell_angle_gamma   60.21324407
_symmetry_Int_Tables_number   1
_chemical_formula_structural   Na3Sc2(PO4)3
_chemical_formula_sum   'Na6 Sc4 P6 O24'
_cell_volume   517.99512570
_cell_formula_units_Z   2
loop_
 _symmetry_equiv_pos_site_id
 _symmetry_equiv_pos_as_xyz
  1  'x, y, z'
loop_
 _atom_site_type_symbol
 _atom_site_label
 _atom_site_symmetry_multiplicity
 _atom_site_fract_x
 _atom_site_fract_y
 _atom_site_fract_z
 _atom_site_occupancy
  Na  Na0  1  0.04049459  0.33771722  0.43882716  1
  Na  Na1  1  0.33771722  0.04049459  0.93882716  1
  Na  Na2  1  0.60355781  0.38208086  0.76437549  1
  Na  Na3  1  0.38208086  0.60355781  0.26437549  1
  Na  Na4  1  0.90312139  0.75400521  0.67903192  1
  Na  Na5  1  0.75400521  0.90312139  0.17903192  1
  Sc  Sc0  1  0.85443138  0.34816836  0.94344447  1
  Sc  Sc1  1  0.34816836  0.85443138  0.44344447  1
  Sc  Sc2  1  0.15532639  0.64882451  0.04834954  1
  Sc  Sc3  1  0.64882451  0.15532639  0.54834954  1
  P  P0  1  0.53241095  0.75173847  0.75957704  1
  P  P1  1  0.75173847  0.53241095  0.25957704  1
  P  P2  1  0.46925542  0.25042792  0.23701191  1
  P  P3  1  0.25042792  0.46925542  0.73701191  1
  P  P4  1  0.95189146  0.04333556  0.74948957  1
  P  P5  1  0.04333556  0.95189146  0.24948957  1
  O  O0  1  0.77788774  0.05750662  0.73817335  1
  O  O1  1  0.05750662  0.77788774  0.23817335  1
  O  O2  1  0.22678567  0.92204800  0.25534910  1
  O  O3  1  0.92204800  0.22678567  0.75534910  1
  O  O4  1  0.37671641  0.74014889  0.93704223  1
  O  O5  1  0.74014889  0.37671641  0.43704223  1
  O  O6  1  0.62663139  0.26165931  0.06219679  1
  O  O7  1  0.26165931  0.62663139  0.56219579  1
  O  O8  1  0.48337803  0.74965697  0.62124572  1
  O  O9  1  0.74965697  0.48337803  0.12124572  1
  O  O10  1  0.51441554  0.26017598  0.37420394  1
  O  O11  1  0.26017598  0.51441554  0.87420394  1
  O  O12  1  0.56877289  0.92547062  0.70521059  1
  O  O13  1  0.92547062  0.56877289  0.20521059  1
  O  O14  1  0.44296122  0.07057319  0.29648806  1
  O  O15  1  0.07057319  0.44296122  0.79648806  1
  O  O16  1  0.70777623  0.58659432  0.78097503  1
  O  O17  1  0.58659432  0.70777623  0.28097503  1
  O  O18  1  0.29198486  0.41275077  0.21753468  1
  O  O19  1  0.41275077  0.29198486  0.71753468  1
  O  O20  1  0.98956982  0.88574503  0.91407539  1
  O  O21  1  0.88574503  0.98956982  0.41407539  1
  O  O22  1  0.01189381  0.11131119  0.08259703  1
  O  O23  1  0.11131119  0.01189381  0.58259703  1
loop_
_geom_bond_atom_site_label_1
_geom_bond_atom_site_label_2
_geom_bond_distance
_geom_bond_site_symmetry_2
Na0 O18 2.321311 1_555
Na0 O13 2.363094 1_455
Na0 O3 2.405023 1_455
Na0 O23 2.416462 1_555
Na0 O5 2.518959 1_455
Na1 O19 2.321311 1_555
Na1 O12 2.363094 1_545
Na1 O2 2.405023 1_546
Na1 O22 2.416462 1_556
Na1 O4 2.518960 1_545
Na2 O3 2.431625 1_555
Na2 O19 2.458557 1_555
Na2 O6 2.459932 1_556
Na2 O16 2.496987 1_555
Na2 O11 2.514960 1_555
Na2 O0 2.573565 1_555
Na2 O5 2.635777 1_555
Na2 O8 2.700398 1_555
Na3 O2 2.431625 1_555
Na3 O18 2.458557 1_555
Na3 O7 2.459924 1_555
Na3 O17 2.496987 1_555
Na3 O10 2.514960 1_555
Na3 O1 2.573564 1_555
Na3 O4 2.635777 1_554
Na3 O9 2.700398 1_555
Na4 O21 2.328209 1_555
Na4 O15 2.365419 1_655
Na4 O16 2.406035 1_555
Na4 O12 2.522705 1_555
Na4 O0 2.571975 1_565
Na4 O7 2.623080 1_655
Na5 O20 2.328209 1_554
Na5 O14 2.365419 1_565
Na5 O17 2.406035 1_555
Na5 O13 2.522705 1_555
Na5 O1 2.571975 1_655
Na5 O6 2.623080 1_565
O0 P4 1.535380 1_555
O0 Sc3 2.122217 1_555
O1 P5 1.535381 1_555
O1 Sc2 2.122217 1_555
O2 P5 1.537757 1_555
O2 Sc1 2.138191 1_555
O3 P4 1.537757 1_555
O3 Sc0 2.138191 1_555
O4 P0 1.541717 1_555
O4 Sc2 2.108952 1_556
O5 P1 1.541717 1_555
O5 Sc3 2.108953 1_555
O6 P2 1.534325 1_555
O6 Sc0 2.124804 1_554
O7 P3 1.534330 1_555
O7 Sc1 2.124805 1_555
O8 P0 1.522608 1_555
O8 Sc1 2.053743 1_555
O9 P1 1.522608 1_555
O9 Sc0 2.053743 1_554
O10 P2 1.527365 1_555
O10 Sc3 2.020284 1_555
O11 P3 1.527365 1_555
O11 Sc2 2.020284 1_556
O12 P0 1.530482 1_555
O12 Sc3 2.097768 1_565
O13 P1 1.530482 1_555
O13 Sc2 2.097768 1_655
O14 P2 1.523953 1_555
O14 Sc1 2.064328 1_545
O15 P3 1.523953 1_555
O15 Sc0 2.064328 1_455
O16 P0 1.535848 1_555
O16 Sc0 2.113334 1_555
O17 P1 1.535848 1_555
O17 Sc1 2.113334 1_555
O18 P2 1.533815 1_555
O18 Sc2 2.098514 1_555
O19 P3 1.533815 1_555
O19 Sc3 2.098514 1_555
O20 P4 1.523256 1_565
O20 Sc2 2.065094 1_656
O21 P5 1.523256 1_655
O21 Sc3 2.065094 1_565
O22 P5 1.530628 1_545
O22 Sc0 2.049621 1_454
O23 P4 1.530628 1_455
O23 Sc1 2.049621 1_545
