# generated using pymatgen
data_Na3Mn2P2(CO7)2
_symmetry_space_group_name_H-M   'P 1'
_cell_length_a   6.58609100
_cell_length_b   10.28257500
_cell_length_c   10.39041279
_cell_angle_alpha   61.19413847
_cell_angle_beta   90.00000000
_cell_angle_gamma   90.00000000
_symmetry_Int_Tables_number   1
_chemical_formula_structural   Na3Mn2P2(CO7)2
_chemical_formula_sum   'Na6 Mn4 P4 C4 O28'
_cell_volume   616.58663740
_cell_formula_units_Z   2
loop_
 _symmetry_equiv_pos_site_id
 _symmetry_equiv_pos_as_xyz
  1  'x, y, z'
loop_
 _atom_site_type_symbol
 _atom_site_label
 _atom_site_symmetry_multiplicity
 _atom_site_fract_x
 _atom_site_fract_y
 _atom_site_fract_z
 _atom_site_occupancy
  Na  Na0  1  0.98818600  0.75968500  0.99512700  1
  Na  Na1  1  0.50750700  0.76194700  0.98903600  1
  Na  Na2  1  0.52889300  0.75813700  0.49249400  1
  Na  Na3  1  0.48818600  0.24031500  0.00487300  1
  Na  Na4  1  0.00750700  0.23805300  0.01096400  1
  Na  Na5  1  0.02889300  0.24186300  0.50750600  1
  Mn  Mn0  1  0.24285300  0.65142400  0.81237900  1
  Mn  Mn1  1  0.24387700  0.65129200  0.32091700  1
  Mn  Mn2  1  0.74285300  0.34857600  0.18762100  1
  Mn  Mn3  1  0.74387700  0.34870800  0.67908300  1
  P  P0  1  0.74593900  0.57135300  0.82118500  1
  P  P1  1  0.74939000  0.57691100  0.31758500  1
  P  P2  1  0.24593900  0.42864700  0.17881500  1
  P  P3  1  0.24939000  0.42308900  0.68241500  1
  C  C0  1  0.25290300  0.92224300  0.65203000  1
  C  C1  1  0.25252500  0.92172300  0.15581300  1
  C  C2  1  0.75290300  0.07775700  0.34797000  1
  C  C3  1  0.75252500  0.07827700  0.84418700  1
  O  O0  1  0.75416100  0.94213300  0.42567100  1
  O  O1  1  0.75050500  0.94093000  0.92543800  1
  O  O2  1  0.24470700  0.85317300  0.79861900  1
  O  O3  1  0.25537700  0.85553400  0.29945700  1
  O  O4  1  0.25866500  0.82386500  0.60494400  1
  O  O5  1  0.25085900  0.82486200  0.10627700  1
  O  O6  1  0.93212600  0.66609600  0.81408000  1
  O  O7  1  0.55883000  0.66684300  0.81212800  1
  O  O8  1  0.93569300  0.67703400  0.29221000  1
  O  O9  1  0.56076400  0.67009300  0.30851700  1
  O  O10  1  0.74041500  0.54047500  0.18598200  1
  O  O11  1  0.24586400  0.57920600  0.03329500  1
  O  O12  1  0.74020700  0.53496100  0.69152900  1
  O  O13  1  0.26185300  0.57113200  0.53728700  1
  O  O14  1  0.74586400  0.42079400  0.96670500  1
  O  O15  1  0.24041500  0.45952500  0.81401800  1
  O  O16  1  0.76185300  0.42886800  0.46271300  1
  O  O17  1  0.24020700  0.46503900  0.30847100  1
  O  O18  1  0.43212600  0.33390400  0.18592000  1
  O  O19  1  0.05883000  0.33315700  0.18787200  1
  O  O20  1  0.43569300  0.32296600  0.70779000  1
  O  O21  1  0.06076400  0.32990700  0.69148300  1
  O  O22  1  0.75866500  0.17613500  0.39505600  1
  O  O23  1  0.75085900  0.17513800  0.89372300  1
  O  O24  1  0.74470700  0.14682700  0.20138100  1
  O  O25  1  0.75537700  0.14446600  0.70054300  1
  O  O26  1  0.25416100  0.05786700  0.57432900  1
  O  O27  1  0.25050500  0.05907000  0.07456200  1
loop_
_geom_bond_atom_site_label_1
_geom_bond_atom_site_label_2
_geom_bond_distance
_geom_bond_site_symmetry_2
Na0 O1 2.268818 1_555
Na0 O5 2.349826 1_656
Na0 O11 2.402520 1_656
Na0 O2 2.460863 1_655
Na0 O6 2.519069 1_555
Na0 O10 2.714510 1_556
Na0 O8 2.800377 1_556
Na1 O1 2.283215 1_555
Na1 O5 2.349273 1_556
Na1 O11 2.424664 1_556
Na1 O2 2.449827 1_555
Na1 O7 2.486289 1_555
Na1 O10 2.689932 1_556
Na2 O0 2.235357 1_555
Na2 O4 2.398005 1_555
Na2 O13 2.478887 1_555
Na2 O9 2.487092 1_555
Na2 O3 2.516986 1_555
Na2 O12 2.628023 1_555
Na3 O27 2.268818 1_555
Na3 O23 2.349826 1_554
Na3 O14 2.402520 1_554
Na3 O24 2.460863 1_555
Na3 O18 2.519069 1_555
Na3 O15 2.714510 1_554
Na3 O20 2.800377 1_554
Na4 O27 2.283215 1_555
Na4 O23 2.349273 1_454
Na4 O14 2.424664 1_454
Na4 O24 2.449827 1_455
Na4 O19 2.486289 1_555
Na4 O15 2.689932 1_554
Na5 O26 2.235357 1_555
Na5 O22 2.398005 1_455
Na5 O16 2.478887 1_455
Na5 O21 2.487092 1_555
Na5 O25 2.516986 1_455
Na5 O17 2.628023 1_555
Mn0 O15 1.965132 1_555
Mn0 O2 2.009555 1_555
Mn0 O4 2.029139 1_555
Mn0 O11 2.044037 1_556
Mn0 O6 2.052732 1_455
Mn0 O7 2.086990 1_555
Mn1 O17 1.980864 1_555
Mn1 O13 1.990458 1_555
Mn1 O3 2.003681 1_555
Mn1 O8 2.050059 1_455
Mn1 O5 2.079764 1_555
Mn1 O9 2.094214 1_555
Mn2 O10 1.965132 1_555
Mn2 O24 2.009555 1_555
Mn2 O22 2.029139 1_555
Mn2 O14 2.044037 1_554
Mn2 O18 2.052732 1_555
Mn2 O19 2.086990 1_655
Mn3 O12 1.980864 1_555
Mn3 O16 1.990458 1_555
Mn3 O25 2.003681 1_555
Mn3 O20 2.050059 1_555
Mn3 O23 2.079764 1_555
Mn3 O21 2.094214 1_655
C0 O26 1.229502 1_565
C0 O4 1.319480 1_555
C0 O2 1.335947 1_555
C1 O27 1.248377 1_565
C1 O3 1.308535 1_555
C1 O5 1.323264 1_555
C2 O0 1.229502 1_545
C2 O22 1.319480 1_555
C2 O24 1.335947 1_555
C3 O1 1.248377 1_545
C3 O25 1.308535 1_555
C3 O23 1.323264 1_555
O6 P0 1.545603 1_555
O7 P0 1.550003 1_555
O8 P1 1.540583 1_555
O9 P1 1.543781 1_555
O10 P1 1.583469 1_555
O11 P2 1.557917 1_555
O12 P0 1.562741 1_555
O13 P3 1.544597 1_555
O14 P0 1.557917 1_555
O15 P3 1.583469 1_555
O16 P1 1.544597 1_555
O17 P2 1.562741 1_555
O18 P2 1.545603 1_555
O19 P2 1.550003 1_555
O20 P3 1.540583 1_555
O21 P3 1.543781 1_555
