# generated using pymatgen
data_Fe4Te3S
_symmetry_space_group_name_H-M   'P 1'
_cell_length_a   3.60455500
_cell_length_b   7.32485086
_cell_length_c   7.32485086
_cell_angle_alpha   59.25719652
_cell_angle_beta   90.00000000
_cell_angle_gamma   90.00000000
_symmetry_Int_Tables_number   1
_chemical_formula_structural   Fe4Te3S
_chemical_formula_sum   'Fe4 Te3 S1'
_cell_volume   166.21884786
_cell_formula_units_Z   1
loop_
 _symmetry_equiv_pos_site_id
 _symmetry_equiv_pos_as_xyz
  1  'x, y, z'
loop_
 _atom_site_type_symbol
 _atom_site_label
 _atom_site_symmetry_multiplicity
 _atom_site_fract_x
 _atom_site_fract_y
 _atom_site_fract_z
 _atom_site_occupancy
  Fe  Fe0  1  0.75000000  0.11607700  0.87437000  1
  Fe  Fe1  1  0.75000000  0.62437000  0.36607700  1
  Fe  Fe2  1  0.25000000  0.37073800  0.62073800  1
  Fe  Fe3  1  0.25000000  0.87089600  0.12089600  1
  Te  Te0  1  0.75000000  0.22684300  0.47684300  1
  Te  Te1  1  0.25000000  0.26494200  0.01497800  1
  Te  Te2  1  0.25000000  0.76497800  0.51494200  1
  S  S0  1  0.75000000  0.76115600  0.01115600  1
loop_
_geom_bond_atom_site_label_1
_geom_bond_atom_site_label_2
_geom_bond_distance
_geom_bond_site_symmetry_2
Fe0 S0 2.258206 1_546
Fe0 Fe3 2.533526 1_546
Fe0 Fe3 2.533526 1_646
Fe0 Fe2 2.576087 1_555
Fe0 Fe2 2.576087 1_655
Fe0 Te1 2.578012 1_556
Fe0 Te1 2.578012 1_656
Fe0 Te0 2.592618 1_555
Fe1 S0 2.258206 1_555
Fe1 Fe3 2.533526 1_555
Fe1 Fe3 2.533526 1_655
Fe1 Fe2 2.576087 1_555
Fe1 Fe2 2.576087 1_655
Fe1 Te2 2.578012 1_655
Fe1 Te2 2.578012 1_555
Fe1 Te0 2.592618 1_555
Fe2 Te0 2.570187 1_455
Fe2 Te0 2.570187 1_555
Fe2 Te2 2.579096 1_555
Fe2 Te1 2.579096 1_556
Fe3 S0 2.280588 1_555
Fe3 S0 2.280588 1_455
Fe3 Te1 2.577480 1_565
Fe3 Te2 2.577480 1_555
