# generated using pymatgen
data_Pr(ZnP)3
_symmetry_space_group_name_H-M   'P 1'
_cell_length_a   4.03025511
_cell_length_b   4.03025519
_cell_length_c   20.09518987
_cell_angle_alpha   90.00000000
_cell_angle_beta   90.00000000
_cell_angle_gamma   119.99999941
_symmetry_Int_Tables_number   1
_chemical_formula_structural   Pr(ZnP)3
_chemical_formula_sum   'Pr2 Zn6 P6'
_cell_volume   282.67528038
_cell_formula_units_Z   2
loop_
 _symmetry_equiv_pos_site_id
 _symmetry_equiv_pos_as_xyz
  1  'x, y, z'
loop_
 _atom_site_type_symbol
 _atom_site_label
 _atom_site_symmetry_multiplicity
 _atom_site_fract_x
 _atom_site_fract_y
 _atom_site_fract_z
 _atom_site_occupancy
  Pr  Pr0  1  0.00000000  -0.00000000  0.50000000  1
  Pr  Pr1  1  0.00000000  -0.00000000  0.00000000  1
  Zn  Zn0  1  0.33333300  0.66666700  0.75000000  1
  Zn  Zn1  1  0.66666700  0.33333300  0.25000000  1
  Zn  Zn2  1  0.66666700  0.33333300  0.63078487  1
  Zn  Zn3  1  0.33333300  0.66666700  0.13078487  1
  Zn  Zn4  1  0.33333300  0.66666700  0.36921513  1
  Zn  Zn5  1  0.66666700  0.33333300  0.86921513  1
  P  P0  1  0.66666700  0.33333300  0.75000000  1
  P  P1  1  0.33333300  0.66666700  0.25000000  1
  P  P2  1  0.66666700  0.33333300  0.08920537  1
  P  P3  1  0.33333300  0.66666700  0.58920537  1
  P  P4  1  0.33333300  0.66666700  0.91079463  1
  P  P5  1  0.66666700  0.33333300  0.41079463  1
loop_
_geom_bond_atom_site_label_1
_geom_bond_atom_site_label_2
_geom_bond_distance
_geom_bond_site_symmetry_2
P0 Zn0 2.326867 1_655
P0 Zn0 2.326867 1_545
P0 Zn0 2.326874 1_555
P0 Zn5 2.395651 1_555
P0 Zn2 2.395651 1_555
P1 Zn1 2.326867 1_455
P1 Zn1 2.326867 1_565
P1 Zn1 2.326874 1_555
P1 Zn3 2.395651 1_555
P1 Zn4 2.395651 1_555
P2 Zn3 2.472337 1_655
P2 Zn3 2.472337 1_545
P2 Zn3 2.472343 1_555
P2 Pr1 2.937298 1_655
P2 Pr1 2.937301 1_555
P2 Pr1 2.937301 1_665
P3 Zn2 2.472337 1_455
P3 Zn2 2.472337 1_565
P3 Zn2 2.472343 1_555
P3 Pr0 2.937298 1_565
P3 Pr0 2.937301 1_665
P3 Pr0 2.937301 1_555
P4 Zn5 2.472337 1_455
P4 Zn5 2.472337 1_565
P4 Zn5 2.472343 1_555
P4 Pr1 2.937298 1_566
P4 Pr1 2.937301 1_666
P4 Pr1 2.937301 1_556
P5 Zn4 2.472337 1_655
P5 Zn4 2.472337 1_545
P5 Zn4 2.472343 1_555
P5 Pr0 2.937298 1_655
P5 Pr0 2.937301 1_555
P5 Pr0 2.937301 1_665
