# generated using pymatgen
data_Y3MnB7
_symmetry_space_group_name_H-M   'P 1'
_cell_length_a   8.06188716
_cell_length_b   8.06188716
_cell_length_c   9.32543600
_cell_angle_alpha   90.00000000
_cell_angle_beta   90.00000000
_cell_angle_gamma   155.34733294
_symmetry_Int_Tables_number   1
_chemical_formula_structural   Y3MnB7
_chemical_formula_sum   'Y6 Mn2 B14'
_cell_volume   252.81325510
_cell_formula_units_Z   2
loop_
 _symmetry_equiv_pos_site_id
 _symmetry_equiv_pos_as_xyz
  1  'x, y, z'
loop_
 _atom_site_type_symbol
 _atom_site_label
 _atom_site_symmetry_multiplicity
 _atom_site_fract_x
 _atom_site_fract_y
 _atom_site_fract_z
 _atom_site_occupancy
  Y  Y0  1  0.89591300  0.10408700  0.44027900  1
  Y  Y1  1  0.10408700  0.89591300  0.55972100  1
  Y  Y2  1  0.89591300  0.10408700  0.05972100  1
  Y  Y3  1  0.10408700  0.89591300  0.94027900  1
  Y  Y4  1  0.24072400  0.75927600  0.25000000  1
  Y  Y5  1  0.75927600  0.24072400  0.75000000  1
  Mn  Mn0  1  0.05348100  0.94651900  0.25000000  1
  Mn  Mn1  1  0.94651900  0.05348100  0.75000000  1
  B  B0  1  0.72725500  0.27274500  0.46733200  1
  B  B1  1  0.27274500  0.72725500  0.53266800  1
  B  B2  1  0.72725500  0.27274500  0.03266800  1
  B  B3  1  0.27274500  0.72725500  0.96733200  1
  B  B4  1  0.62984600  0.37015400  0.15309500  1
  B  B5  1  0.37015400  0.62984600  0.84690500  1
  B  B6  1  0.62984600  0.37015400  0.34690500  1
  B  B7  1  0.37015400  0.62984600  0.65309500  1
  B  B8  1  0.52158200  0.47841800  0.09849600  1
  B  B9  1  0.47841800  0.52158200  0.90150400  1
  B  B10  1  0.52158200  0.47841800  0.40150400  1
  B  B11  1  0.47841800  0.52158200  0.59849600  1
  B  B12  1  0.45978700  0.54021300  0.25000000  1
  B  B13  1  0.54021300  0.45978700  0.75000000  1
loop_
_geom_bond_atom_site_label_1
_geom_bond_atom_site_label_2
_geom_bond_distance
_geom_bond_site_symmetry_2
B0 B6 1.901466 1_555
B0 B1 1.961299 1_655
B0 B1 1.961299 1_545
B0 Y4 2.667319 1_655
B0 Y4 2.667319 1_545
B0 Y0 2.668666 1_555
B0 Y5 2.683827 1_555
B0 Y1 2.732854 1_545
B0 Y1 2.732854 1_655
B1 B7 1.901466 1_555
B1 Y5 2.667319 1_565
B1 Y5 2.667319 1_455
B1 Y1 2.668666 1_555
B1 Y4 2.683827 1_555
B1 Y0 2.732854 1_455
B1 Y0 2.732854 1_565
B2 B4 1.901466 1_555
B2 B3 1.961299 1_654
B2 B3 1.961299 1_544
B2 Y4 2.667319 1_655
B2 Y4 2.667319 1_545
B2 Y2 2.668666 1_555
B2 Y5 2.683827 1_554
B2 Y3 2.732854 1_654
B2 Y3 2.732854 1_544
B3 B5 1.901466 1_555
B3 Y5 2.667319 1_565
B3 Y5 2.667319 1_455
B3 Y3 2.668666 1_555
B3 Y4 2.683827 1_556
B3 Y2 2.732854 1_566
B3 Y2 2.732854 1_456
B4 B8 1.779769 1_555
B4 B6 1.807363 1_555
B4 Mn0 2.285964 1_655
B4 Mn0 2.285964 1_545
B4 Y4 2.613257 1_655
B4 Y4 2.613257 1_545
B4 Y3 2.658061 1_544
B4 Y3 2.658061 1_654
B5 B9 1.779769 1_555
B5 B7 1.807363 1_555
B5 Mn1 2.285964 1_455
B5 Mn1 2.285964 1_565
B5 Y5 2.613257 1_565
B5 Y5 2.613257 1_455
B5 Y2 2.658061 1_566
B5 Y2 2.658061 1_456
B6 Mn0 2.285964 1_655
B6 Mn0 2.285964 1_545
B6 Y4 2.613257 1_655
B6 Y4 2.613257 1_545
B6 Y1 2.658061 1_655
B6 Y1 2.658061 1_545
B7 Mn1 2.285964 1_455
B7 Mn1 2.285964 1_565
B7 Y5 2.613257 1_565
B7 Y5 2.613257 1_455
B7 Y0 2.658061 1_455
B7 Y0 2.658061 1_565
B8 B9 1.958826 1_554
B8 Mn0 2.282675 1_545
B8 Mn0 2.282675 1_655
B8 Y3 2.613037 1_544
B8 Y3 2.613037 1_654
B8 Y2 2.647898 1_455
B8 Y2 2.647898 1_565
B9 Mn1 2.282675 1_455
B9 Mn1 2.282675 1_565
B9 Y2 2.613037 1_566
B9 Y2 2.613037 1_456
B9 Y3 2.647898 1_545
B9 Y3 2.647898 1_655
B10 B12 1.715700 1_555
B10 B6 1.779769 1_555
B10 B11 1.958826 1_555
B10 Mn0 2.282675 1_545
B10 Mn0 2.282675 1_655
B10 Y1 2.613037 1_545
B10 Y1 2.613037 1_655
B10 Y0 2.647898 1_455
B10 Y0 2.647898 1_565
B11 B13 1.715700 1_555
B11 B7 1.779769 1_555
B11 Mn1 2.282675 1_455
B11 Mn1 2.282675 1_565
B11 Y0 2.613037 1_455
B11 Y0 2.613037 1_565
B11 Y1 2.647898 1_545
B11 Y1 2.647898 1_655
B12 B8 1.715700 1_555
B12 Mn0 2.267203 1_545
B12 Mn0 2.267203 1_655
B12 Y0 2.668887 1_455
B12 Y0 2.668887 1_565
B12 Y2 2.668887 1_565
B12 Y2 2.668887 1_455
B13 B9 1.715700 1_555
B13 Mn1 2.267203 1_455
B13 Mn1 2.267203 1_565
B13 Y3 2.668887 1_545
B13 Y1 2.668887 1_545
B13 Y1 2.668887 1_655
B13 Y3 2.668887 1_655
