# generated using pymatgen
data_CeTl(PSe3)2
_symmetry_space_group_name_H-M   'P 1'
_cell_length_a   7.86523600
_cell_length_b   12.00814200
_cell_length_c   12.50621743
_cell_angle_alpha   70.30858664
_cell_angle_beta   90.00000000
_cell_angle_gamma   90.00000000
_symmetry_Int_Tables_number   1
_chemical_formula_structural   CeTl(PSe3)2
_chemical_formula_sum   'Ce4 Tl4 P8 Se24'
_cell_volume   1112.09934167
_cell_formula_units_Z   4
loop_
 _symmetry_equiv_pos_site_id
 _symmetry_equiv_pos_as_xyz
  1  'x, y, z'
loop_
 _atom_site_type_symbol
 _atom_site_label
 _atom_site_symmetry_multiplicity
 _atom_site_fract_x
 _atom_site_fract_y
 _atom_site_fract_z
 _atom_site_occupancy
  Ce  Ce0  1  0.89583700  0.40537600  0.34924500  1
  Ce  Ce1  1  0.39583700  0.09462400  0.65075500  1
  Ce  Ce2  1  0.10416300  0.59462400  0.65075500  1
  Ce  Ce3  1  0.60416300  0.90537600  0.34924500  1
  Tl  Tl0  1  0.08975600  0.12477800  0.12820500  1
  Tl  Tl1  1  0.58975600  0.37522200  0.87179500  1
  Tl  Tl2  1  0.91024400  0.87522200  0.87179500  1
  Tl  Tl3  1  0.41024400  0.62477800  0.12820500  1
  P  P0  1  0.90261600  0.25387900  0.67776300  1
  P  P1  1  0.40261600  0.24612100  0.32223700  1
  P  P2  1  0.09738400  0.74612100  0.32223700  1
  P  P3  1  0.59738400  0.75387900  0.67776300  1
  P  P4  1  0.61815300  0.23219500  0.20806700  1
  P  P5  1  0.11815300  0.26780500  0.79193300  1
  P  P6  1  0.38184700  0.76780500  0.79193300  1
  P  P7  1  0.88184700  0.73219500  0.20806700  1
  Se  Se0  1  0.71488800  0.41500800  0.12755500  1
  Se  Se1  1  0.21488800  0.08499200  0.87244500  1
  Se  Se2  1  0.28511200  0.58499200  0.87244500  1
  Se  Se3  1  0.78511200  0.91500800  0.12755500  1
  Se  Se4  1  0.81402900  0.13173500  0.32966900  1
  Se  Se5  1  0.31402900  0.36826500  0.67033100  1
  Se  Se6  1  0.18597100  0.86826500  0.67033100  1
  Se  Se7  1  0.68597100  0.63173500  0.32966900  1
  Se  Se8  1  0.20801700  0.36196000  0.21110700  1
  Se  Se9  1  0.70801700  0.13804000  0.78889300  1
  Se  Se10  1  0.79198300  0.63804000  0.78889300  1
  Se  Se11  1  0.29198300  0.86196000  0.21110700  1
  Se  Se12  1  0.52687100  0.31520300  0.44759000  1
  Se  Se13  1  0.02687100  0.18479700  0.55241000  1
  Se  Se14  1  0.47312900  0.68479700  0.55241000  1
  Se  Se15  1  0.97312900  0.81520300  0.44759000  1
  Se  Se16  1  0.80783900  0.43598500  0.58998200  1
  Se  Se17  1  0.30783900  0.06401500  0.41001800  1
  Se  Se18  1  0.19216100  0.56401500  0.41001800  1
  Se  Se19  1  0.69216100  0.93598500  0.58998200  1
  Se  Se20  1  0.51901500  0.12792300  0.10883900  1
  Se  Se21  1  0.01901500  0.37207700  0.89116100  1
  Se  Se22  1  0.48098500  0.87207700  0.89116100  1
  Se  Se23  1  0.98098500  0.62792300  0.10883900  1
loop_
_geom_bond_atom_site_label_1
_geom_bond_atom_site_label_2
_geom_bond_distance
_geom_bond_site_symmetry_2
Ce0 Se0 3.083758 1_555
Ce0 Se7 3.118406 1_555
Ce0 Se8 3.145179 1_655
Ce0 Se13 3.162025 1_655
Ce0 Se12 3.195204 1_555
Ce0 Se16 3.228662 1_555
Ce0 Se18 3.257947 1_655
Ce0 Se23 3.348869 1_555
Ce0 Se4 3.437056 1_555
Ce1 Se1 3.083758 1_555
Ce1 Se6 3.118406 1_545
Ce1 Se9 3.145179 1_555
Ce1 Se12 3.162025 1_555
Ce1 Se13 3.195204 1_555
Ce1 Se17 3.228662 1_555
Ce1 Se19 3.257947 1_545
Ce1 Se22 3.348869 1_545
Ce1 Se5 3.437056 1_555
Ce2 Se2 3.083758 1_555
Ce2 Se5 3.118406 1_555
Ce2 Se10 3.145179 1_455
Ce2 Se15 3.162025 1_455
Ce2 Se14 3.195204 1_555
Ce2 Se18 3.228662 1_555
Ce2 Se16 3.257947 1_455
Ce2 Se21 3.348869 1_555
Ce2 Se6 3.437056 1_555
Ce3 Se3 3.083758 1_555
Ce3 Se4 3.118406 1_565
Ce3 Se11 3.145179 1_555
Ce3 Se14 3.162025 1_555
Ce3 Se15 3.195204 1_555
Ce3 Se19 3.228662 1_555
Ce3 Se17 3.257947 1_565
Ce3 Se20 3.348869 1_565
Ce3 Se7 3.437056 1_555
P0 Se9 2.215018 1_555
P0 Se16 2.219224 1_555
P0 Se13 2.230989 1_655
P0 P5 2.258640 1_655
P1 Se8 2.215018 1_555
P1 Se17 2.219224 1_555
P1 Se12 2.230989 1_555
P1 P4 2.258640 1_555
P2 Se11 2.215018 1_555
P2 Se18 2.219224 1_555
P2 Se15 2.230989 1_455
P2 P7 2.258640 1_455
P3 Se10 2.215018 1_555
P3 Se19 2.219224 1_555
P3 Se14 2.230989 1_555
P3 P6 2.258640 1_555
P4 Se20 2.182413 1_555
P4 Se4 2.214762 1_555
P4 Se0 2.218609 1_555
P5 Se21 2.182413 1_555
P5 Se5 2.214762 1_555
P5 Se1 2.218609 1_555
P6 Se22 2.182413 1_555
P6 Se6 2.214762 1_555
P6 Se2 2.218609 1_555
P7 Se23 2.182413 1_555
P7 Se7 2.214762 1_555
P7 Se3 2.218609 1_555
Se4 Tl0 3.346647 1_655
Se5 Tl1 3.346647 1_555
Se6 Tl2 3.346647 1_455
Se7 Tl3 3.346647 1_555
Se8 Tl3 3.370432 1_555
Se9 Tl2 3.370432 1_545
Se10 Tl1 3.370432 1_555
Se11 Tl0 3.370432 1_565
Se20 Tl0 3.384199 1_555
Se21 Tl1 3.384199 1_455
Se22 Tl2 3.384199 1_555
Se23 Tl3 3.384199 1_655
