# generated using pymatgen
data_ErAlFe
_symmetry_space_group_name_H-M   'P 1'
_cell_length_a   5.38654356
_cell_length_b   5.38645075
_cell_length_c   8.52346200
_cell_angle_alpha   90.00000000
_cell_angle_beta   90.00000000
_cell_angle_gamma   59.77168142
_symmetry_Int_Tables_number   1
_chemical_formula_structural   ErAlFe
_chemical_formula_sum   'Er4 Al4 Fe4'
_cell_volume   213.67600181
_cell_formula_units_Z   4
loop_
 _symmetry_equiv_pos_site_id
 _symmetry_equiv_pos_as_xyz
  1  'x, y, z'
loop_
 _atom_site_type_symbol
 _atom_site_label
 _atom_site_symmetry_multiplicity
 _atom_site_fract_x
 _atom_site_fract_y
 _atom_site_fract_z
 _atom_site_occupancy
  Er  Er0  1  0.33367000  0.33364100  0.56547200  1
  Er  Er1  1  0.66355200  0.66346100  0.44936100  1
  Er  Er2  1  0.66355200  0.66346100  0.05063900  1
  Er  Er3  1  0.33367000  0.33364100  0.93452800  1
  Al  Al0  1  0.83623200  0.83621200  0.75000000  1
  Al  Al1  1  0.16224200  0.67490800  0.25000000  1
  Al  Al2  1  0.67489700  0.16224800  0.25000000  1
  Al  Al3  1  0.16326100  0.16326300  0.25000000  1
  Fe  Fe0  1  0.00597200  0.00603400  0.51216500  1
  Fe  Fe1  1  0.00597200  0.00603400  0.98783500  1
  Fe  Fe2  1  0.83245800  0.32457900  0.75000000  1
  Fe  Fe3  1  0.32452300  0.83251700  0.75000000  1
loop_
_geom_bond_atom_site_label_1
_geom_bond_atom_site_label_2
_geom_bond_distance
_geom_bond_site_symmetry_2
Er0 Fe2 3.092358 1_555
Er0 Fe3 3.092533 1_555
Er0 Fe0 3.093950 1_555
Er0 Er3 3.145635 1_555
Er0 Fe3 3.145824 1_545
Er0 Fe2 3.146069 1_455
Er0 Fe0 3.162329 1_655
Er0 Fe0 3.162689 1_565
Er0 Er1 3.235991 1_555
Er0 Er1 3.272315 1_455
Er0 Er1 3.272536 1_545
Er1 Fe2 3.008966 1_555
Er1 Fe3 3.009337 1_555
Er1 Fe0 3.106774 1_655
Er1 Fe0 3.107534 1_565
Er1 Fe0 3.243533 1_665
Er2 Fe2 3.008966 1_554
Er2 Fe3 3.009337 1_554
Er2 Fe1 3.106774 1_654
Er2 Fe1 3.107534 1_564
Er2 Er3 3.235991 1_554
Er2 Fe1 3.243533 1_664
Er2 Er3 3.272315 1_654
Er2 Er3 3.272536 1_564
Er3 Fe2 3.092358 1_555
Er3 Fe3 3.092533 1_555
Er3 Fe1 3.093950 1_555
Er3 Fe3 3.145824 1_545
Er3 Fe2 3.146069 1_455
Er3 Fe1 3.162329 1_655
Er3 Fe1 3.162689 1_565
Al0 Fe0 2.573768 1_665
Al0 Fe1 2.573768 1_665
Al0 Fe3 2.620237 1_655
Al0 Fe2 2.620389 1_565
Al0 Fe2 2.766176 1_555
Al0 Fe3 2.766416 1_555
Al0 Er1 3.028010 1_555
Al0 Er2 3.028010 1_556
Al0 Er3 3.110914 1_565
Al0 Er0 3.110914 1_565
Al0 Er0 3.110954 1_655
Al0 Er3 3.110954 1_655
Al1 Al2 2.616005 1_465
Al1 Al3 2.633268 1_565
Al1 Fe0 2.715012 1_565
Al1 Fe1 2.715012 1_564
Al1 Al2 2.751893 1_555
Al1 Al3 2.753191 1_555
Al1 Er0 3.122956 1_555
Al1 Er3 3.122956 1_554
Al1 Er2 3.164706 1_555
Al1 Er1 3.164706 1_555
Al1 Er2 3.205271 1_455
Al1 Er1 3.205271 1_455
Al2 Al3 2.633351 1_655
Al2 Fe1 2.714896 1_654
Al2 Fe0 2.714896 1_655
Al2 Al3 2.753201 1_555
Al2 Er0 3.122876 1_555
Al2 Er3 3.122876 1_554
Al2 Er1 3.164451 1_555
Al2 Er2 3.164451 1_555
Al2 Er2 3.205433 1_545
Al2 Er1 3.205433 1_545
Al3 Fe0 2.674095 1_555
Al3 Fe1 2.674095 1_554
Al3 Er0 3.124623 1_555
Al3 Er3 3.124623 1_554
Al3 Er1 3.176426 1_455
Al3 Er2 3.176426 1_455
Al3 Er1 3.176848 1_545
Al3 Er2 3.176848 1_545
Fe0 Fe2 2.512434 1_455
Fe0 Fe3 2.512465 1_545
Fe1 Fe2 2.512434 1_455
Fe1 Fe3 2.512465 1_545
Fe2 Fe3 2.641346 1_645
Fe2 Fe3 2.726551 1_555
