# generated using pymatgen
data_Mg14CoCu
_symmetry_space_group_name_H-M   'P 1'
_cell_length_a   6.20155710
_cell_length_b   6.20155663
_cell_length_c   9.65047012
_cell_angle_alpha   90.00000000
_cell_angle_beta   90.00000000
_cell_angle_gamma   120.00000250
_symmetry_Int_Tables_number   1
_chemical_formula_structural   Mg14CoCu
_chemical_formula_sum   'Mg14 Co1 Cu1'
_cell_volume   321.42566554
_cell_formula_units_Z   1
loop_
 _symmetry_equiv_pos_site_id
 _symmetry_equiv_pos_as_xyz
  1  'x, y, z'
loop_
 _atom_site_type_symbol
 _atom_site_label
 _atom_site_symmetry_multiplicity
 _atom_site_fract_x
 _atom_site_fract_y
 _atom_site_fract_z
 _atom_site_occupancy
  Mg  Mg0  1  0.16669482  0.83334691  0.12500000  1
  Mg  Mg1  1  0.16657989  0.83328945  0.62500000  1
  Mg  Mg2  1  0.66665309  0.33330518  0.12500000  1
  Mg  Mg3  1  0.66671055  0.33342011  0.62500000  1
  Mg  Mg4  1  0.66665309  0.83334691  0.12500000  1
  Mg  Mg5  1  0.66671055  0.83328945  0.62500000  1
  Mg  Mg6  1  0.32468985  0.17531015  0.37804651  1
  Mg  Mg7  1  0.32468985  0.17531015  0.87195349  1
  Mg  Mg8  1  0.32468985  0.64938070  0.37804651  1
  Mg  Mg9  1  0.32468985  0.64938070  0.87195349  1
  Mg  Mg10  1  0.85061930  0.17531015  0.37804651  1
  Mg  Mg11  1  0.85061930  0.17531015  0.87195349  1
  Mg  Mg12  1  0.83333300  0.66666700  0.37377281  1
  Mg  Mg13  1  0.83333300  0.66666700  0.87622719  1
  Co  Co0  1  0.16666700  0.33333300  0.62500000  1
  Cu  Cu0  1  0.16666700  0.33333300  0.12500000  1
loop_
_geom_bond_atom_site_label_1
_geom_bond_atom_site_label_2
_geom_bond_distance
_geom_bond_site_symmetry_2
Mg0 Mg13 2.994864 1_454
Mg0 Mg12 2.994864 1_455
Mg0 Mg8 3.056622 1_555
Mg0 Mg9 3.056622 1_554
Mg0 Mg6 3.056628 1_565
Mg0 Mg7 3.056628 1_564
Mg0 Mg2 3.100520 1_565
Mg0 Mg4 3.100520 1_555
Mg0 Mg2 3.101037 1_455
Mg0 Mg4 3.101037 1_455
Mg1 Mg8 3.010026 1_555
Mg1 Mg9 3.010026 1_555
Mg1 Mg6 3.010033 1_565
Mg1 Mg7 3.010033 1_565
Mg1 Mg13 3.013518 1_455
Mg1 Mg12 3.013518 1_455
Mg1 Mg3 3.099968 1_455
Mg1 Mg5 3.099968 1_455
Mg1 Mg3 3.101589 1_565
Mg1 Mg5 3.101589 1_555
Mg2 Mg6 3.056629 1_555
Mg2 Mg7 3.056629 1_554
Mg2 Mg4 3.100520 1_545
Mg2 Mg4 3.101037 1_555
Mg3 Mg7 3.010033 1_555
Mg3 Mg6 3.010033 1_555
Mg3 Mg5 3.099968 1_555
Mg3 Mg5 3.101589 1_545
Mg4 Mg9 3.056628 1_554
Mg4 Mg8 3.056628 1_555
Mg5 Mg8 3.010033 1_555
Mg5 Mg9 3.010033 1_555
Mg10 Mg3 3.010026 1_555
Mg10 Mg5 3.010033 1_545
Mg10 Mg2 3.056622 1_555
Mg10 Mg4 3.056628 1_545
Mg10 Mg12 3.102442 1_545
Mg10 Mg12 3.102442 1_555
Mg11 Mg3 3.010026 1_555
Mg11 Mg5 3.010033 1_545
Mg11 Mg2 3.056622 1_556
Mg11 Mg4 3.056628 1_546
Mg11 Mg13 3.102442 1_545
Mg11 Mg13 3.102442 1_555
Mg12 Mg4 2.994857 1_555
Mg12 Mg2 2.994864 1_555
Mg12 Mg5 3.013511 1_555
Mg12 Mg3 3.013518 1_555
Mg12 Mg6 3.102442 1_665
Mg12 Mg6 3.102442 1_555
Mg12 Mg8 3.102442 1_555
Mg12 Mg8 3.102442 1_655
Mg13 Mg4 2.994857 1_556
Mg13 Mg2 2.994864 1_556
Mg13 Mg5 3.013511 1_555
Mg13 Mg3 3.013518 1_555
Mg13 Mg7 3.102442 1_665
Mg13 Mg7 3.102442 1_555
Mg13 Mg9 3.102442 1_555
Mg13 Mg9 3.102442 1_655
Co0 Mg7 2.925893 1_555
Co0 Mg6 2.925893 1_555
Co0 Mg8 2.925900 1_555
Co0 Mg9 2.925900 1_555
Co0 Mg10 2.925900 1_455
Co0 Mg11 2.925900 1_455
Co0 Mg1 3.100778 1_545
Co0 Mg5 3.100778 1_445
Co0 Mg5 3.100778 1_555
Co0 Mg1 3.100778 1_555
Co0 Mg3 3.100779 1_555
Co0 Mg3 3.100779 1_455
Cu0 Mg7 2.973984 1_554
Cu0 Mg6 2.973984 1_555
Cu0 Mg8 2.973990 1_555
Cu0 Mg9 2.973990 1_554
Cu0 Mg11 2.973990 1_454
Cu0 Mg10 2.973990 1_455
Cu0 Mg0 3.100778 1_555
Cu0 Mg4 3.100778 1_555
Cu0 Mg4 3.100778 1_445
Cu0 Mg0 3.100778 1_545
Cu0 Mg2 3.100779 1_455
Cu0 Mg2 3.100779 1_555
