# generated using pymatgen
data_LuHfF7
_symmetry_space_group_name_H-M   'P 1'
_cell_length_a   5.57807235
_cell_length_b   5.87538789
_cell_length_c   8.03108692
_cell_angle_alpha   102.89365647
_cell_angle_beta   90.00000000
_cell_angle_gamma   90.00000000
_symmetry_Int_Tables_number   1
_chemical_formula_structural   LuHfF7
_chemical_formula_sum   'Lu2 Hf2 F14'
_cell_volume   256.56904313
_cell_formula_units_Z   2
loop_
 _symmetry_equiv_pos_site_id
 _symmetry_equiv_pos_as_xyz
  1  'x, y, z'
loop_
 _atom_site_type_symbol
 _atom_site_label
 _atom_site_symmetry_multiplicity
 _atom_site_fract_x
 _atom_site_fract_y
 _atom_site_fract_z
 _atom_site_occupancy
  Lu  Lu0  1  0.69773347  0.65300843  0.68539642  1
  Lu  Lu1  1  0.19773347  0.34699157  0.31460358  1
  Hf  Hf0  1  0.70775317  0.81376228  0.22613352  1
  Hf  Hf1  1  0.20775317  0.18623772  0.77386648  1
  F  F0  1  0.89653500  0.46247349  0.47872747  1
  F  F1  1  0.39653500  0.53752651  0.52127253  1
  F  F2  1  0.43283894  0.92209490  0.76869456  1
  F  F3  1  0.93283894  0.07790510  0.23130544  1
  F  F4  1  0.95033073  0.94544170  0.75855860  1
  F  F5  1  0.45033073  0.05455830  0.24144140  1
  F  F6  1  0.98941854  0.45725057  0.78871643  1
  F  F7  1  0.48941854  0.54274943  0.21128357  1
  F  F8  1  0.69736556  0.75540405  0.97394125  1
  F  F9  1  0.19736556  0.24459595  0.02605875  1
  F  F10  1  0.70023698  0.86864996  0.47948561  1
  F  F11  1  0.20023698  0.13135004  0.52051439  1
  F  F12  1  0.50414760  0.38040294  0.78183996  1
  F  F13  1  0.00414760  0.61959706  0.21816004  1
loop_
_geom_bond_atom_site_label_1
_geom_bond_atom_site_label_2
_geom_bond_distance
_geom_bond_site_symmetry_2
F0 Lu0 2.099658 1_555
F0 Lu1 2.149737 1_655
F1 Lu1 2.099658 1_555
F1 Lu0 2.149737 1_555
F2 Hf1 1.989440 1_565
F2 Lu0 2.158320 1_555
F3 Hf0 1.989440 1_545
F3 Lu1 2.158320 1_655
F4 Hf1 2.000234 1_665
F4 Lu0 2.198196 1_555
F5 Hf0 2.000234 1_545
F5 Lu1 2.198196 1_555
F6 Hf1 1.986997 1_655
F6 Lu0 2.254895 1_555
F7 Hf0 1.986997 1_555
F7 Lu1 2.254895 1_555
F8 Hf0 1.978169 1_556
F8 Lu0 2.260481 1_555
F9 Hf1 1.978169 1_554
F9 Lu1 2.260481 1_555
F10 Hf0 1.988189 1_555
F10 Lu0 2.296771 1_555
F11 Hf1 1.988189 1_555
F11 Lu1 2.296771 1_555
F12 Hf1 2.001586 1_555
F12 Lu0 2.210189 1_555
F13 Hf0 2.001586 1_455
F13 Lu1 2.210189 1_555
