# generated using pymatgen
data_TbAsO2
_symmetry_space_group_name_H-M   'P 1'
_cell_length_a   7.00963605
_cell_length_b   7.00963605
_cell_length_c   7.00963605
_cell_angle_alpha   109.77864946
_cell_angle_beta   109.77864946
_cell_angle_gamma   108.85809727
_symmetry_Int_Tables_number   1
_chemical_formula_structural   TbAsO2
_chemical_formula_sum   'Tb4 As4 O8'
_cell_volume   265.11070538
_cell_formula_units_Z   4
loop_
 _symmetry_equiv_pos_site_id
 _symmetry_equiv_pos_as_xyz
  1  'x, y, z'
loop_
 _atom_site_type_symbol
 _atom_site_label
 _atom_site_symmetry_multiplicity
 _atom_site_fract_x
 _atom_site_fract_y
 _atom_site_fract_z
 _atom_site_occupancy
  Tb  Tb0  1  0.87500000  0.62500000  0.25000000  1
  Tb  Tb1  1  0.37500000  0.62500000  0.25000000  1
  Tb  Tb2  1  0.37500000  0.12500000  0.75000000  1
  Tb  Tb3  1  0.37500000  0.62500000  0.75000000  1
  As  As0  1  0.37500000  0.12500000  0.25000000  1
  As  As1  1  0.87500000  0.12500000  0.25000000  1
  As  As2  1  0.87500000  0.62500000  0.75000000  1
  As  As3  1  0.87500000  0.12500000  0.75000000  1
  O  O0  1  0.22634400  0.88651900  0.33982500  1
  O  O1  1  0.11348100  0.45330600  0.33982500  1
  O  O2  1  0.11348100  0.77365600  0.66017500  1
  O  O3  1  0.52365600  0.36348100  0.16017500  1
  O  O4  1  0.54669400  0.88651900  0.66017500  1
  O  O5  1  0.63651900  0.79669400  0.16017500  1
  O  O6  1  0.63651900  0.47634400  0.83982500  1
  O  O7  1  0.20330600  0.36348100  0.83982500  1
loop_
_geom_bond_atom_site_label_1
_geom_bond_atom_site_label_2
_geom_bond_distance
_geom_bond_site_symmetry_2
As0 O0 2.075339 1_545
As0 O3 2.075339 1_555
As1 O5 2.075339 1_545
As1 O1 2.075339 1_655
As2 O6 2.075339 1_555
As2 O2 2.075339 1_655
As3 O4 2.075339 1_545
As3 O7 2.075339 1_655
O0 Tb0 2.252359 1_455
O0 Tb1 2.395921 1_555
O0 Tb2 2.395921 1_565
O1 Tb1 2.252359 1_555
O1 Tb0 2.395921 1_455
O1 Tb3 2.395921 1_555
O2 Tb2 2.252359 1_565
O2 Tb0 2.395921 1_455
O2 Tb3 2.395921 1_555
O3 Tb0 2.252359 1_555
O3 Tb2 2.395921 1_554
O3 Tb1 2.395921 1_555
O4 Tb3 2.252359 1_555
O4 Tb1 2.395921 1_555
O4 Tb2 2.395921 1_565
O5 Tb1 2.252359 1_555
O5 Tb3 2.395921 1_554
O5 Tb0 2.395921 1_555
O6 Tb2 2.252359 1_555
O6 Tb3 2.395921 1_555
O6 Tb0 2.395921 1_556
O7 Tb3 2.252359 1_555
O7 Tb2 2.395921 1_555
O7 Tb1 2.395921 1_556
