# generated using pymatgen
data_OsC8I4N3OF
_symmetry_space_group_name_H-M   'P 1'
_cell_length_a   8.97580600
_cell_length_b   14.65768900
_cell_length_c   14.71404500
_cell_angle_alpha   90.00000000
_cell_angle_beta   90.00000000
_cell_angle_gamma   90.00000000
_symmetry_Int_Tables_number   1
_chemical_formula_structural   OsC8I4N3OF
_chemical_formula_sum   'Os4 C32 I16 N12 O4 F4'
_cell_volume   1935.84704565
_cell_formula_units_Z   4
loop_
 _symmetry_equiv_pos_site_id
 _symmetry_equiv_pos_as_xyz
  1  'x, y, z'
loop_
 _atom_site_type_symbol
 _atom_site_label
 _atom_site_symmetry_multiplicity
 _atom_site_fract_x
 _atom_site_fract_y
 _atom_site_fract_z
 _atom_site_occupancy
  Os  Os0  1  0.24173900  0.39657200  0.26146800  1
  Os  Os1  1  0.75826100  0.60342800  0.76146800  1
  Os  Os2  1  0.24173900  0.10342800  0.76146800  1
  Os  Os3  1  0.75826100  0.89657200  0.26146800  1
  C  C0  1  0.25377100  0.68933000  0.37095800  1
  C  C1  1  0.74622900  0.31067000  0.87095800  1
  C  C2  1  0.25377100  0.81067000  0.87095800  1
  C  C3  1  0.74622900  0.18933000  0.37095800  1
  C  C4  1  0.24510000  0.83141400  0.43658800  1
  C  C5  1  0.75490000  0.16858600  0.93658800  1
  C  C6  1  0.24510000  0.66858600  0.93658800  1
  C  C7  1  0.75490000  0.33141400  0.43658800  1
  C  C8  1  0.19377700  0.78149100  0.35376800  1
  C  C9  1  0.80622300  0.21850900  0.85376800  1
  C  C10  1  0.19377700  0.71850900  0.85376800  1
  C  C11  1  0.80622300  0.28149100  0.35376800  1
  C  C12  1  0.24166900  0.73305700  0.46171300  1
  C  C13  1  0.75833100  0.26694300  0.96171300  1
  C  C14  1  0.24166900  0.76694300  0.96171300  1
  C  C15  1  0.75833100  0.23305700  0.46171300  1
  C  C16  1  0.18894200  0.46562700  0.50136800  1
  C  C17  1  0.81105800  0.53437300  0.00136800  1
  C  C18  1  0.18894200  0.03437300  0.00136800  1
  C  C19  1  0.81105800  0.96562700  0.50136800  1
  C  C20  1  0.26592500  0.39944600  0.73357400  1
  C  C21  1  0.73407500  0.60055400  0.23357400  1
  C  C22  1  0.26592500  0.10055400  0.23357400  1
  C  C23  1  0.73407500  0.89944600  0.73357400  1
  C  C24  1  0.25863300  0.36793300  0.81366100  1
  C  C25  1  0.74136700  0.63206700  0.31366100  1
  C  C26  1  0.25863300  0.13206700  0.31366100  1
  C  C27  1  0.74136700  0.86793300  0.81366100  1
  C  C28  1  0.22751600  0.45710400  0.58208900  1
  C  C29  1  0.77248400  0.54289600  0.08208900  1
  C  C30  1  0.22751600  0.04289600  0.08208900  1
  C  C31  1  0.77248400  0.95710400  0.58208900  1
  I  I0  1  0.24875200  0.24887700  0.38193200  1
  I  I1  1  0.75124800  0.75112300  0.88193200  1
  I  I2  1  0.24875200  0.25112300  0.88193200  1
  I  I3  1  0.75124800  0.74887700  0.38193200  1
  I  I4  1  0.07840600  0.49523900  0.39014900  1
  I  I5  1  0.92159400  0.50476100  0.89014900  1
  I  I6  1  0.07840600  0.00476100  0.89014900  1
  I  I7  1  0.92159400  0.99523900  0.39014900  1
  I  I8  1  0.43510900  0.31714800  0.14686400  1
  I  I9  1  0.56489100  0.68285200  0.64686400  1
  I  I10  1  0.43510900  0.18285200  0.64686400  1
  I  I11  1  0.56489100  0.81714800  0.14686400  1
  I  I12  1  0.25904400  0.55671000  0.17293600  1
  I  I13  1  0.74095600  0.44329000  0.67293600  1
  I  I14  1  0.25904400  0.94329000  0.67293600  1
  I  I15  1  0.74095600  0.05671000  0.17293600  1
  N  N0  1  0.09002800  0.35775100  0.19662900  1
  N  N1  1  0.90997200  0.64224900  0.69662900  1
  N  N2  1  0.09002800  0.14224900  0.69662900  1
  N  N3  1  0.90997200  0.85775100  0.19662900  1
  N  N4  1  0.36627800  0.77042200  0.38837400  1
  N  N5  1  0.63372200  0.22957800  0.88837400  1
  N  N6  1  0.36627800  0.72957800  0.88837400  1
  N  N7  1  0.63372200  0.27042200  0.38837400  1
  N  N8  1  0.26238500  0.44977400  0.66477800  1
  N  N9  1  0.73761500  0.55022600  0.16477800  1
  N  N10  1  0.26238500  0.05022600  0.16477800  1
  N  N11  1  0.73761500  0.94977400  0.66477800  1
  O  O0  1  0.99385000  0.33028100  0.14969100  1
  O  O1  1  0.00615000  0.66971900  0.64969100  1
  O  O2  1  0.99385000  0.16971900  0.64969100  1
  O  O3  1  0.00615000  0.83028100  0.14969100  1
  F  F0  1  0.40839000  0.43441400  0.33725800  1
  F  F1  1  0.59161000  0.56558600  0.83725800  1
  F  F2  1  0.40839000  0.06558600  0.83725800  1
  F  F3  1  0.59161000  0.93441400  0.33725800  1
loop_
_geom_bond_atom_site_label_1
_geom_bond_atom_site_label_2
_geom_bond_distance
_geom_bond_site_symmetry_2
C0 C8 1.476074 1_555
C0 C12 1.485201 1_555
C0 N4 1.580591 1_555
C1 C9 1.476074 1_555
C1 C13 1.485201 1_555
C1 N5 1.580591 1_555
C2 N6 1.580591 1_555
C3 N7 1.580591 1_555
C4 C8 1.494225 1_555
C4 N4 1.576562 1_555
C5 C9 1.494225 1_555
C5 N5 1.576562 1_555
C6 N6 1.576562 1_555
C7 N7 1.576562 1_555
C8 N4 1.637970 1_555
C9 N5 1.637970 1_555
C10 C2 1.476074 1_555
C10 C6 1.494225 1_555
C10 N6 1.637970 1_555
C11 C3 1.476074 1_555
C11 C7 1.494225 1_555
C11 N7 1.637970 1_555
C12 C4 1.488650 1_555
C12 N4 1.647850 1_555
C13 C5 1.488650 1_555
C13 N5 1.647850 1_555
C14 C2 1.485201 1_555
C14 C6 1.488650 1_555
C14 N6 1.647850 1_555
C15 C3 1.485201 1_555
C15 C7 1.488650 1_555
C15 N7 1.647850 1_555
C16 C28 1.243460 1_555
C16 I4 1.962352 1_555
C17 C29 1.243460 1_555
C17 I5 1.962352 1_554
C18 C30 1.243460 1_555
C18 I6 1.962352 1_554
C19 C31 1.243460 1_555
C19 I7 1.962352 1_555
C20 N8 1.252950 1_555
C20 C24 1.267390 1_555
C21 N9 1.252950 1_555
C21 C25 1.267390 1_555
C22 N10 1.252950 1_555
C22 C26 1.267390 1_555
C23 N11 1.252950 1_555
C23 C27 1.267390 1_555
C24 I2 1.987078 1_555
C25 I3 1.987078 1_555
C26 I0 1.987078 1_555
C27 I1 1.987078 1_555
C28 N8 1.260885 1_555
C29 N9 1.260885 1_555
C30 N10 1.260885 1_555
C31 N11 1.260885 1_555
I0 Os0 2.798645 1_555
I1 Os1 2.798645 1_555
I2 Os2 2.798645 1_555
I3 Os3 2.798645 1_555
I4 Os0 2.797481 1_555
I5 Os1 2.797481 1_555
I6 Os2 2.797481 1_555
I7 Os3 2.797481 1_555
I8 Os0 2.685396 1_555
I9 Os1 2.685396 1_555
I10 Os2 2.685396 1_555
I11 Os3 2.685396 1_555
I12 Os0 2.688988 1_555
I13 Os1 2.688988 1_555
I14 Os2 2.688988 1_565
I15 Os3 2.688988 1_545
N0 O0 1.176589 1_455
N0 Os0 1.757355 1_555
N1 O1 1.176589 1_655
N1 Os1 1.757355 1_555
N2 O2 1.176589 1_455
N2 Os2 1.757355 1_555
N3 O3 1.176589 1_655
N3 Os3 1.757355 1_555
F0 Os0 1.946480 1_555
F1 Os1 1.946480 1_555
F2 Os2 1.946480 1_555
F3 Os3 1.946480 1_555
