# generated using pymatgen
data_MgTa2O6
_symmetry_space_group_name_H-M   'P 1'
_cell_length_a   5.22955000
_cell_length_b   5.51099600
_cell_length_c   7.60865200
_cell_angle_alpha   90.00000000
_cell_angle_beta   90.00000000
_cell_angle_gamma   90.00000000
_symmetry_Int_Tables_number   1
_chemical_formula_structural   MgTa2O6
_chemical_formula_sum   'Mg2 Ta4 O12'
_cell_volume   219.28157229
_cell_formula_units_Z   2
loop_
 _symmetry_equiv_pos_site_id
 _symmetry_equiv_pos_as_xyz
  1  'x, y, z'
loop_
 _atom_site_type_symbol
 _atom_site_label
 _atom_site_symmetry_multiplicity
 _atom_site_fract_x
 _atom_site_fract_y
 _atom_site_fract_z
 _atom_site_occupancy
  Mg  Mg0  1  0.52456500  0.32112800  0.50000000  1
  Mg  Mg1  1  0.02456500  0.67887200  0.00000000  1
  Ta  Ta0  1  0.50950400  0.76063900  0.74837900  1
  Ta  Ta1  1  0.00950400  0.23936100  0.75162100  1
  Ta  Ta2  1  0.00950400  0.23936100  0.24837900  1
  Ta  Ta3  1  0.50950400  0.76063900  0.25162100  1
  O  O0  1  0.67591000  0.06890300  0.31525900  1
  O  O1  1  0.17591000  0.93109700  0.18474100  1
  O  O2  1  0.78110500  0.52990400  0.69895300  1
  O  O3  1  0.28110500  0.47009600  0.80104700  1
  O  O4  1  0.28110500  0.47009600  0.19895300  1
  O  O5  1  0.78110500  0.52990400  0.30104700  1
  O  O6  1  0.17591000  0.93109700  0.81525900  1
  O  O7  1  0.67591000  0.06890300  0.68474100  1
  O  O8  1  0.13781100  0.22612300  0.50000000  1
  O  O9  1  0.63781100  0.77387700  0.00000000  1
  O  O10  1  0.41533700  0.70919700  0.50000000  1
  O  O11  1  0.91533700  0.29080300  0.00000000  1
loop_
_geom_bond_atom_site_label_1
_geom_bond_atom_site_label_2
_geom_bond_distance
_geom_bond_site_symmetry_2
Mg0 O8 2.089218 1_555
Mg0 O7 2.129400 1_555
Mg0 O0 2.129400 1_555
Mg0 O10 2.213616 1_555
Mg0 O2 2.327045 1_555
Mg0 O5 2.327045 1_555
Mg1 O9 2.089218 1_455
Mg1 O6 2.129400 1_554
Mg1 O1 2.129400 1_555
Mg1 O11 2.213616 1_455
Mg1 O3 2.327045 1_554
Mg1 O4 2.327045 1_555
O0 Ta3 1.969216 1_545
O0 Ta2 2.045690 1_655
O1 Ta2 1.969216 1_565
O1 Ta3 2.045690 1_555
O2 Ta0 1.943126 1_555
O2 Ta1 2.037404 1_655
O3 Ta1 1.943126 1_555
O3 Ta0 2.037404 1_555
O4 Ta2 1.943126 1_555
O4 Ta3 2.037404 1_555
O5 Ta3 1.943126 1_555
O5 Ta2 2.037404 1_655
O6 Ta1 1.969216 1_565
O6 Ta0 2.045690 1_555
O7 Ta0 1.969216 1_545
O7 Ta1 2.045690 1_655
O8 Ta2 2.029986 1_555
O8 Ta1 2.029986 1_555
O9 Ta3 2.029986 1_555
O9 Ta0 2.029986 1_554
O10 Ta0 1.973407 1_555
O10 Ta3 1.973407 1_555
O11 Ta2 1.973407 1_655
O11 Ta1 1.973407 1_654
