# generated using pymatgen
data_Fe3SiN4
_symmetry_space_group_name_H-M   'P 1'
_cell_length_a   5.84299200
_cell_length_b   10.32223200
_cell_length_c   5.43964100
_cell_angle_alpha   90.00000000
_cell_angle_beta   90.00000000
_cell_angle_gamma   90.00000000
_symmetry_Int_Tables_number   1
_chemical_formula_structural   Fe3SiN4
_chemical_formula_sum   'Fe12 Si4 N16'
_cell_volume   328.07953908
_cell_formula_units_Z   4
loop_
 _symmetry_equiv_pos_site_id
 _symmetry_equiv_pos_as_xyz
  1  'x, y, z'
loop_
 _atom_site_type_symbol
 _atom_site_label
 _atom_site_symmetry_multiplicity
 _atom_site_fract_x
 _atom_site_fract_y
 _atom_site_fract_z
 _atom_site_occupancy
  Fe  Fe0  1  0.02719500  0.84011400  0.35822300  1
  Fe  Fe1  1  0.47280500  0.34011400  0.14177700  1
  Fe  Fe2  1  0.52719500  0.15988600  0.64177700  1
  Fe  Fe3  1  0.97280500  0.65988600  0.85822300  1
  Fe  Fe4  1  0.97280500  0.15988600  0.64177700  1
  Fe  Fe5  1  0.52719500  0.65988600  0.85822300  1
  Fe  Fe6  1  0.47280500  0.84011400  0.35822300  1
  Fe  Fe7  1  0.02719500  0.34011400  0.14177700  1
  Fe  Fe8  1  0.25000000  0.06212700  0.35406400  1
  Fe  Fe9  1  0.25000000  0.56212700  0.14593600  1
  Fe  Fe10  1  0.75000000  0.93787300  0.64593600  1
  Fe  Fe11  1  0.75000000  0.43787300  0.85406400  1
  Si  Si0  1  0.25000000  0.90983300  0.82653100  1
  Si  Si1  1  0.25000000  0.40983300  0.67346900  1
  Si  Si2  1  0.75000000  0.09016700  0.17346900  1
  Si  Si3  1  0.75000000  0.59016700  0.32653100  1
  N  N0  1  0.25000000  0.91478600  0.14730200  1
  N  N1  1  0.25000000  0.41478600  0.35269800  1
  N  N2  1  0.75000000  0.08521400  0.85269800  1
  N  N3  1  0.75000000  0.58521400  0.64730200  1
  N  N4  1  0.25000000  0.06785300  0.70730000  1
  N  N5  1  0.25000000  0.56785300  0.79270000  1
  N  N6  1  0.75000000  0.93214700  0.29270000  1
  N  N7  1  0.75000000  0.43214700  0.20730000  1
  N  N8  1  0.00733400  0.83051800  0.71736800  1
  N  N9  1  0.49266600  0.33051800  0.78263200  1
  N  N10  1  0.50733400  0.16948200  0.28263200  1
  N  N11  1  0.99266600  0.66948200  0.21736800  1
  N  N12  1  0.99266600  0.16948200  0.28263200  1
  N  N13  1  0.50733400  0.66948200  0.21736800  1
  N  N14  1  0.49266600  0.83051800  0.71736800  1
  N  N15  1  0.00733400  0.33051800  0.78263200  1
loop_
_geom_bond_atom_site_label_1
_geom_bond_atom_site_label_2
_geom_bond_distance
_geom_bond_site_symmetry_2
Fe0 N0 1.898760 1_555
Fe0 N6 1.911222 1_455
Fe0 N11 1.931309 1_455
Fe0 N8 1.959569 1_555
Fe1 N1 1.898760 1_555
Fe1 N7 1.911222 1_555
Fe1 N10 1.931309 1_555
Fe1 N9 1.959569 1_554
Fe2 N2 1.898760 1_555
Fe2 N4 1.911222 1_555
Fe2 N9 1.931309 1_555
Fe2 N10 1.959569 1_555
Fe3 N3 1.898760 1_555
Fe3 N5 1.911222 1_655
Fe3 N8 1.931309 1_655
Fe3 N11 1.959569 1_556
Fe4 N2 1.898760 1_555
Fe4 N4 1.911222 1_655
Fe4 N15 1.931309 1_655
Fe4 N12 1.959569 1_555
Fe5 N3 1.898760 1_555
Fe5 N5 1.911222 1_555
Fe5 N14 1.931309 1_555
Fe5 N13 1.959569 1_556
Fe6 N0 1.898760 1_555
Fe6 N6 1.911222 1_555
Fe6 N13 1.931309 1_555
Fe6 N14 1.959569 1_555
Fe7 N1 1.898760 1_555
Fe7 N7 1.911222 1_455
Fe7 N12 1.931309 1_455
Fe7 N15 1.959569 1_554
Fe8 N0 1.891580 1_545
Fe8 N10 1.907820 1_555
Fe8 N12 1.907820 1_455
Fe8 N4 1.922386 1_555
Fe9 N1 1.891580 1_555
Fe9 N13 1.907820 1_555
Fe9 N11 1.907820 1_455
Fe9 N5 1.922386 1_554
Fe10 N2 1.891580 1_565
Fe10 N8 1.907820 1_655
Fe10 N14 1.907820 1_555
Fe10 N6 1.922386 1_555
Fe11 N3 1.891580 1_555
Fe11 N15 1.907820 1_655
Fe11 N9 1.907820 1_555
Fe11 N7 1.922386 1_556
N0 Si0 1.745628 1_554
N1 Si1 1.745628 1_555
N2 Si2 1.745628 1_556
N3 Si3 1.745628 1_555
N4 Si0 1.755334 1_545
N5 Si1 1.755334 1_555
N6 Si2 1.755334 1_565
N7 Si3 1.755334 1_555
N8 Si0 1.741642 1_555
N9 Si1 1.741642 1_555
N10 Si2 1.741642 1_555
N11 Si3 1.741642 1_555
N12 Si2 1.741642 1_555
N13 Si3 1.741642 1_555
N14 Si0 1.741642 1_555
N15 Si1 1.741642 1_555
