# generated using pymatgen
data_BaCu(SiO3)2
_symmetry_space_group_name_H-M   'P 1'
_cell_length_a   7.17964700
_cell_length_b   7.17964700
_cell_length_c   11.14959400
_cell_angle_alpha   90.00000000
_cell_angle_beta   90.00000000
_cell_angle_gamma   90.00000000
_symmetry_Int_Tables_number   1
_chemical_formula_structural   BaCu(SiO3)2
_chemical_formula_sum   'Ba4 Cu4 Si8 O24'
_cell_volume   574.73181293
_cell_formula_units_Z   4
loop_
 _symmetry_equiv_pos_site_id
 _symmetry_equiv_pos_as_xyz
  1  'x, y, z'
loop_
 _atom_site_type_symbol
 _atom_site_label
 _atom_site_symmetry_multiplicity
 _atom_site_fract_x
 _atom_site_fract_y
 _atom_site_fract_z
 _atom_site_occupancy
  Ba  Ba0  1  0.00000000  0.50000000  0.74438700  1
  Ba  Ba1  1  0.00000000  0.50000000  0.24438700  1
  Ba  Ba2  1  0.50000000  0.00000000  0.75561300  1
  Ba  Ba3  1  0.50000000  0.00000000  0.25561300  1
  Cu  Cu0  1  0.00000000  0.00000000  0.62203100  1
  Cu  Cu1  1  0.50000000  0.50000000  0.12203100  1
  Cu  Cu2  1  0.50000000  0.50000000  0.87796900  1
  Cu  Cu3  1  0.00000000  0.00000000  0.37796900  1
  Si  Si0  1  0.27382700  0.27382700  0.50000000  1
  Si  Si1  1  0.72617300  0.72617300  0.50000000  1
  Si  Si2  1  0.77382700  0.22617300  0.00000000  1
  Si  Si3  1  0.22617300  0.77382700  0.00000000  1
  Si  Si4  1  0.22617300  0.22617300  0.00000000  1
  Si  Si5  1  0.77382700  0.77382700  0.00000000  1
  Si  Si6  1  0.72617300  0.27382700  0.50000000  1
  Si  Si7  1  0.27382700  0.72617300  0.50000000  1
  O  O0  1  0.23525800  0.50000000  0.50271900  1
  O  O1  1  0.76474200  0.50000000  0.50271900  1
  O  O2  1  0.00000000  0.26474200  0.00271900  1
  O  O3  1  0.00000000  0.73525800  0.00271900  1
  O  O4  1  0.26474200  0.00000000  0.99728100  1
  O  O5  1  0.73525800  0.00000000  0.99728100  1
  O  O6  1  0.50000000  0.23525800  0.49728100  1
  O  O7  1  0.50000000  0.76474200  0.49728100  1
  O  O8  1  0.19145400  0.80638100  0.37458500  1
  O  O9  1  0.80854600  0.19361900  0.37458500  1
  O  O10  1  0.30638100  0.30854600  0.87458500  1
  O  O11  1  0.69361900  0.69145400  0.87458500  1
  O  O12  1  0.30854600  0.69361900  0.12541500  1
  O  O13  1  0.69145400  0.30638100  0.12541500  1
  O  O14  1  0.19361900  0.19145400  0.62541500  1
  O  O15  1  0.80638100  0.80854600  0.62541500  1
  O  O16  1  0.30854600  0.30638100  0.12541500  1
  O  O17  1  0.69145400  0.69361900  0.12541500  1
  O  O18  1  0.80638100  0.19145400  0.62541500  1
  O  O19  1  0.19361900  0.80854600  0.62541500  1
  O  O20  1  0.19145400  0.19361900  0.37458500  1
  O  O21  1  0.80854600  0.80638100  0.37458500  1
  O  O22  1  0.69361900  0.30854600  0.87458500  1
  O  O23  1  0.30638100  0.69145400  0.87458500  1
loop_
_geom_bond_atom_site_label_1
_geom_bond_atom_site_label_2
_geom_bond_distance
_geom_bond_site_symmetry_2
Ba0 O19 2.932462 1_555
Ba0 O15 2.932462 1_455
Ba0 O14 2.932462 1_555
Ba0 O18 2.932462 1_455
Ba0 O10 2.972451 1_555
Ba0 O23 2.972451 1_555
Ba0 O22 2.972451 1_455
Ba0 O11 2.972451 1_455
Ba0 O0 3.180139 1_555
Ba0 O1 3.180139 1_455
Ba0 O3 3.339022 1_556
Ba0 O2 3.339022 1_556
Ba1 O12 2.932462 1_555
Ba1 O17 2.932462 1_455
Ba1 O13 2.932462 1_455
Ba1 O16 2.932462 1_555
Ba1 O8 2.972451 1_555
Ba1 O21 2.972451 1_455
Ba1 O20 2.972451 1_555
Ba1 O9 2.972451 1_455
Ba1 O2 3.180139 1_555
Ba1 O3 3.180139 1_555
Ba1 O0 3.339022 1_555
Ba1 O1 3.339022 1_455
Ba2 O22 2.932462 1_555
Ba2 O11 2.932462 1_545
Ba2 O23 2.932462 1_545
Ba2 O10 2.932462 1_555
Ba2 O18 2.972451 1_555
Ba2 O15 2.972451 1_545
Ba2 O14 2.972451 1_555
Ba2 O19 2.972451 1_545
Ba2 O4 3.180139 1_555
Ba2 O5 3.180139 1_555
Ba2 O6 3.339022 1_555
Ba2 O7 3.339022 1_545
Ba3 O9 2.932462 1_555
Ba3 O21 2.932462 1_545
Ba3 O20 2.932462 1_555
Ba3 O8 2.932462 1_545
Ba3 O16 2.972451 1_555
Ba3 O13 2.972451 1_555
Ba3 O17 2.972451 1_545
Ba3 O12 2.972451 1_545
Ba3 O6 3.180139 1_555
Ba3 O7 3.180139 1_545
Ba3 O4 3.339022 1_554
Ba3 O5 3.339022 1_554
Cu0 O14 1.955325 1_555
Cu0 O18 1.955325 1_455
Cu0 O19 1.955325 1_545
Cu0 O15 1.955325 1_445
Cu1 O17 1.955325 1_555
Cu1 O12 1.955325 1_555
Cu1 O13 1.955325 1_555
Cu1 O16 1.955325 1_555
Cu2 O22 1.955325 1_555
Cu2 O11 1.955325 1_555
Cu2 O10 1.955325 1_555
Cu2 O23 1.955325 1_555
Cu3 O20 1.955325 1_555
Cu3 O8 1.955325 1_545
Cu3 O9 1.955325 1_455
Cu3 O21 1.955325 1_445
O0 Si7 1.647563 1_555
O0 Si0 1.647563 1_555
O1 Si1 1.647563 1_555
O1 Si6 1.647563 1_555
O2 Si4 1.647563 1_555
O2 Si2 1.647563 1_455
O3 Si3 1.647563 1_555
O3 Si5 1.647563 1_455
O4 Si4 1.647563 1_556
O4 Si3 1.647563 1_546
O5 Si2 1.647563 1_556
O5 Si5 1.647563 1_546
O6 Si6 1.647563 1_555
O6 Si0 1.647563 1_555
O7 Si1 1.647563 1_555
O7 Si7 1.647563 1_555
O8 Si7 1.623792 1_555
O9 Si6 1.623792 1_555
O10 Si4 1.623792 1_556
O11 Si5 1.623792 1_556
O12 Si3 1.623792 1_555
O13 Si2 1.623792 1_555
O14 Si0 1.623792 1_555
O15 Si1 1.623792 1_555
O16 Si4 1.623792 1_555
O17 Si5 1.623792 1_555
O18 Si6 1.623792 1_555
O19 Si7 1.623792 1_555
O20 Si0 1.623792 1_555
O21 Si1 1.623792 1_555
O22 Si2 1.623792 1_556
O23 Si3 1.623792 1_556
