# generated using pymatgen
data_AcScO3
_symmetry_space_group_name_H-M   'P 1'
_cell_length_a   4.12504600
_cell_length_b   4.12504600
_cell_length_c   4.12504600
_cell_angle_alpha   90.00000000
_cell_angle_beta   90.00000000
_cell_angle_gamma   90.00000000
_symmetry_Int_Tables_number   1
_chemical_formula_structural   AcScO3
_chemical_formula_sum   'Ac1 Sc1 O3'
_cell_volume   70.19180131
_cell_formula_units_Z   1
loop_
 _symmetry_equiv_pos_site_id
 _symmetry_equiv_pos_as_xyz
  1  'x, y, z'
loop_
 _atom_site_type_symbol
 _atom_site_label
 _atom_site_symmetry_multiplicity
 _atom_site_fract_x
 _atom_site_fract_y
 _atom_site_fract_z
 _atom_site_occupancy
  Ac  Ac0  1  0.00000000  0.00000000  0.00000000  1
  Sc  Sc0  1  0.50000000  0.50000000  0.50000000  1
  O  O0  1  0.50000000  0.50000000  0.00000000  1
  O  O1  1  0.50000000  0.00000000  0.50000000  1
  O  O2  1  0.00000000  0.50000000  0.50000000  1
loop_
_geom_bond_atom_site_label_1
_geom_bond_atom_site_label_2
_geom_bond_distance
_geom_bond_site_symmetry_2
Ac0 O2 2.916848 1_544
Ac0 O1 2.916848 1_455
Ac0 O2 2.916848 1_545
Ac0 O1 2.916848 1_555
Ac0 O1 2.916848 1_454
Ac0 O0 2.916848 1_555
Ac0 O1 2.916848 1_554
Ac0 O2 2.916848 1_555
Ac0 O2 2.916848 1_554
Ac0 O0 2.916848 1_545
Ac0 O0 2.916848 1_445
Ac0 O0 2.916848 1_455
O0 Sc0 2.062523 1_554
O0 Sc0 2.062523 1_555
O1 Sc0 2.062523 1_555
O1 Sc0 2.062523 1_545
O2 Sc0 2.062523 1_455
O2 Sc0 2.062523 1_555
