# generated using pymatgen
data_Li3Co2NiO6
_symmetry_space_group_name_H-M   'P 1'
_cell_length_a   6.41704697
_cell_length_b   2.99446401
_cell_length_c   5.95417456
_cell_angle_alpha   90.91242924
_cell_angle_beta   104.52021455
_cell_angle_gamma   76.42993778
_symmetry_Int_Tables_number   1
_chemical_formula_structural   Li3Co2NiO6
_chemical_formula_sum   'Li3 Co2 Ni1 O6'
_cell_volume   107.55476408
_cell_formula_units_Z   1
loop_
 _symmetry_equiv_pos_site_id
 _symmetry_equiv_pos_as_xyz
  1  'x, y, z'
loop_
 _atom_site_type_symbol
 _atom_site_label
 _atom_site_symmetry_multiplicity
 _atom_site_fract_x
 _atom_site_fract_y
 _atom_site_fract_z
 _atom_site_occupancy
  Li  Li0  1  0.00377300  0.99677400  0.49642000  1
  Li  Li1  1  0.33278100  0.33334100  0.83175300  1
  Li  Li2  1  0.66193600  0.66725800  0.16716700  1
  Co  Co0  1  0.99816500  0.00594200  0.99838200  1
  Co  Co1  1  0.66605900  0.65909900  0.66369900  1
  Ni  Ni0  1  0.33224800  0.33241200  0.33066600  1
  O  O0  1  0.01652500  0.49717000  0.24348400  1
  O  O1  1  0.34804800  0.80166800  0.56928200  1
  O  O2  1  0.67858400  0.15802400  0.91163200  1
  O  O3  1  0.31663400  0.86248700  0.09238100  1
  O  O4  1  0.64784800  0.16767300  0.41864000  1
  O  O5  1  0.98617200  0.50687300  0.75088500  1
loop_
_geom_bond_atom_site_label_1
_geom_bond_atom_site_label_2
_geom_bond_distance
_geom_bond_site_symmetry_2
Li0 O1 2.081350 1_555
Li0 O0 2.108448 1_555
Li0 O5 2.138385 1_465
Li0 O4 2.149794 1_465
Li0 O5 2.166746 1_455
Li0 O0 2.170546 1_565
Li1 O2 2.087577 1_555
Li1 O5 2.092255 1_455
Li1 O3 2.150754 1_546
Li1 O1 2.151668 1_555
Li1 O3 2.203369 1_556
Li1 O1 2.216073 1_545
Li2 O3 2.086995 1_555
Li2 O4 2.104376 1_565
Li2 O2 2.140750 1_554
Li2 O0 2.142069 1_655
Li2 O4 2.165823 1_555
Li2 O2 2.170815 1_564
Co0 O3 1.922590 1_646
Co0 O2 1.928185 1_555
Co0 O0 2.057704 1_656
Co0 O5 2.082754 1_545
Co0 O0 2.089278 1_646
Co0 O5 2.094506 1_555
Co1 O1 1.919965 1_555
Co1 O5 1.931407 1_555
Co1 O4 2.057910 1_555
Co1 O2 2.084327 1_565
Co1 O4 2.088946 1_565
Co1 O2 2.095601 1_555
Ni0 O4 1.904391 1_555
Ni0 O0 1.905075 1_555
Ni0 O1 1.983529 1_555
Ni0 O3 1.983542 1_545
Ni0 O3 2.113836 1_555
Ni0 O1 2.116309 1_545
