# generated using pymatgen
data_KNa4Te2PdO22
_symmetry_space_group_name_H-M   'P 1'
_cell_length_a   7.40569800
_cell_length_b   11.36779997
_cell_length_c   11.75216740
_cell_angle_alpha   94.48044224
_cell_angle_beta   91.30378257
_cell_angle_gamma   104.65305858
_symmetry_Int_Tables_number   1
_chemical_formula_structural   KNa4Te2PdO22
_chemical_formula_sum   'K2 Na8 Te4 Pd2 O44'
_cell_volume   953.34208564
_cell_formula_units_Z   2
loop_
 _symmetry_equiv_pos_site_id
 _symmetry_equiv_pos_as_xyz
  1  'x, y, z'
loop_
 _atom_site_type_symbol
 _atom_site_label
 _atom_site_symmetry_multiplicity
 _atom_site_fract_x
 _atom_site_fract_y
 _atom_site_fract_z
 _atom_site_occupancy
  K  K0  1  0.72083900  0.08026800  0.70276400  1
  K  K1  1  0.27916100  0.91973200  0.29723600  1
  Na  Na0  1  0.41223200  0.46541700  0.74478100  1
  Na  Na1  1  0.58776800  0.53458300  0.25521900  1
  Na  Na2  1  0.17336100  0.97662900  0.63545700  1
  Na  Na3  1  0.82663900  0.02337100  0.36454300  1
  Na  Na4  1  0.39611200  0.85199800  0.84924900  1
  Na  Na5  1  0.60388800  0.14800200  0.15075100  1
  Na  Na6  1  0.87676800  0.46804900  0.79567800  1
  Na  Na7  1  0.12323200  0.53195100  0.20432200  1
  Te  Te0  1  0.81528600  0.73946700  0.67733100  1
  Te  Te1  1  0.18471400  0.26053300  0.32266900  1
  Te  Te2  1  0.28473200  0.14377000  0.88214800  1
  Te  Te3  1  0.71526800  0.85623000  0.11785200  1
  Pd  Pd0  1  0.93482100  0.91479800  0.89005500  1
  Pd  Pd1  1  0.06517900  0.08520200  0.10994500  1
  O  O0  1  0.85757000  0.84601400  0.55769000  1
  O  O1  1  0.14243000  0.15398600  0.44231000  1
  O  O2  1  0.46422200  0.68998300  0.59445300  1
  O  O3  1  0.53577800  0.31001700  0.40554700  1
  O  O4  1  0.88787200  0.61425900  0.58690800  1
  O  O5  1  0.11212800  0.38574100  0.41309200  1
  O  O6  1  0.69637800  0.59983300  0.75255000  1
  O  O7  1  0.30362200  0.40016700  0.24745000  1
  O  O8  1  0.70718400  0.84848200  0.77848700  1
  O  O9  1  0.29281600  0.15151800  0.22151300  1
  O  O10  1  0.04205100  0.81043300  0.76994000  1
  O  O11  1  0.95794900  0.18956700  0.23006000  1
  O  O12  1  0.03914100  0.06286000  0.80215400  1
  O  O13  1  0.96085900  0.93714000  0.19784600  1
  O  O14  1  0.17197600  0.99030800  0.98656500  1
  O  O15  1  0.82802400  0.00969200  0.01343500  1
  O  O16  1  0.16231700  0.21834900  0.00948200  1
  O  O17  1  0.83768300  0.78165100  0.99051800  1
  O  O18  1  0.39585100  0.03831000  0.79115800  1
  O  O19  1  0.60414900  0.96169000  0.20884200  1
  O  O20  1  0.33081400  0.27909000  0.79850100  1
  O  O21  1  0.66918600  0.72091000  0.20149900  1
  O  O22  1  0.49866200  0.18729400  0.98377500  1
  O  O23  1  0.50133800  0.81270600  0.01622500  1
  O  O24  1  0.21538800  0.46768100  0.91896900  1
  O  O25  1  0.78461200  0.53231900  0.08103100  1
  O  O26  1  0.08138900  0.39074400  0.63275100  1
  O  O27  1  0.91861100  0.60925600  0.36724900  1
  O  O28  1  0.56139300  0.37562500  0.58019400  1
  O  O29  1  0.43860700  0.62437500  0.41980600  1
  O  O30  1  0.12453600  0.62736600  0.90694300  1
  O  O31  1  0.87546400  0.37263400  0.09305700  1
  O  O32  1  0.39702900  0.77697000  0.57005400  1
  O  O33  1  0.60297100  0.22303000  0.42994600  1
  O  O34  1  0.35897000  0.06671000  0.48932400  1
  O  O35  1  0.64103000  0.93329000  0.51067600  1
  O  O36  1  0.83890700  0.34204100  0.98934200  1
  O  O37  1  0.16109300  0.65795900  0.01065800  1
  O  O38  1  0.63491000  0.29287000  0.60380200  1
  O  O39  1  0.36509000  0.70713000  0.39619800  1
  O  O40  1  0.73646500  0.50290300  0.97875100  1
  O  O41  1  0.26353500  0.49709700  0.02124900  1
  O  O42  1  0.04633400  0.28350300  0.65969300  1
  O  O43  1  0.95366600  0.71649700  0.34030700  1
loop_
_geom_bond_atom_site_label_1
_geom_bond_atom_site_label_2
_geom_bond_distance
_geom_bond_site_symmetry_2
K0 O18 2.590282 1_555
K0 O35 2.662219 1_545
K0 O12 2.665884 1_655
K0 O8 2.824975 1_545
K0 O38 2.963470 1_555
K0 O42 2.970709 1_655
K1 O19 2.590282 1_555
K1 O34 2.662219 1_565
K1 O13 2.665884 1_455
K1 O9 2.824975 1_565
K1 O39 2.963470 1_555
K1 O43 2.970709 1_455
Na0 O20 2.197430 1_555
Na0 O6 2.261400 1_555
Na0 O28 2.522439 1_555
Na0 O24 2.542216 1_555
Na0 O26 2.661474 1_555
Na1 O21 2.197430 1_555
Na1 O7 2.261400 1_555
Na1 O29 2.522439 1_555
Na1 O25 2.542216 1_555
Na1 O27 2.661474 1_555
Na2 O34 2.357433 1_565
Na2 O18 2.373315 1_565
Na2 O12 2.463402 1_565
Na2 O0 2.538329 1_455
Na2 O10 2.572909 1_555
Na3 O35 2.357433 1_545
Na3 O19 2.373315 1_545
Na3 O13 2.463402 1_545
Na3 O1 2.538329 1_655
Na3 O11 2.572909 1_555
Na4 O23 2.213813 1_556
Na4 O18 2.275904 1_565
Na4 O8 2.475641 1_555
Na4 O10 2.675891 1_555
Na4 O30 2.959669 1_555
Na4 O14 2.979490 1_555
Na5 O22 2.213813 1_554
Na5 O19 2.275904 1_545
Na5 O9 2.475641 1_555
Na5 O11 2.675891 1_555
Na5 O31 2.959669 1_555
Na5 O15 2.979490 1_555
Na6 O6 2.320818 1_555
Na6 O40 2.458128 1_555
Na6 O30 2.489222 1_655
Na6 O26 2.697725 1_655
Na6 O36 2.765092 1_555
Na6 O24 2.868621 1_655
Na7 O7 2.320818 1_555
Na7 O41 2.458128 1_555
Na7 O31 2.489222 1_455
Na7 O27 2.697725 1_455
Na7 O37 2.765092 1_555
Na7 O25 2.868621 1_455
O0 Te0 1.906895 1_555
O1 Te1 1.906895 1_555
O2 O32 1.262704 1_555
O2 Te0 2.661520 1_555
O3 O33 1.262704 1_555
O3 Te1 2.661520 1_555
O4 Te0 1.902864 1_555
O5 Te1 1.902864 1_555
O6 Te0 1.903672 1_555
O7 Te1 1.903672 1_555
O8 Te0 1.976109 1_555
O8 Pd0 2.057045 1_555
O9 Te1 1.976109 1_555
O9 Pd1 2.057045 1_555
O10 Te0 1.936435 1_455
O10 Pd0 2.072877 1_455
O11 Te1 1.936435 1_655
O11 Pd1 2.072877 1_655
O12 Te2 1.994606 1_555
O12 Pd0 2.036431 1_445
O13 Te3 1.994606 1_555
O13 Pd1 2.036431 1_665
O14 Pd0 2.025421 1_455
O14 Pd1 2.032513 1_566
O14 Te2 2.211465 1_565
O15 Pd1 2.025421 1_655
O15 Pd0 2.032513 1_544
O15 Te3 2.211465 1_545
O16 Pd1 1.992330 1_555
O16 Te2 2.008075 1_554
O17 Pd0 1.992330 1_555
O17 Te3 2.008075 1_556
O18 Te2 1.896515 1_555
O19 Te3 1.896515 1_555
O20 Te2 1.853399 1_555
O21 Te3 1.853399 1_555
O22 Te2 1.899009 1_555
O23 Te3 1.899009 1_555
O24 O41 1.241436 1_556
O25 O40 1.241436 1_554
O26 O42 1.248106 1_555
O27 O43 1.248106 1_555
O28 O38 1.245562 1_555
O29 O39 1.245562 1_555
O30 O37 1.245400 1_556
O31 O36 1.245400 1_554
