# generated using pymatgen
data_ScSn
_symmetry_space_group_name_H-M   'P 1'
_cell_length_a   4.72906793
_cell_length_b   4.72906793
_cell_length_c   4.72906793
_cell_angle_alpha   60.00000000
_cell_angle_beta   60.00000000
_cell_angle_gamma   60.00000000
_symmetry_Int_Tables_number   1
_chemical_formula_structural   ScSn
_chemical_formula_sum   'Sc1 Sn1'
_cell_volume   74.78451107
_cell_formula_units_Z   1
loop_
 _symmetry_equiv_pos_site_id
 _symmetry_equiv_pos_as_xyz
  1  'x, y, z'
loop_
 _atom_site_type_symbol
 _atom_site_label
 _atom_site_symmetry_multiplicity
 _atom_site_fract_x
 _atom_site_fract_y
 _atom_site_fract_z
 _atom_site_occupancy
  Sc  Sc0  1  0.00000000  0.00000000  0.00000000  1
  Sn  Sn0  1  0.25000000  0.25000000  0.25000000  1
loop_
_geom_bond_atom_site_label_1
_geom_bond_atom_site_label_2
_geom_bond_distance
_geom_bond_site_symmetry_2
Sc0 Sn0 2.895951 1_555
Sc0 Sn0 2.895951 1_554
Sc0 Sn0 2.895951 1_455
Sc0 Sn0 2.895951 1_545
