# generated using pymatgen
data_TbCdPd
_symmetry_space_group_name_H-M   'P 1'
_cell_length_a   7.56286364
_cell_length_b   7.56286364
_cell_length_c   3.93558280
_cell_angle_alpha   90.00000000
_cell_angle_beta   90.00000000
_cell_angle_gamma   120.00003165
_symmetry_Int_Tables_number   1
_chemical_formula_structural   TbCdPd
_chemical_formula_sum   'Tb3 Cd3 Pd3'
_cell_volume   194.94499378
_cell_formula_units_Z   3
loop_
 _symmetry_equiv_pos_site_id
 _symmetry_equiv_pos_as_xyz
  1  'x, y, z'
loop_
 _atom_site_type_symbol
 _atom_site_label
 _atom_site_symmetry_multiplicity
 _atom_site_fract_x
 _atom_site_fract_y
 _atom_site_fract_z
 _atom_site_occupancy
  Tb  Tb0  1  0.59576487  0.00000000  0.00000000  1
  Tb  Tb1  1  0.00000000  0.59576487  -0.00000000  1
  Tb  Tb2  1  0.40423513  0.40423513  0.00000000  1
  Cd  Cd0  1  0.25665740  1.00000000  0.50000000  1
  Cd  Cd1  1  1.00000000  0.25665740  0.50000000  1
  Cd  Cd2  1  0.74334160  0.74334160  0.50000000  1
  Pd  Pd0  1  0.33333300  0.66666700  0.50000000  1
  Pd  Pd1  1  0.66666700  0.33333300  0.50000000  1
  Pd  Pd2  1  -0.00000000  -0.00000000  0.00000000  1
loop_
_geom_bond_atom_site_label_1
_geom_bond_atom_site_label_2
_geom_bond_distance
_geom_bond_site_symmetry_2
Cd0 Pd2 2.764043 1_566
Cd0 Pd2 2.764043 1_565
Cd0 Pd0 2.855405 1_555
Cd0 Pd1 2.855408 1_565
Cd0 Tb0 3.232568 1_565
Cd0 Tb0 3.232568 1_566
Cd0 Tb1 3.324466 1_555
Cd0 Tb1 3.324466 1_556
Cd0 Tb2 3.324466 1_565
Cd0 Tb2 3.324466 1_566
Cd1 Pd2 2.764043 1_656
Cd1 Pd2 2.764043 1_655
Cd1 Pd1 2.855405 1_555
Cd1 Pd0 2.855408 1_655
Cd1 Tb1 3.232568 1_656
Cd1 Tb1 3.232568 1_655
Cd1 Tb0 3.324466 1_555
Cd1 Tb0 3.324466 1_556
Cd1 Tb2 3.324466 1_655
Cd1 Tb2 3.324466 1_656
Cd2 Pd2 2.764048 1_665
Cd2 Pd2 2.764048 1_666
Cd2 Pd1 2.855407 1_555
Cd2 Pd0 2.855407 1_555
Cd2 Tb2 3.232561 1_555
Cd2 Tb2 3.232561 1_556
Cd2 Tb1 3.324468 1_656
Cd2 Tb1 3.324468 1_655
Cd2 Tb0 3.324468 1_565
Cd2 Tb0 3.324468 1_566
Pd0 Tb1 3.027068 1_555
Pd0 Tb1 3.027068 1_556
Pd0 Tb0 3.027070 1_565
Pd0 Tb0 3.027070 1_566
Pd0 Tb2 3.027074 1_555
Pd0 Tb2 3.027074 1_556
Pd1 Tb0 3.027068 1_556
Pd1 Tb0 3.027068 1_555
Pd1 Tb1 3.027070 1_656
Pd1 Tb1 3.027070 1_655
Pd1 Tb2 3.027074 1_555
Pd1 Tb2 3.027074 1_556
Pd2 Tb2 3.057174 1_555
Pd2 Tb0 3.057175 1_455
Pd2 Tb1 3.057175 1_545
