# generated using pymatgen
data_Mn3P6WO24
_symmetry_space_group_name_H-M   'P 1'
_cell_length_a   8.72390484
_cell_length_b   8.72390484
_cell_length_c   8.72390440
_cell_angle_alpha   58.41919507
_cell_angle_beta   58.41919507
_cell_angle_gamma   58.41919794
_symmetry_Int_Tables_number   1
_chemical_formula_structural   Mn3P6WO24
_chemical_formula_sum   'Mn3 P6 W1 O24'
_cell_volume   452.49554219
_cell_formula_units_Z   1
loop_
 _symmetry_equiv_pos_site_id
 _symmetry_equiv_pos_as_xyz
  1  'x, y, z'
loop_
 _atom_site_type_symbol
 _atom_site_label
 _atom_site_symmetry_multiplicity
 _atom_site_fract_x
 _atom_site_fract_y
 _atom_site_fract_z
 _atom_site_occupancy
  Mn  Mn0  1  0.14337700  0.14337700  0.14337700  1
  Mn  Mn1  1  0.35823900  0.35823900  0.35823900  1
  Mn  Mn2  1  0.64470100  0.64470100  0.64470100  1
  P  P0  1  0.74920900  0.03737600  0.45736900  1
  P  P1  1  0.03737600  0.45736900  0.74920900  1
  P  P2  1  0.45736900  0.74920900  0.03737600  1
  P  P3  1  0.52431900  0.26244500  0.96786000  1
  P  P4  1  0.96786000  0.52431900  0.26244500  1
  P  P5  1  0.26244500  0.96786000  0.52431900  1
  W  W0  1  0.85942700  0.85942700  0.85942700  1
  O  O0  1  0.27229700  0.14395200  0.51289900  1
  O  O1  1  0.51289900  0.27229700  0.14395200  1
  O  O2  1  0.92868500  0.05747800  0.28044200  1
  O  O3  1  0.14395200  0.51289900  0.27229700  1
  O  O4  1  0.57216900  0.21974300  0.44508800  1
  O  O5  1  0.77942700  0.00213600  0.63824900  1
  O  O6  1  0.05747800  0.28044200  0.92868500  1
  O  O7  1  0.21974300  0.44508800  0.57216900  1
  O  O8  1  0.44508800  0.57216900  0.21974300  1
  O  O9  1  0.35733300  0.22896400  0.98906000  1
  O  O10  1  0.70996500  0.07886100  0.93824700  1
  O  O11  1  0.98906000  0.35733300  0.22896400  1
  O  O12  1  0.00213600  0.63824900  0.77942700  1
  O  O13  1  0.28044200  0.92868500  0.05747800  1
  O  O14  1  0.63824900  0.77942700  0.00213600  1
  O  O15  1  0.55684300  0.42993000  0.78142200  1
  O  O16  1  0.78142200  0.55684300  0.42993000  1
  O  O17  1  0.93824700  0.70996500  0.07886100  1
  O  O18  1  0.22896400  0.98906000  0.35733300  1
  O  O19  1  0.42993000  0.78142200  0.55684300  1
  O  O20  1  0.85978700  0.48526500  0.72743600  1
  O  O21  1  0.07886100  0.93824700  0.70996500  1
  O  O22  1  0.48526500  0.72743600  0.85978700  1
  O  O23  1  0.72743600  0.85978700  0.48526500  1
loop_
_geom_bond_atom_site_label_1
_geom_bond_atom_site_label_2
_geom_bond_distance
_geom_bond_site_symmetry_2
Mn0 O18 1.904934 1_545
Mn0 O9 1.904935 1_554
Mn0 O11 1.904935 1_455
Mn0 O6 1.919668 1_554
Mn0 O2 1.919668 1_455
Mn0 O13 1.919668 1_545
Mn1 O1 1.908910 1_555
Mn1 O0 1.908910 1_555
Mn1 O3 1.908910 1_555
Mn1 O7 1.917652 1_555
Mn1 O8 1.917652 1_555
Mn1 O4 1.917652 1_555
Mn2 O22 1.899958 1_555
Mn2 O23 1.899958 1_555
Mn2 O20 1.899958 1_555
Mn2 O16 1.930429 1_555
Mn2 O15 1.930429 1_555
Mn2 O19 1.930429 1_555
O0 P5 1.531755 1_545
O1 P3 1.531755 1_554
O2 P0 1.528881 1_555
O3 P4 1.531755 1_455
O4 P0 1.532692 1_555
O5 P0 1.580105 1_555
O5 W0 1.935063 1_545
O6 P1 1.528881 1_555
O7 P1 1.532692 1_555
O8 P2 1.532692 1_555
O9 P3 1.532511 1_555
O10 P3 1.591565 1_555
O10 W0 1.913853 1_545
O11 P4 1.532511 1_555
O12 P1 1.580105 1_555
O12 W0 1.935063 1_455
O13 P2 1.528881 1_555
O14 P2 1.580105 1_555
O14 W0 1.935063 1_554
O15 P3 1.523985 1_555
O16 P4 1.523985 1_555
O17 P4 1.591565 1_555
O17 W0 1.913853 1_554
O18 P5 1.532511 1_555
O19 P5 1.523985 1_555
O20 P1 1.536374 1_655
O21 P5 1.591565 1_555
O21 W0 1.913853 1_455
O22 P2 1.536374 1_556
O23 P0 1.536374 1_565
