# generated using pymatgen
data_YbAlRh
_symmetry_space_group_name_H-M   'P 1'
_cell_length_a   4.10459029
_cell_length_b   6.74425782
_cell_length_c   7.90325673
_cell_angle_alpha   90.00000000
_cell_angle_beta   90.00000000
_cell_angle_gamma   90.00000000
_symmetry_Int_Tables_number   1
_chemical_formula_structural   YbAlRh
_chemical_formula_sum   'Yb4 Al4 Rh4'
_cell_volume   218.78123386
_cell_formula_units_Z   4
loop_
 _symmetry_equiv_pos_site_id
 _symmetry_equiv_pos_as_xyz
  1  'x, y, z'
loop_
 _atom_site_type_symbol
 _atom_site_label
 _atom_site_symmetry_multiplicity
 _atom_site_fract_x
 _atom_site_fract_y
 _atom_site_fract_z
 _atom_site_occupancy
  Yb  Yb0  1  0.75000000  0.96309159  0.32170516  1
  Yb  Yb1  1  0.25000000  0.03690841  0.67829484  1
  Yb  Yb2  1  0.25000000  0.53690841  0.82170516  1
  Yb  Yb3  1  0.75000000  0.46309159  0.17829484  1
  Al  Al0  1  0.75000000  0.86532795  0.94133573  1
  Al  Al1  1  0.25000000  0.13467205  0.05866427  1
  Al  Al2  1  0.25000000  0.63467205  0.44133573  1
  Al  Al3  1  0.75000000  0.36532795  0.55866427  1
  Rh  Rh0  1  0.75000000  0.73831932  0.62465709  1
  Rh  Rh1  1  0.25000000  0.26168068  0.37534291  1
  Rh  Rh2  1  0.25000000  0.76168068  0.12465709  1
  Rh  Rh3  1  0.75000000  0.23831932  0.87534291  1
loop_
_geom_bond_atom_site_label_1
_geom_bond_atom_site_label_2
_geom_bond_distance
_geom_bond_site_symmetry_2
Al0 Rh3 2.569049 1_565
Al0 Rh2 2.607619 1_656
Al0 Rh2 2.607619 1_556
Al0 Rh0 2.645316 1_555
Al1 Rh2 2.569049 1_545
Al1 Rh3 2.607619 1_554
Al1 Rh3 2.607619 1_454
Al1 Rh1 2.645316 1_555
Al2 Rh1 2.569049 1_555
Al2 Rh0 2.607619 1_555
Al2 Rh0 2.607619 1_455
Al2 Rh2 2.645316 1_555
Al3 Rh0 2.569049 1_555
Al3 Rh1 2.607619 1_655
Al3 Rh1 2.607619 1_555
Al3 Rh3 2.645316 1_555
Rh0 Yb0 2.833853 1_555
Rh0 Yb1 2.906347 1_665
Rh0 Yb1 2.906347 1_565
Rh0 Yb2 2.912443 1_555
Rh0 Yb2 2.912443 1_655
Rh1 Yb1 2.833853 1_555
Rh1 Yb0 2.906347 1_445
Rh1 Yb0 2.906347 1_545
Rh1 Yb3 2.912443 1_555
Rh1 Yb3 2.912443 1_455
Rh2 Yb2 2.833853 1_554
Rh2 Yb3 2.906347 1_555
Rh2 Yb3 2.906347 1_455
Rh2 Yb0 2.912443 1_555
Rh2 Yb0 2.912443 1_455
Rh3 Yb3 2.833853 1_556
Rh3 Yb2 2.906347 1_555
Rh3 Yb2 2.906347 1_655
Rh3 Yb1 2.912443 1_555
Rh3 Yb1 2.912443 1_655
