# generated using pymatgen
data_MgSi
_symmetry_space_group_name_H-M   'P 1'
_cell_length_a   4.56384600
_cell_length_b   5.40487635
_cell_length_c   9.40367510
_cell_angle_alpha   83.45659567
_cell_angle_beta   81.93157904
_cell_angle_gamma   83.32133518
_symmetry_Int_Tables_number   1
_chemical_formula_structural   MgSi
_chemical_formula_sum   'Mg6 Si6'
_cell_volume   226.97903534
_cell_formula_units_Z   6
loop_
 _symmetry_equiv_pos_site_id
 _symmetry_equiv_pos_as_xyz
  1  'x, y, z'
loop_
 _atom_site_type_symbol
 _atom_site_label
 _atom_site_symmetry_multiplicity
 _atom_site_fract_x
 _atom_site_fract_y
 _atom_site_fract_z
 _atom_site_occupancy
  Mg  Mg0  1  0.75301300  0.15694000  0.58172800  1
  Mg  Mg1  1  0.77333800  0.37864400  0.89124300  1
  Mg  Mg2  1  0.22666200  0.62135600  0.10875700  1
  Mg  Mg3  1  0.76186500  0.08814700  0.22278900  1
  Mg  Mg4  1  0.23813500  0.91185300  0.77721100  1
  Mg  Mg5  1  0.24698700  0.84306000  0.41827200  1
  Si  Si0  1  0.27311200  0.33918600  0.40659200  1
  Si  Si1  1  0.69711100  0.86953200  0.93805200  1
  Si  Si2  1  0.72688800  0.66081400  0.59340800  1
  Si  Si3  1  0.22813500  0.43747700  0.66198600  1
  Si  Si4  1  0.77186500  0.56252300  0.33801400  1
  Si  Si5  1  0.30288900  0.13046800  0.06194800  1
loop_
_geom_bond_atom_site_label_1
_geom_bond_atom_site_label_2
_geom_bond_distance
_geom_bond_site_symmetry_2
Mg0 Si2 2.687059 1_545
Mg0 Si2 2.726175 1_555
Mg0 Si3 2.741419 1_555
Mg0 Si0 2.897169 1_655
Mg0 Si0 2.936081 1_555
Mg0 Si4 2.984745 1_555
Mg0 Si3 3.009239 1_655
Mg1 Si1 2.713427 1_555
Mg1 Si1 2.791091 1_545
Mg1 Si3 2.792530 1_655
Mg1 Si5 2.863144 1_556
Mg1 Si2 3.054993 1_555
Mg1 Si5 3.171940 1_656
Mg2 Si5 2.713427 1_555
Mg2 Si5 2.791091 1_565
Mg2 Si4 2.792530 1_455
Mg2 Si1 2.863144 1_554
Mg2 Si0 3.054993 1_555
Mg2 Si1 3.171940 1_454
Mg3 Si5 2.725211 1_555
Mg3 Si5 2.727793 1_655
Mg3 Si4 2.902450 1_555
Mg3 Si4 2.920478 1_545
Mg3 Si0 2.924424 1_555
Mg3 Si1 3.110836 1_544
Mg4 Si1 2.725211 1_555
Mg4 Si1 2.727793 1_455
Mg4 Si3 2.902450 1_555
Mg4 Si3 2.920478 1_565
Mg4 Si2 2.924424 1_555
Mg4 Si5 3.110836 1_566
Mg5 Si0 2.687059 1_565
Mg5 Si0 2.726175 1_555
Mg5 Si4 2.741419 1_555
Mg5 Si2 2.897169 1_455
Mg5 Si2 2.936081 1_555
Mg5 Si3 2.984745 1_555
Mg5 Si4 3.009239 1_455
Si0 Si3 2.493849 1_555
Si0 Si4 2.588544 1_455
Si0 Si4 2.665306 1_555
Si1 Si5 2.404017 1_566
Si2 Si4 2.493849 1_555
Si2 Si3 2.588544 1_655
Si2 Si3 2.665306 1_555
