# generated using pymatgen
data_HoAlB4
_symmetry_space_group_name_H-M   'P 1'
_cell_length_a   3.53998059
_cell_length_b   5.93185449
_cell_length_c   11.50262413
_cell_angle_alpha   90.00000000
_cell_angle_beta   90.00000000
_cell_angle_gamma   90.00000000
_symmetry_Int_Tables_number   1
_chemical_formula_structural   HoAlB4
_chemical_formula_sum   'Ho4 Al4 B16'
_cell_volume   241.53957540
_cell_formula_units_Z   4
loop_
 _symmetry_equiv_pos_site_id
 _symmetry_equiv_pos_as_xyz
  1  'x, y, z'
loop_
 _atom_site_type_symbol
 _atom_site_label
 _atom_site_symmetry_multiplicity
 _atom_site_fract_x
 _atom_site_fract_y
 _atom_site_fract_z
 _atom_site_occupancy
  Ho  Ho0  1  0.50000000  0.37144072  0.15007994  1
  Ho  Ho1  1  0.50000000  0.62855928  0.84992006  1
  Ho  Ho2  1  0.50000000  0.12855928  0.65007994  1
  Ho  Ho3  1  0.50000000  0.87144072  0.34992006  1
  Al  Al0  1  0.50000000  0.36268865  0.41000980  1
  Al  Al1  1  0.50000000  0.63731135  0.58999020  1
  Al  Al2  1  0.50000000  0.13731135  0.91000980  1
  Al  Al3  1  0.50000000  0.86268865  0.08999020  1
  B  B0  1  -0.00000000  0.11389378  0.04698379  1
  B  B1  1  -0.00000000  0.88610622  0.95301621  1
  B  B2  1  -0.00000000  0.38610622  0.54698379  1
  B  B3  1  0.00000000  0.61389378  0.45301621  1
  B  B4  1  -0.00000000  0.13354588  0.46925513  1
  B  B5  1  -0.00000000  0.86645412  0.53074487  1
  B  B6  1  -0.00000000  0.36645412  0.96925513  1
  B  B7  1  0.00000000  0.63354588  0.03074487  1
  B  B8  1  0.00000000  0.02680996  0.19246769  1
  B  B9  1  -0.00000000  0.97319004  0.80753231  1
  B  B10  1  -0.00000000  0.47319004  0.69246769  1
  B  B11  1  0.00000000  0.52680996  0.30753231  1
  B  B12  1  0.00000000  0.21085914  0.31273309  1
  B  B13  1  -0.00000000  0.78914086  0.68726691  1
  B  B14  1  -0.00000000  0.28914086  0.81273309  1
  B  B15  1  0.00000000  0.71085914  0.18726691  1
loop_
_geom_bond_atom_site_label_1
_geom_bond_atom_site_label_2
_geom_bond_distance
_geom_bond_site_symmetry_2
Al0 B12 2.279478 1_555
Al0 B12 2.279478 1_655
Al0 B4 2.333412 1_655
Al0 B4 2.333412 1_555
Al0 B11 2.338831 1_655
Al0 B11 2.338831 1_555
Al0 B3 2.366012 1_555
Al0 B3 2.366012 1_655
Al0 B2 2.373721 1_555
Al0 B2 2.373721 1_655
Al1 B13 2.279478 1_555
Al1 B13 2.279478 1_655
Al1 B5 2.333412 1_555
Al1 B5 2.333412 1_655
Al1 B10 2.338831 1_555
Al1 B10 2.338831 1_655
Al1 B2 2.366012 1_555
Al1 B2 2.366012 1_655
Al1 B3 2.373721 1_555
Al1 B3 2.373721 1_655
Al2 B14 2.279478 1_555
Al2 B14 2.279478 1_655
Al2 B6 2.333412 1_555
Al2 B6 2.333412 1_655
Al2 B9 2.338831 1_645
Al2 B9 2.338831 1_545
Al2 B1 2.366012 1_645
Al2 B1 2.366012 1_545
Al2 B0 2.373721 1_556
Al2 B0 2.373721 1_656
Al3 B15 2.279478 1_555
Al3 B15 2.279478 1_655
Al3 B7 2.333412 1_655
Al3 B7 2.333412 1_555
Al3 B8 2.338831 1_565
Al3 B8 2.338831 1_665
Al3 B0 2.366012 1_665
Al3 B0 2.366012 1_565
Al3 B1 2.373721 1_654
Al3 B1 2.373721 1_554
B0 B1 1.730328 1_544
B0 B6 1.744661 1_554
B0 B8 1.751361 1_555
B0 Ho0 2.621666 1_455
B0 Ho0 2.621666 1_555
B1 B7 1.744661 1_556
B1 B9 1.751361 1_555
B1 Ho1 2.621666 1_555
B1 Ho1 2.621666 1_455
B2 B3 1.730328 1_555
B2 B4 1.744661 1_555
B2 Ho2 2.621666 1_555
B2 Ho2 2.621666 1_455
B3 B5 1.744661 1_555
B3 Ho3 2.621666 1_455
B3 Ho3 2.621666 1_555
B4 B5 1.735058 1_545
B4 Ho3 2.726607 1_445
B4 Ho3 2.726607 1_545
B4 Ho2 2.731295 1_455
B4 Ho2 2.731295 1_555
B5 Ho2 2.726607 1_465
B5 Ho2 2.726607 1_565
B5 Ho3 2.731295 1_555
B5 Ho3 2.731295 1_455
B6 B7 1.735058 1_556
B6 Ho1 2.726607 1_555
B6 Ho1 2.726607 1_455
B6 Ho0 2.731295 1_556
B6 Ho0 2.731295 1_456
B7 Ho0 2.726607 1_555
B7 Ho0 2.726607 1_455
B7 Ho1 2.731295 1_454
B7 Ho1 2.731295 1_554
B8 Ho3 2.694884 1_545
B8 Ho3 2.694884 1_445
B8 Ho0 2.747681 1_555
B8 Ho0 2.747681 1_455
B9 Ho2 2.694884 1_565
B9 Ho2 2.694884 1_465
B9 Ho1 2.747681 1_455
B9 Ho1 2.747681 1_555
B10 B2 1.751361 1_555
B10 B14 1.762280 1_555
B10 B13 1.875129 1_555
B10 Ho1 2.694884 1_555
B10 Ho1 2.694884 1_455
B10 Ho2 2.747681 1_455
B10 Ho2 2.747681 1_555
B11 B3 1.751361 1_555
B11 B15 1.762280 1_555
B11 B12 1.875129 1_555
B11 Ho0 2.694884 1_555
B11 Ho0 2.694884 1_455
B11 Ho3 2.747681 1_555
B11 Ho3 2.747681 1_455
B12 B8 1.762280 1_555
B12 B4 1.857906 1_555
B12 Ho3 2.714689 1_545
B12 Ho3 2.714689 1_445
B12 Ho0 2.746019 1_555
B12 Ho0 2.746019 1_455
B13 B9 1.762280 1_555
B13 B5 1.857906 1_555
B13 Ho2 2.714689 1_565
B13 Ho2 2.714689 1_465
B13 Ho1 2.746019 1_555
B13 Ho1 2.746019 1_455
B14 B6 1.857906 1_555
B14 B9 1.875129 1_545
B14 Ho1 2.714689 1_555
B14 Ho1 2.714689 1_455
B14 Ho2 2.746019 1_455
B14 Ho2 2.746019 1_555
B15 B7 1.857906 1_555
B15 B8 1.875129 1_565
B15 Ho0 2.714689 1_455
B15 Ho0 2.714689 1_555
B15 Ho3 2.746019 1_555
B15 Ho3 2.746019 1_455
