# generated using pymatgen
data_Li2MnVP2(HO5)2
_symmetry_space_group_name_H-M   'P 1'
_cell_length_a   5.47323500
_cell_length_b   7.32065737
_cell_length_c   14.33642216
_cell_angle_alpha   94.16402547
_cell_angle_beta   93.56911685
_cell_angle_gamma   106.67905088
_symmetry_Int_Tables_number   1
_chemical_formula_structural   Li2MnVP2(HO5)2
_chemical_formula_sum   'Li6 Mn3 V3 P6 H6 O30'
_cell_volume   546.72745826
_cell_formula_units_Z   3
loop_
 _symmetry_equiv_pos_site_id
 _symmetry_equiv_pos_as_xyz
  1  'x, y, z'
loop_
 _atom_site_type_symbol
 _atom_site_label
 _atom_site_symmetry_multiplicity
 _atom_site_fract_x
 _atom_site_fract_y
 _atom_site_fract_z
 _atom_site_occupancy
  Li  Li0  1  0.68842700  0.25912900  0.08153200  1
  Li  Li1  1  0.64872200  0.07271600  0.25144000  1
  Li  Li2  1  0.35127800  0.92728400  0.74856000  1
  Li  Li3  1  0.31157300  0.74087100  0.91846800  1
  Li  Li4  1  0.01942700  0.58658800  0.41612700  1
  Li  Li5  1  0.98057300  0.41341200  0.58387300  1
  Mn  Mn0  1  0.83288300  0.33430800  0.83346000  1
  Mn  Mn1  1  0.50000000  0.50000000  0.50000000  1
  Mn  Mn2  1  0.16711700  0.66569200  0.16654000  1
  V  V0  1  0.83139400  0.83344400  0.83348500  1
  V  V1  1  0.50000000  0.00000000  0.50000000  1
  V  V2  1  0.16860600  0.16655600  0.16651500  1
  P  P0  1  0.64279400  0.50842300  0.27552600  1
  P  P1  1  0.69137600  0.82469700  0.05813900  1
  P  P2  1  0.30862400  0.17530300  0.94186100  1
  P  P3  1  0.35720600  0.49157700  0.72447400  1
  P  P4  1  0.97234800  0.84283400  0.60688800  1
  P  P5  1  0.02765200  0.15716600  0.39311200  1
  H  H0  1  0.77636900  0.05569900  0.71361200  1
  H  H1  1  0.55436000  0.28683000  0.61958800  1
  H  H2  1  0.22363100  0.94430100  0.28638800  1
  H  H3  1  0.44564000  0.71317000  0.38041200  1
  H  H4  1  0.11112400  0.38708400  0.04587300  1
  H  H5  1  0.88887600  0.61291600  0.95412700  1
  O  O0  1  0.69486000  0.88660000  0.95656100  1
  O  O1  1  0.79088800  0.00934700  0.12881100  1
  O  O2  1  0.79605500  0.97186800  0.59134400  1
  O  O3  1  0.73985900  0.04664700  0.39831300  1
  O  O4  1  0.73284400  0.05811500  0.78013400  1
  O  O5  1  0.59861500  0.27308800  0.93392100  1
  O  O6  1  0.54453900  0.32437900  0.20392200  1
  O  O7  1  0.63870100  0.44465600  0.37654100  1
  O  O8  1  0.60162600  0.28573200  0.55316600  1
  O  O9  1  0.20911200  0.99065300  0.87118900  1
  O  O10  1  0.30514000  0.11340000  0.04343900  1
  O  O11  1  0.26715600  0.94188500  0.21986600  1
  O  O12  1  0.51978200  0.35498000  0.73672700  1
  O  O13  1  0.48021800  0.64502000  0.26327300  1
  O  O14  1  0.26014100  0.95335300  0.60168700  1
  O  O15  1  0.40138500  0.72691200  0.06607900  1
  O  O16  1  0.20394500  0.02813200  0.40865600  1
  O  O17  1  0.14608400  0.31201800  0.92979800  1
  O  O18  1  0.39837400  0.71426800  0.44683400  1
  O  O19  1  0.36129900  0.55534400  0.62345900  1
  O  O20  1  0.45546100  0.67562100  0.79607800  1
  O  O21  1  0.06860200  0.39057600  0.11290200  1
  O  O22  1  0.03504400  0.21413500  0.29047800  1
  O  O23  1  0.10731000  0.33941800  0.46250400  1
  O  O24  1  0.06698300  0.39370600  0.73293400  1
  O  O25  1  0.93139800  0.60942400  0.88709800  1
  O  O26  1  0.93301700  0.60629400  0.26706600  1
  O  O27  1  0.85391600  0.68798200  0.07020200  1
  O  O28  1  0.89269000  0.66058200  0.53749600  1
  O  O29  1  0.96495600  0.78586500  0.70952200  1
loop_
_geom_bond_atom_site_label_1
_geom_bond_atom_site_label_2
_geom_bond_distance
_geom_bond_site_symmetry_2
Li0 O21 2.032042 1_655
Li0 O6 2.047776 1_555
Li0 O10 2.079736 1_555
Li0 O5 2.158972 1_554
Li0 O1 2.199745 1_555
Li1 O11 2.038337 1_545
Li1 O1 2.042184 1_555
Li1 O22 2.089933 1_655
Li1 O3 2.168216 1_555
Li1 O6 2.218192 1_555
Li2 O4 2.038337 1_565
Li2 O9 2.042184 1_555
Li2 O29 2.089933 1_455
Li2 O14 2.168216 1_555
Li2 O20 2.218192 1_555
Li3 O25 2.032042 1_455
Li3 O20 2.047776 1_555
Li3 O0 2.079736 1_555
Li3 O15 2.158972 1_556
Li3 O9 2.199745 1_555
Li4 O28 2.007800 1_455
Li4 O18 2.020635 1_555
Li4 O7 2.065962 1_455
Li4 O23 2.140566 1_555
Li4 O26 2.183886 1_455
Li5 O23 2.007800 1_655
Li5 O8 2.020635 1_555
Li5 O19 2.065962 1_655
Li5 O28 2.140566 1_555
Li5 O24 2.183886 1_655
Mn0 O24 1.977089 1_655
Mn0 O5 1.978138 1_555
Mn0 O25 2.009596 1_555
Mn0 O4 2.015023 1_555
Mn0 O12 2.183178 1_555
Mn0 O17 2.184321 1_655
Mn1 O8 1.993104 1_555
Mn1 O18 1.993104 1_555
Mn1 O19 2.028031 1_555
Mn1 O7 2.028031 1_555
Mn1 O28 2.145785 1_555
Mn1 O23 2.145785 1_555
Mn2 O26 1.977089 1_455
Mn2 O15 1.978138 1_555
Mn2 O21 2.009596 1_555
Mn2 O11 2.015023 1_555
Mn2 O13 2.183178 1_555
Mn2 O27 2.184321 1_455
H0 O4 0.997416 1_555
H1 O8 1.002262 1_555
H1 O12 1.754151 1_555
H2 O11 0.997416 1_555
H3 O18 1.002262 1_555
H3 O13 1.754151 1_555
H4 O21 1.002969 1_555
H4 O17 1.753575 1_554
H5 O25 1.002969 1_555
H5 O27 1.753575 1_556
O0 P1 1.555883 1_556
O0 V0 2.013601 1_555
O1 P1 1.568510 1_545
O1 V2 2.072529 1_655
O2 P4 1.549182 1_555
O2 V1 2.085540 1_565
O3 P5 1.559848 1_655
O3 V1 2.004638 1_555
O4 V0 2.054675 1_545
O5 P2 1.557787 1_555
O6 P0 1.572506 1_555
O6 V2 2.064973 1_555
O7 P0 1.553029 1_555
O8 V1 2.076913 1_555
O9 P2 1.568510 1_565
O9 V0 2.072529 1_455
O10 P2 1.555883 1_554
O10 V2 2.013601 1_555
O11 V2 2.054675 1_565
O12 P3 1.529511 1_555
O13 P0 1.529511 1_555
O14 P4 1.559848 1_455
O14 V1 2.004638 1_565
O15 P1 1.557787 1_555
O16 P5 1.549182 1_555
O16 V1 2.085540 1_555
O17 P2 1.529736 1_555
O18 V1 2.076913 1_565
O19 P3 1.553029 1_555
O20 P3 1.572506 1_555
O20 V0 2.064973 1_555
O21 V2 2.055678 1_555
O22 P5 1.558025 1_555
O22 V2 2.008011 1_555
O23 P5 1.542470 1_555
O24 P3 1.560311 1_555
O25 V0 2.055678 1_555
O26 P0 1.560311 1_555
O27 P1 1.529736 1_555
O28 P4 1.542470 1_555
O29 P4 1.558025 1_555
O29 V0 2.008011 1_555
