# generated using pymatgen
data_SrNd3(NiO4)2
_symmetry_space_group_name_H-M   'P 1'
_cell_length_a   6.82398597
_cell_length_b   6.82398597
_cell_length_c   5.39620500
_cell_angle_alpha   90.00000000
_cell_angle_beta   90.00000000
_cell_angle_gamma   133.70037519
_symmetry_Int_Tables_number   1
_chemical_formula_structural   SrNd3(NiO4)2
_chemical_formula_sum   'Sr1 Nd3 Ni2 O8'
_cell_volume   181.66887839
_cell_formula_units_Z   1
loop_
 _symmetry_equiv_pos_site_id
 _symmetry_equiv_pos_as_xyz
  1  'x, y, z'
loop_
 _atom_site_type_symbol
 _atom_site_label
 _atom_site_symmetry_multiplicity
 _atom_site_fract_x
 _atom_site_fract_y
 _atom_site_fract_z
 _atom_site_occupancy
  Sr  Sr0  1  0.85694500  0.14305500  0.50000000  1
  Nd  Nd0  1  0.36288700  0.63711300  0.00000000  1
  Nd  Nd1  1  0.63915200  0.36084800  0.00000000  1
  Nd  Nd2  1  0.13692100  0.86307900  0.50000000  1
  Ni  Ni0  1  0.49742700  0.50257300  0.50000000  1
  Ni  Ni1  1  0.99652500  0.00347500  0.00000000  1
  O  O0  1  0.17926400  0.82073600  0.00000000  1
  O  O1  1  0.66427500  0.33572500  0.50000000  1
  O  O2  1  0.32399500  0.67600500  0.50000000  1
  O  O3  1  0.82412900  0.17587100  0.00000000  1
  O  O4  1  0.25399600  0.24475500  0.75997400  1
  O  O5  1  0.75524500  0.74600400  0.24002600  1
  O  O6  1  0.25399600  0.24475500  0.24002600  1
  O  O7  1  0.75524500  0.74600400  0.75997400  1
loop_
_geom_bond_atom_site_label_1
_geom_bond_atom_site_label_2
_geom_bond_distance
_geom_bond_site_symmetry_2
Nd0 O0 2.304292 1_555
Nd0 O4 2.578644 1_554
Nd0 O7 2.578644 1_554
Nd0 O5 2.578644 1_555
Nd0 O6 2.578644 1_555
Nd0 O3 2.726492 1_565
Nd0 O3 2.726492 1_455
Nd0 O2 2.741889 1_554
Nd0 O2 2.741889 1_555
Nd1 O3 2.321283 1_555
Nd1 O7 2.517156 1_554
Nd1 O5 2.517156 1_555
Nd1 O6 2.517156 1_555
Nd1 O4 2.517156 1_554
Nd1 O1 2.716459 1_555
Nd1 O1 2.716459 1_554
Nd1 O0 2.729574 1_545
Nd1 O0 2.729574 1_655
Nd2 O2 2.347599 1_555
Nd2 O7 2.552407 1_455
Nd2 O5 2.552407 1_455
Nd2 O4 2.552407 1_565
Nd2 O6 2.552407 1_565
Nd2 O1 2.704631 1_565
Nd2 O1 2.704631 1_455
Nd2 O0 2.749928 1_556
Nd2 O0 2.749928 1_555
Ni0 O7 1.945379 1_555
Ni0 O5 1.945379 1_555
Ni0 O4 1.945379 1_555
Ni0 O6 1.945379 1_555
Ni0 O1 2.093782 1_555
Ni0 O2 2.176405 1_555
Ni1 O4 1.865010 1_654
Ni1 O6 1.865010 1_655
Ni1 O7 1.865010 1_544
Ni1 O5 1.865010 1_545
Ni1 O3 2.163404 1_555
Ni1 O0 2.293199 1_645
O1 Sr0 2.417823 1_555
O2 Sr0 2.714437 1_565
O2 Sr0 2.714437 1_455
O3 Sr0 2.729349 1_555
O3 Sr0 2.729349 1_554
O4 Sr0 2.681915 1_455
O5 Sr0 2.681915 1_565
O6 Sr0 2.681915 1_455
O7 Sr0 2.681915 1_565
