# generated using pymatgen
data_UH4(C2O5)2
_symmetry_space_group_name_H-M   'P 1'
_cell_length_a   6.79855685
_cell_length_b   6.79855685
_cell_length_c   9.64457413
_cell_angle_alpha   89.34924147
_cell_angle_beta   89.34924147
_cell_angle_gamma   77.93864605
_symmetry_Int_Tables_number   1
_chemical_formula_structural   UH4(C2O5)2
_chemical_formula_sum   'U2 H8 C8 O20'
_cell_volume   435.88855123
_cell_formula_units_Z   2
loop_
 _symmetry_equiv_pos_site_id
 _symmetry_equiv_pos_as_xyz
  1  'x, y, z'
loop_
 _atom_site_type_symbol
 _atom_site_label
 _atom_site_symmetry_multiplicity
 _atom_site_fract_x
 _atom_site_fract_y
 _atom_site_fract_z
 _atom_site_occupancy
  U  U0  1  0.24942900  0.75057100  0.75000000  1
  U  U1  1  0.75057100  0.24942900  0.25000000  1
  H  H0  1  0.63907800  0.92622400  0.70955700  1
  H  H1  1  0.07377600  0.36092200  0.79044300  1
  H  H2  1  0.36092200  0.07377600  0.29044300  1
  H  H3  1  0.92622400  0.63907800  0.20955700  1
  H  H4  1  0.50713100  0.06603200  0.82411700  1
  H  H5  1  0.93396800  0.49286900  0.67588300  1
  H  H6  1  0.49286900  0.93396800  0.17588300  1
  H  H7  1  0.06603200  0.50713100  0.32411700  1
  C  C0  1  0.09731500  0.02643500  0.47238000  1
  C  C1  1  0.97356500  0.90268500  0.02762000  1
  C  C2  1  0.90268500  0.97356500  0.52762000  1
  C  C3  1  0.02643500  0.09731500  0.97238000  1
  C  C4  1  0.59614600  0.50630800  0.53825300  1
  C  C5  1  0.49369200  0.40385400  0.96174700  1
  C  C6  1  0.40385400  0.49369200  0.46174700  1
  C  C7  1  0.50630800  0.59614600  0.03825300  1
  O  O0  1  0.50726500  0.96019100  0.75696400  1
  O  O1  1  0.03980900  0.49273500  0.74303600  1
  O  O2  1  0.49273500  0.03980900  0.24303600  1
  O  O3  1  0.96019100  0.50726500  0.25696400  1
  O  O4  1  0.57476900  0.60467500  0.65015500  1
  O  O5  1  0.39532500  0.42523100  0.84984500  1
  O  O6  1  0.42523100  0.39532500  0.34984500  1
  O  O7  1  0.60467500  0.57476900  0.15015500  1
  O  O8  1  0.23875300  0.58150800  0.51513800  1
  O  O9  1  0.41849200  0.76124700  0.98486200  1
  O  O10  1  0.76124700  0.41849200  0.48486200  1
  O  O11  1  0.58150800  0.23875300  0.01513800  1
  O  O12  1  0.91178600  0.88636100  0.64548800  1
  O  O13  1  0.11363900  0.08821400  0.85451200  1
  O  O14  1  0.08821400  0.11363900  0.35451200  1
  O  O15  1  0.88636100  0.91178600  0.14548800  1
  O  O16  1  0.25010800  0.97895900  0.54797600  1
  O  O17  1  0.02104100  0.74989200  0.95202400  1
  O  O18  1  0.74989200  0.02104100  0.45202400  1
  O  O19  1  0.97895900  0.25010800  0.04797600  1
loop_
_geom_bond_atom_site_label_1
_geom_bond_atom_site_label_2
_geom_bond_distance
_geom_bond_site_symmetry_2
H0 O0 0.985925 1_555
H1 O1 0.985925 1_555
H2 O2 0.985925 1_555
H3 O3 0.985925 1_555
H4 O0 0.973417 1_545
H5 O1 0.973417 1_655
H6 O2 0.973417 1_565
H7 O3 0.973417 1_455
C0 O16 1.259578 1_545
C0 O14 1.272225 1_555
C1 O17 1.259578 1_654
C1 O15 1.272225 1_555
C2 O18 1.259578 1_565
C2 O12 1.272225 1_555
C3 O19 1.259578 1_456
C3 O13 1.272225 1_555
C4 O10 1.263043 1_555
C4 O4 1.267021 1_555
C5 O11 1.263043 1_556
C5 O5 1.267021 1_555
C6 O8 1.263043 1_555
C6 O6 1.267021 1_555
C7 O9 1.263043 1_554
C7 O7 1.267021 1_555
O0 U0 2.481333 1_555
O1 U0 2.481333 1_555
O2 U1 2.481333 1_555
O3 U1 2.481333 1_555
O4 U0 2.420707 1_555
O5 U0 2.420707 1_555
O6 U1 2.420707 1_555
O7 U1 2.420707 1_555
O8 U0 2.560267 1_555
O9 U0 2.560267 1_555
O10 U1 2.560267 1_555
O11 U1 2.560267 1_555
O12 U0 2.506654 1_655
O13 U0 2.506654 1_545
O14 U1 2.506654 1_455
O15 U1 2.506654 1_565
O16 U0 2.478184 1_555
O17 U0 2.478184 1_555
O18 U1 2.478184 1_555
O19 U1 2.478184 1_555
