# generated using pymatgen
data_Fe3P2H6O11
_symmetry_space_group_name_H-M   'P 1'
_cell_length_a   8.73408100
_cell_length_b   9.52546000
_cell_length_c   10.19749100
_cell_angle_alpha   90.00000000
_cell_angle_beta   90.00000000
_cell_angle_gamma   90.00000000
_symmetry_Int_Tables_number   1
_chemical_formula_structural   Fe3P2H6O11
_chemical_formula_sum   'Fe12 P8 H24 O44'
_cell_volume   848.39188075
_cell_formula_units_Z   4
loop_
 _symmetry_equiv_pos_site_id
 _symmetry_equiv_pos_as_xyz
  1  'x, y, z'
loop_
 _atom_site_type_symbol
 _atom_site_label
 _atom_site_symmetry_multiplicity
 _atom_site_fract_x
 _atom_site_fract_y
 _atom_site_fract_z
 _atom_site_occupancy
  Fe  Fe0  1  0.00000000  0.00000000  0.50000000  1
  Fe  Fe1  1  0.50000000  0.50000000  0.00000000  1
  Fe  Fe2  1  0.50000000  0.50000000  0.50000000  1
  Fe  Fe3  1  0.00000000  0.00000000  0.00000000  1
  Fe  Fe4  1  0.63549700  0.93255800  0.59523300  1
  Fe  Fe5  1  0.86450300  0.56744200  0.09523300  1
  Fe  Fe6  1  0.13549700  0.56744200  0.40476700  1
  Fe  Fe7  1  0.36450300  0.93255800  0.90476700  1
  Fe  Fe8  1  0.36450300  0.06744200  0.40476700  1
  Fe  Fe9  1  0.13549700  0.43255800  0.90476700  1
  Fe  Fe10  1  0.86450300  0.43255800  0.59523300  1
  Fe  Fe11  1  0.63549700  0.06744200  0.09523300  1
  P  P0  1  0.29160100  0.79544600  0.60990500  1
  P  P1  1  0.20839900  0.70455400  0.10990500  1
  P  P2  1  0.79160100  0.70455400  0.39009500  1
  P  P3  1  0.70839900  0.79544600  0.89009500  1
  P  P4  1  0.70839900  0.20455400  0.39009500  1
  P  P5  1  0.79160100  0.29544600  0.89009500  1
  P  P6  1  0.20839900  0.29544600  0.60990500  1
  P  P7  1  0.29160100  0.20455400  0.10990500  1
  H  H0  1  0.44139900  0.14142200  0.69353200  1
  H  H1  1  0.05860100  0.35857800  0.19353200  1
  H  H2  1  0.94139900  0.35857800  0.30646800  1
  H  H3  1  0.55860100  0.14142200  0.80646800  1
  H  H4  1  0.55860100  0.85857800  0.30646800  1
  H  H5  1  0.94139900  0.64142200  0.80646800  1
  H  H6  1  0.05860100  0.64142200  0.69353200  1
  H  H7  1  0.44139900  0.85857800  0.19353200  1
  H  H8  1  0.15688800  0.12916800  0.79782500  1
  H  H9  1  0.34311200  0.37083200  0.29782500  1
  H  H10  1  0.65688800  0.37083200  0.20217500  1
  H  H11  1  0.84311200  0.12916800  0.70217500  1
  H  H12  1  0.84311200  0.87083200  0.20217500  1
  H  H13  1  0.65688800  0.62916800  0.70217500  1
  H  H14  1  0.34311200  0.62916800  0.79782500  1
  H  H15  1  0.15688800  0.87083200  0.29782500  1
  H  H16  1  0.12955500  0.96563700  0.75202300  1
  H  H17  1  0.37044500  0.53436300  0.25202300  1
  H  H18  1  0.62955500  0.53436300  0.24797700  1
  H  H19  1  0.87044500  0.96563700  0.74797700  1
  H  H20  1  0.87044500  0.03436300  0.24797700  1
  H  H21  1  0.62955500  0.46563700  0.74797700  1
  H  H22  1  0.37044500  0.46563700  0.75202300  1
  H  H23  1  0.12955500  0.03436300  0.25202300  1
  O  O0  1  0.33393200  0.77594600  0.75693000  1
  O  O1  1  0.16606800  0.72405400  0.25693000  1
  O  O2  1  0.83393200  0.72405400  0.24307000  1
  O  O3  1  0.66606800  0.77594600  0.74307000  1
  O  O4  1  0.66606800  0.22405400  0.24307000  1
  O  O5  1  0.83393200  0.27594600  0.74307000  1
  O  O6  1  0.16606800  0.27594600  0.75693000  1
  O  O7  1  0.33393200  0.22405400  0.25693000  1
  O  O8  1  0.40862300  0.89537600  0.54290500  1
  O  O9  1  0.09137700  0.60462400  0.04290500  1
  O  O10  1  0.90862300  0.60462400  0.45709500  1
  O  O11  1  0.59137700  0.89537600  0.95709500  1
  O  O12  1  0.59137700  0.10462400  0.45709500  1
  O  O13  1  0.90862300  0.39537600  0.95709500  1
  O  O14  1  0.09137700  0.39537600  0.54290500  1
  O  O15  1  0.40862300  0.10462400  0.04290500  1
  O  O16  1  0.29385400  0.64946400  0.54147200  1
  O  O17  1  0.20614600  0.85053600  0.04147200  1
  O  O18  1  0.79385400  0.85053600  0.45852800  1
  O  O19  1  0.70614600  0.64946400  0.95852800  1
  O  O20  1  0.70614600  0.35053600  0.45852800  1
  O  O21  1  0.79385400  0.14946400  0.95852800  1
  O  O22  1  0.20614600  0.14946400  0.54147200  1
  O  O23  1  0.29385400  0.35053600  0.04147200  1
  O  O24  1  0.12705900  0.85715700  0.60465400  1
  O  O25  1  0.37294100  0.64284300  0.10465400  1
  O  O26  1  0.62705900  0.64284300  0.39534600  1
  O  O27  1  0.87294100  0.85715700  0.89534600  1
  O  O28  1  0.87294100  0.14284300  0.39534600  1
  O  O29  1  0.62705900  0.35715700  0.89534600  1
  O  O30  1  0.37294100  0.35715700  0.60465400  1
  O  O31  1  0.12705900  0.14284300  0.10465400  1
  O  O32  1  0.50000000  0.07725900  0.75000000  1
  O  O33  1  0.00000000  0.42274100  0.25000000  1
  O  O34  1  0.50000000  0.92274100  0.25000000  1
  O  O35  1  0.00000000  0.57725900  0.75000000  1
  O  O36  1  0.15223000  0.02496000  0.83010800  1
  O  O37  1  0.34777000  0.47504000  0.33010800  1
  O  O38  1  0.65223000  0.47504000  0.16989200  1
  O  O39  1  0.84777000  0.02496000  0.66989200  1
  O  O40  1  0.84777000  0.97504000  0.16989200  1
  O  O41  1  0.65223000  0.52496000  0.66989200  1
  O  O42  1  0.34777000  0.52496000  0.83010800  1
  O  O43  1  0.15223000  0.97504000  0.33010800  1
loop_
_geom_bond_atom_site_label_1
_geom_bond_atom_site_label_2
_geom_bond_distance
_geom_bond_site_symmetry_2
Fe0 O28 2.054707 1_455
Fe0 O24 2.054707 1_545
Fe0 O39 2.196769 1_455
Fe0 O43 2.196769 1_545
Fe0 O22 2.334009 1_555
Fe0 O18 2.334009 1_445
Fe1 O29 2.054707 1_554
Fe1 O25 2.054707 1_555
Fe1 O38 2.196769 1_555
Fe1 O42 2.196769 1_554
Fe1 O19 2.334009 1_554
Fe1 O23 2.334009 1_555
Fe2 O26 2.054707 1_555
Fe2 O30 2.054707 1_555
Fe2 O41 2.196769 1_555
Fe2 O37 2.196769 1_555
Fe2 O16 2.334009 1_555
Fe2 O20 2.334009 1_555
Fe3 O31 2.054707 1_555
Fe3 O27 2.054707 1_444
Fe3 O40 2.196769 1_445
Fe3 O36 2.196769 1_554
Fe3 O21 2.334009 1_454
Fe3 O17 2.334009 1_545
Fe4 O8 2.082467 1_555
Fe4 O18 2.113473 1_555
Fe4 O3 2.137644 1_555
Fe4 O39 2.188991 1_565
Fe4 O12 2.195260 1_565
Fe4 O32 2.406489 1_565
Fe5 O9 2.082467 1_655
Fe5 O19 2.113473 1_554
Fe5 O2 2.137644 1_555
Fe5 O38 2.188991 1_555
Fe5 O13 2.195260 1_554
Fe5 O33 2.406489 1_655
Fe6 O10 2.082467 1_455
Fe6 O16 2.113473 1_555
Fe6 O1 2.137644 1_555
Fe6 O37 2.188991 1_555
Fe6 O14 2.195260 1_555
Fe6 O33 2.406489 1_555
Fe7 O11 2.082467 1_555
Fe7 O17 2.113473 1_556
Fe7 O0 2.137644 1_555
Fe7 O36 2.188991 1_565
Fe7 O15 2.195260 1_566
Fe7 O32 2.406489 1_565
Fe8 O12 2.082467 1_555
Fe8 O22 2.113473 1_555
Fe8 O7 2.137644 1_555
Fe8 O43 2.188991 1_545
Fe8 O8 2.195260 1_545
Fe8 O34 2.406489 1_545
Fe9 O13 2.082467 1_455
Fe9 O23 2.113473 1_556
Fe9 O6 2.137644 1_555
Fe9 O42 2.188991 1_555
Fe9 O9 2.195260 1_556
Fe9 O35 2.406489 1_555
Fe10 O14 2.082467 1_655
Fe10 O20 2.113473 1_555
Fe10 O5 2.137644 1_555
Fe10 O41 2.188991 1_555
Fe10 O10 2.195260 1_555
Fe10 O35 2.406489 1_655
Fe11 O15 2.082467 1_555
Fe11 O21 2.113473 1_554
Fe11 O4 2.137644 1_555
Fe11 O40 2.188991 1_545
Fe11 O11 2.195260 1_544
Fe11 O34 2.406489 1_545
H0 O32 0.983408 1_555
H1 O33 0.983408 1_555
H2 O33 0.983408 1_655
H3 O32 0.983408 1_555
H4 O34 0.983408 1_555
H5 O35 0.983408 1_655
H6 O35 0.983408 1_555
H7 O34 0.983408 1_555
H8 O36 1.046587 1_555
H8 O6 1.461199 1_555
H9 O37 1.046587 1_555
H9 O7 1.461199 1_555
H10 O38 1.046587 1_555
H10 O4 1.461199 1_555
H11 O39 1.046587 1_555
H11 O5 1.461199 1_555
H12 O40 1.046587 1_555
H12 O2 1.461199 1_555
H13 O41 1.046587 1_555
H13 O3 1.461199 1_555
H14 O42 1.046587 1_555
H14 O0 1.461199 1_555
H15 O43 1.046587 1_555
H15 O1 1.461199 1_555
H16 O36 0.996285 1_565
H17 O37 0.996285 1_555
H18 O38 0.996285 1_555
H19 O39 0.996285 1_565
H20 O40 0.996285 1_545
H21 O41 0.996285 1_555
H22 O42 0.996285 1_555
H23 O43 0.996285 1_545
O0 P0 1.555331 1_555
O1 P1 1.555331 1_555
O2 P2 1.555331 1_555
O3 P3 1.555331 1_555
O4 P4 1.555331 1_555
O5 P5 1.555331 1_555
O6 P6 1.555331 1_555
O7 P7 1.555331 1_555
O8 P0 1.554840 1_555
O9 P1 1.554840 1_555
O10 P2 1.554840 1_555
O11 P3 1.554840 1_555
O12 P4 1.554840 1_555
O13 P5 1.554840 1_555
O14 P6 1.554840 1_555
O15 P7 1.554840 1_555
O16 P0 1.555954 1_555
O17 P1 1.555954 1_555
O18 P2 1.555954 1_555
O19 P3 1.555954 1_555
O20 P4 1.555954 1_555
O21 P5 1.555954 1_555
O22 P6 1.555954 1_555
O23 P7 1.555954 1_555
O24 P0 1.553618 1_555
O25 P1 1.553618 1_555
O26 P2 1.553618 1_555
O27 P3 1.553618 1_555
O28 P4 1.553618 1_555
O29 P5 1.553618 1_555
O30 P6 1.553618 1_555
O31 P7 1.553618 1_555
