# generated using pymatgen
data_Mg6GaW
_symmetry_space_group_name_H-M   'P 1'
_cell_length_a   4.83700500
_cell_length_b   6.16712200
_cell_length_c   10.52862600
_cell_angle_alpha   90.00000000
_cell_angle_beta   90.00000000
_cell_angle_gamma   90.00000000
_symmetry_Int_Tables_number   1
_chemical_formula_structural   Mg6GaW
_chemical_formula_sum   'Mg12 Ga2 W2'
_cell_volume   314.07312450
_cell_formula_units_Z   2
loop_
 _symmetry_equiv_pos_site_id
 _symmetry_equiv_pos_as_xyz
  1  'x, y, z'
loop_
 _atom_site_type_symbol
 _atom_site_label
 _atom_site_symmetry_multiplicity
 _atom_site_fract_x
 _atom_site_fract_y
 _atom_site_fract_z
 _atom_site_occupancy
  Mg  Mg0  1  0.00000000  0.25344900  0.08242600  1
  Mg  Mg1  1  0.00000000  0.74655100  0.08242600  1
  Mg  Mg2  1  0.00000000  0.50000000  0.83393600  1
  Mg  Mg3  1  0.50000000  0.23609600  0.91124300  1
  Mg  Mg4  1  0.50000000  0.76390400  0.91124300  1
  Mg  Mg5  1  0.50000000  0.50000000  0.66628000  1
  Mg  Mg6  1  0.00000000  0.75344900  0.58242600  1
  Mg  Mg7  1  0.00000000  0.24655100  0.58242600  1
  Mg  Mg8  1  0.00000000  0.00000000  0.33393600  1
  Mg  Mg9  1  0.50000000  0.73609600  0.41124300  1
  Mg  Mg10  1  0.50000000  0.26390400  0.41124300  1
  Mg  Mg11  1  0.50000000  0.00000000  0.16628000  1
  Ga  Ga0  1  0.50000000  0.50000000  0.18439100  1
  Ga  Ga1  1  0.50000000  0.00000000  0.68439100  1
  W  W0  1  0.00000000  0.50000000  0.32805400  1
  W  W1  1  0.00000000  0.00000000  0.82805400  1
loop_
_geom_bond_atom_site_label_1
_geom_bond_atom_site_label_2
_geom_bond_distance
_geom_bond_site_symmetry_2
Mg0 W0 2.999999 1_555
Mg0 Mg11 3.011932 1_455
Mg0 Mg11 3.011932 1_555
Mg0 Mg3 3.018107 1_454
Mg0 Mg3 3.018107 1_554
Mg0 Mg2 3.026014 1_554
Mg0 Mg1 3.041020 1_555
Mg0 Mg8 3.074951 1_555
Mg0 W1 3.100938 1_554
Mg0 Mg1 3.126102 1_545
Mg1 W0 2.999999 1_555
Mg1 Mg11 3.011932 1_465
Mg1 Mg11 3.011932 1_565
Mg1 Mg4 3.018107 1_454
Mg1 Mg4 3.018107 1_554
Mg1 Mg2 3.026014 1_554
Mg1 Mg8 3.074951 1_565
Mg1 W1 3.100938 1_564
Mg2 Mg5 2.994168 1_455
Mg2 Mg5 2.994168 1_555
Mg2 Mg4 3.026631 1_555
Mg2 Mg4 3.026631 1_455
Mg2 Mg3 3.026631 1_555
Mg2 Mg3 3.026631 1_455
Mg2 Mg6 3.074951 1_555
Mg2 Mg7 3.074951 1_555
Mg2 W1 3.084183 1_565
Mg2 W1 3.084183 1_555
Mg3 Mg4 2.912066 1_545
Mg3 W1 2.955728 1_655
Mg3 W1 2.955728 1_555
Mg3 Mg5 3.049709 1_555
Mg3 Mg4 3.255056 1_555
Mg4 W1 2.955728 1_665
Mg4 W1 2.955728 1_565
Mg4 Mg5 3.049709 1_555
Mg5 Mg6 3.011932 1_555
Mg5 Mg6 3.011932 1_655
Mg5 Mg7 3.011932 1_555
Mg5 Mg7 3.011932 1_655
Mg5 Mg9 3.054549 1_555
Mg6 W1 2.999999 1_565
Mg6 Mg9 3.018107 1_455
Mg6 Mg9 3.018107 1_555
Mg6 Mg8 3.026014 1_565
Mg6 Mg7 3.041020 1_565
Mg6 W0 3.100938 1_555
Mg6 Mg7 3.126102 1_555
Mg7 W1 2.999999 1_555
Mg7 Mg8 3.026014 1_555
Mg7 W0 3.100938 1_555
Mg8 Mg9 3.026631 1_545
Mg8 Mg9 3.026631 1_445
Mg8 W0 3.084183 1_555
Mg8 W0 3.084183 1_545
Mg9 W0 2.955728 1_555
Mg9 W0 2.955728 1_655
Mg10 Mg9 2.912066 1_555
Mg10 W0 2.955728 1_655
Mg10 W0 2.955728 1_555
Mg10 Mg7 3.018107 1_555
Mg10 Mg7 3.018107 1_655
Mg10 Mg8 3.026631 1_555
Mg10 Mg8 3.026631 1_655
Mg10 Mg11 3.049709 1_555
Mg10 Mg5 3.054549 1_555
Mg10 Mg9 3.255056 1_545
Mg11 Mg8 2.994168 1_655
Mg11 Mg8 2.994168 1_555
Mg11 Mg9 3.049709 1_545
Mg11 Mg3 3.054549 1_554
Mg11 Mg4 3.054549 1_544
Ga0 Mg9 2.797262 1_555
Ga0 Mg10 2.797262 1_555
Ga0 W0 2.852549 1_655
Ga0 W0 2.852549 1_555
Ga0 Mg0 3.051822 1_555
Ga0 Mg0 3.051822 1_655
Ga0 Mg1 3.051822 1_655
Ga0 Mg1 3.051822 1_555
Ga0 Mg11 3.089451 1_555
Ga0 Mg11 3.089451 1_565
Ga0 Mg4 3.304466 1_554
Ga0 Mg3 3.304466 1_554
Ga1 Mg3 2.797262 1_555
Ga1 Mg4 2.797262 1_545
Ga1 W1 2.852549 1_555
Ga1 W1 2.852549 1_655
Ga1 Mg7 3.051822 1_555
Ga1 Mg7 3.051822 1_655
Ga1 Mg6 3.051822 1_645
Ga1 Mg6 3.051822 1_545
Ga1 Mg5 3.089451 1_555
Ga1 Mg5 3.089451 1_545
Ga1 Mg10 3.304466 1_555
Ga1 Mg9 3.304466 1_545
