# generated using pymatgen
data_SrSO4
_symmetry_space_group_name_H-M   'P 1'
_cell_length_a   5.20334100
_cell_length_b   4.81142700
_cell_length_c   14.02986200
_cell_angle_alpha   90.00000000
_cell_angle_beta   90.00000000
_cell_angle_gamma   90.00000000
_symmetry_Int_Tables_number   1
_chemical_formula_structural   SrSO4
_chemical_formula_sum   'Sr4 S4 O16'
_cell_volume   351.24454525
_cell_formula_units_Z   4
loop_
 _symmetry_equiv_pos_site_id
 _symmetry_equiv_pos_as_xyz
  1  'x, y, z'
loop_
 _atom_site_type_symbol
 _atom_site_label
 _atom_site_symmetry_multiplicity
 _atom_site_fract_x
 _atom_site_fract_y
 _atom_site_fract_z
 _atom_site_occupancy
  Sr  Sr0  1  0.25000000  0.28039800  0.60255800  1
  Sr  Sr1  1  0.25000000  0.21960200  0.10255800  1
  Sr  Sr2  1  0.75000000  0.71960200  0.39744200  1
  Sr  Sr3  1  0.75000000  0.78039800  0.89744200  1
  S  S0  1  0.25000000  0.31744000  0.86958200  1
  S  S1  1  0.25000000  0.18256000  0.36958200  1
  S  S2  1  0.75000000  0.68256000  0.13041800  1
  S  S3  1  0.75000000  0.81744000  0.63041800  1
  O  O0  1  0.75000000  0.37536500  0.14094500  1
  O  O1  1  0.75000000  0.12463500  0.64094500  1
  O  O2  1  0.25000000  0.62463500  0.85905500  1
  O  O3  1  0.25000000  0.87536500  0.35905500  1
  O  O4  1  0.75000000  0.67420600  0.72297300  1
  O  O5  1  0.75000000  0.82579400  0.22297300  1
  O  O6  1  0.25000000  0.32579400  0.27702700  1
  O  O7  1  0.25000000  0.17420600  0.77702700  1
  O  O8  1  0.01686900  0.23684300  0.92703400  1
  O  O9  1  0.48313100  0.26315700  0.42703400  1
  O  O10  1  0.51686900  0.76315700  0.07296600  1
  O  O11  1  0.98313100  0.73684300  0.57296600  1
  O  O12  1  0.98313100  0.76315700  0.07296600  1
  O  O13  1  0.51686900  0.73684300  0.57296600  1
  O  O14  1  0.48313100  0.23684300  0.92703400  1
  O  O15  1  0.01686900  0.26315700  0.42703400  1
loop_
_geom_bond_atom_site_label_1
_geom_bond_atom_site_label_2
_geom_bond_distance
_geom_bond_site_symmetry_2
O0 S2 1.485407 1_555
O0 Sr1 2.760508 1_655
O0 Sr1 2.760508 1_555
O1 S3 1.485407 1_545
O1 Sr0 2.760508 1_655
O1 Sr0 2.760508 1_555
O2 S0 1.485407 1_555
O2 Sr3 2.760508 1_555
O2 Sr3 2.760508 1_455
O3 S1 1.485407 1_565
O3 Sr2 2.760508 1_555
O3 Sr2 2.760508 1_455
O4 S3 1.470079 1_555
O4 Sr3 2.500532 1_555
O5 S2 1.470079 1_555
O5 Sr2 2.500532 1_555
O6 S1 1.470079 1_555
O6 Sr1 2.500532 1_555
O7 S0 1.470079 1_555
O7 Sr0 2.500532 1_555
O8 S0 1.507183 1_555
O8 Sr3 2.631290 1_445
O8 Sr1 2.746395 1_556
O8 Sr3 2.990029 1_455
O9 S1 1.507183 1_555
O9 Sr2 2.631290 1_555
O9 Sr0 2.746395 1_555
O9 Sr2 2.990029 1_545
O10 S2 1.507183 1_555
O10 Sr1 2.631290 1_565
O10 Sr3 2.746395 1_554
O10 Sr1 2.990029 1_555
O11 S3 1.507183 1_555
O11 Sr0 2.631290 1_655
O11 Sr2 2.746395 1_555
O11 Sr0 2.990029 1_665
O12 S2 1.507183 1_555
O12 Sr1 2.631290 1_665
O12 Sr3 2.746395 1_554
O12 Sr1 2.990029 1_655
O13 S3 1.507183 1_555
O13 Sr0 2.631290 1_555
O13 Sr2 2.746395 1_555
O13 Sr0 2.990029 1_565
O14 S0 1.507183 1_555
O14 Sr3 2.631290 1_545
O14 Sr1 2.746395 1_556
O14 Sr3 2.990029 1_555
O15 S1 1.507183 1_555
O15 Sr2 2.631290 1_455
O15 Sr0 2.746395 1_555
O15 Sr2 2.990029 1_445
