# generated using pymatgen
data_FePH4(NO2)2
_symmetry_space_group_name_H-M   'P 1'
_cell_length_a   6.58589100
_cell_length_b   7.78089700
_cell_length_c   8.73469900
_cell_angle_alpha   90.00000000
_cell_angle_beta   90.00000000
_cell_angle_gamma   90.00000000
_symmetry_Int_Tables_number   1
_chemical_formula_structural   FePH4(NO2)2
_chemical_formula_sum   'Fe4 P4 H16 N8 O16'
_cell_volume   447.60213426
_cell_formula_units_Z   4
loop_
 _symmetry_equiv_pos_site_id
 _symmetry_equiv_pos_as_xyz
  1  'x, y, z'
loop_
 _atom_site_type_symbol
 _atom_site_label
 _atom_site_symmetry_multiplicity
 _atom_site_fract_x
 _atom_site_fract_y
 _atom_site_fract_z
 _atom_site_occupancy
  Fe  Fe0  1  0.00000000  0.50000000  0.50000000  1
  Fe  Fe1  1  0.50000000  0.00000000  0.50000000  1
  Fe  Fe2  1  0.50000000  0.50000000  0.00000000  1
  Fe  Fe3  1  0.00000000  0.00000000  0.00000000  1
  P  P0  1  0.75000000  0.25000000  0.75853400  1
  P  P1  1  0.25000000  0.75000000  0.74146600  1
  P  P2  1  0.25000000  0.75000000  0.24146600  1
  P  P3  1  0.75000000  0.25000000  0.25853400  1
  H  H0  1  0.30977100  0.38141300  0.68054900  1
  H  H1  1  0.19022900  0.11858700  0.68054900  1
  H  H2  1  0.80977100  0.61858700  0.81945100  1
  H  H3  1  0.69022900  0.88141300  0.81945100  1
  H  H4  1  0.69022900  0.61858700  0.31945100  1
  H  H5  1  0.80977100  0.88141300  0.31945100  1
  H  H6  1  0.19022900  0.38141300  0.18054900  1
  H  H7  1  0.30977100  0.11858700  0.18054900  1
  H  H8  1  0.37834500  0.36786200  0.49847000  1
  H  H9  1  0.12165500  0.13213800  0.49847000  1
  H  H10  1  0.87834500  0.63213800  0.00153000  1
  H  H11  1  0.62165500  0.86786200  0.00153000  1
  H  H12  1  0.62165500  0.63213800  0.50153000  1
  H  H13  1  0.87834500  0.86786200  0.50153000  1
  H  H14  1  0.12165500  0.36786200  0.99847000  1
  H  H15  1  0.37834500  0.13213800  0.99847000  1
  N  N0  1  0.26176100  0.34288800  0.57345900  1
  N  N1  1  0.23823900  0.15711200  0.57345900  1
  N  N2  1  0.76176100  0.65711200  0.92654100  1
  N  N3  1  0.73823900  0.84288800  0.92654100  1
  N  N4  1  0.73823900  0.65711200  0.42654100  1
  N  N5  1  0.76176100  0.84288800  0.42654100  1
  N  N6  1  0.23823900  0.34288800  0.07345900  1
  N  N7  1  0.26176100  0.15711200  0.07345900  1
  O  O0  1  0.93299000  0.19300700  0.85848500  1
  O  O1  1  0.56701000  0.30699300  0.85848500  1
  O  O2  1  0.43299000  0.80699300  0.64151500  1
  O  O3  1  0.06701000  0.69300700  0.64151500  1
  O  O4  1  0.06701000  0.80699300  0.14151500  1
  O  O5  1  0.43299000  0.69300700  0.14151500  1
  O  O6  1  0.56701000  0.19300700  0.35848500  1
  O  O7  1  0.93299000  0.30699300  0.35848500  1
  O  O8  1  0.81893600  0.40535800  0.66115700  1
  O  O9  1  0.68106400  0.09464200  0.66115700  1
  O  O10  1  0.31893600  0.59464200  0.83884300  1
  O  O11  1  0.18106400  0.90535800  0.83884300  1
  O  O12  1  0.18106400  0.59464200  0.33884300  1
  O  O13  1  0.31893600  0.90535800  0.33884300  1
  O  O14  1  0.68106400  0.40535800  0.16115700  1
  O  O15  1  0.81893600  0.09464200  0.16115700  1
loop_
_geom_bond_atom_site_label_1
_geom_bond_atom_site_label_2
_geom_bond_distance
_geom_bond_site_symmetry_2
Fe0 O12 1.986395 1_555
Fe0 O8 1.986395 1_455
Fe0 O3 1.994490 1_555
Fe0 O7 1.994490 1_455
Fe0 N0 2.208637 1_555
Fe0 N4 2.208637 1_455
Fe1 O13 1.986395 1_545
Fe1 O9 1.986395 1_555
Fe1 O2 1.994490 1_545
Fe1 O6 1.994490 1_555
Fe1 N1 2.208637 1_555
Fe1 N5 2.208637 1_545
Fe2 O10 1.986395 1_554
Fe2 O14 1.986395 1_555
Fe2 O1 1.994490 1_554
Fe2 O5 1.994490 1_555
Fe2 N6 2.208637 1_555
Fe2 N2 2.208637 1_554
Fe3 O15 1.986395 1_455
Fe3 O11 1.986395 1_544
Fe3 O0 1.994490 1_454
Fe3 O4 1.994490 1_545
Fe3 N7 2.208637 1_555
Fe3 N3 2.208637 1_444
H0 N0 1.031892 1_555
H1 N1 1.031892 1_555
H2 N2 1.031892 1_555
H3 N3 1.031892 1_555
H4 N4 1.031892 1_555
H5 N5 1.031892 1_555
H6 N6 1.031892 1_555
H7 N7 1.031892 1_555
H8 N0 1.027777 1_555
H9 N1 1.027777 1_555
H10 N2 1.027777 1_554
H11 N3 1.027777 1_554
H12 N4 1.027777 1_555
H13 N5 1.027777 1_555
H14 N6 1.027777 1_556
H15 N7 1.027777 1_556
O0 P0 1.552819 1_555
O1 P0 1.552819 1_555
O2 P1 1.552819 1_555
O3 P1 1.552819 1_555
O4 P2 1.552819 1_555
O5 P2 1.552819 1_555
O6 P3 1.552819 1_555
O7 P3 1.552819 1_555
O8 P0 1.546230 1_555
O9 P0 1.546230 1_555
O10 P1 1.546230 1_555
O11 P1 1.546230 1_555
O12 P2 1.546230 1_555
O13 P2 1.546230 1_555
O14 P3 1.546230 1_555
O15 P3 1.546230 1_555
