# generated using pymatgen
data_Y3Ge13Rh4
_symmetry_space_group_name_H-M   'P 1'
_cell_length_a   9.03396200
_cell_length_b   9.03396200
_cell_length_c   9.03396200
_cell_angle_alpha   90.00000000
_cell_angle_beta   90.00000000
_cell_angle_gamma   90.00000000
_symmetry_Int_Tables_number   1
_chemical_formula_structural   Y3Ge13Rh4
_chemical_formula_sum   'Y6 Ge26 Rh8'
_cell_volume   737.28394744
_cell_formula_units_Z   2
loop_
 _symmetry_equiv_pos_site_id
 _symmetry_equiv_pos_as_xyz
  1  'x, y, z'
loop_
 _atom_site_type_symbol
 _atom_site_label
 _atom_site_symmetry_multiplicity
 _atom_site_fract_x
 _atom_site_fract_y
 _atom_site_fract_z
 _atom_site_occupancy
  Y  Y0  1  0.00000000  0.50000000  0.75000000  1
  Y  Y1  1  0.50000000  0.25000000  0.00000000  1
  Y  Y2  1  0.75000000  0.00000000  0.50000000  1
  Y  Y3  1  0.00000000  0.50000000  0.25000000  1
  Y  Y4  1  0.50000000  0.75000000  0.00000000  1
  Y  Y5  1  0.25000000  0.00000000  0.50000000  1
  Ge  Ge0  1  0.50000000  0.50000000  0.50000000  1
  Ge  Ge1  1  0.00000000  0.00000000  0.00000000  1
  Ge  Ge2  1  0.80954500  0.35311700  0.50000000  1
  Ge  Ge3  1  0.64688300  0.50000000  0.80954500  1
  Ge  Ge4  1  0.50000000  0.19045500  0.64688300  1
  Ge  Ge5  1  0.19045500  0.64688300  0.50000000  1
  Ge  Ge6  1  0.35311700  0.50000000  0.19045500  1
  Ge  Ge7  1  0.50000000  0.80954500  0.35311700  1
  Ge  Ge8  1  0.80954500  0.64688300  0.50000000  1
  Ge  Ge9  1  0.64688300  0.50000000  0.19045500  1
  Ge  Ge10  1  0.19045500  0.35311700  0.50000000  1
  Ge  Ge11  1  0.35311700  0.50000000  0.80954500  1
  Ge  Ge12  1  0.50000000  0.80954500  0.64688300  1
  Ge  Ge13  1  0.50000000  0.19045500  0.35311700  1
  Ge  Ge14  1  0.30954500  0.00000000  0.85311700  1
  Ge  Ge15  1  0.14688300  0.30954500  0.00000000  1
  Ge  Ge16  1  0.00000000  0.14688300  0.69045500  1
  Ge  Ge17  1  0.69045500  0.00000000  0.14688300  1
  Ge  Ge18  1  0.85311700  0.69045500  0.00000000  1
  Ge  Ge19  1  0.00000000  0.85311700  0.30954500  1
  Ge  Ge20  1  0.30954500  0.00000000  0.14688300  1
  Ge  Ge21  1  0.14688300  0.69045500  0.00000000  1
  Ge  Ge22  1  0.69045500  0.00000000  0.85311700  1
  Ge  Ge23  1  0.85311700  0.30954500  0.00000000  1
  Ge  Ge24  1  0.00000000  0.14688300  0.30954500  1
  Ge  Ge25  1  0.00000000  0.85311700  0.69045500  1
  Rh  Rh0  1  0.75000000  0.25000000  0.75000000  1
  Rh  Rh1  1  0.25000000  0.75000000  0.25000000  1
  Rh  Rh2  1  0.75000000  0.75000000  0.25000000  1
  Rh  Rh3  1  0.25000000  0.25000000  0.75000000  1
  Rh  Rh4  1  0.25000000  0.75000000  0.75000000  1
  Rh  Rh5  1  0.75000000  0.25000000  0.25000000  1
  Rh  Rh6  1  0.25000000  0.25000000  0.25000000  1
  Rh  Rh7  1  0.75000000  0.75000000  0.75000000  1
loop_
_geom_bond_atom_site_label_1
_geom_bond_atom_site_label_2
_geom_bond_distance
_geom_bond_site_symmetry_2
Ge0 Ge8 3.095272 1_555
Ge0 Ge5 3.095272 1_555
Ge0 Ge7 3.095272 1_555
Ge0 Ge12 3.095272 1_555
Ge0 Ge2 3.095272 1_555
Ge0 Ge4 3.095272 1_555
Ge0 Ge6 3.095272 1_555
Ge0 Ge9 3.095272 1_555
Ge0 Ge13 3.095272 1_555
Ge0 Ge10 3.095272 1_555
Ge0 Ge11 3.095272 1_555
Ge0 Ge3 3.095272 1_555
Ge1 Ge25 3.095272 1_544
Ge1 Ge18 3.095272 1_445
Ge1 Ge22 3.095272 1_454
Ge1 Ge14 3.095272 1_554
Ge1 Ge21 3.095272 1_545
Ge1 Ge20 3.095272 1_555
Ge1 Ge23 3.095272 1_455
Ge1 Ge16 3.095272 1_554
Ge1 Ge19 3.095272 1_545
Ge1 Ge24 3.095272 1_555
Ge1 Ge15 3.095272 1_555
Ge1 Ge17 3.095272 1_455
Ge2 Rh0 2.501587 1_555
Ge2 Rh5 2.501587 1_555
Ge2 Y3 3.133987 1_655
Ge2 Y0 3.133987 1_655
Ge2 Y2 3.235082 1_555
Ge3 Rh0 2.501587 1_555
Ge3 Rh7 2.501587 1_555
Ge3 Y4 3.133987 1_556
Ge3 Y1 3.133987 1_556
Ge3 Y0 3.235082 1_655
Ge4 Rh0 2.501587 1_555
Ge4 Rh3 2.501587 1_555
Ge4 Y2 3.133987 1_555
Ge4 Y5 3.133987 1_555
Ge4 Y1 3.235082 1_556
Ge5 Rh4 2.501587 1_555
Ge5 Rh1 2.501587 1_555
Ge5 Y3 3.133987 1_555
Ge5 Y0 3.133987 1_555
Ge5 Y5 3.235082 1_565
Ge6 Rh6 2.501587 1_555
Ge6 Rh1 2.501587 1_555
Ge6 Y4 3.133987 1_555
Ge6 Y1 3.133987 1_555
Ge6 Y3 3.235082 1_555
Ge7 Rh1 2.501587 1_555
Ge7 Rh2 2.501587 1_555
Ge7 Y2 3.133987 1_565
Ge7 Y5 3.133987 1_565
Ge7 Y4 3.235082 1_555
Ge8 Rh2 2.501587 1_555
Ge8 Rh7 2.501587 1_555
Ge8 Y3 3.133987 1_655
Ge8 Y0 3.133987 1_655
Ge8 Y2 3.235082 1_565
Ge9 Rh2 2.501587 1_555
Ge9 Rh5 2.501587 1_555
Ge9 Y4 3.133987 1_555
Ge9 Y1 3.133987 1_555
Ge9 Y3 3.235082 1_655
Ge10 Rh6 2.501587 1_555
Ge10 Rh3 2.501587 1_555
Ge10 Y3 3.133987 1_555
Ge10 Y0 3.133987 1_555
Ge10 Y5 3.235082 1_555
Ge11 Rh4 2.501587 1_555
Ge11 Rh3 2.501587 1_555
Ge11 Y4 3.133987 1_556
Ge11 Y1 3.133987 1_556
Ge11 Y0 3.235082 1_555
Ge12 Rh4 2.501587 1_555
Ge12 Rh7 2.501587 1_555
Ge12 Y2 3.133987 1_565
Ge12 Y5 3.133987 1_565
Ge12 Y4 3.235082 1_556
Ge13 Rh6 2.501587 1_555
Ge13 Rh5 2.501587 1_555
Ge13 Y2 3.133987 1_555
Ge13 Y5 3.133987 1_555
Ge13 Y1 3.235082 1_555
Ge14 Rh3 2.501587 1_555
Ge14 Rh4 2.501587 1_545
Ge14 Y1 3.133987 1_556
Ge14 Y4 3.133987 1_546
Ge14 Y5 3.235082 1_555
Ge15 Rh6 2.501587 1_555
Ge15 Rh3 2.501587 1_554
Ge15 Y3 3.133987 1_555
Ge15 Y0 3.133987 1_554
Ge15 Y1 3.235082 1_555
Ge16 Rh3 2.501587 1_555
Ge16 Rh0 2.501587 1_455
Ge16 Y5 3.133987 1_555
Ge16 Y2 3.133987 1_455
Ge16 Y0 3.235082 1_555
Ge17 Rh2 2.501587 1_545
Ge17 Rh5 2.501587 1_555
Ge17 Y1 3.133987 1_555
Ge17 Y4 3.133987 1_545
Ge17 Y2 3.235082 1_555
Ge18 Rh7 2.501587 1_554
Ge18 Rh2 2.501587 1_555
Ge18 Y3 3.133987 1_655
Ge18 Y0 3.133987 1_654
Ge18 Y4 3.235082 1_555
Ge19 Rh1 2.501587 1_555
Ge19 Rh2 2.501587 1_455
Ge19 Y5 3.133987 1_565
Ge19 Y2 3.133987 1_465
Ge19 Y3 3.235082 1_555
Ge20 Rh6 2.501587 1_555
Ge20 Rh1 2.501587 1_545
Ge20 Y1 3.133987 1_555
Ge20 Y4 3.133987 1_545
Ge20 Y5 3.235082 1_555
Ge21 Rh4 2.501587 1_554
Ge21 Rh1 2.501587 1_555
Ge21 Y3 3.133987 1_555
Ge21 Y0 3.133987 1_554
Ge21 Y4 3.235082 1_555
Ge22 Rh0 2.501587 1_555
Ge22 Rh7 2.501587 1_545
Ge22 Y1 3.133987 1_556
Ge22 Y4 3.133987 1_546
Ge22 Y2 3.235082 1_555
Ge23 Rh5 2.501587 1_555
Ge23 Rh0 2.501587 1_554
Ge23 Y0 3.133987 1_654
Ge23 Y3 3.133987 1_655
Ge23 Y1 3.235082 1_555
Ge24 Rh6 2.501587 1_555
Ge24 Rh5 2.501587 1_455
Ge24 Y5 3.133987 1_555
Ge24 Y2 3.133987 1_455
Ge24 Y3 3.235082 1_555
Ge25 Rh4 2.501587 1_555
Ge25 Rh7 2.501587 1_455
Ge25 Y2 3.133987 1_465
Ge25 Y5 3.133987 1_565
Ge25 Y0 3.235082 1_555
Rh0 Y1 3.193988 1_556
Rh0 Y0 3.193988 1_655
Rh0 Y2 3.193988 1_555
Rh1 Y3 3.193988 1_555
Rh1 Y4 3.193988 1_555
Rh1 Y5 3.193988 1_565
Rh2 Y4 3.193988 1_555
Rh2 Y3 3.193988 1_655
Rh2 Y2 3.193988 1_565
Rh3 Y0 3.193988 1_555
Rh3 Y5 3.193988 1_555
Rh3 Y1 3.193988 1_556
Rh4 Y0 3.193988 1_555
Rh4 Y4 3.193988 1_556
Rh4 Y5 3.193988 1_565
Rh5 Y3 3.193988 1_655
Rh5 Y1 3.193988 1_555
Rh5 Y2 3.193988 1_555
Rh6 Y3 3.193988 1_555
Rh6 Y5 3.193988 1_555
Rh6 Y1 3.193988 1_555
Rh7 Y4 3.193988 1_556
Rh7 Y2 3.193988 1_565
Rh7 Y0 3.193988 1_655
