# generated using pymatgen
data_LiAlSiO4
_symmetry_space_group_name_H-M   'P 1'
_cell_length_a   8.31089467
_cell_length_b   8.31089491
_cell_length_c   8.31089528
_cell_angle_alpha   107.82599583
_cell_angle_beta   107.82598792
_cell_angle_gamma   107.82597923
_symmetry_Int_Tables_number   1
_chemical_formula_structural   LiAlSiO4
_chemical_formula_sum   'Li6 Al6 Si6 O24'
_cell_volume   466.87685674
_cell_formula_units_Z   6
loop_
 _symmetry_equiv_pos_site_id
 _symmetry_equiv_pos_as_xyz
  1  'x, y, z'
loop_
 _atom_site_type_symbol
 _atom_site_label
 _atom_site_symmetry_multiplicity
 _atom_site_fract_x
 _atom_site_fract_y
 _atom_site_fract_z
 _atom_site_occupancy
  Li  Li0  1  0.23237453  0.45569993  0.05982922  1
  Li  Li1  1  0.05982922  0.23237453  0.45569993  1
  Li  Li2  1  0.45569993  0.05982922  0.23237453  1
  Li  Li3  1  0.77123982  0.54195946  0.94117920  1
  Li  Li4  1  0.94117920  0.77123982  0.54195946  1
  Li  Li5  1  0.54195946  0.94117920  0.77123982  1
  Al  Al0  1  0.61465528  0.42967149  0.20892199  1
  Al  Al1  1  0.72092320  0.90047741  0.13234414  1
  Al  Al2  1  0.42967149  0.20892199  0.61465528  1
  Al  Al3  1  0.20892199  0.61465528  0.42967149  1
  Al  Al4  1  0.13234414  0.72092320  0.90047741  1
  Al  Al5  1  0.90047741  0.13234414  0.72092320  1
  Si  Si0  1  0.79251120  0.38542631  0.57190339  1
  Si  Si1  1  0.57190339  0.79251120  0.38542631  1
  Si  Si2  1  0.38542631  0.57190339  0.79251120  1
  Si  Si3  1  0.28037239  0.09941636  0.87042513  1
  Si  Si4  1  0.09941636  0.87042513  0.28037239  1
  Si  Si5  1  0.87042513  0.28037239  0.09941636  1
  O  O0  1  0.06463466  0.04004686  0.72982046  1
  O  O1  1  0.09100698  0.75382541  0.40544278  1
  O  O2  1  0.75382541  0.40544278  0.09100698  1
  O  O3  1  0.40544278  0.09100698  0.75382541  1
  O  O4  1  0.90695645  0.25900132  0.58644961  1
  O  O5  1  0.25900132  0.58644961  0.90695645  1
  O  O6  1  0.58644961  0.90695645  0.25900132  1
  O  O7  1  0.72982046  0.06463466  0.04004686  1
  O  O8  1  0.66506308  0.35123186  0.68404920  1
  O  O9  1  0.04004686  0.72982046  0.06463466  1
  O  O10  1  0.28105615  0.95242632  0.96180597  1
  O  O11  1  0.95242632  0.96180597  0.28105615  1
  O  O12  1  0.35561606  0.65187613  0.31907325  1
  O  O13  1  0.31907325  0.35561606  0.65187613  1
  O  O14  1  0.65187613  0.31907325  0.35561606  1
  O  O15  1  0.67339520  0.94214368  0.60777126  1
  O  O16  1  0.68404920  0.66506308  0.35123186  1
  O  O17  1  0.35123186  0.68404920  0.66506308  1
  O  O18  1  0.04253269  0.37688340  0.31070179  1
  O  O19  1  0.60777126  0.67339520  0.94214368  1
  O  O20  1  0.94214368  0.60777126  0.67339520  1
  O  O21  1  0.31070179  0.04253269  0.37688340  1
  O  O22  1  0.37688340  0.31070179  0.04253269  1
  O  O23  1  0.96180597  0.28105615  0.95242632  1
loop_
_geom_bond_atom_site_label_1
_geom_bond_atom_site_label_2
_geom_bond_distance
_geom_bond_site_symmetry_2
Li0 O5 1.927214 1_554
Li0 O22 1.949612 1_555
Li0 O12 1.955791 1_555
Li0 O23 1.984826 1_454
Li1 O4 1.927214 1_455
Li1 O18 1.949612 1_555
Li1 O13 1.955791 1_555
Li1 O11 1.984826 1_445
Li2 O6 1.927214 1_545
Li2 O21 1.949612 1_555
Li2 O14 1.955791 1_555
Li2 O10 1.984826 1_544
Li3 O2 1.932232 1_556
Li3 O8 1.942446 1_555
Li3 O19 1.987187 1_555
Li3 O9 1.990362 1_656
Li4 O1 1.932232 1_655
Li4 O16 1.942446 1_555
Li4 O20 1.987188 1_555
Li4 O0 1.990362 1_665
Li5 O3 1.932232 1_565
Li5 O17 1.942446 1_555
Li5 O15 1.987187 1_555
Li5 O7 1.990362 1_566
Al0 O16 1.741720 1_555
Al0 O2 1.747697 1_555
Al0 O14 1.748199 1_555
Al0 O22 1.757381 1_555
Al1 O11 1.745591 1_555
Al1 O7 1.751816 1_565
Al1 O6 1.755668 1_555
Al1 O19 1.766794 1_554
Al2 O8 1.741720 1_555
Al2 O3 1.747698 1_555
Al2 O13 1.748198 1_555
Al2 O21 1.757381 1_555
Al3 O17 1.741720 1_555
Al3 O1 1.747697 1_555
Al3 O12 1.748199 1_555
Al3 O18 1.757381 1_555
Al4 O10 1.745591 1_555
Al4 O9 1.751816 1_556
Al4 O5 1.755668 1_555
Al4 O20 1.766794 1_455
Al5 O23 1.745591 1_555
Al5 O0 1.751816 1_655
Al5 O4 1.755668 1_555
Al5 O15 1.766794 1_545
O0 Si3 1.626739 1_555
O1 Si4 1.626072 1_555
O2 Si5 1.626071 1_555
O3 Si3 1.626072 1_555
O4 Si0 1.625578 1_555
O5 Si2 1.625578 1_555
O6 Si1 1.625579 1_555
O7 Si5 1.626739 1_555
O8 Si0 1.629008 1_555
O9 Si4 1.626738 1_555
O10 Si3 1.624437 1_565
O11 Si4 1.624437 1_655
O12 Si1 1.616633 1_555
O13 Si2 1.616633 1_555
O14 Si0 1.616633 1_555
O15 Si1 1.633758 1_555
O16 Si1 1.629008 1_555
O17 Si2 1.629008 1_555
O18 Si5 1.634071 1_455
O19 Si2 1.633758 1_555
O20 Si0 1.633758 1_555
O21 Si4 1.634071 1_545
O22 Si3 1.634071 1_554
O23 Si5 1.624437 1_556
