# generated using pymatgen
data_MgZr3U7O20
_symmetry_space_group_name_H-M   'P 1'
_cell_length_a   3.71415143
_cell_length_b   6.49768428
_cell_length_c   17.36631785
_cell_angle_alpha   91.85215966
_cell_angle_beta   96.10927039
_cell_angle_gamma   89.92324565
_symmetry_Int_Tables_number   1
_chemical_formula_structural   MgZr3U7O20
_chemical_formula_sum   'Mg1 Zr3 U7 O20'
_cell_volume   416.50913301
_cell_formula_units_Z   1
loop_
 _symmetry_equiv_pos_site_id
 _symmetry_equiv_pos_as_xyz
  1  'x, y, z'
loop_
 _atom_site_type_symbol
 _atom_site_label
 _atom_site_symmetry_multiplicity
 _atom_site_fract_x
 _atom_site_fract_y
 _atom_site_fract_z
 _atom_site_occupancy
  Mg  Mg0  1  0.04724917  0.34638711  0.08998018  1
  Zr  Zr0  1  0.39182591  0.78094595  0.77453543  1
  Zr  Zr1  1  0.20969656  0.41352339  0.41756557  1
  Zr  Zr2  1  0.48124704  0.47800845  0.95718640  1
  U  U0  1  0.89512871  0.27913581  0.78572600  1
  U  U1  1  0.80023619  0.59532563  0.59890562  1
  U  U2  1  0.70778467  0.91318668  0.41537882  1
  U  U3  1  0.29910192  0.09925447  0.59866752  1
  U  U4  1  0.11789623  0.72437241  0.23270732  1
  U  U5  1  0.61929118  0.23208130  0.23875653  1
  U  U6  1  0.98444656  0.96562313  0.96744117  1
  O  O0  1  0.91698569  0.92620402  0.83536400  1
  O  O1  1  0.47105668  0.80158611  0.94076980  1
  O  O2  1  0.77617365  0.92236467  0.55177695  1
  O  O3  1  0.32651149  0.76933771  0.65080589  1
  O  O4  1  0.41896456  0.48078578  0.83397822  1
  O  O5  1  0.96063372  0.28984755  0.91939874  1
  O  O6  1  0.87089896  0.61654559  0.73749191  1
  O  O7  1  0.18474436  0.73917790  0.36859140  1
  O  O8  1  0.82455391  0.26877019  0.64782742  1
  O  O9  1  0.63706783  0.90024831  0.27359279  1
  O  O10  1  0.27511316  0.42892593  0.54861954  1
  O  O11  1  0.72972550  0.57496561  0.45852749  1
  O  O12  1  0.37147422  0.10216099  0.74286234  1
  O  O13  1  0.68551386  0.24677084  0.37177400  1
  O  O14  1  0.58601904  0.53702736  0.17575525  1
  O  O15  1  0.14302917  0.40806117  0.28629137  1
  O  O16  1  0.23030893  0.09418990  0.46082695  1
  O  O17  1  0.01110939  0.59246775  0.02048466  1
  O  O18  1  0.08579964  0.11083855  0.16988487  1
  O  O19  1  0.52066310  0.23843275  0.03854985  1
loop_
_geom_bond_atom_site_label_1
_geom_bond_atom_site_label_2
_geom_bond_distance
_geom_bond_site_symmetry_2
Mg0 O17 2.030005 1_555
Mg0 O18 2.093556 1_555
Mg0 O19 2.161472 1_555
Mg0 O19 2.169414 1_455
Mg0 O14 2.647739 1_555
Mg0 O14 2.665737 1_455
O0 U6 2.286763 1_555
O0 Zr0 2.305038 1_555
O0 Zr0 2.333404 1_655
O0 U0 2.474070 1_565
O1 Zr2 2.130605 1_555
O1 U6 2.181330 1_455
O1 U6 2.184504 1_555
O2 U1 2.299958 1_555
O2 U3 2.316252 1_565
O2 U3 2.316309 1_665
O2 U2 2.354106 1_555
O3 Zr0 2.135459 1_555
O3 U1 2.335151 1_555
O3 U1 2.340207 1_455
O3 U3 2.351786 1_565
O4 Zr2 2.128184 1_555
O4 Zr0 2.233188 1_555
O4 U0 2.405196 1_555
O4 U0 2.406902 1_455
O5 U6 2.289005 1_545
O5 Zr2 2.299273 1_555
O5 U0 2.307019 1_555
O5 Zr2 2.312737 1_655
O6 Zr0 2.217016 1_555
O6 Zr0 2.234858 1_655
O6 U0 2.370323 1_555
O6 U1 2.392584 1_555
O7 Zr1 2.304003 1_555
O7 U2 2.306168 1_455
O7 U2 2.307162 1_555
O7 U4 2.345264 1_555
O8 U3 2.302806 1_655
O8 U1 2.309093 1_555
O8 U3 2.311098 1_555
O8 U0 2.379974 1_555
O9 U5 2.257157 1_565
O9 U4 2.278246 1_555
O9 U4 2.282852 1_655
O9 U2 2.447040 1_555
O10 Zr1 2.261973 1_555
O10 U1 2.303088 1_455
O10 U1 2.306021 1_555
O10 U3 2.335661 1_555
O11 Zr1 2.236308 1_655
O11 Zr1 2.236457 1_555
O11 U2 2.343245 1_555
O11 U1 2.423336 1_555
O12 Zr0 2.174721 1_545
O12 U0 2.286069 1_455
O12 U0 2.302542 1_555
O12 U3 2.489373 1_555
O13 Zr1 2.273298 1_555
O13 Zr1 2.284116 1_655
O13 U5 2.295798 1_555
O13 U2 2.317483 1_545
O14 U5 2.291101 1_555
O14 U4 2.401164 1_555
O14 U4 2.423900 1_655
O15 Zr1 2.265937 1_555
O15 U4 2.281118 1_555
O15 U5 2.315681 1_555
O15 U5 2.318637 1_455
O16 Zr1 2.227942 1_555
O16 U2 2.320237 1_545
O16 U2 2.322215 1_445
O16 U3 2.379351 1_555
O17 Zr2 2.263864 1_454
O17 Zr2 2.272181 1_554
O17 U6 2.619463 1_454
O18 U5 2.327274 1_555
O18 U5 2.330211 1_455
O18 U4 2.767470 1_545
O19 Zr2 2.130440 1_554
O19 U6 2.817356 1_544
O19 U6 2.824551 1_444
