# generated using pymatgen
data_LaN2Cl5
_symmetry_space_group_name_H-M   'P 1'
_cell_length_a   8.04215479
_cell_length_b   8.83113409
_cell_length_c   12.44257628
_cell_angle_alpha   90.00000000
_cell_angle_beta   90.00000000
_cell_angle_gamma   90.00000000
_symmetry_Int_Tables_number   1
_chemical_formula_structural   LaN2Cl5
_chemical_formula_sum   'La4 N8 Cl20'
_cell_volume   883.68853158
_cell_formula_units_Z   4
loop_
 _symmetry_equiv_pos_site_id
 _symmetry_equiv_pos_as_xyz
  1  'x, y, z'
loop_
 _atom_site_type_symbol
 _atom_site_label
 _atom_site_symmetry_multiplicity
 _atom_site_fract_x
 _atom_site_fract_y
 _atom_site_fract_z
 _atom_site_occupancy
  La  La0  1  0.25000000  0.49039694  0.90587026  1
  La  La1  1  0.75000000  0.50960306  0.09412974  1
  La  La2  1  0.75000000  0.00960306  0.40587026  1
  La  La3  1  0.25000000  0.99039694  0.59412974  1
  N  N0  1  0.54665468  0.99400103  0.03235290  1
  N  N1  1  0.45334532  0.00599897  0.96764710  1
  N  N2  1  0.45334532  0.50599897  0.53235290  1
  N  N3  1  0.04665468  0.00599897  0.96764710  1
  N  N4  1  0.54665468  0.49400103  0.46764710  1
  N  N5  1  0.95334532  0.99400103  0.03235290  1
  N  N6  1  0.95334532  0.49400103  0.46764710  1
  N  N7  1  0.04665468  0.50599897  0.53235290  1
  Cl  Cl0  1  0.25000000  0.72574065  0.17414770  1
  Cl  Cl1  1  0.75000000  0.27425935  0.82585230  1
  Cl  Cl2  1  0.75000000  0.77425935  0.67414770  1
  Cl  Cl3  1  0.25000000  0.22574065  0.32585230  1
  Cl  Cl4  1  0.54360118  0.65252611  0.93569527  1
  Cl  Cl5  1  0.45639882  0.34747389  0.06430473  1
  Cl  Cl6  1  0.45639882  0.84747389  0.43569527  1
  Cl  Cl7  1  0.04360118  0.34747389  0.06430473  1
  Cl  Cl8  1  0.54360118  0.15252611  0.56430473  1
  Cl  Cl9  1  0.95639882  0.65252611  0.93569527  1
  Cl  Cl10  1  0.95639882  0.15252611  0.56430473  1
  Cl  Cl11  1  0.04360118  0.84747389  0.43569527  1
  Cl  Cl12  1  0.25000000  0.44823348  0.30067049  1
  Cl  Cl13  1  0.75000000  0.55176652  0.69932951  1
  Cl  Cl14  1  0.75000000  0.05176652  0.80067049  1
  Cl  Cl15  1  0.25000000  0.94823348  0.19932951  1
  Cl  Cl16  1  0.25000000  0.75126860  0.73417090  1
  Cl  Cl17  1  0.75000000  0.24873140  0.26582910  1
  Cl  Cl18  1  0.75000000  0.74873140  0.23417090  1
  Cl  Cl19  1  0.25000000  0.25126860  0.76582910  1
loop_
_geom_bond_atom_site_label_1
_geom_bond_atom_site_label_2
_geom_bond_distance
_geom_bond_site_symmetry_2
N0 N1 1.105684 1_564
N2 N4 1.105684 1_555
N3 N5 1.105684 1_446
N6 N7 1.105684 1_655
Cl0 Cl15 1.989689 1_555
Cl1 Cl14 1.989689 1_555
Cl4 La0 2.786202 1_555
Cl4 La1 2.869577 1_556
Cl5 La1 2.786202 1_555
Cl5 La0 2.869577 1_554
Cl6 La2 2.786202 1_565
Cl6 La3 2.869577 1_555
Cl7 La1 2.786202 1_455
Cl7 La0 2.869577 1_554
Cl8 La3 2.786202 1_545
Cl8 La2 2.869577 1_555
Cl9 La0 2.786202 1_655
Cl9 La1 2.869577 1_556
Cl10 La3 2.786202 1_645
Cl10 La2 2.869577 1_555
Cl11 La2 2.786202 1_465
Cl11 La3 2.869577 1_555
Cl12 Cl3 1.989689 1_555
Cl13 Cl2 1.989689 1_555
Cl16 La3 2.737846 1_555
Cl16 La0 3.141909 1_555
Cl17 La2 2.737846 1_555
Cl17 La1 3.141909 1_555
Cl18 La1 2.737846 1_555
Cl18 La2 3.141909 1_565
Cl19 La0 2.737846 1_555
Cl19 La3 3.141909 1_545
