# generated using pymatgen
data_CaB3O10
_symmetry_space_group_name_H-M   'P 1'
_cell_length_a   7.24560128
_cell_length_b   6.24402099
_cell_length_c   9.67436366
_cell_angle_alpha   95.19135786
_cell_angle_beta   108.02458347
_cell_angle_gamma   102.15922667
_symmetry_Int_Tables_number   1
_chemical_formula_structural   CaB3O10
_chemical_formula_sum   'Ca2 B6 O20'
_cell_volume   401.12306580
_cell_formula_units_Z   2
loop_
 _symmetry_equiv_pos_site_id
 _symmetry_equiv_pos_as_xyz
  1  'x, y, z'
loop_
 _atom_site_type_symbol
 _atom_site_label
 _atom_site_symmetry_multiplicity
 _atom_site_fract_x
 _atom_site_fract_y
 _atom_site_fract_z
 _atom_site_occupancy
  Ca  Ca0  1  0.82714600  0.79751200  0.61442900  1
  Ca  Ca1  1  0.17285400  0.20248800  0.38557000  1
  B  B0  1  0.46929500  0.75488600  0.10189700  1
  B  B1  1  0.53070500  0.24511400  0.89810300  1
  B  B2  1  0.81775300  0.69400800  0.26015400  1
  B  B3  1  0.18224700  0.30599200  0.73984600  1
  B  B4  1  0.54440600  0.11512200  0.29142500  1
  B  B5  1  0.45559400  0.88487800  0.70857500  1
  O  O0  1  0.65092700  0.69758700  0.14065800  1
  O  O1  1  0.34907300  0.30241300  0.85934200  1
  O  O2  1  0.45016900  0.94793200  0.17309300  1
  O  O3  1  0.54983100  0.05206800  0.82690700  1
  O  O4  1  0.85809600  0.08126000  0.42741400  1
  O  O5  1  0.14190400  0.91874000  0.57258600  1
  O  O6  1  0.30785300  0.63944600  0.98940400  1
  O  O7  1  0.69214700  0.36055400  0.01059600  1
  O  O8  1  0.00986600  0.79312600  0.26768500  1
  O  O9  1  0.99013400  0.20687400  0.73231500  1
  O  O10  1  0.80582600  0.62200800  0.38536500  1
  O  O11  1  0.19417400  0.37799200  0.61463500  1
  O  O12  1  0.76883700  0.17524400  0.31403700  1
  O  O13  1  0.23116300  0.82475600  0.68596300  1
  O  O14  1  0.47798200  0.21954700  0.37945900  1
  O  O15  1  0.52201800  0.78045300  0.62054100  1
  O  O16  1  0.95544200  0.91647600  0.95371900  1
  O  O17  1  0.04455800  0.08352400  0.04628100  1
  O  O18  1  0.22987600  0.56052600  0.29169200  1
  O  O19  1  0.77012400  0.43947400  0.70830800  1
loop_
_geom_bond_atom_site_label_1
_geom_bond_atom_site_label_2
_geom_bond_distance
_geom_bond_site_symmetry_2
Ca0 O15 2.210311 1_555
Ca0 O10 2.326585 1_555
Ca0 O5 2.416108 1_655
Ca0 O19 2.490785 1_555
Ca0 O9 2.568298 1_565
Ca0 O4 2.669550 1_565
Ca0 O13 2.755438 1_655
Ca0 O16 3.093501 1_555
Ca1 O14 2.210308 1_555
Ca1 O11 2.326593 1_555
Ca1 O4 2.416113 1_455
Ca1 O18 2.490780 1_555
Ca1 O8 2.568296 1_545
Ca1 O5 2.669557 1_545
Ca1 O12 2.755439 1_455
Ca1 O17 3.093492 1_555
B0 O6 1.336899 1_554
B0 O0 1.384842 1_555
B0 O2 1.387717 1_555
B1 O7 1.336899 1_556
B1 O1 1.384842 1_555
B1 O3 1.387717 1_555
B2 O10 1.350512 1_555
B2 O8 1.375537 1_655
B2 O0 1.396181 1_555
B3 O11 1.350512 1_555
B3 O9 1.375537 1_455
B3 O1 1.396181 1_555
B4 O14 1.291313 1_555
B4 O2 1.366121 1_545
B4 O12 1.530014 1_555
B5 O15 1.291313 1_555
B5 O3 1.366121 1_565
B5 O13 1.530014 1_555
O12 O4 1.342793 1_555
O13 O5 1.342793 1_555
O16 O17 1.223191 1_666
