# generated using pymatgen
data_Sc
_symmetry_space_group_name_H-M   'P 1'
_cell_length_a   6.40144234
_cell_length_b   10.00106800
_cell_length_c   10.12857008
_cell_angle_alpha   119.58444682
_cell_angle_beta   90.05410568
_cell_angle_gamma   90.00000000
_symmetry_Int_Tables_number   1
_chemical_formula_structural   Sc
_chemical_formula_sum   Sc24
_cell_volume   563.90520517
_cell_formula_units_Z   24
loop_
 _symmetry_equiv_pos_site_id
 _symmetry_equiv_pos_as_xyz
  1  'x, y, z'
loop_
 _atom_site_type_symbol
 _atom_site_label
 _atom_site_symmetry_multiplicity
 _atom_site_fract_x
 _atom_site_fract_y
 _atom_site_fract_z
 _atom_site_occupancy
  Sc  Sc0_0  1  0.49755400  0.16661700  0.33323350  1
  Sc  Sc0_1  1  0.49755400  0.16661700  0.83323350  1
  Sc  Sc0_2  1  0.49755400  0.66661700  0.33323350  1
  Sc  Sc0_3  1  0.49755400  0.66661700  0.83323350  1
  Sc  Sc0_4  1  0.99755400  0.16661700  0.33323350  1
  Sc  Sc0_5  1  0.99755400  0.16661700  0.83323350  1
  Sc  Sc0_6  1  0.99755400  0.66661700  0.33323350  1
  Sc  Sc0_7  1  0.99755400  0.66661700  0.83323350  1
  Sc  Sc1_0  1  0.25000000  0.00000000  0.00000000  1
  Sc  Sc1_1  1  0.25000000  0.00000000  0.50000000  1
  Sc  Sc1_2  1  0.25000000  0.50000000  0.00000000  1
  Sc  Sc1_3  1  0.25000000  0.50000000  0.50000000  1
  Sc  Sc1_4  1  0.75000000  0.00000000  0.00000000  1
  Sc  Sc1_5  1  0.75000000  0.00000000  0.50000000  1
  Sc  Sc1_6  1  0.75000000  0.50000000  0.00000000  1
  Sc  Sc1_7  1  0.75000000  0.50000000  0.50000000  1
  Sc  Sc2_0  1  0.00244600  0.33338300  0.16676650  1
  Sc  Sc2_1  1  0.00244600  0.33338300  0.66676650  1
  Sc  Sc2_2  1  0.00244600  0.83338300  0.16676650  1
  Sc  Sc2_3  1  0.00244600  0.83338300  0.66676650  1
  Sc  Sc2_4  1  0.50244600  0.33338300  0.16676650  1
  Sc  Sc2_5  1  0.50244600  0.33338300  0.66676650  1
  Sc  Sc2_6  1  0.50244600  0.83338300  0.16676650  1
  Sc  Sc2_7  1  0.50244600  0.83338300  0.66676650  1
loop_
_geom_bond_atom_site_label_1
_geom_bond_atom_site_label_2
_geom_bond_distance
_geom_bond_site_symmetry_2
Sc0_0 Sc2_4 2.898672 1_555
Sc0_0 Sc2_6 2.898681 1_545
Sc0_0 Sc2_5 2.937924 1_555
Sc0_0 Sc0_4 3.200721 1_555
Sc0_0 Sc0_4 3.200721 1_455
Sc0_0 Sc1_3 3.305346 1_555
Sc0_0 Sc1_1 3.305350 1_555
Sc0_0 Sc1_7 3.318936 1_555
Sc0_0 Sc1_5 3.318940 1_555
Sc0_0 Sc1_0 3.334112 1_555
Sc0_0 Sc1_4 3.352155 1_555
Sc0_1 Sc2_5 2.898672 1_555
Sc0_1 Sc2_7 2.898681 1_545
Sc0_1 Sc2_4 2.937924 1_556
Sc0_1 Sc0_5 3.200721 1_555
Sc0_1 Sc0_5 3.200721 1_455
Sc0_1 Sc1_2 3.305346 1_556
Sc0_1 Sc1_0 3.305350 1_556
Sc0_1 Sc1_6 3.318936 1_556
Sc0_1 Sc1_4 3.318940 1_556
Sc0_1 Sc1_1 3.334112 1_555
Sc0_1 Sc1_5 3.352155 1_555
Sc0_2 Sc2_6 2.898672 1_555
Sc0_2 Sc2_4 2.898681 1_555
Sc0_2 Sc2_7 2.937924 1_555
Sc0_2 Sc0_6 3.200721 1_555
Sc0_2 Sc0_6 3.200721 1_455
Sc0_2 Sc1_1 3.305346 1_565
Sc0_2 Sc1_3 3.305350 1_555
Sc0_2 Sc1_5 3.318936 1_565
Sc0_2 Sc1_7 3.318940 1_555
Sc0_2 Sc1_2 3.334112 1_555
Sc0_2 Sc1_6 3.352155 1_555
Sc0_3 Sc2_7 2.898672 1_555
Sc0_3 Sc2_5 2.898681 1_555
Sc0_3 Sc2_6 2.937924 1_556
Sc0_3 Sc0_7 3.200721 1_555
Sc0_3 Sc0_7 3.200721 1_455
Sc0_3 Sc1_0 3.305346 1_566
Sc0_3 Sc1_2 3.305350 1_556
Sc0_3 Sc1_4 3.318936 1_566
Sc0_3 Sc1_6 3.318940 1_556
Sc0_3 Sc1_3 3.334112 1_555
Sc0_3 Sc1_7 3.352155 1_555
Sc0_4 Sc2_0 2.898672 1_655
Sc0_4 Sc2_2 2.898681 1_645
Sc0_4 Sc2_1 2.937924 1_655
Sc0_4 Sc1_7 3.305346 1_555
Sc0_4 Sc1_5 3.305350 1_555
Sc0_4 Sc1_3 3.318936 1_655
Sc0_4 Sc1_1 3.318940 1_655
Sc0_4 Sc1_4 3.334112 1_555
Sc0_4 Sc1_0 3.352155 1_655
Sc0_5 Sc2_1 2.898672 1_655
Sc0_5 Sc2_3 2.898681 1_645
Sc0_5 Sc2_0 2.937924 1_656
Sc0_5 Sc1_6 3.305346 1_556
Sc0_5 Sc1_4 3.305350 1_556
Sc0_5 Sc1_2 3.318936 1_656
Sc0_5 Sc1_0 3.318940 1_656
Sc0_5 Sc1_5 3.334112 1_555
Sc0_5 Sc1_1 3.352155 1_655
Sc0_6 Sc2_2 2.898672 1_655
Sc0_6 Sc2_0 2.898681 1_655
Sc0_6 Sc2_3 2.937924 1_655
Sc0_6 Sc1_5 3.305346 1_565
Sc0_6 Sc1_7 3.305350 1_555
Sc0_6 Sc1_1 3.318936 1_665
Sc0_6 Sc1_3 3.318940 1_655
Sc0_6 Sc1_6 3.334112 1_555
Sc0_6 Sc1_2 3.352155 1_655
Sc0_7 Sc2_3 2.898672 1_655
Sc0_7 Sc2_1 2.898681 1_655
Sc0_7 Sc2_2 2.937924 1_656
Sc0_7 Sc1_4 3.305346 1_566
Sc0_7 Sc1_6 3.305350 1_556
Sc0_7 Sc1_0 3.318936 1_666
Sc0_7 Sc1_2 3.318940 1_656
Sc0_7 Sc1_7 3.334112 1_555
Sc0_7 Sc1_3 3.352155 1_655
Sc1_0 Sc1_4 3.200721 1_455
Sc1_0 Sc1_4 3.200721 1_555
Sc1_0 Sc2_0 3.305346 1_555
Sc1_0 Sc2_2 3.305350 1_545
Sc1_0 Sc2_4 3.318936 1_555
Sc1_0 Sc2_6 3.318940 1_545
Sc1_0 Sc2_3 3.334112 1_544
Sc1_0 Sc2_7 3.352155 1_544
Sc1_1 Sc1_5 3.200721 1_555
Sc1_1 Sc1_5 3.200721 1_455
Sc1_1 Sc2_1 3.305346 1_555
Sc1_1 Sc2_3 3.305350 1_545
Sc1_1 Sc2_5 3.318936 1_555
Sc1_1 Sc2_7 3.318940 1_545
Sc1_1 Sc2_2 3.334112 1_545
Sc1_1 Sc2_6 3.352155 1_545
Sc1_2 Sc1_6 3.200721 1_455
Sc1_2 Sc1_6 3.200721 1_555
Sc1_2 Sc2_2 3.305346 1_555
Sc1_2 Sc2_0 3.305350 1_555
Sc1_2 Sc2_6 3.318936 1_555
Sc1_2 Sc2_4 3.318940 1_555
Sc1_2 Sc2_1 3.334112 1_554
Sc1_2 Sc2_5 3.352155 1_554
Sc1_3 Sc1_7 3.200721 1_555
Sc1_3 Sc1_7 3.200721 1_455
Sc1_3 Sc2_3 3.305346 1_555
Sc1_3 Sc2_1 3.305350 1_555
Sc1_3 Sc2_7 3.318936 1_555
Sc1_3 Sc2_5 3.318940 1_555
Sc1_3 Sc2_0 3.334112 1_555
Sc1_3 Sc2_4 3.352155 1_555
Sc1_4 Sc2_4 3.305346 1_555
Sc1_4 Sc2_6 3.305350 1_545
Sc1_4 Sc2_0 3.318936 1_655
Sc1_4 Sc2_2 3.318940 1_645
Sc1_4 Sc2_7 3.334112 1_544
Sc1_4 Sc2_3 3.352155 1_644
Sc1_5 Sc2_5 3.305346 1_555
Sc1_5 Sc2_7 3.305350 1_545
Sc1_5 Sc2_1 3.318936 1_655
Sc1_5 Sc2_3 3.318940 1_645
Sc1_5 Sc2_6 3.334112 1_545
Sc1_5 Sc2_2 3.352155 1_645
Sc1_6 Sc2_6 3.305346 1_555
Sc1_6 Sc2_4 3.305350 1_555
Sc1_6 Sc2_2 3.318936 1_655
Sc1_6 Sc2_0 3.318940 1_655
Sc1_6 Sc2_5 3.334112 1_554
Sc1_6 Sc2_1 3.352155 1_654
Sc1_7 Sc2_7 3.305346 1_555
Sc1_7 Sc2_5 3.305350 1_555
Sc1_7 Sc2_3 3.318936 1_655
Sc1_7 Sc2_1 3.318940 1_655
Sc1_7 Sc2_4 3.334112 1_555
Sc1_7 Sc2_0 3.352155 1_655
Sc2_0 Sc2_4 3.200721 1_455
Sc2_0 Sc2_4 3.200721 1_555
Sc2_1 Sc2_5 3.200721 1_555
Sc2_1 Sc2_5 3.200721 1_455
Sc2_2 Sc2_6 3.200721 1_455
Sc2_2 Sc2_6 3.200721 1_555
Sc2_3 Sc2_7 3.200721 1_555
Sc2_3 Sc2_7 3.200721 1_455
