# generated using pymatgen
data_Dy2Si3Rh
_symmetry_space_group_name_H-M   'P 1'
_cell_length_a   8.16622722
_cell_length_b   8.16622722
_cell_length_c   7.92570800
_cell_angle_alpha   90.00000000
_cell_angle_beta   90.00000000
_cell_angle_gamma   119.99999368
_symmetry_Int_Tables_number   1
_chemical_formula_structural   Dy2Si3Rh
_chemical_formula_sum   'Dy8 Si12 Rh4'
_cell_volume   457.73239181
_cell_formula_units_Z   4
loop_
 _symmetry_equiv_pos_site_id
 _symmetry_equiv_pos_as_xyz
  1  'x, y, z'
loop_
 _atom_site_type_symbol
 _atom_site_label
 _atom_site_symmetry_multiplicity
 _atom_site_fract_x
 _atom_site_fract_y
 _atom_site_fract_z
 _atom_site_occupancy
  Dy  Dy0  1  0.00000000  0.00000000  0.25000000  1
  Dy  Dy1  1  0.00000000  0.00000000  0.75000000  1
  Dy  Dy2  1  0.00778400  0.50389200  0.25000000  1
  Dy  Dy3  1  0.49610800  0.50389200  0.25000000  1
  Dy  Dy4  1  0.50389200  0.00778400  0.75000000  1
  Dy  Dy5  1  0.49610800  0.99221600  0.25000000  1
  Dy  Dy6  1  0.50389200  0.49610800  0.75000000  1
  Dy  Dy7  1  0.99221600  0.49610800  0.75000000  1
  Si  Si0  1  0.16608800  0.33217500  0.99921700  1
  Si  Si1  1  0.66782500  0.83391200  0.99921700  1
  Si  Si2  1  0.16608800  0.33217500  0.50078300  1
  Si  Si3  1  0.33217500  0.16608800  0.00078300  1
  Si  Si4  1  0.16608800  0.83391200  0.99921700  1
  Si  Si5  1  0.66782500  0.83391200  0.50078300  1
  Si  Si6  1  0.83391200  0.66782500  0.00078300  1
  Si  Si7  1  0.33217500  0.16608800  0.49921700  1
  Si  Si8  1  0.16608800  0.83391200  0.50078300  1
  Si  Si9  1  0.83391200  0.66782500  0.49921700  1
  Si  Si10  1  0.83391200  0.16608800  0.00078300  1
  Si  Si11  1  0.83391200  0.16608800  0.49921700  1
  Rh  Rh0  1  0.33333300  0.66666700  0.98646700  1
  Rh  Rh1  1  0.33333300  0.66666700  0.51353300  1
  Rh  Rh2  1  0.66666700  0.33333300  0.01353300  1
  Rh  Rh3  1  0.66666700  0.33333300  0.48646700  1
loop_
_geom_bond_atom_site_label_1
_geom_bond_atom_site_label_2
_geom_bond_distance
_geom_bond_site_symmetry_2
Dy0 Si3 3.069237 1_555
Dy0 Si7 3.069237 1_555
Dy0 Si6 3.069237 1_445
Dy0 Si9 3.069237 1_445
Dy0 Si10 3.069242 1_455
Dy0 Si11 3.069242 1_455
Dy0 Si5 3.077239 1_445
Dy0 Si1 3.077239 1_444
Dy0 Si2 3.077239 1_555
Dy0 Si0 3.077239 1_554
Dy0 Si4 3.077244 1_544
Dy0 Si8 3.077244 1_545
Dy1 Si1 3.069237 1_445
Dy1 Si5 3.069237 1_445
Dy1 Si2 3.069237 1_555
Dy1 Si0 3.069237 1_555
Dy1 Si4 3.069242 1_545
Dy1 Si8 3.069242 1_545
Dy1 Si3 3.077239 1_556
Dy1 Si7 3.077239 1_555
Dy1 Si6 3.077239 1_446
Dy1 Si9 3.077239 1_445
Dy1 Si10 3.077244 1_456
Dy1 Si11 3.077244 1_455
Dy2 Rh2 3.054889 1_455
Dy2 Rh3 3.054889 1_455
Dy2 Si8 3.066109 1_555
Dy2 Si4 3.066109 1_554
Dy2 Si0 3.066115 1_554
Dy2 Si2 3.066115 1_555
Dy2 Si11 3.100079 1_455
Dy2 Si10 3.100079 1_455
Dy2 Si9 3.100084 1_455
Dy2 Si6 3.100084 1_455
Dy2 Rh1 3.108593 1_555
Dy2 Rh0 3.108593 1_554
Dy3 Rh3 3.054894 1_555
Dy3 Rh2 3.054894 1_555
Dy3 Si0 3.066110 1_554
Dy3 Si5 3.066110 1_555
Dy3 Si2 3.066110 1_555
Dy3 Si1 3.066110 1_554
Dy3 Si7 3.100078 1_555
Dy3 Si6 3.100078 1_555
Dy3 Si3 3.100078 1_555
Dy3 Si9 3.100078 1_555
Dy3 Rh1 3.108599 1_555
Dy3 Rh0 3.108599 1_554
Dy4 Rh1 3.054889 1_545
Dy4 Rh0 3.054889 1_545
Dy4 Si10 3.066109 1_556
Dy4 Si11 3.066109 1_555
Dy4 Si3 3.066115 1_556
Dy4 Si7 3.066115 1_555
Dy4 Si4 3.100079 1_545
Dy4 Si8 3.100079 1_545
Dy4 Si1 3.100084 1_545
Dy4 Si5 3.100084 1_545
Dy4 Rh2 3.108593 1_556
Dy4 Rh3 3.108593 1_555
Dy5 Rh3 3.054889 1_565
Dy5 Rh2 3.054889 1_565
Dy5 Si8 3.066109 1_555
Dy5 Si4 3.066109 1_554
Dy5 Si5 3.066115 1_555
Dy5 Si1 3.066115 1_554
Dy5 Si11 3.100079 1_565
Dy5 Si10 3.100079 1_565
Dy5 Si7 3.100084 1_565
Dy5 Si3 3.100084 1_565
Dy5 Rh1 3.108593 1_555
Dy5 Rh0 3.108593 1_554
Dy6 Rh0 3.054894 1_555
Dy6 Rh1 3.054894 1_555
Dy6 Si3 3.066110 1_556
Dy6 Si9 3.066110 1_555
Dy6 Si6 3.066110 1_556
Dy6 Si7 3.066110 1_555
Dy6 Si0 3.100078 1_555
Dy6 Si1 3.100078 1_555
Dy6 Si5 3.100078 1_555
Dy6 Si2 3.100078 1_555
Dy6 Rh2 3.108599 1_556
Dy6 Rh3 3.108599 1_555
Dy7 Rh0 3.054889 1_655
Dy7 Rh1 3.054889 1_655
Dy7 Si10 3.066109 1_556
Dy7 Si11 3.066109 1_555
Dy7 Si9 3.066115 1_555
Dy7 Si6 3.066115 1_556
Dy7 Si8 3.100079 1_655
Dy7 Si4 3.100079 1_655
Dy7 Si2 3.100084 1_655
Dy7 Si0 3.100084 1_655
Dy7 Rh2 3.108593 1_556
Dy7 Rh3 3.108593 1_555
Si0 Si3 2.349220 1_556
Si0 Si10 2.349235 1_456
Si1 Si6 2.349220 1_556
Si1 Si10 2.349235 1_566
Si2 Si7 2.349220 1_555
Si3 Si4 2.349235 1_544
Si4 Si6 2.349235 1_456
Si5 Si9 2.349220 1_555
Si7 Si8 2.349235 1_545
Si8 Si9 2.349235 1_455
Si11 Si5 2.349235 1_545
Si11 Si2 2.349235 1_655
Rh0 Si4 2.367724 1_555
Rh0 Si0 2.367739 1_555
Rh0 Si1 2.367739 1_555
Rh1 Si8 2.367724 1_555
Rh1 Si2 2.367739 1_555
Rh1 Si5 2.367739 1_555
Rh2 Si10 2.367724 1_555
Rh2 Si6 2.367739 1_555
Rh2 Si3 2.367739 1_555
Rh3 Si11 2.367724 1_555
Rh3 Si9 2.367739 1_555
Rh3 Si7 2.367739 1_555
