# generated using pymatgen
data_Sm3(SiRh)2
_symmetry_space_group_name_H-M   'P 1'
_cell_length_a   5.62382538
_cell_length_b   7.89872964
_cell_length_c   13.21254776
_cell_angle_alpha   90.00000000
_cell_angle_beta   90.00000000
_cell_angle_gamma   90.00000000
_symmetry_Int_Tables_number   1
_chemical_formula_structural   Sm3(SiRh)2
_chemical_formula_sum   'Sm12 Si8 Rh8'
_cell_volume   586.91559110
_cell_formula_units_Z   4
loop_
 _symmetry_equiv_pos_site_id
 _symmetry_equiv_pos_as_xyz
  1  'x, y, z'
loop_
 _atom_site_type_symbol
 _atom_site_label
 _atom_site_symmetry_multiplicity
 _atom_site_fract_x
 _atom_site_fract_y
 _atom_site_fract_z
 _atom_site_occupancy
  Sm  Sm0  1  0.63829277  0.24699964  0.25000000  1
  Sm  Sm1  1  0.36170723  0.75300036  0.75000000  1
  Sm  Sm2  1  0.36170723  0.74699964  0.25000000  1
  Sm  Sm3  1  0.63829277  0.25300036  0.75000000  1
  Sm  Sm4  1  0.13890792  0.38965031  0.10128857  1
  Sm  Sm5  1  0.86109208  0.61034969  0.89871143  1
  Sm  Sm6  1  0.86109208  0.61034969  0.60128857  1
  Sm  Sm7  1  0.86109208  0.88965031  0.39871143  1
  Sm  Sm8  1  0.13890792  0.38965031  0.39871143  1
  Sm  Sm9  1  0.13890792  0.11034969  0.60128857  1
  Sm  Sm10  1  0.13890792  0.11034969  0.89871143  1
  Sm  Sm11  1  0.86109208  0.88965031  0.10128857  1
  Si  Si0  1  0.15056838  0.10008020  0.25000000  1
  Si  Si1  1  0.84943162  0.89991980  0.75000000  1
  Si  Si2  1  0.84943162  0.60008020  0.25000000  1
  Si  Si3  1  0.15056838  0.39991980  0.75000000  1
  Si  Si4  1  0.62767505  0.25000000  -0.00000000  1
  Si  Si5  1  0.37232495  0.75000000  -0.00000000  1
  Si  Si6  1  0.37232495  0.75000000  0.50000000  1
  Si  Si7  1  0.62767505  0.25000000  0.50000000  1
  Rh  Rh0  1  0.37295899  0.03337158  0.09046849  1
  Rh  Rh1  1  0.62704101  0.96662842  0.90953151  1
  Rh  Rh2  1  0.62704101  0.96662842  0.59046849  1
  Rh  Rh3  1  0.62704101  0.53337158  0.40953151  1
  Rh  Rh4  1  0.37295899  0.03337158  0.40953151  1
  Rh  Rh5  1  0.37295899  0.46662842  0.59046849  1
  Rh  Rh6  1  0.37295899  0.46662842  0.90953151  1
  Rh  Rh7  1  0.62704101  0.53337158  0.09046849  1
loop_
_geom_bond_atom_site_label_1
_geom_bond_atom_site_label_2
_geom_bond_distance
_geom_bond_site_symmetry_2
Si0 Sm0 2.978268 1_555
Si0 Sm8 3.016026 1_555
Si0 Sm4 3.016026 1_555
Si0 Sm2 3.031144 1_545
Si0 Sm7 3.045259 1_445
Si0 Sm11 3.045259 1_445
Si0 Sm0 3.105893 1_455
Si1 Sm1 2.978268 1_555
Si1 Sm5 3.016026 1_555
Si1 Sm6 3.016026 1_555
Si1 Sm3 3.031144 1_565
Si1 Sm10 3.045259 1_665
Si1 Sm9 3.045259 1_665
Si1 Sm1 3.105893 1_655
Si2 Sm2 2.978268 1_555
Si2 Sm7 3.016026 1_555
Si2 Sm11 3.016026 1_555
Si2 Sm0 3.031144 1_555
Si2 Sm8 3.045259 1_655
Si2 Sm4 3.045259 1_655
Si2 Sm2 3.105893 1_655
Si3 Sm3 2.978268 1_555
Si3 Sm9 3.016026 1_555
Si3 Sm10 3.016026 1_555
Si3 Sm1 3.031144 1_555
Si3 Sm5 3.045259 1_455
Si3 Sm6 3.045259 1_455
Si3 Sm3 3.105893 1_455
Si4 Sm4 3.250125 1_555
Si4 Sm10 3.250125 1_554
Si4 Sm3 3.303762 1_554
Si4 Sm0 3.303762 1_555
Si4 Sm4 3.357655 1_655
Si4 Sm10 3.357655 1_654
Si4 Sm11 3.408169 1_545
Si4 Sm5 3.408169 1_554
Si5 Sm11 3.250125 1_555
Si5 Sm5 3.250125 1_554
Si5 Sm1 3.303762 1_554
Si5 Sm2 3.303762 1_555
Si5 Sm11 3.357655 1_455
Si5 Sm5 3.357655 1_454
Si5 Sm4 3.408169 1_555
Si5 Sm10 3.408169 1_564
Si6 Sm6 3.250125 1_555
Si6 Sm7 3.250125 1_555
Si6 Sm2 3.303762 1_555
Si6 Sm1 3.303762 1_555
Si6 Sm6 3.357655 1_455
Si6 Sm7 3.357655 1_455
Si6 Sm8 3.408169 1_555
Si6 Sm9 3.408169 1_565
Si7 Sm9 3.250125 1_555
Si7 Sm8 3.250125 1_555
Si7 Sm3 3.303762 1_555
Si7 Sm0 3.303762 1_555
Si7 Sm9 3.357655 1_655
Si7 Sm8 3.357655 1_655
Si7 Sm7 3.408169 1_545
Si7 Sm6 3.408169 1_555
Rh0 Si0 2.506940 1_555
Rh0 Si4 2.531523 1_555
Rh0 Si5 2.537455 1_545
Rh0 Sm10 2.919139 1_554
Rh0 Sm11 2.974078 1_545
Rh0 Sm0 3.084934 1_555
Rh0 Sm2 3.092479 1_545
Rh0 Sm11 3.097705 1_445
Rh0 Sm4 3.110052 1_555
Rh1 Si1 2.506940 1_555
Rh1 Si5 2.531523 1_556
Rh1 Si4 2.537455 1_566
Rh1 Sm11 2.919139 1_556
Rh1 Sm10 2.974078 1_565
Rh1 Sm1 3.084934 1_555
Rh1 Sm3 3.092479 1_565
Rh1 Sm10 3.097705 1_665
Rh1 Sm5 3.110052 1_555
Rh2 Si1 2.506940 1_555
Rh2 Si6 2.531523 1_555
Rh2 Si7 2.537455 1_565
Rh2 Sm7 2.919139 1_555
Rh2 Sm9 2.974078 1_565
Rh2 Sm1 3.084934 1_555
Rh2 Sm3 3.092479 1_565
Rh2 Sm9 3.097705 1_665
Rh2 Sm6 3.110052 1_555
Rh3 Si2 2.506940 1_555
Rh3 Si6 2.531523 1_555
Rh3 Si7 2.537455 1_555
Rh3 Sm6 2.919139 1_555
Rh3 Sm8 2.974078 1_555
Rh3 Sm2 3.084934 1_555
Rh3 Sm0 3.092479 1_555
Rh3 Sm8 3.097705 1_655
Rh3 Sm7 3.110052 1_555
Rh4 Si0 2.506940 1_555
Rh4 Si7 2.531523 1_555
Rh4 Si6 2.537455 1_545
Rh4 Sm9 2.919139 1_555
Rh4 Sm7 2.974078 1_545
Rh4 Sm0 3.084934 1_555
Rh4 Sm2 3.092479 1_545
Rh4 Sm7 3.097705 1_445
Rh4 Sm8 3.110052 1_555
Rh5 Si3 2.506940 1_555
Rh5 Si7 2.531523 1_555
Rh5 Si6 2.537455 1_555
Rh5 Sm8 2.919139 1_555
Rh5 Sm6 2.974078 1_555
Rh5 Sm3 3.084934 1_555
Rh5 Sm1 3.092479 1_555
Rh5 Sm6 3.097705 1_455
Rh5 Sm9 3.110052 1_555
Rh6 Si3 2.506940 1_555
Rh6 Si4 2.531523 1_556
Rh6 Si5 2.537455 1_556
Rh6 Sm4 2.919139 1_556
Rh6 Sm5 2.974078 1_555
Rh6 Sm3 3.084934 1_555
Rh6 Sm1 3.092479 1_555
Rh6 Sm5 3.097705 1_455
Rh6 Sm10 3.110052 1_555
Rh7 Si2 2.506940 1_555
Rh7 Si5 2.531523 1_555
Rh7 Si4 2.537455 1_555
Rh7 Sm5 2.919139 1_554
Rh7 Sm4 2.974078 1_555
Rh7 Sm2 3.084934 1_555
Rh7 Sm0 3.092479 1_555
Rh7 Sm4 3.097705 1_655
Rh7 Sm11 3.110052 1_555
