# generated using pymatgen
data_ReSi4Mo
_symmetry_space_group_name_H-M   'P 1'
_cell_length_a   3.20648200
_cell_length_b   3.20648200
_cell_length_c   7.86635000
_cell_angle_alpha   90.00000000
_cell_angle_beta   90.00000000
_cell_angle_gamma   90.00000000
_symmetry_Int_Tables_number   1
_chemical_formula_structural   ReSi4Mo
_chemical_formula_sum   'Re1 Si4 Mo1'
_cell_volume   80.87808847
_cell_formula_units_Z   1
loop_
 _symmetry_equiv_pos_site_id
 _symmetry_equiv_pos_as_xyz
  1  'x, y, z'
loop_
 _atom_site_type_symbol
 _atom_site_label
 _atom_site_symmetry_multiplicity
 _atom_site_fract_x
 _atom_site_fract_y
 _atom_site_fract_z
 _atom_site_occupancy
  Re  Re0  1  0.50000000  0.50000000  0.50000000  1
  Si  Si0  1  0.50000000  0.50000000  0.16600000  1
  Si  Si1  1  0.00000000  0.00000000  0.66703700  1
  Si  Si2  1  0.00000000  0.00000000  0.33296300  1
  Si  Si3  1  0.50000000  0.50000000  0.83400000  1
  Mo  Mo0  1  0.00000000  0.00000000  0.00000000  1
loop_
_geom_bond_atom_site_label_1
_geom_bond_atom_site_label_2
_geom_bond_distance
_geom_bond_site_symmetry_2
Re0 Si1 2.620550 1_655
Re0 Si1 2.620550 1_665
Re0 Si2 2.620550 1_565
Re0 Si2 2.620550 1_555
Re0 Si2 2.620550 1_655
Re0 Si1 2.620550 1_565
Re0 Si1 2.620550 1_555
Re0 Si2 2.620550 1_665
Re0 Si3 2.627361 1_555
Re0 Si0 2.627361 1_555
Si0 Si3 2.611628 1_554
Si0 Si2 2.620259 1_565
Si0 Si2 2.620259 1_655
Si0 Si2 2.620259 1_665
Si0 Si2 2.620259 1_555
Si1 Si3 2.620259 1_445
Si1 Si3 2.620259 1_455
Si1 Si3 2.620259 1_545
Si1 Si3 2.620259 1_555
Si1 Si2 2.627943 1_555
Mo0 Si3 2.616470 1_554
Mo0 Si3 2.616470 1_544
Mo0 Si3 2.616470 1_444
Mo0 Si3 2.616470 1_454
Mo0 Si0 2.616470 1_455
Mo0 Si0 2.616470 1_545
Mo0 Si0 2.616470 1_445
Mo0 Si0 2.616470 1_555
Mo0 Si2 2.619203 1_555
Mo0 Si1 2.619203 1_554
