# generated using pymatgen
data_Na3LaTi2Nb2O12
_symmetry_space_group_name_H-M   'P 1'
_cell_length_a   5.58113990
_cell_length_b   5.58113990
_cell_length_c   7.91144041
_cell_angle_alpha   89.91293936
_cell_angle_beta   89.91293936
_cell_angle_gamma   90.45687649
_symmetry_Int_Tables_number   1
_chemical_formula_structural   Na3LaTi2Nb2O12
_chemical_formula_sum   'Na3 La1 Ti2 Nb2 O12'
_cell_volume   246.42601861
_cell_formula_units_Z   1
loop_
 _symmetry_equiv_pos_site_id
 _symmetry_equiv_pos_as_xyz
  1  'x, y, z'
loop_
 _atom_site_type_symbol
 _atom_site_label
 _atom_site_symmetry_multiplicity
 _atom_site_fract_x
 _atom_site_fract_y
 _atom_site_fract_z
 _atom_site_occupancy
  Na  Na0  1  0.00239300  0.99760700  0.50000000  1
  Na  Na1  1  0.50266000  0.49734000  0.50000000  1
  Na  Na2  1  0.49627800  0.50372200  0.00000000  1
  La  La0  1  0.98738600  0.01261400  0.00000000  1
  Ti  Ti0  1  0.99636800  0.50371800  0.75478800  1
  Ti  Ti1  1  0.49628200  0.00363200  0.24521200  1
  Nb  Nb0  1  0.49682000  0.00221100  0.73838700  1
  Nb  Nb1  1  0.99778900  0.50318000  0.26161300  1
  O  O0  1  0.26210300  0.26255800  0.76040900  1
  O  O1  1  0.26631800  0.25915600  0.23955200  1
  O  O2  1  0.74084400  0.73368200  0.76044800  1
  O  O3  1  0.73744200  0.73789700  0.23959100  1
  O  O4  1  0.03397200  0.53194200  0.50339100  1
  O  O5  1  0.54197900  0.03021600  0.00273400  1
  O  O6  1  0.96978400  0.45802100  0.99726600  1
  O  O7  1  0.46805800  0.96602800  0.49660900  1
  O  O8  1  0.77602100  0.22807000  0.72563700  1
  O  O9  1  0.22560200  0.77003300  0.79201600  1
  O  O10  1  0.77193000  0.22397900  0.27436300  1
  O  O11  1  0.22996700  0.77439800  0.20798400  1
loop_
_geom_bond_atom_site_label_1
_geom_bond_atom_site_label_2
_geom_bond_distance
_geom_bond_site_symmetry_2
Na0 O8 2.542305 1_465
Na0 O10 2.542305 1_465
Na0 O7 2.606413 1_555
Na0 O4 2.606413 1_555
Na0 O1 2.914389 1_565
Na0 O2 2.914389 1_455
Na0 O3 2.918260 1_455
Na0 O0 2.918260 1_565
Na0 O11 2.920193 1_555
Na0 O9 2.920193 1_555
Na0 O4 2.986162 1_565
Na0 O7 2.986162 1_455
Na1 O7 2.624567 1_555
Na1 O4 2.624567 1_555
Na1 O3 2.778371 1_555
Na1 O0 2.778371 1_555
Na1 O2 2.782339 1_555
Na1 O1 2.782339 1_555
Na1 O8 2.794546 1_555
Na1 O10 2.794546 1_555
Na1 O4 2.970236 1_655
Na1 O7 2.970236 1_545
Na2 O2 2.656863 1_554
Na2 O1 2.656863 1_555
Na2 O5 2.657066 1_555
Na2 O6 2.657066 1_554
Na2 O3 2.664578 1_555
Na2 O0 2.664578 1_554
Na2 O9 2.689748 1_554
Na2 O11 2.689748 1_555
La0 O5 2.488664 1_555
La0 O6 2.488664 1_554
La0 O11 2.517329 1_645
La0 O9 2.517329 1_644
La0 O8 2.751650 1_554
La0 O10 2.751650 1_555
La0 O3 2.799774 1_545
La0 O0 2.799774 1_654
La0 O1 2.809155 1_655
La0 O2 2.809155 1_544
La0 O6 3.096146 1_544
La0 O5 3.096146 1_655
Nb0 O7 1.930541 1_545
Nb0 O0 1.971842 1_555
Nb0 O8 1.998786 1_555
Nb0 O9 2.028684 1_545
Nb0 O2 2.040563 1_545
Nb0 O5 2.112754 1_556
Nb1 O4 1.930541 1_655
Nb1 O3 1.971842 1_555
Nb1 O10 1.998786 1_555
Nb1 O11 2.028684 1_655
Nb1 O1 2.040563 1_655
Nb1 O6 2.112754 1_554
O0 Ti0 2.011220 1_455
O1 Ti1 1.926721 1_555
O2 Ti0 1.926721 1_555
O3 Ti1 2.011220 1_565
O4 Ti0 2.005464 1_455
O5 Ti1 1.940147 1_555
O6 Ti0 1.940147 1_555
O7 Ti1 2.005464 1_565
O8 Ti0 1.975880 1_555
O9 Ti0 1.976091 1_455
O10 Ti1 1.975880 1_555
O11 Ti1 1.976091 1_565
