# generated using pymatgen
data_RbAsOF4
_symmetry_space_group_name_H-M   'P 1'
_cell_length_a   6.10824900
_cell_length_b   5.50286300
_cell_length_c   15.02709745
_cell_angle_alpha   70.58190828
_cell_angle_beta   90.00000000
_cell_angle_gamma   90.00000000
_symmetry_Int_Tables_number   1
_chemical_formula_structural   RbAsOF4
_chemical_formula_sum   'Rb4 As4 O4 F16'
_cell_volume   476.37223865
_cell_formula_units_Z   4
loop_
 _symmetry_equiv_pos_site_id
 _symmetry_equiv_pos_as_xyz
  1  'x, y, z'
loop_
 _atom_site_type_symbol
 _atom_site_label
 _atom_site_symmetry_multiplicity
 _atom_site_fract_x
 _atom_site_fract_y
 _atom_site_fract_z
 _atom_site_occupancy
  Rb  Rb0  1  0.87322400  0.65058800  0.35098700  1
  Rb  Rb1  1  0.37322400  0.34941200  0.14901300  1
  Rb  Rb2  1  0.12677600  0.34941200  0.64901300  1
  Rb  Rb3  1  0.62677600  0.65058800  0.85098700  1
  As  As0  1  0.38656400  0.01994900  0.42017000  1
  As  As1  1  0.88656400  0.98005100  0.07983000  1
  As  As2  1  0.61343600  0.98005100  0.57983000  1
  As  As3  1  0.11343600  0.01994900  0.92017000  1
  O  O0  1  0.60681300  0.82053000  0.49082300  1
  O  O1  1  0.10681300  0.17947000  0.00917700  1
  O  O2  1  0.39318700  0.17947000  0.50917700  1
  O  O3  1  0.89318700  0.82053000  0.99082300  1
  F  F0  1  0.17325600  0.79659100  0.47822500  1
  F  F1  1  0.67325600  0.20340900  0.02177500  1
  F  F2  1  0.82674400  0.20340900  0.52177500  1
  F  F3  1  0.32674400  0.79659100  0.97822500  1
  F  F4  1  0.92248700  0.24493000  0.84209800  1
  F  F5  1  0.42248700  0.75507000  0.65790200  1
  F  F6  1  0.07751300  0.75507000  0.15790200  1
  F  F7  1  0.57751300  0.24493000  0.34209800  1
  F  F8  1  0.10350800  0.85272100  0.83562200  1
  F  F9  1  0.60350800  0.14727900  0.66437800  1
  F  F10  1  0.89649200  0.14727900  0.16437800  1
  F  F11  1  0.39649200  0.85272100  0.33562200  1
  F  F12  1  0.32588500  0.22519400  0.85314700  1
  F  F13  1  0.82588500  0.77480600  0.64685300  1
  F  F14  1  0.67411500  0.77480600  0.14685300  1
  F  F15  1  0.17411500  0.22519400  0.35314700  1
loop_
_geom_bond_atom_site_label_1
_geom_bond_atom_site_label_2
_geom_bond_distance
_geom_bond_site_symmetry_2
As0 F15 1.793778 1_555
As0 F11 1.800584 1_545
As0 F0 1.804567 1_545
As0 F7 1.817627 1_555
As0 O2 1.828070 1_555
As0 O0 1.834856 1_545
As1 F14 1.793778 1_555
As1 F10 1.800584 1_565
As1 F1 1.804567 1_565
As1 F6 1.817627 1_655
As1 O3 1.828070 1_554
As1 O1 1.834856 1_665
As2 F13 1.793778 1_555
As2 F9 1.800584 1_565
As2 F2 1.804567 1_565
As2 F5 1.817627 1_555
As2 O0 1.828070 1_555
As2 O2 1.834856 1_565
As3 F12 1.793778 1_555
As3 F8 1.800584 1_545
As3 F3 1.804567 1_545
As3 F4 1.817627 1_455
As3 O1 1.828070 1_556
As3 O3 1.834856 1_445
O0 Rb0 3.040538 1_555
O1 Rb1 3.040538 1_555
O2 Rb2 3.040538 1_555
O3 Rb3 3.040538 1_555
F0 Rb2 2.919484 1_555
F0 Rb0 2.946427 1_455
F1 Rb3 2.919484 1_554
F1 Rb1 2.946427 1_555
F2 Rb0 2.919484 1_555
F2 Rb2 2.946427 1_655
F3 Rb1 2.919484 1_556
F3 Rb3 2.946427 1_555
F4 Rb3 2.908920 1_555
F4 Rb2 3.032689 1_655
F5 Rb2 2.908920 1_555
F5 Rb3 3.032689 1_555
F6 Rb1 2.908920 1_555
F6 Rb0 3.032689 1_455
F7 Rb0 2.908920 1_555
F7 Rb1 3.032689 1_555
F8 Rb3 3.098308 1_455
F8 Rb2 3.202803 1_565
F8 Rb3 3.366868 1_555
F9 Rb2 3.098308 1_555
F9 Rb3 3.202803 1_545
F9 Rb2 3.366868 1_655
F10 Rb1 3.098308 1_655
F10 Rb0 3.202803 1_545
F10 Rb1 3.366868 1_555
F11 Rb0 3.098308 1_555
F11 Rb1 3.202803 1_565
F11 Rb0 3.366868 1_455
F12 Rb3 2.967863 1_555
F12 Rb2 3.156263 1_555
F13 Rb2 2.967863 1_655
F13 Rb3 3.156263 1_555
F14 Rb1 2.967863 1_555
F14 Rb0 3.156263 1_555
F15 Rb0 2.967863 1_455
F15 Rb1 3.156263 1_555
