# generated using pymatgen
data_Al2Si2PbO8
_symmetry_space_group_name_H-M   'P 1'
_cell_length_a   9.37509854
_cell_length_b   9.37509854
_cell_length_c   8.48956445
_cell_angle_alpha   82.94423346
_cell_angle_beta   82.94423346
_cell_angle_gamma   89.63703888
_symmetry_Int_Tables_number   1
_chemical_formula_structural   Al2Si2PbO8
_chemical_formula_sum   'Al8 Si8 Pb4 O32'
_cell_volume   734.88120134
_cell_formula_units_Z   4
loop_
 _symmetry_equiv_pos_site_id
 _symmetry_equiv_pos_as_xyz
  1  'x, y, z'
loop_
 _atom_site_type_symbol
 _atom_site_label
 _atom_site_symmetry_multiplicity
 _atom_site_fract_x
 _atom_site_fract_y
 _atom_site_fract_z
 _atom_site_occupancy
  Al  Al0  1  0.93701700  0.79576100  0.88735000  1
  Al  Al1  1  0.79576100  0.93701700  0.38735000  1
  Al  Al2  1  0.06298300  0.20423900  0.11265000  1
  Al  Al3  1  0.20423900  0.06298300  0.61265000  1
  Al  Al4  1  0.55175800  0.29261000  0.02271800  1
  Al  Al5  1  0.29261000  0.55175800  0.52271800  1
  Al  Al6  1  0.44824200  0.70739000  0.97728200  1
  Al  Al7  1  0.70739000  0.44824200  0.47728200  1
  Si  Si0  1  0.43294300  0.28567300  0.39732600  1
  Si  Si1  1  0.28567300  0.43294300  0.89732600  1
  Si  Si2  1  0.56705700  0.71432700  0.60267400  1
  Si  Si3  1  0.71432700  0.56705700  0.10267400  1
  Si  Si4  1  0.05985100  0.78661200  0.51440100  1
  Si  Si5  1  0.78661200  0.05985100  0.01440100  1
  Si  Si6  1  0.94014900  0.21338800  0.48559900  1
  Si  Si7  1  0.21338800  0.94014900  0.98559900  1
  Pb  Pb0  1  0.57911200  0.06802700  0.69631500  1
  Pb  Pb1  1  0.06802700  0.57911200  0.19631500  1
  Pb  Pb2  1  0.42088800  0.93197300  0.30368500  1
  Pb  Pb3  1  0.93197300  0.42088800  0.80368500  1
  O  O0  1  0.36628500  0.13392900  0.50118700  1
  O  O1  1  0.13392900  0.36628500  0.00118700  1
  O  O2  1  0.63371500  0.86607100  0.49881300  1
  O  O3  1  0.86607100  0.63371500  0.99881300  1
  O  O4  1  0.64613600  0.14518100  0.94972100  1
  O  O5  1  0.14518100  0.64613600  0.44972100  1
  O  O6  1  0.35386400  0.85481900  0.05027900  1
  O  O7  1  0.85481900  0.35386400  0.55027900  1
  O  O8  1  0.98651700  0.74461400  0.69787000  1
  O  O9  1  0.74461400  0.98651700  0.19787000  1
  O  O10  1  0.01348300  0.25538600  0.30213000  1
  O  O11  1  0.25538600  0.01348300  0.80213000  1
  O  O12  1  0.47891900  0.23881700  0.22010200  1
  O  O13  1  0.23881700  0.47891900  0.72010200  1
  O  O14  1  0.52108100  0.76118300  0.77989800  1
  O  O15  1  0.76118300  0.52108100  0.27989800  1
  O  O16  1  0.82272100  0.94257800  0.88904500  1
  O  O17  1  0.94257800  0.82272100  0.38904500  1
  O  O18  1  0.17727900  0.05742200  0.11095500  1
  O  O19  1  0.05742200  0.17727900  0.61095500  1
  O  O20  1  0.32383000  0.41989000  0.39390200  1
  O  O21  1  0.41989000  0.32383000  0.89390200  1
  O  O22  1  0.67617000  0.58011000  0.60609800  1
  O  O23  1  0.58011000  0.67617000  0.10609800  1
  O  O24  1  0.08371700  0.82063600  0.99574900  1
  O  O25  1  0.82063600  0.08371700  0.49574900  1
  O  O26  1  0.91628300  0.17936400  0.00425100  1
  O  O27  1  0.17936400  0.91628300  0.50425100  1
  O  O28  1  0.57016800  0.31834700  0.49160100  1
  O  O29  1  0.31834700  0.57016800  0.99160100  1
  O  O30  1  0.42983200  0.68165300  0.50839900  1
  O  O31  1  0.68165300  0.42983200  0.00839900  1
loop_
_geom_bond_atom_site_label_1
_geom_bond_atom_site_label_2
_geom_bond_distance
_geom_bond_site_symmetry_2
Al0 O16 1.739348 1_555
Al0 O8 1.742461 1_555
Al0 O3 1.775047 1_555
Al0 O24 1.777782 1_655
Al1 O17 1.739348 1_555
Al1 O9 1.742461 1_555
Al1 O2 1.775047 1_555
Al1 O25 1.777782 1_565
Al2 O18 1.739348 1_555
Al2 O10 1.742461 1_555
Al2 O1 1.775047 1_555
Al2 O26 1.777782 1_455
Al3 O19 1.739348 1_555
Al3 O11 1.742461 1_555
Al3 O0 1.775047 1_555
Al3 O27 1.777782 1_545
Al4 O12 1.744782 1_555
Al4 O21 1.748974 1_554
Al4 O31 1.760065 1_555
Al4 O4 1.771304 1_554
Al5 O13 1.744782 1_555
Al5 O20 1.748974 1_555
Al5 O30 1.760065 1_555
Al5 O5 1.771304 1_555
Al6 O14 1.744782 1_555
Al6 O23 1.748974 1_556
Al6 O29 1.760065 1_555
Al6 O6 1.771304 1_556
Al7 O15 1.744782 1_555
Al7 O22 1.748974 1_555
Al7 O28 1.760065 1_555
Al7 O7 1.771304 1_555
O0 Si0 1.661191 1_555
O0 Pb2 2.686068 1_545
O0 Pb0 2.766217 1_555
O1 Si1 1.661191 1_554
O1 Pb3 2.686068 1_454
O1 Pb1 2.766217 1_555
O2 Si2 1.661191 1_555
O2 Pb0 2.686068 1_565
O2 Pb2 2.766217 1_555
O3 Si3 1.661191 1_556
O3 Pb1 2.686068 1_656
O3 Pb3 2.766217 1_555
O4 Si5 1.652967 1_556
O4 Pb0 2.503257 1_555
O5 Si4 1.652967 1_555
O5 Pb1 2.503257 1_555
O6 Si7 1.652967 1_554
O6 Pb2 2.503257 1_555
O7 Si6 1.652967 1_555
O7 Pb3 2.503257 1_555
O8 Si4 1.625861 1_655
O9 Si5 1.625861 1_565
O10 Si6 1.625861 1_455
O11 Si7 1.625861 1_545
O12 Si0 1.625758 1_555
O13 Si1 1.625758 1_555
O14 Si2 1.625758 1_555
O15 Si3 1.625758 1_555
O16 Si5 1.627933 1_566
O17 Si4 1.627933 1_655
O18 Si7 1.627933 1_544
O19 Si6 1.627933 1_455
O20 Si0 1.616350 1_555
O21 Si1 1.616350 1_555
O22 Si2 1.616350 1_555
O23 Si3 1.616350 1_555
O24 Si7 1.645753 1_555
O24 Pb1 2.653959 1_556
O25 Si6 1.645753 1_555
O25 Pb0 2.653959 1_555
O26 Si5 1.645753 1_555
O26 Pb3 2.653959 1_554
O27 Si4 1.645753 1_555
O27 Pb2 2.653959 1_555
O28 Si0 1.645495 1_555
O28 Pb0 2.750659 1_555
O29 Si1 1.645495 1_555
O29 Pb1 2.750659 1_556
O30 Si2 1.645495 1_555
O30 Pb2 2.750659 1_555
O31 Si3 1.645495 1_555
O31 Pb3 2.750659 1_554
