# generated using pymatgen
data_Rb2MgNb2(TeO6)2
_symmetry_space_group_name_H-M   'P 1'
_cell_length_a   7.50583790
_cell_length_b   7.68058949
_cell_length_c   8.26448119
_cell_angle_alpha   89.03030138
_cell_angle_beta   70.83168002
_cell_angle_gamma   120.56980490
_symmetry_Int_Tables_number   1
_chemical_formula_structural   Rb2MgNb2(TeO6)2
_chemical_formula_sum   'Rb2 Mg1 Nb2 Te2 O12'
_cell_volume   377.43943925
_cell_formula_units_Z   1
loop_
 _symmetry_equiv_pos_site_id
 _symmetry_equiv_pos_as_xyz
  1  'x, y, z'
loop_
 _atom_site_type_symbol
 _atom_site_label
 _atom_site_symmetry_multiplicity
 _atom_site_fract_x
 _atom_site_fract_y
 _atom_site_fract_z
 _atom_site_occupancy
  Rb  Rb0  1  0.90370900  0.41078100  0.21804700  1
  Rb  Rb1  1  0.25814200  0.58528600  0.66559400  1
  Mg  Mg0  1  0.22727500  0.11256300  0.26451300  1
  Nb  Nb0  1  0.49884200  0.50217500  0.01458600  1
  Nb  Nb1  1  0.47842700  0.97482700  0.01351600  1
  Te  Te0  1  0.86276500  0.93775400  0.62031300  1
  Te  Te1  1  0.00686500  0.01367200  0.99263500  1
  O  O0  1  0.94084500  0.98174200  0.23734300  1
  O  O1  1  0.55650400  0.28310900  0.00460100  1
  O  O2  1  0.22843500  0.93862300  0.94556500  1
  O  O3  1  0.32785200  0.40227000  0.25854900  1
  O  O4  1  0.22837300  0.31033400  0.94280700  1
  O  O5  1  0.32757200  0.92471800  0.25689000  1
  O  O6  1  0.07858900  0.05133900  0.73120600  1
  O  O7  1  0.39146500  0.69697900  0.00429900  1
  O  O8  1  0.78363300  0.08102900  0.01289500  1
  O  O9  1  0.67770700  0.65121700  0.71759900  1
  O  O10  1  0.78658100  0.71977700  0.01978400  1
  O  O11  1  0.67749000  0.03787600  0.70888700  1
loop_
_geom_bond_atom_site_label_1
_geom_bond_atom_site_label_2
_geom_bond_distance
_geom_bond_site_symmetry_2
Mg0 O5 1.931054 1_545
Mg0 O3 1.945948 1_555
Mg0 O0 1.951778 1_445
Mg0 O1 2.358577 1_555
Nb0 O3 1.883550 1_555
Nb0 O1 1.935740 1_555
Nb0 O10 1.962478 1_555
Nb0 O7 2.040273 1_555
Nb0 O4 2.102869 1_554
Nb0 O9 2.305398 1_554
Nb1 O5 1.873696 1_555
Nb1 O7 1.899278 1_555
Nb1 O8 2.001175 1_565
Nb1 O2 2.019928 1_554
Nb1 O1 2.123579 1_565
Nb1 O11 2.357498 1_564
O0 Te1 1.896636 1_664
O0 Rb0 3.450745 1_565
O1 Rb0 3.367932 1_555
O2 Te1 1.951211 1_565
O3 Rb0 3.340961 1_455
O4 Te1 1.947005 1_555
O4 Rb1 2.962851 1_555
O4 Rb0 3.168510 1_456
O6 Te0 1.946716 1_445
O6 Te1 2.024401 1_555
O7 Rb0 2.965033 1_455
O7 Rb1 3.258918 1_554
O8 Te1 1.950266 1_654
O8 Rb0 2.988045 1_555
O9 Te0 1.875239 1_555
O9 Rb1 3.103647 1_555
O10 Te1 1.955089 1_664
O10 Rb0 3.467961 1_555
O11 Te0 1.870674 1_545
O11 Rb1 3.430907 1_545
