# generated using pymatgen
data_Y3Co6Sn5
_symmetry_space_group_name_H-M   'P 1'
_cell_length_a   8.12859554
_cell_length_b   8.12859554
_cell_length_c   8.12859554
_cell_angle_alpha   149.24816720
_cell_angle_beta   106.96044610
_cell_angle_gamma   81.30923395
_symmetry_Int_Tables_number   1
_chemical_formula_structural   Y3Co6Sn5
_chemical_formula_sum   'Y3 Co6 Sn5'
_cell_volume   257.17661788
_cell_formula_units_Z   1
loop_
 _symmetry_equiv_pos_site_id
 _symmetry_equiv_pos_as_xyz
  1  'x, y, z'
loop_
 _atom_site_type_symbol
 _atom_site_label
 _atom_site_symmetry_multiplicity
 _atom_site_fract_x
 _atom_site_fract_y
 _atom_site_fract_z
 _atom_site_occupancy
  Y  Y0  1  0.00000000  0.00000000  0.00000000  1
  Y  Y1  1  0.31665200  0.31665200  0.00000000  1
  Y  Y2  1  0.68334800  0.68334800  0.00000000  1
  Co  Co0  1  0.69744700  0.50000000  0.19744700  1
  Co  Co1  1  0.30255300  0.50000000  0.80255300  1
  Co  Co2  1  0.38129200  0.10733800  0.27395400  1
  Co  Co3  1  0.61870800  0.89266200  0.72604600  1
  Co  Co4  1  0.83338400  0.10733800  0.72604600  1
  Co  Co5  1  0.16661600  0.89266200  0.27395400  1
  Sn  Sn0  1  0.66451500  0.32339500  0.34112000  1
  Sn  Sn1  1  0.33548500  0.67660500  0.65888000  1
  Sn  Sn2  1  0.98227600  0.32339500  0.65888000  1
  Sn  Sn3  1  0.01772400  0.67660500  0.34112000  1
  Sn  Sn4  1  0.50000000  0.00000000  0.50000000  1
loop_
_geom_bond_atom_site_label_1
_geom_bond_atom_site_label_2
_geom_bond_distance
_geom_bond_site_symmetry_2
Co0 Co4 2.544501 1_565
Co0 Co4 2.544501 1_554
Co0 Co3 2.544501 1_544
Co0 Co3 2.544501 1_555
Co0 Sn3 2.583876 1_655
Co0 Sn0 2.583884 1_555
Co0 Sn4 2.879987 1_554
Co0 Sn4 2.879987 1_565
Co0 Y2 2.960167 1_555
Co0 Y1 2.960167 1_555
Co1 Co5 2.544501 1_556
Co1 Co2 2.544501 1_566
Co1 Co2 2.544501 1_555
Co1 Co5 2.544501 1_545
Co1 Sn2 2.583876 1_455
Co1 Sn1 2.583884 1_555
Co1 Sn4 2.879987 1_566
Co1 Sn4 2.879987 1_555
Co1 Y1 2.960167 1_556
Co1 Y2 2.960167 1_556
Co2 Sn4 2.556405 1_555
Co2 Sn1 2.571889 1_544
Co2 Sn1 2.571889 1_555
Co2 Co5 2.647712 1_545
Co2 Sn0 2.742830 1_555
Co2 Y0 2.962647 1_555
Co2 Y2 3.210420 1_545
Co2 Y2 3.210420 1_556
Co3 Sn4 2.556405 1_565
Co3 Sn0 2.571889 1_566
Co3 Sn0 2.571889 1_555
Co3 Co4 2.647712 1_565
Co3 Sn1 2.742830 1_555
Co3 Y0 2.962647 1_666
Co3 Y1 3.210420 1_566
Co3 Y1 3.210420 1_555
Co4 Sn4 2.556405 1_555
Co4 Sn3 2.571884 1_645
Co4 Sn3 2.571887 1_656
Co4 Sn2 2.742835 1_555
Co4 Y0 2.962647 1_656
Co4 Y2 3.210420 1_545
Co4 Y2 3.210420 1_556
Co5 Sn4 2.556405 1_565
Co5 Sn2 2.571884 1_465
Co5 Sn2 2.571887 1_454
Co5 Sn3 2.742835 1_555
Co5 Y0 2.962647 1_565
Co5 Y1 3.210420 1_555
Co5 Y1 3.210420 1_566
Sn0 Sn2 3.074224 1_555
Sn0 Y2 3.160936 1_556
Sn0 Y2 3.160936 1_545
Sn0 Y1 3.301267 1_555
Sn0 Y0 3.428182 1_655
Sn0 Y0 3.428182 1_666
Sn1 Sn3 3.074224 1_555
Sn1 Y1 3.160936 1_566
Sn1 Y1 3.160936 1_555
Sn1 Y2 3.301267 1_556
Sn1 Y0 3.428182 1_566
Sn1 Y0 3.428182 1_555
Sn2 Y2 3.160940 1_545
Sn2 Y2 3.160943 1_556
Sn2 Y1 3.301262 1_656
Sn2 Y0 3.428179 1_655
Sn2 Y0 3.428182 1_666
Sn3 Y1 3.160940 1_566
Sn3 Y1 3.160943 1_555
Sn3 Y2 3.301262 1_455
Sn3 Y0 3.428179 1_566
Sn3 Y0 3.428182 1_555
Sn4 Y2 3.123930 1_556
Sn4 Y1 3.123930 1_545
Sn4 Y1 3.123930 1_556
Sn4 Y2 3.123930 1_545
