# generated using pymatgen
data_Cu2SiHgSe4
_symmetry_space_group_name_H-M   'P 1'
_cell_length_a   6.65035000
_cell_length_b   6.86060200
_cell_length_c   8.12441100
_cell_angle_alpha   90.00000000
_cell_angle_beta   90.00000000
_cell_angle_gamma   90.00000000
_symmetry_Int_Tables_number   1
_chemical_formula_structural   Cu2SiHgSe4
_chemical_formula_sum   'Cu4 Si2 Hg2 Se8'
_cell_volume   370.67953829
_cell_formula_units_Z   2
loop_
 _symmetry_equiv_pos_site_id
 _symmetry_equiv_pos_as_xyz
  1  'x, y, z'
loop_
 _atom_site_type_symbol
 _atom_site_label
 _atom_site_symmetry_multiplicity
 _atom_site_fract_x
 _atom_site_fract_y
 _atom_site_fract_z
 _atom_site_occupancy
  Cu  Cu0  1  0.51139100  0.82380800  0.75254600  1
  Cu  Cu1  1  0.01139100  0.17619200  0.74745400  1
  Cu  Cu2  1  0.01139100  0.17619200  0.25254600  1
  Cu  Cu3  1  0.51139100  0.82380800  0.24745400  1
  Si  Si0  1  0.00031100  0.67889500  0.00000000  1
  Si  Si1  1  0.50031100  0.32110500  0.50000000  1
  Hg  Hg0  1  0.51383300  0.34904800  0.00000000  1
  Hg  Hg1  1  0.01383300  0.65095200  0.50000000  1
  Se  Se0  1  0.91784900  0.34898600  0.00000000  1
  Se  Se1  1  0.41784900  0.65101400  0.50000000  1
  Se  Se2  1  0.87380200  0.84473800  0.77301100  1
  Se  Se3  1  0.37380200  0.15526200  0.72698900  1
  Se  Se4  1  0.37380200  0.15526200  0.27301100  1
  Se  Se5  1  0.87380200  0.84473800  0.22698900  1
  Se  Se6  1  0.35012100  0.70852700  0.00000000  1
  Se  Se7  1  0.85012100  0.29147300  0.50000000  1
loop_
_geom_bond_atom_site_label_1
_geom_bond_atom_site_label_2
_geom_bond_distance
_geom_bond_site_symmetry_2
Cu0 Se6 2.411962 1_556
Cu0 Se2 2.420152 1_555
Cu0 Se1 2.449932 1_555
Cu0 Se3 2.459944 1_565
Cu1 Se7 2.411962 1_455
Cu1 Se3 2.420152 1_555
Cu1 Se0 2.449932 1_456
Cu1 Se2 2.459944 1_445
Cu2 Se7 2.411962 1_455
Cu2 Se4 2.420152 1_555
Cu2 Se0 2.449932 1_455
Cu2 Se5 2.459944 1_445
Cu3 Se6 2.411962 1_555
Cu3 Se5 2.420152 1_555
Cu3 Se1 2.449932 1_555
Cu3 Se4 2.459944 1_565
Hg0 Se0 2.686848 1_555
Hg0 Se6 2.695869 1_555
Hg0 Se4 2.748552 1_555
Hg0 Se3 2.748552 1_554
Hg1 Se1 2.686848 1_555
Hg1 Se7 2.695869 1_455
Hg1 Se5 2.748552 1_455
Hg1 Se2 2.748552 1_455
Se0 Si0 2.328864 1_655
Se1 Si1 2.328864 1_555
Se2 Si0 2.324496 1_656
Se3 Si1 2.324496 1_555
Se4 Si1 2.324496 1_555
Se5 Si0 2.324496 1_655
Se6 Si0 2.335225 1_555
Se7 Si1 2.335225 1_555
