# generated using pymatgen
data_Ca2Fe2O5
_symmetry_space_group_name_H-M   'P 1'
_cell_length_a   3.93576800
_cell_length_b   5.46231900
_cell_length_c   10.49044900
_cell_angle_alpha   90.00000000
_cell_angle_beta   90.00000000
_cell_angle_gamma   90.00000000
_symmetry_Int_Tables_number   1
_chemical_formula_structural   Ca2Fe2O5
_chemical_formula_sum   'Ca4 Fe4 O10'
_cell_volume   225.52808201
_cell_formula_units_Z   2
loop_
 _symmetry_equiv_pos_site_id
 _symmetry_equiv_pos_as_xyz
  1  'x, y, z'
loop_
 _atom_site_type_symbol
 _atom_site_label
 _atom_site_symmetry_multiplicity
 _atom_site_fract_x
 _atom_site_fract_y
 _atom_site_fract_z
 _atom_site_occupancy
  Ca  Ca0  1  0.00000000  0.72157900  0.88459000  1
  Ca  Ca1  1  0.00000000  0.27842100  0.11541000  1
  Ca  Ca2  1  0.00000000  0.22157900  0.61541000  1
  Ca  Ca3  1  0.00000000  0.77842100  0.38459000  1
  Fe  Fe0  1  0.50000000  0.73839900  0.63576200  1
  Fe  Fe1  1  0.50000000  0.26160100  0.36423800  1
  Fe  Fe2  1  0.50000000  0.76160100  0.13576200  1
  Fe  Fe3  1  0.50000000  0.23839900  0.86423800  1
  O  O0  1  0.50000000  0.00000000  0.50000000  1
  O  O1  1  0.50000000  0.60583100  0.29880700  1
  O  O2  1  0.50000000  0.10583100  0.20119300  1
  O  O3  1  0.50000000  0.89416900  0.79880700  1
  O  O4  1  0.00000000  0.79634700  0.10694900  1
  O  O5  1  0.00000000  0.20365300  0.89305100  1
  O  O6  1  0.50000000  0.39416900  0.70119300  1
  O  O7  1  0.00000000  0.70365300  0.60694900  1
  O  O8  1  0.50000000  0.50000000  0.00000000  1
  O  O9  1  0.00000000  0.29634700  0.39305100  1
loop_
_geom_bond_atom_site_label_1
_geom_bond_atom_site_label_2
_geom_bond_distance
_geom_bond_site_symmetry_2
Ca0 O3 2.360329 1_455
Ca0 O3 2.360329 1_555
Ca0 O4 2.368128 1_556
Ca0 O8 2.608310 1_456
Ca0 O8 2.608310 1_556
Ca0 O5 2.634737 1_565
Ca0 O5 2.830469 1_555
Ca0 O7 2.914224 1_555
Ca1 O2 2.360329 1_455
Ca1 O2 2.360329 1_555
Ca1 O5 2.368128 1_554
Ca1 O8 2.608310 1_455
Ca1 O8 2.608310 1_555
Ca1 O4 2.634737 1_545
Ca1 O4 2.830469 1_555
Ca1 O9 2.914224 1_555
Ca2 O6 2.360329 1_455
Ca2 O6 2.360329 1_555
Ca2 O9 2.368128 1_555
Ca2 O0 2.608310 1_455
Ca2 O0 2.608310 1_555
Ca2 O7 2.634737 1_555
Ca2 O7 2.830469 1_545
Ca2 O5 2.914224 1_555
Ca3 O1 2.360329 1_555
Ca3 O1 2.360329 1_455
Ca3 O7 2.368128 1_555
Ca3 O0 2.608310 1_565
Ca3 O0 2.608310 1_465
Ca3 O9 2.634737 1_555
Ca3 O9 2.830469 1_565
Ca3 O4 2.914224 1_555
Fe0 O3 1.910364 1_555
Fe0 O7 1.999988 1_655
Fe0 O7 1.999988 1_555
Fe0 O6 2.001662 1_555
Fe0 O0 2.017486 1_565
Fe1 O2 1.910364 1_555
Fe1 O9 1.999988 1_555
Fe1 O9 1.999988 1_655
Fe1 O1 2.001662 1_555
Fe1 O0 2.017486 1_555
Fe2 O1 1.910364 1_555
Fe2 O4 1.999988 1_655
Fe2 O4 1.999988 1_555
Fe2 O2 2.001662 1_565
Fe2 O8 2.017486 1_555
Fe3 O6 1.910364 1_555
Fe3 O5 1.999988 1_655
Fe3 O5 1.999988 1_555
Fe3 O3 2.001662 1_545
Fe3 O8 2.017486 1_556
