# generated using pymatgen
data_Na2U2O7
_symmetry_space_group_name_H-M   'P 1'
_cell_length_a   6.57713745
_cell_length_b   6.94210063
_cell_length_c   7.92918700
_cell_angle_alpha   90.00000000
_cell_angle_beta   90.00000000
_cell_angle_gamma   110.62991560
_symmetry_Int_Tables_number   1
_chemical_formula_structural   Na2U2O7
_chemical_formula_sum   'Na4 U4 O14'
_cell_volume   338.82438246
_cell_formula_units_Z   2
loop_
 _symmetry_equiv_pos_site_id
 _symmetry_equiv_pos_as_xyz
  1  'x, y, z'
loop_
 _atom_site_type_symbol
 _atom_site_label
 _atom_site_symmetry_multiplicity
 _atom_site_fract_x
 _atom_site_fract_y
 _atom_site_fract_z
 _atom_site_occupancy
  Na  Na0  1  0.46447100  0.49755900  0.51926600  1
  Na  Na1  1  0.53552900  0.50244100  0.01926600  1
  Na  Na2  1  0.50577100  0.99708600  0.26509800  1
  Na  Na3  1  0.49422900  0.00291400  0.76509800  1
  U  U0  1  0.99787700  0.98410000  0.00071800  1
  U  U1  1  0.00212300  0.01590000  0.50071800  1
  U  U2  1  0.99854500  0.53158100  0.75377600  1
  U  U3  1  0.00145500  0.46841900  0.25377600  1
  O  O0  1  0.01266000  0.86819700  0.74439700  1
  O  O1  1  0.98734000  0.13180300  0.24439700  1
  O  O2  1  0.97723200  0.65211800  0.02430000  1
  O  O3  1  0.02276800  0.34788200  0.52430000  1
  O  O4  1  0.69446800  0.91993600  0.51273900  1
  O  O5  1  0.30553200  0.08006400  0.01273900  1
  O  O6  1  0.30243500  0.63679500  0.75308600  1
  O  O7  1  0.69756500  0.36320500  0.25308600  1
  O  O8  1  0.69246500  0.42934600  0.74210400  1
  O  O9  1  0.30753500  0.57065400  0.24210400  1
  O  O10  1  0.69098400  0.88338200  0.99859400  1
  O  O11  1  0.30901600  0.11661800  0.49859400  1
  O  O12  1  0.00087900  0.72311200  0.40776100  1
  O  O13  1  0.99912100  0.27688800  0.90776100  1
loop_
_geom_bond_atom_site_label_1
_geom_bond_atom_site_label_2
_geom_bond_distance
_geom_bond_site_symmetry_2
Na0 O8 2.468863 1_555
Na0 O11 2.482032 1_555
Na0 O6 2.496658 1_555
Na0 O9 2.553768 1_555
Na0 O3 2.719188 1_555
Na0 O4 2.786239 1_555
Na0 O7 2.946607 1_555
Na1 O9 2.468863 1_555
Na1 O10 2.482032 1_554
Na1 O7 2.496658 1_555
Na1 O8 2.553768 1_554
Na1 O2 2.719188 1_555
Na1 O5 2.786239 1_555
Na1 O6 2.946607 1_554
Na2 O7 2.408526 1_565
Na2 O4 2.480167 1_555
Na2 O11 2.558852 1_565
Na2 O5 2.570001 1_565
Na2 O10 2.692587 1_554
Na2 O9 2.788720 1_555
Na3 O6 2.408526 1_545
Na3 O5 2.480167 1_556
Na3 O10 2.558852 1_545
Na3 O4 2.570001 1_545
Na3 O11 2.692587 1_555
Na3 O8 2.788720 1_555
O0 U1 2.199901 1_565
O0 U0 2.200613 1_456
O0 U2 2.306950 1_455
O1 U0 2.199901 1_545
O1 U1 2.200613 1_655
O1 U3 2.306950 1_655
O2 U3 2.259562 1_655
O2 U0 2.268107 1_555
O2 U2 2.324582 1_554
O3 U2 2.259562 1_455
O3 U1 2.268107 1_555
O3 U3 2.324582 1_555
O4 U1 1.896708 1_665
O5 U0 1.896708 1_445
O6 U2 1.870751 1_455
O7 U3 1.870751 1_655
O8 U2 1.886312 1_555
O9 U3 1.886312 1_555
O10 U0 1.889157 1_556
O11 U1 1.889157 1_555
O12 U3 2.149816 1_555
O12 U1 2.159384 1_565
O13 U2 2.149816 1_555
O13 U0 2.159384 1_546
