# generated using pymatgen
data_Ba3Sr(SnO3)4
_symmetry_space_group_name_H-M   'P 1'
_cell_length_a   4.17137800
_cell_length_b   5.90105700
_cell_length_c   11.79914000
_cell_angle_alpha   90.00000000
_cell_angle_beta   90.00000000
_cell_angle_gamma   90.00000000
_symmetry_Int_Tables_number   1
_chemical_formula_structural   Ba3Sr(SnO3)4
_chemical_formula_sum   'Ba3 Sr1 Sn4 O12'
_cell_volume   290.44219493
_cell_formula_units_Z   1
loop_
 _symmetry_equiv_pos_site_id
 _symmetry_equiv_pos_as_xyz
  1  'x, y, z'
loop_
 _atom_site_type_symbol
 _atom_site_label
 _atom_site_symmetry_multiplicity
 _atom_site_fract_x
 _atom_site_fract_y
 _atom_site_fract_z
 _atom_site_occupancy
  Ba  Ba0  1  0.50000000  0.00000000  0.24965600  1
  Ba  Ba1  1  0.50000000  0.50000000  0.50000000  1
  Ba  Ba2  1  0.50000000  0.00000000  0.75034400  1
  Sr  Sr0  1  0.50000000  0.50000000  0.00000000  1
  Sn  Sn0  1  0.00000000  0.00000000  0.50000000  1
  Sn  Sn1  1  0.00000000  0.50000000  0.75083800  1
  Sn  Sn2  1  0.00000000  0.00000000  0.00000000  1
  Sn  Sn3  1  0.00000000  0.50000000  0.24916200  1
  O  O0  1  0.00000000  0.25013100  0.62516400  1
  O  O1  1  0.00000000  0.74736000  0.87655300  1
  O  O2  1  0.00000000  0.25264000  0.12344700  1
  O  O3  1  0.00000000  0.74986900  0.37483600  1
  O  O4  1  0.00000000  0.25013100  0.37483600  1
  O  O5  1  0.00000000  0.74986900  0.62516400  1
  O  O6  1  0.00000000  0.25264000  0.87655300  1
  O  O7  1  0.00000000  0.74736000  0.12344700  1
  O  O8  1  0.50000000  0.00000000  0.50000000  1
  O  O9  1  0.50000000  0.50000000  0.75155800  1
  O  O10  1  0.50000000  0.00000000  0.00000000  1
  O  O11  1  0.50000000  0.50000000  0.24844200  1
loop_
_geom_bond_atom_site_label_1
_geom_bond_atom_site_label_2
_geom_bond_distance
_geom_bond_site_symmetry_2
Ba0 O10 2.945726 1_555
Ba0 O11 2.950563 1_545
Ba0 O11 2.950563 1_555
Ba0 O3 2.951332 1_645
Ba0 O4 2.951332 1_555
Ba0 O4 2.951332 1_655
Ba0 O3 2.951332 1_545
Ba0 O8 2.953844 1_555
Ba0 O7 2.964844 1_545
Ba0 O2 2.964844 1_555
Ba0 O7 2.964844 1_645
Ba0 O2 2.964844 1_655
Ba1 O5 2.950465 1_655
Ba1 O5 2.950465 1_555
Ba1 O0 2.950465 1_555
Ba1 O0 2.950465 1_655
Ba1 O4 2.950465 1_655
Ba1 O3 2.950465 1_555
Ba1 O4 2.950465 1_555
Ba1 O3 2.950465 1_655
Ba1 O8 2.950528 1_555
Ba1 O8 2.950528 1_565
Ba1 O9 2.968168 1_555
Ba1 O11 2.968168 1_555
Ba2 O10 2.945726 1_556
Ba2 O9 2.950563 1_545
Ba2 O9 2.950563 1_555
Ba2 O5 2.951332 1_645
Ba2 O0 2.951332 1_555
Ba2 O5 2.951332 1_545
Ba2 O0 2.951332 1_655
Ba2 O8 2.953844 1_555
Ba2 O1 2.964844 1_645
Ba2 O6 2.964844 1_655
Ba2 O6 2.964844 1_555
Ba2 O1 2.964844 1_545
O0 Sn0 2.087991 1_555
O0 Sn1 2.091161 1_555
O1 Sn1 2.081093 1_555
O1 Sn2 2.084276 1_566
O1 Sr0 2.932980 1_556
O1 Sr0 2.932980 1_456
O2 Sn3 2.081093 1_555
O2 Sn2 2.084276 1_555
O2 Sr0 2.932980 1_455
O2 Sr0 2.932980 1_555
O3 Sn0 2.087991 1_565
O3 Sn3 2.091161 1_555
O4 Sn0 2.087991 1_555
O4 Sn3 2.091161 1_555
O5 Sn0 2.087991 1_565
O5 Sn1 2.091161 1_555
O6 Sn1 2.081093 1_555
O6 Sn2 2.084276 1_556
O6 Sr0 2.932980 1_556
O6 Sr0 2.932980 1_456
O7 Sn3 2.081093 1_555
O7 Sn2 2.084276 1_565
O7 Sr0 2.932980 1_455
O7 Sr0 2.932980 1_555
O8 Sn0 2.085689 1_555
O8 Sn0 2.085689 1_655
O9 Sn1 2.085706 1_555
O9 Sn1 2.085706 1_655
O9 Sr0 2.931402 1_556
O10 Sn2 2.085689 1_555
O10 Sn2 2.085689 1_655
O10 Sr0 2.950528 1_555
O10 Sr0 2.950528 1_545
O11 Sn3 2.085706 1_555
O11 Sn3 2.085706 1_655
O11 Sr0 2.931402 1_555
