# generated using pymatgen
data_H9C3S2N2ClO4
_symmetry_space_group_name_H-M   'P 1'
_cell_length_a   7.06273400
_cell_length_b   12.91915602
_cell_length_c   13.71089485
_cell_angle_alpha   62.04697783
_cell_angle_beta   78.24800942
_cell_angle_gamma   85.71675284
_symmetry_Int_Tables_number   1
_chemical_formula_structural   H9C3S2N2ClO4
_chemical_formula_sum   'H36 C12 S8 N8 Cl4 O16'
_cell_volume   1081.61106148
_cell_formula_units_Z   4
loop_
 _symmetry_equiv_pos_site_id
 _symmetry_equiv_pos_as_xyz
  1  'x, y, z'
loop_
 _atom_site_type_symbol
 _atom_site_label
 _atom_site_symmetry_multiplicity
 _atom_site_fract_x
 _atom_site_fract_y
 _atom_site_fract_z
 _atom_site_occupancy
  H  H0  1  0.98684100  0.42828700  0.67338000  1
  H  H1  1  0.01315900  0.57171300  0.32662000  1
  H  H2  1  0.91614200  0.33034900  0.62652900  1
  H  H3  1  0.08385800  0.66965100  0.37347100  1
  H  H4  1  0.73873100  0.38252700  0.70702800  1
  H  H5  1  0.26126900  0.61747300  0.29297200  1
  H  H6  1  0.14743300  0.14067100  0.86811200  1
  H  H7  1  0.85256700  0.85932900  0.13188800  1
  H  H8  1  0.16636500  0.20085800  0.71717800  1
  H  H9  1  0.83363500  0.79914200  0.28282200  1
  H  H10  1  0.22098800  0.29049400  0.77568600  1
  H  H11  1  0.77901200  0.70950600  0.22431400  1
  H  H12  1  0.72017800  0.30880300  0.90323600  1
  H  H13  1  0.27982200  0.69119700  0.09676400  1
  H  H14  1  0.90005400  0.20845400  0.97293100  1
  H  H15  1  0.09994600  0.79154600  0.02706900  1
  H  H16  1  0.96463600  0.35867900  0.87505700  1
  H  H17  1  0.03536400  0.64132100  0.12494300  1
  H  H18  1  0.69290400  0.75969000  0.70499700  1
  H  H19  1  0.30709600  0.24031000  0.29500300  1
  H  H20  1  0.92250200  0.83572800  0.63882400  1
  H  H21  1  0.07749800  0.16427200  0.36117600  1
  H  H22  1  0.86456200  0.74757300  0.78976700  1
  H  H23  1  0.13543800  0.25242700  0.21023300  1
  H  H24  1  0.50531500  0.94934600  0.83367400  1
  H  H25  1  0.49468500  0.05065400  0.16632600  1
  H  H26  1  0.46967700  0.81331000  0.83452900  1
  H  H27  1  0.53032300  0.18669000  0.16547100  1
  H  H28  1  0.65174700  0.82447700  0.90309500  1
  H  H29  1  0.34825300  0.17552300  0.09690500  1
  H  H30  1  0.57801200  0.06483700  0.63212000  1
  H  H31  1  0.42198800  0.93516300  0.36788000  1
  H  H32  1  0.73390100  0.00658400  0.54895600  1
  H  H33  1  0.26609900  0.99341600  0.45104400  1
  H  H34  1  0.50506400  0.93544000  0.63052100  1
  H  H35  1  0.49493600  0.06456000  0.36947900  1
  C  C0  1  0.88853100  0.35618000  0.69351900  1
  C  C1  1  0.11146900  0.64382000  0.30648100  1
  C  C2  1  0.12966500  0.21798500  0.78972200  1
  C  C3  1  0.87033500  0.78201500  0.21027800  1
  C  C4  1  0.87203000  0.28404500  0.89583800  1
  C  C5  1  0.12797000  0.71595500  0.10416200  1
  C  C6  1  0.80785400  0.80532900  0.71387600  1
  C  C7  1  0.19214600  0.19467100  0.28612400  1
  C  C8  1  0.57724200  0.87185700  0.83221600  1
  C  C9  1  0.42275800  0.12814300  0.16778400  1
  C  C10  1  0.62815800  0.98530600  0.62645700  1
  C  C11  1  0.37184200  0.01469400  0.37354300  1
  S  S0  1  0.75666300  0.12587400  0.83862300  1
  S  S1  1  0.24333700  0.87412600  0.16137700  1
  S  S2  1  0.93103600  0.99508000  0.72628700  1
  S  S3  1  0.06896400  0.00492000  0.27371300  1
  S  S4  1  0.69016100  0.35164800  0.38041000  1
  S  S5  1  0.30983900  0.64835200  0.61959000  1
  S  S6  1  0.62539500  0.49832500  0.16231200  1
  S  S7  1  0.37460500  0.50167500  0.83768800  1
  N  N0  1  0.82308400  0.10436700  0.73197000  1
  N  N1  1  0.17691600  0.89563300  0.26803000  1
  N  N2  1  0.72031100  0.90946700  0.72487300  1
  N  N3  1  0.27968900  0.09053300  0.27512700  1
  N  N4  1  0.92440000  0.25452500  0.80039800  1
  N  N5  1  0.07560000  0.74547500  0.19960200  1
  N  N6  1  0.72480900  0.47236400  0.26626000  1
  N  N7  1  0.27519100  0.52763600  0.73374000  1
  Cl  Cl0  1  0.41574200  0.36734900  0.46969800  1
  Cl  Cl1  1  0.58425800  0.63265100  0.53030200  1
  Cl  Cl2  1  0.77879900  0.39487700  0.09183700  1
  Cl  Cl3  1  0.22120100  0.60512300  0.90816300  1
  O  O0  1  0.80279800  0.03817700  0.94375100  1
  O  O1  1  0.19720200  0.96182300  0.05624900  1
  O  O2  1  0.57150200  0.18009500  0.83437300  1
  O  O3  1  0.42849800  0.81990500  0.16562700  1
  O  O4  1  0.00285300  0.91059200  0.82429400  1
  O  O5  1  0.99714700  0.08940800  0.17570600  1
  O  O6  1  0.04395300  0.03089800  0.61551400  1
  O  O7  1  0.95604700  0.96910200  0.38448600  1
  O  O8  1  0.82430100  0.35136000  0.44674300  1
  O  O9  1  0.17569900  0.64864000  0.55325700  1
  O  O10  1  0.66842800  0.24838000  0.36774300  1
  O  O11  1  0.33157200  0.75162000  0.63225700  1
  O  O12  1  0.42588300  0.45976400  0.19168800  1
  O  O13  1  0.57411700  0.54023600  0.80831200  1
  O  O14  1  0.67923900  0.61718500  0.07815100  1
  O  O15  1  0.32076100  0.38281500  0.92184900  1
loop_
_geom_bond_atom_site_label_1
_geom_bond_atom_site_label_2
_geom_bond_distance
_geom_bond_site_symmetry_2
C0 H4 1.093165 1_555
C0 H2 1.094393 1_555
C0 H0 1.097054 1_555
C0 N4 1.494539 1_555
C1 H5 1.093165 1_555
C1 H3 1.094393 1_555
C1 H1 1.097054 1_555
C1 N5 1.494539 1_555
C2 H8 1.094622 1_555
C2 H6 1.094706 1_555
C2 H10 1.096011 1_555
C2 N4 1.490673 1_455
C3 H9 1.094622 1_555
C3 H7 1.094706 1_555
C3 H11 1.096011 1_555
C3 N5 1.490673 1_655
C4 H12 1.094390 1_555
C4 H14 1.094882 1_555
C4 H16 1.095170 1_555
C4 N4 1.498076 1_555
C5 H13 1.094390 1_555
C5 H15 1.094882 1_555
C5 H17 1.095170 1_555
C5 N5 1.498076 1_555
C6 H22 1.094131 1_555
C6 H20 1.094537 1_555
C6 H18 1.095739 1_555
C6 N2 1.497664 1_555
C7 H23 1.094131 1_555
C7 H21 1.094537 1_555
C7 H19 1.095739 1_555
C7 N3 1.497664 1_555
C8 H28 1.094769 1_555
C8 H24 1.095130 1_555
C8 H26 1.097175 1_555
C8 N2 1.490081 1_555
C9 H29 1.094769 1_555
C9 H25 1.095130 1_555
C9 H27 1.097175 1_555
C9 N3 1.490081 1_555
C10 H32 1.093624 1_565
C10 H30 1.093800 1_565
C10 H34 1.097374 1_555
C10 N2 1.492456 1_555
C11 H33 1.093624 1_545
C11 H31 1.093800 1_545
C11 H35 1.097374 1_555
C11 N3 1.492456 1_555
N0 S2 1.580813 1_545
N0 S0 1.586700 1_555
N1 S3 1.580813 1_565
N1 S1 1.586700 1_555
N2 S2 1.927818 1_555
N3 S3 1.927818 1_555
N4 S0 1.914462 1_555
N5 S1 1.914462 1_555
N6 S4 1.598224 1_555
N6 S6 1.600332 1_555
N7 S5 1.598224 1_555
N7 S7 1.600332 1_555
Cl0 S4 2.122221 1_555
Cl1 S5 2.122221 1_555
Cl2 S6 2.112250 1_555
Cl3 S7 2.112250 1_555
O0 S0 1.439657 1_555
O1 S1 1.439657 1_555
O2 S0 1.435344 1_555
O3 S1 1.435344 1_555
O4 S2 1.440232 1_455
O5 S3 1.440232 1_655
O6 S2 1.435175 1_445
O7 S3 1.435175 1_665
O8 S4 1.439453 1_555
O9 S5 1.439453 1_555
O10 S4 1.446483 1_555
O11 S5 1.446483 1_555
O12 S6 1.442749 1_555
O13 S7 1.442749 1_555
O14 S6 1.442717 1_555
O15 S7 1.442717 1_555
