# generated using pymatgen
data_Cs2BaBr4
_symmetry_space_group_name_H-M   'P 1'
_cell_length_a   9.09541414
_cell_length_b   9.09541414
_cell_length_c   9.09541355
_cell_angle_alpha   110.52992007
_cell_angle_beta   110.52992007
_cell_angle_gamma   107.37395439
_symmetry_Int_Tables_number   1
_chemical_formula_structural   Cs2BaBr4
_chemical_formula_sum   'Cs4 Ba2 Br8'
_cell_volume   578.64324954
_cell_formula_units_Z   2
loop_
 _symmetry_equiv_pos_site_id
 _symmetry_equiv_pos_as_xyz
  1  'x, y, z'
loop_
 _atom_site_type_symbol
 _atom_site_label
 _atom_site_symmetry_multiplicity
 _atom_site_fract_x
 _atom_site_fract_y
 _atom_site_fract_z
 _atom_site_occupancy
  Cs  Cs0  1  0.37500000  0.51277200  0.63777200  1
  Cs  Cs1  1  0.87500000  0.73722800  0.36222800  1
  Cs  Cs2  1  0.48722800  0.12500000  0.86222800  1
  Cs  Cs3  1  0.26277200  0.62500000  0.13777200  1
  Ba  Ba0  1  0.75000000  0.25000000  0.50000000  1
  Ba  Ba1  1  0.00000000  0.00000000  0.00000000  1
  Br  Br0  1  0.96746000  0.34814400  0.24660000  1
  Br  Br1  1  0.10154300  0.72086000  0.75340000  1
  Br  Br2  1  0.64845700  0.90185600  0.11931600  1
  Br  Br3  1  0.78254000  0.52914100  0.88068400  1
  Br  Br4  1  0.09814400  0.21746000  0.74660000  1
  Br  Br5  1  0.47085900  0.35154300  0.25340000  1
  Br  Br6  1  0.65185600  0.89845700  0.61931600  1
  Br  Br7  1  0.27914100  0.03254000  0.38068400  1
loop_
_geom_bond_atom_site_label_1
_geom_bond_atom_site_label_2
_geom_bond_distance
_geom_bond_site_symmetry_2
Ba0 Br5 3.344988 1_555
Ba0 Br4 3.344990 1_655
Ba0 Br3 3.344993 1_555
Ba0 Br2 3.344993 1_545
Ba0 Br6 3.688739 1_545
Ba0 Br7 3.688739 1_555
Ba0 Br1 3.688745 1_655
Ba0 Br0 3.688747 1_555
Ba1 Br1 3.344983 1_544
Ba1 Br0 3.344990 1_455
Ba1 Br7 3.344993 1_555
Ba1 Br6 3.344993 1_444
Ba1 Br5 3.688739 1_555
Ba1 Br2 3.688739 1_445
Ba1 Br3 3.688739 1_444
Ba1 Br4 3.688747 1_554
Br0 Cs0 3.512704 1_655
Br0 Cs3 3.756182 1_655
Br0 Cs1 3.758214 1_555
Br0 Cs2 3.799801 1_554
Br1 Cs1 3.512702 1_455
Br1 Cs2 3.756187 1_565
Br1 Cs0 3.758222 1_555
Br1 Cs3 3.799802 1_556
Br2 Cs1 3.512700 1_555
Br2 Cs3 3.756189 1_555
Br2 Cs0 3.758214 1_554
Br2 Cs2 3.799803 1_564
Br3 Cs0 3.512700 1_555
Br3 Cs2 3.756189 1_555
Br3 Cs1 3.758214 1_556
Br3 Cs3 3.799804 1_656
Br4 Cs3 3.512704 1_556
Br4 Cs0 3.756182 1_555
Br4 Cs2 3.758214 1_555
Br4 Cs1 3.799801 1_445
Br5 Cs2 3.512707 1_554
Br5 Cs1 3.756193 1_555
Br5 Cs3 3.758217 1_555
Br5 Cs0 3.799795 1_555
Br6 Cs2 3.512700 1_565
Br6 Cs0 3.756189 1_555
Br6 Cs3 3.758214 1_555
Br6 Cs1 3.799803 1_555
Br7 Cs3 3.512700 1_545
Br7 Cs1 3.756189 1_445
Br7 Cs2 3.758214 1_555
Br7 Cs0 3.799804 1_555
