# generated using pymatgen
data_MgCoSiO5
_symmetry_space_group_name_H-M   'P 1'
_cell_length_a   5.35104788
_cell_length_b   5.35104788
_cell_length_c   6.72849316
_cell_angle_alpha   75.46087920
_cell_angle_beta   75.46087920
_cell_angle_gamma   107.28668065
_symmetry_Int_Tables_number   1
_chemical_formula_structural   MgCoSiO5
_chemical_formula_sum   'Mg2 Co2 Si2 O10'
_cell_volume   166.64994877
_cell_formula_units_Z   2
loop_
 _symmetry_equiv_pos_site_id
 _symmetry_equiv_pos_as_xyz
  1  'x, y, z'
loop_
 _atom_site_type_symbol
 _atom_site_label
 _atom_site_symmetry_multiplicity
 _atom_site_fract_x
 _atom_site_fract_y
 _atom_site_fract_z
 _atom_site_occupancy
  Mg  Mg0  1  0.82069400  0.17930600  0.75000000  1
  Mg  Mg1  1  0.17930600  0.82069400  0.25000000  1
  Co  Co0  1  0.50000000  0.50000000  0.50000000  1
  Co  Co1  1  0.50000000  0.50000000  0.00000000  1
  Si  Si0  1  0.17092400  0.82907600  0.75000000  1
  Si  Si1  1  0.82907600  0.17092400  0.25000000  1
  O  O0  1  0.38736800  0.83759400  0.88376400  1
  O  O1  1  0.16240600  0.61263200  0.61623600  1
  O  O2  1  0.61263200  0.16240600  0.11623600  1
  O  O3  1  0.83759400  0.38736800  0.38376400  1
  O  O4  1  0.77377400  0.85912200  0.41721600  1
  O  O5  1  0.14087800  0.22622600  0.08278400  1
  O  O6  1  0.22622600  0.14087800  0.58278400  1
  O  O7  1  0.85912200  0.77377400  0.91721600  1
  O  O8  1  0.41864800  0.58135200  0.25000000  1
  O  O9  1  0.58135200  0.41864800  0.75000000  1
loop_
_geom_bond_atom_site_label_1
_geom_bond_atom_site_label_2
_geom_bond_distance
_geom_bond_site_symmetry_2
Mg0 O9 2.062853 1_555
Mg0 O0 2.266327 1_545
Mg0 O1 2.266327 1_655
Mg0 O7 2.274349 1_545
Mg0 O6 2.274349 1_655
Mg0 O2 2.402267 1_556
Mg0 O3 2.402267 1_555
Mg1 O8 2.062853 1_555
Mg1 O3 2.266327 1_455
Mg1 O2 2.266327 1_565
Mg1 O4 2.274349 1_455
Mg1 O5 2.274349 1_565
Mg1 O0 2.402267 1_554
Mg1 O1 2.402267 1_555
Co0 O9 1.822406 1_555
Co0 O8 1.822406 1_555
Co0 O4 1.878574 1_555
Co0 O6 1.878574 1_555
Co0 O1 2.100632 1_555
Co0 O3 2.100632 1_555
Co1 O8 1.822406 1_555
Co1 O9 1.822406 1_554
Co1 O7 1.878574 1_554
Co1 O5 1.878574 1_555
Co1 O2 2.100632 1_555
Co1 O0 2.100632 1_554
O0 Si0 1.632840 1_555
O1 Si0 1.632840 1_555
O2 Si1 1.632840 1_555
O3 Si1 1.632840 1_555
O4 Si1 1.653517 1_565
O5 Si1 1.653517 1_455
O6 Si0 1.653517 1_545
O7 Si0 1.653517 1_655
