# generated using pymatgen
data_Ti2(Ni7B2)3
_symmetry_space_group_name_H-M   'P 1'
_cell_length_a   7.34296055
_cell_length_b   7.34296161
_cell_length_c   7.34295989
_cell_angle_alpha   60.00152881
_cell_angle_beta   60.00152397
_cell_angle_gamma   60.00149609
_symmetry_Int_Tables_number   1
_chemical_formula_structural   Ti2(Ni7B2)3
_chemical_formula_sum   'Ti2 Ni21 B6'
_cell_volume   279.97131759
_cell_formula_units_Z   1
loop_
 _symmetry_equiv_pos_site_id
 _symmetry_equiv_pos_as_xyz
  1  'x, y, z'
loop_
 _atom_site_type_symbol
 _atom_site_label
 _atom_site_symmetry_multiplicity
 _atom_site_fract_x
 _atom_site_fract_y
 _atom_site_fract_z
 _atom_site_occupancy
  Ti  Ti0  1  0.75000107  0.74999500  0.74999633  1
  Ti  Ti1  1  0.24999752  0.25000365  0.25000424  1
  Ni  Ni0  1  0.00000005  0.99999854  0.00000014  1
  Ni  Ni1  1  0.61705289  0.61704727  0.14884623  1
  Ni  Ni2  1  0.61705236  0.14884669  0.61704753  1
  Ni  Ni3  1  0.14884284  0.61705034  0.61705057  1
  Ni  Ni4  1  0.61705605  0.61705128  0.61705159  1
  Ni  Ni5  1  0.38294772  0.38295334  0.85115377  1
  Ni  Ni6  1  0.38294864  0.85115315  0.38295267  1
  Ni  Ni7  1  0.85115620  0.38295087  0.38294982  1
  Ni  Ni8  1  0.38294357  0.38294923  0.38294815  1
  Ni  Ni9  1  0.99999646  0.99999611  0.33990532  1
  Ni  Ni10  1  0.66010025  0.99999828  0.33990308  1
  Ni  Ni11  1  0.00000021  0.66009425  0.33990388  1
  Ni  Ni12  1  0.66009908  0.33990366  0.99999836  1
  Ni  Ni13  1  0.99999645  0.33990630  0.99999602  1
  Ni  Ni14  1  -0.00000031  0.33990576  0.66009549  1
  Ni  Ni15  1  0.33989945  0.66009650  0.00000143  1
  Ni  Ni16  1  0.33989980  0.00000118  0.66009696  1
  Ni  Ni17  1  0.33990150  0.99999750  0.99999737  1
  Ni  Ni18  1  0.00000343  0.00000262  0.66009621  1
  Ni  Ni19  1  0.00000373  0.66009515  0.00000409  1
  Ni  Ni20  1  0.66010100  0.00000104  0.00000147  1
  B  B0  1  0.73068180  0.73067923  0.26932328  1
  B  B1  1  0.26931689  0.73067834  0.26931997  1
  B  B2  1  0.73068015  0.26931890  0.26931779  1
  B  B3  1  0.26931660  0.26931996  0.73067838  1
  B  B4  1  0.73068228  0.26932313  0.73067929  1
  B  B5  1  0.26932230  0.73068076  0.73068056  1
loop_
_geom_bond_atom_site_label_1
_geom_bond_atom_site_label_2
_geom_bond_distance
_geom_bond_site_symmetry_2
Ni0 Ni20 2.495851 1_465
Ni0 Ni17 2.495869 1_554
Ni0 Ni19 2.495870 1_555
Ni0 Ni18 2.495874 1_564
Ni0 Ni9 2.495888 1_455
Ni0 Ni13 2.495901 1_464
Ni0 Ni15 2.495934 1_555
Ni0 Ni10 2.495940 1_455
Ni0 Ni16 2.495940 1_564
Ni0 Ni12 2.495951 1_464
Ni0 Ni11 2.495960 1_555
Ni0 Ni14 2.495974 1_564
Ni1 Ti0 2.391351 1_554
Ni2 Ti0 2.391362 1_545
Ni3 Ti0 2.391302 1_455
Ni4 Ti0 2.391180 1_555
Ni5 Ti1 2.391355 1_556
Ni6 Ti1 2.391355 1_565
Ni7 Ti1 2.391299 1_655
Ni8 Ti1 2.391192 1_555
B0 Ni11 2.044370 1_655
B0 Ni10 2.044380 1_555
B0 Ni19 2.044442 1_655
B0 Ni20 2.044447 1_565
B0 Ni1 2.085042 1_555
B0 Ni4 2.085047 1_555
B0 Ni7 2.085048 1_555
B0 Ni6 2.085077 1_555
B1 Ni11 2.044377 1_555
B1 Ni15 2.044383 1_555
B1 Ni9 2.044433 1_455
B1 Ni17 2.044445 1_554
B1 Ni6 2.085049 1_555
B1 Ni8 2.085052 1_555
B1 Ni3 2.085062 1_555
B1 Ni1 2.085094 1_555
B2 Ni12 2.044380 1_554
B2 Ni10 2.044383 1_545
B2 Ni13 2.044435 1_554
B2 Ni9 2.044437 1_545
B2 Ni1 2.085048 1_555
B2 Ni7 2.085054 1_555
B2 Ni2 2.085057 1_555
B2 Ni8 2.085096 1_555
B3 Ni14 2.044367 1_555
B3 Ni16 2.044381 1_555
B3 Ni13 2.044434 1_455
B3 Ni17 2.044444 1_545
B3 Ni5 2.085053 1_555
B3 Ni8 2.085059 1_555
B3 Ni3 2.085060 1_555
B3 Ni2 2.085092 1_555
B4 Ni14 2.044376 1_655
B4 Ni12 2.044379 1_555
B4 Ni18 2.044443 1_655
B4 Ni20 2.044451 1_556
B4 Ni2 2.085043 1_555
B4 Ni4 2.085046 1_555
B4 Ni7 2.085055 1_555
B4 Ni5 2.085085 1_555
B5 Ni15 2.044374 1_556
B5 Ni16 2.044375 1_565
B5 Ni18 2.044440 1_565
B5 Ni19 2.044446 1_556
B5 Ni5 2.085043 1_555
B5 Ni6 2.085046 1_555
B5 Ni3 2.085054 1_555
B5 Ni4 2.085079 1_555
