# generated using pymatgen
data_Ca3Mg
_symmetry_space_group_name_H-M   'P 1'
_cell_length_a   14.37265239
_cell_length_b   14.37265239
_cell_length_c   14.37265239
_cell_angle_alpha   149.78761897
_cell_angle_beta   126.95824963
_cell_angle_gamma   62.26395250
_symmetry_Int_Tables_number   1
_chemical_formula_structural   Ca3Mg
_chemical_formula_sum   'Ca24 Mg8'
_cell_volume   1182.95295096
_cell_formula_units_Z   8
loop_
 _symmetry_equiv_pos_site_id
 _symmetry_equiv_pos_as_xyz
  1  'x, y, z'
loop_
 _atom_site_type_symbol
 _atom_site_label
 _atom_site_symmetry_multiplicity
 _atom_site_fract_x
 _atom_site_fract_y
 _atom_site_fract_z
 _atom_site_occupancy
  Ca  Ca0_0  1  0.42468850  0.25000000  0.17468850  1
  Ca  Ca0_1  1  0.42468850  0.25000000  0.67468850  1
  Ca  Ca0_2  1  0.42468850  0.75000000  0.17468850  1
  Ca  Ca0_3  1  0.42468850  0.75000000  0.67468850  1
  Ca  Ca0_4  1  0.92468850  0.25000000  0.17468850  1
  Ca  Ca0_5  1  0.92468850  0.25000000  0.67468850  1
  Ca  Ca0_6  1  0.92468850  0.75000000  0.17468850  1
  Ca  Ca0_7  1  0.92468850  0.75000000  0.67468850  1
  Ca  Ca1_0  1  0.12857400  0.13271600  0.49585800  1
  Ca  Ca1_1  1  0.12857400  0.13271600  0.99585800  1
  Ca  Ca1_2  1  0.12857400  0.63271600  0.49585800  1
  Ca  Ca1_3  1  0.12857400  0.63271600  0.99585800  1
  Ca  Ca1_4  1  0.62857400  0.13271600  0.49585800  1
  Ca  Ca1_5  1  0.62857400  0.13271600  0.99585800  1
  Ca  Ca1_6  1  0.62857400  0.63271600  0.49585800  1
  Ca  Ca1_7  1  0.62857400  0.63271600  0.99585800  1
  Ca  Ca2_0  1  0.36314150  0.36728400  0.49585800  1
  Ca  Ca2_1  1  0.36314150  0.36728400  0.99585800  1
  Ca  Ca2_2  1  0.36314150  0.86728400  0.49585800  1
  Ca  Ca2_3  1  0.36314150  0.86728400  0.99585800  1
  Ca  Ca2_4  1  0.86314150  0.36728400  0.49585800  1
  Ca  Ca2_5  1  0.86314150  0.36728400  0.99585800  1
  Ca  Ca2_6  1  0.86314150  0.86728400  0.49585800  1
  Ca  Ca2_7  1  0.86314150  0.86728400  0.99585800  1
  Mg  Mg0_0  1  0.16692900  0.00000000  0.16692900  1
  Mg  Mg0_1  1  0.16692900  0.00000000  0.66692900  1
  Mg  Mg0_2  1  0.16692900  0.50000000  0.16692900  1
  Mg  Mg0_3  1  0.16692900  0.50000000  0.66692900  1
  Mg  Mg0_4  1  0.66692900  0.00000000  0.16692900  1
  Mg  Mg0_5  1  0.66692900  0.00000000  0.66692900  1
  Mg  Mg0_6  1  0.66692900  0.50000000  0.16692900  1
  Mg  Mg0_7  1  0.66692900  0.50000000  0.66692900  1
loop_
_geom_bond_atom_site_label_1
_geom_bond_atom_site_label_2
_geom_bond_distance
_geom_bond_site_symmetry_2
Ca0_0 Mg0_7 3.629740 1_555
Ca0_0 Mg0_4 3.629740 1_555
Ca0_0 Ca2_1 3.687363 1_554
Ca0_0 Ca1_1 3.687366 1_554
Ca0_0 Ca0_3 3.745640 1_555
Ca0_0 Ca0_3 3.745640 1_544
Ca0_0 Mg0_2 3.801760 1_555
Ca0_0 Mg0_1 3.801760 1_554
Ca0_0 Ca1_6 3.873704 1_555
Ca0_0 Ca1_5 3.873704 1_554
Ca0_0 Ca2_3 3.873708 1_544
Ca0_0 Ca2_0 3.873710 1_555
Ca0_1 Mg0_6 3.629740 1_556
Ca0_1 Mg0_5 3.629740 1_555
Ca0_1 Ca2_0 3.687363 1_555
Ca0_1 Ca1_0 3.687366 1_555
Ca0_1 Ca0_2 3.745640 1_545
Ca0_1 Ca0_2 3.745640 1_556
Ca0_1 Mg0_3 3.801760 1_555
Ca0_1 Mg0_0 3.801760 1_555
Ca0_1 Ca1_7 3.873704 1_555
Ca0_1 Ca1_4 3.873704 1_555
Ca0_1 Ca2_2 3.873708 1_545
Ca0_1 Ca2_1 3.873710 1_555
Ca0_2 Mg0_5 3.629740 1_565
Ca0_2 Mg0_6 3.629740 1_555
Ca0_2 Ca2_3 3.687363 1_554
Ca0_2 Ca1_3 3.687366 1_554
Ca0_2 Mg0_0 3.801760 1_565
Ca0_2 Mg0_3 3.801760 1_554
Ca0_2 Ca1_4 3.873704 1_565
Ca0_2 Ca1_7 3.873704 1_554
Ca0_2 Ca2_1 3.873708 1_554
Ca0_2 Ca2_2 3.873710 1_555
Ca0_3 Mg0_4 3.629740 1_566
Ca0_3 Mg0_7 3.629740 1_555
Ca0_3 Ca2_2 3.687363 1_555
Ca0_3 Ca1_2 3.687366 1_555
Ca0_3 Mg0_1 3.801760 1_565
Ca0_3 Mg0_2 3.801760 1_555
Ca0_3 Ca1_5 3.873704 1_565
Ca0_3 Ca1_6 3.873704 1_555
Ca0_3 Ca2_0 3.873708 1_555
Ca0_3 Ca2_3 3.873710 1_555
Ca0_4 Mg0_3 3.629740 1_655
Ca0_4 Mg0_0 3.629740 1_655
Ca0_4 Ca2_5 3.687363 1_554
Ca0_4 Ca1_5 3.687366 1_554
Ca0_4 Ca0_7 3.745640 1_544
Ca0_4 Ca0_7 3.745640 1_555
Ca0_4 Mg0_6 3.801760 1_555
Ca0_4 Mg0_5 3.801760 1_554
Ca0_4 Ca1_2 3.873704 1_655
Ca0_4 Ca1_1 3.873704 1_654
Ca0_4 Ca2_7 3.873708 1_544
Ca0_4 Ca2_4 3.873710 1_555
Ca0_5 Mg0_2 3.629740 1_656
Ca0_5 Mg0_1 3.629740 1_655
Ca0_5 Ca2_4 3.687363 1_555
Ca0_5 Ca1_4 3.687366 1_555
Ca0_5 Ca0_6 3.745640 1_545
Ca0_5 Ca0_6 3.745640 1_556
Ca0_5 Mg0_7 3.801760 1_555
Ca0_5 Mg0_4 3.801760 1_555
Ca0_5 Ca1_3 3.873704 1_655
Ca0_5 Ca1_0 3.873704 1_655
Ca0_5 Ca2_6 3.873708 1_545
Ca0_5 Ca2_5 3.873710 1_555
Ca0_6 Mg0_1 3.629740 1_665
Ca0_6 Mg0_2 3.629740 1_655
Ca0_6 Ca2_7 3.687363 1_554
Ca0_6 Ca1_7 3.687366 1_554
Ca0_6 Mg0_4 3.801760 1_565
Ca0_6 Mg0_7 3.801760 1_554
Ca0_6 Ca1_0 3.873704 1_665
Ca0_6 Ca1_3 3.873704 1_654
Ca0_6 Ca2_5 3.873708 1_554
Ca0_6 Ca2_6 3.873710 1_555
Ca0_7 Mg0_0 3.629740 1_666
Ca0_7 Mg0_3 3.629740 1_655
Ca0_7 Ca2_6 3.687363 1_555
Ca0_7 Ca1_6 3.687366 1_555
Ca0_7 Mg0_5 3.801760 1_565
Ca0_7 Mg0_6 3.801760 1_555
Ca0_7 Ca1_1 3.873704 1_665
Ca0_7 Ca1_2 3.873704 1_655
Ca0_7 Ca2_4 3.873708 1_555
Ca0_7 Ca2_7 3.873710 1_555
Ca1_0 Mg0_0 3.586327 1_555
Ca1_0 Mg0_3 3.586327 1_555
Ca1_0 Ca2_2 3.734760 1_545
Ca1_0 Ca2_1 3.734762 1_555
Ca1_0 Ca2_7 3.734766 1_444
Ca1_0 Ca2_4 3.734767 1_455
Ca1_0 Ca1_3 3.745640 1_544
Ca1_0 Ca1_3 3.745640 1_555
Ca1_1 Mg0_1 3.586327 1_555
Ca1_1 Mg0_2 3.586327 1_556
Ca1_1 Ca2_3 3.734760 1_545
Ca1_1 Ca2_0 3.734762 1_556
Ca1_1 Ca2_6 3.734766 1_445
Ca1_1 Ca2_5 3.734767 1_455
Ca1_1 Ca1_2 3.745640 1_556
Ca1_1 Ca1_2 3.745640 1_545
Ca1_2 Mg0_2 3.586327 1_555
Ca1_2 Mg0_1 3.586327 1_565
Ca1_2 Ca2_0 3.734760 1_555
Ca1_2 Ca2_3 3.734762 1_555
Ca1_2 Ca2_5 3.734766 1_454
Ca1_2 Ca2_6 3.734767 1_455
Ca1_3 Mg0_0 3.586327 1_566
Ca1_3 Mg0_3 3.586327 1_555
Ca1_3 Ca2_1 3.734760 1_555
Ca1_3 Ca2_2 3.734762 1_556
Ca1_3 Ca2_4 3.734766 1_455
Ca1_3 Ca2_7 3.734767 1_455
Ca1_4 Mg0_4 3.586327 1_555
Ca1_4 Mg0_7 3.586327 1_555
Ca1_4 Ca2_6 3.734760 1_545
Ca1_4 Ca2_5 3.734762 1_555
Ca1_4 Ca2_3 3.734766 1_544
Ca1_4 Ca2_0 3.734767 1_555
Ca1_4 Ca1_7 3.745640 1_544
Ca1_4 Ca1_7 3.745640 1_555
Ca1_5 Mg0_6 3.586327 1_556
Ca1_5 Mg0_5 3.586327 1_555
Ca1_5 Ca2_7 3.734760 1_545
Ca1_5 Ca2_4 3.734762 1_556
Ca1_5 Ca2_2 3.734766 1_545
Ca1_5 Ca2_1 3.734767 1_555
Ca1_5 Ca1_6 3.745640 1_545
Ca1_5 Ca1_6 3.745640 1_556
Ca1_6 Mg0_6 3.586327 1_555
Ca1_6 Mg0_5 3.586327 1_565
Ca1_6 Ca2_4 3.734760 1_555
Ca1_6 Ca2_7 3.734762 1_555
Ca1_6 Ca2_1 3.734766 1_554
Ca1_6 Ca2_2 3.734767 1_555
Ca1_7 Mg0_7 3.586327 1_555
Ca1_7 Mg0_4 3.586327 1_566
Ca1_7 Ca2_5 3.734760 1_555
Ca1_7 Ca2_6 3.734762 1_556
Ca1_7 Ca2_0 3.734766 1_555
Ca1_7 Ca2_3 3.734767 1_555
Ca2_0 Mg0_3 3.586320 1_555
Ca2_0 Mg0_0 3.586322 1_555
Ca2_0 Ca2_3 3.745640 1_555
Ca2_0 Ca2_3 3.745640 1_544
Ca2_1 Mg0_2 3.586320 1_556
Ca2_1 Mg0_1 3.586322 1_555
Ca2_1 Ca2_2 3.745640 1_545
Ca2_1 Ca2_2 3.745640 1_556
Ca2_2 Mg0_1 3.586320 1_565
Ca2_2 Mg0_2 3.586322 1_555
Ca2_3 Mg0_0 3.586320 1_566
Ca2_3 Mg0_3 3.586322 1_555
Ca2_4 Mg0_7 3.586320 1_555
Ca2_4 Mg0_4 3.586322 1_555
Ca2_4 Ca2_7 3.745640 1_555
Ca2_4 Ca2_7 3.745640 1_544
Ca2_5 Mg0_6 3.586320 1_556
Ca2_5 Mg0_5 3.586322 1_555
Ca2_5 Ca2_6 3.745640 1_545
Ca2_5 Ca2_6 3.745640 1_556
Ca2_6 Mg0_5 3.586320 1_565
Ca2_6 Mg0_6 3.586322 1_555
Ca2_7 Mg0_4 3.586320 1_566
Ca2_7 Mg0_7 3.586322 1_555
