# generated using pymatgen
data_DySi3Ni5
_symmetry_space_group_name_H-M   'P 1'
_cell_length_a   3.75961216
_cell_length_b   6.57363908
_cell_length_c   18.56511696
_cell_angle_alpha   90.00040796
_cell_angle_beta   89.99999936
_cell_angle_gamma   89.99999658
_symmetry_Int_Tables_number   1
_chemical_formula_structural   DySi3Ni5
_chemical_formula_sum   'Dy4 Si12 Ni20'
_cell_volume   458.82449054
_cell_formula_units_Z   4
loop_
 _symmetry_equiv_pos_site_id
 _symmetry_equiv_pos_as_xyz
  1  'x, y, z'
loop_
 _atom_site_type_symbol
 _atom_site_label
 _atom_site_symmetry_multiplicity
 _atom_site_fract_x
 _atom_site_fract_y
 _atom_site_fract_z
 _atom_site_occupancy
  Dy  Dy0  1  0.25000001  0.87666086  0.35590130  1
  Dy  Dy1  1  0.75000004  0.12333103  0.64411884  1
  Dy  Dy2  1  0.75000001  0.37667164  0.14409153  1
  Dy  Dy3  1  0.25000001  0.62331819  0.85589234  1
  Si  Si0  1  0.24999987  0.07990289  0.08570432  1
  Si  Si1  1  0.75000012  0.92007696  0.91421454  1
  Si  Si2  1  0.74999991  0.57986598  0.41425735  1
  Si  Si3  1  0.24999999  0.42011609  0.58582178  1
  Si  Si4  1  0.24999998  0.65602426  0.07400606  1
  Si  Si5  1  0.74999992  0.34400885  0.92592369  1
  Si  Si6  1  0.74999988  0.15606819  0.42596637  1
  Si  Si7  1  0.25000008  0.84395802  0.57409998  1
  Si  Si8  1  0.24999980  0.37696527  0.26291842  1
  Si  Si9  1  0.75000018  0.62302141  0.73712269  1
  Si  Si10  1  0.75000006  0.87695088  0.23703014  1
  Si  Si11  1  0.24999982  0.12303160  0.76293001  1
  Ni  Ni0  1  0.25000000  0.06821071  0.20631869  1
  Ni  Ni1  1  0.74999980  0.93180227  0.79366496  1
  Ni  Ni2  1  0.74999988  0.56819913  0.29365856  1
  Ni  Ni3  1  0.24999993  0.43180962  0.70636466  1
  Ni  Ni4  1  0.25000000  0.61542035  0.48485197  1
  Ni  Ni5  1  0.75000009  0.38457567  0.51521871  1
  Ni  Ni6  1  0.75000011  0.11545142  0.01513615  1
  Ni  Ni7  1  0.25000014  0.88454874  0.98478731  1
  Ni  Ni8  1  0.25000028  0.68401202  0.19950093  1
  Ni  Ni9  1  0.74999976  0.31598524  0.80047337  1
  Ni  Ni10  1  0.74999972  0.18401936  0.30047731  1
  Ni  Ni11  1  0.25000034  0.81598526  0.69955532  1
  Ni  Ni12  1  0.24999966  0.35607245  0.38494498  1
  Ni  Ni13  1  0.75000021  0.64390982  0.61511779  1
  Ni  Ni14  1  0.74999988  0.85606737  0.11501833  1
  Ni  Ni15  1  0.25000006  0.14391742  0.88491953  1
  Ni  Ni16  1  0.24999982  0.36607219  0.00531011  1
  Ni  Ni17  1  0.75000037  0.63395117  0.99460555  1
  Ni  Ni18  1  0.75000004  0.86605977  0.49468165  1
  Ni  Ni19  1  0.25000021  0.13395991  0.50539175  1
loop_
_geom_bond_atom_site_label_1
_geom_bond_atom_site_label_2
_geom_bond_distance
_geom_bond_site_symmetry_2
Dy0 Si10 2.898947 1_455
Dy0 Si10 2.898947 1_555
Dy0 Si2 2.917861 1_555
Dy0 Si2 2.917862 1_455
Dy0 Si6 2.932436 1_565
Dy0 Si6 2.932436 1_465
Dy0 Ni10 2.945287 1_565
Dy0 Ni10 2.945288 1_465
Dy0 Ni4 2.946242 1_555
Dy0 Ni2 2.996756 1_555
Dy0 Ni2 2.996757 1_455
Dy0 Ni0 3.049166 1_565
Dy0 Ni8 3.167739 1_555
Dy0 Ni18 3.190101 1_455
Dy0 Ni18 3.190101 1_555
Dy0 Ni12 3.197269 1_565
Dy0 Ni19 3.250088 1_565
Dy1 Si11 2.898099 1_655
Dy1 Si11 2.898100 1_555
Dy1 Si3 2.917412 1_655
Dy1 Si3 2.917412 1_555
Dy1 Si7 2.931914 1_545
Dy1 Si7 2.931914 1_645
Dy1 Ni11 2.945310 1_545
Dy1 Ni11 2.945312 1_645
Dy1 Ni5 2.945495 1_555
Dy1 Ni3 2.996854 1_655
Dy1 Ni3 2.996854 1_555
Dy1 Ni1 3.048492 1_545
Dy1 Ni9 3.166973 1_555
Dy1 Ni19 3.189306 1_555
Dy1 Ni19 3.189307 1_655
Dy1 Ni13 3.197198 1_545
Dy1 Ni18 3.249148 1_545
Dy2 Si8 2.898321 1_655
Dy2 Si8 2.898322 1_555
Dy2 Si0 2.917951 1_655
Dy2 Si0 2.917952 1_555
Dy2 Si4 2.932390 1_655
Dy2 Si4 2.932390 1_555
Dy2 Ni8 2.945100 1_555
Dy2 Ni8 2.945102 1_655
Dy2 Ni6 2.946215 1_555
Dy2 Ni0 2.996653 1_655
Dy2 Ni0 2.996653 1_555
Dy2 Ni2 3.048826 1_555
Dy2 Ni10 3.167516 1_555
Dy2 Ni16 3.190116 1_655
Dy2 Ni16 3.190117 1_555
Dy2 Ni14 3.197266 1_555
Dy2 Ni17 3.249971 1_554
Dy3 Si9 2.897512 1_455
Dy3 Si9 2.897513 1_555
Dy3 Si1 2.917459 1_455
Dy3 Si1 2.917460 1_555
Dy3 Si5 2.931766 1_555
Dy3 Si5 2.931767 1_455
Dy3 Ni9 2.945129 1_555
Dy3 Ni9 2.945130 1_455
Dy3 Ni7 2.945344 1_555
Dy3 Ni1 2.996757 1_555
Dy3 Ni1 2.996758 1_455
Dy3 Ni3 3.048109 1_555
Dy3 Ni11 3.166725 1_555
Dy3 Ni17 3.189097 1_455
Dy3 Ni17 3.189099 1_555
Dy3 Ni15 3.197155 1_555
Dy3 Ni16 3.248775 1_556
Ni0 Si0 2.240539 1_555
Ni0 Si8 2.285509 1_555
Ni0 Si10 2.332274 1_445
Ni0 Si10 2.332274 1_545
Ni0 Ni8 2.528752 1_545
Ni0 Ni10 2.677487 1_555
Ni0 Ni10 2.677488 1_455
Ni0 Ni14 2.889887 1_545
Ni0 Ni14 2.889888 1_445
Ni1 Si1 2.239345 1_555
Ni1 Si9 2.285173 1_555
Ni1 Si11 2.332272 1_565
Ni1 Si11 2.332273 1_665
Ni1 Ni9 2.528640 1_565
Ni1 Ni11 2.676908 1_555
Ni1 Ni11 2.676911 1_655
Ni1 Ni15 2.889299 1_565
Ni1 Ni15 2.889300 1_665
Ni2 Si2 2.240243 1_555
Ni2 Si10 2.285751 1_555
Ni2 Si8 2.332307 1_655
Ni2 Si8 2.332308 1_555
Ni2 Ni8 2.677490 1_555
Ni2 Ni8 2.677492 1_655
Ni3 Si3 2.239212 1_555
Ni3 Si11 2.285366 1_555
Ni3 Si9 2.332310 1_455
Ni3 Si9 2.332312 1_555
Ni3 Ni9 2.676919 1_555
Ni3 Ni9 2.676920 1_455
Ni4 Si7 2.236573 1_555
Ni4 Si3 2.272035 1_555
Ni4 Si2 2.303466 1_555
Ni4 Si2 2.303467 1_455
Ni4 Ni5 2.480783 1_455
Ni4 Ni5 2.480783 1_555
Ni5 Si6 2.236499 1_555
Ni5 Si2 2.271853 1_555
Ni5 Si3 2.303546 1_655
Ni5 Si3 2.303547 1_555
Ni6 Si5 2.236187 1_554
Ni6 Si1 2.271542 1_544
Ni6 Si0 2.303184 1_655
Ni6 Si0 2.303186 1_555
Ni6 Ni7 2.480936 1_544
Ni6 Ni7 2.480936 1_644
Ni7 Si4 2.236128 1_556
Ni7 Si0 2.271396 1_566
Ni7 Si1 2.303220 1_555
Ni7 Si1 2.303220 1_455
Ni8 Si8 2.336705 1_555
Ni8 Si4 2.337079 1_555
Ni8 Si10 2.372279 1_555
Ni8 Si10 2.372280 1_455
Ni9 Si9 2.336020 1_555
Ni9 Si5 2.336273 1_555
Ni9 Si11 2.372408 1_555
Ni9 Si11 2.372408 1_655
Ni10 Si6 2.336955 1_555
Ni10 Si10 2.337092 1_545
Ni10 Si8 2.372471 1_555
Ni10 Si8 2.372471 1_655
Ni10 Ni2 2.528631 1_555
Ni10 Ni12 2.696654 1_655
Ni10 Ni12 2.696654 1_555
Ni11 Si11 2.336288 1_565
Ni11 Si7 2.336342 1_555
Ni11 Si9 2.372580 1_555
Ni11 Si9 2.372581 1_455
Ni11 Ni3 2.528595 1_555
Ni11 Ni13 2.696390 1_555
Ni11 Ni13 2.696390 1_455
Ni12 Si8 2.269598 1_555
Ni12 Si6 2.417075 1_455
Ni12 Si6 2.417076 1_555
Ni12 Si2 2.448273 1_455
Ni12 Si2 2.448275 1_555
Ni12 Ni4 2.519271 1_555
Ni12 Ni19 2.670596 1_555
Ni12 Ni2 2.889694 1_455
Ni12 Ni2 2.889695 1_555
Ni13 Si9 2.269195 1_555
Ni13 Si7 2.417211 1_655
Ni13 Si7 2.417212 1_555
Ni13 Si3 2.448207 1_655
Ni13 Si3 2.448208 1_555
Ni13 Ni5 2.519102 1_555
Ni13 Ni18 2.670565 1_555
Ni13 Ni3 2.889179 1_655
Ni13 Ni3 2.889180 1_555
Ni14 Si10 2.269319 1_555
Ni14 Si4 2.417155 1_555
Ni14 Si4 2.417155 1_655
Ni14 Si0 2.448451 1_565
Ni14 Si0 2.448451 1_665
Ni14 Ni6 2.519111 1_565
Ni14 Ni17 2.670063 1_554
Ni14 Ni8 2.696830 1_555
Ni14 Ni8 2.696832 1_655
Ni15 Si11 2.268907 1_555
Ni15 Si5 2.417280 1_555
Ni15 Si5 2.417281 1_455
Ni15 Si1 2.448392 1_445
Ni15 Si1 2.448393 1_545
Ni15 Ni7 2.518846 1_545
Ni15 Ni16 2.669857 1_556
Ni15 Ni9 2.696471 1_555
Ni15 Ni9 2.696472 1_455
Ni16 Si4 2.293353 1_555
Ni16 Si5 2.393082 1_454
Ni16 Si5 2.393083 1_554
Ni16 Si0 2.401353 1_555
Ni16 Ni6 2.506227 1_455
Ni16 Ni6 2.506229 1_555
Ni16 Ni17 2.583422 1_454
Ni16 Ni17 2.583425 1_554
Ni17 Si5 2.293154 1_555
Ni17 Si4 2.393246 1_656
Ni17 Si4 2.393249 1_556
Ni17 Si1 2.401092 1_555
Ni17 Ni7 2.506116 1_655
Ni17 Ni7 2.506118 1_555
Ni18 Si6 2.293876 1_565
Ni18 Si7 2.393464 1_555
Ni18 Si7 2.393464 1_655
Ni18 Si2 2.401809 1_555
Ni18 Ni4 2.506311 1_655
Ni18 Ni4 2.506312 1_555
Ni18 Ni19 2.583524 1_565
Ni18 Ni19 2.583525 1_665
Ni19 Si7 2.293767 1_545
Ni19 Si6 2.393546 1_555
Ni19 Si6 2.393548 1_455
Ni19 Si3 2.401682 1_555
Ni19 Ni5 2.506205 1_555
Ni19 Ni5 2.506206 1_455
