# generated using pymatgen
data_CeY4Rh5
_symmetry_space_group_name_H-M   'P 1'
_cell_length_a   3.40239981
_cell_length_b   3.40239981
_cell_length_c   17.44972121
_cell_angle_alpha   90.00000000
_cell_angle_beta   90.00000000
_cell_angle_gamma   90.00000000
_symmetry_Int_Tables_number   1
_chemical_formula_structural   CeY4Rh5
_chemical_formula_sum   'Ce1 Y4 Rh5'
_cell_volume   202.00363459
_cell_formula_units_Z   1
loop_
 _symmetry_equiv_pos_site_id
 _symmetry_equiv_pos_as_xyz
  1  'x, y, z'
loop_
 _atom_site_type_symbol
 _atom_site_label
 _atom_site_symmetry_multiplicity
 _atom_site_fract_x
 _atom_site_fract_y
 _atom_site_fract_z
 _atom_site_occupancy
  Ce  Ce0  1  -0.00000000  0.00000000  -0.00000000  1
  Y  Y0  1  -0.00000000  0.00000000  0.20244551  1
  Y  Y1  1  -0.00000000  0.00000000  0.40082014  1
  Y  Y2  1  0.00000000  0.00000000  0.59917986  1
  Y  Y3  1  -0.00000000  0.00000000  0.79755449  1
  Rh  Rh0  1  0.50000000  0.50000000  0.09881292  1
  Rh  Rh1  1  0.50000000  0.50000000  0.30053736  1
  Rh  Rh2  1  0.50000000  0.50000000  0.50000000  1
  Rh  Rh3  1  0.50000000  0.50000000  0.69946264  1
  Rh  Rh4  1  0.50000000  0.50000000  0.90118708  1
loop_
_geom_bond_atom_site_label_1
_geom_bond_atom_site_label_2
_geom_bond_distance
_geom_bond_site_symmetry_2
Ce0 Rh4 2.959937 1_554
Ce0 Rh4 2.959937 1_444
Ce0 Rh4 2.959937 1_454
Ce0 Rh4 2.959937 1_544
Ce0 Rh0 2.959937 1_545
Ce0 Rh0 2.959937 1_445
Ce0 Rh0 2.959937 1_455
Ce0 Rh0 2.959937 1_555
Rh0 Y0 3.009706 1_555
Rh0 Y0 3.009706 1_655
Rh0 Y0 3.009706 1_565
Rh0 Y0 3.009706 1_665
Rh1 Y0 2.952625 1_565
Rh1 Y0 2.952625 1_555
Rh1 Y0 2.952625 1_665
Rh1 Y0 2.952625 1_655
Rh1 Y1 2.974951 1_665
Rh1 Y1 2.974951 1_655
Rh1 Y1 2.974951 1_555
Rh1 Y1 2.974951 1_565
Rh2 Y1 2.963672 1_665
Rh2 Y1 2.963672 1_555
Rh2 Y1 2.963672 1_655
Rh2 Y2 2.963672 1_655
Rh2 Y2 2.963672 1_555
Rh2 Y1 2.963672 1_565
Rh2 Y2 2.963672 1_565
Rh2 Y2 2.963672 1_665
Rh3 Y3 2.952625 1_555
Rh3 Y3 2.952625 1_565
Rh3 Y3 2.952625 1_655
Rh3 Y3 2.952625 1_665
Rh3 Y2 2.974951 1_555
Rh3 Y2 2.974951 1_565
Rh3 Y2 2.974951 1_655
Rh3 Y2 2.974951 1_665
Rh4 Y3 3.009706 1_655
Rh4 Y3 3.009706 1_665
Rh4 Y3 3.009706 1_555
Rh4 Y3 3.009706 1_565
