# generated using pymatgen
data_Ca3MnO4
_symmetry_space_group_name_H-M   'P 1'
_cell_length_a   5.75145006
_cell_length_b   5.77624514
_cell_length_c   6.67353391
_cell_angle_alpha   89.99467559
_cell_angle_beta   106.86932429
_cell_angle_gamma   99.43277453
_symmetry_Int_Tables_number   1
_chemical_formula_structural   Ca3MnO4
_chemical_formula_sum   'Ca6 Mn2 O8'
_cell_volume   209.03294182
_cell_formula_units_Z   2
loop_
 _symmetry_equiv_pos_site_id
 _symmetry_equiv_pos_as_xyz
  1  'x, y, z'
loop_
 _atom_site_type_symbol
 _atom_site_label
 _atom_site_symmetry_multiplicity
 _atom_site_fract_x
 _atom_site_fract_y
 _atom_site_fract_z
 _atom_site_occupancy
  Ca  Ca0  1  0.00000017  0.49999811  0.24999981  1
  Ca  Ca1  1  -0.00000060  0.50000219  0.75000047  1
  Ca  Ca2  1  0.49754443  0.24553747  0.37439566  1
  Ca  Ca3  1  0.49754471  0.24553769  0.87439548  1
  Ca  Ca4  1  0.50245574  0.75446198  0.62560490  1
  Ca  Ca5  1  0.50245649  0.75446310  0.12560514  1
  Mn  Mn0  1  0.00000069  0.99999973  0.50000057  1
  Mn  Mn1  1  0.00000176  0.00000320  0.99999903  1
  O  O0  1  0.76195538  0.11888455  0.69050616  1
  O  O1  1  0.76196045  0.11887625  0.19051156  1
  O  O2  1  0.23804481  0.88111533  0.30949398  1
  O  O3  1  0.23803849  0.88112439  0.80948797  1
  O  O4  1  0.24889291  0.36809105  0.56221279  1
  O  O5  1  0.24888849  0.36808468  0.06221077  1
  O  O6  1  0.75110669  0.63190884  0.43778749  1
  O  O7  1  0.75110940  0.63191345  0.93778921  1
loop_
_geom_bond_atom_site_label_1
_geom_bond_atom_site_label_2
_geom_bond_distance
_geom_bond_site_symmetry_2
Ca0 O2 2.361167 1_555
Ca0 O1 2.361179 1_455
Ca0 O4 2.365822 1_555
Ca0 O7 2.365827 1_454
Ca0 O5 2.366243 1_555
Ca0 O6 2.366254 1_455
Ca1 O0 2.361168 1_455
Ca1 O3 2.361179 1_555
Ca1 O6 2.365821 1_455
Ca1 O5 2.365827 1_556
Ca1 O7 2.366245 1_455
Ca1 O4 2.366256 1_555
Ca2 O2 2.332669 1_545
Ca2 O5 2.342885 1_555
Ca2 O4 2.343007 1_555
Ca2 O0 2.408450 1_555
Ca2 O1 2.408722 1_555
Ca2 O6 2.421127 1_555
Ca3 O3 2.332644 1_545
Ca3 O4 2.342880 1_555
Ca3 O5 2.343005 1_556
Ca3 O1 2.408508 1_556
Ca3 O0 2.408701 1_555
Ca3 O7 2.421154 1_555
Ca4 O0 2.332671 1_565
Ca4 O7 2.342880 1_555
Ca4 O6 2.343004 1_555
Ca4 O2 2.408453 1_555
Ca4 O3 2.408725 1_555
Ca4 O4 2.421126 1_555
Ca5 O1 2.332638 1_565
Ca5 O6 2.342876 1_555
Ca5 O7 2.342999 1_554
Ca5 O3 2.408518 1_554
Ca5 O2 2.408702 1_555
Ca5 O5 2.421174 1_555
Mn0 O3 2.297471 1_555
Mn0 O1 2.297487 1_465
Mn0 O2 2.298016 1_555
Mn0 O0 2.298017 1_465
Mn0 O4 2.323747 1_565
Mn0 O6 2.323749 1_455
Mn1 O0 2.297530 1_455
Mn1 O2 2.297548 1_546
Mn1 O3 2.297990 1_545
Mn1 O1 2.298006 1_456
Mn1 O5 2.323687 1_556
Mn1 O7 2.323739 1_445
