# generated using pymatgen
data_KBaLiZnF6
_symmetry_space_group_name_H-M   'P 1'
_cell_length_a   5.80688251
_cell_length_b   5.80688251
_cell_length_c   5.80688251
_cell_angle_alpha   60.00000000
_cell_angle_beta   60.00000000
_cell_angle_gamma   60.00000000
_symmetry_Int_Tables_number   1
_chemical_formula_structural   KBaLiZnF6
_chemical_formula_sum   'K1 Ba1 Li1 Zn1 F6'
_cell_volume   138.45674558
_cell_formula_units_Z   1
loop_
 _symmetry_equiv_pos_site_id
 _symmetry_equiv_pos_as_xyz
  1  'x, y, z'
loop_
 _atom_site_type_symbol
 _atom_site_label
 _atom_site_symmetry_multiplicity
 _atom_site_fract_x
 _atom_site_fract_y
 _atom_site_fract_z
 _atom_site_occupancy
  K  K0  1  0.00000000  0.00000000  0.00000000  1
  Ba  Ba0  1  0.50000000  0.50000000  0.50000000  1
  Li  Li0  1  0.25000000  0.25000000  0.25000000  1
  Zn  Zn0  1  0.75000000  0.75000000  0.75000000  1
  F  F0  1  0.99971500  0.50028500  0.50028500  1
  F  F1  1  0.99971500  0.99971500  0.50028500  1
  F  F2  1  0.50028500  0.99971500  0.50028500  1
  F  F3  1  0.50028500  0.50028500  0.99971500  1
  F  F4  1  0.99971500  0.50028500  0.99971500  1
  F  F5  1  0.50028500  0.99971500  0.99971500  1
loop_
_geom_bond_atom_site_label_1
_geom_bond_atom_site_label_2
_geom_bond_distance
_geom_bond_site_symmetry_2
Ba0 F2 2.903442 1_555
Ba0 F3 2.903442 1_555
Ba0 F0 2.903442 1_555
Ba0 F4 2.903442 1_554
Ba0 F4 2.903442 1_455
Ba0 F1 2.903442 1_455
Ba0 F5 2.903442 1_554
Ba0 F1 2.903442 1_545
Ba0 F5 2.903442 1_545
Ba0 F2 2.903442 1_545
Ba0 F0 2.903442 1_455
Ba0 F3 2.903442 1_554
F0 Zn0 2.050703 1_555
F0 Li0 2.055383 1_655
F0 K0 2.903442 1_656
F0 K0 2.903442 1_665
F1 Zn0 2.050703 1_555
F1 Li0 2.055383 1_665
F1 K0 2.903442 1_665
F1 K0 2.903442 1_666
F2 Zn0 2.050703 1_555
F2 Li0 2.055383 1_565
F2 K0 2.903442 1_566
F2 K0 2.903442 1_665
F3 Zn0 2.050703 1_555
F3 Li0 2.055383 1_556
F3 K0 2.903442 1_566
F3 K0 2.903442 1_656
F4 Zn0 2.050703 1_555
F4 Li0 2.055383 1_656
F4 K0 2.903442 1_656
F4 K0 2.903442 1_666
F5 Zn0 2.050703 1_555
F5 Li0 2.055383 1_566
F5 K0 2.903442 1_566
F5 K0 2.903442 1_666
