# generated using pymatgen
data_RbLaSiS4
_symmetry_space_group_name_H-M   'P 1'
_cell_length_a   6.63314100
_cell_length_b   6.69579800
_cell_length_c   17.56937600
_cell_angle_alpha   90.00000000
_cell_angle_beta   90.00000000
_cell_angle_gamma   90.00000000
_symmetry_Int_Tables_number   1
_chemical_formula_structural   RbLaSiS4
_chemical_formula_sum   'Rb4 La4 Si4 S16'
_cell_volume   780.32929184
_cell_formula_units_Z   4
loop_
 _symmetry_equiv_pos_site_id
 _symmetry_equiv_pos_as_xyz
  1  'x, y, z'
loop_
 _atom_site_type_symbol
 _atom_site_label
 _atom_site_symmetry_multiplicity
 _atom_site_fract_x
 _atom_site_fract_y
 _atom_site_fract_z
 _atom_site_occupancy
  Rb  Rb0  1  0.46457500  0.75000000  0.21644300  1
  Rb  Rb1  1  0.96457500  0.25000000  0.28355700  1
  Rb  Rb2  1  0.53542500  0.25000000  0.78355700  1
  Rb  Rb3  1  0.03542500  0.75000000  0.71644300  1
  La  La0  1  0.28675400  0.75000000  0.47513600  1
  La  La1  1  0.78675400  0.25000000  0.02486400  1
  La  La2  1  0.71324600  0.25000000  0.52486400  1
  La  La3  1  0.21324600  0.75000000  0.97513600  1
  Si  Si0  1  0.28469000  0.25000000  0.08800100  1
  Si  Si1  1  0.71531000  0.75000000  0.91199900  1
  Si  Si2  1  0.21531000  0.25000000  0.58800100  1
  Si  Si3  1  0.78469000  0.75000000  0.41199900  1
  S  S0  1  0.90919200  0.49984200  0.89331800  1
  S  S1  1  0.40919200  0.50015800  0.60668200  1
  S  S2  1  0.09080800  0.99984200  0.10668200  1
  S  S3  1  0.59080800  0.00015800  0.39331800  1
  S  S4  1  0.40919200  0.99984200  0.60668200  1
  S  S5  1  0.09080800  0.50015800  0.10668200  1
  S  S6  1  0.90919200  0.00015800  0.89331800  1
  S  S7  1  0.59080800  0.49984200  0.39331800  1
  S  S8  1  0.03803500  0.75000000  0.33901800  1
  S  S9  1  0.53803500  0.25000000  0.16098200  1
  S  S10  1  0.96196500  0.25000000  0.66098200  1
  S  S11  1  0.46196500  0.75000000  0.83901800  1
  S  S12  1  0.62959600  0.75000000  0.02945000  1
  S  S13  1  0.12959600  0.25000000  0.47055000  1
  S  S14  1  0.37040400  0.25000000  0.97055000  1
  S  S15  1  0.87040400  0.75000000  0.52945000  1
loop_
_geom_bond_atom_site_label_1
_geom_bond_atom_site_label_2
_geom_bond_distance
_geom_bond_site_symmetry_2
Rb0 S12 3.462902 1_555
Rb0 S9 3.520702 1_555
Rb0 S9 3.520702 1_565
Rb0 S8 3.555670 1_555
Rb0 S5 3.558665 1_555
Rb0 S2 3.558665 1_555
Rb0 S7 3.628199 1_555
Rb0 S3 3.628199 1_565
Rb1 S13 3.462902 1_655
Rb1 S8 3.520702 1_645
Rb1 S8 3.520702 1_655
Rb1 S9 3.555670 1_555
Rb1 S3 3.558665 1_555
Rb1 S7 3.558665 1_555
Rb1 S5 3.628199 1_655
Rb1 S2 3.628199 1_645
Rb2 S14 3.462902 1_555
Rb2 S11 3.520702 1_555
Rb2 S11 3.520702 1_545
Rb2 S10 3.555670 1_555
Rb2 S0 3.558665 1_555
Rb2 S6 3.558665 1_555
Rb2 S1 3.628199 1_555
Rb2 S4 3.628199 1_545
Rb3 S15 3.462902 1_455
Rb3 S10 3.520702 1_465
Rb3 S10 3.520702 1_455
Rb3 S11 3.555670 1_555
Rb3 S1 3.558665 1_555
Rb3 S4 3.558665 1_555
Rb3 S0 3.628199 1_455
Rb3 S6 3.628199 1_465
La0 S8 2.905359 1_555
La0 S15 2.921926 1_455
La0 S4 2.966430 1_555
La0 S1 2.966430 1_555
La0 S7 2.989924 1_555
La0 S3 2.989924 1_565
La0 S13 3.507367 1_555
La0 S13 3.507367 1_565
La1 S9 2.905359 1_555
La1 S14 2.921926 1_554
La1 S6 2.966430 1_554
La1 S0 2.966430 1_554
La1 S2 2.989924 1_645
La1 S5 2.989924 1_655
La1 S12 3.507367 1_545
La1 S12 3.507367 1_555
La2 S10 2.905359 1_555
La2 S13 2.921926 1_655
La2 S7 2.966430 1_555
La2 S3 2.966430 1_555
La2 S1 2.989924 1_555
La2 S4 2.989924 1_545
La2 S15 3.507367 1_555
La2 S15 3.507367 1_545
La3 S11 2.905359 1_555
La3 S12 2.921926 1_556
La3 S5 2.966430 1_556
La3 S2 2.966430 1_556
La3 S0 2.989924 1_455
La3 S6 2.989924 1_465
La3 S14 3.507367 1_565
La3 S14 3.507367 1_555
S0 Si1 2.137122 1_555
S1 Si2 2.137122 1_555
S2 Si0 2.137122 1_565
S3 Si3 2.137122 1_545
S4 Si2 2.137122 1_565
S5 Si0 2.137122 1_555
S6 Si1 2.137122 1_545
S7 Si3 2.137122 1_555
S8 Si3 2.113789 1_455
S9 Si0 2.113789 1_555
S10 Si2 2.113789 1_655
S11 Si1 2.113789 1_555
S12 Si1 2.140433 1_554
S13 Si2 2.140433 1_555
S14 Si0 2.140433 1_556
S15 Si3 2.140433 1_555
