# generated using pymatgen
data_LuGaCuO4
_symmetry_space_group_name_H-M   'P 1'
_cell_length_a   8.27633564
_cell_length_b   8.27633564
_cell_length_c   8.27633535
_cell_angle_alpha   24.33517794
_cell_angle_beta   24.33517794
_cell_angle_gamma   24.33518294
_symmetry_Int_Tables_number   1
_chemical_formula_structural   LuGaCuO4
_chemical_formula_sum   'Lu1 Ga1 Cu1 O4'
_cell_volume   84.61965095
_cell_formula_units_Z   1
loop_
 _symmetry_equiv_pos_site_id
 _symmetry_equiv_pos_as_xyz
  1  'x, y, z'
loop_
 _atom_site_type_symbol
 _atom_site_label
 _atom_site_symmetry_multiplicity
 _atom_site_fract_x
 _atom_site_fract_y
 _atom_site_fract_z
 _atom_site_occupancy
  Lu  Lu0  1  0.99701200  0.99701200  0.99701200  1
  Ga  Ga0  1  0.78720000  0.78720000  0.78720000  1
  Cu  Cu0  1  0.21201800  0.21201800  0.21201800  1
  O  O0  1  0.29330700  0.29330700  0.29330700  1
  O  O1  1  0.70889100  0.70889100  0.70889100  1
  O  O2  1  0.12470500  0.12470500  0.12470500  1
  O  O3  1  0.86746700  0.86746700  0.86746700  1
loop_
_geom_bond_atom_site_label_1
_geom_bond_atom_site_label_2
_geom_bond_distance
_geom_bond_site_symmetry_2
Lu0 O0 2.202940 1_665
Lu0 O0 2.202940 1_566
Lu0 O0 2.202940 1_656
Lu0 O1 2.289730 1_556
Lu0 O1 2.289730 1_655
Lu0 O1 2.289730 1_565
Ga0 O1 1.885871 1_555
Ga0 O3 1.933025 1_555
Ga0 O2 2.016785 1_665
Ga0 O2 2.016785 1_656
Ga0 O2 2.016785 1_566
Cu0 O0 1.957637 1_555
Cu0 O3 2.032316 1_445
Cu0 O3 2.032316 1_454
Cu0 O3 2.032316 1_544
Cu0 O2 2.102710 1_555
