# generated using pymatgen
data_Ni5(AsO6)2
_symmetry_space_group_name_H-M   'P 1'
_cell_length_a   6.46169437
_cell_length_b   6.46169437
_cell_length_c   5.11925272
_cell_angle_alpha   85.06233773
_cell_angle_beta   85.06233773
_cell_angle_gamma   86.56061422
_symmetry_Int_Tables_number   1
_chemical_formula_structural   Ni5(AsO6)2
_chemical_formula_sum   'Ni5 As2 O12'
_cell_volume   211.86524557
_cell_formula_units_Z   1
loop_
 _symmetry_equiv_pos_site_id
 _symmetry_equiv_pos_as_xyz
  1  'x, y, z'
loop_
 _atom_site_type_symbol
 _atom_site_label
 _atom_site_symmetry_multiplicity
 _atom_site_fract_x
 _atom_site_fract_y
 _atom_site_fract_z
 _atom_site_occupancy
  Ni  Ni0  1  0.17706700  0.82293300  0.00000000  1
  Ni  Ni1  1  0.82293300  0.17706700  0.00000000  1
  Ni  Ni2  1  0.33768700  0.66231300  0.50000000  1
  Ni  Ni3  1  0.66231300  0.33768700  0.50000000  1
  Ni  Ni4  1  0.00000000  0.00000000  0.50000000  1
  As  As0  1  0.68388400  0.68388400  0.94667200  1
  As  As1  1  0.31611600  0.31611600  0.05332800  1
  O  O0  1  0.21072100  0.52864900  0.87647600  1
  O  O1  1  0.52864900  0.21072100  0.87647600  1
  O  O2  1  0.78927900  0.47135100  0.12352400  1
  O  O3  1  0.47135100  0.78927900  0.12352400  1
  O  O4  1  0.87224200  0.87224200  0.88996900  1
  O  O5  1  0.12775800  0.12775800  0.11003100  1
  O  O6  1  0.62334500  0.62334500  0.63685500  1
  O  O7  1  0.37665500  0.37665500  0.36314500  1
  O  O8  1  0.07716100  0.74241700  0.35879000  1
  O  O9  1  0.74241700  0.07716100  0.35879000  1
  O  O10  1  0.92283900  0.25758300  0.64121000  1
  O  O11  1  0.25758300  0.92283900  0.64121000  1
loop_
_geom_bond_atom_site_label_1
_geom_bond_atom_site_label_2
_geom_bond_distance
_geom_bond_site_symmetry_2
Ni0 O8 1.932024 1_555
Ni0 O11 1.932024 1_554
Ni0 O3 2.048620 1_555
Ni0 O0 2.048620 1_554
Ni0 O5 2.093623 1_565
Ni0 O4 2.093623 1_454
Ni1 O9 1.932024 1_555
Ni1 O10 1.932024 1_554
Ni1 O2 2.048620 1_555
Ni1 O1 2.048620 1_554
Ni1 O5 2.093623 1_655
Ni1 O4 2.093623 1_544
Ni2 O8 1.914414 1_555
Ni2 O11 1.914414 1_555
Ni2 O7 2.024308 1_555
Ni2 O6 2.024308 1_555
Ni2 O0 2.158641 1_555
Ni2 O3 2.158641 1_555
Ni3 O9 1.914414 1_555
Ni3 O10 1.914414 1_555
Ni3 O7 2.024308 1_555
Ni3 O6 2.024308 1_555
Ni3 O1 2.158641 1_555
Ni3 O2 2.158641 1_555
Ni4 O8 1.893930 1_545
Ni4 O11 1.893930 1_545
Ni4 O9 1.893930 1_455
Ni4 O10 1.893930 1_455
Ni4 O4 2.205173 1_445
Ni4 O5 2.205173 1_555
As0 O2 1.717371 1_556
As0 O3 1.717371 1_556
As0 O6 1.747431 1_555
As0 O4 1.761558 1_555
As1 O0 1.717371 1_554
As1 O1 1.717371 1_554
As1 O7 1.747431 1_555
As1 O5 1.761558 1_555
