# generated using pymatgen
data_Co4(CuO4)3
_symmetry_space_group_name_H-M   'P 1'
_cell_length_a   6.27435280
_cell_length_b   6.16333906
_cell_length_c   6.21636869
_cell_angle_alpha   70.46846483
_cell_angle_beta   110.09872433
_cell_angle_gamma   71.09694280
_symmetry_Int_Tables_number   1
_chemical_formula_structural   Co4(CuO4)3
_chemical_formula_sum   'Co4 Cu3 O12'
_cell_volume   184.76572768
_cell_formula_units_Z   1
loop_
 _symmetry_equiv_pos_site_id
 _symmetry_equiv_pos_as_xyz
  1  'x, y, z'
loop_
 _atom_site_type_symbol
 _atom_site_label
 _atom_site_symmetry_multiplicity
 _atom_site_fract_x
 _atom_site_fract_y
 _atom_site_fract_z
 _atom_site_occupancy
  Co  Co0  1  0.00002300  0.49993800  0.00002000  1
  Co  Co1  1  0.00003300  0.99996200  0.49995600  1
  Co  Co2  1  0.49998300  0.50016600  0.49994400  1
  Co  Co3  1  0.50001500  0.99997900  0.00012800  1
  Cu  Cu0  1  0.50006600  0.00038600  0.50023400  1
  Cu  Cu1  1  0.99978000  0.49984400  0.49962800  1
  Cu  Cu2  1  0.49976600  0.49982000  0.99995500  1
  O  O0  1  0.18278800  0.13297000  0.68731600  1
  O  O1  1  0.81738700  0.86667400  0.31279400  1
  O  O2  1  0.18199500  0.50667500  0.31920100  1
  O  O3  1  0.32407400  0.17905100  0.13444000  1
  O  O4  1  0.86152700  0.30456700  0.19358700  1
  O  O5  1  0.50235200  0.31257600  0.82080100  1
  O  O6  1  0.67330800  0.19050600  0.51317200  1
  O  O7  1  0.13814300  0.69557600  0.80614500  1
  O  O8  1  0.81801200  0.49337100  0.68070000  1
  O  O9  1  0.67629900  0.82082700  0.86616100  1
  O  O10  1  0.49742400  0.68732000  0.17881600  1
  O  O11  1  0.32702300  0.80979000  0.48700200  1
loop_
_geom_bond_atom_site_label_1
_geom_bond_atom_site_label_2
_geom_bond_distance
_geom_bond_site_symmetry_2
Co0 O2 1.941909 1_555
Co0 O8 1.942103 1_454
Co0 O9 1.965872 1_454
Co0 O3 1.966086 1_555
Co0 O7 2.020056 1_554
Co0 O4 2.020084 1_455
Co1 O7 1.821741 1_555
Co1 O4 1.822514 1_465
Co1 O0 1.916511 1_565
Co1 O1 1.916902 1_455
Co1 O11 2.051367 1_555
Co1 O6 2.051525 1_465
Co2 O6 1.822287 1_555
Co2 O11 1.822455 1_555
Co2 O8 1.902489 1_555
Co2 O2 1.903165 1_555
Co2 O5 1.934372 1_555
Co2 O10 1.934454 1_555
Co3 O5 1.883694 1_564
Co3 O10 1.883876 1_555
Co3 O9 1.895448 1_554
Co3 O3 1.895799 1_565
Co3 O1 1.905313 1_555
Co3 O0 1.905759 1_564
Cu0 O6 1.840993 1_555
Cu0 O11 1.842590 1_545
Cu0 O3 1.847901 1_555
Cu0 O9 1.848512 1_545
Cu1 O1 1.850539 1_555
Cu1 O0 1.850829 1_655
Cu1 O2 1.856816 1_655
Cu1 O8 1.857690 1_555
Cu2 O7 1.852268 1_555
Cu2 O10 1.852380 1_556
Cu2 O5 1.852582 1_555
Cu2 O4 1.852827 1_556
