# generated using pymatgen
data_ErCu4Au
_symmetry_space_group_name_H-M   'P 1'
_cell_length_a   4.96438596
_cell_length_b   4.96438596
_cell_length_c   4.96438596
_cell_angle_alpha   60.00000000
_cell_angle_beta   60.00000000
_cell_angle_gamma   60.00000000
_symmetry_Int_Tables_number   1
_chemical_formula_structural   ErCu4Au
_chemical_formula_sum   'Er1 Cu4 Au1'
_cell_volume   86.51304925
_cell_formula_units_Z   1
loop_
 _symmetry_equiv_pos_site_id
 _symmetry_equiv_pos_as_xyz
  1  'x, y, z'
loop_
 _atom_site_type_symbol
 _atom_site_label
 _atom_site_symmetry_multiplicity
 _atom_site_fract_x
 _atom_site_fract_y
 _atom_site_fract_z
 _atom_site_occupancy
  Er  Er0  1  -0.00000000  0.00000000  -0.00000000  1
  Cu  Cu0  1  0.62434086  0.62434086  0.12697642  1
  Cu  Cu1  1  0.62434086  0.12697642  0.62434086  1
  Cu  Cu2  1  0.12697642  0.62434086  0.62434086  1
  Cu  Cu3  1  0.62434086  0.62434086  0.62434086  1
  Au  Au0  1  0.25000000  0.25000000  0.25000000  1
loop_
_geom_bond_atom_site_label_1
_geom_bond_atom_site_label_2
_geom_bond_distance
_geom_bond_site_symmetry_2
Cu0 Cu1 2.469109 1_555
Cu0 Cu2 2.469109 1_555
Cu0 Cu3 2.469109 1_555
Cu0 Cu1 2.495277 1_564
Cu0 Cu2 2.495277 1_654
Cu0 Cu3 2.495277 1_554
Cu0 Er0 2.912033 1_565
Cu0 Er0 2.912033 1_655
Cu0 Er0 2.912037 1_665
Cu1 Cu2 2.469109 1_555
Cu1 Cu3 2.469109 1_555
Cu1 Cu2 2.495277 1_645
Cu1 Cu3 2.495277 1_545
Cu1 Er0 2.912033 1_556
Cu1 Er0 2.912033 1_655
Cu1 Er0 2.912037 1_656
Cu2 Cu3 2.469109 1_555
Cu2 Cu3 2.495277 1_455
Cu2 Er0 2.912033 1_565
Cu2 Er0 2.912033 1_556
Cu2 Er0 2.912037 1_566
Cu3 Er0 2.912035 1_665
Cu3 Er0 2.912035 1_566
Cu3 Er0 2.912035 1_656
Au0 Cu2 2.909243 1_555
Au0 Cu0 2.909243 1_555
Au0 Cu1 2.909243 1_555
Au0 Cu3 2.909245 1_554
Au0 Cu3 2.909245 1_545
Au0 Cu3 2.909245 1_455
Au0 Cu2 2.909247 1_545
Au0 Cu1 2.909247 1_554
Au0 Cu2 2.909247 1_554
Au0 Cu1 2.909247 1_455
Au0 Cu0 2.909247 1_455
Au0 Cu0 2.909247 1_545
Au0 Er0 3.040053 1_655
Au0 Er0 3.040053 1_556
Au0 Er0 3.040053 1_555
Au0 Er0 3.040053 1_565
