# generated using pymatgen
data_FeNiGe
_symmetry_space_group_name_H-M   'P 1'
_cell_length_a   4.06886795
_cell_length_b   4.06886795
_cell_length_c   5.08327900
_cell_angle_alpha   90.00000000
_cell_angle_beta   90.00000000
_cell_angle_gamma   119.99999926
_symmetry_Int_Tables_number   1
_chemical_formula_structural   FeNiGe
_chemical_formula_sum   'Fe2 Ni2 Ge2'
_cell_volume   72.88225041
_cell_formula_units_Z   2
loop_
 _symmetry_equiv_pos_site_id
 _symmetry_equiv_pos_as_xyz
  1  'x, y, z'
loop_
 _atom_site_type_symbol
 _atom_site_label
 _atom_site_symmetry_multiplicity
 _atom_site_fract_x
 _atom_site_fract_y
 _atom_site_fract_z
 _atom_site_occupancy
  Fe  Fe0  1  0.00000000  0.00000000  0.00000000  1
  Fe  Fe1  1  0.00000000  0.00000000  0.50000000  1
  Ni  Ni0  1  0.33333300  0.66666700  0.75000000  1
  Ni  Ni1  1  0.66666700  0.33333300  0.25000000  1
  Ge  Ge0  1  0.33333300  0.66666700  0.25000000  1
  Ge  Ge1  1  0.66666700  0.33333300  0.75000000  1
loop_
_geom_bond_atom_site_label_1
_geom_bond_atom_site_label_2
_geom_bond_distance
_geom_bond_site_symmetry_2
Fe0 Fe1 2.541640 1_554
Fe0 Fe1 2.541640 1_555
Fe0 Ni0 2.670868 1_544
Fe0 Ni1 2.670868 1_455
Fe0 Ge1 2.670868 1_454
Fe0 Ge0 2.670868 1_545
Fe0 Ge1 2.670871 1_554
Fe0 Ge0 2.670871 1_555
Fe0 Ni0 2.670871 1_554
Fe0 Ge1 2.670871 1_444
Fe0 Ni1 2.670871 1_445
Fe0 Ni0 2.670871 1_444
Fe0 Ni1 2.670871 1_555
Fe0 Ge0 2.670871 1_445
Fe1 Ni1 2.670868 1_455
Fe1 Ge1 2.670868 1_455
Fe1 Ni0 2.670868 1_545
Fe1 Ge0 2.670868 1_545
Fe1 Ge0 2.670871 1_555
Fe1 Ni1 2.670871 1_445
Fe1 Ni0 2.670871 1_555
Fe1 Ge1 2.670871 1_445
Fe1 Ni0 2.670871 1_445
Fe1 Ni1 2.670871 1_555
Fe1 Ge0 2.670871 1_445
Fe1 Ge1 2.670871 1_555
Ge0 Ni1 2.349160 1_455
Ge0 Ni1 2.349160 1_565
Ge0 Ni1 2.349167 1_555
Ge0 Ni0 2.541640 1_555
Ge0 Ni0 2.541640 1_554
Ge1 Ni0 2.349160 1_545
Ge1 Ni0 2.349160 1_655
Ge1 Ni0 2.349167 1_555
Ge1 Ni1 2.541640 1_556
Ge1 Ni1 2.541640 1_555
