# generated using pymatgen
data_MgPd2Pb
_symmetry_space_group_name_H-M   'P 1'
_cell_length_a   11.41684507
_cell_length_b   11.41684507
_cell_length_c   11.41684507
_cell_angle_alpha   126.22919303
_cell_angle_beta   118.01179010
_cell_angle_gamma   86.52172949
_symmetry_Int_Tables_number   1
_chemical_formula_structural   MgPd2Pb
_chemical_formula_sum   'Mg1 Pd2 Pb1'
_cell_volume   1009.42994141
_cell_formula_units_Z   1
loop_
 _symmetry_equiv_pos_site_id
 _symmetry_equiv_pos_as_xyz
  1  'x, y, z'
loop_
 _atom_site_type_symbol
 _atom_site_label
 _atom_site_symmetry_multiplicity
 _atom_site_fract_x
 _atom_site_fract_y
 _atom_site_fract_z
 _atom_site_occupancy
  Mg  Mg0  1  0.00000000  0.00000000  0.00000000  1
  Pd  Pd0  1  0.00000000  0.25211200  0.25211200  1
  Pd  Pd1  1  0.00000000  0.74788800  0.74788800  1
  Pb  Pb0  1  0.00000000  0.50000000  0.50000000  1
loop_
_geom_bond_atom_site_label_1
_geom_bond_atom_site_label_2
_geom_bond_distance
_geom_bond_site_symmetry_2
Mg0 Pd0 2.603199 1_555
Mg0 Pd1 2.603199 1_544
Pb0 Pd0 2.559584 1_555
Pb0 Pd1 2.559584 1_555
