# generated using pymatgen
data_LuTaTiO6
_symmetry_space_group_name_H-M   'P 1'
_cell_length_a   14.61879100
_cell_length_b   5.17694800
_cell_length_c   5.58139691
_cell_angle_alpha   89.78061566
_cell_angle_beta   90.00000000
_cell_angle_gamma   90.00000000
_symmetry_Int_Tables_number   1
_chemical_formula_structural   LuTaTiO6
_chemical_formula_sum   'Lu4 Ta4 Ti4 O24'
_cell_volume   422.40104529
_cell_formula_units_Z   4
loop_
 _symmetry_equiv_pos_site_id
 _symmetry_equiv_pos_as_xyz
  1  'x, y, z'
loop_
 _atom_site_type_symbol
 _atom_site_label
 _atom_site_symmetry_multiplicity
 _atom_site_fract_x
 _atom_site_fract_y
 _atom_site_fract_z
 _atom_site_occupancy
  Lu  Lu0  1  0.00036200  0.74616800  0.77385000  1
  Lu  Lu1  1  0.50036200  0.25383200  0.72615000  1
  Lu  Lu2  1  0.99963800  0.25383200  0.22615000  1
  Lu  Lu3  1  0.49963800  0.74616800  0.27385000  1
  Ta  Ta0  1  0.33267100  0.81979200  0.82179600  1
  Ta  Ta1  1  0.83267100  0.18020800  0.67820400  1
  Ta  Ta2  1  0.66732900  0.18020800  0.17820400  1
  Ta  Ta3  1  0.16732900  0.81979200  0.32179600  1
  Ti  Ti0  1  0.16383100  0.31499800  0.68722800  1
  Ti  Ti1  1  0.66383100  0.68500200  0.81277200  1
  Ti  Ti2  1  0.83616900  0.68500200  0.31277200  1
  Ti  Ti3  1  0.33616900  0.31499800  0.18722800  1
  O  O0  1  0.08425900  0.42167200  0.90867800  1
  O  O1  1  0.41713400  0.92211000  0.58908500  1
  O  O2  1  0.58425900  0.57832800  0.59132200  1
  O  O3  1  0.91713400  0.07789000  0.91091500  1
  O  O4  1  0.91574100  0.57832800  0.09132200  1
  O  O5  1  0.58286600  0.07789000  0.41091500  1
  O  O6  1  0.41574100  0.42167200  0.40867800  1
  O  O7  1  0.08286600  0.92211000  0.08908500  1
  O  O8  1  0.25877900  0.14476700  0.86294100  1
  O  O9  1  0.23917000  0.64844900  0.63220500  1
  O  O10  1  0.75877900  0.85523300  0.63705900  1
  O  O11  1  0.73917000  0.35155100  0.86779500  1
  O  O12  1  0.74122100  0.85523300  0.13705900  1
  O  O13  1  0.76083000  0.35155100  0.36779500  1
  O  O14  1  0.24122100  0.14476700  0.36294100  1
  O  O15  1  0.26083000  0.64844900  0.13220500  1
  O  O16  1  0.90840800  0.97425400  0.42793100  1
  O  O17  1  0.59118900  0.47515300  0.06783600  1
  O  O18  1  0.40840800  0.02574600  0.07206900  1
  O  O19  1  0.09118900  0.52484700  0.43216400  1
  O  O20  1  0.09159200  0.02574600  0.57206900  1
  O  O21  1  0.40881100  0.52484700  0.93216400  1
  O  O22  1  0.59159200  0.97425400  0.92793100  1
  O  O23  1  0.90881100  0.47515300  0.56783600  1
loop_
_geom_bond_atom_site_label_1
_geom_bond_atom_site_label_2
_geom_bond_distance
_geom_bond_site_symmetry_2
Lu0 O0 2.209732 1_555
Lu0 O3 2.241605 1_465
Lu0 O23 2.257037 1_455
Lu0 O20 2.264823 1_565
Lu0 O7 2.322127 1_556
Lu0 O4 2.326643 1_456
Lu0 O19 2.594126 1_555
Lu0 O16 2.628969 1_455
Lu1 O2 2.209732 1_555
Lu1 O1 2.241605 1_545
Lu1 O21 2.257037 1_555
Lu1 O22 2.264823 1_545
Lu1 O5 2.322127 1_555
Lu1 O6 2.326643 1_555
Lu1 O17 2.594126 1_556
Lu1 O18 2.628969 1_556
Lu2 O4 2.209732 1_555
Lu2 O7 2.241605 1_645
Lu2 O19 2.257037 1_655
Lu2 O16 2.264823 1_545
Lu2 O3 2.322127 1_554
Lu2 O0 2.326643 1_654
Lu2 O23 2.594126 1_555
Lu2 O20 2.628969 1_655
Lu3 O6 2.209732 1_555
Lu3 O5 2.241605 1_565
Lu3 O17 2.257037 1_555
Lu3 O18 2.264823 1_565
Lu3 O1 2.322127 1_555
Lu3 O2 2.326643 1_555
Lu3 O21 2.594126 1_554
Lu3 O22 2.628969 1_554
O0 Ti0 1.786349 1_555
O1 Ta0 1.867331 1_555
O2 Ti1 1.786349 1_555
O3 Ta1 1.867331 1_555
O4 Ti2 1.786349 1_555
O5 Ta2 1.867331 1_555
O6 Ti3 1.786349 1_555
O7 Ta3 1.867331 1_555
O8 Ti0 1.912711 1_555
O8 Ta0 2.013194 1_545
O8 Ti3 2.311887 1_556
O9 Ta0 1.944764 1_555
O9 Ti0 2.069596 1_555
O9 Ta3 2.208993 1_555
O10 Ti1 1.912711 1_555
O10 Ta1 2.013194 1_565
O10 Ti2 2.311887 1_555
O11 Ta1 1.944764 1_555
O11 Ti1 2.069596 1_555
O11 Ta2 2.208993 1_556
O12 Ti2 1.912711 1_555
O12 Ta2 2.013194 1_565
O12 Ti1 2.311887 1_554
O13 Ta2 1.944764 1_555
O13 Ti2 2.069596 1_555
O13 Ta1 2.208993 1_555
O14 Ti3 1.912711 1_555
O14 Ta3 2.013194 1_545
O14 Ti0 2.311887 1_555
O15 Ta3 1.944764 1_555
O15 Ti3 2.069596 1_555
O15 Ta0 2.208993 1_554
O16 Ti2 1.943724 1_555
O16 Ta1 2.079742 1_565
O17 Ta2 1.985615 1_555
O17 Ti1 2.079125 1_554
O18 Ti3 1.943724 1_555
O18 Ta0 2.079742 1_544
O19 Ta3 1.985615 1_555
O19 Ti0 2.079125 1_555
O20 Ti0 1.943724 1_555
O20 Ta3 2.079742 1_545
O21 Ta0 1.985615 1_555
O21 Ti3 2.079125 1_556
O22 Ti1 1.943724 1_555
O22 Ta2 2.079742 1_566
O23 Ta1 1.985615 1_555
O23 Ti2 2.079125 1_555
