# generated using pymatgen
data_Y2Ga3Cu
_symmetry_space_group_name_H-M   'P 1'
_cell_length_a   4.33367820
_cell_length_b   4.33367820
_cell_length_c   7.28207362
_cell_angle_alpha   90.00000000
_cell_angle_beta   90.00000000
_cell_angle_gamma   120.00000268
_symmetry_Int_Tables_number   1
_chemical_formula_structural   Y2Ga3Cu
_chemical_formula_sum   'Y2 Ga3 Cu1'
_cell_volume   118.44016482
_cell_formula_units_Z   1
loop_
 _symmetry_equiv_pos_site_id
 _symmetry_equiv_pos_as_xyz
  1  'x, y, z'
loop_
 _atom_site_type_symbol
 _atom_site_label
 _atom_site_symmetry_multiplicity
 _atom_site_fract_x
 _atom_site_fract_y
 _atom_site_fract_z
 _atom_site_occupancy
  Y  Y0  1  0.33333300  0.66666700  0.76844583  1
  Y  Y1  1  0.33333300  0.66666700  0.23796456  1
  Ga  Ga0  1  0.00000000  0.00000000  0.01997117  1
  Ga  Ga1  1  0.00000000  0.00000000  0.45770152  1
  Ga  Ga2  1  0.66666700  0.33333300  0.54721382  1
  Cu  Cu0  1  0.66666700  0.33333300  0.96870411  1
loop_
_geom_bond_atom_site_label_1
_geom_bond_atom_site_label_2
_geom_bond_distance
_geom_bond_site_symmetry_2
Ga0 Y1 2.963144 1_545
Ga0 Y1 2.963147 1_555
Ga0 Y1 2.963147 1_445
Ga0 Y0 3.100822 1_544
Ga0 Y0 3.100825 1_444
Ga0 Y0 3.100825 1_554
Ga1 Ga2 2.585562 1_455
Ga1 Ga2 2.585566 1_555
Ga1 Ga2 2.585566 1_445
Ga1 Y1 2.969965 1_545
Ga1 Y1 2.969968 1_555
Ga1 Y1 2.969968 1_445
Ga1 Y0 3.373543 1_545
Ga1 Y0 3.373546 1_555
Ga1 Y0 3.373546 1_445
Ga2 Y0 2.975845 1_545
Ga2 Y0 2.975845 1_655
Ga2 Y0 2.975851 1_555
Ga2 Y1 3.366250 1_545
Ga2 Y1 3.366250 1_655
Ga2 Y1 3.366256 1_555
Cu0 Ga0 2.529747 1_656
Cu0 Ga0 2.529750 1_666
Cu0 Ga0 2.529750 1_556
Cu0 Y0 2.896009 1_545
Cu0 Y0 2.896009 1_655
Cu0 Y0 2.896016 1_555
Cu0 Ga2 3.069323 1_555
Cu0 Y1 3.178817 1_656
Cu0 Y1 3.178817 1_546
Cu0 Y1 3.178823 1_556
