# generated using pymatgen
data_Rb11Al14Si10(AgO16)3
_symmetry_space_group_name_H-M   'P 1'
_cell_length_a   13.03281956
_cell_length_b   12.17626311
_cell_length_c   12.29872233
_cell_angle_alpha   90.25267789
_cell_angle_beta   90.15007727
_cell_angle_gamma   90.61979320
_symmetry_Int_Tables_number   1
_chemical_formula_structural   Rb11Al14Si10(AgO16)3
_chemical_formula_sum   'Rb11 Al14 Si10 Ag3 O48'
_cell_volume   1951.55692951
_cell_formula_units_Z   1
loop_
 _symmetry_equiv_pos_site_id
 _symmetry_equiv_pos_as_xyz
  1  'x, y, z'
loop_
 _atom_site_type_symbol
 _atom_site_label
 _atom_site_symmetry_multiplicity
 _atom_site_fract_x
 _atom_site_fract_y
 _atom_site_fract_z
 _atom_site_occupancy
  Rb  Rb0  1  0.26803451  0.25919695  0.25388971  1
  Rb  Rb1  1  0.42530042  0.49818841  0.99642255  1
  Rb  Rb2  1  0.54752303  0.99564734  0.50094315  1
  Rb  Rb3  1  0.72009689  0.26811734  0.72254426  1
  Rb  Rb4  1  0.74483108  0.24343827  0.24318807  1
  Rb  Rb5  1  0.71888296  0.70647310  0.25714473  1
  Rb  Rb6  1  0.73548047  0.75188633  0.75423913  1
  Rb  Rb7  1  0.85416944  0.10814283  0.89918677  1
  Rb  Rb8  1  0.85009180  0.90188477  0.11226142  1
  Rb  Rb9  1  0.14582414  0.90268241  0.89029533  1
  Rb  Rb10  1  0.04059825  0.52989268  0.52595433  1
  Al  Al0  1  0.17119778  0.36268228  0.00135501  1
  Al  Al1  1  0.36976927  0.99462451  0.19874298  1
  Al  Al2  1  0.37700895  0.19562236  0.00338177  1
  Al  Al3  1  0.37560843  0.00368216  0.79653147  1
  Al  Al4  1  0.37406409  0.80415259  0.99608510  1
  Al  Al5  1  0.60887910  0.99090548  0.19858700  1
  Al  Al6  1  0.61556635  0.19411335  0.00101286  1
  Al  Al7  1  0.61095073  0.00804296  0.80638932  1
  Al  Al8  1  0.61361001  0.80453876  0.00374670  1
  Al  Al9  1  0.81964535  0.99735387  0.37349600  1
  Al  Al10  1  0.82249674  0.99712388  0.63398574  1
  Al  Al11  1  0.82317187  0.37137226  0.00132588  1
  Al  Al12  1  0.82384381  0.63165776  0.99576506  1
  Al  Al13  1  0.00189894  0.81310176  0.62738334  1
  Si  Si0  1  0.17430416  0.00586841  0.62728595  1
  Si  Si1  1  0.17356453  0.62828359  0.99281814  1
  Si  Si2  1  0.16957341  0.00791041  0.36954752  1
  Si  Si3  1  0.00098344  0.18664897  0.62949326  1
  Si  Si4  1  0.99846067  0.18830354  0.37330725  1
  Si  Si5  1  0.00306764  0.37541888  0.18894069  1
  Si  Si6  1  0.99985322  0.36330611  0.81971825  1
  Si  Si7  1  0.00472287  0.63216671  0.17940923  1
  Si  Si8  1  0.00386161  0.62528848  0.81389138  1
  Si  Si9  1  0.99948771  0.81795621  0.36748309  1
  Ag  Ag0  1  0.51422653  0.48109349  0.30284358  1
  Ag  Ag1  1  0.47668722  0.51705021  0.68958170  1
  Ag  Ag2  1  0.47989643  0.58755894  0.48654419  1
  O  O0  1  0.99718666  0.50614896  0.22922022  1
  O  O1  1  0.00321547  0.30257982  0.69855082  1
  O  O2  1  0.01407045  0.71121035  0.28673164  1
  O  O3  1  0.01033257  0.77034682  0.48953375  1
  O  O4  1  0.01102360  0.68586232  0.69688228  1
  O  O5  1  0.10867731  0.12697442  0.35138184  1
  O  O6  1  0.11161151  0.35145138  0.13144453  1
  O  O7  1  0.08744770  0.31587375  0.89833205  1
  O  O8  1  0.08994959  0.90802521  0.33736371  1
  O  O9  1  0.10730084  0.11985579  0.64695182  1
  O  O10  1  0.10785498  0.64779855  0.10621903  1
  O  O11  1  0.09936554  0.67016837  0.89133637  1
  O  O12  1  0.10540606  0.90023348  0.66291528  1
  O  O13  1  0.20267592  0.00045369  0.49720852  1
  O  O14  1  0.20212164  0.50132767  0.97792472  1
  O  O15  1  0.28882003  0.30108886  0.01482144  1
  O  O16  1  0.27724230  0.01103944  0.69854880  1
  O  O17  1  0.27609956  0.70228371  0.99202837  1
  O  O18  1  0.27007783  0.01107639  0.29581909  1
  O  O19  1  0.35992289  0.11249646  0.11813011  1
  O  O20  1  0.36197512  0.11364572  0.88725320  1
  O  O21  1  0.35376516  0.88182508  0.11314291  1
  O  O22  1  0.35285372  0.89001101  0.88272320  1
  O  O23  1  0.49005312  0.99852675  0.26712637  1
  O  O24  1  0.49854137  0.26391347  0.01470265  1
  O  O25  1  0.49376871  0.73603591  0.99054086  1
  O  O26  1  0.49590379  0.99725298  0.73170951  1
  O  O27  1  0.62381919  0.10413974  0.11189976  1
  O  O28  1  0.62671363  0.13442339  0.87228946  1
  O  O29  1  0.62782924  0.86502005  0.13257432  1
  O  O30  1  0.62199122  0.89344912  0.89164497  1
  O  O31  1  0.71969533  0.00557706  0.72354778  1
  O  O32  1  0.72895007  0.27110799  0.01207407  1
  O  O33  1  0.72766517  0.72916836  0.99429239  1
  O  O34  1  0.71607154  0.00217462  0.28517404  1
  O  O35  1  0.77446697  0.50140626  0.00868674  1
  O  O36  1  0.77303080  0.00799645  0.50368992  1
  O  O37  1  0.90256263  0.11101499  0.33897284  1
  O  O38  1  0.90538103  0.34324304  0.11437082  1
  O  O39  1  0.88584697  0.34296920  0.87238837  1
  O  O40  1  0.88777757  0.87275821  0.34147915  1
  O  O41  1  0.90030931  0.11749595  0.66721424  1
  O  O42  1  0.90217682  0.66724540  0.11294732  1
  O  O43  1  0.89651106  0.64945672  0.87484278  1
  O  O44  1  0.88787044  0.87616153  0.65993616  1
  O  O45  1  0.99302241  0.22778866  0.50155725  1
  O  O46  1  0.99783778  0.30480438  0.30511391  1
  O  O47  1  0.01787554  0.49341512  0.78673971  1
loop_
_geom_bond_atom_site_label_1
_geom_bond_atom_site_label_2
_geom_bond_distance
_geom_bond_site_symmetry_2
Al0 O15 1.721763 1_555
Al0 O14 1.756590 1_554
Al0 O7 1.759137 1_554
Al0 O6 1.785415 1_555
Al1 O21 1.737287 1_555
Al1 O19 1.753623 1_565
Al1 O23 1.777134 1_555
Al1 O18 1.779124 1_565
Al2 O15 1.738138 1_555
Al2 O20 1.748230 1_554
Al2 O19 1.753590 1_555
Al2 O24 1.785757 1_555
Al3 O20 1.749936 1_555
Al3 O16 1.760408 1_555
Al3 O26 1.763040 1_545
Al3 O22 1.770045 1_545
Al4 O21 1.741400 1_556
Al4 O22 1.769251 1_555
Al4 O17 1.770875 1_555
Al4 O25 1.776089 1_555
Al5 O29 1.751546 1_555
Al5 O27 1.756082 1_565
Al5 O34 1.758208 1_565
Al5 O23 1.768250 1_555
Al6 O32 1.746111 1_555
Al6 O28 1.746138 1_554
Al6 O27 1.756873 1_555
Al6 O24 1.762084 1_555
Al7 O28 1.745971 1_555
Al7 O31 1.748072 1_555
Al7 O30 1.755995 1_545
Al7 O26 1.759676 1_545
Al8 O29 1.752789 1_555
Al8 O33 1.759201 1_554
Al8 O30 1.759596 1_554
Al8 O25 1.769420 1_554
Al9 O36 1.718937 1_565
Al9 O34 1.732078 1_565
Al9 O37 1.799631 1_565
Al9 O40 1.808548 1_555
Al10 O36 1.731867 1_565
Al10 O44 1.739824 1_555
Al10 O31 1.740302 1_565
Al10 O41 1.817706 1_565
Al11 O35 1.714301 1_555
Al11 O32 1.727917 1_555
Al11 O38 1.789564 1_555
Al11 O39 1.819214 1_554
Al12 O35 1.713293 1_556
Al12 O33 1.735950 1_555
Al12 O43 1.778034 1_555
Al12 O42 1.812251 1_556
Al13 O44 1.727274 1_455
Al13 O12 1.760168 1_555
Al13 O3 1.775337 1_555
Al13 O4 1.777696 1_555
Ag0 Ag2 2.641416 1_555
Ag0 Rb5 3.850233 1_555
Ag0 Rb1 3.946900 1_554
Ag0 Rb0 4.212545 1_555
Ag0 Rb4 4.257426 1_555
Ag1 Ag2 2.644433 1_555
Ag1 Rb1 3.841876 1_555
O0 Si7 1.656728 1_655
O0 Si5 1.667635 1_655
O1 Si3 1.644149 1_555
O1 Si6 1.661534 1_455
O1 Rb10 3.525931 1_555
O2 Si7 1.633643 1_555
O2 Si9 1.645231 1_455
O3 Si9 1.617891 1_455
O3 Rb10 2.994004 1_555
O4 Si8 1.622402 1_555
O4 Rb10 2.856456 1_555
O5 Si4 1.648382 1_455
O5 Si2 1.675828 1_555
O5 Rb0 2.881116 1_555
O6 Si5 1.612060 1_555
O6 Rb0 2.781013 1_555
O7 Si6 1.607801 1_455
O8 Si2 1.636781 1_565
O8 Si9 1.645556 1_455
O9 Si3 1.628447 1_555
O9 Si0 1.664871 1_555
O10 Si7 1.629545 1_555
O10 Si1 1.656121 1_554
O11 Si8 1.652138 1_555
O11 Si1 1.662208 1_555
O11 Rb9 2.888853 1_555
O12 Si0 1.623195 1_565
O12 Rb9 2.844275 1_555
O13 Si2 1.630348 1_555
O13 Si0 1.644106 1_555
O14 Si1 1.603753 1_555
O14 Rb1 2.917614 1_555
O15 Rb1 2.981493 1_554
O15 Rb0 2.998827 1_555
O16 Si0 1.601082 1_555
O17 Si1 1.603691 1_555
O17 Rb1 3.172542 1_555
O18 Si2 1.595265 1_555
O18 Rb0 3.067504 1_555
O19 Rb0 2.728213 1_555
O22 Rb9 2.706076 1_555
O23 Rb2 2.970142 1_555
O24 Rb1 3.026948 1_554
O25 Rb1 3.022438 1_555
O26 Rb2 2.918519 1_555
O27 Rb4 2.806425 1_555
O28 Rb3 2.741957 1_555
O28 Rb7 3.002625 1_555
O29 Rb5 2.747438 1_555
O29 Rb8 2.937936 1_555
O30 Rb6 2.838526 1_555
O31 Rb7 3.034205 1_555
O31 Rb6 3.122560 1_545
O31 Rb3 3.196786 1_555
O32 Rb4 2.870975 1_555
O32 Rb7 2.930183 1_554
O33 Rb6 2.968404 1_555
O33 Rb8 2.993658 1_556
O33 Rb5 3.247962 1_556
O34 Rb4 3.004617 1_555
O34 Rb8 3.017813 1_545
O36 Rb2 2.941319 1_545
O37 Si4 1.610681 1_555
O37 Rb4 2.879111 1_555
O38 Si5 1.611018 1_655
O38 Rb4 2.888659 1_555
O39 Si6 1.639237 1_555
O39 Rb7 2.904857 1_555
O39 Rb3 2.969021 1_555
O40 Si9 1.639405 1_555
O40 Rb8 2.884369 1_555
O40 Rb5 3.145408 1_555
O41 Si3 1.621260 1_655
O41 Rb7 2.919650 1_555
O41 Rb3 3.071396 1_555
O42 Si7 1.626781 1_655
O42 Rb8 2.943743 1_555
O42 Rb5 3.019800 1_555
O43 Si8 1.618153 1_655
O43 Rb6 2.866484 1_555
O44 Rb6 2.746262 1_555
O45 Si4 1.648854 1_555
O45 Si3 1.656701 1_655
O46 Si4 1.651195 1_555
O46 Si5 1.671955 1_655
O47 Si8 1.650804 1_555
O47 Si6 1.651549 1_455
O47 Rb10 3.253709 1_555
