# generated using pymatgen
data_Mg3Ti2(Si2O7)2
_symmetry_space_group_name_H-M   'P 1'
_cell_length_a   9.32660089
_cell_length_b   9.32660089
_cell_length_c   9.75509066
_cell_angle_alpha   59.46055010
_cell_angle_beta   59.46055010
_cell_angle_gamma   48.56214599
_symmetry_Int_Tables_number   1
_chemical_formula_structural   Mg3Ti2(Si2O7)2
_chemical_formula_sum   'Mg6 Ti4 Si8 O28'
_cell_volume   528.13029912
_cell_formula_units_Z   2
loop_
 _symmetry_equiv_pos_site_id
 _symmetry_equiv_pos_as_xyz
  1  'x, y, z'
loop_
 _atom_site_type_symbol
 _atom_site_label
 _atom_site_symmetry_multiplicity
 _atom_site_fract_x
 _atom_site_fract_y
 _atom_site_fract_z
 _atom_site_occupancy
  Mg  Mg0  1  0.08502900  0.27421400  0.09102100  1
  Mg  Mg1  1  0.72578600  0.91497100  0.40897900  1
  Mg  Mg2  1  0.27421400  0.08502900  0.59102100  1
  Mg  Mg3  1  0.38796400  0.61203600  0.75000000  1
  Mg  Mg4  1  0.91497100  0.72578600  0.90897900  1
  Mg  Mg5  1  0.61203600  0.38796400  0.25000000  1
  Ti  Ti0  1  0.80658500  0.19341500  0.75000000  1
  Ti  Ti1  1  0.19341500  0.80658500  0.25000000  1
  Ti  Ti2  1  0.00000000  0.00000000  0.00000000  1
  Ti  Ti3  1  0.00000000  0.00000000  0.50000000  1
  Si  Si0  1  0.53120700  0.09761100  0.71445000  1
  Si  Si1  1  0.09761100  0.53120700  0.21445000  1
  Si  Si2  1  0.51856200  0.23873500  0.10633900  1
  Si  Si3  1  0.23873500  0.51856200  0.60633900  1
  Si  Si4  1  0.90238900  0.46879300  0.78555000  1
  Si  Si5  1  0.48143800  0.76126500  0.89366100  1
  Si  Si6  1  0.76126500  0.48143800  0.39366100  1
  Si  Si7  1  0.46879300  0.90238900  0.28555000  1
  O  O0  1  0.84885500  0.30031700  0.32168400  1
  O  O1  1  0.94897500  0.88718300  0.42141700  1
  O  O2  1  0.46264700  0.62973100  0.08466400  1
  O  O3  1  0.88718300  0.94897500  0.92141700  1
  O  O4  1  0.25739400  0.95034300  0.30675600  1
  O  O5  1  0.06904800  0.49949700  0.61746200  1
  O  O6  1  0.62973100  0.46264700  0.58466400  1
  O  O7  1  0.04965700  0.74260600  0.19324400  1
  O  O8  1  0.93095200  0.50050300  0.38253800  1
  O  O9  1  0.64445000  0.68038700  0.25266300  1
  O  O10  1  0.05102500  0.11281700  0.57858300  1
  O  O11  1  0.74260600  0.04965700  0.69324400  1
  O  O12  1  0.50050300  0.93095200  0.88253800  1
  O  O13  1  0.30031700  0.84885500  0.82168400  1
  O  O14  1  0.68038700  0.64445000  0.75266300  1
  O  O15  1  0.95034300  0.25739400  0.80675600  1
  O  O16  1  0.90808500  0.49480700  0.93486600  1
  O  O17  1  0.35555000  0.31961300  0.74733700  1
  O  O18  1  0.50519300  0.09191500  0.56513400  1
  O  O19  1  0.31961300  0.35555000  0.24733700  1
  O  O20  1  0.49949700  0.06904800  0.11746200  1
  O  O21  1  0.11281700  0.05102500  0.07858300  1
  O  O22  1  0.49480700  0.90808500  0.43486600  1
  O  O23  1  0.53735300  0.37026900  0.91533600  1
  O  O24  1  0.09191500  0.50519300  0.06513400  1
  O  O25  1  0.37026900  0.53735300  0.41533600  1
  O  O26  1  0.69968300  0.15114500  0.17831600  1
  O  O27  1  0.15114500  0.69968300  0.67831600  1
loop_
_geom_bond_atom_site_label_1
_geom_bond_atom_site_label_2
_geom_bond_distance
_geom_bond_site_symmetry_2
Mg0 O21 1.981307 1_555
Mg0 O16 2.037764 1_454
Mg0 O24 2.079055 1_555
Mg0 O0 2.187285 1_455
Mg0 O4 2.586113 1_545
Mg1 O1 1.981307 1_555
Mg1 O18 2.037764 1_565
Mg1 O22 2.079055 1_555
Mg1 O26 2.187285 1_565
Mg1 O7 2.586113 1_655
Mg2 O10 1.981307 1_555
Mg2 O22 2.037764 1_545
Mg2 O18 2.079055 1_555
Mg2 O13 2.187285 1_545
Mg2 O15 2.586113 1_455
Mg3 O23 2.014060 1_555
Mg3 O6 2.014060 1_555
Mg3 O13 2.152803 1_555
Mg3 O27 2.152803 1_555
Mg4 O3 1.981307 1_555
Mg4 O24 2.037764 1_656
Mg4 O16 2.079055 1_555
Mg4 O27 2.187285 1_655
Mg4 O11 2.586113 1_565
Mg5 O25 2.014060 1_555
Mg5 O2 2.014060 1_555
Mg5 O0 2.152803 1_555
Mg5 O26 2.152803 1_555
O0 Si6 1.676248 1_555
O0 Ti3 2.274342 1_655
O1 Ti1 1.921876 1_655
O1 Ti3 1.942802 1_665
O2 Si5 1.623929 1_554
O2 Ti1 2.175522 1_555
O3 Ti0 1.921876 1_565
O3 Ti2 1.942802 1_666
O4 Si7 1.625582 1_555
O4 Ti3 2.085118 1_565
O4 Ti1 2.146946 1_555
O5 Si4 1.645757 1_455
O5 Si3 1.651173 1_555
O6 Si6 1.623929 1_555
O6 Ti0 2.175522 1_555
O7 Si1 1.625582 1_555
O7 Ti2 2.085118 1_565
O7 Ti1 2.146946 1_555
O8 Si1 1.645757 1_655
O8 Si6 1.651173 1_555
O9 Si7 1.650772 1_555
O9 Si6 1.665907 1_555
O10 Ti0 1.921876 1_455
O10 Ti3 1.942802 1_555
O11 Si0 1.625582 1_555
O11 Ti3 2.085118 1_655
O11 Ti0 2.146946 1_555
O12 Si0 1.645757 1_565
O12 Si5 1.651173 1_555
O13 Si5 1.676248 1_555
O13 Ti2 2.274342 1_566
O14 Si4 1.650772 1_555
O14 Si5 1.665907 1_555
O15 Si4 1.625582 1_555
O15 Ti2 2.085118 1_656
O15 Ti0 2.146946 1_555
O16 Si4 1.624252 1_555
O17 Si0 1.650772 1_555
O17 Si3 1.665907 1_555
O18 Si0 1.624252 1_555
O19 Si1 1.650772 1_555
O19 Si2 1.665907 1_555
O20 Si7 1.645757 1_545
O20 Si2 1.651173 1_555
O21 Ti1 1.921876 1_545
O21 Ti2 1.942802 1_555
O22 Si7 1.624252 1_555
O23 Si2 1.623929 1_556
O23 Ti0 2.175522 1_555
O24 Si1 1.624252 1_555
O25 Si3 1.623929 1_555
O25 Ti1 2.175522 1_555
O26 Si2 1.676248 1_555
O26 Ti2 2.274342 1_655
O27 Si3 1.676248 1_555
O27 Ti3 2.274342 1_565
