# generated using pymatgen
data_LaMgPd
_symmetry_space_group_name_H-M   'P 1'
_cell_length_a   7.75867618
_cell_length_b   7.75867618
_cell_length_c   4.14505394
_cell_angle_alpha   90.00000000
_cell_angle_beta   90.00000000
_cell_angle_gamma   119.99999999
_symmetry_Int_Tables_number   1
_chemical_formula_structural   LaMgPd
_chemical_formula_sum   'La3 Mg3 Pd3'
_cell_volume   216.09069717
_cell_formula_units_Z   3
loop_
 _symmetry_equiv_pos_site_id
 _symmetry_equiv_pos_as_xyz
  1  'x, y, z'
loop_
 _atom_site_type_symbol
 _atom_site_label
 _atom_site_symmetry_multiplicity
 _atom_site_fract_x
 _atom_site_fract_y
 _atom_site_fract_z
 _atom_site_occupancy
  La  La0  1  0.41773148  0.41773148  0.50000000  1
  La  La1  1  0.58226852  -0.00000000  0.50000000  1
  La  La2  1  0.00000000  0.58226852  0.50000000  1
  Mg  Mg0  1  0.76719825  0.76719825  -0.00000000  1
  Mg  Mg1  1  0.23280175  1.00000000  0.00000000  1
  Mg  Mg2  1  1.00000000  0.23280175  0.00000000  1
  Pd  Pd0  1  0.66666700  0.33333300  -0.00000000  1
  Pd  Pd1  1  0.33333300  0.66666700  -0.00000000  1
  Pd  Pd2  1  -0.00000000  -0.00000000  0.50000000  1
loop_
_geom_bond_atom_site_label_1
_geom_bond_atom_site_label_2
_geom_bond_distance
_geom_bond_site_symmetry_2
La0 Pd1 3.117568 1_555
La0 Pd0 3.117568 1_555
La0 Pd0 3.117568 1_556
La0 Pd1 3.117568 1_556
La0 Pd2 3.241043 1_555
La0 Mg0 3.412778 1_556
La0 Mg0 3.412778 1_555
La0 Mg2 3.494013 1_456
La0 Mg2 3.494013 1_455
La0 Mg1 3.494013 1_545
La0 Mg1 3.494013 1_546
La1 Pd0 3.117562 1_555
La1 Pd0 3.117562 1_556
La1 Pd1 3.117564 1_545
La1 Pd1 3.117564 1_546
La1 Pd2 3.241043 1_655
La1 Mg1 3.412778 1_545
La1 Mg1 3.412778 1_546
La1 Mg0 3.494013 1_545
La1 Mg0 3.494013 1_546
La1 Mg2 3.494013 1_556
La1 Mg2 3.494013 1_555
La2 Pd1 3.117562 1_556
La2 Pd1 3.117562 1_555
La2 Pd0 3.117564 1_455
La2 Pd0 3.117564 1_456
La2 Pd2 3.241043 1_565
La2 Mg2 3.412778 1_456
La2 Mg2 3.412778 1_455
La2 Mg0 3.494013 1_455
La2 Mg0 3.494013 1_456
La2 Mg1 3.494013 1_556
La2 Mg1 3.494013 1_555
Mg0 Pd2 2.749154 1_665
Mg0 Pd2 2.749154 1_664
Mg0 Pd0 3.051918 1_555
Mg0 Pd1 3.051918 1_555
Mg0 Mg1 3.128488 1_655
Mg0 Mg2 3.128488 1_565
Mg1 Pd2 2.749154 1_564
Mg1 Pd2 2.749154 1_565
Mg1 Pd1 3.051911 1_555
Mg1 Pd0 3.051916 1_565
Mg1 Mg2 3.128488 1_465
Mg2 Pd2 2.749154 1_655
Mg2 Pd2 2.749154 1_654
Mg2 Pd0 3.051911 1_555
Mg2 Pd1 3.051916 1_655
