# generated using pymatgen
data_BaGa2SiS6
_symmetry_space_group_name_H-M   'P 1'
_cell_length_a   6.17239646
_cell_length_b   6.25270036
_cell_length_c   6.41023294
_cell_angle_alpha   99.33684436
_cell_angle_beta   103.76610882
_cell_angle_gamma   98.21289695
_symmetry_Int_Tables_number   1
_chemical_formula_structural   BaGa2SiS6
_chemical_formula_sum   'Ba1 Ga2 Si1 S6'
_cell_volume   232.81898498
_cell_formula_units_Z   1
loop_
 _symmetry_equiv_pos_site_id
 _symmetry_equiv_pos_as_xyz
  1  'x, y, z'
loop_
 _atom_site_type_symbol
 _atom_site_label
 _atom_site_symmetry_multiplicity
 _atom_site_fract_x
 _atom_site_fract_y
 _atom_site_fract_z
 _atom_site_occupancy
  Ba  Ba0  1  0.47151005  0.45878020  0.44339045  1
  Ga  Ga0  1  0.00087008  0.84616135  0.26551150  1
  Ga  Ga1  1  0.26176388  0.98597491  0.85871745  1
  Si  Si0  1  0.84492492  0.27318016  0.99728961  1
  S  S0  1  0.04011573  0.71727204  0.57991385  1
  S  S1  1  0.58761408  0.05324158  0.74048097  1
  S  S2  1  0.71891331  0.57476367  0.02242578  1
  S  S3  1  0.89659888  0.18563758  0.30959008  1
  S  S4  1  0.34060221  0.89874270  0.19304344  1
  S  S5  1  0.15313187  0.32229081  0.90568088  1
loop_
_geom_bond_atom_site_label_1
_geom_bond_atom_site_label_2
_geom_bond_distance
_geom_bond_site_symmetry_2
Ba0 S5 3.437090 1_554
Ba0 S1 3.465081 1_555
Ba0 S0 3.486334 1_655
Ba0 S4 3.498790 1_545
Ba0 S4 3.499482 1_555
Ba0 S0 3.513976 1_555
Ba0 S3 3.523194 1_555
Ba0 S2 3.524119 1_555
Ba0 S3 3.548180 1_455
Ba0 S2 3.570377 1_556
Ba0 S1 3.774778 1_565
Ga0 S4 2.244397 1_555
Ga0 S0 2.262835 1_555
Ga0 S3 2.298244 1_465
Ga0 S2 2.311754 1_455
Ga1 S4 2.255218 1_556
Ga1 S0 2.256967 1_555
Ga1 S5 2.292562 1_565
Ga1 S1 2.320306 1_565
S1 Si0 2.126205 1_555
S2 Si0 2.137037 1_554
S3 Si0 2.123816 1_554
S5 Si0 2.116943 1_455
