# generated using pymatgen
data_CaSm(FeO3)4
_symmetry_space_group_name_H-M   'P 1'
_cell_length_a   5.36689681
_cell_length_b   5.36689681
_cell_length_c   7.63686832
_cell_angle_alpha   90.00000000
_cell_angle_beta   90.00000000
_cell_angle_gamma   89.92391481
_symmetry_Int_Tables_number   1
_chemical_formula_structural   CaSm(FeO3)4
_chemical_formula_sum   'Ca1 Sm1 Fe4 O12'
_cell_volume   219.96896391
_cell_formula_units_Z   1
loop_
 _symmetry_equiv_pos_site_id
 _symmetry_equiv_pos_as_xyz
  1  'x, y, z'
loop_
 _atom_site_type_symbol
 _atom_site_label
 _atom_site_symmetry_multiplicity
 _atom_site_fract_x
 _atom_site_fract_y
 _atom_site_fract_z
 _atom_site_occupancy
  Ca  Ca0  1  0.50000000  0.50000000  0.00000000  1
  Sm  Sm0  1  0.00000000  -0.00000000  0.50000000  1
  Fe  Fe0  1  0.00000000  0.50000000  0.24762800  1
  Fe  Fe1  1  0.00000000  0.50000000  0.75237200  1
  Fe  Fe2  1  0.50000000  -0.00000000  0.24762800  1
  Fe  Fe3  1  0.50000000  -0.00000000  0.75237200  1
  O  O0  1  0.24053647  0.24053647  0.25751653  1
  O  O1  1  0.24053647  0.24053647  0.74248347  1
  O  O2  1  0.75946353  0.75946353  0.74248347  1
  O  O3  1  0.75946353  0.75946353  0.25751653  1
  O  O4  1  0.75153267  0.24846733  0.25602911  1
  O  O5  1  0.75153267  0.24846733  0.74397089  1
  O  O6  1  0.24846733  0.75153267  0.74397089  1
  O  O7  1  0.24846733  0.75153267  0.25602911  1
  O  O8  1  0.00000000  0.50000000  0.00000000  1
  O  O9  1  0.00000000  0.50000000  0.50000000  1
  O  O10  1  0.50000000  -0.00000000  0.00000000  1
  O  O11  1  0.50000000  -0.00000000  0.50000000  1
loop_
_geom_bond_atom_site_label_1
_geom_bond_atom_site_label_2
_geom_bond_distance
_geom_bond_site_symmetry_2
Ca0 O10 2.683448 1_555
Ca0 O10 2.683448 1_565
Ca0 O8 2.683448 1_555
Ca0 O8 2.683448 1_655
Ca0 O4 2.731837 1_555
Ca0 O5 2.731837 1_554
Ca0 O6 2.731837 1_554
Ca0 O7 2.731837 1_555
Ca0 O1 2.784050 1_554
Ca0 O2 2.784050 1_554
Ca0 O3 2.784050 1_555
Ca0 O0 2.784050 1_555
Fe0 O8 1.891102 1_555
Fe0 O3 1.899088 1_455
Fe0 O0 1.899088 1_555
Fe0 O4 1.899863 1_455
Fe0 O7 1.899863 1_555
Fe0 O9 1.927332 1_555
Fe1 O8 1.891102 1_556
Fe1 O2 1.899088 1_455
Fe1 O1 1.899088 1_555
Fe1 O6 1.899863 1_555
Fe1 O5 1.899863 1_455
Fe1 O9 1.927332 1_555
Fe2 O10 1.891102 1_555
Fe2 O0 1.899088 1_555
Fe2 O3 1.899088 1_545
Fe2 O7 1.899863 1_545
Fe2 O4 1.899863 1_555
Fe2 O11 1.927332 1_555
Fe3 O10 1.891102 1_556
Fe3 O2 1.899088 1_545
Fe3 O1 1.899088 1_555
Fe3 O6 1.899863 1_545
Fe3 O5 1.899863 1_555
Fe3 O11 1.927332 1_555
O0 Sm0 2.601282 1_555
O1 Sm0 2.601282 1_555
O2 Sm0 2.601282 1_665
O3 Sm0 2.601282 1_665
O4 Sm0 2.650119 1_655
O5 Sm0 2.650119 1_655
O6 Sm0 2.650119 1_565
O7 Sm0 2.650119 1_565
O9 Sm0 2.683448 1_565
O9 Sm0 2.683448 1_555
O11 Sm0 2.683448 1_555
O11 Sm0 2.683448 1_655
