# generated using pymatgen
data_Sm2MgMo2(I4O15)2
_symmetry_space_group_name_H-M   'P 1'
_cell_length_a   7.12466741
_cell_length_b   7.18177385
_cell_length_c   14.43239573
_cell_angle_alpha   92.55899498
_cell_angle_beta   89.73136783
_cell_angle_gamma   114.98266866
_symmetry_Int_Tables_number   1
_chemical_formula_structural   Sm2MgMo2(I4O15)2
_chemical_formula_sum   'Sm2 Mg1 Mo2 I8 O30'
_cell_volume   668.62902415
_cell_formula_units_Z   1
loop_
 _symmetry_equiv_pos_site_id
 _symmetry_equiv_pos_as_xyz
  1  'x, y, z'
loop_
 _atom_site_type_symbol
 _atom_site_label
 _atom_site_symmetry_multiplicity
 _atom_site_fract_x
 _atom_site_fract_y
 _atom_site_fract_z
 _atom_site_occupancy
  Sm  Sm0  1  0.09121911  0.43340730  0.43508434  1
  Sm  Sm1  1  0.90344007  0.55362469  0.95924890  1
  Mg  Mg0  1  0.80336982  0.60684119  0.72382968  1
  Mo  Mo0  1  0.58843902  0.77701734  0.27325037  1
  Mo  Mo1  1  0.41408925  0.21817777  0.77692565  1
  I  I0  1  0.50149993  0.75568545  0.03371353  1
  I  I1  1  0.49851119  0.27071658  0.52927254  1
  I  I2  1  0.74427741  0.28741295  0.19609414  1
  I  I3  1  0.27543894  0.71901964  0.68111114  1
  I  I4  1  0.15880049  0.94359775  0.31739101  1
  I  I5  1  0.84742325  0.06780085  0.80482578  1
  I  I6  1  0.76819114  0.88011421  0.52897788  1
  I  I7  1  0.21934784  0.13382013  0.05758050  1
  O  O0  1  0.38847908  0.68754045  0.14945637  1
  O  O1  1  0.62768156  0.33961856  0.64773944  1
  O  O2  1  0.26109290  0.63562070  0.96629436  1
  O  O3  1  0.72855049  0.38140033  0.46008842  1
  O  O4  1  0.58380879  0.54424400  0.01649539  1
  O  O5  1  0.41628244  0.48236136  0.52800883  1
  O  O6  1  0.74678705  0.02791228  0.17954030  1
  O  O7  1  0.26484131  0.97933574  0.67921984  1
  O  O8  1  0.90376309  0.39740777  0.09577601  1
  O  O9  1  0.08504420  0.60287273  0.58842775  1
  O  O10  1  0.94377296  0.38831029  0.28601184  1
  O  O11  1  0.07994832  0.63048360  0.77298645  1
  O  O12  1  0.43038908  0.98594562  0.29505149  1
  O  O13  1  0.56665588  0.00227107  0.78762204  1
  O  O14  1  0.23433667  0.18548505  0.38609222  1
  O  O15  1  0.80626402  0.81316896  0.84191989  1
  O  O16  1  0.10697782  0.77268992  0.41466232  1
  O  O17  1  0.88722491  0.21066096  0.91606273  1
  O  O18  1  0.53020323  0.91821486  0.54229695  1
  O  O19  1  0.45395182  0.08709777  0.04966933  1
  O  O20  1  0.78325784  0.82971734  0.65545959  1
  O  O21  1  0.21862038  0.17278335  0.18256281  1
  O  O22  1  0.95983166  0.14596013  0.53910244  1
  O  O23  1  0.01518005  0.87145678  0.03891187  1
  O  O24  1  0.77515830  0.93334266  0.36442652  1
  O  O25  1  0.25569993  0.10762827  0.87095336  1
  O  O26  1  0.38768971  0.59808011  0.33814392  1
  O  O27  1  0.66125863  0.41076286  0.82764039  1
  O  O28  1  0.72623977  0.64037931  0.22659725  1
  O  O29  1  0.29214567  0.36630733  0.73367840  1
loop_
_geom_bond_atom_site_label_1
_geom_bond_atom_site_label_2
_geom_bond_distance
_geom_bond_site_symmetry_2
Mg0 O20 1.972907 1_555
Mg0 O11 2.033438 1_655
Mg0 O27 2.054918 1_555
Mg0 O1 2.061895 1_555
Mg0 O15 2.202245 1_555
Mo0 O26 1.765402 1_555
Mo0 O28 1.768844 1_555
Mo0 O24 1.839746 1_555
Mo0 O0 2.186940 1_555
Mo0 O6 2.198833 1_565
Mo0 O12 2.236100 1_555
Mo1 O25 1.752262 1_555
Mo1 O29 1.766703 1_555
Mo1 O27 1.847742 1_555
Mo1 O7 2.078182 1_545
Mo1 O13 2.248635 1_555
Mo1 O1 2.355886 1_555
I0 O2 1.821321 1_554
I0 O0 1.845487 1_555
I0 O4 1.851673 1_555
I0 O19 2.542479 1_565
I1 O3 1.808339 1_555
I1 O5 1.846258 1_555
I1 O1 1.889346 1_555
I1 O14 2.671649 1_555
I2 O10 1.814589 1_555
I2 O8 1.827535 1_555
I2 O6 1.875908 1_555
I3 O9 1.812947 1_555
I3 O11 1.847252 1_555
I3 O7 1.904049 1_555
I3 O13 2.644155 1_565
I4 O14 1.830857 1_565
I4 O16 1.838453 1_555
I4 O12 1.856449 1_555
I4 O21 2.522500 1_565
I5 O17 1.822596 1_555
I5 O15 1.830233 1_545
I5 O13 1.866453 1_555
I6 O22 1.818190 1_565
I6 O18 1.836024 1_555
I6 O20 1.889017 1_555
I6 O24 2.419203 1_555
I7 O21 1.813303 1_555
I7 O23 1.839034 1_545
I7 O19 1.840653 1_555
O2 Sm1 2.362161 1_455
O3 Sm0 2.476757 1_655
O4 Sm1 2.393915 1_554
O5 Sm0 2.566158 1_555
O8 Sm1 2.311028 1_554
O9 Sm0 2.486934 1_555
O10 Sm0 2.347099 1_655
O11 Sm1 2.937192 1_455
O14 Sm0 2.474734 1_555
O15 Sm1 2.864285 1_555
O16 Sm0 2.422701 1_555
O17 Sm1 2.468168 1_555
O22 Sm0 2.454154 1_655
O23 Sm1 2.324906 1_454
O26 Sm0 2.414056 1_555
O27 Sm1 2.449297 1_555
