# generated using pymatgen
data_Ba10MgAs6(ClO12)2
_symmetry_space_group_name_H-M   'P 1'
_cell_length_a   11.04739570
_cell_length_b   11.30902713
_cell_length_c   7.81785453
_cell_angle_alpha   90.00000000
_cell_angle_beta   90.00000000
_cell_angle_gamma   122.15263827
_symmetry_Int_Tables_number   1
_chemical_formula_structural   Ba10MgAs6(ClO12)2
_chemical_formula_sum   'Ba10 Mg1 As6 Cl2 O24'
_cell_volume   826.92880295
_cell_formula_units_Z   1
loop_
 _symmetry_equiv_pos_site_id
 _symmetry_equiv_pos_as_xyz
  1  'x, y, z'
loop_
 _atom_site_type_symbol
 _atom_site_label
 _atom_site_symmetry_multiplicity
 _atom_site_fract_x
 _atom_site_fract_y
 _atom_site_fract_z
 _atom_site_occupancy
  Ba  Ba0  1  0.66540675  0.33785949  0.49896469  1
  Ba  Ba1  1  0.35069297  0.63753100  0.48344162  1
  Ba  Ba2  1  0.99482073  0.26001424  0.25000000  1
  Ba  Ba3  1  0.35069297  0.63753100  0.01655838  1
  Ba  Ba4  1  0.76002173  0.74466139  0.25000000  1
  Ba  Ba5  1  0.25664313  0.98707601  0.25000000  1
  Ba  Ba6  1  0.70028482  0.97160110  0.75000000  1
  Ba  Ba7  1  0.95261988  0.75127808  0.75000000  1
  Ba  Ba8  1  0.66540675  0.33785949  0.00103531  1
  Ba  Ba9  1  0.23828550  0.23490847  0.75000000  1
  Mg  Mg0  1  0.25817763  0.78749356  0.75000000  1
  As  As0  1  0.97864643  0.60178227  0.25000000  1
  As  As1  1  0.59545213  0.61261814  0.75000000  1
  As  As2  1  0.43184401  0.04303790  0.75000000  1
  As  As3  1  0.40111931  0.35197574  0.25000000  1
  As  As4  1  0.02392936  0.42064669  0.75000000  1
  As  As5  1  0.62741679  0.03024651  0.25000000  1
  Cl  Cl0  1  0.99076885  0.00215653  0.00088973  1
  Cl  Cl1  1  0.99076885  0.00215653  0.49911027  1
  O  O0  1  0.64860585  0.71898582  0.92868003  1
  O  O1  1  0.31902241  0.44617354  0.25000000  1
  O  O2  1  0.35611901  0.24798988  0.42768013  1
  O  O3  1  0.41288824  0.50374367  0.75000000  1
  O  O4  1  0.09156525  0.38515459  0.57199456  1
  O  O5  1  0.68570309  0.52603550  0.75000000  1
  O  O6  1  0.84092771  0.33617238  0.75000000  1
  O  O7  1  0.09200804  0.60130426  0.75000000  1
  O  O8  1  0.58687698  0.46401780  0.25000000  1
  O  O9  1  0.73646318  0.09028469  0.07147656  1
  O  O10  1  0.09156525  0.38515459  0.92800544  1
  O  O11  1  0.88007079  0.42052841  0.25000000  1
  O  O12  1  0.42860497  0.78232553  0.75000000  1
  O  O13  1  0.92336602  0.65653190  0.07547196  1
  O  O14  1  0.92336602  0.65653190  0.42452804  1
  O  O15  1  0.46046978  0.21086307  0.75000000  1
  O  O16  1  0.35611901  0.24798988  0.07231987  1
  O  O17  1  0.73646318  0.09028469  0.42852344  1
  O  O18  1  0.15992013  0.66980295  0.25000000  1
  O  O19  1  0.29706572  0.93935309  0.91518273  1
  O  O20  1  0.52049386  0.84949346  0.25000000  1
  O  O21  1  0.29706572  0.93935309  0.58481727  1
  O  O22  1  0.64860585  0.71898582  0.57131997  1
  O  O23  1  0.53614536  0.11675538  0.25000000  1
loop_
_geom_bond_atom_site_label_1
_geom_bond_atom_site_label_2
_geom_bond_distance
_geom_bond_site_symmetry_2
Ba0 O15 2.753045 1_555
Ba0 O6 2.766096 1_555
Ba0 O8 2.809619 1_555
Ba0 O5 2.814746 1_555
Ba0 O11 2.815409 1_555
Ba0 O23 2.877402 1_555
Ba0 O2 3.053208 1_555
Ba0 O14 3.242936 1_555
Ba0 O17 3.331336 1_555
Ba1 O12 2.502954 1_555
Ba1 O1 2.707469 1_555
Ba1 O20 2.794563 1_555
Ba1 O4 2.850269 1_555
Ba1 O3 2.865391 1_555
Ba1 O18 2.953690 1_555
Ba1 O22 2.987552 1_555
Ba2 O11 2.711359 1_555
Ba2 O10 2.805720 1_654
Ba2 O4 2.805720 1_655
Ba2 O9 2.819136 1_555
Ba2 O17 2.819136 1_555
Ba2 O1 3.038828 1_655
Ba2 Cl0 3.487063 1_555
Ba2 Cl1 3.487063 1_555
Ba3 O12 2.502954 1_554
Ba3 O1 2.707469 1_555
Ba3 O20 2.794563 1_555
Ba3 O10 2.850269 1_554
Ba3 O3 2.865391 1_554
Ba3 O18 2.953690 1_555
Ba3 O0 2.987552 1_554
Ba4 O8 2.696352 1_555
Ba4 O22 2.743944 1_555
Ba4 O0 2.743944 1_554
Ba4 O13 2.832945 1_555
Ba4 O14 2.832945 1_555
Ba4 Cl0 3.296959 1_565
Ba4 Cl1 3.296959 1_565
Ba4 O20 3.427349 1_555
Ba5 O23 2.620175 1_565
Ba5 O19 2.756592 1_554
Ba5 O21 2.756592 1_555
Ba5 O16 2.896968 1_565
Ba5 O2 2.896968 1_565
Ba5 O18 3.152012 1_555
Ba5 Cl0 3.603095 1_465
Ba5 Cl1 3.603095 1_465
Ba6 O12 2.598474 1_555
Ba6 O17 2.776099 1_565
Ba6 O9 2.776099 1_566
Ba6 O22 2.950047 1_555
Ba6 O0 2.950047 1_555
Ba6 Cl0 3.617260 1_566
Ba6 Cl1 3.617260 1_565
Ba7 O5 2.681238 1_555
Ba7 O14 2.712638 1_555
Ba7 O13 2.712638 1_556
Ba7 O7 2.833306 1_655
Ba7 Cl1 3.286604 1_565
Ba7 Cl0 3.286604 1_566
Ba8 O15 2.753045 1_554
Ba8 O6 2.766096 1_554
Ba8 O8 2.809619 1_555
Ba8 O5 2.814746 1_554
Ba8 O11 2.815409 1_555
Ba8 O23 2.877402 1_555
Ba8 O16 3.053208 1_555
Ba8 O13 3.242936 1_555
Ba8 O9 3.331336 1_555
Ba9 O3 2.592703 1_555
Ba9 O15 2.609448 1_555
Ba9 O2 2.803769 1_555
Ba9 O16 2.803769 1_556
Ba9 O4 3.222149 1_555
Ba9 O10 3.222149 1_555
Ba9 Cl0 3.254528 1_456
Ba9 Cl1 3.254528 1_455
Mg0 O12 1.914521 1_555
Mg0 O7 1.920796 1_555
Mg0 O21 2.004079 1_555
Mg0 O19 2.004079 1_555
As0 O18 1.721199 1_655
As0 O11 1.735434 1_555
As0 O14 1.737949 1_555
As0 O13 1.737949 1_555
As1 O3 1.714826 1_555
As1 O0 1.729541 1_555
As1 O22 1.729541 1_555
As1 O5 1.729723 1_555
As2 O15 1.750243 1_555
As2 O21 1.844259 1_545
As2 O19 1.844259 1_545
As3 O16 1.713874 1_555
As3 O2 1.713874 1_555
As3 O1 1.727932 1_555
As3 O8 1.746199 1_555
As4 O6 1.715873 1_455
As4 O4 1.724887 1_555
As4 O10 1.724887 1_555
As4 O7 1.761899 1_555
As5 O9 1.729037 1_555
As5 O17 1.729037 1_555
As5 O20 1.733155 1_545
As5 O23 1.738899 1_555
