# generated using pymatgen
data_Y2B6Ru
_symmetry_space_group_name_H-M   'P 1'
_cell_length_a   3.66251472
_cell_length_b   9.14673708
_cell_length_c   11.51387130
_cell_angle_alpha   90.00000000
_cell_angle_beta   90.00000000
_cell_angle_gamma   90.00000000
_symmetry_Int_Tables_number   1
_chemical_formula_structural   Y2B6Ru
_chemical_formula_sum   'Y8 B24 Ru4'
_cell_volume   385.71537012
_cell_formula_units_Z   4
loop_
 _symmetry_equiv_pos_site_id
 _symmetry_equiv_pos_as_xyz
  1  'x, y, z'
loop_
 _atom_site_type_symbol
 _atom_site_label
 _atom_site_symmetry_multiplicity
 _atom_site_fract_x
 _atom_site_fract_y
 _atom_site_fract_z
 _atom_site_occupancy
  Y  Y0  1  0.00000000  0.32260416  0.41408468  1
  Y  Y1  1  -0.00000000  0.67739584  0.58591532  1
  Y  Y2  1  -0.00000000  0.82260416  0.08591532  1
  Y  Y3  1  -0.00000000  0.17739584  0.91408468  1
  Y  Y4  1  0.00000000  0.94380639  0.37280095  1
  Y  Y5  1  -0.00000000  0.05619361  0.62719905  1
  Y  Y6  1  0.00000000  0.44380639  0.12719905  1
  Y  Y7  1  -0.00000000  0.55619361  0.87280095  1
  B  B0  1  0.50000000  0.55395890  0.43255360  1
  B  B1  1  0.50000000  0.44604110  0.56744640  1
  B  B2  1  0.50000000  0.05395890  0.06744640  1
  B  B3  1  0.50000000  0.94604110  0.93255360  1
  B  B4  1  0.50000000  0.74718986  0.41972709  1
  B  B5  1  0.50000000  0.25281014  0.58027291  1
  B  B6  1  0.50000000  0.24718986  0.08027291  1
  B  B7  1  0.50000000  0.75281014  0.91972709  1
  B  B8  1  0.50000000  0.79020859  0.26669329  1
  B  B9  1  0.50000000  0.20979141  0.73330671  1
  B  B10  1  0.50000000  0.29020859  0.23330671  1
  B  B11  1  0.50000000  0.70979141  0.76669329  1
  B  B12  1  0.50000000  0.63201050  0.18571940  1
  B  B13  1  0.50000000  0.36798950  0.81428060  1
  B  B14  1  0.50000000  0.13201050  0.31428060  1
  B  B15  1  0.50000000  0.86798950  0.68571940  1
  B  B16  1  0.50000000  0.98402435  0.21279753  1
  B  B17  1  0.50000000  0.01597565  0.78720247  1
  B  B18  1  0.50000000  0.48402435  0.28720247  1
  B  B19  1  0.50000000  0.51597565  0.71279753  1
  B  B20  1  0.50000000  0.61120912  0.03074701  1
  B  B21  1  0.50000000  0.38879088  0.96925299  1
  B  B22  1  0.50000000  0.11120912  0.46925299  1
  B  B23  1  0.50000000  0.88879088  0.53074701  1
  Ru  Ru0  1  -0.00000000  0.63770437  0.32124440  1
  Ru  Ru1  1  0.00000000  0.36229563  0.67875560  1
  Ru  Ru2  1  0.00000000  0.13770437  0.17875560  1
  Ru  Ru3  1  -0.00000000  0.86229563  0.82124440  1
loop_
_geom_bond_atom_site_label_1
_geom_bond_atom_site_label_2
_geom_bond_distance
_geom_bond_site_symmetry_2
B0 B4 1.773592 1_555
B0 B18 1.791638 1_555
B0 B1 1.840271 1_555
B0 Ru0 2.362785 1_555
B0 Ru0 2.362785 1_655
B0 Y1 2.783209 1_555
B0 Y1 2.783209 1_655
B0 Y0 2.806559 1_655
B0 Y0 2.806559 1_555
B1 B5 1.773592 1_555
B1 B19 1.791638 1_555
B1 Ru1 2.362785 1_555
B1 Ru1 2.362785 1_655
B1 Y0 2.783209 1_555
B1 Y0 2.783209 1_655
B1 Y1 2.806559 1_555
B1 Y1 2.806559 1_655
B2 B6 1.773592 1_555
B2 B3 1.840271 1_544
B2 Ru2 2.362785 1_555
B2 Ru2 2.362785 1_655
B2 Y3 2.783209 1_654
B2 Y3 2.783209 1_554
B2 Y2 2.806559 1_645
B2 Y2 2.806559 1_545
B3 B7 1.773592 1_555
B3 Ru3 2.362785 1_655
B3 Ru3 2.362785 1_555
B3 Y2 2.783209 1_556
B3 Y2 2.783209 1_656
B3 Y3 2.806559 1_665
B3 Y3 2.806559 1_565
B4 B8 1.805412 1_555
B4 Ru0 2.375320 1_555
B4 Ru0 2.375320 1_655
B4 Y4 2.622913 1_555
B4 Y4 2.622913 1_655
B4 Y1 2.724410 1_555
B4 Y1 2.724410 1_655
B5 B9 1.805412 1_555
B5 Ru1 2.375320 1_555
B5 Ru1 2.375320 1_655
B5 Y5 2.622913 1_655
B5 Y5 2.622913 1_555
B5 Y0 2.724410 1_655
B5 Y0 2.724410 1_555
B6 Ru2 2.375320 1_555
B6 Ru2 2.375320 1_655
B6 Y6 2.622913 1_555
B6 Y6 2.622913 1_655
B6 Y3 2.724410 1_554
B6 Y3 2.724410 1_654
B7 Ru3 2.375320 1_555
B7 Ru3 2.375320 1_655
B7 Y7 2.622913 1_655
B7 Y7 2.622913 1_555
B7 Y2 2.724410 1_556
B7 Y2 2.724410 1_656
B8 Ru0 2.386168 1_555
B8 Ru0 2.386168 1_655
B8 Y4 2.611489 1_555
B8 Y4 2.611489 1_655
B8 Y2 2.788146 1_655
B8 Y2 2.788146 1_555
B9 Ru1 2.386168 1_655
B9 Ru1 2.386168 1_555
B9 Y5 2.611489 1_655
B9 Y5 2.611489 1_555
B9 Y3 2.788146 1_655
B9 Y3 2.788146 1_555
B10 B14 1.721344 1_555
B10 B6 1.805412 1_555
B10 B18 1.878253 1_555
B10 Ru2 2.386168 1_555
B10 Ru2 2.386168 1_655
B10 Y6 2.611489 1_555
B10 Y6 2.611489 1_655
B10 Y0 2.788146 1_655
B10 Y0 2.788146 1_555
B11 B15 1.721344 1_555
B11 B7 1.805412 1_555
B11 B19 1.878253 1_555
B11 Ru3 2.386168 1_655
B11 Ru3 2.386168 1_555
B11 Y7 2.611489 1_655
B11 Y7 2.611489 1_555
B11 Y1 2.788146 1_555
B11 Y1 2.788146 1_655
B12 B8 1.721344 1_555
B12 B18 1.788159 1_555
B12 B20 1.794448 1_555
B12 Ru0 2.406474 1_555
B12 Ru0 2.406474 1_655
B12 Y6 2.602097 1_655
B12 Y6 2.602097 1_555
B12 Y2 2.777253 1_655
B12 Y2 2.777253 1_555
B13 B9 1.721344 1_555
B13 B19 1.788159 1_555
B13 B21 1.794448 1_555
B13 Ru1 2.406474 1_555
B13 Ru1 2.406474 1_655
B13 Y7 2.602097 1_555
B13 Y7 2.602097 1_655
B13 Y3 2.777253 1_555
B13 Y3 2.777253 1_655
B14 B16 1.788159 1_545
B14 B22 1.794448 1_555
B14 Ru2 2.406474 1_655
B14 Ru2 2.406474 1_555
B14 Y4 2.602097 1_645
B14 Y4 2.602097 1_545
B14 Y0 2.777253 1_655
B14 Y0 2.777253 1_555
B15 B17 1.788159 1_565
B15 B23 1.794448 1_555
B15 Ru3 2.406474 1_655
B15 Ru3 2.406474 1_555
B15 Y5 2.602097 1_565
B15 Y5 2.602097 1_665
B15 Y1 2.777253 1_555
B15 Y1 2.777253 1_655
B16 B2 1.791638 1_565
B16 B8 1.878253 1_555
B16 Ru2 2.341590 1_665
B16 Ru2 2.341590 1_565
B16 Y4 2.623498 1_555
B16 Y4 2.623498 1_655
B16 Y2 2.769062 1_555
B16 Y2 2.769062 1_655
B17 B3 1.791638 1_545
B17 B9 1.878253 1_555
B17 Ru3 2.341590 1_645
B17 Ru3 2.341590 1_545
B17 Y5 2.623498 1_655
B17 Y5 2.623498 1_555
B17 Y3 2.769062 1_655
B17 Y3 2.769062 1_555
B18 Ru0 2.341590 1_555
B18 Ru0 2.341590 1_655
B18 Y6 2.623498 1_555
B18 Y6 2.623498 1_655
B18 Y0 2.769062 1_655
B18 Y0 2.769062 1_555
B19 Ru1 2.341590 1_555
B19 Ru1 2.341590 1_655
B19 Y7 2.623498 1_555
B19 Y7 2.623498 1_655
B19 Y1 2.769062 1_555
B19 Y1 2.769062 1_655
B20 B7 1.819748 1_554
B20 B21 2.154089 1_554
B20 Y7 2.629434 1_554
B20 Y7 2.629434 1_654
B20 Y6 2.632743 1_555
B20 Y6 2.632743 1_655
B20 Y2 2.737827 1_655
B20 Y2 2.737827 1_555
B21 B6 1.819748 1_556
B21 Y6 2.629434 1_556
B21 Y6 2.629434 1_656
B21 Y7 2.632743 1_655
B21 Y7 2.632743 1_555
B21 Y3 2.737827 1_555
B21 Y3 2.737827 1_655
B22 B5 1.819748 1_555
B22 B23 2.154089 1_545
B22 Y5 2.629434 1_555
B22 Y5 2.629434 1_655
B22 Y4 2.632743 1_645
B22 Y4 2.632743 1_545
B22 Y0 2.737827 1_555
B22 Y0 2.737827 1_655
B23 B4 1.819748 1_555
B23 Y4 2.629434 1_655
B23 Y4 2.629434 1_555
B23 Y5 2.632743 1_565
B23 Y5 2.632743 1_665
B23 Y1 2.737827 1_555
B23 Y1 2.737827 1_655
Ru0 Y6 2.852566 1_555
Ru0 Y4 2.862072 1_555
Ru0 Y1 3.068936 1_555
Ru0 Y0 3.073984 1_555
Ru0 Y2 3.194043 1_555
Ru1 Y7 2.852566 1_555
Ru1 Y5 2.862072 1_555
Ru1 Y0 3.068936 1_555
Ru1 Y1 3.073984 1_555
Ru1 Y3 3.194043 1_555
Ru2 Y4 2.852566 1_545
Ru2 Y6 2.862072 1_555
Ru2 Y3 3.068936 1_554
Ru2 Y2 3.073984 1_545
Ru2 Y0 3.194043 1_555
Ru3 Y5 2.852566 1_565
Ru3 Y7 2.862072 1_555
Ru3 Y2 3.068936 1_556
Ru3 Y3 3.073984 1_565
Ru3 Y1 3.194043 1_555
