# generated using pymatgen
data_Sb2H8C3SCl6O5
_symmetry_space_group_name_H-M   'P 1'
_cell_length_a   33.27772900
_cell_length_b   6.55386600
_cell_length_c   9.03519267
_cell_angle_alpha   68.60092662
_cell_angle_beta   90.00000000
_cell_angle_gamma   90.00000000
_symmetry_Int_Tables_number   1
_chemical_formula_structural   Sb2H8C3SCl6O5
_chemical_formula_sum   'Sb8 H32 C12 S4 Cl24 O20'
_cell_volume   1834.70872467
_cell_formula_units_Z   4
loop_
 _symmetry_equiv_pos_site_id
 _symmetry_equiv_pos_as_xyz
  1  'x, y, z'
loop_
 _atom_site_type_symbol
 _atom_site_label
 _atom_site_symmetry_multiplicity
 _atom_site_fract_x
 _atom_site_fract_y
 _atom_site_fract_z
 _atom_site_occupancy
  Sb  Sb0  1  0.10524500  0.46664400  0.41802900  1
  Sb  Sb1  1  0.60524500  0.53335600  0.08197100  1
  Sb  Sb2  1  0.89475500  0.53335600  0.58197100  1
  Sb  Sb3  1  0.39475500  0.46664400  0.91802900  1
  Sb  Sb4  1  0.17037200  0.33902500  0.69969600  1
  Sb  Sb5  1  0.67037200  0.66097500  0.80030400  1
  Sb  Sb6  1  0.82962800  0.66097500  0.30030400  1
  Sb  Sb7  1  0.32962800  0.33902500  0.19969600  1
  H  H0  1  0.08573000  0.75704000  0.75098800  1
  H  H1  1  0.58573000  0.24296000  0.74901200  1
  H  H2  1  0.91427000  0.24296000  0.24901200  1
  H  H3  1  0.41427000  0.75704000  0.25098800  1
  H  H4  1  0.07647100  0.74234700  0.95006400  1
  H  H5  1  0.57647100  0.25765300  0.54993600  1
  H  H6  1  0.92352900  0.25765300  0.04993600  1
  H  H7  1  0.42352900  0.74234700  0.45006400  1
  H  H8  1  0.00354500  0.83187200  0.88810400  1
  H  H9  1  0.50354500  0.16812800  0.61189600  1
  H  H10  1  0.99645500  0.16812800  0.11189600  1
  H  H11  1  0.49645500  0.83187200  0.38810400  1
  H  H12  1  0.01756900  0.60882200  0.83057900  1
  H  H13  1  0.51756900  0.39117800  0.66942100  1
  H  H14  1  0.98243100  0.39117800  0.16942100  1
  H  H15  1  0.48243100  0.60882200  0.33057900  1
  H  H16  1  0.01173100  0.87374100  0.68345200  1
  H  H17  1  0.51173100  0.12625900  0.81654800  1
  H  H18  1  0.98826900  0.12625900  0.31654800  1
  H  H19  1  0.48826900  0.87374100  0.18345200  1
  H  H20  1  0.19450400  0.33123100  0.29514000  1
  H  H21  1  0.69450400  0.66876900  0.20486000  1
  H  H22  1  0.80549600  0.66876900  0.70486000  1
  H  H23  1  0.30549600  0.33123100  0.79514000  1
  H  H24  1  0.16777000  0.07241000  0.35861800  1
  H  H25  1  0.66777000  0.92759000  0.14138200  1
  H  H26  1  0.83223000  0.92759000  0.64138200  1
  H  H27  1  0.33223000  0.07241000  0.85861800  1
  H  H28  1  0.20941800  0.10906500  0.47245700  1
  H  H29  1  0.70941800  0.89093500  0.02754300  1
  H  H30  1  0.79058200  0.89093500  0.52754300  1
  H  H31  1  0.29058200  0.10906500  0.97245700  1
  C  C0  1  0.18389800  0.19023900  0.39714200  1
  C  C1  1  0.68389800  0.80976100  0.10285800  1
  C  C2  1  0.81610200  0.80976100  0.60285800  1
  C  C3  1  0.31610200  0.19023900  0.89714200  1
  C  C4  1  0.06668500  0.81810500  0.82530600  1
  C  C5  1  0.56668500  0.18189500  0.67469400  1
  C  C6  1  0.93331500  0.18189500  0.17469400  1
  C  C7  1  0.43331500  0.81810500  0.32530600  1
  C  C8  1  0.02208600  0.78424500  0.80546100  1
  C  C9  1  0.52208600  0.21575500  0.69453900  1
  C  C10  1  0.97791400  0.21575500  0.19453900  1
  C  C11  1  0.47791400  0.78424500  0.30546100  1
  S  S0  1  0.07974200  0.10040400  0.77398100  1
  S  S1  1  0.57974300  0.89959600  0.72601900  1
  S  S2  1  0.92025800  0.89959600  0.22601900  1
  S  S3  1  0.42025800  0.10040400  0.27398100  1
  Cl  Cl0  1  0.14281200  0.73813400  0.22097200  1
  Cl  Cl1  1  0.64281200  0.26186600  0.27902800  1
  Cl  Cl2  1  0.85718800  0.26186600  0.77902800  1
  Cl  Cl3  1  0.35718800  0.73813400  0.72097200  1
  Cl  Cl4  1  0.08688300  0.28624800  0.24620900  1
  Cl  Cl5  1  0.58688300  0.71375200  0.25379100  1
  Cl  Cl6  1  0.91311700  0.71375200  0.75379100  1
  Cl  Cl7  1  0.41311700  0.28624800  0.74620900  1
  Cl  Cl8  1  0.04724700  0.67886900  0.38673900  1
  Cl  Cl9  1  0.54724700  0.32113100  0.11326100  1
  Cl  Cl10  1  0.95275300  0.32113100  0.61326100  1
  Cl  Cl11  1  0.45275300  0.67886900  0.88673900  1
  Cl  Cl12  1  0.22272000  0.57805900  0.56601600  1
  Cl  Cl13  1  0.72272000  0.42194100  0.93398400  1
  Cl  Cl14  1  0.77728000  0.42194100  0.43398400  1
  Cl  Cl15  1  0.27728000  0.57805900  0.06601600  1
  Cl  Cl16  1  0.17078300  0.43756700  0.92327300  1
  Cl  Cl17  1  0.67078300  0.56243300  0.57672700  1
  Cl  Cl18  1  0.82921700  0.56243300  0.07672700  1
  Cl  Cl19  1  0.32921700  0.43756700  0.42327300  1
  Cl  Cl20  1  0.21327000  0.03320400  0.79771000  1
  Cl  Cl21  1  0.71327000  0.96679600  0.70229000  1
  Cl  Cl22  1  0.78673000  0.96679600  0.20229000  1
  Cl  Cl23  1  0.28673000  0.03320400  0.29771000  1
  O  O0  1  0.12531400  0.53974400  0.59953300  1
  O  O1  1  0.62531400  0.46025600  0.90046700  1
  O  O2  1  0.87468600  0.46025600  0.40046700  1
  O  O3  1  0.37468600  0.53974400  0.09953300  1
  O  O4  1  0.12459600  0.09505400  0.80993500  1
  O  O5  1  0.62459600  0.90494600  0.69006500  1
  O  O6  1  0.87540400  0.90494600  0.19006500  1
  O  O7  1  0.37540400  0.09505400  0.30993500  1
  O  O8  1  0.07392500  0.19892000  0.59434200  1
  O  O9  1  0.57392500  0.80108000  0.90565800  1
  O  O10  1  0.92607500  0.80108000  0.40565800  1
  O  O11  1  0.42607500  0.19892000  0.09434200  1
  O  O12  1  0.15672300  0.26177000  0.49479600  1
  O  O13  1  0.65672300  0.73823000  0.00520400  1
  O  O14  1  0.84327700  0.73823000  0.50520400  1
  O  O15  1  0.34327700  0.26177000  0.99479600  1
  O  O16  1  0.05554100  0.19926200  0.86147200  1
  O  O17  1  0.55554100  0.80073800  0.63852800  1
  O  O18  1  0.94445900  0.80073800  0.13852800  1
  O  O19  1  0.44445900  0.19926200  0.36147200  1
loop_
_geom_bond_atom_site_label_1
_geom_bond_atom_site_label_2
_geom_bond_distance
_geom_bond_site_symmetry_2
C0 H24 1.096219 1_555
C0 H28 1.096875 1_555
C0 H20 1.098339 1_555
C0 O12 1.455304 1_555
C1 H25 1.096219 1_555
C1 H29 1.096875 1_555
C1 H21 1.098339 1_555
C1 O13 1.455304 1_555
C2 H26 1.096219 1_555
C2 H30 1.096875 1_555
C2 H22 1.098339 1_555
C2 O14 1.455304 1_555
C3 H27 1.096219 1_555
C3 H31 1.096875 1_555
C3 H23 1.098339 1_555
C3 O15 1.455304 1_555
C4 H0 1.099465 1_555
C4 H4 1.102169 1_555
C5 H1 1.099465 1_555
C5 H5 1.102169 1_555
C6 H2 1.099465 1_555
C6 H6 1.102169 1_555
C7 H3 1.099465 1_555
C7 H7 1.102169 1_555
C8 H12 1.097956 1_555
C8 H8 1.098070 1_555
C8 H16 1.098260 1_555
C9 H13 1.097956 1_555
C9 H9 1.098070 1_555
C9 H17 1.098260 1_555
C10 H14 1.097956 1_555
C10 H10 1.098070 1_555
C10 H18 1.098260 1_555
C11 H15 1.097956 1_555
C11 H11 1.098070 1_555
C11 H19 1.098260 1_555
Cl0 Sb0 2.363696 1_555
Cl1 Sb1 2.363696 1_555
Cl2 Sb2 2.363696 1_555
Cl3 Sb3 2.363696 1_555
Cl4 Sb0 2.349589 1_555
Cl5 Sb1 2.349589 1_555
Cl6 Sb2 2.349589 1_555
Cl7 Sb3 2.349589 1_555
Cl8 Sb0 2.335087 1_555
Cl9 Sb1 2.335087 1_555
Cl10 Sb2 2.335087 1_555
Cl11 Sb3 2.335087 1_555
Cl12 Sb4 2.359437 1_555
Cl13 Sb5 2.359437 1_555
Cl14 Sb6 2.359437 1_555
Cl15 Sb7 2.359437 1_555
Cl16 Sb4 2.334511 1_555
Cl17 Sb5 2.334511 1_555
Cl18 Sb6 2.334511 1_555
Cl19 Sb7 2.334511 1_555
Cl20 Sb4 2.354604 1_555
Cl21 Sb5 2.354604 1_555
Cl22 Sb6 2.354604 1_555
Cl23 Sb7 2.354604 1_555
O0 Sb4 1.982185 1_555
O0 Sb0 1.984495 1_555
O1 Sb5 1.982185 1_555
O1 Sb1 1.984495 1_556
O2 Sb6 1.982185 1_555
O2 Sb2 1.984495 1_555
O3 Sb7 1.982185 1_555
O3 Sb3 1.984495 1_554
O4 S0 1.525260 1_555
O4 Sb4 2.169579 1_555
O5 S1 1.525227 1_555
O5 Sb5 2.169579 1_555
O6 S2 1.525260 1_555
O6 Sb6 2.169579 1_555
O7 S3 1.525260 1_555
O7 Sb7 2.169579 1_555
O8 S0 1.524467 1_555
O8 Sb0 2.159408 1_555
O9 S1 1.524471 1_555
O9 Sb1 2.159408 1_556
O10 S2 1.524467 1_555
O10 Sb2 2.159408 1_555
O11 S3 1.524467 1_555
O11 Sb3 2.159408 1_554
O12 Sb0 2.130490 1_555
O12 Sb4 2.138697 1_555
O13 Sb1 2.130490 1_555
O13 Sb5 2.138697 1_554
O14 Sb2 2.130490 1_555
O14 Sb6 2.138697 1_555
O15 Sb3 2.130490 1_555
O15 Sb7 2.138697 1_556
O16 S0 1.437706 1_555
O17 S1 1.437725 1_555
O18 S2 1.437706 1_555
O19 S3 1.437706 1_555
