# generated using pymatgen
data_Pr8Ni4O17
_symmetry_space_group_name_H-M   'P 1'
_cell_length_a   5.89132302
_cell_length_b   5.81395701
_cell_length_c   12.41609744
_cell_angle_alpha   87.66426505
_cell_angle_beta   91.60410709
_cell_angle_gamma   89.10555217
_symmetry_Int_Tables_number   1
_chemical_formula_structural   Pr8Ni4O17
_chemical_formula_sum   'Pr8 Ni4 O17'
_cell_volume   424.69531532
_cell_formula_units_Z   1
loop_
 _symmetry_equiv_pos_site_id
 _symmetry_equiv_pos_as_xyz
  1  'x, y, z'
loop_
 _atom_site_type_symbol
 _atom_site_label
 _atom_site_symmetry_multiplicity
 _atom_site_fract_x
 _atom_site_fract_y
 _atom_site_fract_z
 _atom_site_occupancy
  Pr  Pr0  1  0.03917100  0.99233500  0.33901000  1
  Pr  Pr1  1  0.92730200  0.50542000  0.16529200  1
  Pr  Pr2  1  0.99171200  0.42897000  0.86402300  1
  Pr  Pr3  1  0.50989500  0.44983100  0.35812800  1
  Pr  Pr4  1  0.47095100  0.48022900  0.63601200  1
  Pr  Pr5  1  0.47649600  0.02865200  0.14173600  1
  Pr  Pr6  1  0.54611500  0.94580300  0.86158000  1
  Pr  Pr7  1  0.01976600  0.04048500  0.63368700  1
  Ni  Ni0  1  0.03901100  0.93078100  0.98275200  1
  Ni  Ni1  1  0.98781100  0.52490400  0.51815400  1
  Ni  Ni2  1  0.50524800  0.99323000  0.54130900  1
  Ni  Ni3  1  0.51607000  0.46174100  0.96240900  1
  O  O0  1  0.08026100  0.44536600  0.67931200  1
  O  O1  1  0.29117600  0.18869000  0.96522300  1
  O  O2  1  0.20310700  0.26813700  0.47879500  1
  O  O3  1  0.26819200  0.68749200  0.93117000  1
  O  O4  1  0.27537000  0.77030900  0.50562900  1
  O  O5  1  0.25187900  0.27615300  0.23940000  1
  O  O6  1  0.41139400  0.05630800  0.69186700  1
  O  O7  1  0.60737200  0.52749000  0.80637100  1
  O  O8  1  0.58284800  0.67402200  0.20859100  1
  O  O9  1  0.73436400  0.18739800  0.27026800  1
  O  O10  1  0.78711900  0.69963000  0.98840700  1
  O  O11  1  0.75599800  0.75849200  0.57712300  1
  O  O12  1  0.71511700  0.25579700  0.52818500  1
  O  O13  1  0.73904300  0.23962500  0.01827100  1
  O  O14  1  0.10728100  0.85992100  0.14772600  1
  O  O15  1  0.92432200  0.03760800  0.81941600  1
  O  O16  1  0.90260900  0.61818000  0.36625500  1
loop_
_geom_bond_atom_site_label_1
_geom_bond_atom_site_label_2
_geom_bond_distance
_geom_bond_site_symmetry_2
Ni0 O10 2.018315 1_455
Ni0 O3 2.072803 1_555
Ni0 O14 2.099304 1_556
Ni0 O1 2.136304 1_565
Ni0 O15 2.182329 1_465
Ni0 O13 2.559457 1_466
Ni1 O16 1.989510 1_555
Ni1 O2 2.027608 1_655
Ni1 O11 2.079577 1_555
Ni1 O0 2.090455 1_655
Ni1 O4 2.236511 1_655
Ni1 O12 2.262330 1_555
Ni2 O4 1.943735 1_555
Ni2 O12 1.983822 1_565
Ni2 O6 2.010492 1_565
Ni2 O11 2.023208 1_555
Ni2 O2 2.461332 1_565
Ni3 O13 1.922834 1_556
Ni3 O3 1.967900 1_555
Ni3 O7 2.047755 1_555
Ni3 O1 2.083401 1_555
Ni3 O10 2.154871 1_555
O0 Pr2 2.364652 1_455
O0 Pr4 2.388057 1_555
O0 Pr7 2.472374 1_555
O1 Pr6 2.469004 1_545
O1 Pr2 2.509735 1_455
O1 Pr5 2.555183 1_556
O2 Pr7 2.563288 1_555
O2 Pr0 2.587969 1_545
O2 Pr3 2.590251 1_555
O2 Pr4 2.811645 1_555
O3 Pr2 2.389523 1_455
O3 Pr6 2.394381 1_555
O4 Pr4 2.530808 1_555
O4 Pr0 2.729006 1_555
O4 Pr7 2.743495 1_565
O4 Pr3 3.012322 1_555
O5 Pr5 2.337677 1_555
O5 Pr3 2.355219 1_555
O5 Pr0 2.409930 1_545
O5 Pr1 2.449858 1_455
O6 Pr6 2.294119 1_545
O6 Pr7 2.402544 1_555
O6 Pr4 2.565131 1_555
O7 Pr4 2.270368 1_555
O7 Pr2 2.408889 1_555
O7 Pr6 2.576304 1_555
O8 Pr5 2.263555 1_565
O8 Pr3 2.279426 1_555
O8 Pr1 2.325907 1_555
O9 Pr0 2.238513 1_645
O9 Pr3 2.328140 1_555
O9 Pr5 2.394708 1_555
O9 Pr1 2.522227 1_555
O10 Pr6 2.484294 1_555
O10 Pr1 2.539208 1_556
O10 Pr2 2.560700 1_555
O11 Pr7 2.389185 1_665
O11 Pr4 2.455428 1_555
O12 Pr4 2.399112 1_555
O12 Pr7 2.483700 1_655
O12 Pr3 2.610156 1_555
O13 Pr5 2.507113 1_555
O13 Pr1 2.668404 1_555
O13 Pr2 2.671031 1_554
O13 Pr6 2.864034 1_544
O14 Pr1 2.337587 1_455
O14 Pr5 2.401865 1_565
O14 Pr0 2.566524 1_555
O15 Pr6 2.367112 1_545
O15 Pr7 2.388298 1_655
O15 Pr2 2.400052 1_555
O16 Pr0 2.345980 1_655
O16 Pr3 2.527178 1_555
O16 Pr1 2.612955 1_555
