# generated using pymatgen
data_SmCrO3
_symmetry_space_group_name_H-M   'P 1'
_cell_length_a   5.35209304
_cell_length_b   5.54722294
_cell_length_c   7.65437822
_cell_angle_alpha   90.00000000
_cell_angle_beta   90.00000000
_cell_angle_gamma   90.00000000
_symmetry_Int_Tables_number   1
_chemical_formula_structural   SmCrO3
_chemical_formula_sum   'Sm4 Cr4 O12'
_cell_volume   227.25277374
_cell_formula_units_Z   4
loop_
 _symmetry_equiv_pos_site_id
 _symmetry_equiv_pos_as_xyz
  1  'x, y, z'
loop_
 _atom_site_type_symbol
 _atom_site_label
 _atom_site_symmetry_multiplicity
 _atom_site_fract_x
 _atom_site_fract_y
 _atom_site_fract_z
 _atom_site_occupancy
  Sm  Sm0  1  0.51437101  0.55798237  0.25000000  1
  Sm  Sm1  1  0.98562899  0.05798237  0.25000000  1
  Sm  Sm2  1  0.48562899  0.44201763  0.75000000  1
  Sm  Sm3  1  0.01437101  0.94201763  0.75000000  1
  Cr  Cr0  1  -0.00000000  0.50000000  -0.00000000  1
  Cr  Cr1  1  0.50000000  0.00000000  0.50000000  1
  Cr  Cr2  1  -0.00000000  0.50000000  0.50000000  1
  Cr  Cr3  1  0.50000000  0.00000000  -0.00000000  1
  O  O0  1  0.40735057  0.97404646  0.25000000  1
  O  O1  1  0.09264943  0.47404646  0.25000000  1
  O  O2  1  0.59264943  0.02595354  0.75000000  1
  O  O3  1  0.90735057  0.52595354  0.75000000  1
  O  O4  1  0.79857044  0.79621972  0.04862124  1
  O  O5  1  0.70142956  0.29621972  0.45137876  1
  O  O6  1  0.20142956  0.20378028  0.54862124  1
  O  O7  1  0.29857044  0.70378028  0.95137876  1
  O  O8  1  0.20142956  0.20378028  0.95137876  1
  O  O9  1  0.29857044  0.70378028  0.54862124  1
  O  O10  1  0.79857044  0.79621972  0.45137876  1
  O  O11  1  0.70142956  0.29621972  0.04862124  1
loop_
_geom_bond_atom_site_label_1
_geom_bond_atom_site_label_2
_geom_bond_distance
_geom_bond_site_symmetry_2
Cr0 O1 1.982034 1_555
Cr0 O3 1.982034 1_454
Cr0 O11 1.992454 1_455
Cr0 O7 1.992454 1_554
Cr0 O4 2.000209 1_455
Cr0 O8 2.000209 1_554
Cr1 O0 1.982034 1_545
Cr1 O2 1.982034 1_555
Cr1 O6 1.992454 1_555
Cr1 O10 1.992454 1_545
Cr1 O9 2.000209 1_545
Cr1 O5 2.000209 1_555
Cr2 O1 1.982034 1_555
Cr2 O3 1.982034 1_455
Cr2 O5 1.992454 1_455
Cr2 O9 1.992454 1_555
Cr2 O10 2.000209 1_455
Cr2 O6 2.000209 1_555
Cr3 O0 1.982034 1_545
Cr3 O2 1.982034 1_554
Cr3 O8 1.992454 1_554
Cr3 O4 1.992454 1_545
Cr3 O7 2.000209 1_544
Cr3 O11 2.000209 1_555
O0 Sm1 2.304618 1_465
O0 Sm0 2.378013 1_555
O1 Sm0 2.304618 1_555
O1 Sm1 2.378013 1_455
O2 Sm3 2.304618 1_645
O2 Sm2 2.378013 1_555
O3 Sm2 2.304618 1_555
O3 Sm3 2.378013 1_655
O4 Sm1 2.342388 1_565
O4 Sm0 2.536955 1_555
O4 Sm3 2.685666 1_654
O5 Sm0 2.342388 1_555
O5 Sm1 2.536955 1_555
O5 Sm2 2.685666 1_555
O6 Sm3 2.342388 1_545
O6 Sm2 2.536955 1_555
O6 Sm1 2.685666 1_455
O7 Sm2 2.342388 1_555
O7 Sm3 2.536955 1_555
O7 Sm0 2.685666 1_556
O8 Sm3 2.342388 1_545
O8 Sm2 2.536955 1_555
O8 Sm1 2.685666 1_456
O9 Sm2 2.342388 1_555
O9 Sm3 2.536955 1_555
O9 Sm0 2.685666 1_555
O10 Sm1 2.342388 1_565
O10 Sm0 2.536955 1_555
O10 Sm3 2.685666 1_655
O11 Sm0 2.342388 1_555
O11 Sm1 2.536955 1_555
O11 Sm2 2.685666 1_554
