# generated using pymatgen
data_MgSi4WO10
_symmetry_space_group_name_H-M   'P 1'
_cell_length_a   7.45285300
_cell_length_b   7.45285300
_cell_length_c   15.01101700
_cell_angle_alpha   90.00000000
_cell_angle_beta   90.00000000
_cell_angle_gamma   90.00000000
_symmetry_Int_Tables_number   1
_chemical_formula_structural   MgSi4WO10
_chemical_formula_sum   'Mg4 Si16 W4 O40'
_cell_volume   833.78720706
_cell_formula_units_Z   4
loop_
 _symmetry_equiv_pos_site_id
 _symmetry_equiv_pos_as_xyz
  1  'x, y, z'
loop_
 _atom_site_type_symbol
 _atom_site_label
 _atom_site_symmetry_multiplicity
 _atom_site_fract_x
 _atom_site_fract_y
 _atom_site_fract_z
 _atom_site_occupancy
  Mg  Mg0  1  0.25000000  0.75000000  0.50000000  1
  Mg  Mg1  1  0.75000000  0.25000000  0.50000000  1
  Mg  Mg2  1  0.75000000  0.25000000  0.00000000  1
  Mg  Mg3  1  0.25000000  0.75000000  0.00000000  1
  Si  Si0  1  0.90262200  0.49140600  0.64673000  1
  Si  Si1  1  0.59737800  0.00859400  0.64673000  1
  Si  Si2  1  0.99140600  0.40262200  0.85327000  1
  Si  Si3  1  0.49140600  0.59737800  0.64673000  1
  Si  Si4  1  0.00859400  0.90262200  0.64673000  1
  Si  Si5  1  0.09737800  0.99140600  0.85327000  1
  Si  Si6  1  0.40262200  0.50859400  0.85327000  1
  Si  Si7  1  0.50859400  0.09737800  0.85327000  1
  Si  Si8  1  0.09737800  0.50859400  0.35327000  1
  Si  Si9  1  0.40262200  0.99140600  0.35327000  1
  Si  Si10  1  0.00859400  0.59737800  0.14673000  1
  Si  Si11  1  0.50859400  0.40262200  0.35327000  1
  Si  Si12  1  0.99140600  0.09737800  0.35327000  1
  Si  Si13  1  0.90262200  0.00859400  0.14673000  1
  Si  Si14  1  0.59737800  0.49140600  0.14673000  1
  Si  Si15  1  0.49140600  0.90262200  0.14673000  1
  W  W0  1  0.25000000  0.25000000  0.57395000  1
  W  W1  1  0.75000000  0.75000000  0.92605000  1
  W  W2  1  0.75000000  0.75000000  0.42605000  1
  W  W3  1  0.25000000  0.25000000  0.07395000  1
  O  O0  1  0.96834500  0.34146500  0.57540900  1
  O  O1  1  0.53165500  0.15853500  0.57540900  1
  O  O2  1  0.84146500  0.46834500  0.92459100  1
  O  O3  1  0.34146500  0.53165500  0.57540900  1
  O  O4  1  0.15853500  0.96834500  0.57540900  1
  O  O5  1  0.03165500  0.84146500  0.92459100  1
  O  O6  1  0.46834500  0.65853500  0.92459100  1
  O  O7  1  0.65853500  0.03165500  0.92459100  1
  O  O8  1  0.03165500  0.65853500  0.42459100  1
  O  O9  1  0.46834500  0.84146500  0.42459100  1
  O  O10  1  0.15853500  0.53165500  0.07540900  1
  O  O11  1  0.65853500  0.46834500  0.42459100  1
  O  O12  1  0.84146500  0.03165500  0.42459100  1
  O  O13  1  0.96834500  0.15853500  0.07540900  1
  O  O14  1  0.53165500  0.34146500  0.07540900  1
  O  O15  1  0.00595400  0.31327900  0.37123600  1
  O  O16  1  0.34146500  0.96834500  0.07540900  1
  O  O17  1  0.50595400  0.81327900  0.62876400  1
  O  O18  1  0.18672100  0.49404600  0.87123600  1
  O  O19  1  0.68672100  0.50595400  0.62876400  1
  O  O20  1  0.81327900  0.99404600  0.62876400  1
  O  O21  1  0.00595400  0.18672100  0.87123600  1
  O  O22  1  0.49404600  0.31327900  0.87123600  1
  O  O23  1  0.31327900  0.00595400  0.87123600  1
  O  O24  1  0.43844700  0.93844700  0.25000000  1
  O  O25  1  0.56155300  0.43844700  0.25000000  1
  O  O26  1  0.93844700  0.06155400  0.25000000  1
  O  O27  1  0.06155400  0.56155300  0.25000000  1
  O  O28  1  0.56155300  0.06155400  0.75000000  1
  O  O29  1  0.43844700  0.56155300  0.75000000  1
  O  O30  1  0.06155400  0.93844700  0.75000000  1
  O  O31  1  0.93844700  0.43844700  0.75000000  1
  O  O32  1  0.68672100  0.99404600  0.12876400  1
  O  O33  1  0.50595400  0.68672100  0.12876400  1
  O  O34  1  0.99404600  0.81327900  0.12876400  1
  O  O35  1  0.18672100  0.00595400  0.37123600  1
  O  O36  1  0.31327900  0.49404600  0.37123600  1
  O  O37  1  0.81327900  0.50595400  0.12876400  1
  O  O38  1  0.49404600  0.18672100  0.37123600  1
  O  O39  1  0.99404600  0.68672100  0.62876400  1
loop_
_geom_bond_atom_site_label_1
_geom_bond_atom_site_label_2
_geom_bond_distance
_geom_bond_site_symmetry_2
Mg0 O4 2.096213 1_555
Mg0 O3 2.096213 1_555
Mg0 O9 2.096213 1_555
Mg0 O8 2.096213 1_555
Mg1 O0 2.096213 1_555
Mg1 O1 2.096213 1_555
Mg1 O12 2.096213 1_555
Mg1 O11 2.096213 1_555
Mg2 O7 2.096213 1_554
Mg2 O2 2.096213 1_554
Mg2 O14 2.096213 1_555
Mg2 O13 2.096213 1_555
Mg3 O6 2.096213 1_554
Mg3 O5 2.096213 1_554
Mg3 O16 2.096213 1_555
Mg3 O10 2.096213 1_555
O0 Si0 1.623235 1_555
O0 W0 2.207152 1_655
O1 Si1 1.623235 1_555
O1 W0 2.207152 1_555
O2 Si2 1.623235 1_555
O2 W1 2.207152 1_555
O3 Si3 1.623235 1_555
O3 W0 2.207152 1_555
O4 Si4 1.623235 1_555
O4 W0 2.207152 1_565
O5 Si5 1.623235 1_555
O5 W1 2.207152 1_455
O6 Si6 1.623235 1_555
O6 W1 2.207152 1_555
O7 Si7 1.623235 1_555
O7 W1 2.207152 1_545
O8 Si8 1.623235 1_555
O8 W2 2.207152 1_455
O9 Si9 1.623235 1_555
O9 W2 2.207152 1_555
O10 Si10 1.623235 1_555
O10 W3 2.207152 1_555
O11 Si11 1.623235 1_555
O11 W2 2.207152 1_555
O12 Si12 1.623235 1_555
O12 W2 2.207152 1_545
O13 Si13 1.623235 1_555
O13 W3 2.207152 1_655
O14 Si14 1.623235 1_555
O14 W3 2.207152 1_555
O15 Si8 1.629701 1_555
O15 Si12 1.635121 1_455
O16 Si15 1.623235 1_555
O16 W3 2.207152 1_565
O17 Si1 1.629701 1_565
O17 Si3 1.635121 1_555
O18 Si2 1.629701 1_455
O18 Si6 1.635121 1_555
O19 Si3 1.629701 1_555
O19 Si0 1.635121 1_555
O20 Si4 1.629701 1_655
O20 Si1 1.635121 1_565
O21 Si5 1.629701 1_545
O21 Si2 1.635121 1_455
O22 Si6 1.629701 1_555
O22 Si7 1.635121 1_555
O23 Si7 1.629701 1_555
O23 Si5 1.635121 1_545
O24 Si9 1.621775 1_555
O24 Si15 1.621775 1_555
O25 Si11 1.621775 1_555
O25 Si14 1.621775 1_555
O26 Si12 1.621774 1_555
O26 Si13 1.621777 1_555
O27 Si8 1.621774 1_555
O27 Si10 1.621777 1_555
O28 Si7 1.621774 1_555
O28 Si1 1.621777 1_555
O29 Si6 1.621775 1_555
O29 Si3 1.621775 1_555
O30 Si5 1.621774 1_555
O30 Si4 1.621777 1_555
O31 Si2 1.621775 1_555
O31 Si0 1.621775 1_555
O32 Si15 1.629701 1_555
O32 Si13 1.635121 1_565
O33 Si14 1.629701 1_555
O33 Si15 1.635121 1_555
O34 Si13 1.629701 1_565
O34 Si10 1.635121 1_655
O35 Si12 1.629701 1_455
O35 Si9 1.635121 1_545
O36 Si11 1.629701 1_555
O36 Si8 1.635121 1_555
O37 Si10 1.629701 1_655
O37 Si14 1.635121 1_555
O38 Si9 1.629701 1_545
O38 Si11 1.635121 1_555
O39 Si0 1.629701 1_555
O39 Si4 1.635121 1_655
