# generated using pymatgen
data_Sr8MgP4(IO4)4
_symmetry_space_group_name_H-M   'P 1'
_cell_length_a   9.19229924
_cell_length_b   8.90432056
_cell_length_c   9.79479831
_cell_angle_alpha   89.08099209
_cell_angle_beta   116.21036982
_cell_angle_gamma   91.29022937
_symmetry_Int_Tables_number   1
_chemical_formula_structural   Sr8MgP4(IO4)4
_chemical_formula_sum   'Sr8 Mg1 P4 I4 O16'
_cell_volume   719.08316762
_cell_formula_units_Z   1
loop_
 _symmetry_equiv_pos_site_id
 _symmetry_equiv_pos_as_xyz
  1  'x, y, z'
loop_
 _atom_site_type_symbol
 _atom_site_label
 _atom_site_symmetry_multiplicity
 _atom_site_fract_x
 _atom_site_fract_y
 _atom_site_fract_z
 _atom_site_occupancy
  Sr  Sr0  1  0.96312169  0.80334829  0.84408361  1
  Sr  Sr1  1  0.47323093  0.34586036  0.29427120  1
  Sr  Sr2  1  0.03981442  0.17948842  0.11454686  1
  Sr  Sr3  1  0.46113122  0.68066169  0.87785238  1
  Sr  Sr4  1  0.48389740  0.84961397  0.24140977  1
  Sr  Sr5  1  0.04237017  0.32636120  0.74635440  1
  Sr  Sr6  1  0.51335380  0.15988786  0.75909404  1
  Sr  Sr7  1  0.96398173  0.66648787  0.22492438  1
  Mg  Mg0  1  0.70123072  0.30200393  0.14278421  1
  P  P0  1  0.23126143  0.56058654  0.04031152  1
  P  P1  1  0.26734038  0.06250890  0.96241956  1
  P  P2  1  0.77064369  0.44939944  0.92102158  1
  P  P3  1  0.73851138  0.93822662  0.02712409  1
  I  I0  1  0.22009154  0.36510866  0.48077336  1
  I  I1  1  0.27414251  0.86634109  0.48942157  1
  I  I2  1  0.79317514  0.61688038  0.49994210  1
  I  I3  1  0.71352573  0.07863000  0.53954705  1
  O  O0  1  0.17116674  0.58031009  0.86439770  1
  O  O1  1  0.33717754  0.09770491  0.13773901  1
  O  O2  1  0.87671464  0.41471093  0.09693333  1
  O  O3  1  0.62288286  0.90621890  0.85826411  1
  O  O4  1  0.78385875  0.61867721  0.89540364  1
  O  O5  1  0.73230382  0.11064482  0.04946705  1
  O  O6  1  0.19832331  0.39567525  0.07318534  1
  O  O7  1  0.31274872  0.89849259  0.94887724  1
  O  O8  1  0.31878646  0.17624495  0.87031679  1
  O  O9  1  0.14742479  0.67538788  0.09794752  1
  O  O10  1  0.68828136  0.83388342  0.12887789  1
  O  O11  1  0.82510200  0.34154399  0.83146802  1
  O  O12  1  0.91918477  0.90642716  0.06755178  1
  O  O13  1  0.59115644  0.41146437  0.89017193  1
  O  O14  1  0.07735759  0.07524672  0.89543793  1
  O  O15  1  0.41858134  0.59168559  0.12379304  1
loop_
_geom_bond_atom_site_label_1
_geom_bond_atom_site_label_2
_geom_bond_distance
_geom_bond_site_symmetry_2
Mg0 O5 2.030485 1_555
Mg0 O2 2.088904 1_555
Mg0 O13 2.418976 1_554
Mg0 Sr1 3.090161 1_555
I0 Sr6 3.407111 1_555
I0 Sr1 3.544551 1_555
I0 Sr2 3.627851 1_555
I0 Sr5 3.640668 1_555
I0 Sr7 3.725772 1_455
I1 Sr7 3.376693 1_455
I1 Sr6 3.671010 1_565
I1 Sr4 3.715235 1_555
I1 Sr3 3.783198 1_555
I2 Sr0 3.459880 1_555
I2 Sr4 3.539372 1_555
I2 Sr5 3.598232 1_655
I2 Sr1 3.624146 1_555
I2 Sr7 3.685544 1_555
I3 Sr1 3.417389 1_555
I3 Sr4 3.419626 1_545
I3 Sr6 3.484059 1_555
I3 Sr5 3.541310 1_655
I3 Sr0 3.760764 1_545
O0 P0 1.568040 1_556
O0 Sr5 2.570188 1_555
O0 Sr0 2.731915 1_455
O0 Sr3 2.739822 1_555
O1 P1 1.579112 1_554
O1 Sr4 2.565657 1_545
O1 Sr1 2.662298 1_555
O1 Sr2 2.754906 1_555
O2 P2 1.589773 1_554
O2 Sr7 2.522319 1_555
O2 Sr2 2.562384 1_655
O3 P3 1.547617 1_556
O3 Sr6 2.495459 1_565
O3 Sr3 2.527162 1_555
O4 P2 1.535002 1_555
O4 Sr0 2.501029 1_555
O4 Sr7 2.937990 1_556
O4 Sr3 2.958909 1_555
O5 P3 1.560111 1_545
O5 Sr2 2.667460 1_655
O5 Sr6 2.697308 1_554
O6 P0 1.550015 1_555
O6 Sr2 2.522473 1_555
O6 Sr1 2.541223 1_555
O6 Sr5 2.941722 1_554
O7 P1 1.551555 1_565
O7 Sr4 2.623618 1_556
O7 Sr3 2.665932 1_555
O8 P1 1.545671 1_555
O8 Sr6 2.478862 1_555
O8 Sr5 2.663237 1_555
O9 P0 1.547851 1_555
O9 Sr7 2.497992 1_455
O9 Sr0 2.574147 1_454
O9 Sr4 3.156322 1_555
O10 P3 1.557958 1_555
O10 Sr4 2.571049 1_555
O10 Sr7 2.747476 1_555
O10 Sr3 2.776875 1_554
O11 P2 1.542363 1_555
O11 Sr5 2.487690 1_655
O11 Sr2 2.971778 1_656
O11 Sr6 3.060168 1_555
O12 P3 1.559456 1_555
O12 Sr7 2.546269 1_555
O12 Sr0 2.580417 1_554
O12 Sr2 2.610920 1_665
O13 P2 1.570150 1_555
O13 Sr6 2.527249 1_555
O13 Sr3 2.679773 1_555
O14 P1 1.577208 1_555
O14 Sr2 2.513780 1_556
O14 Sr0 2.583657 1_445
O14 Sr5 2.597741 1_555
O15 P0 1.565985 1_555
O15 Sr4 2.524712 1_555
O15 Sr1 2.650133 1_555
O15 Sr3 2.709387 1_554
