# generated using pymatgen
data_Ce(ClO)3
_symmetry_space_group_name_H-M   'P 1'
_cell_length_a   6.78834600
_cell_length_b   8.42929500
_cell_length_c   12.22229500
_cell_angle_alpha   90.00000000
_cell_angle_beta   90.00000000
_cell_angle_gamma   90.00000000
_symmetry_Int_Tables_number   1
_chemical_formula_structural   Ce(ClO)3
_chemical_formula_sum   'Ce4 Cl12 O12'
_cell_volume   699.37158770
_cell_formula_units_Z   4
loop_
 _symmetry_equiv_pos_site_id
 _symmetry_equiv_pos_as_xyz
  1  'x, y, z'
loop_
 _atom_site_type_symbol
 _atom_site_label
 _atom_site_symmetry_multiplicity
 _atom_site_fract_x
 _atom_site_fract_y
 _atom_site_fract_z
 _atom_site_occupancy
  Ce  Ce0  1  0.88060600  0.75000000  0.98647600  1
  Ce  Ce1  1  0.61939400  0.75000000  0.48647600  1
  Ce  Ce2  1  0.11939400  0.25000000  0.01352400  1
  Ce  Ce3  1  0.38060600  0.25000000  0.51352400  1
  Cl  Cl0  1  0.99770200  0.75000000  0.22133800  1
  Cl  Cl1  1  0.50229800  0.75000000  0.72133800  1
  Cl  Cl2  1  0.00229800  0.25000000  0.77866200  1
  Cl  Cl3  1  0.49770200  0.25000000  0.27866200  1
  Cl  Cl4  1  0.81515600  0.04589900  0.08215000  1
  Cl  Cl5  1  0.68484400  0.45410100  0.58215000  1
  Cl  Cl6  1  0.18484400  0.54589900  0.91785000  1
  Cl  Cl7  1  0.31515600  0.95410100  0.41785000  1
  Cl  Cl8  1  0.18484400  0.95410100  0.91785000  1
  Cl  Cl9  1  0.31515600  0.54589900  0.41785000  1
  Cl  Cl10  1  0.81515600  0.45410100  0.08215000  1
  Cl  Cl11  1  0.68484400  0.04589900  0.58215000  1
  O  O0  1  0.58119800  0.75000000  0.97188200  1
  O  O1  1  0.91880200  0.75000000  0.47188200  1
  O  O2  1  0.41880200  0.25000000  0.02811800  1
  O  O3  1  0.08119800  0.25000000  0.52811800  1
  O  O4  1  0.72547600  0.62330900  0.83566700  1
  O  O5  1  0.77452400  0.87669100  0.33566700  1
  O  O6  1  0.27452400  0.12330900  0.16433300  1
  O  O7  1  0.22547600  0.37669100  0.66433300  1
  O  O8  1  0.27452400  0.37669100  0.16433300  1
  O  O9  1  0.22547600  0.12330900  0.66433300  1
  O  O10  1  0.72547600  0.87669100  0.83566700  1
  O  O11  1  0.77452400  0.62330900  0.33566700  1
loop_
_geom_bond_atom_site_label_1
_geom_bond_atom_site_label_2
_geom_bond_distance
_geom_bond_site_symmetry_2
Ce0 O0 2.040297 1_555
Ce0 O4 2.376324 1_555
Ce0 O10 2.376324 1_555
Ce0 Cl4 2.790327 1_566
Ce0 Cl10 2.790327 1_556
Ce0 Cl6 2.815804 1_655
Ce0 Cl8 2.815804 1_655
Ce0 Cl0 2.978577 1_556
Ce1 O1 2.040297 1_555
Ce1 O5 2.376324 1_555
Ce1 O11 2.376324 1_555
Ce1 Cl11 2.790327 1_565
Ce1 Cl5 2.790327 1_555
Ce1 Cl7 2.815804 1_555
Ce1 Cl9 2.815804 1_555
Ce1 Cl1 2.978577 1_555
Ce2 O2 2.040297 1_555
Ce2 O8 2.376324 1_555
Ce2 O6 2.376324 1_555
Ce2 Cl6 2.790327 1_554
Ce2 Cl8 2.790327 1_544
Ce2 Cl4 2.815804 1_455
Ce2 Cl10 2.815804 1_455
Ce2 Cl2 2.978577 1_554
Ce3 O3 2.040297 1_555
Ce3 O7 2.376324 1_555
Ce3 O9 2.376324 1_555
Ce3 Cl9 2.790327 1_555
Ce3 Cl7 2.790327 1_545
Ce3 Cl11 2.815804 1_555
Ce3 Cl5 2.815804 1_555
Ce3 Cl3 2.978577 1_555
Cl0 O5 2.321276 1_555
Cl0 O11 2.321276 1_555
Cl1 O10 2.321276 1_555
Cl1 O4 2.321276 1_555
Cl2 O9 2.321276 1_555
Cl2 O7 2.321276 1_555
Cl3 O8 2.321276 1_555
Cl3 O6 2.321276 1_555
