# generated using pymatgen
data_LaMg2TaO6
_symmetry_space_group_name_H-M   'P 1'
_cell_length_a   7.33534107
_cell_length_b   6.84060898
_cell_length_c   7.60093969
_cell_angle_alpha   90.00000000
_cell_angle_beta   58.79484001
_cell_angle_gamma   117.79293723
_symmetry_Int_Tables_number   1
_chemical_formula_structural   LaMg2TaO6
_chemical_formula_sum   'La2 Mg4 Ta2 O12'
_cell_volume   273.48198553
_cell_formula_units_Z   2
loop_
 _symmetry_equiv_pos_site_id
 _symmetry_equiv_pos_as_xyz
  1  'x, y, z'
loop_
 _atom_site_type_symbol
 _atom_site_label
 _atom_site_symmetry_multiplicity
 _atom_site_fract_x
 _atom_site_fract_y
 _atom_site_fract_z
 _atom_site_occupancy
  La  La0  1  0.00000000  0.00000000  0.50000000  1
  La  La1  1  0.00000000  0.00000000  0.00000000  1
  Mg  Mg0  1  0.50000000  0.50000000  0.00000000  1
  Mg  Mg1  1  0.50000000  0.00000000  0.00000000  1
  Mg  Mg2  1  0.50000000  0.00000000  0.50000000  1
  Mg  Mg3  1  0.50000000  0.50000000  0.50000000  1
  Ta  Ta0  1  0.00000000  0.50000000  0.00000000  1
  Ta  Ta1  1  0.00000000  0.50000000  0.50000000  1
  O  O0  1  0.71235000  0.85617500  0.39382500  1
  O  O1  1  0.14988200  0.57494100  0.67505900  1
  O  O2  1  0.24176600  0.83348300  0.94338600  1
  O  O3  1  0.24176600  0.40828300  0.31484800  1
  O  O4  1  0.24176600  0.40828300  0.94338600  1
  O  O5  1  0.24176600  0.83348300  0.31484800  1
  O  O6  1  0.28765000  0.14382500  0.60617500  1
  O  O7  1  0.85011800  0.42505900  0.32494100  1
  O  O8  1  0.75823400  0.16651700  0.05661400  1
  O  O9  1  0.75823400  0.59171700  0.68515200  1
  O  O10  1  0.75823400  0.59171700  0.05661400  1
  O  O11  1  0.75823400  0.16651700  0.68515200  1
loop_
_geom_bond_atom_site_label_1
_geom_bond_atom_site_label_2
_geom_bond_distance
_geom_bond_site_symmetry_2
La0 O9 2.391821 1_445
La0 O3 2.391821 1_555
La0 O11 2.391821 1_455
La0 O5 2.391821 1_545
La0 O0 2.428987 1_445
La0 O6 2.428987 1_555
La1 O10 2.391821 1_445
La1 O4 2.391821 1_554
La1 O8 2.391821 1_455
La1 O2 2.391821 1_544
La1 O0 2.428987 1_445
La1 O6 2.428987 1_554
Mg0 O10 1.975672 1_555
Mg0 O3 1.975672 1_555
Mg0 O9 1.975672 1_554
Mg0 O4 1.975672 1_554
Mg1 O8 1.975672 1_555
Mg1 O5 1.975672 1_545
Mg1 O11 1.975672 1_554
Mg1 O2 1.975672 1_544
Mg2 O6 2.042575 1_555
Mg2 O0 2.042575 1_545
Mg2 O1 2.513143 1_545
Mg2 O7 2.513143 1_555
Mg3 O0 2.042575 1_555
Mg3 O6 2.042575 1_555
Mg3 O7 2.513144 1_555
Mg3 O1 2.513144 1_555
O1 Ta1 2.057275 1_555
O1 Ta0 2.057275 1_556
O2 Ta0 1.992665 1_556
O3 Ta1 1.992666 1_555
O4 Ta0 1.992666 1_556
O5 Ta1 1.992665 1_555
O7 Ta1 2.057275 1_655
O7 Ta0 2.057275 1_655
O8 Ta0 1.992665 1_655
O9 Ta1 1.992666 1_655
O10 Ta0 1.992666 1_655
O11 Ta1 1.992665 1_655
