# generated using pymatgen
data_Eu2MgSe4
_symmetry_space_group_name_H-M   'P 1'
_cell_length_a   14.53954700
_cell_length_b   8.54432200
_cell_length_c   6.95367500
_cell_angle_alpha   90.00000000
_cell_angle_beta   90.00000000
_cell_angle_gamma   90.00000000
_symmetry_Int_Tables_number   1
_chemical_formula_structural   Eu2MgSe4
_chemical_formula_sum   'Eu8 Mg4 Se16'
_cell_volume   863.85901790
_cell_formula_units_Z   4
loop_
 _symmetry_equiv_pos_site_id
 _symmetry_equiv_pos_as_xyz
  1  'x, y, z'
loop_
 _atom_site_type_symbol
 _atom_site_label
 _atom_site_symmetry_multiplicity
 _atom_site_fract_x
 _atom_site_fract_y
 _atom_site_fract_z
 _atom_site_occupancy
  Eu  Eu0  1  0.00000000  0.00000000  0.50000000  1
  Eu  Eu1  1  0.50000000  0.00000000  0.00000000  1
  Eu  Eu2  1  0.50000000  0.50000000  0.00000000  1
  Eu  Eu3  1  0.00000000  0.50000000  0.50000000  1
  Eu  Eu4  1  0.23233800  0.75000000  0.00040900  1
  Eu  Eu5  1  0.76766200  0.25000000  0.99959100  1
  Eu  Eu6  1  0.26766200  0.25000000  0.50040900  1
  Eu  Eu7  1  0.73233800  0.75000000  0.49959100  1
  Mg  Mg0  1  0.09144800  0.25000000  0.92446200  1
  Mg  Mg1  1  0.90855200  0.75000000  0.07553800  1
  Mg  Mg2  1  0.40855200  0.75000000  0.42446200  1
  Mg  Mg3  1  0.59144800  0.25000000  0.57553800  1
  Se  Se0  1  0.16694400  0.01301000  0.75034300  1
  Se  Se1  1  0.83305600  0.98699000  0.24965700  1
  Se  Se2  1  0.33305600  0.98699000  0.25034300  1
  Se  Se3  1  0.66694400  0.01301000  0.74965700  1
  Se  Se4  1  0.66694400  0.48699000  0.74965700  1
  Se  Se5  1  0.33305600  0.51301000  0.25034300  1
  Se  Se6  1  0.83305600  0.51301000  0.24965700  1
  Se  Se7  1  0.16694400  0.48699000  0.75034300  1
  Se  Se8  1  0.06835900  0.75000000  0.24456300  1
  Se  Se9  1  0.93164100  0.25000000  0.75543700  1
  Se  Se10  1  0.43164100  0.25000000  0.74456300  1
  Se  Se11  1  0.56835900  0.75000000  0.25543700  1
  Se  Se12  1  0.09185700  0.25000000  0.28975600  1
  Se  Se13  1  0.90814300  0.75000000  0.71024400  1
  Se  Se14  1  0.40814300  0.75000000  0.78975600  1
  Se  Se15  1  0.59185700  0.25000000  0.21024400  1
loop_
_geom_bond_atom_site_label_1
_geom_bond_atom_site_label_2
_geom_bond_distance
_geom_bond_site_symmetry_2
Eu0 Se12 2.912715 1_555
Eu0 Se13 2.912715 1_445
Eu0 Se8 2.950538 1_545
Eu0 Se9 2.950538 1_455
Eu0 Se0 2.989062 1_555
Eu0 Se1 2.989062 1_445
Eu1 Se15 2.912715 1_555
Eu1 Se14 2.912715 1_544
Eu1 Se11 2.950538 1_545
Eu1 Se10 2.950538 1_554
Eu1 Se3 2.989062 1_554
Eu1 Se2 2.989062 1_545
Eu2 Se15 2.912715 1_555
Eu2 Se14 2.912715 1_554
Eu2 Se11 2.950538 1_555
Eu2 Se10 2.950538 1_554
Eu2 Se4 2.989062 1_554
Eu2 Se5 2.989062 1_555
Eu3 Se12 2.912715 1_555
Eu3 Se13 2.912715 1_455
Eu3 Se8 2.950538 1_555
Eu3 Se9 2.950538 1_455
Eu3 Se7 2.989062 1_555
Eu3 Se6 2.989062 1_455
Eu4 Se8 2.926898 1_555
Eu4 Se14 2.946091 1_554
Eu4 Se0 2.996300 1_564
Eu4 Se7 2.996300 1_554
Eu4 Se5 3.043887 1_555
Eu4 Se2 3.043887 1_555
Eu5 Se9 2.926898 1_555
Eu5 Se15 2.946091 1_556
Eu5 Se1 2.996300 1_546
Eu5 Se6 2.996300 1_556
Eu5 Se4 3.043887 1_555
Eu5 Se3 3.043887 1_555
Eu6 Se10 2.926898 1_555
Eu6 Se12 2.946091 1_555
Eu6 Se2 2.996300 1_545
Eu6 Se5 2.996300 1_555
Eu6 Se0 3.043887 1_555
Eu6 Se7 3.043887 1_555
Eu7 Se11 2.926898 1_555
Eu7 Se13 2.946091 1_555
Eu7 Se4 2.996300 1_555
Eu7 Se3 2.996300 1_565
Eu7 Se6 3.043887 1_555
Eu7 Se1 3.043887 1_555
Mg0 Se12 2.540143 1_556
Mg0 Se0 2.602143 1_555
Mg0 Se7 2.602143 1_555
Mg0 Se9 2.603879 1_455
Mg1 Se13 2.540143 1_554
Mg1 Se6 2.602143 1_555
Mg1 Se1 2.602143 1_555
Mg1 Se8 2.603879 1_655
Mg2 Se14 2.540143 1_555
Mg2 Se5 2.602143 1_555
Mg2 Se2 2.602143 1_555
Mg2 Se11 2.603879 1_555
Mg3 Se15 2.540143 1_555
Mg3 Se3 2.602143 1_555
Mg3 Se4 2.602143 1_555
Mg3 Se10 2.603879 1_555
