# generated using pymatgen
data_MnRe3B2
_symmetry_space_group_name_H-M   'P 1'
_cell_length_a   8.62120934
_cell_length_b   7.99924030
_cell_length_c   4.51746795
_cell_angle_alpha   81.99062811
_cell_angle_beta   66.75199810
_cell_angle_gamma   31.25737379
_symmetry_Int_Tables_number   1
_chemical_formula_structural   MnRe3B2
_chemical_formula_sum   'Mn2 Re6 B4'
_cell_volume   135.10020827
_cell_formula_units_Z   2
loop_
 _symmetry_equiv_pos_site_id
 _symmetry_equiv_pos_as_xyz
  1  'x, y, z'
loop_
 _atom_site_type_symbol
 _atom_site_label
 _atom_site_symmetry_multiplicity
 _atom_site_fract_x
 _atom_site_fract_y
 _atom_site_fract_z
 _atom_site_occupancy
  Mn  Mn0  1  0.41655700  0.41655700  0.58344300  1
  Mn  Mn1  1  0.58344300  0.58344300  0.41655700  1
  Re  Re0  1  0.83515800  0.83515800  0.66484200  1
  Re  Re1  1  0.66484200  0.66484200  0.83515800  1
  Re  Re2  1  0.83292600  0.16707400  0.83292600  1
  Re  Re3  1  0.16707400  0.83292600  0.16707400  1
  Re  Re4  1  0.41857700  0.08142300  0.41857700  1
  Re  Re5  1  0.08142300  0.41857700  0.08142300  1
  B  B0  1  0.12247500  0.12247500  0.87752500  1
  B  B1  1  0.87752500  0.87752500  0.12247500  1
  B  B2  1  0.12281200  0.12281200  0.37718800  1
  B  B3  1  0.37718800  0.37718800  0.12281200  1
loop_
_geom_bond_atom_site_label_1
_geom_bond_atom_site_label_2
_geom_bond_distance
_geom_bond_site_symmetry_2
Mn0 Mn1 2.562725 1_555
Mn0 Re0 2.581534 1_455
Mn0 Re0 2.581534 1_545
Mn0 Re4 2.864981 1_555
Mn0 Re5 2.864981 1_556
Mn0 Re2 2.897129 1_554
Mn0 Re2 2.897129 1_465
Mn0 Re3 2.897129 1_645
Mn0 Re3 2.897129 1_556
Mn0 Re3 2.908162 1_555
Mn0 Re2 2.908162 1_555
Mn1 Re1 2.581534 1_554
Mn1 Re1 2.581534 1_555
Mn1 Re4 2.864981 1_565
Mn1 Re5 2.864981 1_655
Mn1 Re2 2.897129 1_554
Mn1 Re2 2.897129 1_465
Mn1 Re3 2.897129 1_645
Mn1 Re3 2.897129 1_556
Mn1 Re3 2.908162 1_555
Mn1 Re2 2.908162 1_555
Re0 Re1 2.615397 1_555
B0 B2 2.258740 1_556
B0 B2 2.258740 1_555
B0 Re3 2.292075 1_546
B0 Re2 2.292075 1_455
B0 Mn1 2.322566 1_456
B0 Mn1 2.322566 1_545
B0 Re4 2.345492 1_555
B0 Re5 2.345492 1_556
B0 Re1 2.350564 1_545
B0 Re1 2.350564 1_455
B1 B3 2.258740 1_655
B1 B3 2.258740 1_565
B1 Re3 2.292075 1_655
B1 Re2 2.292075 1_564
B1 Mn0 2.322566 1_565
B1 Mn0 2.322566 1_654
B1 Re4 2.345492 1_565
B1 Re5 2.345492 1_655
B1 Re0 2.350564 1_555
B1 Re0 2.350564 1_554
B2 Re3 2.288734 1_545
B2 Re2 2.288734 1_455
B2 Re1 2.334871 1_544
B2 Re1 2.334871 1_455
B2 Mn1 2.338240 1_455
B2 Mn1 2.338240 1_545
B2 Re5 2.358410 1_555
B2 Re4 2.358410 1_555
B3 Re2 2.288734 1_554
B3 Re3 2.288734 1_555
B3 Re0 2.334871 1_544
B3 Re0 2.334871 1_455
B3 Mn0 2.338240 1_555
B3 Mn0 2.338240 1_554
B3 Re5 2.358410 1_555
B3 Re4 2.358410 1_555
