# generated using pymatgen
data_Ir3(NCl)10
_symmetry_space_group_name_H-M   'P 1'
_cell_length_a   6.82291942
_cell_length_b   6.82291942
_cell_length_c   15.33552355
_cell_angle_alpha   83.09066925
_cell_angle_beta   83.09066925
_cell_angle_gamma   100.56813385
_symmetry_Int_Tables_number   1
_chemical_formula_structural   Ir3(NCl)10
_chemical_formula_sum   'Ir3 N10 Cl10'
_cell_volume   689.24383040
_cell_formula_units_Z   1
loop_
 _symmetry_equiv_pos_site_id
 _symmetry_equiv_pos_as_xyz
  1  'x, y, z'
loop_
 _atom_site_type_symbol
 _atom_site_label
 _atom_site_symmetry_multiplicity
 _atom_site_fract_x
 _atom_site_fract_y
 _atom_site_fract_z
 _atom_site_occupancy
  Ir  Ir0  1  0.73051200  0.73051200  0.75270800  1
  Ir  Ir1  1  0.26948800  0.26948800  0.24729200  1
  Ir  Ir2  1  0.00000000  0.00000000  0.00000000  1
  N  N0  1  0.50287600  0.50287600  0.74460300  1
  N  N1  1  0.49712400  0.49712400  0.25539700  1
  N  N2  1  0.60252700  0.87868700  0.81296000  1
  N  N3  1  0.87868700  0.60252700  0.81296000  1
  N  N4  1  0.39747300  0.12131300  0.18704000  1
  N  N5  1  0.12131300  0.39747300  0.18704000  1
  N  N6  1  0.46817000  0.92178300  0.51689400  1
  N  N7  1  0.92178300  0.46817000  0.51689400  1
  N  N8  1  0.53183000  0.07821700  0.48310600  1
  N  N9  1  0.07821700  0.53183000  0.48310600  1
  Cl  Cl0  1  0.05103100  0.05103100  0.84498400  1
  Cl  Cl1  1  0.94896900  0.94896900  0.15501600  1
  Cl  Cl2  1  0.88803300  0.88803300  0.61617800  1
  Cl  Cl3  1  0.11196700  0.11196700  0.38382200  1
  Cl  Cl4  1  0.26370600  0.26370600  0.00089500  1
  Cl  Cl5  1  0.73629400  0.73629400  0.99910500  1
  Cl  Cl6  1  0.21820900  0.78179100  0.00000000  1
  Cl  Cl7  1  0.78179100  0.21820900  0.00000000  1
  Cl  Cl8  1  0.46377300  0.46377300  0.64274400  1
  Cl  Cl9  1  0.53622700  0.53622700  0.35725600  1
loop_
_geom_bond_atom_site_label_1
_geom_bond_atom_site_label_2
_geom_bond_distance
_geom_bond_site_symmetry_2
Ir0 N2 1.729985 1_555
Ir0 N3 1.729985 1_555
Ir0 N0 2.011966 1_555
Ir1 N4 1.729985 1_555
Ir1 N5 1.729985 1_555
Ir1 N1 2.011966 1_555
N6 N8 1.113144 1_565
N7 N9 1.113144 1_655
Cl0 Ir2 2.334743 1_556
Cl1 Ir2 2.334743 1_665
Cl2 Ir0 2.277608 1_555
Cl3 Ir1 2.277608 1_555
Cl4 Ir2 2.301993 1_555
Cl5 Ir2 2.301993 1_666
Cl6 Ir2 2.290470 1_565
Cl7 Ir2 2.290470 1_655
Cl8 N0 1.660369 1_555
Cl9 N1 1.660369 1_555
