# generated using pymatgen
data_Th2Fe7
_symmetry_space_group_name_H-M   'P 1'
_cell_length_a   5.12238565
_cell_length_b   5.12238600
_cell_length_c   12.67915608
_cell_angle_alpha   78.34604597
_cell_angle_beta   78.34604757
_cell_angle_gamma   59.99999774
_symmetry_Int_Tables_number   1
_chemical_formula_structural   Th2Fe7
_chemical_formula_sum   'Th4 Fe14'
_cell_volume   280.16767040
_cell_formula_units_Z   2
loop_
 _symmetry_equiv_pos_site_id
 _symmetry_equiv_pos_as_xyz
  1  'x, y, z'
loop_
 _atom_site_type_symbol
 _atom_site_label
 _atom_site_symmetry_multiplicity
 _atom_site_fract_x
 _atom_site_fract_y
 _atom_site_fract_z
 _atom_site_occupancy
  Th  Th0  1  0.94906100  0.94906100  0.15281800  1
  Th  Th1  1  0.05093900  0.05093900  0.84718200  1
  Th  Th2  1  0.85157500  0.85157500  0.44527400  1
  Th  Th3  1  0.14842500  0.14842500  0.55472600  1
  Fe  Fe0  1  0.50000000  0.50000000  0.50000000  1
  Fe  Fe1  1  0.72240700  0.72240700  0.83277800  1
  Fe  Fe2  1  0.27759300  0.27759300  0.16722200  1
  Fe  Fe3  1  0.61127900  0.61127900  0.16616200  1
  Fe  Fe4  1  0.38872100  0.38872100  0.83383800  1
  Fe  Fe5  1  0.00000000  0.50000000  0.00000000  1
  Fe  Fe6  1  0.50000000  0.00000000  0.00000000  1
  Fe  Fe7  1  0.50000000  0.50000000  0.00000000  1
  Fe  Fe8  1  0.38970000  0.38970000  0.32920500  1
  Fe  Fe9  1  0.89139500  0.38970000  0.32920500  1
  Fe  Fe10  1  0.38970000  0.89139500  0.32920500  1
  Fe  Fe11  1  0.61030000  0.61030000  0.67079500  1
  Fe  Fe12  1  0.10860500  0.61030000  0.67079500  1
  Fe  Fe13  1  0.61030000  0.10860500  0.67079500  1
loop_
_geom_bond_atom_site_label_1
_geom_bond_atom_site_label_2
_geom_bond_distance
_geom_bond_site_symmetry_2
Fe0 Fe9 2.576011 1_555
Fe0 Fe12 2.576011 1_555
Fe0 Fe8 2.576011 1_555
Fe0 Fe13 2.576011 1_555
Fe0 Fe10 2.576011 1_555
Fe0 Fe11 2.576011 1_555
Fe0 Th2 3.033403 1_555
Fe0 Th3 3.033403 1_555
Fe0 Th2 3.033407 1_455
Fe0 Th3 3.033407 1_655
Fe0 Th3 3.033408 1_565
Fe0 Th2 3.033408 1_545
Fe1 Fe11 2.482015 1_555
Fe1 Fe12 2.482018 1_655
Fe1 Fe13 2.482018 1_565
Fe1 Fe7 2.537199 1_556
Fe1 Fe5 2.537201 1_656
Fe1 Fe6 2.537202 1_566
Fe1 Th1 2.962738 1_565
Fe1 Th1 2.962738 1_655
Fe1 Th1 2.962738 1_665
Fe2 Fe8 2.482015 1_555
Fe2 Fe9 2.482018 1_455
Fe2 Fe7 2.537199 1_555
Fe2 Fe5 2.537201 1_555
Fe2 Fe6 2.537202 1_555
Fe2 Th0 2.962738 1_545
Fe2 Th0 2.962738 1_445
Fe2 Th0 2.962738 1_455
Fe3 Fe8 2.498484 1_555
Fe3 Fe9 2.498486 1_555
Fe3 Fe7 2.526590 1_555
Fe3 Fe5 2.526593 1_655
Fe3 Fe6 2.526593 1_565
Fe3 Th0 2.961980 1_455
Fe3 Th0 2.961981 1_545
Fe3 Th0 2.961990 1_555
Fe4 Fe7 2.526590 1_556
Fe4 Fe5 2.526593 1_556
Fe4 Fe6 2.526593 1_556
Fe4 Th1 2.961980 1_655
Fe4 Th1 2.961981 1_565
Fe4 Th1 2.961990 1_555
Fe5 Fe7 2.561193 1_455
Fe5 Fe7 2.561193 1_555
Fe5 Fe6 2.561193 1_465
Fe5 Fe6 2.561193 1_555
Fe5 Th0 3.179583 1_445
Fe5 Th1 3.179583 1_564
Fe5 Th1 3.179587 1_554
Fe5 Th0 3.179587 1_455
Fe6 Fe7 2.561193 1_545
Fe6 Fe7 2.561193 1_555
Fe6 Th0 3.179583 1_445
Fe6 Th1 3.179583 1_654
Fe6 Th1 3.179587 1_554
Fe6 Th0 3.179587 1_545
Fe7 Th0 3.179585 1_545
Fe7 Th1 3.179585 1_564
Fe7 Th1 3.179585 1_654
Fe7 Th0 3.179585 1_455
Fe8 Fe9 2.552510 1_455
Fe8 Fe9 2.569875 1_555
Fe8 Th2 2.933884 1_545
Fe8 Th2 2.933884 1_455
Fe8 Th3 3.146933 1_555
Fe8 Th0 3.359951 1_455
Fe8 Th0 3.359951 1_545
Fe9 Th2 2.933882 1_555
Fe9 Th2 2.933887 1_545
Fe9 Th3 3.146935 1_655
Fe9 Th0 3.359949 1_545
Fe9 Th0 3.359953 1_555
Fe10 Fe2 2.482018 1_565
Fe10 Fe3 2.498486 1_555
Fe10 Fe9 2.552510 1_465
Fe10 Fe8 2.552511 1_565
Fe10 Fe9 2.569875 1_555
Fe10 Fe8 2.569875 1_555
Fe10 Th2 2.933882 1_555
Fe10 Th2 2.933887 1_455
Fe10 Th3 3.146935 1_565
Fe10 Th0 3.359949 1_455
Fe10 Th0 3.359953 1_555
Fe11 Fe4 2.498484 1_555
Fe11 Fe12 2.552510 1_655
Fe11 Fe13 2.552511 1_565
Fe11 Fe12 2.569875 1_555
Fe11 Fe13 2.569875 1_555
Fe11 Th3 2.933884 1_565
Fe11 Th3 2.933884 1_655
Fe11 Th2 3.146933 1_555
Fe11 Th1 3.359951 1_655
Fe11 Th1 3.359951 1_565
Fe12 Fe4 2.498486 1_555
Fe12 Fe13 2.552510 1_465
Fe12 Fe13 2.569875 1_555
Fe12 Th3 2.933882 1_555
Fe12 Th3 2.933887 1_565
Fe12 Th2 3.146935 1_455
Fe12 Th1 3.359949 1_565
Fe12 Th1 3.359953 1_555
Fe13 Fe4 2.498486 1_555
Fe13 Th3 2.933882 1_555
Fe13 Th3 2.933887 1_655
Fe13 Th2 3.146935 1_545
Fe13 Th1 3.359949 1_655
Fe13 Th1 3.359953 1_555
