# generated using pymatgen
data_Rb2PtBr4O
_symmetry_space_group_name_H-M   'P 1'
_cell_length_a   7.16017500
_cell_length_b   10.83328600
_cell_length_c   14.30964800
_cell_angle_alpha   90.00000000
_cell_angle_beta   90.00000000
_cell_angle_gamma   90.00000000
_symmetry_Int_Tables_number   1
_chemical_formula_structural   Rb2PtBr4O
_chemical_formula_sum   'Rb8 Pt4 Br16 O4'
_cell_volume   1109.97397549
_cell_formula_units_Z   4
loop_
 _symmetry_equiv_pos_site_id
 _symmetry_equiv_pos_as_xyz
  1  'x, y, z'
loop_
 _atom_site_type_symbol
 _atom_site_label
 _atom_site_symmetry_multiplicity
 _atom_site_fract_x
 _atom_site_fract_y
 _atom_site_fract_z
 _atom_site_occupancy
  Rb  Rb0  1  0.27961000  0.02840600  0.37173300  1
  Rb  Rb1  1  0.22039000  0.47159400  0.87173300  1
  Rb  Rb2  1  0.72039000  0.52840600  0.62826700  1
  Rb  Rb3  1  0.77961000  0.97159400  0.12826700  1
  Rb  Rb4  1  0.72039000  0.97159400  0.62826700  1
  Rb  Rb5  1  0.77961000  0.52840600  0.12826700  1
  Rb  Rb6  1  0.27961000  0.47159400  0.37173300  1
  Rb  Rb7  1  0.22039000  0.02840600  0.87173300  1
  Pt  Pt0  1  0.28181500  0.25000000  0.12293700  1
  Pt  Pt1  1  0.21818500  0.25000000  0.62293700  1
  Pt  Pt2  1  0.71818500  0.75000000  0.87706300  1
  Pt  Pt3  1  0.78181500  0.75000000  0.37706300  1
  Br  Br0  1  0.28144500  0.47702900  0.12313600  1
  Br  Br1  1  0.21855500  0.02297100  0.62313600  1
  Br  Br2  1  0.71855500  0.97702900  0.87686400  1
  Br  Br3  1  0.78144500  0.52297100  0.37686400  1
  Br  Br4  1  0.71855500  0.52297100  0.87686400  1
  Br  Br5  1  0.78144500  0.97702900  0.37686400  1
  Br  Br6  1  0.28144500  0.02297100  0.12313600  1
  Br  Br7  1  0.21855500  0.47702900  0.62313600  1
  Br  Br8  1  0.05481200  0.75000000  0.27444300  1
  Br  Br9  1  0.44518800  0.75000000  0.77444300  1
  Br  Br10  1  0.94518800  0.25000000  0.72555700  1
  Br  Br11  1  0.55481200  0.25000000  0.22555700  1
  Br  Br12  1  0.49906200  0.25000000  0.52463800  1
  Br  Br13  1  0.00093800  0.25000000  0.02463800  1
  Br  Br14  1  0.50093800  0.75000000  0.47536200  1
  Br  Br15  1  0.99906200  0.75000000  0.97536200  1
  O  O0  1  0.54199500  0.75000000  0.13970500  1
  O  O1  1  0.95800500  0.75000000  0.63970500  1
  O  O2  1  0.45800500  0.25000000  0.86029500  1
  O  O3  1  0.04199500  0.25000000  0.36029500  1
loop_
_geom_bond_atom_site_label_1
_geom_bond_atom_site_label_2
_geom_bond_distance
_geom_bond_site_symmetry_2
Br0 Pt0 2.459473 1_555
Br0 Rb6 3.557847 1_555
Br0 Rb5 3.610858 1_555
Br0 Rb1 3.624431 1_554
Br0 Rb5 3.636819 1_455
Br1 Pt1 2.459473 1_555
Br1 Rb7 3.557847 1_555
Br1 Rb4 3.610858 1_445
Br1 Rb0 3.624431 1_555
Br1 Rb4 3.636819 1_545
Br2 Pt2 2.459473 1_555
Br2 Rb4 3.557847 1_555
Br2 Rb7 3.610858 1_565
Br2 Rb3 3.624431 1_556
Br2 Rb7 3.636819 1_665
Br3 Pt3 2.459473 1_555
Br3 Rb5 3.557847 1_555
Br3 Rb6 3.610858 1_655
Br3 Rb2 3.624431 1_555
Br3 Rb6 3.636819 1_555
Br4 Pt2 2.459473 1_555
Br4 Rb2 3.557847 1_555
Br4 Rb1 3.610858 1_555
Br4 Rb5 3.624431 1_556
Br4 Rb1 3.636819 1_655
Br5 Pt3 2.459473 1_555
Br5 Rb3 3.557847 1_555
Br5 Rb0 3.610858 1_665
Br5 Rb4 3.624431 1_555
Br5 Rb0 3.636819 1_565
Br6 Pt0 2.459473 1_555
Br6 Rb0 3.557847 1_555
Br6 Rb3 3.610858 1_545
Br6 Rb7 3.624431 1_554
Br6 Rb3 3.636819 1_445
Br7 Pt1 2.459473 1_555
Br7 Rb1 3.557847 1_555
Br7 Rb2 3.610858 1_455
Br7 Rb6 3.624431 1_555
Br7 Rb2 3.636819 1_555
Br8 Pt3 2.444839 1_455
Br8 Rb0 3.691279 1_565
Br8 Rb6 3.691279 1_555
Br8 Rb3 3.744464 1_455
Br8 Rb5 3.744464 1_455
Br9 Pt2 2.444839 1_555
Br9 Rb7 3.691279 1_565
Br9 Rb1 3.691279 1_555
Br9 Rb4 3.744464 1_555
Br9 Rb2 3.744464 1_555
Br10 Pt1 2.444839 1_655
Br10 Rb2 3.691279 1_555
Br10 Rb4 3.691279 1_545
Br10 Rb1 3.744464 1_655
Br10 Rb7 3.744464 1_655
Br11 Pt0 2.444839 1_555
Br11 Rb5 3.691279 1_555
Br11 Rb3 3.691279 1_545
Br11 Rb6 3.744464 1_555
Br11 Rb0 3.744464 1_555
Br12 Pt1 2.454227 1_555
Br12 Rb6 3.608225 1_555
Br12 Rb0 3.608225 1_555
Br12 Rb2 3.715773 1_555
Br12 Rb4 3.715773 1_545
Br13 Pt0 2.454227 1_555
Br13 Rb1 3.608225 1_554
Br13 Rb7 3.608225 1_554
Br13 Rb5 3.715773 1_455
Br13 Rb3 3.715773 1_445
Br14 Pt3 2.454227 1_555
Br14 Rb4 3.608225 1_555
Br14 Rb2 3.608225 1_555
Br14 Rb0 3.715773 1_565
Br14 Rb6 3.715773 1_555
Br15 Pt2 2.454227 1_555
Br15 Rb3 3.608225 1_556
Br15 Rb5 3.608225 1_556
Br15 Rb7 3.715773 1_665
Br15 Rb1 3.715773 1_655
O0 Rb3 2.946909 1_555
O0 Rb5 2.946909 1_555
O1 Rb4 2.946909 1_555
O1 Rb2 2.946909 1_555
O2 Rb1 2.946909 1_555
O2 Rb7 2.946909 1_555
O3 Rb6 2.946909 1_555
O3 Rb0 2.946909 1_555
