# generated using pymatgen
data_Tb2MgSe4
_symmetry_space_group_name_H-M   'P 1'
_cell_length_a   8.17314200
_cell_length_b   7.76079600
_cell_length_c   12.13049400
_cell_angle_alpha   90.00000000
_cell_angle_beta   90.00000000
_cell_angle_gamma   90.00000000
_symmetry_Int_Tables_number   1
_chemical_formula_structural   Tb2MgSe4
_chemical_formula_sum   'Tb8 Mg4 Se16'
_cell_volume   769.43829876
_cell_formula_units_Z   4
loop_
 _symmetry_equiv_pos_site_id
 _symmetry_equiv_pos_as_xyz
  1  'x, y, z'
loop_
 _atom_site_type_symbol
 _atom_site_label
 _atom_site_symmetry_multiplicity
 _atom_site_fract_x
 _atom_site_fract_y
 _atom_site_fract_z
 _atom_site_occupancy
  Tb  Tb0  1  0.05839600  0.75000000  0.31203600  1
  Tb  Tb1  1  0.94160400  0.25000000  0.68796400  1
  Tb  Tb2  1  0.44160400  0.25000000  0.81203600  1
  Tb  Tb3  1  0.55839600  0.75000000  0.18796400  1
  Tb  Tb4  1  0.05574600  0.25000000  0.02220000  1
  Tb  Tb5  1  0.94425400  0.75000000  0.97780000  1
  Tb  Tb6  1  0.44425400  0.75000000  0.52220000  1
  Tb  Tb7  1  0.55574600  0.25000000  0.47780000  1
  Mg  Mg0  1  0.17635300  0.25000000  0.40450300  1
  Mg  Mg1  1  0.82364700  0.75000000  0.59549700  1
  Mg  Mg2  1  0.32364700  0.75000000  0.90450300  1
  Mg  Mg3  1  0.67635300  0.25000000  0.09549700  1
  Se  Se0  1  0.12833700  0.50219500  0.84206500  1
  Se  Se1  1  0.87166300  0.49780500  0.15793500  1
  Se  Se2  1  0.37166300  0.49780500  0.34206500  1
  Se  Se3  1  0.62833700  0.50219500  0.65793500  1
  Se  Se4  1  0.62833700  0.99780500  0.65793500  1
  Se  Se5  1  0.37166300  0.00219500  0.34206500  1
  Se  Se6  1  0.87166300  0.00219500  0.15793500  1
  Se  Se7  1  0.12833700  0.99780500  0.84206500  1
  Se  Se8  1  0.88522900  0.25000000  0.45639900  1
  Se  Se9  1  0.11477100  0.75000000  0.54360100  1
  Se  Se10  1  0.61477100  0.75000000  0.95639900  1
  Se  Se11  1  0.38522900  0.25000000  0.04360100  1
  Se  Se12  1  0.23162300  0.75000000  0.11241700  1
  Se  Se13  1  0.76837700  0.25000000  0.88758300  1
  Se  Se14  1  0.26837700  0.25000000  0.61241700  1
  Se  Se15  1  0.73162300  0.75000000  0.38758300  1
loop_
_geom_bond_atom_site_label_1
_geom_bond_atom_site_label_2
_geom_bond_distance
_geom_bond_site_symmetry_2
Mg0 Se8 2.461267 1_455
Mg0 Se5 2.611586 1_555
Mg0 Se2 2.611586 1_555
Mg0 Se14 2.631858 1_555
Mg1 Se9 2.461267 1_655
Mg1 Se4 2.611586 1_555
Mg1 Se3 2.611586 1_555
Mg1 Se15 2.631858 1_555
Mg2 Se10 2.461267 1_555
Mg2 Se7 2.611586 1_555
Mg2 Se0 2.611586 1_555
Mg2 Se12 2.631858 1_556
Mg3 Se11 2.461267 1_555
Mg3 Se6 2.611586 1_555
Mg3 Se1 2.611586 1_555
Mg3 Se13 2.631858 1_554
Se0 Tb5 2.945040 1_455
Se0 Tb4 2.992916 1_556
Se0 Tb1 3.107153 1_455
Se0 Tb2 3.243297 1_555
Se1 Tb4 2.945040 1_655
Se1 Tb5 2.992916 1_554
Se1 Tb0 3.107153 1_655
Se1 Tb3 3.243297 1_555
Se2 Tb7 2.945040 1_555
Se2 Tb6 2.992916 1_555
Se2 Tb3 3.107153 1_555
Se2 Tb0 3.243297 1_555
Se3 Tb6 2.945040 1_555
Se3 Tb7 2.992916 1_555
Se3 Tb2 3.107153 1_555
Se3 Tb1 3.243297 1_555
Se4 Tb6 2.945040 1_555
Se4 Tb7 2.992916 1_565
Se4 Tb2 3.107153 1_565
Se4 Tb1 3.243297 1_565
Se5 Tb7 2.945040 1_555
Se5 Tb6 2.992916 1_545
Se5 Tb3 3.107153 1_545
Se5 Tb0 3.243297 1_545
Se6 Tb4 2.945040 1_655
Se6 Tb5 2.992916 1_544
Se6 Tb0 3.107153 1_645
Se6 Tb3 3.243297 1_545
Se7 Tb5 2.945040 1_455
Se7 Tb4 2.992916 1_566
Se7 Tb1 3.107153 1_465
Se7 Tb2 3.243297 1_565
Se8 Tb7 2.705396 1_555
Se8 Tb1 2.846536 1_555
Se9 Tb6 2.705396 1_555
Se9 Tb0 2.846536 1_555
Se10 Tb5 2.705396 1_555
Se10 Tb3 2.846536 1_556
Se11 Tb4 2.705396 1_555
Se11 Tb2 2.846536 1_554
Se12 Tb0 2.805007 1_555
Se12 Tb3 2.823615 1_555
Se12 Tb5 2.860598 1_454
Se13 Tb1 2.805007 1_555
Se13 Tb2 2.823615 1_555
Se13 Tb4 2.860598 1_656
Se14 Tb2 2.805007 1_555
Se14 Tb1 2.823615 1_455
Se14 Tb7 2.860598 1_555
Se15 Tb3 2.805007 1_555
Se15 Tb0 2.823615 1_655
Se15 Tb6 2.860598 1_555
