# generated using pymatgen
data_Rb2AsAuCl6
_symmetry_space_group_name_H-M   'P 1'
_cell_length_a   7.38405024
_cell_length_b   7.38405024
_cell_length_c   7.38405024
_cell_angle_alpha   60.00000000
_cell_angle_beta   60.00000000
_cell_angle_gamma   60.00000000
_symmetry_Int_Tables_number   1
_chemical_formula_structural   Rb2AsAuCl6
_chemical_formula_sum   'Rb2 As1 Au1 Cl6'
_cell_volume   284.68784932
_cell_formula_units_Z   1
loop_
 _symmetry_equiv_pos_site_id
 _symmetry_equiv_pos_as_xyz
  1  'x, y, z'
loop_
 _atom_site_type_symbol
 _atom_site_label
 _atom_site_symmetry_multiplicity
 _atom_site_fract_x
 _atom_site_fract_y
 _atom_site_fract_z
 _atom_site_occupancy
  Rb  Rb0  1  0.75000000  0.75000000  0.75000000  1
  Rb  Rb1  1  0.25000000  0.25000000  0.25000000  1
  As  As0  1  0.00000000  0.00000000  0.00000000  1
  Au  Au0  1  0.50000000  0.50000000  0.50000000  1
  Cl  Cl0  1  0.75787800  0.24212200  0.24212200  1
  Cl  Cl1  1  0.24212200  0.24212200  0.75787800  1
  Cl  Cl2  1  0.24212200  0.75787800  0.75787800  1
  Cl  Cl3  1  0.24212200  0.75787800  0.24212200  1
  Cl  Cl4  1  0.75787800  0.24212200  0.75787800  1
  Cl  Cl5  1  0.75787800  0.75787800  0.24212200  1
loop_
_geom_bond_atom_site_label_1
_geom_bond_atom_site_label_2
_geom_bond_distance
_geom_bond_site_symmetry_2
As0 Cl5 2.528389 1_445
As0 Cl2 2.528389 1_544
As0 Cl4 2.528389 1_454
As0 Cl0 2.528389 1_455
As0 Cl3 2.528389 1_545
As0 Cl1 2.528389 1_554
Au0 Cl3 2.692923 1_555
Au0 Cl1 2.692923 1_555
Au0 Cl0 2.692923 1_555
Au0 Cl4 2.692923 1_555
Au0 Cl5 2.692923 1_555
Au0 Cl2 2.692923 1_555
Cl0 Rb1 3.692942 1_555
Cl0 Rb1 3.692942 1_655
Cl0 Rb0 3.692942 1_554
Cl0 Rb0 3.692942 1_545
Cl1 Rb1 3.692942 1_556
Cl1 Rb0 3.692942 1_455
Cl1 Rb0 3.692942 1_545
Cl1 Rb1 3.692942 1_555
Cl2 Rb1 3.692942 1_556
Cl2 Rb0 3.692942 1_555
Cl2 Rb1 3.692942 1_565
Cl2 Rb0 3.692942 1_455
Cl3 Rb1 3.692942 1_565
Cl3 Rb0 3.692942 1_455
Cl3 Rb0 3.692942 1_554
Cl3 Rb1 3.692942 1_555
Cl4 Rb1 3.692942 1_556
Cl4 Rb0 3.692942 1_555
Cl4 Rb0 3.692942 1_545
Cl4 Rb1 3.692942 1_655
Cl5 Rb1 3.692942 1_565
Cl5 Rb1 3.692942 1_655
Cl5 Rb0 3.692942 1_555
Cl5 Rb0 3.692942 1_554
