# generated using pymatgen
data_Lu3NbO7
_symmetry_space_group_name_H-M   'P 1'
_cell_length_a   8.01483275
_cell_length_b   8.01483275
_cell_length_c   5.25338200
_cell_angle_alpha   90.00000000
_cell_angle_beta   90.00000000
_cell_angle_gamma   125.54555406
_symmetry_Int_Tables_number   1
_chemical_formula_structural   Lu3NbO7
_chemical_formula_sum   'Lu6 Nb2 O14'
_cell_volume   274.57907653
_cell_formula_units_Z   2
loop_
 _symmetry_equiv_pos_site_id
 _symmetry_equiv_pos_as_xyz
  1  'x, y, z'
loop_
 _atom_site_type_symbol
 _atom_site_label
 _atom_site_symmetry_multiplicity
 _atom_site_fract_x
 _atom_site_fract_y
 _atom_site_fract_z
 _atom_site_occupancy
  Lu  Lu0  1  0.00000000  0.50000000  0.00000000  1
  Lu  Lu1  1  0.50000000  0.00000000  0.00000000  1
  Lu  Lu2  1  0.62222200  0.37777800  0.47039500  1
  Lu  Lu3  1  0.12222200  0.87777800  0.52960500  1
  Lu  Lu4  1  0.87777800  0.12222200  0.47039500  1
  Lu  Lu5  1  0.37777800  0.62222200  0.52960500  1
  Nb  Nb0  1  0.75000000  0.75000000  0.00000000  1
  Nb  Nb1  1  0.25000000  0.25000000  0.00000000  1
  O  O0  1  0.75000000  0.25000000  0.24091600  1
  O  O1  1  0.83790400  0.59011300  0.76024400  1
  O  O2  1  0.25000000  0.75000000  0.75908400  1
  O  O3  1  0.98595900  0.01404100  0.21716000  1
  O  O4  1  0.33790400  0.09011300  0.23975600  1
  O  O5  1  0.40988700  0.16209600  0.76024400  1
  O  O6  1  0.09011300  0.33790400  0.76024400  1
  O  O7  1  0.51404100  0.48595900  0.21716000  1
  O  O8  1  0.48595900  0.51404100  0.78284000  1
  O  O9  1  0.90988700  0.66209600  0.23975600  1
  O  O10  1  0.66209600  0.90988700  0.76024400  1
  O  O11  1  0.59011300  0.83790400  0.23975600  1
  O  O12  1  0.01404100  0.98595900  0.78284000  1
  O  O13  1  0.16209600  0.40988700  0.23975600  1
loop_
_geom_bond_atom_site_label_1
_geom_bond_atom_site_label_2
_geom_bond_distance
_geom_bond_site_symmetry_2
Lu0 O6 2.210628 1_554
Lu0 O13 2.210628 1_555
Lu0 O9 2.210628 1_455
Lu0 O1 2.210628 1_454
Lu0 O2 2.227877 1_554
Lu0 O0 2.227877 1_455
Lu1 O11 2.210628 1_545
Lu1 O4 2.210628 1_555
Lu1 O5 2.210628 1_554
Lu1 O10 2.210628 1_544
Lu1 O2 2.227877 1_544
Lu1 O0 2.227877 1_555
Lu2 O7 2.036531 1_555
Lu2 O0 2.184132 1_555
Lu2 O1 2.186900 1_555
Lu2 O5 2.186900 1_555
Lu2 O9 2.422365 1_555
Lu2 O4 2.422365 1_555
Lu2 O8 2.542920 1_555
Lu3 O12 2.036531 1_555
Lu3 O2 2.184132 1_555
Lu3 O9 2.186900 1_455
Lu3 O4 2.186900 1_565
Lu3 O1 2.422365 1_455
Lu3 O5 2.422365 1_565
Lu3 O3 2.542920 1_465
Lu4 O3 2.036531 1_555
Lu4 O0 2.184132 1_555
Lu4 O10 2.186900 1_545
Lu4 O6 2.186900 1_655
Lu4 O11 2.422365 1_545
Lu4 O13 2.422365 1_655
Lu4 O12 2.542920 1_645
Lu5 O8 2.036531 1_555
Lu5 O2 2.184132 1_555
Lu5 O11 2.186900 1_555
Lu5 O13 2.186900 1_555
Lu5 O10 2.422365 1_555
Lu5 O6 2.422365 1_555
Lu5 O7 2.542920 1_555
Nb0 O8 2.168678 1_554
Nb0 O3 2.168678 1_565
Nb0 O7 2.168678 1_555
Nb0 O12 2.168678 1_654
Nb0 O9 2.185104 1_555
Nb0 O10 2.185104 1_554
Nb0 O1 2.185104 1_554
Nb0 O11 2.185104 1_555
Nb1 O7 2.168678 1_555
Nb1 O8 2.168678 1_554
Nb1 O12 2.168678 1_544
Nb1 O3 2.168678 1_455
Nb1 O6 2.185104 1_554
Nb1 O13 2.185104 1_555
Nb1 O4 2.185104 1_555
Nb1 O5 2.185104 1_554
