# generated using pymatgen
data_FeMo3PdN
_symmetry_space_group_name_H-M   'P 1'
_cell_length_a   6.77847600
_cell_length_b   6.77847600
_cell_length_c   6.77847600
_cell_angle_alpha   90.00000000
_cell_angle_beta   90.00000000
_cell_angle_gamma   90.00000000
_symmetry_Int_Tables_number   1
_chemical_formula_structural   FeMo3PdN
_chemical_formula_sum   'Fe4 Mo12 Pd4 N4'
_cell_volume   311.45563171
_cell_formula_units_Z   4
loop_
 _symmetry_equiv_pos_site_id
 _symmetry_equiv_pos_as_xyz
  1  'x, y, z'
loop_
 _atom_site_type_symbol
 _atom_site_label
 _atom_site_symmetry_multiplicity
 _atom_site_fract_x
 _atom_site_fract_y
 _atom_site_fract_z
 _atom_site_occupancy
  Fe  Fe0  1  0.18289900  0.81710100  0.31710100  1
  Fe  Fe1  1  0.31710100  0.18289900  0.81710100  1
  Fe  Fe2  1  0.81710100  0.31710100  0.18289900  1
  Fe  Fe3  1  0.68289900  0.68289900  0.68289900  1
  Mo  Mo0  1  0.80390200  0.95833000  0.37009600  1
  Mo  Mo1  1  0.69609800  0.04167000  0.87009600  1
  Mo  Mo2  1  0.19609800  0.45833000  0.12990400  1
  Mo  Mo3  1  0.30390200  0.54167000  0.62990400  1
  Mo  Mo4  1  0.95833000  0.37009600  0.80390200  1
  Mo  Mo5  1  0.04167000  0.87009600  0.69609800  1
  Mo  Mo6  1  0.45833000  0.12990400  0.19609800  1
  Mo  Mo7  1  0.54167000  0.62990400  0.30390200  1
  Mo  Mo8  1  0.37009600  0.80390200  0.95833000  1
  Mo  Mo9  1  0.87009600  0.69609800  0.04167000  1
  Mo  Mo10  1  0.12990400  0.19609800  0.45833000  1
  Mo  Mo11  1  0.62990400  0.30390200  0.54167000  1
  Pd  Pd0  1  0.56212200  0.43787800  0.93787800  1
  Pd  Pd1  1  0.43787800  0.93787800  0.56212200  1
  Pd  Pd2  1  0.93787800  0.56212200  0.43787800  1
  Pd  Pd3  1  0.06212200  0.06212200  0.06212200  1
  N  N0  1  0.87435900  0.12564100  0.62564100  1
  N  N1  1  0.62564100  0.87435900  0.12564100  1
  N  N2  1  0.12564100  0.62564100  0.87435900  1
  N  N3  1  0.37435900  0.37435900  0.37435900  1
loop_
_geom_bond_atom_site_label_1
_geom_bond_atom_site_label_2
_geom_bond_distance
_geom_bond_site_symmetry_2
Fe0 Pd2 2.532980 1_455
Fe0 Pd1 2.532980 1_555
Fe0 Pd3 2.532980 1_565
Fe0 Mo7 2.744517 1_555
Fe0 Mo2 2.744517 1_555
Fe0 Mo8 2.744517 1_554
Fe0 Mo5 2.765027 1_555
Fe0 Mo0 2.765027 1_455
Fe0 Mo10 2.765027 1_565
Fe0 Mo3 2.941809 1_555
Fe0 Mo9 2.941809 1_455
Fe0 Mo6 2.941809 1_565
Fe1 Pd0 2.532980 1_555
Fe1 Pd1 2.532980 1_545
Fe1 Pd3 2.532980 1_556
Fe1 Mo3 2.744517 1_555
Fe1 Mo4 2.744517 1_455
Fe1 Mo10 2.744517 1_555
Fe1 Mo1 2.765027 1_555
Fe1 Mo8 2.765027 1_545
Fe1 Mo6 2.765027 1_556
Fe1 Mo11 2.941809 1_555
Fe1 Mo5 2.941809 1_545
Fe1 Mo2 2.941809 1_556
Fe2 Pd2 2.532980 1_555
Fe2 Pd0 2.532980 1_554
Fe2 Pd3 2.532980 1_655
Fe2 Mo11 2.744517 1_555
Fe2 Mo6 2.744517 1_555
Fe2 Mo0 2.744517 1_545
Fe2 Mo9 2.765027 1_555
Fe2 Mo4 2.765027 1_554
Fe2 Mo2 2.765027 1_655
Fe2 Mo7 2.941809 1_555
Fe2 Mo10 2.941809 1_655
Fe2 Mo1 2.941809 1_554
Fe3 Pd1 2.532980 1_555
Fe3 Pd2 2.532980 1_555
Fe3 Pd0 2.532980 1_555
Fe3 Mo1 2.744517 1_565
Fe3 Mo9 2.744517 1_556
Fe3 Mo5 2.744517 1_655
Fe3 Mo7 2.765027 1_555
Fe3 Mo11 2.765027 1_555
Fe3 Mo3 2.765027 1_555
Fe3 Mo0 2.941809 1_555
Fe3 Mo4 2.941809 1_555
Fe3 Mo8 2.941809 1_555
Mo0 N0 2.124816 1_565
Mo0 N1 2.128337 1_555
Mo1 N1 2.124816 1_546
Mo1 N0 2.128337 1_555
Mo2 N2 2.124816 1_554
Mo2 N3 2.128337 1_555
Mo3 N3 2.124816 1_555
Mo3 N2 2.128337 1_555
Mo4 N2 2.124816 1_655
Mo4 N0 2.128337 1_555
Mo5 N0 2.124816 1_465
Mo5 N2 2.128337 1_555
Mo6 N1 2.124816 1_545
Mo6 N3 2.128337 1_555
Mo7 N3 2.124816 1_555
Mo7 N1 2.128337 1_555
Mo8 N1 2.124816 1_556
Mo8 N2 2.128337 1_555
Mo9 N2 2.124816 1_654
Mo9 N1 2.128337 1_555
Mo10 N0 2.124816 1_455
Mo10 N3 2.128337 1_555
Mo11 N3 2.124816 1_555
Mo11 N0 2.128337 1_555
