# generated using pymatgen
data_BaSr7Ti6Mn2O20
_symmetry_space_group_name_H-M   'P 1'
_cell_length_a   11.29380353
_cell_length_b   11.39256120
_cell_length_c   17.89230462
_cell_angle_alpha   108.61012361
_cell_angle_beta   108.32626254
_cell_angle_gamma   90.00851235
_symmetry_Int_Tables_number   1
_chemical_formula_structural   BaSr7Ti6Mn2O20
_chemical_formula_sum   'Ba4 Sr28 Ti24 Mn8 O80'
_cell_volume   2058.13039015
_cell_formula_units_Z   4
loop_
 _symmetry_equiv_pos_site_id
 _symmetry_equiv_pos_as_xyz
  1  'x, y, z'
loop_
 _atom_site_type_symbol
 _atom_site_label
 _atom_site_symmetry_multiplicity
 _atom_site_fract_x
 _atom_site_fract_y
 _atom_site_fract_z
 _atom_site_occupancy
  Ba  Ba0  1  0.31040300  0.06058500  0.12209300  1
  Ba  Ba1  1  0.31069800  0.56261300  0.11888900  1
  Ba  Ba2  1  0.81108900  0.06376700  0.12249600  1
  Ba  Ba3  1  0.06250100  0.80654600  0.12162600  1
  Sr  Sr0  1  0.30192000  0.05786300  0.60496700  1
  Sr  Sr1  1  0.30651700  0.56164000  0.60869000  1
  Sr  Sr2  1  0.80454400  0.06166400  0.60833600  1
  Sr  Sr3  1  0.80877400  0.55937800  0.11275700  1
  Sr  Sr4  1  0.80510200  0.56157500  0.60975300  1
  Sr  Sr5  1  0.19666800  0.44260000  0.38862300  1
  Sr  Sr6  1  0.19467500  0.43956600  0.88946400  1
  Sr  Sr7  1  0.19142300  0.93299900  0.38255300  1
  Sr  Sr8  1  0.19590100  0.93880100  0.88973700  1
  Sr  Sr9  1  0.69591100  0.44196000  0.38800400  1
  Sr  Sr10  1  0.69520500  0.43762300  0.88733300  1
  Sr  Sr11  1  0.69882300  0.93426500  0.38616300  1
  Sr  Sr12  1  0.69874800  0.93711300  0.89381700  1
  Sr  Sr13  1  0.06008500  0.30534600  0.11220500  1
  Sr  Sr14  1  0.05707900  0.29748600  0.60913900  1
  Sr  Sr15  1  0.05591200  0.80054200  0.60929600  1
  Sr  Sr16  1  0.55504700  0.30587700  0.11360200  1
  Sr  Sr17  1  0.55647500  0.29830100  0.60926300  1
  Sr  Sr18  1  0.55809500  0.79739600  0.11202900  1
  Sr  Sr19  1  0.55455300  0.79206600  0.60422700  1
  Sr  Sr20  1  0.44075300  0.19667500  0.38573300  1
  Sr  Sr21  1  0.44457800  0.20196000  0.89026800  1
  Sr  Sr22  1  0.44652300  0.69271600  0.38527000  1
  Sr  Sr23  1  0.44592100  0.69980100  0.88941300  1
  Sr  Sr24  1  0.94792300  0.20107400  0.38838600  1
  Sr  Sr25  1  0.94431300  0.20375600  0.88808500  1
  Sr  Sr26  1  0.94590800  0.69788800  0.38853700  1
  Sr  Sr27  1  0.94582600  0.69910900  0.89051600  1
  Ti  Ti0  1  0.99755600  0.99797000  0.99276700  1
  Ti  Ti1  1  0.00292500  0.00025000  0.50049100  1
  Ti  Ti2  1  0.99905800  0.49731300  0.99680300  1
  Ti  Ti3  1  0.00567200  0.50350000  0.50555900  1
  Ti  Ti4  1  0.49872200  0.99731300  0.99274900  1
  Ti  Ti5  1  0.49888700  0.99335500  0.48994900  1
  Ti  Ti6  1  0.50127400  0.49646600  0.99486300  1
  Ti  Ti7  1  0.50347500  0.49876500  0.50152300  1
  Ti  Ti8  1  0.24988200  0.24848600  0.99657000  1
  Ti  Ti9  1  0.25349700  0.25180200  0.50260700  1
  Ti  Ti10  1  0.25202700  0.74916000  0.99780400  1
  Ti  Ti11  1  0.25304100  0.74967300  0.50054900  1
  Ti  Ti12  1  0.75595700  0.25451300  0.00670600  1
  Ti  Ti13  1  0.75609200  0.25282600  0.50354800  1
  Ti  Ti14  1  0.75106200  0.74757200  0.99850300  1
  Ti  Ti15  1  0.75408300  0.75039200  0.50137200  1
  Ti  Ti16  1  0.12071300  0.10786100  0.25553700  1
  Ti  Ti17  1  0.11561000  0.60678100  0.25109600  1
  Ti  Ti18  1  0.62030400  0.10283900  0.25425400  1
  Ti  Ti19  1  0.60263500  0.08439900  0.74877800  1
  Ti  Ti20  1  0.62230800  0.60856800  0.25110800  1
  Ti  Ti21  1  0.36653000  0.39377700  0.25194300  1
  Ti  Ti22  1  0.86613100  0.40112500  0.25286200  1
  Ti  Ti23  1  0.86799100  0.88113600  0.25186300  1
  Mn  Mn0  1  0.10549700  0.09399300  0.74873400  1
  Mn  Mn1  1  0.10745400  0.59288900  0.75039500  1
  Mn  Mn2  1  0.60626600  0.59319500  0.74939500  1
  Mn  Mn3  1  0.35476300  0.40871900  0.74850000  1
  Mn  Mn4  1  0.37479200  0.87536800  0.24961600  1
  Mn  Mn5  1  0.35525800  0.89862100  0.74777800  1
  Mn  Mn6  1  0.85728800  0.40980600  0.74921900  1
  Mn  Mn7  1  0.85728100  0.90668900  0.74788900  1
  O  O0  1  0.12257700  0.11853000  0.48755300  1
  O  O1  1  0.12146400  0.12367300  0.99362100  1
  O  O2  1  0.12425200  0.62175500  0.49234200  1
  O  O3  1  0.12486600  0.62434700  0.99480700  1
  O  O4  1  0.62445200  0.12104700  0.49150100  1
  O  O5  1  0.62330800  0.12409500  0.99452100  1
  O  O6  1  0.62200100  0.61957200  0.48919600  1
  O  O7  1  0.62493600  0.62223600  0.99545700  1
  O  O8  1  0.12759700  0.37450600  0.00428900  1
  O  O9  1  0.12978600  0.37677200  0.50518000  1
  O  O10  1  0.12684300  0.87855700  0.00290400  1
  O  O11  1  0.12916900  0.87516700  0.50253900  1
  O  O12  1  0.62950800  0.37524900  0.00379000  1
  O  O13  1  0.62885000  0.37351500  0.50130800  1
  O  O14  1  0.62856900  0.87838600  0.00785000  1
  O  O15  1  0.63114100  0.87919300  0.50857700  1
  O  O16  1  0.37427100  0.11801100  0.49108200  1
  O  O17  1  0.37615800  0.12220000  0.99510600  1
  O  O18  1  0.37452900  0.61991900  0.49144600  1
  O  O19  1  0.37651800  0.62110500  0.99330000  1
  O  O20  1  0.87311900  0.11979100  0.48964600  1
  O  O21  1  0.87375800  0.12366900  0.99416100  1
  O  O22  1  0.87510700  0.62110600  0.49328800  1
  O  O23  1  0.87256100  0.62051800  0.99510100  1
  O  O24  1  0.38239400  0.37662300  0.00542100  1
  O  O25  1  0.38036500  0.37810900  0.50596700  1
  O  O26  1  0.38355100  0.88040700  0.00409800  1
  O  O27  1  0.38233500  0.88021900  0.50665000  1
  O  O28  1  0.87704200  0.37641100  0.00231500  1
  O  O29  1  0.88106300  0.37930400  0.50469300  1
  O  O30  1  0.88001700  0.88087800  0.00664500  1
  O  O31  1  0.88003600  0.87914700  0.50681300  1
  O  O32  1  0.06865300  0.09518300  0.14041500  1
  O  O33  1  0.07322800  0.07921800  0.62334000  1
  O  O34  1  0.06018900  0.56815500  0.13023300  1
  O  O35  1  0.07151700  0.58033200  0.62481900  1
  O  O36  1  0.57391700  0.09786400  0.14177700  1
  O  O37  1  0.58669400  0.09738500  0.64577000  1
  O  O38  1  0.57401700  0.57653400  0.13259900  1
  O  O39  1  0.57165600  0.57864200  0.62343000  1
  O  O40  1  0.43148800  0.41526100  0.36964800  1
  O  O41  1  0.44507900  0.41811600  0.87216900  1
  O  O42  1  0.44761300  0.91562100  0.37711200  1
  O  O43  1  0.44725100  0.92262600  0.87263200  1
  O  O44  1  0.93813900  0.42033100  0.36847600  1
  O  O45  1  0.94577600  0.42204100  0.87277100  1
  O  O46  1  0.93300100  0.91256600  0.37086800  1
  O  O47  1  0.93623800  0.92082200  0.87185100  1
  O  O48  1  0.31597100  0.30705400  0.13151600  1
  O  O49  1  0.31753400  0.29179700  0.62328500  1
  O  O50  1  0.32273800  0.80577200  0.12116400  1
  O  O51  1  0.32047300  0.79582100  0.62410200  1
  O  O52  1  0.81815600  0.31271700  0.13077200  1
  O  O53  1  0.82040100  0.29713300  0.62247500  1
  O  O54  1  0.81380100  0.79851500  0.13135500  1
  O  O55  1  0.81554100  0.79346700  0.62574900  1
  O  O56  1  0.18617500  0.21253900  0.37073300  1
  O  O57  1  0.19702500  0.20265700  0.87349500  1
  O  O58  1  0.18902800  0.69713800  0.37113400  1
  O  O59  1  0.19735200  0.70510600  0.87380300  1
  O  O60  1  0.69922800  0.20923800  0.36575100  1
  O  O61  1  0.68622200  0.19713100  0.85364100  1
  O  O62  1  0.69217300  0.70140500  0.37235300  1
  O  O63  1  0.69363200  0.70531700  0.87487300  1
  O  O64  1  0.48038400  0.04050600  0.26189900  1
  O  O65  1  0.43930200  0.06728000  0.74725700  1
  O  O66  1  0.48010400  0.52038900  0.25788100  1
  O  O67  1  0.42285100  0.57686500  0.74828000  1
  O  O68  1  0.98129000  0.02166000  0.25938600  1
  O  O69  1  0.92297300  0.07411600  0.74803600  1
  O  O70  1  0.96251400  0.53772400  0.25236400  1
  O  O71  1  0.92440700  0.57843000  0.74925200  1
  O  O72  1  0.21349800  0.46874300  0.25135200  1
  O  O73  1  0.17255800  0.42245900  0.74872700  1
  O  O74  1  0.23203600  0.99377300  0.25994700  1
  O  O75  1  0.17720800  0.92687400  0.74930500  1
  O  O76  1  0.71054800  0.45676100  0.25174600  1
  O  O77  1  0.67467500  0.42631500  0.74798900  1
  O  O78  1  0.71823600  0.97034600  0.25010300  1
  O  O79  1  0.66544200  0.93456800  0.74859700  1
loop_
_geom_bond_atom_site_label_1
_geom_bond_atom_site_label_2
_geom_bond_distance
_geom_bond_site_symmetry_2
Ba0 O64 2.709330 1_555
Ba0 O10 2.746262 1_545
Ba0 O48 2.758239 1_555
Ba0 O26 2.772095 1_545
Ba0 O32 2.863205 1_555
Ba0 O17 2.878453 1_554
Ba0 O1 2.885152 1_554
Ba0 O36 2.899389 1_555
Ba0 O50 2.901329 1_545
Ba0 O74 3.165016 1_545
Ba1 O24 2.748775 1_555
Ba1 O8 2.756954 1_555
Ba1 O50 2.760184 1_555
Ba1 O66 2.801464 1_555
Ba1 O3 2.809838 1_554
Ba1 O19 2.837602 1_554
Ba1 O34 2.898714 1_555
Ba1 O38 2.906119 1_555
Ba1 O48 2.990431 1_555
Ba2 O14 2.737131 1_545
Ba2 O30 2.739088 1_545
Ba2 O68 2.777319 1_555
Ba2 O52 2.792249 1_555
Ba2 O36 2.817897 1_555
Ba2 O32 2.834153 1_655
Ba2 O5 2.857299 1_554
Ba2 O21 2.874240 1_554
Ba2 O54 3.075815 1_545
Ba2 O78 3.240625 1_545
Ba3 O30 2.764623 1_455
Ba3 O34 2.769454 1_555
Ba3 O10 2.792157 1_555
Ba3 O3 2.820060 1_554
Ba3 O74 2.826720 1_555
Ba3 O23 2.846172 1_454
Ba3 O54 2.871483 1_455
Ba3 O50 2.941682 1_555
Ba3 O32 3.195393 1_565
Ba3 O68 3.238750 1_465
Mn0 O69 2.069452 1_455
Mn0 O75 2.070889 1_545
Mn0 O57 2.090176 1_555
Mn0 O33 2.107034 1_555
Mn1 O71 2.066986 1_455
Mn1 O73 2.070917 1_555
Mn1 O59 2.080590 1_555
Mn1 O35 2.110656 1_555
Mn2 O77 2.047974 1_555
Mn2 O67 2.073031 1_555
Mn2 O63 2.102817 1_555
Mn2 O39 2.113621 1_555
Mn3 O73 2.064934 1_555
Mn3 O67 2.065717 1_555
Mn3 O41 2.092242 1_555
Mn3 O49 2.114988 1_555
Mn4 O42 2.059839 1_555
Mn4 O50 2.059994 1_555
Mn4 O74 2.117094 1_555
Mn4 O64 2.140215 1_565
Mn5 O75 2.043782 1_555
Mn5 O51 2.054685 1_555
Mn5 O43 2.072459 1_555
Mn5 O65 2.146969 1_565
Mn6 O77 2.064836 1_555
Mn6 O71 2.064858 1_555
Mn6 O45 2.078233 1_555
Mn6 O53 2.124086 1_555
Mn7 O69 2.045447 1_565
Mn7 O55 2.052968 1_555
Mn7 O47 2.066092 1_555
Mn7 O79 2.193184 1_555
O0 Ti9 2.012932 1_555
O0 Ti1 2.022556 1_555
O0 Sr24 2.605369 1_455
O0 Sr7 2.643156 1_545
O0 Sr0 2.691633 1_555
O0 Sr14 2.760067 1_555
O1 Ti0 1.995338 1_445
O1 Ti8 2.007866 1_555
O1 Sr8 2.661216 1_545
O1 Sr25 2.669304 1_455
O1 Sr13 2.718192 1_556
O2 Ti11 1.997353 1_555
O2 Ti3 2.016537 1_555
O2 Sr5 2.610751 1_555
O2 Sr26 2.633441 1_455
O2 Sr1 2.693614 1_555
O2 Sr15 2.723791 1_555
O3 Ti10 1.997388 1_555
O3 Ti2 2.044234 1_455
O3 Sr27 2.634052 1_455
O3 Sr6 2.647310 1_555
O4 Ti5 2.019134 1_545
O4 Ti13 2.025330 1_555
O4 Sr2 2.682122 1_555
O4 Sr20 2.683300 1_555
O4 Sr11 2.687390 1_545
O4 Sr17 2.721923 1_555
O5 Ti4 2.002278 1_545
O5 Ti12 2.021547 1_556
O5 Sr12 2.650738 1_545
O5 Sr21 2.651363 1_555
O5 Sr16 2.764046 1_556
O6 Ti15 2.020300 1_555
O6 Ti7 2.028198 1_555
O6 Sr9 2.584931 1_555
O6 Sr22 2.598397 1_555
O6 Sr19 2.661391 1_555
O6 Sr4 2.733250 1_555
O7 Ti14 1.992939 1_555
O7 Ti6 1.996004 1_555
O7 Sr23 2.669595 1_555
O7 Sr10 2.676745 1_555
O7 Sr18 2.690049 1_556
O7 Sr3 2.729072 1_556
O8 Ti8 1.995394 1_554
O8 Ti2 2.020082 1_454
O8 Sr13 2.612861 1_555
O8 Sr25 2.665088 1_454
O8 Sr6 2.700870 1_554
O9 Ti9 1.995095 1_555
O9 Ti3 2.012368 1_555
O9 Sr14 2.642469 1_555
O9 Sr1 2.652206 1_555
O9 Sr24 2.687385 1_455
O9 Sr5 2.733286 1_555
O10 Ti0 2.001796 1_454
O10 Ti10 2.043579 1_554
O10 Sr8 2.656906 1_554
O10 Sr27 2.681835 1_454
O11 Ti11 2.000474 1_555
O11 Ti1 2.016414 1_565
O11 Sr0 2.610162 1_565
O11 Sr15 2.661949 1_555
O11 Sr26 2.690336 1_455
O11 Sr7 2.718292 1_555
O12 Ti12 1.983349 1_555
O12 Ti6 2.006473 1_554
O12 Sr21 2.675238 1_554
O12 Sr3 2.684523 1_555
O12 Sr16 2.687406 1_555
O12 Sr10 2.704500 1_554
O13 Ti13 1.989159 1_555
O13 Ti7 2.010367 1_555
O13 Sr17 2.679990 1_555
O13 Sr4 2.689613 1_555
O13 Sr9 2.695512 1_555
O13 Sr20 2.724893 1_555
O14 Ti4 2.011046 1_554
O14 Ti14 2.037115 1_554
O14 Sr18 2.643825 1_555
O14 Sr12 2.669597 1_554
O14 Sr23 2.717198 1_554
O15 Ti5 1.999455 1_555
O15 Ti15 2.022404 1_555
O15 Sr19 2.584024 1_555
O15 Sr2 2.602882 1_565
O15 Sr11 2.775787 1_555
O15 Sr22 2.800455 1_555
O16 Ti5 1.999536 1_545
O16 Ti9 2.050159 1_555
O16 Sr20 2.624473 1_555
O16 Sr0 2.688380 1_555
O16 Sr7 2.709703 1_545
O16 Sr17 2.723024 1_555
O17 Ti4 1.985229 1_545
O17 Ti8 2.025961 1_555
O17 Sr21 2.634496 1_555
O17 Sr8 2.671198 1_545
O17 Sr16 2.725631 1_556
O18 Ti7 2.013134 1_555
O18 Ti11 2.020325 1_555
O18 Sr5 2.608309 1_555
O18 Sr22 2.633373 1_555
O18 Sr19 2.635312 1_555
O18 Sr1 2.708052 1_555
O19 Ti6 2.000854 1_555
O19 Ti10 2.026920 1_555
O19 Sr23 2.617801 1_555
O19 Sr6 2.663395 1_555
O19 Sr18 2.699625 1_556
O20 Ti1 2.007960 1_655
O20 Ti13 2.018043 1_555
O20 Sr24 2.624291 1_555
O20 Sr11 2.641865 1_545
O20 Sr14 2.725557 1_655
O20 Sr2 2.734937 1_555
O21 Ti0 2.001473 1_545
O21 Ti12 2.004311 1_556
O21 Sr12 2.641761 1_545
O21 Sr25 2.669398 1_555
O21 Sr13 2.754390 1_656
O22 Ti3 2.000620 1_655
O22 Ti15 2.011840 1_555
O22 Sr26 2.627919 1_555
O22 Sr9 2.637661 1_555
O22 Sr15 2.698538 1_655
O22 Sr4 2.713910 1_555
O23 Ti14 1.994655 1_555
O23 Ti2 2.003144 1_555
O23 Sr27 2.651563 1_555
O23 Sr10 2.660324 1_555
O23 Sr3 2.706503 1_556
O24 Ti6 2.006475 1_554
O24 Ti8 2.024496 1_554
O24 Sr16 2.611712 1_555
O24 Sr21 2.644133 1_554
O24 Sr6 2.738130 1_554
O25 Ti7 1.991900 1_555
O25 Ti9 2.004297 1_555
O25 Sr1 2.637648 1_555
O25 Sr17 2.638156 1_555
O25 Sr20 2.729565 1_555
O25 Sr5 2.738228 1_555
O26 Ti4 1.960904 1_554
O26 Ti10 2.059497 1_554
O26 Sr23 2.674880 1_554
O26 Sr8 2.695000 1_554
O26 Sr18 2.698483 1_555
O27 Ti5 1.993976 1_555
O27 Ti11 2.037542 1_555
O27 Sr0 2.597710 1_565
O27 Sr19 2.612268 1_555
O27 Sr7 2.789705 1_555
O27 Sr22 2.799056 1_555
O28 Ti12 1.985312 1_555
O28 Ti2 1.994358 1_554
O28 Sr25 2.652269 1_554
O28 Sr3 2.678403 1_555
O28 Sr10 2.682428 1_554
O28 Sr13 2.693574 1_655
O29 Ti3 1.988576 1_655
O29 Ti13 2.007748 1_555
O29 Sr14 2.662531 1_655
O29 Sr4 2.665477 1_555
O29 Sr24 2.704693 1_555
O29 Sr9 2.728982 1_555
O30 Ti0 2.005364 1_554
O30 Ti14 2.042903 1_554
O30 Sr12 2.627513 1_554
O30 Sr27 2.717228 1_554
O31 Ti15 2.001437 1_555
O31 Ti1 2.010044 1_665
O31 Sr15 2.620653 1_655
O31 Sr2 2.629423 1_565
O31 Sr11 2.707417 1_555
O31 Sr26 2.738146 1_555
O32 Ti16 1.912544 1_555
O32 Ti0 2.376685 1_444
O32 Sr13 2.595662 1_555
O33 Ti1 1.977721 1_555
O33 Sr14 2.579810 1_555
O33 Sr0 2.705772 1_555
O33 Sr2 2.961978 1_455
O33 Sr15 3.104945 1_545
O34 Ti17 1.950193 1_555
O34 Ti2 2.135675 1_454
O34 Sr3 2.755317 1_455
O34 Sr13 2.907205 1_555
O35 Ti3 1.918920 1_555
O35 Sr15 2.610773 1_555
O35 Sr1 2.759560 1_555
O35 Sr4 2.936738 1_455
O35 Sr14 3.143700 1_555
O36 Ti18 1.895231 1_555
O36 Ti4 2.401994 1_544
O36 Sr16 2.571106 1_555
O37 Ti19 1.848381 1_555
O37 Ti5 2.512573 1_545
O37 Sr17 2.568411 1_555
O37 Sr2 2.744118 1_555
O37 Sr0 3.064760 1_555
O38 Ti20 1.924976 1_555
O38 Ti6 2.207292 1_554
O38 Sr18 2.654912 1_555
O38 Sr3 2.782339 1_555
O38 Sr16 2.992379 1_555
O39 Ti7 1.963512 1_555
O39 Sr19 2.561035 1_555
O39 Sr4 2.724756 1_555
O39 Sr1 2.923058 1_555
O39 Sr17 3.122470 1_555
O40 Ti21 1.932035 1_555
O40 Ti7 2.119952 1_555
O40 Sr20 2.594940 1_555
O40 Sr5 2.782875 1_555
O40 Sr9 2.904790 1_555
O40 Sr22 3.082933 1_555
O41 Ti6 1.972763 1_555
O41 Sr21 2.584431 1_555
O41 Sr10 2.753591 1_555
O41 Sr6 2.942006 1_555
O41 Sr23 3.124082 1_555
O42 Ti5 1.821842 1_555
O42 Sr22 2.589983 1_555
O42 Sr11 2.794550 1_555
O42 Sr7 2.930052 1_555
O42 Sr20 3.158240 1_565
O43 Ti4 1.930774 1_555
O43 Sr23 2.650264 1_555
O43 Sr12 2.742523 1_555
O43 Sr8 2.948953 1_555
O43 Sr21 3.097225 1_565
O44 Ti22 1.908272 1_555
O44 Ti3 2.198970 1_655
O44 Sr24 2.630947 1_555
O44 Sr5 2.828238 1_655
O44 Sr9 2.865843 1_555
O44 Sr26 3.064477 1_555
O45 Ti2 1.991942 1_555
O45 Sr25 2.587931 1_555
O45 Sr6 2.732156 1_655
O45 Sr10 2.922675 1_555
O45 Sr27 3.069955 1_555
O46 Ti23 1.931651 1_555
O46 Ti1 2.090396 1_665
O46 Sr26 2.562697 1_555
O46 Sr11 2.746438 1_555
O46 Sr7 2.863730 1_655
O47 Ti0 1.943363 1_555
O47 Sr27 2.649350 1_555
O47 Sr12 2.828325 1_555
O47 Sr8 2.848196 1_655
O47 Sr25 3.141386 1_565
O48 Ti21 1.952526 1_555
O48 Ti8 2.161109 1_554
O48 Sr13 2.799857 1_555
O48 Sr16 2.816884 1_555
O49 Ti9 1.944941 1_555
O49 Sr0 2.578240 1_555
O49 Sr17 2.790731 1_555
O49 Sr14 2.874575 1_555
O49 Sr1 3.166459 1_555
O50 Ti10 1.976927 1_554
O50 Sr18 2.713764 1_555
O51 Ti11 1.985629 1_555
O51 Sr1 2.592619 1_555
O51 Sr19 2.774655 1_555
O51 Sr15 2.917533 1_555
O51 Sr0 3.111388 1_565
O52 Ti22 1.982720 1_555
O52 Ti12 1.985084 1_555
O52 Sr13 2.852356 1_655
O52 Sr16 2.888054 1_555
O52 Sr3 2.927203 1_555
O53 Ti13 1.911187 1_555
O53 Sr2 2.613543 1_555
O53 Sr14 2.757454 1_655
O53 Sr17 2.915427 1_555
O53 Sr4 3.093698 1_555
O54 Ti23 1.945310 1_555
O54 Ti14 2.132923 1_554
O54 Sr3 2.635464 1_555
O54 Sr18 2.798010 1_555
O55 Ti15 2.001620 1_555
O55 Sr4 2.563445 1_555
O55 Sr15 2.824961 1_655
O55 Sr19 2.849362 1_555
O55 Sr2 3.167276 1_565
O56 Ti16 1.920844 1_555
O56 Ti9 2.131584 1_555
O56 Sr5 2.535083 1_555
O56 Sr20 2.813728 1_555
O56 Sr24 2.813851 1_455
O57 Ti8 1.979293 1_555
O57 Sr6 2.622887 1_555
O57 Sr21 2.716726 1_555
O57 Sr25 2.946274 1_455
O57 Sr8 3.111348 1_545
O58 Ti17 1.956725 1_555
O58 Ti11 2.074894 1_555
O58 Sr7 2.628474 1_555
O58 Sr22 2.840629 1_555
O58 Sr26 2.858694 1_455
O58 Sr5 3.012754 1_555
O59 Ti10 1.995826 1_555
O59 Sr8 2.586181 1_555
O59 Sr23 2.735012 1_555
O59 Sr27 2.951398 1_455
O59 Sr6 3.126898 1_555
O60 Ti18 1.892526 1_555
O60 Ti13 2.227220 1_555
O60 Sr9 2.554402 1_555
O60 Sr24 2.714835 1_555
O60 Sr20 3.059198 1_555
O61 Ti19 1.846272 1_555
O61 Ti12 2.459429 1_556
O61 Sr10 2.605302 1_555
O61 Sr25 2.778907 1_555
O61 Sr21 2.997016 1_555
O62 Ti20 1.976415 1_555
O62 Ti15 2.071683 1_555
O62 Sr11 2.583470 1_555
O62 Sr26 2.789790 1_555
O62 Sr22 2.859688 1_555
O62 Sr9 3.055733 1_555
O63 Ti14 1.990856 1_555
O63 Sr12 2.551105 1_555
O63 Sr27 2.776172 1_555
O63 Sr23 2.892449 1_555
O63 Sr10 3.127664 1_555
O64 Ti18 1.793799 1_555
O64 Sr20 2.526425 1_555
O65 Ti19 1.845657 1_555
O65 Sr0 2.498403 1_555
O65 Sr21 2.510671 1_555
O66 Ti21 1.884972 1_555
O66 Ti20 1.950077 1_555
O66 Sr22 2.623180 1_555
O66 Sr9 3.149472 1_555
O67 Sr1 2.377836 1_555
O67 Sr23 2.394765 1_555
O68 Ti16 1.886658 1_655
O68 Ti23 1.992975 1_545
O68 Sr24 2.680174 1_555
O68 Sr7 3.105057 1_645
O69 Sr2 2.393342 1_555
O69 Sr25 2.403424 1_555
O70 Ti22 1.902951 1_555
O70 Ti17 1.909107 1_655
O70 Sr26 2.598240 1_555
O70 Sr3 2.642177 1_555
O71 Sr4 2.379354 1_555
O71 Sr27 2.394715 1_555
O72 Ti17 1.922819 1_555
O72 Ti21 1.926473 1_555
O72 Sr5 2.630149 1_555
O72 Sr13 2.644613 1_555
O73 Sr14 2.376403 1_555
O73 Sr6 2.394257 1_555
O74 Ti16 1.811035 1_565
O74 Sr7 2.665365 1_555
O74 Sr20 3.050698 1_565
O75 Sr15 2.400765 1_555
O75 Sr8 2.413494 1_555
O76 Ti22 1.864397 1_555
O76 Ti20 1.997573 1_555
O76 Sr9 2.552502 1_555
O76 Sr16 2.589590 1_555
O77 Sr17 2.382274 1_555
O77 Sr10 2.391191 1_555
O78 Ti18 1.867565 1_565
O78 Ti23 1.970247 1_555
O78 Sr11 2.667916 1_555
O78 Sr18 2.709029 1_555
O79 Ti19 1.848011 1_565
O79 Sr19 2.482940 1_555
O79 Sr12 2.496176 1_555
