# generated using pymatgen
data_Ca7MgCo7CuO24
_symmetry_space_group_name_H-M   'P 1'
_cell_length_a   7.55327122
_cell_length_b   7.55327122
_cell_length_c   7.55327142
_cell_angle_alpha   89.96144277
_cell_angle_beta   89.96144277
_cell_angle_gamma   89.96144501
_symmetry_Int_Tables_number   1
_chemical_formula_structural   Ca7MgCo7CuO24
_chemical_formula_sum   'Ca7 Mg1 Co7 Cu1 O24'
_cell_volume   430.92823970
_cell_formula_units_Z   1
loop_
 _symmetry_equiv_pos_site_id
 _symmetry_equiv_pos_as_xyz
  1  'x, y, z'
loop_
 _atom_site_type_symbol
 _atom_site_label
 _atom_site_symmetry_multiplicity
 _atom_site_fract_x
 _atom_site_fract_y
 _atom_site_fract_z
 _atom_site_occupancy
  Ca  Ca0  1  0.24900400  0.24900400  0.75114100  1
  Ca  Ca1  1  0.75096600  0.24893300  0.75096600  1
  Ca  Ca2  1  0.75114100  0.24900400  0.24900400  1
  Ca  Ca3  1  0.24893300  0.75096600  0.75096600  1
  Ca  Ca4  1  0.75095700  0.75095700  0.75095700  1
  Ca  Ca5  1  0.24900400  0.75114100  0.24900400  1
  Ca  Ca6  1  0.75096600  0.75096600  0.24893300  1
  Mg  Mg0  1  0.24892200  0.24892200  0.24892200  1
  Co  Co0  1  0.49960400  0.00044400  0.00044400  1
  Co  Co1  1  0.00044400  0.00044400  0.49960400  1
  Co  Co2  1  0.49961800  0.00017500  0.49961800  1
  Co  Co3  1  0.00044400  0.49960400  0.00044400  1
  Co  Co4  1  0.49961800  0.49961800  0.00017500  1
  Co  Co5  1  0.00017500  0.49961800  0.49961800  1
  Co  Co6  1  0.49932600  0.49932600  0.49932600  1
  Cu  Cu0  1  0.00023100  0.00023100  0.00023100  1
  O  O0  1  0.00187800  0.25337300  0.00187800  1
  O  O1  1  0.49835500  0.25135700  0.00183000  1
  O  O2  1  0.00183000  0.25135700  0.49835500  1
  O  O3  1  0.49838000  0.24927900  0.49838000  1
  O  O4  1  0.00021800  0.74640200  0.00021800  1
  O  O5  1  0.49978500  0.74863800  0.00016000  1
  O  O6  1  0.00016000  0.74863800  0.49978500  1
  O  O7  1  0.49976900  0.75085400  0.49976900  1
  O  O8  1  0.00021800  0.00021800  0.74640200  1
  O  O9  1  0.49978500  0.00016000  0.74863800  1
  O  O10  1  0.00187800  0.00187800  0.25337300  1
  O  O11  1  0.49835500  0.00183000  0.25135700  1
  O  O12  1  0.00016000  0.49978500  0.74863800  1
  O  O13  1  0.49976900  0.49976900  0.75085400  1
  O  O14  1  0.00183000  0.49835500  0.25135700  1
  O  O15  1  0.49838000  0.49838000  0.24927900  1
  O  O16  1  0.25337300  0.00187800  0.00187800  1
  O  O17  1  0.74640200  0.00021800  0.00021800  1
  O  O18  1  0.25135700  0.00183000  0.49835500  1
  O  O19  1  0.74863800  0.00016000  0.49978500  1
  O  O20  1  0.25135700  0.49835500  0.00183000  1
  O  O21  1  0.74863800  0.49978500  0.00016000  1
  O  O22  1  0.24927900  0.49838000  0.49838000  1
  O  O23  1  0.75085400  0.49976900  0.49976900  1
loop_
_geom_bond_atom_site_label_1
_geom_bond_atom_site_label_2
_geom_bond_distance
_geom_bond_site_symmetry_2
Ca0 O0 2.658451 1_556
Ca0 O16 2.658451 1_556
Ca0 O8 2.658686 1_555
Ca0 O12 2.667671 1_555
Ca0 O9 2.667671 1_555
Ca0 O18 2.671380 1_555
Ca0 O2 2.671380 1_555
Ca0 O1 2.671682 1_556
Ca0 O20 2.671682 1_556
Ca0 O13 2.679556 1_555
Ca0 O22 2.681058 1_555
Ca0 O3 2.681058 1_555
Ca1 O17 2.658956 1_556
Ca1 O8 2.658956 1_655
Ca1 O9 2.671243 1_555
Ca1 O19 2.671243 1_555
Ca1 O12 2.671685 1_655
Ca1 O21 2.671685 1_556
Ca1 O23 2.680441 1_555
Ca1 O13 2.680441 1_555
Ca1 O0 2.681370 1_656
Ca1 O2 2.688218 1_655
Ca1 O1 2.688218 1_556
Ca1 O3 2.699015 1_555
Ca2 O0 2.658451 1_655
Ca2 O10 2.658451 1_655
Ca2 O17 2.658686 1_555
Ca2 O19 2.667671 1_555
Ca2 O21 2.667671 1_555
Ca2 O11 2.671380 1_555
Ca2 O1 2.671380 1_555
Ca2 O14 2.671682 1_655
Ca2 O2 2.671682 1_655
Ca2 O23 2.679556 1_555
Ca2 O3 2.681058 1_555
Ca2 O15 2.681058 1_555
Ca3 O4 2.658956 1_556
Ca3 O8 2.658956 1_565
Ca3 O12 2.671243 1_555
Ca3 O6 2.671243 1_555
Ca3 O9 2.671685 1_565
Ca3 O5 2.671685 1_556
Ca3 O7 2.680441 1_555
Ca3 O13 2.680441 1_555
Ca3 O16 2.681370 1_566
Ca3 O18 2.688218 1_565
Ca3 O20 2.688218 1_556
Ca3 O22 2.699015 1_555
Ca4 O8 2.663676 1_665
Ca4 O17 2.663676 1_566
Ca4 O4 2.663676 1_656
Ca4 O21 2.671666 1_556
Ca4 O5 2.671666 1_556
Ca4 O6 2.671666 1_655
Ca4 O19 2.671666 1_565
Ca4 O12 2.671666 1_655
Ca4 O9 2.671666 1_565
Ca4 O13 2.684078 1_555
Ca4 O23 2.684078 1_555
Ca4 O7 2.684078 1_555
Ca5 O16 2.658451 1_565
Ca5 O10 2.658451 1_565
Ca5 O4 2.658686 1_555
Ca5 O6 2.667671 1_555
Ca5 O5 2.667671 1_555
Ca5 O14 2.671380 1_555
Ca5 O20 2.671380 1_555
Ca5 O11 2.671682 1_565
Ca5 O18 2.671682 1_565
Ca5 O7 2.679556 1_555
Ca5 O22 2.681058 1_555
Ca5 O15 2.681058 1_555
Ca6 O17 2.658956 1_565
Ca6 O4 2.658956 1_655
Ca6 O5 2.671243 1_555
Ca6 O21 2.671243 1_555
Ca6 O6 2.671685 1_655
Ca6 O19 2.671685 1_565
Ca6 O23 2.680441 1_555
Ca6 O7 2.680441 1_555
Ca6 O10 2.681370 1_665
Ca6 O11 2.688218 1_565
Ca6 O14 2.688218 1_655
Ca6 O15 2.699015 1_555
Mg0 O10 2.639979 1_555
Mg0 O16 2.639979 1_555
Mg0 O0 2.639979 1_555
Mg0 O20 2.651126 1_555
Mg0 O1 2.651126 1_555
Mg0 O18 2.651126 1_555
Mg0 O2 2.651126 1_555
Mg0 O14 2.651126 1_555
Mg0 O11 2.651126 1_555
Mg0 O15 2.665595 1_555
Mg0 O22 2.665595 1_555
Mg0 O3 2.665595 1_555
Co0 O16 1.859898 1_555
Co0 O17 1.864131 1_555
Co0 O1 1.895267 1_555
Co0 O11 1.895267 1_555
Co0 O5 1.901961 1_545
Co0 O9 1.901961 1_554
Co1 O10 1.859898 1_555
Co1 O8 1.864132 1_555
Co1 O2 1.895267 1_555
Co1 O18 1.895267 1_555
Co1 O6 1.901961 1_545
Co1 O19 1.901961 1_455
Co2 O18 1.875247 1_555
Co2 O11 1.875247 1_555
Co2 O19 1.880917 1_555
Co2 O9 1.880917 1_555
Co2 O3 1.881584 1_555
Co2 O7 1.883188 1_545
Co3 O0 1.859898 1_555
Co3 O4 1.864131 1_555
Co3 O20 1.895267 1_555
Co3 O14 1.895267 1_555
Co3 O21 1.901961 1_455
Co3 O12 1.901961 1_554
Co4 O20 1.875247 1_555
Co4 O1 1.875247 1_555
Co4 O21 1.880917 1_555
Co4 O5 1.880917 1_555
Co4 O15 1.881584 1_555
Co4 O13 1.883188 1_554
Co5 O2 1.875247 1_555
Co5 O14 1.875247 1_555
Co5 O6 1.880917 1_555
Co5 O12 1.880917 1_555
Co5 O22 1.881584 1_555
Co5 O23 1.883188 1_455
Co6 O3 1.888709 1_555
Co6 O22 1.888709 1_555
Co6 O15 1.888710 1_555
Co6 O23 1.899870 1_555
Co6 O7 1.899870 1_555
Co6 O13 1.899870 1_555
Cu0 O16 1.912148 1_555
Cu0 O0 1.912148 1_555
Cu0 O10 1.912148 1_555
Cu0 O17 1.917239 1_455
Cu0 O4 1.917239 1_545
Cu0 O8 1.917239 1_554
