# generated using pymatgen
data_Mn3VCu2(PO4)6
_symmetry_space_group_name_H-M   'P 1'
_cell_length_a   8.54036711
_cell_length_b   8.58319543
_cell_length_c   8.58319589
_cell_angle_alpha   59.99999599
_cell_angle_beta   59.83397155
_cell_angle_gamma   59.83396853
_symmetry_Int_Tables_number   1
_chemical_formula_structural   Mn3VCu2(PO4)6
_chemical_formula_sum   'Mn3 V1 Cu2 P6 O24'
_cell_volume   443.77731972
_cell_formula_units_Z   1
loop_
 _symmetry_equiv_pos_site_id
 _symmetry_equiv_pos_as_xyz
  1  'x, y, z'
loop_
 _atom_site_type_symbol
 _atom_site_label
 _atom_site_symmetry_multiplicity
 _atom_site_fract_x
 _atom_site_fract_y
 _atom_site_fract_z
 _atom_site_occupancy
  Mn  Mn0  1  0.07276400  0.64241200  0.64241200  1
  Mn  Mn1  1  0.42845500  0.85718100  0.85718100  1
  Mn  Mn2  1  0.92919900  0.35693400  0.35693400  1
  V  V0  1  0.57295900  0.14234700  0.14234700  1
  Cu  Cu0  1  0.99741700  0.00086100  0.00086100  1
  Cu  Cu1  1  0.50306400  0.49897900  0.49897900  1
  P  P0  1  0.25027400  0.24958100  0.54297900  1
  P  P1  1  0.25027400  0.95716600  0.24958100  1
  P  P2  1  0.25027400  0.54297900  0.95716600  1
  P  P3  1  0.74984100  0.45870200  0.04228600  1
  P  P4  1  0.74984100  0.04228600  0.74917100  1
  P  P5  1  0.74984100  0.74917100  0.45870200  1
  O  O0  1  0.06443000  0.11355200  0.31188000  1
  O  O1  1  0.06443000  0.51014000  0.11355200  1
  O  O2  1  0.06443000  0.31188000  0.51014000  1
  O  O3  1  0.23342300  0.08475000  0.73997900  1
  O  O4  1  0.43283200  0.18409600  0.38223800  1
  O  O5  1  0.27450100  0.41381800  0.55146500  1
  O  O6  1  0.23342300  0.94184800  0.08475000  1
  O  O7  1  0.27450100  0.76021500  0.41381800  1
  O  O8  1  0.56469300  0.61726900  0.00865300  1
  O  O9  1  0.27450100  0.55146500  0.76021500  1
  O  O10  1  0.76043800  0.26075600  0.06392400  1
  O  O11  1  0.56469300  0.00865300  0.80938400  1
  O  O12  1  0.43283200  0.00083400  0.18409600  1
  O  O13  1  0.23342300  0.73997900  0.94184800  1
  O  O14  1  0.73205000  0.44248600  0.24034300  1
  O  O15  1  0.43283200  0.38223800  0.00083400  1
  O  O16  1  0.73205000  0.24034300  0.58512100  1
  O  O17  1  0.76043800  0.06392400  0.91488200  1
  O  O18  1  0.73205000  0.58512100  0.44248600  1
  O  O19  1  0.56469300  0.80938400  0.61726900  1
  O  O20  1  0.76043800  0.91488200  0.26075600  1
  O  O21  1  0.93623400  0.69182400  0.48785200  1
  O  O22  1  0.93623400  0.48785200  0.88409100  1
  O  O23  1  0.93623400  0.88409100  0.69182400  1
loop_
_geom_bond_atom_site_label_1
_geom_bond_atom_site_label_2
_geom_bond_distance
_geom_bond_site_symmetry_2
Mn0 O21 1.947912 1_455
Mn0 O22 1.947916 1_455
Mn0 O23 1.947919 1_455
Mn0 O9 2.051825 1_555
Mn0 O7 2.051828 1_555
Mn0 O5 2.051832 1_555
Mn1 O19 1.928614 1_555
Mn1 O8 1.928618 1_556
Mn1 O11 1.928622 1_565
Mn1 O13 2.012679 1_555
Mn1 O3 2.012684 1_565
Mn1 O6 2.012692 1_556
Mn2 O0 1.944617 1_655
Mn2 O1 1.944621 1_655
Mn2 O2 1.944625 1_655
Mn2 O18 2.022755 1_555
Mn2 O16 2.022759 1_555
Mn2 O14 2.022761 1_555
Cu0 O13 2.214807 1_644
Cu0 O6 2.214807 1_645
Cu0 O3 2.214807 1_654
Cu0 O10 2.221338 1_555
Cu0 O17 2.221338 1_554
Cu0 O20 2.221338 1_545
Cu1 O18 2.178971 1_555
Cu1 O16 2.178974 1_555
Cu1 O14 2.178977 1_555
Cu1 O9 2.183677 1_555
Cu1 O7 2.183682 1_555
Cu1 O5 2.183689 1_555
O0 P1 1.526586 1_545
O1 P2 1.526582 1_554
O2 P0 1.526577 1_555
O3 P0 1.565006 1_555
O4 P0 1.543744 1_555
O4 V0 1.905404 1_555
O5 P0 1.564055 1_555
O6 P1 1.565006 1_555
O7 P1 1.564060 1_555
O8 P3 1.529371 1_555
O9 P2 1.564063 1_555
O10 P3 1.573572 1_555
O10 V0 1.979351 1_555
O11 P4 1.529374 1_555
O12 P1 1.543744 1_545
O12 V0 1.905404 1_555
O13 P2 1.565006 1_555
O14 P3 1.567605 1_555
O15 P2 1.543744 1_554
O15 V0 1.905404 1_555
O16 P4 1.567604 1_555
O17 P4 1.573572 1_555
O17 V0 1.979351 1_556
O18 P5 1.567604 1_555
O19 P5 1.529369 1_555
O20 P5 1.573572 1_555
O20 V0 1.979350 1_565
O21 P5 1.525964 1_555
O22 P3 1.525961 1_556
O23 P4 1.525959 1_565
