# generated using pymatgen
data_Mg2Ga
_symmetry_space_group_name_H-M   'P 1'
_cell_length_a   5.43959076
_cell_length_b   5.43959076
_cell_length_c   4.85762900
_cell_angle_alpha   90.00000000
_cell_angle_beta   90.00000000
_cell_angle_gamma   120.00000920
_symmetry_Int_Tables_number   1
_chemical_formula_structural   Mg2Ga
_chemical_formula_sum   'Mg4 Ga2'
_cell_volume   124.47650569
_cell_formula_units_Z   2
loop_
 _symmetry_equiv_pos_site_id
 _symmetry_equiv_pos_as_xyz
  1  'x, y, z'
loop_
 _atom_site_type_symbol
 _atom_site_label
 _atom_site_symmetry_multiplicity
 _atom_site_fract_x
 _atom_site_fract_y
 _atom_site_fract_z
 _atom_site_occupancy
  Mg  Mg0  1  0.34133300  0.00000000  0.00000000  1
  Mg  Mg1  1  0.65866700  0.65866700  0.00000000  1
  Mg  Mg2  1  0.00000000  0.34133300  0.00000000  1
  Mg  Mg3  1  0.00000000  0.00000000  0.50000000  1
  Ga  Ga0  1  0.33333300  0.66666700  0.50000000  1
  Ga  Ga1  1  0.66666700  0.33333300  0.50000000  1
loop_
_geom_bond_atom_site_label_1
_geom_bond_atom_site_label_2
_geom_bond_distance
_geom_bond_site_symmetry_2
Mg0 Mg3 3.057208 1_555
Mg0 Mg3 3.057208 1_554
Mg0 Mg2 3.103550 1_545
Mg0 Mg2 3.103550 1_655
Mg0 Mg1 3.103550 1_555
Mg0 Mg1 3.103551 1_545
Mg0 Mg1 3.215919 1_445
Mg0 Mg2 3.215919 1_555
Mg1 Mg3 3.057208 1_665
Mg1 Mg3 3.057208 1_664
Mg1 Mg2 3.103550 1_555
Mg1 Mg2 3.103551 1_655
Mg1 Mg2 3.215919 1_665
Mg2 Mg3 3.057208 1_555
Mg2 Mg3 3.057208 1_554
Ga0 Mg0 3.018245 1_565
Ga0 Mg0 3.018245 1_566
Ga0 Mg2 3.018247 1_556
Ga0 Mg2 3.018247 1_555
Ga0 Mg1 3.018249 1_555
Ga0 Mg1 3.018249 1_556
Ga0 Ga1 3.140546 1_455
Ga0 Ga1 3.140546 1_565
Ga0 Mg3 3.140546 1_565
Ga0 Mg3 3.140550 1_555
Ga0 Mg3 3.140550 1_665
Ga0 Ga1 3.140556 1_555
Ga1 Mg2 3.018245 1_656
Ga1 Mg2 3.018245 1_655
Ga1 Mg0 3.018247 1_555
Ga1 Mg0 3.018247 1_556
Ga1 Mg1 3.018249 1_555
Ga1 Mg1 3.018249 1_556
Ga1 Mg3 3.140546 1_655
Ga1 Mg3 3.140550 1_555
Ga1 Mg3 3.140550 1_665
