# generated using pymatgen
data_LiCe10(Pb3O)2
_symmetry_space_group_name_H-M   'P 1'
_cell_length_a   8.66644023
_cell_length_b   8.64614772
_cell_length_c   9.52863346
_cell_angle_alpha   117.77615720
_cell_angle_beta   117.87820280
_cell_angle_gamma   88.45729279
_symmetry_Int_Tables_number   1
_chemical_formula_structural   LiCe10(Pb3O)2
_chemical_formula_sum   'Li1 Ce10 Pb6 O2'
_cell_volume   541.50211080
_cell_formula_units_Z   1
loop_
 _symmetry_equiv_pos_site_id
 _symmetry_equiv_pos_as_xyz
  1  'x, y, z'
loop_
 _atom_site_type_symbol
 _atom_site_label
 _atom_site_symmetry_multiplicity
 _atom_site_fract_x
 _atom_site_fract_y
 _atom_site_fract_z
 _atom_site_occupancy
  Li  Li0  1  0.12304770  0.37453082  0.99872594  1
  Ce  Ce0  1  0.70456121  0.49345453  0.69900401  1
  Ce  Ce1  1  0.79725132  0.30770437  0.30099860  1
  Ce  Ce2  1  0.49722817  0.00702269  0.69932002  1
  Ce  Ce3  1  0.49485535  0.00201744  0.30204941  1
  Ce  Ce4  1  0.36357435  0.51071098  0.37232566  1
  Ce  Ce5  1  0.99412521  0.01081625  0.99982030  1
  Ce  Ce6  1  0.19348676  0.70003087  0.69821705  1
  Ce  Ce7  1  0.99136619  0.13560590  0.62522490  1
  Ce  Ce8  1  0.00553725  0.79628930  0.30218428  1
  Ce  Ce9  1  0.48898461  0.50492475  0.99996615  1
  Pb  Pb0  1  0.83459425  0.35612757  0.00078162  1
  Pb  Pb1  1  0.14464746  0.66575184  0.00079902  1
  Pb  Pb2  1  0.64717910  0.85272826  1.00003051  1
  Pb  Pb3  1  0.25451178  0.24650884  0.49953130  1
  Pb  Pb4  1  0.34869812  0.15019324  0.99987636  1
  Pb  Pb5  1  0.75437931  0.74627195  0.50063586  1
  O  O0  1  0.75028384  0.24019287  0.49045348  1
  O  O1  1  0.26012403  0.75068052  0.51005651  1
loop_
_geom_bond_atom_site_label_1
_geom_bond_atom_site_label_2
_geom_bond_distance
_geom_bond_site_symmetry_2
Li0 Pb0 2.518956 1_456
Li0 Pb1 2.520122 1_556
Li0 Pb4 2.717026 1_555
Ce0 O0 2.352637 1_555
Ce0 Pb0 3.320860 1_556
Ce0 Pb2 3.327224 1_555
Ce0 Pb1 3.330382 1_656
Ce0 Pb3 3.621751 1_555
Ce0 Pb5 3.633490 1_555
Ce1 O0 2.333972 1_555
Ce1 Pb0 3.233073 1_555
Ce1 Pb4 3.378026 1_554
Ce1 Pb2 3.415159 1_544
Ce1 Pb5 3.463731 1_555
Ce1 Pb3 3.656753 1_655
Ce2 O1 2.332656 1_545
Ce2 Pb0 3.232699 1_556
Ce2 Pb4 3.383594 1_555
Ce2 Pb2 3.415535 1_545
Ce2 Pb3 3.468555 1_555
Ce2 Pb5 3.651100 1_545
Ce3 O0 2.333918 1_555
Ce3 Pb1 3.233184 1_545
Ce3 Pb4 3.387645 1_554
Ce3 Pb2 3.418999 1_544
Ce3 Pb3 3.474049 1_555
Ce3 Pb5 3.630520 1_545
Ce4 O1 2.300717 1_555
Ce4 Pb5 3.360355 1_555
Ce4 Pb3 3.368831 1_555
Ce4 Pb4 3.407496 1_554
Ce5 Pb1 3.226132 1_646
Ce5 Pb0 3.254159 1_556
Ce5 Pb4 3.330477 1_655
Ce5 Pb2 3.337444 1_545
Ce5 Pb5 3.612035 1_545
Ce5 Pb3 3.615627 1_656
Ce6 O1 2.335285 1_555
Ce6 Pb1 3.244110 1_556
Ce6 Pb4 3.385157 1_565
Ce6 Pb2 3.411663 1_555
Ce6 Pb5 3.479310 1_455
Ce6 Pb3 3.625665 1_555
Ce7 O0 2.302944 1_555
Ce7 Pb3 3.361136 1_655
Ce7 Pb5 3.365491 1_545
Ce7 Pb4 3.407779 1_655
Ce8 O1 2.353940 1_555
Ce8 Pb2 3.322422 1_454
Ce8 Pb0 3.326243 1_455
Ce8 Pb1 3.334375 1_555
Ce8 Pb5 3.628038 1_455
Ce8 Pb3 3.630423 1_565
Ce9 Pb0 3.225914 1_556
Ce9 Pb1 3.259969 1_556
Ce9 Pb4 3.329017 1_555
Ce9 Pb2 3.337977 1_555
Ce9 Pb3 3.621076 1_555
Ce9 Pb5 3.622488 1_556
