# generated using pymatgen
data_TiAlF5
_symmetry_space_group_name_H-M   'P 1'
_cell_length_a   5.31162765
_cell_length_b   5.31162765
_cell_length_c   5.31162765
_cell_angle_alpha   140.07285312
_cell_angle_beta   106.62634703
_cell_angle_gamma   86.96246481
_symmetry_Int_Tables_number   1
_chemical_formula_structural   TiAlF5
_chemical_formula_sum   'Ti1 Al1 F5'
_cell_volume   88.72116148
_cell_formula_units_Z   1
loop_
 _symmetry_equiv_pos_site_id
 _symmetry_equiv_pos_as_xyz
  1  'x, y, z'
loop_
 _atom_site_type_symbol
 _atom_site_label
 _atom_site_symmetry_multiplicity
 _atom_site_fract_x
 _atom_site_fract_y
 _atom_site_fract_z
 _atom_site_occupancy
  Ti  Ti0  1  0.00000000  0.00000000  0.00000000  1
  Al  Al0  1  0.50000000  0.50000000  0.00000000  1
  F  F0  1  0.79264700  0.50000000  0.29264700  1
  F  F1  1  0.20735300  0.50000000  0.70735300  1
  F  F2  1  0.26726200  0.26726200  0.00000000  1
  F  F3  1  0.73273800  0.73273800  0.00000000  1
  F  F4  1  0.50000000  0.00000000  0.50000000  1
loop_
_geom_bond_atom_site_label_1
_geom_bond_atom_site_label_2
_geom_bond_distance
_geom_bond_site_symmetry_2
Al0 F2 1.793998 1_555
Al0 F3 1.793998 1_555
Al0 F4 1.813510 1_554
Al0 F4 1.813510 1_565
Al0 F0 1.857362 1_555
Al0 F1 1.857362 1_554
F0 Ti0 2.240698 1_655
F0 Ti0 2.240698 1_666
F1 Ti0 2.240698 1_566
F1 Ti0 2.240698 1_555
F2 Ti0 2.060118 1_555
F3 Ti0 2.060118 1_665
