# generated using pymatgen
data_LaZnFeAgO6
_symmetry_space_group_name_H-M   'P 1'
_cell_length_a   5.18233793
_cell_length_b   17.86749192
_cell_length_c   5.52752601
_cell_angle_alpha   89.99423918
_cell_angle_beta   90.00632145
_cell_angle_gamma   92.02151254
_symmetry_Int_Tables_number   1
_chemical_formula_structural   LaZnFeAgO6
_chemical_formula_sum   'La4 Zn4 Fe4 Ag4 O24'
_cell_volume   511.50484061
_cell_formula_units_Z   4
loop_
 _symmetry_equiv_pos_site_id
 _symmetry_equiv_pos_as_xyz
  1  'x, y, z'
loop_
 _atom_site_type_symbol
 _atom_site_label
 _atom_site_symmetry_multiplicity
 _atom_site_fract_x
 _atom_site_fract_y
 _atom_site_fract_z
 _atom_site_occupancy
  La  La0  1  0.96984700  0.12753000  0.06527000  1
  La  La1  1  0.96985900  0.62752500  0.06526700  1
  La  La2  1  0.46997400  0.37751800  0.43453500  1
  La  La3  1  0.47000100  0.87751400  0.43453500  1
  Zn  Zn0  1  0.53522500  0.12350000  0.56468700  1
  Zn  Zn1  1  0.53524100  0.62349300  0.56466500  1
  Zn  Zn2  1  0.03518100  0.37352800  0.93539600  1
  Zn  Zn3  1  0.03519800  0.87353200  0.93535200  1
  Fe  Fe0  1  0.00381500  0.50146200  0.50565800  1
  Fe  Fe1  1  0.50385900  0.75154400  0.99430900  1
  Fe  Fe2  1  0.00382500  0.00150300  0.50560400  1
  Fe  Fe3  1  0.50381200  0.25152400  0.99433000  1
  Ag  Ag0  1  0.99438800  0.25158600  0.50784000  1
  Ag  Ag1  1  0.99443300  0.75157400  0.50784500  1
  Ag  Ag2  1  0.49429100  0.00158600  0.99217100  1
  Ag  Ag3  1  0.49425900  0.50159400  0.99221000  1
  O  O0  1  0.67381200  0.34436100  0.04146000  1
  O  O1  1  0.67379800  0.84432500  0.04142200  1
  O  O2  1  0.17387600  0.09432900  0.45873700  1
  O  O3  1  0.17382100  0.59432000  0.45885000  1
  O  O4  1  0.19205300  0.45303100  0.19115700  1
  O  O5  1  0.19207100  0.95301700  0.19114600  1
  O  O6  1  0.69204400  0.20307400  0.30908300  1
  O  O7  1  0.69205200  0.70306100  0.30908700  1
  O  O8  1  0.20844900  0.28025400  0.20248800  1
  O  O9  1  0.20847700  0.78022900  0.20246800  1
  O  O10  1  0.70852400  0.03027800  0.29739100  1
  O  O11  1  0.70856100  0.53027900  0.29740300  1
  O  O12  1  0.88660600  0.40390400  0.56620100  1
  O  O13  1  0.88655400  0.90387700  0.56622900  1
  O  O14  1  0.38707900  0.15383000  0.93344200  1
  O  O15  1  0.38706900  0.65382300  0.93346000  1
  O  O16  1  0.26723700  0.30005000  0.73662700  1
  O  O17  1  0.26733800  0.80000900  0.73671800  1
  O  O18  1  0.76726600  0.04997400  0.76322900  1
  O  O19  1  0.76732300  0.54995000  0.76321100  1
  O  O20  1  0.26797100  0.46436800  0.72145700  1
  O  O21  1  0.26805600  0.96435500  0.72144400  1
  O  O22  1  0.76838900  0.21440100  0.77880500  1
  O  O23  1  0.76836900  0.71438400  0.77880700  1
loop_
_geom_bond_atom_site_label_1
_geom_bond_atom_site_label_2
_geom_bond_distance
_geom_bond_site_symmetry_2
La0 O14 2.314231 1_654
La0 O18 2.388980 1_554
La0 O6 2.418408 1_555
La0 O22 2.473856 1_554
La0 O2 2.498712 1_655
La0 O10 2.516665 1_555
La1 O15 2.314082 1_654
La1 O19 2.389132 1_554
La1 O7 2.418359 1_555
La1 O23 2.473774 1_554
La1 O3 2.499138 1_655
La1 O11 2.516569 1_555
La2 O12 2.311208 1_555
La2 O16 2.388596 1_555
La2 O4 2.416796 1_555
La2 O20 2.476835 1_555
La2 O0 2.496507 1_555
La2 O8 2.517164 1_555
La3 O13 2.310807 1_555
La3 O17 2.389160 1_555
La3 O5 2.416755 1_555
La3 O21 2.476552 1_555
La3 O1 2.496743 1_555
La3 O9 2.517470 1_555
Fe0 O12 1.855972 1_455
Fe0 O3 1.868886 1_555
Fe0 O20 1.949264 1_555
Fe0 O11 1.996627 1_455
Fe0 O19 2.086838 1_455
Fe0 O4 2.186950 1_555
Fe1 O15 1.858382 1_555
Fe1 O1 1.867789 1_556
Fe1 O23 1.950268 1_555
Fe1 O9 1.996419 1_556
Fe1 O17 2.086590 1_555
Fe1 O7 2.188132 1_556
Fe2 O13 1.857276 1_445
Fe2 O2 1.868536 1_555
Fe2 O21 1.950032 1_545
Fe2 O10 1.996468 1_455
Fe2 O18 2.087187 1_455
Fe2 O5 2.187184 1_545
Fe3 O14 1.857887 1_555
Fe3 O0 1.868812 1_556
Fe3 O22 1.950353 1_555
Fe3 O8 1.996568 1_556
Fe3 O16 2.087656 1_555
Fe3 O6 2.187873 1_556
Ag0 O22 2.000435 1_555
Ag0 O16 2.064447 1_655
Ag0 O8 2.074117 1_655
Ag0 O6 2.077819 1_555
Ag1 O23 2.000644 1_555
Ag1 O17 2.064728 1_655
Ag1 O9 2.074130 1_655
Ag1 O7 2.077970 1_555
Ag2 O21 2.000315 1_545
Ag2 O18 2.064958 1_555
Ag2 O10 2.073975 1_556
Ag2 O5 2.078470 1_546
Ag3 O20 2.000553 1_555
Ag3 O19 2.065235 1_555
Ag3 O11 2.074013 1_556
Ag3 O4 2.078292 1_556
O0 Zn2 2.013398 1_654
O1 Zn3 2.013717 1_654
O2 Zn0 2.013045 1_555
O3 Zn1 2.013175 1_555
O4 Zn2 2.143848 1_554
O5 Zn3 2.143761 1_554
O6 Zn0 2.143932 1_555
O7 Zn1 2.143752 1_555
O8 Zn2 2.422430 1_554
O9 Zn3 2.422897 1_554
O10 Zn0 2.422855 1_555
O11 Zn1 2.422683 1_555
O12 Zn2 2.254092 1_655
O13 Zn3 2.253717 1_655
O14 Zn0 2.251157 1_555
O15 Zn1 2.251404 1_555
O16 Zn2 2.118717 1_555
O17 Zn3 2.119101 1_555
O18 Zn0 2.118295 1_555
O19 Zn1 2.118626 1_555
O20 Zn2 2.313009 1_555
O21 Zn3 2.312889 1_555
O22 Zn0 2.315253 1_555
O23 Zn1 2.315106 1_555
