# generated using pymatgen
data_Li9Mn2Co5O16
_symmetry_space_group_name_H-M   'P 1'
_cell_length_a   3.00843000
_cell_length_b   5.01567671
_cell_length_c   19.35546755
_cell_angle_alpha   92.78680611
_cell_angle_beta   91.58547061
_cell_angle_gamma   91.72905926
_symmetry_Int_Tables_number   1
_chemical_formula_structural   Li9Mn2Co5O16
_chemical_formula_sum   'Li9 Mn2 Co5 O16'
_cell_volume   291.45828061
_cell_formula_units_Z   1
loop_
 _symmetry_equiv_pos_site_id
 _symmetry_equiv_pos_as_xyz
  1  'x, y, z'
loop_
 _atom_site_type_symbol
 _atom_site_label
 _atom_site_symmetry_multiplicity
 _atom_site_fract_x
 _atom_site_fract_y
 _atom_site_fract_z
 _atom_site_occupancy
  Li  Li0  1  0.99820600  0.11860400  0.88022500  1
  Li  Li1  1  0.51893200  0.37364900  0.11885700  1
  Li  Li2  1  0.00120700  0.62522800  0.37577700  1
  Li  Li3  1  0.50660100  0.87508800  0.62510500  1
  Li  Li4  1  0.48106800  0.62635100  0.88114300  1
  Li  Li5  1  0.00179400  0.88139600  0.11977500  1
  Li  Li6  1  0.49339900  0.12491200  0.37489500  1
  Li  Li7  1  0.99879300  0.37477200  0.62422300  1
  Li  Li8  1  0.50000000  0.00000000  0.00000000  1
  Mn  Mn0  1  0.99865900  0.74939900  0.75192200  1
  Mn  Mn1  1  0.00134100  0.25060100  0.24807800  1
  Co  Co0  1  0.50000000  0.50000000  0.50000000  1
  Co  Co1  1  0.49941300  0.24953300  0.75161900  1
  Co  Co2  1  0.00000000  0.50000000  0.00000000  1
  Co  Co3  1  0.50058700  0.75046700  0.24838100  1
  Co  Co4  1  0.00000000  0.00000000  0.50000000  1
  O  O0  1  0.46055700  0.94759600  0.81127000  1
  O  O1  1  0.00127200  0.22512100  0.05533400  1
  O  O2  1  0.46382200  0.44691000  0.30754100  1
  O  O3  1  0.95837800  0.69158800  0.55707900  1
  O  O4  1  0.00976500  0.43799400  0.80797000  1
  O  O5  1  0.51362100  0.66497400  0.05327800  1
  O  O6  1  0.00788800  0.94354100  0.30650200  1
  O  O7  1  0.50797000  0.19642200  0.55641200  1
  O  O8  1  0.48637900  0.33502600  0.94672200  1
  O  O9  1  0.99023500  0.56200600  0.19203000  1
  O  O10  1  0.49203000  0.80357800  0.44358800  1
  O  O11  1  0.99211200  0.05645900  0.69349800  1
  O  O12  1  0.99872800  0.77487900  0.94466600  1
  O  O13  1  0.53944300  0.05240400  0.18873000  1
  O  O14  1  0.04162200  0.30841200  0.44292100  1
  O  O15  1  0.53617800  0.55309000  0.69245900  1
loop_
_geom_bond_atom_site_label_1
_geom_bond_atom_site_label_2
_geom_bond_distance
_geom_bond_site_symmetry_2
Li0 O0 2.124887 1_645
Li0 O8 2.157572 1_655
Li0 O12 2.176488 1_545
Li0 O4 2.177279 1_655
Li0 O0 2.195162 1_545
Li0 O8 2.297943 1_555
Li1 O5 1.981698 1_555
Li1 O1 2.055961 1_555
Li1 O1 2.060883 1_655
Li1 O9 2.141670 1_555
Li1 O13 2.154600 1_555
Li1 O9 2.348084 1_455
Li2 O10 2.098129 1_555
Li2 O14 2.105362 1_555
Li2 O2 2.131478 1_555
Li2 O6 2.134242 1_555
Li2 O2 2.199471 1_455
Li2 O10 2.224672 1_455
Li3 O11 2.099783 1_565
Li3 O3 2.117702 1_555
Li3 O15 2.126688 1_555
Li3 O7 2.138619 1_565
Li3 O3 2.229636 1_455
Li3 O11 2.248753 1_465
Li4 O8 1.981698 1_555
Li4 O12 2.055961 1_555
Li4 O12 2.060883 1_455
Li4 O4 2.141670 1_555
Li4 O0 2.154600 1_555
Li4 O4 2.348084 1_655
Li5 O13 2.124887 1_465
Li5 O5 2.157572 1_455
Li5 O1 2.176488 1_565
Li5 O9 2.177279 1_455
Li5 O13 2.195162 1_565
Li5 O5 2.297943 1_555
Li6 O6 2.099783 1_545
Li6 O14 2.117702 1_555
Li6 O2 2.126688 1_555
Li6 O10 2.138619 1_545
Li6 O14 2.229636 1_655
Li6 O6 2.248753 1_645
Li7 O7 2.098129 1_555
Li7 O3 2.105362 1_555
Li7 O15 2.131478 1_555
Li7 O11 2.134242 1_555
Li7 O15 2.199471 1_655
Li7 O7 2.224672 1_655
Li8 O8 2.014720 1_554
Li8 O5 2.014720 1_545
Li8 O1 2.094393 1_655
Li8 O12 2.094393 1_444
Li8 O1 2.178703 1_555
Li8 O12 2.178703 1_544
Mn0 O4 1.945108 1_655
Mn0 O11 1.954751 1_565
Mn0 O15 1.987079 1_555
Mn0 O0 1.988963 1_655
Mn0 O15 2.235617 1_655
Mn0 O0 2.239950 1_555
Mn1 O9 1.945108 1_455
Mn1 O6 1.954751 1_545
Mn1 O2 1.987079 1_555
Mn1 O13 1.988963 1_455
Mn1 O2 2.235617 1_455
Mn1 O13 2.239950 1_555
Co0 O10 1.916679 1_555
Co0 O7 1.916679 1_555
Co0 O3 1.943735 1_555
Co0 O14 1.943735 1_555
Co0 O3 2.211311 1_455
Co0 O14 2.211311 1_655
Co1 O0 1.951147 1_545
Co1 O15 1.951392 1_555
Co1 O4 2.039599 1_655
Co1 O11 2.059714 1_455
Co1 O4 2.079847 1_555
Co1 O11 2.115030 1_555
Co2 O1 1.786502 1_555
Co2 O12 1.786502 1_454
Co2 O5 1.971653 1_555
Co2 O8 1.971653 1_454
Co2 O8 1.990666 1_554
Co2 O5 1.990666 1_455
Co3 O13 1.951147 1_565
Co3 O2 1.951392 1_555
Co3 O9 2.039599 1_455
Co3 O6 2.059714 1_655
Co3 O9 2.079847 1_555
Co3 O6 2.115030 1_555
Co4 O3 1.947119 1_445
Co4 O14 1.947119 1_555
Co4 O7 2.051921 1_555
Co4 O10 2.051921 1_445
Co4 O7 2.103983 1_455
Co4 O10 2.103983 1_545
