# generated using pymatgen
data_MnAlNi6
_symmetry_space_group_name_H-M   'P 1'
_cell_length_a   3.52379000
_cell_length_b   3.52379000
_cell_length_c   7.09353000
_cell_angle_alpha   90.00000000
_cell_angle_beta   90.00000000
_cell_angle_gamma   90.00000000
_symmetry_Int_Tables_number   1
_chemical_formula_structural   MnAlNi6
_chemical_formula_sum   'Mn1 Al1 Ni6'
_cell_volume   88.08104273
_cell_formula_units_Z   1
loop_
 _symmetry_equiv_pos_site_id
 _symmetry_equiv_pos_as_xyz
  1  'x, y, z'
loop_
 _atom_site_type_symbol
 _atom_site_label
 _atom_site_symmetry_multiplicity
 _atom_site_fract_x
 _atom_site_fract_y
 _atom_site_fract_z
 _atom_site_occupancy
  Mn  Mn0  1  0.00000000  0.00000000  0.50000000  1
  Al  Al0  1  0.00000000  0.00000000  0.00000000  1
  Ni  Ni0  1  0.50000000  0.50000000  0.00000000  1
  Ni  Ni1  1  0.50000000  0.50000000  0.50000000  1
  Ni  Ni2  1  0.50000000  0.00000000  0.25841200  1
  Ni  Ni3  1  0.50000000  0.00000000  0.74158800  1
  Ni  Ni4  1  0.00000000  0.50000000  0.25841200  1
  Ni  Ni5  1  0.00000000  0.50000000  0.74158800  1
loop_
_geom_bond_atom_site_label_1
_geom_bond_atom_site_label_2
_geom_bond_distance
_geom_bond_site_symmetry_2
Mn0 Ni3 2.457861 1_455
Mn0 Ni5 2.457861 1_555
Mn0 Ni3 2.457861 1_555
Mn0 Ni5 2.457861 1_545
Mn0 Ni4 2.457861 1_545
Mn0 Ni4 2.457861 1_555
Mn0 Ni2 2.457861 1_455
Mn0 Ni2 2.457861 1_555
Mn0 Ni1 2.491696 1_555
Mn0 Ni1 2.491696 1_455
Mn0 Ni1 2.491696 1_545
Mn0 Ni1 2.491696 1_445
Al0 Ni0 2.491696 1_455
Al0 Ni0 2.491696 1_555
Al0 Ni0 2.491696 1_445
Al0 Ni0 2.491696 1_545
Al0 Ni4 2.542510 1_545
Al0 Ni2 2.542510 1_455
Al0 Ni4 2.542510 1_555
Al0 Ni2 2.542510 1_555
Al0 Ni5 2.542510 1_554
Al0 Ni5 2.542510 1_544
Al0 Ni3 2.542510 1_554
Al0 Ni3 2.542510 1_454
Ni0 Ni4 2.542510 1_655
Ni0 Ni2 2.542510 1_565
Ni0 Ni4 2.542510 1_555
Ni0 Ni2 2.542510 1_555
Ni0 Ni3 2.542510 1_564
Ni0 Ni5 2.542510 1_554
Ni0 Ni3 2.542510 1_554
Ni0 Ni5 2.542510 1_654
Ni1 Ni5 2.457861 1_655
Ni1 Ni3 2.457861 1_565
Ni1 Ni5 2.457861 1_555
Ni1 Ni3 2.457861 1_555
Ni1 Ni4 2.457861 1_555
Ni1 Ni2 2.457861 1_555
Ni1 Ni4 2.457861 1_655
Ni1 Ni2 2.457861 1_565
Ni2 Ni4 2.491696 1_655
Ni2 Ni4 2.491696 1_645
Ni2 Ni4 2.491696 1_555
Ni2 Ni4 2.491696 1_545
Ni3 Ni5 2.491696 1_555
Ni3 Ni5 2.491696 1_645
Ni3 Ni5 2.491696 1_545
Ni3 Ni5 2.491696 1_655
