# generated using pymatgen
data_LiTb4Al2(FeO6)2
_symmetry_space_group_name_H-M   'P 1'
_cell_length_a   5.42297172
_cell_length_b   5.54485449
_cell_length_c   7.93290778
_cell_angle_alpha   94.09251186
_cell_angle_beta   88.91041057
_cell_angle_gamma   90.35553290
_symmetry_Int_Tables_number   1
_chemical_formula_structural   LiTb4Al2(FeO6)2
_chemical_formula_sum   'Li1 Tb4 Al2 Fe2 O12'
_cell_volume   237.88519732
_cell_formula_units_Z   1
loop_
 _symmetry_equiv_pos_site_id
 _symmetry_equiv_pos_as_xyz
  1  'x, y, z'
loop_
 _atom_site_type_symbol
 _atom_site_label
 _atom_site_symmetry_multiplicity
 _atom_site_fract_x
 _atom_site_fract_y
 _atom_site_fract_z
 _atom_site_occupancy
  Li  Li0  1  0.46039200  0.29854000  0.91904800  1
  Tb  Tb0  1  0.52259700  0.54467600  0.25228900  1
  Tb  Tb1  1  0.98933600  0.05223000  0.24224900  1
  Tb  Tb2  1  0.52320500  0.57398300  0.67730000  1
  Tb  Tb3  1  0.00067100  0.98970600  0.72514600  1
  Al  Al0  1  0.01079200  0.51219900  0.48936800  1
  Al  Al1  1  0.51312600  0.92936400  0.01223400  1
  Fe  Fe0  1  0.00605700  0.48296200  0.99756800  1
  Fe  Fe1  1  0.48957000  0.03374900  0.48474900  1
  O  O0  1  0.38696300  0.93883100  0.22883300  1
  O  O1  1  0.10968100  0.45652500  0.25487500  1
  O  O2  1  0.58844100  0.98789900  0.78467800  1
  O  O3  1  0.91643500  0.55224600  0.75556200  1
  O  O4  1  0.79411700  0.76115100  0.07827900  1
  O  O5  1  0.72952100  0.32041000  0.45424900  1
  O  O6  1  0.21193300  0.26098900  0.55941200  1
  O  O7  1  0.35547000  0.62290200  0.94851700  1
  O  O8  1  0.17080500  0.13772500  0.96458000  1
  O  O9  1  0.24528400  0.74809900  0.53475300  1
  O  O10  1  0.77701600  0.78386400  0.46328900  1
  O  O11  1  0.69858900  0.25004800  0.07480900  1
loop_
_geom_bond_atom_site_label_1
_geom_bond_atom_site_label_2
_geom_bond_distance
_geom_bond_site_symmetry_2
Li0 O11 1.838508 1_556
Li0 O8 1.843593 1_555
Li0 O7 1.887001 1_555
Li0 O2 2.076037 1_545
Al0 O9 1.840434 1_555
Al0 O5 1.867855 1_455
Al0 O6 1.895038 1_555
Al0 O1 1.930135 1_555
Al0 O10 1.999310 1_455
Al0 O3 2.159577 1_455
Al1 O0 1.834703 1_555
Al1 O4 1.893198 1_555
Al1 O2 1.893352 1_554
Al1 O7 1.936450 1_554
Al1 O11 2.071371 1_565
Al1 O8 2.244896 1_564
Fe0 O4 1.990816 1_456
Fe0 O3 2.052450 1_455
Fe0 O7 2.083458 1_555
Fe0 O8 2.114715 1_555
Fe0 O1 2.142685 1_556
Fe0 O11 2.207017 1_456
Fe1 O6 2.021988 1_555
Fe1 O5 2.072565 1_555
Fe1 O10 2.088478 1_545
Fe1 O9 2.112980 1_545
Fe1 O0 2.143590 1_545
Fe1 O2 2.479874 1_545
O0 Tb1 2.248323 1_465
O0 Tb0 2.331393 1_555
O1 Tb0 2.289015 1_555
O1 Tb1 2.326738 1_455
O2 Tb3 2.276157 1_655
O2 Tb2 2.416732 1_555
O3 Tb2 2.238671 1_555
O3 Tb3 2.493247 1_655
O4 Tb1 2.269190 1_565
O4 Tb0 2.377320 1_555
O5 Tb0 2.396337 1_555
O5 Tb2 2.439011 1_555
O5 Tb1 2.569771 1_555
O6 Tb3 2.346792 1_545
O6 Tb2 2.554995 1_555
O7 Tb2 2.318500 1_555
O7 Tb0 2.655902 1_556
O8 Tb3 2.228757 1_545
O8 Tb1 2.471030 1_456
O9 Tb2 2.172799 1_555
O9 Tb3 2.343646 1_555
O9 Tb0 2.843768 1_555
O10 Tb0 2.492504 1_555
O10 Tb2 2.510853 1_555
O10 Tb3 2.613260 1_655
O10 Tb1 2.624717 1_565
O11 Tb0 2.280783 1_555
O11 Tb1 2.400535 1_555
