# generated using pymatgen
data_Mg2Cd
_symmetry_space_group_name_H-M   'P 1'
_cell_length_a   12.05823937
_cell_length_b   12.05823937
_cell_length_c   14.74627175
_cell_angle_alpha   74.50713611
_cell_angle_beta   74.50713611
_cell_angle_gamma   29.92634853
_symmetry_Int_Tables_number   1
_chemical_formula_structural   Mg2Cd
_chemical_formula_sum   'Mg32 Cd16'
_cell_volume   1027.97404007
_cell_formula_units_Z   16
loop_
 _symmetry_equiv_pos_site_id
 _symmetry_equiv_pos_as_xyz
  1  'x, y, z'
loop_
 _atom_site_type_symbol
 _atom_site_label
 _atom_site_symmetry_multiplicity
 _atom_site_fract_x
 _atom_site_fract_y
 _atom_site_fract_z
 _atom_site_occupancy
  Mg  Mg0_0  1  0.40672438  0.40672438  0.31634687  1
  Mg  Mg0_1  1  0.40672438  0.40672438  0.81634687  1
  Mg  Mg0_2  1  0.40672438  0.90672438  0.31634687  1
  Mg  Mg0_3  1  0.40672438  0.90672438  0.81634687  1
  Mg  Mg0_4  1  0.90672438  0.40672438  0.31634687  1
  Mg  Mg0_5  1  0.90672439  0.40672438  0.81634687  1
  Mg  Mg0_6  1  0.90672438  0.90672438  0.31634687  1
  Mg  Mg0_7  1  0.90672438  0.90672438  0.81634687  1
  Mg  Mg1_0  1  0.06854874  0.06854874  0.48615706  1
  Mg  Mg1_1  1  0.06854874  0.06854874  0.98615706  1
  Mg  Mg1_2  1  0.06854874  0.56854874  0.48615706  1
  Mg  Mg1_3  1  0.06854874  0.56854874  0.98615706  1
  Mg  Mg1_4  1  0.56854874  0.06854874  0.48615706  1
  Mg  Mg1_5  1  0.56854874  0.06854874  0.98615706  1
  Mg  Mg1_6  1  0.56854874  0.56854874  0.48615706  1
  Mg  Mg1_7  1  0.56854874  0.56854874  0.98615706  1
  Mg  Mg2_0  1  0.43145126  0.43145126  0.01384294  1
  Mg  Mg2_1  1  0.43145126  0.43145126  0.51384294  1
  Mg  Mg2_2  1  0.43145126  0.93145126  0.01384294  1
  Mg  Mg2_3  1  0.43145126  0.93145126  0.51384294  1
  Mg  Mg2_4  1  0.93145126  0.43145126  0.01384294  1
  Mg  Mg2_5  1  0.93145126  0.43145126  0.51384294  1
  Mg  Mg2_6  1  0.93145126  0.93145126  0.01384294  1
  Mg  Mg2_7  1  0.93145126  0.93145126  0.51384294  1
  Mg  Mg3_0  1  0.09327561  0.09327561  0.18365313  1
  Mg  Mg3_1  1  0.09327561  0.09327561  0.68365313  1
  Mg  Mg3_2  1  0.09327561  0.59327562  0.18365313  1
  Mg  Mg3_3  1  0.09327561  0.59327562  0.68365313  1
  Mg  Mg3_4  1  0.59327562  0.09327562  0.18365313  1
  Mg  Mg3_5  1  0.59327562  0.09327562  0.68365313  1
  Mg  Mg3_6  1  0.59327561  0.59327561  0.18365313  1
  Mg  Mg3_7  1  0.59327561  0.59327561  0.68365313  1
  Cd  Cd0_0  1  0.26556156  0.26556156  0.34824542  1
  Cd  Cd0_1  1  0.26556156  0.26556155  0.84824542  1
  Cd  Cd0_2  1  0.26556155  0.76556156  0.34824542  1
  Cd  Cd0_3  1  0.26556155  0.76556156  0.84824543  1
  Cd  Cd0_4  1  0.76556156  0.26556156  0.34824542  1
  Cd  Cd0_5  1  0.76556156  0.26556156  0.84824543  1
  Cd  Cd0_6  1  0.76556156  0.76556156  0.34824543  1
  Cd  Cd0_7  1  0.76556155  0.76556155  0.84824542  1
  Cd  Cd1_0  1  0.23443844  0.23443844  0.15175458  1
  Cd  Cd1_1  1  0.23443844  0.23443844  0.65175458  1
  Cd  Cd1_2  1  0.23443844  0.73443844  0.15175458  1
  Cd  Cd1_3  1  0.23443844  0.73443844  0.65175458  1
  Cd  Cd1_4  1  0.73443844  0.23443844  0.15175458  1
  Cd  Cd1_5  1  0.73443844  0.23443844  0.65175458  1
  Cd  Cd1_6  1  0.73443844  0.73443844  0.15175458  1
  Cd  Cd1_7  1  0.73443844  0.73443844  0.65175458  1
loop_
_geom_bond_atom_site_label_1
_geom_bond_atom_site_label_2
_geom_bond_distance
_geom_bond_site_symmetry_2
Mg0_0 Mg0_6 3.113415 1_455
Mg0_0 Mg0_6 3.113415 1_545
Mg0_0 Mg2_1 3.121117 1_555
Mg0_0 Mg3_4 3.168128 1_555
Mg0_0 Mg3_2 3.168128 1_555
Mg0_0 Mg1_4 3.173237 1_555
Mg0_0 Mg1_2 3.173237 1_555
Mg0_1 Mg0_7 3.113415 1_455
Mg0_1 Mg0_7 3.113415 1_545
Mg0_1 Mg2_0 3.121117 1_556
Mg0_1 Mg3_5 3.168128 1_555
Mg0_1 Mg3_3 3.168128 1_555
Mg0_1 Mg1_5 3.173237 1_555
Mg0_1 Mg1_3 3.173237 1_555
Mg0_2 Mg0_4 3.113415 1_465
Mg0_2 Mg0_4 3.113415 1_555
Mg0_2 Mg2_3 3.121117 1_555
Mg0_2 Mg3_0 3.168128 1_565
Mg0_2 Mg3_6 3.168128 1_555
Mg0_2 Mg1_0 3.173237 1_565
Mg0_2 Mg1_6 3.173237 1_555
Mg0_3 Mg0_5 3.113415 1_465
Mg0_3 Mg0_5 3.113415 1_555
Mg0_3 Mg2_2 3.121117 1_556
Mg0_3 Mg3_1 3.168128 1_565
Mg0_3 Mg3_7 3.168128 1_555
Mg0_3 Mg1_1 3.173237 1_565
Mg0_3 Mg1_7 3.173237 1_555
Mg0_4 Mg2_5 3.121117 1_555
Mg0_4 Mg3_0 3.168128 1_655
Mg0_4 Mg3_6 3.168128 1_555
Mg0_4 Mg1_0 3.173237 1_655
Mg0_4 Mg1_6 3.173237 1_555
Mg0_5 Mg2_4 3.121117 1_556
Mg0_5 Mg3_1 3.168128 1_655
Mg0_5 Mg3_7 3.168128 1_555
Mg0_5 Mg1_1 3.173237 1_655
Mg0_5 Mg1_7 3.173237 1_555
Mg0_6 Mg2_7 3.121117 1_555
Mg0_6 Mg3_4 3.168128 1_565
Mg0_6 Mg3_2 3.168128 1_655
Mg0_6 Mg1_4 3.173237 1_565
Mg0_6 Mg1_2 3.173237 1_655
Mg0_7 Mg2_6 3.121117 1_556
Mg0_7 Mg3_3 3.168128 1_655
Mg0_7 Mg3_5 3.168128 1_565
Mg0_7 Mg1_5 3.173237 1_565
Mg0_7 Mg1_3 3.173237 1_655
Mg1_0 Mg2_7 3.106194 1_445
Mg1_0 Mg1_6 3.113415 1_545
Mg1_0 Mg1_6 3.113415 1_455
Mg1_0 Mg3_1 3.121117 1_555
Mg1_0 Mg2_3 3.178576 1_545
Mg1_0 Mg2_5 3.178576 1_455
Mg1_1 Mg2_6 3.106194 1_446
Mg1_1 Mg1_7 3.113415 1_455
Mg1_1 Mg1_7 3.113415 1_545
Mg1_1 Mg3_0 3.121117 1_556
Mg1_1 Mg2_2 3.178576 1_546
Mg1_1 Mg2_4 3.178576 1_456
Mg1_2 Mg2_5 3.106194 1_455
Mg1_2 Mg1_4 3.113415 1_465
Mg1_2 Mg1_4 3.113415 1_555
Mg1_2 Mg3_3 3.121117 1_555
Mg1_2 Mg2_7 3.178576 1_455
Mg1_2 Mg2_1 3.178576 1_555
Mg1_3 Mg2_4 3.106194 1_456
Mg1_3 Mg1_5 3.113415 1_465
Mg1_3 Mg1_5 3.113415 1_555
Mg1_3 Mg3_2 3.121117 1_556
Mg1_3 Mg2_6 3.178576 1_456
Mg1_3 Mg2_0 3.178576 1_556
Mg1_4 Mg2_3 3.106194 1_545
Mg1_4 Mg3_5 3.121117 1_555
Mg1_4 Mg2_1 3.178576 1_555
Mg1_4 Mg2_7 3.178576 1_545
Mg1_5 Mg2_2 3.106194 1_546
Mg1_5 Mg3_4 3.121117 1_556
Mg1_5 Mg2_6 3.178576 1_546
Mg1_5 Mg2_0 3.178576 1_556
Mg1_6 Mg2_1 3.106194 1_555
Mg1_6 Mg3_7 3.121117 1_555
Mg1_6 Mg2_3 3.178576 1_555
Mg1_6 Mg2_5 3.178576 1_555
Mg1_7 Mg2_0 3.106194 1_556
Mg1_7 Mg3_6 3.121117 1_556
Mg1_7 Mg2_2 3.178576 1_556
Mg1_7 Mg2_4 3.178576 1_556
Mg2_0 Mg2_6 3.113415 1_545
Mg2_0 Mg2_6 3.113415 1_455
Mg2_0 Mg3_4 3.173237 1_555
Mg2_0 Mg3_2 3.173237 1_555
Mg2_1 Mg2_7 3.113415 1_545
Mg2_1 Mg2_7 3.113415 1_455
Mg2_1 Mg3_3 3.173237 1_555
Mg2_1 Mg3_5 3.173237 1_555
Mg2_2 Mg2_4 3.113415 1_465
Mg2_2 Mg2_4 3.113415 1_555
Mg2_2 Mg3_0 3.173237 1_565
Mg2_2 Mg3_6 3.173237 1_555
Mg2_3 Mg2_5 3.113415 1_465
Mg2_3 Mg2_5 3.113415 1_555
Mg2_3 Mg3_1 3.173237 1_565
Mg2_3 Mg3_7 3.173237 1_555
Mg2_4 Mg3_0 3.173237 1_655
Mg2_4 Mg3_6 3.173237 1_555
Mg2_5 Mg3_1 3.173237 1_655
Mg2_5 Mg3_7 3.173237 1_555
Mg2_6 Mg3_4 3.173237 1_565
Mg2_6 Mg3_2 3.173237 1_655
Mg2_7 Mg3_3 3.173237 1_655
Mg2_7 Mg3_5 3.173237 1_565
Mg3_0 Mg3_6 3.113415 1_545
Mg3_0 Mg3_6 3.113415 1_455
Mg3_1 Mg3_7 3.113415 1_545
Mg3_1 Mg3_7 3.113415 1_455
Mg3_2 Mg3_4 3.113415 1_465
Mg3_2 Mg3_4 3.113415 1_555
Mg3_3 Mg3_5 3.113415 1_465
Mg3_3 Mg3_5 3.113415 1_555
Cd0_0 Mg3_2 3.026961 1_555
Cd0_0 Mg3_4 3.026961 1_555
Cd0_0 Mg1_2 3.077602 1_555
Cd0_0 Mg1_4 3.077602 1_555
Cd0_0 Mg2_5 3.095232 1_455
Cd0_0 Mg2_3 3.095232 1_545
Cd0_0 Cd0_6 3.113415 1_455
Cd0_0 Cd0_6 3.113415 1_545
Cd0_0 Mg0_4 3.119987 1_455
Cd0_0 Mg0_2 3.119987 1_545
Cd0_0 Cd1_0 3.175410 1_555
Cd0_0 Mg0_0 3.191038 1_555
Cd0_1 Mg3_5 3.026961 1_555
Cd0_1 Mg3_3 3.026961 1_555
Cd0_1 Mg1_3 3.077602 1_555
Cd0_1 Mg1_5 3.077602 1_555
Cd0_1 Mg2_4 3.095232 1_456
Cd0_1 Mg2_2 3.095232 1_546
Cd0_1 Cd0_7 3.113415 1_545
Cd0_1 Cd0_7 3.113415 1_455
Cd0_1 Mg0_5 3.119987 1_455
Cd0_1 Mg0_3 3.119987 1_545
Cd0_1 Cd1_1 3.175410 1_555
Cd0_1 Mg0_1 3.191038 1_555
Cd0_2 Mg3_6 3.026961 1_555
Cd0_2 Mg3_0 3.026961 1_565
Cd0_2 Mg1_0 3.077602 1_565
Cd0_2 Mg1_6 3.077602 1_555
Cd0_2 Mg2_1 3.095232 1_555
Cd0_2 Mg2_7 3.095232 1_455
Cd0_2 Cd0_4 3.113415 1_465
Cd0_2 Cd0_4 3.113415 1_555
Cd0_2 Mg0_0 3.119987 1_555
Cd0_2 Mg0_6 3.119987 1_455
Cd0_2 Cd1_2 3.175410 1_555
Cd0_2 Mg0_2 3.191038 1_555
Cd0_3 Mg3_7 3.026961 1_555
Cd0_3 Mg3_1 3.026961 1_565
Cd0_3 Mg1_7 3.077602 1_555
Cd0_3 Mg1_1 3.077602 1_565
Cd0_3 Mg2_0 3.095232 1_556
Cd0_3 Mg2_6 3.095232 1_456
Cd0_3 Cd0_5 3.113415 1_465
Cd0_3 Cd0_5 3.113415 1_555
Cd0_3 Mg0_7 3.119987 1_455
Cd0_3 Mg0_1 3.119987 1_555
Cd0_3 Cd1_3 3.175410 1_555
Cd0_3 Mg0_3 3.191038 1_555
Cd0_4 Mg3_6 3.026961 1_555
Cd0_4 Mg3_0 3.026961 1_655
Cd0_4 Mg1_0 3.077602 1_655
Cd0_4 Mg1_6 3.077602 1_555
Cd0_4 Mg2_1 3.095232 1_555
Cd0_4 Mg2_7 3.095232 1_545
Cd0_4 Mg0_0 3.119987 1_555
Cd0_4 Mg0_6 3.119987 1_545
Cd0_4 Cd1_4 3.175410 1_555
Cd0_4 Mg0_4 3.191038 1_555
Cd0_5 Mg3_7 3.026961 1_555
Cd0_5 Mg3_1 3.026961 1_655
Cd0_5 Mg1_7 3.077602 1_555
Cd0_5 Mg1_1 3.077602 1_655
Cd0_5 Mg2_0 3.095232 1_556
Cd0_5 Mg2_6 3.095232 1_546
Cd0_5 Mg0_7 3.119987 1_545
Cd0_5 Mg0_1 3.119987 1_555
Cd0_5 Cd1_5 3.175410 1_555
Cd0_5 Mg0_5 3.191038 1_555
Cd0_6 Mg3_4 3.026961 1_565
Cd0_6 Mg3_2 3.026961 1_655
Cd0_6 Mg1_2 3.077602 1_655
Cd0_6 Mg1_4 3.077602 1_565
Cd0_6 Mg2_5 3.095232 1_555
Cd0_6 Mg2_3 3.095232 1_555
Cd0_6 Mg0_4 3.119987 1_555
Cd0_6 Mg0_2 3.119987 1_555
Cd0_6 Cd1_6 3.175410 1_555
Cd0_6 Mg0_6 3.191038 1_555
Cd0_7 Mg3_3 3.026961 1_655
Cd0_7 Mg3_5 3.026961 1_565
Cd0_7 Mg1_3 3.077602 1_655
Cd0_7 Mg1_5 3.077602 1_565
Cd0_7 Mg2_4 3.095232 1_556
Cd0_7 Mg2_2 3.095232 1_556
Cd0_7 Mg0_5 3.119987 1_555
Cd0_7 Mg0_3 3.119987 1_555
Cd0_7 Cd1_7 3.175410 1_555
Cd0_7 Mg0_7 3.191038 1_555
Cd1_0 Mg0_4 3.026961 1_455
Cd1_0 Mg0_2 3.026961 1_545
Cd1_0 Mg2_4 3.077602 1_455
Cd1_0 Mg2_2 3.077602 1_545
Cd1_0 Mg1_3 3.095232 1_554
Cd1_0 Mg1_5 3.095232 1_554
Cd1_0 Cd1_6 3.113415 1_455
Cd1_0 Cd1_6 3.113415 1_545
Cd1_0 Mg3_2 3.119987 1_555
Cd1_0 Mg3_4 3.119987 1_555
Cd1_0 Mg3_0 3.191038 1_555
Cd1_1 Mg0_5 3.026961 1_455
Cd1_1 Mg0_3 3.026961 1_545
Cd1_1 Mg2_5 3.077602 1_455
Cd1_1 Mg2_3 3.077602 1_545
Cd1_1 Mg1_2 3.095232 1_555
Cd1_1 Mg1_4 3.095232 1_555
Cd1_1 Cd1_7 3.113415 1_455
Cd1_1 Cd1_7 3.113415 1_545
Cd1_1 Mg3_3 3.119987 1_555
Cd1_1 Mg3_5 3.119987 1_555
Cd1_1 Mg3_1 3.191038 1_555
Cd1_2 Mg0_0 3.026961 1_555
Cd1_2 Mg0_6 3.026961 1_455
Cd1_2 Mg2_0 3.077602 1_555
Cd1_2 Mg2_6 3.077602 1_455
Cd1_2 Mg1_7 3.095232 1_554
Cd1_2 Mg1_1 3.095232 1_564
Cd1_2 Cd1_4 3.113415 1_465
Cd1_2 Cd1_4 3.113415 1_555
Cd1_2 Mg3_6 3.119987 1_555
Cd1_2 Mg3_0 3.119987 1_565
Cd1_2 Mg3_2 3.191038 1_555
Cd1_3 Mg0_7 3.026961 1_455
Cd1_3 Mg0_1 3.026961 1_555
Cd1_3 Mg2_7 3.077602 1_455
Cd1_3 Mg2_1 3.077602 1_555
Cd1_3 Mg1_0 3.095232 1_565
Cd1_3 Mg1_6 3.095232 1_555
Cd1_3 Cd1_5 3.113415 1_465
Cd1_3 Cd1_5 3.113415 1_555
Cd1_3 Mg3_7 3.119987 1_555
Cd1_3 Mg3_1 3.119987 1_565
Cd1_3 Mg3_3 3.191038 1_555
Cd1_4 Mg0_0 3.026961 1_555
Cd1_4 Mg0_6 3.026961 1_545
Cd1_4 Mg2_0 3.077602 1_555
Cd1_4 Mg2_6 3.077602 1_545
Cd1_4 Mg1_7 3.095232 1_554
Cd1_4 Mg1_1 3.095232 1_654
Cd1_4 Mg3_6 3.119987 1_555
Cd1_4 Mg3_0 3.119987 1_655
Cd1_4 Mg3_4 3.191038 1_555
Cd1_5 Mg0_7 3.026961 1_545
Cd1_5 Mg0_1 3.026961 1_555
Cd1_5 Mg2_7 3.077602 1_545
Cd1_5 Mg2_1 3.077602 1_555
Cd1_5 Mg1_6 3.095232 1_555
Cd1_5 Mg1_0 3.095232 1_655
Cd1_5 Mg3_7 3.119987 1_555
Cd1_5 Mg3_1 3.119987 1_655
Cd1_5 Mg3_5 3.191038 1_555
Cd1_6 Mg0_4 3.026961 1_555
Cd1_6 Mg0_2 3.026961 1_555
Cd1_6 Mg2_4 3.077602 1_555
Cd1_6 Mg2_2 3.077602 1_555
Cd1_6 Mg1_3 3.095232 1_654
Cd1_6 Mg1_5 3.095232 1_564
Cd1_6 Mg3_2 3.119987 1_655
Cd1_6 Mg3_4 3.119987 1_565
Cd1_6 Mg3_6 3.191038 1_555
Cd1_7 Mg0_5 3.026961 1_555
Cd1_7 Mg0_3 3.026961 1_555
Cd1_7 Mg2_5 3.077602 1_555
Cd1_7 Mg2_3 3.077602 1_555
Cd1_7 Mg1_2 3.095232 1_655
Cd1_7 Mg1_4 3.095232 1_565
Cd1_7 Mg3_5 3.119987 1_565
Cd1_7 Mg3_3 3.119987 1_655
Cd1_7 Mg3_7 3.191038 1_555
