# generated using pymatgen
data_BaMg14Sb
_symmetry_space_group_name_H-M   'P 1'
_cell_length_a   6.58407097
_cell_length_b   6.58407040
_cell_length_c   10.72752474
_cell_angle_alpha   90.00000000
_cell_angle_beta   90.00000000
_cell_angle_gamma   120.00000284
_symmetry_Int_Tables_number   1
_chemical_formula_structural   BaMg14Sb
_chemical_formula_sum   'Ba1 Mg14 Sb1'
_cell_volume   402.73475820
_cell_formula_units_Z   1
loop_
 _symmetry_equiv_pos_site_id
 _symmetry_equiv_pos_as_xyz
  1  'x, y, z'
loop_
 _atom_site_type_symbol
 _atom_site_label
 _atom_site_symmetry_multiplicity
 _atom_site_fract_x
 _atom_site_fract_y
 _atom_site_fract_z
 _atom_site_occupancy
  Ba  Ba0  1  0.16666700  0.33333300  0.12500000  1
  Mg  Mg0  1  0.17887388  0.83943644  0.12500000  1
  Mg  Mg1  1  0.15890270  0.82945085  0.62500000  1
  Mg  Mg2  1  0.66056356  0.32112612  0.12500000  1
  Mg  Mg3  1  0.67054915  0.34109730  0.62500000  1
  Mg  Mg4  1  0.66056356  0.83943644  0.12500000  1
  Mg  Mg5  1  0.67054915  0.82945085  0.62500000  1
  Mg  Mg6  1  0.33884425  0.16115575  0.38826575  1
  Mg  Mg7  1  0.33884425  0.16115575  0.86173425  1
  Mg  Mg8  1  0.33884425  0.67768949  0.38826575  1
  Mg  Mg9  1  0.33884425  0.67768949  0.86173425  1
  Mg  Mg10  1  0.82231051  0.16115575  0.38826575  1
  Mg  Mg11  1  0.82231051  0.16115575  0.86173425  1
  Mg  Mg12  1  0.83333300  0.66666700  0.36768439  1
  Mg  Mg13  1  0.83333300  0.66666700  0.88231561  1
  Sb  Sb0  1  0.16666700  0.33333300  0.62500000  1
loop_
_geom_bond_atom_site_label_1
_geom_bond_atom_site_label_2
_geom_bond_distance
_geom_bond_site_symmetry_2
Ba0 Mg0 3.292771 1_555
Ba0 Mg4 3.292771 1_555
Ba0 Mg0 3.292771 1_545
Ba0 Mg4 3.292771 1_445
Ba0 Mg2 3.292771 1_555
Ba0 Mg2 3.292771 1_455
Ba0 Mg7 3.439677 1_554
Ba0 Mg6 3.439677 1_555
Ba0 Mg9 3.439684 1_554
Ba0 Mg8 3.439684 1_555
Ba0 Mg11 3.439684 1_454
Ba0 Mg10 3.439684 1_455
Mg0 Mg2 3.171479 1_565
Mg0 Mg4 3.171479 1_555
Mg0 Mg13 3.264912 1_454
Mg0 Mg12 3.264912 1_455
Mg0 Mg9 3.367669 1_554
Mg0 Mg8 3.367669 1_555
Mg0 Mg7 3.367675 1_564
Mg0 Mg6 3.367675 1_565
Mg0 Mg2 3.412592 1_455
Mg0 Mg4 3.412592 1_455
Mg1 Mg8 3.167851 1_555
Mg1 Mg9 3.167851 1_555
Mg1 Mg6 3.167858 1_565
Mg1 Mg7 3.167858 1_565
Mg1 Mg3 3.215354 1_455
Mg1 Mg5 3.215354 1_455
Mg1 Sb0 3.292333 1_565
Mg1 Sb0 3.292333 1_555
Mg1 Mg12 3.326525 1_455
Mg1 Mg13 3.326525 1_455
Mg1 Mg3 3.368716 1_565
Mg1 Mg5 3.368717 1_555
Mg2 Mg4 3.171479 1_545
Mg2 Mg7 3.367675 1_554
Mg2 Mg6 3.367675 1_555
Mg2 Mg4 3.412592 1_555
Mg3 Mg6 3.167858 1_555
Mg3 Mg7 3.167858 1_555
Mg3 Mg5 3.215354 1_555
Mg3 Sb0 3.292333 1_655
Mg3 Sb0 3.292333 1_555
Mg3 Mg5 3.368716 1_545
Mg4 Mg9 3.367675 1_554
Mg4 Mg8 3.367675 1_555
Mg5 Mg8 3.167858 1_555
Mg5 Mg9 3.167858 1_555
Mg5 Sb0 3.292333 1_665
Mg5 Sb0 3.292333 1_555
Mg6 Mg8 3.183176 1_545
Mg6 Sb0 3.210103 1_555
Mg6 Mg8 3.400895 1_555
Mg7 Mg9 3.183176 1_545
Mg7 Sb0 3.210103 1_555
Mg7 Mg9 3.400895 1_555
Mg8 Sb0 3.210110 1_555
Mg9 Sb0 3.210110 1_555
Mg10 Mg3 3.167851 1_555
Mg10 Mg5 3.167858 1_545
Mg10 Mg8 3.183176 1_545
Mg10 Mg6 3.183176 1_555
Mg10 Sb0 3.210110 1_655
Mg10 Mg12 3.300029 1_545
Mg10 Mg12 3.300029 1_555
Mg10 Mg2 3.367669 1_555
Mg10 Mg4 3.367675 1_545
Mg10 Mg8 3.400895 1_655
Mg10 Mg6 3.400895 1_655
Mg11 Mg3 3.167851 1_555
Mg11 Mg5 3.167858 1_545
Mg11 Mg9 3.183176 1_545
Mg11 Mg7 3.183176 1_555
Mg11 Sb0 3.210110 1_655
Mg11 Mg13 3.300029 1_545
Mg11 Mg13 3.300029 1_555
Mg11 Mg2 3.367669 1_556
Mg11 Mg4 3.367675 1_546
Mg11 Mg9 3.400895 1_655
Mg11 Mg7 3.400895 1_655
Mg12 Mg4 3.264905 1_555
Mg12 Mg2 3.264912 1_555
Mg12 Mg6 3.300029 1_555
Mg12 Mg6 3.300029 1_665
Mg12 Mg8 3.300029 1_555
Mg12 Mg8 3.300030 1_655
Mg12 Mg5 3.326518 1_555
Mg12 Mg3 3.326525 1_555
Mg13 Mg4 3.264905 1_556
Mg13 Mg2 3.264912 1_556
Mg13 Mg7 3.300029 1_555
Mg13 Mg7 3.300029 1_665
Mg13 Mg9 3.300029 1_555
Mg13 Mg9 3.300030 1_655
Mg13 Mg5 3.326518 1_555
Mg13 Mg3 3.326525 1_555
