# generated using pymatgen
data_Rb2LiFe(MoO4)3
_symmetry_space_group_name_H-M   'P 1'
_cell_length_a   5.95089400
_cell_length_b   8.68238200
_cell_length_c   25.01620000
_cell_angle_alpha   90.00000000
_cell_angle_beta   90.00000000
_cell_angle_gamma   90.00000000
_symmetry_Int_Tables_number   1
_chemical_formula_structural   Rb2LiFe(MoO4)3
_chemical_formula_sum   'Rb8 Li4 Fe4 Mo12 O48'
_cell_volume   1292.53539428
_cell_formula_units_Z   4
loop_
 _symmetry_equiv_pos_site_id
 _symmetry_equiv_pos_as_xyz
  1  'x, y, z'
loop_
 _atom_site_type_symbol
 _atom_site_label
 _atom_site_symmetry_multiplicity
 _atom_site_fract_x
 _atom_site_fract_y
 _atom_site_fract_z
 _atom_site_occupancy
  Rb  Rb0  1  0.75000000  0.87605800  0.21044800  1
  Rb  Rb1  1  0.75000000  0.62394200  0.71044800  1
  Rb  Rb2  1  0.25000000  0.12394200  0.78955200  1
  Rb  Rb3  1  0.25000000  0.37605800  0.28955200  1
  Rb  Rb4  1  0.75000000  0.45137400  0.91884900  1
  Rb  Rb5  1  0.75000000  0.04862600  0.41884900  1
  Rb  Rb6  1  0.25000000  0.54862600  0.08115100  1
  Rb  Rb7  1  0.25000000  0.95137400  0.58115100  1
  Li  Li0  1  0.25000000  0.68600900  0.20775800  1
  Li  Li1  1  0.25000000  0.81399100  0.70775800  1
  Li  Li2  1  0.75000000  0.31399100  0.79224200  1
  Li  Li3  1  0.75000000  0.18600900  0.29224200  1
  Fe  Fe0  1  0.75000000  0.19852400  0.05882500  1
  Fe  Fe1  1  0.75000000  0.30147600  0.55882500  1
  Fe  Fe2  1  0.25000000  0.80147600  0.94117500  1
  Fe  Fe3  1  0.25000000  0.69852400  0.44117500  1
  Mo  Mo0  1  0.25000000  0.20132500  0.97992900  1
  Mo  Mo1  1  0.25000000  0.29867500  0.47992900  1
  Mo  Mo2  1  0.75000000  0.79867500  0.02007100  1
  Mo  Mo3  1  0.75000000  0.70132500  0.52007100  1
  Mo  Mo4  1  0.75000000  0.43865400  0.17776300  1
  Mo  Mo5  1  0.75000000  0.06134600  0.67776300  1
  Mo  Mo6  1  0.25000000  0.56134600  0.82223700  1
  Mo  Mo7  1  0.25000000  0.93865400  0.32223700  1
  Mo  Mo8  1  0.25000000  0.06191700  0.13911200  1
  Mo  Mo9  1  0.25000000  0.43808300  0.63911200  1
  Mo  Mo10  1  0.75000000  0.93808300  0.86088800  1
  Mo  Mo11  1  0.75000000  0.56191700  0.36088800  1
  O  O0  1  0.25000000  0.24809600  0.91190500  1
  O  O1  1  0.25000000  0.25190400  0.41190500  1
  O  O2  1  0.75000000  0.75190400  0.08809500  1
  O  O3  1  0.75000000  0.74809600  0.58809500  1
  O  O4  1  0.25000000  0.99627200  0.98784000  1
  O  O5  1  0.25000000  0.50372800  0.48784000  1
  O  O6  1  0.75000000  0.00372800  0.01216000  1
  O  O7  1  0.75000000  0.49627200  0.51216000  1
  O  O8  1  0.99750600  0.28772100  0.00970600  1
  O  O9  1  0.50249400  0.21227900  0.50970600  1
  O  O10  1  0.49750600  0.71227900  0.99029400  1
  O  O11  1  0.00249400  0.78772100  0.49029400  1
  O  O12  1  0.00249400  0.71227900  0.99029400  1
  O  O13  1  0.49750600  0.78772100  0.49029400  1
  O  O14  1  0.50249400  0.28772100  0.00970600  1
  O  O15  1  0.99750600  0.21227900  0.50970600  1
  O  O16  1  0.75000000  0.27596200  0.22082900  1
  O  O17  1  0.75000000  0.22403800  0.72082900  1
  O  O18  1  0.25000000  0.72403800  0.77917100  1
  O  O19  1  0.25000000  0.77596200  0.27917100  1
  O  O20  1  0.50650700  0.55318500  0.19135500  1
  O  O21  1  0.99349300  0.94681500  0.69135500  1
  O  O22  1  0.00650700  0.44681500  0.80864500  1
  O  O23  1  0.49349300  0.05318500  0.30864500  1
  O  O24  1  0.49349300  0.44681500  0.80864500  1
  O  O25  1  0.00650700  0.05318500  0.30864500  1
  O  O26  1  0.99349300  0.55318500  0.19135500  1
  O  O27  1  0.50650700  0.94681500  0.69135500  1
  O  O28  1  0.75000000  0.38224900  0.10670800  1
  O  O29  1  0.75000000  0.11775100  0.60670800  1
  O  O30  1  0.25000000  0.61775100  0.89329200  1
  O  O31  1  0.25000000  0.88224900  0.39329200  1
  O  O32  1  0.25000000  0.18008800  0.19577300  1
  O  O33  1  0.25000000  0.31991200  0.69577300  1
  O  O34  1  0.75000000  0.81991200  0.80422700  1
  O  O35  1  0.75000000  0.68008800  0.30422700  1
  O  O36  1  0.25000000  0.86532600  0.16111300  1
  O  O37  1  0.25000000  0.63467400  0.66111300  1
  O  O38  1  0.75000000  0.13467400  0.83888700  1
  O  O39  1  0.75000000  0.36532600  0.33888700  1
  O  O40  1  0.50463800  0.10199800  0.10164800  1
  O  O41  1  0.99536200  0.39800200  0.60164800  1
  O  O42  1  0.00463800  0.89800200  0.89835200  1
  O  O43  1  0.49536200  0.60199800  0.39835200  1
  O  O44  1  0.49536200  0.89800200  0.89835200  1
  O  O45  1  0.00463800  0.60199800  0.39835200  1
  O  O46  1  0.99536200  0.10199800  0.10164800  1
  O  O47  1  0.50463800  0.39800200  0.60164800  1
loop_
_geom_bond_atom_site_label_1
_geom_bond_atom_site_label_2
_geom_bond_distance
_geom_bond_site_symmetry_2
Li0 O36 1.945647 1_555
Li0 O19 1.949741 1_555
Li0 O20 1.956618 1_555
Li0 O26 1.956618 1_455
Li1 O37 1.945647 1_555
Li1 O18 1.949741 1_555
Li1 O21 1.956618 1_455
Li1 O27 1.956618 1_555
Li2 O38 1.945647 1_555
Li2 O17 1.949741 1_555
Li2 O22 1.956618 1_655
Li2 O24 1.956618 1_555
Li3 O39 1.945647 1_555
Li3 O16 1.949741 1_555
Li3 O23 1.956618 1_555
Li3 O25 1.956618 1_655
Fe0 O28 1.994847 1_555
Fe0 O46 1.995482 1_555
Fe0 O40 1.995482 1_555
Fe0 O6 2.055055 1_555
Fe0 O8 2.068579 1_555
Fe0 O14 2.068579 1_555
Fe1 O29 1.994847 1_555
Fe1 O47 1.995482 1_555
Fe1 O41 1.995482 1_555
Fe1 O7 2.055055 1_555
Fe1 O15 2.068579 1_555
Fe1 O9 2.068579 1_555
Fe2 O30 1.994847 1_555
Fe2 O42 1.995482 1_555
Fe2 O44 1.995482 1_555
Fe2 O4 2.055055 1_555
Fe2 O12 2.068579 1_555
Fe2 O10 2.068579 1_555
Fe3 O31 1.994847 1_555
Fe3 O45 1.995482 1_555
Fe3 O43 1.995482 1_555
Fe3 O5 2.055055 1_555
Fe3 O13 2.068579 1_555
Fe3 O11 2.068579 1_555
Mo0 O0 1.749484 1_555
Mo0 O4 1.791314 1_545
Mo0 O8 1.837192 1_456
Mo0 O14 1.837192 1_556
Mo1 O1 1.749484 1_555
Mo1 O5 1.791314 1_555
Mo1 O15 1.837192 1_455
Mo1 O9 1.837192 1_555
Mo2 O2 1.749484 1_555
Mo2 O6 1.791314 1_565
Mo2 O12 1.837192 1_654
Mo2 O10 1.837192 1_554
Mo3 O3 1.749484 1_555
Mo3 O7 1.791314 1_555
Mo3 O13 1.837192 1_555
Mo3 O11 1.837192 1_655
Mo4 O16 1.776510 1_555
Mo4 O26 1.789987 1_555
Mo4 O20 1.789987 1_555
Mo4 O28 1.843755 1_555
Mo5 O17 1.776510 1_555
Mo5 O21 1.789987 1_545
Mo5 O27 1.789987 1_545
Mo5 O29 1.843755 1_555
Mo6 O18 1.776510 1_555
Mo6 O24 1.789987 1_555
Mo6 O22 1.789987 1_555
Mo6 O30 1.843755 1_555
Mo7 O19 1.776510 1_555
Mo7 O25 1.789987 1_565
Mo7 O23 1.789987 1_565
Mo7 O31 1.843755 1_555
Mo8 O32 1.749809 1_555
Mo8 O36 1.793419 1_545
Mo8 O40 1.815397 1_555
Mo8 O46 1.815397 1_455
Mo9 O33 1.749809 1_555
Mo9 O37 1.793419 1_555
Mo9 O41 1.815397 1_455
Mo9 O47 1.815397 1_555
Mo10 O34 1.749809 1_555
Mo10 O38 1.793419 1_565
Mo10 O44 1.815397 1_555
Mo10 O42 1.815397 1_655
Mo11 O35 1.749809 1_555
Mo11 O39 1.793419 1_555
Mo11 O45 1.815397 1_655
Mo11 O43 1.815397 1_555
O0 Rb2 3.245077 1_555
O0 Rb4 3.463880 1_455
O0 Rb4 3.463880 1_555
O1 Rb3 3.245077 1_555
O1 Rb5 3.463880 1_555
O1 Rb5 3.463880 1_455
O2 Rb0 3.245077 1_555
O2 Rb6 3.463880 1_655
O2 Rb6 3.463880 1_555
O3 Rb1 3.245077 1_555
O3 Rb7 3.463880 1_555
O3 Rb7 3.463880 1_655
O8 Rb4 3.058495 1_554
O8 Rb6 3.253238 1_655
O9 Rb5 3.058495 1_555
O9 Rb7 3.253238 1_545
O10 Rb6 3.058495 1_556
O10 Rb4 3.253238 1_555
O11 Rb7 3.058495 1_555
O11 Rb5 3.253238 1_465
O12 Rb6 3.058495 1_556
O12 Rb4 3.253238 1_455
O13 Rb7 3.058495 1_555
O13 Rb5 3.253238 1_565
O14 Rb4 3.058495 1_554
O14 Rb6 3.253238 1_555
O15 Rb5 3.058495 1_555
O15 Rb7 3.253238 1_645
O16 Rb0 3.481817 1_545
O17 Rb1 3.481817 1_555
O18 Rb2 3.481817 1_565
O19 Rb3 3.481817 1_555
O20 Rb6 3.151511 1_555
O20 Rb0 3.191593 1_555
O20 Rb3 3.275606 1_555
O21 Rb7 3.151511 1_655
O21 Rb1 3.191593 1_555
O21 Rb2 3.275606 1_665
O22 Rb4 3.151511 1_455
O22 Rb2 3.191593 1_555
O22 Rb1 3.275606 1_455
O23 Rb5 3.151511 1_555
O23 Rb3 3.191593 1_555
O23 Rb0 3.275606 1_545
O24 Rb4 3.151511 1_555
O24 Rb2 3.191593 1_555
O24 Rb1 3.275606 1_555
O25 Rb5 3.151511 1_455
O25 Rb3 3.191593 1_555
O25 Rb0 3.275606 1_445
O26 Rb6 3.151511 1_655
O26 Rb0 3.191593 1_555
O26 Rb3 3.275606 1_655
O27 Rb7 3.151511 1_555
O27 Rb1 3.191593 1_555
O27 Rb2 3.275606 1_565
O28 Rb6 3.368792 1_655
O28 Rb6 3.368792 1_555
O29 Rb7 3.368792 1_545
O29 Rb7 3.368792 1_645
O30 Rb4 3.368792 1_455
O30 Rb4 3.368792 1_555
O31 Rb5 3.368792 1_565
O31 Rb5 3.368792 1_465
O32 Rb3 2.898059 1_555
O33 Rb2 2.898059 1_555
O34 Rb1 2.898059 1_555
O35 Rb0 2.898059 1_555
O36 Rb0 3.222600 1_455
O36 Rb0 3.222600 1_555
O36 Rb6 3.400337 1_555
O37 Rb1 3.222600 1_455
O37 Rb1 3.222600 1_555
O37 Rb7 3.400337 1_555
O38 Rb2 3.222600 1_655
O38 Rb2 3.222600 1_555
O38 Rb4 3.400337 1_555
O39 Rb3 3.222600 1_555
O39 Rb3 3.222600 1_655
O39 Rb5 3.400337 1_555
