# generated using pymatgen
data_V11Sb9O40
_symmetry_space_group_name_H-M   'P 1'
_cell_length_a   3.14760400
_cell_length_b   4.67661930
_cell_length_c   46.63217624
_cell_angle_alpha   89.70752186
_cell_angle_beta   90.00000000
_cell_angle_gamma   90.00000000
_symmetry_Int_Tables_number   1
_chemical_formula_structural   V11Sb9O40
_chemical_formula_sum   'V11 Sb9 O40'
_cell_volume   686.42348086
_cell_formula_units_Z   1
loop_
 _symmetry_equiv_pos_site_id
 _symmetry_equiv_pos_as_xyz
  1  'x, y, z'
loop_
 _atom_site_type_symbol
 _atom_site_label
 _atom_site_symmetry_multiplicity
 _atom_site_fract_x
 _atom_site_fract_y
 _atom_site_fract_z
 _atom_site_occupancy
  V  V0  1  0.00000000  0.01885200  0.00128400  1
  V  V1  1  0.00000000  0.98114800  0.49871600  1
  V  V2  1  0.00000000  0.99987000  0.70007000  1
  V  V3  1  0.00000000  0.99853900  0.59998800  1
  V  V4  1  0.00000000  0.00013000  0.79993000  1
  V  V5  1  0.00000000  0.00146100  0.90001200  1
  V  V6  1  0.50000000  0.52183400  0.04725200  1
  V  V7  1  0.50000000  0.50157700  0.14962500  1
  V  V8  1  0.50000000  0.49842300  0.35037500  1
  V  V9  1  0.50000000  0.50000000  0.25000000  1
  V  V10  1  0.50000000  0.47816600  0.45274800  1
  Sb  Sb0  1  0.00000000  0.00566400  0.09924400  1
  Sb  Sb1  1  0.00000000  0.00061900  0.19979200  1
  Sb  Sb2  1  0.00000000  0.99433600  0.40075600  1
  Sb  Sb3  1  0.00000000  0.99938100  0.30020800  1
  Sb  Sb4  1  0.50000000  0.49892100  0.65004300  1
  Sb  Sb5  1  0.50000000  0.50000000  0.75000000  1
  Sb  Sb6  1  0.50000000  0.49586400  0.54974200  1
  Sb  Sb7  1  0.50000000  0.50107900  0.84995700  1
  Sb  Sb8  1  0.50000000  0.50413600  0.95025800  1
  O  O0  1  0.00000000  0.68927700  0.06992400  1
  O  O1  1  0.00000000  0.30434100  0.12936400  1
  O  O2  1  0.00000000  0.69544700  0.17011800  1
  O  O3  1  0.00000000  0.30455300  0.32988200  1
  O  O4  1  0.00000000  0.69565900  0.37063600  1
  O  O5  1  0.00000000  0.31072300  0.43007600  1
  O  O6  1  0.00000000  0.30707600  0.52966200  1
  O  O7  1  0.00000000  0.69191100  0.56951900  1
  O  O8  1  0.00000000  0.30902400  0.73052100  1
  O  O9  1  0.00000000  0.69097600  0.76947900  1
  O  O10  1  0.00000000  0.30808900  0.93048100  1
  O  O11  1  0.00000000  0.69292400  0.97033800  1
  O  O12  1  0.50000000  0.18916600  0.28054700  1
  O  O13  1  0.50000000  0.19492600  0.07898300  1
  O  O14  1  0.50000000  0.19017900  0.38087300  1
  O  O15  1  0.50000000  0.80135700  0.02047900  1
  O  O16  1  0.50000000  0.19327800  0.17982500  1
  O  O17  1  0.50000000  0.19864300  0.47952100  1
  O  O18  1  0.50000000  0.80982100  0.11912700  1
  O  O19  1  0.50000000  0.81083400  0.21945300  1
  O  O20  1  0.50000000  0.19560800  0.68016700  1
  O  O21  1  0.50000000  0.80672200  0.32017500  1
  O  O22  1  0.50000000  0.19664400  0.57992100  1
  O  O23  1  0.50000000  0.19676800  0.87974600  1
  O  O24  1  0.50000000  0.80412900  0.51970400  1
  O  O25  1  0.50000000  0.80507400  0.42101700  1
  O  O26  1  0.50000000  0.80323200  0.62025400  1
  O  O27  1  0.50000000  0.19543100  0.78002500  1
  O  O28  1  0.50000000  0.80456900  0.71997500  1
  O  O29  1  0.50000000  0.19587100  0.98029600  1
  O  O30  1  0.50000000  0.80439200  0.81983300  1
  O  O31  1  0.50000000  0.80335600  0.92007900  1
  O  O32  1  0.00000000  0.31608800  0.03168700  1
  O  O33  1  0.00000000  0.30411900  0.22988300  1
  O  O34  1  0.00000000  0.69588100  0.27011700  1
  O  O35  1  0.00000000  0.68391200  0.46831300  1
  O  O36  1  0.00000000  0.30475600  0.63031400  1
  O  O37  1  0.00000000  0.68883400  0.66964400  1
  O  O38  1  0.00000000  0.31116600  0.83035600  1
  O  O39  1  0.00000000  0.69524400  0.86968600  1
loop_
_geom_bond_atom_site_label_1
_geom_bond_atom_site_label_2
_geom_bond_distance
_geom_bond_site_symmetry_2
O0 Sb0 2.019733 1_565
O0 V6 2.053355 1_455
O0 V6 2.053355 1_555
O1 Sb0 1.985917 1_555
O1 V7 2.056512 1_555
O1 V7 2.056512 1_455
O2 Sb1 1.992934 1_565
O2 V7 2.054497 1_555
O2 V7 2.054497 1_455
O3 Sb3 1.992934 1_545
O3 V8 2.054497 1_455
O3 V8 2.054497 1_555
O4 Sb2 1.985917 1_555
O4 V8 2.056512 1_555
O4 V8 2.056512 1_455
O5 Sb2 2.019733 1_545
O5 V10 2.053355 1_455
O5 V10 2.053355 1_555
O6 Sb6 2.035088 1_455
O6 Sb6 2.035088 1_555
O6 V1 2.104340 1_545
O7 V3 2.023828 1_555
O7 Sb6 2.043676 1_555
O7 Sb6 2.043676 1_455
O8 Sb5 2.026795 1_455
O8 Sb5 2.026795 1_555
O8 V2 2.031668 1_545
O9 Sb5 2.026795 1_455
O9 Sb5 2.026795 1_555
O9 V4 2.031668 1_565
O10 V5 2.023828 1_555
O10 Sb8 2.043676 1_455
O10 Sb8 2.043676 1_555
O11 Sb8 2.035088 1_455
O11 Sb8 2.035088 1_555
O11 V0 2.104340 1_566
O12 Sb3 2.024075 1_545
O12 Sb3 2.024075 1_645
O12 V9 2.030046 1_555
O13 Sb0 2.035781 1_655
O13 Sb0 2.035781 1_555
O13 V6 2.122187 1_555
O14 V8 2.019833 1_555
O14 Sb2 2.041250 1_545
O14 Sb2 2.041250 1_645
O15 V6 1.803020 1_555
O15 V0 2.074451 1_665
O15 V0 2.074451 1_565
O16 V7 2.010307 1_555
O16 Sb1 2.036426 1_655
O16 Sb1 2.036426 1_555
O17 V10 1.803020 1_555
O17 V1 2.074451 1_545
O17 V1 2.074451 1_645
O18 V7 2.019833 1_555
O18 Sb0 2.041250 1_565
O18 Sb0 2.041250 1_665
O19 Sb1 2.024075 1_565
O19 Sb1 2.024075 1_665
O19 V9 2.030046 1_555
O20 Sb4 1.991245 1_555
O20 V2 2.041453 1_545
O20 V2 2.041453 1_645
O21 V8 2.010307 1_555
O21 Sb3 2.036426 1_655
O21 Sb3 2.036426 1_555
O22 Sb6 1.979538 1_555
O22 V3 2.049877 1_545
O22 V3 2.049877 1_645
O23 Sb7 1.983642 1_555
O23 V5 2.048270 1_655
O23 V5 2.048270 1_555
O24 Sb6 2.004936 1_555
O24 V1 2.027758 1_555
O24 V1 2.027758 1_655
O25 Sb2 2.035781 1_655
O25 Sb2 2.035781 1_555
O25 V10 2.122187 1_555
O26 Sb4 1.983642 1_555
O26 V3 2.048270 1_655
O26 V3 2.048270 1_555
O27 Sb5 1.992182 1_555
O27 V4 2.040584 1_555
O27 V4 2.040584 1_655
O28 Sb5 1.992182 1_555
O28 V2 2.040584 1_655
O28 V2 2.040584 1_555
O29 Sb8 2.004936 1_555
O29 V0 2.027758 1_556
O29 V0 2.027758 1_656
O30 Sb7 1.991245 1_555
O30 V4 2.041453 1_565
O30 V4 2.041453 1_665
O31 Sb8 1.979538 1_555
O31 V5 2.049877 1_565
O31 V5 2.049877 1_665
O32 V6 1.984095 1_555
O32 V6 1.984095 1_455
O32 V0 1.990584 1_555
O33 Sb1 2.000973 1_555
O33 V9 2.050567 1_555
O33 V9 2.050567 1_455
O34 Sb3 2.000973 1_555
O34 V9 2.050567 1_555
O34 V9 2.050567 1_455
O35 V10 1.984095 1_555
O35 V10 1.984095 1_455
O35 V1 1.990584 1_555
O36 V3 2.017757 1_545
O36 Sb4 2.038706 1_555
O36 Sb4 2.038706 1_455
O37 Sb4 2.027170 1_455
O37 Sb4 2.027170 1_555
O37 V2 2.037156 1_555
O38 Sb7 2.027170 1_555
O38 Sb7 2.027170 1_455
O38 V4 2.037156 1_555
O39 V5 2.017757 1_565
O39 Sb7 2.038706 1_455
O39 Sb7 2.038706 1_555
