# generated using pymatgen
data_Mg4Si7
_symmetry_space_group_name_H-M   'P 1'
_cell_length_a   4.01901900
_cell_length_b   7.12364394
_cell_length_c   14.41384121
_cell_angle_alpha   95.48017584
_cell_angle_beta   97.28755240
_cell_angle_gamma   92.49350322
_symmetry_Int_Tables_number   1
_chemical_formula_structural   Mg4Si7
_chemical_formula_sum   'Mg8 Si14'
_cell_volume   406.81767397
_cell_formula_units_Z   2
loop_
 _symmetry_equiv_pos_site_id
 _symmetry_equiv_pos_as_xyz
  1  'x, y, z'
loop_
 _atom_site_type_symbol
 _atom_site_label
 _atom_site_symmetry_multiplicity
 _atom_site_fract_x
 _atom_site_fract_y
 _atom_site_fract_z
 _atom_site_occupancy
  Mg  Mg0  1  0.16059900  0.18888700  0.93450500  1
  Mg  Mg1  1  0.95110700  0.35441100  0.50603400  1
  Mg  Mg2  1  0.36108600  0.17251900  0.36173600  1
  Mg  Mg3  1  0.53695300  0.56577300  0.64980700  1
  Mg  Mg4  1  0.12678300  0.58719100  0.82672400  1
  Mg  Mg5  1  0.60920100  0.47271100  0.11629000  1
  Mg  Mg6  1  0.44409300  0.63775600  0.41999600  1
  Mg  Mg7  1  0.47897200  0.04704000  0.57846300  1
  Si  Si0  1  0.69558500  0.46051100  0.93762200  1
  Si  Si1  1  0.62133500  0.79413900  0.96391300  1
  Si  Si2  1  0.16752800  0.84406200  0.05940600  1
  Si  Si3  1  0.20059000  0.16281400  0.12194600  1
  Si  Si4  1  0.00344100  0.74175300  0.55640600  1
  Si  Si5  1  0.90455400  0.96539800  0.44207400  1
  Si  Si6  1  0.74887700  0.15347100  0.21600500  1
  Si  Si7  1  0.55865700  0.94133100  0.81463000  1
  Si  Si8  1  0.02538200  0.25938700  0.68698200  1
  Si  Si9  1  0.18485700  0.68064100  0.21316500  1
  Si  Si10  1  0.89255200  0.44560200  0.31722800  1
  Si  Si11  1  0.56755000  0.28353600  0.78788300  1
  Si  Si12  1  0.01867600  0.90158000  0.71363600  1
  Si  Si13  1  0.73793500  0.84310700  0.27909300  1
loop_
_geom_bond_atom_site_label_1
_geom_bond_atom_site_label_2
_geom_bond_distance
_geom_bond_site_symmetry_2
Mg0 Si3 2.710726 1_556
Mg0 Si0 2.749218 1_455
Mg0 Si0 2.822403 1_555
Mg0 Si11 2.940943 1_555
Mg0 Si7 3.003259 1_545
Mg0 Si11 3.120262 1_455
Mg0 Si7 3.151880 1_445
Mg0 Si2 3.180208 1_546
Mg1 Si8 2.739905 1_655
Mg1 Si4 2.777258 1_655
Mg1 Si5 2.826229 1_545
Mg1 Si10 2.841125 1_555
Mg2 Si5 2.741208 1_445
Mg2 Si6 2.766632 1_555
Mg2 Si10 2.827090 1_455
Mg2 Si5 2.872931 1_545
Mg2 Si10 2.997127 1_555
Mg2 Si6 3.014957 1_455
Mg2 Si13 3.074494 1_545
Mg3 Si4 2.767155 1_655
Mg3 Si4 2.793828 1_555
Mg3 Si11 2.956701 1_555
Mg3 Si12 3.006988 1_655
Mg3 Si8 3.038669 1_655
Mg3 Si8 3.064376 1_555
Mg4 Si0 2.686065 1_455
Mg4 Si0 2.850149 1_555
Mg4 Si1 2.867969 1_555
Mg4 Si12 2.909268 1_555
Mg4 Si11 2.912785 1_555
Mg4 Si8 2.913192 1_555
Mg4 Si11 3.011736 1_455
Mg4 Si7 3.031036 1_555
Mg5 Si0 2.635701 1_554
Mg5 Si3 2.707377 1_555
Mg5 Si9 2.735185 1_555
Mg5 Si9 2.825524 1_655
Mg5 Si6 2.843124 1_555
Mg5 Si10 3.001971 1_555
Mg6 Si10 2.738092 1_455
Mg6 Si10 2.796631 1_555
Mg6 Si4 2.814942 1_655
Mg6 Si4 2.875847 1_555
Mg6 Si5 2.882094 1_555
Mg6 Si13 2.947030 1_555
Mg6 Si9 3.078995 1_555
Mg7 Si4 2.799168 1_545
Mg7 Si5 2.801740 1_545
Mg7 Si8 2.818686 1_655
Mg7 Si5 2.836544 1_445
Mg7 Si8 2.927382 1_555
Mg7 Si12 3.013928 1_645
Mg7 Si12 3.070073 1_545
Mg7 Si4 3.116167 1_645
Si0 Si11 2.377932 1_555
Si0 Si1 2.408212 1_555
Si1 Si2 2.431414 1_656
Si1 Si2 2.438708 1_556
Si1 Si7 2.471700 1_555
Si2 Si3 2.353427 1_565
Si2 Si9 2.594725 1_555
Si3 Si6 2.401972 1_455
Si3 Si6 2.443422 1_555
Si4 Si5 2.408801 1_455
Si10 Si6 2.427886 1_555
Si10 Si9 2.681217 1_655
Si11 Si8 2.451198 1_555
Si11 Si8 2.487809 1_655
Si11 Si7 2.503585 1_545
Si12 Si4 2.429403 1_555
Si12 Si7 2.444451 1_555
Si12 Si7 2.503407 1_455
Si12 Si8 2.613207 1_565
Si13 Si9 2.423349 1_655
Si13 Si5 2.425954 1_555
Si13 Si6 2.470365 1_565
Si13 Si9 2.492722 1_555
