# generated using pymatgen
data_CsTmS2
_symmetry_space_group_name_H-M   'P 1'
_cell_length_a   4.01833815
_cell_length_b   4.01833815
_cell_length_c   16.08424867
_cell_angle_alpha   90.00000000
_cell_angle_beta   90.00000000
_cell_angle_gamma   119.99972353
_symmetry_Int_Tables_number   1
_chemical_formula_structural   CsTmS2
_chemical_formula_sum   'Cs2 Tm2 S4'
_cell_volume   224.91870856
_cell_formula_units_Z   2
loop_
 _symmetry_equiv_pos_site_id
 _symmetry_equiv_pos_as_xyz
  1  'x, y, z'
loop_
 _atom_site_type_symbol
 _atom_site_label
 _atom_site_symmetry_multiplicity
 _atom_site_fract_x
 _atom_site_fract_y
 _atom_site_fract_z
 _atom_site_occupancy
  Cs  Cs0  1  0.66667419  0.33332581  0.75000000  1
  Cs  Cs1  1  0.33332581  0.66667419  0.25000000  1
  Tm  Tm0  1  0.00000000  -0.00000000  0.50000000  1
  Tm  Tm1  1  0.00000000  -0.00000000  0.00000000  1
  S  S0  1  0.66666561  0.33333439  0.08970499  1
  S  S1  1  0.33333439  0.66666561  0.91029501  1
  S  S2  1  0.33333439  0.66666561  0.58970499  1
  S  S3  1  0.66666561  0.33333439  0.41029501  1
loop_
_geom_bond_atom_site_label_1
_geom_bond_atom_site_label_2
_geom_bond_distance
_geom_bond_site_symmetry_2
Cs0 S2 3.468359 1_545
Cs0 S2 3.468359 1_655
Cs0 S1 3.468359 1_545
Cs0 S1 3.468359 1_655
Cs0 S1 3.468398 1_555
Cs0 S2 3.468398 1_555
Cs1 S0 3.468359 1_455
Cs1 S3 3.468359 1_565
Cs1 S0 3.468359 1_565
Cs1 S3 3.468359 1_455
Cs1 S3 3.468398 1_555
Cs1 S0 3.468398 1_555
S0 Tm1 2.732058 1_665
S0 Tm1 2.732058 1_555
S0 Tm1 2.732059 1_655
S1 Tm1 2.732058 1_666
S1 Tm1 2.732058 1_556
S1 Tm1 2.732059 1_566
S2 Tm0 2.732058 1_665
S2 Tm0 2.732058 1_555
S2 Tm0 2.732059 1_565
S3 Tm0 2.732058 1_665
S3 Tm0 2.732058 1_555
S3 Tm0 2.732059 1_655
