# generated using pymatgen
data_Ba5Gd8Mn4O21
_symmetry_space_group_name_H-M   'P 1'
_cell_length_a   10.43108539
_cell_length_b   10.43108539
_cell_length_c   10.43108539
_cell_angle_alpha   94.51044984
_cell_angle_beta   94.51044984
_cell_angle_gamma   147.42827437
_symmetry_Int_Tables_number   1
_chemical_formula_structural   Ba5Gd8Mn4O21
_chemical_formula_sum   'Ba5 Gd8 Mn4 O21'
_cell_volume   586.50497732
_cell_formula_units_Z   1
loop_
 _symmetry_equiv_pos_site_id
 _symmetry_equiv_pos_as_xyz
  1  'x, y, z'
loop_
 _atom_site_type_symbol
 _atom_site_label
 _atom_site_symmetry_multiplicity
 _atom_site_fract_x
 _atom_site_fract_y
 _atom_site_fract_z
 _atom_site_occupancy
  Ba  Ba0  1  0.86203800  0.46724900  0.32928700  1
  Ba  Ba1  1  0.13796200  0.53275100  0.67071300  1
  Ba  Ba2  1  0.46724900  0.13796200  0.60521100  1
  Ba  Ba3  1  0.53275100  0.86203800  0.39478900  1
  Ba  Ba4  1  0.00000000  0.00000000  0.00000000  1
  Gd  Gd0  1  0.75194500  0.16940300  0.92134800  1
  Gd  Gd1  1  0.16940300  0.24805500  0.41745800  1
  Gd  Gd2  1  0.83059700  0.75194500  0.58254200  1
  Gd  Gd3  1  0.24805500  0.83059700  0.07865200  1
  Gd  Gd4  1  0.58955500  0.35835300  0.94790700  1
  Gd  Gd5  1  0.35835300  0.41044500  0.76879800  1
  Gd  Gd6  1  0.64164700  0.58955500  0.23120200  1
  Gd  Gd7  1  0.41044500  0.64164700  0.05209300  1
  Mn  Mn0  1  0.04022700  0.75048200  0.79070900  1
  Mn  Mn1  1  0.24951800  0.04022700  0.28974500  1
  Mn  Mn2  1  0.95977300  0.24951800  0.20929100  1
  Mn  Mn3  1  0.75048200  0.95977300  0.71025500  1
  O  O0  1  0.89952700  0.49311500  0.89111900  1
  O  O1  1  0.49311500  0.60199600  0.59358700  1
  O  O2  1  0.00840800  0.89952700  0.40641300  1
  O  O3  1  0.60199600  0.00840800  0.10888100  1
  O  O4  1  0.10047300  0.50688500  0.10888100  1
  O  O5  1  0.50688500  0.39800400  0.40641300  1
  O  O6  1  0.99159200  0.10047300  0.59358700  1
  O  O7  1  0.39800400  0.99159200  0.89111900  1
  O  O8  1  0.07177500  0.29753600  0.86970000  1
  O  O9  1  0.29753600  0.42783700  0.22576100  1
  O  O10  1  0.20207500  0.07177500  0.77423900  1
  O  O11  1  0.42783700  0.20207500  0.13030000  1
  O  O12  1  0.92822500  0.70246400  0.13030000  1
  O  O13  1  0.70246400  0.57216300  0.77423900  1
  O  O14  1  0.79792500  0.92822500  0.22576100  1
  O  O15  1  0.57216300  0.79792500  0.86970000  1
  O  O16  1  0.62529100  0.03533700  0.66062800  1
  O  O17  1  0.50000000  0.50000000  0.00000000  1
  O  O18  1  0.37470900  0.96466300  0.33937200  1
  O  O19  1  0.96466300  0.62529100  0.58995300  1
  O  O20  1  0.03533700  0.37470900  0.41004700  1
loop_
_geom_bond_atom_site_label_1
_geom_bond_atom_site_label_2
_geom_bond_distance
_geom_bond_site_symmetry_2
Ba0 O19 2.668257 1_555
Ba0 O20 2.781837 1_655
Ba0 O18 2.930914 1_655
Ba0 O18 2.930914 1_545
Ba0 O11 2.996030 1_555
Ba0 O12 2.996037 1_555
Ba0 O2 3.308081 1_655
Ba0 O5 3.308084 1_555
Ba0 O4 3.310325 1_655
Ba0 O3 3.310325 1_555
Ba1 O20 2.668257 1_555
Ba1 O19 2.781837 1_455
Ba1 O16 2.930914 1_565
Ba1 O16 2.930914 1_455
Ba1 O15 2.996030 1_555
Ba1 O8 2.996037 1_555
Ba1 O6 3.308081 1_455
Ba1 O1 3.308084 1_555
Ba1 O0 3.310325 1_455
Ba1 O7 3.310325 1_555
Ba2 O16 2.668266 1_555
Ba2 O18 2.781834 1_545
Ba2 O19 2.930912 1_445
Ba2 O19 2.930917 1_555
Ba2 O13 2.996029 1_555
Ba2 O10 2.996037 1_555
Ba2 O0 3.308080 1_555
Ba2 O7 3.308080 1_545
Ba2 O5 3.310318 1_555
Ba2 O2 3.310320 1_545
Ba3 O18 2.668266 1_555
Ba3 O16 2.781834 1_565
Ba3 O20 2.930912 1_665
Ba3 O20 2.930917 1_555
Ba3 O9 2.996029 1_555
Ba3 O14 2.996037 1_555
Ba3 O3 3.308080 1_565
Ba3 O4 3.308080 1_555
Ba3 O1 3.310318 1_555
Ba3 O6 3.310320 1_565
Ba4 O17 2.925188 1_445
Ba4 O17 2.925188 1_555
Ba4 O8 2.991239 1_554
Ba4 O14 2.991239 1_445
Ba4 O12 2.991239 1_445
Ba4 O10 2.991239 1_554
Ba4 O9 2.991244 1_555
Ba4 O13 2.991244 1_444
Ba4 O11 2.991248 1_555
Ba4 O15 2.991248 1_444
Gd0 O0 2.313828 1_555
Gd0 O7 2.313828 1_545
Gd0 O4 2.379934 1_656
Gd0 O3 2.379934 1_556
Gd0 O15 2.467232 1_545
Gd0 O8 2.467238 1_655
Gd0 O16 2.611522 1_555
Gd1 O6 2.313818 1_455
Gd1 O1 2.313822 1_555
Gd1 O5 2.379932 1_555
Gd1 O2 2.379935 1_545
Gd1 O14 2.467238 1_445
Gd1 O9 2.467242 1_555
Gd1 O20 2.611522 1_555
Gd2 O2 2.313818 1_655
Gd2 O5 2.313822 1_555
Gd2 O1 2.379932 1_555
Gd2 O6 2.379935 1_565
Gd2 O10 2.467238 1_665
Gd2 O13 2.467242 1_555
Gd2 O19 2.611522 1_555
Gd3 O4 2.313828 1_555
Gd3 O3 2.313828 1_565
Gd3 O7 2.379934 1_554
Gd3 O0 2.379934 1_454
Gd3 O11 2.467232 1_565
Gd3 O12 2.467238 1_455
Gd3 O18 2.611522 1_555
Gd4 O12 2.341054 1_556
Gd4 O11 2.341056 1_556
Gd4 O0 2.356496 1_555
Gd4 O7 2.356500 1_545
Gd4 O17 2.372950 1_556
Gd4 O13 2.487322 1_555
Gd4 O10 2.487331 1_555
Gd5 O10 2.341048 1_555
Gd5 O13 2.341054 1_555
Gd5 O6 2.356506 1_455
Gd5 O1 2.356510 1_555
Gd5 O17 2.372948 1_556
Gd5 O8 2.487337 1_555
Gd5 O15 2.487342 1_555
Gd6 O14 2.341048 1_555
Gd6 O9 2.341054 1_555
Gd6 O2 2.356506 1_655
Gd6 O5 2.356510 1_555
Gd6 O17 2.372948 1_555
Gd6 O12 2.487337 1_555
Gd6 O11 2.487342 1_555
Gd7 O8 2.341054 1_554
Gd7 O15 2.341056 1_554
Gd7 O4 2.356496 1_555
Gd7 O3 2.356500 1_565
Gd7 O17 2.372950 1_555
Gd7 O9 2.487322 1_555
Gd7 O14 2.487331 1_555
Mn0 O19 2.070581 1_455
Mn0 O7 2.121662 1_555
Mn0 O0 2.121662 1_455
Mn0 O13 2.170639 1_455
Mn0 O10 2.170644 1_565
Mn1 O18 2.070572 1_545
Mn1 O5 2.121665 1_555
Mn1 O2 2.121669 1_545
Mn1 O12 2.170644 1_445
Mn1 O11 2.170647 1_555
Mn2 O20 2.070581 1_655
Mn2 O3 2.121662 1_555
Mn2 O4 2.121662 1_655
Mn2 O9 2.170639 1_655
Mn2 O14 2.170644 1_545
Mn3 O16 2.070572 1_565
Mn3 O1 2.121665 1_555
Mn3 O6 2.121669 1_565
Mn3 O8 2.170644 1_665
Mn3 O15 2.170647 1_555
