# generated using pymatgen
data_Ba6CaNb2Ir(ClO6)2
_symmetry_space_group_name_H-M   'P 1'
_cell_length_a   6.21823136
_cell_length_b   6.20846582
_cell_length_c   15.78603166
_cell_angle_alpha   82.74697700
_cell_angle_beta   97.62384565
_cell_angle_gamma   122.49103503
_symmetry_Int_Tables_number   1
_chemical_formula_structural   Ba6CaNb2Ir(ClO6)2
_chemical_formula_sum   'Ba6 Ca1 Nb2 Ir1 Cl2 O12'
_cell_volume   508.39255737
_cell_formula_units_Z   1
loop_
 _symmetry_equiv_pos_site_id
 _symmetry_equiv_pos_as_xyz
  1  'x, y, z'
loop_
 _atom_site_type_symbol
 _atom_site_label
 _atom_site_symmetry_multiplicity
 _atom_site_fract_x
 _atom_site_fract_y
 _atom_site_fract_z
 _atom_site_occupancy
  Ba  Ba0  1  0.26961800  0.72191100  0.36633900  1
  Ba  Ba1  1  0.42546000  0.58895900  0.76919000  1
  Ba  Ba2  1  0.73038200  0.27808900  0.63366100  1
  Ba  Ba3  1  0.76197300  0.25324800  0.88088200  1
  Ba  Ba4  1  0.23802700  0.74675200  0.11911800  1
  Ba  Ba5  1  0.57454000  0.41104100  0.23081000  1
  Ca  Ca0  1  0.50000000  0.50000000  0.00000000  1
  Nb  Nb0  1  0.10238800  0.91117100  0.81058400  1
  Nb  Nb1  1  0.89761200  0.08882900  0.18941600  1
  Ir  Ir0  1  0.00000000  0.00000000  0.00000000  1
  Cl  Cl0  1  0.67190700  0.32821300  0.42800700  1
  Cl  Cl1  1  0.32809300  0.67178700  0.57199300  1
  O  O0  1  0.26887900  0.19042100  0.90558700  1
  O  O1  1  0.38878400  0.11716600  0.74352000  1
  O  O2  1  0.12144700  0.38826400  0.25354500  1
  O  O3  1  0.87855300  0.61173600  0.74645500  1
  O  O4  1  0.90591300  0.08438900  0.75941400  1
  O  O5  1  0.73112100  0.80957900  0.09441300  1
  O  O6  1  0.09408700  0.91561100  0.24058600  1
  O  O7  1  0.18264600  0.25871800  0.09004300  1
  O  O8  1  0.73834800  0.26641200  0.11629600  1
  O  O9  1  0.81735400  0.74128200  0.90995700  1
  O  O10  1  0.61121600  0.88283400  0.25648000  1
  O  O11  1  0.26165200  0.73358800  0.88370400  1
loop_
_geom_bond_atom_site_label_1
_geom_bond_atom_site_label_2
_geom_bond_distance
_geom_bond_site_symmetry_2
Ba0 O2 2.599189 1_555
Ba0 O10 2.603401 1_555
Ba0 O6 2.609750 1_555
Ba0 Cl1 3.212757 1_555
Ba0 Cl0 3.366796 1_455
Ba0 Cl0 3.396685 1_565
Ba1 O11 2.644374 1_555
Ba1 O3 2.813220 1_555
Ba1 O0 2.886029 1_555
Ba1 O1 2.890230 1_555
Ba1 O9 2.896316 1_555
Ba1 O4 2.922386 1_565
Ba1 O4 3.064523 1_455
Ba1 Cl1 3.122772 1_555
Ba2 O3 2.599189 1_555
Ba2 O1 2.603401 1_555
Ba2 O4 2.609750 1_555
Ba2 Cl0 3.212757 1_555
Ba2 Cl1 3.366796 1_655
Ba2 Cl1 3.396685 1_545
Ba3 O3 2.732123 1_555
Ba3 O4 2.747367 1_555
Ba3 O1 2.796773 1_555
Ba3 O11 2.931143 1_655
Ba3 O9 2.949241 1_555
Ba3 O0 2.949515 1_555
Ba3 Ir0 3.035426 1_656
Ba3 O11 3.050731 1_545
Ba4 O2 2.732123 1_555
Ba4 O6 2.747367 1_555
Ba4 O10 2.796773 1_555
Ba4 O8 2.931143 1_455
Ba4 O7 2.949241 1_555
Ba4 O5 2.949515 1_555
Ba4 Ir0 3.035426 1_565
Ba4 O8 3.050731 1_565
Ba5 O8 2.644374 1_555
Ba5 O2 2.813220 1_555
Ba5 O5 2.886029 1_555
Ba5 O10 2.890230 1_555
Ba5 O7 2.896316 1_555
Ba5 O6 2.922386 1_545
Ba5 O6 3.064523 1_655
Ba5 Cl0 3.122772 1_555
Ca0 O0 2.273383 1_554
Ca0 O5 2.273383 1_555
Ca0 O9 2.278031 1_554
Ca0 O7 2.278031 1_555
Ca0 O11 2.930027 1_554
Ca0 O8 2.930027 1_555
Nb0 O1 1.907727 1_565
Nb0 O3 1.933801 1_455
Nb0 O11 2.019171 1_555
Nb0 O4 2.057174 1_465
Nb0 O0 2.154759 1_565
Nb0 O9 2.241942 1_455
Nb1 O10 1.907727 1_545
Nb1 O2 1.933801 1_655
Nb1 O8 2.019171 1_555
Nb1 O6 2.057174 1_645
Nb1 O5 2.154759 1_545
Nb1 O7 2.241942 1_655
Ir0 O9 2.019560 1_444
Ir0 O7 2.019560 1_555
Ir0 O0 2.122997 1_554
Ir0 O5 2.122997 1_445
