# generated using pymatgen
data_Ge2Bi2Te5
_symmetry_space_group_name_H-M   'P 1'
_cell_length_a   19.22754432
_cell_length_b   19.22754432
_cell_length_c   19.22754488
_cell_angle_alpha   12.91050565
_cell_angle_beta   12.91050565
_cell_angle_gamma   12.91050420
_symmetry_Int_Tables_number   1
_chemical_formula_structural   Ge2Bi2Te5
_chemical_formula_sum   'Ge2 Bi2 Te5'
_cell_volume   308.61295760
_cell_formula_units_Z   1
loop_
 _symmetry_equiv_pos_site_id
 _symmetry_equiv_pos_as_xyz
  1  'x, y, z'
loop_
 _atom_site_type_symbol
 _atom_site_label
 _atom_site_symmetry_multiplicity
 _atom_site_fract_x
 _atom_site_fract_y
 _atom_site_fract_z
 _atom_site_occupancy
  Ge  Ge0  1  0.90474100  0.90474100  0.90474100  1
  Ge  Ge1  1  0.50550100  0.50550100  0.50550100  1
  Bi  Bi0  1  0.10260900  0.10260900  0.10260900  1
  Bi  Bi1  1  0.69567700  0.69567700  0.69567700  1
  Te  Te0  1  0.39980500  0.39980500  0.39980500  1
  Te  Te1  1  0.19679400  0.19679400  0.19679400  1
  Te  Te2  1  0.80114500  0.80114500  0.80114500  1
  Te  Te3  1  0.99795200  0.99795200  0.99795200  1
  Te  Te4  1  0.59577600  0.59577600  0.59577600  1
loop_
_geom_bond_atom_site_label_1
_geom_bond_atom_site_label_2
_geom_bond_distance
_geom_bond_site_symmetry_2
Ge0 Te4 2.858861 1_655
Ge0 Te4 2.858861 1_565
Ge0 Te4 2.858862 1_556
Ge1 Te1 2.866084 1_655
Ge1 Te1 2.866084 1_565
Ge1 Te1 2.866084 1_556
Ge1 Te2 3.298075 1_455
Ge1 Te2 3.298075 1_545
Ge1 Te2 3.298076 1_554
Bi0 Te2 3.090794 1_544
Bi0 Te2 3.090794 1_454
Bi0 Te2 3.090795 1_445
Bi0 Te0 3.240754 1_545
Bi0 Te0 3.240754 1_455
Bi0 Te0 3.240755 1_554
Bi1 Te3 3.063669 1_455
Bi1 Te3 3.063669 1_545
Bi1 Te3 3.063669 1_554
Bi1 Te0 3.289567 1_655
Bi1 Te0 3.289567 1_565
Bi1 Te0 3.289567 1_556
