# generated using pymatgen
data_MgMn3VCr2(PO4)6
_symmetry_space_group_name_H-M   'P 1'
_cell_length_a   8.96845099
_cell_length_b   8.74897332
_cell_length_c   8.67861652
_cell_angle_alpha   59.90491902
_cell_angle_beta   60.89281288
_cell_angle_gamma   58.34040924
_symmetry_Int_Tables_number   1
_chemical_formula_structural   MgMn3VCr2(PO4)6
_chemical_formula_sum   'Mg1 Mn3 V1 Cr2 P6 O24'
_cell_volume   477.88891973
_cell_formula_units_Z   1
loop_
 _symmetry_equiv_pos_site_id
 _symmetry_equiv_pos_as_xyz
  1  'x, y, z'
loop_
 _atom_site_type_symbol
 _atom_site_label
 _atom_site_symmetry_multiplicity
 _atom_site_fract_x
 _atom_site_fract_y
 _atom_site_fract_z
 _atom_site_occupancy
  Mg  Mg0  1  0.24860200  0.25249800  0.25350300  1
  Mn  Mn0  1  0.04318600  0.64570300  0.65823900  1
  Mn  Mn1  1  0.43962900  0.85897100  0.85136000  1
  Mn  Mn2  1  0.89101400  0.36368800  0.36300500  1
  V  V0  1  0.60716500  0.13013400  0.13152300  1
  Cr  Cr0  1  0.01834700  0.00256600  0.98264600  1
  Cr  Cr1  1  0.48526500  0.50380400  0.50702700  1
  P  P0  1  0.27323100  0.25193100  0.54055500  1
  P  P1  1  0.27605300  0.94517800  0.24167900  1
  P  P2  1  0.25594100  0.54971100  0.94696800  1
  P  P3  1  0.73449300  0.45761700  0.05052600  1
  P  P4  1  0.74156000  0.04970300  0.74982900  1
  P  P5  1  0.72139800  0.74421900  0.47348200  1
  O  O0  1  0.10217100  0.10840500  0.30450200  1
  O  O1  1  0.09371100  0.49092200  0.10268800  1
  O  O2  1  0.10230200  0.31243100  0.49103100  1
  O  O3  1  0.25665600  0.09656800  0.73670400  1
  O  O4  1  0.43851600  0.18580900  0.37440100  1
  O  O5  1  0.29355200  0.41404800  0.54639800  1
  O  O6  1  0.25445000  0.93196900  0.08163800  1
  O  O7  1  0.30303300  0.75280000  0.40031900  1
  O  O8  1  0.56731300  0.60022000  0.98151800  1
  O  O9  1  0.29141400  0.55120400  0.75292500  1
  O  O10  1  0.77632100  0.24699100  0.06432000  1
  O  O11  1  0.58480300  0.98437600  0.83577800  1
  O  O12  1  0.43582900  0.01025400  0.18186500  1
  O  O13  1  0.22110900  0.74723500  0.93534500  1
  O  O14  1  0.68049500  0.44545800  0.25661700  1
  O  O15  1  0.42810800  0.37860600  0.01514100  1
  O  O16  1  0.68809900  0.25768500  0.60727800  1
  O  O17  1  0.77376600  0.06675400  0.90882400  1
  O  O18  1  0.68518800  0.60224000  0.44877400  1
  O  O19  1  0.54549400  0.83055300  0.61210200  1
  O  O20  1  0.74900600  0.90387700  0.27015400  1
  O  O21  1  0.89621100  0.66559900  0.51658200  1
  O  O22  1  0.91134500  0.49041000  0.92562500  1
  O  O23  1  0.92740700  0.91986400  0.66341600  1
loop_
_geom_bond_atom_site_label_1
_geom_bond_atom_site_label_2
_geom_bond_distance
_geom_bond_site_symmetry_2
Mg0 O2 1.994069 1_555
Mg0 O1 1.995759 1_555
Mg0 O0 2.030441 1_555
Mg0 O12 2.065882 1_555
Mg0 O4 2.103283 1_555
Mg0 O15 2.103329 1_555
Mn0 O23 2.069247 1_455
Mn0 O21 2.097683 1_455
Mn0 O22 2.117552 1_455
Mn0 O5 2.273081 1_555
Mn0 O9 2.341193 1_555
Mn0 O7 2.536348 1_555
Mn1 O19 1.904403 1_555
Mn1 O8 1.919570 1_555
Mn1 O3 1.984300 1_565
Mn1 O11 2.024027 1_555
Mn1 O6 2.024242 1_556
Mn1 O13 2.287908 1_555
Mn2 O18 2.120005 1_555
Mn2 O14 2.131802 1_555
Mn2 O0 2.143415 1_655
Mn2 O16 2.170874 1_555
Mn2 O1 2.292237 1_655
Mn2 O2 2.383901 1_655
Cr0 O13 2.096345 1_545
Cr0 O10 2.222072 1_456
Cr0 O17 2.291425 1_455
Cr0 O3 2.333800 1_555
Cr0 O6 2.338385 1_546
Cr0 O20 2.640329 1_446
Cr1 O7 1.996547 1_555
Cr1 O16 2.061995 1_555
Cr1 O5 2.065508 1_555
Cr1 O9 2.066357 1_555
Cr1 O18 2.124750 1_555
Cr1 O14 2.126375 1_555
O0 P1 1.544152 1_545
O1 P2 1.543798 1_554
O2 P0 1.541417 1_555
O3 P0 1.553359 1_555
O4 P0 1.571038 1_555
O4 V0 2.030406 1_555
O5 P0 1.549192 1_555
O6 P1 1.557663 1_555
O7 P1 1.536094 1_555
O8 P3 1.524426 1_556
O9 P2 1.548676 1_555
O10 P3 1.627149 1_555
O10 V0 1.963739 1_555
O11 P4 1.501740 1_565
O12 P1 1.575849 1_545
O12 V0 2.056997 1_555
O13 P2 1.543806 1_555
O14 P3 1.570176 1_555
O15 P2 1.596650 1_554
O15 V0 2.009008 1_555
O16 P4 1.573243 1_555
O17 P4 1.627607 1_555
O17 V0 1.915970 1_556
O18 P5 1.566129 1_555
O19 P5 1.523345 1_555
O20 P5 1.610075 1_555
O20 V0 1.855095 1_565
O21 P5 1.500502 1_555
O22 P3 1.505364 1_556
O23 P4 1.510503 1_565
