# generated using pymatgen
data_MgSn2
_symmetry_space_group_name_H-M   'P 1'
_cell_length_a   5.68870581
_cell_length_b   5.68870581
_cell_length_c   5.48011200
_cell_angle_alpha   90.00000000
_cell_angle_beta   90.00000000
_cell_angle_gamma   119.24955726
_symmetry_Int_Tables_number   1
_chemical_formula_structural   MgSn2
_chemical_formula_sum   'Mg2 Sn4'
_cell_volume   154.73256034
_cell_formula_units_Z   2
loop_
 _symmetry_equiv_pos_site_id
 _symmetry_equiv_pos_as_xyz
  1  'x, y, z'
loop_
 _atom_site_type_symbol
 _atom_site_label
 _atom_site_symmetry_multiplicity
 _atom_site_fract_x
 _atom_site_fract_y
 _atom_site_fract_z
 _atom_site_occupancy
  Mg  Mg0  1  0.66755800  0.66755800  0.75000000  1
  Mg  Mg1  1  0.33244200  0.33244200  0.25000000  1
  Sn  Sn0  1  0.00596900  0.33727500  0.75000000  1
  Sn  Sn1  1  0.33727500  0.00596900  0.75000000  1
  Sn  Sn2  1  0.66272500  0.99403100  0.25000000  1
  Sn  Sn3  1  0.99403100  0.66272500  0.25000000  1
loop_
_geom_bond_atom_site_label_1
_geom_bond_atom_site_label_2
_geom_bond_distance
_geom_bond_site_symmetry_2
Mg0 Sn0 3.281920 1_655
Mg0 Sn1 3.281920 1_565
Mg0 Sn0 3.283970 1_555
Mg0 Sn1 3.283970 1_555
Mg0 Sn3 3.317798 1_556
Mg0 Sn3 3.317798 1_555
Mg0 Sn2 3.317798 1_555
Mg0 Sn2 3.317798 1_556
Mg0 Sn0 3.324678 1_665
Mg0 Sn1 3.324678 1_665
Mg0 Mg1 3.350363 1_556
Mg0 Mg1 3.350363 1_555
Mg1 Sn3 3.281920 1_455
Mg1 Sn2 3.281920 1_545
Mg1 Sn2 3.283970 1_555
Mg1 Sn3 3.283970 1_555
Mg1 Sn0 3.317798 1_555
Mg1 Sn0 3.317798 1_554
Mg1 Sn1 3.317798 1_555
Mg1 Sn1 3.317798 1_554
Mg1 Sn2 3.324678 1_445
Mg1 Sn3 3.324678 1_445
Sn0 Sn1 3.251988 1_555
Sn0 Sn1 3.319094 1_455
Sn0 Sn1 3.319094 1_565
Sn0 Sn3 3.326113 1_456
Sn0 Sn3 3.326113 1_455
Sn0 Sn2 3.377488 1_445
Sn0 Sn2 3.377488 1_446
Sn1 Sn2 3.326113 1_545
Sn1 Sn2 3.326113 1_546
Sn1 Sn3 3.377488 1_446
Sn1 Sn3 3.377488 1_445
Sn2 Sn3 3.251988 1_555
Sn2 Sn3 3.319094 1_565
Sn2 Sn3 3.319094 1_455
