# generated using pymatgen
data_Sr(ErSe2)2
_symmetry_space_group_name_H-M   'P 1'
_cell_length_a   4.10498076
_cell_length_b   12.53456157
_cell_length_c   14.83463208
_cell_angle_alpha   90.00000000
_cell_angle_beta   90.00000000
_cell_angle_gamma   90.00000000
_symmetry_Int_Tables_number   1
_chemical_formula_structural   Sr(ErSe2)2
_chemical_formula_sum   'Sr4 Er8 Se16'
_cell_volume   763.30314807
_cell_formula_units_Z   4
loop_
 _symmetry_equiv_pos_site_id
 _symmetry_equiv_pos_as_xyz
  1  'x, y, z'
loop_
 _atom_site_type_symbol
 _atom_site_label
 _atom_site_symmetry_multiplicity
 _atom_site_fract_x
 _atom_site_fract_y
 _atom_site_fract_z
 _atom_site_occupancy
  Sr  Sr0  1  0.25000000  0.75937505  0.33482135  1
  Sr  Sr1  1  0.25000000  0.25937505  0.16517865  1
  Sr  Sr2  1  0.75000000  0.24062495  0.66517865  1
  Sr  Sr3  1  0.75000000  0.74062495  0.83482135  1
  Er  Er0  1  0.25000000  0.43792270  0.38917253  1
  Er  Er1  1  0.25000000  0.93792270  0.11082747  1
  Er  Er2  1  0.75000000  0.56207730  0.61082747  1
  Er  Er3  1  0.75000000  0.06207730  0.88917253  1
  Er  Er4  1  0.25000000  0.41737547  0.90178942  1
  Er  Er5  1  0.25000000  0.91737547  0.59821058  1
  Er  Er6  1  0.75000000  0.58262453  0.09821058  1
  Er  Er7  1  0.75000000  0.08262453  0.40178942  1
  Se  Se0  1  0.25000000  0.20515306  0.83030746  1
  Se  Se1  1  0.25000000  0.70515306  0.66969254  1
  Se  Se2  1  0.75000000  0.79484694  0.16969254  1
  Se  Se3  1  0.75000000  0.29484694  0.33030746  1
  Se  Se4  1  0.25000000  0.12823245  0.52975765  1
  Se  Se5  1  0.25000000  0.62823245  0.97024235  1
  Se  Se6  1  0.75000000  0.87176755  0.47024235  1
  Se  Se7  1  0.75000000  0.37176755  0.02975765  1
  Se  Se8  1  0.25000000  0.02714661  0.28427072  1
  Se  Se9  1  0.25000000  0.52714661  0.21572928  1
  Se  Se10  1  0.75000000  0.97285339  0.71572928  1
  Se  Se11  1  0.75000000  0.47285339  0.78427072  1
  Se  Se12  1  0.25000000  0.41043607  0.57662938  1
  Se  Se13  1  0.25000000  0.91043607  0.92337062  1
  Se  Se14  1  0.75000000  0.58956393  0.42337062  1
  Se  Se15  1  0.75000000  0.08956393  0.07662938  1
loop_
_geom_bond_atom_site_label_1
_geom_bond_atom_site_label_2
_geom_bond_distance
_geom_bond_site_symmetry_2
Er0 Se12 2.802115 1_555
Er0 Se9 2.805519 1_555
Er0 Se14 2.843055 1_455
Er0 Se14 2.843055 1_555
Er0 Se3 2.862084 1_555
Er0 Se3 2.862084 1_455
Er1 Se13 2.802115 1_554
Er1 Se8 2.805519 1_565
Er1 Se15 2.843055 1_465
Er1 Se15 2.843055 1_565
Er1 Se2 2.862084 1_455
Er1 Se2 2.862084 1_555
Er2 Se14 2.802115 1_555
Er2 Se11 2.805519 1_555
Er2 Se12 2.843055 1_555
Er2 Se12 2.843055 1_655
Er2 Se1 2.862084 1_555
Er2 Se1 2.862084 1_655
Er3 Se15 2.802115 1_556
Er3 Se10 2.805519 1_545
Er3 Se13 2.843055 1_545
Er3 Se13 2.843055 1_645
Er3 Se0 2.862084 1_555
Er3 Se0 2.862084 1_655
Er4 Se11 2.781285 1_555
Er4 Se11 2.781285 1_455
Er4 Se5 2.831366 1_555
Er4 Se7 2.853648 1_456
Er4 Se7 2.853648 1_556
Er4 Se0 2.863682 1_555
Er5 Se10 2.781285 1_455
Er5 Se10 2.781285 1_555
Er5 Se4 2.831366 1_565
Er5 Se6 2.853648 1_455
Er5 Se6 2.853648 1_555
Er5 Se1 2.863682 1_555
Er6 Se9 2.781285 1_555
Er6 Se9 2.781285 1_655
Er6 Se7 2.831366 1_555
Er6 Se5 2.853648 1_554
Er6 Se5 2.853648 1_654
Er6 Se2 2.863682 1_555
Er7 Se8 2.781285 1_655
Er7 Se8 2.781285 1_555
Er7 Se6 2.831366 1_545
Er7 Se4 2.853648 1_555
Er7 Se4 2.853648 1_655
Er7 Se3 2.863682 1_555
Se0 Sr2 3.226619 1_455
Se0 Sr2 3.226619 1_555
Se1 Sr3 3.226619 1_555
Se1 Sr3 3.226619 1_455
Se2 Sr0 3.226619 1_655
Se2 Sr0 3.226619 1_555
Se3 Sr1 3.226619 1_655
Se3 Sr1 3.226619 1_555
Se4 Sr2 3.198933 1_455
Se4 Sr2 3.198933 1_555
Se5 Sr3 3.198933 1_555
Se5 Sr3 3.198933 1_455
Se6 Sr0 3.198933 1_555
Se6 Sr0 3.198933 1_655
Se7 Sr1 3.198933 1_555
Se7 Sr1 3.198933 1_655
Se8 Sr1 3.405057 1_555
Se8 Sr0 3.439152 1_545
Se9 Sr0 3.405057 1_555
Se9 Sr1 3.439152 1_555
Se10 Sr3 3.405057 1_555
Se10 Sr2 3.439152 1_565
Se11 Sr2 3.405057 1_555
Se11 Sr3 3.439152 1_555
Se12 Sr2 3.235552 1_555
Se12 Sr2 3.235552 1_455
Se13 Sr3 3.235552 1_455
Se13 Sr3 3.235552 1_555
Se14 Sr0 3.235552 1_555
Se14 Sr0 3.235552 1_655
Se15 Sr1 3.235552 1_555
Se15 Sr1 3.235552 1_655
