# generated using pymatgen
data_Rb4Fe8CuH6(Se8O25)2
_symmetry_space_group_name_H-M   'P 1'
_cell_length_a   7.89743700
_cell_length_b   10.54991620
_cell_length_c   16.04211680
_cell_angle_alpha   77.70510150
_cell_angle_beta   89.78274355
_cell_angle_gamma   86.72504878
_symmetry_Int_Tables_number   1
_chemical_formula_structural   Rb4Fe8CuH6(Se8O25)2
_chemical_formula_sum   'Rb4 Fe8 Cu1 H6 Se16 O50'
_cell_volume   1303.74985733
_cell_formula_units_Z   1
loop_
 _symmetry_equiv_pos_site_id
 _symmetry_equiv_pos_as_xyz
  1  'x, y, z'
loop_
 _atom_site_type_symbol
 _atom_site_label
 _atom_site_symmetry_multiplicity
 _atom_site_fract_x
 _atom_site_fract_y
 _atom_site_fract_z
 _atom_site_occupancy
  Rb  Rb0  1  0.51726300  0.69818500  0.26387300  1
  Rb  Rb1  1  0.48273700  0.30181500  0.73612700  1
  Rb  Rb2  1  0.89710800  0.69471100  0.82527600  1
  Rb  Rb3  1  0.10289200  0.30528900  0.17472400  1
  Fe  Fe0  1  0.59319800  0.26185100  0.30631900  1
  Fe  Fe1  1  0.40680200  0.73814900  0.69368100  1
  Fe  Fe2  1  0.75304600  0.64354500  0.52271900  1
  Fe  Fe3  1  0.24695400  0.35645500  0.47728100  1
  Fe  Fe4  1  0.54952400  0.74960100  0.99699900  1
  Fe  Fe5  1  0.45047600  0.25039900  0.00300100  1
  Fe  Fe6  1  0.97534000  0.09592700  0.77079200  1
  Fe  Fe7  1  0.02466000  0.90407300  0.22920800  1
  Cu  Cu0  1  0.50000000  0.00000000  0.50000000  1
  H  H0  1  0.20869200  0.61232700  0.09492800  1
  H  H1  1  0.79130800  0.38767300  0.90507200  1
  H  H2  1  0.00521000  0.71969400  0.61229200  1
  H  H3  1  0.99479000  0.28030600  0.38770800  1
  H  H4  1  0.85122100  0.83175500  0.60077200  1
  H  H5  1  0.14877900  0.16824500  0.39922800  1
  Se  Se0  1  0.55563100  0.46132900  0.11856200  1
  Se  Se1  1  0.44436900  0.53867100  0.88143800  1
  Se  Se2  1  0.80512000  0.93702700  0.40080300  1
  Se  Se3  1  0.19488000  0.06297300  0.59919700  1
  Se  Se4  1  0.68975300  0.03388300  0.93371800  1
  Se  Se5  1  0.31024700  0.96611700  0.06628200  1
  Se  Se6  1  0.97169900  0.37786100  0.63472000  1
  Se  Se7  1  0.02830100  0.62213900  0.36528000  1
  Se  Se8  1  0.67062300  0.37206300  0.45771000  1
  Se  Se9  1  0.32937700  0.62793700  0.54229000  1
  Se  Se10  1  0.71695200  0.10620300  0.15386500  1
  Se  Se11  1  0.28304800  0.89379700  0.84613500  1
  Se  Se12  1  0.65967200  0.98452600  0.68133500  1
  Se  Se13  1  0.34032800  0.01547400  0.31866500  1
  Se  Se14  1  0.96141000  0.74876600  0.07995900  1
  Se  Se15  1  0.03859000  0.25123400  0.92004100  1
  O  O0  1  0.51505600  0.42850000  0.22800200  1
  O  O1  1  0.48494400  0.57150000  0.77199800  1
  O  O2  1  0.45294000  0.61561400  0.09465200  1
  O  O3  1  0.54706000  0.38438600  0.90534800  1
  O  O4  1  0.40285700  0.37823300  0.07929500  1
  O  O5  1  0.59714300  0.62176700  0.92070500  1
  O  O6  1  0.67272800  0.81635100  0.44780900  1
  O  O7  1  0.32727200  0.18364900  0.55219100  1
  O  O8  1  0.65042000  0.06637200  0.39632100  1
  O  O9  1  0.34958000  0.93362800  0.60367900  1
  O  O10  1  0.80423000  0.91480000  0.29767300  1
  O  O11  1  0.19577000  0.08520000  0.70232700  1
  O  O12  1  0.49145300  0.11714600  0.92822600  1
  O  O13  1  0.50854700  0.88285400  0.07177400  1
  O  O14  1  0.64329000  0.89074000  0.90480100  1
  O  O15  1  0.35671000  0.10926000  0.09519900  1
  O  O16  1  0.76764900  0.12074900  0.83847400  1
  O  O17  1  0.23235100  0.87925100  0.16152600  1
  O  O18  1  0.86884700  0.23987300  0.67818900  1
  O  O19  1  0.13115300  0.76012700  0.32181100  1
  O  O20  1  0.02133700  0.34776200  0.53417300  1
  O  O21  1  0.97866300  0.65223800  0.46582700  1
  O  O22  1  0.79425500  0.48158700  0.61029800  1
  O  O23  1  0.20574500  0.51841300  0.38970200  1
  O  O24  1  0.65800200  0.54082000  0.43769600  1
  O  O25  1  0.34199800  0.45918000  0.56230400  1
  O  O26  1  0.78124900  0.33597300  0.37027500  1
  O  O27  1  0.21875100  0.66402700  0.62972500  1
  O  O28  1  0.47787500  0.33650600  0.41419300  1
  O  O29  1  0.52212500  0.66349400  0.58580700  1
  O  O30  1  0.74924200  0.21827200  0.21907200  1
  O  O31  1  0.25075800  0.78172800  0.78092800  1
  O  O32  1  0.68765700  0.21174900  0.05532000  1
  O  O33  1  0.31234300  0.78825100  0.94468000  1
  O  O34  1  0.92504600  0.05513000  0.13961000  1
  O  O35  1  0.07495400  0.94487000  0.86039000  1
  O  O36  1  0.69687100  0.99104200  0.57357000  1
  O  O37  1  0.30312900  0.00895800  0.42643000  1
  O  O38  1  0.86870000  0.96460200  0.71383700  1
  O  O39  1  0.13130000  0.03539800  0.28616300  1
  O  O40  1  0.60661300  0.82436100  0.71887400  1
  O  O41  1  0.39338700  0.17563900  0.28112600  1
  O  O42  1  0.78796100  0.68609300  0.04591600  1
  O  O43  1  0.21203900  0.31390700  0.95408400  1
  O  O44  1  0.90032400  0.76961100  0.17908600  1
  O  O45  1  0.09967600  0.23038900  0.82091400  1
  O  O46  1  0.08672300  0.59576500  0.10704600  1
  O  O47  1  0.91327700  0.40423500  0.89295400  1
  O  O48  1  0.87903000  0.73788600  0.60833200  1
  O  O49  1  0.12097000  0.26211400  0.39166800  1
loop_
_geom_bond_atom_site_label_1
_geom_bond_atom_site_label_2
_geom_bond_distance
_geom_bond_site_symmetry_2
Fe0 O41 1.950901 1_555
Fe0 O30 1.971103 1_555
Fe0 O0 1.997880 1_555
Fe0 O26 2.087024 1_555
Fe0 O28 2.220604 1_555
Fe0 O8 2.274253 1_555
Fe1 O40 1.950901 1_555
Fe1 O31 1.971103 1_555
Fe1 O1 1.997880 1_555
Fe1 O27 2.087024 1_555
Fe1 O29 2.220604 1_555
Fe1 O9 2.274253 1_555
Fe2 O22 1.979099 1_555
Fe2 O21 1.996713 1_555
Fe2 O6 2.027492 1_555
Fe2 O24 2.080503 1_555
Fe2 O29 2.104105 1_555
Fe2 O48 2.138332 1_555
Fe3 O23 1.979099 1_555
Fe3 O20 1.996713 1_555
Fe3 O7 2.027492 1_555
Fe3 O25 2.080503 1_555
Fe3 O28 2.104105 1_555
Fe3 O49 2.138332 1_555
Fe4 O5 2.024787 1_555
Fe4 O14 2.032934 1_555
Fe4 O33 2.039165 1_555
Fe4 O13 2.045289 1_556
Fe4 O2 2.050632 1_556
Fe4 O42 2.062448 1_556
Fe5 O4 2.024787 1_555
Fe5 O15 2.032934 1_555
Fe5 O32 2.039165 1_555
Fe5 O12 2.045289 1_554
Fe5 O3 2.050632 1_554
Fe5 O43 2.062448 1_554
Fe6 O16 1.999077 1_555
Fe6 O35 2.028379 1_645
Fe6 O18 2.030549 1_555
Fe6 O38 2.035158 1_545
Fe6 O11 2.065320 1_655
Fe6 O45 2.067352 1_655
Fe7 O17 1.999077 1_555
Fe7 O34 2.028379 1_465
Fe7 O19 2.030549 1_555
Fe7 O39 2.035158 1_565
Fe7 O10 2.065320 1_455
Fe7 O44 2.067352 1_455
Cu0 O36 1.941340 1_545
Cu0 O37 1.941340 1_555
Cu0 O8 2.062009 1_555
Cu0 O9 2.062009 1_545
Cu0 O7 2.587634 1_555
Cu0 O6 2.587634 1_545
H0 O46 0.999750 1_555
H1 O47 0.999750 1_555
H2 O48 1.003651 1_455
H2 O27 1.757161 1_555
H3 O49 1.003651 1_655
H3 O26 1.757161 1_555
H4 O48 0.983797 1_555
H5 O49 0.983797 1_555
O0 Se0 1.747681 1_555
O0 Rb0 3.021484 1_555
O1 Se1 1.747681 1_555
O1 Rb1 3.021484 1_555
O2 Se0 1.743522 1_555
O2 Rb0 3.074808 1_555
O3 Se1 1.743522 1_555
O3 Rb1 3.074808 1_555
O4 Se0 1.727087 1_555
O4 Rb3 2.868242 1_555
O5 Se1 1.727087 1_555
O5 Rb2 2.868242 1_555
O6 Se2 1.737787 1_555
O7 Se3 1.737787 1_555
O8 Se2 1.768694 1_545
O9 Se3 1.768694 1_565
O10 Se2 1.719783 1_555
O10 Rb0 3.432402 1_555
O11 Se3 1.719783 1_555
O11 Rb1 3.432402 1_555
O12 Se4 1.744374 1_555
O12 Rb1 3.275123 1_555
O13 Se5 1.744374 1_555
O13 Rb0 3.275123 1_555
O14 Se4 1.730126 1_565
O14 Rb2 3.248569 1_555
O15 Se5 1.730126 1_545
O15 Rb3 3.248569 1_555
O16 Se4 1.736018 1_555
O16 Rb1 3.099796 1_555
O17 Se5 1.736018 1_555
O17 Rb0 3.099796 1_555
O18 Se6 1.721558 1_555
O18 Rb1 3.255538 1_555
O19 Se7 1.721558 1_555
O19 Rb0 3.255538 1_555
O20 Se6 1.747956 1_455
O21 Se7 1.747956 1_655
O22 Se6 1.720796 1_555
O23 Se7 1.720796 1_555
O24 Se8 1.737604 1_555
O24 Rb0 3.099733 1_555
O25 Se9 1.737604 1_555
O25 Rb1 3.099733 1_555
O26 Se8 1.748086 1_555
O27 Se9 1.748086 1_555
O28 Se8 1.769191 1_555
O29 Se9 1.769191 1_555
O30 Se10 1.766449 1_555
O30 Rb3 3.024745 1_655
O31 Se11 1.766449 1_555
O31 Rb2 3.024745 1_455
O32 Se10 1.736725 1_555
O33 Se11 1.736725 1_555
O34 Se10 1.729701 1_555
O34 Rb3 3.212135 1_655
O35 Se11 1.729701 1_555
O35 Rb2 3.212135 1_455
O36 Se12 1.739985 1_555
O37 Se13 1.739985 1_555
O38 Se12 1.720855 1_555
O38 Rb2 3.019228 1_555
O39 Se13 1.720855 1_555
O39 Rb3 3.019228 1_555
O40 Se12 1.743282 1_555
O40 Rb2 2.953721 1_555
O41 Se13 1.743282 1_555
O41 Rb3 2.953721 1_555
O42 Se14 1.695502 1_555
O43 Se15 1.695502 1_555
O44 Se14 1.714890 1_555
O44 Rb0 3.370822 1_555
O45 Se15 1.714890 1_555
O45 Rb1 3.370822 1_555
O46 Se14 1.815415 1_455
O46 Rb3 3.020854 1_555
O47 Se15 1.815415 1_655
O47 Rb2 3.020854 1_555
