# generated using pymatgen
data_Zn3Cu2(AsO4)4
_symmetry_space_group_name_H-M   'P 1'
_cell_length_a   5.44540400
_cell_length_b   6.97865309
_cell_length_c   9.48147605
_cell_angle_alpha   80.11810021
_cell_angle_beta   80.15828655
_cell_angle_gamma   68.51444371
_symmetry_Int_Tables_number   1
_chemical_formula_structural   Zn3Cu2(AsO4)4
_chemical_formula_sum   'Zn3 Cu2 As4 O16'
_cell_volume   327.99559989
_cell_formula_units_Z   1
loop_
 _symmetry_equiv_pos_site_id
 _symmetry_equiv_pos_as_xyz
  1  'x, y, z'
loop_
 _atom_site_type_symbol
 _atom_site_label
 _atom_site_symmetry_multiplicity
 _atom_site_fract_x
 _atom_site_fract_y
 _atom_site_fract_z
 _atom_site_occupancy
  Zn  Zn0  1  0.62120600  0.82978000  0.10518000  1
  Zn  Zn1  1  0.12549900  0.81457500  0.61680100  1
  Zn  Zn2  1  0.86586600  0.19030000  0.38611300  1
  Cu  Cu0  1  0.25098800  0.49684000  0.24818700  1
  Cu  Cu1  1  0.74449800  0.49991600  0.75338800  1
  As  As0  1  0.72398600  0.72407700  0.43264200  1
  As  As1  1  0.23258800  0.72212300  0.93331800  1
  As  As2  1  0.77853100  0.26885500  0.06484100  1
  As  As3  1  0.28218700  0.26891300  0.57535100  1
  O  O0  1  0.56178000  0.50428600  0.13709300  1
  O  O1  1  0.05603900  0.50572700  0.63402800  1
  O  O2  1  0.93729600  0.49320700  0.36382800  1
  O  O3  1  0.43905600  0.48976400  0.86327800  1
  O  O4  1  0.00951400  0.15838400  0.18387900  1
  O  O5  1  0.52858500  0.14614000  0.67582100  1
  O  O6  1  0.49433800  0.84663200  0.31699400  1
  O  O7  1  0.99593000  0.84258100  0.81934000  1
  O  O8  1  0.60350800  0.12004900  0.05142600  1
  O  O9  1  0.10101500  0.12345900  0.54471100  1
  O  O10  1  0.04703200  0.65492000  0.09592000  1
  O  O11  1  0.54577100  0.65708300  0.59616600  1
  O  O12  1  0.44646400  0.34522500  0.40451600  1
  O  O13  1  0.93892600  0.35630400  0.90336700  1
  O  O14  1  0.90228400  0.87477700  0.45406300  1
  O  O15  1  0.39760400  0.87711500  0.95329100  1
loop_
_geom_bond_atom_site_label_1
_geom_bond_atom_site_label_2
_geom_bond_distance
_geom_bond_site_symmetry_2
Cu0 O0 1.847328 1_555
Cu0 O2 1.871532 1_455
Cu0 O12 1.904101 1_555
Cu0 O10 1.907556 1_555
Cu1 O3 1.823620 1_555
Cu1 O13 1.842754 1_555
Cu1 O1 1.881150 1_655
Cu1 O11 1.927961 1_555
As0 O6 1.691460 1_555
As0 O14 1.725876 1_555
As0 O2 1.761134 1_555
As0 O11 1.770153 1_555
As1 O15 1.689288 1_555
As1 O7 1.704694 1_455
As1 O3 1.764476 1_555
As1 O10 1.784431 1_556
As2 O8 1.677713 1_555
As2 O4 1.710725 1_655
As2 O13 1.758385 1_554
As2 O0 1.803107 1_555
As3 O5 1.660267 1_555
As3 O9 1.738054 1_555
As3 O1 1.774204 1_555
As3 O12 1.806946 1_555
O0 Zn0 2.371729 1_555
O1 Zn1 2.295752 1_555
O2 Zn2 2.255071 1_555
O4 Zn2 1.960719 1_455
O6 Zn0 2.017835 1_555
O7 Zn1 1.946393 1_655
O8 Zn0 1.972783 1_545
O9 Zn2 2.024453 1_455
O9 Zn1 2.108665 1_545
O10 Zn0 2.183580 1_455
O11 Zn1 2.135866 1_555
O12 Zn2 2.129539 1_555
O14 Zn1 2.019738 1_655
O14 Zn2 2.130672 1_565
O15 Zn0 1.951199 1_556
