# generated using pymatgen
data_Ba2Ca3Tl2(CoO3)4
_symmetry_space_group_name_H-M   'P 1'
_cell_length_a   3.85159125
_cell_length_b   3.85159113
_cell_length_c   22.01793144
_cell_angle_alpha   95.01777719
_cell_angle_beta   95.01777915
_cell_angle_gamma   89.99999785
_symmetry_Int_Tables_number   1
_chemical_formula_structural   Ba2Ca3Tl2(CoO3)4
_chemical_formula_sum   'Ba2 Ca3 Tl2 Co4 O12'
_cell_volume   324.12222329
_cell_formula_units_Z   1
loop_
 _symmetry_equiv_pos_site_id
 _symmetry_equiv_pos_as_xyz
  1  'x, y, z'
loop_
 _atom_site_type_symbol
 _atom_site_label
 _atom_site_symmetry_multiplicity
 _atom_site_fract_x
 _atom_site_fract_y
 _atom_site_fract_z
 _atom_site_occupancy
  Ba  Ba0  1  0.15896100  0.15896100  0.31792000  1
  Ba  Ba1  1  0.84103900  0.84103900  0.68208000  1
  Ca  Ca0  1  0.07518200  0.07518200  0.15036300  1
  Ca  Ca1  1  0.92481800  0.92481800  0.84963700  1
  Ca  Ca2  1  0.00000000  0.00000000  0.00000000  1
  Tl  Tl0  1  0.72354600  0.72354600  0.44709100  1
  Tl  Tl1  1  0.27645400  0.27645400  0.55290900  1
  Co  Co0  1  0.53739600  0.53739600  0.07479200  1
  Co  Co1  1  0.39040100  0.39040100  0.78080200  1
  Co  Co2  1  0.60959900  0.60959900  0.21919800  1
  Co  Co3  1  0.46260400  0.46260400  0.92520800  1
  O  O0  1  0.39028400  0.89028400  0.78056800  1
  O  O1  1  0.53697300  0.03697300  0.07394700  1
  O  O2  1  0.22755000  0.22755000  0.45510000  1
  O  O3  1  0.96302700  0.46302700  0.92605300  1
  O  O4  1  0.77245000  0.77245000  0.54490000  1
  O  O5  1  0.10971600  0.60971600  0.21943200  1
  O  O6  1  0.60971600  0.10971600  0.21943200  1
  O  O7  1  0.32450200  0.32450200  0.64900500  1
  O  O8  1  0.89028400  0.39028400  0.78056800  1
  O  O9  1  0.03697300  0.53697300  0.07394700  1
  O  O10  1  0.46302700  0.96302700  0.92605300  1
  O  O11  1  0.67549800  0.67549800  0.35099500  1
loop_
_geom_bond_atom_site_label_1
_geom_bond_atom_site_label_2
_geom_bond_distance
_geom_bond_site_symmetry_2
Ba0 O11 2.817727 1_555
Ba0 O11 2.817730 1_545
Ba0 O11 2.817730 1_455
Ba0 O11 2.817732 1_445
Ba0 O5 2.887755 1_555
Ba0 O6 2.887755 1_555
Ba0 O6 2.887760 1_455
Ba0 O5 2.887760 1_545
Ba0 O2 2.997224 1_555
Ba1 O7 2.817727 1_555
Ba1 O7 2.817730 1_565
Ba1 O7 2.817730 1_655
Ba1 O7 2.817732 1_665
Ba1 O8 2.887755 1_555
Ba1 O0 2.887755 1_555
Ba1 O0 2.887760 1_655
Ba1 O8 2.887760 1_565
Ba1 O4 2.997224 1_555
Ca0 O5 2.446630 1_555
Ca0 O6 2.446630 1_555
Ca0 O5 2.446633 1_545
Ca0 O6 2.446633 1_455
Ca0 O9 2.548773 1_555
Ca0 O1 2.548773 1_555
Ca0 O9 2.548778 1_545
Ca0 O1 2.548778 1_455
Ca1 O8 2.446630 1_555
Ca1 O0 2.446630 1_555
Ca1 O8 2.446633 1_565
Ca1 O0 2.446633 1_655
Ca1 O3 2.548773 1_555
Ca1 O10 2.548773 1_555
Ca1 O3 2.548778 1_565
Ca1 O10 2.548778 1_655
Ca2 O9 2.513767 1_555
Ca2 O3 2.513767 1_444
Ca2 O1 2.513767 1_555
Ca2 O10 2.513767 1_444
Ca2 O9 2.513770 1_545
Ca2 O3 2.513770 1_454
Ca2 O1 2.513770 1_455
Ca2 O10 2.513770 1_544
Co0 O1 1.925882 1_565
Co0 O9 1.925882 1_655
Co0 O1 1.925886 1_555
Co0 O9 1.925886 1_555
Co1 O0 1.925802 1_555
Co1 O0 1.925802 1_545
Co1 O8 1.925802 1_555
Co1 O8 1.925802 1_455
Co2 O6 1.925802 1_555
Co2 O6 1.925802 1_565
Co2 O5 1.925802 1_555
Co2 O5 1.925802 1_655
Co3 O10 1.925882 1_545
Co3 O3 1.925882 1_455
Co3 O10 1.925886 1_555
Co3 O3 1.925886 1_555
O2 Tl1 2.137013 1_555
O2 Tl0 2.729099 1_445
O2 Tl0 2.729102 1_455
O2 Tl0 2.729102 1_545
O2 Tl0 2.729105 1_555
O4 Tl0 2.137013 1_555
O4 Tl1 2.729099 1_665
O4 Tl1 2.729102 1_655
O4 Tl1 2.729102 1_565
O4 Tl1 2.729105 1_555
O7 Tl1 2.099586 1_555
O11 Tl0 2.099586 1_555
