# generated using pymatgen
data_BaCu9Ge4
_symmetry_space_group_name_H-M   'P 1'
_cell_length_a   8.45183608
_cell_length_b   8.45183608
_cell_length_c   8.45183608
_cell_angle_alpha   120.61182246
_cell_angle_beta   120.61182246
_cell_angle_gamma   88.94351927
_symmetry_Int_Tables_number   1
_chemical_formula_structural   BaCu9Ge4
_chemical_formula_sum   'Ba2 Cu18 Ge8'
_cell_volume   422.88592286
_cell_formula_units_Z   2
loop_
 _symmetry_equiv_pos_site_id
 _symmetry_equiv_pos_as_xyz
  1  'x, y, z'
loop_
 _atom_site_type_symbol
 _atom_site_label
 _atom_site_symmetry_multiplicity
 _atom_site_fract_x
 _atom_site_fract_y
 _atom_site_fract_z
 _atom_site_occupancy
  Ba  Ba0  1  0.25000000  0.25000000  0.00000000  1
  Ba  Ba1  1  0.75000000  0.75000000  0.00000000  1
  Cu  Cu0  1  0.06094600  0.56094600  0.26645100  1
  Cu  Cu1  1  0.70550500  0.20550500  0.26645100  1
  Cu  Cu2  1  0.93905400  0.43905400  0.73354900  1
  Cu  Cu3  1  0.43905400  0.70550500  0.50000000  1
  Cu  Cu4  1  0.20550500  0.93905400  0.50000000  1
  Cu  Cu5  1  0.56094600  0.29449500  0.50000000  1
  Cu  Cu6  1  0.79449500  0.06094600  0.50000000  1
  Cu  Cu7  1  0.29449500  0.79449500  0.73354900  1
  Cu  Cu8  1  0.43838300  0.29585900  0.73424200  1
  Cu  Cu9  1  0.79585900  0.93838300  0.73424200  1
  Cu  Cu10  1  0.00000000  0.50000000  0.50000000  1
  Cu  Cu11  1  0.50000000  0.00000000  0.50000000  1
  Cu  Cu12  1  0.56161700  0.70414100  0.26575800  1
  Cu  Cu13  1  0.70414100  0.43838300  0.14252400  1
  Cu  Cu14  1  0.29585900  0.56161700  0.85747600  1
  Cu  Cu15  1  0.93838300  0.20414100  0.14252400  1
  Cu  Cu16  1  0.06161700  0.79585900  0.85747600  1
  Cu  Cu17  1  0.20414100  0.06161700  0.26575800  1
  Ge  Ge0  1  0.79928400  0.29928400  0.85704500  1
  Ge  Ge1  1  0.55776100  0.05776100  0.85704500  1
  Ge  Ge2  1  0.20071600  0.70071600  0.14295500  1
  Ge  Ge3  1  0.70071600  0.55776100  0.50000000  1
  Ge  Ge4  1  0.05776100  0.20071600  0.50000000  1
  Ge  Ge5  1  0.29928400  0.44223900  0.50000000  1
  Ge  Ge6  1  0.94223900  0.79928400  0.50000000  1
  Ge  Ge7  1  0.44223900  0.94223900  0.14295500  1
loop_
_geom_bond_atom_site_label_1
_geom_bond_atom_site_label_2
_geom_bond_distance
_geom_bond_site_symmetry_2
Ba0 Ge0 3.451269 1_454
Ba0 Ge1 3.451269 1_554
Ba0 Ge5 3.451269 1_555
Ba0 Ge7 3.451269 1_545
Ba0 Ge4 3.451269 1_554
Ba0 Ge3 3.451269 1_555
Ba0 Ge6 3.451269 1_444
Ba0 Ge2 3.451269 1_555
Ba0 Cu3 3.466078 1_555
Ba0 Cu4 3.466078 1_544
Ba0 Cu1 3.466078 1_555
Ba0 Cu6 3.466078 1_454
Ba0 Cu2 3.466078 1_454
Ba0 Cu0 3.466078 1_555
Ba0 Cu5 3.466078 1_555
Ba0 Cu7 3.466078 1_544
Ba0 Cu9 3.504574 1_444
Ba0 Cu13 3.504574 1_555
Ba0 Cu12 3.504574 1_555
Ba0 Cu17 3.504574 1_555
Ba0 Cu14 3.504574 1_554
Ba0 Cu16 3.504574 1_544
Ba0 Cu15 3.504574 1_455
Ba0 Cu8 3.504574 1_554
Ba1 Ge2 3.451269 1_655
Ba1 Ge4 3.451269 1_665
Ba1 Ge3 3.451269 1_554
Ba1 Ge7 3.451269 1_555
Ba1 Ge6 3.451269 1_555
Ba1 Ge0 3.451269 1_554
Ba1 Ge5 3.451269 1_554
Ba1 Ge1 3.451269 1_564
Ba1 Cu7 3.466078 1_554
Ba1 Cu4 3.466078 1_655
Ba1 Cu3 3.466078 1_554
Ba1 Cu1 3.466078 1_565
Ba1 Cu0 3.466078 1_655
Ba1 Cu5 3.466078 1_554
Ba1 Cu6 3.466078 1_565
Ba1 Cu2 3.466078 1_554
Ba1 Cu15 3.504574 1_565
Ba1 Cu12 3.504574 1_555
Ba1 Cu9 3.504574 1_554
Ba1 Cu17 3.504574 1_665
Ba1 Cu16 3.504574 1_654
Ba1 Cu14 3.504574 1_554
Ba1 Cu8 3.504574 1_554
Ba1 Cu13 3.504574 1_555
Cu0 Ge0 2.519579 1_454
Cu0 Ge2 2.538388 1_555
Cu0 Cu10 2.551049 1_555
Cu0 Ge5 2.617933 1_555
Cu0 Ge6 2.617933 1_455
Cu0 Cu3 2.620133 1_555
Cu0 Cu4 2.620133 1_555
Cu0 Cu15 2.656621 1_455
Cu0 Cu13 2.656621 1_455
Cu0 Cu7 2.765686 1_555
Cu1 Ge1 2.519579 1_554
Cu1 Ge7 2.538388 1_545
Cu1 Cu10 2.551049 1_655
Cu1 Ge4 2.617933 1_655
Cu1 Ge3 2.617933 1_555
Cu1 Cu6 2.620133 1_555
Cu1 Cu5 2.620133 1_555
Cu1 Cu15 2.656621 1_555
Cu1 Cu13 2.656621 1_555
Cu1 Cu2 2.765686 1_555
Cu2 Ge2 2.519579 1_656
Cu2 Ge0 2.538388 1_555
Cu2 Ge4 2.617933 1_655
Cu2 Ge3 2.617933 1_555
Cu2 Cu6 2.620133 1_555
Cu2 Cu5 2.620133 1_555
Cu3 Ge3 2.519579 1_555
Cu3 Ge5 2.538388 1_555
Cu3 Ge1 2.617933 1_565
Cu3 Ge2 2.617933 1_555
Cu3 Cu7 2.620133 1_555
Cu3 Cu9 2.656621 1_555
Cu3 Cu4 2.765686 1_555
Cu4 Ge4 2.519579 1_565
Cu4 Ge6 2.538388 1_455
Cu4 Ge1 2.617933 1_565
Cu4 Ge2 2.617933 1_555
Cu4 Cu7 2.620133 1_555
Cu4 Cu8 2.656621 1_565
Cu5 Ge5 2.519579 1_555
Cu5 Ge3 2.538388 1_555
Cu5 Ge7 2.617933 1_545
Cu5 Ge0 2.617933 1_555
Cu5 Cu8 2.656621 1_555
Cu5 Cu6 2.765686 1_555
Cu6 Ge6 2.519579 1_545
Cu6 Ge4 2.538388 1_655
Cu6 Ge0 2.617933 1_555
Cu6 Ge7 2.617933 1_545
Cu6 Cu9 2.656621 1_545
Cu7 Ge7 2.519579 1_556
Cu7 Ge1 2.538388 1_565
Cu7 Ge5 2.617933 1_555
Cu7 Ge6 2.617933 1_455
Cu8 Ge5 2.627299 1_555
Cu8 Ge4 2.627299 1_555
Cu8 Ge1 2.670328 1_555
Cu8 Ge0 2.670328 1_555
Cu9 Ge6 2.627299 1_555
Cu9 Ge3 2.627299 1_555
Cu9 Ge1 2.670328 1_565
Cu9 Ge0 2.670328 1_565
Cu10 Cu15 2.530549 1_455
Cu10 Cu14 2.530549 1_555
Cu10 Cu16 2.530549 1_555
Cu10 Cu13 2.530549 1_455
Cu10 Cu7 2.551049 1_555
Cu10 Cu2 2.551049 1_455
Cu10 Ge5 2.567325 1_555
Cu10 Ge3 2.567325 1_455
Cu10 Ge6 2.567325 1_455
Cu10 Ge4 2.567325 1_555
Cu11 Cu8 2.530549 1_555
Cu11 Cu9 2.530549 1_545
Cu11 Cu17 2.530549 1_555
Cu11 Cu12 2.530549 1_545
Cu11 Cu6 2.551049 1_555
Cu11 Cu3 2.551049 1_545
Cu11 Cu4 2.551049 1_545
Cu11 Cu5 2.551049 1_555
Cu11 Ge1 2.567325 1_555
Cu11 Ge2 2.567325 1_545
Cu11 Ge0 2.567325 1_555
Cu11 Ge7 2.567325 1_545
Cu12 Cu13 2.525157 1_555
Cu12 Cu14 2.525157 1_554
Cu12 Ge6 2.627299 1_555
Cu12 Ge3 2.627299 1_555
Cu12 Cu6 2.656621 1_565
Cu12 Cu3 2.656621 1_555
Cu12 Ge7 2.670328 1_555
Cu12 Ge2 2.670328 1_555
Cu12 Cu9 2.773893 1_555
Cu13 Cu8 2.525157 1_554
Cu13 Ge1 2.627299 1_554
Cu13 Ge0 2.627299 1_554
Cu13 Ge6 2.670328 1_555
Cu13 Ge3 2.670328 1_555
Cu13 Cu15 2.773893 1_555
Cu14 Cu8 2.525157 1_555
Cu14 Ge2 2.627299 1_556
Cu14 Ge7 2.627299 1_556
Cu14 Cu2 2.656621 1_455
Cu14 Cu7 2.656621 1_555
Cu14 Ge4 2.670328 1_555
Cu14 Ge5 2.670328 1_555
Cu14 Cu16 2.773893 1_555
Cu15 Cu17 2.525157 1_655
Cu15 Cu9 2.525157 1_544
Cu15 Ge1 2.627299 1_554
Cu15 Ge0 2.627299 1_554
Cu15 Ge4 2.670328 1_655
Cu15 Ge5 2.670328 1_655
Cu16 Cu17 2.525157 1_566
Cu16 Cu9 2.525157 1_455
Cu16 Ge2 2.627299 1_556
Cu16 Ge7 2.627299 1_556
Cu16 Cu7 2.656621 1_555
Cu16 Cu2 2.656621 1_455
Cu16 Ge3 2.670328 1_455
Cu16 Ge6 2.670328 1_455
Cu17 Ge4 2.627299 1_555
Cu17 Ge5 2.627299 1_555
Cu17 Cu4 2.656621 1_545
Cu17 Cu5 2.656621 1_555
Cu17 Ge2 2.670328 1_545
Cu17 Ge7 2.670328 1_545
Cu17 Cu8 2.773893 1_555
Ge0 Ge1 2.913345 1_555
Ge2 Ge7 2.913345 1_555
Ge3 Ge6 2.913345 1_555
Ge4 Ge5 2.913345 1_555
