# generated using pymatgen
data_MgO
_symmetry_space_group_name_H-M   'P 1'
_cell_length_a   8.73449926
_cell_length_b   8.73449926
_cell_length_c   5.67962149
_cell_angle_alpha   89.77091730
_cell_angle_beta   89.77091730
_cell_angle_gamma   59.92815176
_symmetry_Int_Tables_number   1
_chemical_formula_structural   MgO
_chemical_formula_sum   'Mg12 O12'
_cell_volume   374.97865243
_cell_formula_units_Z   12
loop_
 _symmetry_equiv_pos_site_id
 _symmetry_equiv_pos_as_xyz
  1  'x, y, z'
loop_
 _atom_site_type_symbol
 _atom_site_label
 _atom_site_symmetry_multiplicity
 _atom_site_fract_x
 _atom_site_fract_y
 _atom_site_fract_z
 _atom_site_occupancy
  Mg  Mg0  1  0.17654200  0.38061100  0.42324500  1
  Mg  Mg1  1  0.61938900  0.82345800  0.07675500  1
  Mg  Mg2  1  0.82345800  0.61938900  0.57675500  1
  Mg  Mg3  1  0.38061100  0.17654200  0.92324500  1
  Mg  Mg4  1  0.03778200  0.82960300  0.42462700  1
  Mg  Mg5  1  0.17039700  0.96221800  0.07537300  1
  Mg  Mg6  1  0.96221800  0.17039700  0.57537300  1
  Mg  Mg7  1  0.82960300  0.03778200  0.92462700  1
  Mg  Mg8  1  0.05872800  0.61598600  0.92283600  1
  Mg  Mg9  1  0.38401400  0.94127200  0.57716400  1
  Mg  Mg10  1  0.94127200  0.38401400  0.07716400  1
  Mg  Mg11  1  0.61598600  0.05872800  0.42283600  1
  O  O0  1  0.04050600  0.82499900  0.07069300  1
  O  O1  1  0.17500100  0.95949400  0.42930700  1
  O  O2  1  0.95949400  0.17500100  0.92930700  1
  O  O3  1  0.82499900  0.04050600  0.57069300  1
  O  O4  1  0.18151300  0.37938100  0.07340000  1
  O  O5  1  0.62061900  0.81848700  0.42660000  1
  O  O6  1  0.81848700  0.62061900  0.92660000  1
  O  O7  1  0.37938100  0.18151300  0.57340000  1
  O  O8  1  0.06363500  0.61673100  0.57292600  1
  O  O9  1  0.38326900  0.93636500  0.92707400  1
  O  O10  1  0.93636500  0.38326900  0.42707400  1
  O  O11  1  0.61673100  0.06363500  0.07292600  1
loop_
_geom_bond_atom_site_label_1
_geom_bond_atom_site_label_2
_geom_bond_distance
_geom_bond_site_symmetry_2
Mg0 O7 1.950110 1_555
Mg0 O8 1.979328 1_555
Mg0 O4 1.987242 1_555
Mg0 O10 2.086316 1_455
Mg1 O6 1.950110 1_554
Mg1 O9 1.979328 1_554
Mg1 O5 1.987242 1_555
Mg1 O11 2.086316 1_565
Mg2 O5 1.950110 1_555
Mg2 O10 1.979328 1_555
Mg2 O6 1.987242 1_555
Mg2 O8 2.086316 1_655
Mg3 O4 1.950110 1_556
Mg3 O11 1.979328 1_556
Mg3 O7 1.987242 1_555
Mg3 O9 2.086316 1_545
Mg4 O8 1.945704 1_555
Mg4 O0 2.010581 1_555
Mg4 O1 2.021781 1_555
Mg4 O3 2.025997 1_465
Mg5 O9 1.945704 1_554
Mg5 O1 2.010581 1_555
Mg5 O0 2.021781 1_555
Mg5 O2 2.025997 1_464
Mg6 O10 1.945704 1_555
Mg6 O2 2.010581 1_555
Mg6 O3 2.021781 1_555
Mg6 O1 2.025997 1_645
Mg7 O11 1.945704 1_556
Mg7 O3 2.010581 1_555
Mg7 O2 2.021781 1_555
Mg7 O0 2.025997 1_646
Mg8 O0 1.945108 1_556
Mg8 O4 1.981011 1_556
Mg8 O8 1.987702 1_555
Mg8 O6 2.078428 1_455
Mg9 O1 1.945108 1_555
Mg9 O5 1.981011 1_555
Mg9 O9 1.987702 1_555
Mg9 O7 2.078428 1_565
Mg10 O2 1.945108 1_554
Mg10 O6 1.981011 1_554
Mg10 O10 1.987702 1_555
Mg10 O4 2.078428 1_655
Mg11 O3 1.945108 1_555
Mg11 O7 1.981011 1_555
Mg11 O11 1.987702 1_555
Mg11 O5 2.078428 1_545
