# generated using pymatgen
data_Fe46(BC3)3
_symmetry_space_group_name_H-M   'P 1'
_cell_length_a   7.42904200
_cell_length_b   7.43477792
_cell_length_c   12.86485622
_cell_angle_alpha   73.44233888
_cell_angle_beta   73.37199192
_cell_angle_gamma   60.04766716
_symmetry_Int_Tables_number   1
_chemical_formula_structural   Fe46(BC3)3
_chemical_formula_sum   'Fe46 B3 C9'
_cell_volume   581.21358725
_cell_formula_units_Z   1
loop_
 _symmetry_equiv_pos_site_id
 _symmetry_equiv_pos_as_xyz
  1  'x, y, z'
loop_
 _atom_site_type_symbol
 _atom_site_label
 _atom_site_symmetry_multiplicity
 _atom_site_fract_x
 _atom_site_fract_y
 _atom_site_fract_z
 _atom_site_occupancy
  Fe  Fe0  1  0.66032400  0.33948400  0.99984900  1
  Fe  Fe1  1  0.15895600  0.84415200  0.49795600  1
  Fe  Fe2  1  0.82849700  0.17458000  0.82963900  1
  Fe  Fe3  1  0.32861600  0.67556800  0.32828300  1
  Fe  Fe4  1  0.65532400  0.00179300  0.00226900  1
  Fe  Fe5  1  0.15387600  0.49987600  0.49991700  1
  Fe  Fe6  1  0.16921000  0.16939400  0.83073900  1
  Fe  Fe7  1  0.66917400  0.66923700  0.33044100  1
  Fe  Fe8  1  0.99986100  0.33758900  0.00020500  1
  Fe  Fe9  1  0.49992100  0.83828700  0.49946700  1
  Fe  Fe10  1  0.33758100  0.00036200  0.99984000  1
  Fe  Fe11  1  0.83622700  0.50015700  0.49977700  1
  Fe  Fe12  1  0.33210700  0.32468200  0.67092400  1
  Fe  Fe13  1  0.83005100  0.83035700  0.16934200  1
  Fe  Fe14  1  0.66861500  0.33064700  0.66939600  1
  Fe  Fe15  1  0.16875300  0.83100900  0.16843300  1
  Fe  Fe16  1  0.33325400  0.67081500  0.67049600  1
  Fe  Fe17  1  0.83074100  0.16879000  0.16869500  1
  Fe  Fe18  1  0.33925600  0.66030200  0.99972200  1
  Fe  Fe19  1  0.83768500  0.16167500  0.49993200  1
  Fe  Fe20  1  0.50132300  0.15567700  0.50176500  1
  Fe  Fe21  1  0.00150600  0.65561600  0.00235300  1
  Fe  Fe22  1  0.17448000  0.82916500  0.82922700  1
  Fe  Fe23  1  0.67509800  0.32907900  0.32915900  1
  Fe  Fe24  1  0.04420200  0.57072900  0.81031300  1
  Fe  Fe25  1  0.54345800  0.07247900  0.30749600  1
  Fe  Fe26  1  0.57606000  0.57560400  0.80866300  1
  Fe  Fe27  1  0.07592000  0.07689900  0.30693400  1
  Fe  Fe28  1  0.80589900  0.80906900  0.57506300  1
  Fe  Fe29  1  0.30742700  0.30764200  0.07653100  1
  Fe  Fe30  1  0.57293200  0.04230300  0.80878700  1
  Fe  Fe31  1  0.07231500  0.54318100  0.30710700  1
  Fe  Fe32  1  0.46162800  0.92243600  0.69270700  1
  Fe  Fe33  1  0.96046900  0.42341300  0.19166400  1
  Fe  Fe34  1  0.92520800  0.92969500  0.69062400  1
  Fe  Fe35  1  0.42591900  0.42597500  0.18962500  1
  Fe  Fe36  1  0.69009400  0.69031400  0.92587000  1
  Fe  Fe37  1  0.19039300  0.19088900  0.42432100  1
  Fe  Fe38  1  0.92249600  0.45763800  0.69252400  1
  Fe  Fe39  1  0.42331900  0.96094300  0.19157300  1
  Fe  Fe40  1  0.99768400  0.99754700  0.99733700  1
  Fe  Fe41  1  0.49007800  0.49989900  0.50011100  1
  Fe  Fe42  1  0.37674800  0.37472200  0.87554100  1
  Fe  Fe43  1  0.87622300  0.87566300  0.37453100  1
  Fe  Fe44  1  0.12703000  0.12506300  0.62510100  1
  Fe  Fe45  1  0.62493800  0.62546600  0.12580400  1
  B  B0  1  0.86330500  0.86308300  0.86376200  1
  B  B1  1  0.36428600  0.36299600  0.36218200  1
  B  B2  1  0.08948000  0.63739000  0.63753700  1
  C  C0  1  0.58284600  0.13983300  0.13945400  1
  C  C1  1  0.86147400  0.41759800  0.86166000  1
  C  C2  1  0.36202600  0.91863500  0.36040700  1
  C  C3  1  0.64035800  0.63886600  0.63847300  1
  C  C4  1  0.13882600  0.13865200  0.13845900  1
  C  C5  1  0.41736700  0.86143100  0.86178300  1
  C  C6  1  0.91812200  0.36124300  0.36124700  1
  C  C7  1  0.64114200  0.08137400  0.63956100  1
  C  C8  1  0.13989400  0.58303900  0.13942400  1
loop_
_geom_bond_atom_site_label_1
_geom_bond_atom_site_label_2
_geom_bond_distance
_geom_bond_site_symmetry_2
Fe0 Fe40 2.526554 1_545
Fe1 Fe41 2.512840 1_555
Fe2 Fe40 2.499622 1_545
Fe3 Fe41 2.517684 1_555
Fe4 Fe40 2.510488 1_544
Fe10 Fe40 2.545062 1_445
Fe11 Fe41 2.571287 1_555
Fe12 Fe41 2.514418 1_555
Fe13 Fe40 2.528532 1_554
Fe14 Fe41 2.551510 1_555
Fe15 Fe40 2.543516 1_454
Fe16 Fe41 2.534667 1_555
Fe17 Fe40 2.545015 1_544
Fe18 Fe40 2.524727 1_455
Fe19 Fe41 2.550995 1_555
Fe20 Fe41 2.512668 1_555
Fe21 Fe40 2.510602 1_454
Fe22 Fe40 2.499037 1_455
Fe23 Fe41 2.541215 1_555
Fe24 Fe42 2.413641 1_555
Fe25 Fe43 2.425905 1_545
Fe26 Fe42 2.431060 1_555
Fe27 Fe43 2.435596 1_445
Fe28 Fe43 2.435662 1_555
Fe29 Fe42 2.441146 1_554
Fe30 Fe42 2.422051 1_555
Fe31 Fe43 2.426533 1_455
Fe32 Fe44 2.440502 1_565
Fe33 Fe45 2.435590 1_555
Fe34 Fe44 2.412861 1_665
Fe35 Fe45 2.420920 1_555
Fe36 Fe45 2.428219 1_556
Fe37 Fe44 2.438583 1_555
Fe38 Fe44 2.427233 1_655
Fe39 Fe45 2.434631 1_555
Fe40 Fe6 2.520248 1_665
Fe40 Fe8 2.547044 1_566
Fe41 Fe5 2.498460 1_555
Fe41 Fe9 2.550753 1_555
Fe41 Fe7 2.562051 1_555
B0 Fe30 2.096411 1_565
B0 Fe24 2.099875 1_655
B0 Fe36 2.102687 1_555
B0 Fe34 2.104877 1_555
B0 Fe22 2.121090 1_655
B0 Fe4 2.122850 1_566
B0 Fe2 2.123800 1_565
B0 Fe21 2.123925 1_656
B1 Fe25 2.095537 1_555
B1 Fe35 2.096869 1_555
B1 Fe37 2.102823 1_555
B1 Fe31 2.106771 1_555
B1 Fe5 2.114939 1_555
B1 Fe23 2.119891 1_555
B1 Fe3 2.129438 1_555
B1 Fe20 2.130401 1_555
B2 Fe34 2.097441 1_455
B2 Fe24 2.100009 1_555
B2 Fe28 2.100639 1_455
B2 Fe38 2.107072 1_455
B2 Fe5 2.113577 1_555
B2 Fe16 2.114290 1_555
B2 Fe12 2.127912 1_555
B2 Fe1 2.131317 1_555
C0 Fe35 2.043759 1_555
C0 Fe25 2.043816 1_555
C0 Fe29 2.054650 1_555
C0 Fe39 2.057654 1_545
C0 Fe4 2.096342 1_555
C0 Fe17 2.101902 1_555
C0 Fe13 2.120153 1_545
C0 Fe0 2.121860 1_554
C1 Fe24 2.043707 1_655
C1 Fe36 2.046801 1_555
C1 Fe26 2.055323 1_555
C1 Fe38 2.056635 1_555
C1 Fe2 2.101944 1_555
C1 Fe8 2.102704 1_556
C1 Fe6 2.115505 1_655
C1 Fe0 2.118631 1_555
C2 Fe25 2.039356 1_565
C2 Fe37 2.042165 1_565
C2 Fe39 2.052209 1_555
C2 Fe27 2.062420 1_565
C2 Fe3 2.104865 1_555
C2 Fe9 2.106053 1_555
C2 Fe1 2.112285 1_555
C2 Fe7 2.114832 1_555
C3 Fe28 2.042218 1_555
C3 Fe38 2.042624 1_555
C3 Fe32 2.051232 1_555
C3 Fe26 2.069304 1_555
C3 Fe16 2.099532 1_555
C3 Fe11 2.104523 1_555
C3 Fe9 2.120542 1_555
C3 Fe14 2.121636 1_555
C4 Fe27 2.047982 1_555
C4 Fe39 2.050129 1_545
C4 Fe29 2.052303 1_555
C4 Fe33 2.052347 1_455
C4 Fe10 2.107043 1_554
C4 Fe8 2.107996 1_455
C4 Fe17 2.113778 1_455
C4 Fe15 2.113823 1_545
C5 Fe30 2.046260 1_565
C5 Fe36 2.046372 1_555
C5 Fe32 2.054838 1_555
C5 Fe26 2.058568 1_555
C5 Fe10 2.098688 1_565
C5 Fe22 2.100217 1_555
C5 Fe6 2.117985 1_565
C5 Fe18 2.118156 1_555
C6 Fe37 2.036996 1_655
C6 Fe31 2.044669 1_655
C6 Fe27 2.056711 1_655
C6 Fe33 2.061531 1_555
C6 Fe23 2.097883 1_555
C6 Fe11 2.100958 1_555
C6 Fe7 2.119992 1_555
C6 Fe19 2.123248 1_555
C7 Fe34 2.037537 1_545
C7 Fe28 2.046250 1_545
C7 Fe32 2.057580 1_545
C7 Fe30 2.058143 1_555
C7 Fe12 2.108252 1_555
C7 Fe20 2.109351 1_555
C7 Fe14 2.109889 1_555
C7 Fe19 2.115009 1_555
C8 Fe31 2.039076 1_555
C8 Fe35 2.042960 1_555
C8 Fe29 2.054080 1_555
C8 Fe33 2.061372 1_455
C8 Fe21 2.097378 1_555
C8 Fe15 2.101603 1_555
C8 Fe18 2.119279 1_554
C8 Fe13 2.120737 1_455
