# generated using pymatgen
data_K2Na2Eu4Nb2O13
_symmetry_space_group_name_H-M   'P 1'
_cell_length_a   12.59612143
_cell_length_b   12.59612143
_cell_length_c   11.38516914
_cell_angle_alpha   64.27272172
_cell_angle_beta   64.27272172
_cell_angle_gamma   26.36563969
_symmetry_Int_Tables_number   1
_chemical_formula_structural   K2Na2Eu4Nb2O13
_chemical_formula_sum   'K4 Na4 Eu8 Nb4 O26'
_cell_volume   718.07589142
_cell_formula_units_Z   2
loop_
 _symmetry_equiv_pos_site_id
 _symmetry_equiv_pos_as_xyz
  1  'x, y, z'
loop_
 _atom_site_type_symbol
 _atom_site_label
 _atom_site_symmetry_multiplicity
 _atom_site_fract_x
 _atom_site_fract_y
 _atom_site_fract_z
 _atom_site_occupancy
  K  K0  1  0.80165700  0.69706300  0.36667300  1
  K  K1  1  0.30293700  0.19834300  0.13332700  1
  K  K2  1  0.19834300  0.30293700  0.63332700  1
  K  K3  1  0.69706300  0.80165700  0.86667300  1
  Na  Na0  1  0.88001500  0.80344800  0.02269200  1
  Na  Na1  1  0.19655200  0.11998500  0.47730800  1
  Na  Na2  1  0.11998500  0.19655200  0.97730800  1
  Na  Na3  1  0.80344800  0.88001500  0.52269200  1
  Eu  Eu0  1  0.60471800  0.52092200  0.55174800  1
  Eu  Eu1  1  0.47907800  0.39528200  0.94825200  1
  Eu  Eu2  1  0.39528200  0.47907800  0.44825200  1
  Eu  Eu3  1  0.52092200  0.60471800  0.05174800  1
  Eu  Eu4  1  0.97089400  0.90395500  0.17435300  1
  Eu  Eu5  1  0.09604500  0.02910600  0.32564700  1
  Eu  Eu6  1  0.02910600  0.09604500  0.82564700  1
  Eu  Eu7  1  0.90395500  0.97089400  0.67435300  1
  Nb  Nb0  1  0.68459700  0.61636900  0.21846200  1
  Nb  Nb1  1  0.38363100  0.31540300  0.28153800  1
  Nb  Nb2  1  0.31540300  0.38363100  0.78153800  1
  Nb  Nb3  1  0.61636900  0.68459700  0.71846200  1
  O  O0  1  0.90866300  0.35403900  0.35899400  1
  O  O1  1  0.64596100  0.09133700  0.14100600  1
  O  O2  1  0.09133700  0.64596100  0.64100600  1
  O  O3  1  0.35403900  0.90866300  0.85899400  1
  O  O4  1  0.86024500  0.40729000  0.62360200  1
  O  O5  1  0.59271000  0.13975500  0.87639800  1
  O  O6  1  0.13975500  0.59271000  0.37639800  1
  O  O7  1  0.40729000  0.86024500  0.12360200  1
  O  O8  1  0.18123700  0.55937300  0.13672300  1
  O  O9  1  0.44062700  0.81876300  0.36327700  1
  O  O10  1  0.81876300  0.44062700  0.86327700  1
  O  O11  1  0.55937300  0.18123700  0.63672300  1
  O  O12  1  0.79856900  0.67167300  0.12406200  1
  O  O13  1  0.32832700  0.20143100  0.37593800  1
  O  O14  1  0.20143100  0.32832700  0.87593800  1
  O  O15  1  0.67167300  0.79856900  0.62406200  1
  O  O16  1  0.24123500  0.75876500  0.25000000  1
  O  O17  1  0.75876500  0.24123500  0.75000000  1
  O  O18  1  0.37012300  0.83162800  0.65937600  1
  O  O19  1  0.16837200  0.62987700  0.84062400  1
  O  O20  1  0.62987700  0.16837200  0.34062400  1
  O  O21  1  0.83162800  0.37012300  0.15937700  1
  O  O22  1  0.75072200  0.24744100  0.47878500  1
  O  O23  1  0.75255900  0.24927800  0.02121500  1
  O  O24  1  0.24927800  0.75255900  0.52121500  1
  O  O25  1  0.24744100  0.75072200  0.97878500  1
loop_
_geom_bond_atom_site_label_1
_geom_bond_atom_site_label_2
_geom_bond_distance
_geom_bond_site_symmetry_2
K0 O13 2.842537 1_565
K0 O15 2.870354 1_555
K0 O12 2.935279 1_555
K0 O13 2.969205 1_655
K0 O6 3.182556 1_655
K0 O4 3.194010 1_555
K0 O0 3.206727 1_555
K0 O9 3.262053 1_555
K0 O8 3.307175 1_655
K0 O1 3.309856 1_565
K1 O12 2.842537 1_455
K1 O14 2.870354 1_554
K1 O13 2.935279 1_555
K1 O12 2.969205 1_545
K1 O7 3.182556 1_545
K1 O5 3.194010 1_554
K1 O1 3.206727 1_555
K1 O8 3.262053 1_555
K1 O9 3.307175 1_545
K1 O0 3.309856 1_455
K2 O15 2.842537 1_545
K2 O13 2.870354 1_555
K2 O14 2.935279 1_555
K2 O15 2.969205 1_455
K2 O4 3.182556 1_455
K2 O6 3.194010 1_555
K2 O2 3.206727 1_555
K2 O11 3.262053 1_555
K2 O10 3.307175 1_455
K2 O3 3.309856 1_545
K3 O14 2.842537 1_655
K3 O12 2.870354 1_556
K3 O15 2.935279 1_555
K3 O14 2.969205 1_565
K3 O5 3.182556 1_565
K3 O7 3.194010 1_556
K3 O3 3.206727 1_555
K3 O10 3.262053 1_555
K3 O11 3.307175 1_565
K3 O2 3.309856 1_655
Na0 O1 2.300328 1_565
Na0 O19 2.331827 1_654
Na0 O8 2.332766 1_655
Na0 O5 2.334951 1_564
Na0 O12 2.345196 1_555
Na1 O0 2.300328 1_455
Na1 O18 2.331827 1_545
Na1 O9 2.332766 1_545
Na1 O4 2.334951 1_455
Na1 O13 2.345196 1_555
Na2 O3 2.300328 1_545
Na2 O21 2.331834 1_456
Na2 O10 2.332766 1_455
Na2 O7 2.334951 1_546
Na2 O14 2.345196 1_555
Na3 O2 2.300328 1_655
Na3 O20 2.331827 1_565
Na3 O11 2.332766 1_565
Na3 O6 2.334951 1_655
Na3 O15 2.345196 1_555
Eu0 O24 2.396044 1_555
Eu0 O22 2.396752 1_555
Eu0 O18 2.417960 1_555
Eu0 O9 2.432570 1_555
Eu0 O17 2.433141 1_555
Eu0 O4 2.468122 1_555
Eu0 O0 2.486286 1_555
Eu1 O25 2.396044 1_555
Eu1 O23 2.396752 1_556
Eu1 O19 2.417960 1_555
Eu1 O8 2.432570 1_556
Eu1 O17 2.433141 1_555
Eu1 O5 2.468122 1_555
Eu1 O1 2.486286 1_556
Eu2 O22 2.396044 1_555
Eu2 O24 2.396752 1_555
Eu2 O20 2.417960 1_555
Eu2 O11 2.432570 1_555
Eu2 O16 2.433141 1_555
Eu2 O6 2.468122 1_555
Eu2 O2 2.486286 1_555
Eu3 O23 2.396044 1_555
Eu3 O25 2.396752 1_554
Eu3 O21 2.417967 1_555
Eu3 O10 2.432570 1_554
Eu3 O16 2.433141 1_555
Eu3 O7 2.468122 1_555
Eu3 O3 2.486286 1_554
Eu4 O23 2.380317 1_565
Eu4 O16 2.387715 1_655
Eu4 O1 2.393105 1_565
Eu4 O25 2.401356 1_654
Eu4 O20 2.430058 1_565
Eu4 O8 2.462532 1_655
Eu4 O6 2.580921 1_655
Eu5 O22 2.380317 1_455
Eu5 O16 2.387715 1_545
Eu5 O0 2.393105 1_455
Eu5 O24 2.401356 1_545
Eu5 O21 2.430051 1_455
Eu5 O9 2.462532 1_545
Eu5 O7 2.580921 1_545
Eu6 O25 2.380317 1_545
Eu6 O17 2.387715 1_455
Eu6 O3 2.393105 1_545
Eu6 O23 2.401356 1_456
Eu6 O18 2.430058 1_545
Eu6 O10 2.462532 1_455
Eu6 O4 2.580921 1_455
Eu7 O24 2.380317 1_655
Eu7 O17 2.387715 1_565
Eu7 O2 2.393105 1_655
Eu7 O22 2.401356 1_565
Eu7 O19 2.430058 1_655
Eu7 O11 2.462532 1_565
Eu7 O5 2.580921 1_565
Nb0 O12 1.871866 1_555
Nb0 O9 1.967968 1_555
Nb0 O21 1.984764 1_555
Nb0 O7 1.992707 1_555
Nb0 O0 2.015680 1_555
Nb1 O13 1.871866 1_555
Nb1 O8 1.967968 1_555
Nb1 O20 1.984771 1_555
Nb1 O6 1.992707 1_555
Nb1 O1 2.015680 1_555
Nb2 O14 1.871866 1_555
Nb2 O11 1.967968 1_555
Nb2 O19 1.984771 1_555
Nb2 O5 1.992707 1_555
Nb2 O2 2.015680 1_555
Nb3 O15 1.871866 1_555
Nb3 O10 1.967968 1_555
Nb3 O18 1.984771 1_555
Nb3 O4 1.992707 1_555
Nb3 O3 2.015680 1_555
