# generated using pymatgen
data_CaSiAu
_symmetry_space_group_name_H-M   'P 1'
_cell_length_a   4.32872921
_cell_length_b   4.32645804
_cell_length_c   3.94249516
_cell_angle_alpha   90.00000000
_cell_angle_beta   90.00000000
_cell_angle_gamma   120.01696022
_symmetry_Int_Tables_number   1
_chemical_formula_structural   CaSiAu
_chemical_formula_sum   'Ca1 Si1 Au1'
_cell_volume   63.93232047
_cell_formula_units_Z   1
loop_
 _symmetry_equiv_pos_site_id
 _symmetry_equiv_pos_as_xyz
  1  'x, y, z'
loop_
 _atom_site_type_symbol
 _atom_site_label
 _atom_site_symmetry_multiplicity
 _atom_site_fract_x
 _atom_site_fract_y
 _atom_site_fract_z
 _atom_site_occupancy
  Ca  Ca0  1  -0.00017497  -0.00014836  -0.00000000  1
  Si  Si0  1  0.66689838  0.33375717  0.50000000  1
  Au  Au0  1  0.33317759  0.66639119  0.50000000  1
loop_
_geom_bond_atom_site_label_1
_geom_bond_atom_site_label_2
_geom_bond_distance
_geom_bond_site_symmetry_2
Ca0 Si0 3.179999 1_444
Ca0 Si0 3.179999 1_445
Ca0 Si0 3.183186 1_454
Ca0 Si0 3.183186 1_455
Ca0 Si0 3.183908 1_555
Ca0 Si0 3.183908 1_554
Au0 Si0 2.497316 1_455
Au0 Si0 2.497585 1_555
Au0 Si0 2.500074 1_565
Au0 Ca0 3.181308 1_556
Au0 Ca0 3.181308 1_555
Au0 Ca0 3.182654 1_665
Au0 Ca0 3.182654 1_666
Au0 Ca0 3.183130 1_565
Au0 Ca0 3.183130 1_566
