# generated using pymatgen
data_H2PtPbI6O19
_symmetry_space_group_name_H-M   'P 1'
_cell_length_a   7.66195000
_cell_length_b   7.67995167
_cell_length_c   7.69985147
_cell_angle_alpha   96.93113545
_cell_angle_beta   97.31884823
_cell_angle_gamma   97.57137232
_symmetry_Int_Tables_number   1
_chemical_formula_structural   H2PtPbI6O19
_chemical_formula_sum   'H2 Pt1 Pb1 I6 O19'
_cell_volume   441.10068687
_cell_formula_units_Z   1
loop_
 _symmetry_equiv_pos_site_id
 _symmetry_equiv_pos_as_xyz
  1  'x, y, z'
loop_
 _atom_site_type_symbol
 _atom_site_label
 _atom_site_symmetry_multiplicity
 _atom_site_fract_x
 _atom_site_fract_y
 _atom_site_fract_z
 _atom_site_occupancy
  H  H0  1  0.63024100  0.49622400  0.62675200  1
  H  H1  1  0.62334500  0.63704900  0.49648400  1
  Pt  Pt0  1  0.27520100  0.27526500  0.27574200  1
  Pb  Pb0  1  0.82511300  0.82872000  0.83018700  1
  I  I0  1  0.05563300  0.62040200  0.42022100  1
  I  I1  1  0.41875000  0.05148500  0.62021800  1
  I  I2  1  0.62294500  0.41895700  0.05509200  1
  I  I3  1  0.40226300  0.87049400  0.09506700  1
  I  I4  1  0.09541200  0.40319800  0.86907800  1
  I  I5  1  0.86884500  0.09438200  0.40253300  1
  O  O0  1  0.21136700  0.45015700  0.46644600  1
  O  O1  1  0.46731700  0.21717700  0.45645100  1
  O  O2  1  0.45540300  0.46771400  0.21539900  1
  O  O3  1  0.62058700  0.62064200  0.62038500  1
  O  O4  1  0.17849000  0.74445300  0.05639600  1
  O  O5  1  0.05770800  0.18112700  0.74397100  1
  O  O6  1  0.74319700  0.05833400  0.18027900  1
  O  O7  1  0.34471200  0.10496300  0.08395800  1
  O  O8  1  0.08202400  0.34315300  0.10250900  1
  O  O9  1  0.10296500  0.08069800  0.34392400  1
  O  O10  1  0.84920900  0.46160900  0.36753600  1
  O  O11  1  0.36763600  0.85282200  0.45553100  1
  O  O12  1  0.46253900  0.36548600  0.85228600  1
  O  O13  1  0.45797100  0.86136600  0.87104300  1
  O  O14  1  0.86808300  0.45484100  0.85591000  1
  O  O15  1  0.85396300  0.86810200  0.45596100  1
  O  O16  1  0.06744400  0.68068200  0.65753700  1
  O  O17  1  0.65823300  0.06484500  0.68007800  1
  O  O18  1  0.68290200  0.65785300  0.06472600  1
loop_
_geom_bond_atom_site_label_1
_geom_bond_atom_site_label_2
_geom_bond_distance
_geom_bond_site_symmetry_2
H0 O3 0.974633 1_555
H1 O3 0.979757 1_555
I0 O16 1.817742 1_555
I0 O10 1.833613 1_455
I0 O0 1.917079 1_555
I1 O17 1.820260 1_555
I1 O11 1.827090 1_545
I1 O1 1.931286 1_555
I2 O18 1.821829 1_555
I2 O12 1.827813 1_554
I2 O2 1.931454 1_555
I3 O4 1.824366 1_555
I3 O13 1.824512 1_554
I3 O7 1.918626 1_565
I4 O5 1.822873 1_555
I4 O14 1.829795 1_455
I4 O8 1.920500 1_556
I5 O6 1.824210 1_555
I5 O15 1.826072 1_545
I5 O9 1.917539 1_655
O0 Pt0 2.019790 1_555
O1 Pt0 2.025553 1_555
O2 Pt0 2.024382 1_555
O3 Pb0 2.385603 1_555
O7 Pt0 2.023054 1_555
O8 Pt0 2.027306 1_555
O9 Pt0 2.023897 1_555
O16 Pb0 2.706966 1_455
O17 Pb0 2.645693 1_545
O18 Pb0 2.620515 1_554
