# generated using pymatgen
data_Nb8Fe2Sb4Pd
_symmetry_space_group_name_H-M   'P 1'
_cell_length_a   4.95689500
_cell_length_b   7.87837138
_cell_length_c   7.87837138
_cell_angle_alpha   95.67963596
_cell_angle_beta   108.33598877
_cell_angle_gamma   71.66401123
_symmetry_Int_Tables_number   1
_chemical_formula_structural   Nb8Fe2Sb4Pd
_chemical_formula_sum   'Nb8 Fe2 Sb4 Pd1'
_cell_volume   277.21948854
_cell_formula_units_Z   1
loop_
 _symmetry_equiv_pos_site_id
 _symmetry_equiv_pos_as_xyz
  1  'x, y, z'
loop_
 _atom_site_type_symbol
 _atom_site_label
 _atom_site_symmetry_multiplicity
 _atom_site_fract_x
 _atom_site_fract_y
 _atom_site_fract_z
 _atom_site_occupancy
  Nb  Nb0  1  0.41259400  0.87850400  0.71813800  1
  Nb  Nb1  1  0.57296000  0.12149600  0.28186200  1
  Nb  Nb2  1  0.92704000  0.28186200  0.12149600  1
  Nb  Nb3  1  0.08740600  0.71813800  0.87850400  1
  Nb  Nb4  1  0.70890300  0.71813800  0.12149600  1
  Nb  Nb5  1  0.30554400  0.28186200  0.87850400  1
  Nb  Nb6  1  0.79109700  0.12149600  0.71813800  1
  Nb  Nb7  1  0.19445600  0.87850400  0.28186200  1
  Fe  Fe0  1  0.25000000  0.00000000  0.00000000  1
  Fe  Fe1  1  0.75000000  0.00000000  0.00000000  1
  Sb  Sb0  1  0.37667800  0.50000000  0.19861400  1
  Sb  Sb1  1  0.67806400  0.50000000  0.80138600  1
  Sb  Sb2  1  0.82193600  0.80138600  0.50000000  1
  Sb  Sb3  1  0.12332200  0.19861400  0.50000000  1
  Pd  Pd0  1  0.25000000  0.50000000  0.50000000  1
loop_
_geom_bond_atom_site_label_1
_geom_bond_atom_site_label_2
_geom_bond_distance
_geom_bond_site_symmetry_2
Nb0 Sb3 2.898609 1_565
Nb0 Sb1 2.903316 1_555
Nb0 Sb2 2.941330 1_555
Nb0 Sb2 3.105081 1_455
Nb1 Sb2 2.898609 1_545
Nb1 Sb0 2.903316 1_555
Nb1 Sb3 2.941330 1_655
Nb1 Sb3 3.105081 1_555
Nb2 Sb1 2.898609 1_554
Nb2 Sb3 2.903316 1_655
Nb2 Sb0 2.941330 1_555
Nb2 Sb0 3.105081 1_655
Nb3 Sb0 2.898609 1_556
Nb3 Sb2 2.903316 1_455
Nb3 Sb1 2.941330 1_455
Nb3 Sb1 3.105081 1_555
Nb4 Sb1 2.898609 1_554
Nb4 Sb2 2.903316 1_555
Nb4 Sb0 2.941334 1_555
Nb4 Sb0 3.105077 1_655
Nb5 Sb0 2.898609 1_556
Nb5 Sb3 2.903316 1_555
Nb5 Sb1 2.941330 1_455
Nb5 Sb1 3.105081 1_555
Nb6 Sb2 2.898609 1_545
Nb6 Sb1 2.903316 1_555
Nb6 Sb3 2.941334 1_655
Nb6 Sb3 3.105077 1_555
Nb7 Sb3 2.898609 1_565
Nb7 Sb0 2.903316 1_555
Nb7 Sb2 2.941330 1_555
Nb7 Sb2 3.105081 1_455
Fe0 Fe1 2.478448 1_555
Fe0 Fe1 2.478448 1_455
Fe0 Nb0 2.591692 1_544
Fe0 Nb3 2.591692 1_544
Fe0 Nb1 2.591693 1_555
Fe0 Nb2 2.591693 1_455
Fe0 Nb7 2.625708 1_545
Fe0 Nb5 2.625708 1_554
Fe0 Nb6 2.625711 1_454
Fe0 Nb4 2.625711 1_545
Fe1 Nb4 2.591690 1_545
Fe1 Nb6 2.591690 1_554
Fe1 Nb7 2.591693 1_645
Fe1 Nb5 2.591693 1_554
Fe1 Nb1 2.625708 1_555
Fe1 Nb2 2.625708 1_555
Fe1 Nb3 2.625709 1_644
Fe1 Nb0 2.625709 1_544
Pd0 Sb3 2.640134 1_555
Pd0 Sb0 2.640134 1_555
Pd0 Sb1 2.640134 1_555
Pd0 Sb2 2.640134 1_455
