# generated using pymatgen
data_Na16(WO3)19
_symmetry_space_group_name_H-M   'P 1'
_cell_length_a   5.60377614
_cell_length_b   5.60377614
_cell_length_c   43.51260697
_cell_angle_alpha   86.21744694
_cell_angle_beta   86.21744694
_cell_angle_gamma   60.26565122
_symmetry_Int_Tables_number   1
_chemical_formula_structural   Na16(WO3)19
_chemical_formula_sum   'Na16 W19 O57'
_cell_volume   1183.03204345
_cell_formula_units_Z   1
loop_
 _symmetry_equiv_pos_site_id
 _symmetry_equiv_pos_as_xyz
  1  'x, y, z'
loop_
 _atom_site_type_symbol
 _atom_site_label
 _atom_site_symmetry_multiplicity
 _atom_site_fract_x
 _atom_site_fract_y
 _atom_site_fract_z
 _atom_site_occupancy
  Na  Na0  1  0.31584900  0.31584900  0.05268700  1
  Na  Na1  1  0.63076100  0.63076100  0.10585700  1
  Na  Na2  1  0.26340800  0.26340800  0.20999600  1
  Na  Na3  1  0.57876600  0.57876600  0.26292500  1
  Na  Na4  1  0.21161000  0.21161000  0.36774600  1
  Na  Na5  1  0.52614400  0.52614400  0.42052100  1
  Na  Na6  1  0.84181400  0.84181400  0.47371000  1
  Na  Na7  1  0.15714800  0.15714800  0.52624600  1
  Na  Na8  1  0.47426100  0.47426100  0.57888000  1
  Na  Na9  1  0.78983400  0.78983400  0.63166900  1
  Na  Na10  1  0.10561900  0.10561900  0.68396600  1
  Na  Na11  1  0.42134300  0.42134300  0.73685200  1
  Na  Na12  1  0.73637000  0.73637000  0.78970900  1
  Na  Na13  1  0.05255800  0.05255800  0.84231600  1
  Na  Na14  1  0.36805700  0.36805700  0.89514900  1
  Na  Na15  1  0.68398000  0.68398000  0.94799800  1
  W  W0  1  0.65815300  0.65815300  0.02592700  1
  W  W1  1  0.97247000  0.97247000  0.07885600  1
  W  W2  1  0.28881500  0.28881500  0.13240900  1
  W  W3  1  0.60664000  0.60664000  0.18335900  1
  W  W4  1  0.92107200  0.92107200  0.23672800  1
  W  W5  1  0.23680100  0.23680100  0.28965600  1
  W  W6  1  0.55419300  0.55419300  0.34082900  1
  W  W7  1  0.86882400  0.86882400  0.39353800  1
  W  W8  1  0.18416400  0.18416400  0.44679500  1
  W  W9  1  0.50088200  0.50088200  0.49979900  1
  W  W10  1  0.81427200  0.81427200  0.55259100  1
  W  W11  1  0.13201400  0.13201400  0.60518400  1
  W  W12  1  0.44762300  0.44762300  0.65785400  1
  W  W13  1  0.76343500  0.76343500  0.71048500  1
  W  W14  1  0.07985900  0.07985900  0.76328500  1
  W  W15  1  0.39322100  0.39322100  0.81612000  1
  W  W16  1  0.71033400  0.71033400  0.86902500  1
  W  W17  1  0.02608600  0.02608600  0.92217800  1
  W  W18  1  0.34126400  0.34126400  0.97465700  1
  O  O0  1  0.00421700  0.49485100  0.00029100  1
  O  O1  1  0.49485100  0.00421700  0.00029100  1
  O  O2  1  0.49636600  0.49636600  0.99969000  1
  O  O3  1  0.31634000  0.82221100  0.05328100  1
  O  O4  1  0.82221100  0.31634000  0.05328100  1
  O  O5  1  0.81844100  0.81844100  0.05353400  1
  O  O6  1  0.63656600  0.13276400  0.10374800  1
  O  O7  1  0.13276400  0.63656600  0.10374800  1
  O  O8  1  0.13675900  0.13675900  0.10430400  1
  O  O9  1  0.43920300  0.94460800  0.15884700  1
  O  O10  1  0.94460800  0.43920300  0.15884700  1
  O  O11  1  0.44381100  0.44381100  0.15675200  1
  O  O12  1  0.76028000  0.26251800  0.21177200  1
  O  O13  1  0.26251800  0.76028000  0.21177200  1
  O  O14  1  0.76314400  0.76314400  0.21186300  1
  O  O15  1  0.07590700  0.58022000  0.26258900  1
  O  O16  1  0.58022000  0.07590700  0.26258900  1
  O  O17  1  0.07826200  0.07826200  0.26193700  1
  O  O18  1  0.40118600  0.89052200  0.31529800  1
  O  O19  1  0.89052200  0.40118600  0.31529800  1
  O  O20  1  0.39823300  0.39823300  0.31631100  1
  O  O21  1  0.71288200  0.21711200  0.36798500  1
  O  O22  1  0.21711200  0.71288200  0.36798500  1
  O  O23  1  0.70527600  0.70527600  0.36798400  1
  O  O24  1  0.02355200  0.53280500  0.42027000  1
  O  O25  1  0.53280500  0.02355200  0.42027000  1
  O  O26  1  0.03094100  0.03094100  0.42084300  1
  O  O27  1  0.34242000  0.83568100  0.47335700  1
  O  O28  1  0.83568100  0.34242000  0.47335700  1
  O  O29  1  0.33735900  0.33735900  0.47287600  1
  O  O30  1  0.64997300  0.16110000  0.52683600  1
  O  O31  1  0.16110000  0.64997300  0.52683600  1
  O  O32  1  0.65799300  0.65799300  0.52617300  1
  O  O33  1  0.97869900  0.47775000  0.57856100  1
  O  O34  1  0.47775000  0.97869900  0.57856100  1
  O  O35  1  0.97880100  0.97880100  0.57931100  1
  O  O36  1  0.28924600  0.78711300  0.63203800  1
  O  O37  1  0.78711300  0.28924600  0.63203800  1
  O  O38  1  0.28593900  0.28593900  0.63106000  1
  O  O39  1  0.60727300  0.10804100  0.68356900  1
  O  O40  1  0.10804100  0.60727300  0.68356900  1
  O  O41  1  0.60910700  0.60910700  0.68472100  1
  O  O42  1  0.92178400  0.41439900  0.73684700  1
  O  O43  1  0.41439900  0.92178400  0.73684700  1
  O  O44  1  0.91610700  0.91610700  0.73642500  1
  O  O45  1  0.23054500  0.73904900  0.79010600  1
  O  O46  1  0.73904900  0.23054500  0.79010600  1
  O  O47  1  0.23687200  0.23687200  0.78954700  1
  O  O48  1  0.55686900  0.05635400  0.84213700  1
  O  O49  1  0.05635400  0.55686900  0.84213700  1
  O  O50  1  0.55752500  0.55752500  0.84286000  1
  O  O51  1  0.86355500  0.36500000  0.89609600  1
  O  O52  1  0.36500000  0.86355500  0.89609600  1
  O  O53  1  0.86335900  0.86335900  0.89499300  1
  O  O54  1  0.18882600  0.67507800  0.94729100  1
  O  O55  1  0.67507800  0.18882600  0.94729100  1
  O  O56  1  0.18945800  0.18945800  0.94778900  1
loop_
_geom_bond_atom_site_label_1
_geom_bond_atom_site_label_2
_geom_bond_distance
_geom_bond_site_symmetry_2
Na0 O8 2.731867 1_555
Na0 O6 2.759717 1_555
Na0 O7 2.759717 1_555
Na0 O4 2.763289 1_455
Na0 O3 2.763289 1_545
Na0 O0 2.782020 1_555
Na0 O1 2.782020 1_555
Na0 O2 2.786374 1_554
Na0 O5 2.813510 1_545
Na0 O5 2.813510 1_455
Na0 O4 2.840728 1_555
Na0 O3 2.840728 1_555
Na1 O11 2.752428 1_555
Na1 O6 2.782199 1_555
Na1 O7 2.782199 1_555
Na1 O4 2.796786 1_555
Na1 O3 2.796786 1_555
Na1 O5 2.803746 1_555
Na1 O10 2.810262 1_555
Na1 O9 2.810262 1_555
Na1 O8 2.814437 1_655
Na1 O8 2.814437 1_565
Na1 O7 2.824783 1_655
Na1 O6 2.824783 1_565
Na2 O10 2.757711 1_455
Na2 O9 2.757711 1_545
Na2 O17 2.776670 1_555
Na2 O13 2.788049 1_555
Na2 O12 2.788049 1_555
Na2 O11 2.794141 1_555
Na2 O16 2.803802 1_555
Na2 O15 2.803802 1_555
Na2 O14 2.814299 1_545
Na2 O14 2.814299 1_455
Na2 O12 2.817846 1_455
Na2 O13 2.817846 1_545
Na3 O14 2.743138 1_555
Na3 O13 2.750103 1_555
Na3 O12 2.750103 1_555
Na3 O19 2.781583 1_555
Na3 O18 2.781583 1_555
Na3 O16 2.788989 1_565
Na3 O15 2.788989 1_655
Na3 O20 2.799679 1_555
Na3 O17 2.813469 1_565
Na3 O17 2.813469 1_655
Na3 O15 2.814878 1_555
Na3 O16 2.814878 1_555
Na4 O20 2.768319 1_555
Na4 O22 2.778934 1_545
Na4 O21 2.778934 1_455
Na4 O26 2.790600 1_555
Na4 O19 2.810707 1_455
Na4 O18 2.810707 1_545
Na4 O24 2.813709 1_555
Na4 O25 2.813709 1_555
Na4 O23 2.813803 1_455
Na4 O23 2.813803 1_545
Na4 O21 2.825144 1_555
Na4 O22 2.825144 1_555
Na5 O23 2.763185 1_555
Na5 O21 2.780068 1_555
Na5 O22 2.780068 1_555
Na5 O27 2.792250 1_555
Na5 O28 2.792250 1_555
Na5 O25 2.798824 1_555
Na5 O24 2.798824 1_555
Na5 O25 2.805359 1_565
Na5 O24 2.805359 1_655
Na5 O29 2.811104 1_555
Na5 O26 2.813568 1_655
Na5 O26 2.813568 1_565
Na6 O32 2.786648 1_555
Na6 O27 2.787433 1_655
Na6 O28 2.787433 1_565
Na6 O24 2.812870 1_655
Na6 O25 2.812870 1_565
Na6 O29 2.813739 1_565
Na6 O29 2.813739 1_655
Na6 O28 2.816757 1_555
Na6 O27 2.816757 1_555
Na6 O26 2.830030 1_665
Na6 O30 2.830286 1_565
Na6 O31 2.830286 1_655
Na7 O30 2.774550 1_555
Na7 O31 2.774550 1_555
Na7 O35 2.776867 1_445
Na7 O29 2.797382 1_555
Na7 O34 2.804754 1_545
Na7 O33 2.804754 1_455
Na7 O32 2.813144 1_455
Na7 O32 2.813144 1_545
Na7 O28 2.827668 1_455
Na7 O27 2.827668 1_545
Na7 O31 2.829606 1_545
Na7 O30 2.829606 1_455
Na8 O34 2.768320 1_545
Na8 O33 2.768320 1_455
Na8 O30 2.773719 1_555
Na8 O31 2.773719 1_555
Na8 O32 2.794340 1_555
Na8 O38 2.802668 1_555
Na8 O36 2.813225 1_555
Na8 O37 2.813225 1_555
Na8 O35 2.813560 1_545
Na8 O35 2.813560 1_455
Na8 O33 2.835621 1_555
Na8 O34 2.835621 1_555
Na9 O39 2.782647 1_565
Na9 O40 2.782647 1_655
Na9 O41 2.789390 1_555
Na9 O36 2.792164 1_655
Na9 O37 2.792164 1_565
Na9 O34 2.809485 1_555
Na9 O33 2.809485 1_555
Na9 O37 2.811760 1_555
Na9 O36 2.811760 1_555
Na9 O35 2.812243 1_555
Na9 O38 2.813536 1_565
Na9 O38 2.813536 1_655
Na10 O38 2.782208 1_555
Na10 O36 2.784498 1_545
Na10 O37 2.784498 1_455
Na10 O40 2.787103 1_545
Na10 O39 2.787103 1_455
Na10 O43 2.791813 1_545
Na10 O42 2.791813 1_455
Na10 O41 2.813556 1_455
Na10 O41 2.813556 1_545
Na10 O39 2.816823 1_555
Na10 O40 2.816823 1_555
Na10 O44 2.818700 1_445
Na11 O42 2.785250 1_555
Na11 O43 2.785250 1_555
Na11 O41 2.797860 1_555
Na11 O47 2.798060 1_555
Na11 O44 2.813676 1_455
Na11 O44 2.813676 1_545
Na11 O42 2.818934 1_455
Na11 O43 2.818934 1_545
Na11 O40 2.819065 1_555
Na11 O39 2.819065 1_555
Na11 O45 2.830465 1_555
Na11 O46 2.830465 1_555
Na12 O45 2.777919 1_655
Na12 O46 2.777919 1_565
Na12 O50 2.782500 1_555
Na12 O44 2.791876 1_555
Na12 O48 2.806973 1_565
Na12 O49 2.806973 1_655
Na12 O47 2.813143 1_655
Na12 O47 2.813143 1_565
Na12 O45 2.826030 1_555
Na12 O46 2.826030 1_555
Na12 O42 2.828127 1_555
Na12 O43 2.828127 1_555
Na13 O49 2.767764 1_545
Na13 O48 2.767764 1_455
Na13 O46 2.780607 1_455
Na13 O45 2.780607 1_545
Na13 O47 2.799666 1_555
Na13 O50 2.813673 1_455
Na13 O50 2.813673 1_545
Na13 O53 2.824133 1_445
Na13 O52 2.835041 1_545
Na13 O51 2.835041 1_455
Na13 O48 2.836151 1_555
Na13 O49 2.836151 1_555
Na14 O54 2.759833 1_555
Na14 O55 2.759833 1_555
Na14 O56 2.763767 1_555
Na14 O52 2.771218 1_555
Na14 O51 2.771218 1_555
Na14 O48 2.804932 1_555
Na14 O49 2.804932 1_555
Na14 O50 2.812829 1_555
Na14 O53 2.813516 1_545
Na14 O53 2.813516 1_455
Na14 O51 2.833224 1_455
Na14 O52 2.833224 1_545
Na15 O53 2.780431 1_555
Na15 O2 2.782487 1_555
Na15 O52 2.785065 1_555
Na15 O51 2.785065 1_555
Na15 O55 2.802025 1_555
Na15 O54 2.802025 1_555
Na15 O0 2.802683 1_656
Na15 O1 2.802683 1_566
Na15 O54 2.802794 1_655
Na15 O55 2.802794 1_565
Na15 O56 2.813634 1_565
Na15 O56 2.813634 1_655
O0 W18 1.946380 1_554
O0 W0 1.982773 1_455
O1 W18 1.946380 1_554
O1 W0 1.982773 1_545
O2 W18 1.922633 1_555
O2 W0 2.008912 1_556
O3 W1 1.972768 1_455
O3 W0 2.006883 1_555
O4 W1 1.972768 1_545
O4 W0 2.006883 1_555
O5 W1 1.921989 1_555
O5 W0 2.035100 1_555
O6 W1 1.924922 1_545
O6 W2 2.061636 1_555
O7 W1 1.924922 1_455
O7 W2 2.061636 1_555
O8 W2 1.985657 1_555
O8 W1 2.007748 1_445
O9 W3 1.925517 1_555
O9 W2 1.994188 1_565
O10 W3 1.925517 1_555
O10 W2 1.994188 1_655
O11 W2 1.903122 1_555
O11 W3 2.027353 1_555
O12 W4 1.948560 1_545
O12 W3 2.041416 1_555
O13 W4 1.948560 1_455
O13 W3 2.041416 1_555
O14 W4 1.940774 1_555
O14 W3 2.031406 1_555
O15 W4 1.966899 1_455
O15 W5 2.005843 1_555
O16 W4 1.966899 1_545
O16 W5 2.005843 1_555
O17 W4 1.944137 1_445
O17 W5 2.024600 1_555
O18 W6 1.941104 1_555
O18 W5 1.983859 1_565
O19 W6 1.941104 1_555
O19 W5 1.983859 1_655
O20 W6 1.915592 1_555
O20 W5 2.017560 1_555
O21 W6 1.983174 1_555
O21 W7 1.989773 1_545
O22 W6 1.983174 1_555
O22 W7 1.989773 1_455
O23 W6 1.950572 1_555
O23 W7 2.004586 1_555
O24 W7 1.968486 1_455
O24 W8 2.013560 1_555
O25 W7 1.968486 1_545
O25 W8 2.013560 1_555
O26 W8 1.933089 1_555
O26 W7 2.041013 1_445
O27 W9 1.956939 1_555
O27 W8 2.013792 1_565
O28 W9 1.956939 1_555
O28 W8 2.013792 1_655
O29 W8 1.936481 1_555
O29 W9 2.041563 1_555
O30 W10 1.988639 1_545
O30 W9 1.990888 1_555
O31 W10 1.988639 1_455
O31 W9 1.990888 1_555
O32 W10 1.970201 1_555
O32 W9 1.975541 1_555
O33 W10 1.953142 1_555
O33 W11 2.004438 1_655
O34 W10 1.953142 1_555
O34 W11 2.004438 1_565
O35 W11 1.930802 1_665
O35 W10 2.044007 1_555
O36 W12 1.960480 1_555
O36 W11 2.006448 1_565
O37 W12 1.960480 1_555
O37 W11 2.006448 1_655
O38 W11 1.936505 1_555
O38 W12 2.023399 1_555
O39 W12 1.958558 1_555
O39 W13 2.006766 1_545
O40 W12 1.958558 1_555
O40 W13 2.006766 1_455
O41 W13 1.936578 1_555
O41 W12 2.023833 1_555
O42 W14 1.955797 1_655
O42 W13 2.011330 1_555
O43 W14 1.955797 1_565
O43 W13 2.011330 1_555
O44 W13 1.928414 1_555
O44 W14 2.041651 1_665
O45 W14 1.989649 1_565
O45 W15 1.990531 1_555
O46 W14 1.989649 1_655
O46 W15 1.990531 1_555
O47 W14 1.971652 1_555
O47 W15 1.975090 1_555
O48 W15 1.955471 1_555
O48 W16 2.011842 1_545
O49 W15 1.955471 1_555
O49 W16 2.011842 1_455
O50 W16 1.935807 1_555
O50 W15 2.042758 1_555
O51 W17 1.964845 1_655
O51 W16 2.013483 1_555
O52 W17 1.964845 1_565
O52 W16 2.013483 1_555
O53 W16 1.931977 1_555
O53 W17 2.042495 1_665
O54 W18 1.975367 1_555
O54 W17 1.990785 1_565
O55 W18 1.975367 1_555
O55 W17 1.990785 1_655
O56 W18 1.947925 1_555
O56 W17 2.004692 1_555
