# generated using pymatgen
data_TmAlPd
_symmetry_space_group_name_H-M   'P 1'
_cell_length_a   4.38350356
_cell_length_b   6.79490856
_cell_length_c   7.69803028
_cell_angle_alpha   90.00000000
_cell_angle_beta   90.00000000
_cell_angle_gamma   90.00000000
_symmetry_Int_Tables_number   1
_chemical_formula_structural   TmAlPd
_chemical_formula_sum   'Tm4 Al4 Pd4'
_cell_volume   229.28972604
_cell_formula_units_Z   4
loop_
 _symmetry_equiv_pos_site_id
 _symmetry_equiv_pos_as_xyz
  1  'x, y, z'
loop_
 _atom_site_type_symbol
 _atom_site_label
 _atom_site_symmetry_multiplicity
 _atom_site_fract_x
 _atom_site_fract_y
 _atom_site_fract_z
 _atom_site_occupancy
  Tm  Tm0  1  0.75000000  0.46787343  0.17964953  1
  Tm  Tm1  1  0.75000000  0.96787343  0.32035047  1
  Tm  Tm2  1  0.25000000  0.53212657  0.82035047  1
  Tm  Tm3  1  0.25000000  0.03212657  0.67964953  1
  Al  Al0  1  0.75000000  0.35708044  0.56087259  1
  Al  Al1  1  0.75000000  0.85708044  0.93912741  1
  Al  Al2  1  0.25000000  0.64291956  0.43912741  1
  Al  Al3  1  0.25000000  0.14291956  0.06087259  1
  Pd  Pd0  1  0.75000000  0.23056427  0.87961391  1
  Pd  Pd1  1  0.75000000  0.73056427  0.62038609  1
  Pd  Pd2  1  0.25000000  0.76943573  0.12038609  1
  Pd  Pd3  1  0.25000000  0.26943573  0.37961391  1
loop_
_geom_bond_atom_site_label_1
_geom_bond_atom_site_label_2
_geom_bond_distance
_geom_bond_site_symmetry_2
Tm0 Tm2 3.555920 1_654
Tm0 Tm2 3.555920 1_554
Tm0 Tm1 3.565928 1_555
Tm0 Tm1 3.565928 1_545
Tm1 Tm3 3.555920 1_565
Tm1 Tm3 3.555920 1_665
Tm2 Tm3 3.565928 1_555
Tm2 Tm3 3.565928 1_565
Al0 Pd1 2.578810 1_555
Al0 Pd0 2.599918 1_555
Al0 Pd3 2.665596 1_555
Al0 Pd3 2.665596 1_655
Al0 Tm0 3.029690 1_555
Al0 Al2 3.074810 1_655
Al0 Al2 3.074810 1_555
Al0 Tm2 3.195056 1_555
Al0 Tm2 3.195056 1_655
Al0 Tm1 3.228354 1_545
Al0 Tm3 3.242717 1_555
Al0 Tm3 3.242717 1_655
Al1 Pd0 2.578810 1_565
Al1 Pd1 2.599918 1_555
Al1 Pd2 2.665596 1_656
Al1 Pd2 2.665596 1_556
Al1 Tm1 3.029690 1_556
Al1 Al3 3.074810 1_566
Al1 Al3 3.074810 1_666
Al1 Tm3 3.195056 1_665
Al1 Tm3 3.195056 1_565
Al1 Tm0 3.228354 1_556
Al1 Tm2 3.242717 1_655
Al1 Tm2 3.242717 1_555
Al2 Pd3 2.578810 1_555
Al2 Pd2 2.599918 1_555
Al2 Pd1 2.665596 1_455
Al2 Pd1 2.665596 1_555
Al2 Tm2 3.029690 1_555
Al2 Tm0 3.195056 1_455
Al2 Tm0 3.195056 1_555
Al2 Tm3 3.228354 1_565
Al2 Tm1 3.242717 1_555
Al2 Tm1 3.242717 1_455
Al3 Pd2 2.578810 1_545
Al3 Pd3 2.599918 1_555
Al3 Pd0 2.665596 1_454
Al3 Pd0 2.665596 1_554
Al3 Tm3 3.029690 1_554
Al3 Tm1 3.195056 1_545
Al3 Tm1 3.195056 1_445
Al3 Tm2 3.228354 1_554
Al3 Tm0 3.242717 1_555
Al3 Tm0 3.242717 1_455
Pd0 Tm0 2.816873 1_556
Pd0 Tm3 2.998568 1_655
Pd0 Tm3 2.998568 1_555
Pd0 Tm2 3.034908 1_655
Pd0 Tm2 3.034908 1_555
Pd1 Tm1 2.816873 1_555
Pd1 Tm2 2.998568 1_655
Pd1 Tm2 2.998568 1_555
Pd1 Tm3 3.034908 1_565
Pd1 Tm3 3.034908 1_665
Pd2 Tm2 2.816873 1_554
Pd2 Tm1 2.998568 1_555
Pd2 Tm1 2.998568 1_455
Pd2 Tm0 3.034908 1_455
Pd2 Tm0 3.034908 1_555
Pd3 Tm3 2.816873 1_555
Pd3 Tm0 2.998568 1_555
Pd3 Tm0 2.998568 1_455
Pd3 Tm1 3.034908 1_445
Pd3 Tm1 3.034908 1_545
