# generated using pymatgen
data_InAg2BiSe4
_symmetry_space_group_name_H-M   'P 1'
_cell_length_a   7.06879479
_cell_length_b   7.06879479
_cell_length_c   7.07508410
_cell_angle_alpha   80.22332139
_cell_angle_beta   80.22332139
_cell_angle_gamma   33.77355095
_symmetry_Int_Tables_number   1
_chemical_formula_structural   InAg2BiSe4
_chemical_formula_sum   'In1 Ag2 Bi1 Se4'
_cell_volume   193.41044955
_cell_formula_units_Z   1
loop_
 _symmetry_equiv_pos_site_id
 _symmetry_equiv_pos_as_xyz
  1  'x, y, z'
loop_
 _atom_site_type_symbol
 _atom_site_label
 _atom_site_symmetry_multiplicity
 _atom_site_fract_x
 _atom_site_fract_y
 _atom_site_fract_z
 _atom_site_occupancy
  In  In0  1  0.50000000  0.50000000  0.00000000  1
  Ag  Ag0  1  0.25145400  0.25145400  0.75123700  1
  Ag  Ag1  1  0.74854600  0.74854600  0.24876300  1
  Bi  Bi0  1  0.00000000  0.00000000  0.50000000  1
  Se  Se0  1  0.12402400  0.12402400  0.11183100  1
  Se  Se1  1  0.62853300  0.62853300  0.63503800  1
  Se  Se2  1  0.87597600  0.87597600  0.88816900  1
  Se  Se3  1  0.37146700  0.37146700  0.36496200  1
loop_
_geom_bond_atom_site_label_1
_geom_bond_atom_site_label_2
_geom_bond_distance
_geom_bond_site_symmetry_2
In0 Se1 2.845577 1_554
In0 Se3 2.845577 1_555
In0 Se0 2.851040 1_565
In0 Se0 2.851040 1_655
In0 Se2 2.851040 1_544
In0 Se2 2.851040 1_454
Ag0 Se0 2.814175 1_556
Ag0 Se1 2.853505 1_545
Ag0 Se1 2.853505 1_455
Ag0 Se3 2.920612 1_555
Ag0 Se2 2.927749 1_455
Ag0 Se2 2.927749 1_545
Ag1 Se2 2.814175 1_554
Ag1 Se3 2.853505 1_655
Ag1 Se3 2.853505 1_565
Ag1 Se1 2.920612 1_555
Ag1 Se0 2.927749 1_655
Ag1 Se0 2.927749 1_565
Bi0 Se0 2.953290 1_555
Bi0 Se2 2.953290 1_445
Bi0 Se1 2.956699 1_455
Bi0 Se3 2.956699 1_545
Bi0 Se1 2.956699 1_545
Bi0 Se3 2.956699 1_455
