# generated using pymatgen
data_SrNdEuNbO6
_symmetry_space_group_name_H-M   'P 1'
_cell_length_a   8.51885082
_cell_length_b   8.48782883
_cell_length_c   8.49512879
_cell_angle_alpha   90.00000000
_cell_angle_beta   90.00000000
_cell_angle_gamma   90.00000000
_symmetry_Int_Tables_number   1
_chemical_formula_structural   SrNdEuNbO6
_chemical_formula_sum   'Sr4 Nd4 Eu4 Nb4 O24'
_cell_volume   614.25343412
_cell_formula_units_Z   4
loop_
 _symmetry_equiv_pos_site_id
 _symmetry_equiv_pos_as_xyz
  1  'x, y, z'
loop_
 _atom_site_type_symbol
 _atom_site_label
 _atom_site_symmetry_multiplicity
 _atom_site_fract_x
 _atom_site_fract_y
 _atom_site_fract_z
 _atom_site_occupancy
  Sr  Sr0  1  -0.00000000  0.50000000  0.50000000  1
  Sr  Sr1  1  0.50000000  -0.00000000  0.50000000  1
  Sr  Sr2  1  0.50000000  -0.00000000  -0.00000000  1
  Sr  Sr3  1  -0.00000000  0.50000000  0.00000000  1
  Nd  Nd0  1  0.25000000  0.25000000  0.25000000  1
  Nd  Nd1  1  0.75000000  0.75000000  0.25000000  1
  Nd  Nd2  1  0.75000000  0.25000000  0.75000000  1
  Nd  Nd3  1  0.25000000  0.75000000  0.75000000  1
  Eu  Eu0  1  0.50000000  0.50000000  0.00000000  1
  Eu  Eu1  1  -0.00000000  -0.00000000  0.50000000  1
  Eu  Eu2  1  -0.00000000  -0.00000000  -0.00000000  1
  Eu  Eu3  1  0.50000000  0.50000000  0.50000000  1
  Nb  Nb0  1  0.75000000  0.75000000  0.75000000  1
  Nb  Nb1  1  0.25000000  0.25000000  0.75000000  1
  Nb  Nb2  1  0.25000000  0.75000000  0.25000000  1
  Nb  Nb3  1  0.75000000  0.25000000  0.25000000  1
  O  O0  1  0.98068017  0.20016762  0.29057610  1
  O  O1  1  0.01931983  0.79983238  0.29057610  1
  O  O2  1  0.01931983  0.20016762  0.70942390  1
  O  O3  1  0.98068017  0.79983238  0.70942390  1
  O  O4  1  0.28945587  0.98032432  0.20130485  1
  O  O5  1  0.28945587  0.01967568  0.79869515  1
  O  O6  1  0.71054413  0.01967568  0.20130485  1
  O  O7  1  0.71054413  0.98032432  0.79869515  1
  O  O8  1  0.20145471  0.28957705  0.98049612  1
  O  O9  1  0.79854529  0.28957705  0.01950388  1
  O  O10  1  0.20145471  0.71042295  0.01950388  1
  O  O11  1  0.79854529  0.71042295  0.98049612  1
  O  O12  1  0.51931983  0.29983238  0.20942390  1
  O  O13  1  0.48068017  0.70016762  0.20942390  1
  O  O14  1  0.48068017  0.29983238  0.79057610  1
  O  O15  1  0.51931983  0.70016762  0.79057610  1
  O  O16  1  0.21054413  0.51967568  0.29869515  1
  O  O17  1  0.21054413  0.48032432  0.70130485  1
  O  O18  1  0.78945587  0.48032432  0.29869515  1
  O  O19  1  0.78945587  0.51967568  0.70130485  1
  O  O20  1  0.29854529  0.21042295  0.51950388  1
  O  O21  1  0.70145471  0.21042295  0.48049612  1
  O  O22  1  0.29854529  0.78957705  0.48049612  1
  O  O23  1  0.70145471  0.78957705  0.51950388  1
loop_
_geom_bond_atom_site_label_1
_geom_bond_atom_site_label_2
_geom_bond_distance
_geom_bond_site_symmetry_2
Nd0 O4 2.350201 1_545
Nd0 O16 2.350201 1_555
Nd0 O20 2.350647 1_555
Nd0 O8 2.350647 1_554
Nd0 O0 2.358286 1_455
Nd0 O12 2.358286 1_555
Nd1 O6 2.350201 1_565
Nd1 O18 2.350201 1_555
Nd1 O11 2.350647 1_554
Nd1 O23 2.350647 1_555
Nd1 O1 2.358286 1_655
Nd1 O13 2.358286 1_555
Nd2 O7 2.350201 1_545
Nd2 O19 2.350201 1_555
Nd2 O21 2.350647 1_555
Nd2 O9 2.350647 1_556
Nd2 O2 2.358286 1_655
Nd2 O14 2.358286 1_555
Nd3 O5 2.350201 1_565
Nd3 O17 2.350201 1_555
Nd3 O22 2.350647 1_555
Nd3 O10 2.350647 1_556
Nd3 O3 2.358286 1_455
Nd3 O15 2.358286 1_555
Eu0 O14 2.465519 1_554
Eu0 O13 2.465519 1_555
Eu0 O15 2.465519 1_554
Eu0 O12 2.465519 1_555
Eu1 O0 2.465519 1_455
Eu1 O3 2.465519 1_445
Eu1 O1 2.465519 1_545
Eu1 O2 2.465519 1_555
Eu2 O2 3.001175 1_554
Eu2 O1 3.001175 1_545
Eu2 O0 3.001175 1_455
Eu2 O3 3.001175 1_444
Eu2 O8 3.002306 1_554
Eu2 O10 3.002306 1_545
Eu2 O9 3.002306 1_455
Eu2 O11 3.002306 1_444
Eu2 O7 3.005444 1_444
Eu2 O6 3.005444 1_455
Eu2 O5 3.005444 1_554
Eu2 O4 3.005444 1_545
Eu3 O14 3.001175 1_555
Eu3 O15 3.001175 1_555
Eu3 O12 3.001175 1_555
Eu3 O13 3.001175 1_555
Eu3 O20 3.002306 1_555
Eu3 O22 3.002306 1_555
Eu3 O23 3.002306 1_555
Eu3 O21 3.002306 1_555
Eu3 O18 3.005444 1_555
Eu3 O19 3.005444 1_555
Eu3 O17 3.005444 1_555
Eu3 O16 3.005444 1_555
Nb0 O7 2.026313 1_555
Nb0 O19 2.026313 1_555
Nb0 O11 2.029286 1_555
Nb0 O23 2.029286 1_555
Nb0 O15 2.039474 1_555
Nb0 O3 2.039474 1_555
Nb1 O5 2.026313 1_555
Nb1 O17 2.026313 1_555
Nb1 O8 2.029286 1_555
Nb1 O20 2.029286 1_555
Nb1 O2 2.039474 1_555
Nb1 O14 2.039474 1_555
Nb2 O4 2.026313 1_555
Nb2 O16 2.026313 1_555
Nb2 O10 2.029286 1_555
Nb2 O22 2.029286 1_555
Nb2 O1 2.039474 1_555
Nb2 O13 2.039474 1_555
Nb3 O6 2.026313 1_555
Nb3 O18 2.026313 1_555
Nb3 O21 2.029286 1_555
Nb3 O9 2.029286 1_555
Nb3 O0 2.039474 1_555
Nb3 O12 2.039474 1_555
O4 Sr2 2.483817 1_565
O5 Sr2 2.483817 1_556
O6 Sr2 2.483817 1_555
O7 Sr2 2.483817 1_566
O8 Sr3 2.482455 1_556
O9 Sr3 2.482455 1_655
O10 Sr3 2.482455 1_555
O11 Sr3 2.482455 1_656
O16 Sr0 2.483817 1_555
O17 Sr0 2.483817 1_555
O18 Sr0 2.483817 1_655
O19 Sr0 2.483817 1_655
O20 Sr1 2.482455 1_555
O21 Sr1 2.482455 1_555
O22 Sr1 2.482455 1_565
O23 Sr1 2.482455 1_565
