# generated using pymatgen
data_Mg6TiCo
_symmetry_space_group_name_H-M   'P 1'
_cell_length_a   4.83963200
_cell_length_b   5.85283800
_cell_length_c   10.86743100
_cell_angle_alpha   90.00000000
_cell_angle_beta   90.00000000
_cell_angle_gamma   90.00000000
_symmetry_Int_Tables_number   1
_chemical_formula_structural   Mg6TiCo
_chemical_formula_sum   'Mg12 Ti2 Co2'
_cell_volume   307.82630874
_cell_formula_units_Z   2
loop_
 _symmetry_equiv_pos_site_id
 _symmetry_equiv_pos_as_xyz
  1  'x, y, z'
loop_
 _atom_site_type_symbol
 _atom_site_label
 _atom_site_symmetry_multiplicity
 _atom_site_fract_x
 _atom_site_fract_y
 _atom_site_fract_z
 _atom_site_occupancy
  Mg  Mg0  1  0.50000000  0.25129600  0.42296100  1
  Mg  Mg1  1  0.50000000  0.74870400  0.42296100  1
  Mg  Mg2  1  0.00000000  0.75507700  0.08581500  1
  Mg  Mg3  1  0.00000000  0.24492300  0.08581500  1
  Mg  Mg4  1  0.00000000  0.00000000  0.31442500  1
  Mg  Mg5  1  0.00000000  0.50000000  0.32587100  1
  Mg  Mg6  1  0.50000000  0.75129600  0.92296100  1
  Mg  Mg7  1  0.50000000  0.24870400  0.92296100  1
  Mg  Mg8  1  0.00000000  0.25507700  0.58581500  1
  Mg  Mg9  1  0.00000000  0.74492300  0.58581500  1
  Mg  Mg10  1  0.00000000  0.50000000  0.81442500  1
  Mg  Mg11  1  0.00000000  0.00000000  0.82587100  1
  Ti  Ti0  1  0.50000000  0.50000000  0.17348700  1
  Ti  Ti1  1  0.50000000  0.00000000  0.67348700  1
  Co  Co0  1  0.50000000  0.00000000  0.16866000  1
  Co  Co1  1  0.50000000  0.50000000  0.66866000  1
loop_
_geom_bond_atom_site_label_1
_geom_bond_atom_site_label_2
_geom_bond_distance
_geom_bond_site_symmetry_2
Mg0 Mg1 2.911248 1_555
Mg0 Mg1 2.941590 1_545
Mg0 Mg8 2.998034 1_655
Mg0 Mg8 2.998034 1_555
Mg0 Mg5 3.014569 1_655
Mg0 Mg5 3.014569 1_555
Mg0 Mg4 3.067570 1_655
Mg0 Mg4 3.067570 1_555
Mg0 Ti0 3.077195 1_555
Mg0 Ti1 3.094454 1_555
Mg1 Mg9 2.998034 1_555
Mg1 Mg9 2.998034 1_655
Mg1 Mg5 3.014569 1_655
Mg1 Mg5 3.014569 1_555
Mg1 Mg4 3.067570 1_565
Mg1 Mg4 3.067570 1_665
Mg1 Ti0 3.077195 1_555
Mg1 Ti1 3.094454 1_565
Mg2 Mg3 2.866989 1_565
Mg2 Mg4 2.868304 1_565
Mg2 Mg3 2.985849 1_555
Mg2 Mg6 2.998034 1_454
Mg2 Mg6 2.998034 1_554
Mg2 Ti0 2.998683 1_455
Mg2 Ti0 2.998683 1_555
Mg2 Mg5 3.005764 1_555
Mg3 Mg4 2.868304 1_555
Mg3 Mg7 2.998034 1_554
Mg3 Mg7 2.998034 1_454
Mg3 Ti0 2.998683 1_455
Mg3 Ti0 2.998683 1_555
Mg3 Mg5 3.005764 1_555
Mg4 Mg5 2.929061 1_545
Mg4 Mg5 2.929061 1_555
Mg4 Mg8 3.305641 1_555
Mg4 Mg9 3.305641 1_545
Mg5 Ti0 2.932221 1_455
Mg5 Ti0 2.932221 1_555
Mg5 Mg9 3.167823 1_555
Mg5 Mg8 3.167823 1_555
Mg6 Mg7 2.911248 1_565
Mg6 Mg7 2.941590 1_555
Mg6 Ti1 3.077195 1_565
Mg6 Ti0 3.094454 1_556
Mg7 Ti1 3.077195 1_555
Mg7 Ti0 3.094454 1_556
Mg8 Mg9 2.866989 1_555
Mg8 Mg9 2.985849 1_545
Mg8 Ti1 2.998683 1_455
Mg8 Ti1 2.998683 1_555
Mg9 Ti1 2.998683 1_465
Mg9 Ti1 2.998683 1_565
Mg10 Mg9 2.868304 1_555
Mg10 Mg8 2.868304 1_555
Mg10 Mg11 2.929061 1_565
Mg10 Mg11 2.929061 1_555
Mg10 Mg6 3.067570 1_455
Mg10 Mg6 3.067570 1_555
Mg10 Mg7 3.067570 1_455
Mg10 Mg7 3.067570 1_555
Mg10 Mg2 3.305641 1_556
Mg10 Mg3 3.305641 1_556
Mg11 Ti1 2.932221 1_455
Mg11 Ti1 2.932221 1_555
Mg11 Mg8 3.005764 1_555
Mg11 Mg9 3.005764 1_545
Mg11 Mg7 3.014569 1_455
Mg11 Mg7 3.014569 1_555
Mg11 Mg6 3.014569 1_545
Mg11 Mg6 3.014569 1_445
Mg11 Mg3 3.167823 1_556
Mg11 Mg2 3.167823 1_546
Co0 Mg4 2.892206 1_655
Co0 Mg4 2.892206 1_555
Co0 Ti0 2.926889 1_545
Co0 Ti0 2.926889 1_555
Co0 Mg3 2.953130 1_555
Co0 Mg3 2.953130 1_655
Co0 Mg2 2.953130 1_645
Co0 Mg2 2.953130 1_545
Co0 Mg7 3.041113 1_554
Co0 Mg6 3.041113 1_544
Co0 Mg0 3.130609 1_555
Co0 Mg1 3.130609 1_545
Co1 Mg10 2.892206 1_655
Co1 Mg10 2.892206 1_555
Co1 Ti1 2.926889 1_555
Co1 Ti1 2.926889 1_565
Co1 Mg9 2.953130 1_655
Co1 Mg8 2.953130 1_555
Co1 Mg8 2.953130 1_655
Co1 Mg9 2.953130 1_555
Co1 Mg1 3.041113 1_555
Co1 Mg0 3.041113 1_555
Co1 Mg6 3.130609 1_555
Co1 Mg7 3.130609 1_555
