# generated using pymatgen
data_FeBO3
_symmetry_space_group_name_H-M   'P 1'
_cell_length_a   3.14936650
_cell_length_b   10.36410700
_cell_length_c   12.42698298
_cell_angle_alpha   90.00000000
_cell_angle_beta   97.54344784
_cell_angle_gamma   90.00000000
_symmetry_Int_Tables_number   1
_chemical_formula_structural   FeBO3
_chemical_formula_sum   'Fe8 B8 O24'
_cell_volume   402.11092897
_cell_formula_units_Z   8
loop_
 _symmetry_equiv_pos_site_id
 _symmetry_equiv_pos_as_xyz
  1  'x, y, z'
loop_
 _atom_site_type_symbol
 _atom_site_label
 _atom_site_symmetry_multiplicity
 _atom_site_fract_x
 _atom_site_fract_y
 _atom_site_fract_z
 _atom_site_occupancy
  Fe  Fe0  1  0.75227900  0.64312400  0.99717200  1
  Fe  Fe1  1  0.24772100  0.14312400  0.50282800  1
  Fe  Fe2  1  0.24772100  0.35687600  0.00282800  1
  Fe  Fe3  1  0.75227900  0.85687600  0.49717200  1
  Fe  Fe4  1  0.28989000  0.90839900  0.09730500  1
  Fe  Fe5  1  0.71011000  0.40839900  0.40269500  1
  Fe  Fe6  1  0.71011000  0.09160100  0.90269500  1
  Fe  Fe7  1  0.28989000  0.59160100  0.59730500  1
  B  B0  1  0.22012200  0.66736100  0.36226200  1
  B  B1  1  0.77987800  0.16736100  0.13773800  1
  B  B2  1  0.77987800  0.33263900  0.63773800  1
  B  B3  1  0.22012200  0.83263900  0.86226200  1
  B  B4  1  0.37942200  0.54665000  0.20125000  1
  B  B5  1  0.62057800  0.04665000  0.29875000  1
  B  B6  1  0.62057800  0.45335000  0.79875000  1
  B  B7  1  0.37942200  0.95335000  0.70125000  1
  O  O0  1  0.21349000  0.55760600  0.42634300  1
  O  O1  1  0.78651000  0.05760600  0.07365700  1
  O  O2  1  0.78651000  0.44239400  0.57365700  1
  O  O3  1  0.21349000  0.94239400  0.92634300  1
  O  O4  1  0.19947800  0.78896200  0.40968800  1
  O  O5  1  0.80052200  0.28896200  0.09031200  1
  O  O6  1  0.80052200  0.21103800  0.59031200  1
  O  O7  1  0.19947800  0.71103800  0.90968800  1
  O  O8  1  0.25954500  0.65799200  0.25355800  1
  O  O9  1  0.74045500  0.15799200  0.24644200  1
  O  O10  1  0.74045500  0.34200800  0.74644200  1
  O  O11  1  0.25954500  0.84200800  0.75355800  1
  O  O12  1  0.39875400  0.95100200  0.24730000  1
  O  O13  1  0.60124600  0.45100200  0.25270000  1
  O  O14  1  0.60124600  0.04899800  0.75270000  1
  O  O15  1  0.39875400  0.54899800  0.74730000  1
  O  O16  1  0.28732300  0.54557800  0.08462700  1
  O  O17  1  0.71267700  0.04557800  0.41537300  1
  O  O18  1  0.71267700  0.45442200  0.91537300  1
  O  O19  1  0.28732300  0.95442200  0.58462700  1
  O  O20  1  0.78184600  0.79577100  0.08276500  1
  O  O21  1  0.21815400  0.29577100  0.41723500  1
  O  O22  1  0.21815400  0.20422900  0.91723500  1
  O  O23  1  0.78184600  0.70422900  0.58276500  1
loop_
_geom_bond_atom_site_label_1
_geom_bond_atom_site_label_2
_geom_bond_distance
_geom_bond_site_symmetry_2
Fe0 O20 1.901822 1_556
Fe0 O7 2.015673 1_655
Fe0 O7 2.052168 1_555
Fe0 O16 2.135833 1_656
Fe0 O16 2.182951 1_556
Fe0 O18 2.200100 1_555
Fe1 O21 1.901822 1_555
Fe1 O6 2.015673 1_455
Fe1 O6 2.052168 1_555
Fe1 O17 2.135833 1_455
Fe1 O17 2.182951 1_555
Fe1 O19 2.200100 1_545
Fe2 O22 1.901822 1_554
Fe2 O5 2.015673 1_455
Fe2 O5 2.052168 1_555
Fe2 O18 2.135833 1_454
Fe2 O18 2.182951 1_554
Fe2 O16 2.200100 1_555
Fe3 O23 1.901822 1_555
Fe3 O4 2.015673 1_655
Fe3 O4 2.052168 1_555
Fe3 O19 2.135833 1_655
Fe3 O19 2.182951 1_555
Fe3 O17 2.200100 1_565
Fe4 O12 1.902408 1_555
Fe4 O20 1.967028 1_555
Fe4 O20 1.969609 1_455
Fe4 O3 2.135765 1_554
Fe4 O1 2.206502 1_465
Fe4 O1 2.246019 1_565
Fe5 O13 1.902408 1_555
Fe5 O21 1.967028 1_555
Fe5 O21 1.969609 1_655
Fe5 O2 2.135765 1_555
Fe5 O0 2.206502 1_655
Fe5 O0 2.246019 1_555
Fe6 O14 1.902408 1_555
Fe6 O22 1.967028 1_555
Fe6 O22 1.969609 1_655
Fe6 O1 2.135765 1_556
Fe6 O3 2.206502 1_645
Fe6 O3 2.246019 1_545
Fe7 O15 1.902408 1_555
Fe7 O23 1.967028 1_555
Fe7 O23 1.969609 1_455
Fe7 O0 2.135765 1_555
Fe7 O2 2.206502 1_455
Fe7 O2 2.246019 1_555
B0 O8 1.376121 1_555
B0 O0 1.390282 1_555
B0 O4 1.396408 1_555
B1 O9 1.376121 1_555
B1 O1 1.390282 1_555
B1 O5 1.396408 1_555
B2 O10 1.376121 1_555
B2 O2 1.390282 1_555
B2 O6 1.396408 1_555
B3 O11 1.376121 1_555
B3 O3 1.390282 1_555
B3 O7 1.396408 1_555
B4 O13 1.327499 1_555
B4 O8 1.400404 1_555
B4 O16 1.440234 1_555
B5 O12 1.327499 1_545
B5 O9 1.400404 1_555
B5 O17 1.440234 1_555
B6 O15 1.327499 1_555
B6 O10 1.400404 1_555
B6 O18 1.440234 1_555
B7 O14 1.327499 1_565
B7 O11 1.400404 1_555
B7 O19 1.440234 1_555
