# generated using pymatgen
data_HfTe3O8
_symmetry_space_group_name_H-M   'P 1'
_cell_length_a   9.77740069
_cell_length_b   9.77777730
_cell_length_c   9.77819620
_cell_angle_alpha   109.47270162
_cell_angle_beta   109.47142615
_cell_angle_gamma   109.47107193
_symmetry_Int_Tables_number   1
_chemical_formula_structural   HfTe3O8
_chemical_formula_sum   'Hf4 Te12 O32'
_cell_volume   719.60168011
_cell_formula_units_Z   4
loop_
 _symmetry_equiv_pos_site_id
 _symmetry_equiv_pos_as_xyz
  1  'x, y, z'
loop_
 _atom_site_type_symbol
 _atom_site_label
 _atom_site_symmetry_multiplicity
 _atom_site_fract_x
 _atom_site_fract_y
 _atom_site_fract_z
 _atom_site_occupancy
  Hf  Hf0  1  0.00001734  0.50000496  -0.00001609  1
  Hf  Hf1  1  0.50004523  0.50004657  0.50003773  1
  Hf  Hf2  1  0.00003193  0.00003125  0.50004168  1
  Hf  Hf3  1  0.50002405  -0.00002485  0.00000432  1
  Te  Te0  1  0.95517420  0.74993902  0.70505879  1
  Te  Te1  1  0.24973257  0.79469350  0.54482461  1
  Te  Te2  1  0.70486582  0.95517637  0.74983106  1
  Te  Te3  1  0.75018931  0.70544189  0.95500321  1
  Te  Te4  1  0.79468003  0.54484812  0.24969007  1
  Te  Te5  1  0.54491004  0.25016385  0.79505747  1
  Te  Te6  1  0.04483176  0.25003383  0.29497100  1
  Te  Te7  1  0.74979637  0.20499545  0.45507192  1
  Te  Te8  1  0.29514801  0.04484603  0.25015685  1
  Te  Te9  1  0.24984221  0.29463477  0.04503185  1
  Te  Te10  1  0.20502142  0.45511788  0.74984472  1
  Te  Te11  1  0.45496805  0.74949644  0.20476930  1
  O  O0  1  0.66424605  0.49999509  0.00007133  1
  O  O1  1  0.83580297  0.83572314  0.83581464  1
  O  O2  1  0.00009280  0.66428134  0.50005224  1
  O  O3  1  0.50007682  0.00002105  0.66424252  1
  O  O4  1  0.33582365  0.50010433  0.00008063  1
  O  O5  1  0.16421784  0.16423882  0.16419022  1
  O  O6  1  0.00004224  0.33582065  0.50003251  1
  O  O7  1  0.50002021  0.00009413  0.33581115  1
  O  O8  1  0.16374858  0.23861199  0.70187968  1
  O  O9  1  0.03664642  0.46183940  0.79808908  1
  O  O10  1  0.33631174  0.03813175  0.07487594  1
  O  O11  1  0.79814218  0.03669387  0.46188091  1
  O  O12  1  0.23858542  0.70188784  0.16371332  1
  O  O13  1  0.26147107  0.42515079  0.46332787  1
  O  O14  1  0.42514213  0.46330014  0.26146283  1
  O  O15  1  0.46186451  0.79813874  0.03670310  1
  O  O16  1  0.53669493  0.73851597  0.57478590  1
  O  O17  1  0.29816486  0.83626968  0.76149456  1
  O  O18  1  0.96187809  0.92516270  0.66373012  1
  O  O19  1  0.92521060  0.66372503  0.96188489  1
  O  O20  1  0.53818415  0.20189243  0.96339978  1
  O  O21  1  0.57492216  0.53672029  0.73860752  1
  O  O22  1  0.73860084  0.57486374  0.53668395  1
  O  O23  1  0.76146319  0.29821082  0.83635219  1
  O  O24  1  0.20184722  0.96326846  0.53813199  1
  O  O25  1  0.66372102  0.96187478  0.92511242  1
  O  O26  1  0.96333631  0.53822535  0.20187888  1
  O  O27  1  0.83629168  0.76150157  0.29809503  1
  O  O28  1  0.46336349  0.26153481  0.42521353  1
  O  O29  1  0.70186285  0.16367085  0.23857675  1
  O  O30  1  0.03815135  0.07479663  0.33628585  1
  O  O31  1  0.07479426  0.33628873  0.03816017  1
loop_
_geom_bond_atom_site_label_1
_geom_bond_atom_site_label_2
_geom_bond_distance
_geom_bond_site_symmetry_2
Hf0 O23 2.057323 1_454
Hf0 O19 2.057400 1_454
Hf0 O31 2.057446 1_555
Hf0 O9 2.057701 1_554
Hf0 O12 2.057755 1_555
Hf0 O26 2.057941 1_455
Hf1 O16 2.057079 1_555
Hf1 O28 2.057315 1_555
Hf1 O13 2.057678 1_555
Hf1 O14 2.057743 1_555
Hf1 O22 2.057767 1_555
Hf1 O21 2.057945 1_555
Hf2 O24 2.057601 1_545
Hf2 O30 2.057656 1_555
Hf2 O18 2.057693 1_445
Hf2 O11 2.057699 1_455
Hf2 O8 2.057722 1_555
Hf2 O27 2.057806 1_445
Hf3 O17 2.057411 1_544
Hf3 O15 2.057491 1_545
Hf3 O25 2.057612 1_544
Hf3 O29 2.057679 1_555
Hf3 O20 2.057736 1_554
Hf3 O10 2.057822 1_555
O0 Te4 2.148157 1_555
O0 Te5 2.150099 1_554
O0 Te3 2.155782 1_554
O1 Te3 2.147330 1_555
O1 Te0 2.152431 1_555
O1 Te2 2.155002 1_555
O2 Te1 2.148438 1_555
O2 Te0 2.150709 1_455
O2 Te4 2.154778 1_455
O3 Te2 2.148185 1_545
O3 Te5 2.153149 1_555
O3 Te1 2.154281 1_545
O4 Te11 2.146422 1_555
O4 Te10 2.153452 1_554
O4 Te9 2.155293 1_555
O5 Te9 2.147835 1_555
O5 Te6 2.152754 1_555
O5 Te8 2.154382 1_555
O6 Te10 2.149927 1_555
O6 Te6 2.150548 1_555
O6 Te7 2.153503 1_455
O7 Te8 2.148403 1_555
O7 Te7 2.149374 1_555
O7 Te11 2.156547 1_545
O8 Te10 1.872599 1_555
O9 Te10 1.872505 1_555
O10 Te8 1.872520 1_555
O11 Te7 1.872584 1_555
O12 Te11 1.872561 1_555
O13 Te6 1.872605 1_555
O14 Te9 1.872607 1_555
O15 Te11 1.872185 1_555
O16 Te2 1.872211 1_555
O17 Te1 1.872627 1_555
O18 Te0 1.872808 1_555
O19 Te3 1.872477 1_555
O20 Te5 1.872473 1_555
O21 Te3 1.872455 1_555
O22 Te0 1.872196 1_555
O23 Te5 1.872764 1_555
O24 Te1 1.872514 1_555
O25 Te2 1.872457 1_555
O26 Te4 1.872695 1_555
O27 Te4 1.872346 1_555
O28 Te8 1.872472 1_555
O29 Te7 1.872525 1_555
O30 Te6 1.872911 1_555
O31 Te9 1.872421 1_555
