# generated using pymatgen
data_LiSc(GeO3)2
_symmetry_space_group_name_H-M   'P 1'
_cell_length_a   9.22124100
_cell_length_b   5.53131600
_cell_length_c   9.83326268
_cell_angle_alpha   77.18991108
_cell_angle_beta   90.00000000
_cell_angle_gamma   90.00000000
_symmetry_Int_Tables_number   1
_chemical_formula_structural   LiSc(GeO3)2
_chemical_formula_sum   'Li4 Sc4 Ge8 O24'
_cell_volume   489.06799139
_cell_formula_units_Z   4
loop_
 _symmetry_equiv_pos_site_id
 _symmetry_equiv_pos_as_xyz
  1  'x, y, z'
loop_
 _atom_site_type_symbol
 _atom_site_label
 _atom_site_symmetry_multiplicity
 _atom_site_fract_x
 _atom_site_fract_y
 _atom_site_fract_z
 _atom_site_occupancy
  Li  Li0  1  0.49131100  0.46742600  0.25473500  1
  Li  Li1  1  0.99131100  0.03257400  0.74526500  1
  Li  Li2  1  0.50868900  0.53257400  0.74526500  1
  Li  Li3  1  0.00868900  0.96742600  0.25473500  1
  Sc  Sc0  1  0.14652900  0.53087400  0.74906800  1
  Sc  Sc1  1  0.64652900  0.96912600  0.25093200  1
  Sc  Sc2  1  0.85347100  0.46912600  0.25093200  1
  Sc  Sc3  1  0.35347100  0.03087400  0.74906800  1
  Ge  Ge0  1  0.33897300  0.24510600  0.04930100  1
  Ge  Ge1  1  0.83897300  0.25489400  0.95069900  1
  Ge  Ge2  1  0.66102700  0.75489400  0.95069900  1
  Ge  Ge3  1  0.16102700  0.74510600  0.04930100  1
  Ge  Ge4  1  0.33689900  0.81001400  0.44658900  1
  Ge  Ge5  1  0.83689900  0.68998600  0.55341100  1
  Ge  Ge6  1  0.66310100  0.18998600  0.55341100  1
  Ge  Ge7  1  0.16310100  0.31001400  0.44658900  1
  O  O0  1  0.51174600  0.19042400  0.11920600  1
  O  O1  1  0.01174600  0.30957600  0.88079400  1
  O  O2  1  0.48825400  0.80957600  0.88079400  1
  O  O3  1  0.98825400  0.69042400  0.11920600  1
  O  O4  1  0.32938500  0.31181400  0.86446400  1
  O  O5  1  0.82938500  0.18818600  0.13553600  1
  O  O6  1  0.67061500  0.68818600  0.13553600  1
  O  O7  1  0.17061500  0.81181400  0.86446400  1
  O  O8  1  0.21494500  0.00203800  0.12005700  1
  O  O9  1  0.71494500  0.49796200  0.87994300  1
  O  O10  1  0.78505500  0.99796200  0.87994300  1
  O  O11  1  0.28505500  0.50203800  0.12005700  1
  O  O12  1  0.49535000  0.74278500  0.36687400  1
  O  O13  1  0.99535000  0.75721500  0.63312600  1
  O  O14  1  0.50465000  0.25721500  0.63312600  1
  O  O15  1  0.00465000  0.24278500  0.36687400  1
  O  O16  1  0.33174800  0.74769800  0.63251300  1
  O  O17  1  0.83174800  0.75230200  0.36748700  1
  O  O18  1  0.66825200  0.25230200  0.36748700  1
  O  O19  1  0.16825200  0.24769800  0.63251300  1
  O  O20  1  0.30803200  0.13861100  0.39050800  1
  O  O21  1  0.80803200  0.36138900  0.60949200  1
  O  O22  1  0.69196800  0.86138900  0.60949200  1
  O  O23  1  0.19196800  0.63861100  0.39050800  1
loop_
_geom_bond_atom_site_label_1
_geom_bond_atom_site_label_2
_geom_bond_distance
_geom_bond_site_symmetry_2
Li0 O12 2.069277 1_555
Li0 O18 2.173088 1_555
Li0 O6 2.228002 1_555
Li0 O0 2.250477 1_555
Li0 O11 2.301178 1_555
Li0 O20 2.621059 1_555
Li1 O13 2.069277 1_545
Li1 O19 2.173088 1_655
Li1 O7 2.228002 1_645
Li1 O1 2.250477 1_655
Li1 O10 2.301178 1_545
Li1 O21 2.621059 1_555
Li2 O14 2.069277 1_555
Li2 O16 2.173088 1_555
Li2 O4 2.228002 1_555
Li2 O2 2.250477 1_555
Li2 O9 2.301178 1_555
Li2 O22 2.621059 1_555
Li3 O15 2.069277 1_565
Li3 O17 2.173088 1_455
Li3 O5 2.228002 1_465
Li3 O3 2.250477 1_455
Li3 O8 2.301178 1_565
Li3 O23 2.621059 1_555
Ge0 O0 1.734943 1_555
Ge0 O4 1.774842 1_554
Ge0 O8 1.784642 1_555
Ge0 O11 1.785914 1_555
Ge1 O1 1.734943 1_655
Ge1 O5 1.774842 1_556
Ge1 O9 1.784642 1_555
Ge1 O10 1.785914 1_545
Ge2 O2 1.734943 1_555
Ge2 O6 1.774842 1_556
Ge2 O10 1.784642 1_555
Ge2 O9 1.785914 1_555
Ge3 O3 1.734943 1_455
Ge3 O7 1.774842 1_554
Ge3 O11 1.784642 1_555
Ge3 O8 1.785914 1_565
Ge4 O12 1.736903 1_555
Ge4 O16 1.784400 1_555
Ge4 O23 1.794686 1_555
Ge4 O20 1.798352 1_565
Ge5 O13 1.736903 1_555
Ge5 O17 1.784400 1_555
Ge5 O22 1.794686 1_555
Ge5 O21 1.798352 1_555
Ge6 O14 1.736903 1_555
Ge6 O18 1.784400 1_555
Ge6 O21 1.794686 1_555
Ge6 O22 1.798352 1_545
Ge7 O15 1.736903 1_555
Ge7 O19 1.784400 1_555
Ge7 O20 1.794686 1_555
Ge7 O23 1.798352 1_555
O0 Sc1 2.004437 1_545
O1 Sc0 2.004437 1_555
O2 Sc3 2.004437 1_565
O3 Sc2 2.004437 1_555
O4 Sc3 2.129239 1_555
O4 Sc0 2.233655 1_555
O5 Sc2 2.129239 1_555
O5 Sc1 2.233655 1_545
O6 Sc1 2.129239 1_555
O6 Sc2 2.233655 1_555
O7 Sc0 2.129239 1_555
O7 Sc3 2.233655 1_565
O12 Sc1 2.043934 1_555
O13 Sc0 2.043934 1_655
O14 Sc3 2.043934 1_555
O15 Sc2 2.043934 1_455
O16 Sc3 2.145502 1_565
O16 Sc0 2.249335 1_555
O17 Sc2 2.145502 1_555
O17 Sc1 2.249335 1_555
O18 Sc1 2.145502 1_545
O18 Sc2 2.249335 1_555
O19 Sc0 2.145502 1_555
O19 Sc3 2.249335 1_555
