# generated using pymatgen
data_ZnCd3Se4
_symmetry_space_group_name_H-M   'P 1'
_cell_length_a   6.02225606
_cell_length_b   6.02225606
_cell_length_c   6.02225606
_cell_angle_alpha   90.00000000
_cell_angle_beta   90.00000000
_cell_angle_gamma   90.00000000
_symmetry_Int_Tables_number   1
_chemical_formula_structural   ZnCd3Se4
_chemical_formula_sum   'Zn1 Cd3 Se4'
_cell_volume   218.41258148
_cell_formula_units_Z   1
loop_
 _symmetry_equiv_pos_site_id
 _symmetry_equiv_pos_as_xyz
  1  'x, y, z'
loop_
 _atom_site_type_symbol
 _atom_site_label
 _atom_site_symmetry_multiplicity
 _atom_site_fract_x
 _atom_site_fract_y
 _atom_site_fract_z
 _atom_site_occupancy
  Zn  Zn0  1  -0.00000000  0.00000000  -0.00000000  1
  Cd  Cd0  1  0.00000000  0.50000000  0.50000000  1
  Cd  Cd1  1  0.50000000  0.50000000  -0.00000000  1
  Cd  Cd2  1  0.50000000  0.00000000  0.50000000  1
  Se  Se0  1  0.76239490  0.76239490  0.23760510  1
  Se  Se1  1  0.76239490  0.23760510  0.76239490  1
  Se  Se2  1  0.23760510  0.76239490  0.76239490  1
  Se  Se3  1  0.23760510  0.23760510  0.23760510  1
loop_
_geom_bond_atom_site_label_1
_geom_bond_atom_site_label_2
_geom_bond_distance
_geom_bond_site_symmetry_2
Cd0 Se2 2.653611 1_555
Cd0 Se3 2.653611 1_555
Cd0 Se0 2.653611 1_455
Cd0 Se1 2.653611 1_455
Cd1 Se0 2.653611 1_555
Cd1 Se1 2.653611 1_554
Cd1 Se2 2.653611 1_554
Cd1 Se3 2.653611 1_555
Cd2 Se1 2.653611 1_555
Cd2 Se2 2.653611 1_545
Cd2 Se0 2.653611 1_545
Cd2 Se3 2.653611 1_555
Se0 Zn0 2.478424 1_665
Se1 Zn0 2.478424 1_656
Se2 Zn0 2.478424 1_566
Se3 Zn0 2.478424 1_555
