# generated using pymatgen
data_Cs3K
_symmetry_space_group_name_H-M   'P 1'
_cell_length_a   10.78645226
_cell_length_b   10.78645724
_cell_length_c   8.70592955
_cell_angle_alpha   90.00000000
_cell_angle_beta   90.00000000
_cell_angle_gamma   120.00001858
_symmetry_Int_Tables_number   1
_chemical_formula_structural   Cs3K
_chemical_formula_sum   'Cs6 K2'
_cell_volume   877.20914509
_cell_formula_units_Z   2
loop_
 _symmetry_equiv_pos_site_id
 _symmetry_equiv_pos_as_xyz
  1  'x, y, z'
loop_
 _atom_site_type_symbol
 _atom_site_label
 _atom_site_symmetry_multiplicity
 _atom_site_fract_x
 _atom_site_fract_y
 _atom_site_fract_z
 _atom_site_occupancy
  Cs  Cs0  1  0.83045543  0.16954457  0.75000000  1
  Cs  Cs1  1  0.33909015  0.16954457  0.75000000  1
  Cs  Cs2  1  0.83045543  0.66090985  0.75000000  1
  Cs  Cs3  1  0.16954457  0.83045543  0.25000000  1
  Cs  Cs4  1  0.66090985  0.83045543  0.25000000  1
  Cs  Cs5  1  0.16954457  0.33909015  0.25000000  1
  K  K0  1  0.66666700  0.33333300  0.25000000  1
  K  K1  1  0.33333300  0.66666700  0.75000000  1
loop_
_geom_bond_atom_site_label_1
_geom_bond_atom_site_label_2
_geom_bond_distance
_geom_bond_site_symmetry_2
Cs0 Cs1 5.300088 1_555
Cs0 Cs2 5.300091 1_555
Cs0 Cs5 5.383461 1_655
Cs0 Cs5 5.383461 1_656
Cs0 Cs4 5.383462 1_546
Cs0 Cs4 5.383462 1_545
Cs0 Cs1 5.486364 1_655
Cs0 Cs2 5.486367 1_545
Cs1 Cs2 5.300088 1_555
Cs1 Cs3 5.383462 1_545
Cs1 Cs3 5.383462 1_546
Cs1 Cs5 5.383473 1_555
Cs1 Cs5 5.383473 1_556
Cs1 Cs2 5.486364 1_445
Cs2 Cs3 5.383461 1_655
Cs2 Cs3 5.383461 1_656
Cs2 Cs4 5.383473 1_555
Cs2 Cs4 5.383473 1_556
Cs3 Cs4 5.300088 1_555
Cs3 Cs5 5.300091 1_555
Cs3 Cs4 5.486364 1_455
Cs3 Cs5 5.486367 1_565
Cs4 Cs5 5.300088 1_555
Cs4 Cs5 5.486364 1_665
