# generated using pymatgen
data_Mg14CdSnO16
_symmetry_space_group_name_H-M   'P 1'
_cell_length_a   8.73623254
_cell_length_b   8.73623254
_cell_length_c   4.40644096
_cell_angle_alpha   90.00000000
_cell_angle_beta   90.00000000
_cell_angle_gamma   90.00000000
_symmetry_Int_Tables_number   1
_chemical_formula_structural   Mg14CdSnO16
_chemical_formula_sum   'Mg14 Cd1 Sn1 O16'
_cell_volume   336.30732497
_cell_formula_units_Z   1
loop_
 _symmetry_equiv_pos_site_id
 _symmetry_equiv_pos_as_xyz
  1  'x, y, z'
loop_
 _atom_site_type_symbol
 _atom_site_label
 _atom_site_symmetry_multiplicity
 _atom_site_fract_x
 _atom_site_fract_y
 _atom_site_fract_z
 _atom_site_occupancy
  Mg  Mg0  1  0.00000000  0.50000000  0.00000000  1
  Mg  Mg1  1  0.50000000  -0.00000000  0.00000000  1
  Mg  Mg2  1  0.00000000  0.25854391  0.50000000  1
  Mg  Mg3  1  -0.00000000  0.74145609  0.50000000  1
  Mg  Mg4  1  0.50000000  0.24603256  0.50000000  1
  Mg  Mg5  1  0.50000000  0.75396744  0.50000000  1
  Mg  Mg6  1  0.25854391  -0.00000000  0.50000000  1
  Mg  Mg7  1  0.24603256  0.50000000  0.50000000  1
  Mg  Mg8  1  0.74145609  -0.00000000  0.50000000  1
  Mg  Mg9  1  0.75396744  0.50000000  0.50000000  1
  Mg  Mg10  1  0.25203504  0.25203504  0.00000000  1
  Mg  Mg11  1  0.25203504  0.74796496  0.00000000  1
  Mg  Mg12  1  0.74796496  0.25203504  -0.00000000  1
  Mg  Mg13  1  0.74796496  0.74796496  -0.00000000  1
  Cd  Cd0  1  0.50000000  0.50000000  0.00000000  1
  Sn  Sn0  1  0.00000000  -0.00000000  0.00000000  1
  O  O0  1  0.26968706  -0.00000000  0.00000000  1
  O  O1  1  0.23789621  0.50000000  -0.00000000  1
  O  O2  1  0.73031294  -0.00000000  -0.00000000  1
  O  O3  1  0.76210379  0.50000000  0.00000000  1
  O  O4  1  0.25020938  0.25020938  0.50000000  1
  O  O5  1  0.25020938  0.74979062  0.50000000  1
  O  O6  1  0.74979062  0.25020938  0.50000000  1
  O  O7  1  0.74979062  0.74979062  0.50000000  1
  O  O8  1  0.00000000  -0.00000000  0.50000000  1
  O  O9  1  0.00000000  0.50000000  0.50000000  1
  O  O10  1  0.50000000  -0.00000000  0.50000000  1
  O  O11  1  0.50000000  0.50000000  0.50000000  1
  O  O12  1  0.00000000  0.26968706  -0.00000000  1
  O  O13  1  0.00000000  0.73031294  0.00000000  1
  O  O14  1  0.50000000  0.23789621  0.00000000  1
  O  O15  1  0.50000000  0.76210379  0.00000000  1
loop_
_geom_bond_atom_site_label_1
_geom_bond_atom_site_label_2
_geom_bond_distance
_geom_bond_site_symmetry_2
Mg0 O12 2.012067 1_555
Mg0 O13 2.012067 1_555
Mg0 O3 2.078317 1_455
Mg0 O1 2.078317 1_555
Mg0 O9 2.203220 1_554
Mg0 O9 2.203220 1_555
Mg1 O0 2.012067 1_555
Mg1 O2 2.012067 1_555
Mg1 O15 2.078317 1_545
Mg1 O14 2.078317 1_555
Mg1 O10 2.203220 1_555
Mg1 O10 2.203220 1_554
Mg2 O9 2.109417 1_555
Mg2 O4 2.187100 1_555
Mg2 O6 2.187100 1_455
Mg2 O12 2.205370 1_556
Mg2 O12 2.205370 1_555
Mg2 O8 2.258700 1_555
Mg3 O9 2.109417 1_555
Mg3 O5 2.187100 1_555
Mg3 O7 2.187100 1_455
Mg3 O13 2.205370 1_555
Mg3 O13 2.205370 1_556
Mg3 O8 2.258700 1_565
Mg4 O10 2.149398 1_555
Mg4 O6 2.182534 1_555
Mg4 O4 2.182534 1_555
Mg4 O14 2.204367 1_556
Mg4 O14 2.204367 1_555
Mg4 O11 2.218719 1_555
Mg5 O10 2.149398 1_565
Mg5 O7 2.182534 1_555
Mg5 O5 2.182534 1_555
Mg5 O15 2.204367 1_556
Mg5 O15 2.204367 1_555
Mg5 O11 2.218719 1_555
Mg6 O10 2.109417 1_555
Mg6 O4 2.187100 1_555
Mg6 O5 2.187100 1_545
Mg6 O0 2.205370 1_555
Mg6 O0 2.205370 1_556
Mg6 O8 2.258700 1_555
Mg7 O9 2.149398 1_555
Mg7 O5 2.182534 1_555
Mg7 O4 2.182534 1_555
Mg7 O1 2.204367 1_556
Mg7 O1 2.204367 1_555
Mg7 O11 2.218719 1_555
Mg8 O10 2.109417 1_555
Mg8 O6 2.187100 1_555
Mg8 O7 2.187100 1_545
Mg8 O2 2.205370 1_556
Mg8 O2 2.205370 1_555
Mg8 O8 2.258700 1_655
Mg9 O9 2.149398 1_655
Mg9 O7 2.182534 1_555
Mg9 O6 2.182534 1_555
Mg9 O3 2.204367 1_556
Mg9 O3 2.204367 1_555
Mg9 O11 2.218719 1_555
Mg10 O1 2.169798 1_555
Mg10 O14 2.169798 1_555
Mg10 O4 2.203336 1_554
Mg10 O4 2.203336 1_555
Mg10 O0 2.207230 1_555
Mg10 O12 2.207230 1_555
Mg11 O1 2.169798 1_555
Mg11 O15 2.169798 1_555
Mg11 O5 2.203336 1_554
Mg11 O5 2.203336 1_555
Mg11 O13 2.207230 1_555
Mg11 O0 2.207230 1_565
Mg12 O14 2.169798 1_555
Mg12 O3 2.169798 1_555
Mg12 O6 2.203336 1_555
Mg12 O6 2.203336 1_554
Mg12 O2 2.207230 1_555
Mg12 O12 2.207230 1_655
Mg13 O15 2.169798 1_555
Mg13 O3 2.169798 1_555
Mg13 O7 2.203336 1_554
Mg13 O7 2.203336 1_555
Mg13 O13 2.207230 1_655
Mg13 O2 2.207230 1_565
Cd0 O11 2.203220 1_555
Cd0 O11 2.203220 1_554
Cd0 O1 2.289800 1_555
Cd0 O14 2.289800 1_555
Cd0 O3 2.289800 1_555
Cd0 O15 2.289800 1_555
O0 Sn0 2.356049 1_555
O2 Sn0 2.356049 1_655
O8 Sn0 2.203220 1_556
O8 Sn0 2.203220 1_555
O12 Sn0 2.356049 1_555
O13 Sn0 2.356049 1_565
