# generated using pymatgen
data_NaAlBr4
_symmetry_space_group_name_H-M   'P 1'
_cell_length_a   7.52428271
_cell_length_b   7.52194040
_cell_length_c   13.80994839
_cell_angle_alpha   90.00000000
_cell_angle_beta   90.00000000
_cell_angle_gamma   90.00000000
_symmetry_Int_Tables_number   1
_chemical_formula_structural   NaAlBr4
_chemical_formula_sum   'Na4 Al4 Br16'
_cell_volume   781.60449522
_cell_formula_units_Z   4
loop_
 _symmetry_equiv_pos_site_id
 _symmetry_equiv_pos_as_xyz
  1  'x, y, z'
loop_
 _atom_site_type_symbol
 _atom_site_label
 _atom_site_symmetry_multiplicity
 _atom_site_fract_x
 _atom_site_fract_y
 _atom_site_fract_z
 _atom_site_occupancy
  Na  Na0  1  0.54784202  0.75000000  0.84578124  1
  Na  Na1  1  0.45215798  0.25000000  0.15421876  1
  Na  Na2  1  0.04784202  0.25000000  0.65421876  1
  Na  Na3  1  0.95215798  0.75000000  0.34578124  1
  Al  Al0  1  0.79948279  0.75000000  0.60062708  1
  Al  Al1  1  0.20051721  0.25000000  0.39937292  1
  Al  Al2  1  0.29948279  0.25000000  0.89937292  1
  Al  Al3  1  0.70051721  0.75000000  0.10062708  1
  Br  Br0  1  0.09393428  0.75000000  0.55350862  1
  Br  Br1  1  0.90606572  0.25000000  0.44649138  1
  Br  Br2  1  0.59393428  0.25000000  0.94649138  1
  Br  Br3  1  0.40606572  0.75000000  0.05350862  1
  Br  Br4  1  0.73913441  0.50577687  0.69804724  1
  Br  Br5  1  0.26086559  0.49422313  0.30195276  1
  Br  Br6  1  0.23913441  0.49422313  0.80195276  1
  Br  Br7  1  0.26086559  0.00577687  0.30195276  1
  Br  Br8  1  0.76086559  0.50577687  0.19804724  1
  Br  Br9  1  0.73913441  0.99422313  0.69804724  1
  Br  Br10  1  0.76086559  0.99422313  0.19804724  1
  Br  Br11  1  0.23913441  0.00577687  0.80195276  1
  Br  Br12  1  0.87444668  0.75000000  0.96446640  1
  Br  Br13  1  0.12555332  0.25000000  0.03553360  1
  Br  Br14  1  0.37444668  0.25000000  0.53553360  1
  Br  Br15  1  0.62555332  0.75000000  0.46446640  1
loop_
_geom_bond_atom_site_label_1
_geom_bond_atom_site_label_2
_geom_bond_distance
_geom_bond_site_symmetry_2
Al0 Br15 2.290956 1_555
Al0 Br0 2.309116 1_655
Al0 Br9 2.321828 1_555
Al0 Br4 2.321828 1_555
Al1 Br14 2.290956 1_555
Al1 Br1 2.309116 1_455
Al1 Br7 2.321828 1_555
Al1 Br5 2.321828 1_555
Al2 Br13 2.290956 1_556
Al2 Br2 2.309116 1_555
Al2 Br6 2.321828 1_555
Al2 Br11 2.321828 1_555
Al3 Br12 2.290956 1_554
Al3 Br3 2.309116 1_555
Al3 Br10 2.321828 1_555
Al3 Br8 2.321828 1_555
Br0 Na3 3.060629 1_455
Br1 Na2 3.060629 1_655
Br2 Na1 3.060629 1_556
Br3 Na0 3.060629 1_554
Br4 Na2 3.076248 1_655
Br4 Na0 3.099805 1_555
Br5 Na3 3.076248 1_455
Br5 Na1 3.099805 1_555
Br6 Na0 3.076248 1_555
Br6 Na2 3.099805 1_555
Br7 Na3 3.076248 1_445
Br7 Na1 3.099805 1_555
Br8 Na1 3.076248 1_555
Br8 Na3 3.099805 1_555
Br9 Na2 3.076248 1_665
Br9 Na0 3.099805 1_555
Br10 Na1 3.076248 1_565
Br10 Na3 3.099805 1_555
Br11 Na0 3.076248 1_545
Br11 Na2 3.099805 1_555
Br12 Na0 2.953909 1_555
Br13 Na1 2.953909 1_555
Br14 Na2 2.953909 1_555
Br15 Na3 2.953909 1_555
