# generated using pymatgen
data_ZnCr2O4
_symmetry_space_group_name_H-M   'P 1'
_cell_length_a   2.94625200
_cell_length_b   9.00905900
_cell_length_c   10.57362600
_cell_angle_alpha   90.00000000
_cell_angle_beta   90.00000000
_cell_angle_gamma   90.00000000
_symmetry_Int_Tables_number   1
_chemical_formula_structural   ZnCr2O4
_chemical_formula_sum   'Zn4 Cr8 O16'
_cell_volume   280.65531185
_cell_formula_units_Z   4
loop_
 _symmetry_equiv_pos_site_id
 _symmetry_equiv_pos_as_xyz
  1  'x, y, z'
loop_
 _atom_site_type_symbol
 _atom_site_label
 _atom_site_symmetry_multiplicity
 _atom_site_fract_x
 _atom_site_fract_y
 _atom_site_fract_z
 _atom_site_occupancy
  Zn  Zn0  1  0.25000000  0.24031500  0.84645100  1
  Zn  Zn1  1  0.75000000  0.75968500  0.15354900  1
  Zn  Zn2  1  0.25000000  0.74031500  0.65354900  1
  Zn  Zn3  1  0.75000000  0.25968500  0.34645100  1
  Cr  Cr0  1  0.75000000  0.41220900  0.60137600  1
  Cr  Cr1  1  0.25000000  0.08779100  0.10137600  1
  Cr  Cr2  1  0.75000000  0.91220900  0.89862400  1
  Cr  Cr3  1  0.25000000  0.58779100  0.39862400  1
  Cr  Cr4  1  0.25000000  0.55839800  0.88167900  1
  Cr  Cr5  1  0.75000000  0.44160200  0.11832100  1
  Cr  Cr6  1  0.25000000  0.05839800  0.61832100  1
  Cr  Cr7  1  0.75000000  0.94160200  0.38167900  1
  O  O0  1  0.75000000  0.91019200  0.57297500  1
  O  O1  1  0.25000000  0.08980800  0.42702500  1
  O  O2  1  0.75000000  0.41019200  0.92702500  1
  O  O3  1  0.25000000  0.58980800  0.07297500  1
  O  O4  1  0.75000000  0.03268500  0.21340900  1
  O  O5  1  0.25000000  0.96731500  0.78659100  1
  O  O6  1  0.75000000  0.53268500  0.28659100  1
  O  O7  1  0.25000000  0.46731500  0.71340900  1
  O  O8  1  0.75000000  0.62218000  0.53289100  1
  O  O9  1  0.25000000  0.37782000  0.46710900  1
  O  O10  1  0.75000000  0.12218000  0.96710900  1
  O  O11  1  0.25000000  0.87782000  0.03289100  1
  O  O12  1  0.25000000  0.79742200  0.32589600  1
  O  O13  1  0.75000000  0.20257800  0.67410400  1
  O  O14  1  0.75000000  0.70257800  0.82589600  1
  O  O15  1  0.25000000  0.29742200  0.17410400  1
loop_
_geom_bond_atom_site_label_1
_geom_bond_atom_site_label_2
_geom_bond_distance
_geom_bond_site_symmetry_2
Cr0 O7 1.954439 1_655
Cr0 O7 1.954439 1_555
Cr0 O8 2.025507 1_555
Cr0 O13 2.039139 1_555
Cr0 O9 2.069203 1_555
Cr0 O9 2.069203 1_655
Cr1 O4 1.954439 1_555
Cr1 O4 1.954439 1_455
Cr1 O11 2.025507 1_545
Cr1 O15 2.039139 1_555
Cr1 O10 2.069203 1_554
Cr1 O10 2.069203 1_454
Cr2 O5 1.954439 1_655
Cr2 O5 1.954439 1_555
Cr2 O10 2.025507 1_565
Cr2 O14 2.039139 1_555
Cr2 O11 2.069203 1_556
Cr2 O11 2.069203 1_656
Cr3 O6 1.954439 1_555
Cr3 O6 1.954439 1_455
Cr3 O9 2.025507 1_555
Cr3 O12 2.039139 1_555
Cr3 O8 2.069203 1_455
Cr3 O8 2.069203 1_555
Cr4 O7 1.959331 1_555
Cr4 O3 2.042391 1_556
Cr4 O2 2.045176 1_455
Cr4 O2 2.045176 1_555
Cr4 O14 2.050660 1_455
Cr4 O14 2.050660 1_555
Cr5 O6 1.959331 1_555
Cr5 O2 2.042391 1_554
Cr5 O3 2.045176 1_555
Cr5 O3 2.045176 1_655
Cr5 O15 2.050660 1_555
Cr5 O15 2.050660 1_655
Cr6 O5 1.959331 1_545
Cr6 O1 2.042391 1_555
Cr6 O0 2.045176 1_545
Cr6 O0 2.045176 1_445
Cr6 O13 2.050660 1_455
Cr6 O13 2.050660 1_555
Cr7 O4 1.959331 1_565
Cr7 O0 2.042391 1_555
Cr7 O1 2.045176 1_565
Cr7 O1 2.045176 1_665
Cr7 O12 2.050660 1_555
Cr7 O12 2.050660 1_655
O0 Zn2 2.288702 1_655
O0 Zn2 2.288702 1_555
O1 Zn3 2.288702 1_455
O1 Zn3 2.288702 1_555
O2 Zn0 2.288702 1_655
O2 Zn0 2.288702 1_555
O3 Zn1 2.288702 1_455
O3 Zn1 2.288702 1_555
O4 Zn3 2.482169 1_555
O4 Zn1 2.539610 1_545
O5 Zn2 2.482169 1_555
O5 Zn0 2.539610 1_565
O6 Zn1 2.482169 1_555
O6 Zn3 2.539610 1_555
O7 Zn0 2.482169 1_555
O7 Zn2 2.539610 1_555
O8 Zn2 2.220462 1_655
O8 Zn2 2.220462 1_555
O9 Zn3 2.220462 1_555
O9 Zn3 2.220462 1_455
O10 Zn0 2.220462 1_555
O10 Zn0 2.220462 1_655
O11 Zn1 2.220462 1_555
O11 Zn1 2.220462 1_455
O12 Zn1 2.367822 1_455
O12 Zn1 2.367822 1_555
O13 Zn0 2.367822 1_555
O13 Zn0 2.367822 1_655
O14 Zn2 2.367822 1_555
O14 Zn2 2.367822 1_655
O15 Zn3 2.367822 1_455
O15 Zn3 2.367822 1_555
