# generated using pymatgen
data_DyAu6
_symmetry_space_group_name_H-M   'P 1'
_cell_length_a   10.38891527
_cell_length_b   10.38868802
_cell_length_c   9.84339089
_cell_angle_alpha   89.99746254
_cell_angle_beta   89.99878330
_cell_angle_gamma   89.99932780
_symmetry_Int_Tables_number   1
_chemical_formula_structural   DyAu6
_chemical_formula_sum   'Dy8 Au48'
_cell_volume   1062.36961271
_cell_formula_units_Z   8
loop_
 _symmetry_equiv_pos_site_id
 _symmetry_equiv_pos_as_xyz
  1  'x, y, z'
loop_
 _atom_site_type_symbol
 _atom_site_label
 _atom_site_symmetry_multiplicity
 _atom_site_fract_x
 _atom_site_fract_y
 _atom_site_fract_z
 _atom_site_occupancy
  Dy  Dy0  1  0.32335992  0.82334954  0.03929404  1
  Dy  Dy1  1  0.67662263  0.82337131  0.53924160  1
  Dy  Dy2  1  0.32337620  0.17662578  0.53925307  1
  Dy  Dy3  1  0.67663506  0.17663898  0.03926634  1
  Dy  Dy4  1  0.17662579  0.67663739  0.46072772  1
  Dy  Dy5  1  0.82335361  0.67665792  0.96073612  1
  Dy  Dy6  1  0.17664116  0.32335287  0.96077438  1
  Dy  Dy7  1  0.82337182  0.32337072  0.46071437  1
  Au  Au0  1  0.92984586  0.76415483  0.67244800  1
  Au  Au1  1  0.07014308  0.76411353  0.17250141  1
  Au  Au2  1  0.92985582  0.23589087  0.17247362  1
  Au  Au3  1  0.07015355  0.23588013  0.67249286  1
  Au  Au4  1  0.26412342  0.42985051  0.67246893  1
  Au  Au5  1  0.26407174  0.57013987  0.17247425  1
  Au  Au6  1  0.73589563  0.42985696  0.17246618  1
  Au  Au7  1  0.73588059  0.57011963  0.67245029  1
  Au  Au8  1  0.57014205  0.73587789  0.82753003  1
  Au  Au9  1  0.42983587  0.73587711  0.32750926  1
  Au  Au10  1  0.57014797  0.26410626  0.32748770  1
  Au  Au11  1  0.42987811  0.26409488  0.82755009  1
  Au  Au12  1  0.23588464  0.07013374  0.82754349  1
  Au  Au13  1  0.23589719  0.92986628  0.32748968  1
  Au  Au14  1  0.76410033  0.07014992  0.32751196  1
  Au  Au15  1  0.76409885  0.92984811  0.82751948  1
  Au  Au16  1  0.87201208  0.05357493  0.60331428  1
  Au  Au17  1  0.12797780  0.05356307  0.10331337  1
  Au  Au18  1  0.87200886  0.94643293  0.10331196  1
  Au  Au19  1  0.12799054  0.94645130  0.60329520  1
  Au  Au20  1  0.55353713  0.37199570  0.60330147  1
  Au  Au21  1  0.55356795  0.62797601  0.10333150  1
  Au  Au22  1  0.44641934  0.37203137  0.10332386  1
  Au  Au23  1  0.44644331  0.62799622  0.60331045  1
  Au  Au24  1  0.62798756  0.44644241  0.89670180  1
  Au  Au25  1  0.37201992  0.44644783  0.39666751  1
  Au  Au26  1  0.62798920  0.55355974  0.39667186  1
  Au  Au27  1  0.37199764  0.55356964  0.89670003  1
  Au  Au28  1  0.94642958  0.12798951  0.89670732  1
  Au  Au29  1  0.94642739  0.87204089  0.39667304  1
  Au  Au30  1  0.05355521  0.12798125  0.39667941  1
  Au  Au31  1  0.05355346  0.87201237  0.89668537  1
  Au  Au32  1  0.39942434  0.89940951  0.57110254  1
  Au  Au33  1  0.60062799  0.89935266  0.07113185  1
  Au  Au34  1  0.39938373  0.10058104  0.07108463  1
  Au  Au35  1  0.60060268  0.10057722  0.57112636  1
  Au  Au36  1  0.10059145  0.60063098  0.92890514  1
  Au  Au37  1  0.89942515  0.60059613  0.42887734  1
  Au  Au38  1  0.10060645  0.39940719  0.42887451  1
  Au  Au39  1  0.89938522  0.39941447  0.92892010  1
  Au  Au40  1  0.49997039  -0.00002139  0.31823154  1
  Au  Au41  1  0.50001768  -0.00001094  0.81832409  1
  Au  Au42  1  0.00000827  0.50000276  0.18169672  1
  Au  Au43  1  -0.00002417  0.50002810  0.68177662  1
  Au  Au44  1  0.25002233  0.75004957  0.75001707  1
  Au  Au45  1  0.75002213  0.74997482  0.25000626  1
  Au  Au46  1  0.25005523  0.24992762  0.25003855  1
  Au  Au47  1  0.75002328  0.25005003  0.74997339  1
loop_
_geom_bond_atom_site_label_1
_geom_bond_atom_site_label_2
_geom_bond_distance
_geom_bond_site_symmetry_2
Au0 Au31 2.789189 1_655
Au0 Au43 2.840482 1_655
Au0 Au7 2.850265 1_555
Au0 Au15 2.873688 1_555
Au0 Au19 2.878764 1_655
Au0 Au29 2.941838 1_555
Au0 Au37 2.955627 1_555
Au0 Dy1 3.003065 1_555
Au0 Au16 3.140717 1_565
Au0 Dy5 3.178461 1_555
Au0 Dy4 3.426763 1_655
Au1 Au29 2.788952 1_455
Au1 Au42 2.840308 1_555
Au1 Au5 2.849511 1_555
Au1 Au13 2.873730 1_555
Au1 Au18 2.878917 1_455
Au1 Au31 2.942272 1_554
Au1 Au36 2.955392 1_554
Au1 Dy0 3.003016 1_555
Au1 Au17 3.141135 1_565
Au1 Dy4 3.177856 1_555
Au1 Dy5 3.427019 1_454
Au2 Au30 2.789031 1_655
Au2 Au42 2.840384 1_655
Au2 Au6 2.849687 1_555
Au2 Au28 2.941905 1_554
Au2 Au39 2.955210 1_554
Au2 Dy3 3.003158 1_555
Au2 Dy7 3.178029 1_555
Au2 Dy6 3.426494 1_654
Au3 Au43 2.840815 1_555
Au3 Au4 2.849823 1_555
Au3 Au30 2.942347 1_555
Au3 Au38 2.955722 1_555
Au3 Dy2 3.003259 1_555
Au3 Dy6 3.178428 1_555
Au3 Dy7 3.427069 1_455
Au4 Au43 2.840868 1_555
Au4 Dy2 3.003181 1_555
Au4 Dy6 3.178583 1_555
Au4 Dy4 3.426803 1_555
Au5 Au9 2.873941 1_555
Au5 Dy0 3.002877 1_555
Au5 Dy4 3.178098 1_555
Au5 Dy6 3.426525 1_554
Au6 Dy3 3.003092 1_555
Au6 Dy7 3.178047 1_555
Au6 Dy5 3.426729 1_554
Au7 Au8 2.874083 1_555
Au7 Dy1 3.003316 1_555
Au7 Dy5 3.178652 1_555
Au7 Dy7 3.426573 1_555
Au8 Dy5 3.002965 1_555
Au8 Dy1 3.178411 1_555
Au8 Dy0 3.426916 1_556
Au9 Dy4 3.003010 1_555
Au9 Dy0 3.177723 1_555
Au9 Dy1 3.426907 1_555
Au10 Au22 2.788909 1_555
Au10 Au40 2.840620 1_555
Au10 Au14 2.849558 1_555
Au10 Au6 2.873732 1_555
Au10 Au25 2.879020 1_555
Au10 Au20 2.942312 1_555
Au10 Au35 2.955904 1_555
Au10 Dy7 3.003296 1_555
Au10 Au26 3.141242 1_555
Au10 Dy3 3.177832 1_555
Au10 Dy2 3.426835 1_555
Au11 Au20 2.789103 1_555
Au11 Au41 2.840272 1_555
Au11 Au12 2.849928 1_555
Au11 Au4 2.874132 1_555
Au11 Au24 2.878909 1_555
Au11 Au22 2.942101 1_556
Au11 Au34 2.955020 1_556
Au11 Dy6 3.003330 1_555
Au11 Au27 3.141440 1_555
Au11 Dy2 3.178606 1_555
Au11 Dy3 3.426408 1_556
Au12 Au19 2.789306 1_545
Au12 Au41 2.840607 1_555
Au12 Au3 2.873768 1_555
Au12 Au31 2.878797 1_545
Au12 Au17 2.941897 1_556
Au12 Au34 2.955060 1_556
Au12 Dy6 3.003175 1_555
Au12 Au28 3.141251 1_455
Au12 Dy2 3.178458 1_555
Au12 Dy0 3.426776 1_546
Au13 Au17 2.788818 1_565
Au13 Au40 2.839947 1_565
Au13 Au9 2.849698 1_555
Au13 Au30 2.878946 1_565
Au13 Au19 2.942241 1_555
Au13 Au32 2.955783 1_555
Au13 Dy4 3.003265 1_555
Au13 Au29 3.141380 1_455
Au13 Dy0 3.177709 1_555
Au13 Dy2 3.426825 1_565
Au14 Au18 2.789106 1_545
Au14 Au40 2.840686 1_555
Au14 Au2 2.873808 1_555
Au14 Au29 2.878709 1_545
Au14 Au16 2.942256 1_555
Au14 Au35 2.955551 1_555
Au14 Dy7 3.003152 1_555
Au14 Au30 3.141249 1_655
Au14 Dy3 3.178002 1_555
Au14 Dy1 3.426607 1_545
Au15 Au16 2.789135 1_565
Au15 Au41 2.840070 1_565
Au15 Au8 2.849726 1_555
Au15 Au28 2.879112 1_565
Au15 Au18 2.942181 1_556
Au15 Au33 2.955432 1_556
Au15 Dy5 3.002784 1_555
Au15 Au31 3.141227 1_655
Au15 Dy1 3.178369 1_555
Au15 Dy3 3.426889 1_566
Au16 Au47 2.802938 1_555
Au16 Au3 2.878920 1_655
Au16 Au35 2.879102 1_555
Au16 Au30 2.879492 1_655
Au16 Au29 2.879565 1_545
Au16 Au19 2.882794 1_645
Au16 Au28 3.088057 1_555
Au16 Dy7 3.175075 1_555
Au16 Dy1 3.199663 1_545
Au17 Au46 2.802903 1_555
Au17 Au2 2.878835 1_455
Au17 Au34 2.879137 1_555
Au17 Au28 2.879427 1_454
Au17 Au31 2.879647 1_544
Au17 Au18 2.882753 1_445
Au17 Au30 3.087796 1_555
Au17 Dy6 3.174794 1_554
Au17 Dy0 3.199536 1_545
Au18 Au45 2.802907 1_555
Au18 Au33 2.878957 1_555
Au18 Au28 2.879373 1_564
Au18 Au31 2.879521 1_654
Au18 Au29 3.087638 1_555
Au18 Au2 3.141250 1_565
Au18 Dy5 3.174925 1_554
Au18 Dy3 3.199449 1_565
Au19 Au44 2.802838 1_555
Au19 Au30 2.879321 1_565
Au19 Au32 2.879417 1_555
Au19 Au29 2.879656 1_455
Au19 Au31 3.088050 1_555
Au19 Au3 3.140998 1_565
Au19 Dy4 3.175192 1_555
Au19 Dy2 3.199294 1_565
Au20 Au47 2.802865 1_555
Au20 Au7 2.878978 1_555
Au20 Au35 2.879242 1_555
Au20 Au25 2.879482 1_555
Au20 Au26 2.879685 1_555
Au20 Au23 2.882841 1_555
Au20 Au24 3.088293 1_555
Au20 Au4 3.140845 1_555
Au20 Dy7 3.175437 1_555
Au20 Dy2 3.199165 1_555
Au21 Au9 2.788969 1_555
Au21 Au45 2.802967 1_555
Au21 Au6 2.878726 1_555
Au21 Au33 2.878817 1_555
Au21 Au24 2.879494 1_554
Au21 Au27 2.879759 1_554
Au21 Au22 2.882550 1_555
Au21 Au8 2.942137 1_554
Au21 Au26 3.087518 1_555
Au21 Au5 3.141578 1_555
Au21 Dy5 3.175108 1_554
Au21 Dy0 3.199462 1_555
Au22 Au46 2.802879 1_555
Au22 Au5 2.878845 1_555
Au22 Au27 2.879396 1_554
Au22 Au24 2.879587 1_554
Au22 Au34 2.879596 1_555
Au22 Au25 3.087525 1_555
Au22 Au6 3.141397 1_555
Au22 Dy6 3.174906 1_554
Au22 Dy3 3.199701 1_555
Au23 Au8 2.789109 1_555
Au23 Au44 2.803067 1_555
Au23 Au4 2.878939 1_555
Au23 Au32 2.879117 1_555
Au23 Au26 2.879657 1_555
Au23 Au25 2.879732 1_555
Au23 Au9 2.942077 1_555
Au23 Au27 3.088035 1_555
Au23 Au7 3.141080 1_555
Au23 Dy4 3.175320 1_555
Au23 Dy1 3.199326 1_555
Au24 Au7 2.789174 1_555
Au24 Au47 2.802885 1_555
Au24 Au39 2.879061 1_555
Au24 Au27 2.882918 1_555
Au24 Au6 2.941903 1_556
Au24 Au8 3.140974 1_555
Au24 Dy3 3.175003 1_556
Au24 Dy5 3.199527 1_555
Au25 Au5 2.789047 1_555
Au25 Au46 2.803063 1_555
Au25 Au38 2.879230 1_555
Au25 Au26 2.882683 1_555
Au25 Au4 2.942159 1_555
Au25 Au9 3.140833 1_555
Au25 Dy2 3.175260 1_555
Au25 Dy4 3.199508 1_555
Au26 Au6 2.789074 1_555
Au26 Au45 2.802653 1_555
Au26 Au9 2.878983 1_555
Au26 Au37 2.879467 1_555
Au26 Au7 2.941965 1_555
Au26 Dy1 3.175197 1_555
Au26 Dy7 3.199369 1_555
Au27 Au4 2.789265 1_555
Au27 Au44 2.802967 1_555
Au27 Au8 2.878883 1_555
Au27 Au36 2.879184 1_555
Au27 Au5 2.942024 1_556
Au27 Dy0 3.175000 1_556
Au27 Dy6 3.199492 1_555
Au28 Au3 2.789106 1_655
Au28 Au47 2.803115 1_555
Au28 Au39 2.879311 1_555
Au28 Au31 2.882738 1_645
Au28 Dy3 3.174987 1_556
Au28 Dy6 3.199551 1_655
Au29 Au45 2.802872 1_555
Au29 Au37 2.879413 1_555
Au29 Au30 2.882425 1_665
Au29 Dy1 3.175146 1_555
Au29 Dy4 3.199618 1_655
Au30 Au46 2.802793 1_555
Au30 Au38 2.879328 1_555
Au30 Dy2 3.175348 1_555
Au30 Dy7 3.199386 1_455
Au31 Au44 2.802810 1_555
Au31 Au36 2.878839 1_555
Au31 Dy0 3.175367 1_556
Au31 Dy5 3.199314 1_455
Au32 Au44 2.813891 1_555
Au32 Au41 2.847140 1_565
Au32 Au40 2.894482 1_565
Au32 Au9 2.955625 1_555
Au32 Au35 2.955648 1_565
Au32 Dy1 3.002578 1_555
Au32 Dy2 3.002708 1_565
Au32 Dy4 3.448829 1_555
Au33 Au45 2.813723 1_555
Au33 Au40 2.846490 1_565
Au33 Au41 2.894469 1_564
Au33 Au8 2.955447 1_554
Au33 Au34 2.956544 1_565
Au33 Dy0 3.003184 1_555
Au33 Dy3 3.003325 1_565
Au33 Dy5 3.447779 1_554
Au34 Au46 2.813702 1_555
Au34 Au40 2.846486 1_555
Au34 Au41 2.894033 1_554
Au34 Dy0 3.002777 1_545
Au34 Dy3 3.003127 1_555
Au34 Dy6 3.448136 1_554
Au35 Au47 2.814356 1_555
Au35 Au41 2.846824 1_555
Au35 Au40 2.895235 1_555
Au35 Dy1 3.002587 1_545
Au35 Dy2 3.002906 1_555
Au35 Dy7 3.448793 1_555
Au36 Au44 2.814230 1_555
Au36 Au43 2.846532 1_555
Au36 Au42 2.894171 1_556
Au36 Au5 2.955192 1_556
Au36 Au39 2.956212 1_455
Au36 Dy5 3.002911 1_455
Au36 Dy6 3.003349 1_555
Au36 Dy0 3.448290 1_556
Au37 Au45 2.813758 1_555
Au37 Au42 2.846763 1_655
Au37 Au43 2.894764 1_655
Au37 Au7 2.955536 1_555
Au37 Au38 2.955791 1_655
Au37 Dy4 3.002630 1_655
Au37 Dy7 3.002815 1_555
Au37 Dy1 3.448778 1_555
Au38 Au46 2.814427 1_555
Au38 Au42 2.846764 1_555
Au38 Au43 2.895328 1_555
Au38 Au4 2.955587 1_555
Au38 Dy4 3.002816 1_555
Au38 Dy7 3.002924 1_455
Au38 Dy2 3.448604 1_555
Au39 Au47 2.814013 1_555
Au39 Au43 2.846486 1_655
Au39 Au42 2.894162 1_656
Au39 Au6 2.954974 1_556
Au39 Dy5 3.002922 1_555
Au39 Dy6 3.003215 1_655
Au39 Dy3 3.448331 1_556
Au40 Au9 2.840240 1_545
Au40 Dy1 3.386256 1_545
Au40 Dy2 3.386280 1_555
Au41 Au8 2.840272 1_545
Au41 Dy3 3.385999 1_556
Au41 Dy0 3.386188 1_546
Au42 Au5 2.839904 1_555
Au42 Au6 2.840429 1_455
Au42 Dy6 3.385886 1_554
Au42 Dy5 3.386226 1_454
Au43 Au7 2.840121 1_455
Au43 Dy4 3.386473 1_555
Au43 Dy7 3.386724 1_455
Au44 Dy0 3.044457 1_556
Au44 Dy4 3.045016 1_555
Au45 Dy5 3.044388 1_554
Au45 Dy1 3.044451 1_555
Au46 Dy2 3.043776 1_555
Au46 Dy6 3.044796 1_554
Au47 Dy7 3.044281 1_555
Au47 Dy3 3.044931 1_556
