# generated using pymatgen
data_Ta2Co
_symmetry_space_group_name_H-M   'P 1'
_cell_length_a   4.96749177
_cell_length_b   4.96749177
_cell_length_c   8.99953100
_cell_angle_alpha   90.00000000
_cell_angle_beta   90.00000000
_cell_angle_gamma   119.99999694
_symmetry_Int_Tables_number   1
_chemical_formula_structural   Ta2Co
_chemical_formula_sum   'Ta8 Co4'
_cell_volume   192.32017032
_cell_formula_units_Z   4
loop_
 _symmetry_equiv_pos_site_id
 _symmetry_equiv_pos_as_xyz
  1  'x, y, z'
loop_
 _atom_site_type_symbol
 _atom_site_label
 _atom_site_symmetry_multiplicity
 _atom_site_fract_x
 _atom_site_fract_y
 _atom_site_fract_z
 _atom_site_occupancy
  Ta  Ta0  1  0.00000000  0.00000000  0.50000000  1
  Ta  Ta1  1  0.00000000  0.00000000  0.00000000  1
  Ta  Ta2  1  0.65229400  0.65229400  0.75000000  1
  Ta  Ta3  1  0.34770600  0.00000000  0.75000000  1
  Ta  Ta4  1  0.00000000  0.34770600  0.75000000  1
  Ta  Ta5  1  0.34770600  0.34770600  0.25000000  1
  Ta  Ta6  1  0.65229400  0.00000000  0.25000000  1
  Ta  Ta7  1  0.00000000  0.65229400  0.25000000  1
  Co  Co0  1  0.66666700  0.33333300  0.50000000  1
  Co  Co1  1  0.33333300  0.66666700  0.50000000  1
  Co  Co2  1  0.33333300  0.66666700  0.00000000  1
  Co  Co3  1  0.66666700  0.33333300  0.00000000  1
loop_
_geom_bond_atom_site_label_1
_geom_bond_atom_site_label_2
_geom_bond_distance
_geom_bond_site_symmetry_2
Ta0 Ta6 2.836421 1_455
Ta0 Ta3 2.836421 1_555
Ta0 Ta7 2.836421 1_545
Ta0 Ta4 2.836421 1_555
Ta0 Ta2 2.836421 1_445
Ta0 Ta5 2.836421 1_555
Ta1 Ta6 2.836421 1_455
Ta1 Ta7 2.836421 1_545
Ta1 Ta4 2.836421 1_554
Ta1 Ta3 2.836421 1_554
Ta1 Ta2 2.836421 1_444
Ta1 Ta5 2.836421 1_555
Ta2 Ta3 2.808195 1_565
Ta2 Ta4 2.808195 1_655
Ta2 Ta3 2.808195 1_555
Ta2 Ta4 2.808195 1_555
Ta2 Ta4 2.991644 1_665
Ta2 Ta3 2.991644 1_665
Ta3 Ta4 2.808195 1_545
Ta3 Ta4 2.808195 1_655
Ta3 Ta4 2.991644 1_555
Ta5 Ta6 2.808195 1_555
Ta5 Ta7 2.808195 1_555
Ta5 Ta6 2.808195 1_565
Ta5 Ta7 2.808195 1_655
Ta5 Ta6 2.991644 1_455
Ta5 Ta7 2.991644 1_545
Ta6 Ta7 2.808195 1_545
Ta6 Ta7 2.808195 1_655
Ta6 Ta7 2.991644 1_645
Co0 Ta4 2.773196 1_655
Co0 Ta6 2.773196 1_555
Co0 Ta7 2.773198 1_655
Co0 Ta3 2.773198 1_555
Co0 Ta5 2.773199 1_555
Co0 Ta2 2.773199 1_555
Co0 Ta0 2.867980 1_655
Co0 Co1 2.867980 1_545
Co0 Co1 2.867980 1_655
Co0 Ta0 2.867984 1_665
Co0 Ta0 2.867984 1_555
Co0 Co1 2.867988 1_555
Co1 Ta3 2.773196 1_565
Co1 Ta7 2.773196 1_555
Co1 Ta4 2.773198 1_555
Co1 Ta6 2.773198 1_565
Co1 Ta5 2.773199 1_555
Co1 Ta2 2.773199 1_555
Co1 Ta0 2.867980 1_565
Co1 Ta0 2.867984 1_555
Co1 Ta0 2.867984 1_665
Co2 Ta3 2.773196 1_564
Co2 Ta7 2.773196 1_555
Co2 Ta4 2.773198 1_554
Co2 Ta6 2.773198 1_565
Co2 Ta2 2.773199 1_554
Co2 Ta5 2.773199 1_555
Co2 Ta1 2.867980 1_565
Co2 Co3 2.867980 1_455
Co2 Co3 2.867980 1_565
Co2 Ta1 2.867984 1_555
Co2 Ta1 2.867984 1_665
Co2 Co3 2.867988 1_555
Co3 Ta4 2.773196 1_654
Co3 Ta6 2.773196 1_555
Co3 Ta7 2.773198 1_655
Co3 Ta3 2.773198 1_554
Co3 Ta2 2.773199 1_554
Co3 Ta5 2.773199 1_555
Co3 Ta1 2.867980 1_655
Co3 Ta1 2.867984 1_665
Co3 Ta1 2.867984 1_555
