# generated using pymatgen
data_TlVCl3
_symmetry_space_group_name_H-M   'P 1'
_cell_length_a   6.92212540
_cell_length_b   6.92212101
_cell_length_c   6.15463623
_cell_angle_alpha   90.00000000
_cell_angle_beta   90.00000000
_cell_angle_gamma   119.99997272
_symmetry_Int_Tables_number   1
_chemical_formula_structural   TlVCl3
_chemical_formula_sum   'Tl2 V2 Cl6'
_cell_volume   255.39464681
_cell_formula_units_Z   2
loop_
 _symmetry_equiv_pos_site_id
 _symmetry_equiv_pos_as_xyz
  1  'x, y, z'
loop_
 _atom_site_type_symbol
 _atom_site_label
 _atom_site_symmetry_multiplicity
 _atom_site_fract_x
 _atom_site_fract_y
 _atom_site_fract_z
 _atom_site_occupancy
  Tl  Tl0  1  0.33333300  0.66666700  0.75000000  1
  Tl  Tl1  1  0.66666700  0.33333300  0.25000000  1
  V  V0  1  -0.00000000  0.00000000  0.00000000  1
  V  V1  1  -0.00000000  0.00000000  0.50000000  1
  Cl  Cl0  1  0.16266052  0.32532204  0.25000000  1
  Cl  Cl1  1  0.83733948  0.67467796  0.75000000  1
  Cl  Cl2  1  0.67467896  0.83733948  0.25000000  1
  Cl  Cl3  1  0.32532104  0.16266052  0.75000000  1
  Cl  Cl4  1  0.16266052  0.83733948  0.25000000  1
  Cl  Cl5  1  0.83733948  0.16266052  0.75000000  1
loop_
_geom_bond_atom_site_label_1
_geom_bond_atom_site_label_2
_geom_bond_distance
_geom_bond_site_symmetry_2
Cl0 V0 2.484115 1_555
Cl0 V1 2.484115 1_555
Cl1 V0 2.484115 1_666
Cl1 V1 2.484115 1_665
Cl2 V0 2.484111 1_665
Cl2 V1 2.484111 1_665
Cl3 V0 2.484111 1_556
Cl3 V1 2.484111 1_555
Cl4 V1 2.484110 1_565
Cl4 V0 2.484110 1_565
Cl5 V1 2.484110 1_655
Cl5 V0 2.484110 1_656
