# generated using pymatgen
data_LaMoO2
_symmetry_space_group_name_H-M   'P 1'
_cell_length_a   7.77350618
_cell_length_b   7.77350618
_cell_length_c   7.77350618
_cell_angle_alpha   130.67414557
_cell_angle_beta   130.67414557
_cell_angle_gamma   72.33130732
_symmetry_Int_Tables_number   1
_chemical_formula_structural   LaMoO2
_chemical_formula_sum   'La4 Mo4 O8'
_cell_volume   264.12334512
_cell_formula_units_Z   4
loop_
 _symmetry_equiv_pos_site_id
 _symmetry_equiv_pos_as_xyz
  1  'x, y, z'
loop_
 _atom_site_type_symbol
 _atom_site_label
 _atom_site_symmetry_multiplicity
 _atom_site_fract_x
 _atom_site_fract_y
 _atom_site_fract_z
 _atom_site_occupancy
  La  La0  1  0.87500000  0.62500000  0.25000000  1
  La  La1  1  0.37500000  0.62500000  0.75000000  1
  La  La2  1  0.37500000  0.62500000  0.25000000  1
  La  La3  1  0.37500000  0.12500000  0.75000000  1
  Mo  Mo0  1  0.37500000  0.12500000  0.25000000  1
  Mo  Mo1  1  0.87500000  0.12500000  0.75000000  1
  Mo  Mo2  1  0.87500000  0.12500000  0.25000000  1
  Mo  Mo3  1  0.87500000  0.62500000  0.75000000  1
  O  O0  1  0.17555100  0.39478000  0.21922900  1
  O  O1  1  0.17555100  0.95632200  0.78077100  1
  O  O2  1  0.14478000  0.42555100  0.71922900  1
  O  O3  1  0.57444900  0.85522000  0.28077100  1
  O  O4  1  0.70632200  0.42555100  0.28077100  1
  O  O5  1  0.57444900  0.29367800  0.71922900  1
  O  O6  1  0.60522000  0.82444900  0.78077100  1
  O  O7  1  0.04367800  0.82444900  0.21922900  1
loop_
_geom_bond_atom_site_label_1
_geom_bond_atom_site_label_2
_geom_bond_distance
_geom_bond_site_symmetry_2
La0 O4 2.511296 1_555
La0 O7 2.511296 1_655
La0 O5 2.520082 1_554
La0 O3 2.520082 1_555
La0 O0 2.520082 1_655
La0 O1 2.520082 1_655
La1 O6 2.511296 1_555
La1 O2 2.511296 1_555
La1 O5 2.520082 1_555
La1 O0 2.520082 1_555
La1 O1 2.520082 1_555
La1 O3 2.520082 1_556
La2 O3 2.511296 1_555
La2 O0 2.511296 1_555
La2 O6 2.520082 1_555
La2 O7 2.520082 1_555
La2 O2 2.520082 1_554
La2 O4 2.520082 1_555
La3 O5 2.511296 1_555
La3 O1 2.511296 1_545
La3 O7 2.520082 1_545
La3 O2 2.520082 1_555
La3 O4 2.520082 1_556
La3 O6 2.520082 1_545
Mo0 O5 2.248501 1_555
Mo0 O0 2.248501 1_555
Mo0 O3 2.248501 1_545
Mo0 O1 2.248501 1_544
Mo1 O1 2.248501 1_645
Mo1 O0 2.248501 1_656
Mo1 O5 2.248501 1_555
Mo1 O3 2.248501 1_545
Mo2 O4 2.248501 1_555
Mo2 O6 2.248501 1_544
Mo2 O2 2.248501 1_655
Mo2 O7 2.248501 1_645
Mo3 O7 2.248501 1_656
Mo3 O2 2.248501 1_655
Mo3 O4 2.248501 1_555
Mo3 O6 2.248501 1_555
