# generated using pymatgen
data_Cs2Cd3(B4O7)4
_symmetry_space_group_name_H-M   'P 1'
_cell_length_a   11.62192106
_cell_length_b   11.62192106
_cell_length_c   13.59844949
_cell_angle_alpha   89.26564968
_cell_angle_beta   89.26564968
_cell_angle_gamma   39.19504250
_symmetry_Int_Tables_number   1
_chemical_formula_structural   Cs2Cd3(B4O7)4
_chemical_formula_sum   'Cs4 Cd6 B32 O56'
_cell_volume   1160.63637113
_cell_formula_units_Z   2
loop_
 _symmetry_equiv_pos_site_id
 _symmetry_equiv_pos_as_xyz
  1  'x, y, z'
loop_
 _atom_site_type_symbol
 _atom_site_label
 _atom_site_symmetry_multiplicity
 _atom_site_fract_x
 _atom_site_fract_y
 _atom_site_fract_z
 _atom_site_occupancy
  Cs  Cs0  1  0.74132200  0.76162700  0.09243700  1
  Cs  Cs1  1  0.23837300  0.25867800  0.40756300  1
  Cs  Cs2  1  0.25867800  0.23837300  0.90756300  1
  Cs  Cs3  1  0.76162700  0.74132200  0.59243700  1
  Cd  Cd0  1  0.75595800  0.24243300  0.39952800  1
  Cd  Cd1  1  0.75756700  0.24404200  0.10047200  1
  Cd  Cd2  1  0.24404200  0.75756700  0.60047200  1
  Cd  Cd3  1  0.24243300  0.75595800  0.89952800  1
  Cd  Cd4  1  0.74273200  0.25726800  0.75000000  1
  Cd  Cd5  1  0.25726800  0.74273200  0.25000000  1
  B  B0  1  0.82209900  0.00340100  0.91921900  1
  B  B1  1  0.99659900  0.17790100  0.58078100  1
  B  B2  1  0.17790100  0.99659900  0.08078100  1
  B  B3  1  0.00340100  0.82209900  0.41921900  1
  B  B4  1  0.48746600  0.32872800  0.58583400  1
  B  B5  1  0.67127200  0.51253400  0.91416600  1
  B  B6  1  0.51253400  0.67127200  0.41416600  1
  B  B7  1  0.32872800  0.48746600  0.08583400  1
  B  B8  1  0.83003000  0.98074700  0.25738200  1
  B  B9  1  0.01925300  0.16997000  0.24261800  1
  B  B10  1  0.16997000  0.01925300  0.74261800  1
  B  B11  1  0.98074700  0.83003000  0.75738200  1
  B  B12  1  0.65096100  0.48905300  0.57877600  1
  B  B13  1  0.51094700  0.34903900  0.92122400  1
  B  B14  1  0.34903900  0.51094700  0.42122400  1
  B  B15  1  0.48905300  0.65096100  0.07877600  1
  B  B16  1  0.84161300  0.00673600  0.58612000  1
  B  B17  1  0.99326400  0.15838700  0.91388000  1
  B  B18  1  0.15838700  0.99326400  0.41388000  1
  B  B19  1  0.00673600  0.84161300  0.08612000  1
  B  B20  1  0.67649500  0.51209500  0.24975700  1
  B  B21  1  0.48790500  0.32350500  0.25024300  1
  B  B22  1  0.32350500  0.48790500  0.75024300  1
  B  B23  1  0.51209500  0.67649500  0.74975700  1
  B  B24  1  0.70555400  0.67246500  0.34012000  1
  B  B25  1  0.32753500  0.29444600  0.15988000  1
  B  B26  1  0.29444600  0.32753500  0.65988000  1
  B  B27  1  0.67246500  0.70555400  0.84012000  1
  B  B28  1  0.84605000  0.77987500  0.34432700  1
  B  B29  1  0.22012500  0.15395000  0.15567300  1
  B  B30  1  0.15395000  0.22012500  0.65567300  1
  B  B31  1  0.77987500  0.84605000  0.84432700  1
  O  O0  1  0.80709100  0.31616100  0.54239900  1
  O  O1  1  0.68383900  0.19290900  0.95760100  1
  O  O2  1  0.19290900  0.68383900  0.45760100  1
  O  O3  1  0.31616100  0.80709100  0.04239900  1
  O  O4  1  0.82890900  0.32137000  0.87702500  1
  O  O5  1  0.67863000  0.17109100  0.62297500  1
  O  O6  1  0.17109100  0.67863000  0.12297500  1
  O  O7  1  0.32137000  0.82890900  0.37702500  1
  O  O8  1  0.02240000  0.13179800  0.34965200  1
  O  O9  1  0.86820200  0.97760000  0.15034800  1
  O  O10  1  0.97760000  0.86820200  0.65034800  1
  O  O11  1  0.13179800  0.02240000  0.84965200  1
  O  O12  1  0.88999100  0.98636500  0.82122500  1
  O  O13  1  0.01363500  0.11000900  0.67877500  1
  O  O14  1  0.11000900  0.01363500  0.17877500  1
  O  O15  1  0.98636500  0.88999100  0.32122500  1
  O  O16  1  0.48994300  0.37370100  0.48360600  1
  O  O17  1  0.62629900  0.51005700  0.01639400  1
  O  O18  1  0.51005700  0.62629900  0.51639400  1
  O  O19  1  0.37370100  0.48994300  0.98360600  1
  O  O20  1  0.60893300  0.52057500  0.34614200  1
  O  O21  1  0.47942500  0.39106700  0.15385800  1
  O  O22  1  0.39106700  0.47942500  0.65385800  1
  O  O23  1  0.52057500  0.60893300  0.84614200  1
  O  O24  1  0.78840100  0.88872700  0.26602100  1
  O  O25  1  0.11127300  0.21159900  0.23397900  1
  O  O26  1  0.21159900  0.11127300  0.73397900  1
  O  O27  1  0.88872700  0.78840100  0.76602100  1
  O  O28  1  0.87794300  0.98413800  0.48653400  1
  O  O29  1  0.01586200  0.12205700  0.01346600  1
  O  O30  1  0.12205700  0.01586200  0.51346600  1
  O  O31  1  0.98413800  0.87794300  0.98653400  1
  O  O32  1  0.73123800  0.59131800  0.25641700  1
  O  O33  1  0.40868200  0.26876200  0.24358300  1
  O  O34  1  0.26876200  0.40868200  0.74358300  1
  O  O35  1  0.59131800  0.73123800  0.75641700  1
  O  O36  1  0.62974300  0.51557400  0.67895100  1
  O  O37  1  0.48442600  0.37025700  0.82104900  1
  O  O38  1  0.37025700  0.48442600  0.32104900  1
  O  O39  1  0.51557400  0.62974300  0.17895100  1
  O  O40  1  0.74044900  0.95121700  0.91904700  1
  O  O41  1  0.04878300  0.25955100  0.58095300  1
  O  O42  1  0.25955100  0.04878300  0.08095300  1
  O  O43  1  0.95121700  0.74044900  0.41904700  1
  O  O44  1  0.40444400  0.27720800  0.58342500  1
  O  O45  1  0.72279200  0.59555600  0.91657500  1
  O  O46  1  0.59555600  0.72279200  0.41657500  1
  O  O47  1  0.27720800  0.40444400  0.08342500  1
  O  O48  1  0.80235600  0.69857900  0.35300800  1
  O  O49  1  0.30142100  0.19764400  0.14699200  1
  O  O50  1  0.19764400  0.30142100  0.64699200  1
  O  O51  1  0.69857900  0.80235600  0.85300800  1
  O  O52  1  0.67519000  0.17515000  0.28595500  1
  O  O53  1  0.82485000  0.32481000  0.21404500  1
  O  O54  1  0.32481000  0.82485000  0.71404500  1
  O  O55  1  0.17515000  0.67519000  0.78595500  1
loop_
_geom_bond_atom_site_label_1
_geom_bond_atom_site_label_2
_geom_bond_distance
_geom_bond_site_symmetry_2
Cs0 O32 3.023820 1_555
Cs0 O24 3.070568 1_555
Cs0 O40 3.201133 1_554
Cs0 O45 3.204111 1_554
Cs0 O51 3.272455 1_554
Cs0 O49 3.494232 1_565
Cs0 O42 3.682102 1_565
Cs1 O33 3.023820 1_555
Cs1 O25 3.070568 1_555
Cs1 O41 3.201133 1_555
Cs1 O44 3.204111 1_555
Cs1 O50 3.272455 1_555
Cs1 O48 3.494232 1_455
Cs1 O43 3.682102 1_455
Cs2 O34 3.023820 1_555
Cs2 O26 3.070568 1_555
Cs2 O42 3.201133 1_556
Cs2 O47 3.204111 1_556
Cs2 O49 3.272455 1_556
Cs2 O51 3.494232 1_545
Cs2 O40 3.682102 1_545
Cs3 O35 3.023820 1_555
Cs3 O27 3.070568 1_555
Cs3 O43 3.201133 1_555
Cs3 O46 3.204111 1_555
Cs3 O48 3.272455 1_555
Cs3 O50 3.494232 1_655
Cs3 O41 3.682102 1_655
Cd0 O52 2.254690 1_555
Cd0 O20 2.303544 1_555
Cd0 O8 2.345024 1_655
Cd0 O0 2.392374 1_555
Cd0 O28 2.403442 1_545
Cd0 O16 2.415815 1_555
Cd1 O53 2.254690 1_555
Cd1 O21 2.303544 1_555
Cd1 O9 2.345024 1_545
Cd1 O1 2.392374 1_554
Cd1 O29 2.403442 1_655
Cd1 O17 2.415815 1_555
Cd2 O54 2.254690 1_555
Cd2 O22 2.303544 1_555
Cd2 O10 2.345024 1_455
Cd2 O2 2.392374 1_555
Cd2 O30 2.403442 1_565
Cd2 O18 2.415815 1_555
Cd3 O55 2.254690 1_555
Cd3 O23 2.303544 1_555
Cd3 O11 2.345024 1_565
Cd3 O3 2.392374 1_556
Cd3 O31 2.403442 1_455
Cd3 O19 2.415815 1_555
Cd4 O12 2.322083 1_545
Cd4 O13 2.322083 1_655
Cd4 O37 2.349008 1_555
Cd4 O36 2.349008 1_555
Cd4 O5 2.403258 1_555
Cd4 O4 2.403258 1_555
Cd5 O15 2.322083 1_455
Cd5 O14 2.322083 1_565
Cd5 O38 2.349008 1_555
Cd5 O39 2.349008 1_555
Cd5 O6 2.403258 1_555
Cd5 O7 2.403258 1_555
B0 O40 1.469835 1_545
B0 O12 1.474849 1_545
B0 O1 1.492541 1_555
B0 O31 1.504749 1_545
B1 O41 1.469835 1_655
B1 O13 1.474849 1_655
B1 O0 1.492541 1_555
B1 O30 1.504749 1_655
B2 O42 1.469835 1_565
B2 O14 1.474849 1_565
B2 O3 1.492541 1_555
B2 O29 1.504749 1_565
B3 O43 1.469835 1_455
B3 O15 1.474849 1_455
B3 O2 1.492541 1_555
B3 O28 1.504749 1_455
B4 O22 1.466908 1_555
B4 O44 1.478975 1_555
B4 O16 1.486668 1_555
B4 O5 1.497855 1_555
B5 O23 1.466908 1_555
B5 O45 1.478975 1_555
B5 O17 1.486668 1_556
B5 O4 1.497855 1_555
B6 O20 1.466908 1_555
B6 O46 1.478975 1_555
B6 O18 1.486668 1_555
B6 O7 1.497855 1_555
B7 O21 1.466908 1_555
B7 O47 1.478975 1_555
B7 O19 1.486668 1_554
B7 O6 1.497855 1_555
B8 O24 1.479493 1_555
B8 O52 1.482081 1_565
B8 O15 1.487930 1_555
B8 O9 1.508735 1_555
B9 O25 1.479493 1_555
B9 O53 1.482081 1_455
B9 O14 1.487930 1_555
B9 O8 1.508735 1_555
B10 O26 1.479493 1_555
B10 O54 1.482081 1_545
B10 O13 1.487930 1_555
B10 O11 1.508735 1_555
B11 O27 1.479493 1_555
B11 O55 1.482081 1_655
B11 O12 1.487930 1_555
B11 O10 1.508735 1_555
B12 O36 1.376884 1_555
B12 O18 1.377593 1_555
B12 O0 1.387742 1_555
B13 O37 1.376884 1_555
B13 O19 1.377593 1_555
B13 O1 1.387742 1_555
B14 O38 1.376884 1_555
B14 O16 1.377593 1_555
B14 O2 1.387742 1_555
B15 O39 1.376884 1_555
B15 O17 1.377593 1_555
B15 O3 1.387742 1_555
B16 O5 1.371052 1_555
B16 O28 1.379757 1_545
B16 O10 1.381337 1_545
B17 O4 1.371052 1_555
B17 O29 1.379757 1_656
B17 O11 1.381337 1_655
B18 O7 1.371052 1_555
B18 O30 1.379757 1_565
B18 O8 1.381337 1_565
B19 O6 1.371052 1_555
B19 O31 1.379757 1_454
B19 O9 1.381337 1_455
B20 O53 1.461149 1_555
B20 O32 1.473867 1_555
B20 O20 1.483623 1_555
B20 O39 1.530730 1_555
B21 O52 1.461149 1_555
B21 O33 1.473867 1_555
B21 O21 1.483623 1_555
B21 O38 1.530730 1_555
B22 O55 1.461149 1_555
B22 O34 1.473867 1_555
B22 O22 1.483623 1_555
B22 O37 1.530730 1_555
B23 O54 1.461149 1_555
B23 O35 1.473867 1_555
B23 O23 1.483623 1_555
B23 O36 1.530730 1_555
B24 O32 1.362552 1_555
B24 O46 1.371072 1_555
B24 O48 1.387139 1_555
B25 O33 1.362552 1_555
B25 O47 1.371072 1_555
B25 O49 1.387139 1_555
B26 O34 1.362552 1_555
B26 O44 1.371072 1_555
B26 O50 1.387139 1_555
B27 O35 1.362552 1_555
B27 O45 1.371072 1_555
B27 O51 1.387139 1_555
B28 O24 1.361313 1_555
B28 O43 1.374074 1_555
B28 O48 1.379765 1_555
B29 O25 1.361313 1_555
B29 O42 1.374074 1_555
B29 O49 1.379765 1_555
B30 O26 1.361313 1_555
B30 O41 1.374074 1_555
B30 O50 1.379765 1_555
B31 O27 1.361313 1_555
B31 O40 1.374074 1_555
B31 O51 1.379765 1_555
