# generated using pymatgen
data_ZrGaRh
_symmetry_space_group_name_H-M   'P 1'
_cell_length_a   7.26885914
_cell_length_b   7.26885914
_cell_length_c   3.31922923
_cell_angle_alpha   90.00000000
_cell_angle_beta   90.00000000
_cell_angle_gamma   119.99999271
_symmetry_Int_Tables_number   1
_chemical_formula_structural   ZrGaRh
_chemical_formula_sum   'Zr3 Ga3 Rh3'
_cell_volume   151.87993959
_cell_formula_units_Z   3
loop_
 _symmetry_equiv_pos_site_id
 _symmetry_equiv_pos_as_xyz
  1  'x, y, z'
loop_
 _atom_site_type_symbol
 _atom_site_label
 _atom_site_symmetry_multiplicity
 _atom_site_fract_x
 _atom_site_fract_y
 _atom_site_fract_z
 _atom_site_occupancy
  Zr  Zr0  1  -0.00000000  0.39303116  0.50000000  1
  Zr  Zr1  1  0.60696884  0.60696884  0.50000000  1
  Zr  Zr2  1  0.39303116  -0.00000000  0.50000000  1
  Ga  Ga0  1  0.00000000  0.72699673  -0.00000000  1
  Ga  Ga1  1  0.27300327  0.27300327  -0.00000000  1
  Ga  Ga2  1  0.72699673  0.00000000  0.00000000  1
  Rh  Rh0  1  0.33333300  0.66666700  -0.00000000  1
  Rh  Rh1  1  0.66666700  0.33333300  -0.00000000  1
  Rh  Rh2  1  -0.00000000  -0.00000000  0.50000000  1
loop_
_geom_bond_atom_site_label_1
_geom_bond_atom_site_label_2
_geom_bond_distance
_geom_bond_site_symmetry_2
Ga0 Rh2 2.586939 1_565
Ga0 Rh2 2.586939 1_564
Ga0 Rh0 2.669369 1_555
Ga0 Rh1 2.669373 1_455
Ga0 Zr0 2.940631 1_555
Ga0 Zr0 2.940631 1_554
Ga0 Zr1 3.030642 1_454
Ga0 Zr1 3.030642 1_455
Ga0 Zr2 3.030642 1_565
Ga0 Zr2 3.030642 1_564
Ga1 Rh2 2.586939 1_554
Ga1 Rh2 2.586939 1_555
Ga1 Rh1 2.669376 1_555
Ga1 Rh0 2.669376 1_555
Ga1 Zr1 2.940632 1_554
Ga1 Zr1 2.940632 1_555
Ga1 Zr0 3.030642 1_555
Ga1 Zr2 3.030642 1_554
Ga1 Zr0 3.030642 1_554
Ga1 Zr2 3.030642 1_555
Ga2 Rh2 2.586939 1_655
Ga2 Rh2 2.586939 1_654
Ga2 Rh1 2.669369 1_555
Ga2 Rh0 2.669373 1_545
Ga2 Zr2 2.940631 1_555
Ga2 Zr2 2.940631 1_554
Ga2 Zr1 3.030642 1_545
Ga2 Zr1 3.030642 1_544
Ga2 Zr0 3.030642 1_654
Ga2 Zr0 3.030642 1_655
Rh0 Zr2 2.786019 1_565
Rh0 Zr2 2.786019 1_564
Rh0 Zr0 2.786021 1_555
Rh0 Zr0 2.786021 1_554
Rh0 Zr1 2.786025 1_555
Rh0 Zr1 2.786025 1_554
Rh1 Zr0 2.786019 1_655
Rh1 Zr0 2.786019 1_654
Rh1 Zr2 2.786021 1_554
Rh1 Zr2 2.786021 1_555
Rh1 Zr1 2.786025 1_555
Rh1 Zr1 2.786025 1_554
Rh2 Zr2 2.856888 1_555
Rh2 Zr0 2.856888 1_555
Rh2 Zr1 2.856888 1_445
