# generated using pymatgen
data_BaCu2(AsO4)2
_symmetry_space_group_name_H-M   'P 1'
_cell_length_a   8.87674700
_cell_length_b   4.76340600
_cell_length_c   10.05166609
_cell_angle_alpha   64.19483160
_cell_angle_beta   90.00000000
_cell_angle_gamma   90.00000000
_symmetry_Int_Tables_number   1
_chemical_formula_structural   BaCu2(AsO4)2
_chemical_formula_sum   'Ba2 Cu4 As4 O16'
_cell_volume   382.63690885
_cell_formula_units_Z   2
loop_
 _symmetry_equiv_pos_site_id
 _symmetry_equiv_pos_as_xyz
  1  'x, y, z'
loop_
 _atom_site_type_symbol
 _atom_site_label
 _atom_site_symmetry_multiplicity
 _atom_site_fract_x
 _atom_site_fract_y
 _atom_site_fract_z
 _atom_site_occupancy
  Ba  Ba0  1  0.50000000  0.00000000  0.50000000  1
  Ba  Ba1  1  0.00000000  0.00000000  0.00000000  1
  Cu  Cu0  1  0.41757100  0.89492500  0.15240400  1
  Cu  Cu1  1  0.58242900  0.10507500  0.84759600  1
  Cu  Cu2  1  0.08242900  0.89492500  0.65240400  1
  Cu  Cu3  1  0.91757100  0.10507500  0.34759600  1
  As  As0  1  0.81565800  0.37336500  0.57812900  1
  As  As1  1  0.31565800  0.62663500  0.92187100  1
  As  As2  1  0.18434200  0.62663500  0.42187100  1
  As  As3  1  0.68434200  0.37336500  0.07812900  1
  O  O0  1  0.40147000  0.27427500  0.96249600  1
  O  O1  1  0.90147000  0.72572500  0.53750400  1
  O  O2  1  0.59853000  0.72572500  0.03750400  1
  O  O3  1  0.09853000  0.27427500  0.46249600  1
  O  O4  1  0.41616100  0.91650200  0.78091000  1
  O  O5  1  0.91616100  0.08349800  0.71909000  1
  O  O6  1  0.58383900  0.08349800  0.21909000  1
  O  O7  1  0.08383900  0.91650200  0.28091000  1
  O  O8  1  0.27452000  0.68728300  0.07617600  1
  O  O9  1  0.77452000  0.31271700  0.42382400  1
  O  O10  1  0.13172500  0.61481500  0.86184300  1
  O  O11  1  0.63172500  0.38518500  0.63815700  1
  O  O12  1  0.86827500  0.38518500  0.13815700  1
  O  O13  1  0.36827500  0.61481500  0.36184300  1
  O  O14  1  0.22548000  0.68728300  0.57617600  1
  O  O15  1  0.72548000  0.31271700  0.92382400  1
loop_
_geom_bond_atom_site_label_1
_geom_bond_atom_site_label_2
_geom_bond_distance
_geom_bond_site_symmetry_2
Ba0 O6 2.776165 1_555
Ba0 O4 2.776165 1_545
Ba0 O9 2.783952 1_555
Ba0 O14 2.783952 1_545
Ba0 O13 2.886469 1_555
Ba0 O11 2.886469 1_545
Ba0 O11 2.980026 1_555
Ba0 O13 2.980026 1_545
Ba1 O7 2.776165 1_545
Ba1 O5 2.776165 1_454
Ba1 O8 2.783952 1_545
Ba1 O15 2.783952 1_454
Ba1 O12 2.886469 1_445
Ba1 O10 2.886469 1_554
Ba1 O10 2.980026 1_544
Ba1 O12 2.980026 1_455
Cu0 O8 1.958991 1_555
Cu0 O0 1.981524 1_564
Cu0 O13 1.989514 1_555
Cu0 O6 1.989649 1_565
Cu0 O2 2.318224 1_555
Cu1 O15 1.958991 1_555
Cu1 O2 1.981524 1_546
Cu1 O11 1.989514 1_555
Cu1 O4 1.989649 1_545
Cu1 O0 2.318224 1_555
Cu2 O14 1.958991 1_555
Cu2 O3 1.981524 1_565
Cu2 O10 1.989514 1_555
Cu2 O5 1.989649 1_465
Cu2 O1 2.318224 1_455
Cu3 O9 1.958991 1_555
Cu3 O1 1.981524 1_545
Cu3 O12 1.989514 1_555
Cu3 O7 1.989649 1_645
Cu3 O3 2.318224 1_655
As0 O1 1.722617 1_555
As0 O5 1.733986 1_555
As0 O9 1.735680 1_555
As0 O11 1.750032 1_555
As1 O0 1.722617 1_555
As1 O4 1.733986 1_555
As1 O8 1.735680 1_556
As1 O10 1.750032 1_555
As2 O3 1.722617 1_555
As2 O7 1.733986 1_555
As2 O14 1.735680 1_555
As2 O13 1.750032 1_555
As3 O2 1.722617 1_555
As3 O6 1.733986 1_555
As3 O15 1.735680 1_554
As3 O12 1.750032 1_555
