# generated using pymatgen
data_Mg16Al12Ga
_symmetry_space_group_name_H-M   'P 1'
_cell_length_a   9.10003109
_cell_length_b   9.10003109
_cell_length_c   9.10003090
_cell_angle_alpha   109.46593158
_cell_angle_beta   109.46593158
_cell_angle_gamma   109.46593675
_symmetry_Int_Tables_number   1
_chemical_formula_structural   Mg16Al12Ga
_chemical_formula_sum   'Mg16 Al12 Ga1'
_cell_volume   580.21869172
_cell_formula_units_Z   1
loop_
 _symmetry_equiv_pos_site_id
 _symmetry_equiv_pos_as_xyz
  1  'x, y, z'
loop_
 _atom_site_type_symbol
 _atom_site_label
 _atom_site_symmetry_multiplicity
 _atom_site_fract_x
 _atom_site_fract_y
 _atom_site_fract_z
 _atom_site_occupancy
  Mg  Mg0  1  0.40669100  0.40669100  0.70840000  1
  Mg  Mg1  1  0.99761500  0.99761500  0.99761500  1
  Mg  Mg2  1  0.99838700  0.99838700  0.34423700  1
  Mg  Mg3  1  0.68475400  0.68475400  0.28539500  1
  Mg  Mg4  1  0.59836000  0.31681500  0.99910100  1
  Mg  Mg5  1  0.70840000  0.40669100  0.40669100  1
  Mg  Mg6  1  0.31681500  0.99910100  0.59836000  1
  Mg  Mg7  1  0.34423700  0.99838700  0.99838700  1
  Mg  Mg8  1  0.68475400  0.28539500  0.68475400  1
  Mg  Mg9  1  0.99910100  0.59836000  0.31681500  1
  Mg  Mg10  1  0.59836000  0.99910100  0.31681500  1
  Mg  Mg11  1  0.28539500  0.68475400  0.68475400  1
  Mg  Mg12  1  0.99838700  0.34423700  0.99838700  1
  Mg  Mg13  1  0.99910100  0.31681500  0.59836000  1
  Mg  Mg14  1  0.40669100  0.70840000  0.40669100  1
  Mg  Mg15  1  0.31681500  0.59836000  0.99910100  1
  Al  Al0  1  0.35963600  0.35963600  0.17313500  1
  Al  Al1  1  0.18583900  0.18583900  0.81233400  1
  Al  Al2  1  0.81618900  0.63314200  0.00172000  1
  Al  Al3  1  0.00172000  0.81618900  0.63314200  1
  Al  Al4  1  0.35963600  0.17313500  0.35963600  1
  Al  Al5  1  0.00172000  0.63314200  0.81618900  1
  Al  Al6  1  0.18583900  0.81233400  0.18583900  1
  Al  Al7  1  0.81233400  0.18583900  0.18583900  1
  Al  Al8  1  0.63314200  0.00172000  0.81618900  1
  Al  Al9  1  0.17313500  0.35963600  0.35963600  1
  Al  Al10  1  0.81618900  0.00172000  0.63314200  1
  Al  Al11  1  0.63314200  0.81618900  0.00172000  1
  Ga  Ga0  1  0.67761000  0.67761000  0.67761000  1
loop_
_geom_bond_atom_site_label_1
_geom_bond_atom_site_label_2
_geom_bond_distance
_geom_bond_site_symmetry_2
Mg0 Mg11 3.119877 1_555
Mg0 Mg8 3.119877 1_555
Mg0 Mg4 3.166506 1_555
Mg0 Mg15 3.166506 1_555
Mg0 Mg6 3.222699 1_545
Mg0 Mg13 3.222699 1_455
Mg1 Mg2 3.149596 1_556
Mg1 Mg12 3.149596 1_565
Mg1 Mg7 3.149596 1_655
Mg2 Mg3 3.018602 1_555
Mg2 Mg6 3.042330 1_655
Mg3 Mg4 3.111737 1_554
Mg3 Mg5 3.119877 1_555
Mg3 Mg9 3.160109 1_555
Mg4 Mg7 3.042330 1_545
Mg4 Mg8 3.160109 1_555
Mg4 Mg9 3.167127 1_556
Mg4 Mg6 3.167127 1_545
Mg4 Mg5 3.222699 1_556
Mg5 Mg8 3.119877 1_555
Mg5 Mg9 3.166506 1_555
Mg6 Mg8 3.111737 1_565
Mg6 Mg9 3.167127 1_455
Mg10 Mg7 3.042330 1_554
Mg10 Mg8 3.111737 1_565
Mg10 Mg3 3.160109 1_555
Mg10 Mg14 3.166506 1_555
Mg10 Mg13 3.167127 1_565
Mg10 Mg15 3.167127 1_554
Mg10 Mg5 3.222699 1_565
Mg11 Mg7 3.018602 1_555
Mg11 Mg13 3.111737 1_455
Mg11 Mg9 3.111737 1_455
Mg11 Mg14 3.119877 1_555
Mg11 Mg15 3.160109 1_555
Mg11 Mg6 3.160109 1_555
Mg12 Mg8 3.018602 1_555
Mg12 Mg15 3.042330 1_655
Mg12 Mg9 3.042330 1_556
Mg13 Mg2 3.042330 1_545
Mg13 Mg8 3.160109 1_555
Mg13 Mg5 3.166506 1_555
Mg13 Mg15 3.167127 1_655
Mg14 Mg3 3.119877 1_555
Mg14 Mg6 3.166506 1_555
Mg14 Mg15 3.222699 1_554
Mg14 Mg9 3.222699 1_455
Mg15 Mg3 3.111737 1_556
Al0 Al1 2.682119 1_554
Al0 Al4 2.771368 1_555
Al0 Al9 2.771368 1_555
Al0 Mg3 2.947418 1_555
Al0 Mg5 2.960610 1_555
Al0 Mg14 2.960610 1_555
Al0 Mg7 3.068474 1_544
Al0 Mg12 3.068474 1_454
Al0 Mg4 3.134522 1_554
Al0 Mg15 3.134522 1_554
Al0 Mg1 3.163818 1_444
Al1 Al3 2.747437 1_545
Al1 Al10 2.747437 1_455
Al1 Mg6 2.964984 1_545
Al1 Mg13 2.964984 1_455
Al1 Mg0 2.968930 1_555
Al1 Mg7 3.129090 1_545
Al1 Mg12 3.129090 1_455
Al1 Mg4 3.133180 1_555
Al1 Mg15 3.133180 1_555
Al1 Mg1 3.256487 1_445
Al2 Al6 2.747437 1_655
Al2 Al5 2.756954 1_654
Al2 Mg4 2.887190 1_554
Al2 Mg8 2.976391 1_554
Al2 Mg9 2.977854 1_555
Al2 Ga0 3.018227 1_554
Al2 Mg2 3.080489 1_555
Al2 Mg0 3.137537 1_554
Al2 Mg3 3.152653 1_555
Al2 Mg1 3.194028 1_554
Al3 Al5 2.720042 1_555
Al3 Mg9 2.887191 1_455
Al3 Mg3 2.976391 1_455
Al3 Mg6 2.977854 1_555
Al3 Ga0 3.018227 1_455
Al3 Mg7 3.080489 1_555
Al3 Mg5 3.137536 1_455
Al3 Mg11 3.152653 1_555
Al3 Mg1 3.194028 1_455
Al4 Al6 2.682119 1_545
Al4 Al9 2.771368 1_555
Al4 Mg8 2.947418 1_555
Al4 Mg5 2.960610 1_555
Al4 Mg0 2.960610 1_555
Al4 Mg2 3.068474 1_445
Al4 Mg7 3.068474 1_544
Al4 Mg6 3.134522 1_545
Al4 Mg10 3.134522 1_545
Al4 Mg1 3.163818 1_444
Al5 Al6 2.747437 1_556
Al5 Mg13 2.887191 1_455
Al5 Mg8 2.976391 1_455
Al5 Mg15 2.977854 1_555
Al5 Ga0 3.018227 1_455
Al5 Mg7 3.080489 1_555
Al5 Mg5 3.137537 1_455
Al5 Mg11 3.152653 1_555
Al5 Mg1 3.194028 1_455
Al6 Mg9 2.964984 1_455
Al6 Mg15 2.964984 1_554
Al6 Mg14 2.968930 1_555
Al6 Mg7 3.129090 1_554
Al6 Mg2 3.129090 1_455
Al6 Mg10 3.133180 1_555
Al6 Mg6 3.133180 1_555
Al6 Mg1 3.256488 1_454
Al7 Al9 2.682119 1_655
Al7 Al8 2.747437 1_554
Al7 Mg10 2.964984 1_545
Al7 Mg4 2.964984 1_554
Al7 Mg5 2.968930 1_555
Al7 Mg12 3.129090 1_554
Al7 Mg2 3.129090 1_545
Al7 Mg9 3.133180 1_555
Al7 Mg13 3.133180 1_555
Al7 Mg1 3.256488 1_544
Al8 Mg6 2.887191 1_545
Al8 Mg11 2.976391 1_545
Al8 Mg4 2.977854 1_555
Al8 Ga0 3.018227 1_545
Al8 Mg12 3.080489 1_555
Al8 Mg14 3.137537 1_545
Al8 Mg8 3.152653 1_555
Al8 Mg1 3.194028 1_545
Al9 Mg11 2.947418 1_555
Al9 Mg14 2.960610 1_555
Al9 Mg0 2.960610 1_555
Al9 Mg2 3.068474 1_445
Al9 Mg12 3.068474 1_454
Al9 Mg13 3.134522 1_455
Al9 Mg9 3.134522 1_455
Al9 Mg1 3.163818 1_444
Al10 Al8 2.720042 1_555
Al10 Al3 2.756954 1_645
Al10 Mg10 2.887191 1_545
Al10 Mg3 2.976391 1_545
Al10 Mg13 2.977854 1_555
Al10 Ga0 3.018227 1_545
Al10 Mg12 3.080489 1_555
Al10 Mg14 3.137536 1_545
Al10 Mg8 3.152653 1_555
Al10 Mg1 3.194028 1_545
Al11 Al2 2.720043 1_555
Al11 Al7 2.747437 1_565
Al11 Al8 2.756954 1_564
Al11 Mg15 2.887190 1_554
Al11 Mg11 2.976391 1_554
Al11 Mg10 2.977854 1_555
Al11 Ga0 3.018227 1_554
Al11 Mg2 3.080489 1_555
Al11 Mg0 3.137537 1_554
Al11 Mg3 3.152653 1_555
Al11 Mg1 3.194028 1_554
Ga0 Mg1 2.912815 1_555
Ga0 Mg0 3.017354 1_555
Ga0 Mg14 3.017354 1_555
Ga0 Mg5 3.017354 1_555
