# generated using pymatgen
data_LiSm(MoO4)2
_symmetry_space_group_name_H-M   'P 1'
_cell_length_a   5.95159500
_cell_length_b   5.09265100
_cell_length_c   11.09827186
_cell_angle_alpha   67.31361552
_cell_angle_beta   90.00000000
_cell_angle_gamma   90.00000000
_symmetry_Int_Tables_number   1
_chemical_formula_structural   LiSm(MoO4)2
_chemical_formula_sum   'Li2 Sm2 Mo4 O16'
_cell_volume   310.35597238
_cell_formula_units_Z   2
loop_
 _symmetry_equiv_pos_site_id
 _symmetry_equiv_pos_as_xyz
  1  'x, y, z'
loop_
 _atom_site_type_symbol
 _atom_site_label
 _atom_site_symmetry_multiplicity
 _atom_site_fract_x
 _atom_site_fract_y
 _atom_site_fract_z
 _atom_site_occupancy
  Li  Li0  1  0.71587600  0.00000000  0.75000000  1
  Li  Li1  1  0.28412400  0.00000000  0.25000000  1
  Sm  Sm0  1  0.28739200  0.50000000  0.75000000  1
  Sm  Sm1  1  0.71260800  0.50000000  0.25000000  1
  Mo  Mo0  1  0.81728600  0.73474400  0.52227000  1
  Mo  Mo1  1  0.18271400  0.26525600  0.47773000  1
  Mo  Mo2  1  0.81728600  0.26525600  0.97773000  1
  Mo  Mo3  1  0.18271400  0.73474400  0.02227000  1
  O  O0  1  0.89596800  0.85822900  0.09309500  1
  O  O1  1  0.10403200  0.14177100  0.90690500  1
  O  O2  1  0.89596800  0.14177100  0.40690500  1
  O  O3  1  0.10403200  0.85822900  0.59309500  1
  O  O4  1  0.36453500  0.71901500  0.89478100  1
  O  O5  1  0.63546500  0.28098500  0.10521900  1
  O  O6  1  0.36453500  0.28098500  0.60521900  1
  O  O7  1  0.63546500  0.71901500  0.39478100  1
  O  O8  1  0.91102100  0.63599300  0.88503100  1
  O  O9  1  0.08897900  0.36400700  0.11496900  1
  O  O10  1  0.91102100  0.36400700  0.61496900  1
  O  O11  1  0.08897900  0.63599300  0.38503100  1
  O  O12  1  0.62454200  0.77721000  0.63715800  1
  O  O13  1  0.37545800  0.22279000  0.36284200  1
  O  O14  1  0.62454200  0.22279000  0.86284200  1
  O  O15  1  0.37545800  0.77721000  0.13715800  1
loop_
_geom_bond_atom_site_label_1
_geom_bond_atom_site_label_2
_geom_bond_distance
_geom_bond_site_symmetry_2
Li0 O12 2.060877 1_545
Li0 O14 2.060877 1_555
Li0 O10 2.210937 1_555
Li0 O8 2.210937 1_545
Li1 O15 2.060877 1_545
Li1 O13 2.060877 1_555
Li1 O11 2.210937 1_545
Li1 O9 2.210937 1_555
Mo0 O12 1.789181 1_555
Mo0 O7 1.807429 1_555
Mo0 O10 1.853645 1_555
Mo0 O2 2.026839 1_565
Mo0 O3 2.075353 1_655
Mo0 O11 2.403823 1_655
Mo1 O13 1.789181 1_555
Mo1 O6 1.807429 1_555
Mo1 O11 1.853645 1_555
Mo1 O3 2.026839 1_545
Mo1 O2 2.075353 1_455
Mo1 O10 2.403823 1_455
Mo2 O14 1.789181 1_555
Mo2 O5 1.807429 1_556
Mo2 O8 1.853645 1_555
Mo2 O0 2.026839 1_546
Mo2 O1 2.075353 1_655
Mo2 O9 2.403823 1_656
Mo3 O15 1.789181 1_555
Mo3 O4 1.807429 1_554
Mo3 O9 1.853645 1_555
Mo3 O1 2.026839 1_564
Mo3 O0 2.075353 1_455
Mo3 O8 2.403823 1_454
O0 Sm1 2.258528 1_555
O1 Sm0 2.258528 1_555
O2 Sm1 2.258528 1_555
O3 Sm0 2.258528 1_555
O4 Sm0 2.327908 1_555
O5 Sm1 2.327908 1_555
O6 Sm0 2.327908 1_555
O7 Sm1 2.327908 1_555
O12 Sm0 2.494787 1_555
O13 Sm1 2.494787 1_555
O14 Sm0 2.494787 1_555
O15 Sm1 2.494787 1_555
