# generated using pymatgen
data_S5(IO9)2
_symmetry_space_group_name_H-M   'P 1'
_cell_length_a   15.14327604
_cell_length_b   15.14327604
_cell_length_c   9.29278955
_cell_angle_alpha   76.71171756
_cell_angle_beta   76.71171756
_cell_angle_gamma   22.06998234
_symmetry_Int_Tables_number   1
_chemical_formula_structural   S5(IO9)2
_chemical_formula_sum   'S10 I4 O36'
_cell_volume   778.43859502
_cell_formula_units_Z   2
loop_
 _symmetry_equiv_pos_site_id
 _symmetry_equiv_pos_as_xyz
  1  'x, y, z'
loop_
 _atom_site_type_symbol
 _atom_site_label
 _atom_site_symmetry_multiplicity
 _atom_site_fract_x
 _atom_site_fract_y
 _atom_site_fract_z
 _atom_site_occupancy
  S  S0  1  0.74470600  0.83893400  0.82570300  1
  S  S1  1  0.16106600  0.25529400  0.67429700  1
  S  S2  1  0.25529400  0.16106600  0.17429700  1
  S  S3  1  0.83893400  0.74470600  0.32570300  1
  S  S4  1  0.67954100  0.32045900  0.25000000  1
  S  S5  1  0.32045900  0.67954100  0.75000000  1
  S  S6  1  0.48135400  0.68286500  0.22066700  1
  S  S7  1  0.31713500  0.51864600  0.27933300  1
  S  S8  1  0.51864600  0.31713500  0.77933300  1
  S  S9  1  0.68286500  0.48135400  0.72066700  1
  I  I0  1  0.05653800  0.65582600  0.00982600  1
  I  I1  1  0.34417400  0.94346200  0.49017400  1
  I  I2  1  0.94346200  0.34417400  0.99017400  1
  I  I3  1  0.65582600  0.05653800  0.50982600  1
  O  O0  1  0.97823200  0.62465000  0.91827100  1
  O  O1  1  0.37535000  0.02176800  0.58172900  1
  O  O2  1  0.02176800  0.37535000  0.08172900  1
  O  O3  1  0.62465000  0.97823200  0.41827100  1
  O  O4  1  0.31029300  0.86994700  0.32363100  1
  O  O5  1  0.13005300  0.68970700  0.17636900  1
  O  O6  1  0.68970700  0.13005300  0.67636900  1
  O  O7  1  0.86994700  0.31029300  0.82363100  1
  O  O8  1  0.82500300  0.23256600  0.12765900  1
  O  O9  1  0.76743400  0.17499700  0.37234100  1
  O  O10  1  0.17499700  0.76743400  0.87234100  1
  O  O11  1  0.23256600  0.82500300  0.62765900  1
  O  O12  1  0.55800100  0.06129000  0.87821700  1
  O  O13  1  0.93871000  0.44199900  0.62178300  1
  O  O14  1  0.44199900  0.93871000  0.12178300  1
  O  O15  1  0.06129000  0.55800100  0.37821700  1
  O  O16  1  0.39849000  0.75295000  0.08070500  1
  O  O17  1  0.24705000  0.60151000  0.41929500  1
  O  O18  1  0.60151000  0.24705000  0.91929500  1
  O  O19  1  0.75295000  0.39849000  0.58070500  1
  O  O20  1  0.85009400  0.79738100  0.66764500  1
  O  O21  1  0.20261900  0.14990600  0.83235500  1
  O  O22  1  0.14990600  0.20261900  0.33235500  1
  O  O23  1  0.79738100  0.85009400  0.16764500  1
  O  O24  1  0.46895200  0.46957000  0.17898400  1
  O  O25  1  0.53043000  0.53104800  0.32101600  1
  O  O26  1  0.53104800  0.53043000  0.82101600  1
  O  O27  1  0.46957000  0.46895200  0.67898400  1
  O  O28  1  0.71388600  0.51397400  0.21465900  1
  O  O29  1  0.48602600  0.28611400  0.28534100  1
  O  O30  1  0.28611400  0.48602600  0.78534100  1
  O  O31  1  0.51397400  0.71388600  0.71465900  1
  O  O32  1  0.72333600  0.76524900  0.82272700  1
  O  O33  1  0.23475100  0.27666400  0.67727300  1
  O  O34  1  0.27666400  0.23475100  0.17727300  1
  O  O35  1  0.76524900  0.72333600  0.32272700  1
loop_
_geom_bond_atom_site_label_1
_geom_bond_atom_site_label_2
_geom_bond_distance
_geom_bond_site_symmetry_2
I0 O0 2.009712 1_454
I0 O23 2.036144 1_455
I0 O30 2.369208 1_554
I0 O5 2.472552 1_555
I1 O1 2.009712 1_565
I1 O22 2.036144 1_565
I1 O31 2.369208 1_555
I1 O4 2.472552 1_555
I2 O2 2.009712 1_656
I2 O21 2.036144 1_655
I2 O28 2.369208 1_556
I2 O7 2.472552 1_555
I3 O3 2.009712 1_545
I3 O20 2.036144 1_545
I3 O29 2.369208 1_555
I3 O6 2.472552 1_555
O0 S0 1.619196 1_555
O1 S1 1.619196 1_555
O2 S2 1.619196 1_555
O3 S3 1.619196 1_555
O4 S6 1.468526 1_555
O5 S7 1.468526 1_555
O6 S8 1.468526 1_555
O7 S9 1.468526 1_555
O8 S4 1.423574 1_555
O9 S4 1.423574 1_555
O10 S5 1.423574 1_555
O11 S5 1.423574 1_555
O12 S0 1.430346 1_545
O13 S1 1.430346 1_655
O14 S2 1.430346 1_565
O15 S3 1.430346 1_455
O16 S6 1.428279 1_555
O17 S7 1.428279 1_555
O18 S8 1.428279 1_555
O19 S9 1.428279 1_555
O20 S0 1.608194 1_555
O21 S1 1.608194 1_555
O22 S2 1.608194 1_555
O23 S3 1.608194 1_555
O24 S4 1.624792 1_555
O24 S7 1.695184 1_555
O25 S4 1.624792 1_555
O25 S6 1.695184 1_555
O26 S5 1.624792 1_555
O26 S9 1.695184 1_555
O27 S5 1.624792 1_555
O27 S8 1.695184 1_555
O28 S6 1.492305 1_555
O29 S7 1.492305 1_555
O30 S8 1.492305 1_555
O31 S9 1.492305 1_555
O32 S0 1.427636 1_555
O33 S1 1.427636 1_555
O34 S2 1.427636 1_555
O35 S3 1.427636 1_555
