# generated using pymatgen
data_Ti3Pb5F19
_symmetry_space_group_name_H-M   'P 1'
_cell_length_a   11.15794962
_cell_length_b   11.15794962
_cell_length_c   11.15794962
_cell_angle_alpha   97.11517529
_cell_angle_beta   97.11517529
_cell_angle_gamma   138.78751845
_symmetry_Int_Tables_number   1
_chemical_formula_structural   Ti3Pb5F19
_chemical_formula_sum   'Ti6 Pb10 F38'
_cell_volume   856.69777207
_cell_formula_units_Z   2
loop_
 _symmetry_equiv_pos_site_id
 _symmetry_equiv_pos_as_xyz
  1  'x, y, z'
loop_
 _atom_site_type_symbol
 _atom_site_label
 _atom_site_symmetry_multiplicity
 _atom_site_fract_x
 _atom_site_fract_y
 _atom_site_fract_z
 _atom_site_occupancy
  Ti  Ti0  1  0.61063200  0.78336500  0.50000000  1
  Ti  Ti1  1  0.28336500  0.11063200  0.50000000  1
  Ti  Ti2  1  0.78336500  0.28336500  0.17273200  1
  Ti  Ti3  1  0.11063200  0.61063200  0.82726800  1
  Ti  Ti4  1  0.74907200  0.74907200  0.00000000  1
  Ti  Ti5  1  0.24907200  0.24907200  0.00000000  1
  Pb  Pb0  1  0.12835600  0.83276800  0.16623700  1
  Pb  Pb1  1  0.66653100  0.96211800  0.83376300  1
  Pb  Pb2  1  0.83276800  0.66653100  0.70441300  1
  Pb  Pb3  1  0.62835600  0.46211800  0.29558700  1
  Pb  Pb4  1  0.96211800  0.12835600  0.29558700  1
  Pb  Pb5  1  0.16653100  0.33276800  0.70441300  1
  Pb  Pb6  1  0.33276800  0.62835600  0.16623700  1
  Pb  Pb7  1  0.46211800  0.16653100  0.83376300  1
  Pb  Pb8  1  0.28419900  0.78419900  0.50000000  1
  Pb  Pb9  1  0.78419900  0.28419900  0.50000000  1
  F  F0  1  0.60449500  0.95713200  0.50000000  1
  F  F1  1  0.45713200  0.10449500  0.50000000  1
  F  F2  1  0.95713200  0.45713200  0.35263700  1
  F  F3  1  0.10449500  0.60449500  0.64736300  1
  F  F4  1  0.84331200  0.47146700  0.75438500  1
  F  F5  1  0.71708100  0.08892600  0.24561500  1
  F  F6  1  0.47146700  0.71708100  0.62815500  1
  F  F7  1  0.34331200  0.58892600  0.37184500  1
  F  F8  1  0.08892600  0.84331200  0.37184500  1
  F  F9  1  0.21708100  0.97146700  0.62815500  1
  F  F10  1  0.97146700  0.34331200  0.75438500  1
  F  F11  1  0.58892600  0.21708100  0.24561500  1
  F  F12  1  0.14083900  0.14626700  0.50000000  1
  F  F13  1  0.64626700  0.64083900  0.50000000  1
  F  F14  1  0.14626700  0.64626700  0.00542800  1
  F  F15  1  0.64083900  0.14083900  0.99457200  1
  F  F16  1  0.01576400  0.28985900  0.50000000  1
  F  F17  1  0.78985900  0.51576400  0.50000000  1
  F  F18  1  0.28985900  0.78985900  0.27409500  1
  F  F19  1  0.51576400  0.01576400  0.72590500  1
  F  F20  1  0.99926500  0.99926500  0.00000000  1
  F  F21  1  0.49926500  0.49926500  0.00000000  1
  F  F22  1  0.81389700  0.63695200  0.93585300  1
  F  F23  1  0.70109900  0.87804500  0.06414700  1
  F  F24  1  0.63695200  0.70109900  0.82305400  1
  F  F25  1  0.31389700  0.37804500  0.17694600  1
  F  F26  1  0.87804500  0.81389700  0.17694600  1
  F  F27  1  0.20109900  0.13695200  0.82305400  1
  F  F28  1  0.13695200  0.31389700  0.93585300  1
  F  F29  1  0.37804500  0.20109900  0.06414700  1
  F  F30  1  0.84553500  0.49951800  0.14512400  1
  F  F31  1  0.35439400  0.70041100  0.85487600  1
  F  F32  1  0.49951800  0.35439400  0.65398300  1
  F  F33  1  0.34553500  0.20041100  0.34601700  1
  F  F34  1  0.70041100  0.84553500  0.34601700  1
  F  F35  1  0.85439400  0.99951800  0.65398300  1
  F  F36  1  0.99951800  0.34553500  0.14512400  1
  F  F37  1  0.20041100  0.85439400  0.85487600  1
loop_
_geom_bond_atom_site_label_1
_geom_bond_atom_site_label_2
_geom_bond_distance
_geom_bond_site_symmetry_2
F0 Ti0 1.990907 1_555
F0 Pb8 2.473924 1_555
F0 Pb9 2.515777 1_565
F1 Ti1 1.990907 1_555
F1 Pb8 2.473924 1_545
F1 Pb9 2.515777 1_555
F2 Ti2 1.990916 1_555
F2 Pb9 2.473924 1_555
F2 Pb8 2.515777 1_655
F3 Ti3 1.990919 1_555
F3 Pb9 2.473924 1_455
F3 Pb8 2.515777 1_555
F4 Ti3 2.021661 1_655
F4 Pb2 2.394078 1_555
F5 Ti2 2.021671 1_555
F5 Pb4 2.394073 1_555
F6 Ti0 2.021658 1_555
F6 Pb1 2.394082 1_555
F7 Ti0 2.021658 1_555
F7 Pb6 2.394086 1_555
F8 Ti1 2.021658 1_565
F8 Pb0 2.394086 1_555
F9 Ti1 2.021658 1_565
F9 Pb7 2.394082 1_565
F10 Ti3 2.021661 1_655
F10 Pb5 2.394078 1_655
F11 Ti2 2.021671 1_555
F11 Pb3 2.394073 1_555
F12 Ti1 1.907486 1_555
F12 Pb5 2.716520 1_555
F12 Pb4 2.716526 1_455
F13 Ti0 1.907486 1_555
F13 Pb2 2.716520 1_555
F13 Pb3 2.716526 1_555
F14 Ti3 1.907475 1_554
F14 Pb0 2.716512 1_555
F14 Pb6 2.716512 1_555
F15 Ti2 1.907477 1_556
F15 Pb7 2.716520 1_555
F15 Pb1 2.716520 1_545
F16 Pb4 2.414234 1_455
F16 Pb5 2.414239 1_555
F16 Pb9 2.536623 1_455
F17 Pb3 2.414234 1_555
F17 Pb2 2.414239 1_555
F17 Pb9 2.536623 1_555
F18 Pb0 2.414230 1_555
F18 Pb6 2.414230 1_555
F18 Pb8 2.536623 1_555
F19 Pb7 2.414239 1_555
F19 Pb1 2.414239 1_545
F19 Pb8 2.536623 1_545
F20 Ti5 1.961969 1_665
F20 Ti4 1.965000 1_555
F21 Ti4 1.961969 1_555
F21 Ti5 1.965000 1_555
F22 Ti4 1.966831 1_556
F22 Pb2 2.657690 1_555
F23 Ti4 1.966841 1_555
F23 Pb4 2.657690 1_565
F24 Ti4 1.966841 1_556
F24 Pb1 2.657689 1_555
F25 Ti5 1.966845 1_555
F25 Pb6 2.657692 1_555
F26 Ti4 1.966845 1_555
F26 Pb0 2.657692 1_655
F27 Ti5 1.966841 1_556
F27 Pb7 2.657689 1_555
F28 Ti5 1.966831 1_556
F28 Pb5 2.657690 1_555
F29 Ti5 1.966841 1_555
F29 Pb3 2.657690 1_555
F30 Ti2 2.028004 1_555
F30 Pb0 2.405140 1_655
F31 Ti3 2.028008 1_555
F31 Pb1 2.405138 1_555
F32 Ti1 2.028007 1_555
F32 Pb2 2.405138 1_555
F33 Ti1 2.028007 1_555
F33 Pb3 2.405143 1_555
F34 Ti0 2.028007 1_555
F34 Pb4 2.405143 1_565
F35 Ti0 2.028007 1_555
F35 Pb5 2.405138 1_665
F36 Ti2 2.028004 1_555
F36 Pb6 2.405140 1_655
F37 Ti3 2.028008 1_555
F37 Pb7 2.405138 1_565
