# generated using pymatgen
data_Al8V5
_symmetry_space_group_name_H-M   'P 1'
_cell_length_a   7.93622846
_cell_length_b   7.93622846
_cell_length_c   7.87528721
_cell_angle_alpha   71.16746218
_cell_angle_beta   71.16746218
_cell_angle_gamma   110.10928208
_symmetry_Int_Tables_number   1
_chemical_formula_structural   Al8V5
_chemical_formula_sum   'Al16 V10'
_cell_volume   384.76750825
_cell_formula_units_Z   2
loop_
 _symmetry_equiv_pos_site_id
 _symmetry_equiv_pos_as_xyz
  1  'x, y, z'
loop_
 _atom_site_type_symbol
 _atom_site_label
 _atom_site_symmetry_multiplicity
 _atom_site_fract_x
 _atom_site_fract_y
 _atom_site_fract_z
 _atom_site_occupancy
  Al  Al0  1  0.64328454  0.38110019  0.35022379  1
  Al  Al1  1  0.65405607  0.65405607  0.60242057  1
  Al  Al2  1  0.38110019  0.64328454  0.35022379  1
  Al  Al3  1  0.25866368  0.61392441  0.73350766  1
  Al  Al4  1  0.75678964  0.34963049  0.98664714  1
  Al  Al5  1  0.00736291  0.35685318  0.26420062  1
  Al  Al6  1  0.35685318  0.00736291  0.26420062  1
  Al  Al7  1  0.34963049  0.75678964  0.98664714  1
  Al  Al8  1  0.61392441  0.25866368  0.73350766  1
  Al  Al9  1  0.73862924  0.00726606  0.64665432  1
  Al  Al10  1  0.24934806  0.24934806  0.40940770  1
  Al  Al11  1  0.00726606  0.73862924  0.64665432  1
  Al  Al12  1  0.64750171  0.00151885  0.35385028  1
  Al  Al13  1  0.64562739  0.64562739  0.99872796  1
  Al  Al14  1  0.00151885  0.64750171  0.35385028  1
  Al  Al15  1  0.35493860  0.35493860  0.99911138  1
  V  V0  1  0.34096011  0.34096011  0.66545065  1
  V  V1  1  0.99208136  0.66113438  0.00644813  1
  V  V2  1  0.66113438  0.99208136  0.00644813  1
  V  V3  1  0.00191135  0.00191135  0.33316342  1
  V  V4  1  0.00366664  0.34476747  0.64625343  1
  V  V5  1  0.34476747  0.00366664  0.64625343  1
  V  V6  1  0.78953697  0.78953697  0.20779902  1
  V  V7  1  0.00331608  0.20260510  0.00310847  1
  V  V8  1  0.20260510  0.00331608  0.00310847  1
  V  V9  1  0.99352952  0.99352952  0.80213264  1
loop_
_geom_bond_atom_site_label_1
_geom_bond_atom_site_label_2
_geom_bond_distance
_geom_bond_site_symmetry_2
Al0 V1 2.641643 1_555
Al0 V5 2.658244 1_555
Al0 V0 2.671975 1_555
Al0 V6 2.708772 1_555
Al0 Al10 2.753455 1_555
Al0 Al8 2.757953 1_555
Al0 Al4 2.832550 1_554
Al0 Al5 2.836795 1_655
Al0 Al13 2.873725 1_554
Al0 Al14 2.917500 1_655
Al0 Al12 3.015154 1_555
Al1 V0 2.599370 1_555
Al1 V6 2.619311 1_555
Al1 V3 2.634332 1_665
Al1 Al15 2.753093 1_555
Al1 Al9 2.813747 1_565
Al1 Al11 2.813747 1_655
Al1 Al8 2.832466 1_555
Al1 Al3 2.832466 1_555
Al1 Al12 2.849237 1_565
Al1 Al14 2.849237 1_655
Al1 Al13 3.078500 1_555
Al2 V2 2.641643 1_555
Al2 V4 2.658244 1_555
Al2 V0 2.671975 1_555
Al2 V6 2.708772 1_555
Al2 Al3 2.757953 1_555
Al2 Al7 2.832550 1_554
Al2 Al6 2.836795 1_565
Al3 V0 2.627397 1_555
Al3 V1 2.713987 1_456
Al3 V5 2.716171 1_565
Al3 V7 2.733009 1_556
Al3 Al7 2.757993 1_555
Al3 V4 2.829030 1_555
Al4 V2 2.609445 1_546
Al4 V7 2.615722 1_656
Al4 V1 2.624006 1_556
Al4 Al8 2.757993 1_555
Al4 V4 2.784655 1_655
Al4 Al6 2.826607 1_556
Al5 V3 2.673030 1_555
Al5 V1 2.676236 1_455
Al5 V7 2.714417 1_555
Al5 Al9 2.776121 1_455
Al5 Al7 2.826607 1_554
Al5 V4 2.969438 1_555
Al6 V3 2.673030 1_555
Al6 V2 2.676236 1_545
Al6 V8 2.714417 1_555
Al6 V5 2.969438 1_555
Al7 V1 2.609445 1_456
Al7 V8 2.615722 1_566
Al7 V2 2.624006 1_556
Al7 Al9 2.767441 1_565
Al7 V5 2.784655 1_565
Al8 V0 2.627397 1_555
Al8 Al9 2.688812 1_555
Al8 V2 2.713987 1_546
Al8 V4 2.716171 1_655
Al8 V8 2.733009 1_556
Al8 V5 2.829030 1_555
Al9 V2 2.650454 1_546
Al9 V3 2.694663 1_655
Al9 V9 2.695934 1_545
Al9 V4 2.777557 1_655
Al9 V5 3.117104 1_555
Al10 V0 2.579267 1_555
Al10 V9 2.620543 1_445
Al10 V3 2.635101 1_555
Al10 V4 2.726435 1_555
Al10 V5 2.726435 1_555
Al10 Al2 2.753455 1_555
Al10 Al6 2.763759 1_555
Al10 Al5 2.763759 1_555
Al10 Al15 2.804641 1_554
Al11 Al14 2.638983 1_555
Al11 V1 2.650454 1_456
Al11 Al3 2.688812 1_555
Al11 V3 2.694663 1_565
Al11 V9 2.695934 1_455
Al11 Al4 2.767441 1_455
Al11 Al6 2.776121 1_565
Al11 V5 2.777557 1_565
Al11 Al13 2.924775 1_455
Al11 V4 3.117104 1_555
Al12 Al6 2.631554 1_555
Al12 Al9 2.638983 1_555
Al12 V6 2.672086 1_545
Al12 V7 2.677714 1_655
Al12 V2 2.729319 1_545
Al12 V5 2.748997 1_555
Al12 V3 2.763243 1_655
Al12 Al4 2.884883 1_554
Al12 Al5 2.912423 1_655
Al12 Al2 2.917500 1_545
Al12 Al3 3.082659 1_545
Al13 V6 2.617417 1_556
Al13 V9 2.623371 1_555
Al13 Al15 2.641144 1_555
Al13 V2 2.731095 1_556
Al13 V1 2.731095 1_556
Al13 Al7 2.796559 1_555
Al13 Al4 2.796559 1_555
Al13 Al2 2.873725 1_556
Al13 Al9 2.924775 1_565
Al14 Al5 2.631554 1_555
Al14 V6 2.672086 1_455
Al14 V8 2.677714 1_565
Al14 V1 2.729319 1_455
Al14 V4 2.748997 1_555
Al14 V3 2.763243 1_565
Al14 Al7 2.884883 1_554
Al14 Al6 2.912423 1_565
Al14 Al2 3.015154 1_555
Al14 Al8 3.082659 1_455
Al15 V7 2.616999 1_556
Al15 V8 2.616999 1_556
Al15 V0 2.701336 1_555
Al15 V3 2.775865 1_556
Al15 Al5 2.880796 1_556
Al15 Al6 2.880796 1_556
Al15 Al8 2.918839 1_555
Al15 Al3 2.918839 1_555
V0 V7 2.636021 1_556
V0 V8 2.636021 1_556
V0 V9 2.702573 1_445
V0 V4 2.739192 1_555
V0 V5 2.739192 1_555
V1 V6 2.580832 1_555
V1 V9 2.602860 1_554
V1 V8 2.640540 1_665
V1 V5 2.816796 1_664
V2 V6 2.580832 1_555
V2 V9 2.602860 1_554
V2 V7 2.640540 1_665
V2 V4 2.816796 1_664
V3 V7 2.567001 1_555
V3 V8 2.567001 1_555
V3 V6 2.617527 1_445
V4 V9 2.618484 1_445
V4 V7 2.667708 1_556
V5 V9 2.618484 1_445
V5 V8 2.667708 1_556
V6 V9 2.639656 1_554
V6 V7 2.687345 1_665
V6 V8 2.687345 1_665
V7 V8 2.592876 1_555
V7 V9 2.636385 1_444
V8 V9 2.636385 1_444
