# generated using pymatgen
data_EuZnIn
_symmetry_space_group_name_H-M   'P 1'
_cell_length_a   6.06779925
_cell_length_b   6.06779925
_cell_length_c   7.70663406
_cell_angle_alpha   51.52032638
_cell_angle_beta   51.52032638
_cell_angle_gamma   46.26788090
_symmetry_Int_Tables_number   1
_chemical_formula_structural   EuZnIn
_chemical_formula_sum   'Eu2 Zn2 In2'
_cell_volume   150.96360752
_cell_formula_units_Z   2
loop_
 _symmetry_equiv_pos_site_id
 _symmetry_equiv_pos_as_xyz
  1  'x, y, z'
loop_
 _atom_site_type_symbol
 _atom_site_label
 _atom_site_symmetry_multiplicity
 _atom_site_fract_x
 _atom_site_fract_y
 _atom_site_fract_z
 _atom_site_occupancy
  Eu  Eu0  1  0.53979468  0.53979468  0.70542409  1
  Eu  Eu1  1  0.46020532  0.46020532  0.29457591  1
  Zn  Zn0  1  0.15494548  0.15494548  0.29883985  1
  Zn  Zn1  1  0.84505452  0.84505452  0.70116015  1
  In  In0  1  0.82837820  0.82837820  0.11377415  1
  In  In1  1  0.17162180  0.17162180  0.88622585  1
loop_
_geom_bond_atom_site_label_1
_geom_bond_atom_site_label_2
_geom_bond_distance
_geom_bond_site_symmetry_2
Eu0 Zn1 3.240968 1_545
Eu0 Zn1 3.240968 1_455
Eu0 In1 3.327987 1_555
Eu0 In0 3.332452 1_546
Eu0 In0 3.332452 1_456
Eu0 In0 3.360014 1_555
Eu0 Zn1 3.384479 1_555
Eu0 Zn0 3.421038 1_565
Eu0 Zn0 3.421038 1_655
Eu0 In1 3.544432 1_655
Eu0 In1 3.544432 1_565
Eu0 Zn0 3.574862 1_556
Eu0 Eu1 3.823597 1_555
Eu0 Eu1 3.993297 1_556
Eu0 Eu1 4.197250 1_565
Eu0 Eu1 4.197250 1_655
Eu1 Zn0 3.240968 1_565
Eu1 Zn0 3.240968 1_655
Eu1 In0 3.327987 1_555
Eu1 In1 3.332452 1_564
Eu1 In1 3.332452 1_654
Eu1 In1 3.360014 1_555
Eu1 Zn0 3.384479 1_555
Eu1 Zn1 3.421038 1_455
Eu1 Zn1 3.421038 1_545
Eu1 In0 3.544432 1_545
Eu1 In0 3.544432 1_455
Eu1 Zn1 3.574862 1_554
Zn0 Zn1 2.657514 1_445
In0 Zn0 2.779860 1_565
In0 Zn0 2.779860 1_655
In0 In1 2.942377 1_664
In0 Zn1 3.057011 1_554
In1 Zn1 2.779860 1_455
In1 Zn1 2.779860 1_545
In1 Zn0 3.057011 1_556
