# generated using pymatgen
data_Li4MnCo2O7
_symmetry_space_group_name_H-M   'P 1'
_cell_length_a   7.77941115
_cell_length_b   7.77941115
_cell_length_c   13.14556407
_cell_angle_alpha   61.48985970
_cell_angle_beta   61.48985970
_cell_angle_gamma   21.42172292
_symmetry_Int_Tables_number   1
_chemical_formula_structural   Li4MnCo2O7
_chemical_formula_sum   'Li8 Mn2 Co4 O14'
_cell_volume   253.97513335
_cell_formula_units_Z   2
loop_
 _symmetry_equiv_pos_site_id
 _symmetry_equiv_pos_as_xyz
  1  'x, y, z'
loop_
 _atom_site_type_symbol
 _atom_site_label
 _atom_site_symmetry_multiplicity
 _atom_site_fract_x
 _atom_site_fract_y
 _atom_site_fract_z
 _atom_site_occupancy
  Li  Li0  1  0.64241900  0.64241900  0.77706300  1
  Li  Li1  1  0.93387600  0.93387600  0.35728900  1
  Li  Li2  1  0.21837300  0.21837300  0.93061200  1
  Li  Li3  1  0.07714600  0.07714600  0.63676900  1
  Li  Li4  1  0.35199300  0.35199300  0.22300100  1
  Li  Li5  1  0.50111400  0.50111400  0.48897500  1
  Li  Li6  1  0.78173000  0.78173000  0.08299500  1
  Li  Li7  1  0.14097600  0.14097600  0.28852200  1
  Mn  Mn0  1  0.00062400  0.00062400  0.00070500  1
  Mn  Mn1  1  0.57155300  0.57155300  0.15420900  1
  Co  Co0  1  0.28508800  0.28508800  0.56751700  1
  Co  Co1  1  0.85648900  0.85648900  0.71215800  1
  Co  Co2  1  0.42762400  0.42762400  0.85499400  1
  Co  Co3  1  0.71335700  0.71335700  0.41301900  1
  O  O0  1  0.59632500  0.59632500  0.97879800  1
  O  O1  1  0.88640400  0.88640400  0.53567500  1
  O  O2  1  0.16758200  0.16758200  0.11119400  1
  O  O3  1  0.02899000  0.02899000  0.82237500  1
  O  O4  1  0.30669000  0.30669000  0.40120200  1
  O  O5  1  0.44989700  0.44989700  0.68713300  1
  O  O6  1  0.75055500  0.75055500  0.25943000  1
  O  O7  1  0.68680700  0.68680700  0.60391900  1
  O  O8  1  0.97630300  0.97630300  0.17765600  1
  O  O9  1  0.26166100  0.26166100  0.74168800  1
  O  O10  1  0.11622100  0.11622100  0.46291800  1
  O  O11  1  0.40343900  0.40343900  0.03072100  1
  O  O12  1  0.53853300  0.53853300  0.30747900  1
  O  O13  1  0.82823500  0.82823500  0.89198500  1
loop_
_geom_bond_atom_site_label_1
_geom_bond_atom_site_label_2
_geom_bond_distance
_geom_bond_site_symmetry_2
Li0 O7 2.034801 1_555
Li0 O3 2.109195 1_565
Li0 O3 2.109195 1_655
Li0 O9 2.192300 1_565
Li0 O9 2.192300 1_655
Li0 O0 2.390327 1_555
Li1 O12 2.015248 1_655
Li1 O12 2.015248 1_565
Li1 O1 2.090983 1_555
Li1 O8 2.123381 1_555
Li1 O4 2.261370 1_565
Li1 O4 2.261370 1_655
Li2 O13 2.083397 1_455
Li2 O13 2.083397 1_545
Li2 O2 2.108857 1_556
Li2 O0 2.196529 1_545
Li2 O0 2.196529 1_455
Li2 O9 2.238080 1_555
Li3 O10 2.062374 1_555
Li3 O7 2.093820 1_455
Li3 O7 2.093820 1_545
Li3 O3 2.179433 1_555
Li3 O5 2.249849 1_455
Li3 O5 2.249849 1_545
Li4 O6 2.000772 1_455
Li4 O6 2.000772 1_545
Li4 O4 2.095462 1_555
Li4 O8 2.226373 1_545
Li4 O8 2.226373 1_455
Li4 O11 2.253012 1_555
Li5 O1 2.120532 1_545
Li5 O1 2.120532 1_455
Li5 O12 2.166469 1_555
Li5 O10 2.172271 1_655
Li5 O10 2.172271 1_565
Li5 O5 2.327439 1_555
Li6 O6 2.128973 1_555
Li6 O2 2.155133 1_655
Li6 O2 2.155133 1_565
Li6 O11 2.186879 1_565
Li6 O11 2.186879 1_655
Li6 O13 2.252968 1_554
Li7 O12 2.055743 1_455
Li7 O12 2.055743 1_545
Li7 O6 2.102519 1_455
Li7 O6 2.102519 1_545
Li7 O10 2.134481 1_555
Li7 O2 2.162909 1_555
Mn0 O11 1.970777 1_545
Mn0 O11 1.970777 1_455
Mn0 O0 1.975987 1_544
Mn0 O0 1.975987 1_454
Mn0 O3 2.166999 1_554
Mn0 O8 2.169977 1_445
Mn1 O12 1.823780 1_555
Mn1 O2 1.938778 1_565
Mn1 O2 1.938778 1_655
Mn1 O8 1.967169 1_455
Mn1 O8 1.967169 1_545
Mn1 O0 2.147573 1_554
Co0 O7 1.969355 1_455
Co0 O7 1.969355 1_545
Co0 O1 2.008681 1_455
Co0 O1 2.008681 1_545
Co0 O4 2.046340 1_555
Co0 O9 2.138632 1_555
Co1 O5 1.944584 1_565
Co1 O5 1.944584 1_655
Co1 O9 1.948333 1_655
Co1 O9 1.948333 1_565
Co1 O1 2.135554 1_555
Co1 O13 2.186937 1_555
Co2 O13 1.979322 1_545
Co2 O13 1.979322 1_455
Co2 O3 2.007519 1_565
Co2 O3 2.007519 1_655
Co2 O5 2.062803 1_555
Co2 O11 2.154795 1_556
Co3 O6 1.812265 1_555
Co3 O10 1.944096 1_565
Co3 O10 1.944096 1_655
Co3 O4 1.983710 1_565
Co3 O4 1.983710 1_655
Co3 O7 2.339375 1_555
