# generated using pymatgen
data_TmMgGa
_symmetry_space_group_name_H-M   'P 1'
_cell_length_a   7.15521951
_cell_length_b   7.15521979
_cell_length_c   4.37323114
_cell_angle_alpha   90.00000000
_cell_angle_beta   90.00000000
_cell_angle_gamma   120.00000686
_symmetry_Int_Tables_number   1
_chemical_formula_structural   TmMgGa
_chemical_formula_sum   'Tm3 Mg3 Ga3'
_cell_volume   193.90051996
_cell_formula_units_Z   3
loop_
 _symmetry_equiv_pos_site_id
 _symmetry_equiv_pos_as_xyz
  1  'x, y, z'
loop_
 _atom_site_type_symbol
 _atom_site_label
 _atom_site_symmetry_multiplicity
 _atom_site_fract_x
 _atom_site_fract_y
 _atom_site_fract_z
 _atom_site_occupancy
  Tm  Tm0  1  0.00000000  0.57258775  0.00000000  1
  Tm  Tm1  1  0.42741225  0.42741225  -0.00000000  1
  Tm  Tm2  1  0.57258775  0.00000000  0.00000000  1
  Mg  Mg0  1  -0.00000000  0.24369779  0.50000000  1
  Mg  Mg1  1  0.75630221  0.75630221  0.50000000  1
  Mg  Mg2  1  0.24369779  -0.00000000  0.50000000  1
  Ga  Ga0  1  0.66666700  0.33333300  0.50000000  1
  Ga  Ga1  1  0.33333300  0.66666700  0.50000000  1
  Ga  Ga2  1  -0.00000000  0.00000000  -0.00000000  1
loop_
_geom_bond_atom_site_label_1
_geom_bond_atom_site_label_2
_geom_bond_distance
_geom_bond_site_symmetry_2
Ga0 Mg0 2.762172 1_655
Ga0 Mg2 2.762176 1_555
Ga0 Mg1 2.762179 1_555
Ga0 Tm2 3.052452 1_555
Ga0 Tm2 3.052452 1_556
Ga0 Tm0 3.052453 1_655
Ga0 Tm0 3.052453 1_656
Ga0 Tm1 3.052457 1_555
Ga0 Tm1 3.052457 1_556
Ga1 Mg2 2.762172 1_565
Ga1 Mg0 2.762176 1_555
Ga1 Mg1 2.762179 1_555
Ga1 Tm0 3.052452 1_555
Ga1 Tm0 3.052452 1_556
Ga1 Tm2 3.052453 1_566
Ga1 Tm2 3.052453 1_565
Ga1 Tm1 3.052457 1_556
Ga1 Tm1 3.052457 1_555
Ga2 Mg1 2.796751 1_444
Ga2 Mg1 2.796751 1_445
Ga2 Mg2 2.796751 1_555
Ga2 Mg2 2.796751 1_554
Ga2 Mg0 2.796751 1_554
Ga2 Mg0 2.796751 1_555
Ga2 Tm1 3.058228 1_555
Ga2 Tm2 3.058228 1_455
Ga2 Tm0 3.058229 1_545
