# generated using pymatgen
data_ErMn3(FeSn2)3
_symmetry_space_group_name_H-M   'P 1'
_cell_length_a   5.45457346
_cell_length_b   5.45704346
_cell_length_c   9.02481900
_cell_angle_alpha   89.99932752
_cell_angle_beta   90.00114286
_cell_angle_gamma   119.99615215
_symmetry_Int_Tables_number   1
_chemical_formula_structural   ErMn3(FeSn2)3
_chemical_formula_sum   'Er1 Mn3 Fe3 Sn6'
_cell_volume   232.65060026
_cell_formula_units_Z   1
loop_
 _symmetry_equiv_pos_site_id
 _symmetry_equiv_pos_as_xyz
  1  'x, y, z'
loop_
 _atom_site_type_symbol
 _atom_site_label
 _atom_site_symmetry_multiplicity
 _atom_site_fract_x
 _atom_site_fract_y
 _atom_site_fract_z
 _atom_site_occupancy
  Er  Er0  1  0.99998000  0.99999700  0.00011400  1
  Mn  Mn0  1  0.49999300  0.99999900  0.24674100  1
  Mn  Mn1  1  0.49999300  0.50000600  0.24673900  1
  Mn  Mn2  1  0.99998700  0.49999600  0.24674400  1
  Fe  Fe0  1  0.49999500  0.00000100  0.75241500  1
  Fe  Fe1  1  0.49999300  0.50000500  0.75243700  1
  Fe  Fe2  1  0.99998600  0.49999500  0.75244100  1
  Sn  Sn0  1  0.99999300  0.00000200  0.33495100  1
  Sn  Sn1  1  0.99999200  0.99999900  0.66413700  1
  Sn  Sn2  1  0.33320400  0.66659700  0.99956400  1
  Sn  Sn3  1  0.66673700  0.33340800  0.99956400  1
  Sn  Sn4  1  0.33319900  0.66657600  0.50207500  1
  Sn  Sn5  1  0.66674800  0.33342000  0.50207900  1
loop_
_geom_bond_atom_site_label_1
_geom_bond_atom_site_label_2
_geom_bond_distance
_geom_bond_site_symmetry_2
Er0 Sn0 3.021843 1_565
Er0 Sn1 3.032132 1_554
Er0 Sn2 3.149654 1_654
Er0 Sn3 3.149753 1_664
Er0 Sn3 3.149796 1_564
Er0 Sn2 3.149842 1_554
Er0 Sn3 3.150385 1_554
Er0 Sn2 3.150437 1_664
Er0 Fe0 3.526280 1_564
Er0 Fe0 3.526458 1_664
Er0 Fe1 3.526785 1_554
Er0 Fe1 3.526902 1_664
Er0 Fe2 3.527134 1_564
Er0 Fe2 3.527217 1_554
Mn0 Sn2 2.731114 1_554
Mn0 Sn3 2.731128 1_564
Mn0 Sn4 2.791616 1_555
Mn0 Sn5 2.791646 1_565
Mn0 Sn0 2.841074 1_565
Mn0 Sn0 2.841121 1_465
Mn1 Sn3 2.730698 1_554
Mn1 Sn2 2.730755 1_554
Mn1 Sn5 2.791168 1_555
Mn1 Sn4 2.791247 1_555
Mn1 Sn0 2.841831 1_565
Mn1 Sn0 2.841865 1_455
Mn2 Sn2 2.730239 1_654
Mn2 Sn3 2.730287 1_554
Mn2 Sn4 2.790610 1_655
Mn2 Sn5 2.790754 1_555
Mn2 Sn0 2.842251 1_555
Mn2 Sn0 2.842300 1_565
Fe0 Fe2 2.728022 1_555
Fe0 Fe2 2.728104 1_445
Fe0 Fe1 2.728494 1_545
Fe0 Fe1 2.728549 1_555
Fe0 Sn2 2.730908 1_545
Fe0 Sn3 2.730922 1_555
Fe0 Sn5 2.754490 1_555
Fe0 Sn4 2.754541 1_545
Fe0 Sn1 2.841265 1_445
Fe0 Sn1 2.841274 1_545
Fe1 Fe2 2.727276 1_555
Fe1 Fe2 2.727298 1_455
Fe1 Sn3 2.730295 1_555
Fe1 Sn2 2.730451 1_555
Fe1 Sn5 2.754209 1_555
Fe1 Sn4 2.754259 1_555
Fe1 Sn1 2.842058 1_555
Fe1 Sn1 2.842082 1_445
Fe2 Sn2 2.729780 1_655
Fe2 Sn3 2.729906 1_555
Fe2 Sn5 2.753767 1_555
Fe2 Sn4 2.753772 1_655
Fe2 Sn1 2.842517 1_555
Fe2 Sn1 2.842525 1_545
Sn0 Sn1 2.970844 1_545
