# generated using pymatgen
data_MnB2(H7N)2
_symmetry_space_group_name_H-M   'P 1'
_cell_length_a   8.82837800
_cell_length_b   9.45307600
_cell_length_c   18.03328900
_cell_angle_alpha   90.00000000
_cell_angle_beta   90.00000000
_cell_angle_gamma   90.00000000
_symmetry_Int_Tables_number   1
_chemical_formula_structural   MnB2(H7N)2
_chemical_formula_sum   'Mn8 B16 H112 N16'
_cell_volume   1504.97405185
_cell_formula_units_Z   8
loop_
 _symmetry_equiv_pos_site_id
 _symmetry_equiv_pos_as_xyz
  1  'x, y, z'
loop_
 _atom_site_type_symbol
 _atom_site_label
 _atom_site_symmetry_multiplicity
 _atom_site_fract_x
 _atom_site_fract_y
 _atom_site_fract_z
 _atom_site_occupancy
  Mn  Mn0  1  0.52663900  0.63710800  0.87667400  1
  Mn  Mn1  1  0.97336100  0.36289200  0.37667400  1
  Mn  Mn2  1  0.02663900  0.86289200  0.12332600  1
  Mn  Mn3  1  0.47336100  0.13710800  0.62332600  1
  Mn  Mn4  1  0.47336100  0.36289200  0.12332600  1
  Mn  Mn5  1  0.02663900  0.63710800  0.62332600  1
  Mn  Mn6  1  0.97336100  0.13710800  0.87667400  1
  Mn  Mn7  1  0.52663900  0.86289200  0.37667400  1
  B  B0  1  0.77279400  0.57728300  0.86451200  1
  B  B1  1  0.72720600  0.42271700  0.36451200  1
  B  B2  1  0.27279400  0.92271700  0.13548800  1
  B  B3  1  0.22720600  0.07728300  0.63548800  1
  B  B4  1  0.22720600  0.42271700  0.13548800  1
  B  B5  1  0.27279400  0.57728300  0.63548800  1
  B  B6  1  0.72720600  0.07728300  0.86451200  1
  B  B7  1  0.77279400  0.92271700  0.36451200  1
  B  B8  1  0.32560200  0.47449900  0.89170900  1
  B  B9  1  0.17439800  0.52550100  0.39170900  1
  B  B10  1  0.82560200  0.02550100  0.10829100  1
  B  B11  1  0.67439800  0.97449900  0.60829100  1
  B  B12  1  0.67439800  0.52550100  0.10829100  1
  B  B13  1  0.82560200  0.47449900  0.60829100  1
  B  B14  1  0.17439800  0.97449900  0.89170900  1
  B  B15  1  0.32560200  0.02550100  0.39170900  1
  H  H0  1  0.42197000  0.85168000  0.96660600  1
  H  H1  1  0.07803000  0.14832000  0.46660600  1
  H  H2  1  0.92197000  0.64832000  0.03339400  1
  H  H3  1  0.57803000  0.35168000  0.53339400  1
  H  H4  1  0.57803000  0.14832000  0.03339400  1
  H  H5  1  0.92197000  0.85168000  0.53339400  1
  H  H6  1  0.07803000  0.35168000  0.96660600  1
  H  H7  1  0.42197000  0.64832000  0.46660600  1
  H  H8  1  0.60832000  0.85806300  0.96887000  1
  H  H9  1  0.89168000  0.14193700  0.46887000  1
  H  H10  1  0.10832000  0.64193700  0.03113000  1
  H  H11  1  0.39168000  0.35806300  0.53113000  1
  H  H12  1  0.39168000  0.14193700  0.03113000  1
  H  H13  1  0.10832000  0.85806300  0.53113000  1
  H  H14  1  0.89168000  0.35806300  0.96887000  1
  H  H15  1  0.60832000  0.64193700  0.46887000  1
  H  H16  1  0.51851600  0.74111900  0.01973600  1
  H  H17  1  0.98148400  0.25888100  0.51973600  1
  H  H18  1  0.01851600  0.75888100  0.98026400  1
  H  H19  1  0.48148400  0.24111900  0.48026400  1
  H  H20  1  0.48148400  0.25888100  0.98026400  1
  H  H21  1  0.01851600  0.74111900  0.48026400  1
  H  H22  1  0.98148400  0.24111900  0.01973600  1
  H  H23  1  0.51851600  0.75888100  0.51973600  1
  H  H24  1  0.36504200  0.83625200  0.80245900  1
  H  H25  1  0.13495800  0.16374800  0.30245900  1
  H  H26  1  0.86504200  0.66374800  0.19754100  1
  H  H27  1  0.63495800  0.33625200  0.69754100  1
  H  H28  1  0.63495800  0.16374800  0.19754100  1
  H  H29  1  0.86504200  0.83625200  0.69754100  1
  H  H30  1  0.13495800  0.33625200  0.80245900  1
  H  H31  1  0.36504200  0.66374800  0.30245900  1
  H  H32  1  0.44705400  0.73717700  0.73869100  1
  H  H33  1  0.05294600  0.26282300  0.23869100  1
  H  H34  1  0.94705400  0.76282300  0.26130900  1
  H  H35  1  0.55294600  0.23717700  0.76130900  1
  H  H36  1  0.55294600  0.26282300  0.26130900  1
  H  H37  1  0.94705400  0.73717700  0.76130900  1
  H  H38  1  0.05294600  0.23717700  0.73869100  1
  H  H39  1  0.44705400  0.76282300  0.23869100  1
  H  H40  1  0.54364300  0.86298000  0.78125500  1
  H  H41  1  0.95635700  0.13702000  0.28125500  1
  H  H42  1  0.04364300  0.63702000  0.21874500  1
  H  H43  1  0.45635700  0.36298000  0.71874500  1
  H  H44  1  0.45635700  0.13702000  0.21874500  1
  H  H45  1  0.04364300  0.86298000  0.71874500  1
  H  H46  1  0.95635700  0.36298000  0.78125500  1
  H  H47  1  0.54364300  0.63702000  0.28125500  1
  H  H48  1  0.75583000  0.70720500  0.86731200  1
  H  H49  1  0.74417000  0.29279500  0.36731200  1
  H  H50  1  0.25583000  0.79279500  0.13268800  1
  H  H51  1  0.24417000  0.20720500  0.63268800  1
  H  H52  1  0.24417000  0.29279500  0.13268800  1
  H  H53  1  0.25583000  0.70720500  0.63268800  1
  H  H54  1  0.74417000  0.20720500  0.86731200  1
  H  H55  1  0.75583000  0.79279500  0.36731200  1
  H  H56  1  0.90179800  0.55112800  0.84673300  1
  H  H57  1  0.59820200  0.44887200  0.34673300  1
  H  H58  1  0.40179800  0.94887200  0.15326700  1
  H  H59  1  0.09820200  0.05112800  0.65326700  1
  H  H60  1  0.09820200  0.44887200  0.15326700  1
  H  H61  1  0.40179800  0.55112800  0.65326700  1
  H  H62  1  0.59820200  0.05112800  0.84673300  1
  H  H63  1  0.90179800  0.94887200  0.34673300  1
  H  H64  1  0.73922500  0.52649800  0.92536000  1
  H  H65  1  0.76077500  0.47350200  0.42536000  1
  H  H66  1  0.23922500  0.97350200  0.07464000  1
  H  H67  1  0.26077500  0.02649800  0.57464000  1
  H  H68  1  0.26077500  0.47350200  0.07464000  1
  H  H69  1  0.23922500  0.52649800  0.57464000  1
  H  H70  1  0.76077500  0.02649800  0.92536000  1
  H  H71  1  0.73922500  0.97350200  0.42536000  1
  H  H72  1  0.68456100  0.52875000  0.81677800  1
  H  H73  1  0.81543900  0.47125000  0.31677800  1
  H  H74  1  0.18456100  0.97125000  0.18322200  1
  H  H75  1  0.31543900  0.02875000  0.68322200  1
  H  H76  1  0.31543900  0.47125000  0.18322200  1
  H  H77  1  0.18456100  0.52875000  0.68322200  1
  H  H78  1  0.81543900  0.02875000  0.81677800  1
  H  H79  1  0.68456100  0.97125000  0.31677800  1
  H  H80  1  0.37814400  0.48839900  0.82804400  1
  H  H81  1  0.12185600  0.51160100  0.32804400  1
  H  H82  1  0.87814400  0.01160100  0.17195600  1
  H  H83  1  0.62185600  0.98839900  0.67195600  1
  H  H84  1  0.62185600  0.51160100  0.17195600  1
  H  H85  1  0.87814400  0.48839900  0.67195600  1
  H  H86  1  0.12185600  0.98839900  0.82804400  1
  H  H87  1  0.37814400  0.01160100  0.32804400  1
  H  H88  1  0.21485600  0.54971200  0.89978600  1
  H  H89  1  0.28514400  0.45028800  0.39978600  1
  H  H90  1  0.71485600  0.95028800  0.10021400  1
  H  H91  1  0.78514400  0.04971200  0.60021400  1
  H  H92  1  0.78514400  0.45028800  0.10021400  1
  H  H93  1  0.71485600  0.54971200  0.60021400  1
  H  H94  1  0.28514400  0.04971200  0.89978600  1
  H  H95  1  0.21485600  0.95028800  0.39978600  1
  H  H96  1  0.30001900  0.34964200  0.90185500  1
  H  H97  1  0.19998100  0.65035800  0.40185500  1
  H  H98  1  0.80001900  0.15035800  0.09814500  1
  H  H99  1  0.69998100  0.84964200  0.59814500  1
  H  H100  1  0.69998100  0.65035800  0.09814500  1
  H  H101  1  0.80001900  0.34964200  0.59814500  1
  H  H102  1  0.19998100  0.84964200  0.90185500  1
  H  H103  1  0.30001900  0.15035800  0.40185500  1
  H  H104  1  0.42347800  0.50465500  0.93945200  1
  H  H105  1  0.07652200  0.49534500  0.43945200  1
  H  H106  1  0.92347800  0.99534500  0.06054800  1
  H  H107  1  0.57652200  0.00465500  0.56054800  1
  H  H108  1  0.57652200  0.49534500  0.06054800  1
  H  H109  1  0.92347800  0.50465500  0.56054800  1
  H  H110  1  0.07652200  0.00465500  0.93945200  1
  H  H111  1  0.42347800  0.99534500  0.43945200  1
  N  N0  1  0.51798900  0.79032900  0.96905100  1
  N  N1  1  0.98201100  0.20967100  0.46905100  1
  N  N2  1  0.01798900  0.70967100  0.03094900  1
  N  N3  1  0.48201100  0.29032900  0.53094900  1
  N  N4  1  0.48201100  0.20967100  0.03094900  1
  N  N5  1  0.01798900  0.79032900  0.53094900  1
  N  N6  1  0.98201100  0.29032900  0.96905100  1
  N  N7  1  0.51798900  0.70967100  0.46905100  1
  N  N8  1  0.46401100  0.78541100  0.78891800  1
  N  N9  1  0.03598900  0.21458900  0.28891800  1
  N  N10  1  0.96401100  0.71458900  0.21108200  1
  N  N11  1  0.53598900  0.28541100  0.71108200  1
  N  N12  1  0.53598900  0.21458900  0.21108200  1
  N  N13  1  0.96401100  0.78541100  0.71108200  1
  N  N14  1  0.03598900  0.28541100  0.78891800  1
  N  N15  1  0.46401100  0.71458900  0.28891800  1
loop_
_geom_bond_atom_site_label_1
_geom_bond_atom_site_label_2
_geom_bond_distance
_geom_bond_site_symmetry_2
Mn0 N8 2.185287 1_555
Mn0 N0 2.208804 1_555
Mn1 N9 2.185287 1_655
Mn1 N1 2.208804 1_555
Mn2 N10 2.185287 1_455
Mn2 N2 2.208804 1_555
Mn3 N11 2.185287 1_555
Mn3 N3 2.208804 1_555
Mn4 N12 2.185287 1_555
Mn4 N4 2.208804 1_555
Mn5 N13 2.185287 1_455
Mn5 N5 2.208804 1_555
Mn6 N14 2.185287 1_655
Mn6 N6 2.208804 1_555
Mn7 N15 2.185287 1_555
Mn7 N7 2.208804 1_555
B0 H56 1.208722 1_555
B0 H64 1.233833 1_555
B0 H48 1.238290 1_555
B0 H72 1.248292 1_555
B1 H57 1.208722 1_555
B1 H65 1.233833 1_555
B1 H49 1.238290 1_555
B1 H73 1.248292 1_555
B2 H58 1.208722 1_555
B2 H66 1.233833 1_555
B2 H50 1.238290 1_555
B2 H74 1.248292 1_555
B3 H59 1.208722 1_555
B3 H67 1.233833 1_555
B3 H51 1.238290 1_555
B3 H75 1.248292 1_555
B4 H60 1.208722 1_555
B4 H68 1.233833 1_555
B4 H52 1.238290 1_555
B4 H76 1.248292 1_555
B5 H61 1.208722 1_555
B5 H69 1.233833 1_555
B5 H53 1.238290 1_555
B5 H77 1.248292 1_555
B6 H62 1.208722 1_555
B6 H70 1.233833 1_555
B6 H54 1.238290 1_555
B6 H78 1.248292 1_555
B7 H63 1.208722 1_555
B7 H71 1.233833 1_555
B7 H55 1.238290 1_555
B7 H79 1.248292 1_555
B8 H96 1.215547 1_555
B8 H88 1.217637 1_555
B8 H80 1.245207 1_555
B8 H104 1.252664 1_555
B9 H97 1.215547 1_555
B9 H89 1.217637 1_555
B9 H81 1.245207 1_555
B9 H105 1.252664 1_555
B10 H98 1.215547 1_555
B10 H90 1.217637 1_545
B10 H82 1.245207 1_555
B10 H106 1.252664 1_545
B11 H99 1.215547 1_555
B11 H91 1.217637 1_565
B11 H83 1.245207 1_555
B11 H107 1.252664 1_565
B12 H100 1.215547 1_555
B12 H92 1.217637 1_555
B12 H84 1.245207 1_555
B12 H108 1.252664 1_555
B13 H101 1.215547 1_555
B13 H93 1.217637 1_555
B13 H85 1.245207 1_555
B13 H109 1.252664 1_555
B14 H102 1.215547 1_555
B14 H94 1.217637 1_565
B14 H86 1.245207 1_555
B14 H110 1.252664 1_565
B15 H103 1.215547 1_555
B15 H95 1.217637 1_545
B15 H87 1.245207 1_555
B15 H111 1.252664 1_545
H0 N0 1.028044 1_555
H1 N1 1.028044 1_455
H2 N2 1.028044 1_655
H3 N3 1.028044 1_555
H4 N4 1.028044 1_555
H5 N5 1.028044 1_655
H6 N6 1.028044 1_455
H7 N7 1.028044 1_555
H8 N0 1.022720 1_555
H9 N1 1.022720 1_555
H10 N2 1.022720 1_555
H11 N3 1.022720 1_555
H12 N4 1.022720 1_555
H13 N5 1.022720 1_555
H14 N6 1.022720 1_555
H15 N7 1.022720 1_555
H16 N0 1.025596 1_554
H17 N1 1.025596 1_555
H18 N2 1.025596 1_556
H19 N3 1.025596 1_555
H20 N4 1.025596 1_556
H21 N5 1.025596 1_555
H22 N6 1.025596 1_554
H23 N7 1.025596 1_555
H24 N8 1.026656 1_555
H25 N9 1.026656 1_555
H26 N10 1.026656 1_555
H27 N11 1.026656 1_555
H28 N12 1.026656 1_555
H29 N13 1.026656 1_555
H30 N14 1.026656 1_555
H31 N15 1.026656 1_555
H32 N8 1.025040 1_555
H33 N9 1.025040 1_555
H34 N10 1.025040 1_555
H35 N11 1.025040 1_555
H36 N12 1.025040 1_555
H37 N13 1.025040 1_555
H38 N14 1.025040 1_555
H39 N15 1.025040 1_555
H40 N8 1.025190 1_555
H41 N9 1.025190 1_655
H42 N10 1.025190 1_455
H43 N11 1.025190 1_555
H44 N12 1.025190 1_555
H45 N13 1.025190 1_455
H46 N14 1.025190 1_655
H47 N15 1.025190 1_555
H48 Mn0 2.135807 1_555
H49 Mn1 2.135807 1_555
H50 Mn2 2.135807 1_555
H51 Mn3 2.135807 1_555
H52 Mn4 2.135807 1_555
H53 Mn5 2.135807 1_555
H54 Mn6 2.135807 1_555
H55 Mn7 2.135807 1_555
H64 Mn0 2.320874 1_555
H65 Mn1 2.320874 1_555
H66 Mn2 2.320874 1_555
H67 Mn3 2.320874 1_555
H68 Mn4 2.320874 1_555
H69 Mn5 2.320874 1_555
H70 Mn6 2.320874 1_555
H71 Mn7 2.320874 1_555
H72 Mn0 2.039526 1_555
H73 Mn1 2.039526 1_555
H74 Mn2 2.039526 1_555
H75 Mn3 2.039526 1_555
H76 Mn4 2.039526 1_555
H77 Mn5 2.039526 1_555
H78 Mn6 2.039526 1_555
H79 Mn7 2.039526 1_555
H80 Mn0 2.112783 1_555
H81 Mn1 2.112783 1_455
H82 Mn2 2.112783 1_645
H83 Mn3 2.112783 1_565
H84 Mn4 2.112783 1_555
H85 Mn5 2.112783 1_655
H86 Mn6 2.112783 1_465
H87 Mn7 2.112783 1_545
H104 Mn0 1.918024 1_555
H105 Mn1 1.918024 1_455
H106 Mn2 1.918024 1_655
H107 Mn3 1.918024 1_555
H108 Mn4 1.918024 1_555
H109 Mn5 1.918024 1_655
H110 Mn6 1.918024 1_455
H111 Mn7 1.918024 1_555
