# generated using pymatgen
data_KMg6V
_symmetry_space_group_name_H-M   'P 1'
_cell_length_a   5.28910200
_cell_length_b   6.57071400
_cell_length_c   11.45491600
_cell_angle_alpha   90.00000000
_cell_angle_beta   90.00000000
_cell_angle_gamma   90.00000000
_symmetry_Int_Tables_number   1
_chemical_formula_structural   KMg6V
_chemical_formula_sum   'K2 Mg12 V2'
_cell_volume   398.09471821
_cell_formula_units_Z   2
loop_
 _symmetry_equiv_pos_site_id
 _symmetry_equiv_pos_as_xyz
  1  'x, y, z'
loop_
 _atom_site_type_symbol
 _atom_site_label
 _atom_site_symmetry_multiplicity
 _atom_site_fract_x
 _atom_site_fract_y
 _atom_site_fract_z
 _atom_site_occupancy
  K  K0  1  0.50000000  0.50000000  0.16349400  1
  K  K1  1  0.50000000  0.00000000  0.66349400  1
  Mg  Mg0  1  0.00000000  0.76541300  0.07814000  1
  Mg  Mg1  1  0.00000000  0.23458700  0.07814000  1
  Mg  Mg2  1  0.00000000  0.00000000  0.33419100  1
  Mg  Mg3  1  0.50000000  0.26316600  0.41185400  1
  Mg  Mg4  1  0.50000000  0.73683400  0.41185400  1
  Mg  Mg5  1  0.50000000  0.00000000  0.16913000  1
  Mg  Mg6  1  0.00000000  0.26541300  0.57814000  1
  Mg  Mg7  1  0.00000000  0.73458700  0.57814000  1
  Mg  Mg8  1  0.00000000  0.50000000  0.83419100  1
  Mg  Mg9  1  0.50000000  0.76316600  0.91185400  1
  Mg  Mg10  1  0.50000000  0.23683400  0.91185400  1
  Mg  Mg11  1  0.50000000  0.50000000  0.66913000  1
  V  V0  1  0.00000000  0.50000000  0.35319800  1
  V  V1  1  0.00000000  0.00000000  0.85319800  1
loop_
_geom_bond_atom_site_label_1
_geom_bond_atom_site_label_2
_geom_bond_distance
_geom_bond_site_symmetry_2
K0 Mg3 3.242740 1_555
K0 Mg4 3.242740 1_555
K0 Mg5 3.285991 1_555
K0 Mg5 3.285991 1_565
K0 Mg0 3.315262 1_655
K0 Mg1 3.315262 1_555
K0 Mg1 3.315262 1_655
K0 Mg0 3.315262 1_555
K0 Mg9 3.361396 1_554
K0 Mg10 3.361396 1_554
K0 V0 3.422830 1_655
K0 V0 3.422830 1_555
K1 Mg9 3.242740 1_545
K1 Mg10 3.242740 1_555
K1 Mg11 3.285991 1_555
K1 Mg11 3.285991 1_545
K1 Mg6 3.315262 1_555
K1 Mg7 3.315262 1_545
K1 Mg7 3.315262 1_645
K1 Mg6 3.315262 1_655
K1 Mg3 3.361396 1_555
K1 Mg4 3.361396 1_545
K1 V1 3.422830 1_655
K1 V1 3.422830 1_555
Mg0 V1 3.002543 1_564
Mg0 Mg5 3.233563 1_565
Mg0 Mg5 3.233563 1_465
Mg0 Mg9 3.259157 1_554
Mg0 Mg9 3.259157 1_454
Mg0 Mg8 3.293953 1_554
Mg0 Mg2 3.313407 1_565
Mg0 V0 3.601208 1_555
Mg1 V1 3.002543 1_554
Mg1 Mg5 3.233563 1_455
Mg1 Mg5 3.233563 1_555
Mg1 Mg10 3.259157 1_554
Mg1 Mg10 3.259157 1_454
Mg1 Mg8 3.293953 1_554
Mg1 Mg2 3.313407 1_555
Mg1 V0 3.601208 1_555
Mg2 Mg5 3.250942 1_555
Mg2 Mg5 3.250942 1_455
Mg2 Mg3 3.282556 1_455
Mg2 Mg4 3.282556 1_445
Mg2 Mg3 3.282556 1_555
Mg2 Mg4 3.282556 1_545
Mg2 V0 3.292563 1_545
Mg2 V0 3.292563 1_555
Mg2 Mg7 3.293953 1_545
Mg2 Mg6 3.293953 1_555
Mg3 Mg4 3.112337 1_555
Mg3 V0 3.141140 1_655
Mg3 V0 3.141140 1_555
Mg3 Mg6 3.259157 1_555
Mg3 Mg6 3.259157 1_655
Mg3 Mg5 3.274236 1_555
Mg3 Mg4 3.458377 1_545
Mg4 V0 3.141140 1_655
Mg4 V0 3.141140 1_555
Mg4 Mg7 3.259157 1_555
Mg4 Mg7 3.259157 1_655
Mg4 Mg5 3.274236 1_565
Mg5 Mg9 3.332703 1_544
Mg6 V0 3.002543 1_555
Mg6 Mg8 3.313407 1_555
Mg6 V1 3.601208 1_555
Mg7 V0 3.002543 1_555
Mg7 Mg8 3.313407 1_555
Mg7 V1 3.601208 1_565
Mg8 Mg9 3.282556 1_555
Mg8 Mg9 3.282556 1_455
Mg8 V1 3.292563 1_565
Mg8 V1 3.292563 1_555
Mg9 V1 3.141140 1_565
Mg9 V1 3.141140 1_665
Mg10 Mg9 3.112337 1_545
Mg10 V1 3.141140 1_555
Mg10 V1 3.141140 1_655
Mg10 Mg11 3.274236 1_555
Mg10 Mg8 3.282556 1_555
Mg10 Mg8 3.282556 1_655
Mg10 Mg5 3.332703 1_556
Mg10 Mg9 3.458377 1_555
Mg11 Mg7 3.233563 1_655
Mg11 Mg6 3.233563 1_555
Mg11 Mg7 3.233563 1_555
Mg11 Mg6 3.233563 1_655
Mg11 Mg8 3.250942 1_555
Mg11 Mg8 3.250942 1_655
Mg11 Mg9 3.274236 1_555
Mg11 Mg3 3.332703 1_555
Mg11 Mg4 3.332703 1_555
