# generated using pymatgen
data_Sc2TlZn
_symmetry_space_group_name_H-M   'P 1'
_cell_length_a   12.37707451
_cell_length_b   12.37707451
_cell_length_c   12.37707451
_cell_angle_alpha   124.30244385
_cell_angle_beta   119.14979628
_cell_angle_gamma   87.09638894
_symmetry_Int_Tables_number   1
_chemical_formula_structural   Sc2TlZn
_chemical_formula_sum   'Sc2 Tl1 Zn1'
_cell_volume   1300.40770138
_cell_formula_units_Z   1
loop_
 _symmetry_equiv_pos_site_id
 _symmetry_equiv_pos_as_xyz
  1  'x, y, z'
loop_
 _atom_site_type_symbol
 _atom_site_label
 _atom_site_symmetry_multiplicity
 _atom_site_fract_x
 _atom_site_fract_y
 _atom_site_fract_z
 _atom_site_occupancy
  Sc  Sc0  1  0.00000000  0.24703700  0.24703700  1
  Sc  Sc1  1  0.00000000  0.75296300  0.75296300  1
  Tl  Tl0  1  0.00000000  0.50000000  0.50000000  1
  Zn  Zn0  1  0.00000000  0.00000000  0.00000000  1
loop_
_geom_bond_atom_site_label_1
_geom_bond_atom_site_label_2
_geom_bond_distance
_geom_bond_site_symmetry_2
Sc0 Zn0 2.856647 1_555
Sc0 Tl0 2.925174 1_555
Sc1 Zn0 2.856647 1_566
Sc1 Tl0 2.925174 1_555
