# generated using pymatgen
data_Mg4Si7
_symmetry_space_group_name_H-M   'P 1'
_cell_length_a   3.97946200
_cell_length_b   6.72349500
_cell_length_c   14.62207897
_cell_angle_alpha   87.68100457
_cell_angle_beta   90.00000000
_cell_angle_gamma   90.00000000
_symmetry_Int_Tables_number   1
_chemical_formula_structural   Mg4Si7
_chemical_formula_sum   'Mg8 Si14'
_cell_volume   390.90637729
_cell_formula_units_Z   2
loop_
 _symmetry_equiv_pos_site_id
 _symmetry_equiv_pos_as_xyz
  1  'x, y, z'
loop_
 _atom_site_type_symbol
 _atom_site_label
 _atom_site_symmetry_multiplicity
 _atom_site_fract_x
 _atom_site_fract_y
 _atom_site_fract_z
 _atom_site_occupancy
  Mg  Mg0  1  0.50000000  0.93664400  0.93398600  1
  Mg  Mg1  1  0.50000000  0.65898500  0.50437700  1
  Mg  Mg2  1  0.00000000  0.83296200  0.34954900  1
  Mg  Mg3  1  0.00000000  0.46488500  0.65638900  1
  Mg  Mg4  1  0.50000000  0.45195900  0.83801600  1
  Mg  Mg5  1  0.00000000  0.46305900  0.18839500  1
  Mg  Mg6  1  0.00000000  0.34901600  0.41892600  1
  Mg  Mg7  1  0.00000000  0.96681500  0.57881200  1
  Si  Si0  1  0.00000000  0.61832300  0.96103700  1
  Si  Si1  1  0.00000000  0.24893700  0.96424100  1
  Si  Si2  1  0.50000000  0.21731100  0.07417000  1
  Si  Si3  1  0.50000000  0.59308600  0.05955800  1
  Si  Si4  1  0.50000000  0.27370900  0.55692600  1
  Si  Si5  1  0.50000000  0.04138000  0.43672000  1
  Si  Si6  1  0.50000000  0.80156100  0.18893700  1
  Si  Si7  1  0.00000000  0.13797100  0.80606900  1
  Si  Si8  1  0.50000000  0.75753300  0.69257000  1
  Si  Si9  1  0.00000000  0.05008800  0.18251600  1
  Si  Si10  1  0.50000000  0.54970600  0.31824300  1
  Si  Si11  1  0.00000000  0.76732400  0.80453600  1
  Si  Si12  1  0.50000000  0.11992500  0.70651600  1
  Si  Si13  1  0.50000000  0.19514900  0.28306300  1
loop_
_geom_bond_atom_site_label_1
_geom_bond_atom_site_label_2
_geom_bond_distance
_geom_bond_site_symmetry_2
Mg0 Si2 2.841767 1_566
Mg0 Si3 2.892025 1_556
Mg0 Si0 2.937270 1_655
Mg0 Si0 2.937270 1_555
Mg0 Si1 2.939158 1_665
Mg0 Si1 2.939158 1_565
Mg0 Si11 3.002035 1_655
Mg0 Si11 3.002035 1_555
Mg0 Si7 3.014112 1_565
Mg0 Si7 3.014112 1_665
Mg1 Si4 2.671985 1_555
Mg1 Si5 2.717177 1_565
Mg1 Si10 2.847654 1_555
Mg1 Si8 2.856366 1_555
Mg2 Si5 2.773422 1_565
Mg2 Si5 2.773422 1_465
Mg2 Si9 2.794240 1_565
Mg2 Si10 2.804662 1_455
Mg2 Si10 2.804662 1_555
Mg2 Si6 3.091778 1_555
Mg2 Si6 3.091778 1_455
Mg3 Si4 2.806714 1_455
Mg3 Si4 2.806714 1_555
Mg3 Si8 2.862634 1_455
Mg3 Si8 2.862634 1_555
Mg3 Si11 3.030491 1_555
Mg3 Si7 3.038426 1_555
Mg3 Si12 3.120579 1_555
Mg3 Si12 3.120579 1_455
Mg4 Si8 2.896623 1_555
Mg4 Si0 2.934071 1_555
Mg4 Si0 2.934071 1_655
Mg4 Si11 2.934380 1_655
Mg4 Si11 2.934380 1_555
Mg4 Si7 2.951911 1_655
Mg4 Si7 2.951911 1_555
Mg4 Si1 3.004151 1_555
Mg4 Si1 3.004151 1_655
Mg4 Si12 3.004711 1_555
Mg5 Si9 2.781413 1_555
Mg5 Si10 2.827153 1_555
Mg5 Si10 2.827153 1_455
Mg5 Si3 2.852890 1_455
Mg5 Si3 2.852890 1_555
Mg5 Si13 2.986306 1_455
Mg5 Si13 2.986306 1_555
Mg5 Si6 3.023301 1_455
Mg5 Si6 3.023301 1_555
Mg5 Si2 3.114803 1_455
Mg5 Si2 3.114803 1_555
Mg6 Si10 2.790402 1_555
Mg6 Si10 2.790402 1_455
Mg6 Si4 2.864336 1_555
Mg6 Si4 2.864336 1_455
Mg6 Si5 2.874266 1_455
Mg6 Si5 2.874266 1_555
Mg6 Si13 3.023601 1_455
Mg6 Si13 3.023601 1_555
Mg7 Si4 2.875000 1_465
Mg7 Si4 2.875000 1_565
Mg7 Si5 2.905655 1_465
Mg7 Si5 2.905655 1_565
Mg7 Si8 2.918286 1_555
Mg7 Si8 2.918286 1_455
Mg7 Si12 2.942979 1_465
Mg7 Si12 2.942979 1_565
Si0 Si3 2.458316 1_556
Si0 Si3 2.458316 1_456
Si0 Si11 2.460636 1_555
Si0 Si1 2.482111 1_555
Si1 Si7 2.458726 1_555
Si1 Si2 2.561306 1_456
Si1 Si2 2.561306 1_556
Si2 Si3 2.526910 1_555
Si2 Si9 2.754780 1_555
Si2 Si9 2.754780 1_655
Si3 Si6 2.399618 1_555
Si4 Si5 2.398250 1_555
Si6 Si9 2.597554 1_565
Si6 Si9 2.597554 1_665
Si10 Si13 2.458993 1_555
Si10 Si6 2.486595 1_555
Si11 Si7 2.493051 1_565
Si11 Si8 2.579230 1_455
Si11 Si8 2.579230 1_555
Si12 Si4 2.381264 1_555
Si12 Si8 2.453268 1_545
Si12 Si7 2.471239 1_655
Si12 Si7 2.471239 1_555
Si13 Si5 2.434941 1_555
Si13 Si9 2.681011 1_555
Si13 Si9 2.681011 1_655
