# generated using pymatgen
data_CsRbMg14O15
_symmetry_space_group_name_H-M   'P 1'
_cell_length_a   4.15669600
_cell_length_b   8.59085300
_cell_length_c   10.69500200
_cell_angle_alpha   90.00000000
_cell_angle_beta   90.00000000
_cell_angle_gamma   90.00000000
_symmetry_Int_Tables_number   1
_chemical_formula_structural   CsRbMg14O15
_chemical_formula_sum   'Cs1 Rb1 Mg14 O15'
_cell_volume   381.91386163
_cell_formula_units_Z   1
loop_
 _symmetry_equiv_pos_site_id
 _symmetry_equiv_pos_as_xyz
  1  'x, y, z'
loop_
 _atom_site_type_symbol
 _atom_site_label
 _atom_site_symmetry_multiplicity
 _atom_site_fract_x
 _atom_site_fract_y
 _atom_site_fract_z
 _atom_site_occupancy
  Cs  Cs0  1  0.00000000  0.50000000  0.43621800  1
  Rb  Rb0  1  0.00000000  0.00000000  0.89915300  1
  Mg  Mg0  1  0.00000000  0.50000000  0.98999100  1
  Mg  Mg1  1  0.00000000  0.00000000  0.47403300  1
  Mg  Mg2  1  0.50000000  0.76496300  0.00478800  1
  Mg  Mg3  1  0.50000000  0.23503700  0.00478800  1
  Mg  Mg4  1  0.50000000  0.73887700  0.57155700  1
  Mg  Mg5  1  0.50000000  0.26112300  0.57155700  1
  Mg  Mg6  1  0.50000000  0.00000000  0.69382600  1
  Mg  Mg7  1  0.50000000  0.50000000  0.78616400  1
  Mg  Mg8  1  0.50000000  0.00000000  0.22854700  1
  Mg  Mg9  1  0.50000000  0.50000000  0.17727100  1
  Mg  Mg10  1  0.00000000  0.72161800  0.76447500  1
  Mg  Mg11  1  0.00000000  0.27838200  0.76447500  1
  Mg  Mg12  1  0.00000000  0.75735300  0.18898200  1
  Mg  Mg13  1  0.00000000  0.24264700  0.18898200  1
  O  O0  1  0.00000000  0.50000000  0.79476900  1
  O  O1  1  0.00000000  0.00000000  0.27765600  1
  O  O2  1  0.00000000  0.50000000  0.18376200  1
  O  O3  1  0.50000000  0.78554600  0.77155600  1
  O  O4  1  0.50000000  0.21445400  0.77155600  1
  O  O5  1  0.50000000  0.74128600  0.21126900  1
  O  O6  1  0.50000000  0.25871400  0.21126900  1
  O  O7  1  0.50000000  0.00000000  0.03943300  1
  O  O8  1  0.50000000  0.50000000  0.98205200  1
  O  O9  1  0.50000000  0.00000000  0.51094100  1
  O  O10  1  0.50000000  0.50000000  0.59604200  1
  O  O11  1  0.00000000  0.73662700  0.99270600  1
  O  O12  1  0.00000000  0.26337300  0.99270600  1
  O  O13  1  0.00000000  0.79527700  0.58474000  1
  O  O14  1  0.00000000  0.20472300  0.58474000  1
loop_
_geom_bond_atom_site_label_1
_geom_bond_atom_site_label_2
_geom_bond_distance
_geom_bond_site_symmetry_2
Cs0 O10 2.690966 1_455
Cs0 O10 2.690966 1_555
Cs0 O2 2.700017 1_555
Cs0 O14 2.992976 1_555
Cs0 O13 2.992976 1_555
Mg0 O11 2.033035 1_555
Mg0 O12 2.033035 1_555
Mg0 O2 2.072381 1_556
Mg0 O8 2.080082 1_555
Mg0 O8 2.080082 1_455
Mg0 O0 2.087900 1_555
Mg1 O1 2.100252 1_555
Mg1 O9 2.115501 1_455
Mg1 O9 2.115501 1_555
Mg1 O14 2.120158 1_555
Mg1 O13 2.120158 1_545
Mg2 O7 2.052884 1_565
Mg2 O11 2.096541 1_554
Mg2 O11 2.096541 1_654
Mg2 O5 2.217663 1_555
Mg2 O8 2.289209 1_554
Mg2 O3 2.500676 1_554
Mg3 O7 2.052884 1_555
Mg3 O12 2.096541 1_554
Mg3 O12 2.096541 1_654
Mg3 O6 2.217663 1_555
Mg3 O8 2.289209 1_554
Mg3 O4 2.500676 1_554
Mg4 O10 2.068798 1_555
Mg4 O13 2.138732 1_555
Mg4 O13 2.138732 1_655
Mg4 O3 2.176240 1_555
Mg4 O9 2.335066 1_565
Mg5 O10 2.068798 1_555
Mg5 O14 2.138732 1_555
Mg5 O14 2.138732 1_655
Mg5 O4 2.176240 1_555
Mg5 O9 2.335066 1_555
Mg6 O9 1.955955 1_555
Mg6 O4 2.021218 1_555
Mg6 O3 2.021218 1_545
Mg7 O10 2.033355 1_555
Mg7 O0 2.080385 1_555
Mg7 O0 2.080385 1_655
Mg7 O8 2.095023 1_555
Mg7 O3 2.458054 1_555
Mg7 O4 2.458054 1_555
Mg8 O7 2.022575 1_555
Mg8 O1 2.143685 1_555
Mg8 O1 2.143685 1_655
Mg8 O6 2.230243 1_555
Mg8 O5 2.230243 1_545
Mg9 O2 2.079507 1_655
Mg9 O2 2.079507 1_555
Mg9 O8 2.087868 1_554
Mg9 O5 2.104502 1_555
Mg9 O6 2.104502 1_555
Mg10 O0 1.931259 1_555
Mg10 O13 2.023743 1_555
Mg10 O3 2.151019 1_555
Mg10 O3 2.151019 1_455
Mg10 O11 2.444334 1_555
Mg11 O0 1.931259 1_555
Mg11 O14 2.023743 1_555
Mg11 O4 2.151019 1_455
Mg11 O4 2.151019 1_555
Mg11 O12 2.444334 1_555
Mg12 O5 2.096520 1_455
Mg12 O5 2.096520 1_555
Mg12 O11 2.106710 1_554
Mg12 O2 2.211587 1_555
Mg12 O1 2.290137 1_565
Mg13 O6 2.096520 1_455
Mg13 O6 2.096520 1_555
Mg13 O12 2.106710 1_554
Mg13 O2 2.211587 1_555
Mg13 O1 2.290137 1_555
O7 Rb0 2.563282 1_554
O7 Rb0 2.563282 1_654
O11 Rb0 2.473955 1_565
O12 Rb0 2.473955 1_555
