# generated using pymatgen
data_S2NO9
_symmetry_space_group_name_H-M   'P 1'
_cell_length_a   5.93879987
_cell_length_b   7.66190365
_cell_length_c   7.89858860
_cell_angle_alpha   80.61194025
_cell_angle_beta   67.33196022
_cell_angle_gamma   82.39764318
_symmetry_Int_Tables_number   1
_chemical_formula_structural   S2NO9
_chemical_formula_sum   'S4 N2 O18'
_cell_volume   326.24776429
_cell_formula_units_Z   2
loop_
 _symmetry_equiv_pos_site_id
 _symmetry_equiv_pos_as_xyz
  1  'x, y, z'
loop_
 _atom_site_type_symbol
 _atom_site_label
 _atom_site_symmetry_multiplicity
 _atom_site_fract_x
 _atom_site_fract_y
 _atom_site_fract_z
 _atom_site_occupancy
  S  S0  1  0.23663406  0.85132325  0.82306661  1
  S  S1  1  0.76336594  0.14867675  0.17693339  1
  S  S2  1  0.66853726  0.70881980  0.54603057  1
  S  S3  1  0.33146274  0.29118020  0.45396943  1
  N  N0  1  0.53871036  0.26611701  0.83898130  1
  N  N1  1  0.46128964  0.73388299  0.16101870  1
  O  O0  1  0.19899579  0.69437316  0.95590685  1
  O  O1  1  0.80100421  0.30562684  0.04409315  1
  O  O2  1  0.70069795  0.57742526  0.68929039  1
  O  O3  1  0.29930205  0.42257474  0.31070961  1
  O  O4  1  0.69940326  0.64498693  0.37686029  1
  O  O5  1  0.30059674  0.35501307  0.62313971  1
  O  O6  1  0.39580861  0.96812861  0.83954742  1
  O  O7  1  0.60419139  0.03187139  0.16045258  1
  O  O8  1  0.01539934  0.93407944  0.80188526  1
  O  O9  1  0.98460066  0.06592056  0.19811474  1
  O  O10  1  0.38373815  0.78099765  0.61718935  1
  O  O11  1  0.61626185  0.21900235  0.38281065  1
  O  O12  1  0.81313711  0.85842801  0.51649167  1
  O  O13  1  0.18686289  0.14157199  0.48350833  1
  O  O14  1  0.36657977  0.31524672  0.95112474  1
  O  O15  1  0.63342023  0.68475328  0.04887526  1
  O  O16  1  0.71269659  0.21604300  0.72946671  1
  O  O17  1  0.28730341  0.78395700  0.27053329  1
loop_
_geom_bond_atom_site_label_1
_geom_bond_atom_site_label_2
_geom_bond_distance
_geom_bond_site_symmetry_2
N0 O16 1.130286 1_555
N0 O14 1.131512 1_555
N1 O17 1.130286 1_555
N1 O15 1.131512 1_555
O0 S0 1.440727 1_555
O1 S1 1.440727 1_555
O2 S2 1.440298 1_555
O3 S3 1.440298 1_555
O4 S2 1.434900 1_555
O5 S3 1.434900 1_555
O6 S0 1.438120 1_555
O7 S1 1.438120 1_555
O8 S0 1.438985 1_555
O9 S1 1.438985 1_555
O10 S2 1.613576 1_555
O10 S0 1.662584 1_555
O11 S3 1.613576 1_555
O11 S1 1.662584 1_555
O12 S2 1.457610 1_555
O13 S3 1.457610 1_555
