# generated using pymatgen
data_Eu(PO3)3
_symmetry_space_group_name_H-M   'P 1'
_cell_length_a   6.99413338
_cell_length_b   6.99401357
_cell_length_c   7.24787132
_cell_angle_alpha   89.99991923
_cell_angle_beta   89.99953137
_cell_angle_gamma   104.92000113
_symmetry_Int_Tables_number   1
_chemical_formula_structural   Eu(PO3)3
_chemical_formula_sum   'Eu2 P6 O18'
_cell_volume   342.59155954
_cell_formula_units_Z   2
loop_
 _symmetry_equiv_pos_site_id
 _symmetry_equiv_pos_as_xyz
  1  'x, y, z'
loop_
 _atom_site_type_symbol
 _atom_site_label
 _atom_site_symmetry_multiplicity
 _atom_site_fract_x
 _atom_site_fract_y
 _atom_site_fract_z
 _atom_site_occupancy
  Eu  Eu0  1  0.62454756  0.62454470  0.49999281  1
  Eu  Eu1  1  0.37545445  0.37545300  -0.00000216  1
  P  P0  1  0.83443428  0.18472056  0.95500425  1
  P  P1  1  0.16556334  0.81527848  0.45500214  1
  P  P2  1  0.81529732  0.16558129  0.54499509  1
  P  P3  1  0.18470442  0.83442150  0.04499611  1
  P  P4  1  0.25030081  0.25031021  0.50000171  1
  P  P5  1  0.74969773  0.74969028  -0.00000367  1
  O  O0  1  0.32617908  0.36740123  0.66970580  1
  O  O1  1  0.67382250  0.63259682  0.16970439  1
  O  O2  1  0.63259410  0.67381631  0.83029814  1
  O  O3  1  0.36741271  0.32618160  0.33030529  1
  O  O4  1  0.87503418  0.12500043  0.74999836  1
  O  O5  1  0.12496154  0.87500528  0.24999886  1
  O  O6  1  0.71368172  0.32612990  0.53755432  1
  O  O7  1  0.28630631  0.67386207  0.03755990  1
  O  O8  1  0.67385653  0.28629615  0.96244641  1
  O  O9  1  0.32615243  0.71371572  0.46243772  1
  O  O10  1  0.97076534  0.75209066  0.95539291  1
  O  O11  1  0.02923842  0.24792821  0.45539736  1
  O  O12  1  0.24785133  0.02922799  0.54459815  1
  O  O13  1  0.75212426  0.97076676  0.04458956  1
  O  O14  1  0.97164297  0.71796664  0.53818975  1
  O  O15  1  0.02835624  0.28201475  0.03819398  1
  O  O16  1  0.28198357  0.02835811  0.96182197  1
  O  O17  1  0.71803686  0.97164134  0.46182085  1
loop_
_geom_bond_atom_site_label_1
_geom_bond_atom_site_label_2
_geom_bond_distance
_geom_bond_site_symmetry_2
Eu0 O6 2.342826 1_555
Eu0 O9 2.342847 1_555
Eu0 O17 2.362189 1_555
Eu0 O14 2.362240 1_555
Eu0 O1 2.417155 1_555
Eu0 O2 2.417276 1_555
Eu0 O3 2.677505 1_555
Eu0 O0 2.677631 1_555
Eu1 O7 2.342836 1_555
Eu1 O8 2.342837 1_554
Eu1 O16 2.362181 1_554
Eu1 O15 2.362254 1_555
Eu1 O0 2.417187 1_554
Eu1 O3 2.417290 1_555
Eu1 O2 2.677546 1_554
Eu1 O1 2.677627 1_555
O0 P4 1.497131 1_555
O1 P5 1.497148 1_555
O2 P5 1.497135 1_556
O3 P4 1.497135 1_555
O4 P2 1.588680 1_555
O4 P0 1.588689 1_555
O5 P3 1.588689 1_555
O5 P1 1.588692 1_555
O6 P2 1.476423 1_555
O7 P3 1.476424 1_555
O8 P0 1.476423 1_555
O9 P1 1.476431 1_555
O10 P5 1.575461 1_556
O10 P3 1.596446 1_656
O11 P4 1.575463 1_555
O11 P2 1.596445 1_455
O12 P4 1.575444 1_555
O12 P1 1.596428 1_545
O13 P5 1.575440 1_555
O13 P0 1.596434 1_564
O14 P1 1.480186 1_655
O15 P0 1.480184 1_454
O16 P3 1.480172 1_546
O17 P2 1.480168 1_565
