# generated using pymatgen
data_SrMg6Sb
_symmetry_space_group_name_H-M   'P 1'
_cell_length_a   5.42995900
_cell_length_b   6.45093600
_cell_length_c   11.95336200
_cell_angle_alpha   90.00000000
_cell_angle_beta   90.00000000
_cell_angle_gamma   90.00000000
_symmetry_Int_Tables_number   1
_chemical_formula_structural   SrMg6Sb
_chemical_formula_sum   'Sr2 Mg12 Sb2'
_cell_volume   418.70616520
_cell_formula_units_Z   2
loop_
 _symmetry_equiv_pos_site_id
 _symmetry_equiv_pos_as_xyz
  1  'x, y, z'
loop_
 _atom_site_type_symbol
 _atom_site_label
 _atom_site_symmetry_multiplicity
 _atom_site_fract_x
 _atom_site_fract_y
 _atom_site_fract_z
 _atom_site_occupancy
  Sr  Sr0  1  0.50000000  0.50000000  0.67079900  1
  Sr  Sr1  1  0.50000000  0.00000000  0.17079900  1
  Mg  Mg0  1  0.50000000  0.74841000  0.91878500  1
  Mg  Mg1  1  0.50000000  0.25159000  0.91878500  1
  Mg  Mg2  1  0.00000000  0.24162400  0.57577700  1
  Mg  Mg3  1  0.00000000  0.75837600  0.57577700  1
  Mg  Mg4  1  0.00000000  0.50000000  0.84309700  1
  Mg  Mg5  1  0.00000000  0.00000000  0.83565400  1
  Mg  Mg6  1  0.50000000  0.24841000  0.41878500  1
  Mg  Mg7  1  0.50000000  0.75159000  0.41878500  1
  Mg  Mg8  1  0.00000000  0.74162400  0.07577700  1
  Mg  Mg9  1  0.00000000  0.25837600  0.07577700  1
  Mg  Mg10  1  0.00000000  0.00000000  0.34309700  1
  Mg  Mg11  1  0.00000000  0.50000000  0.33565400  1
  Sb  Sb0  1  0.50000000  0.00000000  0.66132100  1
  Sb  Sb1  1  0.50000000  0.50000000  0.16132100  1
loop_
_geom_bond_atom_site_label_1
_geom_bond_atom_site_label_2
_geom_bond_distance
_geom_bond_site_symmetry_2
Mg0 Mg1 3.204954 1_555
Mg0 Mg1 3.245982 1_565
Mg0 Mg4 3.279874 1_655
Mg0 Mg4 3.279874 1_555
Mg0 Mg8 3.300696 1_656
Mg0 Mg8 3.300696 1_556
Mg0 Sb1 3.312527 1_556
Mg0 Mg5 3.315516 1_665
Mg0 Mg5 3.315516 1_565
Mg0 Sr0 3.369690 1_555
Mg0 Sr1 3.421804 1_566
Mg0 Sb0 3.479293 1_565
Mg1 Mg4 3.279874 1_555
Mg1 Mg4 3.279874 1_655
Mg1 Mg9 3.300696 1_556
Mg1 Mg9 3.300696 1_656
Mg1 Sb1 3.312527 1_556
Mg1 Mg5 3.315516 1_655
Mg1 Mg5 3.315516 1_555
Mg1 Sr0 3.369690 1_555
Mg1 Sr1 3.421804 1_556
Mg1 Sb0 3.479293 1_555
Mg2 Sb0 3.293364 1_555
Mg2 Sb0 3.293364 1_455
Mg2 Mg6 3.300696 1_455
Mg2 Mg6 3.300696 1_555
Mg2 Sr0 3.382210 1_455
Mg2 Sr0 3.382210 1_555
Mg2 Mg5 3.475528 1_555
Mg3 Sb0 3.293364 1_465
Mg3 Sb0 3.293364 1_565
Mg3 Mg7 3.300696 1_455
Mg3 Mg7 3.300696 1_555
Mg3 Sr0 3.382210 1_455
Mg3 Sr0 3.382210 1_555
Mg3 Mg5 3.475528 1_565
Mg4 Mg8 3.188295 1_556
Mg4 Mg9 3.188295 1_556
Mg4 Mg5 3.226695 1_565
Mg4 Mg5 3.226695 1_555
Mg4 Sr0 3.407759 1_455
Mg4 Sr0 3.407759 1_555
Mg5 Mg9 3.319127 1_556
Mg5 Mg8 3.319127 1_546
Mg5 Sb0 3.422515 1_455
Mg5 Sb0 3.422515 1_555
Mg6 Mg7 3.204954 1_545
Mg6 Mg7 3.245982 1_555
Mg6 Sb0 3.312527 1_555
Mg6 Sr1 3.369690 1_555
Mg6 Sr0 3.421804 1_555
Mg6 Sb1 3.479293 1_555
Mg7 Sb0 3.312527 1_565
Mg7 Sr1 3.369690 1_565
Mg7 Sr0 3.421804 1_555
Mg7 Sb1 3.479293 1_555
Mg8 Sb1 3.293364 1_455
Mg8 Sb1 3.293364 1_555
Mg8 Sr1 3.382210 1_565
Mg8 Sr1 3.382210 1_465
Mg9 Sb1 3.293364 1_455
Mg9 Sb1 3.293364 1_555
Mg9 Sr1 3.382210 1_455
Mg9 Sr1 3.382210 1_555
Mg10 Mg2 3.188295 1_555
Mg10 Mg3 3.188295 1_545
Mg10 Mg11 3.226695 1_555
Mg10 Mg11 3.226695 1_545
Mg10 Mg6 3.279874 1_555
Mg10 Mg6 3.279874 1_455
Mg10 Mg7 3.279874 1_545
Mg10 Mg7 3.279874 1_445
Mg10 Sr1 3.407759 1_555
Mg10 Sr1 3.407759 1_455
Mg11 Mg7 3.315516 1_455
Mg11 Mg7 3.315516 1_555
Mg11 Mg6 3.315516 1_555
Mg11 Mg6 3.315516 1_455
Mg11 Mg3 3.319127 1_555
Mg11 Mg2 3.319127 1_555
Mg11 Sb1 3.422515 1_455
Mg11 Sb1 3.422515 1_555
Mg11 Mg9 3.475528 1_555
Mg11 Mg8 3.475528 1_555
Sb0 Sr0 3.227457 1_545
Sb0 Sr0 3.227457 1_555
Sb1 Sr1 3.227457 1_565
Sb1 Sr1 3.227457 1_555
