# generated using pymatgen
data_Zr2SiO2
_symmetry_space_group_name_H-M   'P 1'
_cell_length_a   3.14442100
_cell_length_b   3.14442100
_cell_length_c   11.77443600
_cell_angle_alpha   90.00000000
_cell_angle_beta   90.00000000
_cell_angle_gamma   90.00000000
_symmetry_Int_Tables_number   1
_chemical_formula_structural   Zr2SiO2
_chemical_formula_sum   'Zr2 Si1 O2'
_cell_volume   116.41836335
_cell_formula_units_Z   1
loop_
 _symmetry_equiv_pos_site_id
 _symmetry_equiv_pos_as_xyz
  1  'x, y, z'
loop_
 _atom_site_type_symbol
 _atom_site_label
 _atom_site_symmetry_multiplicity
 _atom_site_fract_x
 _atom_site_fract_y
 _atom_site_fract_z
 _atom_site_occupancy
  Zr  Zr0  1  0.50000000  0.50000000  0.23974600  1
  Zr  Zr1  1  0.50000000  0.50000000  0.76025400  1
  Si  Si0  1  0.50000000  0.50000000  0.00000000  1
  O  O0  1  0.50000000  0.50000000  0.61058500  1
  O  O1  1  0.50000000  0.50000000  0.38941500  1
loop_
_geom_bond_atom_site_label_1
_geom_bond_atom_site_label_2
_geom_bond_distance
_geom_bond_site_symmetry_2
Si0 Zr0 2.822874 1_555
Si0 Zr1 2.822874 1_554
O0 Zr1 1.762268 1_555
O1 Zr0 1.762268 1_555
