# generated using pymatgen
data_PrGa2Ni3
_symmetry_space_group_name_H-M   'P 1'
_cell_length_a   8.85818518
_cell_length_b   8.85943422
_cell_length_c   4.10103839
_cell_angle_alpha   90.00000000
_cell_angle_beta   90.00000000
_cell_angle_gamma   120.00593062
_symmetry_Int_Tables_number   1
_chemical_formula_structural   PrGa2Ni3
_chemical_formula_sum   'Pr3 Ga6 Ni9'
_cell_volume   278.70788296
_cell_formula_units_Z   3
loop_
 _symmetry_equiv_pos_site_id
 _symmetry_equiv_pos_as_xyz
  1  'x, y, z'
loop_
 _atom_site_type_symbol
 _atom_site_label
 _atom_site_symmetry_multiplicity
 _atom_site_fract_x
 _atom_site_fract_y
 _atom_site_fract_z
 _atom_site_occupancy
  Pr  Pr0  1  0.33327621  0.66661746  0.50000000  1
  Pr  Pr1  1  0.66672982  0.33339840  0.50000000  1
  Pr  Pr2  1  1.00012883  1.00015540  -0.00000000  1
  Ga  Ga0  1  0.27325008  1.00005774  0.50000000  1
  Ga  Ga1  1  0.99994838  0.27304198  0.50000000  1
  Ga  Ga2  1  0.72686870  0.72695202  0.50000000  1
  Ga  Ga3  1  0.52771159  -0.00010977  0.00000000  1
  Ga  Ga4  1  -0.00006656  0.52767715  0.00000000  1
  Ga  Ga5  1  0.47216519  0.47213531  -0.00000000  1
  Ni  Ni0  1  0.16779084  0.37261187  -0.00000000  1
  Ni  Ni1  1  0.62747465  0.79530562  0.00000000  1
  Ni  Ni2  1  0.20452067  0.83210122  -0.00000000  1
  Ni  Ni3  1  0.79542118  0.62762058  -0.00000000  1
  Ni  Ni4  1  0.83209456  0.20462486  -0.00000000  1
  Ni  Ni5  1  0.37279462  0.16788528  -0.00000000  1
  Ni  Ni6  1  0.71256383  -0.00008290  0.50000000  1
  Ni  Ni7  1  -0.00005835  0.71266820  0.50000000  1
  Ni  Ni8  1  0.28738675  0.28733659  0.50000000  1
loop_
_geom_bond_atom_site_label_1
_geom_bond_atom_site_label_2
_geom_bond_distance
_geom_bond_site_symmetry_2
Ga0 Ni5 2.425200 1_566
Ga0 Ni5 2.425200 1_565
Ga0 Ni2 2.425561 1_555
Ga0 Ni2 2.425561 1_556
Ga0 Ni8 2.484872 1_565
Ga0 Ni7 2.485702 1_555
Ga0 Pr2 3.171753 1_456
Ga0 Pr2 3.171753 1_455
Ga0 Pr1 3.251917 1_565
Ga0 Pr0 3.252757 1_555
Ga1 Ni4 2.425166 1_555
Ga1 Ni4 2.425166 1_556
Ga1 Ni0 2.425186 1_656
Ga1 Ni0 2.425186 1_655
Ga1 Ni6 2.484892 1_555
Ga1 Ni8 2.485271 1_655
Ga1 Pr2 3.170708 1_546
Ga1 Pr2 3.170708 1_545
Ga1 Pr1 3.252255 1_555
Ga1 Pr0 3.252548 1_655
Ga2 Ni1 2.424833 1_555
Ga2 Ni1 2.424833 1_556
Ga2 Ni3 2.425347 1_556
Ga2 Ni3 2.425347 1_555
Ga2 Ni6 2.484110 1_565
Ga2 Ni7 2.484633 1_655
Ga2 Pr2 3.172135 1_555
Ga2 Pr2 3.172135 1_556
Ga2 Pr0 3.252311 1_555
Ga2 Pr1 3.253130 1_555
Ga3 Ni1 2.380790 1_545
Ga3 Ni4 2.380849 1_555
Ga3 Ni5 2.478127 1_555
Ga3 Ni2 2.479789 1_545
Ga3 Ni6 2.624023 1_555
Ga3 Ni6 2.624023 1_554
Ga3 Pr0 3.286742 1_544
Ga3 Pr0 3.286742 1_545
Ga3 Pr1 3.288176 1_555
Ga3 Pr1 3.288176 1_554
Ga4 Ni2 2.381104 1_555
Ga4 Ni3 2.381237 1_455
Ga4 Ni0 2.478161 1_555
Ga4 Ni4 2.479089 1_455
Ga4 Ni7 2.624987 1_554
Ga4 Ni7 2.624987 1_555
Ga4 Pr1 3.286002 1_455
Ga4 Pr1 3.286002 1_454
Ga4 Pr0 3.286877 1_554
Ga4 Pr0 3.286877 1_555
Ga5 Ni5 2.380620 1_555
Ga5 Ni0 2.381013 1_555
Ga5 Ni1 2.480008 1_555
Ga5 Ni3 2.480280 1_555
Ga5 Ni8 2.623726 1_555
Ga5 Ni8 2.623726 1_554
Ga5 Pr1 3.287032 1_555
Ga5 Pr1 3.287032 1_554
Ga5 Pr0 3.287432 1_555
Ga5 Pr0 3.287432 1_554
Ni0 Ni4 2.575111 1_455
Ni0 Ni8 2.588096 1_555
Ni0 Ni8 2.588096 1_554
Ni0 Pr2 2.862259 1_445
Ni0 Pr0 3.052724 1_554
Ni0 Pr0 3.052724 1_555
Ni1 Ni3 2.575027 1_555
Ni1 Ni6 2.586930 1_565
Ni1 Ni6 2.586930 1_564
Ni1 Pr2 2.863316 1_555
Ni1 Pr0 3.053575 1_554
Ni1 Pr0 3.053575 1_555
Ni2 Ni5 2.576149 1_565
Ni2 Ni7 2.586589 1_554
Ni2 Ni7 2.586589 1_555
Ni2 Pr2 2.861977 1_455
Ni2 Pr0 3.054067 1_554
Ni2 Pr0 3.054067 1_555
Ni3 Ni7 2.586356 1_654
Ni3 Ni7 2.586356 1_655
Ni3 Pr2 2.862735 1_555
Ni3 Pr1 3.053967 1_555
Ni3 Pr1 3.053967 1_554
Ni4 Ni6 2.587323 1_554
Ni4 Ni6 2.587323 1_555
Ni4 Pr2 2.862495 1_545
Ni4 Pr1 3.053423 1_555
Ni4 Pr1 3.053423 1_554
Ni5 Ni8 2.587998 1_555
Ni5 Ni8 2.587998 1_554
Ni5 Pr2 2.863453 1_445
Ni5 Pr1 3.052141 1_555
Ni5 Pr1 3.052141 1_554
Ni6 Pr0 3.175658 1_545
Ni6 Pr1 3.177010 1_555
Ni6 Pr2 3.269253 1_545
Ni6 Pr2 3.269253 1_546
Ni7 Pr1 3.175367 1_455
Ni7 Pr0 3.176477 1_555
Ni7 Pr2 3.269172 1_455
Ni7 Pr2 3.269172 1_456
Ni8 Pr1 3.175936 1_555
Ni8 Pr0 3.176494 1_555
Ni8 Pr2 3.267653 1_446
Ni8 Pr2 3.267653 1_445
