# generated using pymatgen
data_Sr2ZnAs2
_symmetry_space_group_name_H-M   'P 1'
_cell_length_a   4.38028021
_cell_length_b   4.38028021
_cell_length_c   8.56552600
_cell_angle_alpha   90.00000000
_cell_angle_beta   90.00000000
_cell_angle_gamma   120.00000320
_symmetry_Int_Tables_number   1
_chemical_formula_structural   Sr2ZnAs2
_chemical_formula_sum   'Sr2 Zn1 As2'
_cell_volume   142.32737607
_cell_formula_units_Z   1
loop_
 _symmetry_equiv_pos_site_id
 _symmetry_equiv_pos_as_xyz
  1  'x, y, z'
loop_
 _atom_site_type_symbol
 _atom_site_label
 _atom_site_symmetry_multiplicity
 _atom_site_fract_x
 _atom_site_fract_y
 _atom_site_fract_z
 _atom_site_occupancy
  Sr  Sr0  1  0.00000000  0.00000000  0.70553400  1
  Sr  Sr1  1  0.00000000  0.00000000  0.29446600  1
  Zn  Zn0  1  0.66666700  0.33333300  0.00000000  1
  As  As0  1  0.66666700  0.33333300  0.50000000  1
  As  As1  1  0.33333300  0.66666700  0.00000000  1
loop_
_geom_bond_atom_site_label_1
_geom_bond_atom_site_label_2
_geom_bond_distance
_geom_bond_site_symmetry_2
As0 Sr1 3.081394 1_655
As0 Sr0 3.081394 1_655
As0 Sr1 3.081397 1_665
As0 Sr0 3.081397 1_555
As0 Sr1 3.081397 1_555
As0 Sr0 3.081397 1_665
As1 Zn0 2.528953 1_455
As1 Zn0 2.528953 1_565
As1 Zn0 2.528961 1_555
