# generated using pymatgen
data_V3OF7
_symmetry_space_group_name_H-M   'P 1'
_cell_length_a   4.02485283
_cell_length_b   7.97527978
_cell_length_c   10.00673832
_cell_angle_alpha   90.21007020
_cell_angle_beta   89.44335405
_cell_angle_gamma   104.80500946
_symmetry_Int_Tables_number   1
_chemical_formula_structural   V3OF7
_chemical_formula_sum   'V6 O2 F14'
_cell_volume   310.53086084
_cell_formula_units_Z   2
loop_
 _symmetry_equiv_pos_site_id
 _symmetry_equiv_pos_as_xyz
  1  'x, y, z'
loop_
 _atom_site_type_symbol
 _atom_site_label
 _atom_site_symmetry_multiplicity
 _atom_site_fract_x
 _atom_site_fract_y
 _atom_site_fract_z
 _atom_site_occupancy
  V  V0  1  0.67998400  0.35761400  0.92756400  1
  V  V1  1  0.32350300  0.64295700  0.42765500  1
  V  V2  1  0.54207000  0.08053000  0.24977900  1
  V  V3  1  0.45665100  0.91953000  0.74998300  1
  V  V4  1  0.67578200  0.35682400  0.57287300  1
  V  V5  1  0.31997300  0.64279000  0.07292600  1
  O  O0  1  0.71003200  0.42050700  0.74988600  1
  O  O1  1  0.29086100  0.57963300  0.25004500  1
  F  F0  1  0.03836000  0.07614300  0.24919500  1
  F  F1  1  0.96111400  0.92447000  0.74965400  1
  F  F2  1  0.55585100  0.10656500  0.61589800  1
  F  F3  1  0.56152200  0.10788500  0.88384700  1
  F  F4  1  0.43211300  0.89357100  0.11664200  1
  F  F5  1  0.45258700  0.89189400  0.38412900  1
  F  F6  1  0.62408600  0.26536200  0.11444100  1
  F  F7  1  0.63431300  0.26223900  0.38468200  1
  F  F8  1  0.35970400  0.73473600  0.61561700  1
  F  F9  1  0.38139200  0.73669400  0.88525500  1
  F  F10  1  0.20007100  0.40009300  0.96600800  1
  F  F11  1  0.19746200  0.39707300  0.53326800  1
  F  F12  1  0.80145200  0.60215200  0.03372600  1
  F  F13  1  0.80111600  0.60073900  0.46692700  1
loop_
_geom_bond_atom_site_label_1
_geom_bond_atom_site_label_2
_geom_bond_distance
_geom_bond_site_symmetry_2
O0 V4 1.837636 1_555
O0 V0 1.843578 1_555
O1 V5 1.838785 1_555
O1 V1 1.842591 1_555
F0 V2 2.006671 1_455
F0 V2 2.018767 1_555
F1 V3 2.004927 1_655
F1 V3 2.020652 1_555
F2 V3 1.970952 1_545
F2 V4 1.977833 1_555
F3 V0 1.974276 1_555
F3 V3 1.975165 1_545
F4 V2 1.963079 1_565
F4 V5 1.982764 1_555
F5 V1 1.968760 1_555
F5 V2 1.982158 1_565
F6 V2 1.968064 1_555
F6 V0 2.001563 1_554
F7 V2 1.944408 1_555
F7 V4 2.018563 1_555
F8 V3 1.958039 1_555
F8 V1 2.008845 1_555
F9 V3 1.957320 1_555
F9 V5 2.013813 1_556
F10 V0 2.072879 1_455
F10 V0 2.076728 1_555
F10 V5 2.154416 1_556
F11 V4 2.073151 1_555
F11 V4 2.075837 1_455
F11 V1 2.171666 1_555
F12 V5 2.069700 1_655
F12 V5 2.078359 1_555
F12 V0 2.163031 1_554
F13 V1 2.075947 1_555
F13 V1 2.076431 1_655
F13 V4 2.160051 1_555
