# generated using pymatgen
data_MgMnO2
_symmetry_space_group_name_H-M   'P 1'
_cell_length_a   3.10497900
_cell_length_b   8.22078731
_cell_length_c   8.51047850
_cell_angle_alpha   89.89434004
_cell_angle_beta   84.00786091
_cell_angle_gamma   89.79173330
_symmetry_Int_Tables_number   1
_chemical_formula_structural   MgMnO2
_chemical_formula_sum   'Mg4 Mn4 O8'
_cell_volume   216.04455523
_cell_formula_units_Z   4
loop_
 _symmetry_equiv_pos_site_id
 _symmetry_equiv_pos_as_xyz
  1  'x, y, z'
loop_
 _atom_site_type_symbol
 _atom_site_label
 _atom_site_symmetry_multiplicity
 _atom_site_fract_x
 _atom_site_fract_y
 _atom_site_fract_z
 _atom_site_occupancy
  Mg  Mg0  1  0.65338200  0.91888500  0.24452600  1
  Mg  Mg1  1  0.34661800  0.08111500  0.75547400  1
  Mg  Mg2  1  0.25016200  0.26175200  0.38139200  1
  Mg  Mg3  1  0.74983800  0.73824800  0.61860800  1
  Mn  Mn0  1  0.02714100  0.75250300  0.92440600  1
  Mn  Mn1  1  0.29464700  0.59945600  0.28526900  1
  Mn  Mn2  1  0.70535300  0.40054400  0.71473100  1
  Mn  Mn3  1  0.97285900  0.24749700  0.07559400  1
  O  O0  1  0.52424100  0.24678500  0.91647300  1
  O  O1  1  0.22172600  0.60614500  0.71763600  1
  O  O2  1  0.77827400  0.39385500  0.28236400  1
  O  O3  1  0.47575900  0.75321500  0.08352700  1
  O  O4  1  0.84833200  0.92790100  0.75404300  1
  O  O5  1  0.76276100  0.74005700  0.39235300  1
  O  O6  1  0.15166800  0.07209900  0.24595700  1
  O  O7  1  0.23723900  0.25994300  0.60764700  1
loop_
_geom_bond_atom_site_label_1
_geom_bond_atom_site_label_2
_geom_bond_distance
_geom_bond_site_symmetry_2
Mg0 O5 1.984458 1_555
Mg0 O6 1.998799 1_565
Mg0 O6 1.999618 1_665
Mg0 O3 2.050987 1_555
Mg1 O7 1.984458 1_555
Mg1 O4 1.998799 1_545
Mg1 O4 1.999618 1_445
Mg1 O0 2.050987 1_555
Mg2 O7 1.921795 1_555
Mg2 O6 1.984068 1_555
Mg2 O2 2.068655 1_455
Mg2 O2 2.073536 1_555
Mg3 O5 1.921795 1_555
Mg3 O4 1.984068 1_555
Mg3 O1 2.068655 1_655
Mg3 O1 2.073536 1_555
Mn0 O3 2.041596 1_556
Mn0 O3 2.069017 1_456
Mn0 O4 2.154996 1_455
Mn0 O1 2.165596 1_555
Mn1 O5 2.137694 1_455
Mn1 O5 2.138176 1_555
Mn1 O3 2.158097 1_555
Mn1 O2 2.255283 1_555
Mn1 O2 2.335848 1_455
Mn2 O7 2.137694 1_655
Mn2 O7 2.138176 1_555
Mn2 O0 2.158097 1_555
Mn2 O1 2.255283 1_555
Mn2 O1 2.335848 1_655
Mn3 O0 2.041596 1_554
Mn3 O0 2.069017 1_654
Mn3 O6 2.154996 1_655
Mn3 O2 2.165596 1_555
