# generated using pymatgen
data_CeFeSi2
_symmetry_space_group_name_H-M   'P 1'
_cell_length_a   4.01279211
_cell_length_b   4.07340212
_cell_length_c   8.49579043
_cell_angle_alpha   103.87063802
_cell_angle_beta   90.00000000
_cell_angle_gamma   90.00000000
_symmetry_Int_Tables_number   1
_chemical_formula_structural   CeFeSi2
_chemical_formula_sum   'Ce2 Fe2 Si4'
_cell_volume   134.82025921
_cell_formula_units_Z   2
loop_
 _symmetry_equiv_pos_site_id
 _symmetry_equiv_pos_as_xyz
  1  'x, y, z'
loop_
 _atom_site_type_symbol
 _atom_site_label
 _atom_site_symmetry_multiplicity
 _atom_site_fract_x
 _atom_site_fract_y
 _atom_site_fract_z
 _atom_site_occupancy
  Ce  Ce0  1  0.25000000  0.38920920  0.77841940  1
  Ce  Ce1  1  0.75000000  0.61079080  0.22158060  1
  Fe  Fe0  1  0.25000000  0.75036772  0.50073644  1
  Fe  Fe1  1  0.75000000  0.24963228  0.49926356  1
  Si  Si0  1  0.25000000  0.03654983  0.07309966  1
  Si  Si1  1  0.75000000  0.96345017  0.92690034  1
  Si  Si2  1  0.25000000  0.18701499  0.37402799  1
  Si  Si3  1  0.75000000  0.81298501  0.62597201  1
loop_
_geom_bond_atom_site_label_1
_geom_bond_atom_site_label_2
_geom_bond_distance
_geom_bond_site_symmetry_2
Ce0 Fe1 3.054028 1_455
Ce0 Fe1 3.054028 1_555
Ce0 Fe0 3.064934 1_555
Ce0 Fe0 3.064934 1_545
Ce0 Si1 3.110242 1_445
Ce0 Si1 3.110242 1_545
Ce0 Si1 3.110245 1_555
Ce0 Si1 3.110245 1_455
Ce0 Si3 3.123269 1_455
Ce0 Si3 3.123269 1_555
Ce0 Si3 3.123271 1_545
Ce0 Si3 3.123271 1_445
Ce0 Si0 3.171065 1_556
Ce0 Si0 3.171068 1_566
Ce1 Fe0 3.054028 1_555
Ce1 Fe0 3.054028 1_655
Ce1 Fe1 3.064934 1_555
Ce1 Fe1 3.064934 1_565
Ce1 Si0 3.110242 1_665
Ce1 Si0 3.110242 1_565
Ce1 Si0 3.110245 1_655
Ce1 Si0 3.110245 1_555
Ce1 Si2 3.123269 1_555
Ce1 Si2 3.123269 1_655
Ce1 Si2 3.123271 1_665
Ce1 Si2 3.123271 1_565
Ce1 Si1 3.171065 1_554
Ce1 Si1 3.171068 1_544
Fe0 Si3 2.256681 1_455
Fe0 Si3 2.256681 1_555
Fe0 Si2 2.289182 1_555
Fe0 Si2 2.289193 1_565
Fe1 Si2 2.256681 1_555
Fe1 Si2 2.256681 1_655
Fe1 Si3 2.289182 1_555
Fe1 Si3 2.289193 1_545
Si0 Si1 2.340880 1_544
Si0 Si1 2.340880 1_444
Si0 Si2 2.482071 1_555
Si1 Si3 2.482071 1_555
