# generated using pymatgen
data_Er3Co11B4
_symmetry_space_group_name_H-M   'P 1'
_cell_length_a   4.99756230
_cell_length_b   4.99756230
_cell_length_c   9.74310500
_cell_angle_alpha   90.00000000
_cell_angle_beta   90.00000000
_cell_angle_gamma   120.00000402
_symmetry_Int_Tables_number   1
_chemical_formula_structural   Er3Co11B4
_chemical_formula_sum   'Er3 Co11 B4'
_cell_volume   210.73876530
_cell_formula_units_Z   1
loop_
 _symmetry_equiv_pos_site_id
 _symmetry_equiv_pos_as_xyz
  1  'x, y, z'
loop_
 _atom_site_type_symbol
 _atom_site_label
 _atom_site_symmetry_multiplicity
 _atom_site_fract_x
 _atom_site_fract_y
 _atom_site_fract_z
 _atom_site_occupancy
  Er  Er0  1  0.00000000  0.00000000  0.00000000  1
  Er  Er1  1  0.00000000  0.00000000  0.65774200  1
  Er  Er2  1  0.00000000  0.00000000  0.34225800  1
  Co  Co0  1  0.66666700  0.33333300  0.00000000  1
  Co  Co1  1  0.33333300  0.66666700  0.00000000  1
  Co  Co2  1  0.50000000  0.50000000  0.50000000  1
  Co  Co3  1  0.50000000  0.00000000  0.50000000  1
  Co  Co4  1  0.00000000  0.50000000  0.50000000  1
  Co  Co5  1  0.50000000  0.50000000  0.79839500  1
  Co  Co6  1  0.50000000  0.00000000  0.79839500  1
  Co  Co7  1  0.00000000  0.50000000  0.79839500  1
  Co  Co8  1  0.50000000  0.50000000  0.20160500  1
  Co  Co9  1  0.50000000  0.00000000  0.20160500  1
  Co  Co10  1  0.00000000  0.50000000  0.20160500  1
  B  B0  1  0.66666700  0.33333300  0.65025800  1
  B  B1  1  0.33333300  0.66666700  0.65025800  1
  B  B2  1  0.33333300  0.66666700  0.34974200  1
  B  B3  1  0.66666700  0.33333300  0.34974200  1
loop_
_geom_bond_atom_site_label_1
_geom_bond_atom_site_label_2
_geom_bond_distance
_geom_bond_site_symmetry_2
Co0 Co10 2.437132 1_655
Co0 Co9 2.437132 1_555
Co0 Co7 2.437132 1_654
Co0 Co6 2.437132 1_554
Co0 Co8 2.437134 1_555
Co0 Co5 2.437134 1_554
Co0 Er0 2.885341 1_655
Co0 Er0 2.885345 1_555
Co0 Er0 2.885345 1_665
Co1 Co10 2.437132 1_555
Co1 Co9 2.437132 1_565
Co1 Co7 2.437132 1_554
Co1 Co6 2.437132 1_564
Co1 Co8 2.437134 1_555
Co1 Co5 2.437134 1_554
Co1 Er0 2.885341 1_565
Co1 Er0 2.885345 1_555
Co1 Er0 2.885345 1_665
Co2 Er1 2.933591 1_665
Co2 Er2 2.933591 1_555
Co2 Er1 2.933591 1_555
Co2 Er2 2.933591 1_665
Co3 Er2 2.933592 1_555
Co3 Er2 2.933592 1_655
Co3 Er1 2.933592 1_555
Co3 Er1 2.933592 1_655
Co4 Er2 2.933592 1_565
Co4 Er2 2.933592 1_555
Co4 Er1 2.933592 1_565
Co4 Er1 2.933592 1_555
Co5 Er1 2.849894 1_665
Co5 Er1 2.849894 1_555
Co6 Er1 2.849894 1_655
Co6 Er1 2.849894 1_555
Co7 Er1 2.849894 1_555
Co7 Er1 2.849894 1_565
Co8 Er2 2.849894 1_555
Co8 Er2 2.849894 1_665
Co9 Er2 2.849894 1_555
Co9 Er2 2.849894 1_655
Co10 Er2 2.849894 1_565
Co10 Er2 2.849894 1_555
B0 Co6 2.040699 1_555
B0 Co7 2.040699 1_655
B0 Co5 2.040703 1_555
B0 Co3 2.055367 1_555
B0 Co4 2.055367 1_655
B0 Co2 2.055370 1_555
B0 Er1 2.886262 1_655
B0 Er1 2.886266 1_665
B0 Er1 2.886266 1_555
B1 Co7 2.040699 1_555
B1 Co6 2.040699 1_565
B1 Co5 2.040703 1_555
B1 Co3 2.055367 1_565
B1 Co4 2.055367 1_555
B1 Co2 2.055370 1_555
B1 Er1 2.886262 1_565
B1 Er1 2.886266 1_665
B1 Er1 2.886266 1_555
B2 Co10 2.040699 1_555
B2 Co9 2.040699 1_565
B2 Co8 2.040703 1_555
B2 Co3 2.055367 1_565
B2 Co4 2.055367 1_555
B2 Co2 2.055370 1_555
B2 Er2 2.886262 1_565
B2 Er2 2.886266 1_555
B2 Er2 2.886266 1_665
B3 Co9 2.040699 1_555
B3 Co10 2.040699 1_655
B3 Co8 2.040703 1_555
B3 Co3 2.055367 1_555
B3 Co4 2.055367 1_655
B3 Co2 2.055370 1_555
B3 Er2 2.886262 1_655
B3 Er2 2.886266 1_555
B3 Er2 2.886266 1_665
