# generated using pymatgen
data_CsYMnSe3
_symmetry_space_group_name_H-M   'P 1'
_cell_length_a   8.35055356
_cell_length_b   8.35055356
_cell_length_c   11.09883900
_cell_angle_alpha   90.00000000
_cell_angle_beta   90.00000000
_cell_angle_gamma   150.47409074
_symmetry_Int_Tables_number   1
_chemical_formula_structural   CsYMnSe3
_chemical_formula_sum   'Cs2 Y2 Mn2 Se6'
_cell_volume   381.41155009
_cell_formula_units_Z   2
loop_
 _symmetry_equiv_pos_site_id
 _symmetry_equiv_pos_as_xyz
  1  'x, y, z'
loop_
 _atom_site_type_symbol
 _atom_site_label
 _atom_site_symmetry_multiplicity
 _atom_site_fract_x
 _atom_site_fract_y
 _atom_site_fract_z
 _atom_site_occupancy
  Cs  Cs0  1  0.25724600  0.74275400  0.25000000  1
  Cs  Cs1  1  0.74275400  0.25724600  0.75000000  1
  Y  Y0  1  0.00000000  0.00000000  0.00000000  1
  Y  Y1  1  0.00000000  0.00000000  0.50000000  1
  Mn  Mn0  1  0.53719200  0.46280800  0.25000000  1
  Mn  Mn1  1  0.46280800  0.53719200  0.75000000  1
  Se  Se0  1  0.61600500  0.38399500  0.05759500  1
  Se  Se1  1  0.38399500  0.61600500  0.94240500  1
  Se  Se2  1  0.38399500  0.61600500  0.55759500  1
  Se  Se3  1  0.61600500  0.38399500  0.44240500  1
  Se  Se4  1  0.94548100  0.05451900  0.25000000  1
  Se  Se5  1  0.05451900  0.94548100  0.75000000  1
loop_
_geom_bond_atom_site_label_1
_geom_bond_atom_site_label_2
_geom_bond_distance
_geom_bond_site_symmetry_2
Cs0 Se4 3.710693 1_565
Cs0 Se4 3.710693 1_455
Cs0 Se0 3.780368 1_455
Cs0 Se3 3.780368 1_455
Cs0 Se0 3.780368 1_565
Cs0 Se3 3.780368 1_565
Cs0 Se2 3.980592 1_555
Cs0 Se1 3.980592 1_554
Cs1 Se5 3.710693 1_545
Cs1 Se5 3.710693 1_655
Cs1 Se1 3.780368 1_545
Cs1 Se1 3.780368 1_655
Cs1 Se2 3.780368 1_545
Cs1 Se2 3.780368 1_655
Cs1 Se3 3.980592 1_555
Cs1 Se0 3.980592 1_556
Mn0 Se3 2.486019 1_555
Mn0 Se0 2.486019 1_555
Mn0 Se4 2.592609 1_565
Mn0 Se4 2.592609 1_455
Mn1 Se1 2.486019 1_555
Mn1 Se2 2.486019 1_555
Mn1 Se5 2.592609 1_655
Mn1 Se5 2.592609 1_545
Se0 Y0 2.906267 1_555
Se0 Y0 2.906267 1_665
Se1 Y0 2.906267 1_666
Se1 Y0 2.906267 1_556
Se2 Y1 2.906267 1_555
Se2 Y1 2.906267 1_665
Se3 Y1 2.906267 1_555
Se3 Y1 2.906267 1_665
Se4 Y0 2.911055 1_655
Se4 Y1 2.911055 1_655
Se5 Y0 2.911055 1_566
Se5 Y1 2.911055 1_565
