# generated using pymatgen
data_NaMn3Ag(PO4)3
_symmetry_space_group_name_H-M   'P 1'
_cell_length_a   8.86081872
_cell_length_b   8.86081872
_cell_length_c   6.67831188
_cell_angle_alpha   73.06988043
_cell_angle_beta   73.06988043
_cell_angle_gamma   93.34298287
_symmetry_Int_Tables_number   1
_chemical_formula_structural   NaMn3Ag(PO4)3
_chemical_formula_sum   'Na2 Mn6 Ag2 P6 O24'
_cell_volume   473.97381142
_cell_formula_units_Z   2
loop_
 _symmetry_equiv_pos_site_id
 _symmetry_equiv_pos_as_xyz
  1  'x, y, z'
loop_
 _atom_site_type_symbol
 _atom_site_label
 _atom_site_symmetry_multiplicity
 _atom_site_fract_x
 _atom_site_fract_y
 _atom_site_fract_z
 _atom_site_occupancy
  Na  Na0  1  0.50000000  0.50000000  0.00000000  1
  Na  Na1  1  0.50000000  0.50000000  0.50000000  1
  Mn  Mn0  1  0.26792000  0.73208000  0.25000000  1
  Mn  Mn1  1  0.73208000  0.26792000  0.75000000  1
  Mn  Mn2  1  0.38071200  0.06255100  0.36513600  1
  Mn  Mn3  1  0.61928800  0.93744900  0.63486400  1
  Mn  Mn4  1  0.93744900  0.61928800  0.13486400  1
  Mn  Mn5  1  0.06255100  0.38071200  0.86513600  1
  Ag  Ag0  1  0.98886300  0.01113700  0.25000000  1
  Ag  Ag1  1  0.01113700  0.98886300  0.75000000  1
  P  P0  1  0.65298400  0.87406100  0.12805600  1
  P  P1  1  0.34701600  0.12593900  0.87194400  1
  P  P2  1  0.12593900  0.34701600  0.37194400  1
  P  P3  1  0.87406100  0.65298400  0.62805600  1
  P  P4  1  0.71489600  0.28510400  0.25000000  1
  P  P5  1  0.28510400  0.71489600  0.75000000  1
  O  O0  1  0.59799500  0.95258100  0.31338200  1
  O  O1  1  0.40200500  0.04741900  0.68661800  1
  O  O2  1  0.04741900  0.40200500  0.18661800  1
  O  O3  1  0.95258100  0.59799500  0.81338200  1
  O  O4  1  0.32775500  0.99846700  0.09981900  1
  O  O5  1  0.67224500  0.00153300  0.90018100  1
  O  O6  1  0.00153300  0.67224500  0.40018100  1
  O  O7  1  0.99846700  0.32775500  0.59981900  1
  O  O8  1  0.52836700  0.72761800  0.17718500  1
  O  O9  1  0.47163300  0.27238200  0.82281500  1
  O  O10  1  0.27238200  0.47163300  0.32281500  1
  O  O11  1  0.72761800  0.52836700  0.67718500  1
  O  O12  1  0.54092600  0.26344000  0.24443600  1
  O  O13  1  0.45907400  0.73656000  0.75556400  1
  O  O14  1  0.73656000  0.45907400  0.25556400  1
  O  O15  1  0.26344000  0.54092600  0.74443600  1
  O  O16  1  0.73971800  0.17279500  0.46250300  1
  O  O17  1  0.26028200  0.82720500  0.53749700  1
  O  O18  1  0.82720500  0.26028200  0.03749700  1
  O  O19  1  0.17279500  0.73971800  0.96250300  1
  O  O20  1  0.82181500  0.82641200  0.12050100  1
  O  O21  1  0.17818500  0.17358800  0.87949900  1
  O  O22  1  0.17358800  0.17818500  0.37949900  1
  O  O23  1  0.82641200  0.82181500  0.62050100  1
loop_
_geom_bond_atom_site_label_1
_geom_bond_atom_site_label_2
_geom_bond_distance
_geom_bond_site_symmetry_2
Na0 O12 2.372882 1_555
Na0 O13 2.372882 1_554
Na0 O10 2.423141 1_555
Na0 O11 2.423141 1_554
Na0 O8 2.652404 1_555
Na0 O9 2.652404 1_554
Na1 O15 2.372882 1_555
Na1 O14 2.372882 1_555
Na1 O9 2.423141 1_555
Na1 O8 2.423141 1_555
Na1 O11 2.652404 1_555
Na1 O10 2.652404 1_555
Mn0 O8 2.220832 1_555
Mn0 O10 2.220832 1_555
Mn0 O4 2.241450 1_555
Mn0 O6 2.241450 1_555
Mn0 O17 2.296720 1_555
Mn0 O19 2.296720 1_554
Mn1 O11 2.220832 1_555
Mn1 O9 2.220832 1_555
Mn1 O7 2.241450 1_555
Mn1 O5 2.241450 1_555
Mn1 O18 2.296720 1_556
Mn1 O16 2.296720 1_555
Mn2 O12 2.009178 1_555
Mn2 O17 2.107007 1_545
Mn2 O22 2.145072 1_555
Mn2 O4 2.172854 1_545
Mn2 O1 2.175825 1_555
Mn2 O0 2.191609 1_545
Mn3 O13 2.009178 1_555
Mn3 O16 2.107007 1_565
Mn3 O23 2.145072 1_555
Mn3 O5 2.172854 1_565
Mn3 O0 2.175825 1_555
Mn3 O1 2.191609 1_565
Mn4 O14 2.009178 1_555
Mn4 O19 2.107007 1_654
Mn4 O20 2.145072 1_555
Mn4 O6 2.172854 1_655
Mn4 O3 2.175825 1_554
Mn4 O2 2.191609 1_655
Mn5 O15 2.009178 1_555
Mn5 O18 2.107007 1_456
Mn5 O21 2.145072 1_555
Mn5 O7 2.172854 1_455
Mn5 O2 2.175825 1_556
Mn5 O3 2.191609 1_455
Ag0 O23 2.497001 1_545
Ag0 O21 2.497001 1_654
Ag0 O22 2.627827 1_655
Ag0 O20 2.627827 1_545
Ag1 O22 2.497001 1_565
Ag1 O20 2.497001 1_456
Ag1 O21 2.627827 1_565
Ag1 O23 2.627827 1_455
O0 P0 1.563050 1_555
O1 P1 1.563050 1_555
O2 P2 1.563050 1_555
O3 P3 1.563050 1_555
O4 P1 1.563967 1_564
O5 P0 1.563967 1_546
O6 P3 1.563967 1_455
O7 P2 1.563967 1_655
O8 P0 1.544228 1_555
O9 P1 1.544228 1_555
O10 P2 1.544228 1_555
O11 P3 1.544228 1_555
O12 P4 1.554833 1_555
O13 P5 1.554833 1_555
O14 P4 1.554833 1_555
O15 P5 1.554833 1_555
O16 P4 1.561252 1_555
O17 P5 1.561252 1_555
O18 P4 1.561252 1_555
O19 P5 1.561252 1_555
O20 P0 1.568718 1_555
O21 P1 1.568718 1_555
O22 P2 1.568718 1_555
O23 P3 1.568718 1_555
