# generated using pymatgen
data_MgSnAsO5
_symmetry_space_group_name_H-M   'P 1'
_cell_length_a   6.37064600
_cell_length_b   9.00213580
_cell_length_c   9.08609468
_cell_angle_alpha   69.56696970
_cell_angle_beta   89.93011197
_cell_angle_gamma   89.86018678
_symmetry_Int_Tables_number   1
_chemical_formula_structural   MgSnAsO5
_chemical_formula_sum   'Mg4 Sn4 As4 O20'
_cell_volume   488.29473833
_cell_formula_units_Z   4
loop_
 _symmetry_equiv_pos_site_id
 _symmetry_equiv_pos_as_xyz
  1  'x, y, z'
loop_
 _atom_site_type_symbol
 _atom_site_label
 _atom_site_symmetry_multiplicity
 _atom_site_fract_x
 _atom_site_fract_y
 _atom_site_fract_z
 _atom_site_occupancy
  Mg  Mg0  1  0.74620600  0.02957800  0.03301600  1
  Mg  Mg1  1  0.25389600  0.40285500  0.59191200  1
  Mg  Mg2  1  0.75499000  0.59648800  0.90413800  1
  Mg  Mg3  1  0.24792500  0.97650900  0.47089800  1
  Sn  Sn0  1  0.49597300  0.00065100  0.75300900  1
  Sn  Sn1  1  0.50459400  0.50001400  0.24841000  1
  Sn  Sn2  1  0.00463000  0.49814600  0.24791800  1
  Sn  Sn3  1  0.99551000  0.00139800  0.75137800  1
  As  As0  1  0.25687700  0.39078600  0.96038400  1
  As  As1  1  0.74570100  0.11301600  0.37881200  1
  As  As2  1  0.24552300  0.88618900  0.12478100  1
  As  As3  1  0.75498300  0.60795800  0.53483900  1
  O  O0  1  0.24597300  0.16392500  0.70628900  1
  O  O1  1  0.75287100  0.31693500  0.30370600  1
  O  O2  1  0.25169600  0.68209300  0.18993900  1
  O  O3  1  0.74681000  0.83814800  0.79305200  1
  O  O4  1  0.25869000  0.48887300  0.76230000  1
  O  O5  1  0.73691500  0.02985400  0.24147800  1
  O  O6  1  0.23615100  0.96065700  0.26832800  1
  O  O7  1  0.75893500  0.51152900  0.73319300  1
  O  O8  1  0.02895100  0.49319500  0.02223700  1
  O  O9  1  0.96357400  0.05528500  0.49759300  1
  O  O10  1  0.46284600  0.94939600  0.00593100  1
  O  O11  1  0.52833600  0.50355900  0.47462100  1
  O  O12  1  0.48187000  0.49419400  0.02293400  1
  O  O13  1  0.52854900  0.05881700  0.49877100  1
  O  O14  1  0.02851000  0.94689600  0.00491000  1
  O  O15  1  0.98060900  0.50317800  0.47361400  1
  O  O16  1  0.74513000  0.12953200  0.79324800  1
  O  O17  1  0.25545200  0.35772300  0.33442500  1
  O  O18  1  0.75492500  0.64013400  0.16185900  1
  O  O19  1  0.24640300  0.87249000  0.71207900  1
loop_
_geom_bond_atom_site_label_1
_geom_bond_atom_site_label_2
_geom_bond_distance
_geom_bond_site_symmetry_2
Mg0 O5 1.895826 1_555
Mg0 O10 1.992923 1_545
Mg0 O14 1.994677 1_645
Mg0 O16 2.046238 1_554
Mg1 O4 1.958218 1_555
Mg1 O0 2.036793 1_555
Mg1 O15 2.078749 1_455
Mg1 O11 2.083979 1_555
Mg1 O17 2.510432 1_555
Mg2 O7 1.956353 1_555
Mg2 O3 2.054391 1_555
Mg2 O12 2.085600 1_556
Mg2 O8 2.088578 1_656
Mg2 O18 2.506040 1_556
Mg3 O6 1.896699 1_555
Mg3 O13 1.986909 1_565
Mg3 O9 1.988974 1_465
Mg3 O19 2.060670 1_555
As0 O4 1.705723 1_555
As0 O12 1.903145 1_556
As0 O8 1.904570 1_556
As1 O5 1.665324 1_555
As1 O1 1.721410 1_555
As1 O13 1.722834 1_555
As1 O9 1.723343 1_555
As2 O6 1.662595 1_555
As2 O2 1.722770 1_555
As2 O10 1.725655 1_555
As2 O14 1.726457 1_555
As3 O7 1.705863 1_555
As3 O15 1.903432 1_555
As3 O11 1.906573 1_555
O0 Sn0 2.105161 1_555
O0 Sn3 2.108490 1_455
O1 Sn1 2.209401 1_555
O1 Sn2 2.218977 1_655
O2 Sn2 2.213271 1_555
O2 Sn1 2.223915 1_555
O3 Sn3 2.105877 1_565
O3 Sn0 2.108161 1_565
O8 Sn2 2.072146 1_555
O9 Sn3 2.193989 1_555
O10 Sn0 2.190322 1_564
O11 Sn1 2.072448 1_555
O12 Sn1 2.072816 1_555
O13 Sn0 2.192782 1_555
O14 Sn3 2.191594 1_464
O15 Sn2 2.072410 1_655
O16 Sn0 2.075048 1_555
O16 Sn3 2.077371 1_555
O17 Sn2 2.017054 1_555
O17 Sn1 2.019571 1_555
O18 Sn1 2.016670 1_555
O18 Sn2 2.017686 1_655
O19 Sn0 2.075382 1_565
O19 Sn3 2.075510 1_465
