# generated using pymatgen
data_Mg6ZrCu
_symmetry_space_group_name_H-M   'P 1'
_cell_length_a   4.88327300
_cell_length_b   5.95277400
_cell_length_c   11.52594900
_cell_angle_alpha   90.00000000
_cell_angle_beta   90.00000000
_cell_angle_gamma   90.00000000
_symmetry_Int_Tables_number   1
_chemical_formula_structural   Mg6ZrCu
_chemical_formula_sum   'Mg12 Zr2 Cu2'
_cell_volume   335.04804833
_cell_formula_units_Z   2
loop_
 _symmetry_equiv_pos_site_id
 _symmetry_equiv_pos_as_xyz
  1  'x, y, z'
loop_
 _atom_site_type_symbol
 _atom_site_label
 _atom_site_symmetry_multiplicity
 _atom_site_fract_x
 _atom_site_fract_y
 _atom_site_fract_z
 _atom_site_occupancy
  Mg  Mg0  1  0.50000000  0.24903300  0.43257400  1
  Mg  Mg1  1  0.50000000  0.75096700  0.43257400  1
  Mg  Mg2  1  0.00000000  0.75245700  0.08089800  1
  Mg  Mg3  1  0.00000000  0.24754300  0.08089800  1
  Mg  Mg4  1  0.00000000  0.00000000  0.33468400  1
  Mg  Mg5  1  0.00000000  0.50000000  0.30498800  1
  Mg  Mg6  1  0.50000000  0.74903300  0.93257400  1
  Mg  Mg7  1  0.50000000  0.25096700  0.93257400  1
  Mg  Mg8  1  0.00000000  0.25245700  0.58089800  1
  Mg  Mg9  1  0.00000000  0.74754300  0.58089800  1
  Mg  Mg10  1  0.00000000  0.50000000  0.83468400  1
  Mg  Mg11  1  0.00000000  0.00000000  0.80498800  1
  Zr  Zr0  1  0.50000000  0.00000000  0.18437900  1
  Zr  Zr1  1  0.50000000  0.50000000  0.68437900  1
  Cu  Cu0  1  0.50000000  0.50000000  0.14900200  1
  Cu  Cu1  1  0.50000000  0.00000000  0.64900200  1
loop_
_geom_bond_atom_site_label_1
_geom_bond_atom_site_label_2
_geom_bond_distance
_geom_bond_site_symmetry_2
Mg0 Mg4 3.071191 1_655
Mg0 Mg4 3.071191 1_555
Mg0 Zr0 3.221976 1_555
Mg0 Zr1 3.264228 1_555
Mg1 Mg4 3.071191 1_665
Mg1 Mg4 3.071191 1_565
Mg1 Zr0 3.221976 1_565
Mg1 Zr1 3.264228 1_555
Mg2 Zr0 3.091207 1_465
Mg2 Zr0 3.091207 1_565
Mg2 Mg4 3.275325 1_565
Mg3 Zr0 3.091207 1_555
Mg3 Zr0 3.091207 1_455
Mg3 Mg4 3.275325 1_555
Mg4 Zr0 2.993798 1_455
Mg4 Zr0 2.993798 1_555
Mg4 Mg5 2.996003 1_545
Mg4 Mg5 2.996003 1_555
Mg4 Mg8 3.211208 1_555
Mg4 Mg9 3.211208 1_545
Mg6 Zr1 3.221976 1_555
Mg6 Zr0 3.264228 1_566
Mg7 Zr1 3.221976 1_555
Mg7 Zr0 3.264228 1_556
Mg8 Zr1 3.091207 1_455
Mg8 Zr1 3.091207 1_555
Mg9 Zr1 3.091207 1_455
Mg9 Zr1 3.091207 1_555
Mg10 Zr1 2.993798 1_455
Mg10 Zr1 2.993798 1_555
Mg10 Mg11 2.996003 1_555
Mg10 Mg11 2.996003 1_565
Mg10 Mg6 3.071191 1_555
Mg10 Mg7 3.071191 1_455
Mg10 Mg7 3.071191 1_555
Mg10 Mg6 3.071191 1_455
Mg10 Mg3 3.211208 1_556
Mg10 Mg2 3.211208 1_556
Mg10 Mg9 3.275325 1_555
Mg10 Mg8 3.275325 1_555
Cu0 Mg6 2.901782 1_554
Cu0 Mg7 2.901782 1_554
Cu0 Mg3 2.972578 1_555
Cu0 Mg3 2.972578 1_655
Cu0 Mg2 2.972578 1_555
Cu0 Mg2 2.972578 1_655
Cu0 Zr0 3.004187 1_555
Cu0 Zr0 3.004187 1_565
Cu0 Mg5 3.032159 1_555
Cu0 Mg5 3.032159 1_655
Cu1 Mg1 2.901782 1_545
Cu1 Mg0 2.901782 1_555
Cu1 Mg8 2.972578 1_555
Cu1 Mg9 2.972578 1_545
Cu1 Mg9 2.972578 1_645
Cu1 Mg8 2.972578 1_655
Cu1 Zr1 3.004187 1_545
Cu1 Zr1 3.004187 1_555
Cu1 Mg11 3.032159 1_555
Cu1 Mg11 3.032159 1_655
