# generated using pymatgen
data_RbMg6C
_symmetry_space_group_name_H-M   'P 1'
_cell_length_a   6.56651800
_cell_length_b   16.62251200
_cell_length_c   29.16141800
_cell_angle_alpha   90.00000000
_cell_angle_beta   90.00000000
_cell_angle_gamma   90.00000000
_symmetry_Int_Tables_number   1
_chemical_formula_structural   RbMg6C
_chemical_formula_sum   'Rb16 Mg96 C16'
_cell_volume   3183.02780479
_cell_formula_units_Z   16
loop_
 _symmetry_equiv_pos_site_id
 _symmetry_equiv_pos_as_xyz
  1  'x, y, z'
loop_
 _atom_site_type_symbol
 _atom_site_label
 _atom_site_symmetry_multiplicity
 _atom_site_fract_x
 _atom_site_fract_y
 _atom_site_fract_z
 _atom_site_occupancy
  Rb  Rb0_0  1  0.00000000  0.25000000  0.17093700  1
  Rb  Rb0_1  1  0.00000000  0.25000000  0.67093700  1
  Rb  Rb0_2  1  0.00000000  0.75000000  0.17093700  1
  Rb  Rb0_3  1  0.00000000  0.75000000  0.67093700  1
  Rb  Rb0_4  1  0.50000000  0.25000000  0.17093700  1
  Rb  Rb0_5  1  0.50000000  0.25000000  0.67093700  1
  Rb  Rb0_6  1  0.50000000  0.75000000  0.17093700  1
  Rb  Rb0_7  1  0.50000000  0.75000000  0.67093700  1
  Rb  Rb1_0  1  0.00000000  0.00000000  0.42093700  1
  Rb  Rb1_1  1  0.00000000  0.00000000  0.92093700  1
  Rb  Rb1_2  1  0.00000000  0.50000000  0.42093700  1
  Rb  Rb1_3  1  0.00000000  0.50000000  0.92093700  1
  Rb  Rb1_4  1  0.50000000  0.00000000  0.42093700  1
  Rb  Rb1_5  1  0.50000000  0.00000000  0.92093700  1
  Rb  Rb1_6  1  0.50000000  0.50000000  0.42093700  1
  Rb  Rb1_7  1  0.50000000  0.50000000  0.92093700  1
  Mg  Mg0_0  1  0.00000000  0.16347000  0.06401450  1
  Mg  Mg0_1  1  0.00000000  0.16347000  0.56401450  1
  Mg  Mg0_2  1  0.00000000  0.66347000  0.06401450  1
  Mg  Mg0_3  1  0.00000000  0.66347000  0.56401450  1
  Mg  Mg0_4  1  0.50000000  0.16347000  0.06401450  1
  Mg  Mg0_5  1  0.50000000  0.16347000  0.56401450  1
  Mg  Mg0_6  1  0.50000000  0.66347000  0.06401450  1
  Mg  Mg0_7  1  0.50000000  0.66347000  0.56401450  1
  Mg  Mg1_0  1  0.00000000  0.33653000  0.06401450  1
  Mg  Mg1_1  1  0.00000000  0.33653000  0.56401450  1
  Mg  Mg1_2  1  0.00000000  0.83653000  0.06401450  1
  Mg  Mg1_3  1  0.00000000  0.83653000  0.56401450  1
  Mg  Mg1_4  1  0.50000000  0.33653000  0.06401450  1
  Mg  Mg1_5  1  0.50000000  0.33653000  0.56401450  1
  Mg  Mg1_6  1  0.50000000  0.83653000  0.06401450  1
  Mg  Mg1_7  1  0.50000000  0.83653000  0.56401450  1
  Mg  Mg2_0  1  0.00000000  0.00000000  0.14486800  1
  Mg  Mg2_1  1  0.00000000  0.00000000  0.64486800  1
  Mg  Mg2_2  1  0.00000000  0.50000000  0.14486800  1
  Mg  Mg2_3  1  0.00000000  0.50000000  0.64486800  1
  Mg  Mg2_4  1  0.50000000  0.00000000  0.14486800  1
  Mg  Mg2_5  1  0.50000000  0.00000000  0.64486800  1
  Mg  Mg2_6  1  0.50000000  0.50000000  0.14486800  1
  Mg  Mg2_7  1  0.50000000  0.50000000  0.64486800  1
  Mg  Mg3_0  1  0.25000000  0.41656550  0.23171850  1
  Mg  Mg3_1  1  0.25000000  0.41656550  0.73171850  1
  Mg  Mg3_2  1  0.25000000  0.91656550  0.23171850  1
  Mg  Mg3_3  1  0.25000000  0.91656550  0.73171850  1
  Mg  Mg3_4  1  0.75000000  0.41656550  0.23171850  1
  Mg  Mg3_5  1  0.75000000  0.41656550  0.73171850  1
  Mg  Mg3_6  1  0.75000000  0.91656550  0.23171850  1
  Mg  Mg3_7  1  0.75000000  0.91656550  0.73171850  1
  Mg  Mg4_0  1  0.25000000  0.08343450  0.23171850  1
  Mg  Mg4_1  1  0.25000000  0.08343450  0.73171850  1
  Mg  Mg4_2  1  0.25000000  0.58343450  0.23171850  1
  Mg  Mg4_3  1  0.25000000  0.58343450  0.73171850  1
  Mg  Mg4_4  1  0.75000000  0.08343450  0.23171850  1
  Mg  Mg4_5  1  0.75000000  0.08343450  0.73171850  1
  Mg  Mg4_6  1  0.75000000  0.58343450  0.23171850  1
  Mg  Mg4_7  1  0.75000000  0.58343450  0.73171850  1
  Mg  Mg5_0  1  0.25000000  0.00000000  0.04602650  1
  Mg  Mg5_1  1  0.25000000  0.00000000  0.54602650  1
  Mg  Mg5_2  1  0.25000000  0.50000000  0.04602650  1
  Mg  Mg5_3  1  0.25000000  0.50000000  0.54602650  1
  Mg  Mg5_4  1  0.75000000  0.00000000  0.04602650  1
  Mg  Mg5_5  1  0.75000000  0.00000000  0.54602650  1
  Mg  Mg5_6  1  0.75000000  0.50000000  0.04602650  1
  Mg  Mg5_7  1  0.75000000  0.50000000  0.54602650  1
  Mg  Mg6_0  1  0.00000000  0.41347000  0.31401450  1
  Mg  Mg6_1  1  0.00000000  0.41347000  0.81401450  1
  Mg  Mg6_2  1  0.00000000  0.91347000  0.31401450  1
  Mg  Mg6_3  1  0.00000000  0.91347000  0.81401450  1
  Mg  Mg6_4  1  0.50000000  0.41347000  0.31401450  1
  Mg  Mg6_5  1  0.50000000  0.41347000  0.81401450  1
  Mg  Mg6_6  1  0.50000000  0.91347000  0.31401450  1
  Mg  Mg6_7  1  0.50000000  0.91347000  0.81401450  1
  Mg  Mg7_0  1  0.00000000  0.08653000  0.31401450  1
  Mg  Mg7_1  1  0.00000000  0.08653000  0.81401450  1
  Mg  Mg7_2  1  0.00000000  0.58653000  0.31401450  1
  Mg  Mg7_3  1  0.00000000  0.58653000  0.81401450  1
  Mg  Mg7_4  1  0.50000000  0.08653000  0.31401450  1
  Mg  Mg7_5  1  0.50000000  0.08653000  0.81401450  1
  Mg  Mg7_6  1  0.50000000  0.58653000  0.31401450  1
  Mg  Mg7_7  1  0.50000000  0.58653000  0.81401450  1
  Mg  Mg8_0  1  0.00000000  0.25000000  0.39486800  1
  Mg  Mg8_1  1  0.00000000  0.25000000  0.89486800  1
  Mg  Mg8_2  1  0.00000000  0.75000000  0.39486800  1
  Mg  Mg8_3  1  0.00000000  0.75000000  0.89486800  1
  Mg  Mg8_4  1  0.50000000  0.25000000  0.39486800  1
  Mg  Mg8_5  1  0.50000000  0.25000000  0.89486800  1
  Mg  Mg8_6  1  0.50000000  0.75000000  0.39486800  1
  Mg  Mg8_7  1  0.50000000  0.75000000  0.89486800  1
  Mg  Mg9_0  1  0.25000000  0.16656550  0.48171850  1
  Mg  Mg9_1  1  0.25000000  0.16656550  0.98171850  1
  Mg  Mg9_2  1  0.25000000  0.66656550  0.48171850  1
  Mg  Mg9_3  1  0.25000000  0.66656550  0.98171850  1
  Mg  Mg9_4  1  0.75000000  0.16656550  0.48171850  1
  Mg  Mg9_5  1  0.75000000  0.16656550  0.98171850  1
  Mg  Mg9_6  1  0.75000000  0.66656550  0.48171850  1
  Mg  Mg9_7  1  0.75000000  0.66656550  0.98171850  1
  Mg  Mg10_0  1  0.25000000  0.33343450  0.48171850  1
  Mg  Mg10_1  1  0.25000000  0.33343450  0.98171850  1
  Mg  Mg10_2  1  0.25000000  0.83343450  0.48171850  1
  Mg  Mg10_3  1  0.25000000  0.83343450  0.98171850  1
  Mg  Mg10_4  1  0.75000000  0.33343450  0.48171850  1
  Mg  Mg10_5  1  0.75000000  0.33343450  0.98171850  1
  Mg  Mg10_6  1  0.75000000  0.83343450  0.48171850  1
  Mg  Mg10_7  1  0.75000000  0.83343450  0.98171850  1
  Mg  Mg11_0  1  0.25000000  0.25000000  0.29602650  1
  Mg  Mg11_1  1  0.25000000  0.25000000  0.79602650  1
  Mg  Mg11_2  1  0.25000000  0.75000000  0.29602650  1
  Mg  Mg11_3  1  0.25000000  0.75000000  0.79602650  1
  Mg  Mg11_4  1  0.75000000  0.25000000  0.29602650  1
  Mg  Mg11_5  1  0.75000000  0.25000000  0.79602650  1
  Mg  Mg11_6  1  0.75000000  0.75000000  0.29602650  1
  Mg  Mg11_7  1  0.75000000  0.75000000  0.79602650  1
  C  C0_0  1  0.25000000  0.25000000  0.04670200  1
  C  C0_1  1  0.25000000  0.25000000  0.54670200  1
  C  C0_2  1  0.25000000  0.75000000  0.04670200  1
  C  C0_3  1  0.25000000  0.75000000  0.54670200  1
  C  C0_4  1  0.75000000  0.25000000  0.04670200  1
  C  C0_5  1  0.75000000  0.25000000  0.54670200  1
  C  C0_6  1  0.75000000  0.75000000  0.04670200  1
  C  C0_7  1  0.75000000  0.75000000  0.54670200  1
  C  C1_0  1  0.25000000  0.00000000  0.29670200  1
  C  C1_1  1  0.25000000  0.00000000  0.79670200  1
  C  C1_2  1  0.25000000  0.50000000  0.29670200  1
  C  C1_3  1  0.25000000  0.50000000  0.79670200  1
  C  C1_4  1  0.75000000  0.00000000  0.29670200  1
  C  C1_5  1  0.75000000  0.00000000  0.79670200  1
  C  C1_6  1  0.75000000  0.50000000  0.29670200  1
  C  C1_7  1  0.75000000  0.50000000  0.79670200  1
loop_
_geom_bond_atom_site_label_1
_geom_bond_atom_site_label_2
_geom_bond_distance
_geom_bond_site_symmetry_2
Rb0_0 Rb0_4 3.283259 1_555
Rb0_0 Rb0_4 3.283259 1_455
Rb0_1 Rb0_5 3.283259 1_555
Rb0_1 Rb0_5 3.283259 1_455
Rb0_2 Rb0_6 3.283259 1_555
Rb0_2 Rb0_6 3.283259 1_455
Rb0_3 Rb0_7 3.283259 1_555
Rb0_3 Rb0_7 3.283259 1_455
Rb1_0 Rb1_4 3.283259 1_555
Rb1_0 Rb1_4 3.283259 1_455
Rb1_1 Rb1_5 3.283259 1_555
Rb1_1 Rb1_5 3.283259 1_455
Rb1_2 Rb1_6 3.283259 1_555
Rb1_2 Rb1_6 3.283259 1_455
Rb1_3 Rb1_7 3.283259 1_555
Rb1_3 Rb1_7 3.283259 1_455
Mg0_0 Mg5_0 3.217721 1_555
Mg0_0 Mg5_4 3.217721 1_455
Mg0_0 Rb0_0 3.433779 1_555
Mg0_0 Mg2_0 3.597618 1_555
Mg0_1 Mg5_1 3.217721 1_555
Mg0_1 Mg5_5 3.217721 1_455
Mg0_1 Rb0_1 3.433779 1_555
Mg0_1 Mg2_1 3.597618 1_555
Mg0_2 Mg5_2 3.217721 1_555
Mg0_2 Mg5_6 3.217721 1_455
Mg0_2 Rb0_2 3.433779 1_555
Mg0_2 Mg2_2 3.597618 1_555
Mg0_3 Mg5_3 3.217721 1_555
Mg0_3 Mg5_7 3.217721 1_455
Mg0_3 Rb0_3 3.433779 1_555
Mg0_3 Mg2_3 3.597618 1_555
Mg0_4 Mg5_4 3.217721 1_555
Mg0_4 Mg5_0 3.217721 1_555
Mg0_4 Rb0_4 3.433779 1_555
Mg0_4 Mg2_4 3.597618 1_555
Mg0_5 Mg5_1 3.217721 1_555
Mg0_5 Mg5_5 3.217721 1_555
Mg0_5 Rb0_5 3.433779 1_555
Mg0_5 Mg2_5 3.597618 1_555
Mg0_6 Mg5_2 3.217721 1_555
Mg0_6 Mg5_6 3.217721 1_555
Mg0_6 Rb0_6 3.433779 1_555
Mg0_6 Mg2_6 3.597618 1_555
Mg0_7 Mg5_3 3.217721 1_555
Mg0_7 Mg5_7 3.217721 1_555
Mg0_7 Rb0_7 3.433779 1_555
Mg0_7 Mg2_7 3.597618 1_555
Mg1_0 Mg5_2 3.217721 1_555
Mg1_0 Mg5_6 3.217721 1_455
Mg1_0 Rb0_0 3.433779 1_555
Mg1_0 Mg2_2 3.597618 1_555
Mg1_1 Mg5_3 3.217721 1_555
Mg1_1 Mg5_7 3.217721 1_455
Mg1_1 Rb0_1 3.433779 1_555
Mg1_1 Mg2_3 3.597618 1_555
Mg1_2 Mg5_0 3.217721 1_565
Mg1_2 Mg5_4 3.217721 1_465
Mg1_2 Rb0_2 3.433779 1_555
Mg1_2 Mg2_0 3.597618 1_565
Mg1_3 Mg5_1 3.217721 1_565
Mg1_3 Mg5_5 3.217721 1_465
Mg1_3 Rb0_3 3.433779 1_555
Mg1_3 Mg2_1 3.597618 1_565
Mg1_4 Mg5_2 3.217721 1_555
Mg1_4 Mg5_6 3.217721 1_555
Mg1_4 Rb0_4 3.433779 1_555
Mg1_4 Mg2_6 3.597618 1_555
Mg1_5 Mg5_7 3.217721 1_555
Mg1_5 Mg5_3 3.217721 1_555
Mg1_5 Rb0_5 3.433779 1_555
Mg1_5 Mg2_7 3.597618 1_555
Mg1_6 Mg5_4 3.217721 1_565
Mg1_6 Mg5_0 3.217721 1_565
Mg1_6 Rb0_6 3.433779 1_555
Mg1_6 Mg2_4 3.597618 1_565
Mg1_7 Mg5_1 3.217721 1_565
Mg1_7 Mg5_5 3.217721 1_565
Mg1_7 Rb0_7 3.433779 1_555
Mg1_7 Mg2_5 3.597618 1_565
Mg2_0 Mg2_4 3.283259 1_555
Mg2_0 Mg2_4 3.283259 1_455
Mg2_0 Mg5_0 3.317067 1_555
Mg2_0 Mg5_4 3.317067 1_455
Mg2_0 Mg3_2 3.321581 1_545
Mg2_0 Mg4_0 3.321581 1_555
Mg2_0 Mg3_6 3.321581 1_445
Mg2_0 Mg4_4 3.321581 1_455
Mg2_0 Rb0_0 4.224590 1_555
Mg2_0 Rb0_2 4.224590 1_545
Mg2_1 Mg2_5 3.283259 1_555
Mg2_1 Mg2_5 3.283259 1_455
Mg2_1 Mg5_1 3.317067 1_555
Mg2_1 Mg5_5 3.317067 1_455
Mg2_1 Mg3_3 3.321581 1_545
Mg2_1 Mg4_1 3.321581 1_555
Mg2_1 Mg3_7 3.321581 1_445
Mg2_1 Mg4_5 3.321581 1_455
Mg2_1 Rb0_1 4.224590 1_555
Mg2_1 Rb0_3 4.224590 1_545
Mg2_2 Mg2_6 3.283259 1_555
Mg2_2 Mg2_6 3.283259 1_455
Mg2_2 Mg5_2 3.317067 1_555
Mg2_2 Mg5_6 3.317067 1_455
Mg2_2 Mg3_0 3.321581 1_555
Mg2_2 Mg4_2 3.321581 1_555
Mg2_2 Mg3_4 3.321581 1_455
Mg2_2 Mg4_6 3.321581 1_455
Mg2_2 Rb0_0 4.224590 1_555
Mg2_2 Rb0_2 4.224590 1_555
Mg2_3 Mg2_7 3.283259 1_555
Mg2_3 Mg2_7 3.283259 1_455
Mg2_3 Mg5_3 3.317067 1_555
Mg2_3 Mg5_7 3.317067 1_455
Mg2_3 Mg3_1 3.321581 1_555
Mg2_3 Mg4_3 3.321581 1_555
Mg2_3 Mg4_7 3.321581 1_455
Mg2_3 Mg3_5 3.321581 1_455
Mg2_3 Rb0_1 4.224590 1_555
Mg2_3 Rb0_3 4.224590 1_555
Mg2_4 Mg5_4 3.317067 1_555
Mg2_4 Mg5_0 3.317067 1_555
Mg2_4 Mg3_2 3.321581 1_545
Mg2_4 Mg3_6 3.321581 1_545
Mg2_4 Mg4_0 3.321581 1_555
Mg2_4 Mg4_4 3.321581 1_555
Mg2_4 Rb0_6 4.224590 1_545
Mg2_4 Rb0_4 4.224590 1_555
Mg2_5 Mg5_1 3.317067 1_555
Mg2_5 Mg5_5 3.317067 1_555
Mg2_5 Mg4_5 3.321581 1_555
Mg2_5 Mg3_7 3.321581 1_545
Mg2_5 Mg3_3 3.321581 1_545
Mg2_5 Mg4_1 3.321581 1_555
Mg2_5 Rb0_5 4.224590 1_555
Mg2_5 Rb0_7 4.224590 1_545
Mg2_6 Mg5_2 3.317067 1_555
Mg2_6 Mg5_6 3.317067 1_555
Mg2_6 Mg3_0 3.321581 1_555
Mg2_6 Mg3_4 3.321581 1_555
Mg2_6 Mg4_6 3.321581 1_555
Mg2_6 Mg4_2 3.321581 1_555
Mg2_6 Rb0_6 4.224590 1_555
Mg2_6 Rb0_4 4.224590 1_555
Mg2_7 Mg5_3 3.317067 1_555
Mg2_7 Mg5_7 3.317067 1_555
Mg2_7 Mg3_1 3.321581 1_555
Mg2_7 Mg3_5 3.321581 1_555
Mg2_7 Mg4_7 3.321581 1_555
Mg2_7 Mg4_3 3.321581 1_555
Mg2_7 Rb0_5 4.224590 1_555
Mg2_7 Rb0_7 4.224590 1_555
Mg3_0 Rb0_0 3.674577 1_555
Mg3_0 Rb0_4 3.674577 1_555
Mg3_1 Rb0_1 3.674577 1_555
Mg3_1 Rb0_5 3.674577 1_555
Mg3_2 Rb0_2 3.674577 1_555
Mg3_2 Rb0_6 3.674577 1_555
Mg3_3 Rb0_3 3.674577 1_555
Mg3_3 Rb0_7 3.674577 1_555
Mg3_4 Rb0_4 3.674577 1_555
Mg3_4 Rb0_0 3.674577 1_655
Mg3_5 Rb0_5 3.674577 1_555
Mg3_5 Rb0_1 3.674577 1_655
Mg3_6 Rb0_6 3.674577 1_555
Mg3_6 Rb0_2 3.674577 1_655
Mg3_7 Rb0_7 3.674577 1_555
Mg3_7 Rb0_3 3.674577 1_655
Mg4_0 Rb0_4 3.674577 1_555
Mg4_0 Rb0_0 3.674577 1_555
Mg4_1 Rb0_1 3.674577 1_555
Mg4_1 Rb0_5 3.674577 1_555
Mg4_2 Rb0_2 3.674577 1_555
Mg4_2 Rb0_6 3.674577 1_555
Mg4_3 Rb0_7 3.674577 1_555
Mg4_3 Rb0_3 3.674577 1_555
Mg4_4 Rb0_4 3.674577 1_555
Mg4_4 Rb0_0 3.674577 1_655
Mg4_5 Rb0_5 3.674577 1_555
Mg4_5 Rb0_1 3.674577 1_655
Mg4_6 Rb0_6 3.674577 1_555
Mg4_6 Rb0_2 3.674577 1_655
Mg4_7 Rb0_7 3.674577 1_555
Mg4_7 Rb0_3 3.674577 1_655
Mg5_0 Mg5_4 3.283259 1_555
Mg5_0 Mg5_4 3.283259 1_455
Mg5_0 Mg9_1 3.344055 1_554
Mg5_0 Rb1_1 4.000162 1_554
Mg5_0 Rb1_5 4.000162 1_554
Mg5_1 Mg5_5 3.283259 1_555
Mg5_1 Mg5_5 3.283259 1_455
Mg5_1 Mg9_0 3.344055 1_555
Mg5_1 Rb1_4 4.000162 1_555
Mg5_1 Rb1_0 4.000162 1_555
Mg5_2 Mg5_6 3.283259 1_555
Mg5_2 Mg5_6 3.283259 1_455
Mg5_2 Mg9_3 3.344055 1_554
Mg5_2 Rb1_7 4.000162 1_554
Mg5_2 Rb1_3 4.000162 1_554
Mg5_3 Mg5_7 3.283259 1_555
Mg5_3 Mg5_7 3.283259 1_455
Mg5_3 Mg9_2 3.344055 1_555
Mg5_3 Rb1_2 4.000162 1_555
Mg5_3 Rb1_6 4.000162 1_555
Mg5_4 Mg9_5 3.344055 1_554
Mg5_4 Rb1_1 4.000162 1_654
Mg5_4 Rb1_5 4.000162 1_554
Mg5_5 Mg9_4 3.344055 1_555
Mg5_5 Rb1_4 4.000162 1_555
Mg5_5 Rb1_0 4.000162 1_655
Mg5_6 Mg9_7 3.344055 1_554
Mg5_6 Rb1_7 4.000162 1_554
Mg5_6 Rb1_3 4.000162 1_654
Mg5_7 Mg9_6 3.344055 1_555
Mg5_7 Rb1_6 4.000162 1_555
Mg5_7 Rb1_2 4.000162 1_655
Mg6_0 Rb1_2 3.433779 1_555
Mg6_0 Mg8_0 3.597618 1_555
Mg6_1 Rb1_3 3.433779 1_555
Mg6_1 Mg8_1 3.597618 1_555
Mg6_2 Rb1_0 3.433779 1_565
Mg6_2 Mg8_2 3.597618 1_555
Mg6_3 Rb1_1 3.433779 1_565
Mg6_3 Mg8_3 3.597618 1_555
Mg6_4 Rb1_6 3.433779 1_555
Mg6_4 Mg8_4 3.597618 1_555
Mg6_5 Rb1_7 3.433779 1_555
Mg6_5 Mg8_5 3.597618 1_555
Mg6_6 Rb1_4 3.433779 1_565
Mg6_6 Mg8_6 3.597618 1_555
Mg6_7 Rb1_5 3.433779 1_565
Mg6_7 Mg8_7 3.597618 1_555
Mg7_0 Rb1_0 3.433779 1_555
Mg7_0 Mg8_0 3.597618 1_555
Mg7_1 Rb1_1 3.433779 1_555
Mg7_1 Mg8_1 3.597618 1_555
Mg7_2 Rb1_2 3.433779 1_555
Mg7_2 Mg8_2 3.597618 1_555
Mg7_3 Rb1_3 3.433779 1_555
Mg7_3 Mg8_3 3.597618 1_555
Mg7_4 Rb1_4 3.433779 1_555
Mg7_4 Mg8_4 3.597618 1_555
Mg7_5 Rb1_5 3.433779 1_555
Mg7_5 Mg8_5 3.597618 1_555
Mg7_6 Rb1_6 3.433779 1_555
Mg7_6 Mg8_6 3.597618 1_555
Mg7_7 Rb1_7 3.433779 1_555
Mg7_7 Mg8_7 3.597618 1_555
Mg8_0 Mg8_4 3.283259 1_555
Mg8_0 Mg8_4 3.283259 1_455
Mg8_0 Mg9_0 3.321581 1_555
Mg8_0 Mg9_4 3.321581 1_455
Mg8_0 Rb1_0 4.224590 1_555
Mg8_0 Rb1_2 4.224590 1_555
Mg8_1 Mg8_5 3.283259 1_555
Mg8_1 Mg8_5 3.283259 1_455
Mg8_1 Mg9_1 3.321581 1_555
Mg8_1 Mg9_5 3.321581 1_455
Mg8_1 Rb1_1 4.224590 1_555
Mg8_1 Rb1_3 4.224590 1_555
Mg8_2 Mg8_6 3.283259 1_555
Mg8_2 Mg8_6 3.283259 1_455
Mg8_2 Mg9_2 3.321581 1_555
Mg8_2 Mg9_6 3.321581 1_455
Mg8_2 Rb1_2 4.224590 1_555
Mg8_2 Rb1_0 4.224590 1_565
Mg8_3 Mg8_7 3.283259 1_555
Mg8_3 Mg8_7 3.283259 1_455
Mg8_3 Mg9_3 3.321581 1_555
Mg8_3 Mg9_7 3.321581 1_455
Mg8_3 Rb1_1 4.224590 1_565
Mg8_3 Rb1_3 4.224590 1_555
Mg8_4 Mg9_4 3.321581 1_555
Mg8_4 Mg9_0 3.321581 1_555
Mg8_4 Rb1_6 4.224590 1_555
Mg8_4 Rb1_4 4.224590 1_555
Mg8_5 Mg9_5 3.321581 1_555
Mg8_5 Mg9_1 3.321581 1_555
Mg8_5 Rb1_5 4.224590 1_555
Mg8_5 Rb1_7 4.224590 1_555
Mg8_6 Mg9_2 3.321581 1_555
Mg8_6 Mg9_6 3.321581 1_555
Mg8_6 Rb1_6 4.224590 1_555
Mg8_6 Rb1_4 4.224590 1_565
Mg8_7 Mg9_7 3.321581 1_555
Mg8_7 Mg9_3 3.321581 1_555
Mg8_7 Rb1_7 4.224590 1_555
Mg8_7 Rb1_5 4.224590 1_565
Mg9_0 Rb1_0 3.674577 1_555
Mg9_0 Rb1_4 3.674577 1_555
Mg9_1 Rb1_1 3.674577 1_555
Mg9_1 Rb1_5 3.674577 1_555
Mg9_2 Rb1_2 3.674577 1_555
Mg9_2 Rb1_6 3.674577 1_555
Mg9_3 Rb1_7 3.674577 1_555
Mg9_3 Rb1_3 3.674577 1_555
Mg9_4 Rb1_4 3.674577 1_555
Mg9_4 Rb1_0 3.674577 1_655
Mg9_5 Rb1_5 3.674577 1_555
Mg9_5 Rb1_1 3.674577 1_655
Mg9_6 Rb1_6 3.674577 1_555
Mg9_6 Rb1_2 3.674577 1_655
Mg9_7 Rb1_7 3.674577 1_555
Mg9_7 Rb1_3 3.674577 1_655
Mg10_0 Mg8_0 3.321581 1_555
Mg10_0 Mg8_4 3.321581 1_555
Mg10_0 Mg5_3 3.344055 1_555
Mg10_0 Rb1_2 3.674577 1_555
Mg10_0 Rb1_6 3.674577 1_555
Mg10_1 Mg8_1 3.321581 1_555
Mg10_1 Mg8_5 3.321581 1_555
Mg10_1 Mg5_2 3.344055 1_556
Mg10_1 Rb1_3 3.674577 1_555
Mg10_1 Rb1_7 3.674577 1_555
Mg10_2 Mg8_6 3.321581 1_555
Mg10_2 Mg8_2 3.321581 1_555
Mg10_2 Mg5_1 3.344055 1_565
Mg10_2 Rb1_0 3.674577 1_565
Mg10_2 Rb1_4 3.674577 1_565
Mg10_3 Mg8_3 3.321581 1_555
Mg10_3 Mg8_7 3.321581 1_555
Mg10_3 Mg5_0 3.344055 1_566
Mg10_3 Rb1_1 3.674577 1_565
Mg10_3 Rb1_5 3.674577 1_565
Mg10_4 Mg8_4 3.321581 1_555
Mg10_4 Mg8_0 3.321581 1_655
Mg10_4 Mg5_7 3.344055 1_555
Mg10_4 Rb1_6 3.674577 1_555
Mg10_4 Rb1_2 3.674577 1_655
Mg10_5 Mg8_5 3.321581 1_555
Mg10_5 Mg8_1 3.321581 1_655
Mg10_5 Mg5_6 3.344055 1_556
Mg10_5 Rb1_7 3.674577 1_555
Mg10_5 Rb1_3 3.674577 1_655
Mg10_6 Mg8_6 3.321581 1_555
Mg10_6 Mg8_2 3.321581 1_655
Mg10_6 Mg5_5 3.344055 1_565
Mg10_6 Rb1_4 3.674577 1_565
Mg10_6 Rb1_0 3.674577 1_665
Mg10_7 Mg8_7 3.321581 1_555
Mg10_7 Mg8_3 3.321581 1_655
Mg10_7 Mg5_4 3.344055 1_566
Mg10_7 Rb1_5 3.674577 1_565
Mg10_7 Rb1_1 3.674577 1_665
Mg11_0 Mg7_4 3.217721 1_555
Mg11_0 Mg7_0 3.217721 1_555
Mg11_0 Mg6_0 3.217721 1_555
Mg11_0 Mg6_4 3.217721 1_555
Mg11_0 Mg11_4 3.283259 1_555
Mg11_0 Mg11_4 3.283259 1_455
Mg11_0 Mg8_4 3.317067 1_555
Mg11_0 Mg8_0 3.317067 1_555
Mg11_0 Mg3_0 3.344055 1_555
Mg11_0 Mg4_0 3.344055 1_555
Mg11_0 Rb0_4 4.000162 1_555
Mg11_0 Rb0_0 4.000162 1_555
Mg11_1 Mg7_1 3.217721 1_555
Mg11_1 Mg7_5 3.217721 1_555
Mg11_1 Mg6_1 3.217721 1_555
Mg11_1 Mg6_5 3.217721 1_555
Mg11_1 Mg11_5 3.283259 1_555
Mg11_1 Mg11_5 3.283259 1_455
Mg11_1 Mg8_1 3.317067 1_555
Mg11_1 Mg8_5 3.317067 1_555
Mg11_1 Mg3_1 3.344055 1_555
Mg11_1 Mg4_1 3.344055 1_555
Mg11_1 Rb0_5 4.000162 1_555
Mg11_1 Rb0_1 4.000162 1_555
Mg11_2 Mg6_6 3.217721 1_555
Mg11_2 Mg6_2 3.217721 1_555
Mg11_2 Mg7_2 3.217721 1_555
Mg11_2 Mg7_6 3.217721 1_555
Mg11_2 Mg11_6 3.283259 1_555
Mg11_2 Mg11_6 3.283259 1_455
Mg11_2 Mg8_6 3.317067 1_555
Mg11_2 Mg8_2 3.317067 1_555
Mg11_2 Mg4_2 3.344055 1_555
Mg11_2 Mg3_2 3.344055 1_555
Mg11_2 Rb0_2 4.000162 1_555
Mg11_2 Rb0_6 4.000162 1_555
Mg11_3 Mg6_7 3.217721 1_555
Mg11_3 Mg6_3 3.217721 1_555
Mg11_3 Mg7_7 3.217721 1_555
Mg11_3 Mg7_3 3.217721 1_555
Mg11_3 Mg11_7 3.283259 1_555
Mg11_3 Mg11_7 3.283259 1_455
Mg11_3 Mg8_3 3.317067 1_555
Mg11_3 Mg8_7 3.317067 1_555
Mg11_3 Mg4_3 3.344055 1_555
Mg11_3 Mg3_3 3.344055 1_555
Mg11_3 Rb0_3 4.000162 1_555
Mg11_3 Rb0_7 4.000162 1_555
Mg11_4 Mg7_4 3.217721 1_555
Mg11_4 Mg6_4 3.217721 1_555
Mg11_4 Mg7_0 3.217721 1_655
Mg11_4 Mg6_0 3.217721 1_655
Mg11_4 Mg8_4 3.317067 1_555
Mg11_4 Mg8_0 3.317067 1_655
Mg11_4 Mg3_4 3.344055 1_555
Mg11_4 Mg4_4 3.344055 1_555
Mg11_4 Rb0_0 4.000162 1_655
Mg11_4 Rb0_4 4.000162 1_555
Mg11_5 Mg7_5 3.217721 1_555
Mg11_5 Mg6_5 3.217721 1_555
Mg11_5 Mg7_1 3.217721 1_655
Mg11_5 Mg6_1 3.217721 1_655
Mg11_5 Mg8_5 3.317067 1_555
Mg11_5 Mg8_1 3.317067 1_655
Mg11_5 Mg3_5 3.344055 1_555
Mg11_5 Mg4_5 3.344055 1_555
Mg11_5 Rb0_1 4.000162 1_655
Mg11_5 Rb0_5 4.000162 1_555
Mg11_6 Mg6_6 3.217721 1_555
Mg11_6 Mg7_6 3.217721 1_555
Mg11_6 Mg6_2 3.217721 1_655
Mg11_6 Mg7_2 3.217721 1_655
Mg11_6 Mg8_6 3.317067 1_555
Mg11_6 Mg8_2 3.317067 1_655
Mg11_6 Mg4_6 3.344055 1_555
Mg11_6 Mg3_6 3.344055 1_555
Mg11_6 Rb0_2 4.000162 1_655
Mg11_6 Rb0_6 4.000162 1_555
Mg11_7 Mg6_7 3.217721 1_555
Mg11_7 Mg7_7 3.217721 1_555
Mg11_7 Mg6_3 3.217721 1_655
Mg11_7 Mg7_3 3.217721 1_655
Mg11_7 Mg8_7 3.317067 1_555
Mg11_7 Mg8_3 3.317067 1_655
Mg11_7 Mg4_7 3.344055 1_555
Mg11_7 Mg3_7 3.344055 1_555
Mg11_7 Rb0_3 4.000162 1_655
Mg11_7 Rb0_7 4.000162 1_555
C0_0 Mg0_0 2.240238 1_555
C0_0 Mg0_4 2.240238 1_555
C0_0 Mg1_0 2.240238 1_555
C0_0 Mg1_4 2.240238 1_555
C0_0 Mg10_1 2.348304 1_554
C0_0 Mg9_1 2.348304 1_554
C0_1 Mg0_1 2.240238 1_555
C0_1 Mg0_5 2.240238 1_555
C0_1 Mg1_1 2.240238 1_555
C0_1 Mg1_5 2.240238 1_555
C0_1 Mg10_0 2.348304 1_555
C0_1 Mg9_0 2.348304 1_555
C0_2 Mg0_2 2.240238 1_555
C0_2 Mg0_6 2.240238 1_555
C0_2 Mg1_2 2.240238 1_555
C0_2 Mg1_6 2.240238 1_555
C0_2 Mg10_3 2.348304 1_554
C0_2 Mg9_3 2.348304 1_554
C0_3 Mg1_7 2.240238 1_555
C0_3 Mg0_7 2.240238 1_555
C0_3 Mg1_3 2.240238 1_555
C0_3 Mg0_3 2.240238 1_555
C0_3 Mg10_2 2.348304 1_555
C0_3 Mg9_2 2.348304 1_555
C0_4 Mg0_4 2.240238 1_555
C0_4 Mg0_0 2.240238 1_655
C0_4 Mg1_4 2.240238 1_555
C0_4 Mg1_0 2.240238 1_655
C0_4 Mg10_5 2.348304 1_554
C0_4 Mg9_5 2.348304 1_554
C0_5 Mg0_5 2.240238 1_555
C0_5 Mg0_1 2.240238 1_655
C0_5 Mg1_5 2.240238 1_555
C0_5 Mg1_1 2.240238 1_655
C0_5 Mg10_4 2.348304 1_555
C0_5 Mg9_4 2.348304 1_555
C0_6 Mg0_6 2.240238 1_555
C0_6 Mg1_6 2.240238 1_555
C0_6 Mg0_2 2.240238 1_655
C0_6 Mg1_2 2.240238 1_655
C0_6 Mg10_7 2.348304 1_554
C0_6 Mg9_7 2.348304 1_554
C0_7 Mg1_7 2.240238 1_555
C0_7 Mg0_7 2.240238 1_555
C0_7 Mg1_3 2.240238 1_655
C0_7 Mg0_3 2.240238 1_655
C0_7 Mg10_6 2.348304 1_555
C0_7 Mg9_6 2.348304 1_555
C1_0 Mg6_6 2.240238 1_545
C1_0 Mg6_2 2.240238 1_545
C1_0 Mg7_0 2.240238 1_555
C1_0 Mg7_4 2.240238 1_555
C1_0 Mg3_2 2.348304 1_545
C1_0 Mg4_0 2.348304 1_555
C1_1 Mg6_7 2.240238 1_545
C1_1 Mg6_3 2.240238 1_545
C1_1 Mg7_1 2.240238 1_555
C1_1 Mg7_5 2.240238 1_555
C1_1 Mg3_3 2.348304 1_545
C1_1 Mg4_1 2.348304 1_555
C1_2 Mg6_4 2.240238 1_555
C1_2 Mg6_0 2.240238 1_555
C1_2 Mg7_2 2.240238 1_555
C1_2 Mg7_6 2.240238 1_555
C1_2 Mg3_0 2.348304 1_555
C1_2 Mg4_2 2.348304 1_555
C1_3 Mg6_1 2.240238 1_555
C1_3 Mg6_5 2.240238 1_555
C1_3 Mg7_3 2.240238 1_555
C1_3 Mg7_7 2.240238 1_555
C1_3 Mg3_1 2.348304 1_555
C1_3 Mg4_3 2.348304 1_555
C1_4 Mg7_4 2.240238 1_555
C1_4 Mg6_6 2.240238 1_545
C1_4 Mg6_2 2.240238 1_645
C1_4 Mg7_0 2.240238 1_655
C1_4 Mg3_6 2.348304 1_545
C1_4 Mg4_4 2.348304 1_555
C1_5 Mg6_7 2.240238 1_545
C1_5 Mg7_5 2.240238 1_555
C1_5 Mg6_3 2.240238 1_645
C1_5 Mg7_1 2.240238 1_655
C1_5 Mg4_5 2.348304 1_555
C1_5 Mg3_7 2.348304 1_545
C1_6 Mg6_4 2.240238 1_555
C1_6 Mg7_6 2.240238 1_555
C1_6 Mg6_0 2.240238 1_655
C1_6 Mg7_2 2.240238 1_655
C1_6 Mg3_4 2.348304 1_555
C1_6 Mg4_6 2.348304 1_555
C1_7 Mg6_5 2.240238 1_555
C1_7 Mg7_7 2.240238 1_555
C1_7 Mg7_3 2.240238 1_655
C1_7 Mg6_1 2.240238 1_655
C1_7 Mg3_5 2.348304 1_555
C1_7 Mg4_7 2.348304 1_555
