# generated using pymatgen
data_RbCoBr3
_symmetry_space_group_name_H-M   'P 1'
_cell_length_a   13.07014869
_cell_length_b   13.07014869
_cell_length_c   6.20955700
_cell_angle_alpha   90.00000000
_cell_angle_beta   90.00000000
_cell_angle_gamma   120.00000351
_symmetry_Int_Tables_number   1
_chemical_formula_structural   RbCoBr3
_chemical_formula_sum   'Rb6 Co6 Br18'
_cell_volume   918.65467845
_cell_formula_units_Z   6
loop_
 _symmetry_equiv_pos_site_id
 _symmetry_equiv_pos_as_xyz
  1  'x, y, z'
loop_
 _atom_site_type_symbol
 _atom_site_label
 _atom_site_symmetry_multiplicity
 _atom_site_fract_x
 _atom_site_fract_y
 _atom_site_fract_z
 _atom_site_occupancy
  Rb  Rb0  1  0.66794700  0.00000000  0.25000000  1
  Rb  Rb1  1  0.33205300  0.00000000  0.75000000  1
  Rb  Rb2  1  0.00000000  0.66794700  0.25000000  1
  Rb  Rb3  1  0.00000000  0.33205300  0.75000000  1
  Rb  Rb4  1  0.33205300  0.33205300  0.25000000  1
  Rb  Rb5  1  0.66794700  0.66794700  0.75000000  1
  Co  Co0  1  0.33333300  0.66666700  0.03084300  1
  Co  Co1  1  0.66666700  0.33333300  0.96915700  1
  Co  Co2  1  0.66666700  0.33333300  0.46915700  1
  Co  Co3  1  0.33333300  0.66666700  0.53084300  1
  Co  Co4  1  0.00000000  0.00000000  0.00000000  1
  Co  Co5  1  0.00000000  0.00000000  0.50000000  1
  Br  Br0  1  0.50932600  0.17592800  0.21807500  1
  Br  Br1  1  0.49067400  0.82407200  0.78192500  1
  Br  Br2  1  0.82407200  0.33339800  0.21807500  1
  Br  Br3  1  0.17592800  0.50932600  0.28192500  1
  Br  Br4  1  0.17592800  0.66660200  0.78192500  1
  Br  Br5  1  0.82407200  0.49067400  0.71807500  1
  Br  Br6  1  0.66660200  0.49067400  0.21807500  1
  Br  Br7  1  0.33339800  0.82407200  0.28192500  1
  Br  Br8  1  0.33339800  0.50932600  0.78192500  1
  Br  Br9  1  0.66660200  0.17592800  0.71807500  1
  Br  Br10  1  0.49067400  0.66660200  0.28192500  1
  Br  Br11  1  0.50932600  0.33339800  0.71807500  1
  Br  Br12  1  0.15712800  0.00000000  0.25000000  1
  Br  Br13  1  0.84287200  0.00000000  0.75000000  1
  Br  Br14  1  0.00000000  0.15712800  0.25000000  1
  Br  Br15  1  0.00000000  0.84287200  0.75000000  1
  Br  Br16  1  0.84287200  0.84287200  0.25000000  1
  Br  Br17  1  0.15712800  0.15712800  0.75000000  1
loop_
_geom_bond_atom_site_label_1
_geom_bond_atom_site_label_2
_geom_bond_distance
_geom_bond_site_symmetry_2
Br0 Co1 2.572914 1_554
Br0 Co2 2.581009 1_555
Br0 Rb1 3.711598 1_554
Br0 Rb4 3.781489 1_555
Br0 Rb0 3.793659 1_555
Br0 Rb1 4.029631 1_555
Br1 Co0 2.572914 1_556
Br1 Co3 2.581009 1_555
Br1 Rb0 3.711598 1_566
Br1 Rb5 3.781489 1_555
Br1 Rb1 3.793659 1_565
Br1 Rb0 4.029631 1_565
Br2 Co1 2.572909 1_554
Br2 Co2 2.581004 1_555
Br2 Rb3 3.711598 1_654
Br2 Rb0 3.781488 1_555
Br2 Rb2 3.793659 1_655
Br2 Rb3 4.029631 1_655
Br3 Co3 2.572914 1_555
Br3 Co0 2.581009 1_555
Br3 Rb3 3.711598 1_555
Br3 Rb4 3.781489 1_555
Br3 Rb2 3.793659 1_555
Br3 Rb3 4.029631 1_554
Br4 Co0 2.572909 1_556
Br4 Co3 2.581004 1_555
Br4 Rb2 3.711598 1_556
Br4 Rb1 3.781488 1_565
Br4 Rb3 3.793659 1_555
Br4 Rb2 4.029631 1_555
Br5 Co2 2.572914 1_555
Br5 Co1 2.581009 1_555
Br5 Rb2 3.711598 1_655
Br5 Rb5 3.781489 1_555
Br5 Rb3 3.793659 1_655
Br5 Rb2 4.029631 1_656
Br6 Co1 2.572920 1_554
Br6 Co2 2.581014 1_555
Br6 Rb5 3.711598 1_554
Br6 Rb2 3.781488 1_655
Br6 Rb4 3.793659 1_555
Br6 Rb5 4.029631 1_555
Br7 Co3 2.572909 1_555
Br7 Co0 2.581004 1_555
Br7 Rb1 3.711598 1_565
Br7 Rb2 3.781488 1_555
Br7 Rb0 3.793659 1_565
Br7 Rb1 4.029631 1_564
Br8 Co0 2.572920 1_556
Br8 Co3 2.581014 1_555
Br8 Rb4 3.711598 1_556
Br8 Rb3 3.781488 1_555
Br8 Rb5 3.793659 1_555
Br8 Rb4 4.029631 1_555
Br9 Co2 2.572909 1_555
Br9 Co1 2.581004 1_555
Br9 Rb0 3.711598 1_555
Br9 Rb3 3.781488 1_655
Br9 Rb1 3.793659 1_555
Br9 Rb0 4.029631 1_556
Br10 Co3 2.572920 1_555
Br10 Co0 2.581014 1_555
Br10 Rb5 3.711598 1_555
Br10 Rb0 3.781488 1_565
Br10 Rb4 3.793659 1_555
Br10 Rb5 4.029631 1_554
Br11 Co2 2.572920 1_555
Br11 Co1 2.581014 1_555
Br11 Rb4 3.711598 1_555
Br11 Rb1 3.781488 1_555
Br11 Rb5 3.793659 1_555
Br11 Rb4 4.029631 1_556
Br12 Co4 2.574401 1_555
Br12 Co5 2.574401 1_555
Br12 Rb4 3.760334 1_555
Br12 Rb2 3.760334 1_545
Br12 Rb1 3.855749 1_555
Br12 Rb1 3.855749 1_554
Br13 Co5 2.574401 1_655
Br13 Co4 2.574401 1_656
Br13 Rb5 3.760334 1_545
Br13 Rb3 3.760334 1_655
Br13 Rb0 3.855749 1_556
Br13 Rb0 3.855749 1_555
Br14 Co4 2.574401 1_555
Br14 Co5 2.574401 1_555
Br14 Rb4 3.760334 1_555
Br14 Rb0 3.760334 1_455
Br14 Rb3 3.855749 1_554
Br14 Rb3 3.855749 1_555
Br15 Co5 2.574401 1_565
Br15 Co4 2.574401 1_566
Br15 Rb5 3.760334 1_455
Br15 Rb1 3.760334 1_565
Br15 Rb2 3.855749 1_555
Br15 Rb2 3.855749 1_556
Br16 Co4 2.574401 1_665
Br16 Co5 2.574401 1_665
Br16 Rb0 3.760334 1_565
Br16 Rb2 3.760334 1_655
Br16 Rb5 3.855749 1_554
Br16 Rb5 3.855749 1_555
Br17 Co4 2.574401 1_556
Br17 Co5 2.574401 1_555
Br17 Rb1 3.760334 1_555
Br17 Rb3 3.760334 1_555
Br17 Rb4 3.855749 1_555
Br17 Rb4 3.855749 1_556
