# generated using pymatgen
data_Sr2Cu(HO)6
_symmetry_space_group_name_H-M   'P 1'
_cell_length_a   5.81573000
_cell_length_b   6.25174200
_cell_length_c   9.81598559
_cell_angle_alpha   90.00000000
_cell_angle_beta   123.79848458
_cell_angle_gamma   90.00000000
_symmetry_Int_Tables_number   1
_chemical_formula_structural   Sr2Cu(HO)6
_chemical_formula_sum   'Sr4 Cu2 H12 O12'
_cell_volume   296.57858688
_cell_formula_units_Z   2
loop_
 _symmetry_equiv_pos_site_id
 _symmetry_equiv_pos_as_xyz
  1  'x, y, z'
loop_
 _atom_site_type_symbol
 _atom_site_label
 _atom_site_symmetry_multiplicity
 _atom_site_fract_x
 _atom_site_fract_y
 _atom_site_fract_z
 _atom_site_occupancy
  Sr  Sr0  1  0.79431600  0.42458000  0.75105700  1
  Sr  Sr1  1  0.79431600  0.07542000  0.25105700  1
  Sr  Sr2  1  0.20568400  0.57542000  0.24894300  1
  Sr  Sr3  1  0.20568400  0.92458000  0.74894300  1
  Cu  Cu0  1  0.50000000  0.50000000  0.00000000  1
  Cu  Cu1  1  0.50000000  0.00000000  0.50000000  1
  H  H0  1  0.23924700  0.42659300  0.70398500  1
  H  H1  1  0.23924700  0.07340700  0.20398500  1
  H  H2  1  0.76075300  0.57340700  0.29601500  1
  H  H3  1  0.76075300  0.92659300  0.79601500  1
  H  H4  1  0.78447100  0.72246100  0.48544700  1
  H  H5  1  0.78447100  0.77753900  0.98544700  1
  H  H6  1  0.21552900  0.27753900  0.51455300  1
  H  H7  1  0.21552900  0.22246100  0.01455300  1
  H  H8  1  0.81796700  0.16688800  0.98092000  1
  H  H9  1  0.81796700  0.33311200  0.48092000  1
  H  H10  1  0.18203300  0.83311200  0.01908000  1
  H  H11  1  0.18203300  0.66688800  0.51908000  1
  O  O0  1  0.38399300  0.53642300  0.76913400  1
  O  O1  1  0.38399300  0.96357700  0.26913400  1
  O  O2  1  0.61600700  0.46357700  0.23086600  1
  O  O3  1  0.61600700  0.03642300  0.73086600  1
  O  O4  1  0.70134400  0.72541400  0.55043100  1
  O  O5  1  0.70134400  0.77458600  0.05043100  1
  O  O6  1  0.29865600  0.27458600  0.44956900  1
  O  O7  1  0.29865600  0.22541400  0.94956900  1
  O  O8  1  0.96046500  0.25431000  0.07185700  1
  O  O9  1  0.96046500  0.24569000  0.57185700  1
  O  O10  1  0.03953500  0.74569000  0.92814300  1
  O  O11  1  0.03953500  0.75431000  0.42814300  1
loop_
_geom_bond_atom_site_label_1
_geom_bond_atom_site_label_2
_geom_bond_distance
_geom_bond_site_symmetry_2
Cu0 O5 1.979435 1_555
Cu0 O7 1.979435 1_554
Cu0 O2 1.985346 1_555
Cu0 O0 1.985346 1_554
Cu1 O4 1.979435 1_545
Cu1 O6 1.979435 1_555
Cu1 O3 1.985346 1_555
Cu1 O1 1.985346 1_545
H0 O0 0.995054 1_555
H1 O1 0.995054 1_545
H2 O2 0.995054 1_555
H3 O3 0.995054 1_565
H4 O4 0.991988 1_555
H5 O5 0.991988 1_556
H6 O6 0.991988 1_555
H7 O7 0.991988 1_554
H8 O8 0.979432 1_556
H9 O9 0.979432 1_555
H10 O10 0.979432 1_554
H11 O11 0.979432 1_555
O0 Sr0 2.585738 1_555
O0 Sr3 2.602816 1_555
O1 Sr1 2.585738 1_565
O1 Sr2 2.602816 1_555
O2 Sr2 2.585738 1_555
O2 Sr1 2.602816 1_555
O3 Sr3 2.585738 1_545
O3 Sr0 2.602816 1_555
O4 Sr0 2.554049 1_555
O5 Sr1 2.554049 1_565
O6 Sr2 2.554049 1_555
O7 Sr3 2.554049 1_545
O8 Sr2 2.515447 1_655
O9 Sr3 2.515447 1_645
O10 Sr0 2.515447 1_455
O11 Sr1 2.515447 1_465
