# generated using pymatgen
data_YCu3(SbO3)4
_symmetry_space_group_name_H-M   'P 1'
_cell_length_a   6.86455036
_cell_length_b   6.86455036
_cell_length_c   6.86455036
_cell_angle_alpha   109.47122063
_cell_angle_beta   109.47122063
_cell_angle_gamma   109.47122063
_symmetry_Int_Tables_number   1
_chemical_formula_structural   YCu3(SbO3)4
_chemical_formula_sum   'Y1 Cu3 Sb4 O12'
_cell_volume   249.00862847
_cell_formula_units_Z   1
loop_
 _symmetry_equiv_pos_site_id
 _symmetry_equiv_pos_as_xyz
  1  'x, y, z'
loop_
 _atom_site_type_symbol
 _atom_site_label
 _atom_site_symmetry_multiplicity
 _atom_site_fract_x
 _atom_site_fract_y
 _atom_site_fract_z
 _atom_site_occupancy
  Y  Y0  1  0.00000000  0.00000000  0.00000000  1
  Cu  Cu0  1  0.00000000  0.50000000  0.50000000  1
  Cu  Cu1  1  0.50000000  0.50000000  0.00000000  1
  Cu  Cu2  1  0.50000000  0.00000000  0.50000000  1
  Sb  Sb0  1  0.50000000  0.00000000  0.00000000  1
  Sb  Sb1  1  0.50000000  0.50000000  0.50000000  1
  Sb  Sb2  1  0.00000000  0.50000000  0.00000000  1
  Sb  Sb3  1  0.00000000  0.00000000  0.50000000  1
  O  O0  1  0.29361000  0.83246800  0.12607800  1
  O  O1  1  0.70639000  0.16753200  0.87392200  1
  O  O2  1  0.70639000  0.83246800  0.53885800  1
  O  O3  1  0.87392200  0.70639000  0.16753200  1
  O  O4  1  0.83246800  0.12607800  0.29361000  1
  O  O5  1  0.16753200  0.46114200  0.29361000  1
  O  O6  1  0.46114200  0.29361000  0.16753200  1
  O  O7  1  0.16753200  0.87392200  0.70639000  1
  O  O8  1  0.29361000  0.16753200  0.46114200  1
  O  O9  1  0.12607800  0.29361000  0.83246800  1
  O  O10  1  0.83246800  0.53885800  0.70639000  1
  O  O11  1  0.53885800  0.70639000  0.83246800  1
loop_
_geom_bond_atom_site_label_1
_geom_bond_atom_site_label_2
_geom_bond_distance
_geom_bond_site_symmetry_2
Cu0 O5 2.107075 1_555
Cu0 O7 2.107075 1_555
Cu0 O4 2.107075 1_455
Cu0 O10 2.107075 1_455
Cu1 O9 2.107075 1_554
Cu1 O6 2.107075 1_555
Cu1 O3 2.107075 1_555
Cu1 O11 2.107075 1_554
Cu2 O0 2.107075 1_545
Cu2 O1 2.107075 1_555
Cu2 O8 2.107075 1_555
Cu2 O2 2.107075 1_545
O0 Sb0 2.115096 1_565
O0 Sb2 2.115096 1_555
O0 Y0 2.679506 1_565
O1 Sb2 2.115096 1_656
O1 Sb0 2.115096 1_556
O1 Y0 2.679506 1_656
O2 Sb3 2.115096 1_665
O2 Sb1 2.115096 1_555
O2 Y0 2.679506 1_666
O3 Sb3 2.115096 1_665
O3 Sb2 2.115096 1_655
O3 Y0 2.679506 1_665
O4 Sb3 2.115096 1_655
O4 Sb0 2.115096 1_555
O4 Y0 2.679506 1_655
O5 Sb1 2.115096 1_555
O5 Sb2 2.115096 1_555
O5 Y0 2.679506 1_555
O6 Sb1 2.115096 1_555
O6 Sb0 2.115096 1_555
O6 Y0 2.679506 1_555
O7 Sb0 2.115096 1_566
O7 Sb3 2.115096 1_565
O7 Y0 2.679506 1_566
O8 Sb1 2.115096 1_555
O8 Sb3 2.115096 1_555
O8 Y0 2.679506 1_555
O9 Sb3 2.115096 1_555
O9 Sb2 2.115096 1_556
O9 Y0 2.679506 1_556
O10 Sb2 2.115096 1_656
O10 Sb1 2.115096 1_555
O10 Y0 2.679506 1_666
O11 Sb0 2.115096 1_566
O11 Sb1 2.115096 1_555
O11 Y0 2.679506 1_666
