# generated using pymatgen
data_BaU2Se5
_symmetry_space_group_name_H-M   'P 1'
_cell_length_a   7.86316700
_cell_length_b   8.28444900
_cell_length_c   13.37583400
_cell_angle_alpha   90.00000000
_cell_angle_beta   90.00000000
_cell_angle_gamma   90.00000000
_symmetry_Int_Tables_number   1
_chemical_formula_structural   BaU2Se5
_chemical_formula_sum   'Ba4 U8 Se20'
_cell_volume   871.32865855
_cell_formula_units_Z   4
loop_
 _symmetry_equiv_pos_site_id
 _symmetry_equiv_pos_as_xyz
  1  'x, y, z'
loop_
 _atom_site_type_symbol
 _atom_site_label
 _atom_site_symmetry_multiplicity
 _atom_site_fract_x
 _atom_site_fract_y
 _atom_site_fract_z
 _atom_site_occupancy
  Ba  Ba0  1  0.41450900  0.75000000  0.00502700  1
  Ba  Ba1  1  0.08549100  0.75000000  0.50502700  1
  Ba  Ba2  1  0.58549100  0.25000000  0.99497300  1
  Ba  Ba3  1  0.91450900  0.25000000  0.49497300  1
  U  U0  1  0.99329500  0.99963300  0.18295200  1
  U  U1  1  0.50670500  0.50036700  0.68295200  1
  U  U2  1  0.00670500  0.49963300  0.81704800  1
  U  U3  1  0.49329500  0.00036700  0.31704800  1
  U  U4  1  0.00670500  0.00036700  0.81704800  1
  U  U5  1  0.49329500  0.49963300  0.31704800  1
  U  U6  1  0.99329500  0.50036700  0.18295200  1
  U  U7  1  0.50670500  0.99963300  0.68295200  1
  Se  Se0  1  0.66764900  0.55094000  0.87026400  1
  Se  Se1  1  0.83235100  0.94906000  0.37026400  1
  Se  Se2  1  0.33235100  0.05094000  0.12973600  1
  Se  Se3  1  0.16764900  0.44906000  0.62973600  1
  Se  Se4  1  0.33235100  0.44906000  0.12973600  1
  Se  Se5  1  0.16764900  0.05094000  0.62973600  1
  Se  Se6  1  0.66764900  0.94906000  0.87026400  1
  Se  Se7  1  0.83235100  0.55094000  0.37026400  1
  Se  Se8  1  0.68316400  0.75000000  0.18486000  1
  Se  Se9  1  0.81683600  0.75000000  0.68486000  1
  Se  Se10  1  0.31683600  0.25000000  0.81514000  1
  Se  Se11  1  0.18316400  0.25000000  0.31514000  1
  Se  Se12  1  0.00700400  0.75000000  0.00704500  1
  Se  Se13  1  0.49299600  0.75000000  0.50704500  1
  Se  Se14  1  0.99299600  0.25000000  0.99295500  1
  Se  Se15  1  0.50700400  0.25000000  0.49295500  1
  Se  Se16  1  0.28209400  0.75000000  0.78033400  1
  Se  Se17  1  0.21790600  0.75000000  0.28033400  1
  Se  Se18  1  0.71790600  0.25000000  0.21966600  1
  Se  Se19  1  0.78209400  0.25000000  0.71966600  1
loop_
_geom_bond_atom_site_label_1
_geom_bond_atom_site_label_2
_geom_bond_distance
_geom_bond_site_symmetry_2
Ba0 Se2 3.068471 1_565
Ba0 Se4 3.068471 1_555
Ba0 Se0 3.151318 1_554
Ba0 Se6 3.151318 1_554
Ba0 Se16 3.180702 1_554
Ba0 Se8 3.201343 1_555
Ba0 Se12 3.204394 1_555
Ba1 Se5 3.068471 1_565
Ba1 Se3 3.068471 1_555
Ba1 Se7 3.151318 1_455
Ba1 Se1 3.151318 1_455
Ba1 Se17 3.180702 1_555
Ba1 Se9 3.201343 1_455
Ba1 Se13 3.204394 1_555
Ba2 Se0 3.068471 1_555
Ba2 Se6 3.068471 1_545
Ba2 Se2 3.151318 1_556
Ba2 Se4 3.151318 1_556
Ba2 Se18 3.180702 1_556
Ba2 Se10 3.201343 1_555
Ba2 Se14 3.204394 1_555
Ba3 Se7 3.068471 1_555
Ba3 Se1 3.068471 1_545
Ba3 Se3 3.151318 1_655
Ba3 Se5 3.151318 1_655
Ba3 Se19 3.180702 1_555
Ba3 Se11 3.201343 1_655
Ba3 Se15 3.204394 1_555
Se0 U2 2.791985 1_655
Se0 U1 2.838028 1_555
Se1 U3 2.791985 1_565
Se1 U0 2.838028 1_555
Se2 U0 2.791985 1_445
Se2 U3 2.838028 1_555
Se3 U1 2.791985 1_555
Se3 U2 2.838028 1_555
Se4 U6 2.791985 1_455
Se4 U5 2.838028 1_555
Se5 U7 2.791985 1_545
Se5 U4 2.838028 1_555
Se6 U4 2.791985 1_665
Se6 U7 2.838028 1_555
Se7 U5 2.791985 1_555
Se7 U6 2.838028 1_555
Se8 U3 3.107626 1_565
Se8 U5 3.107626 1_555
Se8 U0 3.197562 1_555
Se8 U6 3.197562 1_555
Se9 U4 3.107626 1_665
Se9 U2 3.107626 1_655
Se9 U1 3.197562 1_555
Se9 U7 3.197562 1_555
Se10 U7 3.107626 1_545
Se10 U1 3.107626 1_555
Se10 U4 3.197562 1_555
Se10 U2 3.197562 1_555
Se11 U0 3.107626 1_445
Se11 U6 3.107626 1_455
Se11 U5 3.197562 1_555
Se11 U3 3.197562 1_555
Se12 U0 3.134437 1_455
Se12 U6 3.134437 1_455
Se12 U2 3.280346 1_554
Se12 U4 3.280346 1_564
Se13 U1 3.134437 1_555
Se13 U7 3.134437 1_555
Se13 U3 3.280346 1_565
Se13 U5 3.280346 1_555
Se14 U4 3.134437 1_655
Se14 U2 3.134437 1_655
Se14 U6 3.280346 1_556
Se14 U0 3.280346 1_546
Se15 U5 3.134437 1_555
Se15 U3 3.134437 1_555
Se15 U7 3.280346 1_545
Se15 U1 3.280346 1_555
Se16 U1 3.015443 1_555
Se16 U7 3.015443 1_555
Se16 U4 3.038479 1_565
Se16 U2 3.038479 1_555
Se17 U6 3.015443 1_455
Se17 U0 3.015443 1_455
Se17 U3 3.038479 1_565
Se17 U5 3.038479 1_555
Se18 U3 3.015443 1_555
Se18 U5 3.015443 1_555
Se18 U6 3.038479 1_555
Se18 U0 3.038479 1_545
Se19 U4 3.015443 1_655
Se19 U2 3.015443 1_655
Se19 U1 3.038479 1_555
Se19 U7 3.038479 1_545
