# generated using pymatgen
data_Al3Pd5
_symmetry_space_group_name_H-M   'P 1'
_cell_length_a   4.04353760
_cell_length_b   5.37832577
_cell_length_c   10.51932544
_cell_angle_alpha   90.00000000
_cell_angle_beta   90.00000000
_cell_angle_gamma   90.00000000
_symmetry_Int_Tables_number   1
_chemical_formula_structural   Al3Pd5
_chemical_formula_sum   'Al6 Pd10'
_cell_volume   228.76863528
_cell_formula_units_Z   2
loop_
 _symmetry_equiv_pos_site_id
 _symmetry_equiv_pos_as_xyz
  1  'x, y, z'
loop_
 _atom_site_type_symbol
 _atom_site_label
 _atom_site_symmetry_multiplicity
 _atom_site_fract_x
 _atom_site_fract_y
 _atom_site_fract_z
 _atom_site_occupancy
  Al  Al0  1  -0.00000000  -0.00000000  0.00000000  1
  Al  Al1  1  -0.00000000  0.50000000  0.50000000  1
  Al  Al2  1  0.50000000  0.16398209  0.35812401  1
  Al  Al3  1  0.50000000  0.83601791  0.64187599  1
  Al  Al4  1  0.50000000  0.66398209  0.14187599  1
  Al  Al5  1  0.50000000  0.33601791  0.85812401  1
  Pd  Pd0  1  0.50000000  0.18720419  0.10601385  1
  Pd  Pd1  1  0.50000000  0.81279581  0.89398615  1
  Pd  Pd2  1  0.50000000  0.68720419  0.39398615  1
  Pd  Pd3  1  0.50000000  0.31279581  0.60601385  1
  Pd  Pd4  1  -0.00000000  -0.00000000  0.50000000  1
  Pd  Pd5  1  -0.00000000  0.50000000  0.00000000  1
  Pd  Pd6  1  -0.00000000  0.90541832  0.23262623  1
  Pd  Pd7  1  -0.00000000  0.09458168  0.76737377  1
  Pd  Pd8  1  0.00000000  0.40541832  0.26737377  1
  Pd  Pd9  1  0.00000000  0.59458168  0.73262623  1
loop_
_geom_bond_atom_site_label_1
_geom_bond_atom_site_label_2
_geom_bond_distance
_geom_bond_site_symmetry_2
Al0 Pd7 2.499385 1_554
Al0 Pd6 2.499385 1_545
Al0 Pd1 2.518917 1_544
Al0 Pd1 2.518917 1_444
Al0 Pd0 2.518917 1_555
Al0 Pd0 2.518917 1_455
Al0 Pd5 2.689163 1_545
Al0 Pd5 2.689163 1_555
Al1 Pd8 2.499385 1_555
Al1 Pd9 2.499385 1_555
Al1 Pd2 2.518917 1_455
Al1 Pd3 2.518917 1_455
Al1 Pd2 2.518917 1_555
Al1 Pd3 2.518917 1_555
Al1 Pd4 2.689163 1_565
Al1 Pd4 2.689163 1_555
Al2 Pd8 2.585543 1_555
Al2 Pd8 2.585543 1_655
Al2 Pd2 2.591868 1_545
Al2 Pd0 2.654968 1_555
Al2 Pd4 2.663224 1_655
Al2 Pd4 2.663224 1_555
Al2 Pd3 2.727699 1_555
Al2 Pd6 2.786437 1_545
Al2 Pd6 2.786437 1_645
Al2 Pd2 2.839233 1_555
Al3 Pd9 2.585543 1_555
Al3 Pd9 2.585543 1_655
Al3 Pd3 2.591868 1_565
Al3 Pd1 2.654968 1_555
Al3 Pd4 2.663224 1_565
Al3 Pd4 2.663224 1_665
Al3 Pd2 2.727699 1_555
Al3 Pd7 2.786437 1_565
Al3 Pd7 2.786437 1_665
Al3 Pd3 2.839233 1_555
Al4 Pd6 2.585543 1_655
Al4 Pd6 2.585543 1_555
Al4 Pd0 2.591868 1_555
Al4 Pd2 2.654968 1_555
Al4 Pd5 2.663224 1_555
Al4 Pd5 2.663224 1_655
Al4 Pd1 2.727699 1_554
Al4 Pd8 2.786437 1_655
Al4 Pd8 2.786437 1_555
Al4 Pd0 2.839233 1_565
Al5 Pd7 2.585543 1_655
Al5 Pd7 2.585543 1_555
Al5 Pd1 2.591868 1_555
Al5 Pd3 2.654968 1_555
Al5 Pd5 2.663224 1_656
Al5 Pd5 2.663224 1_556
Al5 Pd0 2.727699 1_556
Al5 Pd9 2.786437 1_555
Al5 Pd9 2.786437 1_655
Al5 Pd1 2.839233 1_545
Pd0 Pd6 2.856273 1_645
Pd0 Pd6 2.856273 1_545
Pd0 Pd5 2.856816 1_555
Pd0 Pd5 2.856816 1_655
Pd0 Pd8 2.888963 1_555
Pd0 Pd8 2.888963 1_655
Pd0 Pd1 3.004926 1_544
Pd1 Pd7 2.856273 1_565
Pd1 Pd7 2.856273 1_665
Pd1 Pd5 2.856816 1_656
Pd1 Pd5 2.856816 1_556
Pd1 Pd9 2.888963 1_555
Pd1 Pd9 2.888963 1_655
Pd2 Pd8 2.856273 1_555
Pd2 Pd8 2.856273 1_655
Pd2 Pd4 2.856816 1_665
Pd2 Pd4 2.856816 1_565
Pd2 Pd6 2.888963 1_655
Pd2 Pd6 2.888963 1_555
Pd2 Pd3 3.004926 1_555
Pd3 Pd9 2.856273 1_555
Pd3 Pd9 2.856273 1_655
Pd3 Pd4 2.856816 1_555
Pd3 Pd4 2.856816 1_655
Pd3 Pd7 2.888963 1_655
Pd3 Pd7 2.888963 1_555
Pd4 Pd6 2.858223 1_545
Pd4 Pd7 2.858223 1_555
Pd5 Pd9 2.858223 1_554
Pd5 Pd8 2.858223 1_555
Pd6 Pd8 2.713891 1_565
Pd6 Pd8 2.713891 1_555
Pd7 Pd9 2.713891 1_555
Pd7 Pd9 2.713891 1_545
