# generated using pymatgen
data_Li5Mn(CoO4)2
_symmetry_space_group_name_H-M   'P 1'
_cell_length_a   5.10890672
_cell_length_b   5.10890672
_cell_length_c   10.01623864
_cell_angle_alpha   78.43170047
_cell_angle_beta   78.43170047
_cell_angle_gamma   33.43758472
_symmetry_Int_Tables_number   1
_chemical_formula_structural   Li5Mn(CoO4)2
_chemical_formula_sum   'Li5 Mn1 Co2 O8'
_cell_volume   140.86370277
_cell_formula_units_Z   1
loop_
 _symmetry_equiv_pos_site_id
 _symmetry_equiv_pos_as_xyz
  1  'x, y, z'
loop_
 _atom_site_type_symbol
 _atom_site_label
 _atom_site_symmetry_multiplicity
 _atom_site_fract_x
 _atom_site_fract_y
 _atom_site_fract_z
 _atom_site_occupancy
  Li  Li0  1  0.75017000  0.75017000  0.86505500  1
  Li  Li1  1  0.24271400  0.24271400  0.62989600  1
  Li  Li2  1  0.74677500  0.74677500  0.37716400  1
  Li  Li3  1  0.25439000  0.25439000  0.12728000  1
  Li  Li4  1  0.50759100  0.50759100  0.74963200  1
  Mn  Mn0  1  0.00438200  0.00438200  0.99162000  1
  Co  Co0  1  0.99762100  0.99762100  0.51141700  1
  Co  Co1  1  0.49488700  0.49488700  0.25511800  1
  O  O0  1  0.12306000  0.12306000  0.82466000  1
  O  O1  1  0.61308500  0.61308500  0.55565600  1
  O  O2  1  0.10855300  0.10855300  0.32187500  1
  O  O3  1  0.61046000  0.61046000  0.06184800  1
  O  O4  1  0.39206400  0.39206400  0.94552300  1
  O  O5  1  0.88314400  0.88314400  0.66724500  1
  O  O6  1  0.38445900  0.38445900  0.43409300  1
  O  O7  1  0.88664700  0.88664700  0.18192000  1
loop_
_geom_bond_atom_site_label_1
_geom_bond_atom_site_label_2
_geom_bond_distance
_geom_bond_site_symmetry_2
Li0 O0 2.020332 1_655
Li0 O0 2.020332 1_565
Li0 O5 2.130541 1_555
Li0 O3 2.150810 1_556
Li0 O4 2.281756 1_655
Li0 O4 2.281756 1_565
Li1 O0 2.054290 1_555
Li1 O5 2.098518 1_545
Li1 O5 2.098518 1_455
Li1 O6 2.152013 1_555
Li1 O1 2.171907 1_455
Li1 O1 2.171907 1_545
Li2 O1 1.982015 1_555
Li2 O7 2.139388 1_555
Li2 O2 2.147089 1_565
Li2 O2 2.147089 1_655
Li2 O6 2.149951 1_565
Li2 O6 2.149951 1_655
Li3 O4 2.025408 1_554
Li3 O7 2.105058 1_455
Li3 O7 2.105058 1_545
Li3 O2 2.161223 1_555
Li3 O3 2.227094 1_545
Li3 O3 2.227094 1_455
Li4 O1 2.000172 1_555
Li4 O4 2.049141 1_555
Li4 O0 2.087393 1_655
Li4 O0 2.087393 1_565
Li4 O5 2.178289 1_545
Li4 O5 2.178289 1_455
Mn0 O0 1.825397 1_555
Mn0 O4 1.947774 1_455
Mn0 O4 1.947774 1_545
Mn0 O3 2.009527 1_546
Mn0 O3 2.009527 1_456
Mn0 O7 2.010210 1_446
Co0 O5 1.720139 1_555
Co0 O1 1.960295 1_565
Co0 O1 1.960295 1_655
Co0 O2 1.979818 1_665
Co0 O6 2.084551 1_565
Co0 O6 2.084551 1_655
Co1 O6 1.889481 1_555
Co1 O3 2.027247 1_555
Co1 O7 2.035862 1_455
Co1 O7 2.035862 1_545
Co1 O2 2.038591 1_655
Co1 O2 2.038591 1_565
