# generated using pymatgen
data_BaCuGe
_symmetry_space_group_name_H-M   'P 1'
_cell_length_a   4.23432218
_cell_length_b   4.23432218
_cell_length_c   5.04550393
_cell_angle_alpha   90.00000000
_cell_angle_beta   90.00000000
_cell_angle_gamma   120.00000660
_symmetry_Int_Tables_number   1
_chemical_formula_structural   BaCuGe
_chemical_formula_sum   'Ba1 Cu1 Ge1'
_cell_volume   78.34349661
_cell_formula_units_Z   1
loop_
 _symmetry_equiv_pos_site_id
 _symmetry_equiv_pos_as_xyz
  1  'x, y, z'
loop_
 _atom_site_type_symbol
 _atom_site_label
 _atom_site_symmetry_multiplicity
 _atom_site_fract_x
 _atom_site_fract_y
 _atom_site_fract_z
 _atom_site_occupancy
  Ba  Ba0  1  0.33333300  0.66666700  -0.00000000  1
  Cu  Cu0  1  0.66666700  0.33333300  0.50000000  1
  Ge  Ge0  1  0.00000000  -0.00000000  0.50000000  1
loop_
_geom_bond_atom_site_label_1
_geom_bond_atom_site_label_2
_geom_bond_distance
_geom_bond_site_symmetry_2
Ba0 Cu0 3.512942 1_454
Ba0 Cu0 3.512942 1_455
Ba0 Cu0 3.512942 1_565
Ba0 Cu0 3.512942 1_564
Ba0 Ge0 3.512942 1_565
Ba0 Ge0 3.512942 1_564
Ba0 Ge0 3.512944 1_664
Ba0 Ge0 3.512944 1_665
Ba0 Ge0 3.512944 1_555
Ba0 Ge0 3.512944 1_554
Ba0 Cu0 3.512947 1_554
Ba0 Cu0 3.512947 1_555
Cu0 Ge0 2.444685 1_655
Cu0 Ge0 2.444688 1_665
Cu0 Ge0 2.444688 1_555
