# generated using pymatgen
data_AlFe(WO4)2
_symmetry_space_group_name_H-M   'P 1'
_cell_length_a   5.54714500
_cell_length_b   5.12076800
_cell_length_c   10.49727636
_cell_angle_alpha   61.10204329
_cell_angle_beta   90.00000000
_cell_angle_gamma   90.00000000
_symmetry_Int_Tables_number   1
_chemical_formula_structural   AlFe(WO4)2
_chemical_formula_sum   'Al2 Fe2 W4 O16'
_cell_volume   261.05279814
_cell_formula_units_Z   2
loop_
 _symmetry_equiv_pos_site_id
 _symmetry_equiv_pos_as_xyz
  1  'x, y, z'
loop_
 _atom_site_type_symbol
 _atom_site_label
 _atom_site_symmetry_multiplicity
 _atom_site_fract_x
 _atom_site_fract_y
 _atom_site_fract_z
 _atom_site_occupancy
  Al  Al0  1  0.65394300  0.50000000  0.25000000  1
  Al  Al1  1  0.34605700  0.50000000  0.75000000  1
  Fe  Fe0  1  0.35588400  0.00000000  0.25000000  1
  Fe  Fe1  1  0.64411600  0.00000000  0.75000000  1
  W  W0  1  0.16517200  0.75307600  0.99899800  1
  W  W1  1  0.16517200  0.24692400  0.50100200  1
  W  W2  1  0.83482800  0.24692400  0.00100200  1
  W  W3  1  0.83482800  0.75307600  0.49899800  1
  O  O0  1  0.38322800  0.23244100  0.36453800  1
  O  O1  1  0.38322800  0.76755900  0.13546200  1
  O  O2  1  0.61677200  0.76755900  0.63546200  1
  O  O3  1  0.61677200  0.23244100  0.86453800  1
  O  O4  1  0.88214800  0.70349700  0.88905400  1
  O  O5  1  0.88214800  0.29650300  0.61094600  1
  O  O6  1  0.11785200  0.29650300  0.11094600  1
  O  O7  1  0.11785200  0.70349700  0.38905400  1
  O  O8  1  0.62399800  0.70666600  0.35865500  1
  O  O9  1  0.62399800  0.29333400  0.14134500  1
  O  O10  1  0.37600200  0.29333400  0.64134500  1
  O  O11  1  0.37600200  0.70666600  0.85865500  1
  O  O12  1  0.87592600  0.20126700  0.38251700  1
  O  O13  1  0.12407400  0.79873300  0.61748300  1
  O  O14  1  0.87592600  0.79873300  0.11748300  1
  O  O15  1  0.12407400  0.20126700  0.88251700  1
loop_
_geom_bond_atom_site_label_1
_geom_bond_atom_site_label_2
_geom_bond_distance
_geom_bond_site_symmetry_2
Al0 O9 1.901348 1_555
Al0 O8 1.901348 1_555
Al0 O12 1.932554 1_555
Al0 O14 1.932554 1_555
Al0 O0 1.996434 1_555
Al0 O1 1.996434 1_555
Al1 O10 1.901348 1_555
Al1 O11 1.901348 1_555
Al1 O13 1.932554 1_555
Al1 O15 1.932554 1_555
Al1 O2 1.996434 1_555
Al1 O3 1.996434 1_555
Fe0 O7 2.009330 1_545
Fe0 O6 2.009330 1_555
Fe0 O8 2.028129 1_545
Fe0 O9 2.028129 1_555
Fe0 O0 2.066048 1_555
Fe0 O1 2.066048 1_545
Fe1 O5 2.009330 1_555
Fe1 O4 2.009330 1_545
Fe1 O10 2.028129 1_555
Fe1 O11 2.028129 1_545
Fe1 O2 2.066048 1_545
Fe1 O3 2.066048 1_555
O0 W1 1.903508 1_555
O1 W0 1.903508 1_554
O2 W3 1.903508 1_555
O3 W2 1.903508 1_556
O4 W0 2.035792 1_655
O4 W2 2.064140 1_556
O5 W1 2.035792 1_655
O5 W3 2.064140 1_555
O6 W2 2.035792 1_455
O6 W0 2.064140 1_554
O7 W3 2.035792 1_455
O7 W1 2.064140 1_555
O8 W3 1.983176 1_555
O9 W2 1.983176 1_555
O10 W1 1.983176 1_555
O11 W0 1.983176 1_555
O12 W3 2.025384 1_545
O12 W1 2.111176 1_655
O13 W1 2.025384 1_565
O13 W3 2.111176 1_455
O14 W2 2.025384 1_565
O14 W0 2.111176 1_654
O15 W0 2.025384 1_545
O15 W2 2.111176 1_456
