# generated using pymatgen
data_Ba2NbFeO6
_symmetry_space_group_name_H-M   'P 1'
_cell_length_a   5.87902029
_cell_length_b   5.87902029
_cell_length_c   14.38339100
_cell_angle_alpha   90.00000000
_cell_angle_beta   90.00000000
_cell_angle_gamma   120.00000322
_symmetry_Int_Tables_number   1
_chemical_formula_structural   Ba2NbFeO6
_chemical_formula_sum   'Ba6 Nb3 Fe3 O18'
_cell_volume   430.52841638
_cell_formula_units_Z   3
loop_
 _symmetry_equiv_pos_site_id
 _symmetry_equiv_pos_as_xyz
  1  'x, y, z'
loop_
 _atom_site_type_symbol
 _atom_site_label
 _atom_site_symmetry_multiplicity
 _atom_site_fract_x
 _atom_site_fract_y
 _atom_site_fract_z
 _atom_site_occupancy
  Ba  Ba0  1  0.00000000  0.00000000  0.75037100  1
  Ba  Ba1  1  0.00000000  0.00000000  0.24962900  1
  Ba  Ba2  1  0.66666700  0.33333300  0.90464600  1
  Ba  Ba3  1  0.33333300  0.66666700  0.09535400  1
  Ba  Ba4  1  0.66666700  0.33333300  0.60176600  1
  Ba  Ba5  1  0.33333300  0.66666700  0.39823400  1
  Nb  Nb0  1  0.00000000  0.00000000  0.50000000  1
  Nb  Nb1  1  0.66666700  0.33333300  0.15561500  1
  Nb  Nb2  1  0.33333300  0.66666700  0.84438500  1
  Fe  Fe0  1  0.00000000  0.00000000  0.00000000  1
  Fe  Fe1  1  0.66666700  0.33333300  0.34932300  1
  Fe  Fe2  1  0.33333300  0.66666700  0.65067700  1
  O  O0  1  0.02885500  0.51442800  0.75141600  1
  O  O1  1  0.48557200  0.97114500  0.75141600  1
  O  O2  1  0.48557200  0.51442800  0.75141600  1
  O  O3  1  0.97114500  0.48557200  0.24858400  1
  O  O4  1  0.51442800  0.02885500  0.24858400  1
  O  O5  1  0.51442800  0.48557200  0.24858400  1
  O  O6  1  0.66648400  0.83324200  0.91845500  1
  O  O7  1  0.16675800  0.33351600  0.91845500  1
  O  O8  1  0.16675800  0.83324200  0.91845500  1
  O  O9  1  0.33351600  0.16675800  0.08154500  1
  O  O10  1  0.83324200  0.66648400  0.08154500  1
  O  O11  1  0.83324200  0.16675800  0.08154500  1
  O  O12  1  0.67380400  0.83690200  0.58072700  1
  O  O13  1  0.16309800  0.32619600  0.58072700  1
  O  O14  1  0.16309800  0.83690200  0.58072700  1
  O  O15  1  0.32619600  0.16309800  0.41927300  1
  O  O16  1  0.83690200  0.67380400  0.41927300  1
  O  O17  1  0.83690200  0.16309800  0.41927300  1
loop_
_geom_bond_atom_site_label_1
_geom_bond_atom_site_label_2
_geom_bond_distance
_geom_bond_site_symmetry_2
Ba0 O0 2.943215 1_545
Ba0 O1 2.943215 1_545
Ba0 O2 2.943218 1_555
Ba0 O2 2.943218 1_445
Ba0 O1 2.943220 1_445
Ba0 O0 2.943220 1_555
Ba0 O12 2.951625 1_445
Ba0 O13 2.951625 1_555
Ba0 O14 2.951625 1_545
Ba0 O6 2.954365 1_445
Ba0 O7 2.954365 1_555
Ba0 O8 2.954365 1_545
Ba1 O4 2.943215 1_455
Ba1 O3 2.943215 1_455
Ba1 O5 2.943218 1_445
Ba1 O5 2.943218 1_555
Ba1 O3 2.943220 1_445
Ba1 O4 2.943220 1_555
Ba1 O15 2.951625 1_555
Ba1 O16 2.951625 1_445
Ba1 O17 2.951625 1_455
Ba1 O10 2.954365 1_445
Ba1 O9 2.954365 1_555
Ba1 O11 2.954365 1_455
Ba2 O0 2.873664 1_655
Ba2 O1 2.873664 1_545
Ba2 O2 2.873670 1_555
Ba2 O7 2.946210 1_655
Ba2 O6 2.946210 1_545
Ba2 O8 2.946213 1_655
Ba2 O8 2.946213 1_545
Ba2 O6 2.946216 1_555
Ba2 O7 2.946216 1_555
Ba2 O11 3.057954 1_556
Ba2 O10 3.057957 1_556
Ba2 O9 3.057957 1_556
Ba3 O4 2.873664 1_565
Ba3 O3 2.873664 1_455
Ba3 O5 2.873670 1_555
Ba3 O9 2.946210 1_565
Ba3 O10 2.946210 1_455
Ba3 O11 2.946213 1_565
Ba3 O11 2.946213 1_455
Ba3 O10 2.946216 1_555
Ba3 O9 2.946216 1_555
Ba3 O8 3.057954 1_554
Ba3 O6 3.057957 1_554
Ba3 O7 3.057957 1_554
Ba4 O0 2.834364 1_655
Ba4 O1 2.834364 1_545
Ba4 O2 2.834371 1_555
Ba4 O13 2.955266 1_655
Ba4 O12 2.955266 1_545
Ba4 O14 2.955269 1_655
Ba4 O14 2.955269 1_545
Ba4 O12 2.955272 1_555
Ba4 O13 2.955272 1_555
Ba4 O17 3.145604 1_555
Ba4 O16 3.145607 1_555
Ba4 O15 3.145607 1_555
Ba5 O4 2.834364 1_565
Ba5 O3 2.834364 1_455
Ba5 O5 2.834371 1_555
Ba5 O15 2.955266 1_565
Ba5 O16 2.955266 1_455
Ba5 O17 2.955269 1_565
Ba5 O17 2.955269 1_455
Ba5 O16 2.955272 1_555
Ba5 O15 2.955272 1_555
Ba5 O14 3.145604 1_555
Ba5 O12 3.145607 1_555
Ba5 O13 3.145607 1_555
Nb0 O15 2.026434 1_555
Nb0 O12 2.026434 1_445
Nb0 O13 2.026434 1_555
Nb0 O16 2.026434 1_445
Nb0 O17 2.026434 1_455
Nb0 O14 2.026434 1_545
Nb1 O11 2.003023 1_555
Nb1 O10 2.003028 1_555
Nb1 O9 2.003028 1_555
Nb1 O3 2.047264 1_555
Nb1 O4 2.047264 1_555
Nb1 O5 2.047264 1_555
Nb2 O8 2.003023 1_555
Nb2 O6 2.003028 1_555
Nb2 O7 2.003028 1_555
Nb2 O1 2.047264 1_555
Nb2 O0 2.047264 1_555
Nb2 O2 2.047264 1_555
Fe0 O10 2.063753 1_445
Fe0 O9 2.063753 1_555
Fe0 O7 2.063753 1_554
Fe0 O6 2.063753 1_444
Fe0 O11 2.063753 1_455
Fe0 O8 2.063753 1_544
Fe1 O17 2.004287 1_555
Fe1 O16 2.004291 1_555
Fe1 O15 2.004291 1_555
Fe1 O3 2.121950 1_555
Fe1 O4 2.121950 1_555
Fe1 O5 2.121950 1_555
Fe2 O14 2.004287 1_555
Fe2 O12 2.004291 1_555
Fe2 O13 2.004291 1_555
Fe2 O1 2.121950 1_555
Fe2 O0 2.121950 1_555
Fe2 O2 2.121950 1_555
