# generated using pymatgen
data_Ba4MnN4
_symmetry_space_group_name_H-M   'P 1'
_cell_length_a   6.46777998
_cell_length_b   7.41625942
_cell_length_c   9.42405534
_cell_angle_alpha   75.03857060
_cell_angle_beta   93.71830004
_cell_angle_gamma   83.57168020
_symmetry_Int_Tables_number   1
_chemical_formula_structural   Ba4MnN4
_chemical_formula_sum   'Ba8 Mn2 N8'
_cell_volume   431.89668879
_cell_formula_units_Z   2
loop_
 _symmetry_equiv_pos_site_id
 _symmetry_equiv_pos_as_xyz
  1  'x, y, z'
loop_
 _atom_site_type_symbol
 _atom_site_label
 _atom_site_symmetry_multiplicity
 _atom_site_fract_x
 _atom_site_fract_y
 _atom_site_fract_z
 _atom_site_occupancy
  Ba  Ba0  1  0.75968900  0.52095800  0.10688300  1
  Ba  Ba1  1  0.24031100  0.47904200  0.89311700  1
  Ba  Ba2  1  0.75731600  0.10287000  0.90938700  1
  Ba  Ba3  1  0.24268400  0.89713000  0.09061300  1
  Ba  Ba4  1  0.76625400  0.42926000  0.57075700  1
  Ba  Ba5  1  0.23374600  0.57074000  0.42924300  1
  Ba  Ba6  1  0.26505400  0.97166700  0.62805300  1
  Ba  Ba7  1  0.73494600  0.02833300  0.37194700  1
  Mn  Mn0  1  0.79813800  0.77461800  0.73864100  1
  Mn  Mn1  1  0.20186200  0.22538200  0.26135900  1
  N  N0  1  0.96590900  0.69922800  0.61852500  1
  N  N1  1  0.03409100  0.30077200  0.38147500  1
  N  N2  1  0.95091100  0.77194300  0.90235000  1
  N  N3  1  0.04908900  0.22805700  0.09765000  1
  N  N4  1  0.60470100  0.62621300  0.77938200  1
  N  N5  1  0.39529900  0.37378700  0.22061800  1
  N  N6  1  0.31269900  0.99127600  0.34153700  1
  N  N7  1  0.68730100  0.00872400  0.65846300  1
loop_
_geom_bond_atom_site_label_1
_geom_bond_atom_site_label_2
_geom_bond_distance
_geom_bond_site_symmetry_2
Ba0 N3 2.727264 1_655
Ba0 N2 2.771615 1_554
Ba0 N5 2.862552 1_555
Ba0 N1 3.014364 1_655
Ba0 N4 3.052787 1_554
Ba1 N2 2.727264 1_455
Ba1 N3 2.771615 1_556
Ba1 N4 2.862552 1_555
Ba1 N0 3.014364 1_455
Ba1 N5 3.052787 1_556
Ba2 N2 2.646171 1_545
Ba2 N7 2.658739 1_555
Ba2 N3 2.894746 1_656
Ba3 N3 2.646171 1_565
Ba3 N6 2.658739 1_555
Ba3 N2 2.894746 1_454
Ba4 N0 2.616810 1_555
Ba4 N1 2.828375 1_655
Ba4 N4 2.915191 1_555
Ba4 N7 3.122693 1_555
Ba5 N1 2.616810 1_555
Ba5 N0 2.828375 1_455
Ba5 N5 2.915191 1_555
Ba5 N6 3.122693 1_555
Ba6 N6 2.705935 1_555
Ba6 N7 2.779072 1_565
Ba6 N0 2.963167 1_455
Ba6 N1 3.064862 1_565
Ba6 N4 3.141690 1_555
Ba7 N7 2.705935 1_555
Ba7 N6 2.779072 1_545
Ba7 N1 2.963167 1_655
Ba7 N0 3.064862 1_545
Ba7 N5 3.141690 1_555
Mn0 N7 1.752962 1_565
Mn0 N4 1.753988 1_555
Mn0 N0 1.766832 1_555
Mn0 N2 1.771740 1_555
Mn1 N6 1.752962 1_545
Mn1 N5 1.753988 1_555
Mn1 N1 1.766832 1_555
Mn1 N3 1.771740 1_555
