# generated using pymatgen
data_Ga(Ni3B2)4
_symmetry_space_group_name_H-M   'P 1'
_cell_length_a   8.99556163
_cell_length_b   8.99556163
_cell_length_c   14.57125200
_cell_angle_alpha   90.00000000
_cell_angle_beta   90.00000000
_cell_angle_gamma   107.91190023
_symmetry_Int_Tables_number   1
_chemical_formula_structural   Ga(Ni3B2)4
_chemical_formula_sum   'Ga6 Ni72 B48'
_cell_volume   1121.95689013
_cell_formula_units_Z   6
loop_
 _symmetry_equiv_pos_site_id
 _symmetry_equiv_pos_as_xyz
  1  'x, y, z'
loop_
 _atom_site_type_symbol
 _atom_site_label
 _atom_site_symmetry_multiplicity
 _atom_site_fract_x
 _atom_site_fract_y
 _atom_site_fract_z
 _atom_site_occupancy
  Ga  Ga0  1  0.73210700  0.26789300  0.76114300  1
  Ga  Ga1  1  0.26789300  0.73210700  0.23885700  1
  Ga  Ga2  1  0.76789300  0.23210700  0.26114300  1
  Ga  Ga3  1  0.23210700  0.76789300  0.73885700  1
  Ga  Ga4  1  0.00000000  0.00000000  0.00000000  1
  Ga  Ga5  1  0.50000000  0.50000000  0.50000000  1
  Ni  Ni0  1  0.69868200  0.96463000  0.99794900  1
  Ni  Ni1  1  0.30131800  0.03537000  0.00205100  1
  Ni  Ni2  1  0.80131800  0.53537000  0.49794900  1
  Ni  Ni3  1  0.53537000  0.80131800  0.50205100  1
  Ni  Ni4  1  0.19868200  0.46463000  0.50205100  1
  Ni  Ni5  1  0.46463000  0.19868200  0.49794900  1
  Ni  Ni6  1  0.96463000  0.69868200  0.00205100  1
  Ni  Ni7  1  0.03537000  0.30131800  0.99794900  1
  Ni  Ni8  1  0.39656300  0.86961500  0.89648300  1
  Ni  Ni9  1  0.60343700  0.13038500  0.10351700  1
  Ni  Ni10  1  0.10343700  0.63038500  0.39648300  1
  Ni  Ni11  1  0.63038500  0.10343700  0.60351700  1
  Ni  Ni12  1  0.89656300  0.36961500  0.60351700  1
  Ni  Ni13  1  0.36961500  0.89656300  0.39648300  1
  Ni  Ni14  1  0.86961500  0.39656300  0.10351700  1
  Ni  Ni15  1  0.13038500  0.60343700  0.89648300  1
  Ni  Ni16  1  0.82309000  0.84132500  0.86761600  1
  Ni  Ni17  1  0.17691000  0.15867500  0.13238400  1
  Ni  Ni18  1  0.67691000  0.65867500  0.36761600  1
  Ni  Ni19  1  0.65867500  0.67691000  0.63238400  1
  Ni  Ni20  1  0.32309000  0.34132500  0.63238400  1
  Ni  Ni21  1  0.34132500  0.32309000  0.36761600  1
  Ni  Ni22  1  0.84132500  0.82309000  0.13238400  1
  Ni  Ni23  1  0.15867500  0.17691000  0.86761600  1
  Ni  Ni24  1  0.44968400  0.28701000  0.77929200  1
  Ni  Ni25  1  0.55031600  0.71299000  0.22070800  1
  Ni  Ni26  1  0.05031600  0.21299000  0.27929200  1
  Ni  Ni27  1  0.21299000  0.05031600  0.72070800  1
  Ni  Ni28  1  0.94968400  0.78701000  0.72070800  1
  Ni  Ni29  1  0.78701000  0.94968400  0.27929200  1
  Ni  Ni30  1  0.28701000  0.44968400  0.22070800  1
  Ni  Ni31  1  0.71299000  0.55031600  0.77929200  1
  Ni  Ni32  1  0.57566500  0.42433500  0.92127100  1
  Ni  Ni33  1  0.42433500  0.57566500  0.07872900  1
  Ni  Ni34  1  0.92433500  0.07566500  0.42127100  1
  Ni  Ni35  1  0.07566500  0.92433500  0.57872900  1
  Ni  Ni36  1  0.61724600  0.38275400  0.63028600  1
  Ni  Ni37  1  0.38275400  0.61724600  0.36971400  1
  Ni  Ni38  1  0.88275400  0.11724600  0.13028600  1
  Ni  Ni39  1  0.11724600  0.88275400  0.86971400  1
  Ni  Ni40  1  0.58202800  0.14878900  0.91217900  1
  Ni  Ni41  1  0.41797200  0.85121100  0.08782100  1
  Ni  Ni42  1  0.91797200  0.35121100  0.41217900  1
  Ni  Ni43  1  0.35121100  0.91797200  0.58782100  1
  Ni  Ni44  1  0.08202800  0.64878900  0.58782100  1
  Ni  Ni45  1  0.64878900  0.08202800  0.41217900  1
  Ni  Ni46  1  0.14878900  0.58202800  0.08782100  1
  Ni  Ni47  1  0.85121100  0.41797200  0.91217900  1
  Ni  Ni48  1  0.86261500  0.13738500  0.87499800  1
  Ni  Ni49  1  0.13738500  0.86261500  0.12500200  1
  Ni  Ni50  1  0.63738500  0.36261500  0.37499800  1
  Ni  Ni51  1  0.36261500  0.63738500  0.62500200  1
  Ni  Ni52  1  0.48569100  0.01430900  0.75000000  1
  Ni  Ni53  1  0.51430900  0.98569100  0.25000000  1
  Ni  Ni54  1  0.01430900  0.48569100  0.25000000  1
  Ni  Ni55  1  0.98569100  0.51430900  0.75000000  1
  Ni  Ni56  1  0.75333700  0.97558700  0.73233500  1
  Ni  Ni57  1  0.24666300  0.02441300  0.26766500  1
  Ni  Ni58  1  0.74666300  0.52441300  0.23233500  1
  Ni  Ni59  1  0.52441300  0.74666300  0.76766500  1
  Ni  Ni60  1  0.25333700  0.47558700  0.76766500  1
  Ni  Ni61  1  0.47558700  0.25333700  0.23233500  1
  Ni  Ni62  1  0.97558700  0.75333700  0.26766500  1
  Ni  Ni63  1  0.02441300  0.24666300  0.73233500  1
  Ni  Ni64  1  0.56136000  0.69984100  0.93451600  1
  Ni  Ni65  1  0.43864000  0.30015900  0.06548400  1
  Ni  Ni66  1  0.93864000  0.80015900  0.43451600  1
  Ni  Ni67  1  0.80015900  0.93864000  0.56548400  1
  Ni  Ni68  1  0.06136000  0.19984100  0.56548400  1
  Ni  Ni69  1  0.19984100  0.06136000  0.43451600  1
  Ni  Ni70  1  0.69984100  0.56136000  0.06548400  1
  Ni  Ni71  1  0.30015900  0.43864000  0.93451600  1
  B  B0  1  0.97555000  0.02445000  0.67346300  1
  B  B1  1  0.02445000  0.97555000  0.32653700  1
  B  B2  1  0.52445000  0.47555000  0.17346300  1
  B  B3  1  0.47555000  0.52445000  0.82653700  1
  B  B4  1  0.34043200  0.06441000  0.84859800  1
  B  B5  1  0.65956800  0.93559000  0.15140200  1
  B  B6  1  0.15956800  0.43559000  0.34859800  1
  B  B7  1  0.43559000  0.15956800  0.65140200  1
  B  B8  1  0.84043200  0.56441000  0.65140200  1
  B  B9  1  0.56441000  0.84043200  0.34859800  1
  B  B10  1  0.06441000  0.34043200  0.15140200  1
  B  B11  1  0.93559000  0.65956800  0.84859800  1
  B  B12  1  0.63400500  0.94358200  0.85758700  1
  B  B13  1  0.36599500  0.05641800  0.14241300  1
  B  B14  1  0.86599500  0.55641800  0.35758700  1
  B  B15  1  0.55641800  0.86599500  0.64241300  1
  B  B16  1  0.13400500  0.44358200  0.64241300  1
  B  B17  1  0.44358200  0.13400500  0.35758700  1
  B  B18  1  0.94358200  0.63400500  0.14241300  1
  B  B19  1  0.05641800  0.36599500  0.85758700  1
  B  B20  1  0.82588600  0.17411400  0.51788400  1
  B  B21  1  0.17411400  0.82588600  0.48211600  1
  B  B22  1  0.67411400  0.32588600  0.01788400  1
  B  B23  1  0.32588600  0.67411400  0.98211600  1
  B  B24  1  0.77094900  0.77094900  0.00000000  1
  B  B25  1  0.22905100  0.22905100  0.00000000  1
  B  B26  1  0.72905100  0.72905100  0.50000000  1
  B  B27  1  0.27094900  0.27094900  0.50000000  1
  B  B28  1  0.38430800  0.23471200  0.92055600  1
  B  B29  1  0.61569200  0.76528800  0.07944400  1
  B  B30  1  0.11569200  0.26528800  0.42055600  1
  B  B31  1  0.26528800  0.11569200  0.57944400  1
  B  B32  1  0.88430800  0.73471200  0.57944400  1
  B  B33  1  0.73471200  0.88430800  0.42055600  1
  B  B34  1  0.23471200  0.38430800  0.07944400  1
  B  B35  1  0.76528800  0.61569200  0.92055600  1
  B  B36  1  0.98972900  0.01027100  0.79433000  1
  B  B37  1  0.01027100  0.98972900  0.20567000  1
  B  B38  1  0.51027100  0.48972900  0.29433000  1
  B  B39  1  0.48972900  0.51027100  0.70567000  1
  B  B40  1  0.70516200  0.29483800  0.50233400  1
  B  B41  1  0.29483800  0.70516200  0.49766600  1
  B  B42  1  0.79483800  0.20516200  0.00233400  1
  B  B43  1  0.20516200  0.79483800  0.99766600  1
  B  B44  1  0.85722600  0.14277400  0.63857800  1
  B  B45  1  0.14277400  0.85722600  0.36142200  1
  B  B46  1  0.64277400  0.35722600  0.13857800  1
  B  B47  1  0.35722600  0.64277400  0.86142200  1
loop_
_geom_bond_atom_site_label_1
_geom_bond_atom_site_label_2
_geom_bond_distance
_geom_bond_site_symmetry_2
Ga0 Ni48 2.521232 1_555
Ga0 Ni36 2.535260 1_555
Ga0 Ni24 2.612022 1_555
Ga0 Ni31 2.612022 1_555
Ga0 Ni40 2.631399 1_555
Ga0 Ni47 2.631399 1_555
Ga0 Ni52 2.652015 1_555
Ga0 Ni55 2.652015 1_555
Ga0 Ni63 2.726830 1_655
Ga0 Ni56 2.726830 1_545
Ga0 Ni11 2.732858 1_555
Ga0 Ni12 2.732858 1_555
Ga1 Ni49 2.521232 1_555
Ga1 Ni37 2.535260 1_555
Ga1 Ni25 2.612022 1_555
Ga1 Ni30 2.612022 1_555
Ga1 Ni46 2.631399 1_555
Ga1 Ni41 2.631399 1_555
Ga1 Ni54 2.652015 1_555
Ga1 Ni53 2.652015 1_555
Ga1 Ni62 2.726830 1_455
Ga1 Ni57 2.726830 1_565
Ga1 Ni10 2.732858 1_555
Ga1 Ni13 2.732858 1_555
Ga2 Ni50 2.521232 1_555
Ga2 Ni38 2.535260 1_555
Ga2 Ni26 2.612022 1_655
Ga2 Ni29 2.612022 1_545
Ga2 Ni42 2.631399 1_555
Ga2 Ni45 2.631399 1_555
Ga2 Ni54 2.652015 1_655
Ga2 Ni53 2.652015 1_545
Ga2 Ni58 2.726830 1_555
Ga2 Ni61 2.726830 1_555
Ga2 Ni9 2.732858 1_555
Ga2 Ni14 2.732858 1_555
Ga3 Ni51 2.521232 1_555
Ga3 Ni39 2.535260 1_555
Ga3 Ni28 2.612022 1_455
Ga3 Ni27 2.612022 1_565
Ga3 Ni43 2.631399 1_555
Ga3 Ni44 2.631399 1_555
Ga3 Ni52 2.652015 1_565
Ga3 Ni55 2.652015 1_455
Ga3 Ni60 2.726830 1_555
Ga3 Ni59 2.726830 1_555
Ga3 Ni8 2.732858 1_555
Ga3 Ni15 2.732858 1_555
Ga4 Ni39 2.552063 1_544
Ga4 Ni38 2.552063 1_455
Ga4 Ni23 2.625598 1_554
Ga4 Ni16 2.625598 1_444
Ga4 Ni22 2.625598 1_445
Ga4 Ni17 2.625598 1_555
Ga4 Ni7 2.630322 1_554
Ga4 Ni6 2.630322 1_445
Ga4 Ni0 2.630322 1_444
Ga4 Ni1 2.630322 1_555
Ga4 Ni48 2.704031 1_454
Ga4 Ni49 2.704031 1_545
Ga5 Ni36 2.552063 1_555
Ga5 Ni37 2.552063 1_555
Ga5 Ni19 2.625598 1_555
Ga5 Ni20 2.625598 1_555
Ga5 Ni21 2.625598 1_555
Ga5 Ni18 2.625598 1_555
Ga5 Ni5 2.630322 1_555
Ga5 Ni2 2.630322 1_555
Ga5 Ni3 2.630322 1_555
Ga5 Ni4 2.630322 1_555
Ga5 Ni51 2.704031 1_555
Ga5 Ni50 2.704031 1_555
Ni0 Ni48 2.527781 1_565
Ni1 Ni49 2.527781 1_545
Ni2 Ni50 2.527781 1_555
Ni3 Ni51 2.527781 1_555
Ni4 Ni51 2.527781 1_555
Ni5 Ni50 2.527781 1_555
Ni16 Ni48 2.578431 1_565
Ni17 Ni49 2.578431 1_545
Ni18 Ni50 2.578431 1_555
Ni19 Ni51 2.578431 1_555
Ni20 Ni51 2.578431 1_555
Ni21 Ni50 2.578431 1_555
Ni22 Ni49 2.578431 1_655
Ni23 Ni48 2.578431 1_455
Ni40 Ni48 2.614207 1_555
Ni41 Ni49 2.614207 1_555
Ni42 Ni50 2.614207 1_555
Ni43 Ni51 2.614207 1_555
Ni44 Ni51 2.614207 1_555
Ni45 Ni50 2.614207 1_555
Ni46 Ni49 2.614207 1_555
Ni47 Ni48 2.614207 1_555
Ni48 Ni7 2.527781 1_655
Ni48 Ni63 2.554595 1_655
Ni48 Ni56 2.554595 1_545
Ni49 Ni6 2.527781 1_455
Ni49 Ni62 2.554595 1_455
Ni49 Ni57 2.554595 1_565
Ni50 Ni58 2.554595 1_555
Ni50 Ni61 2.554595 1_555
Ni51 Ni60 2.554595 1_555
Ni51 Ni59 2.554595 1_555
B0 B36 1.773221 1_555
B0 B44 1.794747 1_555
B0 Ni35 2.006615 1_645
B0 Ni56 2.093887 1_545
B0 Ni63 2.093887 1_655
B0 Ni27 2.187340 1_655
B0 Ni28 2.187340 1_545
B0 Ni68 2.193522 1_655
B0 Ni67 2.193522 1_545
B1 B37 1.773221 1_555
B1 B45 1.794747 1_555
B1 Ni34 2.006615 1_465
B1 Ni57 2.093887 1_565
B1 Ni62 2.093887 1_455
B1 Ni26 2.187340 1_565
B1 Ni29 2.187340 1_455
B1 Ni69 2.193522 1_565
B1 Ni66 2.193522 1_455
B2 B38 1.773221 1_555
B2 B46 1.794747 1_555
B2 Ni33 2.006615 1_555
B2 Ni58 2.093887 1_555
B2 Ni61 2.093887 1_555
B2 Ni30 2.187340 1_555
B2 Ni25 2.187340 1_555
B2 Ni65 2.193522 1_555
B2 Ni70 2.193522 1_555
B3 B39 1.773221 1_555
B3 B47 1.794747 1_555
B3 Ni32 2.006615 1_555
B3 Ni59 2.093887 1_555
B3 Ni60 2.093887 1_555
B3 Ni24 2.187340 1_555
B3 Ni31 2.187340 1_555
B3 Ni71 2.193522 1_555
B3 Ni64 2.193522 1_555
B4 Ni52 2.082519 1_555
B4 Ni8 2.087238 1_545
B4 Ni27 2.171089 1_555
B4 Ni39 2.185800 1_545
B4 Ni24 2.187435 1_555
B4 Ni23 2.189055 1_555
B4 Ni1 2.266100 1_556
B4 Ni40 2.267810 1_555
B5 Ni53 2.082519 1_555
B5 Ni9 2.087238 1_565
B5 Ni29 2.171089 1_555
B5 Ni38 2.185800 1_565
B5 Ni25 2.187435 1_555
B5 Ni22 2.189055 1_555
B5 Ni0 2.266100 1_554
B5 Ni41 2.267810 1_555
B6 Ni54 2.082519 1_555
B6 Ni10 2.087238 1_555
B6 Ni30 2.171089 1_555
B6 Ni37 2.185800 1_555
B6 Ni26 2.187435 1_555
B6 Ni21 2.189055 1_555
B6 Ni4 2.266100 1_555
B6 Ni42 2.267810 1_455
B7 Ni52 2.082519 1_555
B7 Ni11 2.087238 1_555
B7 Ni24 2.171089 1_555
B7 Ni36 2.185800 1_555
B7 Ni27 2.187435 1_555
B7 Ni20 2.189055 1_555
B7 Ni5 2.266100 1_555
B7 Ni43 2.267810 1_545
B8 Ni55 2.082519 1_555
B8 Ni12 2.087238 1_555
B8 Ni31 2.171089 1_555
B8 Ni36 2.185800 1_555
B8 Ni28 2.187435 1_555
B8 Ni19 2.189055 1_555
B8 Ni2 2.266100 1_555
B8 Ni44 2.267810 1_655
B9 Ni53 2.082519 1_555
B9 Ni13 2.087238 1_555
B9 Ni25 2.171089 1_555
B9 Ni37 2.185800 1_555
B9 Ni29 2.187435 1_555
B9 Ni18 2.189055 1_555
B9 Ni3 2.266100 1_555
B9 Ni45 2.267810 1_565
B10 B34 1.797263 1_555
B10 Ni54 2.082519 1_555
B10 Ni14 2.087238 1_455
B10 Ni26 2.171089 1_555
B10 Ni38 2.185800 1_455
B10 Ni30 2.187435 1_555
B10 Ni17 2.189055 1_555
B10 Ni7 2.266100 1_554
B10 Ni46 2.267810 1_555
B11 B35 1.797263 1_555
B11 Ni55 2.082519 1_555
B11 Ni15 2.087238 1_655
B11 Ni28 2.171089 1_555
B11 Ni39 2.185800 1_655
B11 Ni31 2.187435 1_555
B11 Ni16 2.189055 1_555
B11 Ni6 2.266100 1_556
B11 Ni47 2.267810 1_555
B12 Ni56 2.091892 1_555
B12 Ni8 2.109960 1_555
B12 Ni0 2.118876 1_555
B12 Ni16 2.173258 1_555
B12 Ni59 2.179995 1_555
B12 Ni40 2.188568 1_565
B12 Ni48 2.264399 1_565
B12 Ni52 2.272560 1_565
B12 Ni64 2.368475 1_555
B13 Ni57 2.091892 1_555
B13 Ni9 2.109960 1_555
B13 Ni1 2.118876 1_555
B13 Ni17 2.173258 1_555
B13 Ni61 2.179995 1_555
B13 Ni41 2.188568 1_545
B13 Ni49 2.264399 1_545
B13 Ni53 2.272560 1_545
B13 Ni65 2.368475 1_555
B14 Ni58 2.091892 1_555
B14 Ni10 2.109960 1_655
B14 Ni2 2.118876 1_555
B14 Ni18 2.173258 1_555
B14 Ni62 2.179995 1_555
B14 Ni42 2.188568 1_555
B14 Ni50 2.264399 1_555
B14 Ni54 2.272560 1_655
B14 Ni66 2.368475 1_555
B15 Ni59 2.091892 1_555
B15 Ni11 2.109960 1_565
B15 Ni3 2.118876 1_555
B15 Ni19 2.173258 1_555
B15 Ni56 2.179995 1_555
B15 Ni43 2.188568 1_555
B15 Ni51 2.264399 1_555
B15 Ni52 2.272560 1_565
B15 Ni67 2.368475 1_555
B16 Ni60 2.091892 1_555
B16 Ni12 2.109960 1_455
B16 Ni4 2.118876 1_555
B16 Ni20 2.173258 1_555
B16 Ni63 2.179995 1_555
B16 Ni44 2.188568 1_555
B16 Ni51 2.264399 1_555
B16 Ni55 2.272560 1_455
B16 Ni68 2.368475 1_555
B17 Ni61 2.091892 1_555
B17 Ni13 2.109960 1_545
B17 Ni5 2.118876 1_555
B17 Ni21 2.173258 1_555
B17 Ni57 2.179995 1_555
B17 Ni45 2.188568 1_555
B17 Ni50 2.264399 1_555
B17 Ni53 2.272560 1_545
B17 Ni69 2.368475 1_555
B18 Ni62 2.091892 1_555
B18 Ni14 2.109960 1_555
B18 Ni6 2.118876 1_555
B18 Ni22 2.173258 1_555
B18 Ni58 2.179995 1_555
B18 Ni46 2.188568 1_655
B18 Ni49 2.264399 1_655
B18 Ni54 2.272560 1_655
B18 Ni70 2.368475 1_555
B19 Ni63 2.091892 1_555
B19 Ni15 2.109960 1_555
B19 Ni7 2.118876 1_555
B19 Ni23 2.173258 1_555
B19 Ni60 2.179995 1_555
B19 Ni47 2.188568 1_455
B19 Ni48 2.264399 1_455
B19 Ni55 2.272560 1_455
B19 Ni71 2.368475 1_555
B20 B40 1.770727 1_555
B20 B44 1.816794 1_555
B20 Ni34 2.008193 1_555
B20 Ni11 2.089553 1_555
B20 Ni12 2.089553 1_555
B20 Ni67 2.172545 1_545
B20 Ni68 2.172545 1_655
B20 Ni42 2.187411 1_555
B20 Ni45 2.187411 1_555
B21 B41 1.770727 1_555
B21 B45 1.816794 1_555
B21 Ni35 2.008193 1_555
B21 Ni10 2.089553 1_555
B21 Ni13 2.089553 1_555
B21 Ni66 2.172545 1_455
B21 Ni69 2.172545 1_565
B21 Ni43 2.187411 1_555
B21 Ni44 2.187411 1_555
B22 B42 1.770727 1_555
B22 B46 1.816794 1_555
B22 Ni32 2.008193 1_554
B22 Ni9 2.089553 1_555
B22 Ni14 2.089553 1_555
B22 Ni70 2.172545 1_555
B22 Ni65 2.172545 1_555
B22 Ni40 2.187411 1_554
B22 Ni47 2.187411 1_554
B23 B43 1.770727 1_555
B23 B47 1.816794 1_555
B23 Ni33 2.008193 1_556
B23 Ni15 2.089553 1_555
B23 Ni8 2.089553 1_555
B23 Ni64 2.172545 1_555
B23 Ni71 2.172545 1_555
B23 Ni41 2.187411 1_556
B23 Ni46 2.187411 1_556
B24 B35 1.802620 1_554
B24 B29 1.802620 1_555
B24 Ni64 2.032839 1_554
B24 Ni70 2.032839 1_555
B24 Ni6 2.038550 1_555
B24 Ni0 2.038550 1_554
B24 Ni16 2.039405 1_554
B24 Ni22 2.039405 1_555
B24 Ga4 2.424758 1_665
B25 B28 1.802620 1_554
B25 B34 1.802620 1_555
B25 Ni71 2.032839 1_554
B25 Ni65 2.032839 1_555
B25 Ni7 2.038550 1_554
B25 Ni1 2.038550 1_555
B25 Ni23 2.039405 1_554
B25 Ni17 2.039405 1_555
B25 Ga4 2.424758 1_555
B26 B32 1.802620 1_555
B26 B33 1.802620 1_555
B26 Ni66 2.032839 1_555
B26 Ni67 2.032839 1_555
B26 Ni3 2.038550 1_555
B26 Ni2 2.038550 1_555
B26 Ni19 2.039405 1_555
B26 Ni18 2.039405 1_555
B26 Ga5 2.424758 1_555
B27 B31 1.802620 1_555
B27 B30 1.802620 1_555
B27 Ni68 2.032839 1_555
B27 Ni69 2.032839 1_555
B27 Ni4 2.038550 1_555
B27 Ni5 2.038550 1_555
B27 Ni20 2.039405 1_555
B27 Ni21 2.039405 1_555
B27 Ga5 2.424758 1_555
B28 B4 1.797263 1_555
B28 Ni32 2.016613 1_555
B28 Ni23 2.082288 1_555
B28 Ni1 2.087952 1_556
B28 Ni40 2.149732 1_555
B28 Ni24 2.152668 1_555
B28 Ni71 2.198573 1_555
B28 Ni65 2.206380 1_556
B29 B5 1.797263 1_555
B29 Ni33 2.016613 1_555
B29 Ni22 2.082288 1_555
B29 Ni0 2.087952 1_554
B29 Ni41 2.149732 1_555
B29 Ni25 2.152668 1_555
B29 Ni70 2.198573 1_555
B29 Ni64 2.206380 1_554
B30 B6 1.797263 1_555
B30 Ni34 2.016613 1_455
B30 Ni21 2.082288 1_555
B30 Ni4 2.087952 1_555
B30 Ni42 2.149732 1_455
B30 Ni26 2.152668 1_555
B30 Ni69 2.198573 1_555
B30 Ni68 2.206380 1_555
B31 B7 1.797263 1_555
B31 Ni35 2.016613 1_545
B31 Ni20 2.082288 1_555
B31 Ni5 2.087952 1_555
B31 Ni43 2.149732 1_545
B31 Ni27 2.152668 1_555
B31 Ni68 2.198573 1_555
B31 Ni69 2.206380 1_555
B32 B8 1.797263 1_555
B32 Ni35 2.016613 1_655
B32 Ni19 2.082288 1_555
B32 Ni2 2.087952 1_555
B32 Ni44 2.149732 1_655
B32 Ni28 2.152668 1_555
B32 Ni67 2.198573 1_555
B32 Ni66 2.206380 1_555
B33 B9 1.797263 1_555
B33 Ni34 2.016613 1_565
B33 Ni18 2.082288 1_555
B33 Ni3 2.087952 1_555
B33 Ni45 2.149732 1_565
B33 Ni29 2.152668 1_555
B33 Ni66 2.198573 1_555
B33 Ni67 2.206380 1_555
B34 Ni33 2.016613 1_555
B34 Ni17 2.082288 1_555
B34 Ni7 2.087952 1_554
B34 Ni46 2.149732 1_555
B34 Ni30 2.152668 1_555
B34 Ni65 2.198573 1_555
B34 Ni71 2.206380 1_554
B35 Ni32 2.016613 1_555
B35 Ni16 2.082288 1_555
B35 Ni6 2.087952 1_556
B35 Ni47 2.149732 1_555
B35 Ni31 2.152668 1_555
B35 Ni64 2.198573 1_555
B35 Ni70 2.206380 1_556
B36 Ni16 2.072621 1_545
B36 Ni23 2.072621 1_655
B36 Ni39 2.155818 1_645
B36 Ni48 2.191098 1_555
B36 Ni28 2.206599 1_545
B36 Ni27 2.206599 1_655
B36 Ni56 2.242139 1_545
B36 Ni63 2.242139 1_655
B37 Ni22 2.072621 1_455
B37 Ni17 2.072621 1_565
B37 Ni38 2.155818 1_465
B37 Ni49 2.191098 1_555
B37 Ni29 2.206599 1_455
B37 Ni26 2.206599 1_565
B37 Ni62 2.242139 1_455
B37 Ni57 2.242139 1_565
B38 Ni18 2.072621 1_555
B38 Ni21 2.072621 1_555
B38 Ni37 2.155818 1_555
B38 Ni50 2.191098 1_555
B38 Ni25 2.206599 1_555
B38 Ni30 2.206599 1_555
B38 Ni58 2.242139 1_555
B38 Ni61 2.242139 1_555
B39 Ni19 2.072621 1_555
B39 Ni20 2.072621 1_555
B39 Ni36 2.155818 1_555
B39 Ni51 2.191098 1_555
B39 Ni31 2.206599 1_555
B39 Ni24 2.206599 1_555
B39 Ni59 2.242139 1_555
B39 Ni60 2.242139 1_555
B40 Ni5 2.069477 1_555
B40 Ni2 2.069477 1_555
B40 Ni50 2.101137 1_555
B40 Ni11 2.208683 1_555
B40 Ni12 2.208683 1_555
B40 Ni45 2.247326 1_555
B40 Ni42 2.247326 1_555
B40 Ni36 2.260903 1_555
B41 Ni4 2.069477 1_555
B41 Ni3 2.069477 1_555
B41 Ni51 2.101137 1_555
B41 Ni10 2.208683 1_555
B41 Ni13 2.208683 1_555
B41 Ni44 2.247326 1_555
B41 Ni43 2.247326 1_555
B41 Ni37 2.260903 1_555
B42 Ni7 2.069477 1_654
B42 Ni0 2.069477 1_544
B42 Ni48 2.101137 1_554
B42 Ni14 2.208683 1_555
B42 Ni9 2.208683 1_555
B42 Ni47 2.247326 1_554
B42 Ni40 2.247326 1_554
B42 Ni38 2.260903 1_555
B43 Ni1 2.069477 1_566
B43 Ni6 2.069477 1_456
B43 Ni49 2.101137 1_556
B43 Ni8 2.208683 1_555
B43 Ni15 2.208683 1_555
B43 Ni41 2.247326 1_556
B43 Ni46 2.247326 1_556
B43 Ni39 2.260903 1_555
B44 Ni11 2.026317 1_555
B44 Ni12 2.026317 1_555
B44 Ni63 2.033976 1_655
B44 Ni56 2.033976 1_545
B44 Ni67 2.046964 1_545
B44 Ni68 2.046964 1_655
B44 Ga0 2.549963 1_555
B45 Ni13 2.026317 1_555
B45 Ni10 2.026317 1_555
B45 Ni57 2.033976 1_565
B45 Ni62 2.033976 1_455
B45 Ni66 2.046964 1_455
B45 Ni69 2.046964 1_565
B45 Ga1 2.549963 1_555
B46 Ni9 2.026317 1_555
B46 Ni14 2.026317 1_555
B46 Ni61 2.033976 1_555
B46 Ni58 2.033976 1_555
B46 Ni70 2.046964 1_555
B46 Ni65 2.046964 1_555
B46 Ga2 2.549963 1_555
B47 Ni15 2.026317 1_555
B47 Ni8 2.026317 1_555
B47 Ni60 2.033976 1_555
B47 Ni59 2.033976 1_555
B47 Ni64 2.046964 1_555
B47 Ni71 2.046964 1_555
B47 Ga3 2.549963 1_555
