# generated using pymatgen
data_W3I8
_symmetry_space_group_name_H-M   'P 1'
_cell_length_a   14.46260400
_cell_length_b   15.88836100
_cell_length_c   16.70726846
_cell_angle_alpha   75.43814399
_cell_angle_beta   90.00000000
_cell_angle_gamma   90.00000000
_symmetry_Int_Tables_number   1
_chemical_formula_structural   W3I8
_chemical_formula_sum   'W24 I64'
_cell_volume   3715.78956324
_cell_formula_units_Z   8
loop_
 _symmetry_equiv_pos_site_id
 _symmetry_equiv_pos_as_xyz
  1  'x, y, z'
loop_
 _atom_site_type_symbol
 _atom_site_label
 _atom_site_symmetry_multiplicity
 _atom_site_fract_x
 _atom_site_fract_y
 _atom_site_fract_z
 _atom_site_occupancy
  W  W0  1  0.77631600  0.63348300  0.09573300  1
  W  W1  1  0.27631600  0.36651700  0.40426700  1
  W  W2  1  0.22368400  0.36651700  0.90426700  1
  W  W3  1  0.72368400  0.63348300  0.59573300  1
  W  W4  1  0.64312500  0.53964500  0.15603400  1
  W  W5  1  0.14312500  0.46035500  0.34396600  1
  W  W6  1  0.35687500  0.46035500  0.84396600  1
  W  W7  1  0.85687500  0.53964500  0.65603400  1
  W  W8  1  0.62414200  0.69868100  0.11886100  1
  W  W9  1  0.12414200  0.30131900  0.38113900  1
  W  W10  1  0.37585800  0.30131900  0.88113900  1
  W  W11  1  0.87585800  0.69868100  0.61886100  1
  W  W12  1  0.66496500  0.20744400  0.28465100  1
  W  W13  1  0.16496500  0.79255600  0.21534900  1
  W  W14  1  0.33503500  0.79255600  0.71534900  1
  W  W15  1  0.83503500  0.20744400  0.78465100  1
  W  W16  1  0.67029200  0.04589000  0.32817400  1
  W  W17  1  0.17029200  0.95411000  0.17182600  1
  W  W18  1  0.32970800  0.95411000  0.67182600  1
  W  W19  1  0.82970800  0.04589000  0.82817400  1
  W  W20  1  0.80821100  0.13537400  0.34225100  1
  W  W21  1  0.30821100  0.86462600  0.15774900  1
  W  W22  1  0.19178900  0.86462600  0.65774900  1
  W  W23  1  0.69178900  0.13537400  0.84225100  1
  I  I0  1  0.80685000  0.50932500  0.24563800  1
  I  I1  1  0.30685000  0.49067500  0.25436200  1
  I  I2  1  0.19315000  0.49067500  0.75436200  1
  I  I3  1  0.69315000  0.50932500  0.74563800  1
  I  I4  1  0.57312200  0.61149000  0.27947900  1
  I  I5  1  0.07312200  0.38851000  0.22052100  1
  I  I6  1  0.42687800  0.38851000  0.72052100  1
  I  I7  1  0.92687800  0.61149000  0.77947900  1
  I  I8  1  0.77968900  0.76108100  0.18456700  1
  I  I9  1  0.27968900  0.23891900  0.31543300  1
  I  I10  1  0.22031100  0.23891900  0.81543300  1
  I  I11  1  0.72031100  0.76108100  0.68456700  1
  I  I12  1  0.72939000  0.50119300  0.01939700  1
  I  I13  1  0.22939000  0.49880700  0.48060300  1
  I  I14  1  0.27061000  0.49880700  0.98060300  1
  I  I15  1  0.77061000  0.50119300  0.51939700  1
  I  I16  1  0.49316800  0.60584700  0.05403500  1
  I  I17  1  0.99316800  0.39415300  0.44596500  1
  I  I18  1  0.50683200  0.39415300  0.94596500  1
  I  I19  1  0.00683200  0.60584700  0.55403500  1
  I  I20  1  0.70045900  0.75384600  0.96101900  1
  I  I21  1  0.20045900  0.24615400  0.53898100  1
  I  I22  1  0.29954100  0.24615400  0.03898100  1
  I  I23  1  0.79954100  0.75384600  0.46101900  1
  I  I24  1  0.95839900  0.64285900  0.04105400  1
  I  I25  1  0.45839900  0.35714100  0.45894600  1
  I  I26  1  0.04160100  0.35714100  0.95894600  1
  I  I27  1  0.54160100  0.64285900  0.54105400  1
  I  I28  1  0.55884800  0.36668300  0.21285800  1
  I  I29  1  0.05884800  0.63331700  0.28714200  1
  I  I30  1  0.44115200  0.63331700  0.78714200  1
  I  I31  1  0.94115200  0.36668300  0.71285800  1
  I  I32  1  0.50307700  0.85574000  0.10149100  1
  I  I33  1  0.00307700  0.14426000  0.39850900  1
  I  I34  1  0.49692300  0.14426000  0.89850900  1
  I  I35  1  0.99692300  0.85574000  0.60149100  1
  I  I36  1  0.52692800  0.12573800  0.39389900  1
  I  I37  1  0.02692800  0.87426200  0.10610100  1
  I  I38  1  0.47307200  0.87426200  0.60610100  1
  I  I39  1  0.97307200  0.12573800  0.89389900  1
  I  I40  1  0.75464600  0.00951500  0.48349200  1
  I  I41  1  0.25464600  0.99048500  0.01650800  1
  I  I42  1  0.24535400  0.99048500  0.51650800  1
  I  I43  1  0.74535400  0.00951500  0.98349200  1
  I  I44  1  0.74085700  0.26196900  0.41654100  1
  I  I45  1  0.24085700  0.73803100  0.08345900  1
  I  I46  1  0.25914300  0.73803100  0.58345900  1
  I  I47  1  0.75914300  0.26196900  0.91654100  1
  I  I48  1  0.60478900  0.12191600  0.16758400  1
  I  I49  1  0.10478900  0.87808400  0.33241600  1
  I  I50  1  0.39521100  0.87808400  0.83241600  1
  I  I51  1  0.89521100  0.12191600  0.66758400  1
  I  I52  1  0.83715000  0.00545900  0.26030500  1
  I  I53  1  0.33715000  0.99454100  0.23969500  1
  I  I54  1  0.16285000  0.99454100  0.73969500  1
  I  I55  1  0.66285000  0.00545900  0.76030500  1
  I  I56  1  0.82500100  0.25619400  0.19023900  1
  I  I57  1  0.32500100  0.74380600  0.30976100  1
  I  I58  1  0.17499900  0.74380600  0.80976100  1
  I  I59  1  0.67499900  0.25619400  0.69023900  1
  I  I60  1  0.58381300  0.88536200  0.34548700  1
  I  I61  1  0.08381300  0.11463800  0.15451300  1
  I  I62  1  0.41618700  0.11463800  0.65451300  1
  I  I63  1  0.91618700  0.88536200  0.84548700  1
loop_
_geom_bond_atom_site_label_1
_geom_bond_atom_site_label_2
_geom_bond_distance
_geom_bond_site_symmetry_2
W0 W4 2.488602 1_555
W0 W8 2.503461 1_555
W1 W5 2.488602 1_555
W1 W9 2.503461 1_555
W2 W6 2.488602 1_555
W3 W7 2.488602 1_555
W4 W8 2.461055 1_555
W5 W9 2.461055 1_555
W10 W6 2.461055 1_555
W10 W2 2.503461 1_555
W11 W7 2.461055 1_555
W11 W3 2.503461 1_555
W12 W20 2.444414 1_555
W12 W16 2.486913 1_555
W13 W21 2.444414 1_555
W13 W17 2.486913 1_555
W14 W22 2.444414 1_555
W14 W18 2.486913 1_555
W15 W23 2.444414 1_555
W15 W19 2.486913 1_555
W16 W20 2.494703 1_555
W17 W21 2.494703 1_555
W18 W22 2.494703 1_555
W19 W23 2.494703 1_555
I0 W4 2.778030 1_555
I0 W0 2.806173 1_555
I1 W5 2.778030 1_555
I1 W1 2.806173 1_555
I2 W6 2.778030 1_555
I2 W2 2.806173 1_555
I3 W7 2.778030 1_555
I3 W3 2.806173 1_555
I4 W4 2.786661 1_555
I4 W8 2.792016 1_555
I5 W5 2.786661 1_555
I5 W9 2.792016 1_555
I6 W6 2.786661 1_555
I6 W10 2.792016 1_555
I7 W7 2.786661 1_555
I7 W11 2.792016 1_555
I8 W8 2.792147 1_555
I8 W0 2.797895 1_555
I9 W9 2.792147 1_555
I9 W1 2.797895 1_555
I10 W10 2.792147 1_555
I10 W2 2.797895 1_555
I11 W11 2.792147 1_555
I11 W3 2.797895 1_555
I12 W4 2.800432 1_555
I12 W0 2.802318 1_555
I13 W5 2.800432 1_555
I13 W1 2.802318 1_555
I14 W6 2.800432 1_555
I14 W2 2.802318 1_555
I15 W7 2.800432 1_555
I15 W3 2.802318 1_555
I16 W8 2.782084 1_555
I16 W4 2.795107 1_555
I17 W9 2.782084 1_655
I17 W5 2.795107 1_655
I18 W10 2.782084 1_555
I18 W6 2.795107 1_555
I19 W11 2.782084 1_455
I19 W7 2.795107 1_455
I20 W0 2.786050 1_556
I20 W8 2.789002 1_556
I21 W1 2.786050 1_555
I21 W9 2.789002 1_555
I22 W2 2.786050 1_554
I22 W10 2.789002 1_554
I23 W3 2.786050 1_555
I23 W11 2.789002 1_555
I24 W0 2.779042 1_555
I25 W1 2.779042 1_555
I26 W2 2.779042 1_555
I27 W3 2.779042 1_555
I28 W4 2.937173 1_555
I28 W12 2.944358 1_555
I29 W5 2.937173 1_555
I29 W13 2.944358 1_555
I30 W6 2.937173 1_555
I30 W14 2.944358 1_555
I31 W7 2.937173 1_555
I31 W15 2.944358 1_555
I32 W21 2.985423 1_555
I32 W8 3.002139 1_555
I33 W20 2.985423 1_455
I33 W9 3.002139 1_555
I34 W23 2.985423 1_555
I34 W10 3.002139 1_555
I35 W22 2.985423 1_655
I35 W11 3.002139 1_555
I36 W12 2.794774 1_555
I36 W16 2.795505 1_555
I37 W13 2.794774 1_555
I37 W17 2.795505 1_555
I38 W14 2.794774 1_555
I38 W18 2.795505 1_555
I39 W15 2.794774 1_555
I39 W19 2.795505 1_555
I40 W20 2.791864 1_555
I40 W16 2.793195 1_555
I41 W21 2.791864 1_555
I41 W17 2.793195 1_555
I42 W22 2.791864 1_555
I42 W18 2.793195 1_555
I43 W23 2.791864 1_555
I43 W19 2.793195 1_555
I44 W12 2.787585 1_555
I44 W20 2.791143 1_555
I45 W13 2.787585 1_555
I45 W21 2.791143 1_555
I46 W14 2.787585 1_555
I46 W22 2.791143 1_555
I47 W15 2.787585 1_555
I47 W23 2.791143 1_555
I48 W12 2.786746 1_555
I48 W16 2.815220 1_555
I49 W13 2.786746 1_555
I49 W17 2.815220 1_555
I50 W14 2.786746 1_555
I50 W18 2.815220 1_555
I51 W15 2.786746 1_555
I51 W19 2.815220 1_555
I52 W20 2.780522 1_555
I52 W16 2.808596 1_555
I53 W21 2.780522 1_555
I53 W17 2.808596 1_555
I54 W22 2.780522 1_555
I54 W18 2.808596 1_555
I55 W23 2.780522 1_555
I55 W19 2.808596 1_555
I56 W20 2.782537 1_555
I56 W12 2.798347 1_555
I57 W21 2.782537 1_555
I57 W13 2.798347 1_555
I58 W22 2.782537 1_555
I58 W14 2.798347 1_555
I59 W23 2.782537 1_555
I59 W15 2.798347 1_555
I60 W16 2.789652 1_565
I61 W17 2.789652 1_545
I62 W18 2.789652 1_545
I63 W19 2.789652 1_565
