# generated using pymatgen
data_K2Cr2(PO4)3
_symmetry_space_group_name_H-M   'P 1'
_cell_length_a   9.91357600
_cell_length_b   9.91357600
_cell_length_c   9.91357600
_cell_angle_alpha   90.00000000
_cell_angle_beta   90.00000000
_cell_angle_gamma   90.00000000
_symmetry_Int_Tables_number   1
_chemical_formula_structural   K2Cr2(PO4)3
_chemical_formula_sum   'K8 Cr8 P12 O48'
_cell_volume   974.29622772
_cell_formula_units_Z   4
loop_
 _symmetry_equiv_pos_site_id
 _symmetry_equiv_pos_as_xyz
  1  'x, y, z'
loop_
 _atom_site_type_symbol
 _atom_site_label
 _atom_site_symmetry_multiplicity
 _atom_site_fract_x
 _atom_site_fract_y
 _atom_site_fract_z
 _atom_site_occupancy
  K  K0  1  0.81757800  0.81757800  0.81757800  1
  K  K1  1  0.68242200  0.18242200  0.31757800  1
  K  K2  1  0.18242200  0.31757800  0.68242200  1
  K  K3  1  0.31757800  0.68242200  0.18242200  1
  K  K4  1  0.04555600  0.04555600  0.04555600  1
  K  K5  1  0.45444400  0.95444400  0.54555600  1
  K  K6  1  0.95444400  0.54555600  0.45444400  1
  K  K7  1  0.54555600  0.45444400  0.95444400  1
  Cr  Cr0  1  0.33656600  0.33656600  0.33656600  1
  Cr  Cr1  1  0.16343400  0.66343400  0.83656600  1
  Cr  Cr2  1  0.66343400  0.83656600  0.16343400  1
  Cr  Cr3  1  0.83656600  0.16343400  0.66343400  1
  Cr  Cr4  1  0.60366900  0.60366900  0.60366900  1
  Cr  Cr5  1  0.89633100  0.39633100  0.10366900  1
  Cr  Cr6  1  0.39633100  0.10366900  0.89633100  1
  Cr  Cr7  1  0.10366900  0.89633100  0.39633100  1
  P  P0  1  0.02329800  0.20916300  0.37700800  1
  P  P1  1  0.47670200  0.79083700  0.87700800  1
  P  P2  1  0.97670200  0.70916300  0.12299200  1
  P  P3  1  0.37700800  0.02329800  0.20916300  1
  P  P4  1  0.52329800  0.29083700  0.62299200  1
  P  P5  1  0.87700800  0.47670200  0.79083700  1
  P  P6  1  0.12299200  0.97670200  0.70916300  1
  P  P7  1  0.62299200  0.52329800  0.29083700  1
  P  P8  1  0.20916300  0.37700800  0.02329800  1
  P  P9  1  0.70916300  0.12299200  0.97670200  1
  P  P10  1  0.29083700  0.62299200  0.52329800  1
  P  P11  1  0.79083700  0.87700800  0.47670200  1
  O  O0  1  0.01073600  0.06096900  0.32887000  1
  O  O1  1  0.48926400  0.93903100  0.82887000  1
  O  O2  1  0.98926400  0.56096900  0.17113000  1
  O  O3  1  0.32887000  0.01073600  0.06096900  1
  O  O4  1  0.51073600  0.43903100  0.67113000  1
  O  O5  1  0.82887000  0.48926400  0.93903100  1
  O  O6  1  0.17113000  0.98926400  0.56096900  1
  O  O7  1  0.67113000  0.51073600  0.43903100  1
  O  O8  1  0.06096900  0.32887000  0.01073600  1
  O  O9  1  0.56096900  0.17113000  0.98926400  1
  O  O10  1  0.43903100  0.67113000  0.51073600  1
  O  O11  1  0.93903100  0.82887000  0.48926400  1
  O  O12  1  0.17263500  0.24472300  0.40104200  1
  O  O13  1  0.32736500  0.75527700  0.90104200  1
  O  O14  1  0.82736500  0.74472300  0.09895800  1
  O  O15  1  0.40104200  0.17263500  0.24472300  1
  O  O16  1  0.67263500  0.25527700  0.59895800  1
  O  O17  1  0.90104200  0.32736500  0.75527700  1
  O  O18  1  0.09895800  0.82736500  0.74472300  1
  O  O19  1  0.59895800  0.67263500  0.25527700  1
  O  O20  1  0.24472300  0.40104200  0.17263500  1
  O  O21  1  0.74472300  0.09895800  0.82736500  1
  O  O22  1  0.25527700  0.59895800  0.67263500  1
  O  O23  1  0.75527700  0.90104200  0.32736500  1
  O  O24  1  0.04526600  0.80175400  0.22678600  1
  O  O25  1  0.45473400  0.19824600  0.72678600  1
  O  O26  1  0.95473400  0.30175400  0.27321400  1
  O  O27  1  0.22678600  0.04526600  0.80175400  1
  O  O28  1  0.54526600  0.69824600  0.77321400  1
  O  O29  1  0.72678600  0.45473400  0.19824600  1
  O  O30  1  0.27321400  0.95473400  0.30175400  1
  O  O31  1  0.77321400  0.54526600  0.69824600  1
  O  O32  1  0.80175400  0.22678600  0.04526600  1
  O  O33  1  0.30175400  0.27321400  0.95473400  1
  O  O34  1  0.69824600  0.77321400  0.54526600  1
  O  O35  1  0.19824600  0.72678600  0.45473400  1
  O  O36  1  0.26521400  0.48839300  0.44791100  1
  O  O37  1  0.23478600  0.51160700  0.94791100  1
  O  O38  1  0.73478600  0.98839300  0.05208900  1
  O  O39  1  0.44791100  0.26521400  0.48839300  1
  O  O40  1  0.76521400  0.01160700  0.55208900  1
  O  O41  1  0.94791100  0.23478600  0.51160700  1
  O  O42  1  0.05208900  0.73478600  0.98839300  1
  O  O43  1  0.55208900  0.76521400  0.01160700  1
  O  O44  1  0.48839300  0.44791100  0.26521400  1
  O  O45  1  0.98839300  0.05208900  0.73478600  1
  O  O46  1  0.01160700  0.55208900  0.76521400  1
  O  O47  1  0.51160700  0.94791100  0.23478600  1
loop_
_geom_bond_atom_site_label_1
_geom_bond_atom_site_label_2
_geom_bond_distance
_geom_bond_site_symmetry_2
K0 O14 2.883101 1_556
K0 O18 2.883101 1_655
K0 O21 2.883101 1_565
K0 O34 2.980050 1_555
K0 O31 2.980050 1_555
K0 O28 2.980050 1_555
K0 O42 2.991005 1_655
K0 O38 2.991005 1_556
K0 O45 2.991005 1_565
K1 O15 2.883101 1_555
K1 O23 2.883101 1_545
K1 O16 2.883101 1_555
K1 O29 2.980050 1_555
K1 O32 2.980050 1_555
K1 O26 2.980050 1_555
K1 O40 2.991005 1_555
K1 O39 2.991005 1_555
K1 O47 2.991005 1_545
K2 O12 2.883101 1_555
K2 O17 2.883101 1_455
K2 O22 2.883101 1_555
K2 O25 2.980050 1_555
K2 O27 2.980050 1_555
K2 O33 2.980050 1_555
K2 O36 2.991005 1_555
K2 O46 2.991005 1_555
K2 O41 2.991005 1_455
K3 O20 2.883101 1_555
K3 O13 2.883101 1_554
K3 O19 2.883101 1_555
K3 O35 2.980050 1_555
K3 O24 2.980050 1_555
K3 O30 2.980050 1_555
K3 O43 2.991005 1_555
K3 O44 2.991005 1_555
K3 O37 2.991005 1_554
K4 O8 2.833910 1_555
K4 O3 2.833910 1_555
K4 O0 2.833910 1_555
K4 O24 3.011571 1_545
K4 O27 3.011571 1_554
K4 O32 3.011571 1_455
K4 O42 3.133196 1_544
K4 O45 3.133196 1_454
K4 O38 3.133196 1_445
K5 O6 2.833910 1_555
K5 O10 2.833910 1_555
K5 O1 2.833910 1_555
K5 O25 3.011571 1_565
K5 O30 3.011571 1_555
K5 O34 3.011571 1_555
K5 O47 3.133196 1_555
K5 O39 3.133196 1_565
K5 O40 3.133196 1_565
K6 O2 2.833910 1_555
K6 O7 2.833910 1_555
K6 O11 2.833910 1_555
K6 O35 3.011571 1_655
K6 O26 3.011571 1_555
K6 O31 3.011571 1_555
K6 O41 3.133196 1_555
K6 O36 3.133196 1_655
K6 O46 3.133196 1_655
K7 O9 2.833910 1_555
K7 O4 2.833910 1_555
K7 O5 2.833910 1_555
K7 O29 3.011571 1_556
K7 O33 3.011571 1_555
K7 O28 3.011571 1_555
K7 O37 3.133196 1_555
K7 O44 3.133196 1_556
K7 O43 3.133196 1_556
Cr0 O15 1.969428 1_555
Cr0 O12 1.969428 1_555
Cr0 O20 1.969428 1_555
Cr0 O39 1.996060 1_555
Cr0 O36 1.996060 1_555
Cr0 O44 1.996060 1_555
Cr1 O22 1.969428 1_555
Cr1 O13 1.969428 1_555
Cr1 O18 1.969428 1_555
Cr1 O46 1.996060 1_555
Cr1 O42 1.996060 1_555
Cr1 O37 1.996060 1_555
Cr2 O19 1.969428 1_555
Cr2 O23 1.969428 1_555
Cr2 O14 1.969428 1_555
Cr2 O43 1.996060 1_555
Cr2 O38 1.996060 1_555
Cr2 O47 1.996060 1_555
Cr3 O16 1.969428 1_555
Cr3 O17 1.969428 1_555
Cr3 O21 1.969428 1_555
Cr3 O40 1.996060 1_555
Cr3 O45 1.996060 1_555
Cr3 O41 1.996060 1_555
Cr4 O7 1.989969 1_555
Cr4 O4 1.989969 1_555
Cr4 O10 1.989969 1_555
Cr4 O34 2.009823 1_555
Cr4 O28 2.009823 1_555
Cr4 O31 2.009823 1_555
Cr5 O2 1.989969 1_555
Cr5 O8 1.989969 1_655
Cr5 O5 1.989969 1_554
Cr5 O32 2.009823 1_555
Cr5 O29 2.009823 1_555
Cr5 O26 2.009823 1_555
Cr6 O9 1.989969 1_555
Cr6 O3 1.989969 1_556
Cr6 O1 1.989969 1_545
Cr6 O27 2.009823 1_555
Cr6 O25 2.009823 1_555
Cr6 O33 2.009823 1_555
Cr7 O6 1.989969 1_555
Cr7 O0 1.989969 1_565
Cr7 O11 1.989969 1_455
Cr7 O24 2.009823 1_555
Cr7 O35 2.009823 1_555
Cr7 O30 2.009823 1_555
O0 P0 1.549709 1_555
O1 P1 1.549709 1_555
O2 P2 1.549709 1_555
O3 P3 1.549709 1_555
O4 P4 1.549709 1_555
O5 P5 1.549709 1_555
O6 P6 1.549709 1_555
O7 P7 1.549709 1_555
O8 P8 1.549709 1_555
O9 P9 1.549709 1_555
O10 P10 1.549709 1_555
O11 P11 1.549709 1_555
O12 P0 1.540395 1_555
O13 P1 1.540395 1_555
O14 P2 1.540395 1_555
O15 P3 1.540395 1_555
O16 P4 1.540395 1_555
O17 P5 1.540395 1_555
O18 P6 1.540395 1_555
O19 P7 1.540395 1_555
O20 P8 1.540395 1_555
O21 P9 1.540395 1_555
O22 P10 1.540395 1_555
O23 P11 1.540395 1_555
O24 P2 1.537318 1_455
O25 P4 1.537318 1_555
O26 P0 1.537318 1_655
O27 P6 1.537318 1_545
O28 P1 1.537318 1_555
O29 P7 1.537318 1_555
O30 P3 1.537318 1_565
O31 P5 1.537318 1_555
O32 P9 1.537318 1_554
O33 P8 1.537318 1_556
O34 P11 1.537318 1_555
O35 P10 1.537318 1_555
O36 P10 1.550346 1_555
O37 P8 1.550346 1_556
O38 P9 1.550346 1_564
O39 P4 1.550346 1_555
O40 P11 1.550346 1_545
O41 P0 1.550346 1_655
O42 P2 1.550346 1_456
O43 P1 1.550346 1_554
O44 P7 1.550346 1_555
O45 P6 1.550346 1_645
O46 P5 1.550346 1_455
O47 P3 1.550346 1_565
