# generated using pymatgen
data_Na7UH4S4ClO20
_symmetry_space_group_name_H-M   'P 1'
_cell_length_a   5.44524765
_cell_length_b   11.07959593
_cell_length_c   34.16031693
_cell_angle_alpha   85.89903866
_cell_angle_beta   85.42992572
_cell_angle_gamma   75.76838810
_symmetry_Int_Tables_number   1
_chemical_formula_structural   Na7UH4S4ClO20
_chemical_formula_sum   'Na28 U4 H16 S16 Cl4 O80'
_cell_volume   1988.45172525
_cell_formula_units_Z   4
loop_
 _symmetry_equiv_pos_site_id
 _symmetry_equiv_pos_as_xyz
  1  'x, y, z'
loop_
 _atom_site_type_symbol
 _atom_site_label
 _atom_site_symmetry_multiplicity
 _atom_site_fract_x
 _atom_site_fract_y
 _atom_site_fract_z
 _atom_site_occupancy
  Na  Na0  1  0.00000000  -0.00000000  0.00000000  1
  Na  Na1  1  0.00000000  0.50000000  0.50000000  1
  Na  Na2  1  0.86891730  0.75000378  0.25000047  1
  Na  Na3  1  0.13108270  0.24999622  0.74999953  1
  Na  Na4  1  0.62829138  0.32792973  0.16099452  1
  Na  Na5  1  0.11722883  0.17206853  0.33901106  1
  Na  Na6  1  0.37170862  0.67207027  0.83900548  1
  Na  Na7  1  0.88277117  0.82793147  0.66098894  1
  Na  Na8  1  0.09604242  0.38166097  0.25551904  1
  Na  Na9  1  0.73320558  0.11834862  0.24448722  1
  Na  Na10  1  0.90395758  0.61833903  0.74448096  1
  Na  Na11  1  0.26679442  0.88165138  0.75551278  1
  Na  Na12  1  0.60939238  0.75326659  0.00434006  1
  Na  Na13  1  0.36691836  0.74675431  0.49565390  1
  Na  Na14  1  0.39060762  0.24673341  0.99565994  1
  Na  Na15  1  0.63308164  0.25324569  0.50434610  1
  Na  Na16  1  0.04898934  0.30691421  0.08085737  1
  Na  Na17  1  0.43687034  0.19306016  0.41912533  1
  Na  Na18  1  0.95101066  0.69308579  0.91914263  1
  Na  Na19  1  0.56312966  0.80693984  0.58087467  1
  Na  Na20  1  0.98808207  0.78951298  0.07830291  1
  Na  Na21  1  0.85587530  0.71050671  0.42167917  1
  Na  Na22  1  0.01191793  0.21048702  0.92169709  1
  Na  Na23  1  0.14412470  0.28949329  0.57832083  1
  Na  Na24  1  0.03461401  0.53797522  0.15780256  1
  Na  Na25  1  0.73038215  0.96203489  0.34220274  1
  Na  Na26  1  0.96538599  0.46202478  0.84219744  1
  Na  Na27  1  0.26961785  0.03796511  0.65779726  1
  U  U0  1  0.36954520  0.87200545  0.16674134  1
  U  U1  1  0.40853279  0.62799716  0.33324857  1
  U  U2  1  0.63045480  0.12799455  0.83325866  1
  U  U3  1  0.59146721  0.37200284  0.66675143  1
  H  H0  1  0.87415165  0.11071868  0.12020879  1
  H  H1  1  0.10506199  0.38928231  0.37979155  1
  H  H2  1  0.12584835  0.88928132  0.87979121  1
  H  H3  1  0.89493801  0.61071769  0.62020845  1
  H  H4  1  0.19139426  0.51152488  0.03061337  1
  H  H5  1  0.73349820  0.98850213  0.46938646  1
  H  H6  1  0.80860574  0.48847512  0.96938663  1
  H  H7  1  0.26650180  0.01149787  0.53061354  1
  H  H8  1  0.44548611  0.43188562  0.04527046  1
  H  H9  1  0.92265738  0.06810582  0.45473316  1
  H  H10  1  0.55451389  0.56811438  0.95472954  1
  H  H11  1  0.07734262  0.93189418  0.54526684  1
  H  H12  1  0.64691074  0.16834921  0.09364959  1
  H  H13  1  0.90891814  0.33164681  0.40635307  1
  H  H14  1  0.35308926  0.83165079  0.90635041  1
  H  H15  1  0.09108186  0.66835319  0.59364693  1
  S  S0  1  0.42966227  0.57343849  0.22524972  1
  S  S1  1  0.22834416  0.92657242  0.27471904  1
  S  S2  1  0.57033773  0.42656151  0.77475028  1
  S  S3  1  0.77165584  0.07342758  0.72528096  1
  S  S4  1  0.19698032  0.20824675  0.18004288  1
  S  S5  1  0.58532041  0.29173590  0.31993756  1
  S  S6  1  0.80301968  0.79175325  0.81995712  1
  S  S7  1  0.41467959  0.70826410  0.68006244  1
  S  S8  1  0.57631791  0.60923000  0.10563363  1
  S  S9  1  0.29116223  0.89080456  0.39435559  1
  S  S10  1  0.42368209  0.39077000  0.89436637  1
  S  S11  1  0.70883777  0.10919544  0.60564441  1
  S  S12  1  0.45229311  0.99075888  0.06536990  1
  S  S13  1  0.50844796  0.50922555  0.43463306  1
  S  S14  1  0.54770689  0.00924112  0.93463010  1
  S  S15  1  0.49155204  0.49077445  0.56536694  1
  Cl  Cl0  1  0.13561401  0.71722742  0.99609886  1
  Cl  Cl1  1  0.84898760  0.78279165  0.50390212  1
  Cl  Cl2  1  0.86438599  0.28277258  0.00390114  1
  Cl  Cl3  1  0.15101240  0.21720835  0.49609788  1
  O  O0  1  0.70345171  0.56896585  0.22315376  1
  O  O1  1  0.49556587  0.93102208  0.27684696  1
  O  O2  1  0.29654829  0.43103415  0.77684624  1
  O  O3  1  0.50443413  0.06897792  0.72315304  1
  O  O4  1  0.28186145  0.69582240  0.20710839  1
  O  O5  1  0.18475289  0.80416279  0.29289706  1
  O  O6  1  0.71813855  0.30417760  0.79289161  1
  O  O7  1  0.81524711  0.19583721  0.70710294  1
  O  O8  1  0.37169251  0.47207106  0.20422563  1
  O  O9  1  0.04796039  0.02795200  0.29577497  1
  O  O10  1  0.62830749  0.52792894  0.79577437  1
  O  O11  1  0.95203961  0.97204800  0.70422503  1
  O  O12  1  0.31967798  0.56405746  0.26686967  1
  O  O13  1  0.15064222  0.93593524  0.23314441  1
  O  O14  1  0.68032202  0.43594254  0.73313033  1
  O  O15  1  0.84935778  0.06406476  0.76685559  1
  O  O16  1  0.43249621  0.18763456  0.20065813  1
  O  O17  1  0.82073499  0.31235115  0.29934842  1
  O  O18  1  0.56750379  0.81236544  0.79934187  1
  O  O19  1  0.17926501  0.68764885  0.70065158  1
  O  O20  1  0.19504163  0.30358991  0.14696246  1
  O  O21  1  0.64562293  0.19638892  0.35304172  1
  O  O22  1  0.80495837  0.69641009  0.85303754  1
  O  O23  1  0.35437707  0.80361108  0.64695828  1
  O  O24  1  0.96983778  0.25089393  0.20750008  1
  O  O25  1  0.42826296  0.24911278  0.29250531  1
  O  O26  1  0.03016222  0.74910607  0.79249992  1
  O  O27  1  0.57173704  0.75088722  0.70749469  1
  O  O28  1  0.17811310  0.08822849  0.16335834  1
  O  O29  1  0.42962444  0.41178635  0.33665155  1
  O  O30  1  0.82188690  0.91177151  0.83664166  1
  O  O31  1  0.57037556  0.58821365  0.66334845  1
  O  O32  1  0.73047170  0.48191119  0.11630361  1
  O  O33  1  0.32867000  0.01806926  0.38369728  1
  O  O34  1  0.26952830  0.51808881  0.88369639  1
  O  O35  1  0.67133000  0.98193074  0.61630272  1
  O  O36  1  0.66730772  0.65559142  0.06713890  1
  O  O37  1  0.39007515  0.84438665  0.43286349  1
  O  O38  1  0.33269228  0.34440858  0.93286110  1
  O  O39  1  0.60992485  0.15561335  0.56713651  1
  O  O40  1  0.30269101  0.61243446  0.10750068  1
  O  O41  1  0.02264145  0.88757623  0.39249615  1
  O  O42  1  0.69730899  0.38756554  0.89249932  1
  O  O43  1  0.97735855  0.11242377  0.60750385  1
  O  O44  1  0.62692309  0.69272053  0.13679482  1
  O  O45  1  0.45650035  0.80727332  0.36320428  1
  O  O46  1  0.37307691  0.30727947  0.86320518  1
  O  O47  1  0.54349965  0.19272668  0.63679572  1
  O  O48  1  0.22456612  0.94947890  0.05733132  1
  O  O49  1  0.23133745  0.55052873  0.44266534  1
  O  O50  1  0.77543388  0.05052110  0.94266868  1
  O  O51  1  0.76866255  0.44947127  0.55733466  1
  O  O52  1  0.67081786  0.93376885  0.03830208  1
  O  O53  1  0.64288425  0.56620288  0.46170090  1
  O  O54  1  0.32918214  0.06623115  0.96169792  1
  O  O55  1  0.35711575  0.43379712  0.53829910  1
  O  O56  1  0.40592333  0.12903887  0.06261512  1
  O  O57  1  0.59758741  0.37097937  0.43738208  1
  O  O58  1  0.59407667  0.87096113  0.93738488  1
  O  O59  1  0.40241259  0.62902063  0.56261792  1
  O  O60  1  0.53084945  0.94587687  0.10690075  1
  O  O61  1  0.58364731  0.55411893  0.39309883  1
  O  O62  1  0.46915055  0.05412313  0.89309925  1
  O  O63  1  0.41635269  0.44588107  0.60690117  1
  O  O64  1  0.09698544  0.86302700  0.14125362  1
  O  O65  1  0.10119430  0.63699677  0.35874176  1
  O  O66  1  0.90301456  0.13697300  0.85874638  1
  O  O67  1  0.89880570  0.36300323  0.64125824  1
  O  O68  1  0.64808571  0.87346976  0.19255542  1
  O  O69  1  0.71408680  0.62650893  0.30745754  1
  O  O70  1  0.35191429  0.12653024  0.80744458  1
  O  O71  1  0.28591320  0.37349107  0.69254246  1
  O  O72  1  0.77249346  0.18963494  0.10953917  1
  O  O73  1  0.07169289  0.31037947  0.39045767  1
  O  O74  1  0.22750654  0.81036506  0.89046083  1
  O  O75  1  0.92830711  0.68962053  0.60954233  1
  O  O76  1  0.27619058  0.42615517  0.03956691  1
  O  O77  1  0.74192342  0.07385501  0.46042621  1
  O  O78  1  0.72380942  0.57384483  0.96043309  1
  O  O79  1  0.25807658  0.92614499  0.53957379  1
loop_
_geom_bond_atom_site_label_1
_geom_bond_atom_site_label_2
_geom_bond_distance
_geom_bond_site_symmetry_2
Na0 O50 2.352116 1_454
Na0 O48 2.352116 1_545
Na0 O52 2.366236 1_445
Na0 O54 2.366236 1_554
Na1 O51 2.352231 1_455
Na1 O49 2.352231 1_555
Na1 O55 2.365999 1_555
Na1 O53 2.365999 1_455
Na2 O68 2.520186 1_555
Na2 O69 2.520863 1_555
Na2 O5 2.549481 1_655
Na2 O4 2.549591 1_655
Na2 O1 2.637754 1_555
Na2 O0 2.638102 1_555
Na2 O12 2.858386 1_655
Na2 O13 2.858689 1_655
Na3 O70 2.520186 1_555
Na3 O71 2.520863 1_555
Na3 O7 2.549481 1_455
Na3 O6 2.549591 1_455
Na3 O3 2.637754 1_555
Na3 O2 2.638102 1_555
Na3 O14 2.858386 1_455
Na3 O15 2.858689 1_455
Na4 O32 2.347277 1_555
Na4 O8 2.365383 1_555
Na4 O72 2.372273 1_555
Na4 O16 2.381618 1_555
Na4 O24 2.491499 1_555
Na4 O20 2.525786 1_555
Na5 O33 2.347066 1_555
Na5 O9 2.365482 1_555
Na5 O73 2.372197 1_555
Na5 O17 2.381517 1_455
Na5 O25 2.491801 1_555
Na5 O21 2.525689 1_455
Na6 O34 2.347277 1_555
Na6 O10 2.365383 1_555
Na6 O74 2.372273 1_555
Na6 O18 2.381618 1_555
Na6 O26 2.491499 1_555
Na6 O22 2.525786 1_555
Na7 O35 2.347066 1_555
Na7 O11 2.365482 1_555
Na7 O75 2.372197 1_555
Na7 O19 2.381517 1_655
Na7 O27 2.491801 1_555
Na7 O23 2.525689 1_655
Na8 O17 2.263327 1_455
Na8 O25 2.412098 1_555
Na8 O24 2.504248 1_455
Na8 O8 2.528969 1_555
Na8 O12 2.667308 1_555
Na8 O0 2.822453 1_455
Na9 O16 2.262830 1_555
Na9 O24 2.412239 1_555
Na9 O25 2.503979 1_555
Na9 O9 2.528572 1_655
Na9 O13 2.667293 1_645
Na9 O1 2.822861 1_545
Na10 O19 2.263327 1_655
Na10 O27 2.412098 1_555
Na10 O26 2.504248 1_655
Na10 O10 2.528969 1_555
Na10 O14 2.667308 1_555
Na10 O2 2.822453 1_655
Na11 O18 2.262830 1_555
Na11 O26 2.412239 1_555
Na11 O27 2.503979 1_555
Na11 O11 2.528572 1_455
Na11 O15 2.667293 1_465
Na11 O3 2.822861 1_565
Na12 O36 2.341062 1_555
Na12 O52 2.485958 1_555
Na12 O78 2.501639 1_554
Na12 O58 2.547363 1_554
Na13 O37 2.340707 1_555
Na13 O53 2.486198 1_555
Na13 O79 2.501657 1_555
Na13 O59 2.547811 1_555
Na14 O38 2.341062 1_555
Na14 O54 2.485958 1_555
Na14 O76 2.501639 1_556
Na14 O56 2.547363 1_556
Na15 O39 2.340707 1_555
Na15 O55 2.486198 1_555
Na15 O77 2.501657 1_555
Na15 O57 2.547811 1_555
Na16 O72 2.336658 1_455
Na16 O76 2.350432 1_555
Na16 O20 2.448075 1_555
Na16 O56 2.479755 1_555
Na16 O32 2.565409 1_455
Na17 O73 2.336680 1_555
Na17 O77 2.349965 1_555
Na17 O21 2.447300 1_555
Na17 O57 2.480279 1_555
Na17 O33 2.565491 1_555
Na18 O74 2.336658 1_655
Na18 O78 2.350432 1_555
Na18 O22 2.448075 1_555
Na18 O58 2.479755 1_555
Na18 O34 2.565409 1_655
Na19 O75 2.336680 1_555
Na19 O79 2.349965 1_555
Na19 O23 2.447300 1_555
Na19 O59 2.480279 1_555
Na19 O35 2.565491 1_555
Na20 O48 2.471080 1_655
Na20 O52 2.472333 1_555
Na20 O40 2.473601 1_655
Na20 O64 2.516065 1_655
Na20 O36 2.619054 1_555
Na20 O60 2.808598 1_555
Na21 O49 2.470955 1_655
Na21 O53 2.473235 1_555
Na21 O41 2.473717 1_655
Na21 O65 2.515541 1_655
Na21 O37 2.618457 1_555
Na21 O61 2.808614 1_555
Na21 O45 3.018013 1_555
Na22 O50 2.471080 1_455
Na22 O54 2.472333 1_555
Na22 O42 2.473601 1_455
Na22 O66 2.516065 1_455
Na22 O38 2.619054 1_555
Na22 O62 2.808598 1_555
Na23 O51 2.470955 1_455
Na23 O55 2.473235 1_555
Na23 O43 2.473717 1_455
Na23 O67 2.515541 1_455
Na23 O39 2.618457 1_555
Na23 O63 2.808614 1_555
Na23 O47 3.018013 1_555
Na24 O40 2.398696 1_555
Na24 O8 2.460944 1_555
Na24 O32 2.478738 1_455
Na24 O44 2.566965 1_455
Na24 O20 2.571902 1_555
Na24 O0 2.741719 1_455
Na25 O41 2.398401 1_655
Na25 O9 2.461188 1_665
Na25 O33 2.478610 1_565
Na25 O45 2.567081 1_555
Na25 O21 2.571617 1_565
Na25 O1 2.741898 1_555
Na26 O42 2.398696 1_555
Na26 O10 2.460944 1_555
Na26 O34 2.478738 1_655
Na26 O46 2.566965 1_655
Na26 O22 2.571902 1_555
Na26 O2 2.741719 1_655
Na27 O43 2.398401 1_455
Na27 O11 2.461188 1_445
Na27 O35 2.478610 1_545
Na27 O47 2.567081 1_555
Na27 O23 2.571617 1_545
Na27 O3 2.741898 1_555
H0 O72 0.975892 1_555
H1 O73 0.975711 1_555
H2 O74 0.975892 1_555
H3 O75 0.975711 1_555
H4 O76 0.983765 1_555
H5 O77 0.983762 1_565
H6 O78 0.983765 1_555
H7 O79 0.983762 1_545
H8 O76 0.975182 1_555
H9 O77 0.975121 1_555
H10 O78 0.975182 1_555
H11 O79 0.975121 1_555
H12 O72 0.987228 1_555
H13 O73 0.987366 1_655
H14 O74 0.987228 1_555
H15 O75 0.987366 1_455
Cl0 Na12 2.744556 1_556
Cl0 Na12 2.788228 1_456
Cl0 Na18 2.940531 1_455
Cl0 Na20 2.969537 1_456
Cl0 Na0 3.047176 1_566
Cl1 Na13 2.743807 1_655
Cl1 Na13 2.789024 1_555
Cl1 Na19 2.941410 1_555
Cl1 Na21 2.970212 1_555
Cl1 Na1 3.047370 1_655
Cl2 Na14 2.744556 1_554
Cl2 Na14 2.788228 1_654
Cl2 Na16 2.940531 1_655
Cl2 Na22 2.969537 1_654
Cl2 Na0 3.047176 1_655
Cl3 Na15 2.743807 1_455
Cl3 Na15 2.789024 1_555
Cl3 Na17 2.941410 1_555
Cl3 Na23 2.970212 1_555
Cl3 Na1 3.047370 1_555
O0 S0 1.475599 1_555
O1 S1 1.475682 1_555
O2 S2 1.475599 1_555
O3 S3 1.475682 1_555
O4 S0 1.514307 1_555
O4 U0 2.430692 1_555
O5 S1 1.515155 1_555
O5 U1 2.430638 1_555
O6 S2 1.514307 1_555
O6 U2 2.430692 1_555
O7 S3 1.515155 1_555
O7 U3 2.430638 1_555
O8 S0 1.484123 1_555
O9 S1 1.484696 1_545
O10 S2 1.484123 1_555
O11 S3 1.484696 1_565
O12 S0 1.504869 1_555
O12 U1 2.539833 1_555
O13 S1 1.503283 1_555
O13 U0 2.540028 1_555
O14 S2 1.504869 1_555
O14 U3 2.539833 1_555
O15 S3 1.503283 1_555
O15 U2 2.540028 1_555
O16 S4 1.472976 1_555
O17 S5 1.472209 1_555
O18 S6 1.472976 1_555
O19 S7 1.472209 1_555
O20 S4 1.489524 1_555
O21 S5 1.490095 1_555
O22 S6 1.489524 1_555
O23 S7 1.490095 1_555
O24 S4 1.491298 1_655
O25 S5 1.490686 1_555
O26 S6 1.491298 1_455
O27 S7 1.490686 1_555
O28 S4 1.512794 1_555
O28 U0 2.364508 1_545
O29 S5 1.513598 1_555
O29 U1 2.364801 1_555
O30 S6 1.512794 1_555
O30 U2 2.364508 1_565
O31 S7 1.513598 1_555
O31 U3 2.364801 1_555
O32 S8 1.490092 1_555
O33 S9 1.489568 1_545
O34 S10 1.490092 1_555
O35 S11 1.489568 1_565
O36 S8 1.470795 1_555
O37 S9 1.471369 1_555
O38 S10 1.470795 1_555
O39 S11 1.471369 1_555
O40 S8 1.478005 1_555
O41 S9 1.477861 1_555
O42 S10 1.478005 1_555
O43 S11 1.477861 1_555
O44 S8 1.541965 1_555
O44 U0 2.376936 1_555
O45 S9 1.542072 1_555
O45 U1 2.376800 1_555
O46 S10 1.541965 1_555
O46 U2 2.376936 1_555
O47 S11 1.542072 1_555
O47 U3 2.376800 1_555
O48 S12 1.474227 1_555
O49 S13 1.474467 1_555
O50 S14 1.474227 1_555
O51 S15 1.474467 1_555
O52 S12 1.486045 1_555
O53 S13 1.485916 1_555
O54 S14 1.486045 1_555
O55 S15 1.485916 1_555
O56 S12 1.487568 1_545
O57 S13 1.487177 1_555
O58 S14 1.487568 1_565
O59 S15 1.487177 1_555
O60 S12 1.527810 1_555
O60 U0 2.334109 1_555
O61 S13 1.527992 1_555
O61 U1 2.333836 1_555
O62 S14 1.527810 1_555
O62 U2 2.334109 1_555
O63 S15 1.527992 1_555
O63 U3 2.333836 1_555
O64 U0 1.805984 1_555
O65 U1 1.807532 1_555
O66 U2 1.805984 1_555
O67 U3 1.807532 1_555
O68 U0 1.818128 1_555
O69 U1 1.816526 1_555
O70 U2 1.818128 1_555
O71 U3 1.816526 1_555
