# generated using pymatgen
data_V4Os
_symmetry_space_group_name_H-M   'P 1'
_cell_length_a   21.05872053
_cell_length_b   20.81649606
_cell_length_c   5.33032619
_cell_angle_alpha   85.27782657
_cell_angle_beta   80.11099788
_cell_angle_gamma   14.61117555
_symmetry_Int_Tables_number   1
_chemical_formula_structural   V4Os
_chemical_formula_sum   'V32 Os8'
_cell_volume   546.61844376
_cell_formula_units_Z   8
loop_
 _symmetry_equiv_pos_site_id
 _symmetry_equiv_pos_as_xyz
  1  'x, y, z'
loop_
 _atom_site_type_symbol
 _atom_site_label
 _atom_site_symmetry_multiplicity
 _atom_site_fract_x
 _atom_site_fract_y
 _atom_site_fract_z
 _atom_site_occupancy
  V  V0_0  1  0.19924300  0.19924300  0.30075700  1
  V  V0_1  1  0.19924300  0.19924300  0.80075700  1
  V  V0_2  1  0.19924300  0.69924300  0.30075700  1
  V  V0_3  1  0.19924300  0.69924300  0.80075700  1
  V  V0_4  1  0.69924300  0.19924300  0.30075700  1
  V  V0_5  1  0.69924300  0.19924300  0.80075700  1
  V  V0_6  1  0.69924300  0.69924300  0.30075700  1
  V  V0_7  1  0.69924300  0.69924300  0.80075700  1
  V  V1_0  1  0.39972250  0.39972250  0.10027750  1
  V  V1_1  1  0.39972250  0.39972250  0.60027750  1
  V  V1_2  1  0.39972250  0.89972250  0.10027750  1
  V  V1_3  1  0.39972250  0.89972250  0.60027750  1
  V  V1_4  1  0.89972250  0.39972250  0.10027750  1
  V  V1_5  1  0.89972250  0.39972250  0.60027750  1
  V  V1_6  1  0.89972250  0.89972250  0.10027750  1
  V  V1_7  1  0.89972250  0.89972250  0.60027750  1
  V  V2_0  1  0.10027750  0.10027750  0.39972250  1
  V  V2_1  1  0.10027750  0.10027750  0.89972250  1
  V  V2_2  1  0.10027750  0.60027750  0.39972250  1
  V  V2_3  1  0.10027750  0.60027750  0.89972250  1
  V  V2_4  1  0.60027750  0.10027750  0.39972250  1
  V  V2_5  1  0.60027750  0.10027750  0.89972250  1
  V  V2_6  1  0.60027750  0.60027750  0.39972250  1
  V  V2_7  1  0.60027750  0.60027750  0.89972250  1
  V  V3_0  1  0.30075700  0.30075700  0.19924300  1
  V  V3_1  1  0.30075700  0.30075700  0.69924300  1
  V  V3_2  1  0.30075700  0.80075700  0.19924300  1
  V  V3_3  1  0.30075700  0.80075700  0.69924300  1
  V  V3_4  1  0.80075700  0.30075700  0.19924300  1
  V  V3_5  1  0.80075700  0.30075700  0.69924300  1
  V  V3_6  1  0.80075700  0.80075700  0.19924300  1
  V  V3_7  1  0.80075700  0.80075700  0.69924300  1
  Os  Os0_0  1  0.00000000  0.00000000  0.00000000  1
  Os  Os0_1  1  0.00000000  0.00000000  0.50000000  1
  Os  Os0_2  1  0.00000000  0.50000000  0.00000000  1
  Os  Os0_3  1  0.00000000  0.50000000  0.50000000  1
  Os  Os0_4  1  0.50000000  0.00000000  0.00000000  1
  Os  Os0_5  1  0.50000000  0.00000000  0.50000000  1
  Os  Os0_6  1  0.50000000  0.50000000  1.00000000  1
  Os  Os0_7  1  0.50000000  0.50000000  0.50000000  1
loop_
_geom_bond_atom_site_label_1
_geom_bond_atom_site_label_2
_geom_bond_distance
_geom_bond_site_symmetry_2
V0_0 V1_5 2.538621 1_455
V0_0 V1_2 2.538621 1_545
V0_1 V1_3 2.538621 1_545
V0_1 V1_4 2.538621 1_456
V0_2 V1_7 2.538621 1_455
V0_2 V1_0 2.538621 1_555
V0_3 V1_1 2.538621 1_555
V0_3 V1_6 2.538621 1_456
V0_4 V1_1 2.538621 1_555
V0_4 V1_6 2.538621 1_545
V0_5 V1_0 2.538621 1_556
V0_5 V1_7 2.538621 1_545
V0_6 V1_3 2.538621 1_555
V0_6 V1_4 2.538621 1_555
V0_7 V1_5 2.538621 1_555
V0_7 V1_2 2.538621 1_556
V1_0 V2_5 2.536123 1_554
V1_0 V2_2 2.536123 1_555
V1_0 V1_1 2.665163 1_555
V1_0 V1_6 2.665163 1_455
V1_0 V1_6 2.665163 1_545
V1_0 V1_1 2.665163 1_554
V1_1 V2_3 2.536123 1_555
V1_1 V2_4 2.536123 1_555
V1_1 V1_7 2.665163 1_455
V1_1 V1_7 2.665163 1_545
V1_2 V2_7 2.536123 1_554
V1_2 V2_0 2.536123 1_565
V1_2 V1_4 2.665163 1_555
V1_2 V1_3 2.665163 1_554
V1_2 V1_4 2.665163 1_465
V1_2 V1_3 2.665163 1_555
V1_3 V2_1 2.536123 1_565
V1_3 V2_6 2.536123 1_555
V1_3 V1_5 2.665163 1_465
V1_3 V1_5 2.665163 1_555
V1_4 V2_1 2.536123 1_654
V1_4 V2_6 2.536123 1_555
V1_4 V1_5 2.665163 1_554
V1_4 V1_5 2.665163 1_555
V1_5 V2_7 2.536123 1_555
V1_5 V2_0 2.536123 1_655
V1_6 V2_3 2.536123 1_654
V1_6 V2_4 2.536123 1_565
V1_6 V1_7 2.665163 1_554
V1_6 V1_7 2.665163 1_555
V1_7 V2_5 2.536123 1_565
V1_7 V2_2 2.536123 1_655
V2_0 V3_5 2.538621 1_455
V2_0 V3_2 2.538621 1_545
V2_0 V2_1 2.665163 1_555
V2_0 V2_6 2.665163 1_545
V2_0 V2_6 2.665163 1_455
V2_0 V2_1 2.665163 1_554
V2_1 V3_3 2.538621 1_545
V2_1 V3_4 2.538621 1_456
V2_1 V2_7 2.665163 1_455
V2_1 V2_7 2.665163 1_545
V2_2 V3_7 2.538621 1_455
V2_2 V3_0 2.538621 1_555
V2_2 V2_3 2.665163 1_555
V2_2 V2_4 2.665163 1_555
V2_2 V2_3 2.665163 1_554
V2_2 V2_4 2.665163 1_465
V2_3 V3_1 2.538621 1_555
V2_3 V3_6 2.538621 1_456
V2_3 V2_5 2.665163 1_555
V2_3 V2_5 2.665163 1_465
V2_4 V3_1 2.538621 1_555
V2_4 V3_6 2.538621 1_545
V2_4 V2_5 2.665163 1_555
V2_4 V2_5 2.665163 1_554
V2_5 V3_7 2.538621 1_545
V2_5 V3_0 2.538621 1_556
V2_6 V3_3 2.538621 1_555
V2_6 V3_4 2.538621 1_555
V2_6 V2_7 2.665163 1_554
V2_6 V2_7 2.665163 1_555
V2_7 V3_5 2.538621 1_555
V2_7 V3_2 2.538621 1_556
Os0_0 V0_3 2.579726 1_544
Os0_0 V0_4 2.579726 1_455
Os0_0 V3_4 2.579726 1_455
Os0_0 V3_3 2.579726 1_544
Os0_1 V0_5 2.579726 1_455
Os0_1 V3_2 2.579726 1_545
Os0_1 V3_5 2.579726 1_455
Os0_1 V0_2 2.579726 1_545
Os0_2 V3_6 2.579726 1_455
Os0_2 V0_1 2.579726 1_554
Os0_2 V0_6 2.579726 1_455
Os0_2 V3_1 2.579726 1_554
Os0_3 V0_7 2.579726 1_455
Os0_3 V3_0 2.579726 1_555
Os0_3 V3_7 2.579726 1_455
Os0_3 V0_0 2.579726 1_555
Os0_4 V0_7 2.579726 1_544
Os0_4 V0_0 2.579726 1_555
Os0_4 V3_0 2.579726 1_555
Os0_4 V3_7 2.579726 1_544
Os0_5 V3_6 2.579726 1_545
Os0_5 V0_1 2.579726 1_555
Os0_5 V0_6 2.579726 1_545
Os0_5 V3_1 2.579726 1_555
Os0_6 V0_5 2.579726 1_555
Os0_6 V0_2 2.579726 1_556
Os0_6 V3_2 2.579726 1_556
Os0_6 V3_5 2.579726 1_555
Os0_7 V0_3 2.579726 1_555
Os0_7 V3_4 2.579726 1_555
Os0_7 V0_4 2.579726 1_555
Os0_7 V3_3 2.579726 1_555
