# generated using pymatgen
data_Sc3Si3Mo2
_symmetry_space_group_name_H-M   'P 1'
_cell_length_a   7.56429507
_cell_length_b   7.56429507
_cell_length_c   5.42345700
_cell_angle_alpha   90.00000000
_cell_angle_beta   90.00000000
_cell_angle_gamma   118.56578743
_symmetry_Int_Tables_number   1
_chemical_formula_structural   Sc3Si3Mo2
_chemical_formula_sum   'Sc6 Si6 Mo4'
_cell_volume   272.54643686
_cell_formula_units_Z   2
loop_
 _symmetry_equiv_pos_site_id
 _symmetry_equiv_pos_as_xyz
  1  'x, y, z'
loop_
 _atom_site_type_symbol
 _atom_site_label
 _atom_site_symmetry_multiplicity
 _atom_site_fract_x
 _atom_site_fract_y
 _atom_site_fract_z
 _atom_site_occupancy
  Sc  Sc0  1  0.00041800  0.23475000  0.50000000  1
  Sc  Sc1  1  0.23475000  0.00041800  0.50000000  1
  Sc  Sc2  1  0.66954000  0.33390100  0.24669400  1
  Sc  Sc3  1  0.33390100  0.66954000  0.24669400  1
  Sc  Sc4  1  0.33390100  0.66954000  0.75330600  1
  Sc  Sc5  1  0.66954000  0.33390100  0.75330600  1
  Si  Si0  1  0.62061200  0.62061200  0.00000000  1
  Si  Si1  1  0.00168400  0.37972700  0.00000000  1
  Si  Si2  1  0.37972700  0.00168400  0.00000000  1
  Si  Si3  1  0.40040500  0.40040500  0.50000000  1
  Si  Si4  1  0.99260400  0.60988600  0.50000000  1
  Si  Si5  1  0.60988600  0.99260400  0.50000000  1
  Mo  Mo0  1  0.27822600  0.27822600  0.00000000  1
  Mo  Mo1  1  0.99959800  0.73932900  0.00000000  1
  Mo  Mo2  1  0.73932900  0.99959800  0.00000000  1
  Mo  Mo3  1  0.73588100  0.73588100  0.50000000  1
loop_
_geom_bond_atom_site_label_1
_geom_bond_atom_site_label_2
_geom_bond_distance
_geom_bond_site_symmetry_2
Sc0 Si5 2.628126 1_445
Sc0 Si3 2.664357 1_555
Sc0 Si4 2.866373 1_455
Sc0 Si1 2.923381 1_555
Sc0 Si1 2.923381 1_556
Sc1 Si4 2.628126 1_445
Sc1 Si3 2.664357 1_555
Sc1 Si5 2.866373 1_545
Sc1 Si2 2.923381 1_556
Sc1 Si2 2.923381 1_555
Sc2 Si3 2.695243 1_555
Sc2 Si4 2.708976 1_555
Sc2 Si1 2.718395 1_655
Sc2 Si0 2.719967 1_555
Sc2 Si5 2.764393 1_545
Sc2 Si2 2.764517 1_555
Sc3 Si3 2.695243 1_555
Sc3 Si5 2.708976 1_555
Sc3 Si2 2.718395 1_565
Sc3 Si0 2.719967 1_555
Sc3 Si4 2.764393 1_455
Sc3 Si1 2.764517 1_555
Sc4 Si3 2.695243 1_555
Sc4 Si5 2.708976 1_555
Sc4 Si2 2.718395 1_566
Sc4 Si0 2.719967 1_556
Sc4 Si4 2.764393 1_455
Sc4 Si1 2.764517 1_556
Sc5 Si3 2.695243 1_555
Sc5 Si4 2.708976 1_555
Sc5 Si1 2.718395 1_656
Sc5 Si0 2.719967 1_556
Sc5 Si5 2.764393 1_545
Sc5 Si2 2.764517 1_556
Mo0 Si2 2.549757 1_555
Mo0 Si1 2.549757 1_555
Mo0 Si0 2.645849 1_555
Mo0 Si3 2.871395 1_555
Mo0 Si3 2.871395 1_554
Mo0 Sc2 3.088197 1_555
Mo0 Sc3 3.088197 1_555
Mo0 Sc5 3.088197 1_554
Mo0 Sc4 3.088197 1_554
Mo0 Sc0 3.349132 1_555
Mo0 Sc0 3.349132 1_554
Mo0 Sc1 3.349132 1_554
Mo0 Sc1 3.349132 1_555
Mo1 Si0 2.561791 1_555
Mo1 Si2 2.597915 1_665
Mo1 Si1 2.727716 1_655
Mo1 Si4 2.874971 1_555
Mo1 Si4 2.874971 1_554
Mo2 Si0 2.561791 1_555
Mo2 Si1 2.597915 1_665
Mo2 Si2 2.727716 1_565
Mo2 Si5 2.874971 1_554
Mo2 Si5 2.874971 1_555
Mo3 Si4 2.539563 1_555
Mo3 Si5 2.539563 1_555
Mo3 Si3 2.592451 1_555
Mo3 Si0 2.854282 1_556
Mo3 Si0 2.854282 1_555
Mo3 Sc5 3.150508 1_555
Mo3 Sc4 3.150508 1_555
Mo3 Sc3 3.150508 1_555
Mo3 Sc2 3.150508 1_555
Mo3 Sc1 3.320055 1_665
Mo3 Sc0 3.320055 1_665
