# generated using pymatgen
data_CeYFe17
_symmetry_space_group_name_H-M   'P 1'
_cell_length_a   8.48627994
_cell_length_b   8.48627994
_cell_length_c   8.31019100
_cell_angle_alpha   90.00000000
_cell_angle_beta   90.00000000
_cell_angle_gamma   119.99999957
_symmetry_Int_Tables_number   1
_chemical_formula_structural   CeYFe17
_chemical_formula_sum   'Ce2 Y2 Fe34'
_cell_volume   518.29419839
_cell_formula_units_Z   2
loop_
 _symmetry_equiv_pos_site_id
 _symmetry_equiv_pos_as_xyz
  1  'x, y, z'
loop_
 _atom_site_type_symbol
 _atom_site_label
 _atom_site_symmetry_multiplicity
 _atom_site_fract_x
 _atom_site_fract_y
 _atom_site_fract_z
 _atom_site_occupancy
  Ce  Ce0  1  0.33333300  0.66666700  0.75000000  1
  Ce  Ce1  1  0.66666700  0.33333300  0.25000000  1
  Y  Y0  1  0.00000000  0.00000000  0.25000000  1
  Y  Y1  1  0.00000000  0.00000000  0.75000000  1
  Fe  Fe0  1  0.33333300  0.66666700  0.39337900  1
  Fe  Fe1  1  0.66666700  0.33333300  0.60662100  1
  Fe  Fe2  1  0.66666700  0.33333300  0.89337900  1
  Fe  Fe3  1  0.33333300  0.66666700  0.10662100  1
  Fe  Fe4  1  0.16572400  0.83427600  0.51328600  1
  Fe  Fe5  1  0.16572400  0.33144900  0.51328600  1
  Fe  Fe6  1  0.66855100  0.83427600  0.51328600  1
  Fe  Fe7  1  0.83427600  0.16572400  0.48671400  1
  Fe  Fe8  1  0.83427600  0.66855100  0.48671400  1
  Fe  Fe9  1  0.33144900  0.16572400  0.48671400  1
  Fe  Fe10  1  0.83427600  0.16572400  0.01328600  1
  Fe  Fe11  1  0.83427600  0.66855100  0.01328600  1
  Fe  Fe12  1  0.33144900  0.16572400  0.01328600  1
  Fe  Fe13  1  0.16572400  0.83427600  0.98671400  1
  Fe  Fe14  1  0.16572400  0.33144900  0.98671400  1
  Fe  Fe15  1  0.66855100  0.83427600  0.98671400  1
  Fe  Fe16  1  0.50000000  0.50000000  0.50000000  1
  Fe  Fe17  1  0.50000000  0.00000000  0.50000000  1
  Fe  Fe18  1  0.00000000  0.50000000  0.50000000  1
  Fe  Fe19  1  0.50000000  0.50000000  0.00000000  1
  Fe  Fe20  1  0.50000000  0.00000000  0.00000000  1
  Fe  Fe21  1  0.00000000  0.50000000  0.00000000  1
  Fe  Fe22  1  0.32932700  0.36777600  0.25000000  1
  Fe  Fe23  1  0.63222400  0.96155000  0.25000000  1
  Fe  Fe24  1  0.03845000  0.67067300  0.25000000  1
  Fe  Fe25  1  0.63222400  0.67067300  0.25000000  1
  Fe  Fe26  1  0.03845000  0.36777600  0.25000000  1
  Fe  Fe27  1  0.32932700  0.96155000  0.25000000  1
  Fe  Fe28  1  0.67067300  0.63222400  0.75000000  1
  Fe  Fe29  1  0.36777600  0.03845000  0.75000000  1
  Fe  Fe30  1  0.96155000  0.32932700  0.75000000  1
  Fe  Fe31  1  0.36777600  0.32932700  0.75000000  1
  Fe  Fe32  1  0.96155000  0.63222400  0.75000000  1
  Fe  Fe33  1  0.67067300  0.03845000  0.75000000  1
loop_
_geom_bond_atom_site_label_1
_geom_bond_atom_site_label_2
_geom_bond_distance
_geom_bond_site_symmetry_2
Ce0 Fe0 2.963589 1_555
Ce0 Fe3 2.963589 1_556
Ce0 Fe28 3.019537 1_555
Ce0 Fe31 3.019537 1_555
Ce0 Fe32 3.019537 1_455
Ce0 Fe29 3.019537 1_565
Ce0 Fe30 3.019537 1_455
Ce0 Fe33 3.019537 1_565
Ce0 Fe4 3.152634 1_555
Ce0 Fe13 3.152634 1_555
Ce0 Fe15 3.152634 1_555
Ce0 Fe6 3.152634 1_555
Ce0 Fe5 3.152634 1_555
Ce0 Fe14 3.152634 1_555
Ce0 Fe17 3.212103 1_565
Ce0 Fe21 3.212103 1_556
Ce0 Fe20 3.212103 1_566
Ce0 Fe18 3.212103 1_555
Ce0 Fe16 3.212108 1_555
Ce0 Fe19 3.212108 1_556
Ce1 Fe1 2.963589 1_555
Ce1 Fe2 2.963589 1_554
Ce1 Fe25 3.019537 1_555
Ce1 Fe22 3.019537 1_555
Ce1 Fe23 3.019537 1_545
Ce1 Fe26 3.019537 1_655
Ce1 Fe27 3.019537 1_545
Ce1 Fe24 3.019537 1_655
Ce1 Fe10 3.152634 1_555
Ce1 Fe7 3.152634 1_555
Ce1 Fe11 3.152634 1_555
Ce1 Fe12 3.152634 1_555
Ce1 Fe8 3.152634 1_555
Ce1 Fe9 3.152634 1_555
Ce1 Fe20 3.212103 1_555
Ce1 Fe17 3.212103 1_555
Ce1 Fe21 3.212103 1_655
Ce1 Fe18 3.212103 1_655
Ce1 Fe16 3.212108 1_555
Ce1 Fe19 3.212108 1_555
Fe0 Fe3 2.383014 1_555
Fe0 Fe17 2.605085 1_565
Fe0 Fe18 2.605085 1_555
Fe0 Fe16 2.605092 1_555
Fe0 Fe4 2.657514 1_555
Fe0 Fe6 2.657514 1_555
Fe0 Fe5 2.657514 1_555
Fe0 Fe24 2.787153 1_555
Fe0 Fe27 2.787153 1_555
Fe0 Fe26 2.787161 1_555
Fe0 Fe23 2.787161 1_555
Fe0 Fe22 2.787168 1_555
Fe0 Fe25 2.787168 1_555
Fe1 Fe2 2.383014 1_555
Fe1 Fe18 2.605085 1_655
Fe1 Fe17 2.605085 1_555
Fe1 Fe16 2.605092 1_555
Fe1 Fe7 2.657514 1_555
Fe1 Fe8 2.657514 1_555
Fe1 Fe9 2.657514 1_555
Fe1 Fe33 2.787153 1_555
Fe1 Fe30 2.787153 1_555
Fe1 Fe32 2.787161 1_555
Fe1 Fe29 2.787161 1_555
Fe1 Fe28 2.787168 1_555
Fe1 Fe31 2.787168 1_555
Fe2 Fe20 2.605085 1_556
Fe2 Fe21 2.605085 1_656
Fe2 Fe33 2.787153 1_555
Fe2 Fe30 2.787153 1_555
Fe2 Fe32 2.787161 1_555
Fe2 Fe29 2.787161 1_555
Fe2 Fe28 2.787168 1_555
Fe2 Fe31 2.787168 1_555
Fe4 Fe8 2.445910 1_455
Fe4 Fe9 2.445910 1_565
Fe4 Y1 3.131030 1_565
Fe4 Y0 3.274274 1_565
Fe5 Fe7 2.445910 1_455
Fe5 Fe9 2.445925 1_555
Fe5 Y1 3.131036 1_555
Fe5 Y0 3.274280 1_555
Fe6 Fe7 2.445910 1_565
Fe6 Fe8 2.445925 1_555
Fe6 Y1 3.131036 1_665
Fe6 Y0 3.274280 1_665
Fe7 Y0 3.131030 1_655
Fe7 Y1 3.274274 1_655
Fe8 Y0 3.131036 1_665
Fe8 Y1 3.274280 1_665
Fe9 Y0 3.131036 1_555
Fe9 Y1 3.274280 1_555
Fe10 Fe15 2.445910 1_544
Fe10 Fe14 2.445910 1_654
Fe10 Fe20 2.459215 1_555
Fe10 Fe21 2.459215 1_655
Fe10 Fe33 2.526216 1_554
Fe10 Fe30 2.526216 1_554
Fe10 Fe23 2.615517 1_545
Fe10 Fe26 2.615517 1_655
Fe10 Fe2 2.657514 1_554
Fe10 Y0 3.131030 1_655
Fe10 Y1 3.274274 1_654
Fe11 Fe13 2.445910 1_654
Fe11 Fe15 2.445925 1_554
Fe11 Fe21 2.459208 1_655
Fe11 Fe19 2.459215 1_555
Fe11 Fe32 2.526211 1_554
Fe11 Fe28 2.526219 1_554
Fe11 Fe25 2.615517 1_555
Fe11 Fe24 2.615517 1_655
Fe11 Fe2 2.657514 1_554
Fe11 Y0 3.131036 1_665
Fe11 Y1 3.274280 1_664
Fe12 Fe13 2.445910 1_544
Fe12 Fe14 2.445925 1_554
Fe12 Fe20 2.459208 1_555
Fe12 Fe19 2.459215 1_555
Fe12 Fe29 2.526211 1_554
Fe12 Fe31 2.526219 1_554
Fe12 Fe22 2.615517 1_555
Fe12 Fe27 2.615517 1_545
Fe12 Fe2 2.657514 1_554
Fe12 Y0 3.131036 1_555
Fe12 Y1 3.274280 1_554
Fe13 Fe21 2.459215 1_556
Fe13 Fe20 2.459215 1_566
Fe13 Fe24 2.526216 1_556
Fe13 Fe27 2.526216 1_556
Fe13 Fe32 2.615517 1_455
Fe13 Fe29 2.615517 1_565
Fe13 Fe3 2.657514 1_556
Fe13 Y1 3.131030 1_565
Fe13 Y0 3.274274 1_566
Fe14 Fe21 2.459208 1_556
Fe14 Fe19 2.459215 1_556
Fe14 Fe26 2.526211 1_556
Fe14 Fe22 2.526219 1_556
Fe14 Fe31 2.615517 1_555
Fe14 Fe30 2.615517 1_455
Fe14 Fe3 2.657514 1_556
Fe14 Y1 3.131036 1_555
Fe14 Y0 3.274280 1_556
Fe15 Fe20 2.459208 1_566
Fe15 Fe19 2.459215 1_556
Fe15 Fe23 2.526211 1_556
Fe15 Fe25 2.526219 1_556
Fe15 Fe28 2.615517 1_555
Fe15 Fe33 2.615517 1_565
Fe15 Fe3 2.657514 1_556
Fe15 Y1 3.131036 1_665
Fe15 Y0 3.274280 1_666
Fe16 Fe8 2.459215 1_555
Fe16 Fe6 2.459215 1_555
Fe16 Fe5 2.459215 1_555
Fe16 Fe9 2.459215 1_555
Fe16 Fe22 2.459244 1_555
Fe16 Fe31 2.459244 1_555
Fe16 Fe25 2.459244 1_555
Fe16 Fe28 2.459244 1_555
Fe17 Fe9 2.459208 1_555
Fe17 Fe6 2.459208 1_545
Fe17 Fe7 2.459215 1_555
Fe17 Fe4 2.459215 1_545
Fe17 Fe33 2.459242 1_555
Fe17 Fe27 2.459242 1_545
Fe17 Fe23 2.459247 1_545
Fe17 Fe29 2.459247 1_555
Fe18 Fe5 2.459208 1_555
Fe18 Fe8 2.459208 1_455
Fe18 Fe4 2.459215 1_555
Fe18 Fe7 2.459215 1_455
Fe18 Fe24 2.459242 1_555
Fe18 Fe30 2.459242 1_455
Fe18 Fe32 2.459247 1_455
Fe18 Fe26 2.459247 1_555
Fe19 Fe31 2.459244 1_554
Fe19 Fe28 2.459244 1_554
Fe19 Fe22 2.459244 1_555
Fe19 Fe25 2.459244 1_555
Fe19 Fe3 2.605092 1_555
Fe19 Fe2 2.605092 1_554
Fe20 Fe33 2.459242 1_554
Fe20 Fe27 2.459242 1_545
Fe20 Fe23 2.459247 1_545
Fe20 Fe29 2.459247 1_554
Fe20 Fe3 2.605085 1_545
Fe21 Fe24 2.459242 1_555
Fe21 Fe30 2.459242 1_454
Fe21 Fe32 2.459247 1_454
Fe21 Fe26 2.459247 1_555
Fe21 Fe3 2.605085 1_555
Fe22 Fe26 2.468464 1_555
Fe22 Fe5 2.526219 1_555
Fe22 Fe25 2.570469 1_555
Fe22 Fe9 2.615517 1_555
Fe22 Fe3 2.787168 1_555
Fe22 Y0 2.971372 1_555
Fe23 Fe25 2.468464 1_555
Fe23 Fe6 2.526211 1_555
Fe23 Fe27 2.570469 1_555
Fe23 Fe7 2.615517 1_565
Fe23 Fe3 2.787161 1_555
Fe23 Y0 2.971369 1_665
Fe24 Fe27 2.468464 1_555
Fe24 Fe4 2.526216 1_555
Fe24 Fe26 2.570469 1_555
Fe24 Fe8 2.615517 1_455
Fe24 Fe3 2.787153 1_555
Fe24 Y0 2.971377 1_565
Fe25 Fe6 2.526219 1_555
Fe25 Fe8 2.615517 1_555
Fe25 Fe3 2.787168 1_555
Fe25 Y0 2.971372 1_665
Fe26 Fe5 2.526211 1_555
Fe26 Fe7 2.615517 1_455
Fe26 Fe3 2.787161 1_555
Fe26 Y0 2.971369 1_555
Fe27 Fe4 2.526216 1_555
Fe27 Fe9 2.615517 1_565
Fe27 Fe3 2.787153 1_555
Fe27 Y0 2.971377 1_565
Fe28 Fe32 2.468464 1_555
Fe28 Fe8 2.526219 1_555
Fe28 Fe31 2.570469 1_555
Fe28 Fe6 2.615517 1_555
Fe28 Y1 2.971372 1_665
Fe29 Fe31 2.468464 1_555
Fe29 Fe9 2.526211 1_555
Fe29 Fe33 2.570469 1_555
Fe29 Fe4 2.615517 1_545
Fe29 Y1 2.971369 1_555
Fe30 Fe33 2.468464 1_555
Fe30 Fe7 2.526216 1_555
Fe30 Fe32 2.570469 1_555
Fe30 Fe5 2.615517 1_655
Fe30 Y1 2.971377 1_655
Fe31 Fe9 2.526219 1_555
Fe31 Fe5 2.615517 1_555
Fe31 Y1 2.971372 1_555
Fe32 Fe8 2.526211 1_555
Fe32 Fe4 2.615517 1_655
Fe32 Y1 2.971369 1_665
Fe33 Fe7 2.526216 1_555
Fe33 Fe6 2.615517 1_545
Fe33 Y1 2.971377 1_655
