# generated using pymatgen
data_Zn11Rh2
_symmetry_space_group_name_H-M   'P 1'
_cell_length_a   7.79368728
_cell_length_b   7.79368779
_cell_length_c   7.79361283
_cell_angle_alpha   109.47101791
_cell_angle_beta   109.47101931
_cell_angle_gamma   109.47142062
_symmetry_Int_Tables_number   1
_chemical_formula_structural   Zn11Rh2
_chemical_formula_sum   'Zn22 Rh4'
_cell_volume   364.42151572
_cell_formula_units_Z   2
loop_
 _symmetry_equiv_pos_site_id
 _symmetry_equiv_pos_as_xyz
  1  'x, y, z'
loop_
 _atom_site_type_symbol
 _atom_site_label
 _atom_site_symmetry_multiplicity
 _atom_site_fract_x
 _atom_site_fract_y
 _atom_site_fract_z
 _atom_site_occupancy
  Zn  Zn0  1  0.00000000  0.00000000  0.78651908  1
  Zn  Zn1  1  1.00000000  0.78650120  0.99998877  1
  Zn  Zn2  1  0.78650120  1.00000000  0.99998877  1
  Zn  Zn3  1  0.21349880  0.21349880  0.21348857  1
  Zn  Zn4  1  0.35103801  0.35103801  0.61895338  1
  Zn  Zn5  1  0.64896910  0.26791860  0.99999665  1
  Zn  Zn6  1  0.26791860  0.64896910  0.99999665  1
  Zn  Zn7  1  1.00000000  0.26792816  0.64897899  1
  Zn  Zn8  1  0.38105050  0.73208140  0.73207905  1
  Zn  Zn9  1  0.73208140  0.38105050  0.73207905  1
  Zn  Zn10  1  0.26792816  1.00000000  0.64897899  1
  Zn  Zn11  1  0.64896199  0.00000000  0.26791637  1
  Zn  Zn12  1  -0.00000000  0.64896199  0.26791637  1
  Zn  Zn13  1  0.61894950  0.35103090  0.35102955  1
  Zn  Zn14  1  0.35103090  0.61894950  0.35102955  1
  Zn  Zn15  1  0.73207184  0.73207184  0.38105183  1
  Zn  Zn16  1  1.00000000  0.35576648  0.35575586  1
  Zn  Zn17  1  0.64423537  0.00000000  0.64424811  1
  Zn  Zn18  1  0.35576648  1.00000000  0.35575586  1
  Zn  Zn19  1  0.35576463  0.35576463  0.00001475  1
  Zn  Zn20  1  0.64423352  0.64423352  0.99998938  1
  Zn  Zn21  1  0.00000000  0.64423537  0.64424811  1
  Rh  Rh0  1  0.00000000  0.00000000  0.34496155  1
  Rh  Rh1  1  -0.00000000  0.34496180  0.99999885  1
  Rh  Rh2  1  0.34496180  1.00000000  0.99999885  1
  Rh  Rh3  1  0.65503820  0.65503820  0.65503605  1
loop_
_geom_bond_atom_site_label_1
_geom_bond_atom_site_label_2
_geom_bond_distance
_geom_bond_site_symmetry_2
Zn0 Zn19 2.620654 1_556
Zn0 Zn17 2.620655 1_455
Zn0 Zn21 2.620655 1_545
Zn0 Zn15 2.646055 1_445
Zn0 Zn10 2.646059 1_545
Zn0 Zn7 2.646059 1_455
Zn0 Zn2 2.717006 1_445
Zn0 Zn1 2.717006 1_445
Zn0 Zn3 2.717013 1_556
Zn1 Zn21 2.620457 1_655
Zn1 Zn20 2.620662 1_555
Zn1 Zn18 2.620662 1_656
Zn1 Zn9 2.645953 1_555
Zn1 Zn6 2.645953 1_655
Zn1 Zn12 2.646039 1_656
Zn1 Zn2 2.717211 1_555
Zn1 Zn3 2.717211 1_666
Zn2 Zn20 2.620662 1_555
Zn2 Zn8 2.645953 1_555
Zn2 Zn5 2.645954 1_565
Zn2 Zn3 2.717211 1_666
Zn3 Zn4 2.646025 1_555
Zn4 Zn9 2.702824 1_555
Zn4 Zn8 2.702824 1_555
Zn4 Zn7 2.702923 1_455
Zn5 Zn9 2.702818 1_555
Zn6 Zn7 2.702771 1_455
Zn6 Zn8 2.702818 1_555
Zn7 Zn9 2.702773 1_555
Zn10 Zn18 2.595008 1_555
Zn10 Zn5 2.702771 1_565
Zn10 Zn8 2.702773 1_555
Zn10 Zn12 2.702920 1_555
Zn10 Zn4 2.702923 1_565
Zn10 Zn21 2.840823 1_555
Zn10 Zn19 2.840832 1_566
Zn10 Zn17 2.945316 1_565
Zn11 Zn18 2.594822 1_545
Zn11 Zn2 2.646039 1_544
Zn11 Zn13 2.702824 1_555
Zn11 Zn6 2.702825 1_544
Zn11 Zn7 2.702919 1_555
Zn11 Zn15 2.702923 1_545
Zn11 Zn16 2.840844 1_555
Zn11 Zn20 2.840845 1_544
Zn11 Zn17 2.945468 1_555
Zn12 Zn16 2.594822 1_455
Zn12 Zn14 2.702824 1_555
Zn12 Zn5 2.702825 1_454
Zn12 Zn15 2.702923 1_455
Zn12 Zn18 2.840844 1_555
Zn12 Zn20 2.840845 1_454
Zn12 Zn21 2.945468 1_555
Zn13 Zn21 2.594948 1_655
Zn13 Zn3 2.645952 1_555
Zn13 Zn15 2.702773 1_555
Zn13 Zn9 2.702818 1_555
Zn13 Zn5 2.702840 1_554
Zn13 Zn19 2.840683 1_555
Zn13 Zn18 2.840740 1_545
Zn13 Zn16 2.945413 1_555
Zn14 Zn17 2.594949 1_565
Zn14 Zn3 2.645953 1_555
Zn14 Zn15 2.702773 1_555
Zn14 Zn8 2.702818 1_555
Zn14 Zn6 2.702840 1_554
Zn14 Zn19 2.840683 1_555
Zn14 Zn16 2.840740 1_455
Zn14 Zn18 2.945413 1_555
Zn15 Zn20 2.595016 1_554
Zn15 Zn21 2.840819 1_655
Zn15 Zn17 2.840819 1_565
Zn15 Zn19 2.945314 1_555
Zn16 Zn7 2.595008 1_555
Zn16 Zn21 2.596139 1_655
Zn16 Zn3 2.620658 1_655
Zn16 Zn2 2.620663 1_544
Zn16 Zn5 2.840750 1_554
Zn16 Zn4 2.840841 1_655
Zn16 Zn8 2.945411 1_655
Zn17 Zn9 2.594950 1_555
Zn17 Zn18 2.596139 1_545
Zn17 Zn2 2.620457 1_545
Zn17 Zn5 2.840683 1_555
Zn17 Zn8 2.840688 1_545
Zn17 Zn7 2.840823 1_555
Zn18 Zn3 2.620658 1_565
Zn18 Zn6 2.840750 1_554
Zn18 Zn4 2.840842 1_565
Zn18 Zn9 2.945411 1_565
Zn19 Zn5 2.594955 1_554
Zn19 Zn6 2.594955 1_554
Zn19 Zn20 2.596148 1_554
Zn19 Zn3 2.620450 1_555
Zn19 Zn7 2.840832 1_454
Zn19 Zn4 2.945491 1_554
Zn20 Zn4 2.594827 1_555
Zn20 Zn8 2.840745 1_555
Zn20 Zn9 2.840745 1_555
Zn20 Zn6 2.945408 1_555
Zn20 Zn5 2.945408 1_555
Zn21 Zn8 2.594950 1_555
Zn21 Zn6 2.840683 1_555
Zn21 Zn9 2.840688 1_455
Zn21 Zn7 2.945316 1_455
Rh0 Zn10 2.583795 1_545
Rh0 Zn7 2.583795 1_455
Rh0 Zn15 2.583799 1_445
Rh0 Zn4 2.598155 1_555
Rh0 Zn11 2.598156 1_455
Rh0 Zn12 2.598156 1_545
Rh0 Zn3 2.648538 1_555
Rh0 Zn2 2.648544 1_444
Rh0 Zn1 2.648544 1_444
Rh0 Zn18 2.745837 1_545
Rh0 Zn16 2.745837 1_455
Rh0 Zn20 2.745837 1_444
Rh1 Zn12 2.583671 1_556
Rh1 Zn9 2.583714 1_455
Rh1 Zn6 2.583718 1_555
Rh1 Zn7 2.598002 1_455
Rh1 Zn5 2.598091 1_455
Rh1 Zn14 2.598099 1_556
Rh1 Zn2 2.648442 1_445
Rh1 Zn3 2.648447 1_556
Rh1 Zn0 2.648449 1_555
Rh1 Zn16 2.745711 1_456
Rh1 Zn19 2.745758 1_556
Rh1 Zn17 2.745764 1_455
Rh2 Zn11 2.583670 1_566
Rh2 Zn8 2.583714 1_555
Rh2 Zn5 2.583718 1_565
Rh2 Zn10 2.598002 1_555
Rh2 Zn6 2.598092 1_555
Rh2 Zn13 2.598099 1_566
Rh2 Zn1 2.648442 1_455
Rh2 Zn3 2.648447 1_566
Rh2 Zn0 2.648449 1_565
Rh2 Zn18 2.745711 1_556
Rh2 Zn19 2.745758 1_566
Rh2 Zn21 2.745764 1_555
Rh3 Zn4 2.583670 1_555
Rh3 Zn14 2.583705 1_555
Rh3 Zn13 2.583705 1_555
Rh3 Zn15 2.597987 1_555
Rh3 Zn8 2.598098 1_555
Rh3 Zn9 2.598098 1_555
Rh3 Zn0 2.648446 1_665
Rh3 Zn1 2.648447 1_555
Rh3 Zn2 2.648447 1_555
Rh3 Zn20 2.745719 1_555
Rh3 Zn21 2.745761 1_655
Rh3 Zn17 2.745761 1_565
