# generated using pymatgen
data_MnFe3Si8
_symmetry_space_group_name_H-M   'P 1'
_cell_length_a   2.71339600
_cell_length_b   2.71339600
_cell_length_c   20.59051600
_cell_angle_alpha   90.00000000
_cell_angle_beta   90.00000000
_cell_angle_gamma   90.00000000
_symmetry_Int_Tables_number   1
_chemical_formula_structural   MnFe3Si8
_chemical_formula_sum   'Mn1 Fe3 Si8'
_cell_volume   151.59804165
_cell_formula_units_Z   1
loop_
 _symmetry_equiv_pos_site_id
 _symmetry_equiv_pos_as_xyz
  1  'x, y, z'
loop_
 _atom_site_type_symbol
 _atom_site_label
 _atom_site_symmetry_multiplicity
 _atom_site_fract_x
 _atom_site_fract_y
 _atom_site_fract_z
 _atom_site_occupancy
  Mn  Mn0  1  0.00000000  0.00000000  0.00000000  1
  Fe  Fe0  1  0.00000000  0.00000000  0.25059800  1
  Fe  Fe1  1  0.00000000  0.00000000  0.50000000  1
  Fe  Fe2  1  0.00000000  0.00000000  0.74940200  1
  Si  Si0  1  0.50000000  0.50000000  0.18171400  1
  Si  Si1  1  0.50000000  0.50000000  0.43178900  1
  Si  Si2  1  0.50000000  0.50000000  0.68182700  1
  Si  Si3  1  0.50000000  0.50000000  0.93225400  1
  Si  Si4  1  0.50000000  0.50000000  0.06774600  1
  Si  Si5  1  0.50000000  0.50000000  0.31817300  1
  Si  Si6  1  0.50000000  0.50000000  0.56821100  1
  Si  Si7  1  0.50000000  0.50000000  0.81828600  1
loop_
_geom_bond_atom_site_label_1
_geom_bond_atom_site_label_2
_geom_bond_distance
_geom_bond_site_symmetry_2
Mn0 Si4 2.372146 1_545
Mn0 Si4 2.372146 1_555
Mn0 Si4 2.372146 1_445
Mn0 Si3 2.372146 1_444
Mn0 Si3 2.372146 1_554
Mn0 Si3 2.372146 1_454
Mn0 Si4 2.372146 1_455
Mn0 Si3 2.372146 1_544
Fe0 Si5 2.370077 1_555
Fe0 Si5 2.370077 1_455
Fe0 Si5 2.370077 1_545
Fe0 Si5 2.370077 1_445
Fe0 Si0 2.386000 1_545
Fe0 Si0 2.386000 1_555
Fe0 Si0 2.386000 1_445
Fe0 Si0 2.386000 1_455
Fe1 Si1 2.377789 1_545
Fe1 Si1 2.377789 1_555
Fe1 Si1 2.377789 1_455
Fe1 Si6 2.377789 1_445
Fe1 Si6 2.377789 1_455
Fe1 Si6 2.377789 1_545
Fe1 Si1 2.377789 1_445
Fe1 Si6 2.377789 1_555
Fe2 Si2 2.370077 1_455
Fe2 Si2 2.370077 1_445
Fe2 Si2 2.370077 1_555
Fe2 Si2 2.370077 1_545
Fe2 Si7 2.386000 1_455
Fe2 Si7 2.386000 1_555
Fe2 Si7 2.386000 1_545
Fe2 Si7 2.386000 1_445
Si0 Si4 2.346660 1_555
Si1 Si5 2.339412 1_555
Si2 Si6 2.339412 1_555
Si3 Si7 2.346660 1_555
