# generated using pymatgen
data_Te6Mo3WS2
_symmetry_space_group_name_H-M   'P 1'
_cell_length_a   3.45186407
_cell_length_b   3.45186407
_cell_length_c   39.27338100
_cell_angle_alpha   90.00000000
_cell_angle_beta   90.00000000
_cell_angle_gamma   120.00000142
_symmetry_Int_Tables_number   1
_chemical_formula_structural   Te6Mo3WS2
_chemical_formula_sum   'Te6 Mo3 W1 S2'
_cell_volume   405.26237771
_cell_formula_units_Z   1
loop_
 _symmetry_equiv_pos_site_id
 _symmetry_equiv_pos_as_xyz
  1  'x, y, z'
loop_
 _atom_site_type_symbol
 _atom_site_label
 _atom_site_symmetry_multiplicity
 _atom_site_fract_x
 _atom_site_fract_y
 _atom_site_fract_z
 _atom_site_occupancy
  Te  Te0  1  0.33333300  0.66666700  0.32893800  1
  Te  Te1  1  0.33333300  0.66666700  0.70481800  1
  Te  Te2  1  0.66666700  0.33333300  0.04680500  1
  Te  Te3  1  0.66666700  0.33333300  0.14092400  1
  Te  Te4  1  0.33333300  0.66666700  0.23481400  1
  Te  Te5  1  0.33333300  0.66666700  0.61016600  1
  Mo  Mo0  1  0.33333300  0.66666700  0.09385000  1
  Mo  Mo1  1  0.33333300  0.66666700  0.46965000  1
  Mo  Mo2  1  0.66666700  0.33333300  0.28186800  1
  W  W0  1  0.66666700  0.33333300  0.65752500  1
  S  S0  1  0.66666700  0.33333300  0.43173000  1
  S  S1  1  0.66666700  0.33333300  0.50766000  1
loop_
_geom_bond_atom_site_label_1
_geom_bond_atom_site_label_2
_geom_bond_distance
_geom_bond_site_symmetry_2
Te1 W0 2.724253 1_455
Te1 W0 2.724253 1_565
Te1 W0 2.724257 1_555
Te5 W0 2.726020 1_455
Te5 W0 2.726020 1_565
Te5 W0 2.726025 1_555
Mo0 Te2 2.717621 1_565
Mo0 Te2 2.717621 1_455
Mo0 Te2 2.717626 1_555
Mo0 Te3 2.718396 1_455
Mo0 Te3 2.718396 1_565
Mo0 Te3 2.718400 1_555
Mo1 S0 2.487898 1_455
Mo1 S0 2.487898 1_565
Mo1 S0 2.487903 1_555
Mo1 S1 2.490015 1_455
Mo1 S1 2.490015 1_565
Mo1 S1 2.490020 1_555
Mo2 Te4 2.717862 1_545
Mo2 Te4 2.717862 1_655
Mo2 Te4 2.717866 1_555
Mo2 Te0 2.718289 1_545
Mo2 Te0 2.718289 1_655
Mo2 Te0 2.718293 1_555
