# generated using pymatgen
data_SrLiMg6
_symmetry_space_group_name_H-M   'P 1'
_cell_length_a   5.28904300
_cell_length_b   6.73934000
_cell_length_c   11.83779600
_cell_angle_alpha   90.00000000
_cell_angle_beta   90.00000000
_cell_angle_gamma   90.00000000
_symmetry_Int_Tables_number   1
_chemical_formula_structural   SrLiMg6
_chemical_formula_sum   'Sr2 Li2 Mg12'
_cell_volume   421.95420234
_cell_formula_units_Z   2
loop_
 _symmetry_equiv_pos_site_id
 _symmetry_equiv_pos_as_xyz
  1  'x, y, z'
loop_
 _atom_site_type_symbol
 _atom_site_label
 _atom_site_symmetry_multiplicity
 _atom_site_fract_x
 _atom_site_fract_y
 _atom_site_fract_z
 _atom_site_occupancy
  Sr  Sr0  1  0.50000000  0.50000000  0.17118700  1
  Sr  Sr1  1  0.50000000  0.00000000  0.67118700  1
  Li  Li0  1  0.00000000  0.50000000  0.34475500  1
  Li  Li1  1  0.00000000  0.00000000  0.84475500  1
  Mg  Mg0  1  0.00000000  0.76652400  0.07462000  1
  Mg  Mg1  1  0.00000000  0.23347600  0.07462000  1
  Mg  Mg2  1  0.00000000  0.00000000  0.33111800  1
  Mg  Mg3  1  0.50000000  0.25815500  0.42156200  1
  Mg  Mg4  1  0.50000000  0.74184500  0.42156200  1
  Mg  Mg5  1  0.50000000  0.00000000  0.16057500  1
  Mg  Mg6  1  0.00000000  0.26652400  0.57462000  1
  Mg  Mg7  1  0.00000000  0.73347600  0.57462000  1
  Mg  Mg8  1  0.00000000  0.50000000  0.83111800  1
  Mg  Mg9  1  0.50000000  0.75815500  0.92156200  1
  Mg  Mg10  1  0.50000000  0.24184500  0.92156200  1
  Mg  Mg11  1  0.50000000  0.50000000  0.66057500  1
loop_
_geom_bond_atom_site_label_1
_geom_bond_atom_site_label_2
_geom_bond_distance
_geom_bond_site_symmetry_2
Li0 Mg7 3.143275 1_555
Li0 Mg6 3.143275 1_555
Li0 Mg4 3.236770 1_555
Li0 Mg4 3.236770 1_455
Li0 Mg3 3.236770 1_455
Li0 Mg3 3.236770 1_555
Li0 Sr0 3.348900 1_455
Li0 Sr0 3.348900 1_555
Li0 Mg2 3.373535 1_565
Li0 Mg2 3.373535 1_555
Li1 Mg0 3.143275 1_546
Li1 Mg1 3.143275 1_556
Li1 Mg10 3.236770 1_455
Li1 Mg10 3.236770 1_555
Li1 Mg9 3.236770 1_445
Li1 Mg9 3.236770 1_545
Li1 Sr1 3.348900 1_555
Li1 Sr1 3.348900 1_455
Li1 Mg8 3.373535 1_555
Li1 Mg8 3.373535 1_545
Mg0 Mg1 3.146948 1_565
Mg0 Mg9 3.206173 1_454
Mg0 Mg9 3.206173 1_554
Mg0 Mg5 3.241089 1_465
Mg0 Mg5 3.241089 1_565
Mg0 Sr0 3.395082 1_455
Mg0 Sr0 3.395082 1_555
Mg0 Mg8 3.396363 1_554
Mg0 Mg2 3.419849 1_565
Mg1 Mg10 3.206173 1_554
Mg1 Mg10 3.206173 1_454
Mg1 Mg5 3.241089 1_455
Mg1 Mg5 3.241089 1_555
Mg1 Sr0 3.395082 1_455
Mg1 Sr0 3.395082 1_555
Mg1 Mg8 3.396363 1_554
Mg1 Mg2 3.419849 1_555
Mg2 Mg5 3.327050 1_455
Mg2 Mg5 3.327050 1_555
Mg2 Mg3 3.341659 1_455
Mg2 Mg3 3.341659 1_555
Mg2 Mg4 3.341659 1_545
Mg2 Mg4 3.341659 1_445
Mg2 Mg6 3.396363 1_555
Mg2 Mg7 3.396363 1_545
Mg3 Mg6 3.206173 1_555
Mg3 Mg6 3.206173 1_655
Mg3 Mg4 3.259751 1_555
Mg3 Sr0 3.382474 1_555
Mg3 Sr1 3.429135 1_555
Mg3 Mg4 3.479589 1_545
Mg3 Mg5 3.545696 1_555
Mg4 Mg7 3.206173 1_655
Mg4 Mg7 3.206173 1_555
Mg4 Sr0 3.382474 1_555
Mg4 Sr1 3.429135 1_565
Mg4 Mg5 3.545696 1_565
Mg5 Mg9 3.265261 1_544
Mg5 Sr0 3.372011 1_545
Mg5 Sr0 3.372011 1_555
Mg6 Mg7 3.146948 1_555
Mg6 Sr1 3.395082 1_455
Mg6 Sr1 3.395082 1_555
Mg6 Mg8 3.419849 1_555
Mg7 Sr1 3.395082 1_565
Mg7 Sr1 3.395082 1_465
Mg7 Mg8 3.419849 1_555
Mg8 Mg9 3.341659 1_555
Mg8 Mg9 3.341659 1_455
Mg9 Sr1 3.382474 1_565
Mg9 Sr0 3.429135 1_556
Mg10 Mg9 3.259751 1_545
Mg10 Mg5 3.265261 1_556
Mg10 Mg8 3.341659 1_555
Mg10 Mg8 3.341659 1_655
Mg10 Sr1 3.382474 1_555
Mg10 Sr0 3.429135 1_556
Mg10 Mg9 3.479589 1_555
Mg10 Mg11 3.545696 1_555
Mg11 Mg6 3.241089 1_655
Mg11 Mg7 3.241089 1_555
Mg11 Mg7 3.241089 1_655
Mg11 Mg6 3.241089 1_555
Mg11 Mg4 3.265261 1_555
Mg11 Mg3 3.265261 1_555
Mg11 Mg8 3.327050 1_555
Mg11 Mg8 3.327050 1_655
Mg11 Sr1 3.372011 1_565
Mg11 Sr1 3.372011 1_555
Mg11 Mg9 3.545696 1_555
