# generated using pymatgen
data_PuB2Os
_symmetry_space_group_name_H-M   'P 1'
_cell_length_a   5.35696645
_cell_length_b   5.78633040
_cell_length_c   6.46438561
_cell_angle_alpha   90.00000000
_cell_angle_beta   90.00000000
_cell_angle_gamma   90.00000000
_symmetry_Int_Tables_number   1
_chemical_formula_structural   PuB2Os
_chemical_formula_sum   'Pu4 B8 Os4'
_cell_volume   200.37771026
_cell_formula_units_Z   4
loop_
 _symmetry_equiv_pos_site_id
 _symmetry_equiv_pos_as_xyz
  1  'x, y, z'
loop_
 _atom_site_type_symbol
 _atom_site_label
 _atom_site_symmetry_multiplicity
 _atom_site_fract_x
 _atom_site_fract_y
 _atom_site_fract_z
 _atom_site_occupancy
  Pu  Pu0  1  0.75000000  0.50019659  0.15879572  1
  Pu  Pu1  1  0.75000000  0.00019659  0.34120428  1
  Pu  Pu2  1  0.25000000  0.49980341  0.84120428  1
  Pu  Pu3  1  0.25000000  -0.00019659  0.65879572  1
  B  B0  1  0.91325327  0.13236848  0.96463852  1
  B  B1  1  0.58674673  0.63236848  0.53536148  1
  B  B2  1  0.41325327  0.86763152  0.03536148  1
  B  B3  1  0.08674673  0.36763152  0.46463852  1
  B  B4  1  0.08674673  0.86763152  0.03536148  1
  B  B5  1  0.41325327  0.36763152  0.46463852  1
  B  B6  1  0.58674673  0.13236848  0.96463852  1
  B  B7  1  0.91325327  0.63236848  0.53536148  1
  Os  Os0  1  0.75000000  0.31188686  0.68604916  1
  Os  Os1  1  0.75000000  0.81188686  0.81395084  1
  Os  Os2  1  0.25000000  0.68811314  0.31395084  1
  Os  Os3  1  0.25000000  0.18811314  0.18604916  1
loop_
_geom_bond_atom_site_label_1
_geom_bond_atom_site_label_2
_geom_bond_distance
_geom_bond_site_symmetry_2
B0 B6 1.749085 1_555
B0 B4 1.849156 1_646
B0 Os0 2.255461 1_555
B0 Os1 2.269922 1_545
B0 Os3 2.325257 1_656
B0 Pu0 2.621087 1_556
B0 Pu1 2.697291 1_556
B0 Pu3 2.784144 1_655
B0 Pu2 2.900205 1_655
B1 B7 1.749085 1_555
B1 B5 1.849156 1_555
B1 Os1 2.255461 1_555
B1 Os0 2.269922 1_555
B1 Os2 2.325257 1_555
B1 Pu1 2.621087 1_565
B1 Pu0 2.697291 1_555
B1 Pu2 2.784144 1_555
B1 Pu3 2.900205 1_565
B2 B4 1.749085 1_555
B2 B6 1.849156 1_564
B2 Os2 2.255461 1_555
B2 Os3 2.269922 1_565
B2 Os1 2.325257 1_554
B2 Pu2 2.621087 1_554
B2 Pu3 2.697291 1_564
B2 Pu1 2.784144 1_565
B2 Pu0 2.900205 1_555
B3 B5 1.749085 1_555
B3 B7 1.849156 1_455
B3 Os3 2.255461 1_555
B3 Os2 2.269922 1_555
B3 Os0 2.325257 1_455
B3 Pu3 2.621087 1_555
B3 Pu2 2.697291 1_555
B3 Pu0 2.784144 1_455
B3 Pu1 2.900205 1_455
B4 Os2 2.255461 1_555
B4 Os3 2.269922 1_565
B4 Os1 2.325257 1_454
B4 Pu2 2.621087 1_554
B4 Pu3 2.697291 1_564
B4 Pu1 2.784144 1_465
B4 Pu0 2.900205 1_455
B5 Os3 2.255461 1_555
B5 Os2 2.269922 1_555
B5 Os0 2.325257 1_555
B5 Pu3 2.621087 1_555
B5 Pu2 2.697291 1_555
B5 Pu0 2.784144 1_555
B5 Pu1 2.900205 1_555
B6 Os0 2.255461 1_555
B6 Os1 2.269922 1_545
B6 Os3 2.325257 1_556
B6 Pu0 2.621087 1_556
B6 Pu1 2.697291 1_556
B6 Pu3 2.784144 1_555
B6 Pu2 2.900205 1_555
B7 Os1 2.255461 1_555
B7 Os0 2.269922 1_555
B7 Os2 2.325257 1_655
B7 Pu1 2.621087 1_565
B7 Pu0 2.697291 1_555
B7 Pu2 2.784144 1_655
B7 Pu3 2.900205 1_665
Os0 Pu1 2.867428 1_555
Os1 Pu0 2.867428 1_556
Os2 Pu3 2.867428 1_565
Os3 Pu2 2.867428 1_554
