# generated using pymatgen
data_AlMo3Se2ClO8
_symmetry_space_group_name_H-M   'P 1'
_cell_length_a   7.27296697
_cell_length_b   6.54978581
_cell_length_c   9.75192063
_cell_angle_alpha   93.99111063
_cell_angle_beta   106.38111517
_cell_angle_gamma   93.64282590
_symmetry_Int_Tables_number   1
_chemical_formula_structural   AlMo3Se2ClO8
_chemical_formula_sum   'Al2 Mo6 Se4 Cl2 O16'
_cell_volume   442.92621157
_cell_formula_units_Z   2
loop_
 _symmetry_equiv_pos_site_id
 _symmetry_equiv_pos_as_xyz
  1  'x, y, z'
loop_
 _atom_site_type_symbol
 _atom_site_label
 _atom_site_symmetry_multiplicity
 _atom_site_fract_x
 _atom_site_fract_y
 _atom_site_fract_z
 _atom_site_occupancy
  Al  Al0  1  0.26384600  0.26741300  0.26477400  1
  Al  Al1  1  0.72234700  0.73573100  0.74471100  1
  Mo  Mo0  1  0.50687500  0.01536000  0.00793700  1
  Mo  Mo1  1  0.49294700  0.99070300  0.49887800  1
  Mo  Mo2  1  0.00701600  0.99143300  0.00815800  1
  Mo  Mo3  1  0.73440500  0.24113500  0.75991300  1
  Mo  Mo4  1  0.29497800  0.75396500  0.24075200  1
  Mo  Mo5  1  0.99411200  0.99556600  0.49644200  1
  Se  Se0  1  0.84758300  0.40990600  0.03157900  1
  Se  Se1  1  0.17338900  0.57723200  0.85360300  1
  Se  Se2  1  0.73230100  0.43685000  0.43131000  1
  Se  Se3  1  0.25968900  0.55707000  0.57497700  1
  Cl  Cl0  1  0.25958100  0.12177600  0.75966900  1
  Cl  Cl1  1  0.74442500  0.86846400  0.24442400  1
  O  O0  1  0.30741200  0.03748100  0.14025900  1
  O  O1  1  0.31319300  0.48485400  0.16671300  1
  O  O2  1  0.74003800  0.48847900  0.61290900  1
  O  O3  1  0.64186800  0.31296200  0.07192800  1
  O  O4  1  0.45549000  0.75229200  0.63109800  1
  O  O5  1  0.06372600  0.69823400  0.53408000  1
  O  O6  1  0.70469700  0.96893000  0.87567800  1
  O  O7  1  0.00500900  0.23777700  0.16203100  1
  O  O8  1  0.92473600  0.29479500  0.45675600  1
  O  O9  1  0.98982900  0.76032300  0.83556000  1
  O  O10  1  0.20907100  0.03291600  0.37822200  1
  O  O11  1  0.77962100  0.96236400  0.62222000  1
  O  O12  1  0.36071300  0.72368300  0.97951800  1
  O  O13  1  0.53784600  0.24554600  0.38018900  1
  O  O14  1  0.66319900  0.51939000  0.84081700  1
  O  O15  1  0.27006200  0.51737200  0.39489100  1
loop_
_geom_bond_atom_site_label_1
_geom_bond_atom_site_label_2
_geom_bond_distance
_geom_bond_site_symmetry_2
Al0 O1 1.841149 1_555
Al0 O7 1.856884 1_555
Al0 O0 1.966207 1_555
Al0 O15 1.990361 1_555
Al0 O13 2.012986 1_555
Al0 O10 2.036927 1_555
Al1 O14 1.845563 1_555
Al1 O9 1.887738 1_555
Al1 O6 1.956135 1_555
Al1 O4 1.958763 1_555
Al1 O2 2.030080 1_555
Al1 O11 2.062220 1_555
Mo0 O12 2.087729 1_544
Mo0 O3 2.096367 1_555
Mo0 O0 2.201628 1_555
Mo0 O6 2.207649 1_544
Mo1 O10 2.114507 1_565
Mo1 O11 2.119915 1_555
Mo1 O4 2.144651 1_555
Mo1 O13 2.155295 1_565
Mo2 O7 2.129221 1_565
Mo2 O9 2.154675 1_454
Mo2 O0 2.190526 1_565
Mo2 O6 2.203495 1_454
Mo3 O14 2.088650 1_555
Mo3 O6 2.206505 1_545
Mo3 O2 2.242622 1_555
Mo3 O11 2.286730 1_545
Mo4 O1 1.884718 1_555
Mo4 O0 2.167692 1_565
Mo4 O15 2.266247 1_555
Mo4 O10 2.408798 1_565
Mo5 O5 2.074522 1_655
Mo5 O8 2.089647 1_565
Mo5 O10 2.200101 1_665
Mo5 O11 2.249142 1_555
Cl0 Mo0 2.742329 1_556
Cl0 Mo5 2.776100 1_445
Cl1 Mo5 2.652655 1_555
Cl1 Mo0 2.738960 1_565
O2 Se2 1.764016 1_555
O3 Se0 1.744309 1_555
O4 Se3 1.787185 1_555
O5 Se3 1.715631 1_555
O7 Se0 1.934544 1_455
O8 Se2 1.699353 1_555
O9 Se1 1.830756 1_655
O12 Se1 1.735046 1_555
O13 Se2 1.763197 1_555
O14 Se0 2.161949 1_556
O15 Se3 1.780770 1_555
