# generated using pymatgen
data_Ca3(SiO5)2
_symmetry_space_group_name_H-M   'P 1'
_cell_length_a   5.59334400
_cell_length_b   8.36374065
_cell_length_c   10.16306980
_cell_angle_alpha   79.31424653
_cell_angle_beta   74.02726781
_cell_angle_gamma   70.46512751
_symmetry_Int_Tables_number   1
_chemical_formula_structural   Ca3(SiO5)2
_chemical_formula_sum   'Ca6 Si4 O20'
_cell_volume   428.47993202
_cell_formula_units_Z   2
loop_
 _symmetry_equiv_pos_site_id
 _symmetry_equiv_pos_as_xyz
  1  'x, y, z'
loop_
 _atom_site_type_symbol
 _atom_site_label
 _atom_site_symmetry_multiplicity
 _atom_site_fract_x
 _atom_site_fract_y
 _atom_site_fract_z
 _atom_site_occupancy
  Ca  Ca0  1  0.38163800  0.41899000  0.80034700  1
  Ca  Ca1  1  0.89902600  0.91899000  0.30034700  1
  Ca  Ca2  1  0.08381400  0.10134900  0.69874600  1
  Ca  Ca3  1  0.61609100  0.60134900  0.19874600  1
  Ca  Ca4  1  0.94857800  0.52304600  0.52112900  1
  Ca  Ca5  1  0.50724800  0.02304600  0.02112900  1
  Si  Si0  1  0.55842800  0.26577700  0.51374900  1
  Si  Si1  1  0.16204600  0.76577700  0.01374900  1
  Si  Si2  1  0.40873700  0.75492200  0.49121800  1
  Si  Si3  1  0.84512200  0.25492200  0.99121800  1
  O  O0  1  0.21724100  0.88070000  0.86432700  1
  O  O1  1  0.53773100  0.38070000  0.36432700  1
  O  O2  1  0.46850500  0.63936700  0.63476400  1
  O  O3  1  0.75736400  0.13936700  0.13476400  1
  O  O4  1  0.29041200  0.96249600  0.50339100  1
  O  O5  1  0.74370100  0.46249600  0.00339100  1
  O  O6  1  0.65576600  0.06001400  0.49543000  1
  O  O7  1  0.28879100  0.56001400  0.99543000  1
  O  O8  1  0.72007100  0.21045900  0.87780100  1
  O  O9  1  0.69167000  0.71045900  0.37780100  1
  O  O10  1  0.16195500  0.21357500  0.93247400  1
  O  O11  1  0.19199500  0.71357500  0.43247400  1
  O  O12  1  0.27013600  0.32138900  0.62136900  1
  O  O13  1  0.28710500  0.82138900  0.12136900  1
  O  O14  1  0.77029900  0.29787600  0.58139800  1
  O  O15  1  0.85042700  0.79787600  0.08139800  1
  O  O16  1  0.82425100  0.70086900  0.74700300  1
  O  O17  1  0.22787700  0.20086900  0.24700300  1
  O  O18  1  0.71873800  0.85097200  0.77305300  1
  O  O19  1  0.15723700  0.35097200  0.27305300  1
loop_
_geom_bond_atom_site_label_1
_geom_bond_atom_site_label_2
_geom_bond_distance
_geom_bond_site_symmetry_2
Ca0 O8 2.312548 1_555
Ca0 O2 2.337507 1_555
Ca0 O7 2.341510 1_555
Ca0 O12 2.424752 1_555
Ca0 O10 2.431630 1_555
Ca0 O14 2.721105 1_555
Ca1 O9 2.312548 1_555
Ca1 O3 2.337509 1_565
Ca1 O6 2.341510 1_565
Ca1 O13 2.424746 1_655
Ca1 O11 2.431623 1_655
Ca1 O15 2.721108 1_555
Ca2 O4 2.306681 1_545
Ca2 O12 2.320848 1_555
Ca2 O0 2.326578 1_545
Ca2 O8 2.370691 1_455
Ca2 O14 2.386545 1_455
Ca3 O5 2.306681 1_555
Ca3 O13 2.320851 1_555
Ca3 O1 2.326579 1_555
Ca3 O9 2.370693 1_555
Ca3 O15 2.386545 1_555
Ca4 O14 2.325550 1_555
Ca4 O9 2.332946 1_555
Ca4 O11 2.334149 1_655
Ca4 O12 2.336650 1_655
Ca4 O2 2.540373 1_555
Ca4 O16 2.767865 1_555
Ca4 O19 2.897025 1_655
Ca5 O15 2.325546 1_545
Ca5 O8 2.332946 1_554
Ca5 O10 2.334157 1_554
Ca5 O13 2.336657 1_545
Ca5 O3 2.540369 1_555
Ca5 O17 2.767866 1_555
Ca5 O18 2.897025 1_544
O0 Si1 1.650582 1_556
O1 Si0 1.650582 1_555
O2 Si2 1.644259 1_555
O3 Si3 1.644258 1_554
O4 Si2 1.653340 1_555
O5 Si3 1.653340 1_554
O6 Si0 1.652021 1_555
O7 Si1 1.652022 1_556
O8 Si3 1.653117 1_555
O9 Si2 1.653125 1_555
O10 Si3 1.643469 1_455
O11 Si2 1.643469 1_555
O12 Si0 1.652044 1_555
O13 Si1 1.652040 1_555
O14 Si0 1.636696 1_555
O15 Si1 1.636696 1_655
O16 O18 1.239456 1_555
O17 O19 1.239456 1_555
