# generated using pymatgen
data_Li3V2P4(HO8)2
_symmetry_space_group_name_H-M   'P 1'
_cell_length_a   9.45768122
_cell_length_b   9.39833587
_cell_length_c   7.90360836
_cell_angle_alpha   78.64358395
_cell_angle_beta   78.66118834
_cell_angle_gamma   117.71818504
_symmetry_Int_Tables_number   1
_chemical_formula_structural   Li3V2P4(HO8)2
_chemical_formula_sum   'Li6 V4 P8 H4 O32'
_cell_volume   575.13337414
_cell_formula_units_Z   2
loop_
 _symmetry_equiv_pos_site_id
 _symmetry_equiv_pos_as_xyz
  1  'x, y, z'
loop_
 _atom_site_type_symbol
 _atom_site_label
 _atom_site_symmetry_multiplicity
 _atom_site_fract_x
 _atom_site_fract_y
 _atom_site_fract_z
 _atom_site_occupancy
  Li  Li0  1  0.45908100  0.09490100  0.34114500  1
  Li  Li1  1  0.04547700  0.41167600  0.65495400  1
  Li  Li2  1  0.33684200  0.20714000  0.84856500  1
  Li  Li3  1  0.65700500  0.78827900  0.15516100  1
  Li  Li4  1  0.95887900  0.59639800  0.34368700  1
  Li  Li5  1  0.55015400  0.91364400  0.65654600  1
  V  V0  1  0.24736200  0.25019500  0.48915700  1
  V  V1  1  0.50008700  0.99948600  0.00185900  1
  V  V2  1  0.99631300  0.49573600  0.00444600  1
  V  V3  1  0.75178200  0.75064600  0.50258900  1
  P  P0  1  0.25752500  0.60476000  0.26840100  1
  P  P1  1  0.75584800  0.10753100  0.26784300  1
  P  P2  1  0.64253600  0.49291600  0.22725100  1
  P  P3  1  0.14539100  0.99345800  0.23059400  1
  P  P4  1  0.35363500  0.50905300  0.76466800  1
  P  P5  1  0.85781400  0.00923000  0.76134600  1
  P  P6  1  0.73887300  0.39521400  0.73932800  1
  P  P7  1  0.23804100  0.89139700  0.73897300  1
  H  H0  1  0.75745800  0.26689400  0.51493100  1
  H  H1  1  0.25378600  0.76592600  0.51169400  1
  H  H2  1  0.48591400  0.49391300  0.98792500  1
  H  H3  1  0.98299100  0.99503100  0.98662100  1
  O  O0  1  0.12675800  0.06490800  0.05224800  1
  O  O1  1  0.16392000  0.11355100  0.35457700  1
  O  O2  1  0.01760200  0.18979200  0.64867900  1
  O  O3  1  0.23168100  0.05483200  0.68863600  1
  O  O4  1  0.63041300  0.08958700  0.16263500  1
  O  O5  1  0.13279900  0.58684700  0.15939700  1
  O  O6  1  0.26954800  0.44407000  0.31882300  1
  O  O7  1  0.48599000  0.31211900  0.35477600  1
  O  O8  1  0.68715400  0.12840000  0.44833000  1
  O  O9  1  0.18201900  0.62576200  0.44650600  1
  O  O10  1  0.33149800  0.38225400  0.65362600  1
  O  O11  1  0.18731400  0.51076400  0.81438400  1
  O  O12  1  0.69521100  0.01469500  0.80886800  1
  O  O13  1  0.61540800  0.56061400  0.05364300  1
  O  O14  1  0.92940200  0.27327900  0.14325700  1
  O  O15  1  0.43586800  0.76067200  0.14997000  1
  O  O16  1  0.56209700  0.23644400  0.84967900  1
  O  O17  1  0.06740200  0.72698500  0.85640000  1
  O  O18  1  0.37768700  0.43121300  0.94048700  1
  O  O19  1  0.80687600  0.48341700  0.18680800  1
  O  O20  1  0.31156300  0.99360100  0.19267400  1
  O  O21  1  0.66515900  0.61692700  0.33774800  1
  O  O22  1  0.81931400  0.37498400  0.55561200  1
  O  O23  1  0.31297700  0.87523500  0.55155000  1
  O  O24  1  0.50635500  0.68791200  0.64944100  1
  O  O25  1  0.73182100  0.55460500  0.68371000  1
  O  O26  1  0.86592700  0.40942400  0.84237500  1
  O  O27  1  0.36898700  0.91440000  0.83584700  1
  O  O28  1  0.76835100  0.94784900  0.30627200  1
  O  O29  1  0.99153000  0.81608600  0.34984500  1
  O  O30  1  0.84482400  0.89177800  0.64975200  1
  O  O31  1  0.87333900  0.94081200  0.95022300  1
loop_
_geom_bond_atom_site_label_1
_geom_bond_atom_site_label_2
_geom_bond_distance
_geom_bond_site_symmetry_2
Li0 O4 1.955204 1_555
Li0 O7 1.964213 1_555
Li0 O23 2.006883 1_545
Li0 O20 2.019417 1_545
Li0 O8 2.379381 1_555
Li1 O9 1.967514 1_555
Li1 O2 1.988734 1_555
Li1 O26 2.010829 1_455
Li1 O11 2.054074 1_555
Li1 O22 2.321956 1_455
Li2 O0 1.936566 1_556
Li2 O16 2.019163 1_555
Li2 O10 2.048013 1_555
Li2 O3 2.125674 1_555
Li2 O18 2.251234 1_555
Li3 O31 1.979588 1_554
Li3 O21 1.981410 1_555
Li3 O15 1.994060 1_555
Li3 O28 2.124915 1_555
Li3 O13 2.322483 1_555
Li4 O29 1.952715 1_555
Li4 O22 2.020122 1_555
Li4 O5 2.020392 1_655
Li4 O19 2.128603 1_555
Li4 O9 2.326196 1_655
Li5 O8 1.970142 1_565
Li5 O24 1.978406 1_555
Li5 O27 2.001150 1_555
Li5 O12 2.030057 1_565
Li5 O23 2.438717 1_555
H0 O22 1.061773 1_555
H0 O8 1.419774 1_555
H1 O23 1.062924 1_555
H1 O9 1.426359 1_555
H2 O18 1.101068 1_555
H2 O13 1.351614 1_556
H3 O31 1.049453 1_555
H3 O0 1.459428 1_666
O0 P3 1.517853 1_545
O1 P3 1.607465 1_545
O1 V0 1.824464 1_555
O2 P5 1.564156 1_455
O2 V0 2.031521 1_555
O3 P7 1.541409 1_545
O3 V0 2.096093 1_555
O4 P1 1.544101 1_555
O4 V1 1.979833 1_545
O5 P0 1.560150 1_555
O5 V2 1.976287 1_455
O6 P0 1.546949 1_555
O6 V0 1.934862 1_555
O7 P2 1.579131 1_555
O7 V0 2.037739 1_555
O8 P1 1.536149 1_555
O9 P0 1.541338 1_555
O10 P4 1.576790 1_555
O10 V0 1.996680 1_555
O11 P4 1.553059 1_555
O11 V2 2.037579 1_456
O12 P5 1.537085 1_555
O12 V1 2.077141 1_546
O13 P2 1.516526 1_555
O14 P1 1.572337 1_555
O14 V2 1.888951 1_555
O15 P0 1.551822 1_555
O15 V1 2.048020 1_555
O16 P6 1.541374 1_555
O16 V1 2.050109 1_546
O17 P7 1.542723 1_555
O17 V2 1.968371 1_456
O18 P4 1.548123 1_555
O19 P2 1.571901 1_555
O19 V2 2.006653 1_555
O20 P3 1.540266 1_555
O20 V1 2.067520 1_555
O21 P2 1.552165 1_555
O21 V3 2.013630 1_555
O22 P6 1.591289 1_555
O23 P7 1.579746 1_555
O24 P4 1.537060 1_555
O24 V3 2.116749 1_555
O25 P6 1.512235 1_555
O25 V3 2.002742 1_555
O26 P6 1.550311 1_555
O26 V2 1.979726 1_556
O27 P7 1.534828 1_555
O27 V1 2.007237 1_556
O28 P1 1.535631 1_565
O28 V3 2.090159 1_555
O29 P3 1.539515 1_655
O29 V3 2.076289 1_555
O30 P5 1.520322 1_565
O30 V3 1.952127 1_555
O31 P5 1.568278 1_565
