# generated using pymatgen
data_Sc6FeTe2
_symmetry_space_group_name_H-M   'P 1'
_cell_length_a   7.73163550
_cell_length_b   7.73163535
_cell_length_c   3.84818603
_cell_angle_alpha   90.00000000
_cell_angle_beta   90.00000000
_cell_angle_gamma   120.00000507
_symmetry_Int_Tables_number   1
_chemical_formula_structural   Sc6FeTe2
_chemical_formula_sum   'Sc6 Fe1 Te2'
_cell_volume   199.21837934
_cell_formula_units_Z   1
loop_
 _symmetry_equiv_pos_site_id
 _symmetry_equiv_pos_as_xyz
  1  'x, y, z'
loop_
 _atom_site_type_symbol
 _atom_site_label
 _atom_site_symmetry_multiplicity
 _atom_site_fract_x
 _atom_site_fract_y
 _atom_site_fract_z
 _atom_site_occupancy
  Sc  Sc0  1  0.23631497  -0.00000000  0.50000000  1
  Sc  Sc1  1  0.76368503  0.76368503  0.50000000  1
  Sc  Sc2  1  -0.00000000  0.23631497  0.50000000  1
  Sc  Sc3  1  0.61003693  0.00000000  0.00000000  1
  Sc  Sc4  1  0.38996307  0.38996307  0.00000000  1
  Sc  Sc5  1  0.00000000  0.61003693  -0.00000000  1
  Fe  Fe0  1  0.00000000  0.00000000  0.00000000  1
  Te  Te0  1  0.33333300  0.66666700  0.50000000  1
  Te  Te1  1  0.66666700  0.33333300  0.50000000  1
loop_
_geom_bond_atom_site_label_1
_geom_bond_atom_site_label_2
_geom_bond_distance
_geom_bond_site_symmetry_2
Sc0 Te0 3.022889 1_545
Sc0 Te1 3.022894 1_555
Sc1 Te1 3.022896 1_555
Sc1 Te0 3.022896 1_555
Sc2 Te1 3.022889 1_455
Sc2 Te0 3.022893 1_555
Sc3 Te1 3.067154 1_555
Sc3 Te1 3.067154 1_554
Sc3 Te0 3.067156 1_544
Sc3 Te0 3.067156 1_545
Sc4 Te0 3.067160 1_555
Sc4 Te0 3.067160 1_554
Sc4 Te1 3.067160 1_554
Sc4 Te1 3.067160 1_555
Sc5 Te0 3.067154 1_554
Sc5 Te0 3.067154 1_555
Sc5 Te1 3.067156 1_455
Sc5 Te1 3.067156 1_454
Fe0 Sc1 2.653381 1_445
Fe0 Sc1 2.653381 1_444
Fe0 Sc2 2.653381 1_554
Fe0 Sc2 2.653381 1_555
Fe0 Sc0 2.653381 1_555
Fe0 Sc0 2.653381 1_554
Fe0 Sc4 3.015052 1_555
Fe0 Sc5 3.015052 1_545
Fe0 Sc3 3.015052 1_455
