# generated using pymatgen
data_DyThN2
_symmetry_space_group_name_H-M   'P 1'
_cell_length_a   6.15117794
_cell_length_b   6.15117794
_cell_length_c   6.15117699
_cell_angle_alpha   33.73169942
_cell_angle_beta   33.73169942
_cell_angle_gamma   33.73170348
_symmetry_Int_Tables_number   1
_chemical_formula_structural   DyThN2
_chemical_formula_sum   'Dy1 Th1 N2'
_cell_volume   63.94479485
_cell_formula_units_Z   1
loop_
 _symmetry_equiv_pos_site_id
 _symmetry_equiv_pos_as_xyz
  1  'x, y, z'
loop_
 _atom_site_type_symbol
 _atom_site_label
 _atom_site_symmetry_multiplicity
 _atom_site_fract_x
 _atom_site_fract_y
 _atom_site_fract_z
 _atom_site_occupancy
  Dy  Dy0  1  0.00000000  0.00000000  -0.00000000  1
  Th  Th0  1  0.50000000  0.50000000  0.50000000  1
  N  N0  1  0.25200709  0.25200709  0.25200709  1
  N  N1  1  0.74799291  0.74799291  0.74799291  1
loop_
_geom_bond_atom_site_label_1
_geom_bond_atom_site_label_2
_geom_bond_distance
_geom_bond_site_symmetry_2
Dy0 N1 2.499226 1_445
Dy0 N0 2.499226 1_554
Dy0 N0 2.499227 1_545
Dy0 N0 2.499227 1_455
Dy0 N1 2.499227 1_544
Dy0 N1 2.499227 1_454
N0 Th0 2.539367 1_554
N0 Th0 2.539368 1_455
N0 Th0 2.539368 1_545
N1 Th0 2.539367 1_556
N1 Th0 2.539368 1_655
N1 Th0 2.539368 1_565
