# generated using pymatgen
data_Mg2TiIn3S8
_symmetry_space_group_name_H-M   'P 1'
_cell_length_a   7.64855684
_cell_length_b   7.59844550
_cell_length_c   7.64840471
_cell_angle_alpha   59.82221588
_cell_angle_beta   59.98526031
_cell_angle_gamma   59.77630444
_symmetry_Int_Tables_number   1
_chemical_formula_structural   Mg2TiIn3S8
_chemical_formula_sum   'Mg2 Ti1 In3 S8'
_cell_volume   313.31952114
_cell_formula_units_Z   1
loop_
 _symmetry_equiv_pos_site_id
 _symmetry_equiv_pos_as_xyz
  1  'x, y, z'
loop_
 _atom_site_type_symbol
 _atom_site_label
 _atom_site_symmetry_multiplicity
 _atom_site_fract_x
 _atom_site_fract_y
 _atom_site_fract_z
 _atom_site_occupancy
  Mg  Mg0  1  0.87424200  0.87649300  0.87462800  1
  Mg  Mg1  1  0.12565200  0.12393300  0.12535900  1
  Ti  Ti0  1  0.50034700  0.99968900  0.50019300  1
  In  In0  1  0.50010600  0.49964300  0.50004600  1
  In  In1  1  0.49961100  0.50003200  0.00005000  1
  In  In2  1  0.00001100  0.50012100  0.49995600  1
  S  S0  1  0.73362900  0.75839200  0.73372000  1
  S  S1  1  0.26636000  0.24172000  0.72568100  1
  S  S2  1  0.25785000  0.72666100  0.25760100  1
  S  S3  1  0.72581000  0.24168400  0.26592200  1
  S  S4  1  0.74201200  0.27381300  0.74227300  1
  S  S5  1  0.27414100  0.75845100  0.73369900  1
  S  S6  1  0.26655700  0.24118900  0.26661100  1
  S  S7  1  0.73367800  0.75817500  0.27426200  1
loop_
_geom_bond_atom_site_label_1
_geom_bond_atom_site_label_2
_geom_bond_distance
_geom_bond_site_symmetry_2
Mg0 S4 2.457603 1_565
Mg0 S0 2.495398 1_555
Mg0 S7 2.495891 1_556
Mg0 S5 2.496672 1_655
Mg1 S2 2.457306 1_545
Mg1 S6 2.494336 1_555
Mg1 S1 2.496328 1_554
Mg1 S3 2.496405 1_455
In0 S4 2.614773 1_555
In0 S2 2.617456 1_555
In0 S1 2.656281 1_555
In0 S3 2.656712 1_555
In0 S7 2.658730 1_555
In0 S5 2.658842 1_555
In1 S4 2.611696 1_554
In1 S2 2.612555 1_555
In1 S5 2.657746 1_554
In1 S6 2.657949 1_555
In1 S3 2.658782 1_555
In1 S0 2.660174 1_554
In2 S4 2.615169 1_455
In2 S2 2.615476 1_555
In2 S0 2.656468 1_455
In2 S6 2.657898 1_555
In2 S7 2.658554 1_455
In2 S1 2.658868 1_555
S0 Ti0 2.517514 1_555
S1 Ti0 2.519261 1_545
S3 Ti0 2.520735 1_545
S5 Ti0 2.520569 1_555
S6 Ti0 2.520539 1_545
S7 Ti0 2.518810 1_555
