# generated using pymatgen
data_Na3VP8O23
_symmetry_space_group_name_H-M   'P 1'
_cell_length_a   12.17756500
_cell_length_b   12.17756500
_cell_length_c   12.17756500
_cell_angle_alpha   90.00000000
_cell_angle_beta   90.00000000
_cell_angle_gamma   90.00000000
_symmetry_Int_Tables_number   1
_chemical_formula_structural   Na3VP8O23
_chemical_formula_sum   'Na12 V4 P32 O92'
_cell_volume   1805.84873436
_cell_formula_units_Z   4
loop_
 _symmetry_equiv_pos_site_id
 _symmetry_equiv_pos_as_xyz
  1  'x, y, z'
loop_
 _atom_site_type_symbol
 _atom_site_label
 _atom_site_symmetry_multiplicity
 _atom_site_fract_x
 _atom_site_fract_y
 _atom_site_fract_z
 _atom_site_occupancy
  Na  Na0  1  0.37500000  0.95557000  0.79443000  1
  Na  Na1  1  0.87500000  0.54443000  0.20557000  1
  Na  Na2  1  0.04443000  0.29443000  0.12500000  1
  Na  Na3  1  0.95557000  0.79443000  0.37500000  1
  Na  Na4  1  0.20557000  0.87500000  0.54443000  1
  Na  Na5  1  0.29443000  0.12500000  0.04443000  1
  Na  Na6  1  0.45557000  0.70557000  0.62500000  1
  Na  Na7  1  0.79443000  0.37500000  0.95557000  1
  Na  Na8  1  0.70557000  0.62500000  0.45557000  1
  Na  Na9  1  0.54443000  0.20557000  0.87500000  1
  Na  Na10  1  0.62500000  0.45557000  0.70557000  1
  Na  Na11  1  0.12500000  0.04443000  0.29443000  1
  V  V0  1  0.87500000  0.12500000  0.62500000  1
  V  V1  1  0.12500000  0.62500000  0.87500000  1
  V  V2  1  0.62500000  0.87500000  0.12500000  1
  V  V3  1  0.37500000  0.37500000  0.37500000  1
  P  P0  1  0.06852800  0.35902700  0.85400200  1
  P  P1  1  0.89599800  0.39097300  0.68147200  1
  P  P2  1  0.35902700  0.85400200  0.06852800  1
  P  P3  1  0.85902700  0.64599800  0.93147200  1
  P  P4  1  0.64097300  0.35400200  0.43147200  1
  P  P5  1  0.64599800  0.93147200  0.85902700  1
  P  P6  1  0.43147200  0.64097300  0.35400200  1
  P  P7  1  0.93147200  0.85902700  0.64599800  1
  P  P8  1  0.85400200  0.06852800  0.35902700  1
  P  P9  1  0.60400200  0.60902700  0.18147200  1
  P  P10  1  0.35400200  0.43147200  0.64097300  1
  P  P11  1  0.14599800  0.56852800  0.14097300  1
  P  P12  1  0.81852800  0.10400200  0.89097300  1
  P  P13  1  0.39599800  0.10902700  0.31852800  1
  P  P14  1  0.10400200  0.89097300  0.81852800  1
  P  P15  1  0.68147200  0.89599800  0.39097300  1
  P  P16  1  0.31852800  0.39599800  0.10902700  1
  P  P17  1  0.89097300  0.81852800  0.10400200  1
  P  P18  1  0.39097300  0.68147200  0.89599800  1
  P  P19  1  0.14097300  0.14599800  0.56852800  1
  P  P20  1  0.18147200  0.60400200  0.60902700  1
  P  P21  1  0.10902700  0.31852800  0.39599800  1
  P  P22  1  0.60902700  0.18147200  0.60400200  1
  P  P23  1  0.01730500  0.01730500  0.01730500  1
  P  P24  1  0.26730500  0.23269500  0.76730500  1
  P  P25  1  0.76730500  0.26730500  0.23269500  1
  P  P26  1  0.23269500  0.76730500  0.26730500  1
  P  P27  1  0.48269500  0.98269500  0.51730500  1
  P  P28  1  0.51730500  0.48269500  0.98269500  1
  P  P29  1  0.98269500  0.51730500  0.48269500  1
  P  P30  1  0.73269500  0.73269500  0.73269500  1
  P  P31  1  0.56852800  0.14097300  0.14599800  1
  O  O0  1  0.66238800  0.66238800  0.66238800  1
  O  O1  1  0.91238800  0.58761200  0.41238800  1
  O  O2  1  0.58761200  0.41238800  0.91238800  1
  O  O3  1  0.41238800  0.91238800  0.58761200  1
  O  O4  1  0.16238800  0.83761200  0.33761200  1
  O  O5  1  0.83761200  0.33761200  0.16238800  1
  O  O6  1  0.33761200  0.16238800  0.83761200  1
  O  O7  1  0.08761200  0.08761200  0.08761200  1
  O  O8  1  0.43661900  0.51129900  0.68212600  1
  O  O9  1  0.93661900  0.98870100  0.31787400  1
  O  O10  1  0.51129900  0.68212600  0.43661900  1
  O  O11  1  0.48870100  0.18212600  0.06338100  1
  O  O12  1  0.68212600  0.43661900  0.51129900  1
  O  O13  1  0.81787400  0.56338100  0.01129900  1
  O  O14  1  0.18661900  0.93212600  0.73870100  1
  O  O15  1  0.68661900  0.56787400  0.26129900  1
  O  O16  1  0.81338100  0.43212600  0.76129900  1
  O  O17  1  0.56787400  0.26129900  0.68661900  1
  O  O18  1  0.76129900  0.81338100  0.43212600  1
  O  O19  1  0.26129900  0.68661900  0.56787400  1
  O  O20  1  0.93212600  0.73870100  0.18661900  1
  O  O21  1  0.73870100  0.18661900  0.93212600  1
  O  O22  1  0.43212600  0.76129900  0.81338100  1
  O  O23  1  0.06787400  0.23870100  0.31338100  1
  O  O24  1  0.23870100  0.31338100  0.06787400  1
  O  O25  1  0.31787400  0.93661900  0.98870100  1
  O  O26  1  0.18212600  0.06338100  0.48870100  1
  O  O27  1  0.01129900  0.81787400  0.56338100  1
  O  O28  1  0.98870100  0.31787400  0.93661900  1
  O  O29  1  0.06338100  0.48870100  0.18212600  1
  O  O30  1  0.56338100  0.01129900  0.81787400  1
  O  O31  1  0.31338100  0.06787400  0.23870100  1
  O  O32  1  0.62500000  0.23389000  0.48389000  1
  O  O33  1  0.76611000  0.98389000  0.87500000  1
  O  O34  1  0.74031000  0.32529600  0.34548100  1
  O  O35  1  0.48389000  0.62500000  0.23389000  1
  O  O36  1  0.23389000  0.48389000  0.62500000  1
  O  O37  1  0.51611000  0.12500000  0.26611000  1
  O  O38  1  0.98389000  0.87500000  0.76611000  1
  O  O39  1  0.73389000  0.01611000  0.37500000  1
  O  O40  1  0.26611000  0.51611000  0.12500000  1
  O  O41  1  0.87500000  0.76611000  0.98389000  1
  O  O42  1  0.37500000  0.73389000  0.01611000  1
  O  O43  1  0.12500000  0.26611000  0.51611000  1
  O  O44  1  0.32529600  0.34548100  0.74031000  1
  O  O45  1  0.82529600  0.15451900  0.25969000  1
  O  O46  1  0.34548100  0.74031000  0.32529600  1
  O  O47  1  0.65451900  0.24031000  0.17470400  1
  O  O48  1  0.04071800  0.12048300  0.63576000  1
  O  O49  1  0.29071800  0.61424000  0.87048300  1
  O  O50  1  0.79071800  0.88576000  0.12951700  1
  O  O51  1  0.38576000  0.37048300  0.20928200  1
  O  O52  1  0.61424000  0.87048300  0.29071800  1
  O  O53  1  0.12951700  0.79071800  0.88576000  1
  O  O54  1  0.37048300  0.20928200  0.38576000  1
  O  O55  1  0.63576000  0.04071800  0.12048300  1
  O  O56  1  0.12048300  0.63576000  0.04071800  1
  O  O57  1  0.37951700  0.36424000  0.54071800  1
  O  O58  1  0.13576000  0.45928200  0.87951700  1
  O  O59  1  0.87951700  0.13576000  0.45928200  1
  O  O60  1  0.86424000  0.95928200  0.62048300  1
  O  O61  1  0.36424000  0.54071800  0.37951700  1
  O  O62  1  0.62048300  0.86424000  0.95928200  1
  O  O63  1  0.54071800  0.37951700  0.36424000  1
  O  O64  1  0.95928200  0.62048300  0.86424000  1
  O  O65  1  0.45928200  0.87951700  0.13576000  1
  O  O66  1  0.87048300  0.29071800  0.61424000  1
  O  O67  1  0.62951700  0.70928200  0.11424000  1
  O  O68  1  0.88576000  0.12951700  0.79071800  1
  O  O69  1  0.11424000  0.62951700  0.70928200  1
  O  O70  1  0.20928200  0.38576000  0.37048300  1
  O  O71  1  0.70928200  0.11424000  0.62951700  1
  O  O72  1  0.42470400  0.00969000  0.40451900  1
  O  O73  1  0.67470400  0.84548100  0.75969000  1
  O  O74  1  0.17470400  0.65451900  0.24031000  1
  O  O75  1  0.15451900  0.25969000  0.82529600  1
  O  O76  1  0.84548100  0.75969000  0.67470400  1
  O  O77  1  0.24031000  0.17470400  0.65451900  1
  O  O78  1  0.25969000  0.82529600  0.15451900  1
  O  O79  1  0.40451900  0.42470400  0.00969000  1
  O  O80  1  0.00969000  0.40451900  0.42470400  1
  O  O81  1  0.49031000  0.59548100  0.92470400  1
  O  O82  1  0.90451900  0.07529600  0.99031000  1
  O  O83  1  0.99031000  0.90451900  0.07529600  1
  O  O84  1  0.09548100  0.57529600  0.50969000  1
  O  O85  1  0.59548100  0.92470400  0.49031000  1
  O  O86  1  0.50969000  0.09548100  0.57529600  1
  O  O87  1  0.92470400  0.49031000  0.59548100  1
  O  O88  1  0.57529600  0.50969000  0.09548100  1
  O  O89  1  0.07529600  0.99031000  0.90451900  1
  O  O90  1  0.75969000  0.67470400  0.84548100  1
  O  O91  1  0.01611000  0.37500000  0.73389000  1
loop_
_geom_bond_atom_site_label_1
_geom_bond_atom_site_label_2
_geom_bond_distance
_geom_bond_site_symmetry_2
Na0 O30 2.409273 1_565
Na0 O14 2.409273 1_555
Na0 O25 2.476683 1_555
Na0 O22 2.476683 1_555
Na0 O6 2.612825 1_565
Na0 O3 2.612825 1_555
Na1 O29 2.409273 1_655
Na1 O15 2.409273 1_555
Na1 O20 2.476683 1_555
Na1 O13 2.476683 1_555
Na1 O1 2.612825 1_555
Na1 O5 2.612825 1_555
Na2 O23 2.409273 1_555
Na2 O28 2.409273 1_454
Na2 O29 2.476683 1_555
Na2 O24 2.476683 1_555
Na2 O7 2.612825 1_555
Na2 O5 2.612825 1_455
Na3 O27 2.409273 1_655
Na3 O20 2.409273 1_555
Na3 O9 2.476683 1_555
Na3 O18 2.476683 1_555
Na3 O4 2.612825 1_655
Na3 O1 2.612825 1_555
Na4 O26 2.409273 1_565
Na4 O19 2.409273 1_555
Na4 O14 2.476683 1_555
Na4 O27 2.476683 1_555
Na4 O3 2.612825 1_555
Na4 O4 2.612825 1_555
Na5 O24 2.409273 1_555
Na5 O25 2.409273 1_544
Na5 O11 2.476683 1_555
Na5 O31 2.476683 1_555
Na5 O7 2.612825 1_555
Na5 O6 2.612825 1_554
Na6 O22 2.409273 1_555
Na6 O10 2.409273 1_555
Na6 O19 2.476683 1_555
Na6 O8 2.476683 1_555
Na6 O3 2.612825 1_555
Na6 O0 2.612825 1_555
Na7 O13 2.409273 1_556
Na7 O21 2.409273 1_555
Na7 O28 2.476683 1_555
Na7 O16 2.476683 1_555
Na7 O5 2.612825 1_556
Na7 O2 2.612825 1_555
Na8 O18 2.409273 1_555
Na8 O12 2.409273 1_555
Na8 O15 2.476683 1_555
Na8 O10 2.476683 1_555
Na8 O1 2.612825 1_555
Na8 O0 2.612825 1_555
Na9 O11 2.409273 1_556
Na9 O17 2.409273 1_555
Na9 O21 2.476683 1_555
Na9 O30 2.476683 1_555
Na9 O2 2.612825 1_555
Na9 O6 2.612825 1_555
Na10 O16 2.409273 1_555
Na10 O8 2.409273 1_555
Na10 O17 2.476683 1_555
Na10 O12 2.476683 1_555
Na10 O2 2.612825 1_555
Na10 O0 2.612825 1_555
Na11 O31 2.409273 1_555
Na11 O9 2.409273 1_445
Na11 O26 2.476683 1_555
Na11 O23 2.476683 1_555
Na11 O7 2.612825 1_555
Na11 O4 2.612825 1_545
O0 P30 1.482927 1_555
O1 P29 1.482927 1_555
O2 P28 1.482927 1_555
O3 P27 1.482927 1_555
O4 P26 1.482927 1_555
O5 P25 1.482927 1_555
O6 P24 1.482927 1_555
O7 P23 1.482927 1_555
O8 P10 1.486037 1_555
O9 P8 1.486037 1_565
O10 P6 1.486037 1_555
O11 P31 1.486037 1_555
O12 P4 1.486037 1_555
O13 P3 1.486037 1_554
O14 P14 1.486037 1_555
O15 P9 1.486037 1_555
O16 P1 1.486037 1_555
O17 P22 1.486037 1_555
O18 P15 1.486037 1_555
O19 P20 1.486037 1_555
O20 P17 1.486037 1_555
O21 P12 1.486037 1_555
O22 P18 1.486037 1_555
O23 P21 1.486037 1_555
O24 P16 1.486037 1_555
O25 P2 1.486037 1_556
O26 P19 1.486037 1_555
O27 P7 1.486037 1_455
O28 P0 1.486037 1_655
O29 P11 1.486037 1_555
O30 P5 1.486037 1_545
O31 P13 1.486037 1_555
O32 P22 1.607700 1_555
O32 P4 1.607700 1_555
O33 P12 1.607700 1_565
O33 P5 1.607700 1_555
O34 P25 1.578974 1_555
O34 P4 1.637705 1_555
O35 P9 1.607700 1_555
O35 P6 1.607700 1_555
O36 P20 1.607700 1_555
O36 P10 1.607700 1_555
O37 P31 1.607700 1_555
O37 P13 1.607700 1_555
O38 P14 1.607700 1_655
O38 P7 1.607700 1_555
O39 P8 1.607700 1_555
O39 P15 1.607700 1_545
O40 P11 1.607700 1_555
O40 P16 1.607700 1_555
O41 P17 1.607700 1_556
O41 P3 1.607700 1_555
O42 P2 1.607700 1_555
O42 P18 1.607700 1_554
O43 P19 1.607700 1_555
O43 P21 1.607700 1_555
O44 P24 1.578974 1_555
O44 P10 1.637705 1_555
O45 P25 1.578974 1_555
O45 P8 1.637705 1_555
O46 P26 1.578974 1_555
O46 P6 1.637705 1_555
O47 P25 1.578974 1_555
O47 P31 1.637705 1_555
O48 P19 1.502448 1_555
O48 V0 2.023039 1_455
O49 P18 1.502448 1_555
O49 V1 2.023039 1_555
O50 P17 1.502448 1_555
O50 V2 2.023039 1_555
O51 P16 1.502448 1_555
O51 V3 2.023039 1_555
O52 P15 1.502448 1_555
O52 V2 2.023039 1_555
O53 P14 1.502448 1_555
O53 V1 2.023039 1_555
O54 P13 1.502448 1_555
O54 V3 2.023039 1_555
O55 P31 1.502448 1_555
O55 V2 2.023039 1_545
O56 P11 1.502448 1_555
O56 V1 2.023039 1_554
O57 P10 1.502448 1_555
O57 V3 2.023039 1_555
O58 P0 1.502448 1_555
O58 V1 2.023039 1_555
O59 P8 1.502448 1_555
O59 V0 2.023039 1_555
O60 P7 1.502448 1_555
O60 V0 2.023039 1_565
O61 P6 1.502448 1_555
O61 V3 2.023039 1_555
O62 P5 1.502448 1_555
O62 V2 2.023039 1_556
O63 P4 1.502448 1_555
O63 V3 2.023039 1_555
O64 P3 1.502448 1_555
O64 V1 2.023039 1_655
O65 P2 1.502448 1_555
O65 V2 2.023039 1_555
O66 P1 1.502448 1_555
O66 V0 2.023039 1_555
O67 P9 1.502448 1_555
O67 V2 2.023039 1_555
O68 P12 1.502448 1_555
O68 V0 2.023039 1_555
O69 P20 1.502448 1_555
O69 V1 2.023039 1_555
O70 P21 1.502448 1_555
O70 V3 2.023039 1_555
O71 P22 1.502448 1_555
O71 V0 2.023039 1_555
O72 P27 1.578974 1_545
O72 P13 1.637705 1_555
O73 P30 1.578974 1_555
O73 P5 1.637705 1_555
O74 P26 1.578974 1_555
O74 P11 1.637705 1_555
O75 P24 1.578974 1_555
O75 P0 1.637705 1_555
O76 P30 1.578974 1_555
O76 P7 1.637705 1_555
O77 P24 1.578974 1_555
O77 P19 1.637705 1_555
O78 P26 1.578974 1_555
O78 P2 1.637705 1_555
O79 P28 1.578974 1_554
O79 P16 1.637705 1_555
O80 P29 1.578974 1_455
O80 P21 1.637705 1_555
O81 P28 1.578974 1_555
O81 P18 1.637705 1_555
O82 P23 1.578974 1_656
O82 P12 1.637705 1_555
O83 P23 1.578974 1_665
O83 P17 1.637705 1_555
O84 P29 1.578974 1_455
O84 P20 1.637705 1_555
O85 P27 1.578974 1_555
O85 P15 1.637705 1_555
O86 P27 1.578974 1_545
O86 P22 1.637705 1_555
O87 P29 1.578974 1_555
O87 P1 1.637705 1_555
O88 P28 1.578974 1_554
O88 P9 1.637705 1_555
O89 P23 1.578974 1_566
O89 P14 1.637705 1_555
O90 P30 1.578974 1_555
O90 P3 1.637705 1_555
O91 P0 1.607700 1_555
O91 P1 1.607700 1_455
