# generated using pymatgen
data_Zn3Fe16Ni5O32
_symmetry_space_group_name_H-M   'P 1'
_cell_length_a   8.37499700
_cell_length_b   8.39951000
_cell_length_c   8.42774226
_cell_angle_alpha   89.88423341
_cell_angle_beta   89.93725688
_cell_angle_gamma   89.99807639
_symmetry_Int_Tables_number   1
_chemical_formula_structural   Zn3Fe16Ni5O32
_chemical_formula_sum   'Zn3 Fe16 Ni5 O32'
_cell_volume   592.85530438
_cell_formula_units_Z   1
loop_
 _symmetry_equiv_pos_site_id
 _symmetry_equiv_pos_as_xyz
  1  'x, y, z'
loop_
 _atom_site_type_symbol
 _atom_site_label
 _atom_site_symmetry_multiplicity
 _atom_site_fract_x
 _atom_site_fract_y
 _atom_site_fract_z
 _atom_site_occupancy
  Zn  Zn0  1  0.00463800  0.99986500  0.99896200  1
  Zn  Zn1  1  0.49640300  0.50215400  0.99978400  1
  Zn  Zn2  1  0.24911700  0.74755800  0.74920900  1
  Fe  Fe0  1  0.49964600  0.00140800  0.50533100  1
  Fe  Fe1  1  0.00161200  0.50165700  0.50644600  1
  Fe  Fe2  1  0.74980400  0.25036200  0.74671500  1
  Fe  Fe3  1  0.24828900  0.25066900  0.24496400  1
  Fe  Fe4  1  0.74985200  0.74640800  0.24811700  1
  Fe  Fe5  1  0.87423200  0.12715400  0.37528500  1
  Fe  Fe6  1  0.12499500  0.37454300  0.87480600  1
  Fe  Fe7  1  0.62345300  0.12419000  0.12627600  1
  Fe  Fe8  1  0.87454200  0.37466400  0.12687100  1
  Fe  Fe9  1  0.87449700  0.87524600  0.62398500  1
  Fe  Fe10  1  0.37606600  0.62363700  0.37508000  1
  Fe  Fe11  1  0.37311700  0.12651500  0.87371400  1
  Fe  Fe12  1  0.87610200  0.62414900  0.87477500  1
  Fe  Fe13  1  0.62439500  0.87189100  0.87334200  1
  Fe  Fe14  1  0.62656500  0.37364900  0.37499900  1
  Fe  Fe15  1  0.12499800  0.87644000  0.37317100  1
  Ni  Ni0  1  0.62400100  0.62487200  0.62593300  1
  Ni  Ni1  1  0.37294200  0.87224900  0.12302900  1
  Ni  Ni2  1  0.12554300  0.12572400  0.62627400  1
  Ni  Ni3  1  0.12687200  0.62560800  0.12255800  1
  Ni  Ni4  1  0.37407000  0.37600000  0.62623700  1
  O  O0  1  0.38893600  0.37850500  0.37469100  1
  O  O1  1  0.61662600  0.11871600  0.88285300  1
  O  O2  1  0.10443100  0.88227400  0.61336500  1
  O  O3  1  0.87597300  0.60993200  0.11374000  1
  O  O4  1  0.13058700  0.63029300  0.37164700  1
  O  O5  1  0.86157800  0.86093500  0.85951700  1
  O  O6  1  0.64161000  0.36473400  0.14220800  1
  O  O7  1  0.37112000  0.12895900  0.63770000  1
  O  O8  1  0.87821600  0.88909200  0.38555100  1
  O  O9  1  0.88336300  0.38240600  0.88701900  1
  O  O10  1  0.39026900  0.89205300  0.88071100  1
  O  O11  1  0.10765000  0.60687200  0.88152900  1
  O  O12  1  0.11139600  0.12134800  0.37832700  1
  O  O13  1  0.62221400  0.61081500  0.37809700  1
  O  O14  1  0.62480400  0.37824000  0.61005100  1
  O  O15  1  0.62549900  0.88697100  0.12314600  1
  O  O16  1  0.10902700  0.37700500  0.11297800  1
  O  O17  1  0.38424800  0.12403800  0.11391400  1
  O  O18  1  0.38388900  0.61634700  0.61033600  1
  O  O19  1  0.87650300  0.11440100  0.61036400  1
  O  O20  1  0.63577500  0.13747900  0.36917100  1
  O  O21  1  0.64249900  0.63771200  0.86847000  1
  O  O22  1  0.13883100  0.14186300  0.86707600  1
  O  O23  1  0.36124300  0.35840300  0.86854000  1
  O  O24  1  0.36943700  0.86952300  0.37327800  1
  O  O25  1  0.86430100  0.36391100  0.36695300  1
  O  O26  1  0.13023500  0.86737700  0.13980000  1
  O  O27  1  0.12717700  0.37047700  0.63712900  1
  O  O28  1  0.64130900  0.87170400  0.62630600  1
  O  O29  1  0.87176200  0.63776900  0.63717300  1
  O  O30  1  0.86586900  0.14049500  0.14157100  1
  O  O31  1  0.36787000  0.63273900  0.14092600  1
loop_
_geom_bond_atom_site_label_1
_geom_bond_atom_site_label_2
_geom_bond_distance
_geom_bond_site_symmetry_2
Fe0 O7 1.884966 1_555
Fe0 O28 1.905796 1_545
Fe0 O24 1.913800 1_545
Fe0 O20 1.978585 1_555
Fe1 O27 1.878962 1_555
Fe1 O4 1.901903 1_555
Fe1 O29 1.925076 1_455
Fe1 O25 2.012885 1_455
Fe2 O14 1.890450 1_555
Fe2 O19 1.937310 1_555
Fe2 O1 1.943009 1_555
Fe2 O9 1.971735 1_555
Fe3 O17 1.910392 1_555
Fe3 O16 1.929160 1_555
Fe3 O0 1.934791 1_555
Fe3 O12 1.936467 1_555
Fe4 O15 1.893453 1_555
Fe4 O13 1.905854 1_555
Fe4 O3 1.927396 1_555
Fe4 O8 1.985462 1_555
Fe5 O30 1.973960 1_555
Fe5 O19 1.983975 1_555
Fe5 O12 1.987037 1_655
Fe5 O25 1.991478 1_555
Fe5 O20 1.999672 1_555
Fe5 O8 2.001579 1_545
Fe6 O11 1.957774 1_555
Fe6 O22 1.959037 1_555
Fe6 O23 1.983863 1_555
Fe6 O27 2.003504 1_555
Fe6 O16 2.011704 1_556
Fe6 O9 2.027251 1_455
Fe7 O15 1.992824 1_545
Fe7 O17 2.006163 1_555
Fe7 O6 2.030896 1_555
Fe7 O30 2.039089 1_555
Fe7 O1 2.052973 1_554
Fe7 O20 2.053031 1_555
Fe8 O6 1.956711 1_555
Fe8 O16 1.967267 1_655
Fe8 O30 1.971888 1_555
Fe8 O3 1.979045 1_555
Fe8 O9 2.023593 1_554
Fe8 O25 2.026904 1_555
Fe9 O2 1.928578 1_655
Fe9 O28 1.953252 1_555
Fe9 O5 1.991220 1_555
Fe9 O29 1.997691 1_555
Fe9 O19 2.011900 1_565
Fe9 O8 2.012795 1_555
Fe10 O31 1.975983 1_555
Fe10 O18 1.984652 1_555
Fe10 O4 2.056878 1_555
Fe10 O0 2.061813 1_555
Fe10 O13 2.064478 1_555
Fe10 O24 2.066092 1_555
Fe11 O23 1.950681 1_555
Fe11 O22 1.967220 1_555
Fe11 O10 1.975359 1_545
Fe11 O7 1.989218 1_555
Fe11 O17 2.026656 1_556
Fe11 O1 2.041969 1_555
Fe12 O11 1.945518 1_655
Fe12 O21 1.960507 1_555
Fe12 O5 1.996493 1_555
Fe12 O29 2.005852 1_555
Fe12 O3 2.017231 1_556
Fe12 O9 2.033845 1_555
Fe13 O10 1.969021 1_555
Fe13 O21 1.973325 1_555
Fe13 O5 1.991828 1_555
Fe13 O1 2.075935 1_565
Fe13 O28 2.086618 1_555
Fe13 O15 2.109377 1_556
Fe14 O6 1.967383 1_555
Fe14 O14 1.981450 1_555
Fe14 O20 1.985913 1_555
Fe14 O0 1.990563 1_555
Fe14 O13 1.992634 1_555
Fe14 O25 1.993800 1_555
Fe15 O26 1.968858 1_555
Fe15 O2 2.032110 1_555
Fe15 O24 2.047999 1_555
Fe15 O12 2.060798 1_565
Fe15 O4 2.068108 1_555
Fe15 O8 2.072050 1_455
Ni0 O18 2.016656 1_555
Ni0 O21 2.053123 1_555
Ni0 O14 2.076188 1_555
Ni0 O28 2.078343 1_555
Ni0 O29 2.080099 1_555
Ni0 O13 2.092341 1_555
Ni1 O31 2.017554 1_555
Ni1 O26 2.037831 1_555
Ni1 O10 2.053598 1_554
Ni1 O24 2.109284 1_555
Ni1 O17 2.118261 1_565
Ni1 O15 2.118781 1_555
Ni2 O22 2.037376 1_555
Ni2 O2 2.055607 1_545
Ni2 O27 2.058071 1_555
Ni2 O7 2.059248 1_555
Ni2 O19 2.092340 1_455
Ni2 O12 2.093516 1_555
Ni3 O31 2.025351 1_555
Ni3 O26 2.036424 1_555
Ni3 O11 2.044259 1_554
Ni3 O16 2.095215 1_555
Ni3 O4 2.099971 1_555
Ni3 O3 2.106806 1_455
Ni4 O18 2.024637 1_555
Ni4 O23 2.049811 1_555
Ni4 O27 2.070182 1_555
Ni4 O7 2.077223 1_555
Ni4 O14 2.104256 1_555
Ni4 O0 2.123543 1_555
O2 Zn2 2.014234 1_555
O5 Zn0 2.046240 1_655
O6 Zn1 2.061429 1_554
O10 Zn2 2.026613 1_555
O11 Zn2 2.008873 1_555
O18 Zn2 1.964861 1_555
O21 Zn1 2.002578 1_555
O22 Zn0 1.978149 1_545
O23 Zn1 1.992716 1_555
O26 Zn0 1.936750 1_554
O30 Zn0 2.047695 1_644
O31 Zn1 1.944009 1_554
