# generated using pymatgen
data_EuTlS2O9
_symmetry_space_group_name_H-M   'P 1'
_cell_length_a   8.86357674
_cell_length_b   10.59219155
_cell_length_c   10.43460760
_cell_angle_alpha   119.76440147
_cell_angle_beta   90.00000000
_cell_angle_gamma   90.00000000
_symmetry_Int_Tables_number   1
_chemical_formula_structural   EuTlS2O9
_chemical_formula_sum   'Eu4 Tl4 S8 O36'
_cell_volume   850.40878182
_cell_formula_units_Z   4
loop_
 _symmetry_equiv_pos_site_id
 _symmetry_equiv_pos_as_xyz
  1  'x, y, z'
loop_
 _atom_site_type_symbol
 _atom_site_label
 _atom_site_symmetry_multiplicity
 _atom_site_fract_x
 _atom_site_fract_y
 _atom_site_fract_z
 _atom_site_occupancy
  Eu  Eu0  1  0.36731890  0.96086134  0.71669907  1
  Eu  Eu1  1  0.63268110  0.03913866  0.28330093  1
  Eu  Eu2  1  0.86731890  0.53913866  0.78330093  1
  Eu  Eu3  1  0.13268110  0.46086134  0.21669907  1
  Tl  Tl0  1  0.32102350  0.69176842  0.97466342  1
  Tl  Tl1  1  0.67897650  0.30823158  0.02533658  1
  Tl  Tl2  1  0.82102350  0.80823158  0.52533658  1
  Tl  Tl3  1  0.17897650  0.19176842  0.47466342  1
  S  S0  1  0.13207529  0.31775641  0.87241058  1
  S  S1  1  0.86792471  0.68224359  0.12758942  1
  S  S2  1  0.63207529  0.18224359  0.62758942  1
  S  S3  1  0.36792471  0.81775641  0.37241058  1
  S  S4  1  0.19929126  0.60235271  0.59902644  1
  S  S5  1  0.80070874  0.39764729  0.40097356  1
  S  S6  1  0.69929126  0.89764729  0.90097356  1
  S  S7  1  0.30070874  0.10235271  0.09902644  1
  O  O0  1  0.77730947  0.03901452  0.96496367  1
  O  O1  1  0.22269053  0.96098548  0.03503633  1
  O  O2  1  0.27730947  0.46098548  0.53503633  1
  O  O3  1  0.72269053  0.53901452  0.46496367  1
  O  O4  1  0.20322322  0.17808656  0.76479450  1
  O  O5  1  0.79677678  0.82191344  0.23520550  1
  O  O6  1  0.70322322  0.32191344  0.73520550  1
  O  O7  1  0.29677678  0.67808656  0.26479450  1
  O  O8  1  0.30990561  0.72286342  0.67411178  1
  O  O9  1  0.69009439  0.27713658  0.32588822  1
  O  O10  1  0.80990561  0.77713658  0.82588822  1
  O  O11  1  0.19009439  0.22286342  0.17411178  1
  O  O12  1  0.37966228  0.11731137  0.98111954  1
  O  O13  1  0.62033772  0.88268863  0.01888046  1
  O  O14  1  0.87966228  0.38268863  0.51888046  1
  O  O15  1  0.12033772  0.61731137  0.48111954  1
  O  O16  1  0.08805372  0.94778985  0.76986253  1
  O  O17  1  0.91194628  0.05221015  0.23013747  1
  O  O18  1  0.58805372  0.55221015  0.73013747  1
  O  O19  1  0.41194628  0.44778985  0.26986253  1
  O  O20  1  0.24674589  0.42159246  0.97718839  1
  O  O21  1  0.75325411  0.57840754  0.02281161  1
  O  O22  1  0.74674589  0.07840754  0.52281161  1
  O  O23  1  0.25325411  0.92159246  0.47718839  1
  O  O24  1  0.01846183  0.29886864  0.96672547  1
  O  O25  1  0.98153817  0.70113136  0.03327453  1
  O  O26  1  0.51846183  0.20113136  0.53327453  1
  O  O27  1  0.48153817  0.79886864  0.46672547  1
  O  O28  1  0.06082011  0.37998665  0.78702900  1
  O  O29  1  0.93917989  0.62001335  0.21297100  1
  O  O30  1  0.56082011  0.12001335  0.71297100  1
  O  O31  1  0.43917989  0.87998665  0.28702900  1
  O  O32  1  0.58840570  0.88272108  0.78766023  1
  O  O33  1  0.41159430  0.11727892  0.21233977  1
  O  O34  1  0.08840570  0.61727892  0.71233977  1
  O  O35  1  0.91159430  0.38272108  0.28766023  1
loop_
_geom_bond_atom_site_label_1
_geom_bond_atom_site_label_2
_geom_bond_distance
_geom_bond_site_symmetry_2
Eu0 O32 2.383676 1_555
Eu0 O8 2.387303 1_555
Eu0 O12 2.414788 1_565
Eu0 O30 2.418688 1_565
Eu0 O27 2.515759 1_555
Eu0 O23 2.531612 1_555
Eu0 O4 2.552444 1_565
Eu0 O16 2.555429 1_555
Eu1 O33 2.383676 1_555
Eu1 O9 2.387303 1_555
Eu1 O13 2.414788 1_545
Eu1 O31 2.418688 1_545
Eu1 O26 2.515759 1_555
Eu1 O22 2.531612 1_555
Eu1 O5 2.552444 1_545
Eu1 O17 2.555429 1_555
Eu2 O34 2.383676 1_655
Eu2 O10 2.387303 1_555
Eu2 O14 2.414788 1_555
Eu2 O28 2.418688 1_655
Eu2 O25 2.515759 1_556
Eu2 O21 2.531612 1_556
Eu2 O6 2.552444 1_555
Eu2 O18 2.555429 1_555
Eu3 O35 2.383676 1_455
Eu3 O11 2.387303 1_555
Eu3 O15 2.414788 1_555
Eu3 O29 2.418688 1_455
Eu3 O24 2.515759 1_554
Eu3 O20 2.531612 1_554
Eu3 O7 2.552444 1_555
Eu3 O19 2.555429 1_555
O0 S6 1.474286 1_545
O0 Tl1 2.739439 1_556
O1 S7 1.474286 1_565
O1 Tl0 2.739439 1_554
O2 S4 1.474286 1_555
O2 Tl3 2.739439 1_555
O3 S5 1.474286 1_555
O3 Tl2 2.739439 1_555
O4 S0 1.482527 1_555
O5 S1 1.482527 1_555
O6 S2 1.482527 1_555
O7 S3 1.482527 1_555
O8 S4 1.487120 1_555
O9 S5 1.487120 1_555
O10 S6 1.487120 1_555
O11 S7 1.487120 1_555
O12 S7 1.490656 1_556
O13 S6 1.490656 1_554
O14 S5 1.490656 1_555
O15 S4 1.490656 1_555
O20 S0 1.498050 1_555
O21 S1 1.498050 1_555
O22 S2 1.498050 1_555
O23 S3 1.498050 1_555
O24 S0 1.489340 1_555
O25 S1 1.489340 1_555
O26 S2 1.489340 1_555
O27 S3 1.489340 1_555
O28 S0 1.486669 1_555
O29 S1 1.486669 1_555
O30 S2 1.486669 1_555
O31 S3 1.486669 1_555
O32 S6 1.484384 1_555
O33 S7 1.484384 1_555
O34 S4 1.484384 1_555
O35 S5 1.484384 1_555
