# generated using pymatgen
data_TeAsHO5
_symmetry_space_group_name_H-M   'P 1'
_cell_length_a   6.06590600
_cell_length_b   7.71414001
_cell_length_c   10.09824549
_cell_angle_alpha   103.49526058
_cell_angle_beta   90.00000000
_cell_angle_gamma   90.00000000
_symmetry_Int_Tables_number   1
_chemical_formula_structural   TeAsHO5
_chemical_formula_sum   'Te4 As4 H4 O20'
_cell_volume   459.48279738
_cell_formula_units_Z   4
loop_
 _symmetry_equiv_pos_site_id
 _symmetry_equiv_pos_as_xyz
  1  'x, y, z'
loop_
 _atom_site_type_symbol
 _atom_site_label
 _atom_site_symmetry_multiplicity
 _atom_site_fract_x
 _atom_site_fract_y
 _atom_site_fract_z
 _atom_site_occupancy
  Te  Te0  1  0.37760500  0.62018300  0.92016700  1
  Te  Te1  1  0.87760500  0.37981700  0.57983300  1
  Te  Te2  1  0.62239500  0.37981700  0.07983300  1
  Te  Te3  1  0.12239500  0.62018300  0.42016700  1
  As  As0  1  0.13348400  0.21509300  0.91589300  1
  As  As1  1  0.63348400  0.78490700  0.58410700  1
  As  As2  1  0.86651600  0.78490700  0.08410700  1
  As  As3  1  0.36651600  0.21509300  0.41589300  1
  H  H0  1  0.19316800  0.06022100  0.69438700  1
  H  H1  1  0.69316800  0.93977900  0.80561300  1
  H  H2  1  0.80683200  0.93977900  0.30561300  1
  H  H3  1  0.30683200  0.06022100  0.19438700  1
  O  O0  1  0.38029900  0.57487700  0.10095700  1
  O  O1  1  0.88029900  0.42512300  0.39904300  1
  O  O2  1  0.61970100  0.42512300  0.89904300  1
  O  O3  1  0.11970100  0.57487700  0.60095700  1
  O  O4  1  0.89453000  0.20044900  0.00228700  1
  O  O5  1  0.39453000  0.79955100  0.49771300  1
  O  O6  1  0.10547000  0.79955100  0.99771300  1
  O  O7  1  0.60547000  0.20044900  0.50228700  1
  O  O8  1  0.15094100  0.40854200  0.85619900  1
  O  O9  1  0.65094100  0.59145800  0.64380100  1
  O  O10  1  0.84905900  0.59145800  0.14380100  1
  O  O11  1  0.34905900  0.40854200  0.35619900  1
  O  O12  1  0.35646500  0.18533200  0.01365200  1
  O  O13  1  0.85646500  0.81466800  0.48634800  1
  O  O14  1  0.64353500  0.81466800  0.98634800  1
  O  O15  1  0.14353500  0.18533200  0.51365200  1
  O  O16  1  0.10830700  0.03762800  0.77143700  1
  O  O17  1  0.60830700  0.96237200  0.72856300  1
  O  O18  1  0.89169300  0.96237200  0.22856300  1
  O  O19  1  0.39169300  0.03762800  0.27143700  1
loop_
_geom_bond_atom_site_label_1
_geom_bond_atom_site_label_2
_geom_bond_distance
_geom_bond_site_symmetry_2
As0 O4 1.709053 1_456
As0 O12 1.721196 1_556
As0 O8 1.738211 1_555
As0 O16 1.758791 1_555
As1 O5 1.709053 1_555
As1 O13 1.721196 1_555
As1 O9 1.738211 1_555
As1 O17 1.758791 1_555
As2 O6 1.709053 1_654
As2 O14 1.721196 1_554
As2 O10 1.738211 1_555
As2 O18 1.758791 1_555
As3 O7 1.709053 1_555
As3 O15 1.721196 1_555
As3 O11 1.738211 1_555
As3 O19 1.758791 1_555
H0 O16 0.981853 1_555
H1 O17 0.981853 1_555
H2 O18 0.981853 1_555
H3 O19 0.981853 1_555
O0 Te0 1.937333 1_554
O0 Te2 2.077609 1_555
O1 Te1 1.937333 1_555
O1 Te3 2.077609 1_655
O2 Te2 1.937333 1_556
O2 Te0 2.077609 1_555
O3 Te3 1.937333 1_555
O3 Te1 2.077609 1_455
O4 Te2 2.178762 1_555
O5 Te3 2.178762 1_555
O6 Te0 2.178762 1_555
O7 Te1 2.178762 1_555
O8 Te0 2.116822 1_555
O9 Te1 2.116822 1_555
O10 Te2 2.116822 1_555
O11 Te3 2.116822 1_555
O12 Te2 2.198098 1_555
O13 Te3 2.198098 1_655
O14 Te0 2.198098 1_555
O15 Te1 2.198098 1_455
