# generated using pymatgen
data_Al2ZnS4
_symmetry_space_group_name_H-M   'P 1'
_cell_length_a   5.91054400
_cell_length_b   7.22181000
_cell_length_c   12.47498600
_cell_angle_alpha   90.00000000
_cell_angle_beta   90.00000000
_cell_angle_gamma   90.00000000
_symmetry_Int_Tables_number   1
_chemical_formula_structural   Al2ZnS4
_chemical_formula_sum   'Al8 Zn4 S16'
_cell_volume   532.49260383
_cell_formula_units_Z   4
loop_
 _symmetry_equiv_pos_site_id
 _symmetry_equiv_pos_as_xyz
  1  'x, y, z'
loop_
 _atom_site_type_symbol
 _atom_site_label
 _atom_site_symmetry_multiplicity
 _atom_site_fract_x
 _atom_site_fract_y
 _atom_site_fract_z
 _atom_site_occupancy
  Al  Al0  1  0.58948900  0.75000000  0.08533100  1
  Al  Al1  1  0.91051100  0.75000000  0.58533100  1
  Al  Al2  1  0.41051100  0.25000000  0.91466900  1
  Al  Al3  1  0.08948900  0.25000000  0.41466900  1
  Al  Al4  1  0.00000000  0.50000000  0.00000000  1
  Al  Al5  1  0.50000000  0.00000000  0.50000000  1
  Al  Al6  1  0.00000000  0.00000000  0.00000000  1
  Al  Al7  1  0.50000000  0.50000000  0.50000000  1
  Zn  Zn0  1  0.00371700  0.75000000  0.26614900  1
  Zn  Zn1  1  0.49628300  0.75000000  0.76614900  1
  Zn  Zn2  1  0.99628300  0.25000000  0.73385100  1
  Zn  Zn3  1  0.50371700  0.25000000  0.23385100  1
  S  S0  1  0.20886800  0.75000000  0.08605900  1
  S  S1  1  0.29113200  0.75000000  0.58605900  1
  S  S2  1  0.79113200  0.25000000  0.91394100  1
  S  S3  1  0.70886800  0.25000000  0.41394100  1
  S  S4  1  0.73187400  0.75000000  0.42414800  1
  S  S5  1  0.76812600  0.75000000  0.92414800  1
  S  S6  1  0.26812600  0.25000000  0.57585200  1
  S  S7  1  0.23187400  0.25000000  0.07585200  1
  S  S8  1  0.75990400  0.50320300  0.15998100  1
  S  S9  1  0.74009600  0.99679700  0.65998100  1
  S  S10  1  0.24009600  0.00320300  0.84001900  1
  S  S11  1  0.25990400  0.49679700  0.34001900  1
  S  S12  1  0.24009600  0.49679700  0.84001900  1
  S  S13  1  0.25990400  0.00320300  0.34001900  1
  S  S14  1  0.75990400  0.99679700  0.15998100  1
  S  S15  1  0.74009600  0.50320300  0.65998100  1
loop_
_geom_bond_atom_site_label_1
_geom_bond_atom_site_label_2
_geom_bond_distance
_geom_bond_site_symmetry_2
Al0 S14 2.249100 1_555
Al0 S8 2.249100 1_555
Al0 S0 2.249695 1_555
Al0 S5 2.271110 1_554
Al1 S15 2.249100 1_555
Al1 S9 2.249100 1_555
Al1 S1 2.249695 1_655
Al1 S4 2.271110 1_555
Al2 S12 2.249100 1_555
Al2 S10 2.249100 1_555
Al2 S2 2.249695 1_555
Al2 S7 2.271110 1_556
Al3 S13 2.249100 1_555
Al3 S11 2.249100 1_555
Al3 S3 2.249695 1_455
Al3 S6 2.271110 1_555
Al4 S0 2.436451 1_555
Al4 S2 2.436451 1_454
Al4 S8 2.448966 1_455
Al4 S12 2.448966 1_554
Al4 S7 2.456283 1_555
Al4 S5 2.456283 1_454
Al5 S3 2.436451 1_555
Al5 S1 2.436451 1_545
Al5 S13 2.448966 1_555
Al5 S9 2.448966 1_545
Al5 S4 2.456283 1_545
Al5 S6 2.456283 1_555
Al6 S0 2.436451 1_545
Al6 S2 2.436451 1_454
Al6 S14 2.448966 1_445
Al6 S10 2.448966 1_554
Al6 S7 2.456283 1_555
Al6 S5 2.456283 1_444
Al7 S3 2.436451 1_555
Al7 S1 2.436451 1_555
Al7 S11 2.448966 1_555
Al7 S15 2.448966 1_555
Al7 S4 2.456283 1_555
Al7 S6 2.456283 1_555
S0 Zn0 2.552957 1_555
S1 Zn1 2.552957 1_555
S2 Zn2 2.552957 1_555
S3 Zn3 2.552957 1_555
S4 Zn0 2.542950 1_655
S5 Zn1 2.542950 1_555
S6 Zn2 2.542950 1_455
S7 Zn3 2.542950 1_555
S8 Zn3 2.546713 1_555
S8 Zn0 2.647168 1_655
S9 Zn2 2.546713 1_565
S9 Zn1 2.647168 1_555
S10 Zn1 2.546713 1_545
S10 Zn2 2.647168 1_455
S11 Zn0 2.546713 1_555
S11 Zn3 2.647168 1_555
S12 Zn1 2.546713 1_555
S12 Zn2 2.647168 1_455
S13 Zn0 2.546713 1_545
S13 Zn3 2.647168 1_555
S14 Zn3 2.546713 1_565
S14 Zn0 2.647168 1_655
S15 Zn2 2.546713 1_555
S15 Zn1 2.647168 1_555
