# generated using pymatgen
data_AgIO3
_symmetry_space_group_name_H-M   'P 1'
_cell_length_a   5.71481035
_cell_length_b   5.98186524
_cell_length_c   17.24873905
_cell_angle_alpha   90.00000000
_cell_angle_beta   90.00000000
_cell_angle_gamma   90.00000000
_symmetry_Int_Tables_number   1
_chemical_formula_structural   AgIO3
_chemical_formula_sum   'Ag8 I8 O24'
_cell_volume   589.65203205
_cell_formula_units_Z   8
loop_
 _symmetry_equiv_pos_site_id
 _symmetry_equiv_pos_as_xyz
  1  'x, y, z'
loop_
 _atom_site_type_symbol
 _atom_site_label
 _atom_site_symmetry_multiplicity
 _atom_site_fract_x
 _atom_site_fract_y
 _atom_site_fract_z
 _atom_site_occupancy
  Ag  Ag0  1  0.52201236  0.29045564  0.53754933  1
  Ag  Ag1  1  0.47798764  0.79045564  0.96245067  1
  Ag  Ag2  1  0.97798764  0.70954436  0.03754933  1
  Ag  Ag3  1  0.02201236  0.20954436  0.46245067  1
  Ag  Ag4  1  0.47798764  0.70954436  0.46245067  1
  Ag  Ag5  1  0.52201236  0.20954436  0.03754933  1
  Ag  Ag6  1  0.02201236  0.29045564  0.96245067  1
  Ag  Ag7  1  0.97798764  0.79045564  0.53754933  1
  I  I0  1  0.00769233  0.31475511  0.66506870  1
  I  I1  1  0.99230767  0.81475511  0.83493130  1
  I  I2  1  0.49230767  0.68524489  0.16506870  1
  I  I3  1  0.50769233  0.18524489  0.33493130  1
  I  I4  1  0.99230767  0.68524489  0.33493130  1
  I  I5  1  0.00769233  0.18524489  0.16506870  1
  I  I6  1  0.50769233  0.31475511  0.83493130  1
  I  I7  1  0.49230767  0.81475511  0.66506870  1
  O  O0  1  0.13543885  0.40414379  0.57191921  1
  O  O1  1  0.86456115  0.90414379  0.92808079  1
  O  O2  1  0.36456115  0.59585621  0.07191921  1
  O  O3  1  0.63543885  0.09585621  0.42808079  1
  O  O4  1  0.86456115  0.59585621  0.42808079  1
  O  O5  1  0.13543885  0.09585621  0.07191921  1
  O  O6  1  0.63543885  0.40414379  0.92808079  1
  O  O7  1  0.36456115  0.90414379  0.57191921  1
  O  O8  1  0.24904888  0.15719574  0.70802850  1
  O  O9  1  0.75095112  0.65719574  0.79197150  1
  O  O10  1  0.25095112  0.84280426  0.20802850  1
  O  O11  1  0.74904888  0.34280426  0.29197150  1
  O  O12  1  0.75095112  0.84280426  0.29197150  1
  O  O13  1  0.24904888  0.34280426  0.20802850  1
  O  O14  1  0.74904888  0.15719574  0.79197150  1
  O  O15  1  0.25095112  0.65719574  0.70802850  1
  O  O16  1  0.83992259  0.08492274  0.61938392  1
  O  O17  1  0.16007741  0.58492274  0.88061608  1
  O  O18  1  0.66007741  0.91507726  0.11938392  1
  O  O19  1  0.33992259  0.41507726  0.38061608  1
  O  O20  1  0.16007741  0.91507726  0.38061608  1
  O  O21  1  0.83992259  0.41507726  0.11938392  1
  O  O22  1  0.33992259  0.08492274  0.88061608  1
  O  O23  1  0.66007741  0.58492274  0.61938392  1
loop_
_geom_bond_atom_site_label_1
_geom_bond_atom_site_label_2
_geom_bond_distance
_geom_bond_site_symmetry_2
Ag0 O3 2.310954 1_555
Ag0 O0 2.386312 1_555
Ag0 O23 2.391182 1_555
Ag0 O7 2.549745 1_545
Ag0 O16 2.608602 1_555
Ag1 O2 2.310954 1_556
Ag1 O1 2.386312 1_555
Ag1 O22 2.391182 1_565
Ag1 O6 2.549745 1_555
Ag1 O17 2.608602 1_555
Ag2 O1 2.310954 1_554
Ag2 O2 2.386312 1_655
Ag2 O21 2.391182 1_555
Ag2 O5 2.549745 1_665
Ag2 O18 2.608602 1_555
Ag3 O0 2.310954 1_555
Ag3 O3 2.386312 1_455
Ag3 O20 2.391182 1_545
Ag3 O4 2.549745 1_455
Ag3 O19 2.608602 1_555
Ag4 O7 2.310954 1_555
Ag4 O4 2.386312 1_555
Ag4 O19 2.391182 1_555
Ag4 O3 2.549745 1_565
Ag4 O20 2.608602 1_555
Ag5 O6 2.310954 1_554
Ag5 O5 2.386312 1_555
Ag5 O18 2.391182 1_545
Ag5 O2 2.549745 1_555
Ag5 O21 2.608602 1_555
Ag6 O5 2.310954 1_556
Ag6 O6 2.386312 1_455
Ag6 O17 2.391182 1_555
Ag6 O1 2.549745 1_445
Ag6 O22 2.608602 1_555
Ag7 O4 2.310954 1_555
Ag7 O7 2.386312 1_655
Ag7 O16 2.391182 1_565
Ag7 O0 2.549745 1_655
Ag7 O23 2.608602 1_555
I0 O8 1.827533 1_555
I0 O0 1.844019 1_555
I0 O16 1.852119 1_455
I0 O23 2.679393 1_455
I1 O9 1.827533 1_555
I1 O1 1.844019 1_555
I1 O17 1.852119 1_655
I1 O22 2.679393 1_665
I2 O10 1.827533 1_555
I2 O2 1.844019 1_555
I2 O18 1.852119 1_555
I2 O21 2.679393 1_555
I3 O11 1.827533 1_555
I3 O3 1.844019 1_555
I3 O19 1.852119 1_555
I3 O20 2.679393 1_545
I4 O12 1.827533 1_555
I4 O4 1.844019 1_555
I4 O20 1.852119 1_655
I4 O19 2.679393 1_655
I5 O13 1.827533 1_555
I5 O5 1.844019 1_555
I5 O21 1.852119 1_455
I5 O18 2.679393 1_445
I6 O14 1.827533 1_555
I6 O6 1.844019 1_555
I6 O22 1.852119 1_555
I6 O17 2.679393 1_555
I7 O15 1.827533 1_555
I7 O7 1.844019 1_555
I7 O23 1.852119 1_555
I7 O16 2.679393 1_565
