# generated using pymatgen
data_NaCeMg14
_symmetry_space_group_name_H-M   'P 1'
_cell_length_a   6.56265156
_cell_length_b   6.56265100
_cell_length_c   10.32111768
_cell_angle_alpha   90.00000000
_cell_angle_beta   90.00000000
_cell_angle_gamma   120.00000282
_symmetry_Int_Tables_number   1
_chemical_formula_structural   NaCeMg14
_chemical_formula_sum   'Na1 Ce1 Mg14'
_cell_volume   384.96035364
_cell_formula_units_Z   1
loop_
 _symmetry_equiv_pos_site_id
 _symmetry_equiv_pos_as_xyz
  1  'x, y, z'
loop_
 _atom_site_type_symbol
 _atom_site_label
 _atom_site_symmetry_multiplicity
 _atom_site_fract_x
 _atom_site_fract_y
 _atom_site_fract_z
 _atom_site_occupancy
  Na  Na0  1  0.16666700  0.33333300  0.62500000  1
  Ce  Ce0  1  0.16666700  0.33333300  0.12500000  1
  Mg  Mg0  1  0.17827650  0.83913775  0.12500000  1
  Mg  Mg1  1  0.16919520  0.83459710  0.62500000  1
  Mg  Mg2  1  0.66086225  0.32172350  0.12500000  1
  Mg  Mg3  1  0.66540290  0.33080480  0.62500000  1
  Mg  Mg4  1  0.66086225  0.83913775  0.12500000  1
  Mg  Mg5  1  0.66540290  0.83459710  0.62500000  1
  Mg  Mg6  1  0.33623493  0.16376507  0.37766622  1
  Mg  Mg7  1  0.33623493  0.16376507  0.87233378  1
  Mg  Mg8  1  0.33623493  0.67247086  0.37766622  1
  Mg  Mg9  1  0.33623493  0.67247086  0.87233378  1
  Mg  Mg10  1  0.82752914  0.16376507  0.37766622  1
  Mg  Mg11  1  0.82752914  0.16376507  0.87233378  1
  Mg  Mg12  1  0.83333300  0.66666700  0.36817987  1
  Mg  Mg13  1  0.83333300  0.66666700  0.88182013  1
loop_
_geom_bond_atom_site_label_1
_geom_bond_atom_site_label_2
_geom_bond_distance
_geom_bond_site_symmetry_2
Ce0 Mg6 3.242789 1_555
Ce0 Mg7 3.242789 1_554
Ce0 Mg8 3.242796 1_555
Ce0 Mg9 3.242796 1_554
Ce0 Mg10 3.242796 1_455
Ce0 Mg11 3.242796 1_454
Ce0 Mg4 3.281989 1_555
Ce0 Mg0 3.281989 1_555
Ce0 Mg4 3.281989 1_445
Ce0 Mg0 3.281989 1_545
Ce0 Mg2 3.281989 1_455
Ce0 Mg2 3.281989 1_555
Mg0 Mg2 3.167042 1_565
Mg0 Mg4 3.167042 1_555
Mg0 Mg12 3.184798 1_455
Mg0 Mg13 3.184798 1_454
Mg0 Mg8 3.194587 1_555
Mg0 Mg9 3.194587 1_554
Mg0 Mg6 3.194594 1_565
Mg0 Mg7 3.194594 1_564
Mg0 Mg2 3.395609 1_455
Mg0 Mg4 3.395609 1_455
Mg1 Mg8 3.164917 1_555
Mg1 Mg9 3.164917 1_555
Mg1 Mg7 3.164924 1_565
Mg1 Mg6 3.164924 1_565
Mg1 Mg3 3.256438 1_565
Mg1 Mg5 3.256438 1_555
Mg1 Mg12 3.266459 1_455
Mg1 Mg13 3.266459 1_455
Mg1 Na0 3.281357 1_555
Mg1 Na0 3.281357 1_565
Mg1 Mg3 3.306213 1_455
Mg1 Mg5 3.306213 1_455
Mg2 Mg4 3.167042 1_545
Mg2 Mg6 3.194594 1_555
Mg2 Mg7 3.194594 1_554
Mg2 Mg4 3.395609 1_555
Mg3 Mg6 3.164924 1_555
Mg3 Mg7 3.164924 1_555
Mg3 Mg5 3.256438 1_545
Mg3 Na0 3.281357 1_655
Mg3 Na0 3.281357 1_555
Mg3 Mg5 3.306213 1_555
Mg4 Mg9 3.194594 1_554
Mg4 Mg8 3.194594 1_555
Mg5 Mg8 3.164924 1_555
Mg5 Mg9 3.164924 1_555
Mg5 Na0 3.281357 1_555
Mg5 Na0 3.281357 1_665
Mg6 Na0 3.198697 1_555
Mg6 Mg8 3.224192 1_545
Mg6 Mg8 3.338459 1_555
Mg7 Na0 3.198697 1_555
Mg7 Mg9 3.224192 1_545
Mg7 Mg9 3.338459 1_555
Mg8 Na0 3.198704 1_555
Mg9 Na0 3.198704 1_555
Mg10 Mg3 3.164917 1_555
Mg10 Mg5 3.164924 1_545
Mg10 Mg2 3.194587 1_555
Mg10 Mg4 3.194594 1_545
Mg10 Na0 3.198704 1_655
Mg10 Mg8 3.224192 1_545
Mg10 Mg6 3.224193 1_555
Mg10 Mg12 3.282952 1_555
Mg10 Mg12 3.282952 1_545
Mg10 Mg8 3.338459 1_655
Mg10 Mg6 3.338459 1_655
Mg11 Mg3 3.164917 1_555
Mg11 Mg5 3.164924 1_545
Mg11 Mg2 3.194587 1_556
Mg11 Mg4 3.194594 1_546
Mg11 Na0 3.198704 1_655
Mg11 Mg9 3.224192 1_545
Mg11 Mg7 3.224193 1_555
Mg11 Mg13 3.282952 1_555
Mg11 Mg13 3.282952 1_545
Mg11 Mg9 3.338459 1_655
Mg11 Mg7 3.338459 1_655
Mg12 Mg4 3.184791 1_555
Mg12 Mg2 3.184798 1_555
Mg12 Mg5 3.266452 1_555
Mg12 Mg3 3.266459 1_555
Mg12 Mg6 3.282952 1_555
Mg12 Mg6 3.282952 1_665
Mg12 Mg8 3.282952 1_655
Mg12 Mg8 3.282952 1_555
Mg13 Mg4 3.184791 1_556
Mg13 Mg2 3.184798 1_556
Mg13 Mg5 3.266452 1_555
Mg13 Mg3 3.266459 1_555
Mg13 Mg7 3.282952 1_555
Mg13 Mg7 3.282952 1_665
Mg13 Mg9 3.282952 1_555
Mg13 Mg9 3.282952 1_655
