# generated using pymatgen
data_KCoP2H5O9
_symmetry_space_group_name_H-M   'P 1'
_cell_length_a   6.53624100
_cell_length_b   7.84686500
_cell_length_c   15.64876900
_cell_angle_alpha   90.00000000
_cell_angle_beta   90.00000000
_cell_angle_gamma   90.00000000
_symmetry_Int_Tables_number   1
_chemical_formula_structural   KCoP2H5O9
_chemical_formula_sum   'K4 Co4 P8 H20 O36'
_cell_volume   802.60972473
_cell_formula_units_Z   4
loop_
 _symmetry_equiv_pos_site_id
 _symmetry_equiv_pos_as_xyz
  1  'x, y, z'
loop_
 _atom_site_type_symbol
 _atom_site_label
 _atom_site_symmetry_multiplicity
 _atom_site_fract_x
 _atom_site_fract_y
 _atom_site_fract_z
 _atom_site_occupancy
  K  K0  1  0.88093100  0.74778300  0.03501800  1
  K  K1  1  0.61906900  0.74778300  0.53501800  1
  K  K2  1  0.11906900  0.24778300  0.96498200  1
  K  K3  1  0.38093100  0.24778300  0.46498200  1
  Co  Co0  1  0.93794800  0.75016100  0.80473000  1
  Co  Co1  1  0.56205200  0.75016100  0.30473000  1
  Co  Co2  1  0.06205200  0.25016100  0.19527000  1
  Co  Co3  1  0.43794800  0.25016100  0.69527000  1
  P  P0  1  0.14209000  0.93668700  0.63764200  1
  P  P1  1  0.36664500  0.55785200  0.13584100  1
  P  P2  1  0.85791000  0.43668700  0.36235800  1
  P  P3  1  0.63335500  0.05785200  0.86415900  1
  P  P4  1  0.86664500  0.05785200  0.36415900  1
  P  P5  1  0.64209000  0.43668700  0.86235800  1
  P  P6  1  0.13335500  0.55785200  0.63584100  1
  P  P7  1  0.35791000  0.93668700  0.13764200  1
  H  H0  1  0.59851700  0.85577300  0.73291200  1
  H  H1  1  0.90250300  0.64595100  0.23210000  1
  H  H2  1  0.40148300  0.35577300  0.26708800  1
  H  H3  1  0.09749700  0.14595100  0.76790000  1
  H  H4  1  0.40250300  0.14595100  0.26790000  1
  H  H5  1  0.09851700  0.35577300  0.76708800  1
  H  H6  1  0.59749700  0.64595100  0.73210000  1
  H  H7  1  0.90148300  0.85577300  0.23291200  1
  H  H8  1  0.28182000  0.85199300  0.90094700  1
  H  H9  1  0.21999600  0.65064400  0.40033000  1
  H  H10  1  0.71818000  0.35199300  0.09905300  1
  H  H11  1  0.78000400  0.15064400  0.59967000  1
  H  H12  1  0.71999600  0.15064400  0.09967000  1
  H  H13  1  0.78182000  0.35199300  0.59905300  1
  H  H14  1  0.28000400  0.65064400  0.90033000  1
  H  H15  1  0.21818000  0.85199300  0.40094700  1
  H  H16  1  0.99613100  0.99305800  0.51028400  1
  H  H17  1  0.00386900  0.49305800  0.48971600  1
  H  H18  1  0.49613100  0.49305800  0.98971600  1
  H  H19  1  0.50386900  0.99305800  0.01028400  1
  O  O0  1  0.22555500  0.74868500  0.61277100  1
  O  O1  1  0.27444500  0.74868500  0.11277100  1
  O  O2  1  0.77444500  0.24868500  0.38722900  1
  O  O3  1  0.72555500  0.24868500  0.88722900  1
  O  O4  1  0.95252300  0.96802200  0.57600900  1
  O  O5  1  0.54859400  0.52820700  0.07423600  1
  O  O6  1  0.04747700  0.46802200  0.42399100  1
  O  O7  1  0.45140600  0.02820700  0.92576400  1
  O  O8  1  0.04859400  0.02820700  0.42576400  1
  O  O9  1  0.45252300  0.46802200  0.92399100  1
  O  O10  1  0.95140600  0.52820700  0.57423600  1
  O  O11  1  0.54747700  0.96802200  0.07600900  1
  O  O12  1  0.67632600  0.75053100  0.71794900  1
  O  O13  1  0.82367400  0.75053100  0.21794900  1
  O  O14  1  0.32367400  0.25053100  0.28205100  1
  O  O15  1  0.17632600  0.25053100  0.78205100  1
  O  O16  1  0.18985700  0.75153300  0.89707400  1
  O  O17  1  0.31014300  0.75153300  0.39707400  1
  O  O18  1  0.81014300  0.25153300  0.10292600  1
  O  O19  1  0.68985700  0.25153300  0.60292600  1
  O  O20  1  0.06837600  0.93901400  0.72920500  1
  O  O21  1  0.43171900  0.56078000  0.22917800  1
  O  O22  1  0.93162400  0.43901400  0.27079500  1
  O  O23  1  0.56828100  0.06078000  0.77082200  1
  O  O24  1  0.93171900  0.06078000  0.27082200  1
  O  O25  1  0.56837600  0.43901400  0.77079500  1
  O  O26  1  0.06828100  0.56078000  0.72917800  1
  O  O27  1  0.43162400  0.93901400  0.22920500  1
  O  O28  1  0.31640700  0.05609800  0.61569000  1
  O  O29  1  0.18622600  0.44122900  0.11572800  1
  O  O30  1  0.68359300  0.55609800  0.38431000  1
  O  O31  1  0.81377400  0.94122900  0.88427200  1
  O  O32  1  0.68622600  0.94122900  0.38427200  1
  O  O33  1  0.81640700  0.55609800  0.88431000  1
  O  O34  1  0.31377400  0.44122900  0.61572800  1
  O  O35  1  0.18359300  0.05609800  0.11569000  1
loop_
_geom_bond_atom_site_label_1
_geom_bond_atom_site_label_2
_geom_bond_distance
_geom_bond_site_symmetry_2
K0 O33 2.828832 1_554
K0 O31 2.839308 1_554
K0 O5 2.839704 1_555
K0 O1 2.845385 1_655
K0 O11 2.854553 1_555
K0 O13 2.887085 1_555
K0 O16 2.955991 1_654
K1 O30 2.828832 1_555
K1 O32 2.839308 1_555
K1 O10 2.839704 1_555
K1 O0 2.845385 1_555
K1 O4 2.854553 1_555
K1 O12 2.887085 1_555
K1 O17 2.955991 1_555
K2 O35 2.828832 1_556
K2 O29 2.839308 1_556
K2 O7 2.839704 1_555
K2 O3 2.845385 1_455
K2 O9 2.854553 1_555
K2 O15 2.887085 1_555
K2 O18 2.955991 1_456
K3 O28 2.828832 1_555
K3 O34 2.839308 1_555
K3 O8 2.839704 1_555
K3 O2 2.845385 1_555
K3 O6 2.854553 1_555
K3 O14 2.887085 1_555
K3 O19 2.955991 1_555
Co0 O20 2.078373 1_655
Co0 O26 2.081315 1_655
Co0 O31 2.110915 1_555
Co0 O33 2.121515 1_555
Co0 O12 2.183666 1_555
Co0 O16 2.190760 1_655
Co1 O27 2.078373 1_555
Co1 O21 2.081315 1_555
Co1 O32 2.110915 1_555
Co1 O30 2.121515 1_555
Co1 O13 2.183666 1_555
Co1 O17 2.190760 1_555
Co2 O22 2.078373 1_455
Co2 O24 2.081315 1_455
Co2 O29 2.110915 1_555
Co2 O35 2.121515 1_555
Co2 O14 2.183666 1_555
Co2 O18 2.190760 1_455
Co3 O25 2.078373 1_555
Co3 O23 2.081315 1_555
Co3 O34 2.110915 1_555
Co3 O28 2.121515 1_555
Co3 O15 2.183666 1_555
Co3 O19 2.190760 1_555
H0 O12 0.997726 1_555
H0 O23 1.725917 1_565
H1 O13 0.993953 1_555
H1 O22 1.743457 1_555
H2 O14 0.997726 1_555
H2 O21 1.725917 1_555
H3 O15 0.993953 1_555
H3 O20 1.743457 1_545
H4 O14 0.993953 1_555
H4 O27 1.743457 1_545
H5 O15 0.997726 1_555
H5 O26 1.725917 1_555
H6 O12 0.993953 1_555
H6 O25 1.743457 1_555
H7 O13 0.997726 1_555
H7 O24 1.725917 1_565
H8 O16 0.993175 1_555
H9 O17 0.988185 1_555
H10 O18 0.993175 1_555
H11 O19 0.988185 1_555
H12 O18 0.988185 1_555
H13 O19 0.993175 1_555
H14 O16 0.988185 1_555
H15 O17 0.993175 1_555
H16 O4 1.085210 1_555
H16 O8 1.393922 1_665
H17 O6 1.085210 1_555
H17 O10 1.393922 1_455
H18 O9 1.085210 1_555
H18 O5 1.393922 1_556
H19 O11 1.085210 1_555
H19 O7 1.393922 1_564
O0 P0 1.620306 1_555
O0 P6 1.654037 1_555
O1 P7 1.620306 1_555
O1 P1 1.654037 1_555
O2 P2 1.620306 1_555
O2 P4 1.654037 1_555
O3 P5 1.620306 1_555
O3 P3 1.654037 1_555
O4 P0 1.589320 1_655
O5 P1 1.548495 1_555
O6 P2 1.589320 1_455
O7 P3 1.548495 1_555
O8 P4 1.548495 1_455
O9 P5 1.589320 1_555
O10 P6 1.548495 1_655
O11 P7 1.589320 1_555
O20 P0 1.511797 1_555
O21 P1 1.521453 1_555
O22 P2 1.511797 1_555
O23 P3 1.521453 1_555
O24 P4 1.521453 1_555
O25 P5 1.511797 1_555
O26 P6 1.521453 1_555
O27 P7 1.511797 1_555
O28 P0 1.514649 1_545
O29 P1 1.525509 1_555
O30 P2 1.514649 1_555
O31 P3 1.525509 1_565
O32 P4 1.525509 1_565
O33 P5 1.514649 1_555
O34 P6 1.525509 1_555
O35 P7 1.514649 1_545
