# generated using pymatgen
data_CeMg14W
_symmetry_space_group_name_H-M   'P 1'
_cell_length_a   6.33307283
_cell_length_b   6.33307233
_cell_length_c   10.15716045
_cell_angle_alpha   90.00000000
_cell_angle_beta   90.00000000
_cell_angle_gamma   120.00000264
_symmetry_Int_Tables_number   1
_chemical_formula_structural   CeMg14W
_chemical_formula_sum   'Ce1 Mg14 W1'
_cell_volume   352.80267062
_cell_formula_units_Z   1
loop_
 _symmetry_equiv_pos_site_id
 _symmetry_equiv_pos_as_xyz
  1  'x, y, z'
loop_
 _atom_site_type_symbol
 _atom_site_label
 _atom_site_symmetry_multiplicity
 _atom_site_fract_x
 _atom_site_fract_y
 _atom_site_fract_z
 _atom_site_occupancy
  Ce  Ce0  1  0.16666700  0.33333300  0.12500000  1
  Mg  Mg0  1  0.18198462  0.84099181  0.12500000  1
  Mg  Mg1  1  0.15961399  0.82980649  0.62500000  1
  Mg  Mg2  1  0.65900819  0.31801538  0.12500000  1
  Mg  Mg3  1  0.67019351  0.34038601  0.62500000  1
  Mg  Mg4  1  0.65900819  0.84099181  0.12500000  1
  Mg  Mg5  1  0.67019351  0.82980649  0.62500000  1
  Mg  Mg6  1  0.32964697  0.17035303  0.39476056  1
  Mg  Mg7  1  0.32964697  0.17035303  0.85523944  1
  Mg  Mg8  1  0.32964697  0.65929494  0.39476056  1
  Mg  Mg9  1  0.32964697  0.65929494  0.85523944  1
  Mg  Mg10  1  0.84070506  0.17035303  0.39476056  1
  Mg  Mg11  1  0.84070506  0.17035303  0.85523944  1
  Mg  Mg12  1  0.83333300  0.66666700  0.36014690  1
  Mg  Mg13  1  0.83333300  0.66666700  0.88985310  1
  W  W0  1  0.16666700  0.33333300  0.62500000  1
loop_
_geom_bond_atom_site_label_1
_geom_bond_atom_site_label_2
_geom_bond_distance
_geom_bond_site_symmetry_2
Ce0 Mg4 3.167650 1_555
Ce0 Mg0 3.167650 1_555
Ce0 Mg4 3.167650 1_445
Ce0 Mg0 3.167650 1_545
Ce0 Mg2 3.167651 1_455
Ce0 Mg2 3.167651 1_555
Ce0 Mg6 3.271650 1_555
Ce0 Mg7 3.271650 1_554
Ce0 Mg8 3.271656 1_555
Ce0 Mg9 3.271656 1_554
Ce0 Mg10 3.271656 1_455
Ce0 Mg11 3.271656 1_454
Mg0 Mg2 3.021025 1_565
Mg0 Mg4 3.021025 1_555
Mg0 Mg12 3.059598 1_455
Mg0 Mg13 3.059598 1_454
Mg0 Mg8 3.283644 1_555
Mg0 Mg9 3.283644 1_554
Mg0 Mg6 3.283650 1_565
Mg0 Mg7 3.283650 1_564
Mg0 Mg2 3.312048 1_455
Mg0 Mg4 3.312048 1_455
Mg1 Mg9 2.992900 1_555
Mg1 Mg8 2.992900 1_555
Mg1 Mg7 2.992906 1_565
Mg1 Mg6 2.992906 1_565
Mg1 Mg3 3.099535 1_455
Mg1 Mg5 3.099536 1_455
Mg1 W0 3.166772 1_555
Mg1 W0 3.166772 1_565
Mg1 Mg13 3.230994 1_455
Mg1 Mg12 3.230994 1_455
Mg1 Mg3 3.233537 1_565
Mg1 Mg5 3.233537 1_555
Mg2 Mg4 3.021025 1_545
Mg2 Mg6 3.283650 1_555
Mg2 Mg7 3.283650 1_554
Mg2 Mg4 3.312048 1_555
Mg3 Mg7 2.992906 1_555
Mg3 Mg6 2.992906 1_555
Mg3 Mg5 3.099535 1_555
Mg3 W0 3.166773 1_655
Mg3 W0 3.166773 1_555
Mg3 Mg5 3.233537 1_545
Mg4 Mg8 3.283650 1_555
Mg4 Mg9 3.283650 1_554
Mg5 Mg9 2.992906 1_555
Mg5 Mg8 2.992906 1_555
Mg5 W0 3.166772 1_665
Mg5 W0 3.166772 1_555
Mg6 W0 2.943644 1_555
Mg7 W0 2.943644 1_555
Mg8 W0 2.943650 1_555
Mg9 W0 2.943650 1_555
Mg10 W0 2.943650 1_655
Mg10 Mg3 2.992900 1_555
Mg10 Mg5 2.992906 1_545
Mg10 Mg12 3.186250 1_545
Mg10 Mg12 3.186250 1_555
Mg10 Mg2 3.283644 1_555
Mg10 Mg4 3.283650 1_545
Mg11 W0 2.943650 1_655
Mg11 Mg3 2.992900 1_555
Mg11 Mg5 2.992906 1_545
Mg11 Mg13 3.186250 1_545
Mg11 Mg13 3.186250 1_555
Mg11 Mg2 3.283644 1_556
Mg11 Mg4 3.283650 1_546
Mg12 Mg4 3.059591 1_555
Mg12 Mg2 3.059598 1_555
Mg12 Mg6 3.186250 1_665
Mg12 Mg6 3.186250 1_555
Mg12 Mg8 3.186251 1_555
Mg12 Mg8 3.186251 1_655
Mg12 Mg5 3.230988 1_555
Mg12 Mg3 3.230994 1_555
Mg13 Mg4 3.059591 1_556
Mg13 Mg2 3.059598 1_556
Mg13 Mg7 3.186250 1_665
Mg13 Mg7 3.186250 1_555
Mg13 Mg9 3.186251 1_555
Mg13 Mg9 3.186251 1_655
Mg13 Mg5 3.230988 1_555
Mg13 Mg3 3.230994 1_555
