# generated using pymatgen
data_MgNi3
_symmetry_space_group_name_H-M   'P 1'
_cell_length_a   3.64268200
_cell_length_b   3.64268200
_cell_length_c   3.64268200
_cell_angle_alpha   90.00000000
_cell_angle_beta   90.00000000
_cell_angle_gamma   90.00000000
_symmetry_Int_Tables_number   1
_chemical_formula_structural   MgNi3
_chemical_formula_sum   'Mg1 Ni3'
_cell_volume   48.33522885
_cell_formula_units_Z   1
loop_
 _symmetry_equiv_pos_site_id
 _symmetry_equiv_pos_as_xyz
  1  'x, y, z'
loop_
 _atom_site_type_symbol
 _atom_site_label
 _atom_site_symmetry_multiplicity
 _atom_site_fract_x
 _atom_site_fract_y
 _atom_site_fract_z
 _atom_site_occupancy
  Mg  Mg0  1  0.00000000  0.00000000  0.00000000  1
  Ni  Ni0  1  0.50000000  0.50000000  0.00000000  1
  Ni  Ni1  1  0.50000000  0.00000000  0.50000000  1
  Ni  Ni2  1  0.00000000  0.50000000  0.50000000  1
loop_
_geom_bond_atom_site_label_1
_geom_bond_atom_site_label_2
_geom_bond_distance
_geom_bond_site_symmetry_2
Mg0 Ni0 2.575765 1_545
Mg0 Ni0 2.575765 1_555
Mg0 Ni0 2.575765 1_455
Mg0 Ni1 2.575765 1_555
Mg0 Ni2 2.575765 1_544
Mg0 Ni2 2.575765 1_545
Mg0 Ni2 2.575765 1_555
Mg0 Ni0 2.575765 1_445
Mg0 Ni1 2.575765 1_455
Mg0 Ni1 2.575765 1_554
Mg0 Ni2 2.575765 1_554
Mg0 Ni1 2.575765 1_454
Ni0 Ni2 2.575765 1_655
Ni0 Ni1 2.575765 1_555
Ni0 Ni1 2.575765 1_565
Ni0 Ni2 2.575765 1_555
Ni0 Ni2 2.575765 1_654
Ni0 Ni1 2.575765 1_564
Ni0 Ni1 2.575765 1_554
Ni0 Ni2 2.575765 1_554
Ni1 Ni2 2.575765 1_655
Ni1 Ni2 2.575765 1_545
Ni1 Ni2 2.575765 1_645
Ni1 Ni2 2.575765 1_555
