# generated using pymatgen
data_Ho5Ti5O17
_symmetry_space_group_name_H-M   'P 1'
_cell_length_a   3.83330500
_cell_length_b   5.45092700
_cell_length_c   31.74936100
_cell_angle_alpha   90.00000000
_cell_angle_beta   90.00000000
_cell_angle_gamma   90.00000000
_symmetry_Int_Tables_number   1
_chemical_formula_structural   Ho5Ti5O17
_chemical_formula_sum   'Ho10 Ti10 O34'
_cell_volume   663.40498478
_cell_formula_units_Z   2
loop_
 _symmetry_equiv_pos_site_id
 _symmetry_equiv_pos_as_xyz
  1  'x, y, z'
loop_
 _atom_site_type_symbol
 _atom_site_label
 _atom_site_symmetry_multiplicity
 _atom_site_fract_x
 _atom_site_fract_y
 _atom_site_fract_z
 _atom_site_occupancy
  Ho  Ho0  1  0.00000000  0.17837800  0.01797400  1
  Ho  Ho1  1  0.00000000  0.73603200  0.69918600  1
  Ho  Ho2  1  0.00000000  0.26959800  0.79298700  1
  Ho  Ho3  1  0.00000000  0.32296100  0.56988500  1
  Ho  Ho4  1  0.00000000  0.79571900  0.89117900  1
  Ho  Ho5  1  0.50000000  0.26396800  0.19918600  1
  Ho  Ho6  1  0.50000000  0.82162200  0.51797400  1
  Ho  Ho7  1  0.50000000  0.73040200  0.29298700  1
  Ho  Ho8  1  0.50000000  0.67703900  0.06988500  1
  Ho  Ho9  1  0.50000000  0.20428100  0.39117900  1
  Ti  Ti0  1  0.00000000  0.75355000  0.20561300  1
  Ti  Ti1  1  0.00000000  0.25714400  0.29654900  1
  Ti  Ti2  1  0.00000000  0.75777400  0.38224200  1
  Ti  Ti3  1  0.00000000  0.28313000  0.46880700  1
  Ti  Ti4  1  0.50000000  0.77402700  0.61948400  1
  Ti  Ti5  1  0.50000000  0.24645000  0.70561300  1
  Ti  Ti6  1  0.50000000  0.74285600  0.79654900  1
  Ti  Ti7  1  0.50000000  0.24222600  0.88224200  1
  Ti  Ti8  1  0.50000000  0.71687000  0.96880700  1
  Ti  Ti9  1  0.00000000  0.22597300  0.11948400  1
  O  O0  1  0.00000000  0.19837000  0.71721500  1
  O  O1  1  0.00000000  0.69490600  0.79703000  1
  O  O2  1  0.00000000  0.20705300  0.87130100  1
  O  O3  1  0.00000000  0.45273600  0.07036400  1
  O  O4  1  0.00000000  0.95909800  0.08180200  1
  O  O5  1  0.00000000  0.75490400  0.96378300  1
  O  O6  1  0.00000000  0.54582500  0.16138200  1
  O  O7  1  0.00000000  0.07343100  0.17681700  1
  O  O8  1  0.00000000  0.95984200  0.26730300  1
  O  O9  1  0.00000000  0.45306200  0.24166200  1
  O  O10  1  0.50000000  0.88809200  0.85078200  1
  O  O11  1  0.50000000  0.39676600  0.82497200  1
  O  O12  1  0.50000000  0.44905300  0.00777600  1
  O  O13  1  0.50000000  0.94718000  0.01811600  1
  O  O14  1  0.50000000  0.01675900  0.92763100  1
  O  O15  1  0.50000000  0.53745300  0.91267600  1
  O  O16  1  0.50000000  0.27325500  0.12653400  1
  O  O17  1  0.50000000  0.80163000  0.21721500  1
  O  O18  1  0.50000000  0.30509400  0.29703000  1
  O  O19  1  0.50000000  0.79294700  0.37130100  1
  O  O20  1  0.50000000  0.24509600  0.46378300  1
  O  O21  1  0.50000000  0.54726400  0.57036400  1
  O  O22  1  0.50000000  0.04090200  0.58180200  1
  O  O23  1  0.50000000  0.45417500  0.66138200  1
  O  O24  1  0.50000000  0.92656900  0.67681700  1
  O  O25  1  0.50000000  0.54693800  0.74166200  1
  O  O26  1  0.50000000  0.04015800  0.76730300  1
  O  O27  1  0.00000000  0.11190800  0.35078200  1
  O  O28  1  0.00000000  0.60323400  0.32497200  1
  O  O29  1  0.00000000  0.98324100  0.42763100  1
  O  O30  1  0.00000000  0.46254700  0.41267600  1
  O  O31  1  0.00000000  0.55094700  0.50777600  1
  O  O32  1  0.00000000  0.05282000  0.51811600  1
  O  O33  1  0.00000000  0.72674500  0.62653400  1
loop_
_geom_bond_atom_site_label_1
_geom_bond_atom_site_label_2
_geom_bond_distance
_geom_bond_site_symmetry_2
Ho0 O3 2.236798 1_555
Ho0 O13 2.293859 1_545
Ho0 O13 2.293859 1_445
Ho0 O4 2.352740 1_545
Ho0 O12 2.440345 1_455
Ho0 O12 2.440345 1_555
Ho0 O5 2.878991 1_544
Ho1 O24 2.292736 1_555
Ho1 O24 2.292736 1_455
Ho1 O33 2.307210 1_555
Ho1 O25 2.560207 1_455
Ho1 O25 2.560207 1_555
Ho1 O0 2.584359 1_565
Ho1 O23 2.733978 1_555
Ho1 O23 2.733978 1_455
Ho1 O0 2.986132 1_555
Ho1 O1 3.114563 1_555
Ho2 O11 2.277127 1_455
Ho2 O11 2.277127 1_555
Ho2 O1 2.321874 1_555
Ho2 O26 2.429541 1_455
Ho2 O26 2.429541 1_555
Ho2 O0 2.436842 1_555
Ho2 O2 2.509684 1_555
Ho3 O32 2.206771 1_555
Ho3 O21 2.273474 1_455
Ho3 O21 2.273474 1_555
Ho3 O31 2.330850 1_555
Ho3 O22 2.486074 1_455
Ho3 O22 2.486074 1_555
Ho3 O33 2.842401 1_555
Ho4 O5 2.315842 1_555
Ho4 O2 2.329281 1_565
Ho4 O10 2.360529 1_555
Ho4 O10 2.360529 1_455
Ho4 O15 2.474117 1_555
Ho4 O15 2.474117 1_455
Ho4 O14 2.542574 1_565
Ho4 O14 2.542574 1_465
Ho5 O7 2.292736 1_555
Ho5 O7 2.292736 1_655
Ho5 O16 2.307210 1_555
Ho5 O9 2.560207 1_655
Ho5 O9 2.560207 1_555
Ho5 O17 2.584359 1_545
Ho5 O6 2.733978 1_555
Ho5 O6 2.733978 1_655
Ho5 O17 2.986132 1_555
Ho5 O18 3.114563 1_555
Ho6 O21 2.236798 1_555
Ho6 O32 2.293859 1_565
Ho6 O32 2.293859 1_665
Ho6 O22 2.352740 1_565
Ho6 O31 2.440345 1_555
Ho6 O31 2.440345 1_655
Ho6 O20 2.878991 1_565
Ho7 O28 2.277127 1_555
Ho7 O28 2.277127 1_655
Ho7 O18 2.321874 1_555
Ho7 O8 2.429541 1_655
Ho7 O8 2.429541 1_555
Ho7 O17 2.436842 1_555
Ho7 O19 2.509684 1_555
Ho8 O13 2.206771 1_555
Ho8 O3 2.273474 1_655
Ho8 O3 2.273474 1_555
Ho8 O12 2.330850 1_555
Ho8 O4 2.486074 1_555
Ho8 O4 2.486074 1_655
Ho8 O16 2.842401 1_555
Ho9 O20 2.315842 1_555
Ho9 O19 2.329281 1_545
Ho9 O27 2.360529 1_655
Ho9 O27 2.360529 1_555
Ho9 O30 2.474117 1_555
Ho9 O30 2.474117 1_655
Ho9 O29 2.542574 1_645
Ho9 O29 2.542574 1_545
O0 Ti5 1.969246 1_455
O0 Ti5 1.969246 1_555
O1 Ti6 1.934452 1_555
O1 Ti6 1.934452 1_455
O2 Ti7 1.957289 1_555
O2 Ti7 1.957289 1_455
O3 Ti9 1.989974 1_555
O4 Ti9 1.883487 1_565
O5 Ti8 1.934420 1_555
O5 Ti8 1.934420 1_455
O6 Ti0 1.803930 1_555
O6 Ti9 2.193007 1_555
O7 Ti0 1.968799 1_545
O7 Ti9 2.001206 1_555
O8 Ti1 1.867737 1_565
O8 Ti0 2.258461 1_555
O9 Ti0 1.998198 1_555
O9 Ti1 2.043828 1_555
O10 Ti6 1.895140 1_555
O10 Ti7 2.173466 1_565
O11 Ti7 2.003941 1_555
O11 Ti6 2.091237 1_555
O12 Ti8 1.913617 1_554
O13 Ti8 2.006718 1_554
O14 Ti7 1.893974 1_555
O14 Ti8 2.093136 1_545
O15 Ti7 1.877067 1_555
O15 Ti8 2.032837 1_555
O16 Ti9 1.946814 1_555
O16 Ti9 1.946814 1_655
O17 Ti0 1.969246 1_555
O17 Ti0 1.969246 1_655
O18 Ti1 1.934452 1_555
O18 Ti1 1.934452 1_655
O19 Ti2 1.957289 1_655
O19 Ti2 1.957289 1_555
O20 Ti3 1.934420 1_555
O20 Ti3 1.934420 1_655
O21 Ti4 1.989974 1_555
O22 Ti4 1.883487 1_545
O23 Ti5 1.803930 1_555
O23 Ti4 2.193007 1_555
O24 Ti5 1.968799 1_565
O24 Ti4 2.001206 1_555
O25 Ti5 1.998198 1_555
O25 Ti6 2.043828 1_555
O26 Ti6 1.867737 1_545
O26 Ti5 2.258461 1_555
O27 Ti1 1.895140 1_555
O27 Ti2 2.173466 1_545
O28 Ti2 2.003941 1_555
O28 Ti1 2.091237 1_555
O29 Ti2 1.893974 1_555
O29 Ti3 2.093136 1_565
O30 Ti2 1.877067 1_555
O30 Ti3 2.032837 1_555
O31 Ti3 1.913617 1_555
O32 Ti3 2.006718 1_555
O33 Ti4 1.946814 1_555
O33 Ti4 1.946814 1_455
