# generated using pymatgen
data_Li2TcO3
_symmetry_space_group_name_H-M   'P 1'
_cell_length_a   4.93472508
_cell_length_b   4.93472508
_cell_length_c   9.92875081
_cell_angle_alpha   84.90976551
_cell_angle_beta   84.90976551
_cell_angle_gamma   117.38528362
_symmetry_Int_Tables_number   1
_chemical_formula_structural   Li2TcO3
_chemical_formula_sum   'Li8 Tc4 O12'
_cell_volume   211.53202955
_cell_formula_units_Z   4
loop_
 _symmetry_equiv_pos_site_id
 _symmetry_equiv_pos_as_xyz
  1  'x, y, z'
loop_
 _atom_site_type_symbol
 _atom_site_label
 _atom_site_symmetry_multiplicity
 _atom_site_fract_x
 _atom_site_fract_y
 _atom_site_fract_z
 _atom_site_occupancy
  Li  Li0  1  0.65021185  0.81165498  0.50378636  1
  Li  Li1  1  0.34978815  0.18834502  0.49621364  1
  Li  Li2  1  0.18834502  0.34978815  0.99621364  1
  Li  Li3  1  0.81165498  0.65021185  0.00378636  1
  Li  Li4  1  0.58349124  0.41650876  0.75000000  1
  Li  Li5  1  0.41650876  0.58349124  0.25000000  1
  Li  Li6  1  0.50000000  -0.00000000  0.00000000  1
  Li  Li7  1  0.00000000  0.50000000  0.50000000  1
  Tc  Tc0  1  0.23321454  0.76678546  0.75000000  1
  Tc  Tc1  1  0.76678546  0.23321454  0.25000000  1
  Tc  Tc2  1  0.93189077  0.06810923  0.75000000  1
  Tc  Tc3  1  0.06810923  0.93189077  0.25000000  1
  O  O0  1  0.79159011  0.95799632  0.11989697  1
  O  O1  1  0.20840989  0.04200368  0.88010303  1
  O  O2  1  0.04200368  0.20840989  0.38010303  1
  O  O3  1  0.95799632  0.79159011  0.61989697  1
  O  O4  1  0.54598791  0.72424967  0.86365423  1
  O  O5  1  0.45401209  0.27575033  0.13634577  1
  O  O6  1  0.27575033  0.45401209  0.63634577  1
  O  O7  1  0.72424967  0.54598791  0.36365423  1
  O  O8  1  0.61870744  0.10822973  0.63671312  1
  O  O9  1  0.38129256  0.89177027  0.36328688  1
  O  O10  1  0.89177027  0.38129256  0.86328688  1
  O  O11  1  0.10822973  0.61870744  0.13671312  1
loop_
_geom_bond_atom_site_label_1
_geom_bond_atom_site_label_2
_geom_bond_distance
_geom_bond_site_symmetry_2
Li0 O3 2.018533 1_555
Li0 O6 2.101835 1_555
Li0 O8 2.103226 1_565
Li0 O7 2.112371 1_555
Li0 O9 2.139298 1_555
Li0 O2 2.179233 1_665
Li1 O2 2.018533 1_555
Li1 O7 2.101835 1_555
Li1 O9 2.103226 1_545
Li1 O6 2.112371 1_555
Li1 O8 2.139298 1_555
Li1 O3 2.179233 1_445
Li2 O1 2.018533 1_555
Li2 O4 2.101835 1_555
Li2 O10 2.103226 1_455
Li2 O5 2.112371 1_556
Li2 O11 2.139298 1_556
Li2 O0 2.179233 1_446
Li3 O0 2.018533 1_555
Li3 O5 2.101835 1_555
Li3 O11 2.103226 1_655
Li3 O4 2.112371 1_554
Li3 O10 2.139298 1_554
Li3 O1 2.179233 1_664
Li4 O10 2.030220 1_555
Li4 O8 2.030220 1_555
Li4 O6 2.034555 1_555
Li4 O4 2.034555 1_555
Li4 O1 2.124914 1_555
Li4 O3 2.124914 1_555
Li5 O11 2.030220 1_555
Li5 O9 2.030220 1_555
Li5 O5 2.034555 1_555
Li5 O7 2.034555 1_555
Li5 O0 2.124914 1_555
Li5 O2 2.124914 1_555
Li6 O0 2.016212 1_545
Li6 O1 2.016212 1_554
Li6 O4 2.071767 1_544
Li6 O5 2.071767 1_555
Li6 O10 2.203436 1_554
Li6 O11 2.203436 1_545
Li7 O2 2.016212 1_555
Li7 O3 2.016212 1_455
Li7 O7 2.071767 1_455
Li7 O6 2.071767 1_555
Li7 O9 2.203436 1_555
Li7 O8 2.203436 1_455
O0 Tc1 1.991060 1_565
O0 Tc3 1.998047 1_655
O1 Tc0 1.991060 1_545
O1 Tc2 1.998047 1_455
O2 Tc1 1.991060 1_455
O2 Tc3 1.998047 1_545
O3 Tc0 1.991060 1_655
O3 Tc2 1.998047 1_565
O4 Tc2 2.021231 1_565
O4 Tc0 2.065128 1_555
O5 Tc3 2.021231 1_545
O5 Tc1 2.065128 1_555
O6 Tc2 2.021231 1_455
O6 Tc0 2.065128 1_555
O7 Tc3 2.021231 1_655
O7 Tc1 2.065128 1_555
O8 Tc0 2.014517 1_545
O8 Tc2 2.059925 1_555
O9 Tc1 2.014517 1_565
O9 Tc3 2.059925 1_555
O10 Tc0 2.014517 1_655
O10 Tc2 2.059925 1_555
O11 Tc1 2.014517 1_455
O11 Tc3 2.059925 1_555
