# generated using pymatgen
data_K2LiNd4Nb2O12
_symmetry_space_group_name_H-M   'P 1'
_cell_length_a   5.78179105
_cell_length_b   6.93196732
_cell_length_c   8.99788968
_cell_angle_alpha   104.34290474
_cell_angle_beta   89.98546077
_cell_angle_gamma   114.65052918
_symmetry_Int_Tables_number   1
_chemical_formula_structural   K2LiNd4Nb2O12
_chemical_formula_sum   'K2 Li1 Nd4 Nb2 O12'
_cell_volume   315.36450149
_cell_formula_units_Z   1
loop_
 _symmetry_equiv_pos_site_id
 _symmetry_equiv_pos_as_xyz
  1  'x, y, z'
loop_
 _atom_site_type_symbol
 _atom_site_label
 _atom_site_symmetry_multiplicity
 _atom_site_fract_x
 _atom_site_fract_y
 _atom_site_fract_z
 _atom_site_occupancy
  K  K0  1  0.11845100  0.23692900  0.47971400  1
  K  K1  1  0.87641300  0.75279300  0.50177300  1
  Li  Li0  1  0.90804600  0.81670200  0.82699000  1
  Nd  Nd0  1  0.14501200  0.29003300  0.93428400  1
  Nd  Nd1  1  0.58145400  0.16306000  0.18728500  1
  Nd  Nd2  1  0.41189100  0.82406100  0.79597800  1
  Nd  Nd3  1  0.86687900  0.73382000  0.09331000  1
  Nb  Nb0  1  0.65336000  0.30684800  0.69789900  1
  Nb  Nb1  1  0.34179300  0.68363600  0.29411400  1
  O  O0  1  0.99801100  0.54605300  0.81742900  1
  O  O1  1  0.21823400  0.90872800  0.29072900  1
  O  O2  1  0.23115200  0.99309000  0.98968800  1
  O  O3  1  0.78894500  0.09321000  0.70847000  1
  O  O4  1  0.69041400  0.90873300  0.29073500  1
  O  O5  1  0.76164100  0.99301000  0.98963600  1
  O  O6  1  0.30418000  0.09311000  0.70840900  1
  O  O7  1  0.99521100  0.46670800  0.17396700  1
  O  O8  1  0.66727000  0.33427200  0.49607700  1
  O  O9  1  0.32870400  0.65728700  0.49662200  1
  O  O10  1  0.47164900  0.46676500  0.17397400  1
  O  O11  1  0.54754000  0.54596900  0.81720500  1
loop_
_geom_bond_atom_site_label_1
_geom_bond_atom_site_label_2
_geom_bond_distance
_geom_bond_site_symmetry_2
K0 O9 2.611017 1_555
K0 O1 2.752826 1_545
K0 O4 2.753330 1_445
K0 O3 2.879147 1_455
K0 O6 2.879591 1_555
K0 O8 2.949728 1_455
K0 O8 2.951414 1_555
K1 O8 2.623286 1_555
K1 O1 2.813077 1_655
K1 O4 2.813989 1_555
K1 O6 2.846288 1_665
K1 O3 2.846718 1_565
K1 O9 2.950375 1_555
K1 O9 2.950908 1_655
Li0 O5 2.080420 1_555
Li0 O2 2.082598 1_655
Li0 O11 2.128279 1_555
Li0 O0 2.128824 1_555
Nd0 O2 2.469265 1_545
Nd0 O5 2.470033 1_445
Nd0 O7 2.544886 1_456
Nd0 O10 2.545954 1_556
Nd0 O6 2.552128 1_555
Nd0 O3 2.552213 1_455
Nd0 O11 2.674753 1_555
Nd0 O0 2.675964 1_455
Nd1 O5 2.371179 1_544
Nd1 O2 2.371670 1_544
Nd1 O10 2.467685 1_555
Nd1 O7 2.468244 1_555
Nd1 O1 2.471523 1_545
Nd1 O4 2.472098 1_545
Nd1 O8 2.692654 1_555
Nd2 O2 2.347659 1_555
Nd2 O5 2.347836 1_555
Nd2 O11 2.410683 1_555
Nd2 O0 2.411360 1_455
Nd2 O6 2.486813 1_565
Nd2 O3 2.487497 1_565
Nd2 O9 2.610974 1_555
Nd3 O4 2.372892 1_555
Nd3 O1 2.373285 1_655
Nd3 O2 2.491385 1_654
Nd3 O5 2.492221 1_554
Nd3 O10 2.512320 1_555
Nd3 O7 2.513525 1_555
Nd3 O0 2.766308 1_554
Nd3 O11 2.769600 1_554
Nb0 O8 1.870447 1_555
Nb0 O6 1.963211 1_555
Nb0 O3 1.963411 1_555
Nb0 O11 2.058723 1_555
Nb0 O0 2.058723 1_555
Nb1 O9 1.874191 1_555
Nb1 O4 1.974441 1_555
Nb1 O1 1.974666 1_555
Nb1 O7 2.031627 1_455
Nb1 O10 2.031814 1_555
