# generated using pymatgen
data_Ca4SN4
_symmetry_space_group_name_H-M   'P 1'
_cell_length_a   6.22735802
_cell_length_b   6.20696422
_cell_length_c   8.63459080
_cell_angle_alpha   83.24746805
_cell_angle_beta   69.69569010
_cell_angle_gamma   73.42837243
_symmetry_Int_Tables_number   1
_chemical_formula_structural   Ca4SN4
_chemical_formula_sum   'Ca8 S2 N8'
_cell_volume   299.94860150
_cell_formula_units_Z   2
loop_
 _symmetry_equiv_pos_site_id
 _symmetry_equiv_pos_as_xyz
  1  'x, y, z'
loop_
 _atom_site_type_symbol
 _atom_site_label
 _atom_site_symmetry_multiplicity
 _atom_site_fract_x
 _atom_site_fract_y
 _atom_site_fract_z
 _atom_site_occupancy
  Ca  Ca0  1  0.82237500  0.60094100  0.15825100  1
  Ca  Ca1  1  0.17762500  0.39905900  0.84174900  1
  Ca  Ca2  1  0.69496800  0.19482400  0.00066500  1
  Ca  Ca3  1  0.30503200  0.80517600  0.99933500  1
  Ca  Ca4  1  0.71159300  0.48971600  0.57940300  1
  Ca  Ca5  1  0.28840700  0.51028400  0.42059700  1
  Ca  Ca6  1  0.23392300  0.98751800  0.57325500  1
  Ca  Ca7  1  0.76607700  0.01248200  0.42674500  1
  S  S0  1  0.81419300  0.78677800  0.80201500  1
  S  S1  1  0.18580700  0.21322200  0.19798500  1
  N  N0  1  0.94178100  0.75604100  0.60748300  1
  N  N1  1  0.05821900  0.24395900  0.39251700  1
  N  N2  1  0.00741400  0.82156900  0.88233800  1
  N  N3  1  0.99258600  0.17843100  0.11766200  1
  N  N4  1  0.73611000  0.55322300  0.88174900  1
  N  N5  1  0.26389000  0.44677700  0.11825100  1
  N  N6  1  0.56172300  0.74162300  0.39728500  1
  N  N7  1  0.43827700  0.25837700  0.60271500  1
loop_
_geom_bond_atom_site_label_1
_geom_bond_atom_site_label_2
_geom_bond_distance
_geom_bond_site_symmetry_2
Ca0 N6 2.224271 1_555
Ca0 N3 2.548834 1_555
Ca0 N5 2.551947 1_655
Ca0 N2 2.665826 1_654
Ca0 N4 2.687666 1_554
Ca1 N7 2.224271 1_555
Ca1 N2 2.548834 1_555
Ca1 N4 2.551947 1_455
Ca1 N3 2.665826 1_456
Ca1 N5 2.687666 1_556
Ca2 N3 2.373512 1_555
Ca2 N4 2.382025 1_554
Ca2 N5 2.601923 1_555
Ca2 N2 2.608212 1_644
Ca3 N2 2.373512 1_555
Ca3 N5 2.382025 1_556
Ca3 N4 2.601923 1_555
Ca3 N3 2.608212 1_466
Ca4 N6 2.323046 1_555
Ca4 N1 2.423519 1_655
Ca4 N7 2.467319 1_555
Ca4 N0 2.556051 1_555
Ca4 N4 2.747190 1_555
Ca5 N7 2.323046 1_555
Ca5 N0 2.423519 1_455
Ca5 N6 2.467319 1_555
Ca5 N1 2.556051 1_555
Ca5 N5 2.747190 1_555
Ca6 N6 2.328240 1_555
Ca6 N1 2.402854 1_565
Ca6 N7 2.460957 1_565
Ca6 N0 2.545471 1_455
Ca6 N2 2.782605 1_555
Ca7 N7 2.328240 1_555
Ca7 N0 2.402854 1_545
Ca7 N6 2.460957 1_545
Ca7 N1 2.545471 1_655
Ca7 N3 2.782605 1_555
N0 S0 1.597425 1_555
N1 S1 1.597425 1_555
N2 S0 1.654718 1_455
N3 S1 1.654718 1_655
N4 S0 1.657415 1_555
N5 S1 1.657415 1_555
