# generated using pymatgen
data_K3NpO8
_symmetry_space_group_name_H-M   'P 1'
_cell_length_a   6.83312900
_cell_length_b   8.82230500
_cell_length_c   8.23172774
_cell_angle_alpha   90.00000000
_cell_angle_beta   117.10909634
_cell_angle_gamma   90.00000000
_symmetry_Int_Tables_number   1
_chemical_formula_structural   K3NpO8
_chemical_formula_sum   'K6 Np2 O16'
_cell_volume   441.72423991
_cell_formula_units_Z   2
loop_
 _symmetry_equiv_pos_site_id
 _symmetry_equiv_pos_as_xyz
  1  'x, y, z'
loop_
 _atom_site_type_symbol
 _atom_site_label
 _atom_site_symmetry_multiplicity
 _atom_site_fract_x
 _atom_site_fract_y
 _atom_site_fract_z
 _atom_site_occupancy
  K  K0  1  0.00000000  0.00000000  0.50000000  1
  K  K1  1  0.00000000  0.50000000  0.00000000  1
  K  K2  1  0.43163700  0.72377000  0.43911300  1
  K  K3  1  0.56836300  0.22377000  0.06088700  1
  K  K4  1  0.56836300  0.27623000  0.56088700  1
  K  K5  1  0.43163700  0.77623000  0.93911300  1
  Np  Np0  1  0.00000000  0.50000000  0.50000000  1
  Np  Np1  1  0.00000000  0.00000000  0.00000000  1
  O  O0  1  0.27144400  0.43406100  0.81118500  1
  O  O1  1  0.72855600  0.93406100  0.68881500  1
  O  O2  1  0.72855600  0.56593900  0.18881500  1
  O  O3  1  0.27144400  0.06593900  0.31118500  1
  O  O4  1  0.11114900  0.70128600  0.55796200  1
  O  O5  1  0.88885100  0.20128600  0.94203800  1
  O  O6  1  0.88885100  0.29871400  0.44203800  1
  O  O7  1  0.11114900  0.79871400  0.05796200  1
  O  O8  1  0.17557500  0.46666100  0.37743500  1
  O  O9  1  0.82442500  0.96666100  0.12256500  1
  O  O10  1  0.82442500  0.53333900  0.62256500  1
  O  O11  1  0.17557500  0.03333900  0.87743500  1
  O  O12  1  0.45609500  0.45156200  0.79202300  1
  O  O13  1  0.54390500  0.95156200  0.70797700  1
  O  O14  1  0.54390500  0.54843800  0.20797700  1
  O  O15  1  0.45609500  0.04843800  0.29202300  1
loop_
_geom_bond_atom_site_label_1
_geom_bond_atom_site_label_2
_geom_bond_distance
_geom_bond_site_symmetry_2
K0 O6 2.723834 1_455
K0 O4 2.723834 1_545
K0 O9 2.789591 1_445
K0 O11 2.789591 1_555
K0 O3 2.970167 1_555
K0 O1 2.970167 1_445
K0 O15 3.335809 1_455
K0 O13 3.335809 1_545
K1 O7 2.723834 1_555
K1 O5 2.723834 1_454
K1 O8 2.789591 1_555
K1 O10 2.789591 1_454
K1 O2 2.970167 1_455
K1 O0 2.970167 1_554
K1 O14 3.335809 1_555
K1 O12 3.335809 1_454
K2 O8 2.766727 1_555
K2 O4 2.782967 1_555
K2 O14 2.816293 1_555
K2 O13 2.824562 1_555
K2 O1 2.825350 1_555
K2 O10 2.934758 1_555
K2 O7 2.969014 1_555
K2 O15 3.143681 1_565
K2 O3 3.220134 1_565
K3 O9 2.766727 1_545
K3 O5 2.782967 1_554
K3 O15 2.816293 1_555
K3 O12 2.824562 1_554
K3 O0 2.825350 1_554
K3 O11 2.934758 1_554
K3 O6 2.969014 1_555
K3 O14 3.143681 1_555
K3 O2 3.220134 1_555
K4 O10 2.766727 1_555
K4 O6 2.782967 1_555
K4 O12 2.816293 1_555
K4 O15 2.824562 1_555
K4 O3 2.825350 1_555
K4 O8 2.934758 1_555
K4 O5 2.969014 1_555
K4 O13 3.143681 1_545
K4 O1 3.220134 1_545
K5 O11 2.766727 1_565
K5 O7 2.782967 1_556
K5 O13 2.816293 1_555
K5 O14 2.824562 1_556
K5 O2 2.825350 1_556
K5 O9 2.934758 1_556
K5 O4 2.969014 1_555
K5 O12 3.143681 1_555
K5 O0 3.220134 1_555
Np0 O4 1.904656 1_555
Np0 O6 1.904656 1_455
Np0 O10 1.909694 1_455
Np0 O8 1.909694 1_555
Np0 O0 2.451594 1_555
Np0 O2 2.451594 1_455
Np1 O5 1.904656 1_454
Np1 O7 1.904656 1_545
Np1 O11 1.909694 1_554
Np1 O9 1.909694 1_445
Np1 O3 2.451594 1_555
Np1 O1 2.451594 1_444
O0 O12 1.349853 1_555
O1 O13 1.349853 1_555
O14 O2 1.349853 1_555
O15 O3 1.349853 1_555
