# generated using pymatgen
data_Li9Mn2Co5O16
_symmetry_space_group_name_H-M   'P 1'
_cell_length_a   5.11330100
_cell_length_b   5.88116853
_cell_length_c   10.47427648
_cell_angle_alpha   74.56119711
_cell_angle_beta   76.33723168
_cell_angle_gamma   74.44210164
_symmetry_Int_Tables_number   1
_chemical_formula_structural   Li9Mn2Co5O16
_chemical_formula_sum   'Li9 Mn2 Co5 O16'
_cell_volume   287.85022879
_cell_formula_units_Z   1
loop_
 _symmetry_equiv_pos_site_id
 _symmetry_equiv_pos_as_xyz
  1  'x, y, z'
loop_
 _atom_site_type_symbol
 _atom_site_label
 _atom_site_symmetry_multiplicity
 _atom_site_fract_x
 _atom_site_fract_y
 _atom_site_fract_z
 _atom_site_occupancy
  Li  Li0  1  0.49801500  0.80411500  0.13549800  1
  Li  Li1  1  0.49962300  0.30716700  0.13186000  1
  Li  Li2  1  0.50316500  0.44833400  0.36986000  1
  Li  Li3  1  0.50371700  0.93254600  0.37412600  1
  Li  Li4  1  0.49840000  0.06295400  0.61916100  1
  Li  Li5  1  0.49610200  0.56955900  0.61978300  1
  Li  Li6  1  0.49973900  0.69281200  0.87542900  1
  Li  Li7  1  0.50142400  0.18159000  0.87743600  1
  Li  Li8  1  0.99691500  0.62782000  0.25011500  1
  Mn  Mn0  1  0.00555400  0.99365900  0.00201300  1
  Mn  Mn1  1  0.99665000  0.87618600  0.74999100  1
  Co  Co0  1  0.99999100  0.49880700  0.00313300  1
  Co  Co1  1  0.99917900  0.12148200  0.24949600  1
  Co  Co2  1  0.00480700  0.26086000  0.48848200  1
  Co  Co3  1  0.99477400  0.75017100  0.49331600  1
  Co  Co4  1  0.00088800  0.37641200  0.74886300  1
  O  O0  1  0.23944700  0.14182300  0.05868500  1
  O  O1  1  0.21812500  0.67293500  0.05263900  1
  O  O2  1  0.23470100  0.79407300  0.31801900  1
  O  O3  1  0.23509700  0.27146800  0.32084200  1
  O  O4  1  0.22539600  0.40694000  0.57657700  1
  O  O5  1  0.21945700  0.90195000  0.57460000  1
  O  O6  1  0.22731900  0.01899600  0.81812300  1
  O  O7  1  0.20845600  0.54654700  0.81544300  1
  O  O8  1  0.77580100  0.46111400  0.17310000  1
  O  O9  1  0.77442200  0.98128900  0.17427400  1
  O  O10  1  0.76160600  0.09057000  0.43591000  1
  O  O11  1  0.76188600  0.58915600  0.44661600  1
  O  O12  1  0.76462700  0.72747400  0.69388300  1
  O  O13  1  0.78800600  0.20222400  0.68986400  1
  O  O14  1  0.79507200  0.32860500  0.93240300  1
  O  O15  1  0.77163800  0.86036600  0.93046100  1
loop_
_geom_bond_atom_site_label_1
_geom_bond_atom_site_label_2
_geom_bond_distance
_geom_bond_site_symmetry_2
Li0 O2 2.058571 1_555
Li0 O9 2.129498 1_555
Li0 O8 2.132184 1_555
Li0 O0 2.140833 1_565
Li0 O1 2.220857 1_555
Li0 O15 2.264894 1_554
Li1 O8 2.045196 1_555
Li1 O9 2.059584 1_545
Li1 O3 2.111411 1_555
Li1 O0 2.208024 1_555
Li1 O14 2.265771 1_554
Li1 O1 2.311001 1_555
Li2 O11 2.127690 1_555
Li2 O2 2.140270 1_555
Li2 O3 2.146175 1_555
Li2 O8 2.193838 1_555
Li2 O10 2.194862 1_555
Li2 O4 2.284017 1_555
Li3 O2 2.034301 1_555
Li3 O10 2.098128 1_565
Li3 O3 2.114802 1_565
Li3 O11 2.150509 1_555
Li3 O9 2.214639 1_555
Li3 O5 2.247572 1_555
Li4 O10 2.062229 1_555
Li4 O5 2.103122 1_545
Li4 O4 2.130526 1_555
Li4 O12 2.144500 1_545
Li4 O6 2.207235 1_555
Li4 O13 2.214468 1_555
Li5 O11 1.989557 1_555
Li5 O4 2.066883 1_555
Li5 O5 2.094456 1_555
Li5 O7 2.217379 1_555
Li5 O12 2.218435 1_555
Li5 O13 2.318916 1_555
Li6 O12 2.053540 1_555
Li6 O1 2.060238 1_556
Li6 O6 2.080670 1_565
Li6 O15 2.156887 1_555
Li6 O7 2.184084 1_555
Li6 O14 2.287935 1_555
Li7 O0 2.045367 1_556
Li7 O15 2.046994 1_545
Li7 O13 2.151838 1_555
Li7 O14 2.168735 1_555
Li7 O6 2.170573 1_555
Li7 O7 2.294638 1_555
Li8 O8 2.082507 1_555
Li8 O2 2.087281 1_655
Li8 O1 2.095638 1_655
Li8 O11 2.112125 1_555
Li8 O9 2.127410 1_555
Li8 O3 2.157485 1_655
Mn0 O9 1.904321 1_455
Mn0 O1 1.913234 1_555
Mn0 O0 1.926600 1_565
Mn0 O15 1.961141 1_454
Mn0 O6 1.980906 1_564
Mn0 O14 2.009749 1_464
Mn1 O5 1.910885 1_655
Mn1 O12 1.917684 1_555
Mn1 O13 1.946451 1_565
Mn1 O15 1.960096 1_555
Mn1 O6 1.963165 1_665
Mn1 O7 1.979445 1_655
Co0 O8 1.869424 1_555
Co0 O1 1.931419 1_655
Co0 O7 1.989119 1_654
Co0 O14 1.993216 1_554
Co0 O0 2.133726 1_655
Co0 O15 2.165772 1_554
Co1 O9 1.975672 1_545
Co1 O2 2.025287 1_645
Co1 O10 2.032277 1_555
Co1 O3 2.034548 1_655
Co1 O8 2.071625 1_555
Co1 O0 2.075977 1_655
Co2 O3 1.864941 1_555
Co2 O11 1.995767 1_455
Co2 O10 2.034174 1_455
Co2 O4 2.072517 1_555
Co2 O13 2.123734 1_455
Co2 O5 2.164496 1_545
Co3 O11 1.918530 1_555
Co3 O2 1.948438 1_655
Co3 O10 2.051395 1_565
Co3 O5 2.063591 1_655
Co3 O4 2.120744 1_655
Co3 O12 2.140813 1_555
Co4 O4 1.888378 1_555
Co4 O14 1.948735 1_455
Co4 O13 1.967043 1_455
Co4 O7 1.976071 1_555
Co4 O12 2.100361 1_455
Co4 O6 2.136513 1_555
