# generated using pymatgen
data_Cd7GeN6
_symmetry_space_group_name_H-M   'P 1'
_cell_length_a   5.94872344
_cell_length_b   5.94872344
_cell_length_c   13.74053400
_cell_angle_alpha   90.00000000
_cell_angle_beta   90.00000000
_cell_angle_gamma   119.37689121
_symmetry_Int_Tables_number   1
_chemical_formula_structural   Cd7GeN6
_chemical_formula_sum   'Cd14 Ge2 N12'
_cell_volume   423.71571587
_cell_formula_units_Z   2
loop_
 _symmetry_equiv_pos_site_id
 _symmetry_equiv_pos_as_xyz
  1  'x, y, z'
loop_
 _atom_site_type_symbol
 _atom_site_label
 _atom_site_symmetry_multiplicity
 _atom_site_fract_x
 _atom_site_fract_y
 _atom_site_fract_z
 _atom_site_occupancy
  Cd  Cd0  1  0.74598300  0.74598300  0.96778100  1
  Cd  Cd1  1  0.25401700  0.25401700  0.46778100  1
  Cd  Cd2  1  0.25401700  0.25401700  0.03221900  1
  Cd  Cd3  1  0.74598300  0.74598300  0.53221900  1
  Cd  Cd4  1  0.97967900  0.41937800  0.61926300  1
  Cd  Cd5  1  0.02032100  0.58062200  0.11926300  1
  Cd  Cd6  1  0.58062200  0.02032100  0.38073700  1
  Cd  Cd7  1  0.41937800  0.97967900  0.88073700  1
  Cd  Cd8  1  0.02032100  0.58062200  0.38073700  1
  Cd  Cd9  1  0.97967900  0.41937800  0.88073700  1
  Cd  Cd10  1  0.41937800  0.97967900  0.61926300  1
  Cd  Cd11  1  0.58062200  0.02032100  0.11926300  1
  Cd  Cd12  1  0.39865400  0.39865400  0.75000000  1
  Cd  Cd13  1  0.60134600  0.60134600  0.25000000  1
  Ge  Ge0  1  0.88608900  0.88608900  0.75000000  1
  Ge  Ge1  1  0.11391100  0.11391100  0.25000000  1
  N  N0  1  0.83659300  0.54601500  0.75000000  1
  N  N1  1  0.16340700  0.45398500  0.25000000  1
  N  N2  1  0.45398500  0.16340700  0.25000000  1
  N  N3  1  0.54601500  0.83659300  0.75000000  1
  N  N4  1  0.66899200  0.33100800  0.50000000  1
  N  N5  1  0.33100800  0.66899200  0.00000000  1
  N  N6  1  0.33100800  0.66899200  0.50000000  1
  N  N7  1  0.66899200  0.33100800  0.00000000  1
  N  N8  1  0.07221300  0.07221300  0.63744300  1
  N  N9  1  0.92778700  0.92778700  0.13744300  1
  N  N10  1  0.92778700  0.92778700  0.36255700  1
  N  N11  1  0.07221300  0.07221300  0.86255700  1
loop_
_geom_bond_atom_site_label_1
_geom_bond_atom_site_label_2
_geom_bond_distance
_geom_bond_site_symmetry_2
Cd0 N7 2.321715 1_556
Cd0 N5 2.321715 1_556
Cd0 N11 2.434693 1_665
Cd0 N9 2.574191 1_556
Cd1 N4 2.321715 1_555
Cd1 N6 2.321715 1_555
Cd1 N10 2.434693 1_445
Cd1 N8 2.574191 1_555
Cd2 N7 2.321715 1_555
Cd2 N5 2.321715 1_555
Cd2 N9 2.434693 1_445
Cd2 N11 2.574191 1_554
Cd3 N6 2.321715 1_555
Cd3 N4 2.321715 1_555
Cd3 N8 2.434693 1_665
Cd3 N10 2.574191 1_555
Cd4 N0 2.268954 1_555
Cd4 N4 2.329035 1_555
Cd4 N8 2.397026 1_655
Cd4 N6 2.492702 1_655
Cd5 N1 2.268954 1_555
Cd5 N5 2.329035 1_555
Cd5 N9 2.397026 1_455
Cd5 N7 2.492702 1_455
Cd6 N2 2.268954 1_555
Cd6 N4 2.329035 1_555
Cd6 N10 2.397026 1_545
Cd6 N6 2.492702 1_545
Cd7 N3 2.268954 1_555
Cd7 N5 2.329035 1_556
Cd7 N11 2.397026 1_565
Cd7 N7 2.492702 1_566
Cd8 N1 2.268954 1_555
Cd8 N6 2.329035 1_555
Cd8 N10 2.397026 1_455
Cd8 N4 2.492702 1_455
Cd9 N0 2.268954 1_555
Cd9 N7 2.329035 1_556
Cd9 N11 2.397026 1_655
Cd9 N5 2.492702 1_656
Cd10 N3 2.268954 1_555
Cd10 N6 2.329035 1_555
Cd10 N8 2.397026 1_565
Cd10 N4 2.492702 1_565
Cd11 N2 2.268954 1_555
Cd11 N7 2.329035 1_555
Cd11 N9 2.397026 1_545
Cd11 N5 2.492702 1_545
Cd12 N3 2.305390 1_555
Cd12 N0 2.305390 1_555
Cd12 N11 2.496840 1_555
Cd12 N8 2.496840 1_555
Cd13 N1 2.305390 1_555
Cd13 N2 2.305390 1_555
Cd13 N9 2.496840 1_555
Cd13 N10 2.496840 1_555
Ge0 N0 1.896010 1_555
Ge0 N3 1.896010 1_555
Ge0 N11 1.908142 1_665
Ge0 N8 1.908142 1_665
Ge1 N1 1.896010 1_555
Ge1 N2 1.896010 1_555
Ge1 N9 1.908142 1_445
Ge1 N10 1.908142 1_445
