# generated using pymatgen
data_Cs2BaCl4
_symmetry_space_group_name_H-M   'P 1'
_cell_length_a   8.68669802
_cell_length_b   8.68669802
_cell_length_c   8.68669802
_cell_angle_alpha   110.54873202
_cell_angle_beta   110.54873202
_cell_angle_gamma   107.33704669
_symmetry_Int_Tables_number   1
_chemical_formula_structural   Cs2BaCl4
_chemical_formula_sum   'Cs4 Ba2 Cl8'
_cell_volume   504.07159450
_cell_formula_units_Z   2
loop_
 _symmetry_equiv_pos_site_id
 _symmetry_equiv_pos_as_xyz
  1  'x, y, z'
loop_
 _atom_site_type_symbol
 _atom_site_label
 _atom_site_symmetry_multiplicity
 _atom_site_fract_x
 _atom_site_fract_y
 _atom_site_fract_z
 _atom_site_occupancy
  Cs  Cs0  1  0.37500000  0.51765300  0.64265300  1
  Cs  Cs1  1  0.87500000  0.73234700  0.35734700  1
  Cs  Cs2  1  0.48234700  0.12500000  0.85734700  1
  Cs  Cs3  1  0.26765300  0.62500000  0.14265300  1
  Ba  Ba0  1  0.75000000  0.25000000  0.50000000  1
  Ba  Ba1  1  0.00000000  0.00000000  0.00000000  1
  Cl  Cl0  1  0.96678800  0.34491100  0.24466700  1
  Cl  Cl1  1  0.10024400  0.72212100  0.75533300  1
  Cl  Cl2  1  0.64975600  0.90508900  0.12187700  1
  Cl  Cl3  1  0.78321200  0.52787900  0.87812300  1
  Cl  Cl4  1  0.09491100  0.21678800  0.74466700  1
  Cl  Cl5  1  0.47212100  0.35024400  0.25533300  1
  Cl  Cl6  1  0.65508900  0.89975600  0.62187700  1
  Cl  Cl7  1  0.27787900  0.03321200  0.37812300  1
loop_
_geom_bond_atom_site_label_1
_geom_bond_atom_site_label_2
_geom_bond_distance
_geom_bond_site_symmetry_2
Ba0 Cl3 3.170571 1_555
Ba0 Cl2 3.170571 1_545
Ba0 Cl4 3.170571 1_655
Ba0 Cl5 3.170571 1_555
Ba0 Cl0 3.526501 1_555
Ba0 Cl7 3.526501 1_555
Ba0 Cl6 3.526501 1_545
Ba0 Cl1 3.526501 1_655
Ba1 Cl0 3.170571 1_455
Ba1 Cl7 3.170571 1_555
Ba1 Cl6 3.170571 1_444
Ba1 Cl1 3.170571 1_544
Ba1 Cl5 3.526501 1_555
Ba1 Cl4 3.526501 1_554
Ba1 Cl3 3.526501 1_444
Ba1 Cl2 3.526501 1_445
Cl0 Cs0 3.370297 1_655
Cl0 Cs1 3.571453 1_555
Cl0 Cs3 3.589596 1_655
Cl0 Cs2 3.665475 1_554
Cl1 Cs1 3.370297 1_455
Cl1 Cs0 3.571453 1_555
Cl1 Cs2 3.589596 1_565
Cl1 Cs3 3.665475 1_556
Cl2 Cs1 3.370297 1_555
Cl2 Cs0 3.571453 1_554
Cl2 Cs3 3.589596 1_555
Cl2 Cs2 3.665475 1_564
Cl3 Cs0 3.370297 1_555
Cl3 Cs1 3.571453 1_556
Cl3 Cs2 3.589596 1_555
Cl3 Cs3 3.665475 1_656
Cl4 Cs3 3.370297 1_556
Cl4 Cs2 3.571453 1_555
Cl4 Cs0 3.589596 1_555
Cl4 Cs1 3.665475 1_445
Cl5 Cs2 3.370297 1_554
Cl5 Cs3 3.571453 1_555
Cl5 Cs1 3.589596 1_555
Cl5 Cs0 3.665475 1_555
Cl6 Cs2 3.370297 1_565
Cl6 Cs3 3.571453 1_555
Cl6 Cs0 3.589596 1_555
Cl6 Cs1 3.665475 1_555
Cl7 Cs3 3.370297 1_545
Cl7 Cs2 3.571453 1_555
Cl7 Cs1 3.589596 1_445
Cl7 Cs0 3.665475 1_555
