# generated using pymatgen
data_MgCu2SiSe4
_symmetry_space_group_name_H-M   'P 1'
_cell_length_a   6.56238600
_cell_length_b   6.85209200
_cell_length_c   8.01150000
_cell_angle_alpha   90.00000000
_cell_angle_beta   90.00000000
_cell_angle_gamma   90.00000000
_symmetry_Int_Tables_number   1
_chemical_formula_structural   MgCu2SiSe4
_chemical_formula_sum   'Mg2 Cu4 Si2 Se8'
_cell_volume   360.24569073
_cell_formula_units_Z   2
loop_
 _symmetry_equiv_pos_site_id
 _symmetry_equiv_pos_as_xyz
  1  'x, y, z'
loop_
 _atom_site_type_symbol
 _atom_site_label
 _atom_site_symmetry_multiplicity
 _atom_site_fract_x
 _atom_site_fract_y
 _atom_site_fract_z
 _atom_site_occupancy
  Mg  Mg0  1  0.99461400  0.65356800  0.50000000  1
  Mg  Mg1  1  0.49461400  0.34643200  0.00000000  1
  Cu  Cu0  1  0.00677700  0.17849600  0.75310200  1
  Cu  Cu1  1  0.00677700  0.17849600  0.24689800  1
  Cu  Cu2  1  0.50677700  0.82150400  0.74689800  1
  Cu  Cu3  1  0.50677700  0.82150400  0.25310200  1
  Si  Si0  1  0.49797300  0.32354000  0.50000000  1
  Si  Si1  1  0.99797300  0.67646000  0.00000000  1
  Se  Se0  1  0.37501800  0.15788800  0.73197400  1
  Se  Se1  1  0.37501800  0.15788800  0.26802600  1
  Se  Se2  1  0.87501800  0.84211200  0.76802600  1
  Se  Se3  1  0.87501800  0.84211200  0.23197400  1
  Se  Se4  1  0.85150600  0.30414300  0.50000000  1
  Se  Se5  1  0.35150600  0.69585700  0.00000000  1
  Se  Se6  1  0.39211700  0.64622300  0.50000000  1
  Se  Se7  1  0.89211700  0.35377700  0.00000000  1
loop_
_geom_bond_atom_site_label_1
_geom_bond_atom_site_label_2
_geom_bond_distance
_geom_bond_site_symmetry_2
Mg0 Se4 2.571887 1_555
Mg0 Se6 2.609054 1_655
Mg0 Se3 2.626001 1_555
Mg0 Se2 2.626001 1_555
Mg1 Se5 2.571887 1_555
Mg1 Se7 2.609054 1_555
Mg1 Se1 2.626001 1_555
Mg1 Se0 2.626001 1_554
Cu0 Se0 2.426573 1_555
Cu0 Se4 2.427171 1_455
Cu0 Se7 2.433361 1_456
Cu0 Se2 2.464679 1_445
Cu1 Se1 2.426573 1_555
Cu1 Se4 2.427171 1_455
Cu1 Se7 2.433361 1_455
Cu1 Se3 2.464679 1_445
Cu2 Se2 2.426573 1_555
Cu2 Se5 2.427171 1_556
Cu2 Se6 2.433361 1_555
Cu2 Se0 2.464679 1_565
Cu3 Se3 2.426573 1_555
Cu3 Se5 2.427171 1_555
Cu3 Se6 2.433361 1_555
Cu3 Se1 2.464679 1_565
Se0 Si0 2.322346 1_555
Se1 Si0 2.322346 1_555
Se2 Si1 2.322346 1_556
Se3 Si1 2.322346 1_555
Se4 Si0 2.323824 1_555
Se5 Si1 2.323824 1_455
Se6 Si0 2.317611 1_555
Se7 Si1 2.317611 1_555
