# generated using pymatgen
data_V2Ni2PbO8
_symmetry_space_group_name_H-M   'P 1'
_cell_length_a   9.75825830
_cell_length_b   9.75825830
_cell_length_c   9.75825830
_cell_angle_alpha   100.86726973
_cell_angle_beta   100.86726973
_cell_angle_gamma   128.53049375
_symmetry_Int_Tables_number   1
_chemical_formula_structural   V2Ni2PbO8
_chemical_formula_sum   'V8 Ni8 Pb4 O32'
_cell_volume   654.80559558
_cell_formula_units_Z   4
loop_
 _symmetry_equiv_pos_site_id
 _symmetry_equiv_pos_as_xyz
  1  'x, y, z'
loop_
 _atom_site_type_symbol
 _atom_site_label
 _atom_site_symmetry_multiplicity
 _atom_site_fract_x
 _atom_site_fract_y
 _atom_site_fract_z
 _atom_site_occupancy
  V  V0  1  0.21019300  0.36780300  0.68149800  1
  V  V1  1  0.68630500  0.52869500  0.31850200  1
  V  V2  1  0.77869500  0.96019300  0.34239000  1
  V  V3  1  0.71019300  0.02869500  0.84239000  1
  V  V4  1  0.61780300  0.43630500  0.65761000  1
  V  V5  1  0.18630500  0.86780300  0.15761000  1
  V  V6  1  0.27869500  0.93630500  0.81850200  1
  V  V7  1  0.11780300  0.46019300  0.18149800  1
  Ni  Ni0  1  0.23401100  0.23899000  0.33768400  1
  Ni  Ni1  1  0.90130600  0.89632800  0.66231600  1
  Ni  Ni2  1  0.14632800  0.98401100  0.49502100  1
  Ni  Ni3  1  0.73401100  0.39632800  0.99502100  1
  Ni  Ni4  1  0.48899000  0.65130600  0.50497900  1
  Ni  Ni5  1  0.40130600  0.73899000  0.00497900  1
  Ni  Ni6  1  0.64632800  0.15130600  0.16231600  1
  Ni  Ni7  1  0.98899000  0.48401100  0.83768400  1
  Pb  Pb0  1  0.74268200  0.74268200  0.00000000  1
  Pb  Pb1  1  0.99268200  0.49268200  0.50000000  1
  Pb  Pb2  1  0.24268200  0.24268200  0.00000000  1
  Pb  Pb3  1  0.49268200  0.99268200  0.50000000  1
  O  O0  1  0.98520700  0.01006900  0.34023900  1
  O  O1  1  0.66983000  0.64496700  0.65976100  1
  O  O2  1  0.89496700  0.73520700  0.47513700  1
  O  O3  1  0.48520700  0.14496700  0.97513700  1
  O  O4  1  0.26006900  0.41983000  0.52486300  1
  O  O5  1  0.16983000  0.51006900  0.02486300  1
  O  O6  1  0.39496700  0.91983000  0.15976100  1
  O  O7  1  0.76006900  0.23520700  0.84023900  1
  O  O8  1  0.39791400  0.23157000  0.50735100  1
  O  O9  1  0.72421900  0.89056300  0.49264900  1
  O  O10  1  0.14056300  0.14791400  0.66634400  1
  O  O11  1  0.89791400  0.39056300  0.16634400  1
  O  O12  1  0.48157000  0.47421900  0.33365600  1
  O  O13  1  0.22421900  0.73157000  0.83365600  1
  O  O14  1  0.64056300  0.97421900  0.99264900  1
  O  O15  1  0.98157000  0.64791400  0.00735100  1
  O  O16  1  0.19355300  0.05058300  0.15242600  1
  O  O17  1  0.89815800  0.04112700  0.84757400  1
  O  O18  1  0.29112700  0.94355300  0.64297000  1
  O  O19  1  0.69355300  0.54112700  0.14297000  1
  O  O20  1  0.30058300  0.64815800  0.35703000  1
  O  O21  1  0.39815800  0.55058300  0.85703000  1
  O  O22  1  0.79112700  0.14815800  0.34757400  1
  O  O23  1  0.80058300  0.44355300  0.65242600  1
  O  O24  1  0.17285400  0.84908500  0.32811700  1
  O  O25  1  0.52096800  0.84473700  0.67188300  1
  O  O26  1  0.09473700  0.92285400  0.82376900  1
  O  O27  1  0.67285400  0.34473700  0.32376900  1
  O  O28  1  0.09908500  0.27096800  0.17623100  1
  O  O29  1  0.02096800  0.34908500  0.67623100  1
  O  O30  1  0.59473700  0.77096800  0.17188300  1
  O  O31  1  0.59908500  0.42285400  0.82811700  1
loop_
_geom_bond_atom_site_label_1
_geom_bond_atom_site_label_2
_geom_bond_distance
_geom_bond_site_symmetry_2
Ni0 O0 2.042605 1_455
Ni0 O28 2.056258 1_555
Ni0 O12 2.065832 1_555
Ni0 O16 2.092243 1_555
Ni0 O8 2.120264 1_555
Ni0 O4 2.136690 1_555
Ni1 O1 2.042615 1_555
Ni1 O26 2.056263 1_655
Ni1 O10 2.065828 1_665
Ni1 O17 2.092232 1_565
Ni1 O9 2.120258 1_555
Ni1 O2 2.136690 1_555
Ni2 O2 2.042610 1_455
Ni2 O24 2.056251 1_555
Ni2 O8 2.065828 1_565
Ni2 O18 2.092236 1_555
Ni2 O10 2.120270 1_565
Ni2 O0 2.136690 1_465
Ni3 O3 2.042610 1_555
Ni3 O31 2.056251 1_555
Ni3 O15 2.065828 1_556
Ni3 O19 2.092236 1_556
Ni3 O11 2.120270 1_556
Ni3 O7 2.136690 1_555
Ni4 O4 2.042610 1_555
Ni4 O25 2.056258 1_555
Ni4 O9 2.065832 1_555
Ni4 O20 2.092249 1_555
Ni4 O12 2.120264 1_555
Ni4 O1 2.136690 1_555
Ni5 O5 2.042610 1_555
Ni5 O30 2.056258 1_555
Ni5 O14 2.065832 1_554
Ni5 O21 2.092249 1_554
Ni5 O13 2.120264 1_554
Ni5 O6 2.136690 1_555
Ni6 O6 2.042615 1_545
Ni6 O27 2.056263 1_555
Ni6 O11 2.065828 1_555
Ni6 O22 2.092232 1_555
Ni6 O14 2.120258 1_544
Ni6 O3 2.136690 1_554
Ni7 O7 2.042605 1_555
Ni7 O29 2.056258 1_655
Ni7 O13 2.065832 1_655
Ni7 O23 2.092243 1_555
Ni7 O15 2.120264 1_556
Ni7 O5 2.136690 1_656
O0 V2 1.759602 1_545
O1 V4 1.759592 1_555
O2 V1 1.759595 1_555
O3 V6 1.759595 1_545
O4 V0 1.759592 1_555
O5 V7 1.759592 1_555
O6 V5 1.759592 1_555
O7 V3 1.759602 1_555
O8 V4 1.764588 1_555
O9 V2 1.764588 1_555
O10 V0 1.764588 1_555
O11 V7 1.764588 1_655
O12 V1 1.764588 1_555
O13 V6 1.764588 1_555
O14 V3 1.764588 1_565
O15 V5 1.764588 1_655
O16 V5 1.751298 1_545
O16 Pb2 2.481285 1_555
O17 V3 1.751308 1_555
O17 Pb2 2.481278 1_656
O18 V6 1.751298 1_555
O18 Pb3 2.481285 1_555
O19 V1 1.751298 1_555
O19 Pb0 2.481285 1_555
O20 V7 1.751301 1_555
O20 Pb3 2.481278 1_555
O21 V0 1.751301 1_555
O21 Pb0 2.481278 1_556
O22 V2 1.751308 1_545
O22 Pb1 2.481278 1_555
O23 V4 1.751298 1_555
O23 Pb1 2.481285 1_555
O24 V5 1.728024 1_555
O24 Pb3 2.491712 1_555
O25 V3 1.728024 1_565
O25 Pb3 2.491712 1_555
O26 V6 1.728024 1_555
O26 Pb2 2.491712 1_566
O27 V1 1.728024 1_555
O27 Pb1 2.491712 1_555
O28 V7 1.728024 1_555
O28 Pb2 2.491712 1_555
O29 V0 1.728024 1_555
O29 Pb1 2.491712 1_455
O30 V2 1.728024 1_555
O30 Pb0 2.491712 1_555
O31 V4 1.728024 1_555
O31 Pb0 2.491712 1_556
