# generated using pymatgen
data_Li9Mn2Co5O16
_symmetry_space_group_name_H-M   'P 1'
_cell_length_a   2.87916500
_cell_length_b   9.74998100
_cell_length_c   10.35270673
_cell_angle_alpha   81.33055649
_cell_angle_beta   90.00000000
_cell_angle_gamma   90.00000000
_symmetry_Int_Tables_number   1
_chemical_formula_structural   Li9Mn2Co5O16
_chemical_formula_sum   'Li9 Mn2 Co5 O16'
_cell_volume   287.29866083
_cell_formula_units_Z   1
loop_
 _symmetry_equiv_pos_site_id
 _symmetry_equiv_pos_as_xyz
  1  'x, y, z'
loop_
 _atom_site_type_symbol
 _atom_site_label
 _atom_site_symmetry_multiplicity
 _atom_site_fract_x
 _atom_site_fract_y
 _atom_site_fract_z
 _atom_site_occupancy
  Li  Li0  1  0.50000000  0.99250000  0.24305500  1
  Li  Li1  1  0.50000000  0.99623300  0.75595200  1
  Li  Li2  1  0.00000000  0.74694500  0.35912600  1
  Li  Li3  1  0.00000000  0.73403200  0.89501300  1
  Li  Li4  1  0.50000000  0.50283100  0.49116600  1
  Li  Li5  1  0.50000000  0.50485800  0.00356900  1
  Li  Li6  1  0.00000000  0.25888500  0.12525500  1
  Li  Li7  1  0.00000000  0.26026100  0.62222000  1
  Li  Li8  1  0.50000000  0.75134100  0.12740500  1
  Mn  Mn0  1  0.00000000  0.99293000  0.01054500  1
  Mn  Mn1  1  0.00000000  0.00115900  0.49993500  1
  Co  Co0  1  0.50000000  0.74576700  0.62729200  1
  Co  Co1  1  0.00000000  0.51886600  0.23003600  1
  Co  Co2  1  0.00000000  0.49798200  0.74939000  1
  Co  Co3  1  0.50000000  0.25920500  0.37266800  1
  Co  Co4  1  0.50000000  0.24631800  0.87453900  1
  O  O0  1  0.50000000  0.11149600  0.05838000  1
  O  O1  1  0.50000000  0.10674000  0.56212300  1
  O  O2  1  0.00000000  0.88778800  0.17220800  1
  O  O3  1  0.00000000  0.87409000  0.66754100  1
  O  O4  1  0.50000000  0.61563900  0.31083800  1
  O  O5  1  0.50000000  0.61487600  0.81037900  1
  O  O6  1  0.00000000  0.35880800  0.92560900  1
  O  O7  1  0.00000000  0.36313900  0.43086100  1
  O  O8  1  0.50000000  0.89515900  0.43931700  1
  O  O9  1  0.50000000  0.89054100  0.94259700  1
  O  O10  1  0.00000000  0.63257700  0.57320300  1
  O  O11  1  0.00000000  0.61790200  0.06793100  1
  O  O12  1  0.50000000  0.37944000  0.69042800  1
  O  O13  1  0.50000000  0.37844200  0.19542200  1
  O  O14  1  0.00000000  0.13540800  0.33527500  1
  O  O15  1  0.00000000  0.12784100  0.83072200  1
loop_
_geom_bond_atom_site_label_1
_geom_bond_atom_site_label_2
_geom_bond_distance
_geom_bond_site_symmetry_2
Li0 O2 1.969371 1_555
Li0 O2 1.969371 1_655
Li0 O0 2.081510 1_565
Li0 O8 2.108977 1_555
Li0 O14 2.307890 1_565
Li0 O14 2.307890 1_665
Li1 O9 2.048254 1_555
Li1 O1 2.129731 1_565
Li1 O15 2.148852 1_565
Li1 O15 2.148852 1_665
Li1 O3 2.158005 1_655
Li1 O3 2.158005 1_555
Li2 O4 2.038195 1_555
Li2 O4 2.038195 1_455
Li2 O2 2.197560 1_555
Li2 O8 2.282883 1_555
Li2 O8 2.282883 1_455
Li2 O10 2.325999 1_555
Li3 O11 1.968673 1_556
Li3 O5 2.120540 1_455
Li3 O5 2.120540 1_555
Li3 O9 2.206864 1_455
Li3 O9 2.206864 1_555
Li3 O3 2.537930 1_555
Li4 O4 2.018902 1_555
Li4 O7 2.138585 1_655
Li4 O7 2.138585 1_555
Li4 O10 2.172070 1_655
Li4 O10 2.172070 1_555
Li4 O12 2.225923 1_555
Li5 O11 1.988108 1_555
Li5 O11 1.988108 1_655
Li5 O5 2.122268 1_554
Li5 O13 2.173971 1_555
Li5 O6 2.257877 1_654
Li5 O6 2.257877 1_554
Li6 O13 2.052842 1_455
Li6 O13 2.052842 1_555
Li6 O6 2.148043 1_554
Li6 O0 2.217374 1_455
Li6 O0 2.217374 1_555
Li6 O14 2.321147 1_555
Li7 O12 2.041719 1_455
Li7 O12 2.041719 1_555
Li7 O7 2.081288 1_555
Li7 O1 2.231755 1_455
Li7 O1 2.231755 1_555
Li7 O15 2.342251 1_555
Li8 O2 2.059953 1_655
Li8 O2 2.059953 1_555
Li8 O11 2.094200 1_655
Li8 O11 2.094200 1_555
Li8 O4 2.144625 1_555
Li8 O9 2.172498 1_554
Mn0 O2 1.826135 1_555
Mn0 O9 1.943070 1_554
Mn0 O9 1.943070 1_454
Mn0 O0 1.956170 1_565
Mn0 O0 1.956170 1_465
Mn0 O15 2.111339 1_564
Mn1 O8 1.931288 1_545
Mn1 O8 1.931288 1_445
Mn1 O1 1.935557 1_455
Mn1 O1 1.935557 1_555
Mn1 O3 1.974255 1_545
Mn1 O14 1.986591 1_555
Co0 O10 1.946843 1_655
Co0 O10 1.946843 1_555
Co0 O3 1.992124 1_555
Co0 O3 1.992124 1_655
Co0 O5 2.119465 1_555
Co0 O8 2.248150 1_555
Co1 O11 1.805629 1_555
Co1 O4 1.974934 1_455
Co1 O4 1.974934 1_555
Co1 O13 2.055052 1_455
Co1 O13 2.055052 1_555
Co1 O7 2.382492 1_555
Co2 O5 1.996736 1_555
Co2 O5 1.996736 1_455
Co2 O12 1.998381 1_455
Co2 O12 1.998381 1_555
Co2 O10 2.080275 1_555
Co2 O6 2.103149 1_555
Co3 O7 1.909524 1_555
Co3 O7 1.909524 1_655
Co3 O14 1.954486 1_555
Co3 O14 1.954486 1_655
Co3 O13 2.018804 1_555
Co3 O1 2.275475 1_555
Co4 O6 1.931234 1_555
Co4 O6 1.931234 1_655
Co4 O15 1.941780 1_655
Co4 O15 1.941780 1_555
Co4 O12 2.138188 1_555
Co4 O0 2.143848 1_556
