# generated using pymatgen
data_YMg6W
_symmetry_space_group_name_H-M   'P 1'
_cell_length_a   5.02464100
_cell_length_b   6.24772400
_cell_length_c   11.26525000
_cell_angle_alpha   90.00000000
_cell_angle_beta   90.00000000
_cell_angle_gamma   90.00000000
_symmetry_Int_Tables_number   1
_chemical_formula_structural   YMg6W
_chemical_formula_sum   'Y2 Mg12 W2'
_cell_volume   353.64515107
_cell_formula_units_Z   2
loop_
 _symmetry_equiv_pos_site_id
 _symmetry_equiv_pos_as_xyz
  1  'x, y, z'
loop_
 _atom_site_type_symbol
 _atom_site_label
 _atom_site_symmetry_multiplicity
 _atom_site_fract_x
 _atom_site_fract_y
 _atom_site_fract_z
 _atom_site_occupancy
  Y  Y0  1  0.00000000  0.50000000  0.30954500  1
  Y  Y1  1  0.00000000  0.00000000  0.80954500  1
  Mg  Mg0  1  0.00000000  0.26196800  0.07521700  1
  Mg  Mg1  1  0.00000000  0.73803200  0.07521700  1
  Mg  Mg2  1  0.00000000  0.00000000  0.32883200  1
  Mg  Mg3  1  0.50000000  0.75211500  0.42735000  1
  Mg  Mg4  1  0.50000000  0.24788500  0.42735000  1
  Mg  Mg5  1  0.50000000  0.00000000  0.17195600  1
  Mg  Mg6  1  0.00000000  0.76196800  0.57521700  1
  Mg  Mg7  1  0.00000000  0.23803200  0.57521700  1
  Mg  Mg8  1  0.00000000  0.50000000  0.82883200  1
  Mg  Mg9  1  0.50000000  0.25211500  0.92735000  1
  Mg  Mg10  1  0.50000000  0.74788500  0.92735000  1
  Mg  Mg11  1  0.50000000  0.50000000  0.67195600  1
  W  W0  1  0.50000000  0.50000000  0.18453300  1
  W  W1  1  0.50000000  0.00000000  0.68453300  1
loop_
_geom_bond_atom_site_label_1
_geom_bond_atom_site_label_2
_geom_bond_distance
_geom_bond_site_symmetry_2
Mg0 Mg1 2.974316 1_555
Mg0 Mg9 3.015012 1_554
Mg0 Mg9 3.015012 1_454
Mg0 Y0 3.029850 1_555
Mg0 Mg8 3.148894 1_554
Mg0 W0 3.168583 1_455
Mg0 W0 3.168583 1_555
Mg0 Mg5 3.190328 1_455
Mg0 Mg5 3.190328 1_555
Mg0 Mg1 3.273408 1_545
Mg0 Mg2 3.292637 1_555
Mg0 Y1 3.411161 1_554
Mg1 Mg10 3.015012 1_454
Mg1 Mg10 3.015012 1_554
Mg1 Y0 3.029850 1_555
Mg1 Mg8 3.148894 1_554
Mg1 W0 3.168583 1_455
Mg1 W0 3.168583 1_555
Mg1 Mg5 3.190328 1_565
Mg1 Mg5 3.190328 1_465
Mg1 Mg2 3.292637 1_565
Mg1 Y1 3.411161 1_564
Mg2 Mg5 3.071631 1_455
Mg2 Mg5 3.071631 1_555
Mg2 Y0 3.131409 1_555
Mg2 Y0 3.131409 1_545
Mg2 Mg6 3.148894 1_545
Mg2 Mg7 3.148894 1_555
Mg2 Mg4 3.153094 1_455
Mg2 Mg3 3.153094 1_545
Mg2 Mg3 3.153094 1_445
Mg2 Mg4 3.153094 1_555
Mg3 Mg6 3.015012 1_655
Mg3 Mg6 3.015012 1_555
Mg3 Mg4 3.097434 1_565
Mg3 Mg4 3.150290 1_555
Mg3 W0 3.156495 1_555
Mg3 Y0 3.248698 1_555
Mg3 Y0 3.248698 1_655
Mg3 Mg5 3.267430 1_565
Mg3 W1 3.285190 1_565
Mg4 Mg7 3.015012 1_655
Mg4 Mg7 3.015012 1_555
Mg4 W0 3.156495 1_555
Mg4 Y0 3.248698 1_555
Mg4 Y0 3.248698 1_655
Mg4 Mg5 3.267430 1_555
Mg4 W1 3.285190 1_555
Mg5 W0 3.127073 1_555
Mg5 W0 3.127073 1_545
Mg5 Mg9 3.173976 1_554
Mg6 Mg7 2.974316 1_565
Mg6 Y1 3.029850 1_565
Mg6 W1 3.168583 1_565
Mg6 W1 3.168583 1_465
Mg6 Mg7 3.273408 1_555
Mg6 Mg8 3.292637 1_555
Mg6 Y0 3.411161 1_555
Mg7 Y1 3.029850 1_555
Mg7 W1 3.168583 1_555
Mg7 W1 3.168583 1_455
Mg7 Mg8 3.292637 1_555
Mg7 Y0 3.411161 1_555
Mg8 Y1 3.131409 1_555
Mg8 Y1 3.131409 1_565
Mg8 Mg9 3.153094 1_455
Mg8 Mg9 3.153094 1_555
Mg9 W1 3.156495 1_555
Mg9 Y1 3.248698 1_555
Mg9 Y1 3.248698 1_655
Mg9 W0 3.285190 1_556
Mg10 Mg9 3.097434 1_555
Mg10 Mg9 3.150290 1_565
Mg10 Mg8 3.153094 1_555
Mg10 Mg8 3.153094 1_655
Mg10 W1 3.156495 1_565
Mg10 Mg5 3.173976 1_566
Mg10 Y1 3.248698 1_565
Mg10 Y1 3.248698 1_665
Mg10 Mg11 3.267430 1_555
Mg10 W0 3.285190 1_556
Mg11 Mg8 3.071631 1_655
Mg11 Mg8 3.071631 1_555
Mg11 W1 3.127073 1_565
Mg11 W1 3.127073 1_555
Mg11 Mg4 3.173976 1_555
Mg11 Mg3 3.173976 1_555
Mg11 Mg7 3.190328 1_555
Mg11 Mg6 3.190328 1_655
Mg11 Mg7 3.190328 1_655
Mg11 Mg6 3.190328 1_555
Mg11 Mg9 3.267430 1_555
W0 Y0 2.880111 1_655
W0 Y0 2.880111 1_555
W1 Y1 2.880111 1_555
W1 Y1 2.880111 1_655
