# generated using pymatgen
data_K3Ba
_symmetry_space_group_name_H-M   'P 1'
_cell_length_a   6.56289700
_cell_length_b   6.56289700
_cell_length_c   6.56289700
_cell_angle_alpha   90.00000000
_cell_angle_beta   90.00000000
_cell_angle_gamma   90.00000000
_symmetry_Int_Tables_number   1
_chemical_formula_structural   K3Ba
_chemical_formula_sum   'K3 Ba1'
_cell_volume   282.67458621
_cell_formula_units_Z   1
loop_
 _symmetry_equiv_pos_site_id
 _symmetry_equiv_pos_as_xyz
  1  'x, y, z'
loop_
 _atom_site_type_symbol
 _atom_site_label
 _atom_site_symmetry_multiplicity
 _atom_site_fract_x
 _atom_site_fract_y
 _atom_site_fract_z
 _atom_site_occupancy
  K  K0  1  0.00000000  0.50000000  0.50000000  1
  K  K1  1  0.50000000  0.00000000  0.50000000  1
  K  K2  1  0.50000000  0.50000000  0.00000000  1
  Ba  Ba0  1  0.00000000  0.00000000  0.00000000  1
loop_
_geom_bond_atom_site_label_1
_geom_bond_atom_site_label_2
_geom_bond_distance
_geom_bond_site_symmetry_2
K0 K1 4.640669 1_565
K0 K1 4.640669 1_465
K0 K2 4.640669 1_555
K0 K1 4.640669 1_455
K0 K2 4.640669 1_556
K0 K1 4.640669 1_555
K0 K2 4.640669 1_455
K0 K2 4.640669 1_456
K1 K2 4.640669 1_556
K1 K2 4.640669 1_555
K1 K2 4.640669 1_545
K1 K2 4.640669 1_546
Ba0 K2 4.640669 1_555
Ba0 K1 4.640669 1_455
Ba0 K0 4.640669 1_554
Ba0 K2 4.640669 1_445
Ba0 K2 4.640669 1_545
Ba0 K1 4.640669 1_454
Ba0 K0 4.640669 1_555
Ba0 K1 4.640669 1_555
Ba0 K1 4.640669 1_554
Ba0 K2 4.640669 1_455
Ba0 K0 4.640669 1_545
Ba0 K0 4.640669 1_544
