# generated using pymatgen
data_Y2U3S5O3
_symmetry_space_group_name_H-M   'P 1'
_cell_length_a   3.83711900
_cell_length_b   13.98063600
_cell_length_c   18.74778500
_cell_angle_alpha   90.00000000
_cell_angle_beta   90.00000000
_cell_angle_gamma   90.00000000
_symmetry_Int_Tables_number   1
_chemical_formula_structural   Y2U3S5O3
_chemical_formula_sum   'Y8 U12 S20 O12'
_cell_volume   1005.73175104
_cell_formula_units_Z   4
loop_
 _symmetry_equiv_pos_site_id
 _symmetry_equiv_pos_as_xyz
  1  'x, y, z'
loop_
 _atom_site_type_symbol
 _atom_site_label
 _atom_site_symmetry_multiplicity
 _atom_site_fract_x
 _atom_site_fract_y
 _atom_site_fract_z
 _atom_site_occupancy
  Y  Y0  1  0.25000000  0.88709800  0.33832900  1
  Y  Y1  1  0.75000000  0.11290200  0.66167100  1
  Y  Y2  1  0.75000000  0.61290200  0.83832900  1
  Y  Y3  1  0.25000000  0.38709800  0.16167100  1
  Y  Y4  1  0.25000000  0.89005300  0.95397100  1
  Y  Y5  1  0.75000000  0.10994700  0.04602900  1
  Y  Y6  1  0.75000000  0.60994700  0.45397100  1
  Y  Y7  1  0.25000000  0.39005300  0.54602900  1
  U  U0  1  0.25000000  0.89826900  0.56376400  1
  U  U1  1  0.75000000  0.10173100  0.43623600  1
  U  U2  1  0.75000000  0.60173100  0.06376400  1
  U  U3  1  0.25000000  0.39826900  0.93623600  1
  U  U4  1  0.25000000  0.65180300  0.22918000  1
  U  U5  1  0.75000000  0.34819700  0.77082000  1
  U  U6  1  0.75000000  0.84819700  0.72918000  1
  U  U7  1  0.25000000  0.15180300  0.27082000  1
  U  U8  1  0.25000000  0.64200300  0.65524800  1
  U  U9  1  0.75000000  0.35799700  0.34475200  1
  U  U10  1  0.75000000  0.85799700  0.15524800  1
  U  U11  1  0.25000000  0.14200300  0.84475200  1
  S  S0  1  0.25000000  0.71285500  0.51627100  1
  S  S1  1  0.75000000  0.28714500  0.48372900  1
  S  S2  1  0.75000000  0.78714500  0.01627100  1
  S  S3  1  0.25000000  0.21285500  0.98372900  1
  S  S4  1  0.25000000  0.59396200  0.94988200  1
  S  S5  1  0.75000000  0.40603800  0.05011800  1
  S  S6  1  0.75000000  0.90603800  0.44988200  1
  S  S7  1  0.25000000  0.09396200  0.55011800  1
  S  S8  1  0.25000000  0.77391500  0.83377500  1
  S  S9  1  0.75000000  0.22608500  0.16622500  1
  S  S10  1  0.75000000  0.72608500  0.33377500  1
  S  S11  1  0.25000000  0.27391500  0.66622500  1
  S  S12  1  0.25000000  0.50622500  0.76250200  1
  S  S13  1  0.75000000  0.49377500  0.23749800  1
  S  S14  1  0.75000000  0.99377500  0.26250200  1
  S  S15  1  0.25000000  0.00622500  0.73749800  1
  S  S16  1  0.25000000  0.98479400  0.08948900  1
  S  S17  1  0.75000000  0.01520600  0.91051100  1
  S  S18  1  0.75000000  0.51520600  0.58948900  1
  S  S19  1  0.25000000  0.48479400  0.41051100  1
  O  O0  1  0.25000000  0.82098700  0.21630600  1
  O  O1  1  0.75000000  0.17901300  0.78369400  1
  O  O2  1  0.75000000  0.67901300  0.71630600  1
  O  O3  1  0.25000000  0.32098700  0.28369400  1
  O  O4  1  0.25000000  0.80365000  0.66481200  1
  O  O5  1  0.75000000  0.19635000  0.33518800  1
  O  O6  1  0.75000000  0.69635000  0.16481200  1
  O  O7  1  0.25000000  0.30365000  0.83518800  1
  O  O8  1  0.25000000  0.56764600  0.12060800  1
  O  O9  1  0.75000000  0.43235400  0.87939200  1
  O  O10  1  0.75000000  0.93235400  0.62060800  1
  O  O11  1  0.25000000  0.06764600  0.37939200  1
loop_
_geom_bond_atom_site_label_1
_geom_bond_atom_site_label_2
_geom_bond_distance
_geom_bond_site_symmetry_2
S0 Y6 2.667391 1_555
S0 Y6 2.667391 1_455
S0 U0 2.740862 1_555
S0 U8 2.787452 1_555
S1 Y7 2.667391 1_655
S1 Y7 2.667391 1_555
S1 U1 2.740862 1_555
S1 U9 2.787452 1_555
S2 Y4 2.667391 1_554
S2 Y4 2.667391 1_654
S2 U2 2.740862 1_555
S2 U10 2.787452 1_555
S3 Y5 2.667391 1_456
S3 Y5 2.667391 1_556
S3 U3 2.740862 1_555
S3 U11 2.787452 1_555
S4 U3 2.747848 1_555
S4 Y2 2.850407 1_455
S4 Y2 2.850407 1_555
S4 U2 2.872463 1_556
S4 U2 2.872463 1_456
S5 U2 2.747848 1_555
S5 Y3 2.850407 1_555
S5 Y3 2.850407 1_655
S5 U3 2.872463 1_654
S5 U3 2.872463 1_554
S6 U1 2.747848 1_565
S6 Y0 2.850407 1_555
S6 Y0 2.850407 1_655
S6 U0 2.872463 1_655
S6 U0 2.872463 1_555
S7 U0 2.747848 1_545
S7 Y1 2.850407 1_455
S7 Y1 2.850407 1_555
S7 U1 2.872463 1_455
S7 U1 2.872463 1_555
S8 Y4 2.777444 1_555
S8 U6 2.933359 1_555
S8 U6 2.933359 1_455
S8 Y2 2.958961 1_555
S8 Y2 2.958961 1_455
S9 Y5 2.777444 1_555
S9 U7 2.933359 1_555
S9 U7 2.933359 1_655
S9 Y3 2.958961 1_655
S9 Y3 2.958961 1_555
S10 Y6 2.777444 1_555
S10 U4 2.933359 1_555
S10 U4 2.933359 1_655
S10 Y0 2.958961 1_555
S10 Y0 2.958961 1_655
S11 Y7 2.777444 1_555
S11 U5 2.933359 1_455
S11 U5 2.933359 1_555
S11 Y1 2.958961 1_555
S11 Y1 2.958961 1_455
S12 U8 2.765252 1_555
S12 Y2 2.815332 1_555
S12 Y2 2.815332 1_455
S12 U5 2.930245 1_455
S12 U5 2.930245 1_555
S13 U9 2.765252 1_555
S13 Y3 2.815332 1_555
S13 Y3 2.815332 1_655
S13 U4 2.930245 1_555
S13 U4 2.930245 1_655
S14 U10 2.765252 1_555
S14 Y0 2.815332 1_555
S14 Y0 2.815332 1_655
S14 U7 2.930245 1_565
S14 U7 2.930245 1_665
S15 U11 2.765252 1_555
S15 Y1 2.815332 1_555
S15 Y1 2.815332 1_455
S15 U6 2.930245 1_545
S15 U6 2.930245 1_445
S16 Y5 2.721443 1_465
S16 Y5 2.721443 1_565
S16 Y4 2.865200 1_554
S16 U10 2.888465 1_555
S16 U10 2.888465 1_455
S17 Y4 2.721443 1_645
S17 Y4 2.721443 1_545
S17 Y5 2.865200 1_556
S17 U11 2.888465 1_555
S17 U11 2.888465 1_655
S18 Y7 2.721443 1_655
S18 Y7 2.721443 1_555
S18 Y6 2.865200 1_555
S18 U8 2.888465 1_555
S18 U8 2.888465 1_655
S19 Y6 2.721443 1_455
S19 Y6 2.721443 1_555
S19 Y7 2.865200 1_555
S19 U9 2.888465 1_455
S19 U9 2.888465 1_555
O0 U10 2.293238 1_455
O0 U10 2.293238 1_555
O0 U4 2.377582 1_555
O0 Y0 2.467321 1_555
O1 U11 2.293238 1_555
O1 U11 2.293238 1_655
O1 U5 2.377582 1_555
O1 Y1 2.467321 1_555
O2 U8 2.293238 1_555
O2 U8 2.293238 1_655
O2 U6 2.377582 1_555
O2 Y2 2.467321 1_555
O3 U9 2.293238 1_455
O3 U9 2.293238 1_555
O3 U7 2.377582 1_555
O3 Y3 2.467321 1_555
O4 U8 2.267030 1_555
O4 U0 2.310571 1_555
O4 U6 2.350534 1_455
O4 U6 2.350534 1_555
O5 U9 2.267030 1_555
O5 U1 2.310571 1_555
O5 U7 2.350534 1_655
O5 U7 2.350534 1_555
O6 U10 2.267030 1_555
O6 U2 2.310571 1_555
O6 U4 2.350534 1_655
O6 U4 2.350534 1_555
O7 U11 2.267030 1_555
O7 U3 2.310571 1_555
O7 U5 2.350534 1_555
O7 U5 2.350534 1_455
O8 U2 2.245811 1_455
O8 U2 2.245811 1_555
O8 U4 2.351066 1_555
O8 Y3 2.638962 1_555
O9 U3 2.245811 1_655
O9 U3 2.245811 1_555
O9 U5 2.351066 1_555
O9 Y2 2.638962 1_555
O10 U0 2.245811 1_655
O10 U0 2.245811 1_555
O10 U6 2.351066 1_555
O10 Y1 2.638962 1_565
O11 U1 2.245811 1_555
O11 U1 2.245811 1_455
O11 U7 2.351066 1_555
O11 Y0 2.638962 1_545
