# generated using pymatgen
data_TiAlAu2
_symmetry_space_group_name_H-M   'P 1'
_cell_length_a   3.08959100
_cell_length_b   3.08959100
_cell_length_c   7.08694700
_cell_angle_alpha   90.00000000
_cell_angle_beta   90.00000000
_cell_angle_gamma   90.00000000
_symmetry_Int_Tables_number   1
_chemical_formula_structural   TiAlAu2
_chemical_formula_sum   'Ti1 Al1 Au2'
_cell_volume   67.64896673
_cell_formula_units_Z   1
loop_
 _symmetry_equiv_pos_site_id
 _symmetry_equiv_pos_as_xyz
  1  'x, y, z'
loop_
 _atom_site_type_symbol
 _atom_site_label
 _atom_site_symmetry_multiplicity
 _atom_site_fract_x
 _atom_site_fract_y
 _atom_site_fract_z
 _atom_site_occupancy
  Ti  Ti0  1  0.50000000  0.50000000  0.50000000  1
  Al  Al0  1  0.50000000  0.50000000  0.00000000  1
  Au  Au0  1  0.00000000  0.00000000  0.76148700  1
  Au  Au1  1  0.00000000  0.00000000  0.23851300  1
loop_
_geom_bond_atom_site_label_1
_geom_bond_atom_site_label_2
_geom_bond_distance
_geom_bond_site_symmetry_2
Al0 Au1 2.762245 1_555
Al0 Au1 2.762245 1_655
Al0 Au1 2.762245 1_565
Al0 Au1 2.762245 1_665
Al0 Au0 2.762245 1_564
Al0 Au0 2.762245 1_554
Al0 Au0 2.762245 1_654
Al0 Au0 2.762245 1_664
Au0 Ti0 2.864774 1_445
Au0 Ti0 2.864774 1_455
Au0 Ti0 2.864774 1_555
Au0 Ti0 2.864774 1_545
Au1 Ti0 2.864774 1_455
Au1 Ti0 2.864774 1_555
Au1 Ti0 2.864774 1_545
Au1 Ti0 2.864774 1_445
