# generated using pymatgen
data_Re
_symmetry_space_group_name_H-M   'P 1'
_cell_length_a   5.53277354
_cell_length_b   5.53277604
_cell_length_c   17.87769032
_cell_angle_alpha   90.00000000
_cell_angle_beta   90.00000000
_cell_angle_gamma   120.00000912
_symmetry_Int_Tables_number   1
_chemical_formula_structural   Re
_chemical_formula_sum   Re32
_cell_volume   473.94504484
_cell_formula_units_Z   32
loop_
 _symmetry_equiv_pos_site_id
 _symmetry_equiv_pos_as_xyz
  1  'x, y, z'
loop_
 _atom_site_type_symbol
 _atom_site_label
 _atom_site_symmetry_multiplicity
 _atom_site_fract_x
 _atom_site_fract_y
 _atom_site_fract_z
 _atom_site_occupancy
  Re  Re0_0  1  0.00000000  0.00000000  0.00000000  1
  Re  Re0_1  1  0.00000000  0.00000000  0.50000000  1
  Re  Re0_2  1  0.00000000  0.50000000  0.00000000  1
  Re  Re0_3  1  0.00000000  0.50000000  0.50000000  1
  Re  Re0_4  1  0.50000000  0.00000000  0.00000000  1
  Re  Re0_5  1  0.50000000  0.00000000  0.50000000  1
  Re  Re0_6  1  0.50000000  0.50000000  0.00000000  1
  Re  Re0_7  1  0.50000000  0.50000000  0.50000000  1
  Re  Re1_0  1  0.16666650  0.33333250  0.12500000  1
  Re  Re1_1  1  0.16666650  0.33333250  0.62500000  1
  Re  Re1_2  1  0.16666650  0.83333250  0.12500000  1
  Re  Re1_3  1  0.16666650  0.83333250  0.62500000  1
  Re  Re1_4  1  0.66666650  0.33333250  0.12500000  1
  Re  Re1_5  1  0.66666650  0.33333250  0.62500000  1
  Re  Re1_6  1  0.66666650  0.83333250  0.12500000  1
  Re  Re1_7  1  0.66666650  0.83333250  0.62500000  1
  Re  Re2_0  1  0.00000000  0.00000000  0.25000000  1
  Re  Re2_1  1  0.00000000  0.00000000  0.75000000  1
  Re  Re2_2  1  0.00000000  0.50000000  0.25000000  1
  Re  Re2_3  1  0.00000000  0.50000000  0.75000000  1
  Re  Re2_4  1  0.50000000  0.00000000  0.25000000  1
  Re  Re2_5  1  0.50000000  0.00000000  0.75000000  1
  Re  Re2_6  1  0.50000000  0.50000000  0.25000000  1
  Re  Re2_7  1  0.50000000  0.50000000  0.75000000  1
  Re  Re3_0  1  0.33333350  0.16666650  0.37500000  1
  Re  Re3_1  1  0.33333350  0.16666650  0.87500000  1
  Re  Re3_2  1  0.33333350  0.66666650  0.37500000  1
  Re  Re3_3  1  0.33333350  0.66666650  0.87500000  1
  Re  Re3_4  1  0.83333350  0.16666650  0.37500000  1
  Re  Re3_5  1  0.83333350  0.16666650  0.87500000  1
  Re  Re3_6  1  0.83333350  0.66666650  0.37500000  1
  Re  Re3_7  1  0.83333350  0.66666650  0.87500000  1
loop_
_geom_bond_atom_site_label_1
_geom_bond_atom_site_label_2
_geom_bond_distance
_geom_bond_site_symmetry_2
Re0_0 Re1_0 2.746796 1_555
Re0_0 Re3_5 2.746797 1_454
Re0_0 Re3_1 2.746798 1_554
Re0_0 Re1_6 2.746798 1_445
Re0_0 Re3_7 2.746799 1_444
Re0_0 Re1_2 2.746800 1_545
Re0_0 Re0_4 2.766387 1_455
Re0_0 Re0_4 2.766387 1_555
Re0_0 Re0_6 2.766387 1_555
Re0_0 Re0_6 2.766387 1_445
Re0_0 Re0_2 2.766388 1_555
Re0_0 Re0_2 2.766388 1_545
Re0_1 Re1_1 2.746796 1_555
Re0_1 Re3_4 2.746797 1_455
Re0_1 Re3_0 2.746798 1_555
Re0_1 Re1_7 2.746798 1_445
Re0_1 Re3_6 2.746799 1_445
Re0_1 Re1_3 2.746800 1_545
Re0_1 Re0_5 2.766387 1_455
Re0_1 Re0_5 2.766387 1_555
Re0_1 Re0_7 2.766387 1_555
Re0_1 Re0_7 2.766387 1_445
Re0_1 Re0_3 2.766388 1_555
Re0_1 Re0_3 2.766388 1_545
Re0_2 Re1_2 2.746796 1_555
Re0_2 Re3_7 2.746797 1_454
Re0_2 Re3_3 2.746798 1_554
Re0_2 Re1_4 2.746798 1_455
Re0_2 Re3_5 2.746799 1_454
Re0_2 Re1_0 2.746800 1_555
Re0_2 Re0_6 2.766387 1_555
Re0_2 Re0_6 2.766387 1_455
Re0_2 Re0_4 2.766387 1_455
Re0_2 Re0_4 2.766387 1_565
Re0_3 Re1_3 2.746796 1_555
Re0_3 Re3_6 2.746797 1_455
Re0_3 Re3_2 2.746798 1_555
Re0_3 Re1_5 2.746798 1_455
Re0_3 Re3_4 2.746799 1_455
Re0_3 Re1_1 2.746800 1_555
Re0_3 Re0_7 2.766387 1_455
Re0_3 Re0_7 2.766387 1_555
Re0_3 Re0_5 2.766387 1_455
Re0_3 Re0_5 2.766387 1_565
Re0_4 Re1_4 2.746796 1_555
Re0_4 Re3_1 2.746797 1_554
Re0_4 Re3_5 2.746798 1_554
Re0_4 Re1_2 2.746798 1_545
Re0_4 Re3_3 2.746799 1_544
Re0_4 Re1_6 2.746800 1_545
Re0_4 Re0_6 2.766388 1_555
Re0_4 Re0_6 2.766388 1_545
Re0_5 Re1_5 2.746796 1_555
Re0_5 Re3_0 2.746797 1_555
Re0_5 Re3_4 2.746798 1_555
Re0_5 Re1_3 2.746798 1_545
Re0_5 Re3_2 2.746799 1_545
Re0_5 Re1_7 2.746800 1_545
Re0_5 Re0_7 2.766388 1_555
Re0_5 Re0_7 2.766388 1_545
Re0_6 Re1_6 2.746796 1_555
Re0_6 Re3_3 2.746797 1_554
Re0_6 Re3_7 2.746798 1_554
Re0_6 Re1_0 2.746798 1_555
Re0_6 Re3_1 2.746799 1_554
Re0_6 Re1_4 2.746800 1_555
Re0_7 Re1_7 2.746796 1_555
Re0_7 Re3_2 2.746797 1_555
Re0_7 Re3_6 2.746798 1_555
Re0_7 Re1_1 2.746798 1_555
Re0_7 Re3_0 2.746799 1_555
Re0_7 Re1_5 2.746800 1_555
Re1_0 Re2_0 2.746796 1_555
Re1_0 Re2_6 2.746798 1_555
Re1_0 Re2_2 2.746800 1_555
Re1_0 Re1_4 2.766387 1_555
Re1_0 Re1_4 2.766387 1_455
Re1_0 Re1_6 2.766387 1_445
Re1_0 Re1_6 2.766387 1_555
Re1_0 Re1_2 2.766388 1_545
Re1_0 Re1_2 2.766388 1_555
Re1_1 Re2_1 2.746796 1_555
Re1_1 Re2_7 2.746798 1_555
Re1_1 Re2_3 2.746800 1_555
Re1_1 Re1_5 2.766387 1_555
Re1_1 Re1_5 2.766387 1_455
Re1_1 Re1_7 2.766387 1_445
Re1_1 Re1_7 2.766387 1_555
Re1_1 Re1_3 2.766388 1_545
Re1_1 Re1_3 2.766388 1_555
Re1_2 Re2_2 2.746796 1_555
Re1_2 Re2_4 2.746798 1_565
Re1_2 Re2_0 2.746800 1_565
Re1_2 Re1_6 2.766387 1_455
Re1_2 Re1_6 2.766387 1_555
Re1_2 Re1_4 2.766387 1_455
Re1_2 Re1_4 2.766387 1_565
Re1_3 Re2_3 2.746796 1_555
Re1_3 Re2_5 2.746798 1_565
Re1_3 Re2_1 2.746800 1_565
Re1_3 Re1_7 2.766387 1_455
Re1_3 Re1_7 2.766387 1_555
Re1_3 Re1_5 2.766387 1_565
Re1_3 Re1_5 2.766387 1_455
Re1_4 Re2_4 2.746796 1_555
Re1_4 Re2_2 2.746798 1_655
Re1_4 Re2_6 2.746800 1_555
Re1_4 Re1_6 2.766388 1_545
Re1_4 Re1_6 2.766388 1_555
Re1_5 Re2_5 2.746796 1_555
Re1_5 Re2_3 2.746798 1_655
Re1_5 Re2_7 2.746800 1_555
Re1_5 Re1_7 2.766388 1_545
Re1_5 Re1_7 2.766388 1_555
Re1_6 Re2_6 2.746796 1_555
Re1_6 Re2_0 2.746798 1_665
Re1_6 Re2_4 2.746800 1_565
Re1_7 Re2_7 2.746796 1_555
Re1_7 Re2_1 2.746798 1_665
Re1_7 Re2_5 2.746800 1_565
Re2_0 Re3_4 2.746797 1_455
Re2_0 Re3_0 2.746798 1_555
Re2_0 Re3_6 2.746799 1_445
Re2_0 Re2_4 2.766387 1_555
Re2_0 Re2_4 2.766387 1_455
Re2_0 Re2_6 2.766387 1_445
Re2_0 Re2_6 2.766387 1_555
Re2_0 Re2_2 2.766388 1_555
Re2_0 Re2_2 2.766388 1_545
Re2_1 Re3_5 2.746797 1_455
Re2_1 Re3_1 2.746798 1_555
Re2_1 Re3_7 2.746799 1_445
Re2_1 Re2_5 2.766387 1_455
Re2_1 Re2_5 2.766387 1_555
Re2_1 Re2_7 2.766387 1_445
Re2_1 Re2_7 2.766387 1_555
Re2_1 Re2_3 2.766388 1_545
Re2_1 Re2_3 2.766388 1_555
Re2_2 Re3_6 2.746797 1_455
Re2_2 Re3_2 2.746798 1_555
Re2_2 Re3_4 2.746799 1_455
Re2_2 Re2_6 2.766387 1_555
Re2_2 Re2_6 2.766387 1_455
Re2_2 Re2_4 2.766387 1_565
Re2_2 Re2_4 2.766387 1_455
Re2_3 Re3_7 2.746797 1_455
Re2_3 Re3_3 2.746798 1_555
Re2_3 Re3_5 2.746799 1_455
Re2_3 Re2_7 2.766387 1_455
Re2_3 Re2_7 2.766387 1_555
Re2_3 Re2_5 2.766387 1_455
Re2_3 Re2_5 2.766387 1_565
Re2_4 Re3_0 2.746797 1_555
Re2_4 Re3_4 2.746798 1_555
Re2_4 Re3_2 2.746799 1_545
Re2_4 Re2_6 2.766388 1_555
Re2_4 Re2_6 2.766388 1_545
Re2_5 Re3_1 2.746797 1_555
Re2_5 Re3_5 2.746798 1_555
Re2_5 Re3_3 2.746799 1_545
Re2_5 Re2_7 2.766388 1_545
Re2_5 Re2_7 2.766388 1_555
Re2_6 Re3_2 2.746797 1_555
Re2_6 Re3_6 2.746798 1_555
Re2_6 Re3_0 2.746799 1_555
Re2_7 Re3_3 2.746797 1_555
Re2_7 Re3_7 2.746798 1_555
Re2_7 Re3_1 2.746799 1_555
Re3_0 Re3_4 2.766387 1_555
Re3_0 Re3_4 2.766387 1_455
Re3_0 Re3_6 2.766387 1_445
Re3_0 Re3_6 2.766387 1_555
Re3_0 Re3_2 2.766388 1_545
Re3_0 Re3_2 2.766388 1_555
Re3_1 Re3_5 2.766387 1_555
Re3_1 Re3_5 2.766387 1_455
Re3_1 Re3_7 2.766387 1_445
Re3_1 Re3_7 2.766387 1_555
Re3_1 Re3_3 2.766388 1_545
Re3_1 Re3_3 2.766388 1_555
Re3_2 Re3_6 2.766387 1_455
Re3_2 Re3_6 2.766387 1_555
Re3_2 Re3_4 2.766387 1_455
Re3_2 Re3_4 2.766387 1_565
Re3_3 Re3_7 2.766387 1_455
Re3_3 Re3_7 2.766387 1_555
Re3_3 Re3_5 2.766387 1_565
Re3_3 Re3_5 2.766387 1_455
Re3_4 Re3_6 2.766388 1_555
Re3_4 Re3_6 2.766388 1_545
Re3_5 Re3_7 2.766388 1_555
Re3_5 Re3_7 2.766388 1_545
