# generated using pymatgen
data_BaMg14C
_symmetry_space_group_name_H-M   'P 1'
_cell_length_a   6.75923867
_cell_length_b   6.10977882
_cell_length_c   10.32416225
_cell_angle_alpha   90.00000000
_cell_angle_beta   90.00000000
_cell_angle_gamma   116.86935782
_symmetry_Int_Tables_number   1
_chemical_formula_structural   BaMg14C
_chemical_formula_sum   'Ba1 Mg14 C1'
_cell_volume   380.33133885
_cell_formula_units_Z   1
loop_
 _symmetry_equiv_pos_site_id
 _symmetry_equiv_pos_as_xyz
  1  'x, y, z'
loop_
 _atom_site_type_symbol
 _atom_site_label
 _atom_site_symmetry_multiplicity
 _atom_site_fract_x
 _atom_site_fract_y
 _atom_site_fract_z
 _atom_site_occupancy
  Ba  Ba0  1  0.11639899  0.30819899  0.12500000  1
  Mg  Mg0  1  0.16561091  0.33280495  0.62500000  1
  Mg  Mg1  1  0.14629805  0.82314853  0.62500000  1
  Mg  Mg2  1  0.59237849  0.27779703  0.12500000  1
  Mg  Mg3  1  0.65660411  0.33325906  0.62500000  1
  Mg  Mg4  1  0.59237849  0.81458046  0.12500000  1
  Mg  Mg5  1  0.65660411  0.82334405  0.62500000  1
  Mg  Mg6  1  0.34596148  0.16545522  0.38350933  1
  Mg  Mg7  1  0.34596148  0.16545522  0.86649067  1
  Mg  Mg8  1  0.34596148  0.68050727  0.38350933  1
  Mg  Mg9  1  0.34596148  0.68050727  0.86649067  1
  Mg  Mg10  1  0.82457662  0.16228881  0.39533798  1
  Mg  Mg11  1  0.82457662  0.16228881  0.85466202  1
  Mg  Mg12  1  0.86995368  0.68497734  0.33259826  1
  Mg  Mg13  1  0.86995368  0.68497734  0.91740174  1
  C  C0  1  0.30082032  0.90040966  0.12500000  1
loop_
_geom_bond_atom_site_label_1
_geom_bond_atom_site_label_2
_geom_bond_distance
_geom_bond_site_symmetry_2
Ba0 C0 3.250973 1_555
Ba0 C0 3.250973 1_545
Ba0 Mg11 3.299356 1_454
Ba0 Mg10 3.299356 1_455
Ba0 Mg4 3.305365 1_555
Ba0 Mg2 3.305366 1_555
Ba0 Mg7 3.393303 1_554
Ba0 Mg6 3.393303 1_555
Ba0 Mg8 3.393309 1_555
Ba0 Mg9 3.393309 1_554
Ba0 Mg4 3.461996 1_445
Ba0 Mg2 3.461996 1_455
Mg0 Mg1 3.057108 1_545
Mg0 Mg1 3.057108 1_555
Mg0 Mg11 3.138503 1_455
Mg0 Mg10 3.138503 1_455
Mg0 Mg6 3.142314 1_555
Mg0 Mg7 3.142314 1_555
Mg0 Mg8 3.142320 1_555
Mg0 Mg9 3.142320 1_555
Mg0 Mg5 3.317487 1_555
Mg0 Mg3 3.317487 1_555
Mg0 Mg5 3.441753 1_445
Mg0 Mg3 3.441753 1_455
Mg1 Mg9 3.140066 1_555
Mg1 Mg8 3.140066 1_555
Mg1 Mg6 3.140071 1_565
Mg1 Mg7 3.140071 1_565
Mg1 Mg3 3.310498 1_455
Mg1 Mg5 3.310498 1_455
Mg1 Mg13 3.448110 1_455
Mg1 Mg12 3.448110 1_455
Mg1 Mg3 3.448740 1_565
Mg1 Mg5 3.448741 1_555
Mg3 Mg5 2.994311 1_555
Mg3 Mg5 3.115468 1_545
Mg3 Mg6 3.119298 1_555
Mg3 Mg7 3.119298 1_555
Mg5 Mg8 3.119298 1_555
Mg5 Mg9 3.119298 1_555
Mg10 Mg3 3.012346 1_555
Mg10 Mg5 3.012352 1_545
Mg11 Mg3 3.012346 1_555
Mg11 Mg5 3.012352 1_545
C0 Mg2 2.256731 1_565
C0 Mg4 2.256731 1_555
