# generated using pymatgen
data_NaCa3Mg3Fe(SiO3)8
_symmetry_space_group_name_H-M   'P 1'
_cell_length_a   8.99289500
_cell_length_b   5.31974400
_cell_length_c   9.78793471
_cell_angle_alpha   74.91521847
_cell_angle_beta   90.00000000
_cell_angle_gamma   90.00000000
_symmetry_Int_Tables_number   1
_chemical_formula_structural   NaCa3Mg3Fe(SiO3)8
_chemical_formula_sum   'Na1 Ca3 Mg3 Fe1 Si8 O24'
_cell_volume   452.11862195
_cell_formula_units_Z   1
loop_
 _symmetry_equiv_pos_site_id
 _symmetry_equiv_pos_as_xyz
  1  'x, y, z'
loop_
 _atom_site_type_symbol
 _atom_site_label
 _atom_site_symmetry_multiplicity
 _atom_site_fract_x
 _atom_site_fract_y
 _atom_site_fract_z
 _atom_site_occupancy
  Na  Na0  1  0.30289400  0.00000000  0.00000000  1
  Ca  Ca0  1  0.79799500  0.50000000  0.50000000  1
  Ca  Ca1  1  0.20156400  0.00000000  0.50000000  1
  Ca  Ca2  1  0.69597200  0.50000000  0.00000000  1
  Mg  Mg0  1  0.40820500  0.50000000  0.50000000  1
  Mg  Mg1  1  0.90620900  0.00000000  0.00000000  1
  Mg  Mg2  1  0.59121200  0.00000000  0.50000000  1
  Fe  Fe0  1  0.10246600  0.50000000  0.00000000  1
  Si  Si0  1  0.09385800  0.69251500  0.28581300  1
  Si  Si1  1  0.59097100  0.19240300  0.78761300  1
  Si  Si2  1  0.09385800  0.30748500  0.71418700  1
  Si  Si3  1  0.59097100  0.80759700  0.21238700  1
  Si  Si4  1  0.90778900  0.80602200  0.71313300  1
  Si  Si5  1  0.40747800  0.30662000  0.21205100  1
  Si  Si6  1  0.90778900  0.19397800  0.28686700  1
  Si  Si7  1  0.40747800  0.69338000  0.78794900  1
  O  O0  1  0.01695100  0.39647100  0.35136400  1
  O  O1  1  0.51735300  0.89511900  0.85005200  1
  O  O2  1  0.01695100  0.60352900  0.64863600  1
  O  O3  1  0.51735300  0.10488100  0.14994800  1
  O  O4  1  0.98368700  0.10178500  0.65110300  1
  O  O5  1  0.48512800  0.59901000  0.14955800  1
  O  O6  1  0.98368700  0.89821500  0.34889700  1
  O  O7  1  0.48512800  0.40099000  0.85044200  1
  O  O8  1  0.08299400  0.76798200  0.11434000  1
  O  O9  1  0.58704800  0.27619300  0.61573300  1
  O  O10  1  0.08299400  0.23201800  0.88566000  1
  O  O11  1  0.58704800  0.72380700  0.38426700  1
  O  O12  1  0.91692400  0.71982300  0.88558200  1
  O  O13  1  0.41073500  0.22299100  0.38360700  1
  O  O14  1  0.91692400  0.28017700  0.11441800  1
  O  O15  1  0.41073500  0.77700900  0.61639300  1
  O  O16  1  0.24941400  0.70744100  0.36198200  1
  O  O17  1  0.74935700  0.20575200  0.86200400  1
  O  O18  1  0.24941400  0.29255900  0.63801800  1
  O  O19  1  0.74935700  0.79424800  0.13799600  1
  O  O20  1  0.75059000  0.79290600  0.63875100  1
  O  O21  1  0.24646600  0.30013900  0.13848400  1
  O  O22  1  0.75059000  0.20709400  0.36124900  1
  O  O23  1  0.24646600  0.69986100  0.86151600  1
loop_
_geom_bond_atom_site_label_1
_geom_bond_atom_site_label_2
_geom_bond_distance
_geom_bond_site_symmetry_2
Na0 O21 2.402211 1_555
Na0 O23 2.402211 1_544
Na0 O10 2.442870 1_554
Na0 O8 2.442870 1_545
Na0 O3 2.571213 1_555
Na0 O1 2.571213 1_544
Na0 O5 2.784539 1_545
Na0 O7 2.784539 1_554
Ca0 O22 2.357016 1_555
Ca0 O20 2.357016 1_555
Ca0 O9 2.365890 1_555
Ca0 O11 2.365890 1_555
Ca0 O2 2.591154 1_655
Ca0 O0 2.591154 1_655
Ca0 O4 2.798725 1_555
Ca0 O6 2.798725 1_555
Ca1 O18 2.350883 1_555
Ca1 O16 2.350883 1_545
Ca1 O13 2.353726 1_555
Ca1 O15 2.353726 1_545
Ca1 O4 2.595467 1_455
Ca1 O6 2.595467 1_445
Ca1 O0 2.779233 1_555
Ca1 O2 2.779233 1_545
Ca2 O19 2.367609 1_555
Ca2 O17 2.367609 1_554
Ca2 O14 2.426565 1_555
Ca2 O12 2.426565 1_554
Ca2 O5 2.533145 1_555
Ca2 O7 2.533145 1_554
Ca2 O3 2.747126 1_555
Ca2 O1 2.747126 1_554
Mg0 O18 2.075081 1_555
Mg0 O16 2.075081 1_555
Mg0 O15 2.084170 1_555
Mg0 O13 2.084170 1_555
Mg0 O9 2.141359 1_555
Mg0 O11 2.141359 1_555
Mg1 O17 2.059751 1_554
Mg1 O19 2.059751 1_545
Mg1 O14 2.086579 1_555
Mg1 O12 2.086579 1_544
Mg1 O10 2.141133 1_654
Mg1 O8 2.141133 1_645
Mg2 O9 2.075977 1_555
Mg2 O11 2.075977 1_545
Mg2 O20 2.081733 1_545
Mg2 O22 2.081733 1_555
Mg2 O13 2.153098 1_555
Mg2 O15 2.153098 1_545
Fe0 O21 1.973467 1_555
Fe0 O23 1.973467 1_554
Fe0 O8 2.036153 1_555
Fe0 O10 2.036153 1_554
Fe0 O14 2.173510 1_455
Fe0 O12 2.173510 1_454
O0 Si0 1.686505 1_555
O0 Si6 1.696045 1_455
O1 Si1 1.676244 1_565
O1 Si7 1.684378 1_555
O2 Si2 1.686505 1_555
O2 Si4 1.696045 1_455
O3 Si3 1.676244 1_545
O3 Si5 1.684378 1_555
O4 Si4 1.677143 1_545
O4 Si2 1.706450 1_655
O5 Si5 1.669116 1_555
O5 Si3 1.694293 1_555
O6 Si6 1.677143 1_565
O6 Si0 1.706450 1_655
O7 Si7 1.669116 1_555
O7 Si1 1.694293 1_555
O8 Si0 1.623860 1_555
O9 Si1 1.624782 1_555
O10 Si2 1.623860 1_555
O11 Si3 1.624782 1_555
O12 Si4 1.631940 1_555
O13 Si5 1.621601 1_555
O14 Si6 1.631940 1_555
O15 Si7 1.621601 1_555
O16 Si0 1.596828 1_555
O17 Si1 1.609629 1_555
O18 Si2 1.596828 1_555
O19 Si3 1.609629 1_555
O20 Si4 1.599948 1_555
O21 Si5 1.621484 1_555
O22 Si6 1.599948 1_555
O23 Si7 1.621484 1_555
