# generated using pymatgen
data_HfZrMo4
_symmetry_space_group_name_H-M   'P 1'
_cell_length_a   5.35835386
_cell_length_b   5.35835386
_cell_length_c   5.35835386
_cell_angle_alpha   60.00000000
_cell_angle_beta   60.00000000
_cell_angle_gamma   60.00000000
_symmetry_Int_Tables_number   1
_chemical_formula_structural   HfZrMo4
_chemical_formula_sum   'Hf1 Zr1 Mo4'
_cell_volume   108.78754439
_cell_formula_units_Z   1
loop_
 _symmetry_equiv_pos_site_id
 _symmetry_equiv_pos_as_xyz
  1  'x, y, z'
loop_
 _atom_site_type_symbol
 _atom_site_label
 _atom_site_symmetry_multiplicity
 _atom_site_fract_x
 _atom_site_fract_y
 _atom_site_fract_z
 _atom_site_occupancy
  Hf  Hf0  1  0.25000000  0.25000000  0.25000000  1
  Zr  Zr0  1  0.00000000  0.00000000  -0.00000000  1
  Mo  Mo0  1  0.62499039  0.62499039  0.12502783  1
  Mo  Mo1  1  0.62499039  0.12502783  0.62499039  1
  Mo  Mo2  1  0.12502783  0.62499039  0.62499039  1
  Mo  Mo3  1  0.62499039  0.62499039  0.62499039  1
loop_
_geom_bond_atom_site_label_1
_geom_bond_atom_site_label_2
_geom_bond_distance
_geom_bond_site_symmetry_2
Hf0 Mo2 3.141589 1_555
Hf0 Mo0 3.141589 1_555
Hf0 Mo1 3.141589 1_555
Hf0 Mo3 3.141591 1_455
Hf0 Mo3 3.141591 1_554
Hf0 Mo3 3.141591 1_545
Hf0 Mo1 3.141594 1_554
Hf0 Mo0 3.141594 1_545
Hf0 Mo2 3.141594 1_554
Hf0 Mo1 3.141594 1_455
Hf0 Mo0 3.141594 1_455
Hf0 Mo2 3.141594 1_545
Hf0 Zr0 3.281308 1_565
Hf0 Zr0 3.281308 1_555
Hf0 Zr0 3.281308 1_556
Hf0 Zr0 3.281308 1_655
Mo0 Mo3 2.678976 1_555
Mo0 Mo1 2.678976 1_555
Mo0 Mo2 2.678976 1_555
Mo0 Mo2 2.679378 1_654
Mo0 Mo1 2.679378 1_564
Mo0 Mo3 2.679378 1_554
Mo0 Zr0 3.141633 1_655
Mo0 Zr0 3.141633 1_565
Mo0 Zr0 3.141638 1_665
Mo1 Mo3 2.678976 1_555
Mo1 Mo2 2.678976 1_555
Mo1 Mo2 2.679378 1_645
Mo1 Mo3 2.679378 1_545
Mo1 Zr0 3.141633 1_556
Mo1 Zr0 3.141633 1_655
Mo1 Zr0 3.141638 1_656
Mo2 Mo3 2.678976 1_555
Mo2 Mo3 2.679378 1_455
Mo2 Zr0 3.141633 1_556
Mo2 Zr0 3.141633 1_565
Mo2 Zr0 3.141638 1_566
Mo3 Zr0 3.141635 1_656
Mo3 Zr0 3.141635 1_566
Mo3 Zr0 3.141635 1_665
