# generated using pymatgen
data_BaSrNbBiO6
_symmetry_space_group_name_H-M   'P 1'
_cell_length_a   6.12290235
_cell_length_b   6.12290235
_cell_length_c   6.12290235
_cell_angle_alpha   60.00000000
_cell_angle_beta   60.00000000
_cell_angle_gamma   60.00000000
_symmetry_Int_Tables_number   1
_chemical_formula_structural   BaSrNbBiO6
_chemical_formula_sum   'Ba1 Sr1 Nb1 Bi1 O6'
_cell_volume   162.31438148
_cell_formula_units_Z   1
loop_
 _symmetry_equiv_pos_site_id
 _symmetry_equiv_pos_as_xyz
  1  'x, y, z'
loop_
 _atom_site_type_symbol
 _atom_site_label
 _atom_site_symmetry_multiplicity
 _atom_site_fract_x
 _atom_site_fract_y
 _atom_site_fract_z
 _atom_site_occupancy
  Ba  Ba0  1  0.75000000  0.75000000  0.75000000  1
  Sr  Sr0  1  0.25000000  0.25000000  0.25000000  1
  Nb  Nb0  1  0.50000000  0.50000000  0.50000000  1
  Bi  Bi0  1  -0.00000000  -0.00000000  -0.00000000  1
  O  O0  1  0.73235976  0.26764024  0.26764024  1
  O  O1  1  0.26764024  0.73235976  0.73235976  1
  O  O2  1  0.73235976  0.26764024  0.73235976  1
  O  O3  1  0.26764024  0.73235976  0.26764024  1
  O  O4  1  0.73235976  0.73235976  0.26764024  1
  O  O5  1  0.26764024  0.26764024  0.73235976  1
loop_
_geom_bond_atom_site_label_1
_geom_bond_atom_site_label_2
_geom_bond_distance
_geom_bond_site_symmetry_2
Ba0 O2 3.065259 1_555
Ba0 O4 3.065259 1_555
Ba0 O1 3.065259 1_555
Ba0 O2 3.065259 1_565
Ba0 O3 3.065259 1_556
Ba0 O4 3.065259 1_556
Ba0 O0 3.065259 1_565
Ba0 O3 3.065259 1_655
Ba0 O5 3.065259 1_565
Ba0 O1 3.065259 1_655
Ba0 O5 3.065259 1_655
Ba0 O0 3.065259 1_556
Nb0 O0 2.012024 1_555
Nb0 O3 2.012024 1_555
Nb0 O5 2.012024 1_555
Nb0 O4 2.012024 1_555
Nb0 O1 2.012024 1_555
Nb0 O2 2.012024 1_555
Bi0 O4 2.317521 1_445
Bi0 O2 2.317521 1_454
Bi0 O1 2.317521 1_544
Bi0 O5 2.317521 1_554
Bi0 O0 2.317521 1_455
Bi0 O3 2.317521 1_545
O0 Sr0 3.065259 1_655
O0 Sr0 3.065259 1_555
O1 Sr0 3.065259 1_565
O1 Sr0 3.065259 1_556
O2 Sr0 3.065259 1_655
O2 Sr0 3.065259 1_556
O3 Sr0 3.065259 1_565
O3 Sr0 3.065259 1_555
O4 Sr0 3.065259 1_565
O4 Sr0 3.065259 1_655
O5 Sr0 3.065259 1_556
O5 Sr0 3.065259 1_555
