# generated using pymatgen
data_CsSb
_symmetry_space_group_name_H-M   'P 1'
_cell_length_a   7.43462159
_cell_length_b   14.51763341
_cell_length_c   15.42866911
_cell_angle_alpha   113.36173976
_cell_angle_beta   90.00000000
_cell_angle_gamma   90.00000000
_symmetry_Int_Tables_number   1
_chemical_formula_structural   CsSb
_chemical_formula_sum   'Cs16 Sb16'
_cell_volume   1528.74526255
_cell_formula_units_Z   16
loop_
 _symmetry_equiv_pos_site_id
 _symmetry_equiv_pos_as_xyz
  1  'x, y, z'
loop_
 _atom_site_type_symbol
 _atom_site_label
 _atom_site_symmetry_multiplicity
 _atom_site_fract_x
 _atom_site_fract_y
 _atom_site_fract_z
 _atom_site_occupancy
  Cs  Cs0  1  0.38113571  0.64478505  0.13234063  1
  Cs  Cs1  1  0.88113571  0.85521495  0.86765937  1
  Cs  Cs2  1  0.61886429  0.35521495  0.86765937  1
  Cs  Cs3  1  0.11886429  0.14478505  0.13234063  1
  Cs  Cs4  1  0.19002222  0.52580505  0.38970649  1
  Cs  Cs5  1  0.69002222  0.97419495  0.61029351  1
  Cs  Cs6  1  0.80997778  0.47419495  0.61029351  1
  Cs  Cs7  1  0.30997778  0.02580505  0.38970649  1
  Cs  Cs8  1  0.41456299  0.67978328  0.65771787  1
  Cs  Cs9  1  0.91456299  0.82021672  0.34228213  1
  Cs  Cs10  1  0.58543701  0.32021672  0.34228213  1
  Cs  Cs11  1  0.08543701  0.17978328  0.65771787  1
  Cs  Cs12  1  0.14352690  0.53830175  0.85424395  1
  Cs  Cs13  1  0.64352690  0.96169825  0.14575605  1
  Cs  Cs14  1  0.85647310  0.46169825  0.14575605  1
  Cs  Cs15  1  0.35647310  0.03830175  0.85424395  1
  Sb  Sb0  1  0.86761653  0.69950996  0.06922695  1
  Sb  Sb1  1  0.36761653  0.80049004  0.93077305  1
  Sb  Sb2  1  0.13238347  0.30049004  0.93077305  1
  Sb  Sb3  1  0.63238347  0.19950996  0.06922695  1
  Sb  Sb4  1  0.13054514  0.85372612  0.09005238  1
  Sb  Sb5  1  0.63054514  0.64627388  0.90994762  1
  Sb  Sb6  1  0.86945486  0.14627388  0.90994762  1
  Sb  Sb7  1  0.36945486  0.35372612  0.09005238  1
  Sb  Sb8  1  0.42547644  0.76907951  0.41050090  1
  Sb  Sb9  1  0.92547644  0.73092049  0.58949910  1
  Sb  Sb10  1  0.57452356  0.23092049  0.58949910  1
  Sb  Sb11  1  0.07452356  0.26907951  0.41050090  1
  Sb  Sb12  1  0.19302976  0.86676224  0.56978943  1
  Sb  Sb13  1  0.69302976  0.63323776  0.43021057  1
  Sb  Sb14  1  0.80697024  0.13323776  0.43021057  1
  Sb  Sb15  1  0.30697024  0.36676224  0.56978943  1
loop_
_geom_bond_atom_site_label_1
_geom_bond_atom_site_label_2
_geom_bond_distance
_geom_bond_site_symmetry_2
Cs0 Sb4 3.829790 1_555
Cs0 Sb5 3.907801 1_554
Cs0 Sb0 3.908221 1_555
Cs0 Sb8 3.954913 1_555
Cs0 Sb7 4.012672 1_555
Cs0 Sb0 4.094960 1_455
Cs1 Sb5 3.829790 1_555
Cs1 Sb4 3.907801 1_656
Cs1 Sb1 3.908221 1_655
Cs1 Sb9 3.954913 1_555
Cs1 Sb6 4.012672 1_565
Cs1 Sb1 4.094960 1_555
Cs2 Sb6 3.829790 1_555
Cs2 Sb7 3.907801 1_556
Cs2 Sb2 3.908221 1_555
Cs2 Sb10 3.954913 1_555
Cs2 Sb5 4.012672 1_555
Cs2 Sb2 4.094960 1_655
Cs3 Sb7 3.829790 1_555
Cs3 Sb6 3.907801 1_454
Cs3 Sb3 3.908221 1_455
Cs3 Sb11 3.954913 1_555
Cs3 Sb4 4.012672 1_545
Cs3 Sb3 4.094960 1_555
Cs4 Sb8 3.839531 1_555
Cs4 Sb9 3.867538 1_455
Cs4 Sb11 3.959731 1_555
Cs4 Sb13 3.962673 1_455
Cs4 Sb13 4.004404 1_555
Cs4 Sb15 4.346785 1_555
Cs4 Sb7 4.498367 1_555
Cs5 Sb9 3.839531 1_555
Cs5 Sb8 3.867538 1_555
Cs5 Sb10 3.959731 1_565
Cs5 Sb12 3.962673 1_555
Cs5 Sb12 4.004404 1_655
Cs5 Sb14 4.346785 1_565
Cs5 Sb6 4.498367 1_565
Cs6 Sb10 3.839531 1_555
Cs6 Sb11 3.867538 1_655
Cs6 Sb9 3.959731 1_555
Cs6 Sb15 3.962673 1_655
Cs6 Sb15 4.004404 1_555
Cs6 Sb13 4.346785 1_555
Cs6 Sb5 4.498367 1_555
Cs7 Sb11 3.839531 1_555
Cs7 Sb10 3.867538 1_555
Cs7 Sb8 3.959731 1_545
Cs7 Sb14 3.962673 1_555
Cs7 Sb14 4.004404 1_455
Cs7 Sb12 4.346785 1_545
Cs7 Sb4 4.498367 1_545
Cs8 Sb12 3.852538 1_555
Cs8 Sb1 3.884084 1_555
Cs8 Sb13 3.896498 1_555
Cs8 Sb9 3.937055 1_455
Cs8 Sb9 4.087402 1_555
Cs8 Sb15 4.271060 1_555
Cs8 Sb5 4.411440 1_555
Cs9 Sb13 3.852538 1_555
Cs9 Sb0 3.884084 1_555
Cs9 Sb12 3.896498 1_655
Cs9 Sb8 3.937055 1_555
Cs9 Sb8 4.087402 1_655
Cs9 Sb14 4.271060 1_565
Cs9 Sb4 4.411440 1_655
Cs10 Sb14 3.852538 1_555
Cs10 Sb3 3.884084 1_555
Cs10 Sb15 3.896498 1_555
Cs10 Sb11 3.937055 1_655
Cs10 Sb11 4.087402 1_555
Cs10 Sb13 4.271060 1_555
Cs10 Sb7 4.411440 1_555
Cs11 Sb15 3.852538 1_555
Cs11 Sb2 3.884084 1_555
Cs11 Sb14 3.896498 1_455
Cs11 Sb10 3.937055 1_555
Cs11 Sb10 4.087402 1_455
Cs11 Sb12 4.271060 1_545
Cs11 Sb6 4.411440 1_455
Cs12 Sb0 3.811891 1_456
Cs12 Sb1 3.885073 1_555
Cs12 Sb5 3.903518 1_555
Cs12 Sb2 4.068592 1_555
Cs12 Sb5 4.083204 1_455
Cs12 Sb15 4.274539 1_555
Cs13 Sb1 3.811891 1_554
Cs13 Sb0 3.885073 1_555
Cs13 Sb4 3.903518 1_655
Cs13 Sb3 4.068592 1_565
Cs13 Sb4 4.083204 1_555
Cs13 Sb14 4.274539 1_565
Cs14 Sb2 3.811891 1_654
Cs14 Sb3 3.885073 1_555
Cs14 Sb7 3.903518 1_555
Cs14 Sb0 4.068592 1_555
Cs14 Sb7 4.083204 1_655
Cs14 Sb13 4.274539 1_555
Cs15 Sb3 3.811891 1_556
Cs15 Sb2 3.885073 1_555
Cs15 Sb6 3.903518 1_455
Cs15 Sb1 4.068592 1_545
Cs15 Sb6 4.083204 1_555
Cs15 Sb12 4.274539 1_545
Sb0 Sb5 2.869971 1_554
Sb0 Sb4 2.892463 1_655
Sb1 Sb4 2.869971 1_556
Sb1 Sb5 2.892463 1_555
Sb2 Sb7 2.869971 1_556
Sb2 Sb6 2.892463 1_455
Sb3 Sb6 2.869971 1_554
Sb3 Sb7 2.892463 1_555
Sb10 Sb14 2.876357 1_555
Sb10 Sb15 2.900691 1_555
Sb11 Sb15 2.876357 1_555
Sb11 Sb14 2.900691 1_455
Sb12 Sb8 2.876357 1_555
Sb12 Sb9 2.900691 1_455
Sb13 Sb9 2.876357 1_555
Sb13 Sb8 2.900691 1_555
