# generated using pymatgen
data_Y3AlCoS7
_symmetry_space_group_name_H-M   'P 1'
_cell_length_a   9.58113722
_cell_length_b   9.58113722
_cell_length_c   6.14725300
_cell_angle_alpha   90.00000000
_cell_angle_beta   90.00000000
_cell_angle_gamma   119.99999459
_symmetry_Int_Tables_number   1
_chemical_formula_structural   Y3AlCoS7
_chemical_formula_sum   'Y6 Al2 Co2 S14'
_cell_volume   488.70396529
_cell_formula_units_Z   2
loop_
 _symmetry_equiv_pos_site_id
 _symmetry_equiv_pos_as_xyz
  1  'x, y, z'
loop_
 _atom_site_type_symbol
 _atom_site_label
 _atom_site_symmetry_multiplicity
 _atom_site_fract_x
 _atom_site_fract_y
 _atom_site_fract_z
 _atom_site_occupancy
  Y  Y0  1  0.77707200  0.15112000  0.22491200  1
  Y  Y1  1  0.37404800  0.22292800  0.22491200  1
  Y  Y2  1  0.84888000  0.62595200  0.22491200  1
  Y  Y3  1  0.22292800  0.84888000  0.72491200  1
  Y  Y4  1  0.62595200  0.77707200  0.72491200  1
  Y  Y5  1  0.15112000  0.37404800  0.72491200  1
  Al  Al0  1  0.66666700  0.33333300  0.64938000  1
  Al  Al1  1  0.33333300  0.66666700  0.14938000  1
  Co  Co0  1  0.00000000  0.00000000  0.06816200  1
  Co  Co1  1  0.00000000  0.00000000  0.56816200  1
  S  S0  1  0.87159200  0.09400500  0.82310600  1
  S  S1  1  0.22241200  0.12840800  0.82310600  1
  S  S2  1  0.90599500  0.77758800  0.82310600  1
  S  S3  1  0.12840800  0.90599500  0.32310600  1
  S  S4  1  0.77758800  0.87159200  0.32310600  1
  S  S5  1  0.09400500  0.22241200  0.32310600  1
  S  S6  1  0.91046800  0.42823700  0.49580400  1
  S  S7  1  0.51776900  0.08953200  0.49580400  1
  S  S8  1  0.57176300  0.48223100  0.49580400  1
  S  S9  1  0.08953200  0.57176300  0.99580400  1
  S  S10  1  0.48223100  0.91046800  0.99580400  1
  S  S11  1  0.42823700  0.51776900  0.99580400  1
  S  S12  1  0.66666700  0.33333300  0.01410100  1
  S  S13  1  0.33333300  0.66666700  0.51410100  1
loop_
_geom_bond_atom_site_label_1
_geom_bond_atom_site_label_2
_geom_bond_distance
_geom_bond_site_symmetry_2
Al0 S12 2.242032 1_556
Al0 S6 2.247323 1_555
Al0 S7 2.247325 1_555
Al0 S8 2.247331 1_555
Al1 S13 2.242032 1_555
Al1 S9 2.247323 1_554
Al1 S10 2.247325 1_554
Al1 S11 2.247331 1_554
Co0 S2 2.387930 1_444
Co0 S1 2.387930 1_554
Co0 S0 2.387936 1_454
Co0 S5 2.426734 1_555
Co0 S4 2.426734 1_445
Co0 S3 2.426740 1_545
Co1 S5 2.387930 1_555
Co1 S4 2.387930 1_445
Co1 S3 2.387936 1_545
Co1 S2 2.426734 1_445
Co1 S1 2.426734 1_555
Co1 S0 2.426740 1_455
S0 Y5 2.747788 1_655
S0 Y0 2.777782 1_556
S0 Y4 2.824458 1_545
S1 Y3 2.747792 1_545
S1 Y1 2.777786 1_556
S1 Y5 2.824452 1_555
S2 Y4 2.747783 1_555
S2 Y2 2.777786 1_556
S2 Y3 2.824461 1_655
S3 Y2 2.747788 1_455
S3 Y3 2.777782 1_555
S3 Y1 2.824458 1_565
S4 Y0 2.747792 1_565
S4 Y4 2.777786 1_555
S4 Y2 2.824452 1_555
S5 Y1 2.747783 1_555
S5 Y5 2.777786 1_555
S5 Y0 2.824461 1_455
S6 Y2 2.797775 1_555
S6 Y0 2.839477 1_555
S6 Y5 2.960838 1_655
S7 Y0 2.797775 1_555
S7 Y1 2.839477 1_555
S7 Y3 2.960839 1_545
S8 Y1 2.797775 1_555
S8 Y2 2.839477 1_555
S8 Y4 2.960838 1_555
S9 Y5 2.797775 1_555
S9 Y3 2.839477 1_555
S9 Y2 2.960838 1_456
S10 Y3 2.797775 1_555
S10 Y4 2.839477 1_555
S10 Y0 2.960839 1_566
S11 Y4 2.797775 1_555
S11 Y5 2.839477 1_555
S11 Y1 2.960838 1_556
S12 Y0 2.773608 1_555
S12 Y2 2.773615 1_555
S12 Y1 2.773616 1_555
S13 Y3 2.773608 1_555
S13 Y5 2.773615 1_555
S13 Y4 2.773616 1_555
