# generated using pymatgen
data_GaB2N3
_symmetry_space_group_name_H-M   'P 1'
_cell_length_a   5.00057802
_cell_length_b   8.75588587
_cell_length_c   11.48973706
_cell_angle_alpha   89.99999817
_cell_angle_beta   90.10704791
_cell_angle_gamma   151.10270667
_symmetry_Int_Tables_number   1
_chemical_formula_structural   GaB2N3
_chemical_formula_sum   'Ga4 B8 N12'
_cell_volume   243.10334865
_cell_formula_units_Z   4
loop_
 _symmetry_equiv_pos_site_id
 _symmetry_equiv_pos_as_xyz
  1  'x, y, z'
loop_
 _atom_site_type_symbol
 _atom_site_label
 _atom_site_symmetry_multiplicity
 _atom_site_fract_x
 _atom_site_fract_y
 _atom_site_fract_z
 _atom_site_occupancy
  Ga  Ga0  1  0.24915702  0.08435047  0.61169610  1
  Ga  Ga1  1  0.75084298  0.83519245  0.88830390  1
  Ga  Ga2  1  0.75084298  0.91564953  0.38830390  1
  Ga  Ga3  1  0.24915702  0.16480755  0.11169610  1
  B  B0  1  0.81641488  0.18245708  0.94985558  1
  B  B1  1  0.18358512  0.36604320  0.55014442  1
  B  B2  1  0.18358512  0.81754292  0.05014442  1
  B  B3  1  0.81641488  0.63395680  0.44985558  1
  B  B4  1  0.53043869  0.94405462  0.70853788  1
  B  B5  1  0.46956131  0.41361594  0.79146212  1
  B  B6  1  0.46956131  0.05594538  0.29146212  1
  B  B7  1  0.53043869  0.58638406  0.20853788  1
  N  N0  1  1.00000000  0.67256657  0.75000000  1
  N  N1  1  0.00000000  0.32743343  0.25000000  1
  N  N2  1  0.73534971  0.16230187  0.62550401  1
  N  N3  1  0.26465029  0.42695116  0.87449599  1
  N  N4  1  0.26465029  0.83769813  0.37449599  1
  N  N5  1  0.73534971  0.57304884  0.12550401  1
  N  N6  1  0.37188778  0.06147550  0.99654105  1
  N  N7  1  0.62811222  0.68958671  0.50345895  1
  N  N8  1  0.62811222  0.93852450  0.00345895  1
  N  N9  1  0.37188778  0.31041329  0.49654105  1
  N  N10  1  1.00000000  0.06987630  0.75000000  1
  N  N11  1  0.00000000  0.93012370  0.25000000  1
loop_
_geom_bond_atom_site_label_1
_geom_bond_atom_site_label_2
_geom_bond_distance
_geom_bond_site_symmetry_2
Ga0 N2 1.869479 1_555
Ga0 N10 1.955627 1_455
Ga0 N9 1.980192 1_555
Ga0 N7 2.080493 1_445
Ga1 N3 1.869479 1_555
Ga1 N10 1.955631 1_565
Ga1 N8 1.980192 1_556
Ga1 N6 2.080487 1_665
Ga2 N4 1.869479 1_555
Ga2 N11 1.955627 1_655
Ga2 N7 1.980192 1_555
Ga2 N9 2.080493 1_665
Ga3 N5 1.869479 1_555
Ga3 N11 1.955631 1_545
Ga3 N6 1.980192 1_554
Ga3 N8 2.080487 1_445
B0 N3 1.400722 1_655
B0 N6 1.494159 1_555
B0 N8 1.519370 1_546
B1 N2 1.400722 1_455
B1 N7 1.494149 1_555
B1 N9 1.519370 1_555
B2 N5 1.400722 1_455
B2 N8 1.494159 1_555
B2 N6 1.519370 1_564
B3 N4 1.400722 1_655
B3 N9 1.494149 1_555
B3 N7 1.519370 1_555
B4 N0 1.370286 1_455
B4 N2 1.478830 1_565
B4 N10 1.555783 1_565
B5 N0 1.370286 1_555
B5 N3 1.478824 1_555
B5 N10 1.555783 1_455
B6 N1 1.370286 1_655
B6 N4 1.478830 1_545
B6 N11 1.555783 1_545
B7 N1 1.370286 1_555
B7 N5 1.478824 1_555
B7 N11 1.555783 1_655
