# generated using pymatgen
data_Lu2Be2SiO7
_symmetry_space_group_name_H-M   'P 1'
_cell_length_a   7.23835900
_cell_length_b   7.23835900
_cell_length_c   4.72447600
_cell_angle_alpha   90.00000000
_cell_angle_beta   90.00000000
_cell_angle_gamma   90.00000000
_symmetry_Int_Tables_number   1
_chemical_formula_structural   Lu2Be2SiO7
_chemical_formula_sum   'Lu4 Be4 Si2 O14'
_cell_volume   247.53344441
_cell_formula_units_Z   2
loop_
 _symmetry_equiv_pos_site_id
 _symmetry_equiv_pos_as_xyz
  1  'x, y, z'
loop_
 _atom_site_type_symbol
 _atom_site_label
 _atom_site_symmetry_multiplicity
 _atom_site_fract_x
 _atom_site_fract_y
 _atom_site_fract_z
 _atom_site_occupancy
  Lu  Lu0  1  0.15727200  0.34272800  0.51238600  1
  Lu  Lu1  1  0.84272800  0.65727200  0.51238600  1
  Lu  Lu2  1  0.65727200  0.15727200  0.48761400  1
  Lu  Lu3  1  0.34272800  0.84272800  0.48761400  1
  Be  Be0  1  0.63728700  0.86271300  0.95568100  1
  Be  Be1  1  0.36271300  0.13728700  0.95568100  1
  Be  Be2  1  0.13728700  0.63728700  0.04431900  1
  Be  Be3  1  0.86271300  0.36271300  0.04431900  1
  Si  Si0  1  0.00000000  0.00000000  0.00000000  1
  Si  Si1  1  0.50000000  0.50000000  0.00000000  1
  O  O0  1  0.00000000  0.50000000  0.19162500  1
  O  O1  1  0.50000000  0.00000000  0.80837500  1
  O  O2  1  0.64068600  0.85931400  0.29278900  1
  O  O3  1  0.35931400  0.14068600  0.29278900  1
  O  O4  1  0.14068600  0.64068600  0.70721100  1
  O  O5  1  0.85931400  0.35931400  0.70721100  1
  O  O6  1  0.08452200  0.83841900  0.20603200  1
  O  O7  1  0.91547800  0.16158100  0.20603200  1
  O  O8  1  0.16158100  0.08452200  0.79396800  1
  O  O9  1  0.41547800  0.33841900  0.79396800  1
  O  O10  1  0.83841900  0.91547800  0.79396800  1
  O  O11  1  0.58452200  0.66158100  0.79396800  1
  O  O12  1  0.33841900  0.58452200  0.20603200  1
  O  O13  1  0.66158100  0.41547800  0.20603200  1
loop_
_geom_bond_atom_site_label_1
_geom_bond_atom_site_label_2
_geom_bond_distance
_geom_bond_site_symmetry_2
Lu0 O0 2.210970 1_555
Lu0 O9 2.294310 1_555
Lu0 O8 2.294310 1_555
Lu0 O3 2.313850 1_555
Lu0 O5 2.348000 1_455
Lu0 O4 2.348000 1_555
Lu0 O7 2.622459 1_455
Lu0 O12 2.622459 1_555
Lu1 O0 2.210970 1_655
Lu1 O10 2.294310 1_555
Lu1 O11 2.294310 1_555
Lu1 O2 2.313850 1_555
Lu1 O5 2.348000 1_555
Lu1 O4 2.348000 1_655
Lu1 O13 2.622459 1_555
Lu1 O6 2.622459 1_655
Lu2 O1 2.210970 1_555
Lu2 O7 2.294310 1_555
Lu2 O13 2.294310 1_555
Lu2 O5 2.313850 1_555
Lu2 O2 2.348000 1_545
Lu2 O3 2.348000 1_555
Lu2 O9 2.622459 1_555
Lu2 O10 2.622459 1_545
Lu3 O1 2.210970 1_565
Lu3 O6 2.294310 1_555
Lu3 O12 2.294310 1_555
Lu3 O4 2.313850 1_555
Lu3 O2 2.348000 1_555
Lu3 O3 2.348000 1_565
Lu3 O8 2.622459 1_565
Lu3 O11 2.622459 1_555
Be0 O1 1.568230 1_565
Be0 O2 1.593039 1_556
Be0 O10 1.687936 1_555
Be0 O11 1.687936 1_555
Be1 O1 1.568230 1_555
Be1 O3 1.593039 1_556
Be1 O8 1.687936 1_555
Be1 O9 1.687936 1_555
Be2 O0 1.568230 1_555
Be2 O4 1.593039 1_554
Be2 O6 1.687936 1_555
Be2 O12 1.687936 1_555
Be3 O0 1.568230 1_655
Be3 O5 1.593039 1_554
Be3 O13 1.687936 1_555
Be3 O7 1.687936 1_555
O6 Si0 1.640035 1_565
O7 Si0 1.640035 1_655
O8 Si0 1.640035 1_556
O9 Si1 1.640035 1_556
O10 Si0 1.640035 1_666
O11 Si1 1.640035 1_556
O12 Si1 1.640035 1_555
O13 Si1 1.640035 1_555
