# generated using pymatgen
data_LaY3
_symmetry_space_group_name_H-M   'P 1'
_cell_length_a   6.25777602
_cell_length_b   6.25777602
_cell_length_c   6.25777602
_cell_angle_alpha   130.66052376
_cell_angle_beta   130.66052376
_cell_angle_gamma   72.35299351
_symmetry_Int_Tables_number   1
_chemical_formula_structural   LaY3
_chemical_formula_sum   'La1 Y3'
_cell_volume   137.84173529
_cell_formula_units_Z   1
loop_
 _symmetry_equiv_pos_site_id
 _symmetry_equiv_pos_as_xyz
  1  'x, y, z'
loop_
 _atom_site_type_symbol
 _atom_site_label
 _atom_site_symmetry_multiplicity
 _atom_site_fract_x
 _atom_site_fract_y
 _atom_site_fract_z
 _atom_site_occupancy
  La  La0  1  0.00000000  -0.00000000  -0.00000000  1
  Y  Y0  1  0.75000000  0.25000000  0.50000000  1
  Y  Y1  1  0.25000000  0.75000000  0.50000000  1
  Y  Y2  1  0.50000000  0.50000000  -0.00000000  1
loop_
_geom_bond_atom_site_label_1
_geom_bond_atom_site_label_2
_geom_bond_distance
_geom_bond_site_symmetry_2
La0 Y0 3.633317 1_444
La0 Y0 3.633317 1_455
La0 Y0 3.633317 1_454
La0 Y1 3.633317 1_545
La0 Y0 3.633317 1_555
La0 Y1 3.633317 1_544
La0 Y1 3.633317 1_444
La0 Y1 3.633317 1_555
La0 Y2 3.693806 1_556
La0 Y2 3.693806 1_455
La0 Y2 3.693806 1_545
La0 Y2 3.693806 1_444
Y0 Y2 3.633317 1_656
Y0 Y2 3.633317 1_555
Y0 Y2 3.633317 1_545
Y0 Y2 3.633317 1_556
Y0 Y1 3.693806 1_645
Y0 Y1 3.693806 1_544
Y0 Y1 3.693806 1_656
Y0 Y1 3.693806 1_555
Y1 Y2 3.633317 1_555
Y1 Y2 3.633317 1_566
Y1 Y2 3.633317 1_455
Y1 Y2 3.633317 1_556
