# generated using pymatgen
data_K2VCuSe2
_symmetry_space_group_name_H-M   'P 1'
_cell_length_a   5.81593800
_cell_length_b   7.48019209
_cell_length_c   19.52042712
_cell_angle_alpha   86.67996107
_cell_angle_beta   81.43272616
_cell_angle_gamma   67.12288840
_symmetry_Int_Tables_number   1
_chemical_formula_structural   K2VCuSe2
_chemical_formula_sum   'K8 V4 Cu4 Se8'
_cell_volume   773.69336153
_cell_formula_units_Z   4
loop_
 _symmetry_equiv_pos_site_id
 _symmetry_equiv_pos_as_xyz
  1  'x, y, z'
loop_
 _atom_site_type_symbol
 _atom_site_label
 _atom_site_symmetry_multiplicity
 _atom_site_fract_x
 _atom_site_fract_y
 _atom_site_fract_z
 _atom_site_occupancy
  K  K0  1  0.67615300  0.27269200  0.59292100  1
  K  K1  1  0.73092600  0.72730800  0.59292100  1
  K  K2  1  0.05115500  0.27269200  0.40707900  1
  K  K3  1  0.07384700  0.22730800  0.90707900  1
  K  K4  1  0.54176600  0.72730800  0.40707900  1
  K  K5  1  0.01907400  0.77269200  0.90707900  1
  K  K6  1  0.69884500  0.22730800  0.09292100  1
  K  K7  1  0.20823400  0.77269200  0.09292100  1
  V  V0  1  0.87500000  0.25000000  0.25000000  1
  V  V1  1  0.87500000  0.75000000  0.25000000  1
  V  V2  1  0.87500000  0.25000000  0.75000000  1
  V  V3  1  0.37500000  0.75000000  0.75000000  1
  Cu  Cu0  1  0.37500000  0.25000000  0.25000000  1
  Cu  Cu1  1  0.37500000  0.75000000  0.25000000  1
  Cu  Cu2  1  0.37500000  0.25000000  0.75000000  1
  Cu  Cu3  1  0.87500000  0.75000000  0.75000000  1
  Se  Se0  1  0.17824700  0.25368000  0.15143800  1
  Se  Se1  1  0.67031500  0.74632000  0.15143800  1
  Se  Se2  1  0.56807300  0.25368000  0.84856200  1
  Se  Se3  1  0.57175300  0.24632000  0.34856200  1
  Se  Se4  1  0.58336500  0.74632000  0.84856200  1
  Se  Se5  1  0.07968500  0.75368000  0.34856200  1
  Se  Se6  1  0.18192700  0.24632000  0.65143800  1
  Se  Se7  1  0.16663500  0.75368000  0.65143800  1
loop_
_geom_bond_atom_site_label_1
_geom_bond_atom_site_label_2
_geom_bond_distance
_geom_bond_site_symmetry_2
K0 Se6 3.007048 1_555
K0 Se6 3.243495 1_655
K0 Se7 3.769452 1_555
K1 Se7 3.007048 1_655
K1 Se7 3.243495 1_555
K1 Se6 3.769452 1_655
K2 Se3 3.007048 1_555
K2 Se3 3.243495 1_455
K2 Se5 3.769452 1_555
K3 Se2 3.007048 1_555
K3 Se2 3.243495 1_455
K3 Se4 3.769452 1_545
K4 Se5 3.007048 1_555
K4 Se5 3.243495 1_655
K4 Se3 3.769452 1_555
K5 Se4 3.007048 1_455
K5 Se4 3.243495 1_555
K5 Se2 3.769452 1_465
K6 Se0 3.007048 1_555
K6 Se0 3.243495 1_655
K6 Se1 3.769452 1_545
K7 Se1 3.007048 1_555
K7 Se1 3.243495 1_455
K7 Se0 3.769452 1_565
Cu0 Se3 2.374275 1_555
Cu0 Se0 2.374275 1_555
Cu1 Se5 2.374275 1_555
Cu1 Se1 2.374275 1_555
Cu2 Se6 2.374275 1_555
Cu2 Se2 2.374275 1_555
Cu3 Se4 2.374275 1_555
Cu3 Se7 2.374275 1_655
Se0 V0 2.415278 1_455
Se1 V1 2.415278 1_555
Se2 V2 2.415278 1_555
Se3 V0 2.415278 1_555
Se4 V3 2.415278 1_555
Se5 V1 2.415278 1_455
Se6 V2 2.415278 1_455
Se7 V3 2.415278 1_555
