# generated using pymatgen
data_Li3MnCoO5
_symmetry_space_group_name_H-M   'P 1'
_cell_length_a   2.90244500
_cell_length_b   5.12204864
_cell_length_c   12.13402603
_cell_angle_alpha   94.27624027
_cell_angle_beta   95.29094670
_cell_angle_gamma   90.43503185
_symmetry_Int_Tables_number   1
_chemical_formula_structural   Li3MnCoO5
_chemical_formula_sum   'Li6 Mn2 Co2 O10'
_cell_volume   179.10241839
_cell_formula_units_Z   2
loop_
 _symmetry_equiv_pos_site_id
 _symmetry_equiv_pos_as_xyz
  1  'x, y, z'
loop_
 _atom_site_type_symbol
 _atom_site_label
 _atom_site_symmetry_multiplicity
 _atom_site_fract_x
 _atom_site_fract_y
 _atom_site_fract_z
 _atom_site_occupancy
  Li  Li0  1  0.50000000  0.00000000  0.50000000  1
  Li  Li1  1  0.90768500  0.79571100  0.30642300  1
  Li  Li2  1  0.30179700  0.60434700  0.09918200  1
  Li  Li3  1  0.69820300  0.39565300  0.90081800  1
  Li  Li4  1  0.09231500  0.20428900  0.69357700  1
  Li  Li5  1  0.00000000  0.50000000  0.50000000  1
  Mn  Mn0  1  0.59053600  0.68513500  0.69311500  1
  Mn  Mn1  1  0.40946400  0.31486500  0.30688500  1
  Co  Co0  1  0.80740900  0.09976100  0.10100200  1
  Co  Co1  1  0.19259100  0.90023900  0.89899800  1
  O  O0  1  0.05910900  0.83433000  0.61185300  1
  O  O1  1  0.44344500  0.62517600  0.39072800  1
  O  O2  1  0.87156400  0.43232700  0.20976100  1
  O  O3  1  0.23968200  0.23767200  0.00475000  1
  O  O4  1  0.62572700  0.02118200  0.80350100  1
  O  O5  1  0.94089100  0.16567000  0.38814700  1
  O  O6  1  0.37427300  0.97881800  0.19649900  1
  O  O7  1  0.76031800  0.76232800  0.99525000  1
  O  O8  1  0.12843600  0.56767300  0.79023900  1
  O  O9  1  0.55655500  0.37482400  0.60927200  1
loop_
_geom_bond_atom_site_label_1
_geom_bond_atom_site_label_2
_geom_bond_distance
_geom_bond_site_symmetry_2
Li0 O0 2.162232 1_545
Li0 O5 2.162232 1_555
Li0 O5 2.232046 1_455
Li0 O0 2.232046 1_645
Li0 O1 2.246402 1_545
Li0 O9 2.246402 1_555
Li1 O1 1.998646 1_555
Li1 O1 2.021882 1_655
Li1 O5 2.069502 1_565
Li1 O2 2.121275 1_555
Li1 O6 2.209838 1_555
Li1 O6 2.234522 1_655
Li2 O7 2.112265 1_554
Li2 O3 2.123356 1_555
Li2 O7 2.126293 1_454
Li2 O2 2.145832 1_455
Li2 O6 2.174371 1_555
Li2 O2 2.258464 1_555
Li3 O3 2.112265 1_556
Li3 O7 2.123356 1_555
Li3 O3 2.126293 1_656
Li3 O8 2.145832 1_655
Li3 O4 2.174371 1_555
Li3 O8 2.258464 1_555
Li4 O9 1.998646 1_555
Li4 O9 2.021882 1_455
Li4 O0 2.069502 1_545
Li4 O8 2.121275 1_555
Li4 O4 2.209838 1_555
Li4 O4 2.234522 1_455
Li5 O1 2.062682 1_555
Li5 O9 2.062682 1_455
Li5 O0 2.099997 1_555
Li5 O5 2.099997 1_455
Li5 O9 2.127448 1_555
Li5 O1 2.127448 1_455
Mn0 O9 1.819062 1_555
Mn0 O0 1.936433 1_655
Mn0 O0 1.945542 1_555
Mn0 O8 1.983613 1_555
Mn0 O8 1.992223 1_655
Mn0 O4 2.096539 1_565
Mn1 O1 1.819062 1_555
Mn1 O5 1.936433 1_455
Mn1 O5 1.945542 1_555
Mn1 O2 1.983613 1_555
Mn1 O2 1.992223 1_455
Mn1 O6 2.096539 1_545
Co0 O6 1.915934 1_545
Co0 O3 1.953713 1_655
Co0 O6 2.050459 1_645
Co0 O7 2.070215 1_544
Co0 O2 2.071835 1_555
Co0 O3 2.089029 1_555
Co1 O4 1.915934 1_565
Co1 O7 1.953713 1_455
Co1 O4 2.050459 1_465
Co1 O3 2.070215 1_566
Co1 O8 2.071835 1_555
Co1 O7 2.089029 1_555
