# generated using pymatgen
data_Ca2Co2O5
_symmetry_space_group_name_H-M   'P 1'
_cell_length_a   3.74960900
_cell_length_b   5.42783000
_cell_length_c   10.27633300
_cell_angle_alpha   90.00000000
_cell_angle_beta   90.00000000
_cell_angle_gamma   90.00000000
_symmetry_Int_Tables_number   1
_chemical_formula_structural   Ca2Co2O5
_chemical_formula_sum   'Ca4 Co4 O10'
_cell_volume   209.14639778
_cell_formula_units_Z   2
loop_
 _symmetry_equiv_pos_site_id
 _symmetry_equiv_pos_as_xyz
  1  'x, y, z'
loop_
 _atom_site_type_symbol
 _atom_site_label
 _atom_site_symmetry_multiplicity
 _atom_site_fract_x
 _atom_site_fract_y
 _atom_site_fract_z
 _atom_site_occupancy
  Ca  Ca0  1  0.50000000  0.69228300  0.36855900  1
  Ca  Ca1  1  0.50000000  0.30771700  0.63144100  1
  Ca  Ca2  1  0.50000000  0.19228300  0.13144100  1
  Ca  Ca3  1  0.50000000  0.80771700  0.86855900  1
  Co  Co0  1  0.00000000  0.72238400  0.12273500  1
  Co  Co1  1  0.00000000  0.27761600  0.87726500  1
  Co  Co2  1  0.00000000  0.77761600  0.62273500  1
  Co  Co3  1  0.00000000  0.22238400  0.37726500  1
  O  O0  1  0.00000000  0.00000000  0.00000000  1
  O  O1  1  0.00000000  0.57868600  0.78964300  1
  O  O2  1  0.00000000  0.07868600  0.71035700  1
  O  O3  1  0.00000000  0.92131400  0.28964300  1
  O  O4  1  0.50000000  0.78770700  0.60519000  1
  O  O5  1  0.50000000  0.21229300  0.39481000  1
  O  O6  1  0.00000000  0.42131400  0.21035700  1
  O  O7  1  0.50000000  0.71229300  0.10519000  1
  O  O8  1  0.00000000  0.50000000  0.50000000  1
  O  O9  1  0.50000000  0.28770700  0.89481000  1
loop_
_geom_bond_atom_site_label_1
_geom_bond_atom_site_label_2
_geom_bond_distance
_geom_bond_site_symmetry_2
Ca0 O3 2.391226 1_555
Ca0 O3 2.391226 1_655
Ca0 O4 2.486248 1_555
Ca0 O8 2.535475 1_655
Ca0 O8 2.535475 1_555
Ca0 O5 2.619233 1_555
Ca0 O7 2.708646 1_555
Ca0 O5 2.835388 1_565
Ca0 O6 2.884629 1_555
Ca0 O6 2.884629 1_655
Ca1 O2 2.391226 1_555
Ca1 O2 2.391226 1_655
Ca1 O5 2.486248 1_555
Ca1 O8 2.535475 1_655
Ca1 O8 2.535475 1_555
Ca1 O4 2.619233 1_555
Ca1 O9 2.708646 1_555
Ca1 O4 2.835388 1_545
Ca1 O1 2.884629 1_555
Ca1 O1 2.884629 1_655
Ca2 O6 2.391226 1_555
Ca2 O6 2.391226 1_655
Ca2 O9 2.486248 1_554
Ca2 O0 2.535475 1_555
Ca2 O0 2.535475 1_655
Ca2 O7 2.619233 1_545
Ca2 O5 2.708646 1_555
Ca2 O7 2.835388 1_555
Ca2 O3 2.884629 1_545
Ca2 O3 2.884629 1_645
Ca3 O1 2.391226 1_655
Ca3 O1 2.391226 1_555
Ca3 O7 2.486248 1_556
Ca3 O0 2.535475 1_666
Ca3 O0 2.535475 1_566
Ca3 O9 2.619233 1_565
Ca3 O4 2.708646 1_555
Ca3 O9 2.835388 1_555
Ca3 O2 2.884629 1_665
Ca3 O2 2.884629 1_565
Co0 O6 1.865810 1_555
Co0 O7 1.884250 1_455
Co0 O7 1.884250 1_555
Co0 O0 1.965043 1_565
Co0 O3 2.026770 1_555
Co1 O1 1.865810 1_555
Co1 O9 1.884250 1_555
Co1 O9 1.884250 1_455
Co1 O0 1.965043 1_556
Co1 O2 2.026770 1_555
Co2 O2 1.865810 1_565
Co2 O4 1.884250 1_555
Co2 O4 1.884250 1_455
Co2 O8 1.965043 1_555
Co2 O1 2.026770 1_555
Co3 O3 1.865810 1_545
Co3 O5 1.884250 1_455
Co3 O5 1.884250 1_555
Co3 O8 1.965043 1_555
Co3 O6 2.026770 1_555
