# generated using pymatgen
data_SiH6(NF3)2
_symmetry_space_group_name_H-M   'P 1'
_cell_length_a   7.64570500
_cell_length_b   7.67579300
_cell_length_c   8.63373400
_cell_angle_alpha   90.00000000
_cell_angle_beta   90.00000000
_cell_angle_gamma   90.00000000
_symmetry_Int_Tables_number   1
_chemical_formula_structural   SiH6(NF3)2
_chemical_formula_sum   'Si4 H24 N8 F24'
_cell_volume   506.68664287
_cell_formula_units_Z   4
loop_
 _symmetry_equiv_pos_site_id
 _symmetry_equiv_pos_as_xyz
  1  'x, y, z'
loop_
 _atom_site_type_symbol
 _atom_site_label
 _atom_site_symmetry_multiplicity
 _atom_site_fract_x
 _atom_site_fract_y
 _atom_site_fract_z
 _atom_site_occupancy
  Si  Si0  1  0.50000000  0.00000000  0.50000000  1
  Si  Si1  1  0.00000000  0.50000000  0.50000000  1
  Si  Si2  1  0.00000000  0.00000000  0.00000000  1
  Si  Si3  1  0.50000000  0.50000000  0.00000000  1
  H  H0  1  0.86039800  0.06044900  0.39818300  1
  H  H1  1  0.63960200  0.56044900  0.60181700  1
  H  H2  1  0.36039800  0.93955100  0.10181700  1
  H  H3  1  0.13960200  0.43955100  0.89818300  1
  H  H4  1  0.13960200  0.93955100  0.60181700  1
  H  H5  1  0.36039800  0.43955100  0.39818300  1
  H  H6  1  0.63960200  0.06044900  0.89818300  1
  H  H7  1  0.86039800  0.56044900  0.10181700  1
  H  H8  1  0.00290600  0.88891000  0.36537700  1
  H  H9  1  0.49709400  0.38891000  0.63462300  1
  H  H10  1  0.50290600  0.11109000  0.13462300  1
  H  H11  1  0.99709400  0.61109000  0.86537700  1
  H  H12  1  0.99709400  0.11109000  0.63462300  1
  H  H13  1  0.50290600  0.61109000  0.36537700  1
  H  H14  1  0.49709400  0.88891000  0.86537700  1
  H  H15  1  0.00290600  0.38891000  0.13462300  1
  H  H16  1  0.08109800  0.09685500  0.37553100  1
  H  H17  1  0.41890200  0.59685500  0.62446900  1
  H  H18  1  0.58109800  0.90314500  0.12446900  1
  H  H19  1  0.91890200  0.40314500  0.87553100  1
  H  H20  1  0.91890200  0.90314500  0.62446900  1
  H  H21  1  0.58109800  0.40314500  0.37553100  1
  H  H22  1  0.41890200  0.09685500  0.87553100  1
  H  H23  1  0.08109800  0.59685500  0.12446900  1
  N  N0  1  0.98663000  0.01106800  0.41756800  1
  N  N1  1  0.51337000  0.51106800  0.58243200  1
  N  N2  1  0.48663000  0.98893200  0.08243200  1
  N  N3  1  0.01337000  0.48893200  0.91756800  1
  N  N4  1  0.01337000  0.98893200  0.58243200  1
  N  N5  1  0.48663000  0.48893200  0.41756800  1
  N  N6  1  0.51337000  0.01106800  0.91756800  1
  N  N7  1  0.98663000  0.51106800  0.08243200  1
  F  F0  1  0.64735600  0.13328600  0.40530800  1
  F  F1  1  0.85264400  0.63328600  0.59469200  1
  F  F2  1  0.14735600  0.86671400  0.09469200  1
  F  F3  1  0.35264400  0.36671400  0.90530800  1
  F  F4  1  0.35264400  0.86671400  0.59469200  1
  F  F5  1  0.14735600  0.36671400  0.40530800  1
  F  F6  1  0.85264400  0.13328600  0.90530800  1
  F  F7  1  0.64735600  0.63328600  0.09469200  1
  F  F8  1  0.44142900  0.16959600  0.62118500  1
  F  F9  1  0.05857100  0.66959600  0.37881500  1
  F  F10  1  0.94142900  0.83040400  0.87881500  1
  F  F11  1  0.55857100  0.33040400  0.12118500  1
  F  F12  1  0.55857100  0.83040400  0.37881500  1
  F  F13  1  0.94142900  0.33040400  0.62118500  1
  F  F14  1  0.05857100  0.16959600  0.12118500  1
  F  F15  1  0.44142900  0.66959600  0.87881500  1
  F  F16  1  0.65805900  0.94044200  0.62807400  1
  F  F17  1  0.84194100  0.44044200  0.37192600  1
  F  F18  1  0.15805900  0.05955800  0.87192600  1
  F  F19  1  0.34194100  0.55955800  0.12807400  1
  F  F20  1  0.34194100  0.05955800  0.37192600  1
  F  F21  1  0.15805900  0.55955800  0.62807400  1
  F  F22  1  0.84194100  0.94044200  0.12807400  1
  F  F23  1  0.65805900  0.44044200  0.87192600  1
loop_
_geom_bond_atom_site_label_1
_geom_bond_atom_site_label_2
_geom_bond_distance
_geom_bond_site_symmetry_2
H0 N0 1.050315 1_555
H1 N1 1.050315 1_555
H2 N2 1.050315 1_555
H3 N3 1.050315 1_555
H4 N4 1.050315 1_555
H5 N5 1.050315 1_555
H6 N6 1.050315 1_555
H7 N7 1.050315 1_555
H8 N0 1.047728 1_465
H9 N1 1.047728 1_555
H10 N2 1.047728 1_545
H11 N3 1.047728 1_655
H12 N4 1.047728 1_645
H13 N5 1.047728 1_555
H14 N6 1.047728 1_565
H15 N7 1.047728 1_455
H16 N0 1.042595 1_455
H17 N1 1.042595 1_555
H18 N2 1.042595 1_555
H19 N3 1.042595 1_655
H20 N4 1.042595 1_655
H21 N5 1.042595 1_555
H22 N6 1.042595 1_555
H23 N7 1.042595 1_455
F0 Si0 1.727537 1_555
F1 Si1 1.727537 1_655
F2 Si2 1.727537 1_565
F3 Si3 1.727537 1_556
F4 Si0 1.727537 1_565
F5 Si1 1.727537 1_555
F6 Si2 1.727537 1_656
F7 Si3 1.727537 1_555
F8 Si0 1.729127 1_555
F9 Si1 1.729127 1_555
F10 Si2 1.729127 1_666
F11 Si3 1.729127 1_555
F12 Si0 1.729127 1_565
F13 Si1 1.729127 1_655
F14 Si2 1.729127 1_555
F15 Si3 1.729127 1_556
F16 Si0 1.700616 1_565
F17 Si1 1.700616 1_655
F18 Si2 1.700616 1_556
F19 Si3 1.700616 1_555
F20 Si0 1.700616 1_555
F21 Si1 1.700616 1_555
F22 Si2 1.700616 1_665
F23 Si3 1.700616 1_556
