# generated using pymatgen
data_Nb3VSe6
_symmetry_space_group_name_H-M   'P 1'
_cell_length_a   6.07608963
_cell_length_b   6.07608894
_cell_length_c   12.81984776
_cell_angle_alpha   90.00005352
_cell_angle_beta   90.00001287
_cell_angle_gamma   120.00016602
_symmetry_Int_Tables_number   1
_chemical_formula_structural   Nb3VSe6
_chemical_formula_sum   'Nb6 V2 Se12'
_cell_volume   409.88409577
_cell_formula_units_Z   2
loop_
 _symmetry_equiv_pos_site_id
 _symmetry_equiv_pos_as_xyz
  1  'x, y, z'
loop_
 _atom_site_type_symbol
 _atom_site_label
 _atom_site_symmetry_multiplicity
 _atom_site_fract_x
 _atom_site_fract_y
 _atom_site_fract_z
 _atom_site_occupancy
  Nb  Nb0  1  0.00000019  -0.00000011  0.49998705  1
  Nb  Nb1  1  -0.00000143  -0.00000130  0.00001271  1
  Nb  Nb2  1  0.33333188  0.66666558  -0.00006423  1
  Nb  Nb3  1  0.66666539  0.33333205  0.00009178  1
  Nb  Nb4  1  0.66666665  0.33333278  0.49990725  1
  Nb  Nb5  1  0.33333298  0.66666634  0.50006458  1
  V  V0  1  0.33333265  0.66666598  0.25000040  1
  V  V1  1  0.66666591  0.33333256  0.74999927  1
  Se  Se0  1  0.33289205  0.33082846  0.37040414  1
  Se  Se1  1  0.66917137  0.00206209  0.37040445  1
  Se  Se2  1  0.99793641  0.66710790  0.37040400  1
  Se  Se3  1  0.33081631  0.33288371  0.62960272  1
  Se  Se4  1  0.00206711  0.66918383  0.62960252  1
  Se  Se5  1  0.66711654  0.99793203  0.62960291  1
  Se  Se6  1  0.66711460  0.66916895  0.87039757  1
  Se  Se7  1  0.33082829  0.99794452  0.87039777  1
  Se  Se8  1  0.00205321  0.33288251  0.87039742  1
  Se  Se9  1  0.66917092  0.66710644  0.12959561  1
  Se  Se10  1  0.99794831  0.33084090  0.12959619  1
  Se  Se11  1  0.33289066  0.00206379  0.12959588  1
loop_
_geom_bond_atom_site_label_1
_geom_bond_atom_site_label_2
_geom_bond_distance
_geom_bond_site_symmetry_2
Nb0 Se1 2.612606 1_455
Nb0 Se0 2.612608 1_555
Nb0 Se2 2.612610 1_445
Nb0 Se3 2.612824 1_555
Nb0 Se4 2.612827 1_545
Nb0 Se5 2.612830 1_445
Nb1 Se9 2.612607 1_445
Nb1 Se11 2.612609 1_555
Nb1 Se10 2.612647 1_455
Nb1 Se6 2.612852 1_444
Nb1 Se7 2.612856 1_544
Nb1 Se8 2.612858 1_554
Nb2 Se8 2.615399 1_554
Nb2 Se7 2.615402 1_554
Nb2 Se6 2.615404 1_554
Nb2 Se10 2.630811 1_455
Nb2 Se9 2.630877 1_555
Nb2 Se11 2.630879 1_565
Nb3 Se9 2.615079 1_555
Nb3 Se11 2.615079 1_555
Nb3 Se10 2.615117 1_555
Nb3 Se7 2.631119 1_544
Nb3 Se6 2.631127 1_554
Nb3 Se8 2.631129 1_654
Nb4 Se2 2.615077 1_555
Nb4 Se1 2.615077 1_555
Nb4 Se0 2.615078 1_555
Nb4 Se4 2.631192 1_655
Nb4 Se3 2.631200 1_555
Nb4 Se5 2.631202 1_545
Nb5 Se5 2.615370 1_555
Nb5 Se4 2.615372 1_555
Nb5 Se3 2.615373 1_555
Nb5 Se1 2.630870 1_565
Nb5 Se0 2.630875 1_555
Nb5 Se2 2.630877 1_455
Se0 V0 2.557554 1_555
Se1 V0 2.557551 1_545
Se2 V0 2.557552 1_655
Se3 V1 2.557536 1_555
Se4 V1 2.557540 1_455
Se5 V1 2.557536 1_565
Se6 V1 2.557484 1_555
Se7 V1 2.557488 1_565
Se8 V1 2.557486 1_455
Se9 V0 2.557565 1_555
Se10 V0 2.557490 1_655
Se11 V0 2.557568 1_545
