# generated using pymatgen
data_Sr3Ca5Fe4(CoO6)4
_symmetry_space_group_name_H-M   'P 1'
_cell_length_a   7.68342682
_cell_length_b   7.68342682
_cell_length_c   7.66639317
_cell_angle_alpha   89.99136248
_cell_angle_beta   89.99136248
_cell_angle_gamma   89.96823582
_symmetry_Int_Tables_number   1
_chemical_formula_structural   Sr3Ca5Fe4(CoO6)4
_chemical_formula_sum   'Sr3 Ca5 Fe4 Co4 O24'
_cell_volume   452.58580714
_cell_formula_units_Z   1
loop_
 _symmetry_equiv_pos_site_id
 _symmetry_equiv_pos_as_xyz
  1  'x, y, z'
loop_
 _atom_site_type_symbol
 _atom_site_label
 _atom_site_symmetry_multiplicity
 _atom_site_fract_x
 _atom_site_fract_y
 _atom_site_fract_z
 _atom_site_occupancy
  Sr  Sr0  1  0.25028600  0.74972600  0.74895800  1
  Sr  Sr1  1  0.25027700  0.25027700  0.74892200  1
  Sr  Sr2  1  0.74972600  0.25028600  0.74895800  1
  Ca  Ca0  1  0.24967000  0.75029800  0.25059800  1
  Ca  Ca1  1  0.24966400  0.24966400  0.25055500  1
  Ca  Ca2  1  0.75038500  0.75038500  0.74928000  1
  Ca  Ca3  1  0.75034200  0.75034200  0.25060700  1
  Ca  Ca4  1  0.75029800  0.24967000  0.25059800  1
  Fe  Fe0  1  0.99937600  0.99937600  0.00175600  1
  Fe  Fe1  1  0.99926400  0.50050800  0.00175300  1
  Fe  Fe2  1  0.99935800  0.99935800  0.49852300  1
  Fe  Fe3  1  0.50050800  0.99926400  0.00175300  1
  Co  Co0  1  0.99920600  0.50067600  0.49798000  1
  Co  Co1  1  0.50054400  0.50054400  0.00270200  1
  Co  Co2  1  0.50067600  0.99920600  0.49798000  1
  Co  Co3  1  0.50077500  0.50077500  0.49824900  1
  O  O0  1  0.24913000  0.99941800  0.00547100  1
  O  O1  1  0.25639900  0.50064900  0.00635400  1
  O  O2  1  0.25195500  0.99935200  0.49383800  1
  O  O3  1  0.23906900  0.50058600  0.49454300  1
  O  O4  1  0.75081100  0.99754700  0.00366300  1
  O  O5  1  0.74344000  0.50240100  0.00405200  1
  O  O6  1  0.74797800  0.99752200  0.49616300  1
  O  O7  1  0.76059000  0.50256900  0.49630700  1
  O  O8  1  0.99751500  0.99751500  0.75217700  1
  O  O9  1  0.99738200  0.50292300  0.74753400  1
  O  O10  1  0.99931400  0.99931400  0.24802600  1
  O  O11  1  0.99923500  0.50051000  0.25282000  1
  O  O12  1  0.50292300  0.99738200  0.74753400  1
  O  O13  1  0.50297700  0.50297700  0.74048600  1
  O  O14  1  0.50051000  0.99923500  0.25282000  1
  O  O15  1  0.50037400  0.50037400  0.25865000  1
  O  O16  1  0.99754700  0.75081100  0.00366300  1
  O  O17  1  0.99941800  0.24913000  0.00547100  1
  O  O18  1  0.99752200  0.74797800  0.49616300  1
  O  O19  1  0.99935200  0.25195500  0.49383800  1
  O  O20  1  0.50240100  0.74344000  0.00405200  1
  O  O21  1  0.50064900  0.25639900  0.00635400  1
  O  O22  1  0.50256900  0.76059000  0.49630700  1
  O  O23  1  0.50058600  0.23906900  0.49454300  1
loop_
_geom_bond_atom_site_label_1
_geom_bond_atom_site_label_2
_geom_bond_distance
_geom_bond_site_symmetry_2
Ca0 O2 2.672196 1_555
Ca0 O3 2.680381 1_555
Ca0 O1 2.681250 1_555
Ca0 O0 2.682206 1_555
Ca0 O18 2.701257 1_455
Ca0 O22 2.707704 1_555
Ca0 O16 2.708794 1_455
Ca0 O20 2.710144 1_555
Ca0 O10 2.712419 1_455
Ca0 O14 2.716119 1_555
Ca0 O11 2.718518 1_455
Ca0 O15 2.719863 1_555
Ca1 O2 2.678939 1_545
Ca1 O19 2.678939 1_455
Ca1 O23 2.687610 1_555
Ca1 O3 2.687610 1_555
Ca1 O1 2.688011 1_555
Ca1 O21 2.688011 1_555
Ca1 O0 2.688564 1_545
Ca1 O17 2.688564 1_455
Ca1 O10 2.721132 1_445
Ca1 O14 2.722730 1_545
Ca1 O11 2.722730 1_455
Ca1 O15 2.725691 1_555
Ca2 O12 2.685687 1_555
Ca2 O9 2.685687 1_555
Ca2 O8 2.686157 1_555
Ca2 O13 2.689941 1_555
Ca2 O6 2.714846 1_555
Ca2 O18 2.714846 1_555
Ca2 O22 2.719153 1_555
Ca2 O7 2.719153 1_555
Ca2 O4 2.722281 1_556
Ca2 O16 2.722281 1_556
Ca2 O20 2.728947 1_556
Ca2 O5 2.728947 1_556
Ca3 O6 2.674359 1_555
Ca3 O18 2.674359 1_555
Ca3 O7 2.679052 1_555
Ca3 O22 2.679052 1_555
Ca3 O4 2.681544 1_555
Ca3 O16 2.681544 1_555
Ca3 O5 2.684402 1_555
Ca3 O20 2.684402 1_555
Ca3 O10 2.706149 1_555
Ca3 O14 2.708881 1_555
Ca3 O11 2.708881 1_555
Ca3 O15 2.717593 1_555
Ca4 O19 2.672196 1_555
Ca4 O23 2.680381 1_555
Ca4 O21 2.681250 1_555
Ca4 O17 2.682206 1_555
Ca4 O6 2.701257 1_545
Ca4 O7 2.707704 1_555
Ca4 O4 2.708794 1_545
Ca4 O5 2.710144 1_555
Ca4 O10 2.712419 1_545
Ca4 O11 2.716119 1_555
Ca4 O14 2.718518 1_545
Ca4 O15 2.719863 1_555
Fe0 O10 1.888003 1_555
Fe0 O4 1.909944 1_555
Fe0 O16 1.909944 1_555
Fe0 O8 1.913482 1_554
Fe0 O0 1.919182 1_655
Fe0 O17 1.919182 1_565
Fe1 O16 1.923281 1_555
Fe1 O11 1.924778 1_555
Fe1 O17 1.931650 1_555
Fe1 O9 1.949084 1_554
Fe1 O5 1.965727 1_555
Fe1 O1 1.975999 1_655
Fe2 O10 1.920409 1_555
Fe2 O18 1.931607 1_555
Fe2 O6 1.931607 1_555
Fe2 O2 1.941137 1_655
Fe2 O19 1.941137 1_565
Fe2 O8 1.944710 1_555
Fe3 O4 1.923281 1_555
Fe3 O14 1.924778 1_555
Fe3 O0 1.931650 1_555
Fe3 O12 1.949084 1_554
Fe3 O20 1.965727 1_555
Fe3 O21 1.975999 1_565
Co0 O7 1.833485 1_555
Co0 O3 1.843154 1_655
Co0 O11 1.879494 1_555
Co0 O18 1.900213 1_555
Co0 O19 1.911298 1_555
Co0 O9 1.913309 1_555
Co1 O5 1.866366 1_555
Co1 O20 1.866366 1_555
Co1 O1 1.876075 1_555
Co1 O21 1.876075 1_555
Co1 O15 1.962198 1_555
Co1 O13 2.010419 1_554
Co2 O22 1.833485 1_555
Co2 O23 1.843154 1_565
Co2 O14 1.879494 1_555
Co2 O6 1.900213 1_555
Co2 O2 1.911298 1_555
Co2 O12 1.913309 1_555
Co3 O15 1.836866 1_555
Co3 O13 1.857243 1_555
Co3 O7 1.996378 1_555
Co3 O22 1.996378 1_555
Co3 O3 2.011005 1_555
Co3 O23 2.011005 1_555
O0 Sr0 2.747551 1_554
O0 Sr1 2.753609 1_564
O1 Sr0 2.749073 1_554
O1 Sr1 2.756658 1_554
O2 Sr0 2.739172 1_555
O2 Sr1 2.746376 1_565
O3 Sr0 2.734479 1_555
O3 Sr1 2.740097 1_555
O4 Sr2 2.753690 1_564
O5 Sr2 2.753234 1_554
O6 Sr2 2.743907 1_565
O7 Sr2 2.741354 1_555
O8 Sr0 2.719037 1_655
O8 Sr2 2.719037 1_565
O8 Sr1 2.747383 1_665
O9 Sr0 2.715889 1_655
O9 Sr2 2.719001 1_555
O9 Sr1 2.745865 1_655
O12 Sr2 2.715889 1_565
O12 Sr0 2.719001 1_555
O12 Sr1 2.745865 1_565
O13 Sr2 2.713676 1_555
O13 Sr0 2.713676 1_555
O13 Sr1 2.747348 1_555
O16 Sr0 2.753690 1_654
O17 Sr2 2.747551 1_554
O17 Sr1 2.753609 1_654
O18 Sr0 2.743907 1_655
O19 Sr2 2.739172 1_555
O19 Sr1 2.746376 1_655
O20 Sr0 2.753234 1_554
O21 Sr2 2.749073 1_554
O21 Sr1 2.756658 1_554
O22 Sr0 2.741354 1_555
O23 Sr2 2.734479 1_555
O23 Sr1 2.740097 1_555
