# generated using pymatgen
data_Y3In
_symmetry_space_group_name_H-M   'P 1'
_cell_length_a   6.90653917
_cell_length_b   6.90653719
_cell_length_c   5.65790551
_cell_angle_alpha   90.00000000
_cell_angle_beta   90.00000000
_cell_angle_gamma   120.00000928
_symmetry_Int_Tables_number   1
_chemical_formula_structural   Y3In
_chemical_formula_sum   'Y6 In2'
_cell_volume   233.72604765
_cell_formula_units_Z   2
loop_
 _symmetry_equiv_pos_site_id
 _symmetry_equiv_pos_as_xyz
  1  'x, y, z'
loop_
 _atom_site_type_symbol
 _atom_site_label
 _atom_site_symmetry_multiplicity
 _atom_site_fract_x
 _atom_site_fract_y
 _atom_site_fract_z
 _atom_site_occupancy
  Y  Y0  1  0.17128265  0.34256529  0.25000000  1
  Y  Y1  1  0.65743471  0.82871735  0.25000000  1
  Y  Y2  1  0.17128365  0.82871635  0.25000000  1
  Y  Y3  1  0.82871735  0.65743471  0.75000000  1
  Y  Y4  1  0.34256529  0.17128265  0.75000000  1
  Y  Y5  1  0.82871635  0.17128365  0.75000000  1
  In  In0  1  0.33333300  0.66666700  0.75000000  1
  In  In1  1  0.66666700  0.33333300  0.25000000  1
loop_
_geom_bond_atom_site_label_1
_geom_bond_atom_site_label_2
_geom_bond_distance
_geom_bond_site_symmetry_2
Y0 Y2 3.357617 1_555
Y0 Y1 3.357627 1_555
Y0 Y4 3.493026 1_554
Y0 Y4 3.493026 1_555
Y0 Y5 3.493029 1_454
Y0 Y5 3.493029 1_455
Y0 Y1 3.548910 1_445
Y0 Y2 3.548920 1_545
Y1 Y2 3.357618 1_555
Y1 Y3 3.493026 1_555
Y1 Y3 3.493026 1_554
Y1 Y5 3.493029 1_565
Y1 Y5 3.493029 1_564
Y1 Y2 3.548921 1_655
Y2 Y4 3.493029 1_565
Y2 Y4 3.493029 1_564
Y2 Y3 3.493029 1_455
Y2 Y3 3.493029 1_454
Y3 Y5 3.357617 1_555
Y3 Y4 3.357627 1_555
Y3 Y4 3.548910 1_665
Y3 Y5 3.548920 1_565
Y4 Y5 3.357618 1_555
Y4 Y5 3.548921 1_455
In0 Y2 3.429402 1_556
In0 Y2 3.429402 1_555
In0 Y0 3.429412 1_556
In0 Y0 3.429412 1_555
In0 Y1 3.429412 1_556
In0 Y1 3.429412 1_555
In0 Y4 3.453707 1_565
In0 Y3 3.453708 1_455
In0 Y5 3.453710 1_565
In0 Y5 3.453710 1_455
In0 Y4 3.453714 1_555
In0 Y3 3.453714 1_555
In1 Y5 3.429402 1_554
In1 Y5 3.429402 1_555
In1 Y3 3.429412 1_554
In1 Y3 3.429412 1_555
In1 Y4 3.429412 1_555
In1 Y4 3.429412 1_554
In1 Y1 3.453707 1_545
In1 Y0 3.453708 1_655
In1 Y2 3.453710 1_545
In1 Y2 3.453710 1_655
In1 Y1 3.453714 1_555
In1 Y0 3.453714 1_555
