# generated using pymatgen
data_Rb4Mo5H4Se2O23
_symmetry_space_group_name_H-M   'P 1'
_cell_length_a   10.47420400
_cell_length_b   11.38321622
_cell_length_c   12.41082850
_cell_angle_alpha   104.98756488
_cell_angle_beta   90.00000000
_cell_angle_gamma   117.39177034
_symmetry_Int_Tables_number   1
_chemical_formula_structural   Rb4Mo5H4Se2O23
_chemical_formula_sum   'Rb8 Mo10 H8 Se4 O46'
_cell_volume   1256.87277598
_cell_formula_units_Z   2
loop_
 _symmetry_equiv_pos_site_id
 _symmetry_equiv_pos_as_xyz
  1  'x, y, z'
loop_
 _atom_site_type_symbol
 _atom_site_label
 _atom_site_symmetry_multiplicity
 _atom_site_fract_x
 _atom_site_fract_y
 _atom_site_fract_z
 _atom_site_occupancy
  Rb  Rb0  1  0.16710400  0.37375000  0.90684400  1
  Rb  Rb1  1  0.79335500  0.62625000  0.09315600  1
  Rb  Rb2  1  0.76527700  0.65599600  0.72873100  1
  Rb  Rb3  1  0.10928100  0.34400400  0.27126900  1
  Rb  Rb4  1  0.34712400  0.64170200  0.59320900  1
  Rb  Rb5  1  0.70542200  0.35829800  0.40679100  1
  Rb  Rb6  1  0.75301200  0.02393500  0.74661100  1
  Rb  Rb7  1  0.72907800  0.97606500  0.25338900  1
  Mo  Mo0  1  0.39950900  0.00000000  0.50000000  1
  Mo  Mo1  1  0.35161700  0.28878600  0.59923000  1
  Mo  Mo2  1  0.06283100  0.71121400  0.40077000  1
  Mo  Mo3  1  0.99401500  0.19410100  0.53627800  1
  Mo  Mo4  1  0.79991400  0.80589900  0.46372200  1
  Mo  Mo5  1  0.51489400  0.80494300  0.94523000  1
  Mo  Mo6  1  0.70995200  0.19505700  0.05477000  1
  Mo  Mo7  1  0.10655800  0.00000000  0.00000000  1
  Mo  Mo8  1  0.43997900  0.28374800  0.11849900  1
  Mo  Mo9  1  0.15623100  0.71625200  0.88150100  1
  H  H0  1  0.86668400  0.39393200  0.65748000  1
  H  H1  1  0.47275200  0.60606800  0.34252000  1
  H  H2  1  0.72848500  0.38282500  0.71153900  1
  H  H3  1  0.34565900  0.61717500  0.28846100  1
  H  H4  1  0.13085400  0.58358600  0.16819700  1
  H  H5  1  0.54726900  0.41641400  0.83180300  1
  H  H6  1  0.28233700  0.64687100  0.12716300  1
  H  H7  1  0.63546500  0.35312900  0.87283700  1
  Se  Se0  1  0.11448500  0.98499700  0.66823800  1
  Se  Se1  1  0.12948900  0.01500300  0.33176200  1
  Se  Se2  1  0.36528800  0.96146900  0.16117800  1
  Se  Se3  1  0.40381900  0.03853100  0.83882200  1
  O  O0  1  0.53556800  0.06713200  0.41773400  1
  O  O1  1  0.46843600  0.93286800  0.58226600  1
  O  O2  1  0.42216300  0.16166900  0.61861300  1
  O  O3  1  0.26049400  0.83833100  0.38138700  1
  O  O4  1  0.49424000  0.40263500  0.54438400  1
  O  O5  1  0.09160500  0.59736500  0.45561600  1
  O  O6  1  0.19987400  0.32530500  0.54628700  1
  O  O7  1  0.87456900  0.67469500  0.45371300  1
  O  O8  1  0.41307000  0.39618200  0.06049500  1
  O  O9  1  0.01688800  0.60381800  0.93950500  1
  O  O10  1  0.65597600  0.00000000  0.00000000  1
  O  O11  1  0.11750500  0.62996400  0.73780900  1
  O  O12  1  0.48754100  0.37003600  0.26219100  1
  O  O13  1  0.56246500  0.76882000  0.80863500  1
  O  O14  1  0.79364400  0.23118000  0.19136500  1
  O  O15  1  0.21777200  0.88425300  0.05505700  1
  O  O16  1  0.33351900  0.11574700  0.94494300  1
  O  O17  1  0.48659700  0.11153700  0.12680700  1
  O  O18  1  0.37506000  0.88846300  0.87319300  1
  O  O19  1  0.17496900  0.89027300  0.56767900  1
  O  O20  1  0.28469600  0.10972700  0.43232100  1
  O  O21  1  0.13545500  0.12078500  0.61439600  1
  O  O22  1  0.01466900  0.87921500  0.38560400  1
  O  O23  1  0.93123200  0.88799100  0.64311500  1
  O  O24  1  0.04324100  0.11200900  0.35688500  1
  O  O25  1  0.44510400  0.85920900  0.12357100  1
  O  O26  1  0.58589500  0.14079100  0.87642900  1
  O  O27  1  0.38402000  0.37892500  0.74331800  1
  O  O28  1  0.00509500  0.62107500  0.25668200  1
  O  O29  1  0.91643900  0.25758600  0.45721800  1
  O  O30  1  0.65885300  0.74241400  0.54278200  1
  O  O31  1  0.59146400  0.73189200  0.01382500  1
  O  O32  1  0.85957100  0.26810800  0.98617500  1
  O  O33  1  0.84685300  0.00000000  0.50000000  1
  O  O34  1  0.63791600  0.32864800  0.07871400  1
  O  O35  1  0.30926800  0.67135200  0.92128600  1
  O  O36  1  0.96193200  0.25452300  0.67342900  1
  O  O37  1  0.70740900  0.74547700  0.32657100  1
  O  O38  1  0.04484400  0.08251100  0.92857100  1
  O  O39  1  0.96233300  0.91748900  0.07142900  1
  O  O40  1  0.23676100  0.15278200  0.12946500  1
  O  O41  1  0.08397900  0.84721800  0.87053500  1
  O  O42  1  0.21323000  0.56568600  0.14826000  1
  O  O43  1  0.64754400  0.43431400  0.85174000  1
  O  O44  1  0.77692800  0.39752400  0.64457400  1
  O  O45  1  0.37940400  0.60247600  0.35542600  1
loop_
_geom_bond_atom_site_label_1
_geom_bond_atom_site_label_2
_geom_bond_distance
_geom_bond_site_symmetry_2
Mo0 O0 1.748941 1_555
Mo0 O1 1.748941 1_545
Mo0 O2 1.951177 1_555
Mo0 O3 1.951177 1_545
Mo0 O20 2.374148 1_555
Mo0 O19 2.374148 1_545
Mo1 O4 1.746240 1_555
Mo1 O27 1.759656 1_555
Mo1 O2 1.965079 1_555
Mo1 O6 1.969753 1_555
Mo1 O21 2.240754 1_555
Mo1 O20 2.332047 1_555
Mo2 O5 1.746240 1_555
Mo2 O28 1.759656 1_555
Mo2 O3 1.965079 1_555
Mo2 O7 1.969753 1_455
Mo2 O22 2.240761 1_555
Mo2 O19 2.332047 1_555
Mo3 O29 1.747079 1_555
Mo3 O36 1.757975 1_555
Mo3 O33 1.952490 1_555
Mo3 O6 1.958606 1_655
Mo3 O21 2.321071 1_655
Mo3 O24 2.337363 1_655
Mo4 O30 1.747079 1_555
Mo4 O37 1.757975 1_555
Mo4 O33 1.952490 1_565
Mo4 O7 1.958606 1_555
Mo4 O22 2.321063 1_655
Mo4 O23 2.337363 1_555
Mo5 O31 1.743347 1_556
Mo5 O13 1.766134 1_555
Mo5 O10 1.943210 1_566
Mo5 O35 1.947339 1_555
Mo5 O25 2.350154 1_556
Mo5 O18 2.359936 1_555
Mo6 O32 1.743333 1_554
Mo6 O14 1.766126 1_555
Mo6 O10 1.943208 1_555
Mo6 O34 1.947347 1_555
Mo6 O26 2.350159 1_554
Mo6 O17 2.359944 1_555
Mo7 O39 1.753620 1_445
Mo7 O38 1.753620 1_554
Mo7 O40 1.959208 1_555
Mo7 O41 1.959208 1_544
Mo7 O15 2.331897 1_545
Mo7 O16 2.331897 1_554
Mo8 O12 1.742703 1_555
Mo8 O8 1.744754 1_555
Mo8 O40 1.989180 1_555
Mo8 O34 1.989681 1_555
Mo8 O17 2.253262 1_555
Mo8 O16 2.333992 1_554
Mo9 O11 1.742703 1_555
Mo9 O9 1.744754 1_555
Mo9 O41 1.989180 1_555
Mo9 O35 1.989681 1_555
Mo9 O18 2.253262 1_555
Mo9 O15 2.333992 1_556
H0 O44 0.974636 1_555
H1 O45 0.974636 1_555
H2 O44 0.984871 1_555
H2 Rb2 2.901315 1_555
H3 O45 0.984875 1_555
H3 Rb3 2.901312 1_555
H4 O42 0.991412 1_555
H5 O43 0.991402 1_555
H6 O42 0.977846 1_555
H7 O43 0.977843 1_555
O0 Rb5 2.995990 1_555
O0 Rb7 3.191038 1_545
O1 Rb4 2.995990 1_555
O1 Rb6 3.191030 1_565
O4 Rb5 2.940240 1_555
O4 Rb2 3.265740 1_555
O5 Rb4 2.940240 1_555
O5 Rb3 3.265740 1_555
O6 Rb4 3.081144 1_555
O7 Rb5 3.081144 1_555
O8 Rb0 3.079245 1_554
O9 Rb1 3.079237 1_456
O10 Rb6 3.344423 1_554
O10 Rb7 3.344426 1_545
O11 Rb4 2.975094 1_555
O12 Rb5 2.975094 1_555
O13 Rb6 2.971929 1_565
O13 Rb2 2.999517 1_555
O13 Rb4 3.053739 1_555
O14 Rb7 2.971934 1_545
O14 Rb3 2.999527 1_655
O14 Rb5 3.053734 1_555
O15 Se2 1.745328 1_555
O16 Se3 1.745328 1_555
O17 Se2 1.759049 1_545
O18 Se3 1.759049 1_565
O19 Se0 1.747596 1_555
O20 Se1 1.747590 1_555
O21 Se0 1.762327 1_545
O22 Se1 1.762333 1_565
O23 Se0 1.694827 1_655
O23 Rb2 2.890002 1_555
O23 Rb6 3.026405 1_565
O24 Se1 1.694836 1_555
O24 Rb3 2.890002 1_555
O24 Rb7 3.026396 1_445
O25 Se2 1.698881 1_555
O25 Rb7 2.909162 1_555
O26 Se3 1.698881 1_555
O26 Rb6 2.909154 1_555
O27 Rb0 3.036953 1_555
O28 Rb1 3.036945 1_455
O29 Rb5 3.048562 1_555
O29 Rb3 3.117579 1_655
O29 Rb7 3.246609 1_545
O30 Rb4 3.048562 1_555
O30 Rb2 3.117579 1_555
O30 Rb6 3.246611 1_565
O31 Rb1 3.136795 1_555
O31 Rb7 3.268380 1_555
O32 Rb0 3.136795 1_655
O32 Rb6 3.268380 1_555
O33 Rb7 3.197341 1_545
O33 Rb6 3.197345 1_555
O34 Rb1 2.961428 1_555
O35 Rb0 2.961427 1_555
O36 Rb6 2.907074 1_555
O36 Rb0 3.183534 1_655
O37 Rb7 2.907070 1_555
O37 Rb1 3.183539 1_555
O38 Rb0 3.042919 1_555
O38 Rb6 3.497663 1_455
O39 Rb1 3.042918 1_555
O39 Rb7 3.497655 1_555
O40 Rb3 3.211118 1_555
O41 Rb2 3.211118 1_455
O42 Rb3 3.057509 1_555
O42 Rb0 3.102732 1_554
O43 Rb2 3.057509 1_555
O43 Rb1 3.102733 1_556
O44 Rb5 2.912037 1_555
O44 Rb2 2.916080 1_555
O45 Rb4 2.912037 1_555
O45 Rb3 2.916080 1_555
