# generated using pymatgen
data_NaPbN
_symmetry_space_group_name_H-M   'P 1'
_cell_length_a   11.50006600
_cell_length_b   3.48794200
_cell_length_c   6.27167500
_cell_angle_alpha   90.00000000
_cell_angle_beta   90.00000000
_cell_angle_gamma   90.00000000
_symmetry_Int_Tables_number   1
_chemical_formula_structural   NaPbN
_chemical_formula_sum   'Na4 Pb4 N4'
_cell_volume   251.56668816
_cell_formula_units_Z   4
loop_
 _symmetry_equiv_pos_site_id
 _symmetry_equiv_pos_as_xyz
  1  'x, y, z'
loop_
 _atom_site_type_symbol
 _atom_site_label
 _atom_site_symmetry_multiplicity
 _atom_site_fract_x
 _atom_site_fract_y
 _atom_site_fract_z
 _atom_site_occupancy
  Na  Na0  1  0.60550200  0.25000000  0.99605700  1
  Na  Na1  1  0.10550200  0.25000000  0.50394300  1
  Na  Na2  1  0.39449800  0.75000000  0.00394300  1
  Na  Na3  1  0.89449800  0.75000000  0.49605700  1
  Pb  Pb0  1  0.62364600  0.25000000  0.51844900  1
  Pb  Pb1  1  0.12364600  0.25000000  0.98155100  1
  Pb  Pb2  1  0.37635400  0.75000000  0.48155100  1
  Pb  Pb3  1  0.87635400  0.75000000  0.01844900  1
  N  N0  1  0.96167400  0.25000000  0.21189900  1
  N  N1  1  0.46167400  0.25000000  0.28810100  1
  N  N2  1  0.03832600  0.75000000  0.78810100  1
  N  N3  1  0.53832600  0.75000000  0.71189900  1
loop_
_geom_bond_atom_site_label_1
_geom_bond_atom_site_label_2
_geom_bond_distance
_geom_bond_site_symmetry_2
N0 Pb3 2.340117 1_555
N0 Pb3 2.340117 1_545
N0 Pb1 2.357260 1_654
N0 Na1 2.467914 1_655
N0 Na3 2.610418 1_545
N0 Na3 2.610418 1_555
N1 Pb2 2.340117 1_555
N1 Pb2 2.340117 1_545
N1 Pb0 2.357260 1_555
N1 Na0 2.467914 1_554
N1 Na2 2.610418 1_555
N1 Na2 2.610418 1_545
N2 Pb1 2.340117 1_565
N2 Pb1 2.340117 1_555
N2 Pb3 2.357260 1_456
N2 Na3 2.467914 1_455
N2 Na1 2.610418 1_565
N2 Na1 2.610418 1_555
N3 Pb0 2.340117 1_555
N3 Pb0 2.340117 1_565
N3 Pb2 2.357260 1_555
N3 Na2 2.467914 1_556
N3 Na0 2.610418 1_555
N3 Na0 2.610418 1_565
