# generated using pymatgen
data_Li4Be3As3BrO12
_symmetry_space_group_name_H-M   'P 1'
_cell_length_a   8.41368900
_cell_length_b   8.41368900
_cell_length_c   8.41368900
_cell_angle_alpha   90.00000000
_cell_angle_beta   90.00000000
_cell_angle_gamma   90.00000000
_symmetry_Int_Tables_number   1
_chemical_formula_structural   Li4Be3As3BrO12
_chemical_formula_sum   'Li8 Be6 As6 Br2 O24'
_cell_volume   595.60641228
_cell_formula_units_Z   2
loop_
 _symmetry_equiv_pos_site_id
 _symmetry_equiv_pos_as_xyz
  1  'x, y, z'
loop_
 _atom_site_type_symbol
 _atom_site_label
 _atom_site_symmetry_multiplicity
 _atom_site_fract_x
 _atom_site_fract_y
 _atom_site_fract_z
 _atom_site_occupancy
  Li  Li0  1  0.18043400  0.18043400  0.18043400  1
  Li  Li1  1  0.81956600  0.81956600  0.18043400  1
  Li  Li2  1  0.81956600  0.18043400  0.81956600  1
  Li  Li3  1  0.68043400  0.68043400  0.68043400  1
  Li  Li4  1  0.18043400  0.81956600  0.81956600  1
  Li  Li5  1  0.31956600  0.31956600  0.68043400  1
  Li  Li6  1  0.68043400  0.31956600  0.31956600  1
  Li  Li7  1  0.31956600  0.68043400  0.31956600  1
  Be  Be0  1  0.25000000  0.00000000  0.50000000  1
  Be  Be1  1  0.75000000  0.00000000  0.50000000  1
  Be  Be2  1  0.50000000  0.25000000  0.00000000  1
  Be  Be3  1  0.50000000  0.75000000  0.00000000  1
  Be  Be4  1  0.00000000  0.50000000  0.25000000  1
  Be  Be5  1  0.00000000  0.50000000  0.75000000  1
  As  As0  1  0.25000000  0.50000000  0.00000000  1
  As  As1  1  0.75000000  0.50000000  0.00000000  1
  As  As2  1  0.00000000  0.25000000  0.50000000  1
  As  As3  1  0.00000000  0.75000000  0.50000000  1
  As  As4  1  0.50000000  0.00000000  0.25000000  1
  As  As5  1  0.50000000  0.00000000  0.75000000  1
  Br  Br0  1  0.00000000  0.00000000  0.00000000  1
  Br  Br1  1  0.50000000  0.50000000  0.50000000  1
  O  O0  1  0.14407500  0.13657900  0.40969100  1
  O  O1  1  0.85592500  0.86342100  0.40969100  1
  O  O2  1  0.85592500  0.13657900  0.59030900  1
  O  O3  1  0.40969100  0.14407500  0.13657900  1
  O  O4  1  0.63657900  0.64407500  0.90969100  1
  O  O5  1  0.14407500  0.86342100  0.59030900  1
  O  O6  1  0.40969100  0.85592500  0.86342100  1
  O  O7  1  0.36342100  0.35592500  0.90969100  1
  O  O8  1  0.59030900  0.85592500  0.13657900  1
  O  O9  1  0.63657900  0.35592500  0.09030900  1
  O  O10  1  0.59030900  0.14407500  0.86342100  1
  O  O11  1  0.36342100  0.64407500  0.09030900  1
  O  O12  1  0.13657900  0.40969100  0.14407500  1
  O  O13  1  0.64407500  0.90969100  0.63657900  1
  O  O14  1  0.13657900  0.59030900  0.85592500  1
  O  O15  1  0.35592500  0.09030900  0.63657900  1
  O  O16  1  0.86342100  0.59030900  0.14407500  1
  O  O17  1  0.64407500  0.09030900  0.36342100  1
  O  O18  1  0.86342100  0.40969100  0.85592500  1
  O  O19  1  0.35592500  0.90969100  0.36342100  1
  O  O20  1  0.90969100  0.63657900  0.64407500  1
  O  O21  1  0.90969100  0.36342100  0.35592500  1
  O  O22  1  0.09030900  0.36342100  0.64407500  1
  O  O23  1  0.09030900  0.63657900  0.35592500  1
loop_
_geom_bond_atom_site_label_1
_geom_bond_atom_site_label_2
_geom_bond_distance
_geom_bond_site_symmetry_2
Li0 O0 1.987555 1_555
Li0 O3 1.987555 1_555
Li0 O12 1.987555 1_555
Li1 O8 1.987555 1_555
Li1 O1 1.987555 1_555
Li1 O16 1.987555 1_555
Li2 O2 1.987555 1_555
Li2 O18 1.987555 1_555
Li2 O10 1.987555 1_555
Li3 O20 1.987555 1_555
Li3 O4 1.987555 1_555
Li3 O13 1.987555 1_555
Li4 O14 1.987555 1_555
Li4 O6 1.987555 1_555
Li4 O5 1.987555 1_555
Li5 O15 1.987555 1_555
Li5 O22 1.987555 1_555
Li5 O7 1.987555 1_555
Li6 O9 1.987555 1_555
Li6 O17 1.987555 1_555
Li6 O21 1.987555 1_555
Li7 O23 1.987555 1_555
Li7 O11 1.987555 1_555
Li7 O19 1.987555 1_555
Be0 O15 1.640770 1_555
Be0 O19 1.640770 1_545
Be0 O5 1.640770 1_545
Be0 O0 1.640770 1_555
Be1 O2 1.640770 1_555
Be1 O1 1.640770 1_545
Be1 O17 1.640770 1_555
Be1 O13 1.640770 1_545
Be2 O9 1.640770 1_555
Be2 O7 1.640770 1_554
Be2 O10 1.640770 1_554
Be2 O3 1.640770 1_555
Be3 O8 1.640770 1_555
Be3 O6 1.640770 1_554
Be3 O11 1.640770 1_555
Be3 O4 1.640770 1_554
Be4 O23 1.640770 1_555
Be4 O21 1.640770 1_455
Be4 O16 1.640770 1_455
Be4 O12 1.640770 1_555
Be5 O14 1.640770 1_555
Be5 O18 1.640770 1_455
Be5 O22 1.640770 1_555
Be5 O20 1.640770 1_455
As0 O12 1.719723 1_555
As0 O11 1.719723 1_555
As0 O7 1.719723 1_554
As0 O14 1.719723 1_554
As1 O16 1.719723 1_555
As1 O9 1.719723 1_555
As1 O4 1.719723 1_554
As1 O18 1.719723 1_554
As2 O0 1.719723 1_555
As2 O22 1.719723 1_555
As2 O21 1.719723 1_455
As2 O2 1.719723 1_455
As3 O5 1.719723 1_555
As3 O23 1.719723 1_555
As3 O20 1.719723 1_455
As3 O1 1.719723 1_455
As4 O3 1.719723 1_555
As4 O17 1.719723 1_555
As4 O19 1.719723 1_545
As4 O8 1.719723 1_545
As5 O10 1.719723 1_555
As5 O15 1.719723 1_555
As5 O13 1.719723 1_545
As5 O6 1.719723 1_545
Br0 Li0 2.629453 1_555
Br0 Li4 2.629453 1_544
Br0 Li2 2.629453 1_454
Br0 Li1 2.629453 1_445
Br1 Li3 2.629453 1_555
Br1 Li5 2.629453 1_555
Br1 Li7 2.629453 1_555
Br1 Li6 2.629453 1_555
