# generated using pymatgen
data_EuDy2O4
_symmetry_space_group_name_H-M   'P 1'
_cell_length_a   3.43415800
_cell_length_b   10.05393700
_cell_length_c   12.01998800
_cell_angle_alpha   90.00000000
_cell_angle_beta   90.00000000
_cell_angle_gamma   90.00000000
_symmetry_Int_Tables_number   1
_chemical_formula_structural   EuDy2O4
_chemical_formula_sum   'Eu4 Dy8 O16'
_cell_volume   415.01182000
_cell_formula_units_Z   4
loop_
 _symmetry_equiv_pos_site_id
 _symmetry_equiv_pos_as_xyz
  1  'x, y, z'
loop_
 _atom_site_type_symbol
 _atom_site_label
 _atom_site_symmetry_multiplicity
 _atom_site_fract_x
 _atom_site_fract_y
 _atom_site_fract_z
 _atom_site_occupancy
  Eu  Eu0  1  0.25000000  0.74748200  0.14781200  1
  Eu  Eu1  1  0.75000000  0.25251800  0.85218800  1
  Eu  Eu2  1  0.75000000  0.75251800  0.64781200  1
  Eu  Eu3  1  0.25000000  0.24748200  0.35218800  1
  Dy  Dy0  1  0.25000000  0.57409100  0.88858000  1
  Dy  Dy1  1  0.75000000  0.42590900  0.11142000  1
  Dy  Dy2  1  0.75000000  0.92590900  0.38858000  1
  Dy  Dy3  1  0.25000000  0.07409100  0.61142000  1
  Dy  Dy4  1  0.25000000  0.08118600  0.11175000  1
  Dy  Dy5  1  0.75000000  0.91881400  0.88825000  1
  Dy  Dy6  1  0.75000000  0.41881400  0.61175000  1
  Dy  Dy7  1  0.25000000  0.58118600  0.38825000  1
  O  O0  1  0.25000000  0.78517600  0.82245100  1
  O  O1  1  0.75000000  0.21482400  0.17754900  1
  O  O2  1  0.75000000  0.71482400  0.32245100  1
  O  O3  1  0.25000000  0.28517600  0.67754900  1
  O  O4  1  0.25000000  0.99348800  0.28577800  1
  O  O5  1  0.75000000  0.00651200  0.71422200  1
  O  O6  1  0.75000000  0.50651200  0.78577800  1
  O  O7  1  0.25000000  0.49348800  0.21422200  1
  O  O8  1  0.25000000  0.87087000  0.51830500  1
  O  O9  1  0.75000000  0.12913000  0.48169500  1
  O  O10  1  0.75000000  0.62913000  0.01830500  1
  O  O11  1  0.25000000  0.37087000  0.98169500  1
  O  O12  1  0.25000000  0.57510100  0.57975700  1
  O  O13  1  0.75000000  0.42489900  0.42024300  1
  O  O14  1  0.75000000  0.92489900  0.07975700  1
  O  O15  1  0.25000000  0.07510100  0.92024300  1
loop_
_geom_bond_atom_site_label_1
_geom_bond_atom_site_label_2
_geom_bond_distance
_geom_bond_site_symmetry_2
Eu0 O10 2.605275 1_455
Eu0 O10 2.605275 1_555
Eu0 O14 2.607536 1_455
Eu0 O14 2.607536 1_555
Eu0 O7 2.675495 1_555
Eu0 O2 2.731782 1_455
Eu0 O2 2.731782 1_555
Eu0 O4 2.977831 1_555
Eu1 O11 2.605275 1_655
Eu1 O11 2.605275 1_555
Eu1 O15 2.607536 1_655
Eu1 O15 2.607536 1_555
Eu1 O6 2.675495 1_555
Eu1 O3 2.731782 1_555
Eu1 O3 2.731782 1_655
Eu1 O5 2.977831 1_555
Eu2 O8 2.605275 1_555
Eu2 O8 2.605275 1_655
Eu2 O12 2.607536 1_555
Eu2 O12 2.607536 1_655
Eu2 O5 2.675495 1_565
Eu2 O0 2.731782 1_555
Eu2 O0 2.731782 1_655
Eu2 O6 2.977831 1_555
Eu3 O9 2.605275 1_455
Eu3 O9 2.605275 1_555
Eu3 O13 2.607536 1_555
Eu3 O13 2.607536 1_455
Eu3 O4 2.675495 1_545
Eu3 O1 2.731782 1_555
Eu3 O1 2.731782 1_455
Eu3 O7 2.977831 1_555
Dy0 O6 2.221912 1_555
Dy0 O6 2.221912 1_455
Dy0 O0 2.266208 1_555
Dy0 O11 2.329646 1_555
Dy0 O10 2.384525 1_456
Dy0 O10 2.384525 1_556
Dy1 O7 2.221912 1_555
Dy1 O7 2.221912 1_655
Dy1 O1 2.266208 1_555
Dy1 O10 2.329646 1_555
Dy1 O11 2.384525 1_554
Dy1 O11 2.384525 1_654
Dy2 O4 2.221912 1_655
Dy2 O4 2.221912 1_555
Dy2 O2 2.266208 1_555
Dy2 O9 2.329646 1_565
Dy2 O8 2.384525 1_555
Dy2 O8 2.384525 1_655
Dy3 O5 2.221912 1_455
Dy3 O5 2.221912 1_555
Dy3 O3 2.266208 1_555
Dy3 O8 2.329646 1_545
Dy3 O9 2.384525 1_455
Dy3 O9 2.384525 1_555
Dy4 O4 2.270044 1_545
Dy4 O15 2.302725 1_554
Dy4 O1 2.319292 1_455
Dy4 O1 2.319292 1_555
Dy4 O14 2.359073 1_445
Dy4 O14 2.359073 1_545
Dy5 O5 2.270044 1_565
Dy5 O14 2.302725 1_556
Dy5 O0 2.319292 1_555
Dy5 O0 2.319292 1_655
Dy5 O15 2.359073 1_565
Dy5 O15 2.359073 1_665
Dy6 O6 2.270044 1_555
Dy6 O13 2.302725 1_555
Dy6 O3 2.319292 1_555
Dy6 O3 2.319292 1_655
Dy6 O12 2.359073 1_555
Dy6 O12 2.359073 1_655
Dy7 O7 2.270044 1_555
Dy7 O12 2.302725 1_555
Dy7 O2 2.319292 1_455
Dy7 O2 2.319292 1_555
Dy7 O13 2.359073 1_555
Dy7 O13 2.359073 1_455
