# generated using pymatgen
data_Sb2Te3WC4(OF3)4
_symmetry_space_group_name_H-M   'P 1'
_cell_length_a   8.73591500
_cell_length_b   15.16758500
_cell_length_c   15.77028700
_cell_angle_alpha   90.00000000
_cell_angle_beta   90.00000000
_cell_angle_gamma   90.00000000
_symmetry_Int_Tables_number   1
_chemical_formula_structural   Sb2Te3WC4(OF3)4
_chemical_formula_sum   'Sb8 Te12 W4 C16 O16 F48'
_cell_volume   2089.60613267
_cell_formula_units_Z   4
loop_
 _symmetry_equiv_pos_site_id
 _symmetry_equiv_pos_as_xyz
  1  'x, y, z'
loop_
 _atom_site_type_symbol
 _atom_site_label
 _atom_site_symmetry_multiplicity
 _atom_site_fract_x
 _atom_site_fract_y
 _atom_site_fract_z
 _atom_site_occupancy
  Sb  Sb0  1  0.25000000  0.55523900  0.34409300  1
  Sb  Sb1  1  0.25000000  0.94476100  0.84409300  1
  Sb  Sb2  1  0.75000000  0.44476100  0.65590700  1
  Sb  Sb3  1  0.75000000  0.05523900  0.15590700  1
  Sb  Sb4  1  0.25000000  0.24571300  0.03756500  1
  Sb  Sb5  1  0.25000000  0.25428700  0.53756500  1
  Sb  Sb6  1  0.75000000  0.75428700  0.96243500  1
  Sb  Sb7  1  0.75000000  0.74571300  0.46243500  1
  Te  Te0  1  0.25000000  0.55521600  0.63142900  1
  Te  Te1  1  0.25000000  0.94478400  0.13142900  1
  Te  Te2  1  0.75000000  0.44478400  0.36857100  1
  Te  Te3  1  0.75000000  0.05521600  0.86857100  1
  Te  Te4  1  0.09092300  0.68647300  0.71736600  1
  Te  Te5  1  0.40907700  0.81352700  0.21736600  1
  Te  Te6  1  0.59092300  0.31352700  0.28263400  1
  Te  Te7  1  0.90907700  0.18647300  0.78263400  1
  Te  Te8  1  0.90907700  0.31352700  0.28263400  1
  Te  Te9  1  0.59092300  0.18647300  0.78263400  1
  Te  Te10  1  0.40907700  0.68647300  0.71736600  1
  Te  Te11  1  0.09092300  0.81352700  0.21736600  1
  W  W0  1  0.25000000  0.55552300  0.81481200  1
  W  W1  1  0.25000000  0.94447700  0.31481200  1
  W  W2  1  0.75000000  0.44447700  0.18518800  1
  W  W3  1  0.75000000  0.05552300  0.68518800  1
  C  C0  1  0.25000000  0.42161800  0.80041800  1
  C  C1  1  0.25000000  0.07838200  0.30041800  1
  C  C2  1  0.75000000  0.57838200  0.19958200  1
  C  C3  1  0.75000000  0.92161800  0.69958200  1
  C  C4  1  0.25000000  0.62198100  0.92957000  1
  C  C5  1  0.25000000  0.87801900  0.42957000  1
  C  C6  1  0.75000000  0.37801900  0.07043000  1
  C  C7  1  0.75000000  0.12198100  0.57043000  1
  C  C8  1  0.04970800  0.51506900  0.87026400  1
  C  C9  1  0.45029200  0.98493100  0.37026400  1
  C  C10  1  0.54970800  0.48493100  0.12973600  1
  C  C11  1  0.95029200  0.01506900  0.62973600  1
  C  C12  1  0.95029200  0.48493100  0.12973600  1
  C  C13  1  0.54970800  0.01506900  0.62973600  1
  C  C14  1  0.45029200  0.51506900  0.87026400  1
  C  C15  1  0.04970800  0.98493100  0.37026400  1
  O  O0  1  0.25000000  0.34604600  0.79122000  1
  O  O1  1  0.25000000  0.15395400  0.29122000  1
  O  O2  1  0.75000000  0.65395400  0.20878000  1
  O  O3  1  0.75000000  0.84604600  0.70878000  1
  O  O4  1  0.25000000  0.65934300  0.99307100  1
  O  O5  1  0.25000000  0.84065700  0.49307100  1
  O  O6  1  0.75000000  0.34065700  0.00692900  1
  O  O7  1  0.75000000  0.15934300  0.50692900  1
  O  O8  1  0.93777600  0.49265300  0.90240100  1
  O  O9  1  0.56222400  0.00734700  0.40240100  1
  O  O10  1  0.43777600  0.50734700  0.09759900  1
  O  O11  1  0.06222400  0.99265300  0.59759900  1
  O  O12  1  0.06222400  0.50734700  0.09759900  1
  O  O13  1  0.43777600  0.99265300  0.59759900  1
  O  O14  1  0.56222400  0.49265300  0.90240100  1
  O  O15  1  0.93777600  0.00734700  0.40240100  1
  F  F0  1  0.25000000  0.44599100  0.28142800  1
  F  F1  1  0.25000000  0.05400900  0.78142800  1
  F  F2  1  0.75000000  0.55400900  0.71857200  1
  F  F3  1  0.75000000  0.94599100  0.21857200  1
  F  F4  1  0.25000000  0.66421600  0.40494300  1
  F  F5  1  0.25000000  0.83578400  0.90494300  1
  F  F6  1  0.75000000  0.33578400  0.59505700  1
  F  F7  1  0.75000000  0.16421600  0.09505700  1
  F  F8  1  0.40491300  0.60188800  0.26946100  1
  F  F9  1  0.09508700  0.89811200  0.76946100  1
  F  F10  1  0.90491300  0.39811200  0.73053900  1
  F  F11  1  0.59508700  0.10188800  0.23053900  1
  F  F12  1  0.59508700  0.39811200  0.73053900  1
  F  F13  1  0.90491300  0.10188800  0.23053900  1
  F  F14  1  0.09508700  0.60188800  0.26946100  1
  F  F15  1  0.40491300  0.89811200  0.76946100  1
  F  F16  1  0.40746500  0.50852700  0.41628800  1
  F  F17  1  0.09253500  0.99147300  0.91628800  1
  F  F18  1  0.90746500  0.49147300  0.58371200  1
  F  F19  1  0.59253500  0.00852700  0.08371200  1
  F  F20  1  0.59253500  0.49147300  0.58371200  1
  F  F21  1  0.90746500  0.00852700  0.08371200  1
  F  F22  1  0.09253500  0.50852700  0.41628800  1
  F  F23  1  0.40746500  0.99147300  0.91628800  1
  F  F24  1  0.25000000  0.12847200  0.08568200  1
  F  F25  1  0.25000000  0.37152800  0.58568200  1
  F  F26  1  0.75000000  0.87152800  0.91431800  1
  F  F27  1  0.75000000  0.62847200  0.41431800  1
  F  F28  1  0.25000000  0.36261800  0.99139000  1
  F  F29  1  0.25000000  0.13738200  0.49139000  1
  F  F30  1  0.75000000  0.63738200  0.00861000  1
  F  F31  1  0.75000000  0.86261800  0.50861000  1
  F  F32  1  0.40484900  0.28041000  0.11837900  1
  F  F33  1  0.09515100  0.21959000  0.61837900  1
  F  F34  1  0.90484900  0.71959000  0.88162100  1
  F  F35  1  0.59515100  0.78041000  0.38162100  1
  F  F36  1  0.59515100  0.71959000  0.88162100  1
  F  F37  1  0.90484900  0.78041000  0.38162100  1
  F  F38  1  0.09515100  0.28041000  0.11837900  1
  F  F39  1  0.40484900  0.21959000  0.61837900  1
  F  F40  1  0.09449300  0.21196200  0.95791400  1
  F  F41  1  0.40550700  0.28803800  0.45791400  1
  F  F42  1  0.59449300  0.78803800  0.04208600  1
  F  F43  1  0.90550700  0.71196200  0.54208600  1
  F  F44  1  0.90550700  0.78803800  0.04208600  1
  F  F45  1  0.59449300  0.71196200  0.54208600  1
  F  F46  1  0.40550700  0.21196200  0.95791400  1
  F  F47  1  0.09449300  0.28803800  0.45791400  1
loop_
_geom_bond_atom_site_label_1
_geom_bond_atom_site_label_2
_geom_bond_distance
_geom_bond_site_symmetry_2
Te0 Te4 2.780542 1_555
Te0 Te10 2.780542 1_555
Te0 W0 2.892006 1_555
Te1 Te11 2.780542 1_555
Te1 Te5 2.780542 1_555
Te1 W1 2.892006 1_555
Te2 Te6 2.780542 1_555
Te2 Te8 2.780542 1_555
Te2 W2 2.892006 1_555
Te3 Te9 2.780542 1_555
Te3 Te7 2.780542 1_555
Te3 W3 2.892006 1_555
Te4 W0 2.870156 1_555
Te5 W1 2.870156 1_555
Te6 Te8 2.779366 1_555
Te6 W2 2.870156 1_555
Te7 Te9 2.779366 1_555
Te7 W3 2.870156 1_555
Te8 W2 2.870156 1_555
Te9 W3 2.870156 1_555
Te10 Te4 2.779366 1_555
Te10 W0 2.870156 1_555
Te11 Te5 2.779366 1_555
Te11 W1 2.870156 1_555
C0 O0 1.155387 1_555
C0 W0 2.043661 1_555
C1 O1 1.155387 1_555
C1 W1 2.043661 1_545
C2 O2 1.155387 1_555
C2 W2 2.043661 1_555
C3 O3 1.155387 1_555
C3 W3 2.043661 1_565
C4 O4 1.150652 1_555
C4 W0 2.071554 1_555
C5 O5 1.150652 1_555
C5 W1 2.071554 1_555
C6 O6 1.150652 1_555
C6 W2 2.071554 1_555
C7 O7 1.150652 1_555
C7 W3 2.071554 1_555
C8 O8 1.152650 1_455
C8 W0 2.050073 1_555
C9 O9 1.152650 1_565
C9 W1 2.050073 1_555
C10 O10 1.152650 1_555
C10 W2 2.050073 1_555
C11 O11 1.152650 1_645
C11 W3 2.050073 1_555
C12 O12 1.152650 1_655
C12 W2 2.050073 1_555
C13 O13 1.152650 1_545
C13 W3 2.050073 1_555
C14 O14 1.152650 1_555
C14 W0 2.050073 1_555
C15 O15 1.152650 1_465
C15 W1 2.050073 1_555
F0 Sb0 1.929345 1_555
F1 Sb1 1.929345 1_545
F2 Sb2 1.929345 1_555
F3 Sb3 1.929345 1_565
F4 Sb0 1.911285 1_555
F5 Sb1 1.911285 1_555
F6 Sb2 1.911285 1_555
F7 Sb3 1.911285 1_555
F8 Sb0 1.928036 1_555
F9 Sb1 1.928036 1_555
F10 Sb2 1.928036 1_555
F11 Sb3 1.928036 1_555
F12 Sb2 1.928036 1_555
F13 Sb3 1.928036 1_555
F14 Sb0 1.928036 1_555
F15 Sb1 1.928036 1_555
F16 Sb0 1.921074 1_555
F17 Sb1 1.921074 1_555
F18 Sb2 1.921074 1_555
F19 Sb3 1.921074 1_555
F20 Sb2 1.921074 1_555
F21 Sb3 1.921074 1_555
F22 Sb0 1.921074 1_555
F23 Sb1 1.921074 1_555
F24 Sb4 1.933397 1_555
F25 Sb5 1.933397 1_555
F26 Sb6 1.933397 1_555
F27 Sb7 1.933397 1_555
F28 Sb4 1.916868 1_556
F29 Sb5 1.916868 1_555
F30 Sb6 1.916868 1_554
F31 Sb7 1.916868 1_555
F32 Sb4 1.931614 1_555
F33 Sb5 1.931614 1_555
F34 Sb6 1.931614 1_555
F35 Sb7 1.931614 1_555
F36 Sb6 1.931614 1_555
F37 Sb7 1.931614 1_555
F38 Sb4 1.931614 1_555
F39 Sb5 1.931614 1_555
F40 Sb4 1.919742 1_556
F41 Sb5 1.919742 1_555
F42 Sb6 1.919742 1_554
F43 Sb7 1.919742 1_555
F44 Sb6 1.919742 1_554
F45 Sb7 1.919742 1_555
F46 Sb4 1.919742 1_556
F47 Sb5 1.919742 1_555
