# generated using pymatgen
data_TmCu(WO4)2
_symmetry_space_group_name_H-M   'P 1'
_cell_length_a   5.96566200
_cell_length_b   5.07965300
_cell_length_c   10.95876133
_cell_angle_alpha   65.10214995
_cell_angle_beta   90.00000000
_cell_angle_gamma   90.00000000
_symmetry_Int_Tables_number   1
_chemical_formula_structural   TmCu(WO4)2
_chemical_formula_sum   'Tm2 Cu2 W4 O16'
_cell_volume   301.22435566
_cell_formula_units_Z   2
loop_
 _symmetry_equiv_pos_site_id
 _symmetry_equiv_pos_as_xyz
  1  'x, y, z'
loop_
 _atom_site_type_symbol
 _atom_site_label
 _atom_site_symmetry_multiplicity
 _atom_site_fract_x
 _atom_site_fract_y
 _atom_site_fract_z
 _atom_site_occupancy
  Tm  Tm0  1  0.33390800  0.00000000  0.25000000  1
  Tm  Tm1  1  0.66609200  0.00000000  0.75000000  1
  Cu  Cu0  1  0.71321200  0.50000000  0.25000000  1
  Cu  Cu1  1  0.28678800  0.50000000  0.75000000  1
  W  W0  1  0.16953000  0.76200400  0.98927300  1
  W  W1  1  0.83047000  0.23799600  0.01072700  1
  W  W2  1  0.16953000  0.23799600  0.51072700  1
  W  W3  1  0.83047000  0.76200400  0.48927300  1
  O  O0  1  0.36373300  0.73175300  0.86411200  1
  O  O1  1  0.36373300  0.26824700  0.63588800  1
  O  O2  1  0.63626700  0.26824700  0.13588800  1
  O  O3  1  0.63626700  0.73175300  0.36411200  1
  O  O4  1  0.90899800  0.16248000  0.38909700  1
  O  O5  1  0.90899800  0.83752000  0.11090300  1
  O  O6  1  0.09100200  0.83752000  0.61090300  1
  O  O7  1  0.09100200  0.16248000  0.88909700  1
  O  O8  1  0.63485500  0.21694600  0.88611200  1
  O  O9  1  0.63485500  0.78305400  0.61388800  1
  O  O10  1  0.36514500  0.78305400  0.11388800  1
  O  O11  1  0.36514500  0.21694600  0.38611200  1
  O  O12  1  0.88582600  0.66208500  0.90196500  1
  O  O13  1  0.11417400  0.33791500  0.09803500  1
  O  O14  1  0.88582600  0.33791500  0.59803500  1
  O  O15  1  0.11417400  0.66208500  0.40196500  1
loop_
_geom_bond_atom_site_label_1
_geom_bond_atom_site_label_2
_geom_bond_distance
_geom_bond_site_symmetry_2
Cu0 O3 2.097603 1_555
Cu0 O2 2.097603 1_555
Cu0 O4 2.103978 1_555
Cu0 O5 2.103978 1_555
Cu0 O11 2.607310 1_555
Cu0 O10 2.607310 1_555
Cu1 O1 2.097603 1_555
Cu1 O0 2.097603 1_555
Cu1 O7 2.103978 1_555
Cu1 O6 2.103978 1_555
Cu1 O9 2.607310 1_555
Cu1 O8 2.607310 1_555
O0 W0 1.850575 1_555
O0 Tm1 2.288961 1_565
O1 W2 1.850575 1_555
O1 Tm1 2.288961 1_555
O2 W1 1.850575 1_555
O2 Tm0 2.288961 1_555
O3 W3 1.850575 1_555
O3 Tm0 2.288961 1_565
O4 W3 1.918993 1_545
O4 W2 2.184033 1_655
O5 W1 1.918993 1_565
O5 W0 2.184033 1_654
O6 W2 1.918993 1_565
O6 W3 2.184033 1_455
O7 W0 1.918993 1_545
O7 W1 2.184033 1_456
O8 W1 1.833342 1_556
O8 Tm1 2.204121 1_555
O9 W3 1.833342 1_555
O9 Tm1 2.204121 1_565
O10 W0 1.833342 1_554
O10 Tm0 2.204121 1_565
O11 W2 1.833342 1_555
O11 Tm0 2.204121 1_555
O12 W1 2.002104 1_556
O12 W0 2.108659 1_655
O12 Tm1 2.243025 1_565
O13 W0 2.002104 1_554
O13 W1 2.108659 1_455
O13 Tm0 2.243025 1_555
O14 W3 2.002104 1_555
O14 W2 2.108659 1_655
O14 Tm1 2.243025 1_555
O15 W2 2.002104 1_555
O15 W3 2.108659 1_455
O15 Tm0 2.243025 1_565
