# generated using pymatgen
data_K2HgBiBr6
_symmetry_space_group_name_H-M   'P 1'
_cell_length_a   8.23882213
_cell_length_b   8.23882213
_cell_length_c   8.23882213
_cell_angle_alpha   60.00000000
_cell_angle_beta   60.00000000
_cell_angle_gamma   60.00000000
_symmetry_Int_Tables_number   1
_chemical_formula_structural   K2HgBiBr6
_chemical_formula_sum   'K2 Hg1 Bi1 Br6'
_cell_volume   395.43980511
_cell_formula_units_Z   1
loop_
 _symmetry_equiv_pos_site_id
 _symmetry_equiv_pos_as_xyz
  1  'x, y, z'
loop_
 _atom_site_type_symbol
 _atom_site_label
 _atom_site_symmetry_multiplicity
 _atom_site_fract_x
 _atom_site_fract_y
 _atom_site_fract_z
 _atom_site_occupancy
  K  K0  1  0.75000000  0.75000000  0.75000000  1
  K  K1  1  0.25000000  0.25000000  0.25000000  1
  Hg  Hg0  1  0.50000000  0.50000000  0.50000000  1
  Bi  Bi0  1  0.00000000  0.00000000  0.00000000  1
  Br  Br0  1  0.75348400  0.24651600  0.24651600  1
  Br  Br1  1  0.24651600  0.24651600  0.75348400  1
  Br  Br2  1  0.24651600  0.75348400  0.75348400  1
  Br  Br3  1  0.24651600  0.75348400  0.24651600  1
  Br  Br4  1  0.75348400  0.24651600  0.75348400  1
  Br  Br5  1  0.75348400  0.75348400  0.24651600  1
loop_
_geom_bond_atom_site_label_1
_geom_bond_atom_site_label_2
_geom_bond_distance
_geom_bond_site_symmetry_2
Bi0 Br2 2.872270 1_544
Bi0 Br4 2.872270 1_454
Bi0 Br5 2.872270 1_445
Bi0 Br0 2.872270 1_455
Bi0 Br3 2.872270 1_545
Bi0 Br1 2.872270 1_554
Br0 Hg0 2.953457 1_555
Br1 Hg0 2.953457 1_555
Br2 Hg0 2.953457 1_555
Br3 Hg0 2.953457 1_555
Br4 Hg0 2.953457 1_555
Br5 Hg0 2.953457 1_555
