# generated using pymatgen
data_PrGa3Ni
_symmetry_space_group_name_H-M   'P 1'
_cell_length_a   4.15414065
_cell_length_b   4.15414065
_cell_length_c   6.00796043
_cell_angle_alpha   69.77426435
_cell_angle_beta   69.77426435
_cell_angle_gamma   90.00000000
_symmetry_Int_Tables_number   1
_chemical_formula_structural   PrGa3Ni
_chemical_formula_sum   'Pr1 Ga3 Ni1'
_cell_volume   90.44179291
_cell_formula_units_Z   1
loop_
 _symmetry_equiv_pos_site_id
 _symmetry_equiv_pos_as_xyz
  1  'x, y, z'
loop_
 _atom_site_type_symbol
 _atom_site_label
 _atom_site_symmetry_multiplicity
 _atom_site_fract_x
 _atom_site_fract_y
 _atom_site_fract_z
 _atom_site_occupancy
  Pr  Pr0  1  -0.00000000  0.00000000  0.00000000  1
  Ga  Ga0  1  0.37932558  0.37932558  0.24134884  1
  Ga  Ga1  1  0.62067442  0.62067442  0.75865116  1
  Ga  Ga2  1  0.25000000  0.75000000  0.50000000  1
  Ni  Ni0  1  0.75000000  0.25000000  0.50000000  1
loop_
_geom_bond_atom_site_label_1
_geom_bond_atom_site_label_2
_geom_bond_distance
_geom_bond_site_symmetry_2
Ga0 Ni0 2.480279 1_455
Ga0 Ga2 2.480279 1_545
Ga0 Ni0 2.480279 1_555
Ga0 Ga2 2.480279 1_555
Ga0 Ga1 2.529775 1_554
Ga0 Pr0 3.198184 1_665
Ga0 Pr0 3.198184 1_565
Ga0 Pr0 3.198184 1_655
Ga0 Pr0 3.198184 1_555
Ga1 Ni0 2.480279 1_565
Ga1 Ga2 2.480279 1_655
Ga1 Ni0 2.480279 1_555
Ga1 Ga2 2.480279 1_555
Ga1 Pr0 3.198184 1_556
Ga1 Pr0 3.198184 1_656
Ga1 Pr0 3.198184 1_566
Ga1 Pr0 3.198184 1_666
Ga2 Ni0 2.937421 1_465
Ga2 Ni0 2.937421 1_555
Ga2 Ni0 2.937421 1_455
Ga2 Ni0 2.937421 1_565
Ga2 Pr0 3.343801 1_556
Ga2 Pr0 3.343801 1_665
Ga2 Pr0 3.343801 1_566
Ga2 Pr0 3.343801 1_565
Ni0 Pr0 3.343801 1_556
Ni0 Pr0 3.343801 1_665
Ni0 Pr0 3.343801 1_656
Ni0 Pr0 3.343801 1_655
