# generated using pymatgen
data_KMgPO5
_symmetry_space_group_name_H-M   'P 1'
_cell_length_a   4.93821900
_cell_length_b   5.45977400
_cell_length_c   8.32031900
_cell_angle_alpha   90.00000000
_cell_angle_beta   90.00000000
_cell_angle_gamma   90.00000000
_symmetry_Int_Tables_number   1
_chemical_formula_structural   KMgPO5
_chemical_formula_sum   'K2 Mg2 P2 O10'
_cell_volume   224.32877746
_cell_formula_units_Z   2
loop_
 _symmetry_equiv_pos_site_id
 _symmetry_equiv_pos_as_xyz
  1  'x, y, z'
loop_
 _atom_site_type_symbol
 _atom_site_label
 _atom_site_symmetry_multiplicity
 _atom_site_fract_x
 _atom_site_fract_y
 _atom_site_fract_z
 _atom_site_occupancy
  K  K0  1  0.51235800  0.00000000  0.53678000  1
  K  K1  1  0.01235800  0.50000000  0.46322000  1
  Mg  Mg0  1  0.65859300  0.00000000  0.99683300  1
  Mg  Mg1  1  0.15859300  0.50000000  0.00316700  1
  P  P0  1  0.58792300  0.50000000  0.78966900  1
  P  P1  1  0.08792300  0.00000000  0.21033100  1
  O  O0  1  0.89960700  0.50000000  0.81337900  1
  O  O1  1  0.39960700  0.00000000  0.18662100  1
  O  O2  1  0.52103500  0.50000000  0.60978500  1
  O  O3  1  0.02103500  0.00000000  0.39021500  1
  O  O4  1  0.45763600  0.72463000  0.87884900  1
  O  O5  1  0.45763600  0.27537000  0.87884900  1
  O  O6  1  0.95763600  0.77537000  0.12115100  1
  O  O7  1  0.95763600  0.22463000  0.12115100  1
  O  O8  1  0.93801100  0.00000000  0.79542300  1
  O  O9  1  0.43801100  0.50000000  0.20457700  1
loop_
_geom_bond_atom_site_label_1
_geom_bond_atom_site_label_2
_geom_bond_distance
_geom_bond_site_symmetry_2
K0 O3 2.715482 1_555
K0 O3 2.792317 1_655
K0 O2 2.796978 1_545
K0 O2 2.796978 1_555
K0 O1 2.966162 1_555
K0 O8 3.008212 1_555
K0 O4 3.230143 1_545
K0 O5 3.230143 1_555
K1 O2 2.715482 1_455
K1 O2 2.792317 1_555
K1 O3 2.796978 1_555
K1 O3 2.796978 1_565
K1 O0 2.966162 1_455
K1 O9 3.008212 1_555
K1 O7 3.230143 1_455
K1 O6 3.230143 1_455
Mg0 O1 2.032045 1_556
Mg0 O4 2.051548 1_545
Mg0 O5 2.051548 1_555
Mg0 O8 2.170763 1_555
Mg0 O7 2.180551 1_556
Mg0 O6 2.180551 1_546
Mg1 O0 2.032045 1_454
Mg1 O7 2.051548 1_455
Mg1 O6 2.051548 1_455
Mg1 O9 2.170763 1_555
Mg1 O5 2.180551 1_554
Mg1 O4 2.180551 1_554
O0 P0 1.551755 1_555
O1 P1 1.551755 1_555
O2 P0 1.532707 1_555
O3 P1 1.532707 1_555
O4 P0 1.571193 1_555
O5 P0 1.571193 1_555
O6 P1 1.571193 1_665
O7 P1 1.571193 1_655
