# generated using pymatgen
data_Sb8I2O11
_symmetry_space_group_name_H-M   'P 1'
_cell_length_a   4.23140886
_cell_length_b   10.14363763
_cell_length_c   10.82053565
_cell_angle_alpha   106.96628652
_cell_angle_beta   87.02958680
_cell_angle_gamma   80.65732873
_symmetry_Int_Tables_number   1
_chemical_formula_structural   Sb8I2O11
_chemical_formula_sum   'Sb8 I2 O11'
_cell_volume   435.90360070
_cell_formula_units_Z   1
loop_
 _symmetry_equiv_pos_site_id
 _symmetry_equiv_pos_as_xyz
  1  'x, y, z'
loop_
 _atom_site_type_symbol
 _atom_site_label
 _atom_site_symmetry_multiplicity
 _atom_site_fract_x
 _atom_site_fract_y
 _atom_site_fract_z
 _atom_site_occupancy
  Sb  Sb0  1  0.77628500  0.53052500  0.17527400  1
  Sb  Sb1  1  0.25187300  0.47621800  0.83753900  1
  Sb  Sb2  1  0.50921100  0.99434400  0.25001200  1
  Sb  Sb3  1  0.56122400  0.98309500  0.69414100  1
  Sb  Sb4  1  0.85009200  0.17247700  0.02437600  1
  Sb  Sb5  1  0.10941300  0.82499000  0.00216300  1
  Sb  Sb6  1  0.32663900  0.36448300  0.33074300  1
  Sb  Sb7  1  0.71229300  0.61268100  0.66262600  1
  I  I0  1  0.84698200  0.21558400  0.54775100  1
  I  I1  1  0.09655300  0.80680200  0.47940900  1
  O  O0  1  0.46419600  0.17350000  0.17660600  1
  O  O1  1  0.61439500  0.82143700  0.76415600  1
  O  O2  1  0.80867400  0.36598200  0.01315700  1
  O  O3  1  0.16301700  0.62897700  0.01308200  1
  O  O4  1  0.60658000  0.11294600  0.87138100  1
  O  O5  1  0.57739900  0.85091200  0.07273300  1
  O  O6  1  0.27685800  0.48307800  0.21096700  1
  O  O7  1  0.71303900  0.54328300  0.82004100  1
  O  O8  1  0.02057800  0.95406900  0.19276000  1
  O  O9  1  0.81070400  0.38840300  0.28168900  1
  O  O10  1  0.20489500  0.59841400  0.71589300  1
loop_
_geom_bond_atom_site_label_1
_geom_bond_atom_site_label_2
_geom_bond_distance
_geom_bond_site_symmetry_2
I0 Sb3 3.527060 1_545
I1 Sb3 3.072794 1_455
I1 Sb3 3.413604 1_555
O0 Sb6 2.126280 1_555
O0 Sb2 2.171511 1_545
O0 Sb4 2.255101 1_555
O1 Sb3 1.984046 1_555
O1 Sb7 2.042760 1_555
O2 Sb4 1.981866 1_555
O2 Sb0 2.018369 1_555
O3 Sb5 2.003032 1_555
O3 Sb1 2.041927 1_554
O4 Sb4 1.990575 1_556
O4 Sb3 2.023802 1_545
O5 Sb2 2.014265 1_555
O5 Sb5 2.186818 1_555
O5 Sb5 2.287458 1_655
O6 Sb6 2.006792 1_555
O6 Sb0 2.174754 1_455
O6 Sb0 2.280542 1_555
O7 Sb7 2.023970 1_555
O7 Sb1 2.185043 1_555
O7 Sb1 2.305097 1_655
O8 Sb5 2.071928 1_555
O8 Sb2 2.158489 1_455
O8 Sb2 2.254988 1_555
O9 Sb0 2.084085 1_555
O9 Sb6 2.158679 1_555
O9 Sb6 2.264940 1_655
O10 Sb1 2.051292 1_555
O10 Sb7 2.184751 1_455
O10 Sb7 2.232512 1_555
