# generated using pymatgen
data_Ho3Sn7
_symmetry_space_group_name_H-M   'P 1'
_cell_length_a   28.66357103
_cell_length_b   28.66357103
_cell_length_c   89.06814000
_cell_angle_alpha   90.00000000
_cell_angle_beta   90.00000000
_cell_angle_gamma   167.95461125
_symmetry_Int_Tables_number   1
_chemical_formula_structural   Ho3Sn7
_chemical_formula_sum   'Ho24 Sn56'
_cell_volume   15271.34627037
_cell_formula_units_Z   8
loop_
 _symmetry_equiv_pos_site_id
 _symmetry_equiv_pos_as_xyz
  1  'x, y, z'
loop_
 _atom_site_type_symbol
 _atom_site_label
 _atom_site_symmetry_multiplicity
 _atom_site_fract_x
 _atom_site_fract_y
 _atom_site_fract_z
 _atom_site_occupancy
  Ho  Ho0_0  1  0.00000000  0.00000000  0.25000000  1
  Ho  Ho0_1  1  0.00000000  0.00000000  0.75000000  1
  Ho  Ho0_2  1  0.00000000  0.50000000  0.25000000  1
  Ho  Ho0_3  1  0.00000000  0.50000000  0.75000000  1
  Ho  Ho0_4  1  0.50000000  0.00000000  0.25000000  1
  Ho  Ho0_5  1  0.50000000  0.00000000  0.75000000  1
  Ho  Ho0_6  1  0.50000000  0.50000000  0.25000000  1
  Ho  Ho0_7  1  0.50000000  0.50000000  0.75000000  1
  Ho  Ho1_0  1  0.15169450  0.34830550  0.00000000  1
  Ho  Ho1_1  1  0.15169450  0.34830550  0.50000000  1
  Ho  Ho1_2  1  0.15169450  0.84830550  0.00000000  1
  Ho  Ho1_3  1  0.15169450  0.84830550  0.50000000  1
  Ho  Ho1_4  1  0.65169450  0.34830550  0.00000000  1
  Ho  Ho1_5  1  0.65169450  0.34830550  0.50000000  1
  Ho  Ho1_6  1  0.65169450  0.84830550  0.00000000  1
  Ho  Ho1_7  1  0.65169450  0.84830550  0.50000000  1
  Ho  Ho2_0  1  0.34830550  0.15169450  0.00000000  1
  Ho  Ho2_1  1  0.34830550  0.15169450  0.50000000  1
  Ho  Ho2_2  1  0.34830550  0.65169450  0.00000000  1
  Ho  Ho2_3  1  0.34830550  0.65169450  0.50000000  1
  Ho  Ho2_4  1  0.84830550  0.15169450  0.00000000  1
  Ho  Ho2_5  1  0.84830550  0.15169450  0.50000000  1
  Ho  Ho2_6  1  0.84830550  0.65169450  0.00000000  1
  Ho  Ho2_7  1  0.84830550  0.65169450  0.50000000  1
  Sn  Sn0_0  1  0.25000000  0.25000000  0.00000000  1
  Sn  Sn0_1  1  0.25000000  0.25000000  0.50000000  1
  Sn  Sn0_2  1  0.25000000  0.75000000  0.00000000  1
  Sn  Sn0_3  1  0.25000000  0.75000000  0.50000000  1
  Sn  Sn0_4  1  0.75000000  0.25000000  0.00000000  1
  Sn  Sn0_5  1  0.75000000  0.25000000  0.50000000  1
  Sn  Sn0_6  1  0.75000000  0.75000000  0.00000000  1
  Sn  Sn0_7  1  0.75000000  0.75000000  0.50000000  1
  Sn  Sn1_0  1  0.20085650  0.29914350  0.25000000  1
  Sn  Sn1_1  1  0.20085650  0.29914350  0.75000000  1
  Sn  Sn1_2  1  0.20085650  0.79914350  0.25000000  1
  Sn  Sn1_3  1  0.20085650  0.79914350  0.75000000  1
  Sn  Sn1_4  1  0.70085650  0.29914350  0.25000000  1
  Sn  Sn1_5  1  0.70085650  0.29914350  0.75000000  1
  Sn  Sn1_6  1  0.70085650  0.79914350  0.25000000  1
  Sn  Sn1_7  1  0.70085650  0.79914350  0.75000000  1
  Sn  Sn2_0  1  0.29914350  0.20085650  0.25000000  1
  Sn  Sn2_1  1  0.29914350  0.20085650  0.75000000  1
  Sn  Sn2_2  1  0.29914350  0.70085650  0.25000000  1
  Sn  Sn2_3  1  0.29914350  0.70085650  0.75000000  1
  Sn  Sn2_4  1  0.79914350  0.20085650  0.25000000  1
  Sn  Sn2_5  1  0.79914350  0.20085650  0.75000000  1
  Sn  Sn2_6  1  0.79914350  0.70085650  0.25000000  1
  Sn  Sn2_7  1  0.79914350  0.70085650  0.75000000  1
  Sn  Sn3_0  1  0.04903150  0.45096850  0.00000000  1
  Sn  Sn3_1  1  0.04903150  0.45096850  0.50000000  1
  Sn  Sn3_2  1  0.04903150  0.95096850  0.00000000  1
  Sn  Sn3_3  1  0.04903150  0.95096850  0.50000000  1
  Sn  Sn3_4  1  0.54903150  0.45096850  0.00000000  1
  Sn  Sn3_5  1  0.54903150  0.45096850  0.50000000  1
  Sn  Sn3_6  1  0.54903150  0.95096850  0.00000000  1
  Sn  Sn3_7  1  0.54903150  0.95096850  0.50000000  1
  Sn  Sn4_0  1  0.45096850  0.04903150  0.00000000  1
  Sn  Sn4_1  1  0.45096850  0.04903150  0.50000000  1
  Sn  Sn4_2  1  0.45096850  0.54903150  0.00000000  1
  Sn  Sn4_3  1  0.45096850  0.54903150  0.50000000  1
  Sn  Sn4_4  1  0.95096850  0.04903150  0.00000000  1
  Sn  Sn4_5  1  0.95096850  0.04903150  0.50000000  1
  Sn  Sn4_6  1  0.95096850  0.54903150  0.00000000  1
  Sn  Sn4_7  1  0.95096850  0.54903150  0.50000000  1
  Sn  Sn5_0  1  0.09885300  0.40114700  0.25000000  1
  Sn  Sn5_1  1  0.09885300  0.40114700  0.75000000  1
  Sn  Sn5_2  1  0.09885300  0.90114700  0.25000000  1
  Sn  Sn5_3  1  0.09885300  0.90114700  0.75000000  1
  Sn  Sn5_4  1  0.59885300  0.40114700  0.25000000  1
  Sn  Sn5_5  1  0.59885300  0.40114700  0.75000000  1
  Sn  Sn5_6  1  0.59885300  0.90114700  0.25000000  1
  Sn  Sn5_7  1  0.59885300  0.90114700  0.75000000  1
  Sn  Sn6_0  1  0.40114700  0.09885300  0.25000000  1
  Sn  Sn6_1  1  0.40114700  0.09885300  0.75000000  1
  Sn  Sn6_2  1  0.40114700  0.59885300  0.25000000  1
  Sn  Sn6_3  1  0.40114700  0.59885300  0.75000000  1
  Sn  Sn6_4  1  0.90114700  0.09885300  0.25000000  1
  Sn  Sn6_5  1  0.90114700  0.09885300  0.75000000  1
  Sn  Sn6_6  1  0.90114700  0.59885300  0.25000000  1
  Sn  Sn6_7  1  0.90114700  0.59885300  0.75000000  1
loop_
_geom_bond_atom_site_label_1
_geom_bond_atom_site_label_2
_geom_bond_distance
_geom_bond_site_symmetry_2
Ho0_0 Ho0_6 3.007450 1_555
Ho0_0 Ho0_6 3.007450 1_445
Ho0_0 Sn2_0 3.179740 1_555
Ho0_0 Sn1_6 3.179740 1_445
Ho0_0 Sn2_6 3.179740 1_445
Ho0_0 Sn1_0 3.179740 1_555
Ho0_1 Ho0_7 3.007450 1_555
Ho0_1 Ho0_7 3.007450 1_445
Ho0_1 Sn1_7 3.179740 1_445
Ho0_1 Sn2_1 3.179740 1_555
Ho0_1 Sn2_7 3.179740 1_445
Ho0_1 Sn1_1 3.179740 1_555
Ho0_2 Ho0_4 3.007450 1_455
Ho0_2 Ho0_4 3.007450 1_565
Ho0_2 Sn2_2 3.179740 1_555
Ho0_2 Sn1_4 3.179740 1_455
Ho0_2 Sn1_2 3.179740 1_555
Ho0_2 Sn2_4 3.179740 1_455
Ho0_3 Ho0_5 3.007450 1_565
Ho0_3 Ho0_5 3.007450 1_455
Ho0_3 Sn2_3 3.179740 1_555
Ho0_3 Sn1_5 3.179740 1_455
Ho0_3 Sn2_5 3.179740 1_455
Ho0_3 Sn1_3 3.179740 1_555
Ho0_4 Sn2_2 3.179740 1_545
Ho0_4 Sn2_4 3.179740 1_555
Ho0_4 Sn1_2 3.179740 1_545
Ho0_4 Sn1_4 3.179740 1_555
Ho0_5 Sn2_3 3.179740 1_545
Ho0_5 Sn1_3 3.179740 1_545
Ho0_5 Sn2_5 3.179740 1_555
Ho0_5 Sn1_5 3.179740 1_555
Ho0_6 Sn1_0 3.179740 1_555
Ho0_6 Sn2_6 3.179740 1_555
Ho0_6 Sn2_0 3.179740 1_555
Ho0_6 Sn1_6 3.179740 1_555
Ho0_7 Sn1_1 3.179740 1_555
Ho0_7 Sn2_7 3.179740 1_555
Ho0_7 Sn1_7 3.179740 1_555
Ho0_7 Sn2_1 3.179740 1_555
Ho1_0 Ho1_6 3.007450 1_555
Ho1_0 Ho1_6 3.007450 1_445
Ho1_0 Sn4_4 3.186297 1_455
Ho1_0 Sn4_2 3.186297 1_555
Ho1_0 Ho2_4 3.394934 1_455
Ho1_0 Ho2_2 3.394934 1_555
Ho1_1 Ho1_7 3.007450 1_555
Ho1_1 Ho1_7 3.007450 1_445
Ho1_1 Sn4_5 3.186297 1_455
Ho1_1 Sn4_3 3.186297 1_555
Ho1_1 Ho2_5 3.394934 1_455
Ho1_1 Ho2_3 3.394934 1_555
Ho1_2 Ho1_4 3.007450 1_565
Ho1_2 Ho1_4 3.007450 1_455
Ho1_2 Sn4_6 3.186297 1_455
Ho1_2 Sn4_0 3.186297 1_565
Ho1_2 Ho2_6 3.394934 1_455
Ho1_2 Ho2_0 3.394934 1_565
Ho1_3 Ho1_5 3.007450 1_565
Ho1_3 Ho1_5 3.007450 1_455
Ho1_3 Sn4_7 3.186297 1_455
Ho1_3 Sn4_1 3.186297 1_565
Ho1_3 Ho2_7 3.394934 1_455
Ho1_3 Ho2_1 3.394934 1_565
Ho1_4 Sn4_0 3.186297 1_555
Ho1_4 Sn4_6 3.186297 1_555
Ho1_4 Ho2_6 3.394934 1_555
Ho1_4 Ho2_0 3.394934 1_555
Ho1_5 Sn4_1 3.186297 1_555
Ho1_5 Sn4_7 3.186297 1_555
Ho1_5 Ho2_7 3.394934 1_555
Ho1_5 Ho2_1 3.394934 1_555
Ho1_6 Sn4_2 3.186297 1_555
Ho1_6 Sn4_4 3.186297 1_565
Ho1_6 Ho2_4 3.394934 1_565
Ho1_6 Ho2_2 3.394934 1_555
Ho1_7 Sn4_3 3.186297 1_555
Ho1_7 Sn4_5 3.186297 1_565
Ho1_7 Ho2_5 3.394934 1_565
Ho1_7 Ho2_3 3.394934 1_555
Ho2_0 Ho2_6 3.007450 1_555
Ho2_0 Ho2_6 3.007450 1_445
Ho2_0 Sn3_2 3.186297 1_545
Ho2_0 Sn3_4 3.186297 1_555
Ho2_1 Ho2_7 3.007450 1_555
Ho2_1 Ho2_7 3.007450 1_445
Ho2_1 Sn3_3 3.186297 1_545
Ho2_1 Sn3_5 3.186297 1_555
Ho2_2 Ho2_4 3.007450 1_455
Ho2_2 Ho2_4 3.007450 1_565
Ho2_2 Sn3_0 3.186297 1_555
Ho2_2 Sn3_6 3.186297 1_555
Ho2_3 Ho2_5 3.007450 1_455
Ho2_3 Ho2_5 3.007450 1_565
Ho2_3 Sn3_1 3.186297 1_555
Ho2_3 Sn3_7 3.186297 1_555
Ho2_4 Sn3_6 3.186297 1_545
Ho2_4 Sn3_0 3.186297 1_655
Ho2_5 Sn3_7 3.186297 1_545
Ho2_5 Sn3_1 3.186297 1_655
Ho2_6 Sn3_4 3.186297 1_555
Ho2_6 Sn3_2 3.186297 1_655
Ho2_7 Sn3_5 3.186297 1_555
Ho2_7 Sn3_3 3.186297 1_655
Sn0_0 Sn0_6 3.007450 1_445
Sn0_0 Sn0_6 3.007450 1_555
Sn0_0 Sn4_4 3.174115 1_455
Sn0_0 Sn3_2 3.174115 1_545
Sn0_0 Sn3_4 3.174115 1_555
Sn0_0 Sn4_2 3.174115 1_555
Sn0_1 Sn0_7 3.007450 1_445
Sn0_1 Sn0_7 3.007450 1_555
Sn0_1 Sn4_5 3.174115 1_455
Sn0_1 Sn3_5 3.174115 1_555
Sn0_1 Sn3_3 3.174115 1_545
Sn0_1 Sn4_3 3.174115 1_555
Sn0_2 Sn0_4 3.007450 1_565
Sn0_2 Sn0_4 3.007450 1_455
Sn0_2 Sn4_0 3.174115 1_565
Sn0_2 Sn4_6 3.174115 1_455
Sn0_2 Sn3_6 3.174115 1_555
Sn0_2 Sn3_0 3.174115 1_555
Sn0_3 Sn0_5 3.007450 1_455
Sn0_3 Sn0_5 3.007450 1_565
Sn0_3 Sn4_1 3.174115 1_565
Sn0_3 Sn4_7 3.174115 1_455
Sn0_3 Sn3_7 3.174115 1_555
Sn0_3 Sn3_1 3.174115 1_555
Sn0_4 Sn3_0 3.174115 1_655
Sn0_4 Sn4_0 3.174115 1_555
Sn0_4 Sn3_6 3.174115 1_545
Sn0_4 Sn4_6 3.174115 1_555
Sn0_5 Sn3_1 3.174115 1_655
Sn0_5 Sn4_1 3.174115 1_555
Sn0_5 Sn4_7 3.174115 1_555
Sn0_5 Sn3_7 3.174115 1_545
Sn0_6 Sn4_4 3.174115 1_565
Sn0_6 Sn3_2 3.174115 1_655
Sn0_6 Sn4_2 3.174115 1_555
Sn0_6 Sn3_4 3.174115 1_555
Sn0_7 Sn4_5 3.174115 1_565
Sn0_7 Sn3_3 3.174115 1_655
Sn0_7 Sn4_3 3.174115 1_555
Sn0_7 Sn3_5 3.174115 1_555
Sn1_0 Sn1_6 3.007450 1_445
Sn1_0 Sn1_6 3.007450 1_555
Sn1_0 Sn6_4 3.208208 1_455
Sn1_0 Sn6_2 3.208208 1_555
Sn1_1 Sn1_7 3.007450 1_445
Sn1_1 Sn1_7 3.007450 1_555
Sn1_1 Sn6_5 3.208208 1_455
Sn1_1 Sn6_3 3.208208 1_555
Sn1_2 Sn1_4 3.007450 1_565
Sn1_2 Sn1_4 3.007450 1_455
Sn1_2 Sn6_6 3.208208 1_455
Sn1_2 Sn6_0 3.208208 1_565
Sn1_3 Sn1_5 3.007450 1_565
Sn1_3 Sn1_5 3.007450 1_455
Sn1_3 Sn6_7 3.208208 1_455
Sn1_3 Sn6_1 3.208208 1_565
Sn1_4 Sn6_6 3.208208 1_555
Sn1_4 Sn6_0 3.208208 1_555
Sn1_5 Sn6_7 3.208208 1_555
Sn1_5 Sn6_1 3.208208 1_555
Sn1_6 Sn6_4 3.208208 1_565
Sn1_6 Sn6_2 3.208208 1_555
Sn1_7 Sn6_5 3.208208 1_565
Sn1_7 Sn6_3 3.208208 1_555
Sn2_0 Sn2_6 3.007450 1_445
Sn2_0 Sn2_6 3.007450 1_555
Sn2_0 Sn5_2 3.208208 1_545
Sn2_0 Sn5_4 3.208208 1_555
Sn2_1 Sn2_7 3.007450 1_445
Sn2_1 Sn2_7 3.007450 1_555
Sn2_1 Sn5_3 3.208208 1_545
Sn2_1 Sn5_5 3.208208 1_555
Sn2_2 Sn2_4 3.007450 1_455
Sn2_2 Sn2_4 3.007450 1_565
Sn2_2 Sn5_6 3.208208 1_555
Sn2_2 Sn5_0 3.208208 1_555
Sn2_3 Sn2_5 3.007450 1_455
Sn2_3 Sn2_5 3.007450 1_565
Sn2_3 Sn5_7 3.208208 1_555
Sn2_3 Sn5_1 3.208208 1_555
Sn2_4 Sn5_6 3.208208 1_545
Sn2_4 Sn5_0 3.208208 1_655
Sn2_5 Sn5_7 3.208208 1_545
Sn2_5 Sn5_1 3.208208 1_655
Sn2_6 Sn5_2 3.208208 1_655
Sn2_6 Sn5_4 3.208208 1_555
Sn2_7 Sn5_3 3.208208 1_655
Sn2_7 Sn5_5 3.208208 1_555
Sn3_0 Sn3_6 3.007450 1_445
Sn3_0 Sn3_6 3.007450 1_555
Sn3_1 Sn3_7 3.007450 1_555
Sn3_1 Sn3_7 3.007450 1_445
Sn3_2 Sn3_4 3.007450 1_455
Sn3_2 Sn3_4 3.007450 1_565
Sn3_3 Sn3_5 3.007450 1_455
Sn3_3 Sn3_5 3.007450 1_565
Sn4_0 Sn4_6 3.007450 1_555
Sn4_0 Sn4_6 3.007450 1_445
Sn4_1 Sn4_7 3.007450 1_555
Sn4_1 Sn4_7 3.007450 1_445
Sn4_2 Sn4_4 3.007450 1_565
Sn4_2 Sn4_4 3.007450 1_455
Sn4_3 Sn4_5 3.007450 1_565
Sn4_3 Sn4_5 3.007450 1_455
Sn5_0 Sn5_6 3.007450 1_445
Sn5_0 Sn5_6 3.007450 1_555
Sn5_0 Sn6_2 3.339079 1_555
Sn5_0 Sn6_4 3.339079 1_455
Sn5_1 Sn5_7 3.007450 1_555
Sn5_1 Sn5_7 3.007450 1_445
Sn5_1 Sn6_3 3.339079 1_555
Sn5_1 Sn6_5 3.339079 1_455
Sn5_2 Sn5_4 3.007450 1_565
Sn5_2 Sn5_4 3.007450 1_455
Sn5_2 Sn6_0 3.339079 1_565
Sn5_2 Sn6_6 3.339079 1_455
Sn5_3 Sn5_5 3.007450 1_565
Sn5_3 Sn5_5 3.007450 1_455
Sn5_3 Sn6_1 3.339079 1_565
Sn5_3 Sn6_7 3.339079 1_455
Sn5_4 Sn6_0 3.339079 1_555
Sn5_4 Sn6_6 3.339079 1_555
Sn5_5 Sn6_1 3.339079 1_555
Sn5_5 Sn6_7 3.339079 1_555
Sn5_6 Sn6_2 3.339079 1_555
Sn5_6 Sn6_4 3.339079 1_565
Sn5_7 Sn6_3 3.339079 1_555
Sn5_7 Sn6_5 3.339079 1_565
Sn6_0 Sn6_6 3.007450 1_445
Sn6_0 Sn6_6 3.007450 1_555
Sn6_1 Sn6_7 3.007450 1_445
Sn6_1 Sn6_7 3.007450 1_555
Sn6_2 Sn6_4 3.007450 1_565
Sn6_2 Sn6_4 3.007450 1_455
Sn6_3 Sn6_5 3.007450 1_455
Sn6_3 Sn6_5 3.007450 1_565
