# generated using pymatgen
data_BaNaPrSbO6
_symmetry_space_group_name_H-M   'P 1'
_cell_length_a   8.67672788
_cell_length_b   8.61159865
_cell_length_c   8.67693265
_cell_angle_alpha   90.00000000
_cell_angle_beta   90.00000000
_cell_angle_gamma   90.00000000
_symmetry_Int_Tables_number   1
_chemical_formula_structural   BaNaPrSbO6
_chemical_formula_sum   'Ba4 Na4 Pr4 Sb4 O24'
_cell_volume   648.34472957
_cell_formula_units_Z   4
loop_
 _symmetry_equiv_pos_site_id
 _symmetry_equiv_pos_as_xyz
  1  'x, y, z'
loop_
 _atom_site_type_symbol
 _atom_site_label
 _atom_site_symmetry_multiplicity
 _atom_site_fract_x
 _atom_site_fract_y
 _atom_site_fract_z
 _atom_site_occupancy
  Ba  Ba0  1  -0.00000000  -0.00000000  -0.00000000  1
  Ba  Ba1  1  0.50000000  0.50000000  0.50000000  1
  Ba  Ba2  1  -0.00000000  0.50000000  0.50000000  1
  Ba  Ba3  1  0.50000000  -0.00000000  0.00000000  1
  Na  Na0  1  0.50000000  -0.00000000  0.50000000  1
  Na  Na1  1  0.50000000  0.50000000  0.00000000  1
  Na  Na2  1  -0.00000000  0.50000000  0.00000000  1
  Na  Na3  1  -0.00000000  -0.00000000  0.50000000  1
  Pr  Pr0  1  0.75000000  0.75000000  0.75000000  1
  Pr  Pr1  1  0.25000000  0.25000000  0.75000000  1
  Pr  Pr2  1  0.25000000  0.75000000  0.25000000  1
  Pr  Pr3  1  0.75000000  0.25000000  0.25000000  1
  Sb  Sb0  1  0.25000000  0.25000000  0.25000000  1
  Sb  Sb1  1  0.75000000  0.75000000  0.25000000  1
  Sb  Sb2  1  0.75000000  0.25000000  0.75000000  1
  Sb  Sb3  1  0.25000000  0.75000000  0.75000000  1
  O  O0  1  0.02067002  0.22381374  0.27596628  1
  O  O1  1  0.97932998  0.77618626  0.27596628  1
  O  O2  1  0.97932998  0.22381374  0.72403372  1
  O  O3  1  0.02067002  0.77618626  0.72403372  1
  O  O4  1  0.27079785  0.02006948  0.21913392  1
  O  O5  1  0.27079785  0.97993052  0.78086608  1
  O  O6  1  0.72920215  0.97993052  0.21913392  1
  O  O7  1  0.72920215  0.02006948  0.78086608  1
  O  O8  1  0.22106257  0.26705185  0.02080785  1
  O  O9  1  0.77893743  0.26705185  0.97919215  1
  O  O10  1  0.22106257  0.73294815  0.97919215  1
  O  O11  1  0.77893743  0.73294815  0.02080785  1
  O  O12  1  0.47932998  0.27618626  0.22403372  1
  O  O13  1  0.52067002  0.72381374  0.22403372  1
  O  O14  1  0.52067002  0.27618626  0.77596628  1
  O  O15  1  0.47932998  0.72381374  0.77596628  1
  O  O16  1  0.22920215  0.47993052  0.28086608  1
  O  O17  1  0.22920215  0.52006948  0.71913392  1
  O  O18  1  0.77079785  0.52006948  0.28086608  1
  O  O19  1  0.77079785  0.47993052  0.71913392  1
  O  O20  1  0.27893743  0.23294815  0.47919215  1
  O  O21  1  0.72106257  0.23294815  0.52080785  1
  O  O22  1  0.27893743  0.76705185  0.52080785  1
  O  O23  1  0.72106257  0.76705185  0.47919215  1
loop_
_geom_bond_atom_site_label_1
_geom_bond_atom_site_label_2
_geom_bond_distance
_geom_bond_site_symmetry_2
Ba0 O9 3.000087 1_454
Ba0 O11 3.000087 1_445
Ba0 O10 3.000087 1_544
Ba0 O8 3.000087 1_555
Ba0 O5 3.027546 1_544
Ba0 O7 3.027546 1_454
Ba0 O6 3.027546 1_445
Ba0 O4 3.027546 1_555
Ba0 O3 3.079097 1_544
Ba0 O1 3.079097 1_445
Ba0 O0 3.079097 1_555
Ba0 O2 3.079097 1_454
Ba1 O23 3.000087 1_555
Ba1 O21 3.000087 1_555
Ba1 O22 3.000087 1_555
Ba1 O20 3.000087 1_555
Ba1 O18 3.027546 1_555
Ba1 O19 3.027546 1_555
Ba1 O16 3.027546 1_555
Ba1 O17 3.027546 1_555
Ba1 O15 3.079097 1_555
Ba1 O14 3.079097 1_555
Ba1 O13 3.079097 1_555
Ba1 O12 3.079097 1_555
Ba2 O16 2.756856 1_555
Ba2 O17 2.756856 1_555
Ba2 O18 2.756856 1_455
Ba2 O19 2.756856 1_455
Ba2 O2 3.076983 1_455
Ba2 O1 3.076983 1_455
Ba2 O0 3.076983 1_555
Ba2 O3 3.076983 1_555
Ba2 O20 3.343515 1_555
Ba2 O22 3.343515 1_555
Ba2 O23 3.343515 1_455
Ba2 O21 3.343515 1_455
Ba3 O7 2.756856 1_554
Ba3 O5 2.756856 1_544
Ba3 O4 2.756856 1_555
Ba3 O6 2.756856 1_545
Ba3 O14 3.076983 1_554
Ba3 O13 3.076983 1_545
Ba3 O15 3.076983 1_544
Ba3 O12 3.076983 1_555
Ba3 O10 3.343515 1_544
Ba3 O8 3.343515 1_555
Ba3 O11 3.343515 1_545
Ba3 O9 3.343515 1_554
Na0 O23 2.781360 1_545
Na0 O21 2.781360 1_555
Na0 O20 2.781360 1_555
Na0 O22 2.781360 1_545
Na1 O12 2.743330 1_555
Na1 O13 2.743330 1_555
Na1 O14 2.743330 1_554
Na1 O15 2.743330 1_554
Na2 O9 2.781360 1_454
Na2 O11 2.781360 1_455
Na2 O8 2.781360 1_555
Na2 O10 2.781360 1_554
Na3 O0 2.743330 1_555
Na3 O2 2.743330 1_455
Na3 O3 2.743330 1_545
Na3 O1 2.743330 1_445
O0 Sb0 2.015206 1_555
O0 Pr3 2.370065 1_455
O1 Sb1 2.015206 1_555
O1 Pr2 2.370065 1_655
O2 Sb2 2.015206 1_555
O2 Pr1 2.370065 1_655
O3 Sb3 2.015206 1_555
O3 Pr0 2.370065 1_455
O4 Sb0 2.006232 1_555
O4 Pr2 2.348045 1_545
O5 Sb3 2.006232 1_555
O5 Pr1 2.348045 1_565
O6 Sb1 2.006232 1_555
O6 Pr3 2.348045 1_565
O7 Sb2 2.006232 1_555
O7 Pr0 2.348045 1_545
O8 Sb0 2.009844 1_555
O8 Pr1 2.367716 1_554
O9 Sb2 2.009844 1_555
O9 Pr3 2.367716 1_556
O10 Sb3 2.009844 1_555
O10 Pr2 2.367716 1_556
O11 Sb1 2.009844 1_555
O11 Pr0 2.367716 1_554
O12 Sb0 2.015206 1_555
O12 Pr3 2.370065 1_555
O13 Sb1 2.015206 1_555
O13 Pr2 2.370065 1_555
O14 Sb2 2.015206 1_555
O14 Pr1 2.370065 1_555
O15 Sb3 2.015206 1_555
O15 Pr0 2.370065 1_555
O16 Sb0 2.006232 1_555
O16 Pr2 2.348045 1_555
O17 Sb3 2.006232 1_555
O17 Pr1 2.348045 1_555
O18 Sb1 2.006232 1_555
O18 Pr3 2.348045 1_555
O19 Sb2 2.006232 1_555
O19 Pr0 2.348045 1_555
O20 Sb0 2.009844 1_555
O20 Pr1 2.367716 1_555
O21 Sb2 2.009844 1_555
O21 Pr3 2.367716 1_555
O22 Sb3 2.009844 1_555
O22 Pr2 2.367716 1_555
O23 Sb1 2.009844 1_555
O23 Pr0 2.367716 1_555
