# generated using pymatgen
data_CsMg6Fe
_symmetry_space_group_name_H-M   'P 1'
_cell_length_a   9.54739497
_cell_length_b   9.54739497
_cell_length_c   4.91987200
_cell_angle_alpha   90.00000000
_cell_angle_beta   90.00000000
_cell_angle_gamma   142.90391004
_symmetry_Int_Tables_number   1
_chemical_formula_structural   CsMg6Fe
_chemical_formula_sum   'Cs1 Mg6 Fe1'
_cell_volume   270.49016306
_cell_formula_units_Z   1
loop_
 _symmetry_equiv_pos_site_id
 _symmetry_equiv_pos_as_xyz
  1  'x, y, z'
loop_
 _atom_site_type_symbol
 _atom_site_label
 _atom_site_symmetry_multiplicity
 _atom_site_fract_x
 _atom_site_fract_y
 _atom_site_fract_z
 _atom_site_occupancy
  Cs  Cs0  1  0.28529800  0.71470200  0.50000000  1
  Mg  Mg0  1  0.32725900  0.19576600  0.50000000  1
  Mg  Mg1  1  0.80423400  0.67274100  0.50000000  1
  Mg  Mg2  1  0.19663500  0.29217500  0.00000000  1
  Mg  Mg3  1  0.70782500  0.80336500  0.00000000  1
  Mg  Mg4  1  0.63040500  0.36959500  0.00000000  1
  Mg  Mg5  1  0.09843600  0.90156400  0.00000000  1
  Fe  Fe0  1  0.94991200  0.05008800  0.50000000  1
loop_
_geom_bond_atom_site_label_1
_geom_bond_atom_site_label_2
_geom_bond_distance
_geom_bond_site_symmetry_2
Cs0 Mg5 4.182620 1_556
Cs0 Mg5 4.182620 1_555
Cs0 Mg3 4.194495 1_555
Cs0 Mg3 4.194495 1_556
Cs0 Mg2 4.194495 1_556
Cs0 Mg2 4.194495 1_555
Cs0 Fe0 4.254869 1_455
Cs0 Fe0 4.254869 1_565
Cs0 Mg1 4.280191 1_455
Cs0 Mg0 4.280191 1_565
Mg0 Mg5 2.987411 1_545
Mg0 Mg5 2.987411 1_546
Mg0 Mg4 3.085413 1_556
Mg0 Mg4 3.085413 1_555
Mg1 Mg5 2.987411 1_655
Mg1 Mg5 2.987411 1_656
Mg1 Mg4 3.085413 1_556
Mg1 Mg4 3.085413 1_555
Mg2 Mg5 3.034660 1_545
Mg3 Mg5 3.034660 1_655
Mg4 Mg5 3.091674 1_655
Mg4 Mg5 3.091674 1_545
Fe0 Mg0 2.630651 1_655
Fe0 Mg1 2.630651 1_545
Fe0 Mg2 2.873477 1_655
Fe0 Mg2 2.873477 1_656
Fe0 Mg3 2.873477 1_545
Fe0 Mg3 2.873477 1_546
