# generated using pymatgen
data_NaSiPCO7
_symmetry_space_group_name_H-M   'P 1'
_cell_length_a   6.03656300
_cell_length_b   5.00815000
_cell_length_c   9.54884149
_cell_angle_alpha   87.08204781
_cell_angle_beta   90.00000000
_cell_angle_gamma   90.00000000
_symmetry_Int_Tables_number   1
_chemical_formula_structural   NaSiPCO7
_chemical_formula_sum   'Na2 Si2 P2 C2 O14'
_cell_volume   288.30641282
_cell_formula_units_Z   2
loop_
 _symmetry_equiv_pos_site_id
 _symmetry_equiv_pos_as_xyz
  1  'x, y, z'
loop_
 _atom_site_type_symbol
 _atom_site_label
 _atom_site_symmetry_multiplicity
 _atom_site_fract_x
 _atom_site_fract_y
 _atom_site_fract_z
 _atom_site_occupancy
  Na  Na0  1  0.55527300  0.77520900  0.80705500  1
  Na  Na1  1  0.05527300  0.22479100  0.19294500  1
  Si  Si0  1  0.23595600  0.22203500  0.64923600  1
  Si  Si1  1  0.73595600  0.77796500  0.35076400  1
  P  P0  1  0.74155100  0.26514300  0.55703500  1
  P  P1  1  0.24155100  0.73485700  0.44296500  1
  C  C0  1  0.25102200  0.29596400  0.88193900  1
  C  C1  1  0.75102200  0.70403600  0.11806100  1
  O  O0  1  0.76158100  0.66252400  0.99291500  1
  O  O1  1  0.24307200  0.05799300  0.82349800  1
  O  O2  1  0.25014000  0.48186200  0.77484400  1
  O  O3  1  0.94226300  0.21599600  0.65352400  1
  O  O4  1  0.54055400  0.20893500  0.65354400  1
  O  O5  1  0.24284500  0.91763100  0.56696200  1
  O  O6  1  0.73789100  0.56269100  0.50219600  1
  O  O7  1  0.23789100  0.43730900  0.49780400  1
  O  O8  1  0.74284500  0.08236900  0.43303800  1
  O  O9  1  0.04055400  0.79106500  0.34645600  1
  O  O10  1  0.44226300  0.78400400  0.34647600  1
  O  O11  1  0.75014000  0.51813800  0.22515600  1
  O  O12  1  0.74307200  0.94200700  0.17650200  1
  O  O13  1  0.26158100  0.33747600  0.00708500  1
loop_
_geom_bond_atom_site_label_1
_geom_bond_atom_site_label_2
_geom_bond_distance
_geom_bond_site_symmetry_2
Na0 O0 2.217485 1_555
Na0 O1 2.367442 1_565
Na0 O2 2.385736 1_555
Na0 O4 2.559442 1_565
Na1 O13 2.217485 1_555
Na1 O12 2.367442 1_445
Na1 O11 2.385736 1_455
Na1 O9 2.559442 1_545
C0 O13 1.224991 1_556
C0 O1 1.342312 1_555
C0 O2 1.347459 1_555
C1 O0 1.224991 1_554
C1 O12 1.342312 1_555
C1 O11 1.347459 1_555
O1 Si0 1.818378 1_555
O2 Si0 1.816061 1_555
O3 P0 1.534404 1_555
O3 Si0 1.773591 1_655
O4 P0 1.540862 1_555
O4 Si0 1.840280 1_555
O5 P1 1.533040 1_555
O5 Si0 1.750706 1_565
O6 P0 1.554298 1_555
O6 Si1 1.759171 1_555
O7 P1 1.554298 1_555
O7 Si0 1.759171 1_555
O8 P0 1.533040 1_555
O8 Si1 1.750706 1_545
O9 P1 1.540862 1_555
O9 Si1 1.840280 1_455
O10 P1 1.534404 1_555
O10 Si1 1.773591 1_555
O11 Si1 1.816061 1_555
O12 Si1 1.818378 1_555
