# generated using pymatgen
data_SrCo3(P2O7)2
_symmetry_space_group_name_H-M   'P 1'
_cell_length_a   7.80851700
_cell_length_b   7.56140900
_cell_length_c   9.61464761
_cell_angle_alpha   68.03045141
_cell_angle_beta   90.00000000
_cell_angle_gamma   90.00000000
_symmetry_Int_Tables_number   1
_chemical_formula_structural   SrCo3(P2O7)2
_chemical_formula_sum   'Sr2 Co6 P8 O28'
_cell_volume   526.45797258
_cell_formula_units_Z   2
loop_
 _symmetry_equiv_pos_site_id
 _symmetry_equiv_pos_as_xyz
  1  'x, y, z'
loop_
 _atom_site_type_symbol
 _atom_site_label
 _atom_site_symmetry_multiplicity
 _atom_site_fract_x
 _atom_site_fract_y
 _atom_site_fract_z
 _atom_site_occupancy
  Sr  Sr0  1  0.50000000  0.00000000  0.50000000  1
  Sr  Sr1  1  0.00000000  0.00000000  0.00000000  1
  Co  Co0  1  0.50000000  0.50000000  0.50000000  1
  Co  Co1  1  0.00000000  0.50000000  0.00000000  1
  Co  Co2  1  0.62489600  0.31388200  0.02758700  1
  Co  Co3  1  0.12489600  0.68611800  0.47241300  1
  Co  Co4  1  0.37510400  0.68611800  0.97241300  1
  Co  Co5  1  0.87510400  0.31388200  0.52758700  1
  P  P0  1  0.20396400  0.38778400  0.30608800  1
  P  P1  1  0.70396400  0.61221600  0.19391200  1
  P  P2  1  0.79603600  0.61221600  0.69391200  1
  P  P3  1  0.29603600  0.38778400  0.80608800  1
  P  P4  1  0.55770000  0.10391100  0.79827600  1
  P  P5  1  0.05770000  0.89608900  0.70172400  1
  P  P6  1  0.44230000  0.89608900  0.20172400  1
  P  P7  1  0.94230000  0.10391100  0.29827600  1
  O  O0  1  0.17985800  0.87656100  0.58458400  1
  O  O1  1  0.67985800  0.12343900  0.91541600  1
  O  O2  1  0.82014200  0.12343900  0.41541600  1
  O  O3  1  0.32014200  0.87656100  0.08458400  1
  O  O4  1  0.62405100  0.65709700  0.61244800  1
  O  O5  1  0.12405100  0.34290300  0.88755200  1
  O  O6  1  0.37594900  0.34290300  0.38755200  1
  O  O7  1  0.87594900  0.65709700  0.11244800  1
  O  O8  1  0.37162500  0.18244300  0.82247000  1
  O  O9  1  0.87162500  0.81755700  0.67753000  1
  O  O10  1  0.62837500  0.81755700  0.17753000  1
  O  O11  1  0.12837500  0.18244300  0.32247000  1
  O  O12  1  0.57766900  0.52663500  0.11341500  1
  O  O13  1  0.07766900  0.47336500  0.38658500  1
  O  O14  1  0.42233100  0.47336500  0.88658500  1
  O  O15  1  0.92233100  0.52663500  0.61341500  1
  O  O16  1  0.61531100  0.22848400  0.63543600  1
  O  O17  1  0.11531100  0.77151600  0.86456400  1
  O  O18  1  0.38468900  0.77151600  0.36456400  1
  O  O19  1  0.88468900  0.22848400  0.13543600  1
  O  O20  1  0.21156600  0.49782200  0.13520000  1
  O  O21  1  0.71156600  0.50217800  0.36480000  1
  O  O22  1  0.78843400  0.50217800  0.86480000  1
  O  O23  1  0.28843400  0.49782200  0.63520000  1
  O  O24  1  0.51771900  0.90195300  0.80659400  1
  O  O25  1  0.01771900  0.09804700  0.69340600  1
  O  O26  1  0.48228100  0.09804700  0.19340600  1
  O  O27  1  0.98228100  0.90195300  0.30659400  1
loop_
_geom_bond_atom_site_label_1
_geom_bond_atom_site_label_2
_geom_bond_distance
_geom_bond_site_symmetry_2
Co0 O21 2.098369 1_555
Co0 O23 2.098369 1_555
Co0 O4 2.116399 1_555
Co0 O6 2.116399 1_555
Co0 O16 2.172797 1_555
Co0 O18 2.172797 1_555
Co1 O20 2.098369 1_555
Co1 O22 2.098369 1_454
Co1 O7 2.116399 1_455
Co1 O5 2.116399 1_554
Co1 O17 2.172797 1_554
Co1 O19 2.172797 1_455
Co2 O12 2.097189 1_555
Co2 O22 2.107168 1_554
Co2 O26 2.120979 1_555
Co2 O14 2.137933 1_554
Co2 O1 2.140792 1_554
Co2 O19 2.259736 1_555
Co3 O13 2.097189 1_555
Co3 O23 2.107168 1_555
Co3 O27 2.120979 1_455
Co3 O15 2.137933 1_455
Co3 O0 2.140792 1_555
Co3 O18 2.259736 1_555
Co4 O14 2.097189 1_555
Co4 O20 2.107168 1_556
Co4 O24 2.120979 1_555
Co4 O12 2.137933 1_556
Co4 O3 2.140792 1_556
Co4 O17 2.259736 1_555
Co5 O15 2.097189 1_555
Co5 O21 2.107168 1_555
Co5 O25 2.120979 1_655
Co5 O13 2.137933 1_655
Co5 O2 2.140792 1_555
Co5 O16 2.259736 1_555
O0 P5 1.524654 1_555
O0 Sr0 2.685847 1_565
O1 P4 1.524654 1_555
O1 Sr1 2.685847 1_656
O2 P7 1.524654 1_555
O2 Sr0 2.685847 1_555
O3 P6 1.524654 1_555
O3 Sr1 2.685847 1_565
O4 P2 1.527505 1_555
O4 Sr0 2.594703 1_565
O5 P3 1.527505 1_555
O5 Sr1 2.594703 1_556
O6 P0 1.527505 1_555
O6 Sr0 2.594703 1_555
O7 P1 1.527505 1_555
O7 Sr1 2.594703 1_665
O8 P3 1.612756 1_555
O8 P4 1.619012 1_555
O9 P2 1.612756 1_555
O9 P5 1.619012 1_655
O10 P1 1.612756 1_555
O10 P6 1.619012 1_555
O11 P0 1.612756 1_555
O11 P7 1.619012 1_455
O12 P1 1.537867 1_555
O13 P0 1.537867 1_555
O14 P3 1.537867 1_555
O15 P2 1.537867 1_555
O16 P4 1.561230 1_555
O16 Sr0 2.678523 1_555
O17 P5 1.561230 1_555
O17 Sr1 2.678523 1_566
O18 P6 1.561230 1_555
O18 Sr0 2.678523 1_565
O19 P7 1.561230 1_555
O19 Sr1 2.678523 1_655
O20 P0 1.540286 1_555
O21 P1 1.540286 1_555
O22 P2 1.540286 1_555
O23 P3 1.540286 1_555
O24 P4 1.531168 1_565
O24 Sr0 2.760992 1_565
O25 P5 1.531168 1_545
O25 Sr1 2.760992 1_556
O26 P6 1.531168 1_545
O26 Sr0 2.760992 1_555
O27 P7 1.531168 1_565
O27 Sr1 2.760992 1_665
