# generated using pymatgen
data_Ba2Tl2Co3O10
_symmetry_space_group_name_H-M   'P 1'
_cell_length_a   3.69548200
_cell_length_b   3.69698200
_cell_length_c   19.81796590
_cell_angle_alpha   93.48593668
_cell_angle_beta   94.68712156
_cell_angle_gamma   90.00164279
_symmetry_Int_Tables_number   1
_chemical_formula_structural   Ba2Tl2Co3O10
_chemical_formula_sum   'Ba2 Tl2 Co3 O10'
_cell_volume   269.34748067
_cell_formula_units_Z   1
loop_
 _symmetry_equiv_pos_site_id
 _symmetry_equiv_pos_as_xyz
  1  'x, y, z'
loop_
 _atom_site_type_symbol
 _atom_site_label
 _atom_site_symmetry_multiplicity
 _atom_site_fract_x
 _atom_site_fract_y
 _atom_site_fract_z
 _atom_site_occupancy
  Ba  Ba0  1  0.10706200  0.16751600  0.28218200  1
  Ba  Ba1  1  0.80273500  0.82403800  0.71684700  1
  Tl  Tl0  1  0.67839100  0.72483900  0.43798200  1
  Tl  Tl1  1  0.23417400  0.26866700  0.56101500  1
  Co  Co0  1  0.35161200  0.36366800  0.83254700  1
  Co  Co1  1  0.55237700  0.62862000  0.16889300  1
  Co  Co2  1  0.40704800  0.52484000  0.00033400  1
  O  O0  1  0.34455400  0.85666400  0.81755100  1
  O  O1  1  0.28380800  0.30610900  0.66480300  1
  O  O2  1  0.84532500  0.35840900  0.81897400  1
  O  O3  1  0.76079500  0.76222200  0.54515200  1
  O  O4  1  0.90901800  0.52863200  0.00436300  1
  O  O5  1  0.06127700  0.63428800  0.18656300  1
  O  O6  1  0.63425500  0.68630700  0.33431700  1
  O  O7  1  0.55463900  0.13015000  0.17390100  1
  O  O8  1  0.22016700  0.23022400  0.45363200  1
  O  O9  1  0.40322700  0.02351200  0.99399600  1
loop_
_geom_bond_atom_site_label_1
_geom_bond_atom_site_label_2
_geom_bond_distance
_geom_bond_site_symmetry_2
Ba0 O5 2.634899 1_555
Ba0 O5 2.645565 1_545
Ba0 O6 2.793511 1_445
Ba0 O6 2.802360 1_455
Ba0 O7 2.811370 1_555
Ba0 O6 2.814747 1_545
Ba0 O6 2.823391 1_555
Ba0 O7 2.835417 1_455
Ba0 O8 3.383124 1_555
Ba1 O0 2.706351 1_655
Ba1 O0 2.717992 1_555
Ba1 O2 2.730582 1_555
Ba1 O2 2.735994 1_565
Ba1 O1 2.796080 1_565
Ba1 O1 2.800724 1_555
Ba1 O1 2.814897 1_665
Ba1 O1 2.819649 1_655
Ba1 O3 3.387254 1_555
Co0 O0 1.864261 1_555
Co0 O2 1.865780 1_555
Co0 O2 1.868259 1_455
Co0 O0 1.879710 1_545
Co1 O7 1.850748 1_565
Co1 O7 1.851504 1_555
Co1 O5 1.876093 1_555
Co1 O5 1.884494 1_655
Co2 O4 1.848716 1_455
Co2 O9 1.849992 1_554
Co2 O4 1.850225 1_555
Co2 O9 1.855435 1_564
O1 Tl1 2.046271 1_555
O3 Tl0 2.116920 1_555
O3 Tl1 2.543337 1_655
O3 Tl1 2.550105 1_665
O3 Tl1 2.717562 1_555
O3 Tl1 2.724041 1_565
O6 Tl0 2.043825 1_555
O8 Tl1 2.120603 1_555
O8 Tl0 2.542045 1_555
O8 Tl0 2.543642 1_545
O8 Tl0 2.723252 1_455
O8 Tl0 2.724599 1_445
