# generated using pymatgen
data_MnCdCu4(GeSe4)2
_symmetry_space_group_name_H-M   'P 1'
_cell_length_a   6.63714415
_cell_length_b   6.91604877
_cell_length_c   8.13552300
_cell_angle_alpha   90.00000000
_cell_angle_beta   90.00000000
_cell_angle_gamma   90.21971740
_symmetry_Int_Tables_number   1
_chemical_formula_structural   MnCdCu4(GeSe4)2
_chemical_formula_sum   'Mn1 Cd1 Cu4 Ge2 Se8'
_cell_volume   373.44064187
_cell_formula_units_Z   1
loop_
 _symmetry_equiv_pos_site_id
 _symmetry_equiv_pos_as_xyz
  1  'x, y, z'
loop_
 _atom_site_type_symbol
 _atom_site_label
 _atom_site_symmetry_multiplicity
 _atom_site_fract_x
 _atom_site_fract_y
 _atom_site_fract_z
 _atom_site_occupancy
  Mn  Mn0  1  0.30327300  0.34033500  0.00000000  1
  Cd  Cd0  1  0.80400900  0.65986300  0.50000000  1
  Cu  Cu0  1  0.30383100  0.82493800  0.24784700  1
  Cu  Cu1  1  0.30383100  0.82493800  0.75215300  1
  Cu  Cu2  1  0.80051100  0.17700400  0.24770100  1
  Cu  Cu3  1  0.80051100  0.17700400  0.75229900  1
  Ge  Ge0  1  0.30755200  0.32306600  0.50000000  1
  Ge  Ge1  1  0.80738900  0.67334100  0.00000000  1
  Se  Se0  1  0.43526700  0.15755400  0.25534000  1
  Se  Se1  1  0.43526700  0.15755400  0.74466000  1
  Se  Se2  1  0.93892900  0.85051000  0.23410900  1
  Se  Se3  1  0.93892900  0.85051000  0.76589100  1
  Se  Se4  1  0.94105600  0.29806600  0.50000000  1
  Se  Se5  1  0.43806300  0.68300300  0.00000000  1
  Se  Se6  1  0.40116600  0.66347500  0.50000000  1
  Se  Se7  1  0.92041500  0.33883900  0.00000000  1
loop_
_geom_bond_atom_site_label_1
_geom_bond_atom_site_label_2
_geom_bond_distance
_geom_bond_site_symmetry_2
Mn0 Se5 2.529931 1_555
Mn0 Se7 2.541065 1_455
Mn0 Se1 2.586361 1_554
Mn0 Se0 2.586361 1_555
Cd0 Se4 2.665682 1_555
Cd0 Se6 2.673940 1_555
Cd0 Se3 2.685258 1_555
Cd0 Se2 2.685258 1_555
Cu0 Se5 2.414491 1_555
Cu0 Se6 2.424479 1_555
Cu0 Se2 2.431602 1_455
Cu0 Se0 2.457870 1_565
Cu1 Se5 2.414491 1_556
Cu1 Se6 2.424479 1_555
Cu1 Se3 2.431602 1_455
Cu1 Se1 2.457870 1_565
Cu2 Se4 2.403806 1_555
Cu2 Se0 2.428187 1_555
Cu2 Se7 2.437248 1_555
Cu2 Se2 2.443549 1_545
Cu3 Se4 2.403806 1_555
Cu3 Se1 2.428187 1_555
Cu3 Se7 2.437248 1_556
Cu3 Se3 2.443549 1_545
Ge0 Se6 2.432589 1_555
Ge0 Se4 2.437962 1_455
Ge0 Se0 2.449107 1_555
Ge0 Se1 2.449107 1_555
Ge1 Se2 2.425468 1_555
Ge1 Se3 2.425468 1_554
Ge1 Se7 2.434755 1_555
Ge1 Se5 2.452437 1_555
