# generated using pymatgen
data_Tl4AuSe3
_symmetry_space_group_name_H-M   'P 1'
_cell_length_a   8.41988800
_cell_length_b   8.55067337
_cell_length_c   8.41988800
_cell_angle_alpha   119.49531133
_cell_angle_beta   90.00000000
_cell_angle_gamma   119.49531133
_symmetry_Int_Tables_number   1
_chemical_formula_structural   Tl4AuSe3
_chemical_formula_sum   'Tl8 Au2 Se6'
_cell_volume   435.10267272
_cell_formula_units_Z   2
loop_
 _symmetry_equiv_pos_site_id
 _symmetry_equiv_pos_as_xyz
  1  'x, y, z'
loop_
 _atom_site_type_symbol
 _atom_site_label
 _atom_site_symmetry_multiplicity
 _atom_site_fract_x
 _atom_site_fract_y
 _atom_site_fract_z
 _atom_site_occupancy
  Tl  Tl0  1  0.49851900  0.69594700  0.69742800  1
  Tl  Tl1  1  0.19742800  0.69594700  0.99851900  1
  Tl  Tl2  1  0.69742800  0.69594700  0.19742800  1
  Tl  Tl3  1  0.99851900  0.69594700  0.49851900  1
  Tl  Tl4  1  0.50148100  0.30405300  0.30257200  1
  Tl  Tl5  1  0.80257200  0.30405300  0.00148100  1
  Tl  Tl6  1  0.30257200  0.30405300  0.80257200  1
  Tl  Tl7  1  0.00148100  0.30405300  0.50148100  1
  Au  Au0  1  0.00000000  0.00000000  0.00000000  1
  Au  Au1  1  0.50000000  0.00000000  0.50000000  1
  Se  Se0  1  0.75000000  0.50000000  0.75000000  1
  Se  Se1  1  0.25000000  0.50000000  0.25000000  1
  Se  Se2  1  0.83887100  0.00000000  0.66112900  1
  Se  Se3  1  0.16112900  0.00000000  0.33887100  1
  Se  Se4  1  0.66112900  0.00000000  0.16112900  1
  Se  Se5  1  0.33887100  0.00000000  0.83887100  1
loop_
_geom_bond_atom_site_label_1
_geom_bond_atom_site_label_2
_geom_bond_distance
_geom_bond_site_symmetry_2
Au0 Se0 3.068662 1_444
Au0 Se1 3.068662 1_555
Au0 Se3 3.159378 1_555
Au0 Se4 3.159378 1_455
Au0 Se5 3.159378 1_554
Au0 Se2 3.159378 1_454
Au1 Se0 3.068662 1_555
Au1 Se1 3.068662 1_545
Au1 Se2 3.159378 1_555
Au1 Se5 3.159378 1_555
Au1 Se3 3.159378 1_555
Au1 Se4 3.159378 1_555
Se0 Tl3 3.422061 1_555
Se0 Tl1 3.422061 1_655
Se0 Tl4 3.422061 1_555
Se0 Tl6 3.422061 1_555
Se0 Tl2 3.422061 1_556
Se0 Tl0 3.422061 1_555
Se0 Tl7 3.422061 1_655
Se0 Tl5 3.422061 1_556
Se1 Tl2 3.422061 1_555
Se1 Tl0 3.422061 1_555
Se1 Tl5 3.422061 1_455
Se1 Tl6 3.422061 1_554
Se1 Tl7 3.422061 1_555
Se1 Tl3 3.422061 1_455
Se1 Tl1 3.422061 1_554
Se1 Tl4 3.422061 1_555
Se2 Tl0 2.917359 1_545
Se2 Tl5 2.917359 1_556
Se2 Tl7 3.221324 1_655
Se2 Tl2 3.221324 1_545
Se2 Tl3 3.221324 1_545
Se2 Tl6 3.221324 1_655
Se3 Tl4 2.917359 1_555
Se3 Tl1 2.917359 1_544
Se3 Tl7 3.221324 1_555
Se3 Tl6 3.221324 1_555
Se3 Tl3 3.221324 1_445
Se3 Tl2 3.221324 1_445
Se4 Tl2 2.917359 1_545
Se4 Tl7 2.917359 1_655
Se4 Tl4 3.221324 1_555
Se4 Tl5 3.221324 1_555
Se4 Tl1 3.221324 1_544
Se4 Tl0 3.221324 1_544
Se5 Tl6 2.917359 1_555
Se5 Tl3 2.917359 1_445
Se5 Tl5 3.221324 1_556
Se5 Tl1 3.221324 1_545
Se5 Tl0 3.221324 1_545
Se5 Tl4 3.221324 1_556
