# generated using pymatgen
data_La3VH3O8
_symmetry_space_group_name_H-M   'P 1'
_cell_length_a   5.74534939
_cell_length_b   6.40913720
_cell_length_c   10.79754700
_cell_angle_alpha   89.99964205
_cell_angle_beta   89.99961640
_cell_angle_gamma   104.42233849
_symmetry_Int_Tables_number   1
_chemical_formula_structural   La3VH3O8
_chemical_formula_sum   'La6 V2 H6 O16'
_cell_volume   385.06542139
_cell_formula_units_Z   2
loop_
 _symmetry_equiv_pos_site_id
 _symmetry_equiv_pos_as_xyz
  1  'x, y, z'
loop_
 _atom_site_type_symbol
 _atom_site_label
 _atom_site_symmetry_multiplicity
 _atom_site_fract_x
 _atom_site_fract_y
 _atom_site_fract_z
 _atom_site_occupancy
  La  La0  1  0.77530000  0.80139300  0.75000200  1
  La  La1  1  0.22476900  0.19861700  0.25000600  1
  La  La2  1  0.68813800  0.30291400  0.54238100  1
  La  La3  1  0.31186200  0.69709300  0.04227400  1
  La  La4  1  0.31187800  0.69708800  0.45772200  1
  La  La5  1  0.68811700  0.30290700  0.95761800  1
  V  V0  1  0.80823000  0.53009000  0.25000000  1
  V  V1  1  0.19172600  0.46987000  0.75000000  1
  H  H0  1  0.37518400  0.09389000  0.74999400  1
  H  H1  1  0.62475300  0.90608300  0.25000100  1
  H  H2  1  0.84370800  0.90202100  0.46043400  1
  H  H3  1  0.15624300  0.09802300  0.96040400  1
  H  H4  1  0.15627900  0.09802700  0.53962400  1
  H  H5  1  0.84367500  0.90201300  0.03959100  1
  O  O0  1  0.06369000  0.19285100  0.74993700  1
  O  O1  1  0.93634600  0.80714300  0.24994500  1
  O  O2  1  0.54667600  0.09615200  0.75000800  1
  O  O3  1  0.45326100  0.90383200  0.25000400  1
  O  O4  1  0.00881900  0.59380200  0.62762500  1
  O  O5  1  0.99119800  0.40622400  0.12758000  1
  O  O6  1  0.99117400  0.40624600  0.37242600  1
  O  O7  1  0.00885400  0.59378000  0.87240300  1
  O  O8  1  0.45852600  0.54144800  0.63204600  1
  O  O9  1  0.54152300  0.45852000  0.13203700  1
  O  O10  1  0.54157500  0.45852200  0.36796800  1
  O  O11  1  0.45847500  0.54146200  0.86797400  1
  O  O12  1  0.73370800  0.93244600  0.52272400  1
  O  O13  1  0.26630100  0.06755000  0.02263500  1
  O  O14  1  0.26628400  0.06754100  0.47736200  1
  O  O15  1  0.73372800  0.93245100  0.97727400  1
loop_
_geom_bond_atom_site_label_1
_geom_bond_atom_site_label_2
_geom_bond_distance
_geom_bond_site_symmetry_2
La0 O8 2.489929 1_555
La0 O11 2.490116 1_555
La0 O4 2.491065 1_655
La0 O7 2.491432 1_655
La0 O2 2.555452 1_565
La0 O15 2.623846 1_555
La0 O12 2.623908 1_555
La0 O0 2.639922 1_665
La1 O9 2.489782 1_555
La1 O10 2.489941 1_555
La1 O5 2.491615 1_455
La1 O6 2.491767 1_455
La1 O3 2.555067 1_545
La1 O14 2.624671 1_555
La1 O13 2.624826 1_555
La1 O1 2.640078 1_445
La2 O10 2.380879 1_555
La2 O4 2.450811 1_655
La2 O8 2.453464 1_555
La2 O12 2.461899 1_545
La2 O6 2.502599 1_555
La2 O14 2.611820 1_555
La2 O2 2.627928 1_555
La3 O11 2.380121 1_554
La3 O5 2.450920 1_455
La3 O9 2.454265 1_555
La3 O13 2.461793 1_565
La3 O7 2.501844 1_554
La3 O15 2.611772 1_554
La3 O3 2.628771 1_555
La4 O8 2.380447 1_555
La4 O6 2.450928 1_455
La4 O10 2.454337 1_555
La4 O14 2.461836 1_565
La4 O4 2.502243 1_555
La4 O12 2.611629 1_555
La4 O3 2.628634 1_555
La5 O9 2.381029 1_556
La5 O7 2.450802 1_655
La5 O11 2.453595 1_555
La5 O15 2.461902 1_545
La5 O5 2.502831 1_556
La5 O13 2.611594 1_556
La5 O2 2.627753 1_555
H0 O2 0.981771 1_555
H1 O3 0.981788 1_555
H2 O12 0.975285 1_555
H3 O13 0.975194 1_556
H4 O14 0.975238 1_555
H5 O15 0.975308 1_554
O0 V1 1.744354 1_555
O1 V0 1.744630 1_555
O4 V1 1.974079 1_555
O5 V0 1.974397 1_555
O6 V0 1.974281 1_555
O7 V1 1.974076 1_555
O8 V1 1.957519 1_555
O9 V0 1.957210 1_555
O10 V0 1.957011 1_555
O11 V1 1.957468 1_555
