# generated using pymatgen
data_TbYNi4(B2C)2
_symmetry_space_group_name_H-M   'P 1'
_cell_length_a   3.53943600
_cell_length_b   3.53943600
_cell_length_c   10.45541000
_cell_angle_alpha   90.00000000
_cell_angle_beta   90.00000000
_cell_angle_gamma   90.00000000
_symmetry_Int_Tables_number   1
_chemical_formula_structural   TbYNi4(B2C)2
_chemical_formula_sum   'Tb1 Y1 Ni4 B4 C2'
_cell_volume   130.98126958
_cell_formula_units_Z   1
loop_
 _symmetry_equiv_pos_site_id
 _symmetry_equiv_pos_as_xyz
  1  'x, y, z'
loop_
 _atom_site_type_symbol
 _atom_site_label
 _atom_site_symmetry_multiplicity
 _atom_site_fract_x
 _atom_site_fract_y
 _atom_site_fract_z
 _atom_site_occupancy
  Tb  Tb0  1  0.00000000  0.00000000  0.50000000  1
  Y  Y0  1  0.50000000  0.50000000  0.00000000  1
  Ni  Ni0  1  0.00000000  0.50000000  0.24998300  1
  Ni  Ni1  1  0.50000000  0.00000000  0.75001700  1
  Ni  Ni2  1  0.50000000  0.00000000  0.24998300  1
  Ni  Ni3  1  0.00000000  0.50000000  0.75001700  1
  B  B0  1  0.50000000  0.50000000  0.35749700  1
  B  B1  1  0.00000000  0.00000000  0.85748100  1
  B  B2  1  0.00000000  0.00000000  0.14251900  1
  B  B3  1  0.50000000  0.50000000  0.64250300  1
  C  C0  1  0.00000000  0.00000000  0.00000000  1
  C  C1  1  0.50000000  0.50000000  0.50000000  1
loop_
_geom_bond_atom_site_label_1
_geom_bond_atom_site_label_2
_geom_bond_distance
_geom_bond_site_symmetry_2
B0 C1 1.489927 1_555
B0 Ni0 2.096547 1_655
B0 Ni2 2.096547 1_555
B0 Ni2 2.096547 1_565
B0 Ni0 2.096547 1_555
B1 C0 1.490095 1_556
B1 Ni1 2.096267 1_555
B1 Ni1 2.096267 1_455
B1 Ni3 2.096267 1_545
B1 Ni3 2.096267 1_555
B2 C0 1.490095 1_555
B2 Ni0 2.096267 1_545
B2 Ni2 2.096267 1_455
B2 Ni2 2.096267 1_555
B2 Ni0 2.096267 1_555
B3 C1 1.489927 1_555
B3 Ni3 2.096547 1_555
B3 Ni1 2.096547 1_555
B3 Ni3 2.096547 1_655
B3 Ni1 2.096547 1_565
C0 Y0 2.502759 1_445
C0 Y0 2.502759 1_545
C0 Y0 2.502759 1_555
C0 Y0 2.502759 1_455
C1 Tb0 2.502759 1_565
C1 Tb0 2.502759 1_665
C1 Tb0 2.502759 1_655
C1 Tb0 2.502759 1_555
