# generated using pymatgen
data_Rb8Ta6O23
_symmetry_space_group_name_H-M   'P 1'
_cell_length_a   9.83380231
_cell_length_b   9.83380231
_cell_length_c   14.69204050
_cell_angle_alpha   89.61378312
_cell_angle_beta   89.61378312
_cell_angle_gamma   100.79872208
_symmetry_Int_Tables_number   1
_chemical_formula_structural   Rb8Ta6O23
_chemical_formula_sum   'Rb16 Ta12 O46'
_cell_volume   1395.53628909
_cell_formula_units_Z   2
loop_
 _symmetry_equiv_pos_site_id
 _symmetry_equiv_pos_as_xyz
  1  'x, y, z'
loop_
 _atom_site_type_symbol
 _atom_site_label
 _atom_site_symmetry_multiplicity
 _atom_site_fract_x
 _atom_site_fract_y
 _atom_site_fract_z
 _atom_site_occupancy
  Rb  Rb0  1  0.16151500  0.83848500  0.25000000  1
  Rb  Rb1  1  0.83848500  0.16151500  0.75000000  1
  Rb  Rb2  1  0.65201400  0.34798600  0.25000000  1
  Rb  Rb3  1  0.34798600  0.65201400  0.75000000  1
  Rb  Rb4  1  0.03742400  0.88727000  0.62268800  1
  Rb  Rb5  1  0.11273000  0.96257600  0.87731200  1
  Rb  Rb6  1  0.96257600  0.11273000  0.37731200  1
  Rb  Rb7  1  0.88727000  0.03742400  0.12268800  1
  Rb  Rb8  1  0.27260900  0.45383600  0.31823200  1
  Rb  Rb9  1  0.54616400  0.72739100  0.18176800  1
  Rb  Rb10  1  0.72739100  0.54616400  0.68176800  1
  Rb  Rb11  1  0.45383600  0.27260900  0.81823200  1
  Rb  Rb12  1  0.88285600  0.57582300  0.41513000  1
  Rb  Rb13  1  0.42417700  0.11714400  0.08487000  1
  Rb  Rb14  1  0.11714400  0.42417700  0.58487000  1
  Rb  Rb15  1  0.57582300  0.88285600  0.91513000  1
  Ta  Ta0  1  0.20092300  0.67602100  0.02956000  1
  Ta  Ta1  1  0.32397900  0.79907700  0.47044000  1
  Ta  Ta2  1  0.79907700  0.32397900  0.97044000  1
  Ta  Ta3  1  0.67602100  0.20092300  0.52956000  1
  Ta  Ta4  1  0.85376500  0.66840300  0.02772300  1
  Ta  Ta5  1  0.33159700  0.14623500  0.47227700  1
  Ta  Ta6  1  0.14623500  0.33159700  0.97227700  1
  Ta  Ta7  1  0.66840300  0.85376500  0.52772300  1
  Ta  Ta8  1  0.98884900  0.43960700  0.15698100  1
  Ta  Ta9  1  0.56039300  0.01115100  0.34301900  1
  Ta  Ta10  1  0.01115100  0.56039300  0.84301900  1
  Ta  Ta11  1  0.43960700  0.98884900  0.65698100  1
  O  O0  1  0.18830000  0.65187900  0.44617500  1
  O  O1  1  0.34812100  0.81170000  0.05382500  1
  O  O2  1  0.81170000  0.34812100  0.55382500  1
  O  O3  1  0.65187900  0.18830000  0.94617500  1
  O  O4  1  0.79546100  0.74591400  0.54779300  1
  O  O5  1  0.25408600  0.20453900  0.95220700  1
  O  O6  1  0.20453900  0.25408600  0.45220700  1
  O  O7  1  0.74591400  0.79546100  0.04779300  1
  O  O8  1  0.97287800  0.39178900  0.27678100  1
  O  O9  1  0.60821100  0.02712200  0.22321900  1
  O  O10  1  0.02712200  0.60821100  0.72321900  1
  O  O11  1  0.39178900  0.97287800  0.77678100  1
  O  O12  1  0.04393700  0.77838700  0.04764500  1
  O  O13  1  0.22161300  0.95606300  0.45235500  1
  O  O14  1  0.95606300  0.22161300  0.95235500  1
  O  O15  1  0.77838700  0.04393700  0.54764500  1
  O  O16  1  0.15534200  0.59053200  0.15368100  1
  O  O17  1  0.40946800  0.84465800  0.34631900  1
  O  O18  1  0.84465800  0.40946800  0.84631900  1
  O  O19  1  0.59053200  0.15534200  0.65368100  1
  O  O20  1  0.71548000  0.49288900  0.99970600  1
  O  O21  1  0.50711100  0.28452000  0.50029400  1
  O  O22  1  0.28452000  0.50711100  0.00029400  1
  O  O23  1  0.49288900  0.71548000  0.49970600  1
  O  O24  1  0.86564700  0.58164100  0.15111300  1
  O  O25  1  0.41835900  0.13435300  0.34888700  1
  O  O26  1  0.13435300  0.41835900  0.84888700  1
  O  O27  1  0.58164100  0.86564700  0.65111300  1
  O  O28  1  0.82612300  0.30816500  0.10402500  1
  O  O29  1  0.69183500  0.17387700  0.39597500  1
  O  O30  1  0.17387700  0.69183500  0.89597500  1
  O  O31  1  0.30816500  0.82612300  0.60402500  1
  O  O32  1  0.10674200  0.31105400  0.10650600  1
  O  O33  1  0.68894600  0.89325800  0.39349400  1
  O  O34  1  0.89325800  0.68894600  0.89349400  1
  O  O35  1  0.31105400  0.10674200  0.60650600  1
  O  O36  1  0.00000000  0.50000000  0.00000000  1
  O  O37  1  0.50000000  0.00000000  0.50000000  1
  O  O38  1  0.47206200  0.43550700  0.11238700  1
  O  O39  1  0.56449300  0.52793800  0.38761300  1
  O  O40  1  0.52793800  0.56449300  0.88761300  1
  O  O41  1  0.43550700  0.47206200  0.61238700  1
  O  O42  1  0.87369300  0.81765600  0.28141500  1
  O  O43  1  0.18234400  0.12630700  0.21858500  1
  O  O44  1  0.12630700  0.18234400  0.71858500  1
  O  O45  1  0.81765600  0.87369300  0.78141500  1
loop_
_geom_bond_atom_site_label_1
_geom_bond_atom_site_label_2
_geom_bond_distance
_geom_bond_site_symmetry_2
O0 Ta1 1.814458 1_555
O0 Rb8 2.940579 1_555
O0 Rb12 2.995122 1_455
O0 Rb14 2.997992 1_555
O0 Rb0 3.444411 1_555
O1 Ta0 1.814458 1_555
O1 Rb9 2.940579 1_555
O1 Rb13 2.995122 1_565
O1 Rb15 2.997992 1_554
O1 Rb0 3.444411 1_555
O2 Ta3 1.814458 1_555
O2 Rb10 2.940579 1_555
O2 Rb14 2.995122 1_655
O2 Rb12 2.997992 1_555
O2 Rb1 3.444411 1_555
O3 Ta2 1.814458 1_555
O3 Rb11 2.940579 1_555
O3 Rb15 2.995122 1_545
O3 Rb13 2.997992 1_556
O3 Rb1 3.444411 1_555
O4 Ta7 1.808387 1_555
O4 Rb10 2.760150 1_555
O4 Rb4 2.760655 1_655
O4 Rb12 2.809862 1_555
O5 Ta6 1.808387 1_555
O5 Rb11 2.760150 1_555
O5 Rb5 2.760655 1_545
O5 Rb13 2.809862 1_556
O6 Ta5 1.808387 1_555
O6 Rb8 2.760150 1_555
O6 Rb6 2.760655 1_455
O6 Rb14 2.809862 1_555
O7 Ta4 1.808387 1_555
O7 Rb9 2.760150 1_555
O7 Rb7 2.760655 1_565
O7 Rb15 2.809862 1_554
O8 Ta8 1.816921 1_555
O8 Rb8 2.964153 1_655
O8 Rb12 2.969199 1_555
O8 Rb6 3.092195 1_555
O8 Rb2 3.131467 1_555
O9 Ta9 1.816921 1_555
O9 Rb9 2.964153 1_545
O9 Rb13 2.969199 1_555
O9 Rb7 3.092195 1_555
O9 Rb2 3.131467 1_555
O10 Ta10 1.816921 1_555
O10 Rb10 2.964153 1_455
O10 Rb14 2.969199 1_555
O10 Rb4 3.092195 1_555
O10 Rb3 3.131467 1_555
O11 Ta11 1.816921 1_555
O11 Rb11 2.964153 1_565
O11 Rb15 2.969199 1_555
O11 Rb5 3.092195 1_555
O11 Rb3 3.131467 1_555
O12 Ta4 2.001623 1_455
O12 Ta0 2.011855 1_555
O12 Rb5 3.075385 1_554
O12 Rb0 3.215417 1_555
O12 Rb7 3.400515 1_465
O13 Ta5 2.001623 1_565
O13 Ta1 2.011855 1_555
O13 Rb4 3.075385 1_555
O13 Rb0 3.215417 1_555
O13 Rb6 3.400515 1_465
O14 Ta6 2.001623 1_655
O14 Ta2 2.011855 1_555
O14 Rb7 3.075385 1_556
O14 Rb1 3.215417 1_555
O14 Rb5 3.400515 1_645
O15 Ta7 2.001623 1_545
O15 Ta3 2.011855 1_555
O15 Rb6 3.075385 1_555
O15 Rb1 3.215417 1_555
O15 Rb4 3.400515 1_645
O16 Ta8 1.993270 1_455
O16 Ta0 2.015007 1_555
O16 Rb0 2.818488 1_555
O16 Rb8 3.091310 1_555
O17 Ta9 1.993270 1_565
O17 Ta1 2.015007 1_555
O17 Rb0 2.818488 1_555
O17 Rb9 3.091310 1_555
O18 Ta10 1.993270 1_655
O18 Ta2 2.015007 1_555
O18 Rb1 2.818488 1_555
O18 Rb10 3.091310 1_555
O19 Ta11 1.993270 1_545
O19 Ta3 2.015007 1_555
O19 Rb1 2.818488 1_555
O19 Rb11 3.091310 1_555
O20 Ta4 2.033537 1_556
O20 Ta2 2.033775 1_555
O21 Ta5 2.033537 1_555
O21 Ta3 2.033775 1_555
O22 Ta6 2.033537 1_554
O22 Ta0 2.033775 1_555
O23 Ta7 2.033537 1_555
O23 Ta1 2.033775 1_555
O24 Ta4 2.011813 1_555
O24 Ta8 2.014950 1_555
O24 Rb2 3.147823 1_555
O25 Ta5 2.011813 1_555
O25 Ta9 2.014950 1_555
O25 Rb2 3.147823 1_555
O26 Ta6 2.011813 1_555
O26 Ta10 2.014950 1_555
O26 Rb3 3.147823 1_555
O27 Ta7 2.011813 1_555
O27 Ta11 2.014950 1_555
O27 Rb3 3.147823 1_555
O28 Ta2 1.991302 1_554
O28 Ta8 2.022881 1_555
O28 Rb2 2.810246 1_555
O28 Rb7 2.849119 1_555
O29 Ta3 1.991302 1_555
O29 Ta9 2.022881 1_555
O29 Rb2 2.810246 1_555
O29 Rb6 2.849119 1_555
O30 Ta0 1.991302 1_556
O30 Ta10 2.022881 1_555
O30 Rb3 2.810246 1_555
O30 Rb5 2.849119 1_555
O31 Ta1 1.991302 1_555
O31 Ta11 2.022881 1_555
O31 Rb3 2.810246 1_555
O31 Rb4 2.849119 1_555
O32 Ta6 2.008909 1_554
O32 Ta8 2.010559 1_455
O32 Rb7 3.124639 1_455
O33 Ta7 2.008909 1_555
O33 Ta9 2.010559 1_565
O33 Rb6 3.124639 1_565
O34 Ta4 2.008909 1_556
O34 Ta10 2.010559 1_655
O34 Rb5 3.124639 1_655
O35 Ta5 2.008909 1_555
O35 Ta11 2.010559 1_545
O35 Rb4 3.124639 1_545
O36 Ta8 2.374406 1_455
O36 Ta10 2.374406 1_554
O36 Ta0 2.414309 1_555
O36 Ta2 2.414309 1_454
O36 Ta4 2.422793 1_455
O36 Ta6 2.422793 1_554
O37 Ta11 2.374406 1_545
O37 Ta9 2.374406 1_555
O37 Ta3 2.414309 1_555
O37 Ta1 2.414309 1_545
O37 Ta7 2.422793 1_545
O37 Ta5 2.422793 1_555
O38 Rb2 2.924978 1_555
O38 Rb9 3.012401 1_555
O38 Rb13 3.107055 1_555
O39 Rb2 2.924978 1_555
O39 Rb8 3.012401 1_555
O39 Rb12 3.107055 1_555
O40 Rb3 2.924978 1_555
O40 Rb11 3.012401 1_555
O40 Rb15 3.107055 1_555
O41 Rb3 2.924978 1_555
O41 Rb10 3.012401 1_555
O41 Rb14 3.107055 1_555
O42 Rb0 2.833714 1_655
O42 Rb12 3.089142 1_555
O42 Rb7 3.153805 1_565
O42 Rb6 3.207840 1_565
O42 Rb9 3.509266 1_555
O43 Rb0 2.833714 1_545
O43 Rb13 3.089142 1_555
O43 Rb6 3.153805 1_455
O43 Rb7 3.207840 1_455
O43 Rb8 3.509266 1_555
O44 Rb1 2.833714 1_455
O44 Rb14 3.089142 1_555
O44 Rb5 3.153805 1_545
O44 Rb4 3.207840 1_545
O44 Rb11 3.509266 1_555
O45 Rb1 2.833714 1_565
O45 Rb15 3.089142 1_555
O45 Rb4 3.153805 1_655
O45 Rb5 3.207840 1_655
O45 Rb10 3.509266 1_555
