# generated using pymatgen
data_ThAlCo
_symmetry_space_group_name_H-M   'P 1'
_cell_length_a   6.95620400
_cell_length_b   6.95620348
_cell_length_c   4.03296524
_cell_angle_alpha   90.00000000
_cell_angle_beta   90.00000000
_cell_angle_gamma   120.00002083
_symmetry_Int_Tables_number   1
_chemical_formula_structural   ThAlCo
_chemical_formula_sum   'Th3 Al3 Co3'
_cell_volume   169.00502068
_cell_formula_units_Z   3
loop_
 _symmetry_equiv_pos_site_id
 _symmetry_equiv_pos_as_xyz
  1  'x, y, z'
loop_
 _atom_site_type_symbol
 _atom_site_label
 _atom_site_symmetry_multiplicity
 _atom_site_fract_x
 _atom_site_fract_y
 _atom_site_fract_z
 _atom_site_occupancy
  Th  Th0  1  0.57832294  0.00000000  -0.00000000  1
  Th  Th1  1  0.00000000  0.57832294  -0.00000000  1
  Th  Th2  1  0.42167806  0.42167806  0.00000000  1
  Al  Al0  1  0.22475245  0.00000000  0.50000000  1
  Al  Al1  1  0.99999900  0.22475245  0.50000000  1
  Al  Al2  1  0.77524755  0.77524755  0.50000000  1
  Co  Co0  1  0.33333300  0.66666800  0.50000000  1
  Co  Co1  1  0.66666700  0.33333300  0.50000000  1
  Co  Co2  1  0.00000000  0.00000000  -0.00000000  1
loop_
_geom_bond_atom_site_label_1
_geom_bond_atom_site_label_2
_geom_bond_distance
_geom_bond_site_symmetry_2
Al0 Co2 2.551567 1_556
Al0 Co2 2.551567 1_555
Al0 Al2 2.707929 1_445
Al0 Al1 2.707936 1_455
Al0 Co0 2.774587 1_545
Al0 Co1 2.774597 1_555
Al0 Th0 3.180469 1_555
Al0 Th0 3.180469 1_556
Al0 Th1 3.244785 1_546
Al0 Th1 3.244785 1_545
Al0 Th2 3.244789 1_555
Al0 Th2 3.244789 1_556
Al1 Co2 2.551570 1_656
Al1 Co2 2.551570 1_655
Al1 Al2 2.707929 1_545
Al1 Co1 2.774587 1_555
Al1 Co0 2.774604 1_655
Al1 Th1 3.180466 1_655
Al1 Th1 3.180466 1_656
Al1 Th0 3.244780 1_555
Al1 Th0 3.244780 1_556
Al1 Th2 3.244794 1_655
Al1 Th2 3.244794 1_656
Al2 Co2 2.551567 1_665
Al2 Co2 2.551567 1_666
Al2 Co1 2.774600 1_555
Al2 Co0 2.774602 1_555
Al2 Th2 3.180463 1_555
Al2 Th2 3.180463 1_556
Al2 Th0 3.244785 1_565
Al2 Th0 3.244785 1_566
Al2 Th1 3.244785 1_656
Al2 Th1 3.244785 1_655
Co0 Th0 2.897484 1_566
Co0 Th0 2.897484 1_565
Co0 Th1 2.897485 1_556
Co0 Th1 2.897485 1_555
Co0 Th2 2.897495 1_555
Co0 Th2 2.897495 1_556
Co1 Th0 2.897486 1_555
Co1 Th0 2.897486 1_556
Co1 Th1 2.897487 1_656
Co1 Th1 2.897487 1_655
Co1 Th2 2.897490 1_555
Co1 Th2 2.897490 1_556
Co2 Th1 2.933271 1_545
Co2 Th0 2.933272 1_455
Co2 Th2 2.933278 1_555
