# generated using pymatgen
data_Mg6BCO8
_symmetry_space_group_name_H-M   'P 1'
_cell_length_a   8.31524611
_cell_length_b   4.23620933
_cell_length_c   4.23620933
_cell_angle_alpha   90.00000000
_cell_angle_beta   90.00000000
_cell_angle_gamma   90.00000000
_symmetry_Int_Tables_number   1
_chemical_formula_structural   Mg6BCO8
_chemical_formula_sum   'Mg6 B1 C1 O8'
_cell_volume   149.22099535
_cell_formula_units_Z   1
loop_
 _symmetry_equiv_pos_site_id
 _symmetry_equiv_pos_as_xyz
  1  'x, y, z'
loop_
 _atom_site_type_symbol
 _atom_site_label
 _atom_site_symmetry_multiplicity
 _atom_site_fract_x
 _atom_site_fract_y
 _atom_site_fract_z
 _atom_site_occupancy
  Mg  Mg0  1  0.00000000  0.50000000  0.50000000  1
  Mg  Mg1  1  0.50000000  0.50000000  0.50000000  1
  Mg  Mg2  1  0.24350763  0.00000000  0.50000000  1
  Mg  Mg3  1  0.75649237  -0.00000000  0.50000000  1
  Mg  Mg4  1  0.24350763  0.50000000  -0.00000000  1
  Mg  Mg5  1  0.75649237  0.50000000  0.00000000  1
  B  B0  1  -0.00000000  0.00000000  -0.00000000  1
  C  C0  1  0.50000000  -0.00000000  -0.00000000  1
  O  O0  1  0.17141215  -0.00000000  0.00000000  1
  O  O1  1  0.82858785  0.00000000  -0.00000000  1
  O  O2  1  0.25310513  0.50000000  0.50000000  1
  O  O3  1  0.74689487  0.50000000  0.50000000  1
  O  O4  1  -0.00000000  0.00000000  0.50000000  1
  O  O5  1  0.50000000  0.00000000  0.50000000  1
  O  O6  1  -0.00000000  0.50000000  -0.00000000  1
  O  O7  1  0.50000000  0.50000000  -0.00000000  1
loop_
_geom_bond_atom_site_label_1
_geom_bond_atom_site_label_2
_geom_bond_distance
_geom_bond_site_symmetry_2
Mg0 O2 2.104631 1_555
Mg0 O3 2.104631 1_455
Mg0 O4 2.118105 1_555
Mg0 O4 2.118105 1_565
Mg0 O6 2.118105 1_556
Mg0 O6 2.118105 1_555
Mg1 O2 2.052992 1_555
Mg1 O3 2.052992 1_555
Mg1 O7 2.118105 1_556
Mg1 O5 2.118105 1_555
Mg1 O5 2.118105 1_565
Mg1 O7 2.118105 1_555
Mg2 O4 2.024826 1_555
Mg2 O2 2.119608 1_545
Mg2 O2 2.119608 1_555
Mg2 O5 2.132797 1_555
Mg2 O0 2.201308 1_555
Mg2 O0 2.201308 1_556
Mg3 O4 2.024826 1_655
Mg3 O3 2.119608 1_545
Mg3 O3 2.119608 1_555
Mg3 O5 2.132797 1_555
Mg3 O1 2.201308 1_556
Mg3 O1 2.201308 1_555
Mg4 O6 2.024826 1_555
Mg4 O2 2.119608 1_554
Mg4 O2 2.119608 1_555
Mg4 O7 2.132797 1_555
Mg4 O0 2.201308 1_565
Mg4 O0 2.201308 1_555
Mg5 O6 2.024826 1_655
Mg5 O3 2.119608 1_554
Mg5 O3 2.119608 1_555
Mg5 O7 2.132797 1_555
Mg5 O1 2.201308 1_565
Mg5 O1 2.201308 1_555
B0 O1 1.425334 1_455
B0 O0 1.425334 1_555
B0 O4 2.118105 1_555
B0 O4 2.118105 1_554
B0 O6 2.118105 1_545
B0 O6 2.118105 1_555
C0 O5 2.118105 1_554
C0 O5 2.118105 1_555
C0 O7 2.118105 1_545
C0 O7 2.118105 1_555
