# generated using pymatgen
data_MgFe4O9
_symmetry_space_group_name_H-M   'P 1'
_cell_length_a   8.29370913
_cell_length_b   8.29370913
_cell_length_c   4.54504403
_cell_angle_alpha   90.00000000
_cell_angle_beta   90.00000000
_cell_angle_gamma   90.00000000
_symmetry_Int_Tables_number   1
_chemical_formula_structural   MgFe4O9
_chemical_formula_sum   'Mg2 Fe8 O18'
_cell_volume   312.63363123
_cell_formula_units_Z   2
loop_
 _symmetry_equiv_pos_site_id
 _symmetry_equiv_pos_as_xyz
  1  'x, y, z'
loop_
 _atom_site_type_symbol
 _atom_site_label
 _atom_site_symmetry_multiplicity
 _atom_site_fract_x
 _atom_site_fract_y
 _atom_site_fract_z
 _atom_site_occupancy
  Mg  Mg0  1  -0.00000000  0.50000000  0.86663333  1
  Mg  Mg1  1  0.50000000  0.00000000  0.13336667  1
  Fe  Fe0  1  0.91111372  0.78511512  0.38169051  1
  Fe  Fe1  1  0.78511512  0.08888628  0.61830949  1
  Fe  Fe2  1  0.28511512  0.58888628  0.38169051  1
  Fe  Fe3  1  0.41111372  0.28511512  0.61830949  1
  Fe  Fe4  1  0.08888628  0.21488488  0.38169051  1
  Fe  Fe5  1  0.71488488  0.41111372  0.38169051  1
  Fe  Fe6  1  0.58888628  0.71488488  0.61830949  1
  Fe  Fe7  1  0.21488488  0.91111372  0.61830949  1
  O  O0  1  -0.00000000  0.00000000  0.50000000  1
  O  O1  1  0.50000000  0.50000000  0.50000000  1
  O  O2  1  0.26844820  0.93166993  0.97163786  1
  O  O3  1  0.56833007  0.76844820  0.97163786  1
  O  O4  1  0.43166993  0.23155180  0.97163786  1
  O  O5  1  0.73155180  0.06833007  0.97163786  1
  O  O6  1  0.23155180  0.56833007  0.02836214  1
  O  O7  1  0.93166993  0.73155180  0.02836214  1
  O  O8  1  0.06833007  0.26844820  0.02836214  1
  O  O9  1  0.76844820  0.43166993  0.02836214  1
  O  O10  1  0.89626131  0.29439203  0.54077918  1
  O  O11  1  0.20560797  0.39626131  0.54077918  1
  O  O12  1  0.79439203  0.60373869  0.54077918  1
  O  O13  1  0.10373869  0.70560797  0.54077918  1
  O  O14  1  0.39626131  0.79439203  0.45922082  1
  O  O15  1  0.29439203  0.10373869  0.45922082  1
  O  O16  1  0.70560797  0.89626131  0.45922082  1
  O  O17  1  0.60373869  0.20560797  0.45922082  1
loop_
_geom_bond_atom_site_label_1
_geom_bond_atom_site_label_2
_geom_bond_distance
_geom_bond_site_symmetry_2
Mg0 O8 2.132957 1_556
Mg0 O7 2.132957 1_456
Mg0 O6 2.132957 1_556
Mg0 O9 2.132957 1_456
Mg0 O11 2.416932 1_555
Mg0 O10 2.416932 1_455
Mg0 O13 2.416932 1_555
Mg0 O12 2.416932 1_455
Mg1 O2 2.132957 1_544
Mg1 O4 2.132957 1_554
Mg1 O3 2.132957 1_544
Mg1 O5 2.132957 1_554
Mg1 O17 2.416932 1_555
Mg1 O16 2.416932 1_545
Mg1 O15 2.416932 1_555
Mg1 O14 2.416932 1_545
Fe0 O7 1.674905 1_555
Fe0 O13 1.873470 1_655
Fe0 O12 1.929462 1_555
Fe0 O16 1.969494 1_555
Fe0 O0 2.002203 1_665
Fe1 O5 1.674905 1_555
Fe1 O16 1.873470 1_545
Fe1 O17 1.929462 1_555
Fe1 O10 1.969494 1_555
Fe1 O0 2.002203 1_655
Fe2 O6 1.674905 1_555
Fe2 O11 1.873470 1_555
Fe2 O13 1.929462 1_555
Fe2 O14 1.969494 1_555
Fe2 O1 2.002203 1_555
Fe3 O4 1.674905 1_555
Fe3 O17 1.873470 1_555
Fe3 O15 1.929462 1_555
Fe3 O11 1.969494 1_555
Fe3 O1 2.002203 1_555
Fe4 O8 1.674905 1_555
Fe4 O10 1.873470 1_455
Fe4 O11 1.929462 1_555
Fe4 O15 1.969494 1_555
Fe4 O0 2.002203 1_555
Fe5 O9 1.674905 1_555
Fe5 O12 1.873470 1_555
Fe5 O10 1.929462 1_555
Fe5 O17 1.969494 1_555
Fe5 O1 2.002203 1_555
Fe6 O3 1.674905 1_555
Fe6 O14 1.873470 1_555
Fe6 O16 1.929462 1_555
Fe6 O12 1.969494 1_555
Fe6 O1 2.002203 1_555
Fe7 O2 1.674905 1_555
Fe7 O15 1.873470 1_565
Fe7 O14 1.929462 1_555
Fe7 O13 1.969494 1_555
Fe7 O0 2.002203 1_565
