# generated using pymatgen
data_CsV2CrO7
_symmetry_space_group_name_H-M   'P 1'
_cell_length_a   4.99396900
_cell_length_b   7.00264000
_cell_length_c   9.00882648
_cell_angle_alpha   99.58050932
_cell_angle_beta   90.00000000
_cell_angle_gamma   90.00000000
_symmetry_Int_Tables_number   1
_chemical_formula_structural   CsV2CrO7
_chemical_formula_sum   'Cs2 V4 Cr2 O14'
_cell_volume   310.65331728
_cell_formula_units_Z   2
loop_
 _symmetry_equiv_pos_site_id
 _symmetry_equiv_pos_as_xyz
  1  'x, y, z'
loop_
 _atom_site_type_symbol
 _atom_site_label
 _atom_site_symmetry_multiplicity
 _atom_site_fract_x
 _atom_site_fract_y
 _atom_site_fract_z
 _atom_site_occupancy
  Cs  Cs0  1  0.61423800  0.75000000  0.50000000  1
  Cs  Cs1  1  0.38576200  0.25000000  0.50000000  1
  V  V0  1  0.99454400  0.87248000  0.15612000  1
  V  V1  1  0.99454400  0.62752000  0.84388000  1
  V  V2  1  0.00545600  0.12752000  0.84388000  1
  V  V3  1  0.00545600  0.37248000  0.15612000  1
  Cr  Cr0  1  0.50000000  0.00000000  0.00000000  1
  Cr  Cr1  1  0.50000000  0.50000000  0.00000000  1
  O  O0  1  0.11695400  0.87236900  0.32548700  1
  O  O1  1  0.11695400  0.62763100  0.67451300  1
  O  O2  1  0.88304600  0.12763100  0.67451300  1
  O  O3  1  0.88304600  0.37236900  0.32548700  1
  O  O4  1  0.84281400  0.60888800  0.10075100  1
  O  O5  1  0.84281400  0.89111200  0.89924900  1
  O  O6  1  0.15718600  0.39111200  0.89924900  1
  O  O7  1  0.15718600  0.10888800  0.10075100  1
  O  O8  1  0.32290100  0.03068400  0.80876200  1
  O  O9  1  0.32290100  0.46931600  0.19123800  1
  O  O10  1  0.67709900  0.96931600  0.19123800  1
  O  O11  1  0.67709900  0.53068400  0.80876200  1
  O  O12  1  0.28601400  0.75000000  0.00000000  1
  O  O13  1  0.71398600  0.25000000  0.00000000  1
loop_
_geom_bond_atom_site_label_1
_geom_bond_atom_site_label_2
_geom_bond_distance
_geom_bond_site_symmetry_2
Cs0 O1 3.133972 1_555
Cs0 O0 3.133972 1_555
Cs0 O2 3.143695 1_565
Cs0 O3 3.143695 1_555
Cs0 O1 3.155512 1_655
Cs0 O0 3.155512 1_655
Cs0 O10 3.408283 1_555
Cs0 O11 3.408283 1_555
Cs0 O8 3.449268 1_565
Cs0 O9 3.449268 1_555
Cs1 O2 3.133972 1_555
Cs1 O3 3.133972 1_555
Cs1 O1 3.143695 1_555
Cs1 O0 3.143695 1_545
Cs1 O2 3.155512 1_455
Cs1 O3 3.155512 1_455
Cs1 O9 3.408283 1_555
Cs1 O8 3.408283 1_555
Cs1 O11 3.449268 1_555
Cs1 O10 3.449268 1_545
Cr0 O8 1.979834 1_554
Cr0 O10 1.979834 1_545
Cr0 O7 2.026282 1_555
Cr0 O5 2.026282 1_544
Cr0 O12 2.051049 1_545
Cr0 O13 2.051049 1_555
Cr1 O11 1.979834 1_554
Cr1 O9 1.979834 1_555
Cr1 O4 2.026282 1_555
Cr1 O6 2.026282 1_554
Cr1 O12 2.051049 1_555
Cr1 O13 2.051049 1_555
O0 V0 1.643824 1_455
O1 V1 1.643824 1_455
O2 V2 1.643824 1_655
O3 V3 1.643824 1_655
O4 V0 1.980813 1_555
O4 V3 1.980912 1_655
O4 V1 2.459019 1_554
O5 V1 1.980813 1_555
O5 V2 1.980912 1_665
O5 V0 2.459019 1_556
O6 V2 1.980813 1_555
O6 V1 1.980912 1_455
O6 V3 2.459019 1_556
O7 V3 1.980813 1_555
O7 V0 1.980912 1_445
O7 V2 2.459019 1_554
O8 V2 1.732547 1_555
O9 V3 1.732547 1_555
O10 V0 1.732547 1_555
O11 V1 1.732547 1_555
O12 V1 2.104984 1_454
O12 V0 2.104984 1_455
O13 V2 2.104984 1_654
O13 V3 2.104984 1_655
