# generated using pymatgen
data_Hg12Se6O25
_symmetry_space_group_name_H-M   'P 1'
_cell_length_a   9.69263235
_cell_length_b   9.69263235
_cell_length_c   9.69263254
_cell_angle_alpha   107.96001451
_cell_angle_beta   107.96001451
_cell_angle_gamma   107.96001764
_symmetry_Int_Tables_number   1
_chemical_formula_structural   Hg12Se6O25
_chemical_formula_sum   'Hg12 Se6 O25'
_cell_volume   737.59166638
_cell_formula_units_Z   1
loop_
 _symmetry_equiv_pos_site_id
 _symmetry_equiv_pos_as_xyz
  1  'x, y, z'
loop_
 _atom_site_type_symbol
 _atom_site_label
 _atom_site_symmetry_multiplicity
 _atom_site_fract_x
 _atom_site_fract_y
 _atom_site_fract_z
 _atom_site_occupancy
  Hg  Hg0  1  0.25480500  0.84005600  0.88877200  1
  Hg  Hg1  1  0.88877200  0.25480500  0.84005600  1
  Hg  Hg2  1  0.84005600  0.88877200  0.25480500  1
  Hg  Hg3  1  0.74519500  0.15994400  0.11122800  1
  Hg  Hg4  1  0.11122800  0.74519500  0.15994400  1
  Hg  Hg5  1  0.15994400  0.11122800  0.74519500  1
  Hg  Hg6  1  0.01375800  0.32700300  0.54383500  1
  Hg  Hg7  1  0.54383500  0.01375800  0.32700300  1
  Hg  Hg8  1  0.32700300  0.54383500  0.01375800  1
  Hg  Hg9  1  0.98624200  0.67299700  0.45616500  1
  Hg  Hg10  1  0.45616500  0.98624200  0.67299700  1
  Hg  Hg11  1  0.67299700  0.45616500  0.98624200  1
  Se  Se0  1  0.66095800  0.79092900  0.50293200  1
  Se  Se1  1  0.50293200  0.66095800  0.79092900  1
  Se  Se2  1  0.79092900  0.50293200  0.66095800  1
  Se  Se3  1  0.33904200  0.20907100  0.49706800  1
  Se  Se4  1  0.49706800  0.33904200  0.20907100  1
  Se  Se5  1  0.20907100  0.49706800  0.33904200  1
  O  O0  1  0.97597700  0.58620800  0.65163400  1
  O  O1  1  0.65163400  0.97597700  0.58620800  1
  O  O2  1  0.58620800  0.65163400  0.97597700  1
  O  O3  1  0.02402300  0.41379200  0.34836600  1
  O  O4  1  0.34836600  0.02402300  0.41379200  1
  O  O5  1  0.41379200  0.34836600  0.02402300  1
  O  O6  1  0.30130600  0.57220400  0.74505800  1
  O  O7  1  0.74505800  0.30130600  0.57220400  1
  O  O8  1  0.57220400  0.74505800  0.30130600  1
  O  O9  1  0.69869400  0.42779600  0.25494200  1
  O  O10  1  0.25494200  0.69869400  0.42779600  1
  O  O11  1  0.42779600  0.25494200  0.69869400  1
  O  O12  1  0.86183000  0.85827800  0.54744500  1
  O  O13  1  0.54744500  0.86183000  0.85827800  1
  O  O14  1  0.85827800  0.54744500  0.86183000  1
  O  O15  1  0.13817000  0.14172200  0.45255500  1
  O  O16  1  0.45255500  0.13817000  0.14172200  1
  O  O17  1  0.14172200  0.45255500  0.13817000  1
  O  O18  1  0.22346600  0.91777100  0.70469800  1
  O  O19  1  0.70469800  0.22346600  0.91777100  1
  O  O20  1  0.91777100  0.70469800  0.22346600  1
  O  O21  1  0.77653400  0.08222900  0.29530200  1
  O  O22  1  0.29530200  0.77653400  0.08222900  1
  O  O23  1  0.08222900  0.29530200  0.77653400  1
  O  O24  1  0.00000000  0.00000000  0.00000000  1
loop_
_geom_bond_atom_site_label_1
_geom_bond_atom_site_label_2
_geom_bond_distance
_geom_bond_site_symmetry_2
Hg0 O22 2.110995 1_556
Hg0 O18 2.116272 1_555
Hg0 O0 2.687271 1_455
Hg1 O23 2.110995 1_655
Hg1 O19 2.116272 1_555
Hg1 O1 2.687271 1_545
Hg2 O21 2.110995 1_565
Hg2 O20 2.116272 1_555
Hg2 O2 2.687271 1_554
Hg3 O19 2.110995 1_554
Hg3 O21 2.116272 1_555
Hg3 O3 2.687271 1_655
Hg4 O20 2.110995 1_455
Hg4 O22 2.116272 1_555
Hg4 O4 2.687271 1_565
Hg5 O18 2.110995 1_545
Hg5 O23 2.116272 1_555
Hg5 O5 2.687271 1_556
Hg6 O23 2.291727 1_555
Hg6 O3 2.314003 1_555
Hg6 O21 2.532572 1_455
Hg6 O15 2.544731 1_555
Hg6 O0 2.592745 1_455
Hg6 O6 2.631405 1_555
Hg6 O7 2.646589 1_455
Hg7 O21 2.291727 1_555
Hg7 O4 2.314003 1_555
Hg7 O22 2.532572 1_545
Hg7 O16 2.544731 1_555
Hg7 O1 2.592745 1_545
Hg7 O7 2.631405 1_555
Hg7 O8 2.646589 1_545
Hg8 O22 2.291727 1_555
Hg8 O5 2.314003 1_555
Hg8 O23 2.532572 1_554
Hg8 O17 2.544731 1_555
Hg8 O2 2.592744 1_554
Hg8 O8 2.631405 1_555
Hg8 O6 2.646589 1_554
Hg9 O20 2.291727 1_555
Hg9 O0 2.314003 1_555
Hg9 O18 2.532572 1_655
Hg9 O12 2.544731 1_555
Hg9 O3 2.592745 1_655
Hg9 O9 2.631405 1_555
Hg9 O10 2.646589 1_655
Hg10 O18 2.291727 1_555
Hg10 O1 2.314003 1_555
Hg10 O19 2.532572 1_565
Hg10 O13 2.544731 1_555
Hg10 O4 2.592745 1_565
Hg10 O10 2.631405 1_555
Hg10 O11 2.646589 1_565
Hg11 O19 2.291727 1_555
Hg11 O2 2.314003 1_555
Hg11 O20 2.532572 1_556
Hg11 O14 2.544731 1_555
Hg11 O5 2.592744 1_556
Hg11 O11 2.631405 1_555
Hg11 O9 2.646589 1_556
O0 Se2 1.768846 1_555
O1 Se0 1.768846 1_555
O2 Se1 1.768846 1_555
O3 Se5 1.768846 1_555
O4 Se3 1.768846 1_555
O5 Se4 1.768846 1_555
O6 Se1 1.717098 1_555
O7 Se2 1.717098 1_555
O8 Se0 1.717098 1_555
O9 Se4 1.717098 1_555
O10 Se5 1.717098 1_555
O11 Se3 1.717098 1_555
O12 Se0 1.710981 1_555
O13 Se1 1.710981 1_555
O14 Se2 1.710981 1_555
O15 Se3 1.710981 1_555
O16 Se4 1.710981 1_555
O17 Se5 1.710981 1_555
