# generated using pymatgen
data_K5Br4Cl
_symmetry_space_group_name_H-M   'P 1'
_cell_length_a   8.02310257
_cell_length_b   8.02310257
_cell_length_c   8.02310257
_cell_angle_alpha   99.64844245
_cell_angle_beta   99.64844245
_cell_angle_gamma   131.66662678
_symmetry_Int_Tables_number   1
_chemical_formula_structural   K5Br4Cl
_chemical_formula_sum   'K5 Br4 Cl1'
_cell_volume   351.98804158
_cell_formula_units_Z   1
loop_
 _symmetry_equiv_pos_site_id
 _symmetry_equiv_pos_as_xyz
  1  'x, y, z'
loop_
 _atom_site_type_symbol
 _atom_site_label
 _atom_site_symmetry_multiplicity
 _atom_site_fract_x
 _atom_site_fract_y
 _atom_site_fract_z
 _atom_site_occupancy
  K  K0  1  0.59722285  0.20748025  0.80470310  1
  K  K1  1  0.40277715  0.79251975  0.19529690  1
  K  K2  1  0.79251975  0.59722285  0.38974261  1
  K  K3  1  0.00000000  0.00000000  0.00000000  1
  K  K4  1  0.20748025  0.40277715  0.61025739  1
  Br  Br0  1  0.90106161  0.29990183  0.20096344  1
  Br  Br1  1  0.29990183  0.09893839  0.39884122  1
  Br  Br2  1  0.70009817  0.90106161  0.60115878  1
  Br  Br3  1  0.09893839  0.70009817  0.79903656  1
  Cl  Cl0  1  0.50000000  0.50000000  0.00000000  1
loop_
_geom_bond_atom_site_label_1
_geom_bond_atom_site_label_2
_geom_bond_distance
_geom_bond_site_symmetry_2
Br0 K3 3.269155 1_655
Br0 K2 3.276542 1_555
Br0 K1 3.285536 1_655
Br0 K1 3.285536 1_545
Br0 K0 3.287621 1_554
Br0 K4 3.346035 1_655
Br1 K3 3.269161 1_555
Br1 K0 3.276535 1_555
Br1 K2 3.285533 1_445
Br1 K2 3.285539 1_555
Br1 K4 3.287617 1_555
Br1 K1 3.346038 1_545
Br2 K3 3.269161 1_666
Br2 K1 3.276535 1_555
Br2 K4 3.285533 1_665
Br2 K4 3.285539 1_555
Br2 K2 3.287617 1_555
Br2 K0 3.346038 1_565
Br3 K3 3.269155 1_566
Br3 K4 3.276542 1_555
Br3 K0 3.285536 1_455
Br3 K0 3.285536 1_565
Br3 K1 3.287621 1_556
Br3 K2 3.346035 1_455
Cl0 K1 3.191027 1_555
Cl0 K0 3.191027 1_554
Cl0 K4 3.191027 1_554
Cl0 K2 3.191027 1_555
Cl0 K3 3.284599 1_665
Cl0 K3 3.284599 1_555
