# generated using pymatgen
data_Sm2TlI5
_symmetry_space_group_name_H-M   'P 1'
_cell_length_a   8.49299900
_cell_length_b   9.68849500
_cell_length_c   14.22429756
_cell_angle_alpha   88.79751502
_cell_angle_beta   90.00000000
_cell_angle_gamma   90.00000000
_symmetry_Int_Tables_number   1
_chemical_formula_structural   Sm2TlI5
_chemical_formula_sum   'Sm8 Tl4 I20'
_cell_volume   1170.17972139
_cell_formula_units_Z   4
loop_
 _symmetry_equiv_pos_site_id
 _symmetry_equiv_pos_as_xyz
  1  'x, y, z'
loop_
 _atom_site_type_symbol
 _atom_site_label
 _atom_site_symmetry_multiplicity
 _atom_site_fract_x
 _atom_site_fract_y
 _atom_site_fract_z
 _atom_site_occupancy
  Sm  Sm0  1  0.05030200  0.01081000  0.32884300  1
  Sm  Sm1  1  0.94969800  0.98919000  0.67115700  1
  Sm  Sm2  1  0.55030200  0.98919000  0.17115700  1
  Sm  Sm3  1  0.44969800  0.01081000  0.82884300  1
  Sm  Sm4  1  0.08774900  0.24242000  0.99234300  1
  Sm  Sm5  1  0.91225100  0.75758000  0.00765700  1
  Sm  Sm6  1  0.58774900  0.75758000  0.50765700  1
  Sm  Sm7  1  0.41225100  0.24242000  0.49234300  1
  Tl  Tl0  1  0.06307000  0.48952100  0.33203500  1
  Tl  Tl1  1  0.93693000  0.51047900  0.66796500  1
  Tl  Tl2  1  0.56307000  0.51047900  0.16796500  1
  Tl  Tl3  1  0.43693000  0.48952100  0.83203500  1
  I  I0  1  0.15825200  0.52968900  0.09129200  1
  I  I1  1  0.84174800  0.47031100  0.90870800  1
  I  I2  1  0.65825200  0.47031100  0.40870800  1
  I  I3  1  0.34174800  0.52968900  0.59129200  1
  I  I4  1  0.84259300  0.21590900  0.17633800  1
  I  I5  1  0.15740700  0.78409100  0.82366200  1
  I  I6  1  0.34259300  0.78409100  0.32366200  1
  I  I7  1  0.65740700  0.21590900  0.67633800  1
  I  I8  1  0.32371000  0.22633200  0.27585100  1
  I  I9  1  0.67629000  0.77366800  0.72414900  1
  I  I10  1  0.82371000  0.77366800  0.22414900  1
  I  I11  1  0.17629000  0.22633200  0.77585100  1
  I  I12  1  0.46507600  0.21759600  0.00205900  1
  I  I13  1  0.53492400  0.78240400  0.99794100  1
  I  I14  1  0.96507600  0.78240400  0.49794100  1
  I  I15  1  0.03492400  0.21759600  0.50205900  1
  I  I16  1  0.66442400  0.03950900  0.39441600  1
  I  I17  1  0.33557600  0.96049100  0.60558400  1
  I  I18  1  0.16442400  0.96049100  0.10558400  1
  I  I19  1  0.83557600  0.03950900  0.89441600  1
loop_
_geom_bond_atom_site_label_1
_geom_bond_atom_site_label_2
_geom_bond_distance
_geom_bond_site_symmetry_2
I0 Sm4 3.201590 1_554
I0 Sm5 3.247315 1_455
I0 Tl0 3.532069 1_555
I0 Tl2 3.610572 1_555
I1 Sm5 3.201590 1_556
I1 Sm4 3.247315 1_655
I1 Tl1 3.532069 1_555
I1 Tl3 3.610572 1_555
I2 Sm6 3.201590 1_555
I2 Sm7 3.247315 1_555
I2 Tl2 3.532069 1_555
I2 Tl0 3.610572 1_655
I3 Sm7 3.201590 1_555
I3 Sm6 3.247315 1_555
I3 Tl3 3.532069 1_555
I3 Tl1 3.610572 1_455
I4 Sm2 3.316560 1_545
I4 Sm4 3.350026 1_654
I4 Sm0 3.403727 1_655
I5 Sm3 3.316560 1_565
I5 Sm5 3.350026 1_456
I5 Sm1 3.403727 1_455
I6 Sm0 3.316560 1_565
I6 Sm6 3.350026 1_555
I6 Sm2 3.403727 1_555
I7 Sm1 3.316560 1_545
I7 Sm7 3.350026 1_555
I7 Sm3 3.403727 1_555
I8 Sm7 3.176933 1_555
I8 Sm0 3.202209 1_555
I8 Sm2 3.368017 1_545
I8 Tl0 3.482287 1_555
I9 Sm6 3.176933 1_555
I9 Sm1 3.202209 1_555
I9 Sm3 3.368017 1_565
I9 Tl1 3.482287 1_555
I10 Sm5 3.176933 1_555
I10 Sm2 3.202209 1_555
I10 Sm0 3.368017 1_665
I10 Tl2 3.482287 1_555
I11 Sm4 3.176933 1_555
I11 Sm3 3.202209 1_555
I11 Sm1 3.368017 1_445
I11 Tl3 3.482287 1_555
I12 Sm3 3.210719 1_554
I12 Sm4 3.216404 1_554
I12 Sm2 3.314055 1_545
I12 Tl3 3.546766 1_554
I13 Sm2 3.210719 1_556
I13 Sm5 3.216404 1_556
I13 Sm3 3.314055 1_565
I13 Tl2 3.546766 1_556
I14 Sm1 3.210719 1_555
I14 Sm6 3.216404 1_555
I14 Sm0 3.314055 1_665
I14 Tl1 3.546766 1_555
I15 Sm0 3.210719 1_555
I15 Sm7 3.216404 1_555
I15 Sm1 3.314055 1_445
I15 Tl0 3.546766 1_555
I16 Sm6 3.208567 1_545
I16 Sm7 3.241434 1_555
I16 Sm2 3.365585 1_545
I16 Sm0 3.420325 1_655
I17 Sm7 3.208567 1_565
I17 Sm6 3.241434 1_555
I17 Sm3 3.365585 1_565
I17 Sm1 3.420325 1_455
I18 Sm4 3.208567 1_564
I18 Sm5 3.241434 1_455
I18 Sm0 3.365585 1_565
I18 Sm2 3.420325 1_555
I19 Sm5 3.208567 1_546
I19 Sm4 3.241434 1_655
I19 Sm1 3.365585 1_545
I19 Sm3 3.420325 1_555
