# generated using pymatgen
data_Y3Mg
_symmetry_space_group_name_H-M   'P 1'
_cell_length_a   7.15491222
_cell_length_b   11.38118798
_cell_length_c   12.23255768
_cell_angle_alpha   90.00000000
_cell_angle_beta   90.00000000
_cell_angle_gamma   90.00000000
_symmetry_Int_Tables_number   1
_chemical_formula_structural   Y3Mg
_chemical_formula_sum   'Y24 Mg8'
_cell_volume   996.11430916
_cell_formula_units_Z   8
loop_
 _symmetry_equiv_pos_site_id
 _symmetry_equiv_pos_as_xyz
  1  'x, y, z'
loop_
 _atom_site_type_symbol
 _atom_site_label
 _atom_site_symmetry_multiplicity
 _atom_site_fract_x
 _atom_site_fract_y
 _atom_site_fract_z
 _atom_site_occupancy
  Y  Y0_0  1  0.00000000  0.00000000  0.00231232  1
  Y  Y0_1  1  0.00000000  0.00000000  0.50231231  1
  Y  Y0_2  1  0.00000000  0.50000000  0.00231232  1
  Y  Y0_3  1  0.00000000  0.50000000  0.50231231  1
  Y  Y0_4  1  0.50000000  0.00000000  0.00231232  1
  Y  Y0_5  1  0.50000000  0.00000000  0.50231231  1
  Y  Y0_6  1  0.50000000  0.50000000  0.00231232  1
  Y  Y0_7  1  0.50000000  0.50000000  0.50231231  1
  Y  Y1_0  1  0.25000000  0.00000000  0.24481553  1
  Y  Y1_1  1  0.25000000  0.00000000  0.74481553  1
  Y  Y1_2  1  0.25000000  0.50000000  0.24481553  1
  Y  Y1_3  1  0.25000000  0.50000000  0.74481553  1
  Y  Y1_4  1  0.75000000  0.00000000  0.24481553  1
  Y  Y1_5  1  0.75000000  0.00000000  0.74481553  1
  Y  Y1_6  1  0.75000000  0.50000000  0.24481553  1
  Y  Y1_7  1  0.75000000  0.50000000  0.74481553  1
  Y  Y2_0  1  0.25000000  0.25000000  0.42105974  1
  Y  Y2_1  1  0.25000000  0.25000000  0.92105974  1
  Y  Y2_2  1  0.25000000  0.75000000  0.42105974  1
  Y  Y2_3  1  0.25000000  0.75000000  0.92105974  1
  Y  Y2_4  1  0.75000000  0.25000000  0.42105974  1
  Y  Y2_5  1  0.75000000  0.25000000  0.92105974  1
  Y  Y2_6  1  0.75000000  0.75000000  0.42105974  1
  Y  Y2_7  1  0.75000000  0.75000000  0.92105974  1
  Mg  Mg0_0  1  0.00000000  0.25000000  0.16514492  1
  Mg  Mg0_1  1  0.00000000  0.25000000  0.66514491  1
  Mg  Mg0_2  1  0.00000000  0.75000000  0.16514492  1
  Mg  Mg0_3  1  0.00000000  0.75000000  0.66514491  1
  Mg  Mg0_4  1  0.50000000  0.25000000  0.16514492  1
  Mg  Mg0_5  1  0.50000000  0.25000000  0.66514491  1
  Mg  Mg0_6  1  0.50000000  0.75000000  0.16514492  1
  Mg  Mg0_7  1  0.50000000  0.75000000  0.66514491  1
loop_
_geom_bond_atom_site_label_1
_geom_bond_atom_site_label_2
_geom_bond_distance
_geom_bond_site_symmetry_2
Y0_0 Y1_0 3.463998 1_555
Y0_0 Y1_4 3.463998 1_455
Y0_0 Y2_5 3.504733 1_454
Y0_0 Y2_3 3.504733 1_544
Y0_0 Y2_7 3.504733 1_444
Y0_0 Y2_1 3.504733 1_554
Y0_0 Y0_4 3.577456 1_555
Y0_0 Y0_4 3.577456 1_455
Y0_0 Y1_5 3.622301 1_454
Y0_0 Y1_1 3.622301 1_554
Y0_1 Y1_1 3.463998 1_555
Y0_1 Y1_5 3.463998 1_455
Y0_1 Y2_0 3.504733 1_555
Y0_1 Y2_2 3.504733 1_545
Y0_1 Y2_4 3.504733 1_455
Y0_1 Y2_6 3.504733 1_445
Y0_1 Y0_5 3.577456 1_555
Y0_1 Y0_5 3.577456 1_455
Y0_1 Y1_4 3.622301 1_455
Y0_1 Y1_0 3.622301 1_555
Y0_2 Y1_2 3.463998 1_555
Y0_2 Y1_6 3.463998 1_455
Y0_2 Y2_5 3.504733 1_454
Y0_2 Y2_3 3.504733 1_554
Y0_2 Y2_1 3.504733 1_554
Y0_2 Y2_7 3.504733 1_454
Y0_2 Y0_6 3.577456 1_555
Y0_2 Y0_6 3.577456 1_455
Y0_2 Y1_3 3.622301 1_554
Y0_2 Y1_7 3.622301 1_454
Y0_3 Y1_3 3.463998 1_555
Y0_3 Y1_7 3.463998 1_455
Y0_3 Y2_0 3.504733 1_555
Y0_3 Y2_6 3.504733 1_455
Y0_3 Y2_2 3.504733 1_555
Y0_3 Y2_4 3.504733 1_455
Y0_3 Y0_7 3.577456 1_555
Y0_3 Y0_7 3.577456 1_455
Y0_3 Y1_2 3.622301 1_555
Y0_3 Y1_6 3.622301 1_455
Y0_4 Y1_0 3.463998 1_555
Y0_4 Y1_4 3.463998 1_555
Y0_4 Y2_3 3.504733 1_544
Y0_4 Y2_1 3.504733 1_554
Y0_4 Y2_7 3.504733 1_544
Y0_4 Y2_5 3.504733 1_554
Y0_4 Y1_1 3.622301 1_554
Y0_4 Y1_5 3.622301 1_554
Y0_5 Y1_1 3.463998 1_555
Y0_5 Y1_5 3.463998 1_555
Y0_5 Y2_0 3.504733 1_555
Y0_5 Y2_2 3.504733 1_545
Y0_5 Y2_6 3.504733 1_545
Y0_5 Y2_4 3.504733 1_555
Y0_5 Y1_0 3.622301 1_555
Y0_5 Y1_4 3.622301 1_555
Y0_6 Y1_2 3.463998 1_555
Y0_6 Y1_6 3.463998 1_555
Y0_6 Y2_3 3.504733 1_554
Y0_6 Y2_1 3.504733 1_554
Y0_6 Y2_7 3.504733 1_554
Y0_6 Y2_5 3.504733 1_554
Y0_6 Y1_3 3.622301 1_554
Y0_6 Y1_7 3.622301 1_554
Y0_7 Y1_3 3.463998 1_555
Y0_7 Y1_7 3.463998 1_555
Y0_7 Y2_0 3.504733 1_555
Y0_7 Y2_2 3.504733 1_555
Y0_7 Y2_6 3.504733 1_555
Y0_7 Y2_4 3.504733 1_555
Y0_7 Y1_2 3.622301 1_555
Y0_7 Y1_6 3.622301 1_555
Y1_0 Y2_2 3.569831 1_545
Y1_0 Y2_0 3.569831 1_555
Y1_0 Y1_4 3.577456 1_555
Y1_0 Y1_4 3.577456 1_455
Y1_1 Y2_3 3.569831 1_545
Y1_1 Y2_1 3.569831 1_555
Y1_1 Y1_5 3.577456 1_555
Y1_1 Y1_5 3.577456 1_455
Y1_2 Y2_2 3.569831 1_555
Y1_2 Y2_0 3.569831 1_555
Y1_2 Y1_6 3.577456 1_455
Y1_2 Y1_6 3.577456 1_555
Y1_3 Y2_3 3.569831 1_555
Y1_3 Y2_1 3.569831 1_555
Y1_3 Y1_7 3.577456 1_555
Y1_3 Y1_7 3.577456 1_455
Y1_4 Y2_6 3.569831 1_545
Y1_4 Y2_4 3.569831 1_555
Y1_5 Y2_7 3.569831 1_545
Y1_5 Y2_5 3.569831 1_555
Y1_6 Y2_6 3.569831 1_555
Y1_6 Y2_4 3.569831 1_555
Y1_7 Y2_7 3.569831 1_555
Y1_7 Y2_5 3.569831 1_555
Y2_0 Y2_4 3.577456 1_455
Y2_0 Y2_4 3.577456 1_555
Y2_1 Y2_5 3.577456 1_555
Y2_1 Y2_5 3.577456 1_455
Y2_2 Y2_6 3.577456 1_455
Y2_2 Y2_6 3.577456 1_555
Y2_3 Y2_7 3.577456 1_455
Y2_3 Y2_7 3.577456 1_555
Mg0_0 Y0_2 3.473214 1_555
Mg0_0 Y0_0 3.473214 1_555
Mg0_0 Y2_1 3.480584 1_554
Mg0_0 Y2_5 3.480584 1_454
Mg0_0 Y1_6 3.499294 1_455
Mg0_0 Y1_2 3.499294 1_555
Mg0_0 Y1_4 3.499294 1_455
Mg0_0 Y1_0 3.499294 1_555
Mg0_0 Y2_0 3.605487 1_555
Mg0_0 Y2_4 3.605487 1_455
Mg0_1 Y0_1 3.473214 1_555
Mg0_1 Y0_3 3.473214 1_555
Mg0_1 Y2_4 3.480584 1_455
Mg0_1 Y2_0 3.480584 1_555
Mg0_1 Y1_5 3.499294 1_455
Mg0_1 Y1_1 3.499294 1_555
Mg0_1 Y1_7 3.499294 1_455
Mg0_1 Y1_3 3.499294 1_555
Mg0_1 Y2_5 3.605487 1_455
Mg0_1 Y2_1 3.605487 1_555
Mg0_2 Y0_2 3.473214 1_555
Mg0_2 Y0_0 3.473214 1_565
Mg0_2 Y2_7 3.480584 1_454
Mg0_2 Y2_3 3.480584 1_554
Mg0_2 Y1_0 3.499294 1_565
Mg0_2 Y1_6 3.499294 1_455
Mg0_2 Y1_2 3.499294 1_555
Mg0_2 Y1_4 3.499294 1_465
Mg0_2 Y2_6 3.605487 1_455
Mg0_2 Y2_2 3.605487 1_555
Mg0_3 Y0_1 3.473214 1_565
Mg0_3 Y0_3 3.473214 1_555
Mg0_3 Y2_2 3.480584 1_555
Mg0_3 Y2_6 3.480584 1_455
Mg0_3 Y1_1 3.499294 1_565
Mg0_3 Y1_7 3.499294 1_455
Mg0_3 Y1_5 3.499294 1_465
Mg0_3 Y1_3 3.499294 1_555
Mg0_3 Y2_3 3.605487 1_555
Mg0_3 Y2_7 3.605487 1_455
Mg0_4 Y0_6 3.473214 1_555
Mg0_4 Y0_4 3.473214 1_555
Mg0_4 Y2_1 3.480584 1_554
Mg0_4 Y2_5 3.480584 1_554
Mg0_4 Y1_6 3.499294 1_555
Mg0_4 Y1_4 3.499294 1_555
Mg0_4 Y1_2 3.499294 1_555
Mg0_4 Y1_0 3.499294 1_555
Mg0_4 Y2_0 3.605487 1_555
Mg0_4 Y2_4 3.605487 1_555
Mg0_5 Y0_7 3.473214 1_555
Mg0_5 Y0_5 3.473214 1_555
Mg0_5 Y2_0 3.480584 1_555
Mg0_5 Y2_4 3.480584 1_555
Mg0_5 Y1_1 3.499294 1_555
Mg0_5 Y1_3 3.499294 1_555
Mg0_5 Y1_5 3.499294 1_555
Mg0_5 Y1_7 3.499294 1_555
Mg0_5 Y2_5 3.605487 1_555
Mg0_5 Y2_1 3.605487 1_555
Mg0_6 Y0_6 3.473214 1_555
Mg0_6 Y0_4 3.473214 1_565
Mg0_6 Y2_7 3.480584 1_554
Mg0_6 Y2_3 3.480584 1_554
Mg0_6 Y1_0 3.499294 1_565
Mg0_6 Y1_6 3.499294 1_555
Mg0_6 Y1_4 3.499294 1_565
Mg0_6 Y1_2 3.499294 1_555
Mg0_6 Y2_2 3.605487 1_555
Mg0_6 Y2_6 3.605487 1_555
Mg0_7 Y0_7 3.473214 1_555
Mg0_7 Y0_5 3.473214 1_565
Mg0_7 Y2_2 3.480584 1_555
Mg0_7 Y2_6 3.480584 1_555
Mg0_7 Y1_1 3.499294 1_565
Mg0_7 Y1_3 3.499294 1_555
Mg0_7 Y1_5 3.499294 1_565
Mg0_7 Y1_7 3.499294 1_555
Mg0_7 Y2_3 3.605487 1_555
Mg0_7 Y2_7 3.605487 1_555
