# generated using pymatgen
data_Mg14NbCr
_symmetry_space_group_name_H-M   'P 1'
_cell_length_a   6.31936935
_cell_length_b   6.21373438
_cell_length_c   10.02560881
_cell_angle_alpha   90.00000000
_cell_angle_beta   90.00000000
_cell_angle_gamma   119.44856598
_symmetry_Int_Tables_number   1
_chemical_formula_structural   Mg14NbCr
_chemical_formula_sum   'Mg14 Nb1 Cr1'
_cell_volume   342.81064341
_cell_formula_units_Z   1
loop_
 _symmetry_equiv_pos_site_id
 _symmetry_equiv_pos_as_xyz
  1  'x, y, z'
loop_
 _atom_site_type_symbol
 _atom_site_label
 _atom_site_symmetry_multiplicity
 _atom_site_fract_x
 _atom_site_fract_y
 _atom_site_fract_z
 _atom_site_occupancy
  Mg  Mg0  1  0.16653881  0.33326890  0.62500000  1
  Mg  Mg1  1  0.16713878  0.83356889  0.62500000  1
  Mg  Mg2  1  0.66463151  0.32969937  0.12500000  1
  Mg  Mg3  1  0.66566457  0.33259830  0.62500000  1
  Mg  Mg4  1  0.66463151  0.83493114  0.12500000  1
  Mg  Mg5  1  0.66566457  0.83306527  0.62500000  1
  Mg  Mg6  1  0.32865491  0.16612361  0.36679538  1
  Mg  Mg7  1  0.32865491  0.16612361  0.88320462  1
  Mg  Mg8  1  0.32865491  0.66253230  0.36679538  1
  Mg  Mg9  1  0.32865491  0.66253230  0.88320462  1
  Mg  Mg10  1  0.84091613  0.17045856  0.37161999  1
  Mg  Mg11  1  0.84091613  0.17045856  0.87838001  1
  Mg  Mg12  1  0.84029462  0.67014781  0.36981670  1
  Mg  Mg13  1  0.84029462  0.67014781  0.88018330  1
  Nb  Nb0  1  0.15938148  0.32969024  0.12500000  1
  Cr  Cr0  1  0.16930763  0.83465331  0.12500000  1
loop_
_geom_bond_atom_site_label_1
_geom_bond_atom_site_label_2
_geom_bond_distance
_geom_bond_site_symmetry_2
Mg0 Mg1 3.106869 1_545
Mg0 Mg1 3.106869 1_555
Mg0 Mg11 3.108673 1_455
Mg0 Mg10 3.108673 1_455
Mg0 Mg6 3.142547 1_555
Mg0 Mg7 3.142547 1_555
Mg0 Mg9 3.142553 1_555
Mg0 Mg8 3.142553 1_555
Mg0 Mg5 3.156211 1_555
Mg0 Mg3 3.156211 1_555
Mg0 Mg5 3.163162 1_445
Mg0 Mg3 3.163163 1_455
Mg1 Mg12 3.127325 1_455
Mg1 Mg13 3.127325 1_455
Mg1 Mg3 3.151908 1_565
Mg1 Mg5 3.151908 1_555
Mg1 Mg9 3.152627 1_555
Mg1 Mg8 3.152627 1_555
Mg1 Mg6 3.152633 1_565
Mg1 Mg7 3.152633 1_565
Mg1 Mg3 3.167463 1_455
Mg1 Mg5 3.167463 1_455
Mg2 Mg6 3.048845 1_555
Mg2 Mg7 3.048845 1_554
Mg2 Mg4 3.074358 1_545
Mg2 Nb0 3.126536 1_655
Mg2 Mg4 3.139376 1_555
Mg2 Nb0 3.192834 1_555
Mg3 Mg5 3.103966 1_545
Mg3 Mg5 3.109769 1_555
Mg3 Mg6 3.184428 1_555
Mg3 Mg7 3.184428 1_555
Mg4 Mg9 3.048844 1_554
Mg4 Mg8 3.048844 1_555
Mg4 Nb0 3.126535 1_665
Mg4 Nb0 3.192833 1_555
Mg5 Mg8 3.184428 1_555
Mg5 Mg9 3.184428 1_555
Mg6 Nb0 3.020390 1_555
Mg6 Mg8 3.084552 1_555
Mg6 Mg8 3.129183 1_545
Mg7 Nb0 3.020390 1_556
Mg7 Mg9 3.084552 1_555
Mg7 Mg9 3.129183 1_545
Mg8 Nb0 3.020397 1_555
Mg9 Nb0 3.020397 1_556
Mg10 Nb0 3.030597 1_655
Mg10 Mg2 3.068759 1_555
Mg10 Mg4 3.068765 1_545
Mg10 Mg8 3.095911 1_655
Mg10 Mg6 3.095911 1_655
Mg10 Mg12 3.106922 1_545
Mg10 Mg12 3.106922 1_555
Mg10 Mg3 3.129177 1_555
Mg10 Mg5 3.129183 1_545
Mg10 Mg8 3.224373 1_545
Mg10 Mg6 3.224373 1_555
Mg11 Nb0 3.030597 1_656
Mg11 Mg2 3.068759 1_556
Mg11 Mg4 3.068765 1_546
Mg11 Mg9 3.095911 1_655
Mg11 Mg7 3.095911 1_655
Mg11 Mg13 3.106922 1_545
Mg11 Mg13 3.106922 1_555
Mg11 Mg3 3.129177 1_555
Mg11 Mg5 3.129183 1_545
Mg11 Mg9 3.224373 1_545
Mg11 Mg7 3.224373 1_555
Mg12 Mg4 3.069622 1_555
Mg12 Mg2 3.069629 1_555
Mg12 Mg6 3.109814 1_665
Mg12 Mg8 3.109814 1_655
Mg12 Mg5 3.144258 1_555
Mg12 Mg3 3.144264 1_555
Mg12 Mg6 3.210383 1_555
Mg12 Mg8 3.210383 1_555
Mg13 Mg4 3.069622 1_556
Mg13 Mg2 3.069629 1_556
Mg13 Mg7 3.109814 1_665
Mg13 Mg9 3.109814 1_655
Mg13 Mg5 3.144258 1_555
Mg13 Mg3 3.144264 1_555
Mg13 Mg7 3.210383 1_555
Mg13 Mg9 3.210383 1_555
Cr0 Mg8 3.015512 1_555
Cr0 Mg9 3.015512 1_554
Cr0 Mg6 3.015518 1_565
Cr0 Mg7 3.015518 1_564
Cr0 Mg13 3.049959 1_454
Cr0 Mg12 3.049959 1_455
Cr0 Nb0 3.107347 1_555
Cr0 Nb0 3.107347 1_565
Cr0 Mg2 3.129286 1_565
Cr0 Mg4 3.129286 1_555
Cr0 Mg2 3.190084 1_455
Cr0 Mg4 3.190084 1_455
