# generated using pymatgen
data_ZnH7C3NO7
_symmetry_space_group_name_H-M   'P 1'
_cell_length_a   7.60040343
_cell_length_b   7.75157746
_cell_length_c   13.09699013
_cell_angle_alpha   90.00000000
_cell_angle_beta   90.00000000
_cell_angle_gamma   90.00000000
_symmetry_Int_Tables_number   1
_chemical_formula_structural   ZnH7C3NO7
_chemical_formula_sum   'Zn4 H28 C12 N4 O28'
_cell_volume   771.61069241
_cell_formula_units_Z   4
loop_
 _symmetry_equiv_pos_site_id
 _symmetry_equiv_pos_as_xyz
  1  'x, y, z'
loop_
 _atom_site_type_symbol
 _atom_site_label
 _atom_site_symmetry_multiplicity
 _atom_site_fract_x
 _atom_site_fract_y
 _atom_site_fract_z
 _atom_site_occupancy
  Zn  Zn0  1  0.04864590  0.99470277  0.58621346  1
  Zn  Zn1  1  0.54864593  0.50529723  0.41378657  1
  Zn  Zn2  1  0.95135407  0.49470277  0.91378654  1
  Zn  Zn3  1  0.45135410  0.00529722  0.08621344  1
  H  H0  1  0.04996655  0.66057434  0.71922719  1
  H  H1  1  0.54996657  0.83942566  0.28077278  1
  H  H2  1  0.95003343  0.16057336  0.78077281  1
  H  H3  1  0.45003346  0.33942664  0.21922722  1
  H  H4  1  0.82896923  0.22434591  0.44660074  1
  H  H5  1  0.32896923  0.27565410  0.55339929  1
  H  H6  1  0.17103077  0.72434593  0.05339926  1
  H  H7  1  0.67103077  0.77565407  0.94660071  1
  H  H8  1  0.72248356  0.77750302  0.53478316  1
  H  H9  1  0.22248356  0.72249698  0.46521681  1
  H  H10  1  0.27751644  0.27750302  0.96521684  1
  H  H11  1  0.77751644  0.22249698  0.03478318  1
  H  H12  1  0.70112928  0.94790417  0.71662769  1
  H  H13  1  0.20112928  0.55209583  0.28337231  1
  H  H14  1  0.29887072  0.44790417  0.78337231  1
  H  H15  1  0.79887072  0.05209582  0.21662769  1
  H  H16  1  0.56532166  0.74524443  0.77674359  1
  H  H17  1  0.06532166  0.75475557  0.22325639  1
  H  H18  1  0.43467834  0.24524446  0.72325641  1
  H  H19  1  0.93467834  0.25475554  0.27674362  1
  H  H20  1  0.39028762  0.82577137  0.71069552  1
  H  H21  1  0.89028759  0.67422863  0.28930451  1
  H  H22  1  0.60971241  0.32577140  0.78930448  1
  H  H23  1  0.10971239  0.17422860  0.21069549  1
  H  H24  1  0.42348000  0.87676860  0.83798417  1
  H  H25  1  0.92348003  0.62323140  0.16201582  1
  H  H26  1  0.57651997  0.37676857  0.66201583  1
  H  H27  1  0.07652000  0.12323142  0.33798420  1
  C  C0  1  0.92186036  0.71890108  0.73614064  1
  C  C1  1  0.42186039  0.78109892  0.26385933  1
  C  C2  1  0.07813961  0.21890107  0.76385936  1
  C  C3  1  0.57813964  0.28109895  0.23614067  1
  C  C4  1  0.78348578  0.25470086  0.52425968  1
  C  C5  1  0.28348578  0.24529912  0.47574035  1
  C  C6  1  0.21651421  0.75470089  0.97574032  1
  C  C7  1  0.71651422  0.74529911  0.02425965  1
  C  C8  1  0.80613563  0.77135489  0.46648501  1
  C  C9  1  0.30613560  0.72864511  0.53351502  1
  C  C10  1  0.19386439  0.27135492  0.03351499  1
  C  C11  1  0.69386437  0.22864510  0.96648498  1
  N  N0  1  0.48358260  0.85055844  0.76797647  1
  N  N1  1  0.98358260  0.64944156  0.23202353  1
  N  N2  1  0.51641740  0.35055847  0.73202353  1
  N  N3  1  0.01641739  0.14944153  0.26797647  1
  O  O0  1  0.88490689  0.85944814  0.69098350  1
  O  O1  1  0.38490689  0.64055186  0.30901647  1
  O  O2  1  0.11509312  0.35944814  0.80901650  1
  O  O3  1  0.61509311  0.14055187  0.19098351  1
  O  O4  1  0.81995458  0.64498051  0.79807568  1
  O  O5  1  0.31995458  0.85501949  0.20192432  1
  O  O6  1  0.18004542  0.14498053  0.70192432  1
  O  O7  1  0.68004542  0.35501946  0.29807568  1
  O  O8  1  0.84684289  0.17281553  0.59833429  1
  O  O9  1  0.34684291  0.32718447  0.40166574  1
  O  O10  1  0.15315709  0.67281553  0.90166571  1
  O  O11  1  0.65315711  0.82718447  0.09833428  1
  O  O12  1  0.66787415  0.37136511  0.53374583  1
  O  O13  1  0.16787416  0.12863489  0.46625414  1
  O  O14  1  0.33212585  0.87136508  0.96625417  1
  O  O15  1  0.83212585  0.62863492  0.03374586  1
  O  O16  1  0.94659943  0.85576034  0.46363987  1
  O  O17  1  0.44659943  0.64423966  0.53636010  1
  O  O18  1  0.05340057  0.35576034  0.03636012  1
  O  O19  1  0.55340057  0.14423968  0.96363990  1
  O  O20  1  0.75293644  0.67656702  0.39330481  1
  O  O21  1  0.25293641  0.82343298  0.60669522  1
  O  O22  1  0.24706357  0.17656701  0.10669520  1
  O  O23  1  0.74706356  0.32343298  0.89330478  1
  O  O24  1  0.58297184  0.99594724  0.73720405  1
  O  O25  1  0.08297186  0.50405276  0.26279598  1
  O  O26  1  0.41702816  0.49594721  0.76279595  1
  O  O27  1  0.91702816  0.00405278  0.23720403  1
loop_
_geom_bond_atom_site_label_1
_geom_bond_atom_site_label_2
_geom_bond_distance
_geom_bond_site_symmetry_2
H12 O24 1.008859 1_555
H12 O0 1.591841 1_555
H13 O25 1.008859 1_555
H13 O1 1.591841 1_555
H14 O26 1.008859 1_555
H14 O2 1.591841 1_555
H15 O27 1.008859 1_555
H15 O3 1.591841 1_555
H16 N0 1.032261 1_555
H17 N1 1.032261 1_455
H18 N2 1.032261 1_555
H19 N3 1.032261 1_655
H20 N0 1.050011 1_555
H20 O21 1.716216 1_555
H21 N1 1.050011 1_555
H21 O20 1.716216 1_555
H22 N2 1.050011 1_555
H22 O23 1.716216 1_555
H23 N3 1.050011 1_555
H23 O22 1.716216 1_555
H24 N0 1.044335 1_555
H25 N1 1.044335 1_555
H26 N2 1.044335 1_555
H27 N3 1.044335 1_555
C0 H0 1.096128 1_655
C0 O4 1.259446 1_555
C0 O0 1.271059 1_555
C1 H1 1.096128 1_555
C1 O5 1.259446 1_555
C1 O1 1.271059 1_555
C2 H2 1.096131 1_455
C2 O6 1.259446 1_555
C2 O2 1.271059 1_555
C3 H3 1.096131 1_555
C3 O7 1.259445 1_555
C3 O3 1.271059 1_555
C4 H4 1.099708 1_555
C4 O8 1.255379 1_555
C4 O12 1.267027 1_555
C5 H5 1.099708 1_555
C5 O9 1.255379 1_555
C5 O13 1.267027 1_555
C6 H6 1.099708 1_556
C6 O10 1.255379 1_555
C6 O14 1.267027 1_555
C7 H7 1.099708 1_554
C7 O11 1.255379 1_555
C7 O15 1.267027 1_555
C8 H8 1.098467 1_555
C8 O16 1.252675 1_555
C8 O20 1.273562 1_555
C9 H9 1.098468 1_555
C9 O17 1.252675 1_555
C9 O21 1.273562 1_555
C10 H10 1.098467 1_554
C10 O18 1.252675 1_555
C10 O22 1.273562 1_555
C11 H11 1.098468 1_556
C11 O19 1.252675 1_555
C11 O23 1.273562 1_555
N0 O24 1.415333 1_555
N1 O25 1.415334 1_655
N2 O26 1.415333 1_555
N3 O27 1.415333 1_455
O0 Zn0 2.128571 1_655
O1 Zn1 2.128571 1_555
O2 Zn2 2.128571 1_455
O3 Zn3 2.128571 1_555
O4 Zn2 2.156613 1_555
O5 Zn3 2.156613 1_565
O6 Zn0 2.156613 1_545
O7 Zn1 2.156613 1_555
O8 Zn0 2.069759 1_645
O9 Zn1 2.069759 1_555
O10 Zn2 2.069759 1_455
O11 Zn3 2.069759 1_565
O12 Zn1 2.089825 1_555
O13 Zn0 2.089825 1_545
O14 Zn3 2.089825 1_566
O15 Zn2 2.089825 1_554
O16 Zn0 2.082945 1_655
O17 Zn1 2.082944 1_555
O18 Zn2 2.082945 1_454
O19 Zn3 2.082944 1_556
O20 Zn1 2.060426 1_555
O21 Zn0 2.060426 1_555
O22 Zn3 2.060426 1_555
O23 Zn2 2.060426 1_555
