# generated using pymatgen
data_Nd2Si2PbS8
_symmetry_space_group_name_H-M   'P 1'
_cell_length_a   9.05285851
_cell_length_b   9.05285851
_cell_length_c   10.24274592
_cell_angle_alpha   65.20423757
_cell_angle_beta   65.20423757
_cell_angle_gamma   60.31913623
_symmetry_Int_Tables_number   1
_chemical_formula_structural   Nd2Si2PbS8
_chemical_formula_sum   'Nd4 Si4 Pb2 S16'
_cell_volume   637.76454609
_cell_formula_units_Z   2
loop_
 _symmetry_equiv_pos_site_id
 _symmetry_equiv_pos_as_xyz
  1  'x, y, z'
loop_
 _atom_site_type_symbol
 _atom_site_label
 _atom_site_symmetry_multiplicity
 _atom_site_fract_x
 _atom_site_fract_y
 _atom_site_fract_z
 _atom_site_occupancy
  Nd  Nd0  1  0.06119200  0.25187400  0.74813200  1
  Nd  Nd1  1  0.43947700  0.55708200  0.75314900  1
  Nd  Nd2  1  0.25187400  0.06119200  0.24813200  1
  Nd  Nd3  1  0.55708200  0.43947700  0.25314900  1
  Si  Si0  1  0.65235800  0.17011000  0.02147800  1
  Si  Si1  1  0.17011000  0.65235800  0.52147800  1
  Si  Si2  1  0.33280100  0.84607900  0.97768500  1
  Si  Si3  1  0.84607900  0.33280100  0.47768500  1
  Pb  Pb0  1  0.74922000  0.92886500  0.74965400  1
  Pb  Pb1  1  0.92886500  0.74922000  0.24965400  1
  S  S0  1  0.88606900  0.97597600  0.92651500  1
  S  S1  1  0.71393000  0.39824800  0.94653900  1
  S  S2  1  0.43802700  0.22618800  0.94710400  1
  S  S3  1  0.39824800  0.71393000  0.44653900  1
  S  S4  1  0.97597600  0.88606900  0.42651500  1
  S  S5  1  0.22618800  0.43802700  0.44710400  1
  S  S6  1  0.11101900  0.06813900  0.04551400  1
  S  S7  1  0.28156800  0.61192300  0.06390100  1
  S  S8  1  0.53345700  0.78951500  0.07064300  1
  S  S9  1  0.61192300  0.28156800  0.56390100  1
  S  S10  1  0.06813900  0.11101900  0.54551400  1
  S  S11  1  0.78951500  0.53345700  0.57064300  1
  S  S12  1  0.56573600  0.09843800  0.25971200  1
  S  S13  1  0.09843800  0.56573600  0.75971200  1
  S  S14  1  0.40013100  0.91257800  0.73997400  1
  S  S15  1  0.91257800  0.40013100  0.23997400  1
loop_
_geom_bond_atom_site_label_1
_geom_bond_atom_site_label_2
_geom_bond_distance
_geom_bond_site_symmetry_2
Nd0 S10 2.822744 1_555
Nd0 S6 2.899668 1_556
Nd0 S1 2.922901 1_455
Nd0 S5 2.974832 1_555
Nd0 S13 3.076693 1_555
Nd0 S11 3.083242 1_455
Nd0 S14 3.085949 1_545
Nd0 S0 3.123163 1_445
Nd1 S2 2.818802 1_555
Nd1 S11 2.877040 1_555
Nd1 S3 2.955741 1_555
Nd1 S14 3.007166 1_555
Nd1 S13 3.022144 1_555
Nd1 S7 3.037650 1_556
Nd1 S9 3.174350 1_555
Nd1 S1 3.219539 1_555
Nd2 S6 2.822744 1_555
Nd2 S10 2.899668 1_555
Nd2 S3 2.922901 1_545
Nd2 S2 2.974832 1_554
Nd2 S12 3.076693 1_555
Nd2 S8 3.083242 1_545
Nd2 S15 3.085949 1_455
Nd2 S4 3.123163 1_445
Nd3 S5 2.818802 1_555
Nd3 S8 2.877040 1_555
Nd3 S1 2.955741 1_554
Nd3 S15 3.007166 1_555
Nd3 S12 3.022144 1_555
Nd3 S9 3.037650 1_555
Nd3 S7 3.174350 1_555
Nd3 S3 3.219539 1_555
Pb0 S0 2.837625 1_555
Pb0 S9 2.884028 1_565
Pb0 S8 3.129087 1_556
Pb0 S4 3.147705 1_555
Pb0 S13 3.241717 1_655
Pb0 S14 3.279529 1_555
Pb1 S4 2.837625 1_555
Pb1 S7 2.884028 1_655
Pb1 S11 3.129087 1_555
Pb1 S0 3.147705 1_554
Pb1 S12 3.241717 1_565
Pb1 S15 3.279529 1_555
S0 Si0 2.129898 1_566
S1 Si0 2.148690 1_556
S2 Si0 2.131374 1_556
S3 Si1 2.148690 1_555
S4 Si1 2.129898 1_655
S5 Si1 2.131374 1_555
S6 Si2 2.135256 1_544
S7 Si2 2.132701 1_554
S8 Si2 2.142215 1_554
S9 Si3 2.132701 1_555
S10 Si3 2.135256 1_455
S11 Si3 2.142215 1_555
S12 Si0 2.135704 1_555
S13 Si1 2.135704 1_555
S14 Si2 2.133399 1_555
S15 Si3 2.133399 1_555
