# generated using pymatgen
data_Y2CdSe4
_symmetry_space_group_name_H-M   'P 1'
_cell_length_a   8.29903023
_cell_length_b   8.29903023
_cell_length_c   8.29903023
_cell_angle_alpha   60.00000000
_cell_angle_beta   60.00000000
_cell_angle_gamma   60.00000000
_symmetry_Int_Tables_number   1
_chemical_formula_structural   Y2CdSe4
_chemical_formula_sum   'Y4 Cd2 Se8'
_cell_volume   404.17276104
_cell_formula_units_Z   2
loop_
 _symmetry_equiv_pos_site_id
 _symmetry_equiv_pos_as_xyz
  1  'x, y, z'
loop_
 _atom_site_type_symbol
 _atom_site_label
 _atom_site_symmetry_multiplicity
 _atom_site_fract_x
 _atom_site_fract_y
 _atom_site_fract_z
 _atom_site_occupancy
  Y  Y0  1  0.12500000  0.62500000  0.62500000  1
  Y  Y1  1  0.62500000  0.12500000  0.62500000  1
  Y  Y2  1  0.62500000  0.62500000  0.12500000  1
  Y  Y3  1  0.62500000  0.62500000  0.62500000  1
  Cd  Cd0  1  0.25000000  0.25000000  0.25000000  1
  Cd  Cd1  1  0.00000000  0.00000000  0.00000000  1
  Se  Se0  1  0.85542120  0.38152627  0.38152627  1
  Se  Se1  1  0.38152627  0.85542120  0.38152627  1
  Se  Se2  1  0.38152627  0.38152627  0.85542120  1
  Se  Se3  1  0.38152627  0.38152627  0.38152627  1
  Se  Se4  1  0.39457880  0.86847373  0.86847373  1
  Se  Se5  1  0.86847373  0.39457880  0.86847373  1
  Se  Se6  1  0.86847373  0.86847373  0.39457880  1
  Se  Se7  1  0.86847373  0.86847373  0.86847373  1
loop_
_geom_bond_atom_site_label_1
_geom_bond_atom_site_label_2
_geom_bond_distance
_geom_bond_site_symmetry_2
Cd0 Se1 2.673717 1_545
Cd0 Se2 2.673717 1_554
Cd0 Se0 2.673717 1_455
Cd0 Se3 2.673717 1_555
Cd1 Se5 2.673717 1_454
Cd1 Se4 2.673717 1_544
Cd1 Se6 2.673717 1_445
Cd1 Se7 2.673717 1_444
Se0 Y3 2.859606 1_555
Se0 Y1 2.859607 1_555
Se0 Y2 2.859607 1_555
Se1 Y3 2.859606 1_555
Se1 Y0 2.859607 1_555
Se1 Y2 2.859607 1_555
Se2 Y3 2.859606 1_555
Se2 Y1 2.859607 1_555
Se2 Y0 2.859607 1_555
Se3 Y2 2.859606 1_555
Se3 Y1 2.859606 1_555
Se3 Y0 2.859606 1_555
Se4 Y3 2.859606 1_555
Se4 Y2 2.859607 1_556
Se4 Y1 2.859607 1_565
Se5 Y3 2.859606 1_555
Se5 Y0 2.859607 1_655
Se5 Y2 2.859607 1_556
Se6 Y3 2.859606 1_555
Se6 Y0 2.859607 1_655
Se6 Y1 2.859607 1_565
Se7 Y0 2.859606 1_655
Se7 Y1 2.859606 1_565
Se7 Y2 2.859606 1_556
