# generated using pymatgen
data_La7SmNi6(AgO10)2
_symmetry_space_group_name_H-M   'P 1'
_cell_length_a   11.22409268
_cell_length_b   11.62605340
_cell_length_c   17.94203225
_cell_angle_alpha   109.34120073
_cell_angle_beta   108.24144348
_cell_angle_gamma   90.02897754
_symmetry_Int_Tables_number   1
_chemical_formula_structural   La7SmNi6(AgO10)2
_chemical_formula_sum   'La28 Sm4 Ni24 Ag8 O80'
_cell_volume   2083.91022083
_cell_formula_units_Z   4
loop_
 _symmetry_equiv_pos_site_id
 _symmetry_equiv_pos_as_xyz
  1  'x, y, z'
loop_
 _atom_site_type_symbol
 _atom_site_label
 _atom_site_symmetry_multiplicity
 _atom_site_fract_x
 _atom_site_fract_y
 _atom_site_fract_z
 _atom_site_occupancy
  La  La0  1  0.30057500  0.06819000  0.12214100  1
  La  La1  1  0.29301900  0.06171300  0.60878600  1
  La  La2  1  0.30288600  0.55937000  0.60644700  1
  La  La3  1  0.80394000  0.06793400  0.61088000  1
  La  La4  1  0.80509800  0.56626000  0.12323000  1
  La  La5  1  0.80688200  0.55963900  0.60726000  1
  La  La6  1  0.19074100  0.43753900  0.38978800  1
  La  La7  1  0.17954500  0.43277100  0.88125300  1
  La  La8  1  0.18064200  0.93786800  0.38905600  1
  La  La9  1  0.18163000  0.94079000  0.87844100  1
  La  La10  1  0.69933300  0.43916300  0.39085300  1
  La  La11  1  0.69448500  0.93303800  0.39050800  1
  La  La12  1  0.67987700  0.93392000  0.87571600  1
  La  La13  1  0.06139800  0.30272900  0.12009700  1
  La  La14  1  0.05205200  0.29832600  0.60738100  1
  La  La15  1  0.05318900  0.79518100  0.60833400  1
  La  La16  1  0.54595900  0.30714700  0.12033700  1
  La  La17  1  0.55752000  0.30168700  0.60973000  1
  La  La18  1  0.54772400  0.80803500  0.12420300  1
  La  La19  1  0.55283900  0.79039800  0.60631500  1
  La  La20  1  0.44597900  0.20810000  0.39217300  1
  La  La21  1  0.43030000  0.19675800  0.88027400  1
  La  La22  1  0.44638700  0.69729200  0.38766000  1
  La  La23  1  0.42778500  0.69346700  0.87518400  1
  La  La24  1  0.94405700  0.20440200  0.39145300  1
  La  La25  1  0.93636400  0.19625800  0.88058100  1
  La  La26  1  0.94397700  0.70198900  0.39167600  1
  La  La27  1  0.92785600  0.69167100  0.87607700  1
  Sm  Sm0  1  0.30116900  0.56315200  0.12128300  1
  Sm  Sm1  1  0.80476400  0.06918800  0.12728600  1
  Sm  Sm2  1  0.67596300  0.43060700  0.87350100  1
  Sm  Sm3  1  0.05922500  0.80352200  0.12691200  1
  Ni  Ni0  1  0.99960600  0.99984900  0.49994600  1
  Ni  Ni1  1  0.00297000  0.50003100  0.49964500  1
  Ni  Ni2  1  0.50234400  0.49938200  0.49846100  1
  Ni  Ni3  1  0.24982500  0.25238900  0.00152300  1
  Ni  Ni4  1  0.24873400  0.25051900  0.49801400  1
  Ni  Ni5  1  0.25024300  0.74793200  0.49990200  1
  Ni  Ni6  1  0.75387100  0.25176200  0.49816700  1
  Ni  Ni7  1  0.75537300  0.74813700  0.50123200  1
  Ni  Ni8  1  0.10874300  0.10129000  0.25540800  1
  Ni  Ni9  1  0.10808500  0.10004900  0.74727900  1
  Ni  Ni10  1  0.11375500  0.60397100  0.25558800  1
  Ni  Ni11  1  0.10766800  0.59610000  0.74382800  1
  Ni  Ni12  1  0.61558900  0.10359100  0.25709400  1
  Ni  Ni13  1  0.61089600  0.10115500  0.74769400  1
  Ni  Ni14  1  0.61327300  0.60310300  0.25481900  1
  Ni  Ni15  1  0.60643900  0.59712200  0.74422100  1
  Ni  Ni16  1  0.36009500  0.40166800  0.25208600  1
  Ni  Ni17  1  0.35625700  0.39543800  0.74213400  1
  Ni  Ni18  1  0.36414800  0.89995900  0.25264700  1
  Ni  Ni19  1  0.35643900  0.89718100  0.74283200  1
  Ni  Ni20  1  0.86214000  0.39922500  0.25381000  1
  Ni  Ni21  1  0.85642700  0.39642400  0.74330400  1
  Ni  Ni22  1  0.86118500  0.90102100  0.25407100  1
  Ni  Ni23  1  0.85799900  0.89723800  0.74382100  1
  Ag  Ag0  1  0.99708500  0.99858800  0.00382000  1
  Ag  Ag1  1  0.99182100  0.49650000  0.99880500  1
  Ag  Ag2  1  0.49778900  0.00462400  0.00311200  1
  Ag  Ag3  1  0.49812000  0.99966800  0.49967900  1
  Ag  Ag4  1  0.49426100  0.50182700  0.99961500  1
  Ag  Ag5  1  0.24032900  0.75169600  0.99822800  1
  Ag  Ag6  1  0.74736100  0.24885400  0.00322100  1
  Ag  Ag7  1  0.74634300  0.75084100  0.00298600  1
  O  O0  1  0.11391500  0.11892400  0.48313900  1
  O  O1  1  0.11004300  0.12085500  0.97440100  1
  O  O2  1  0.11427800  0.61622500  0.47907900  1
  O  O3  1  0.09512800  0.60989600  0.96198500  1
  O  O4  1  0.61613900  0.12505400  0.47754900  1
  O  O5  1  0.59814800  0.11086700  0.96026500  1
  O  O6  1  0.61620900  0.61732700  0.48112200  1
  O  O7  1  0.59763400  0.60543700  0.95600600  1
  O  O8  1  0.14250700  0.38627000  0.03008200  1
  O  O9  1  0.13431000  0.38300000  0.51941500  1
  O  O10  1  0.13822500  0.89187000  0.04809000  1
  O  O11  1  0.13151300  0.88091900  0.51724600  1
  O  O12  1  0.63355400  0.38611200  0.03666100  1
  O  O13  1  0.63367000  0.38181800  0.51628400  1
  O  O14  1  0.64144100  0.89668900  0.04372900  1
  O  O15  1  0.63895700  0.87508300  0.52149200  1
  O  O16  1  0.35326600  0.11355100  0.47201500  1
  O  O17  1  0.35277400  0.11465000  0.97081000  1
  O  O18  1  0.36562400  0.61174800  0.48067500  1
  O  O19  1  0.34689200  0.60497500  0.96074400  1
  O  O20  1  0.86672400  0.11443600  0.48300500  1
  O  O21  1  0.85183600  0.10125600  0.96580200  1
  O  O22  1  0.86775300  0.61266500  0.48213100  1
  O  O23  1  0.84084000  0.59396100  0.95796100  1
  O  O24  1  0.37918800  0.39654000  0.03356600  1
  O  O25  1  0.38202000  0.38434500  0.51285000  1
  O  O26  1  0.38317200  0.89828100  0.03343100  1
  O  O27  1  0.38148500  0.88403200  0.52619900  1
  O  O28  1  0.89025500  0.39508600  0.04239900  1
  O  O29  1  0.88545000  0.38795600  0.51763900  1
  O  O30  1  0.89344300  0.90158000  0.04974900  1
  O  O31  1  0.88502500  0.88687900  0.51968500  1
  O  O32  1  0.13057400  0.13902400  0.16409600  1
  O  O33  1  0.08743200  0.11138800  0.63763900  1
  O  O34  1  0.12865700  0.63182200  0.15769200  1
  O  O35  1  0.07759000  0.60654400  0.63259600  1
  O  O36  1  0.62530700  0.13993300  0.16056900  1
  O  O37  1  0.62151700  0.13883800  0.65280900  1
  O  O38  1  0.62560000  0.63795800  0.15853300  1
  O  O39  1  0.57742000  0.60302900  0.63230700  1
  O  O40  1  0.44884600  0.39133500  0.36138600  1
  O  O41  1  0.46339700  0.36276900  0.83971800  1
  O  O42  1  0.46842100  0.86192800  0.34674900  1
  O  O43  1  0.46453200  0.86721000  0.84110600  1
  O  O44  1  0.94309600  0.39207500  0.36643600  1
  O  O45  1  0.96339000  0.36390900  0.83980200  1
  O  O46  1  0.94740600  0.89174300  0.36567000  1
  O  O47  1  0.96621100  0.87009800  0.84384900  1
  O  O48  1  0.34174600  0.27880600  0.13993400  1
  O  O49  1  0.33015700  0.27381200  0.63042600  1
  O  O50  1  0.36580400  0.76688600  0.15226400  1
  O  O51  1  0.32255000  0.77143600  0.63237800  1
  O  O52  1  0.87863000  0.26805700  0.15913700  1
  O  O53  1  0.83395800  0.28151700  0.63079000  1
  O  O54  1  0.88726700  0.77054100  0.16259200  1
  O  O55  1  0.83354200  0.77252500  0.63407900  1
  O  O56  1  0.18373600  0.22590000  0.36632400  1
  O  O57  1  0.20380700  0.22066000  0.86023700  1
  O  O58  1  0.19628300  0.72765400  0.36723800  1
  O  O59  1  0.21329800  0.73011100  0.84009000  1
  O  O60  1  0.70164300  0.22691800  0.36691500  1
  O  O61  1  0.71764400  0.23118200  0.84893700  1
  O  O62  1  0.70349600  0.71857700  0.36765400  1
  O  O63  1  0.71465300  0.72760200  0.84193600  1
  O  O64  1  0.43573700  0.06238600  0.25531500  1
  O  O65  1  0.42668800  0.05926100  0.74467700  1
  O  O66  1  0.43169400  0.55850200  0.24821700  1
  O  O67  1  0.42749900  0.55548400  0.74195500  1
  O  O68  1  0.92834000  0.06209800  0.25402600  1
  O  O69  1  0.93174600  0.05917700  0.74662600  1
  O  O70  1  0.93508800  0.56146700  0.25590800  1
  O  O71  1  0.92844300  0.55742300  0.74388600  1
  O  O72  1  0.18565800  0.44366500  0.25533100  1
  O  O73  1  0.17939000  0.43511600  0.74582800  1
  O  O74  1  0.18106300  0.94049800  0.25364100  1
  O  O75  1  0.17934500  0.93978600  0.74450500  1
  O  O76  1  0.68212300  0.44118000  0.25354700  1
  O  O77  1  0.67998000  0.43949700  0.74853200  1
  O  O78  1  0.68499100  0.94288200  0.25686600  1
  O  O79  1  0.67682200  0.93626600  0.74224000  1
loop_
_geom_bond_atom_site_label_1
_geom_bond_atom_site_label_2
_geom_bond_distance
_geom_bond_site_symmetry_2
La0 O32 2.318595 1_555
La0 O48 2.387461 1_555
La0 O64 2.419276 1_555
La0 O10 2.442206 1_545
La0 O26 2.477480 1_545
La0 O1 3.082577 1_554
La1 O49 2.380862 1_555
La1 O65 2.439752 1_555
La1 O11 2.499441 1_545
La1 O27 2.518832 1_545
La1 O33 2.545068 1_555
La1 O0 2.779063 1_555
La1 O16 2.976646 1_555
La2 O51 2.349292 1_555
La2 O67 2.411099 1_555
La2 O9 2.499689 1_555
La2 O25 2.534125 1_555
La2 O35 2.736632 1_555
La2 O18 2.804203 1_555
La2 O2 2.848521 1_555
La2 O39 2.985845 1_555
La3 O53 2.396517 1_555
La3 O69 2.444837 1_555
La3 O37 2.448084 1_555
La3 O31 2.566941 1_545
La3 O15 2.604407 1_545
La3 O20 2.808254 1_555
La3 O4 2.916131 1_555
La3 O33 3.080875 1_655
La4 O54 2.338566 1_555
La4 O38 2.367687 1_555
La4 O70 2.390031 1_555
La4 O28 2.436239 1_555
La4 O12 2.544639 1_555
La5 O55 2.359463 1_555
La5 O71 2.412336 1_555
La5 O29 2.472012 1_555
La5 O13 2.547949 1_555
La5 O39 2.768644 1_555
La5 O22 2.786360 1_555
La5 O6 2.850712 1_555
La5 O35 2.950530 1_655
La6 O56 2.351712 1_555
La6 O72 2.419877 1_555
La6 O2 2.505366 1_555
La6 O18 2.533502 1_555
La6 O44 2.702551 1_455
La6 O25 2.793762 1_555
La6 O9 2.847999 1_555
La6 O40 3.112118 1_555
La7 O45 2.356750 1_455
La7 O57 2.397207 1_555
La7 O73 2.438423 1_555
La7 O19 2.449109 1_555
La7 O3 2.474243 1_555
La8 O58 2.359395 1_555
La8 O74 2.441395 1_555
La8 O0 2.506139 1_565
La8 O16 2.513592 1_565
La8 O46 2.545329 1_455
La8 O11 2.799054 1_555
La8 O27 3.012830 1_555
La9 O47 2.372228 1_455
La9 O59 2.374199 1_555
La9 O75 2.391326 1_555
La9 O17 2.511253 1_565
La9 O1 2.544161 1_565
La10 O60 2.362008 1_555
La10 O76 2.418116 1_555
La10 O22 2.488823 1_555
La10 O6 2.551447 1_555
La10 O40 2.714094 1_555
La10 O29 2.795773 1_555
La10 O13 2.843250 1_555
La10 O44 2.927536 1_555
La11 O62 2.396684 1_555
La11 O78 2.407439 1_555
La11 O42 2.461478 1_555
La11 O20 2.570642 1_565
La11 O4 2.597724 1_565
La11 O31 2.820530 1_555
La11 O15 2.886333 1_555
La11 O46 3.023176 1_555
La12 O63 2.336528 1_555
La12 O43 2.359812 1_555
La12 O79 2.393531 1_555
La12 O21 2.466341 1_565
La12 O5 2.486113 1_565
La13 O32 2.336959 1_555
La13 O72 2.400612 1_555
La13 O52 2.438679 1_455
La13 O28 2.470507 1_455
La13 O8 2.517761 1_555
La13 O1 2.972537 1_554
La14 O33 2.413158 1_555
La14 O73 2.429122 1_555
La14 O9 2.500603 1_555
La14 O29 2.530529 1_455
La14 O53 2.627620 1_455
La14 O0 2.773502 1_555
La14 O20 2.794062 1_455
La14 O49 3.044134 1_555
La15 O35 2.373298 1_555
La15 O75 2.431383 1_555
La15 O11 2.532793 1_555
La15 O31 2.544548 1_455
La15 O55 2.674603 1_455
La15 O22 2.797198 1_455
La15 O2 2.824530 1_555
La15 O51 2.943817 1_555
La16 O36 2.371146 1_555
La16 O76 2.391690 1_555
La16 O12 2.428894 1_555
La16 O48 2.463020 1_555
La16 O24 2.501407 1_555
La17 O37 2.306739 1_555
La17 O77 2.422835 1_555
La17 O13 2.518014 1_555
La17 O25 2.605750 1_555
La17 O49 2.725334 1_555
La17 O4 2.833143 1_555
La17 O16 3.002340 1_555
La17 O53 3.024958 1_555
La18 O50 2.335337 1_555
La18 O38 2.350461 1_555
La18 O78 2.393128 1_555
La18 O14 2.487778 1_555
La18 O26 2.532820 1_555
La19 O39 2.373146 1_555
La19 O79 2.427664 1_555
La19 O15 2.476352 1_555
La19 O27 2.501635 1_555
La19 O6 2.758252 1_555
La19 O18 2.782051 1_555
La19 O51 2.787973 1_555
La19 O55 3.050329 1_555
La20 O40 2.373784 1_555
La20 O64 2.445470 1_555
La20 O4 2.465014 1_555
La20 O16 2.513658 1_555
La20 O25 2.727236 1_555
La20 O13 2.748733 1_555
La20 O56 2.851548 1_555
La20 O60 3.060554 1_555
La21 O41 2.343364 1_555
La21 O65 2.416204 1_555
La21 O5 2.421708 1_555
La21 O57 2.482713 1_555
La21 O17 2.493649 1_555
La22 O42 2.303783 1_555
La22 O66 2.440833 1_555
La22 O6 2.518509 1_555
La22 O18 2.577126 1_555
La22 O58 2.753527 1_555
La22 O15 2.858104 1_555
La22 O27 2.997215 1_555
La22 O62 3.037206 1_555
La23 O43 2.366275 1_555
La23 O59 2.367146 1_555
La23 O67 2.396378 1_555
La23 O7 2.457427 1_555
La23 O19 2.481372 1_555
La24 O44 2.368114 1_555
La24 O68 2.423493 1_555
La24 O0 2.539647 1_655
La24 O20 2.564252 1_555
La24 O60 2.644362 1_555
La24 O29 2.801080 1_555
La24 O9 2.812658 1_655
La24 O56 2.887232 1_655
La25 O45 2.347206 1_555
La25 O69 2.388263 1_555
La25 O61 2.407286 1_555
La25 O1 2.515362 1_655
La25 O21 2.546326 1_555
La26 O46 2.403960 1_555
La26 O70 2.413393 1_555
La26 O2 2.503639 1_655
La26 O22 2.535571 1_555
La26 O62 2.614538 1_555
La26 O11 2.785007 1_655
La26 O31 2.831265 1_555
La26 O58 3.027233 1_655
La27 O63 2.351392 1_555
La27 O71 2.370474 1_555
La27 O47 2.402560 1_555
La27 O3 2.442410 1_655
La27 O23 2.530903 1_555
Ni0 O20 2.019421 1_565
Ni0 O31 2.023845 1_555
Ni0 O0 2.042176 1_665
Ni0 O11 2.049100 1_655
Ni0 O46 2.199316 1_555
Ni0 O33 2.260242 1_665
Ni1 O29 2.021245 1_455
Ni1 O22 2.023089 1_455
Ni1 O2 2.034437 1_555
Ni1 O9 2.035832 1_555
Ni1 O35 2.171790 1_555
Ni1 O44 2.178490 1_455
Ni2 O25 2.030873 1_555
Ni2 O18 2.033447 1_555
Ni2 O13 2.034600 1_555
Ni2 O6 2.034732 1_555
Ni2 O39 2.178179 1_555
Ni2 O40 2.239529 1_555
Ni3 O8 1.999054 1_555
Ni3 O17 2.004796 1_554
Ni3 O1 2.015821 1_554
Ni3 O24 2.020933 1_555
Ni3 O48 2.283940 1_555
Ni3 O57 2.321547 1_554
Ni4 O16 1.995596 1_555
Ni4 O9 2.021924 1_555
Ni4 O0 2.043554 1_555
Ni4 O25 2.050281 1_555
Ni4 O56 2.160925 1_555
Ni4 O49 2.183352 1_555
Ni5 O27 1.991045 1_555
Ni5 O2 2.018649 1_555
Ni5 O11 2.050911 1_555
Ni5 O18 2.054972 1_555
Ni5 O51 2.178262 1_555
Ni5 O58 2.194011 1_555
Ni6 O4 1.993861 1_555
Ni6 O29 2.029410 1_555
Ni6 O20 2.039006 1_555
Ni6 O13 2.040385 1_555
Ni6 O60 2.158191 1_555
Ni6 O53 2.169146 1_555
Ni7 O15 1.990396 1_555
Ni7 O22 2.025890 1_555
Ni7 O6 2.040622 1_555
Ni7 O31 2.042398 1_555
Ni7 O55 2.185026 1_555
Ni7 O62 2.186711 1_555
Ni8 O32 1.914128 1_555
Ni8 O56 1.951419 1_555
Ni8 O74 2.032944 1_545
Ni8 O68 2.066020 1_455
Ni9 O33 1.956316 1_555
Ni9 O57 1.995224 1_555
Ni9 O75 2.019608 1_545
Ni9 O69 2.030810 1_455
Ni10 O34 1.943847 1_555
Ni10 O58 1.966619 1_555
Ni10 O72 2.030512 1_555
Ni10 O70 2.067326 1_455
Ni11 O59 1.936449 1_555
Ni11 O35 1.962244 1_555
Ni11 O73 2.044549 1_555
Ni11 O71 2.061453 1_455
Ni12 O36 1.947470 1_555
Ni12 O60 1.951155 1_555
Ni12 O78 2.023903 1_545
Ni12 O64 2.062551 1_555
Ni13 O37 1.930143 1_555
Ni13 O61 1.958875 1_555
Ni13 O79 2.038270 1_545
Ni13 O65 2.103912 1_555
Ni14 O38 1.944512 1_555
Ni14 O62 1.959908 1_555
Ni14 O76 2.031173 1_555
Ni14 O66 2.060025 1_555
Ni15 O63 1.937405 1_555
Ni15 O39 1.955670 1_555
Ni15 O77 2.025101 1_555
Ni15 O67 2.050531 1_555
Ni16 O40 1.945688 1_555
Ni16 O48 1.992036 1_555
Ni16 O66 2.023011 1_555
Ni16 O72 2.031908 1_555
Ni17 O41 1.943886 1_555
Ni17 O49 1.963957 1_555
Ni17 O67 2.026251 1_555
Ni17 O73 2.054541 1_555
Ni18 O42 1.916721 1_555
Ni18 O50 1.952703 1_555
Ni18 O64 2.031857 1_565
Ni18 O74 2.112742 1_555
Ni19 O43 1.941780 1_555
Ni19 O51 1.953909 1_555
Ni19 O65 2.028402 1_565
Ni19 O75 2.055670 1_555
Ni20 O52 1.930390 1_555
Ni20 O44 1.969208 1_555
Ni20 O70 2.040049 1_555
Ni20 O76 2.077746 1_555
Ni21 O45 1.927323 1_555
Ni21 O53 1.954000 1_555
Ni21 O71 2.034033 1_555
Ni21 O77 2.065906 1_555
Ni22 O54 1.932059 1_555
Ni22 O46 1.971673 1_555
Ni22 O68 2.018680 1_565
Ni22 O78 2.048716 1_555
Ni23 O47 1.951041 1_555
Ni23 O55 1.955695 1_555
Ni23 O69 2.035160 1_565
Ni23 O79 2.077341 1_555
Ag0 O21 2.095937 1_564
Ag0 O30 2.125727 1_555
Ag0 O10 2.132338 1_655
Ag0 O1 2.195633 1_664
Ag0 O47 2.669540 1_554
Ag0 O32 2.714830 1_665
Ag1 O23 2.113567 1_555
Ag1 O28 2.114051 1_556
Ag1 O3 2.138663 1_655
Ag1 O8 2.168448 1_656
Ag1 O45 2.670837 1_555
Ag1 O34 2.691940 1_656
Ag2 O26 2.088418 1_545
Ag2 O17 2.126982 1_554
Ag2 O5 2.134303 1_554
Ag2 O14 2.139542 1_545
Ag2 O36 2.650840 1_555
Ag2 O43 2.717499 1_544
Ag3 O27 2.135300 1_555
Ag3 O16 2.138933 1_565
Ag3 O15 2.177256 1_555
Ag3 O4 2.179015 1_565
Ag3 O42 2.592433 1_555
Ag3 O37 2.599162 1_565
Ag4 O19 2.119971 1_555
Ag4 O24 2.126612 1_556
Ag4 O7 2.144914 1_555
Ag4 O12 2.154031 1_556
Ag4 O38 2.680490 1_556
Ag4 O41 2.696146 1_555
Ag5 O3 2.102488 1_555
Ag5 O10 2.108929 1_556
Ag5 O26 2.126980 1_556
Ag5 O19 2.130345 1_555
Ag5 O50 2.625355 1_556
Ag5 O59 2.682305 1_555
Ag6 O5 2.083915 1_554
Ag6 O12 2.094238 1_555
Ag6 O28 2.111080 1_555
Ag6 O21 2.121841 1_554
Ag6 O61 2.619427 1_554
Ag6 O52 2.655564 1_555
Ag7 O14 2.125022 1_555
Ag7 O7 2.127599 1_554
Ag7 O30 2.158029 1_555
Ag7 O23 2.160223 1_554
Ag7 O63 2.718167 1_554
Ag7 O54 2.735759 1_555
O7 Sm2 2.432940 1_555
O8 Sm0 2.453761 1_555
O10 Sm3 2.363814 1_555
O14 Sm1 2.431914 1_565
O23 Sm2 2.379575 1_555
O24 Sm0 2.416831 1_555
O30 Sm1 2.407567 1_565
O30 Sm3 2.472574 1_655
O34 Sm0 2.293757 1_555
O34 Sm3 2.315050 1_555
O36 Sm1 2.349388 1_555
O41 Sm2 2.336203 1_555
O50 Sm0 2.306371 1_555
O52 Sm1 2.277242 1_555
O54 Sm3 2.284162 1_655
O61 Sm2 2.289541 1_555
O66 Sm0 2.308428 1_555
O68 Sm1 2.291569 1_555
O74 Sm3 2.286673 1_555
O77 Sm2 2.292805 1_555
