# generated using pymatgen
data_Tb2B4O9
_symmetry_space_group_name_H-M   'P 1'
_cell_length_a   12.88978168
_cell_length_b   12.88978168
_cell_length_c   24.96099934
_cell_angle_alpha   80.23934540
_cell_angle_beta   80.23934540
_cell_angle_gamma   19.81789068
_symmetry_Int_Tables_number   1
_chemical_formula_structural   Tb2B4O9
_chemical_formula_sum   'Tb20 B40 O90'
_cell_volume   1385.04747911
_cell_formula_units_Z   10
loop_
 _symmetry_equiv_pos_site_id
 _symmetry_equiv_pos_as_xyz
  1  'x, y, z'
loop_
 _atom_site_type_symbol
 _atom_site_label
 _atom_site_symmetry_multiplicity
 _atom_site_fract_x
 _atom_site_fract_y
 _atom_site_fract_z
 _atom_site_occupancy
  Tb  Tb0  1  0.65887300  0.31751800  0.67856000  1
  Tb  Tb1  1  0.34112700  0.68248200  0.32144000  1
  Tb  Tb2  1  0.68248200  0.34112700  0.82144000  1
  Tb  Tb3  1  0.31751800  0.65887300  0.17856000  1
  Tb  Tb4  1  0.53629900  0.18210700  0.79241900  1
  Tb  Tb5  1  0.46370100  0.81789300  0.20758100  1
  Tb  Tb6  1  0.81789300  0.46370100  0.70758100  1
  Tb  Tb7  1  0.18210700  0.53629900  0.29241900  1
  Tb  Tb8  1  0.42111000  0.00988800  0.87066500  1
  Tb  Tb9  1  0.57889000  0.99011200  0.12933500  1
  Tb  Tb10  1  0.99011200  0.57889000  0.62933500  1
  Tb  Tb11  1  0.00988800  0.42111000  0.37066500  1
  Tb  Tb12  1  0.73517800  0.13560500  0.07199800  1
  Tb  Tb13  1  0.26482200  0.86439500  0.92800200  1
  Tb  Tb14  1  0.86439500  0.26482200  0.42800200  1
  Tb  Tb15  1  0.13560500  0.73517800  0.57199800  1
  Tb  Tb16  1  0.61441900  0.07759400  0.96107100  1
  Tb  Tb17  1  0.38558100  0.92240600  0.03892900  1
  Tb  Tb18  1  0.92240600  0.38558100  0.53892900  1
  Tb  Tb19  1  0.07759400  0.61441900  0.46107100  1
  B  B0  1  0.78458300  0.15585700  0.93453300  1
  B  B1  1  0.21541700  0.84414300  0.06546700  1
  B  B2  1  0.84414300  0.21541700  0.56546700  1
  B  B3  1  0.15585700  0.78458300  0.43453300  1
  B  B4  1  0.27308300  0.92506200  0.80774800  1
  B  B5  1  0.72691700  0.07493800  0.19225200  1
  B  B6  1  0.07493800  0.72691700  0.69225200  1
  B  B7  1  0.92506200  0.27308300  0.30774800  1
  B  B8  1  0.54699600  0.16182100  0.66281700  1
  B  B9  1  0.45300400  0.83817900  0.33718300  1
  B  B10  1  0.83817900  0.45300400  0.83718300  1
  B  B11  1  0.16182100  0.54699600  0.16281700  1
  B  B12  1  0.35315200  0.03758700  0.63368300  1
  B  B13  1  0.64684800  0.96241300  0.36631700  1
  B  B14  1  0.96241300  0.64684800  0.86631700  1
  B  B15  1  0.03758700  0.35315200  0.13368300  1
  B  B16  1  0.37376900  0.77160000  0.53025700  1
  B  B17  1  0.62623100  0.22840000  0.46974300  1
  B  B18  1  0.22840000  0.62623100  0.96974300  1
  B  B19  1  0.77160000  0.37376900  0.03025700  1
  B  B20  1  0.42114500  0.08137400  0.71821500  1
  B  B21  1  0.57885500  0.91862600  0.28178500  1
  B  B22  1  0.91862600  0.57885500  0.78178500  1
  B  B23  1  0.08137400  0.42114500  0.21821500  1
  B  B24  1  0.48103500  0.03481100  0.53886700  1
  B  B25  1  0.51896500  0.96518900  0.46113300  1
  B  B26  1  0.96518900  0.51896500  0.96113300  1
  B  B27  1  0.03481100  0.48103500  0.03886700  1
  B  B28  1  0.23033100  0.87399300  0.72470200  1
  B  B29  1  0.76967000  0.12600700  0.27529800  1
  B  B30  1  0.12600700  0.76966900  0.77529800  1
  B  B31  1  0.87399300  0.23033000  0.22470200  1
  B  B32  1  0.22297700  0.96020000  0.62346600  1
  B  B33  1  0.77702300  0.03980000  0.37653400  1
  B  B34  1  0.03980000  0.77702300  0.87653400  1
  B  B35  1  0.96020000  0.22297700  0.12346600  1
  B  B36  1  0.57517500  0.13049600  0.55876200  1
  B  B37  1  0.42482500  0.86950400  0.44123800  1
  B  B38  1  0.86950400  0.42482500  0.94123800  1
  B  B39  1  0.13049600  0.57517500  0.05876200  1
  O  O0  1  0.74838400  0.03867700  0.51582200  1
  O  O1  1  0.25161600  0.96132300  0.48417800  1
  O  O2  1  0.96132300  0.25161600  0.98417800  1
  O  O3  1  0.03867700  0.74838400  0.01582200  1
  O  O4  1  0.68822700  0.76992100  0.74325300  1
  O  O5  1  0.31177300  0.23007900  0.25674700  1
  O  O6  1  0.23007900  0.31177300  0.75674700  1
  O  O7  1  0.76992100  0.68822700  0.24325300  1
  O  O8  1  0.80553600  0.09105200  0.77392300  1
  O  O9  1  0.19446400  0.90894800  0.22607700  1
  O  O10  1  0.90894800  0.19446400  0.72607700  1
  O  O11  1  0.09105200  0.80553600  0.27392300  1
  O  O12  1  0.70044500  0.04084000  0.60902000  1
  O  O13  1  0.29955500  0.95916000  0.39098000  1
  O  O14  1  0.95916000  0.29955500  0.89098000  1
  O  O15  1  0.04084000  0.70044500  0.10902000  1
  O  O16  1  0.66682500  0.28963300  0.58564000  1
  O  O17  1  0.33317500  0.71036700  0.41436000  1
  O  O18  1  0.71036700  0.33317500  0.91436000  1
  O  O19  1  0.28963300  0.66682500  0.08564000  1
  O  O20  1  0.32109300  0.67890700  0.75000000  1
  O  O21  1  0.67890700  0.32109300  0.25000000  1
  O  O22  1  0.14655600  0.13848900  0.63612000  1
  O  O23  1  0.85344400  0.86151100  0.36388000  1
  O  O24  1  0.86151100  0.85344400  0.86388000  1
  O  O25  1  0.13848900  0.14655600  0.13612000  1
  O  O26  1  0.49576200  0.77752600  0.83554400  1
  O  O27  1  0.50423800  0.22247400  0.16445600  1
  O  O28  1  0.22247400  0.50423800  0.66445600  1
  O  O29  1  0.77752600  0.49576200  0.33554400  1
  O  O30  1  0.22263800  0.86991800  0.84047900  1
  O  O31  1  0.77736200  0.13008200  0.15952100  1
  O  O32  1  0.13008200  0.77736200  0.65952100  1
  O  O33  1  0.86991800  0.22263800  0.34047900  1
  O  O34  1  0.23065600  0.19426400  0.68657800  1
  O  O35  1  0.76934400  0.80573600  0.31342200  1
  O  O36  1  0.80573600  0.76934400  0.81342200  1
  O  O37  1  0.19426400  0.23065600  0.18657800  1
  O  O38  1  0.55581200  0.74921100  0.94445400  1
  O  O39  1  0.44418800  0.25078900  0.05554600  1
  O  O40  1  0.25078900  0.44418800  0.55554600  1
  O  O41  1  0.74921100  0.55581200  0.44445400  1
  O  O42  1  0.25080500  0.20690500  0.58153300  1
  O  O43  1  0.74919500  0.79309500  0.41846700  1
  O  O44  1  0.79309500  0.74919500  0.91846700  1
  O  O45  1  0.20690500  0.25080500  0.08153300  1
  O  O46  1  0.66139200  0.78462800  0.51404900  1
  O  O47  1  0.33860800  0.21537200  0.48595100  1
  O  O48  1  0.21537200  0.33860800  0.98595100  1
  O  O49  1  0.78462800  0.66139200  0.01404900  1
  O  O50  1  0.14623100  0.90300800  0.54331800  1
  O  O51  1  0.85376900  0.09699200  0.45668200  1
  O  O52  1  0.09699200  0.85376900  0.95668200  1
  O  O53  1  0.90300800  0.14623100  0.04331800  1
  O  O54  1  0.66971200  0.72502200  0.63382600  1
  O  O55  1  0.33028800  0.27497800  0.36617400  1
  O  O56  1  0.27497800  0.33028800  0.86617400  1
  O  O57  1  0.72502200  0.66971200  0.13382600  1
  O  O58  1  0.68742400  0.91463300  0.55552900  1
  O  O59  1  0.31257600  0.08536700  0.44447100  1
  O  O60  1  0.08536700  0.31257600  0.94447100  1
  O  O61  1  0.91463300  0.68742400  0.05552900  1
  O  O62  1  0.79403700  0.08232700  0.88909300  1
  O  O63  1  0.20596300  0.91767300  0.11090700  1
  O  O64  1  0.91767300  0.20596300  0.61090700  1
  O  O65  1  0.08232700  0.79403700  0.38909300  1
  O  O66  1  0.38805900  0.80495300  0.75310200  1
  O  O67  1  0.61194100  0.19504700  0.24689800  1
  O  O68  1  0.19504700  0.61194100  0.74689800  1
  O  O69  1  0.80495300  0.38805900  0.25310200  1
  O  O70  1  0.40791300  0.80869800  0.57256000  1
  O  O71  1  0.59208700  0.19130200  0.42744000  1
  O  O72  1  0.19130200  0.59208700  0.92744000  1
  O  O73  1  0.80869800  0.40791300  0.07256000  1
  O  O74  1  0.73263800  0.02937300  0.70120000  1
  O  O75  1  0.26736200  0.97062700  0.29880000  1
  O  O76  1  0.97062700  0.26736200  0.79880000  1
  O  O77  1  0.02937300  0.73263800  0.20120000  1
  O  O78  1  0.53606600  0.05496800  0.67228200  1
  O  O79  1  0.46393400  0.94503200  0.32771800  1
  O  O80  1  0.94503200  0.46393400  0.82771800  1
  O  O81  1  0.05496800  0.53606600  0.17228200  1
  O  O82  1  0.55913600  0.31542200  0.97919300  1
  O  O83  1  0.44086400  0.68457800  0.02080700  1
  O  O84  1  0.68457800  0.44086400  0.52080700  1
  O  O85  1  0.31542200  0.55913600  0.47919300  1
  O  O86  1  0.37970700  0.75034000  0.66873400  1
  O  O87  1  0.62029300  0.24966000  0.33126600  1
  O  O88  1  0.24966000  0.62029300  0.83126600  1
  O  O89  1  0.75034000  0.37970700  0.16873400  1
loop_
_geom_bond_atom_site_label_1
_geom_bond_atom_site_label_2
_geom_bond_distance
_geom_bond_site_symmetry_2
B0 O18 1.432404 1_555
B0 O52 1.485126 1_645
B0 O62 1.516555 1_555
B0 O82 1.533237 1_555
B1 O19 1.432404 1_555
B1 O53 1.485126 1_465
B1 O63 1.516555 1_555
B1 O83 1.533237 1_555
B2 O16 1.432404 1_555
B2 O50 1.485126 1_645
B2 O64 1.516555 1_555
B2 O84 1.533237 1_555
B3 O17 1.432404 1_555
B3 O51 1.485126 1_465
B3 O65 1.516555 1_555
B3 O85 1.533237 1_555
B4 O30 1.445023 1_555
B4 O66 1.472175 1_555
B4 O26 1.514573 1_555
B4 O76 1.520608 1_465
B5 O31 1.445023 1_555
B5 O67 1.472175 1_555
B5 O27 1.514573 1_555
B5 O77 1.520608 1_645
B6 O32 1.445023 1_555
B6 O68 1.472175 1_555
B6 O28 1.514573 1_555
B6 O74 1.520608 1_465
B7 O33 1.445023 1_555
B7 O69 1.472175 1_555
B7 O29 1.514573 1_555
B7 O75 1.520608 1_645
B8 O74 1.447298 1_555
B8 O12 1.467355 1_555
B8 O78 1.488670 1_555
B8 O28 1.498320 1_555
B9 O75 1.447298 1_555
B9 O13 1.467355 1_555
B9 O79 1.488670 1_555
B9 O29 1.498320 1_555
B10 O76 1.447298 1_555
B10 O14 1.467355 1_555
B10 O80 1.488670 1_555
B10 O26 1.498320 1_555
B11 O77 1.447298 1_555
B11 O15 1.467355 1_555
B11 O81 1.488670 1_555
B11 O27 1.498320 1_555
B12 O54 1.396418 1_545
B12 O22 1.497301 1_555
B12 O42 1.549091 1_555
B12 O34 1.585018 1_555
B13 O55 1.396418 1_565
B13 O23 1.497301 1_555
B13 O43 1.549091 1_555
B13 O35 1.585018 1_555
B14 O56 1.396418 1_655
B14 O24 1.497301 1_555
B14 O44 1.549091 1_555
B14 O36 1.585018 1_555
B15 O57 1.396418 1_455
B15 O25 1.497301 1_555
B15 O45 1.549091 1_555
B15 O37 1.585018 1_555
B16 O50 1.446759 1_555
B16 O84 1.471456 1_555
B16 O1 1.482536 1_555
B16 O70 1.504024 1_555
B17 O51 1.446759 1_555
B17 O85 1.471456 1_555
B17 O0 1.482536 1_555
B17 O71 1.504024 1_555
B18 O52 1.446759 1_555
B18 O82 1.471456 1_555
B18 O3 1.482536 1_556
B18 O72 1.504024 1_555
B19 O53 1.446759 1_555
B19 O83 1.471456 1_555
B19 O2 1.482536 1_554
B19 O73 1.504024 1_555
B20 O6 1.487877 1_555
B20 O78 1.494143 1_555
B20 O4 1.494510 1_545
B20 O34 1.521547 1_555
B21 O7 1.487877 1_555
B21 O79 1.494143 1_555
B21 O5 1.494510 1_565
B21 O35 1.521547 1_555
B22 O4 1.487877 1_555
B22 O80 1.494143 1_555
B22 O6 1.494510 1_655
B22 O36 1.521547 1_555
B23 O5 1.487877 1_555
B23 O81 1.494143 1_555
B23 O7 1.494510 1_455
B23 O37 1.521547 1_555
B24 O58 1.432713 1_545
B24 O42 1.484887 1_555
B24 O46 1.506948 1_545
B24 O47 1.507379 1_555
B25 O59 1.432713 1_565
B25 O43 1.484887 1_555
B25 O47 1.506948 1_565
B25 O46 1.507379 1_555
B26 O60 1.432713 1_655
B26 O44 1.484887 1_555
B26 O48 1.506948 1_655
B26 O49 1.507379 1_556
B27 O61 1.432713 1_455
B27 O45 1.484887 1_555
B27 O49 1.506948 1_455
B27 O48 1.507379 1_554
B28 O10 1.424116 1_465
B28 O20 1.505839 1_555
B28 O86 1.506002 1_555
B28 O66 1.516062 1_555
B29 O11 1.424114 1_645
B29 O21 1.505829 1_555
B29 O87 1.506004 1_555
B29 O67 1.516073 1_555
B30 O8 1.424116 1_465
B30 O20 1.505839 1_555
B30 O88 1.506002 1_555
B30 O68 1.516062 1_555
B31 O9 1.424114 1_645
B31 O21 1.505829 1_555
B31 O89 1.506004 1_555
B31 O69 1.516073 1_555
B32 O86 1.459685 1_555
B32 O70 1.471747 1_555
B32 O22 1.494204 1_565
B32 O64 1.498500 1_465
B33 O87 1.459685 1_555
B33 O71 1.471747 1_555
B33 O23 1.494204 1_545
B33 O65 1.498500 1_645
B34 O88 1.459685 1_555
B34 O72 1.471747 1_555
B34 O24 1.494204 1_455
B34 O62 1.498500 1_465
B35 O89 1.459685 1_555
B35 O73 1.471747 1_555
B35 O25 1.494204 1_655
B35 O63 1.498500 1_645
B36 O40 1.425408 1_555
B36 O0 1.476870 1_555
B36 O12 1.483499 1_555
B36 O58 1.517774 1_545
B37 O41 1.425408 1_555
B37 O1 1.476870 1_555
B37 O13 1.483499 1_555
B37 O59 1.517774 1_565
B38 O38 1.425408 1_555
B38 O2 1.476870 1_555
B38 O14 1.483499 1_555
B38 O60 1.517774 1_655
B39 O39 1.425408 1_555
B39 O3 1.476870 1_555
B39 O15 1.483499 1_555
B39 O61 1.517774 1_455
O0 Tb15 2.440630 1_645
O0 Tb19 2.585559 1_645
O1 Tb14 2.440630 1_465
O1 Tb18 2.585559 1_465
O2 Tb13 2.440630 1_645
O2 Tb17 2.585559 1_646
O3 Tb12 2.440630 1_465
O3 Tb16 2.585559 1_464
O4 Tb6 2.727694 1_555
O5 Tb7 2.727694 1_555
O6 Tb4 2.727694 1_555
O7 Tb5 2.727694 1_555
O8 Tb2 2.313326 1_555
O8 Tb4 2.368763 1_555
O8 Tb0 2.558836 1_555
O9 Tb3 2.313326 1_555
O9 Tb5 2.368763 1_555
O9 Tb1 2.558836 1_555
O10 Tb0 2.313326 1_555
O10 Tb6 2.368763 1_555
O10 Tb2 2.558836 1_555
O11 Tb1 2.313326 1_555
O11 Tb7 2.368763 1_555
O11 Tb3 2.558836 1_555
O12 Tb15 2.394759 1_645
O12 Tb10 2.727674 1_545
O13 Tb14 2.394759 1_465
O13 Tb11 2.727674 1_565
O14 Tb13 2.394759 1_645
O14 Tb8 2.727674 1_655
O15 Tb12 2.394759 1_465
O15 Tb9 2.727674 1_455
O16 Tb0 2.377381 1_555
O16 Tb15 2.474052 1_555
O16 Tb15 2.564800 1_645
O17 Tb1 2.377381 1_555
O17 Tb14 2.474052 1_555
O17 Tb14 2.564800 1_465
O18 Tb2 2.377381 1_555
O18 Tb13 2.474052 1_555
O18 Tb13 2.564800 1_645
O19 Tb3 2.377381 1_555
O19 Tb12 2.474052 1_555
O19 Tb12 2.564800 1_465
O20 Tb0 2.420496 1_555
O20 Tb2 2.420496 1_555
O21 Tb3 2.420496 1_555
O21 Tb1 2.420496 1_555
O22 Tb6 2.293535 1_455
O22 Tb18 2.611436 1_455
O23 Tb7 2.293535 1_655
O23 Tb19 2.611436 1_655
O24 Tb4 2.293535 1_565
O24 Tb16 2.611436 1_565
O25 Tb5 2.293535 1_545
O25 Tb17 2.611436 1_545
O26 Tb8 2.417979 1_565
O26 Tb13 2.777843 1_555
O27 Tb9 2.417979 1_545
O27 Tb12 2.777843 1_555
O28 Tb10 2.417979 1_455
O28 Tb15 2.777843 1_555
O29 Tb11 2.417979 1_655
O29 Tb14 2.777843 1_555
O30 Tb13 2.313153 1_555
O30 Tb2 2.438091 1_555
O30 Tb2 2.483536 1_465
O31 Tb12 2.313153 1_555
O31 Tb3 2.438091 1_555
O31 Tb3 2.483536 1_645
O32 Tb15 2.313153 1_555
O32 Tb0 2.438091 1_555
O32 Tb0 2.483536 1_465
O33 Tb14 2.313153 1_555
O33 Tb1 2.438091 1_555
O33 Tb1 2.483536 1_645
O34 Tb6 2.355457 1_455
O34 Tb10 2.532146 1_455
O35 Tb7 2.355457 1_655
O35 Tb11 2.532146 1_655
O36 Tb4 2.355457 1_565
O36 Tb8 2.532146 1_565
O37 Tb5 2.355457 1_545
O37 Tb9 2.532146 1_545
O38 Tb8 2.388738 1_565
O38 Tb17 2.484613 1_556
O38 Tb13 2.505795 1_555
O39 Tb9 2.388738 1_545
O39 Tb16 2.484613 1_554
O39 Tb12 2.505795 1_555
O40 Tb10 2.388738 1_455
O40 Tb19 2.484613 1_555
O40 Tb15 2.505795 1_555
O41 Tb11 2.388738 1_655
O41 Tb18 2.484613 1_555
O41 Tb14 2.505795 1_555
O42 Tb10 2.443437 1_455
O42 Tb18 2.589603 1_455
O43 Tb11 2.443437 1_655
O43 Tb19 2.589603 1_655
O44 Tb8 2.443437 1_565
O44 Tb16 2.589603 1_565
O45 Tb9 2.443437 1_545
O45 Tb17 2.589603 1_545
O46 Tb18 2.286143 1_555
O47 Tb19 2.286143 1_555
O48 Tb16 2.286143 1_555
O49 Tb17 2.286143 1_555
O50 Tb15 2.282594 1_555
O51 Tb14 2.282594 1_555
O52 Tb13 2.282594 1_555
O53 Tb12 2.282594 1_555
O54 Tb6 2.316851 1_555
O54 Tb10 2.427834 1_555
O54 Tb18 3.073631 1_555
O55 Tb7 2.316851 1_555
O55 Tb11 2.427834 1_555
O55 Tb19 3.073631 1_555
O56 Tb4 2.316851 1_555
O56 Tb8 2.427834 1_555
O56 Tb16 3.073631 1_555
O57 Tb5 2.316851 1_555
O57 Tb9 2.427834 1_555
O57 Tb17 3.073631 1_555
O58 Tb10 2.304203 1_555
O58 Tb19 2.877810 1_655
O59 Tb11 2.304203 1_555
O59 Tb18 2.877810 1_455
O60 Tb8 2.304203 1_555
O60 Tb17 2.877810 1_546
O61 Tb9 2.304203 1_555
O61 Tb16 2.877810 1_564
O62 Tb2 2.436257 1_555
O62 Tb16 2.722163 1_555
O63 Tb3 2.436257 1_555
O63 Tb17 2.722163 1_555
O64 Tb0 2.436257 1_555
O64 Tb18 2.722163 1_555
O65 Tb1 2.436257 1_555
O65 Tb19 2.722163 1_555
O66 Tb6 2.245348 1_555
O67 Tb7 2.245348 1_555
O68 Tb4 2.245348 1_555
O69 Tb5 2.245348 1_555
O70 Tb18 2.457819 1_555
O70 Tb18 2.696055 1_465
O71 Tb19 2.457819 1_555
O71 Tb19 2.696055 1_645
O72 Tb16 2.457819 1_555
O72 Tb16 2.696055 1_465
O73 Tb17 2.457819 1_555
O73 Tb17 2.696055 1_645
O74 Tb4 2.378339 1_555
O74 Tb0 2.800726 1_555
O75 Tb5 2.378339 1_555
O75 Tb1 2.800726 1_555
O76 Tb6 2.378339 1_555
O76 Tb2 2.800726 1_555
O77 Tb7 2.378339 1_555
O77 Tb3 2.800726 1_555
O78 Tb10 2.363710 1_545
O78 Tb10 2.638615 1_455
O79 Tb11 2.363710 1_565
O79 Tb11 2.638615 1_655
O80 Tb8 2.363710 1_655
O80 Tb8 2.638615 1_565
O81 Tb9 2.363710 1_455
O81 Tb9 2.638615 1_545
O82 Tb12 2.439944 1_556
O82 Tb16 2.522042 1_555
O83 Tb13 2.439944 1_554
O83 Tb17 2.522042 1_555
O84 Tb14 2.439944 1_555
O84 Tb18 2.522042 1_555
O85 Tb15 2.439944 1_555
O85 Tb19 2.522042 1_555
O86 Tb0 2.489200 1_555
O86 Tb6 2.805373 1_555
O87 Tb1 2.489200 1_555
O87 Tb7 2.805373 1_555
O88 Tb2 2.489200 1_555
O88 Tb4 2.805373 1_555
O89 Tb3 2.489200 1_555
O89 Tb5 2.805373 1_555
