# generated using pymatgen
data_Mg16Al12Au
_symmetry_space_group_name_H-M   'P 1'
_cell_length_a   8.90941100
_cell_length_b   9.01996820
_cell_length_c   9.06955952
_cell_angle_alpha   108.94031846
_cell_angle_beta   108.74000408
_cell_angle_gamma   108.67907835
_symmetry_Int_Tables_number   1
_chemical_formula_structural   Mg16Al12Au
_chemical_formula_sum   'Mg16 Al12 Au1'
_cell_volume   574.85359543
_cell_formula_units_Z   1
loop_
 _symmetry_equiv_pos_site_id
 _symmetry_equiv_pos_as_xyz
  1  'x, y, z'
loop_
 _atom_site_type_symbol
 _atom_site_label
 _atom_site_symmetry_multiplicity
 _atom_site_fract_x
 _atom_site_fract_y
 _atom_site_fract_z
 _atom_site_occupancy
  Mg  Mg0  1  0.99588000  0.99585900  0.99475900  1
  Mg  Mg1  1  0.69301800  0.69255900  0.29564600  1
  Mg  Mg2  1  0.63221900  0.63173600  0.66955600  1
  Mg  Mg3  1  0.00542900  0.00588700  0.34618000  1
  Mg  Mg4  1  0.33018900  0.58900900  0.99156900  1
  Mg  Mg5  1  0.40631000  0.71521500  0.40199500  1
  Mg  Mg6  1  0.99661200  0.31591300  0.60200200  1
  Mg  Mg7  1  0.99949100  0.35176800  0.99478100  1
  Mg  Mg8  1  0.29629100  0.67646400  0.68771700  1
  Mg  Mg9  1  0.60354600  0.00630800  0.32267900  1
  Mg  Mg10  1  0.00556900  0.60285000  0.32107600  1
  Mg  Mg11  1  0.67662700  0.29707800  0.68756100  1
  Mg  Mg12  1  0.35144200  0.99877600  0.99330200  1
  Mg  Mg13  1  0.31615400  0.99705900  0.60108700  1
  Mg  Mg14  1  0.71557700  0.40667100  0.40255200  1
  Mg  Mg15  1  0.59039300  0.33119100  0.99227900  1
  Al  Al0  1  0.18287600  0.18223000  0.81727200  1
  Al  Al1  1  0.36535200  0.36716600  0.17364700  1
  Al  Al2  1  0.64767200  0.83124900  0.01624500  1
  Al  Al3  1  0.81364600  0.99893300  0.63599900  1
  Al  Al4  1  0.18204500  0.37049500  0.36295100  1
  Al  Al5  1  0.63545100  0.00645900  0.82152500  1
  Al  Al6  1  0.81937500  0.19321500  0.18497600  1
  Al  Al7  1  0.19574500  0.82295500  0.18684500  1
  Al  Al8  1  0.00704700  0.63529100  0.82201800  1
  Al  Al9  1  0.36962100  0.18121800  0.36378800  1
  Al  Al10  1  0.00047000  0.81471900  0.63778000  1
  Al  Al11  1  0.82987200  0.64599700  0.01527100  1
  Au  Au0  1  0.33607700  0.33572300  0.65694200  1
loop_
_geom_bond_atom_site_label_1
_geom_bond_atom_site_label_2
_geom_bond_distance
_geom_bond_site_symmetry_2
Mg0 Mg3 3.131704 1_666
Mg0 Mg12 3.163837 1_655
Mg0 Mg7 3.200064 1_565
Mg0 Mg2 3.277035 1_555
Mg1 Mg3 3.040644 1_665
Mg1 Mg5 3.047389 1_555
Mg1 Mg14 3.075721 1_555
Mg1 Mg4 3.097306 1_554
Mg1 Mg10 3.100640 1_655
Mg1 Mg15 3.111820 1_554
Mg1 Mg9 3.134427 1_565
Mg2 Mg5 3.086305 1_555
Mg2 Mg8 3.192886 1_555
Mg3 Mg6 3.042257 1_455
Mg4 Mg7 3.052543 1_455
Mg4 Mg8 3.055646 1_555
Mg4 Mg5 3.277885 1_556
Mg5 Mg9 3.095556 1_565
Mg5 Mg8 3.130311 1_555
Mg6 Mg8 3.126150 1_655
Mg10 Mg7 3.058992 1_454
Mg10 Mg14 3.082164 1_455
Mg10 Mg5 3.135116 1_555
Mg10 Mg8 3.184028 1_555
Mg11 Mg15 3.047372 1_555
Mg11 Mg7 3.054549 1_555
Mg11 Mg13 3.112813 1_545
Mg11 Mg14 3.129660 1_555
Mg11 Mg6 3.155206 1_555
Mg11 Mg9 3.184574 1_555
Mg11 Mg2 3.215377 1_555
Mg12 Mg8 3.058454 1_555
Mg13 Mg3 3.027107 1_565
Mg13 Mg5 3.102986 1_555
Mg13 Mg8 3.201152 1_555
Mg14 Mg2 3.076841 1_555
Mg14 Mg6 3.094451 1_555
Mg14 Mg9 3.176569 1_555
Mg14 Mg15 3.279585 1_554
Al0 Al1 2.694256 1_556
Al0 Au0 2.695579 1_555
Al0 Al3 2.744927 1_445
Al0 Al10 2.761555 1_545
Al0 Mg13 2.946941 1_545
Al0 Mg6 2.957700 1_455
Al0 Mg7 3.048313 1_455
Al0 Mg15 3.048737 1_555
Al0 Mg12 3.051017 1_545
Al0 Mg4 3.082381 1_555
Al0 Mg0 3.143054 1_445
Al1 Al4 2.723141 1_555
Al1 Al9 2.768546 1_555
Al1 Mg1 2.947727 1_555
Al1 Mg14 2.969591 1_555
Al1 Mg5 2.972868 1_555
Al1 Mg15 3.003403 1_554
Al1 Mg4 3.007235 1_554
Al1 Mg7 3.072787 1_454
Al1 Mg12 3.132073 1_544
Al1 Mg0 3.265616 1_444
Al2 Al6 2.719353 1_565
Al2 Al5 2.725219 1_564
Al2 Mg4 2.853455 1_554
Al2 Mg9 2.936459 1_565
Al2 Mg2 3.005673 1_554
Al2 Mg8 3.022268 1_554
Al2 Mg3 3.031599 1_665
Al2 Mg0 3.081036 1_554
Al2 Mg1 3.142187 1_555
Al3 Al5 2.658528 1_565
Al3 Mg9 2.892755 1_565
Al3 Mg1 2.957837 1_555
Al3 Mg6 2.972706 1_565
Al3 Mg5 3.130527 1_555
Al3 Mg7 3.146211 1_565
Al3 Mg0 3.149116 1_555
Al3 Mg11 3.254889 1_565
Al3 Mg2 3.349132 1_555
Al4 Al6 2.695659 1_455
Al4 Al9 2.745094 1_555
Al4 Au0 2.749292 1_555
Al4 Mg8 2.885433 1_555
Al4 Mg5 2.938869 1_555
Al4 Mg10 3.041816 1_555
Al4 Mg3 3.085738 1_555
Al4 Mg7 3.129209 1_454
Al4 Mg0 3.293460 1_444
Al5 Al6 2.746841 1_556
Al5 Mg13 2.859701 1_545
Al5 Mg8 3.000162 1_545
Al5 Mg15 3.057271 1_555
Al5 Mg7 3.125255 1_555
Al5 Mg0 3.137175 1_545
Al5 Mg2 3.195746 1_545
Al5 Mg11 3.196934 1_555
Al5 Mg5 3.260571 1_545
Al5 Mg12 3.365331 1_545
Al6 Mg14 2.881474 1_555
Al6 Mg9 2.988817 1_555
Al6 Mg7 3.083204 1_554
Al6 Mg15 3.084242 1_554
Al6 Mg3 3.095307 1_655
Al6 Mg10 3.118530 1_655
Al6 Mg0 3.187596 1_544
Al6 Mg6 3.217038 1_555
Al7 Al9 2.692104 1_565
Al7 Al8 2.758063 1_554
Al7 Mg5 2.884110 1_555
Al7 Mg10 3.005707 1_555
Al7 Mg9 3.066912 1_565
Al7 Mg12 3.079479 1_554
Al7 Mg3 3.082959 1_565
Al7 Mg4 3.095214 1_554
Al7 Mg0 3.191787 1_454
Al7 Mg13 3.198921 1_555
Al8 Mg6 2.875221 1_455
Al8 Mg11 2.997625 1_455
Al8 Mg4 3.028121 1_555
Al8 Mg12 3.124829 1_555
Al8 Mg8 3.155948 1_555
Al8 Mg2 3.162405 1_455
Al8 Mg0 3.168852 1_455
Al8 Mg14 3.255514 1_455
Al9 Au0 2.733601 1_555
Al9 Mg11 2.865756 1_555
Al9 Mg14 2.929864 1_555
Al9 Mg9 3.032373 1_555
Al9 Mg3 3.044848 1_555
Al9 Mg12 3.148790 1_544
Al9 Mg13 3.176610 1_545
Al9 Mg0 3.274957 1_444
Al10 Al8 2.677360 1_555
Al10 Al3 2.702483 1_455
Al10 Mg10 2.912163 1_555
Al10 Mg13 2.952967 1_555
Al10 Mg1 2.954936 1_455
Al10 Mg12 3.106783 1_555
Al10 Mg0 3.138056 1_455
Al10 Mg14 3.159101 1_455
Al10 Mg8 3.226690 1_555
Al10 Mg2 3.319529 1_455
Al11 Al2 2.676632 1_555
Al11 Al8 2.708986 1_654
Al11 Al7 2.718549 1_655
Al11 Mg15 2.847430 1_554
Al11 Mg10 2.931806 1_655
Al11 Mg2 2.999011 1_554
Al11 Mg11 3.028342 1_554
Al11 Mg3 3.065686 1_665
Al11 Mg0 3.122358 1_554
Al11 Mg1 3.123495 1_555
Au0 Mg6 2.838154 1_455
Au0 Mg13 2.865293 1_545
Au0 Mg3 3.013469 1_555
Au0 Mg2 3.032972 1_555
Au0 Mg11 3.098915 1_555
Au0 Mg8 3.139157 1_555
Au0 Mg15 3.177666 1_555
Au0 Mg4 3.179778 1_555
