# generated using pymatgen
data_CaYb3
_symmetry_space_group_name_H-M   'P 1'
_cell_length_a   7.86312388
_cell_length_b   7.86312388
_cell_length_c   6.19999400
_cell_angle_alpha   90.00000000
_cell_angle_beta   90.00000000
_cell_angle_gamma   119.99999900
_symmetry_Int_Tables_number   1
_chemical_formula_structural   CaYb3
_chemical_formula_sum   'Ca2 Yb6'
_cell_volume   331.98016855
_cell_formula_units_Z   2
loop_
 _symmetry_equiv_pos_site_id
 _symmetry_equiv_pos_as_xyz
  1  'x, y, z'
loop_
 _atom_site_type_symbol
 _atom_site_label
 _atom_site_symmetry_multiplicity
 _atom_site_fract_x
 _atom_site_fract_y
 _atom_site_fract_z
 _atom_site_occupancy
  Ca  Ca0  1  0.33333300  0.66666700  0.75000000  1
  Ca  Ca1  1  0.66666700  0.33333300  0.25000000  1
  Yb  Yb0  1  0.16649100  0.33298200  0.25000000  1
  Yb  Yb1  1  0.66701800  0.83350900  0.25000000  1
  Yb  Yb2  1  0.16649100  0.83350900  0.25000000  1
  Yb  Yb3  1  0.83350900  0.66701800  0.75000000  1
  Yb  Yb4  1  0.33298200  0.16649100  0.75000000  1
  Yb  Yb5  1  0.83350900  0.16649100  0.75000000  1
loop_
_geom_bond_atom_site_label_1
_geom_bond_atom_site_label_2
_geom_bond_distance
_geom_bond_site_symmetry_2
Ca0 Yb2 3.843595 1_556
Ca0 Yb2 3.843595 1_555
Ca0 Yb1 3.843599 1_556
Ca0 Yb0 3.843599 1_556
Ca0 Yb0 3.843599 1_555
Ca0 Yb1 3.843599 1_555
Ca0 Yb4 3.931559 1_565
Ca0 Yb3 3.931559 1_455
Ca0 Yb5 3.931563 1_455
Ca0 Yb5 3.931563 1_565
Ca0 Yb4 3.931567 1_555
Ca0 Yb3 3.931567 1_555
Ca1 Yb5 3.843595 1_555
Ca1 Yb5 3.843595 1_554
Ca1 Yb4 3.843599 1_554
Ca1 Yb3 3.843599 1_555
Ca1 Yb3 3.843599 1_554
Ca1 Yb4 3.843599 1_555
Ca1 Yb1 3.931559 1_545
Ca1 Yb0 3.931559 1_655
Ca1 Yb2 3.931563 1_545
Ca1 Yb2 3.931563 1_655
Ca1 Yb0 3.931567 1_555
Ca1 Yb1 3.931567 1_555
Yb0 Yb4 3.840771 1_555
Yb0 Yb4 3.840771 1_554
Yb0 Yb5 3.840771 1_455
Yb0 Yb5 3.840771 1_454
Yb0 Yb2 3.927418 1_545
Yb0 Yb1 3.927418 1_445
Yb0 Yb2 3.935706 1_555
Yb0 Yb1 3.935706 1_555
Yb1 Yb3 3.840771 1_555
Yb1 Yb3 3.840771 1_554
Yb1 Yb5 3.840771 1_564
Yb1 Yb5 3.840771 1_565
Yb1 Yb2 3.927418 1_655
Yb1 Yb2 3.935706 1_555
Yb2 Yb3 3.840771 1_454
Yb2 Yb4 3.840771 1_565
Yb2 Yb3 3.840771 1_455
Yb2 Yb4 3.840771 1_564
Yb3 Yb5 3.927418 1_565
Yb3 Yb4 3.927418 1_665
Yb3 Yb5 3.935706 1_555
Yb3 Yb4 3.935706 1_555
Yb4 Yb5 3.927418 1_455
Yb4 Yb5 3.935706 1_555
