# generated using pymatgen
data_Fe
_symmetry_space_group_name_H-M   'P 1'
_cell_length_a   4.90537439
_cell_length_b   4.90537448
_cell_length_c   15.72084130
_cell_angle_alpha   90.00418265
_cell_angle_beta   89.99591017
_cell_angle_gamma   104.68529188
_symmetry_Int_Tables_number   1
_chemical_formula_structural   Fe
_chemical_formula_sum   Fe32
_cell_volume   365.92834411
_cell_formula_units_Z   32
loop_
 _symmetry_equiv_pos_site_id
 _symmetry_equiv_pos_as_xyz
  1  'x, y, z'
loop_
 _atom_site_type_symbol
 _atom_site_label
 _atom_site_symmetry_multiplicity
 _atom_site_fract_x
 _atom_site_fract_y
 _atom_site_fract_z
 _atom_site_occupancy
  Fe  Fe0_0  1  0.49998150  0.00001900  0.24990450  1
  Fe  Fe0_1  1  0.49998150  0.00001900  0.74990450  1
  Fe  Fe0_2  1  0.49998150  0.50001900  0.24990450  1
  Fe  Fe0_3  1  0.49998150  0.50001900  0.74990450  1
  Fe  Fe0_4  1  0.99998150  0.00001900  0.24990450  1
  Fe  Fe0_5  1  0.99998150  0.00001900  0.74990450  1
  Fe  Fe0_6  1  0.99998150  0.50001900  0.24990450  1
  Fe  Fe0_7  1  0.99998150  0.50001900  0.74990450  1
  Fe  Fe1_0  1  0.25001850  0.24998100  0.37509300  1
  Fe  Fe1_1  1  0.25001850  0.24998100  0.87509300  1
  Fe  Fe1_2  1  0.25001850  0.74998100  0.37509300  1
  Fe  Fe1_3  1  0.25001850  0.74998100  0.87509300  1
  Fe  Fe1_4  1  0.75001850  0.24998100  0.37509300  1
  Fe  Fe1_5  1  0.75001850  0.24998100  0.87509300  1
  Fe  Fe1_6  1  0.75001850  0.74998100  0.37509300  1
  Fe  Fe1_7  1  0.75001850  0.74998100  0.87509300  1
  Fe  Fe2_0  1  0.49998250  0.00001800  0.49993650  1
  Fe  Fe2_1  1  0.49998250  0.00001800  0.99993650  1
  Fe  Fe2_2  1  0.49998250  0.50001800  0.49993650  1
  Fe  Fe2_3  1  0.49998250  0.50001800  0.99993650  1
  Fe  Fe2_4  1  0.99998250  0.00001800  0.49993650  1
  Fe  Fe2_5  1  0.99998250  0.00001800  0.99993650  1
  Fe  Fe2_6  1  0.99998250  0.50001800  0.49993650  1
  Fe  Fe2_7  1  0.99998250  0.50001800  0.99993650  1
  Fe  Fe3_0  1  0.25001700  0.24998250  0.12506600  1
  Fe  Fe3_1  1  0.25001700  0.24998250  0.62506600  1
  Fe  Fe3_2  1  0.25001700  0.74998250  0.12506600  1
  Fe  Fe3_3  1  0.25001700  0.74998250  0.62506600  1
  Fe  Fe3_4  1  0.75001700  0.24998250  0.12506600  1
  Fe  Fe3_5  1  0.75001700  0.24998250  0.62506600  1
  Fe  Fe3_6  1  0.75001700  0.74998250  0.12506600  1
  Fe  Fe3_7  1  0.75001700  0.74998250  0.62506600  1
loop_
_geom_bond_atom_site_label_1
_geom_bond_atom_site_label_2
_geom_bond_distance
_geom_bond_site_symmetry_2
Fe0_0 Fe0_4 2.452687 1_455
Fe0_0 Fe0_4 2.452687 1_555
Fe0_0 Fe0_2 2.452687 1_555
Fe0_0 Fe0_2 2.452687 1_545
Fe0_0 Fe3_4 2.469208 1_555
Fe0_0 Fe3_2 2.469208 1_545
Fe0_0 Fe1_4 2.473580 1_555
Fe0_0 Fe1_2 2.473587 1_545
Fe0_1 Fe0_5 2.452687 1_455
Fe0_1 Fe0_5 2.452687 1_555
Fe0_1 Fe0_3 2.452687 1_555
Fe0_1 Fe0_3 2.452687 1_545
Fe0_1 Fe3_5 2.469208 1_555
Fe0_1 Fe3_3 2.469208 1_545
Fe0_1 Fe1_5 2.473580 1_555
Fe0_1 Fe1_3 2.473587 1_545
Fe0_2 Fe0_6 2.452687 1_455
Fe0_2 Fe0_6 2.452687 1_555
Fe0_2 Fe3_6 2.469208 1_555
Fe0_2 Fe3_0 2.469208 1_555
Fe0_2 Fe1_6 2.473580 1_555
Fe0_2 Fe1_0 2.473587 1_555
Fe0_3 Fe0_7 2.452687 1_555
Fe0_3 Fe0_7 2.452687 1_455
Fe0_3 Fe3_7 2.469208 1_555
Fe0_3 Fe3_1 2.469208 1_555
Fe0_3 Fe1_7 2.473580 1_555
Fe0_3 Fe1_1 2.473587 1_555
Fe0_4 Fe0_6 2.452687 1_555
Fe0_4 Fe0_6 2.452687 1_545
Fe0_4 Fe3_0 2.469208 1_655
Fe0_4 Fe3_6 2.469208 1_545
Fe0_4 Fe1_0 2.473580 1_655
Fe0_4 Fe1_6 2.473587 1_545
Fe0_5 Fe0_7 2.452687 1_555
Fe0_5 Fe0_7 2.452687 1_545
Fe0_5 Fe3_1 2.469208 1_655
Fe0_5 Fe3_7 2.469208 1_545
Fe0_5 Fe1_1 2.473580 1_655
Fe0_5 Fe1_7 2.473587 1_545
Fe0_6 Fe3_2 2.469208 1_655
Fe0_6 Fe3_4 2.469208 1_555
Fe0_6 Fe1_2 2.473580 1_655
Fe0_6 Fe1_4 2.473587 1_555
Fe0_7 Fe3_3 2.469208 1_655
Fe0_7 Fe3_5 2.469208 1_555
Fe0_7 Fe1_3 2.473580 1_655
Fe0_7 Fe1_5 2.473587 1_555
Fe1_0 Fe1_4 2.452687 1_455
Fe1_0 Fe1_4 2.452687 1_555
Fe1_0 Fe1_2 2.452687 1_555
Fe1_0 Fe1_2 2.452687 1_545
Fe1_0 Fe2_4 2.469270 1_455
Fe1_0 Fe2_2 2.469271 1_555
Fe1_1 Fe1_5 2.452687 1_455
Fe1_1 Fe1_5 2.452687 1_555
Fe1_1 Fe1_3 2.452687 1_545
Fe1_1 Fe1_3 2.452687 1_555
Fe1_1 Fe2_5 2.469270 1_455
Fe1_1 Fe2_3 2.469271 1_555
Fe1_2 Fe1_6 2.452687 1_455
Fe1_2 Fe1_6 2.452687 1_555
Fe1_2 Fe2_6 2.469270 1_455
Fe1_2 Fe2_0 2.469271 1_565
Fe1_3 Fe1_7 2.452687 1_455
Fe1_3 Fe1_7 2.452687 1_555
Fe1_3 Fe2_7 2.469270 1_455
Fe1_3 Fe2_1 2.469271 1_565
Fe1_4 Fe1_6 2.452687 1_555
Fe1_4 Fe1_6 2.452687 1_545
Fe1_4 Fe2_0 2.469270 1_555
Fe1_4 Fe2_6 2.469271 1_555
Fe1_5 Fe1_7 2.452687 1_545
Fe1_5 Fe1_7 2.452687 1_555
Fe1_5 Fe2_1 2.469270 1_555
Fe1_5 Fe2_7 2.469271 1_555
Fe1_6 Fe2_2 2.469270 1_555
Fe1_6 Fe2_4 2.469271 1_565
Fe1_7 Fe2_3 2.469270 1_555
Fe1_7 Fe2_5 2.469271 1_565
Fe2_0 Fe2_4 2.452687 1_455
Fe2_0 Fe2_4 2.452687 1_555
Fe2_0 Fe2_2 2.452687 1_545
Fe2_0 Fe2_2 2.452687 1_555
Fe2_0 Fe3_5 2.472842 1_555
Fe2_0 Fe3_3 2.472849 1_545
Fe2_1 Fe2_5 2.452687 1_455
Fe2_1 Fe2_5 2.452687 1_555
Fe2_1 Fe2_3 2.452687 1_555
Fe2_1 Fe2_3 2.452687 1_545
Fe2_1 Fe3_4 2.472842 1_556
Fe2_1 Fe3_2 2.472849 1_546
Fe2_2 Fe2_6 2.452687 1_455
Fe2_2 Fe2_6 2.452687 1_555
Fe2_2 Fe3_7 2.472842 1_555
Fe2_2 Fe3_1 2.472849 1_555
Fe2_3 Fe2_7 2.452687 1_455
Fe2_3 Fe2_7 2.452687 1_555
Fe2_3 Fe3_6 2.472842 1_556
Fe2_3 Fe3_0 2.472849 1_556
Fe2_4 Fe2_6 2.452687 1_555
Fe2_4 Fe2_6 2.452687 1_545
Fe2_4 Fe3_1 2.472842 1_655
Fe2_4 Fe3_7 2.472849 1_545
Fe2_5 Fe2_7 2.452687 1_555
Fe2_5 Fe2_7 2.452687 1_545
Fe2_5 Fe3_0 2.472842 1_656
Fe2_5 Fe3_6 2.472849 1_546
Fe2_6 Fe3_3 2.472842 1_655
Fe2_6 Fe3_5 2.472849 1_555
Fe2_7 Fe3_2 2.472842 1_656
Fe2_7 Fe3_4 2.472849 1_556
Fe3_0 Fe3_4 2.452687 1_555
Fe3_0 Fe3_4 2.452687 1_455
Fe3_0 Fe3_2 2.452687 1_555
Fe3_0 Fe3_2 2.452687 1_545
Fe3_1 Fe3_5 2.452687 1_455
Fe3_1 Fe3_5 2.452687 1_555
Fe3_1 Fe3_3 2.452687 1_555
Fe3_1 Fe3_3 2.452687 1_545
Fe3_2 Fe3_6 2.452687 1_555
Fe3_2 Fe3_6 2.452687 1_455
Fe3_3 Fe3_7 2.452687 1_555
Fe3_3 Fe3_7 2.452687 1_455
Fe3_4 Fe3_6 2.452687 1_555
Fe3_4 Fe3_6 2.452687 1_545
Fe3_5 Fe3_7 2.452687 1_545
Fe3_5 Fe3_7 2.452687 1_555
