# generated using pymatgen
data_RhN5Cl3
_symmetry_space_group_name_H-M   'P 1'
_cell_length_a   6.72275300
_cell_length_b   7.23462600
_cell_length_c   14.33028700
_cell_angle_alpha   90.00000000
_cell_angle_beta   90.00000000
_cell_angle_gamma   90.00000000
_symmetry_Int_Tables_number   1
_chemical_formula_structural   RhN5Cl3
_chemical_formula_sum   'Rh4 N20 Cl12'
_cell_volume   696.97648894
_cell_formula_units_Z   4
loop_
 _symmetry_equiv_pos_site_id
 _symmetry_equiv_pos_as_xyz
  1  'x, y, z'
loop_
 _atom_site_type_symbol
 _atom_site_label
 _atom_site_symmetry_multiplicity
 _atom_site_fract_x
 _atom_site_fract_y
 _atom_site_fract_z
 _atom_site_occupancy
  Rh  Rh0  1  0.25000000  0.29509000  0.59229200  1
  Rh  Rh1  1  0.25000000  0.20491000  0.09229200  1
  Rh  Rh2  1  0.75000000  0.70491000  0.40770800  1
  Rh  Rh3  1  0.75000000  0.79509000  0.90770800  1
  N  N0  1  0.56318400  0.29850400  0.62606800  1
  N  N1  1  0.93681600  0.20149600  0.12606800  1
  N  N2  1  0.06318400  0.70149600  0.37393200  1
  N  N3  1  0.43681600  0.79850400  0.87393200  1
  N  N4  1  0.43681600  0.70149600  0.37393200  1
  N  N5  1  0.06318400  0.79850400  0.87393200  1
  N  N6  1  0.93681600  0.29850400  0.62606800  1
  N  N7  1  0.56318400  0.20149600  0.12606800  1
  N  N8  1  0.25000000  0.18578100  0.45395800  1
  N  N9  1  0.25000000  0.31421900  0.95395800  1
  N  N10  1  0.75000000  0.81421900  0.54604200  1
  N  N11  1  0.75000000  0.68578100  0.04604200  1
  N  N12  1  0.25000000  0.13253400  0.68345800  1
  N  N13  1  0.25000000  0.36746600  0.18345800  1
  N  N14  1  0.75000000  0.86746600  0.31654200  1
  N  N15  1  0.75000000  0.63253400  0.81654200  1
  N  N16  1  0.25000000  0.53409300  0.61253300  1
  N  N17  1  0.25000000  0.96590700  0.11253300  1
  N  N18  1  0.75000000  0.46590700  0.38746700  1
  N  N19  1  0.75000000  0.03409300  0.88746700  1
  Cl  Cl0  1  0.25000000  0.73535300  0.43148900  1
  Cl  Cl1  1  0.25000000  0.76464700  0.93148900  1
  Cl  Cl2  1  0.75000000  0.26464700  0.56851100  1
  Cl  Cl3  1  0.75000000  0.23535300  0.06851100  1
  Cl  Cl4  1  0.53879900  0.75751600  0.60977100  1
  Cl  Cl5  1  0.96120100  0.74248400  0.10977100  1
  Cl  Cl6  1  0.03879900  0.24248400  0.39022900  1
  Cl  Cl7  1  0.46120100  0.25751600  0.89022900  1
  Cl  Cl8  1  0.46120100  0.24248400  0.39022900  1
  Cl  Cl9  1  0.03879900  0.25751600  0.89022900  1
  Cl  Cl10  1  0.96120100  0.75751600  0.60977100  1
  Cl  Cl11  1  0.53879900  0.74248400  0.10977100  1
loop_
_geom_bond_atom_site_label_1
_geom_bond_atom_site_label_2
_geom_bond_distance
_geom_bond_site_symmetry_2
N0 Rh0 2.160519 1_555
N1 Rh1 2.160519 1_655
N2 Rh2 2.160519 1_455
N3 Rh3 2.160519 1_555
N4 Rh2 2.160519 1_555
N5 Rh3 2.160519 1_455
N6 Rh0 2.160519 1_655
N7 Rh1 2.160519 1_555
N8 Rh0 2.134281 1_555
N9 Rh1 2.134281 1_556
N10 Rh2 2.134281 1_555
N11 Rh3 2.134281 1_554
N12 Rh0 1.757789 1_555
N13 Rh1 1.757789 1_555
N14 Rh2 1.757789 1_555
N15 Rh3 1.757789 1_555
N16 Rh0 1.753258 1_555
N17 Rh1 1.753258 1_565
N18 Rh2 1.753258 1_555
N19 Rh3 1.753258 1_545
Cl0 N2 1.522378 1_555
Cl0 N4 1.522378 1_555
Cl1 N5 1.522378 1_555
Cl1 N3 1.522378 1_555
Cl2 N0 1.522378 1_555
Cl2 N6 1.522378 1_555
Cl3 N7 1.522378 1_555
Cl3 N1 1.522378 1_555
Cl4 N10 1.737325 1_555
Cl5 N11 1.737325 1_555
Cl6 N8 1.737325 1_555
Cl7 N9 1.737325 1_555
Cl8 N8 1.737325 1_555
Cl9 N9 1.737325 1_555
Cl10 N10 1.737325 1_555
Cl11 N11 1.737325 1_555
