# generated using pymatgen
data_Tb2HfS5
_symmetry_space_group_name_H-M   'P 1'
_cell_length_a   7.25587264
_cell_length_b   7.75368933
_cell_length_c   11.51371919
_cell_angle_alpha   90.00000000
_cell_angle_beta   90.00000000
_cell_angle_gamma   90.00000000
_symmetry_Int_Tables_number   1
_chemical_formula_structural   Tb2HfS5
_chemical_formula_sum   'Tb8 Hf4 S20'
_cell_volume   647.75933473
_cell_formula_units_Z   4
loop_
 _symmetry_equiv_pos_site_id
 _symmetry_equiv_pos_as_xyz
  1  'x, y, z'
loop_
 _atom_site_type_symbol
 _atom_site_label
 _atom_site_symmetry_multiplicity
 _atom_site_fract_x
 _atom_site_fract_y
 _atom_site_fract_z
 _atom_site_occupancy
  Tb  Tb0  1  0.52417873  0.00236653  0.32167532  1
  Tb  Tb1  1  0.97582127  0.49763347  0.82167532  1
  Tb  Tb2  1  0.47582127  0.50236653  0.67832468  1
  Tb  Tb3  1  0.02417873  0.99763347  0.17832468  1
  Tb  Tb4  1  0.47582127  0.99763347  0.67832468  1
  Tb  Tb5  1  0.02417873  0.50236653  0.17832468  1
  Tb  Tb6  1  0.52417873  0.49763347  0.32167532  1
  Tb  Tb7  1  0.97582127  0.00236653  0.82167532  1
  Hf  Hf0  1  0.07503175  0.75000000  0.49427874  1
  Hf  Hf1  1  0.42496825  0.75000000  0.99427874  1
  Hf  Hf2  1  0.92496825  0.25000000  0.50572126  1
  Hf  Hf3  1  0.57503175  0.25000000  0.00572126  1
  S  S0  1  0.83888438  0.53582832  0.59185926  1
  S  S1  1  0.66111562  0.96417168  0.09185926  1
  S  S2  1  0.16111562  0.03582832  0.40814074  1
  S  S3  1  0.33888438  0.46417168  0.90814074  1
  S  S4  1  0.16111562  0.46417168  0.40814074  1
  S  S5  1  0.33888438  0.03582832  0.90814074  1
  S  S6  1  0.83888438  0.96417168  0.59185926  1
  S  S7  1  0.66111562  0.53582832  0.09185926  1
  S  S8  1  0.83498959  0.75000000  0.31863875  1
  S  S9  1  0.66501041  0.75000000  0.81863875  1
  S  S10  1  0.16501041  0.25000000  0.68136125  1
  S  S11  1  0.33498959  0.25000000  0.18136125  1
  S  S12  1  0.44645313  0.75000000  0.49639926  1
  S  S13  1  0.05354687  0.75000000  0.99639926  1
  S  S14  1  0.55354687  0.25000000  0.50360074  1
  S  S15  1  0.94645313  0.25000000  0.00360074  1
  S  S16  1  0.18723228  0.75000000  0.70679703  1
  S  S17  1  0.31276772  0.75000000  0.20679703  1
  S  S18  1  0.81276772  0.25000000  0.29320297  1
  S  S19  1  0.68723228  0.25000000  0.79320297  1
loop_
_geom_bond_atom_site_label_1
_geom_bond_atom_site_label_2
_geom_bond_distance
_geom_bond_site_symmetry_2
Hf0 S4 2.507069 1_555
Hf0 S2 2.507069 1_565
Hf0 S16 2.578756 1_555
Hf0 S6 2.637399 1_455
Hf0 S0 2.637399 1_455
Hf0 S8 2.668922 1_455
Hf0 S12 2.695097 1_555
Hf1 S3 2.507069 1_555
Hf1 S5 2.507069 1_565
Hf1 S17 2.578756 1_556
Hf1 S7 2.637399 1_556
Hf1 S1 2.637399 1_556
Hf1 S9 2.668922 1_555
Hf1 S13 2.695097 1_555
Hf2 S6 2.507069 1_545
Hf2 S0 2.507069 1_555
Hf2 S18 2.578756 1_555
Hf2 S2 2.637399 1_655
Hf2 S4 2.637399 1_655
Hf2 S10 2.668922 1_655
Hf2 S14 2.695097 1_555
Hf3 S7 2.507069 1_555
Hf3 S1 2.507069 1_545
Hf3 S19 2.578756 1_554
Hf3 S5 2.637399 1_554
Hf3 S3 2.637399 1_554
Hf3 S11 2.668922 1_555
Hf3 S15 2.695097 1_555
S0 Tb2 2.828102 1_555
S0 Tb1 2.841910 1_555
S1 Tb3 2.828102 1_655
S1 Tb0 2.841910 1_565
S2 Tb0 2.828102 1_555
S2 Tb3 2.841910 1_545
S3 Tb1 2.828102 1_455
S3 Tb2 2.841910 1_555
S4 Tb6 2.828102 1_555
S4 Tb5 2.841910 1_555
S5 Tb7 2.828102 1_455
S5 Tb4 2.841910 1_545
S6 Tb4 2.828102 1_555
S6 Tb7 2.841910 1_565
S7 Tb5 2.828102 1_655
S7 Tb6 2.841910 1_555
S8 Tb5 2.860251 1_655
S8 Tb3 2.860251 1_655
S8 Tb0 2.985988 1_565
S8 Tb6 2.985988 1_555
S9 Tb4 2.860251 1_555
S9 Tb2 2.860251 1_555
S9 Tb7 2.985988 1_565
S9 Tb1 2.985988 1_555
S10 Tb7 2.860251 1_455
S10 Tb1 2.860251 1_455
S10 Tb4 2.985988 1_545
S10 Tb2 2.985988 1_555
S11 Tb0 2.860251 1_555
S11 Tb6 2.860251 1_555
S11 Tb3 2.985988 1_545
S11 Tb5 2.985988 1_555
S12 Tb4 2.849491 1_555
S12 Tb2 2.849491 1_555
S12 Tb6 2.862524 1_555
S12 Tb0 2.862524 1_565
S13 Tb5 2.849491 1_556
S13 Tb3 2.849491 1_556
S13 Tb1 2.862524 1_455
S13 Tb7 2.862524 1_465
S14 Tb0 2.849491 1_555
S14 Tb6 2.849491 1_555
S14 Tb4 2.862524 1_545
S14 Tb2 2.862524 1_555
S15 Tb7 2.849491 1_554
S15 Tb1 2.849491 1_554
S15 Tb3 2.862524 1_645
S15 Tb5 2.862524 1_655
S16 Tb1 2.816291 1_455
S16 Tb7 2.816291 1_465
S16 Tb4 2.859867 1_555
S16 Tb2 2.859867 1_555
S17 Tb0 2.816291 1_565
S17 Tb6 2.816291 1_555
S17 Tb5 2.859867 1_555
S17 Tb3 2.859867 1_555
S18 Tb5 2.816291 1_655
S18 Tb3 2.816291 1_645
S18 Tb0 2.859867 1_555
S18 Tb6 2.859867 1_555
S19 Tb4 2.816291 1_545
S19 Tb2 2.816291 1_555
S19 Tb7 2.859867 1_555
S19 Tb1 2.859867 1_555
