# generated using pymatgen
data_CsCN
_symmetry_space_group_name_H-M   'P 1'
_cell_length_a   10.30169378
_cell_length_b   4.97882237
_cell_length_c   8.49998395
_cell_angle_alpha   31.39304743
_cell_angle_beta   121.12096970
_cell_angle_gamma   116.17967473
_symmetry_Int_Tables_number   1
_chemical_formula_structural   CsCN
_chemical_formula_sum   'Cs2 C2 N2'
_cell_volume   194.41335972
_cell_formula_units_Z   2
loop_
 _symmetry_equiv_pos_site_id
 _symmetry_equiv_pos_as_xyz
  1  'x, y, z'
loop_
 _atom_site_type_symbol
 _atom_site_label
 _atom_site_symmetry_multiplicity
 _atom_site_fract_x
 _atom_site_fract_y
 _atom_site_fract_z
 _atom_site_occupancy
  Cs  Cs0  1  0.45847000  0.08658400  0.92375500  1
  Cs  Cs1  1  0.95847000  0.91341600  0.01033800  1
  C  C0  1  0.66873100  0.12047000  0.37818800  1
  C  C1  1  0.16873100  0.87953000  0.49865600  1
  N  N0  1  0.76979900  0.82590500  0.60557900  1
  N  N1  1  0.26979900  0.17409500  0.43148400  1
loop_
_geom_bond_atom_site_label_1
_geom_bond_atom_site_label_2
_geom_bond_distance
_geom_bond_site_symmetry_2
Cs0 N1 3.232482 1_546
Cs0 N1 3.271681 1_555
Cs0 N0 3.564190 1_555
Cs0 N1 3.578187 1_565
Cs1 N0 3.232486 1_564
Cs1 N0 3.271674 1_554
Cs1 N1 3.564187 1_655
Cs1 N0 3.578190 1_545
C0 N0 1.182571 1_545
C0 Cs0 3.402031 1_564
C0 Cs0 3.432484 1_554
C0 Cs1 3.528001 1_555
C0 Cs0 3.533485 1_545
C1 N1 1.182573 1_565
C1 Cs1 3.402035 1_446
C1 Cs1 3.432477 1_455
C1 Cs0 3.527992 1_555
C1 Cs1 3.533489 1_465
