# generated using pymatgen
data_ZnPt(CN)6
_symmetry_space_group_name_H-M   'P 1'
_cell_length_a   7.55628590
_cell_length_b   7.55628590
_cell_length_c   7.55628590
_cell_angle_alpha   60.00000000
_cell_angle_beta   60.00000000
_cell_angle_gamma   60.00000000
_symmetry_Int_Tables_number   1
_chemical_formula_structural   ZnPt(CN)6
_chemical_formula_sum   'Zn1 Pt1 C6 N6'
_cell_volume   305.07747742
_cell_formula_units_Z   1
loop_
 _symmetry_equiv_pos_site_id
 _symmetry_equiv_pos_as_xyz
  1  'x, y, z'
loop_
 _atom_site_type_symbol
 _atom_site_label
 _atom_site_symmetry_multiplicity
 _atom_site_fract_x
 _atom_site_fract_y
 _atom_site_fract_z
 _atom_site_occupancy
  Zn  Zn0  1  0.50000000  0.50000000  0.50000000  1
  Pt  Pt0  1  0.00000000  0.00000000  0.00000000  1
  C  C0  1  0.81098600  0.18901400  0.18901400  1
  C  C1  1  0.18901400  0.81098600  0.81098600  1
  C  C2  1  0.18901400  0.81098600  0.18901400  1
  C  C3  1  0.81098600  0.18901400  0.81098600  1
  C  C4  1  0.18901400  0.18901400  0.81098600  1
  C  C5  1  0.81098600  0.81098600  0.18901400  1
  N  N0  1  0.70206400  0.29793600  0.29793600  1
  N  N1  1  0.29793600  0.70206400  0.70206400  1
  N  N2  1  0.29793600  0.70206400  0.29793600  1
  N  N3  1  0.70206400  0.29793600  0.70206400  1
  N  N4  1  0.29793600  0.29793600  0.70206400  1
  N  N5  1  0.70206400  0.70206400  0.29793600  1
loop_
_geom_bond_atom_site_label_1
_geom_bond_atom_site_label_2
_geom_bond_distance
_geom_bond_site_symmetry_2
C0 N0 1.163962 1_555
C0 Pt0 2.019842 1_655
C1 N1 1.163962 1_555
C1 Pt0 2.019842 1_566
C2 N2 1.163962 1_555
C2 Pt0 2.019842 1_565
C3 N3 1.163962 1_555
C3 Pt0 2.019842 1_656
C4 N4 1.163962 1_555
C4 Pt0 2.019842 1_556
C5 N5 1.163962 1_555
C5 Pt0 2.019842 1_665
N0 Zn0 2.159297 1_555
N1 Zn0 2.159297 1_555
N2 Zn0 2.159297 1_555
N3 Zn0 2.159297 1_555
N4 Zn0 2.159297 1_555
N5 Zn0 2.159297 1_555
