# generated using pymatgen
data_RbMo2(PO4)3
_symmetry_space_group_name_H-M   'P 1'
_cell_length_a   9.02129900
_cell_length_b   9.46107800
_cell_length_c   12.50370300
_cell_angle_alpha   90.00000000
_cell_angle_beta   90.00000000
_cell_angle_gamma   90.00000000
_symmetry_Int_Tables_number   1
_chemical_formula_structural   RbMo2(PO4)3
_chemical_formula_sum   'Rb4 Mo8 P12 O48'
_cell_volume   1067.20622430
_cell_formula_units_Z   4
loop_
 _symmetry_equiv_pos_site_id
 _symmetry_equiv_pos_as_xyz
  1  'x, y, z'
loop_
 _atom_site_type_symbol
 _atom_site_label
 _atom_site_symmetry_multiplicity
 _atom_site_fract_x
 _atom_site_fract_y
 _atom_site_fract_z
 _atom_site_occupancy
  Rb  Rb0  1  0.18410200  0.83755000  0.75000000  1
  Rb  Rb1  1  0.18410200  0.66245000  0.25000000  1
  Rb  Rb2  1  0.81589800  0.33755000  0.75000000  1
  Rb  Rb3  1  0.81589800  0.16245000  0.25000000  1
  Mo  Mo0  1  0.24712600  0.03016900  0.39986000  1
  Mo  Mo1  1  0.24712600  0.46983100  0.60014000  1
  Mo  Mo2  1  0.75287400  0.53016900  0.10014000  1
  Mo  Mo3  1  0.75287400  0.96983100  0.89986000  1
  Mo  Mo4  1  0.75287400  0.96983100  0.60014000  1
  Mo  Mo5  1  0.75287400  0.53016900  0.39986000  1
  Mo  Mo6  1  0.24712600  0.46983100  0.89986000  1
  Mo  Mo7  1  0.24712600  0.03016900  0.10014000  1
  P  P0  1  0.40889100  0.36029900  0.36979800  1
  P  P1  1  0.40889100  0.13970100  0.63020200  1
  P  P2  1  0.59110900  0.86029900  0.13020200  1
  P  P3  1  0.59110900  0.63970100  0.86979800  1
  P  P4  1  0.59110900  0.63970100  0.63020200  1
  P  P5  1  0.59110900  0.86029900  0.36979800  1
  P  P6  1  0.40889100  0.13970100  0.86979800  1
  P  P7  1  0.40889100  0.36029900  0.13020200  1
  P  P8  1  0.97338800  0.25000000  0.50000000  1
  P  P9  1  0.02661200  0.75000000  0.00000000  1
  P  P10  1  0.02661200  0.75000000  0.50000000  1
  P  P11  1  0.97338800  0.25000000  0.00000000  1
  O  O0  1  0.64010000  0.59097500  0.75000000  1
  O  O1  1  0.64010000  0.90902500  0.25000000  1
  O  O2  1  0.35990000  0.09097500  0.75000000  1
  O  O3  1  0.35990000  0.40902500  0.25000000  1
  O  O4  1  0.06660700  0.16370400  0.41961700  1
  O  O5  1  0.06660700  0.33629600  0.58038300  1
  O  O6  1  0.93339300  0.66370400  0.08038300  1
  O  O7  1  0.93339300  0.83629600  0.91961700  1
  O  O8  1  0.93339300  0.83629600  0.58038300  1
  O  O9  1  0.93339300  0.66370400  0.41961700  1
  O  O10  1  0.06660700  0.33629600  0.91961700  1
  O  O11  1  0.06660700  0.16370400  0.08038300  1
  O  O12  1  0.42804200  0.89372500  0.38423900  1
  O  O13  1  0.42804200  0.60627500  0.61576100  1
  O  O14  1  0.57195800  0.39372500  0.11576100  1
  O  O15  1  0.57195800  0.10627500  0.88423900  1
  O  O16  1  0.57195800  0.10627500  0.61576100  1
  O  O17  1  0.61163900  0.79886000  0.62230600  1
  O  O18  1  0.57195800  0.39372500  0.38423900  1
  O  O19  1  0.42804200  0.89372500  0.11576100  1
  O  O20  1  0.38836100  0.20114000  0.37769400  1
  O  O21  1  0.38836100  0.29886000  0.62230600  1
  O  O22  1  0.61163900  0.70114000  0.12230600  1
  O  O23  1  0.61163900  0.79886000  0.87769400  1
  O  O24  1  0.21239800  0.01814100  0.25000000  1
  O  O25  1  0.21239800  0.48185900  0.75000000  1
  O  O26  1  0.78760200  0.51814100  0.25000000  1
  O  O27  1  0.78760200  0.98185900  0.75000000  1
  O  O28  1  0.12463800  0.84867500  0.06840600  1
  O  O29  1  0.12463800  0.65132500  0.93159400  1
  O  O30  1  0.87536200  0.34867500  0.43159400  1
  O  O31  1  0.87536200  0.15132500  0.56840600  1
  O  O32  1  0.87536200  0.15132500  0.93159400  1
  O  O33  1  0.87536200  0.34867500  0.06840600  1
  O  O34  1  0.12463800  0.65132500  0.56840600  1
  O  O35  1  0.12463800  0.84867500  0.43159400  1
  O  O36  1  0.30139700  0.05065800  0.93725600  1
  O  O37  1  0.30139700  0.44934200  0.06274400  1
  O  O38  1  0.69860300  0.55065800  0.56274400  1
  O  O39  1  0.69860300  0.94934200  0.43725600  1
  O  O40  1  0.69860300  0.94934200  0.06274400  1
  O  O41  1  0.69860300  0.55065800  0.93725600  1
  O  O42  1  0.30139700  0.44934200  0.43725600  1
  O  O43  1  0.30139700  0.05065800  0.56274400  1
  O  O44  1  0.38836100  0.20114000  0.12230600  1
  O  O45  1  0.38836100  0.29886000  0.87769400  1
  O  O46  1  0.61163900  0.70114000  0.37769400  1
  O  O47  1  0.42804200  0.60627500  0.88423900  1
loop_
_geom_bond_atom_site_label_1
_geom_bond_atom_site_label_2
_geom_bond_distance
_geom_bond_site_symmetry_2
Mo0 O24 1.903220 1_555
Mo0 O4 2.075869 1_555
Mo0 O20 2.077676 1_555
Mo0 O35 2.080145 1_545
Mo0 O12 2.090056 1_545
Mo0 O43 2.103625 1_555
Mo1 O25 1.903220 1_555
Mo1 O5 2.075869 1_555
Mo1 O21 2.077676 1_555
Mo1 O34 2.080145 1_555
Mo1 O13 2.090056 1_555
Mo1 O42 2.103625 1_555
Mo2 O26 1.903220 1_555
Mo2 O6 2.075869 1_555
Mo2 O22 2.077676 1_555
Mo2 O33 2.080145 1_555
Mo2 O14 2.090056 1_555
Mo2 O41 2.103625 1_554
Mo3 O27 1.903220 1_555
Mo3 O7 2.075869 1_555
Mo3 O23 2.077676 1_555
Mo3 O32 2.080145 1_565
Mo3 O15 2.090056 1_565
Mo3 O40 2.103625 1_556
Mo4 O27 1.903220 1_555
Mo4 O8 2.075869 1_555
Mo4 O17 2.077676 1_555
Mo4 O31 2.080145 1_565
Mo4 O16 2.090056 1_565
Mo4 O39 2.103625 1_555
Mo5 O26 1.903220 1_555
Mo5 O9 2.075869 1_555
Mo5 O46 2.077676 1_555
Mo5 O30 2.080145 1_555
Mo5 O18 2.090056 1_555
Mo5 O38 2.103625 1_555
Mo6 O25 1.903220 1_555
Mo6 O10 2.075869 1_555
Mo6 O45 2.077676 1_555
Mo6 O29 2.080145 1_555
Mo6 O47 2.090056 1_555
Mo6 O37 2.103625 1_556
Mo7 O24 1.903220 1_555
Mo7 O11 2.075869 1_555
Mo7 O44 2.077676 1_555
Mo7 O28 2.080145 1_545
Mo7 O19 2.090056 1_545
Mo7 O36 2.103625 1_554
O0 P4 1.628377 1_555
O0 P3 1.628377 1_555
O0 Rb2 2.874718 1_555
O1 P2 1.628377 1_555
O1 P5 1.628377 1_555
O1 Rb3 2.874718 1_565
O2 P1 1.628377 1_555
O2 P6 1.628377 1_555
O2 Rb0 2.874718 1_545
O3 P7 1.628377 1_555
O3 P0 1.628377 1_555
O3 Rb1 2.874718 1_555
O4 P8 1.544021 1_455
O4 Rb3 3.100562 1_455
O5 P8 1.544021 1_455
O5 Rb2 3.100562 1_455
O6 P9 1.544021 1_655
O6 Rb1 3.100562 1_655
O7 P9 1.544021 1_656
O7 Rb0 3.100562 1_655
O8 P10 1.544021 1_655
O8 Rb0 3.100562 1_655
O9 P10 1.544021 1_655
O9 Rb1 3.100562 1_655
O10 P11 1.544021 1_456
O10 Rb2 3.100562 1_455
O11 P11 1.544021 1_455
O11 Rb3 3.100562 1_455
O12 P5 1.515480 1_555
O12 Rb1 3.528176 1_555
O13 P4 1.515480 1_555
O13 Rb0 3.528176 1_555
O14 P7 1.515480 1_555
O14 Rb3 3.528176 1_555
O15 P6 1.515480 1_555
O15 Rb2 3.528176 1_555
O16 P1 1.515480 1_555
O16 Rb2 3.528176 1_555
O17 P4 1.520372 1_555
O18 P0 1.515480 1_555
O18 Rb3 3.528176 1_555
O19 P2 1.515480 1_555
O19 Rb1 3.528176 1_555
O20 P0 1.520372 1_555
O21 P1 1.520372 1_555
O22 P2 1.520372 1_555
O23 P3 1.520372 1_555
O24 Rb1 3.374888 1_545
O25 Rb0 3.374888 1_555
O26 Rb3 3.374888 1_555
O27 Rb2 3.374888 1_565
O28 P9 1.544399 1_555
O28 Rb1 2.923634 1_555
O29 P9 1.544399 1_556
O29 Rb0 2.923634 1_555
O30 P8 1.544399 1_555
O30 Rb3 2.923634 1_555
O31 P8 1.544399 1_555
O31 Rb2 2.923634 1_555
O32 P11 1.544399 1_556
O32 Rb2 2.923634 1_555
O33 P11 1.544399 1_555
O33 Rb3 2.923634 1_555
O34 P10 1.544399 1_555
O34 Rb0 2.923634 1_555
O35 P10 1.544399 1_555
O35 Rb1 2.923634 1_555
O36 P6 1.536732 1_555
O36 Rb0 3.266037 1_545
O37 P7 1.536732 1_555
O37 Rb1 3.266037 1_555
O38 P4 1.536732 1_555
O38 Rb2 3.266037 1_555
O39 P5 1.536732 1_555
O39 Rb3 3.266037 1_565
O40 P2 1.536732 1_555
O40 Rb3 3.266037 1_565
O41 P3 1.536732 1_555
O41 Rb2 3.266037 1_555
O42 P0 1.536732 1_555
O42 Rb1 3.266037 1_555
O43 P1 1.536732 1_555
O43 Rb0 3.266037 1_545
O44 P7 1.520372 1_555
O45 P6 1.520372 1_555
O46 P5 1.520372 1_555
O47 P3 1.515480 1_555
O47 Rb0 3.528176 1_555
