# generated using pymatgen
data_Sr3(VN2)2
_symmetry_space_group_name_H-M   'P 1'
_cell_length_a   7.22215003
_cell_length_b   8.62212119
_cell_length_c   5.69819161
_cell_angle_alpha   89.99999836
_cell_angle_beta   92.18763178
_cell_angle_gamma   126.64977226
_symmetry_Int_Tables_number   1
_chemical_formula_structural   Sr3(VN2)2
_chemical_formula_sum   'Sr6 V4 N8'
_cell_volume   284.35570367
_cell_formula_units_Z   2
loop_
 _symmetry_equiv_pos_site_id
 _symmetry_equiv_pos_as_xyz
  1  'x, y, z'
loop_
 _atom_site_type_symbol
 _atom_site_label
 _atom_site_symmetry_multiplicity
 _atom_site_fract_x
 _atom_site_fract_y
 _atom_site_fract_z
 _atom_site_occupancy
  Sr  Sr0  1  0.23906600  0.98894100  0.04716700  1
  Sr  Sr1  1  0.76093400  0.74987400  0.45283300  1
  Sr  Sr2  1  0.76093400  0.01105900  0.95283300  1
  Sr  Sr3  1  0.23906600  0.25012600  0.54716700  1
  Sr  Sr4  1  0.00000000  0.60309800  0.75000000  1
  Sr  Sr5  1  0.00000000  0.39690200  0.25000000  1
  V  V0  1  0.58903800  0.17308600  0.57952600  1
  V  V1  1  0.41096200  0.58404700  0.92047400  1
  V  V2  1  0.41096200  0.82691400  0.42047400  1
  V  V3  1  0.58903800  0.41595300  0.07952600  1
  N  N0  1  0.26657400  0.95172700  0.52481100  1
  N  N1  1  0.73342600  0.68515300  0.97518900  1
  N  N2  1  0.73342600  0.04827300  0.47518900  1
  N  N3  1  0.26657400  0.31484700  0.02481100  1
  N  N4  1  0.65430500  0.26798800  0.89562700  1
  N  N5  1  0.34569500  0.61368200  0.60437300  1
  N  N6  1  0.34569500  0.73201200  0.10437300  1
  N  N7  1  0.65430500  0.38631800  0.39562700  1
loop_
_geom_bond_atom_site_label_1
_geom_bond_atom_site_label_2
_geom_bond_distance
_geom_bond_site_symmetry_2
N0 V0 1.949790 1_565
N0 V2 1.996511 1_555
N0 Sr3 2.699502 1_565
N0 Sr0 2.754076 1_555
N0 Sr4 2.769173 1_555
N0 Sr1 2.971693 1_455
N0 Sr0 3.020452 1_556
N1 V1 1.949788 1_555
N1 V3 1.996503 1_556
N1 Sr2 2.699494 1_565
N1 Sr1 2.754074 1_556
N1 Sr4 2.769173 1_655
N1 Sr0 2.971695 1_656
N1 Sr1 3.020450 1_555
N2 V2 1.949790 1_545
N2 V0 1.996511 1_555
N2 Sr1 2.699502 1_545
N2 Sr2 2.754076 1_555
N2 Sr5 2.769173 1_655
N2 Sr3 2.971693 1_655
N2 Sr2 3.020452 1_554
N3 V3 1.949788 1_555
N3 V1 1.996503 1_554
N3 Sr0 2.699494 1_545
N3 Sr3 2.754074 1_554
N3 Sr5 2.769173 1_555
N3 Sr2 2.971695 1_454
N3 Sr3 3.020450 1_555
N4 V0 1.900206 1_555
N4 V3 1.924447 1_556
N4 Sr4 2.610818 1_655
N4 Sr0 2.666758 1_546
N4 Sr2 2.761199 1_555
N4 Sr5 2.801500 1_656
N5 V1 1.900206 1_555
N5 V2 1.924447 1_555
N5 Sr4 2.610823 1_555
N5 Sr1 2.666758 1_555
N5 Sr3 2.761182 1_555
N5 Sr5 2.801499 1_555
N6 V2 1.900206 1_555
N6 V1 1.924447 1_554
N6 Sr5 2.610818 1_555
N6 Sr2 2.666758 1_564
N6 Sr0 2.761199 1_555
N6 Sr4 2.801500 1_554
N7 V3 1.900206 1_555
N7 V0 1.924447 1_555
N7 Sr5 2.610823 1_655
N7 Sr3 2.666758 1_555
N7 Sr1 2.761182 1_555
N7 Sr4 2.801499 1_655
