# generated using pymatgen
data_V3CrN3
_symmetry_space_group_name_H-M   'P 1'
_cell_length_a   6.63637302
_cell_length_b   6.63518176
_cell_length_c   4.01597600
_cell_angle_alpha   90.00000000
_cell_angle_beta   90.00000000
_cell_angle_gamma   119.99512127
_symmetry_Int_Tables_number   1
_chemical_formula_structural   V3CrN3
_chemical_formula_sum   'V6 Cr2 N6'
_cell_volume   153.15342095
_cell_formula_units_Z   2
loop_
 _symmetry_equiv_pos_site_id
 _symmetry_equiv_pos_as_xyz
  1  'x, y, z'
loop_
 _atom_site_type_symbol
 _atom_site_label
 _atom_site_symmetry_multiplicity
 _atom_site_fract_x
 _atom_site_fract_y
 _atom_site_fract_z
 _atom_site_occupancy
  V  V0  1  0.83498400  0.66984100  0.25000000  1
  V  V1  1  0.83482500  0.16509900  0.25000000  1
  V  V2  1  0.33012400  0.16523300  0.25000000  1
  V  V3  1  0.16501600  0.33015900  0.75000000  1
  V  V4  1  0.16517500  0.83490100  0.75000000  1
  V  V5  1  0.66987600  0.83476700  0.75000000  1
  Cr  Cr0  1  0.66670300  0.33333500  0.75000000  1
  Cr  Cr1  1  0.33329700  0.66666500  0.25000000  1
  N  N0  1  0.82565500  0.65131000  0.75000000  1
  N  N1  1  0.82543000  0.17407000  0.75000000  1
  N  N2  1  0.34818400  0.17416500  0.75000000  1
  N  N3  1  0.17434500  0.34869000  0.25000000  1
  N  N4  1  0.17457000  0.82593000  0.25000000  1
  N  N5  1  0.65181600  0.82583500  0.25000000  1
loop_
_geom_bond_atom_site_label_1
_geom_bond_atom_site_label_2
_geom_bond_distance
_geom_bond_site_symmetry_2
Cr0 N0 1.827249 1_555
Cr0 N1 1.827377 1_555
Cr0 N2 1.830704 1_555
Cr1 N3 1.827249 1_555
Cr1 N4 1.827377 1_555
Cr1 N5 1.830704 1_555
N0 V5 1.951600 1_555
N0 V4 1.953563 1_655
N0 V0 2.010810 1_556
N0 V0 2.010810 1_555
N1 V5 1.952037 1_545
N1 V3 1.953906 1_655
N1 V1 2.010760 1_555
N1 V1 2.010760 1_556
N2 V3 1.951135 1_555
N2 V4 1.951624 1_545
N2 V2 2.010669 1_555
N2 V2 2.010669 1_556
N3 V2 1.951600 1_555
N3 V1 1.953563 1_455
N3 V3 2.010810 1_554
N3 V3 2.010810 1_555
N4 V2 1.952037 1_565
N4 V0 1.953906 1_455
N4 V4 2.010760 1_555
N4 V4 2.010760 1_554
N5 V0 1.951135 1_555
N5 V1 1.951624 1_565
N5 V5 2.010669 1_554
N5 V5 2.010669 1_555
