# generated using pymatgen
data_Ca3TbMn4O12
_symmetry_space_group_name_H-M   'P 1'
_cell_length_a   7.59293800
_cell_length_b   5.35208300
_cell_length_c   5.45341919
_cell_angle_alpha   89.88922050
_cell_angle_beta   90.00000000
_cell_angle_gamma   90.00000000
_symmetry_Int_Tables_number   1
_chemical_formula_structural   Ca3TbMn4O12
_chemical_formula_sum   'Ca3 Tb1 Mn4 O12'
_cell_volume   221.61582248
_cell_formula_units_Z   1
loop_
 _symmetry_equiv_pos_site_id
 _symmetry_equiv_pos_as_xyz
  1  'x, y, z'
loop_
 _atom_site_type_symbol
 _atom_site_label
 _atom_site_symmetry_multiplicity
 _atom_site_fract_x
 _atom_site_fract_y
 _atom_site_fract_z
 _atom_site_occupancy
  Ca  Ca0  1  0.00000000  0.00823900  0.95272100  1
  Ca  Ca1  1  0.50000000  0.50808300  0.54391100  1
  Ca  Ca2  1  0.50000000  0.99113600  0.04481500  1
  Tb  Tb0  1  0.00000000  0.48860800  0.44340800  1
  Mn  Mn0  1  0.25127300  0.99852600  0.50062000  1
  Mn  Mn1  1  0.74860800  0.50127700  0.99673300  1
  Mn  Mn2  1  0.74872700  0.99852600  0.50062000  1
  Mn  Mn3  1  0.25139200  0.50127700  0.99673300  1
  O  O0  1  0.20197000  0.21255900  0.21388100  1
  O  O1  1  0.79516500  0.29824600  0.70322600  1
  O  O2  1  0.71066400  0.79833800  0.79635300  1
  O  O3  1  0.28344200  0.69919900  0.29868000  1
  O  O4  1  0.28933600  0.79833800  0.79635300  1
  O  O5  1  0.71655800  0.69919900  0.29868000  1
  O  O6  1  0.79803000  0.21255900  0.21388100  1
  O  O7  1  0.20483500  0.29824600  0.70322600  1
  O  O8  1  0.00000000  0.57791400  0.02285200  1
  O  O9  1  0.00000000  0.91270100  0.51881100  1
  O  O10  1  0.50000000  0.42036200  0.97848900  1
  O  O11  1  0.50000000  0.07666500  0.47600800  1
loop_
_geom_bond_atom_site_label_1
_geom_bond_atom_site_label_2
_geom_bond_distance
_geom_bond_site_symmetry_2
Ca0 O8 2.333944 1_546
Ca0 O6 2.362625 1_456
Ca0 O0 2.362625 1_556
Ca0 O9 2.421875 1_545
Ca0 O1 2.582860 1_455
Ca0 O7 2.582860 1_555
Ca0 O4 2.611385 1_545
Ca0 O2 2.611385 1_445
Ca1 O11 2.339197 1_555
Ca1 O5 2.352282 1_555
Ca1 O3 2.352282 1_555
Ca1 O10 2.415101 1_555
Ca1 O4 2.622089 1_555
Ca1 O2 2.622089 1_555
Ca1 O7 2.652391 1_555
Ca1 O1 2.652391 1_555
Ca2 O10 2.324863 1_564
Ca2 O2 2.337667 1_554
Ca2 O4 2.337667 1_554
Ca2 O11 2.396486 1_565
Ca2 O5 2.655817 1_555
Ca2 O3 2.655817 1_555
Ca2 O0 2.716525 1_565
Ca2 O6 2.716525 1_565
Mn0 O11 1.938914 1_565
Mn0 O4 1.955959 1_555
Mn0 O3 1.961056 1_555
Mn0 O9 1.964878 1_555
Mn0 O0 1.972465 1_565
Mn0 O7 1.981211 1_565
Mn1 O10 1.939301 1_555
Mn1 O2 1.948889 1_555
Mn1 O8 1.957622 1_656
Mn1 O1 1.968362 1_555
Mn1 O5 1.974717 1_556
Mn1 O6 1.980870 1_556
Mn2 O11 1.938914 1_565
Mn2 O2 1.955959 1_555
Mn2 O5 1.961056 1_555
Mn2 O9 1.964878 1_655
Mn2 O6 1.972465 1_565
Mn2 O1 1.981211 1_565
Mn3 O10 1.939301 1_555
Mn3 O4 1.948889 1_555
Mn3 O8 1.957622 1_556
Mn3 O7 1.968362 1_555
Mn3 O3 1.974717 1_556
Mn3 O0 1.980870 1_556
O0 Tb0 2.471539 1_555
O1 Tb0 2.336448 1_655
O3 Tb0 2.553749 1_555
O5 Tb0 2.553749 1_655
O6 Tb0 2.471539 1_655
O7 Tb0 2.336448 1_555
O8 Tb0 2.341840 1_555
O9 Tb0 2.307510 1_555
