# generated using pymatgen
data_YNb(TeO4)2
_symmetry_space_group_name_H-M   'P 1'
_cell_length_a   5.60848946
_cell_length_b   5.60848946
_cell_length_c   22.26038000
_cell_angle_alpha   90.00000000
_cell_angle_beta   90.00000000
_cell_angle_gamma   93.07085888
_symmetry_Int_Tables_number   1
_chemical_formula_structural   YNb(TeO4)2
_chemical_formula_sum   'Y4 Nb4 Te8 O32'
_cell_volume   699.19822239
_cell_formula_units_Z   4
loop_
 _symmetry_equiv_pos_site_id
 _symmetry_equiv_pos_as_xyz
  1  'x, y, z'
loop_
 _atom_site_type_symbol
 _atom_site_label
 _atom_site_symmetry_multiplicity
 _atom_site_fract_x
 _atom_site_fract_y
 _atom_site_fract_z
 _atom_site_occupancy
  Y  Y0  1  0.25305100  0.25305100  0.00000000  1
  Y  Y1  1  0.74694900  0.74694900  0.00000000  1
  Y  Y2  1  0.24694900  0.24694900  0.50000000  1
  Y  Y3  1  0.75305100  0.75305100  0.50000000  1
  Nb  Nb0  1  0.24663900  0.25336100  0.75000000  1
  Nb  Nb1  1  0.74663900  0.75336100  0.75000000  1
  Nb  Nb2  1  0.75336100  0.74663900  0.25000000  1
  Nb  Nb3  1  0.25336100  0.24663900  0.25000000  1
  Te  Te0  1  0.80882600  0.19117400  0.89408200  1
  Te  Te1  1  0.19117400  0.80882600  0.10591800  1
  Te  Te2  1  0.32321400  0.67678600  0.86955200  1
  Te  Te3  1  0.67678600  0.32321400  0.13044800  1
  Te  Te4  1  0.82321400  0.17678600  0.63044800  1
  Te  Te5  1  0.17678600  0.82321400  0.36955200  1
  Te  Te6  1  0.30882600  0.69117400  0.60591800  1
  Te  Te7  1  0.69117400  0.30882600  0.39408200  1
  O  O0  1  0.55238900  0.06697100  0.94328800  1
  O  O1  1  0.93302900  0.44761100  0.94328800  1
  O  O2  1  0.44761100  0.93302900  0.05671200  1
  O  O3  1  0.06697100  0.55238900  0.05671200  1
  O  O4  1  0.01539800  0.98460200  0.93560000  1
  O  O5  1  0.98460200  0.01539800  0.06440000  1
  O  O6  1  0.42964600  0.57035400  0.94470300  1
  O  O7  1  0.57035400  0.42964600  0.05529700  1
  O  O8  1  0.27447000  0.35513800  0.83927800  1
  O  O9  1  0.64486200  0.72553000  0.83927800  1
  O  O10  1  0.72553000  0.64486200  0.16072200  1
  O  O11  1  0.35513800  0.27447000  0.16072200  1
  O  O12  1  0.92964600  0.07035400  0.55529700  1
  O  O13  1  0.07035400  0.92964600  0.44470300  1
  O  O14  1  0.14486200  0.22553000  0.66072200  1
  O  O15  1  0.77447000  0.85513800  0.66072200  1
  O  O16  1  0.85513800  0.77447000  0.33927800  1
  O  O17  1  0.22553000  0.14486200  0.33927800  1
  O  O18  1  0.05238900  0.56697100  0.55671200  1
  O  O19  1  0.43302900  0.94761100  0.55671200  1
  O  O20  1  0.94761100  0.43302900  0.44328800  1
  O  O21  1  0.56697100  0.05238900  0.44328800  1
  O  O22  1  0.51539800  0.48460200  0.56440000  1
  O  O23  1  0.48460200  0.51539800  0.43560000  1
  O  O24  1  0.97381700  0.02618300  0.77100800  1
  O  O25  1  0.02618300  0.97381700  0.22899200  1
  O  O26  1  0.97111200  0.52888800  0.75000000  1
  O  O27  1  0.47111200  0.02888800  0.75000000  1
  O  O28  1  0.02888800  0.47111200  0.25000000  1
  O  O29  1  0.52888800  0.97111200  0.25000000  1
  O  O30  1  0.47381700  0.52618300  0.72899200  1
  O  O31  1  0.52618300  0.47381700  0.27100800  1
loop_
_geom_bond_atom_site_label_1
_geom_bond_atom_site_label_2
_geom_bond_distance
_geom_bond_site_symmetry_2
Nb0 O27 1.827498 1_555
Nb0 O30 1.993608 1_555
Nb0 O24 1.993608 1_455
Nb0 O14 2.071293 1_555
Nb0 O8 2.071293 1_555
Nb0 O26 2.243143 1_455
Nb1 O26 1.827498 1_555
Nb1 O30 1.993608 1_555
Nb1 O24 1.993608 1_565
Nb1 O9 2.071293 1_555
Nb1 O15 2.071293 1_555
Nb1 O27 2.243143 1_565
Nb2 O29 1.827498 1_555
Nb2 O31 1.993608 1_555
Nb2 O25 1.993608 1_655
Nb2 O10 2.071293 1_555
Nb2 O16 2.071293 1_555
Nb2 O28 2.243143 1_655
Nb3 O28 1.827498 1_555
Nb3 O25 1.993608 1_545
Nb3 O31 1.993608 1_555
Nb3 O11 2.071293 1_555
Nb3 O17 2.071293 1_555
Nb3 O29 2.243143 1_545
O0 Te0 1.909494 1_555
O0 Y0 2.385182 1_556
O0 Y1 2.493133 1_546
O1 Te0 1.909494 1_555
O1 Y1 2.385182 1_556
O1 Y0 2.493133 1_656
O2 Te1 1.909494 1_555
O2 Y1 2.385182 1_555
O2 Y0 2.493133 1_565
O3 Te1 1.909494 1_555
O3 Y0 2.385182 1_555
O3 Y1 2.493133 1_455
O4 Te0 1.918978 1_465
O4 Y1 2.425588 1_456
O4 Y0 2.425588 1_566
O5 Te1 1.918978 1_645
O5 Y1 2.425588 1_545
O5 Y0 2.425588 1_655
O6 Te2 1.883977 1_555
O6 Y1 2.339711 1_556
O6 Y0 2.339711 1_556
O7 Te3 1.883977 1_555
O7 Y0 2.339711 1_555
O7 Y1 2.339711 1_555
O8 Te2 1.931404 1_555
O9 Te2 1.931404 1_555
O10 Te3 1.931404 1_555
O11 Te3 1.931404 1_555
O12 Te4 1.883977 1_555
O12 Y3 2.339711 1_545
O12 Y2 2.339711 1_655
O13 Te5 1.883977 1_555
O13 Y3 2.339711 1_455
O13 Y2 2.339711 1_565
O14 Te4 1.931404 1_455
O15 Te4 1.931404 1_565
O16 Te5 1.931404 1_655
O17 Te5 1.931404 1_545
O18 Te6 1.909494 1_555
O18 Y3 2.385182 1_455
O18 Y2 2.493133 1_555
O19 Te6 1.909494 1_555
O19 Y2 2.385182 1_565
O19 Y3 2.493133 1_555
O20 Te7 1.909494 1_555
O20 Y2 2.385182 1_655
O20 Y3 2.493133 1_555
O21 Te7 1.909494 1_555
O21 Y3 2.385182 1_545
O21 Y2 2.493133 1_555
O22 Te6 1.918978 1_555
O22 Y3 2.425588 1_555
O22 Y2 2.425588 1_555
O23 Te7 1.918978 1_555
O23 Y2 2.425588 1_555
O23 Y3 2.425588 1_555
