# generated using pymatgen
data_MgZr2
_symmetry_space_group_name_H-M   'P 1'
_cell_length_a   15.99479456
_cell_length_b   15.99479456
_cell_length_c   15.99479373
_cell_angle_alpha   23.32322806
_cell_angle_beta   23.32322806
_cell_angle_gamma   23.32323882
_symmetry_Int_Tables_number   1
_chemical_formula_structural   MgZr2
_chemical_formula_sum   'Mg8 Zr16'
_cell_volume   563.15733088
_cell_formula_units_Z   8
loop_
 _symmetry_equiv_pos_site_id
 _symmetry_equiv_pos_as_xyz
  1  'x, y, z'
loop_
 _atom_site_type_symbol
 _atom_site_label
 _atom_site_symmetry_multiplicity
 _atom_site_fract_x
 _atom_site_fract_y
 _atom_site_fract_z
 _atom_site_occupancy
  Mg  Mg0_0  1  0.00000000  0.00000000  0.00000000  1
  Mg  Mg0_1  1  0.00000000  0.00000000  0.50000000  1
  Mg  Mg0_2  1  0.00000000  0.50000000  0.00000000  1
  Mg  Mg0_3  1  0.00000000  0.50000000  0.50000000  1
  Mg  Mg0_4  1  0.50000000  0.00000000  0.00000000  1
  Mg  Mg0_5  1  0.50000000  0.00000000  0.50000000  1
  Mg  Mg0_6  1  0.50000000  0.50000000  0.00000000  1
  Mg  Mg0_7  1  0.50000000  0.50000000  0.50000000  1
  Zr  Zr0_0  1  0.10971339  0.10971338  0.10971338  1
  Zr  Zr0_1  1  0.10971339  0.10971338  0.60971338  1
  Zr  Zr0_2  1  0.10971339  0.60971339  0.10971338  1
  Zr  Zr0_3  1  0.10971339  0.60971339  0.60971338  1
  Zr  Zr0_4  1  0.60971339  0.10971338  0.10971338  1
  Zr  Zr0_5  1  0.60971339  0.10971339  0.60971338  1
  Zr  Zr0_6  1  0.60971339  0.60971338  0.10971338  1
  Zr  Zr0_7  1  0.60971339  0.60971338  0.60971338  1
  Zr  Zr1_0  1  0.39028662  0.39028661  0.39028662  1
  Zr  Zr1_1  1  0.39028662  0.39028661  0.89028662  1
  Zr  Zr1_2  1  0.39028662  0.89028662  0.39028662  1
  Zr  Zr1_3  1  0.39028662  0.89028662  0.89028662  1
  Zr  Zr1_4  1  0.89028662  0.39028661  0.39028662  1
  Zr  Zr1_5  1  0.89028662  0.39028662  0.89028662  1
  Zr  Zr1_6  1  0.89028662  0.89028661  0.39028662  1
  Zr  Zr1_7  1  0.89028662  0.89028661  0.89028662  1
loop_
_geom_bond_atom_site_label_1
_geom_bond_atom_site_label_2
_geom_bond_distance
_geom_bond_site_symmetry_2
Mg0_0 Mg0_3 3.233047 1_545
Mg0_0 Mg0_5 3.233047 1_455
Mg0_0 Mg0_3 3.233047 1_554
Mg0_0 Mg0_5 3.233047 1_554
Mg0_0 Mg0_6 3.233049 1_455
Mg0_0 Mg0_6 3.233049 1_545
Mg0_0 Zr0_1 3.247446 1_554
Mg0_0 Zr1_6 3.247446 1_445
Mg0_0 Zr0_2 3.247447 1_545
Mg0_0 Zr0_4 3.247447 1_455
Mg0_0 Zr1_5 3.247447 1_454
Mg0_0 Zr1_3 3.247447 1_544
Mg0_1 Mg0_4 3.233047 1_555
Mg0_1 Mg0_2 3.233047 1_555
Mg0_1 Mg0_2 3.233047 1_546
Mg0_1 Mg0_4 3.233047 1_456
Mg0_1 Mg0_7 3.233049 1_455
Mg0_1 Mg0_7 3.233049 1_545
Mg0_1 Zr0_0 3.247446 1_555
Mg0_1 Zr1_7 3.247446 1_445
Mg0_1 Zr0_5 3.247447 1_455
Mg0_1 Zr0_3 3.247447 1_545
Mg0_1 Zr1_4 3.247447 1_455
Mg0_1 Zr1_2 3.247447 1_545
Mg0_2 Mg0_7 3.233047 1_455
Mg0_2 Mg0_7 3.233047 1_554
Mg0_2 Mg0_4 3.233049 1_555
Mg0_2 Mg0_4 3.233049 1_465
Mg0_2 Zr0_3 3.247446 1_554
Mg0_2 Zr1_4 3.247446 1_455
Mg0_2 Zr1_1 3.247447 1_554
Mg0_2 Zr0_0 3.247447 1_555
Mg0_2 Zr0_6 3.247447 1_455
Mg0_2 Zr1_7 3.247447 1_454
Mg0_3 Mg0_6 3.233047 1_555
Mg0_3 Mg0_6 3.233047 1_456
Mg0_3 Mg0_5 3.233049 1_555
Mg0_3 Mg0_5 3.233049 1_465
Mg0_3 Zr0_2 3.247446 1_555
Mg0_3 Zr1_5 3.247446 1_455
Mg0_3 Zr1_0 3.247447 1_555
Mg0_3 Zr1_6 3.247447 1_455
Mg0_3 Zr0_7 3.247447 1_455
Mg0_3 Zr0_1 3.247447 1_555
Mg0_4 Mg0_7 3.233047 1_554
Mg0_4 Mg0_7 3.233047 1_545
Mg0_4 Zr0_5 3.247446 1_554
Mg0_4 Zr1_2 3.247446 1_545
Mg0_4 Zr0_0 3.247447 1_555
Mg0_4 Zr1_1 3.247447 1_554
Mg0_4 Zr0_6 3.247447 1_545
Mg0_4 Zr1_7 3.247447 1_544
Mg0_5 Mg0_6 3.233047 1_555
Mg0_5 Mg0_6 3.233047 1_546
Mg0_5 Zr0_4 3.247446 1_555
Mg0_5 Zr1_3 3.247446 1_545
Mg0_5 Zr1_0 3.247447 1_555
Mg0_5 Zr0_7 3.247447 1_545
Mg0_5 Zr1_6 3.247447 1_545
Mg0_5 Zr0_1 3.247447 1_555
Mg0_6 Zr1_0 3.247446 1_555
Mg0_6 Zr0_7 3.247446 1_554
Mg0_6 Zr0_2 3.247447 1_555
Mg0_6 Zr0_4 3.247447 1_555
Mg0_6 Zr1_5 3.247447 1_554
Mg0_6 Zr1_3 3.247447 1_554
Mg0_7 Zr1_1 3.247446 1_555
Mg0_7 Zr0_6 3.247446 1_555
Mg0_7 Zr0_5 3.247447 1_555
Mg0_7 Zr0_3 3.247447 1_555
Mg0_7 Zr1_4 3.247447 1_555
Mg0_7 Zr1_2 3.247447 1_555
Zr0_0 Zr1_6 3.089393 1_445
Zr0_0 Zr1_3 3.089394 1_544
Zr0_0 Zr1_5 3.089394 1_454
Zr0_0 Zr0_5 3.233047 1_455
Zr0_0 Zr0_3 3.233047 1_545
Zr0_0 Zr0_3 3.233047 1_554
Zr0_0 Zr0_5 3.233047 1_554
Zr0_0 Zr0_6 3.233049 1_545
Zr0_0 Zr0_6 3.233049 1_455
Zr0_1 Zr1_7 3.089393 1_445
Zr0_1 Zr1_2 3.089394 1_545
Zr0_1 Zr1_4 3.089394 1_455
Zr0_1 Zr0_4 3.233047 1_555
Zr0_1 Zr0_2 3.233047 1_555
Zr0_1 Zr0_4 3.233047 1_456
Zr0_1 Zr0_2 3.233047 1_546
Zr0_1 Zr0_7 3.233049 1_455
Zr0_1 Zr0_7 3.233049 1_545
Zr0_2 Zr1_4 3.089393 1_455
Zr0_2 Zr1_7 3.089394 1_454
Zr0_2 Zr1_1 3.089394 1_554
Zr0_2 Zr0_7 3.233047 1_455
Zr0_2 Zr0_7 3.233047 1_554
Zr0_2 Zr0_4 3.233049 1_555
Zr0_2 Zr0_4 3.233049 1_465
Zr0_3 Zr1_5 3.089393 1_455
Zr0_3 Zr1_6 3.089394 1_455
Zr0_3 Zr1_0 3.089394 1_555
Zr0_3 Zr0_6 3.233047 1_555
Zr0_3 Zr0_6 3.233047 1_456
Zr0_3 Zr0_5 3.233049 1_555
Zr0_3 Zr0_5 3.233049 1_465
Zr0_4 Zr1_2 3.089393 1_545
Zr0_4 Zr1_7 3.089394 1_544
Zr0_4 Zr1_1 3.089394 1_554
Zr0_4 Zr0_7 3.233047 1_545
Zr0_4 Zr0_7 3.233047 1_554
Zr0_5 Zr1_3 3.089393 1_545
Zr0_5 Zr1_6 3.089394 1_545
Zr0_5 Zr1_0 3.089394 1_555
Zr0_5 Zr0_6 3.233047 1_555
Zr0_5 Zr0_6 3.233047 1_546
Zr0_6 Zr1_0 3.089393 1_555
Zr0_6 Zr1_3 3.089394 1_554
Zr0_6 Zr1_5 3.089394 1_554
Zr0_7 Zr1_1 3.089393 1_555
Zr0_7 Zr1_2 3.089394 1_555
Zr0_7 Zr1_4 3.089394 1_555
Zr1_0 Zr1_3 3.233047 1_545
Zr1_0 Zr1_5 3.233047 1_455
Zr1_0 Zr1_5 3.233047 1_554
Zr1_0 Zr1_3 3.233047 1_554
Zr1_0 Zr1_6 3.233049 1_455
Zr1_0 Zr1_6 3.233049 1_545
Zr1_1 Zr1_2 3.233047 1_546
Zr1_1 Zr1_4 3.233047 1_456
Zr1_1 Zr1_4 3.233047 1_555
Zr1_1 Zr1_2 3.233047 1_555
Zr1_1 Zr1_7 3.233049 1_455
Zr1_1 Zr1_7 3.233049 1_545
Zr1_2 Zr1_7 3.233047 1_455
Zr1_2 Zr1_7 3.233047 1_554
Zr1_2 Zr1_4 3.233049 1_465
Zr1_2 Zr1_4 3.233049 1_555
Zr1_3 Zr1_6 3.233047 1_555
Zr1_3 Zr1_6 3.233047 1_456
Zr1_3 Zr1_5 3.233049 1_465
Zr1_3 Zr1_5 3.233049 1_555
Zr1_4 Zr1_7 3.233047 1_554
Zr1_4 Zr1_7 3.233047 1_545
Zr1_5 Zr1_6 3.233047 1_546
Zr1_5 Zr1_6 3.233047 1_555
