# generated using pymatgen
data_U2Br2N
_symmetry_space_group_name_H-M   'P 1'
_cell_length_a   3.56116500
_cell_length_b   3.56116500
_cell_length_c   13.38208200
_cell_angle_alpha   90.00000000
_cell_angle_beta   90.00000000
_cell_angle_gamma   90.00000000
_symmetry_Int_Tables_number   1
_chemical_formula_structural   U2Br2N
_chemical_formula_sum   'U2 Br2 N1'
_cell_volume   169.71017429
_cell_formula_units_Z   1
loop_
 _symmetry_equiv_pos_site_id
 _symmetry_equiv_pos_as_xyz
  1  'x, y, z'
loop_
 _atom_site_type_symbol
 _atom_site_label
 _atom_site_symmetry_multiplicity
 _atom_site_fract_x
 _atom_site_fract_y
 _atom_site_fract_z
 _atom_site_occupancy
  U  U0  1  0.50000000  0.50000000  0.14887000  1
  U  U1  1  0.50000000  0.50000000  0.85113000  1
  Br  Br0  1  0.50000000  0.50000000  0.65397000  1
  Br  Br1  1  0.50000000  0.50000000  0.34603000  1
  N  N0  1  0.50000000  0.50000000  0.00000000  1
loop_
_geom_bond_atom_site_label_1
_geom_bond_atom_site_label_2
_geom_bond_distance
_geom_bond_site_symmetry_2
Br0 U1 2.638411 1_555
Br1 U0 2.638411 1_555
N0 U1 1.992191 1_554
N0 U0 1.992191 1_555
