# generated using pymatgen
data_K4MgZn4H16(Br3O2)4
_symmetry_space_group_name_H-M   'P 1'
_cell_length_a   7.59663426
_cell_length_b   13.16522234
_cell_length_c   13.81045297
_cell_angle_alpha   88.23687381
_cell_angle_beta   135.55690955
_cell_angle_gamma   89.70615025
_symmetry_Int_Tables_number   1
_chemical_formula_structural   K4MgZn4H16(Br3O2)4
_chemical_formula_sum   'K4 Mg1 Zn4 H16 Br12 O8'
_cell_volume   965.93605964
_cell_formula_units_Z   1
loop_
 _symmetry_equiv_pos_site_id
 _symmetry_equiv_pos_as_xyz
  1  'x, y, z'
loop_
 _atom_site_type_symbol
 _atom_site_label
 _atom_site_symmetry_multiplicity
 _atom_site_fract_x
 _atom_site_fract_y
 _atom_site_fract_z
 _atom_site_occupancy
  K  K0  1  0.29065515  0.80379435  0.00984503  1
  K  K1  1  0.67580198  0.32507515  0.48870975  1
  K  K2  1  0.76442662  0.15222916  0.00298905  1
  K  K3  1  0.28310064  0.71081260  0.50391265  1
  Mg  Mg0  1  0.79513105  0.47417156  0.26721275  1
  Zn  Zn0  1  0.48334932  0.93075564  0.75096087  1
  Zn  Zn1  1  0.48574118  0.41842101  0.75428546  1
  Zn  Zn2  1  0.51978080  0.06541552  0.25811516  1
  Zn  Zn3  1  0.55108346  0.55656107  0.30895198  1
  H  H0  1  0.77840380  0.26791667  0.78535126  1
  H  H1  1  0.20244143  0.78021423  0.71115054  1
  H  H2  1  0.28713742  0.73396382  0.24365280  1
  H  H3  1  0.78559638  0.22256523  0.29592271  1
  H  H4  1  0.92740485  0.32387094  0.93066010  1
  H  H5  1  0.03694787  0.85425100  0.57057888  1
  H  H6  1  0.10259569  0.65303844  0.13768288  1
  H  H7  1  0.95441685  0.15924488  0.44058395  1
  H  H8  1  0.94051412  0.15483691  0.74532620  1
  H  H9  1  0.07014404  0.65519222  0.74003036  1
  H  H10  1  0.09453622  0.85507046  0.24153081  1
  H  H11  1  0.88449148  0.34543835  0.17077569  1
  H  H12  1  0.65529351  0.13659910  0.64201714  1
  H  H13  1  0.36500542  0.65561380  0.85183054  1
  H  H14  1  0.37296831  0.88091643  0.36349366  1
  H  H15  1  0.58905542  0.34833308  0.06752078  1
  Br  Br0  1  0.22497719  0.38626616  0.50586605  1
  Br  Br1  1  0.71516205  0.90349809  0.99163766  1
  Br  Br2  1  0.69523683  0.58106712  0.54114126  1
  Br  Br3  1  0.29425755  0.09893977  0.02105500  1
  Br  Br4  1  0.29230474  0.35620796  0.82656173  1
  Br  Br5  1  0.71917931  0.89804641  0.69951093  1
  Br  Br6  1  0.81609782  0.62942734  0.16542937  1
  Br  Br7  1  0.32185777  0.08369279  0.33492972  1
  Br  Br8  1  0.27628245  0.09808252  0.66849767  1
  Br  Br9  1  0.63785616  0.58467948  0.81506297  1
  Br  Br10  1  0.73748463  0.90078219  0.33216277  1
  Br  Br11  1  0.14823134  0.35921347  0.15902504  1
  O  O0  1  0.20733041  0.82513978  0.65179901  1
  O  O1  1  0.76099889  0.30637821  0.83975303  1
  O  O2  1  0.78016636  0.18335757  0.35544602  1
  O  O3  1  0.26480277  0.68247573  0.18372613  1
  O  O4  1  0.21511724  0.69862640  0.80764684  1
  O  O5  1  0.77620463  0.19081245  0.68366279  1
  O  O6  1  0.74719230  0.34639501  0.16838766  1
  O  O7  1  0.26027356  0.82365196  0.32275031  1
loop_
_geom_bond_atom_site_label_1
_geom_bond_atom_site_label_2
_geom_bond_distance
_geom_bond_site_symmetry_2
K0 O4 2.828792 1_554
K0 O3 2.965939 1_555
K1 O5 2.777803 1_555
K1 O2 3.126716 1_555
K1 Zn3 3.534773 1_555
K2 O1 2.972446 1_554
K3 O7 2.765097 1_555
K3 O0 2.937170 1_555
Mg0 O6 2.064710 1_555
Mg0 Zn3 2.547490 1_555
H0 O1 1.001456 1_555
H1 O0 1.018293 1_555
H1 O4 1.632975 1_555
H2 O3 1.004198 1_555
H3 O2 0.983068 1_555
H4 O1 0.990890 1_555
H5 O0 0.987804 1_555
H6 O3 0.986997 1_555
H7 O2 0.992882 1_555
H8 O5 0.979214 1_555
H9 O4 0.991320 1_555
H10 O7 0.981848 1_555
H11 O6 1.019727 1_555
H12 O5 0.980578 1_555
H13 O4 0.984654 1_555
H14 O7 0.981210 1_555
H15 O6 0.996138 1_555
Br0 Zn1 2.503474 1_555
Br0 Mg0 2.687757 1_455
Br0 K1 3.684582 1_555
Br1 Zn0 2.416638 1_555
Br1 K2 3.293634 1_566
Br1 K0 3.656045 1_556
Br2 Zn3 2.576631 1_555
Br2 K3 3.252210 1_555
Br2 K1 3.450642 1_555
Br3 Zn2 2.396410 1_555
Br3 K0 3.892954 1_545
Br4 Zn1 2.425478 1_555
Br4 K1 3.578735 1_455
Br5 Zn0 2.393407 1_555
Br5 K0 3.435840 1_656
Br5 K3 3.473190 1_555
Br6 Mg0 2.515028 1_555
Br6 K3 3.500429 1_655
Br6 K0 3.629777 1_555
Br7 Zn2 2.394468 1_555
Br7 K2 3.427636 1_455
Br7 K1 3.766679 1_555
Br8 H7 2.317056 1_455
Br8 Zn0 2.424090 1_545
Br8 K2 3.371728 1_556
Br9 Zn1 2.363231 1_555
Br9 K3 3.385969 1_555
Br10 Zn2 2.427052 1_565
Br10 K0 3.433090 1_555
Br11 H11 2.130623 1_455
Br11 K1 3.285520 1_555
O0 Zn0 2.062110 1_555
O1 Zn1 2.068440 1_555
O2 Zn2 2.119874 1_555
O3 Zn3 2.210124 1_555
