# generated using pymatgen
data_Fe2(SO7)3
_symmetry_space_group_name_H-M   'P 1'
_cell_length_a   10.79020866
_cell_length_b   10.79020866
_cell_length_c   17.18034300
_cell_angle_alpha   90.00000000
_cell_angle_beta   90.00000000
_cell_angle_gamma   120.00000403
_symmetry_Int_Tables_number   1
_chemical_formula_structural   Fe2(SO7)3
_chemical_formula_sum   'Fe8 S12 O84'
_cell_volume   1732.29611034
_cell_formula_units_Z   4
loop_
 _symmetry_equiv_pos_site_id
 _symmetry_equiv_pos_as_xyz
  1  'x, y, z'
loop_
 _atom_site_type_symbol
 _atom_site_label
 _atom_site_symmetry_multiplicity
 _atom_site_fract_x
 _atom_site_fract_y
 _atom_site_fract_z
 _atom_site_occupancy
  Fe  Fe0  1  0.00000000  0.00000000  0.50000000  1
  Fe  Fe1  1  0.00000000  0.00000000  0.00000000  1
  Fe  Fe2  1  0.33333300  0.66666700  0.75000000  1
  Fe  Fe3  1  0.66666700  0.33333300  0.25000000  1
  Fe  Fe4  1  0.66666700  0.33333300  0.50074500  1
  Fe  Fe5  1  0.33333300  0.66666700  0.49925500  1
  Fe  Fe6  1  0.66666700  0.33333300  0.99925500  1
  Fe  Fe7  1  0.33333300  0.66666700  0.00074500  1
  S  S0  1  0.24229300  0.41032900  0.62050300  1
  S  S1  1  0.75770700  0.58967100  0.37949700  1
  S  S2  1  0.58967100  0.83196300  0.62050300  1
  S  S3  1  0.24229300  0.83196300  0.87949700  1
  S  S4  1  0.41032900  0.16803700  0.37949700  1
  S  S5  1  0.75770700  0.16803700  0.12050300  1
  S  S6  1  0.16803700  0.75770700  0.62050300  1
  S  S7  1  0.58967100  0.75770700  0.87949700  1
  S  S8  1  0.83196300  0.24229300  0.37949700  1
  S  S9  1  0.41032900  0.24229300  0.12050300  1
  S  S10  1  0.16803700  0.41032900  0.87949700  1
  S  S11  1  0.83196300  0.58967100  0.12050300  1
  O  O0  1  0.33165400  0.50981900  0.68484900  1
  O  O1  1  0.66834600  0.49018100  0.31515100  1
  O  O2  1  0.49018100  0.82183500  0.68484900  1
  O  O3  1  0.33165400  0.82183500  0.81515100  1
  O  O4  1  0.50981900  0.17816500  0.31515100  1
  O  O5  1  0.66834600  0.17816500  0.18484900  1
  O  O6  1  0.17816500  0.66834600  0.68484900  1
  O  O7  1  0.49018100  0.66834600  0.81515100  1
  O  O8  1  0.82183500  0.33165400  0.31515100  1
  O  O9  1  0.50981900  0.33165400  0.18484900  1
  O  O10  1  0.17816500  0.50981900  0.81515100  1
  O  O11  1  0.82183500  0.49018100  0.18484900  1
  O  O12  1  0.58102900  0.20202700  0.57512400  1
  O  O13  1  0.41897100  0.79797300  0.42487600  1
  O  O14  1  0.79797300  0.37900200  0.57512400  1
  O  O15  1  0.58102900  0.37900200  0.92487600  1
  O  O16  1  0.20202700  0.62099800  0.42487600  1
  O  O17  1  0.41897100  0.62099800  0.07512400  1
  O  O18  1  0.62099800  0.41897100  0.57512400  1
  O  O19  1  0.79797300  0.41897100  0.92487600  1
  O  O20  1  0.37900200  0.58102900  0.42487600  1
  O  O21  1  0.20202700  0.58102900  0.07512400  1
  O  O22  1  0.62099800  0.20202700  0.92487600  1
  O  O23  1  0.37900200  0.79797300  0.07512400  1
  O  O24  1  0.21260100  0.49701100  0.56070500  1
  O  O25  1  0.78739900  0.50298900  0.43929500  1
  O  O26  1  0.50298900  0.71559000  0.56070500  1
  O  O27  1  0.21260100  0.71559000  0.93929500  1
  O  O28  1  0.49701100  0.28441000  0.43929500  1
  O  O29  1  0.78739900  0.28441000  0.06070500  1
  O  O30  1  0.28441000  0.78739900  0.56070500  1
  O  O31  1  0.50298900  0.78739900  0.93929500  1
  O  O32  1  0.71559000  0.21260100  0.43929500  1
  O  O33  1  0.49701100  0.21260100  0.06070500  1
  O  O34  1  0.28441000  0.49701100  0.93929500  1
  O  O35  1  0.71559000  0.50298900  0.06070500  1
  O  O36  1  0.70209300  0.19470100  0.76380800  1
  O  O37  1  0.29790700  0.80529900  0.23619200  1
  O  O38  1  0.80529900  0.50739200  0.76380800  1
  O  O39  1  0.70209300  0.50739200  0.73619200  1
  O  O40  1  0.19470100  0.49260800  0.23619200  1
  O  O41  1  0.29790700  0.49260800  0.26380800  1
  O  O42  1  0.49260800  0.29790700  0.76380800  1
  O  O43  1  0.80529900  0.29790700  0.73619200  1
  O  O44  1  0.50739200  0.70209300  0.23619200  1
  O  O45  1  0.19470100  0.70209300  0.26380800  1
  O  O46  1  0.49260800  0.19470100  0.73619200  1
  O  O47  1  0.50739200  0.80529900  0.26380800  1
  O  O48  1  0.93292500  0.10842000  0.54717300  1
  O  O49  1  0.06707500  0.89158000  0.45282700  1
  O  O50  1  0.89158000  0.82450500  0.54717300  1
  O  O51  1  0.93292500  0.82450500  0.95282700  1
  O  O52  1  0.10842000  0.17549500  0.45282700  1
  O  O53  1  0.06707500  0.17549500  0.04717300  1
  O  O54  1  0.17549500  0.06707500  0.54717300  1
  O  O55  1  0.89158000  0.06707500  0.95282700  1
  O  O56  1  0.82450500  0.93292500  0.45282700  1
  O  O57  1  0.10842000  0.93292500  0.04717300  1
  O  O58  1  0.17549500  0.10842000  0.95282700  1
  O  O59  1  0.82450500  0.89158000  0.04717300  1
  O  O60  1  0.10320900  0.30162400  0.65105900  1
  O  O61  1  0.89679100  0.69837600  0.34894100  1
  O  O62  1  0.69837600  0.80158500  0.65105900  1
  O  O63  1  0.10320900  0.80158500  0.84894100  1
  O  O64  1  0.30162400  0.19841500  0.34894100  1
  O  O65  1  0.89679100  0.19841500  0.15105900  1
  O  O66  1  0.19841500  0.89679100  0.65105900  1
  O  O67  1  0.69837600  0.89679100  0.84894100  1
  O  O68  1  0.80158500  0.10320900  0.34894100  1
  O  O69  1  0.30162400  0.10320900  0.15105900  1
  O  O70  1  0.19841500  0.30162400  0.84894100  1
  O  O71  1  0.80158500  0.69837600  0.15105900  1
  O  O72  1  0.32218600  0.34676400  0.58644500  1
  O  O73  1  0.67781400  0.65323600  0.41355500  1
  O  O74  1  0.65323600  0.97542200  0.58644500  1
  O  O75  1  0.32218600  0.97542200  0.91355500  1
  O  O76  1  0.34676400  0.02457800  0.41355500  1
  O  O77  1  0.67781400  0.02457800  0.08644500  1
  O  O78  1  0.02457800  0.67781400  0.58644500  1
  O  O79  1  0.65323600  0.67781400  0.91355500  1
  O  O80  1  0.97542200  0.32218600  0.41355500  1
  O  O81  1  0.34676400  0.32218600  0.08644500  1
  O  O82  1  0.02457800  0.34676400  0.91355500  1
  O  O83  1  0.97542200  0.65323600  0.08644500  1
loop_
_geom_bond_atom_site_label_1
_geom_bond_atom_site_label_2
_geom_bond_distance
_geom_bond_site_symmetry_2
Fe0 O50 1.842811 1_445
Fe0 O52 1.842811 1_555
Fe0 O56 1.842811 1_445
Fe0 O54 1.842811 1_555
Fe0 O49 1.842811 1_545
Fe0 O48 1.842811 1_455
Fe1 O59 1.842811 1_445
Fe1 O58 1.842811 1_554
Fe1 O51 1.842811 1_444
Fe1 O53 1.842811 1_555
Fe1 O55 1.842811 1_454
Fe1 O57 1.842811 1_545
Fe2 O3 2.021582 1_555
Fe2 O6 2.021582 1_555
Fe2 O10 2.021587 1_555
Fe2 O2 2.021587 1_555
Fe2 O7 2.021591 1_555
Fe2 O0 2.021591 1_555
Fe3 O5 2.021582 1_555
Fe3 O8 2.021582 1_555
Fe3 O11 2.021587 1_555
Fe3 O4 2.021587 1_555
Fe3 O1 2.021591 1_555
Fe3 O9 2.021591 1_555
Fe4 O14 1.784642 1_555
Fe4 O12 1.784643 1_555
Fe4 O18 1.784649 1_555
Fe4 O32 1.943713 1_555
Fe4 O25 1.943719 1_555
Fe4 O28 1.943722 1_555
Fe5 O16 1.784642 1_555
Fe5 O13 1.784643 1_555
Fe5 O20 1.784649 1_555
Fe5 O30 1.943713 1_555
Fe5 O24 1.943719 1_555
Fe5 O26 1.943722 1_555
Fe6 O22 1.784642 1_555
Fe6 O19 1.784643 1_555
Fe6 O15 1.784649 1_555
Fe6 O29 1.943713 1_556
Fe6 O33 1.943719 1_556
Fe6 O35 1.943722 1_556
Fe7 O23 1.784642 1_555
Fe7 O21 1.784643 1_555
Fe7 O17 1.784649 1_555
Fe7 O27 1.943713 1_554
Fe7 O31 1.943719 1_554
Fe7 O34 1.943722 1_554
O0 S0 1.506372 1_555
O1 S1 1.506372 1_555
O2 S2 1.506375 1_555
O3 S3 1.506368 1_555
O4 S4 1.506375 1_555
O5 S5 1.506368 1_555
O6 S6 1.506368 1_555
O7 S7 1.506372 1_555
O8 S8 1.506368 1_555
O9 S9 1.506372 1_555
O10 S10 1.506375 1_555
O11 S11 1.506375 1_555
O24 S0 1.527276 1_555
O25 S1 1.527276 1_555
O26 S2 1.527270 1_555
O27 S3 1.527268 1_555
O28 S4 1.527270 1_555
O29 S5 1.527268 1_555
O30 S6 1.527268 1_555
O31 S7 1.527276 1_555
O32 S8 1.527268 1_555
O33 S9 1.527276 1_555
O34 S10 1.527270 1_555
O35 S11 1.527270 1_555
O36 O43 1.210472 1_555
O37 O45 1.210472 1_555
O38 O39 1.210472 1_555
O40 O41 1.210472 1_555
O42 O46 1.210472 1_555
O44 O47 1.210472 1_555
O60 S0 1.464013 1_555
O61 S1 1.464013 1_555
O62 S2 1.464006 1_555
O63 S3 1.464016 1_555
O64 S4 1.464006 1_555
O65 S5 1.464016 1_555
O66 S6 1.464016 1_555
O67 S7 1.464013 1_555
O68 S8 1.464016 1_555
O69 S9 1.464013 1_555
O70 S10 1.464006 1_555
O71 S11 1.464006 1_555
O72 S0 1.465342 1_555
O73 S1 1.465342 1_555
O74 S2 1.465351 1_555
O75 S3 1.465350 1_555
O76 S4 1.465351 1_555
O77 S5 1.465350 1_555
O78 S6 1.465350 1_555
O79 S7 1.465342 1_555
O80 S8 1.465350 1_555
O81 S9 1.465342 1_555
O82 S10 1.465351 1_555
O83 S11 1.465351 1_555
