# generated using pymatgen
data_Ho3Er3MnBi2
_symmetry_space_group_name_H-M   'P 1'
_cell_length_a   4.26512400
_cell_length_b   8.24005479
_cell_length_c   8.24032352
_cell_angle_alpha   119.99892538
_cell_angle_beta   90.00000000
_cell_angle_gamma   90.00000000
_symmetry_Int_Tables_number   1
_chemical_formula_structural   Ho3Er3MnBi2
_chemical_formula_sum   'Ho3 Er3 Mn1 Bi2'
_cell_volume   250.80798457
_cell_formula_units_Z   1
loop_
 _symmetry_equiv_pos_site_id
 _symmetry_equiv_pos_as_xyz
  1  'x, y, z'
loop_
 _atom_site_type_symbol
 _atom_site_label
 _atom_site_symmetry_multiplicity
 _atom_site_fract_x
 _atom_site_fract_y
 _atom_site_fract_z
 _atom_site_occupancy
  Ho  Ho0  1  0.50000000  0.60525600  0.00000000  1
  Ho  Ho1  1  0.50000000  0.39463000  0.39467500  1
  Ho  Ho2  1  0.50000000  0.99995500  0.60532500  1
  Er  Er0  1  0.00000000  0.23185700  0.00000000  1
  Er  Er1  1  0.00000000  0.76814200  0.76807900  1
  Er  Er2  1  0.00000000  0.00006400  0.23192100  1
  Mn  Mn0  1  0.50000000  0.00009300  0.00000000  1
  Bi  Bi0  1  0.00000000  0.33326700  0.66662900  1
  Bi  Bi1  1  0.00000000  0.66663800  0.33337100  1
loop_
_geom_bond_atom_site_label_1
_geom_bond_atom_site_label_2
_geom_bond_distance
_geom_bond_site_symmetry_2
Ho0 Mn0 3.253479 1_565
Ho1 Mn0 3.251681 1_555
Ho2 Mn0 3.251681 1_566
Er0 Mn0 2.862684 1_555
Er0 Mn0 2.862684 1_455
Er1 Mn0 2.863671 1_566
Er1 Mn0 2.863671 1_466
Er2 Mn0 2.863668 1_555
Er2 Mn0 2.863668 1_455
Bi0 Er2 3.245803 1_555
Bi0 Er0 3.246567 1_556
Bi0 Er1 3.247156 1_555
Bi0 Ho1 3.310378 1_555
Bi0 Ho1 3.310378 1_455
Bi0 Ho2 3.310427 1_545
Bi0 Ho2 3.310427 1_445
Bi0 Ho0 3.310697 1_456
Bi0 Ho0 3.310697 1_556
Bi1 Er1 3.245806 1_555
Bi1 Er0 3.246567 1_555
Bi1 Er2 3.247164 1_565
Bi1 Ho2 3.310378 1_455
Bi1 Ho2 3.310378 1_555
Bi1 Ho1 3.310428 1_555
Bi1 Ho1 3.310428 1_455
Bi1 Ho0 3.310697 1_555
Bi1 Ho0 3.310697 1_455
