# generated using pymatgen
data_K3B3O10
_symmetry_space_group_name_H-M   'P 1'
_cell_length_a   8.48039800
_cell_length_b   8.82888600
_cell_length_c   13.94433200
_cell_angle_alpha   90.00000000
_cell_angle_beta   90.00000000
_cell_angle_gamma   90.00000000
_symmetry_Int_Tables_number   1
_chemical_formula_structural   K3B3O10
_chemical_formula_sum   'K12 B12 O40'
_cell_volume   1044.04653997
_cell_formula_units_Z   4
loop_
 _symmetry_equiv_pos_site_id
 _symmetry_equiv_pos_as_xyz
  1  'x, y, z'
loop_
 _atom_site_type_symbol
 _atom_site_label
 _atom_site_symmetry_multiplicity
 _atom_site_fract_x
 _atom_site_fract_y
 _atom_site_fract_z
 _atom_site_occupancy
  K  K0  1  0.46623500  0.76071900  0.50685600  1
  K  K1  1  0.53376500  0.26071900  0.49314400  1
  K  K2  1  0.03376500  0.26071900  0.00685600  1
  K  K3  1  0.96623500  0.76071900  0.99314400  1
  K  K4  1  0.03105000  0.77018700  0.28788500  1
  K  K5  1  0.96895000  0.27018700  0.71211500  1
  K  K6  1  0.46895000  0.27018700  0.78788500  1
  K  K7  1  0.53105000  0.77018700  0.21211500  1
  K  K8  1  0.00206000  0.72012500  0.70729500  1
  K  K9  1  0.99794000  0.22012500  0.29270500  1
  K  K10  1  0.49794000  0.22012500  0.20729500  1
  K  K11  1  0.50206000  0.72012500  0.79270500  1
  B  B0  1  0.77379800  0.96608700  0.41442700  1
  B  B1  1  0.22620200  0.46608700  0.58557300  1
  B  B2  1  0.72620200  0.46608700  0.91442700  1
  B  B3  1  0.27379800  0.96608700  0.08557300  1
  B  B4  1  0.02758900  0.99761100  0.50434600  1
  B  B5  1  0.97241100  0.49761100  0.49565400  1
  B  B6  1  0.47241100  0.49761100  0.00434600  1
  B  B7  1  0.52758900  0.99761100  0.99565400  1
  B  B8  1  0.26748200  0.02193000  0.40315500  1
  B  B9  1  0.73251800  0.52193000  0.59684500  1
  B  B10  1  0.23251800  0.52193000  0.90315500  1
  B  B11  1  0.76748200  0.02193000  0.09684500  1
  O  O0  1  0.69325300  0.06888300  0.34950500  1
  O  O1  1  0.30674700  0.56888300  0.65049500  1
  O  O2  1  0.80674700  0.56888300  0.84950500  1
  O  O3  1  0.19325300  0.06888300  0.15049500  1
  O  O4  1  0.71533600  0.82579000  0.37401200  1
  O  O5  1  0.28466400  0.32579000  0.62598800  1
  O  O6  1  0.78466400  0.32579000  0.87401200  1
  O  O7  1  0.21533600  0.82579000  0.12598800  1
  O  O8  1  0.69531900  0.98571000  0.50567400  1
  O  O9  1  0.30468100  0.48571000  0.49432600  1
  O  O10  1  0.80468100  0.48571000  0.00567400  1
  O  O11  1  0.19531900  0.98571000  0.99432600  1
  O  O12  1  0.94563800  0.98468800  0.41763100  1
  O  O13  1  0.05436200  0.48468800  0.58236900  1
  O  O14  1  0.55436200  0.48468800  0.91763100  1
  O  O15  1  0.44563800  0.98468800  0.08236900  1
  O  O16  1  0.96100600  0.00131900  0.59188800  1
  O  O17  1  0.03899400  0.50131900  0.40811200  1
  O  O18  1  0.53899400  0.50131900  0.09188800  1
  O  O19  1  0.46100600  0.00131900  0.90811200  1
  O  O20  1  0.19322200  0.00633400  0.49372300  1
  O  O21  1  0.80677800  0.50633400  0.50627700  1
  O  O22  1  0.30677800  0.50633400  0.99372300  1
  O  O23  1  0.69322200  0.00633400  0.00627700  1
  O  O24  1  0.30002300  0.15881000  0.36416100  1
  O  O25  1  0.69997700  0.65881000  0.63583900  1
  O  O26  1  0.19997700  0.65881000  0.86416100  1
  O  O27  1  0.80002300  0.15881000  0.13583900  1
  O  O28  1  0.31747500  0.89896600  0.35436100  1
  O  O29  1  0.68252500  0.39896600  0.64563900  1
  O  O30  1  0.18252500  0.39896600  0.85436100  1
  O  O31  1  0.81747500  0.89896600  0.14563900  1
  O  O32  1  0.29049800  0.96968000  0.71741500  1
  O  O33  1  0.70950200  0.46968000  0.28258500  1
  O  O34  1  0.20950200  0.46968000  0.21741500  1
  O  O35  1  0.79049800  0.96968000  0.78258500  1
  O  O36  1  0.69010400  0.01515700  0.72538700  1
  O  O37  1  0.30989600  0.51515700  0.27461300  1
  O  O38  1  0.80989600  0.51515700  0.22538700  1
  O  O39  1  0.19010400  0.01515700  0.77461300  1
loop_
_geom_bond_atom_site_label_1
_geom_bond_atom_site_label_2
_geom_bond_distance
_geom_bond_site_symmetry_2
K0 O28 2.757359 1_555
K0 O8 2.778545 1_555
K0 O9 2.793356 1_555
K0 O25 2.823765 1_555
K0 O4 2.867764 1_555
K0 O1 2.951226 1_555
K0 O20 3.177481 1_565
K1 O29 2.757359 1_555
K1 O9 2.778545 1_555
K1 O8 2.793356 1_545
K1 O24 2.823765 1_555
K1 O5 2.867764 1_555
K1 O0 2.951226 1_555
K1 O21 3.177481 1_555
K2 O30 2.757359 1_554
K2 O10 2.778545 1_455
K2 O11 2.793356 1_544
K2 O27 2.823765 1_455
K2 O6 2.867764 1_454
K2 O3 2.951226 1_555
K2 O22 3.177481 1_554
K3 O31 2.757359 1_556
K3 O11 2.778545 1_655
K3 O10 2.793356 1_556
K3 O26 2.823765 1_655
K3 O7 2.867764 1_656
K3 O2 2.951226 1_555
K3 O23 3.177481 1_566
K4 O12 2.717431 1_455
K4 O7 2.789249 1_555
K4 O28 2.837605 1_555
K4 O17 2.906904 1_555
K4 O31 2.916768 1_455
K4 O4 2.975184 1_455
K4 O38 3.057244 1_455
K4 O34 3.208580 1_555
K4 O37 3.270476 1_555
K5 O13 2.717431 1_655
K5 O6 2.789249 1_555
K5 O29 2.837605 1_555
K5 O16 2.906904 1_555
K5 O30 2.916768 1_655
K5 O5 2.975184 1_655
K5 O39 3.057244 1_655
K5 O35 3.208580 1_545
K5 O36 3.270476 1_555
K6 O14 2.717431 1_555
K6 O5 2.789249 1_555
K6 O30 2.837605 1_555
K6 O19 2.906904 1_555
K6 O29 2.916768 1_555
K6 O6 2.975184 1_555
K6 O36 3.057244 1_555
K6 O32 3.208580 1_545
K6 O39 3.270476 1_555
K7 O15 2.717431 1_555
K7 O4 2.789249 1_555
K7 O31 2.837605 1_555
K7 O18 2.906904 1_555
K7 O28 2.916768 1_555
K7 O7 2.975184 1_555
K7 O37 3.057244 1_555
K7 O33 3.208580 1_555
K7 O38 3.270476 1_555
K8 O13 2.748108 1_555
K8 O25 2.801538 1_455
K8 O26 2.809771 1_555
K8 O2 2.908408 1_455
K8 O16 2.978997 1_465
K8 O1 3.014418 1_555
K8 O35 3.029129 1_455
K8 O39 3.195184 1_565
K8 O32 3.295097 1_555
K9 O12 2.748108 1_545
K9 O24 2.801538 1_655
K9 O27 2.809771 1_555
K9 O3 2.908408 1_655
K9 O17 2.978997 1_655
K9 O0 3.014418 1_555
K9 O34 3.029129 1_655
K9 O38 3.195184 1_555
K9 O33 3.295097 1_555
K10 O15 2.748108 1_545
K10 O27 2.801538 1_555
K10 O24 2.809771 1_555
K10 O0 2.908408 1_555
K10 O18 2.978997 1_555
K10 O3 3.014418 1_555
K10 O33 3.029129 1_555
K10 O37 3.195184 1_555
K10 O34 3.295097 1_555
K11 O14 2.748108 1_555
K11 O26 2.801538 1_555
K11 O25 2.809771 1_555
K11 O1 2.908408 1_555
K11 O19 2.978997 1_565
K11 O2 3.014418 1_555
K11 O32 3.029129 1_555
K11 O36 3.195184 1_565
K11 O35 3.295097 1_555
B0 O8 1.446339 1_555
B0 O4 1.448341 1_555
B0 O0 1.452519 1_565
B0 O12 1.467176 1_555
B1 O9 1.446339 1_555
B1 O5 1.448341 1_555
B1 O1 1.452519 1_555
B1 O13 1.467176 1_555
B2 O10 1.446339 1_556
B2 O6 1.448341 1_555
B2 O2 1.452519 1_555
B2 O14 1.467176 1_555
B3 O11 1.446339 1_554
B3 O7 1.448341 1_555
B3 O3 1.452519 1_565
B3 O15 1.467176 1_555
B4 O16 1.345380 1_465
B4 O12 1.399333 1_455
B4 O20 1.414521 1_565
B5 O17 1.345380 1_655
B5 O13 1.399333 1_655
B5 O21 1.414521 1_555
B6 O18 1.345380 1_555
B6 O14 1.399333 1_554
B6 O22 1.414521 1_554
B7 O19 1.345380 1_565
B7 O15 1.399333 1_556
B7 O23 1.414521 1_566
B8 O28 1.349552 1_545
B8 O24 1.353618 1_555
B8 O20 1.417918 1_555
B9 O29 1.349552 1_555
B9 O25 1.353618 1_555
B9 O21 1.417918 1_555
B10 O30 1.349552 1_555
B10 O26 1.353618 1_555
B10 O22 1.417918 1_555
B11 O31 1.349552 1_545
B11 O27 1.353618 1_555
B11 O23 1.417918 1_555
O32 O39 1.233778 1_565
O33 O38 1.233778 1_555
O34 O37 1.233778 1_555
O35 O36 1.233778 1_565
