# generated using pymatgen
data_NaH6CSNO3
_symmetry_space_group_name_H-M   'P 1'
_cell_length_a   10.73121108
_cell_length_b   10.73121108
_cell_length_c   10.73121099
_cell_angle_alpha   110.03993146
_cell_angle_beta   110.03993146
_cell_angle_gamma   110.03993448
_symmetry_Int_Tables_number   1
_chemical_formula_structural   NaH6CSNO3
_chemical_formula_sum   'Na6 H36 C6 S6 N6 O18'
_cell_volume   930.74561441
_cell_formula_units_Z   6
loop_
 _symmetry_equiv_pos_site_id
 _symmetry_equiv_pos_as_xyz
  1  'x, y, z'
loop_
 _atom_site_type_symbol
 _atom_site_label
 _atom_site_symmetry_multiplicity
 _atom_site_fract_x
 _atom_site_fract_y
 _atom_site_fract_z
 _atom_site_occupancy
  Na  Na0  1  0.19784700  0.54183800  0.98321200  1
  Na  Na1  1  0.98321200  0.19784700  0.54183800  1
  Na  Na2  1  0.54183800  0.98321200  0.19784700  1
  Na  Na3  1  0.80215300  0.45816200  0.01678800  1
  Na  Na4  1  0.01678800  0.80215300  0.45816200  1
  Na  Na5  1  0.45816200  0.01678800  0.80215300  1
  H  H0  1  0.19308300  0.86170500  0.17647100  1
  H  H1  1  0.17647100  0.19308300  0.86170400  1
  H  H2  1  0.86170400  0.17647100  0.19308300  1
  H  H3  1  0.80691700  0.13829600  0.82352900  1
  H  H4  1  0.82352900  0.80691700  0.13829600  1
  H  H5  1  0.13829600  0.82352900  0.80691700  1
  H  H6  1  0.88864500  0.65251500  0.87094700  1
  H  H7  1  0.87094700  0.88864500  0.65251500  1
  H  H8  1  0.65251500  0.87094700  0.88864500  1
  H  H9  1  0.11135500  0.34748500  0.12905300  1
  H  H10  1  0.12905300  0.11135500  0.34748500  1
  H  H11  1  0.34748500  0.12905300  0.11135500  1
  H  H12  1  0.28837000  0.56463200  0.29819500  1
  H  H13  1  0.29819500  0.28837000  0.56463200  1
  H  H14  1  0.56463200  0.29819500  0.28837000  1
  H  H15  1  0.71163000  0.43536800  0.70180500  1
  H  H16  1  0.70180500  0.71163000  0.43536800  1
  H  H17  1  0.43536800  0.70180500  0.71163000  1
  H  H18  1  0.40774100  0.73905200  0.42301500  1
  H  H19  1  0.42301500  0.40774100  0.73905200  1
  H  H20  1  0.73905200  0.42301500  0.40774100  1
  H  H21  1  0.59225900  0.26094800  0.57698500  1
  H  H22  1  0.57698500  0.59225900  0.26094800  1
  H  H23  1  0.26094800  0.57698500  0.59225900  1
  H  H24  1  0.99409200  0.49153400  0.68454100  1
  H  H25  1  0.68454100  0.99409200  0.49153400  1
  H  H26  1  0.49153400  0.68454100  0.99409200  1
  H  H27  1  0.00590800  0.50846600  0.31545900  1
  H  H28  1  0.31545900  0.00590800  0.50846600  1
  H  H29  1  0.50846600  0.31545900  0.00590800  1
  H  H30  1  0.89897000  0.37562900  0.71721900  1
  H  H31  1  0.71721900  0.89897000  0.37562900  1
  H  H32  1  0.37562900  0.71721900  0.89897000  1
  H  H33  1  0.10103000  0.62437100  0.28278100  1
  H  H34  1  0.28278100  0.10103000  0.62437100  1
  H  H35  1  0.62437100  0.28278100  0.10103000  1
  C  C0  1  0.28080600  0.29196700  0.14673500  1
  C  C1  1  0.14673500  0.28080600  0.29196700  1
  C  C2  1  0.29196700  0.14673500  0.28080600  1
  C  C3  1  0.71919400  0.70803300  0.85326500  1
  C  C4  1  0.85326500  0.71919400  0.70803300  1
  C  C5  1  0.70803300  0.85326500  0.71919400  1
  S  S0  1  0.29927300  0.32437100  0.00744400  1
  S  S1  1  0.00744400  0.29927300  0.32437100  1
  S  S2  1  0.32437100  0.00744400  0.29927300  1
  S  S3  1  0.70072700  0.67562900  0.99255600  1
  S  S4  1  0.99255600  0.70072700  0.67562900  1
  S  S5  1  0.67562900  0.99255600  0.70072700  1
  N  N0  1  0.18677900  0.32814500  0.19785900  1
  N  N1  1  0.19785900  0.18677900  0.32814500  1
  N  N2  1  0.32814500  0.19785900  0.18677900  1
  N  N3  1  0.81322100  0.67185500  0.80214100  1
  N  N4  1  0.80214100  0.81322100  0.67185500  1
  N  N5  1  0.67185500  0.80214100  0.81322100  1
  O  O0  1  0.00847100  0.57067200  0.00088400  1
  O  O1  1  0.00088400  0.00847100  0.57067200  1
  O  O2  1  0.57067200  0.00088400  0.00847100  1
  O  O3  1  0.99152900  0.42932800  0.99911600  1
  O  O4  1  0.99911600  0.99152900  0.42932800  1
  O  O5  1  0.42932800  0.99911600  0.99152900  1
  O  O6  1  0.31390600  0.66980700  0.31949500  1
  O  O7  1  0.31949500  0.31390600  0.66980700  1
  O  O8  1  0.66980700  0.31949500  0.31390600  1
  O  O9  1  0.68609400  0.33019300  0.68050500  1
  O  O10  1  0.68050500  0.68609400  0.33019300  1
  O  O11  1  0.33019300  0.68050500  0.68609400  1
  O  O12  1  0.98516400  0.40306100  0.69782900  1
  O  O13  1  0.69782900  0.98516400  0.40306100  1
  O  O14  1  0.40306100  0.69782900  0.98516400  1
  O  O15  1  0.01483600  0.59693900  0.30217100  1
  O  O16  1  0.30217100  0.01483600  0.59693900  1
  O  O17  1  0.59693900  0.30217100  0.01483600  1
loop_
_geom_bond_atom_site_label_1
_geom_bond_atom_site_label_2
_geom_bond_distance
_geom_bond_site_symmetry_2
Na0 O0 2.217332 1_556
Na0 O3 2.226430 1_455
Na0 O14 2.251700 1_555
Na0 O12 2.561300 1_455
Na0 S0 2.942977 1_556
Na0 O6 2.968334 1_556
Na1 O1 2.217332 1_655
Na1 O4 2.226430 1_545
Na1 O12 2.251700 1_555
Na1 O13 2.561300 1_545
Na1 S1 2.942976 1_655
Na1 O7 2.968334 1_655
Na2 O2 2.217332 1_565
Na2 O5 2.226430 1_554
Na2 O13 2.251700 1_555
Na2 O14 2.561300 1_554
Na2 S2 2.942976 1_565
Na2 O8 2.968334 1_565
Na3 O3 2.217332 1_554
Na3 O0 2.226430 1_655
Na3 O17 2.251700 1_555
Na3 O15 2.561300 1_655
Na3 S3 2.942977 1_554
Na3 O9 2.968334 1_554
Na4 O4 2.217332 1_455
Na4 O1 2.226430 1_565
Na4 O15 2.251700 1_555
Na4 O16 2.561300 1_565
Na4 S4 2.942976 1_455
Na4 O10 2.968334 1_455
Na5 O5 2.217332 1_545
Na5 O2 2.226430 1_556
Na5 O16 2.251700 1_555
Na5 O17 2.561300 1_556
Na5 S5 2.942976 1_545
Na5 O11 2.968334 1_545
H0 S2 1.404442 1_565
H1 S0 1.404447 1_556
H2 S1 1.404447 1_655
H3 S5 1.404447 1_545
H4 S3 1.404447 1_554
H5 S4 1.404447 1_455
H6 N3 1.026618 1_555
H7 N4 1.026618 1_555
H8 N5 1.026618 1_555
H9 N0 1.026618 1_555
H10 N1 1.026618 1_555
H11 N2 1.026618 1_555
H12 O6 0.984630 1_555
H13 O7 0.984630 1_555
H14 O8 0.984630 1_555
H15 O9 0.984630 1_555
H16 O10 0.984630 1_555
H17 O11 0.984630 1_555
H18 O6 0.977249 1_555
H19 O7 0.977249 1_555
H20 O8 0.977249 1_555
H21 O9 0.977249 1_555
H22 O10 0.977249 1_555
H23 O11 0.977249 1_555
H24 O12 0.985253 1_555
H25 O13 0.985253 1_555
H26 O14 0.985253 1_555
H27 O15 0.985253 1_555
H28 O16 0.985253 1_555
H29 O17 0.985253 1_555
H30 O12 0.986301 1_555
H31 O13 0.986301 1_555
H32 O14 0.986301 1_555
H33 O15 0.986301 1_555
H34 O16 0.986301 1_555
H35 O17 0.986301 1_555
C0 N2 1.400724 1_555
C0 N0 1.404184 1_555
C0 S0 1.704852 1_555
C1 N0 1.400724 1_555
C1 N1 1.404184 1_555
C1 S1 1.704852 1_555
C2 N1 1.400724 1_555
C2 N2 1.404184 1_555
C2 S2 1.704852 1_555
C3 N5 1.400724 1_555
C3 N3 1.404184 1_555
C3 S3 1.704852 1_555
C4 N3 1.400724 1_555
C4 N4 1.404184 1_555
C4 S4 1.704852 1_555
C5 N4 1.400724 1_555
C5 N5 1.404184 1_555
C5 S5 1.704852 1_555
O0 O3 1.457049 1_454
O1 O4 1.457049 1_445
O2 O5 1.457049 1_544
