# generated using pymatgen
data_LiPm3
_symmetry_space_group_name_H-M   'P 1'
_cell_length_a   4.99894200
_cell_length_b   4.99894200
_cell_length_c   4.99894200
_cell_angle_alpha   90.00000000
_cell_angle_beta   90.00000000
_cell_angle_gamma   90.00000000
_symmetry_Int_Tables_number   1
_chemical_formula_structural   LiPm3
_chemical_formula_sum   'Li1 Pm3'
_cell_volume   124.92066679
_cell_formula_units_Z   1
loop_
 _symmetry_equiv_pos_site_id
 _symmetry_equiv_pos_as_xyz
  1  'x, y, z'
loop_
 _atom_site_type_symbol
 _atom_site_label
 _atom_site_symmetry_multiplicity
 _atom_site_fract_x
 _atom_site_fract_y
 _atom_site_fract_z
 _atom_site_occupancy
  Li  Li0  1  0.00000000  0.00000000  0.00000000  1
  Pm  Pm0  1  0.50000000  0.50000000  0.00000000  1
  Pm  Pm1  1  0.50000000  0.00000000  0.50000000  1
  Pm  Pm2  1  0.00000000  0.50000000  0.50000000  1
loop_
_geom_bond_atom_site_label_1
_geom_bond_atom_site_label_2
_geom_bond_distance
_geom_bond_site_symmetry_2
Li0 Pm1 3.534786 1_454
Li0 Pm2 3.534786 1_554
Li0 Pm0 3.534786 1_455
Li0 Pm2 3.534786 1_544
Li0 Pm2 3.534786 1_555
Li0 Pm2 3.534786 1_545
Li0 Pm1 3.534786 1_455
Li0 Pm1 3.534786 1_554
Li0 Pm0 3.534786 1_545
Li0 Pm0 3.534786 1_445
Li0 Pm1 3.534786 1_555
Li0 Pm0 3.534786 1_555
Pm0 Pm2 3.534786 1_655
Pm0 Pm1 3.534786 1_564
Pm0 Pm2 3.534786 1_554
Pm0 Pm1 3.534786 1_565
Pm0 Pm2 3.534786 1_654
Pm0 Pm2 3.534786 1_555
Pm0 Pm1 3.534786 1_554
Pm0 Pm1 3.534786 1_555
Pm1 Pm2 3.534786 1_655
Pm1 Pm2 3.534786 1_645
Pm1 Pm2 3.534786 1_555
Pm1 Pm2 3.534786 1_545
