# generated using pymatgen
data_Er6Al3Si
_symmetry_space_group_name_H-M   'P 1'
_cell_length_a   11.09644885
_cell_length_b   11.09644885
_cell_length_c   11.09644885
_cell_angle_alpha   117.85251146
_cell_angle_beta   117.85251146
_cell_angle_gamma   93.76163018
_symmetry_Int_Tables_number   1
_chemical_formula_structural   Er6Al3Si
_chemical_formula_sum   'Er24 Al12 Si4'
_cell_volume   995.17319696
_cell_formula_units_Z   4
loop_
 _symmetry_equiv_pos_site_id
 _symmetry_equiv_pos_as_xyz
  1  'x, y, z'
loop_
 _atom_site_type_symbol
 _atom_site_label
 _atom_site_symmetry_multiplicity
 _atom_site_fract_x
 _atom_site_fract_y
 _atom_site_fract_z
 _atom_site_occupancy
  Er  Er0  1  0.16856900  0.66856900  0.83713800  1
  Er  Er1  1  0.83143100  0.33143100  0.16286200  1
  Er  Er2  1  0.66856900  0.83143100  0.50000000  1
  Er  Er3  1  0.33143100  0.16856900  0.50000000  1
  Er  Er4  1  0.83112600  0.69896900  0.26125700  1
  Er  Er5  1  0.16887400  0.30103100  0.73874300  1
  Er  Er6  1  0.43771200  0.56986900  0.73874300  1
  Er  Er7  1  0.69896900  0.43771200  0.86784300  1
  Er  Er8  1  0.06228800  0.80103100  0.13215700  1
  Er  Er9  1  0.56228800  0.43013100  0.26125700  1
  Er  Er10  1  0.30103100  0.56228800  0.13215700  1
  Er  Er11  1  0.93771200  0.19896900  0.86784300  1
  Er  Er12  1  0.56986900  0.83112600  0.13215700  1
  Er  Er13  1  0.66887400  0.93013100  0.86784300  1
  Er  Er14  1  0.43013100  0.16887400  0.86784300  1
  Er  Er15  1  0.33112600  0.06986900  0.13215700  1
  Er  Er16  1  0.93013100  0.06228800  0.26125700  1
  Er  Er17  1  0.06986900  0.93771200  0.73874300  1
  Er  Er18  1  0.80103100  0.66887400  0.73874300  1
  Er  Er19  1  0.19896900  0.33112600  0.26125700  1
  Er  Er20  1  0.14659000  0.64659000  0.50000000  1
  Er  Er21  1  0.85341000  0.35341000  0.50000000  1
  Er  Er22  1  0.64659000  0.14659000  0.50000000  1
  Er  Er23  1  0.35341000  0.85341000  0.50000000  1
  Al  Al0  1  0.62224900  0.12224900  0.74449900  1
  Al  Al1  1  0.37775100  0.87775100  0.25550100  1
  Al  Al2  1  0.12224900  0.37775100  0.50000000  1
  Al  Al3  1  0.87775100  0.62224900  0.50000000  1
  Al  Al4  1  0.38172700  0.88172700  0.85382800  1
  Al  Al5  1  0.61827300  0.11827300  0.14617200  1
  Al  Al6  1  0.02789800  0.52789800  0.14617200  1
  Al  Al7  1  0.88172700  0.02789800  0.50000000  1
  Al  Al8  1  0.47210200  0.61827300  0.50000000  1
  Al  Al9  1  0.97210200  0.47210200  0.85382800  1
  Al  Al10  1  0.11827300  0.97210200  0.50000000  1
  Al  Al11  1  0.52789800  0.38172700  0.50000000  1
  Si  Si0  1  0.50000000  0.50000000  0.00000000  1
  Si  Si1  1  0.00000000  0.00000000  0.00000000  1
  Si  Si2  1  0.75000000  0.75000000  0.00000000  1
  Si  Si3  1  0.25000000  0.25000000  0.00000000  1
loop_
_geom_bond_atom_site_label_1
_geom_bond_atom_site_label_2
_geom_bond_distance
_geom_bond_site_symmetry_2
Er4 Si2 2.949179 1_555
Er4 Si0 3.127513 1_555
Er5 Si3 2.949179 1_556
Er5 Si0 3.127513 1_556
Er6 Si2 2.949179 1_556
Er6 Si0 3.127513 1_556
Er7 Si2 2.949179 1_556
Er7 Si0 3.127513 1_556
Er8 Si2 2.949179 1_455
Er8 Si1 3.127513 1_565
Er9 Si3 2.949179 1_555
Er9 Si0 3.127513 1_555
Er10 Si3 2.949179 1_555
Er10 Si0 3.127513 1_555
Er11 Si3 2.949179 1_656
Er11 Si1 3.127513 1_656
Er12 Si2 2.949179 1_555
Er12 Si0 3.127513 1_555
Er13 Si2 2.949179 1_556
Er13 Si1 3.127513 1_666
Er14 Si3 2.949179 1_556
Er14 Si0 3.127513 1_556
Er15 Si3 2.949179 1_555
Er15 Si1 3.127513 1_555
Er16 Si2 2.949179 1_545
Er16 Si1 3.127513 1_655
Er17 Si3 2.949179 1_566
Er17 Si1 3.127513 1_566
Er18 Si2 2.949179 1_556
Er18 Si1 3.127513 1_666
Er19 Si3 2.949179 1_555
Er19 Si1 3.127513 1_555
Al0 Er23 2.977660 1_545
Al0 Er22 2.977672 1_555
Al0 Er14 2.982461 1_555
Al0 Er13 2.982461 1_545
Al0 Er7 2.982471 1_555
Al0 Er11 2.982471 1_555
Al0 Er3 3.373216 1_555
Al0 Er2 3.373216 1_545
Al0 Er1 3.388602 1_556
Al1 Er22 2.977660 1_565
Al1 Er23 2.977672 1_555
Al1 Er12 2.982461 1_555
Al1 Er15 2.982461 1_565
Al1 Er10 2.982471 1_555
Al1 Er8 2.982471 1_555
Al1 Er3 3.373216 1_565
Al1 Er2 3.373216 1_555
Al1 Er0 3.388602 1_554
Al2 Er21 2.977661 1_455
Al2 Er20 2.977661 1_555
Al2 Er5 2.982469 1_555
Al2 Er6 2.982469 1_555
Al2 Er19 2.982469 1_555
Al2 Er16 2.982469 1_455
Al2 Er0 3.373211 1_555
Al2 Er1 3.373211 1_455
Al2 Er3 3.388610 1_555
Al3 Er21 2.977661 1_555
Al3 Er20 2.977661 1_655
Al3 Er18 2.982469 1_555
Al3 Er9 2.982469 1_555
Al3 Er17 2.982469 1_655
Al3 Er4 2.982469 1_555
Al3 Er0 3.373211 1_655
Al3 Er1 3.373211 1_555
Al3 Er2 3.388610 1_555
Al4 Al5 2.736108 1_566
Al4 Er20 2.998894 1_555
Al4 Er0 3.109799 1_555
Al4 Er13 3.114424 1_555
Al4 Er14 3.114424 1_565
Al4 Er12 3.156231 1_556
Al4 Er15 3.156231 1_566
Al4 Er6 3.299396 1_555
Al4 Er17 3.299396 1_555
Al4 Er23 3.646137 1_555
Al5 Er21 2.998894 1_555
Al5 Er1 3.109799 1_555
Al5 Er15 3.114424 1_555
Al5 Er12 3.114424 1_545
Al5 Er13 3.156231 1_544
Al5 Er14 3.156231 1_554
Al5 Er16 3.299396 1_555
Al5 Er9 3.299396 1_555
Al5 Er22 3.646137 1_555
Al6 Al9 2.736123 1_454
Al6 Er20 2.998889 1_555
Al6 Er1 3.109784 1_455
Al6 Er8 3.114436 1_555
Al6 Er10 3.114436 1_555
Al6 Er7 3.156226 1_454
Al6 Er11 3.156226 1_454
Al6 Er19 3.299391 1_555
Al6 Er4 3.299391 1_455
Al6 Er23 3.646146 1_555
Al7 Er22 2.998899 1_555
Al7 Er2 3.109792 1_545
Al7 Er16 3.114430 1_555
Al7 Er5 3.114430 1_655
Al7 Er17 3.156222 1_645
Al7 Er4 3.156222 1_545
Al7 Er11 3.299396 1_555
Al7 Er12 3.299396 1_545
Al7 Er21 3.646148 1_555
Al8 Er23 2.998899 1_555
Al8 Er2 3.109792 1_555
Al8 Er6 3.114430 1_555
Al8 Er19 3.114430 1_555
Al8 Er18 3.156222 1_555
Al8 Er9 3.156222 1_555
Al8 Er13 3.299396 1_555
Al8 Er10 3.299396 1_555
Al8 Er20 3.646148 1_555
Al9 Er21 2.998889 1_555
Al9 Er0 3.109784 1_655
Al9 Er7 3.114436 1_555
Al9 Er11 3.114436 1_555
Al9 Er8 3.156226 1_656
Al9 Er10 3.156226 1_656
Al9 Er5 3.299391 1_655
Al9 Er18 3.299391 1_555
Al9 Er22 3.646146 1_555
Al10 Al7 2.736101 1_465
Al10 Er23 2.998899 1_555
Al10 Er3 3.109792 1_565
Al10 Er17 3.114430 1_555
Al10 Er4 3.114430 1_455
Al10 Er5 3.156222 1_565
Al10 Er16 3.156222 1_465
Al10 Er14 3.299396 1_565
Al10 Er8 3.299396 1_555
Al10 Er20 3.646148 1_555
Al11 Al8 2.736101 1_555
Al11 Er22 2.998899 1_555
Al11 Er3 3.109792 1_555
Al11 Er18 3.114430 1_555
Al11 Er9 3.114430 1_555
Al11 Er6 3.156222 1_555
Al11 Er19 3.156222 1_555
Al11 Er7 3.299396 1_555
Al11 Er15 3.299396 1_555
Al11 Er21 3.646148 1_555
