# generated using pymatgen
data_Tb5Si4
_symmetry_space_group_name_H-M   'P 1'
_cell_length_a   7.48899009
_cell_length_b   7.70841404
_cell_length_c   14.64288919
_cell_angle_alpha   90.00000780
_cell_angle_beta   90.00552247
_cell_angle_gamma   89.99549034
_symmetry_Int_Tables_number   1
_chemical_formula_structural   Tb5Si4
_chemical_formula_sum   'Tb20 Si16'
_cell_volume   845.30816143
_cell_formula_units_Z   4
loop_
 _symmetry_equiv_pos_site_id
 _symmetry_equiv_pos_as_xyz
  1  'x, y, z'
loop_
 _atom_site_type_symbol
 _atom_site_label
 _atom_site_symmetry_multiplicity
 _atom_site_fract_x
 _atom_site_fract_y
 _atom_site_fract_z
 _atom_site_occupancy
  Tb  Tb0  1  0.68650594  0.18023193  0.62237047  1
  Tb  Tb1  1  0.18652718  0.31981922  0.87760024  1
  Tb  Tb2  1  0.31347591  0.81980202  0.12235742  1
  Tb  Tb3  1  0.81347121  0.68018651  0.37763645  1
  Tb  Tb4  1  0.31348436  0.81978589  0.37765523  1
  Tb  Tb5  1  0.81346499  0.68017088  0.12237488  1
  Tb  Tb6  1  0.68651223  0.18021377  0.87761655  1
  Tb  Tb7  1  0.18652348  0.31979548  0.62239072  1
  Tb  Tb8  1  0.53332167  0.68358342  0.59953605  1
  Tb  Tb9  1  0.03331795  0.81629806  0.90044607  1
  Tb  Tb10  1  0.46661888  0.31637094  0.09951508  1
  Tb  Tb11  1  0.96671709  0.18370214  0.40050717  1
  Tb  Tb12  1  0.46666724  0.31639104  0.40050449  1
  Tb  Tb13  1  0.96666886  0.18372310  0.09951189  1
  Tb  Tb14  1  0.53337155  0.68361264  0.90044182  1
  Tb  Tb15  1  0.03326855  0.81632436  0.59953182  1
  Tb  Tb16  1  0.85637421  0.51121611  0.74996977  1
  Tb  Tb17  1  0.35636284  0.98881021  0.74996917  1
  Tb  Tb18  1  0.14361814  0.48884230  0.25003000  1
  Tb  Tb19  1  0.64363220  0.01112687  0.25003022  1
  Si  Si0  1  0.64085995  0.97295994  0.45952229  1
  Si  Si1  1  0.14081808  0.52699294  0.04050501  1
  Si  Si2  1  0.35919974  0.02703362  0.95948668  1
  Si  Si3  1  0.85917127  0.47300228  0.54052580  1
  Si  Si4  1  0.35916844  0.02703425  0.54051044  1
  Si  Si5  1  0.85920662  0.47300508  0.95947049  1
  Si  Si6  1  0.64081917  0.97297005  0.04048777  1
  Si  Si7  1  0.14086068  0.52699887  0.45950422  1
  Si  Si8  1  0.48363088  0.39598378  0.75000739  1
  Si  Si9  1  0.98364610  0.10405445  0.75000946  1
  Si  Si10  1  0.51636920  0.60402850  0.24998821  1
  Si  Si11  1  0.01636232  0.89593044  0.24999122  1
  Si  Si12  1  0.74056702  0.87371848  0.74999844  1
  Si  Si13  1  0.24055499  0.62626874  0.74999974  1
  Si  Si14  1  0.25942645  0.12629379  0.24999702  1
  Si  Si15  1  0.75943461  0.37371791  0.25000029  1
loop_
_geom_bond_atom_site_label_1
_geom_bond_atom_site_label_2
_geom_bond_distance
_geom_bond_site_symmetry_2
Si0 Si4 2.455768 1_565
Si0 Tb3 2.863881 1_555
Si0 Tb0 2.890625 1_565
Si0 Tb4 2.973542 1_555
Si0 Tb11 3.056471 1_565
Si0 Tb12 3.075078 1_565
Si0 Tb19 3.081717 1_565
Si0 Tb8 3.135007 1_555
Si1 Si5 2.455328 1_454
Si1 Tb2 2.864106 1_555
Si1 Tb1 2.890971 1_554
Si1 Tb5 2.973469 1_455
Si1 Tb10 3.055284 1_555
Si1 Tb13 3.074072 1_455
Si1 Tb18 3.082182 1_555
Si1 Tb9 3.134783 1_554
Si2 Si6 2.455186 1_546
Si2 Tb1 2.864061 1_555
Si2 Tb2 2.890850 1_546
Si2 Tb6 2.973380 1_555
Si2 Tb9 3.056564 1_545
Si2 Tb14 3.075126 1_545
Si2 Tb17 3.082129 1_545
Si2 Tb10 3.134601 1_556
Si3 Si7 2.455946 1_655
Si3 Tb0 2.863953 1_555
Si3 Tb3 2.890767 1_555
Si3 Tb7 2.973333 1_655
Si3 Tb8 3.055542 1_555
Si3 Tb15 3.074179 1_655
Si3 Tb16 3.081052 1_555
Si3 Tb11 3.134559 1_555
Si4 Tb7 2.863886 1_555
Si4 Tb4 2.890643 1_545
Si4 Tb0 2.973338 1_555
Si4 Tb15 3.056620 1_545
Si4 Tb8 3.075115 1_545
Si4 Tb17 3.081275 1_545
Si4 Tb12 3.134748 1_555
Si5 Tb6 2.864131 1_555
Si5 Tb5 2.890962 1_556
Si5 Tb1 2.973295 1_655
Si5 Tb14 3.055506 1_555
Si5 Tb9 3.074177 1_655
Si5 Tb16 3.081875 1_555
Si5 Tb13 3.134415 1_556
Si6 Tb5 2.864057 1_555
Si6 Tb6 2.890880 1_564
Si6 Tb2 2.973530 1_555
Si6 Tb13 3.056375 1_565
Si6 Tb10 3.075011 1_565
Si6 Tb19 3.082442 1_565
Si6 Tb14 3.134934 1_554
Si7 Tb4 2.863940 1_555
Si7 Tb7 2.890782 1_555
Si7 Tb3 2.973521 1_455
Si7 Tb12 3.055350 1_555
Si7 Tb11 3.074121 1_455
Si7 Tb18 3.081449 1_555
Si7 Tb15 3.134873 1_555
Si8 Tb6 2.926685 1_555
Si8 Tb0 2.927027 1_555
Si8 Tb16 2.929455 1_555
Si8 Tb1 2.964289 1_555
Si8 Tb7 2.964295 1_555
Si8 Tb14 3.147514 1_555
Si8 Tb8 3.147740 1_555
Si8 Tb17 3.280258 1_545
Si9 Tb1 2.926625 1_655
Si9 Tb7 2.926955 1_655
Si9 Tb17 2.929160 1_645
Si9 Tb6 2.964512 1_555
Si9 Tb0 2.964599 1_555
Si9 Tb9 3.148127 1_645
Si9 Tb15 3.148411 1_645
Si9 Tb16 3.280035 1_555
Si10 Si15 2.542603 1_555
Si10 Tb2 2.926949 1_555
Si10 Tb4 2.927371 1_555
Si10 Tb18 2.929402 1_555
Si10 Tb5 2.964399 1_555
Si10 Tb3 2.964510 1_555
Si10 Tb10 3.148075 1_555
Si10 Tb12 3.148416 1_555
Si10 Tb19 3.279692 1_565
Si11 Si14 2.543080 1_565
Si11 Tb5 2.926904 1_455
Si11 Tb3 2.927269 1_455
Si11 Tb19 2.929143 1_465
Si11 Tb2 2.964598 1_555
Si11 Tb4 2.964678 1_555
Si11 Tb13 3.148781 1_465
Si11 Tb11 3.149050 1_465
Si11 Tb18 3.279457 1_555
Si12 Si9 2.543013 1_565
Si12 Tb16 2.925749 1_555
Si12 Tb17 3.010903 1_555
Si12 Tb6 3.039366 1_565
Si12 Tb0 3.039522 1_565
Si12 Tb14 3.067420 1_555
Si12 Tb8 3.067701 1_555
Si12 Tb9 3.139210 1_655
Si12 Tb15 3.139415 1_655
Si13 Si8 2.542521 1_555
Si13 Tb17 2.926169 1_555
Si13 Tb16 3.010781 1_455
Si13 Tb1 3.038956 1_555
Si13 Tb7 3.039130 1_555
Si13 Tb9 3.067210 1_555
Si13 Tb15 3.067506 1_555
Si13 Tb14 3.139462 1_555
Si13 Tb8 3.139688 1_555
Si14 Tb18 2.926091 1_555
Si14 Tb19 3.011086 1_555
Si14 Tb2 3.039533 1_545
Si14 Tb4 3.039758 1_545
Si14 Tb10 3.067708 1_555
Si14 Tb12 3.068019 1_555
Si14 Tb13 3.139640 1_455
Si14 Tb11 3.139919 1_455
Si15 Tb19 2.926521 1_555
Si15 Tb18 3.010963 1_655
Si15 Tb5 3.039204 1_555
Si15 Tb3 3.039352 1_555
Si15 Tb13 3.067515 1_555
Si15 Tb11 3.067754 1_555
Si15 Tb10 3.139904 1_555
Si15 Tb12 3.140121 1_555
