# generated using pymatgen
data_Sr2YCoCu2O7
_symmetry_space_group_name_H-M   'P 1'
_cell_length_a   5.42265286
_cell_length_b   5.50628881
_cell_length_c   12.18758762
_cell_angle_alpha   103.09478138
_cell_angle_beta   102.92100577
_cell_angle_gamma   90.06493003
_symmetry_Int_Tables_number   1
_chemical_formula_structural   Sr2YCoCu2O7
_chemical_formula_sum   'Sr4 Y2 Co2 Cu4 O14'
_cell_volume   344.95336542
_cell_formula_units_Z   2
loop_
 _symmetry_equiv_pos_site_id
 _symmetry_equiv_pos_as_xyz
  1  'x, y, z'
loop_
 _atom_site_type_symbol
 _atom_site_label
 _atom_site_symmetry_multiplicity
 _atom_site_fract_x
 _atom_site_fract_y
 _atom_site_fract_z
 _atom_site_occupancy
  Sr  Sr0  1  0.14981800  0.16230400  0.30519600  1
  Sr  Sr1  1  0.34400900  0.35991200  0.69506200  1
  Sr  Sr2  1  0.64861900  0.64259200  0.30526600  1
  Sr  Sr3  1  0.84619700  0.83984900  0.69454100  1
  Y  Y0  1  0.99620500  0.99764800  0.99990900  1
  Y  Y1  1  0.49669800  0.49815600  0.00014200  1
  Co  Co0  1  0.22031400  0.81153400  0.50108700  1
  Co  Co1  1  0.71818400  0.19295700  0.49888800  1
  Cu  Cu0  1  0.07168900  0.57172600  0.14752200  1
  Cu  Cu1  1  0.42415400  0.92433400  0.84990700  1
  Cu  Cu2  1  0.57235000  0.07273100  0.14886000  1
  Cu  Cu3  1  0.92559500  0.42622000  0.85355900  1
  O  O0  1  0.18671100  0.18985100  0.86905100  1
  O  O1  1  0.18113700  0.69267600  0.87781900  1
  O  O2  1  0.20524600  0.63173700  0.35415700  1
  O  O3  1  0.34504800  0.78827800  0.65052600  1
  O  O4  1  0.36158500  0.13714800  0.50050200  1
  O  O5  1  0.30260700  0.30232100  0.12122000  1
  O  O6  1  0.31837500  0.80839800  0.13016300  1
  O  O7  1  0.69091200  0.18124300  0.87060900  1
  O  O8  1  0.68299700  0.67996200  0.87743300  1
  O  O9  1  0.69309400  0.21589600  0.34953600  1
  O  O10  1  0.84821200  0.37102100  0.64640200  1
  O  O11  1  0.86263400  0.86794500  0.49921100  1
  O  O12  1  0.80372100  0.31565400  0.12338400  1
  O  O13  1  0.81789000  0.81790600  0.13004800  1
loop_
_geom_bond_atom_site_label_1
_geom_bond_atom_site_label_2
_geom_bond_distance
_geom_bond_site_symmetry_2
Co0 O2 1.823336 1_555
Co0 O3 1.829204 1_555
Co0 O4 1.951052 1_565
Co0 O11 1.960537 1_455
Co1 O10 1.823046 1_555
Co1 O9 1.827896 1_555
Co1 O11 1.954807 1_545
Co1 O4 1.962771 1_555
Cu0 O6 1.944226 1_555
Cu0 O13 1.944454 1_455
Cu0 O12 1.949969 1_455
Cu0 O5 1.959470 1_555
Cu0 O2 2.404716 1_555
Cu1 O7 1.956444 1_565
Cu1 O0 1.958011 1_565
Cu1 O1 1.967917 1_555
Cu1 O8 1.972693 1_555
Cu1 O3 2.314788 1_555
Cu2 O6 1.942148 1_545
Cu2 O13 1.946584 1_545
Cu2 O12 1.954053 1_555
Cu2 O5 1.956529 1_555
Cu2 O9 2.332574 1_555
Cu3 O7 1.929678 1_555
Cu3 O0 1.931437 1_655
Cu3 O8 1.938687 1_555
Cu3 O1 1.943155 1_655
Cu3 O10 2.412674 1_555
O0 Y1 2.413210 1_556
O0 Y0 2.495979 1_445
O0 Sr1 2.794243 1_555
O0 Sr3 2.832930 1_445
O1 Y0 2.361902 1_455
O1 Y1 2.425846 1_556
O1 Sr3 2.820322 1_455
O1 Sr1 2.851780 1_555
O2 Sr0 2.519305 1_555
O2 Sr2 2.606833 1_555
O2 Sr2 2.946446 1_455
O2 Sr0 3.113361 1_565
O3 Sr1 2.537638 1_555
O3 Sr3 2.651565 1_555
O3 Sr3 2.875347 1_455
O3 Sr1 3.070697 1_565
O4 Sr1 2.433045 1_555
O4 Sr0 2.435381 1_555
O5 Y0 2.352049 1_444
O5 Y1 2.420966 1_555
O5 Sr0 2.814443 1_555
O5 Sr2 2.875394 1_555
O6 Y1 2.413873 1_555
O6 Y0 2.484248 1_454
O6 Sr2 2.787871 1_555
O6 Sr0 2.859361 1_565
O7 Y0 2.409339 1_545
O7 Y1 2.479094 1_556
O7 Sr3 2.798440 1_545
O7 Sr1 2.870893 1_555
O8 Y1 2.368775 1_556
O8 Y0 2.418473 1_555
O8 Sr1 2.795621 1_555
O8 Sr3 2.880344 1_555
O9 Sr2 2.527247 1_555
O9 Sr0 2.653464 1_655
O9 Sr0 2.876075 1_555
O9 Sr2 3.079420 1_545
O10 Sr3 2.514982 1_555
O10 Sr1 2.624391 1_655
O10 Sr1 2.927806 1_555
O10 Sr3 3.111118 1_545
O11 Sr2 2.432006 1_555
O11 Sr3 2.441492 1_555
O12 Y1 2.367938 1_555
O12 Y0 2.435729 1_544
O12 Sr2 2.809081 1_555
O12 Sr0 2.852513 1_655
O13 Y0 2.413535 1_554
O13 Y1 2.477255 1_555
O13 Sr0 2.798622 1_665
O13 Sr2 2.853662 1_555
