# generated using pymatgen
data_Ba2NF
_symmetry_space_group_name_H-M   'P 1'
_cell_length_a   4.10819600
_cell_length_b   4.10819600
_cell_length_c   5.59875700
_cell_angle_alpha   90.00000000
_cell_angle_beta   90.00000000
_cell_angle_gamma   90.00000000
_symmetry_Int_Tables_number   1
_chemical_formula_structural   Ba2NF
_chemical_formula_sum   'Ba2 N1 F1'
_cell_volume   94.49175804
_cell_formula_units_Z   1
loop_
 _symmetry_equiv_pos_site_id
 _symmetry_equiv_pos_as_xyz
  1  'x, y, z'
loop_
 _atom_site_type_symbol
 _atom_site_label
 _atom_site_symmetry_multiplicity
 _atom_site_fract_x
 _atom_site_fract_y
 _atom_site_fract_z
 _atom_site_occupancy
  Ba  Ba0  1  0.00000000  0.00000000  0.00000000  1
  Ba  Ba1  1  0.50000000  0.50000000  0.50000000  1
  N  N0  1  0.00000000  0.00000000  0.50000000  1
  F  F0  1  0.50000000  0.50000000  0.00000000  1
loop_
_geom_bond_atom_site_label_1
_geom_bond_atom_site_label_2
_geom_bond_distance
_geom_bond_site_symmetry_2
Ba0 N0 2.799378 1_555
Ba0 N0 2.799378 1_554
Ba0 F0 2.904933 1_545
Ba0 F0 2.904933 1_445
Ba0 F0 2.904933 1_555
Ba0 F0 2.904933 1_455
Ba1 F0 2.799378 1_555
Ba1 F0 2.799378 1_556
Ba1 N0 2.904933 1_565
Ba1 N0 2.904933 1_655
Ba1 N0 2.904933 1_555
Ba1 N0 2.904933 1_665
