# generated using pymatgen
data_Te2MoWSeS
_symmetry_space_group_name_H-M   'P 1'
_cell_length_a   3.39572019
_cell_length_b   3.39572019
_cell_length_c   38.83733500
_cell_angle_alpha   90.00000000
_cell_angle_beta   90.00000000
_cell_angle_gamma   120.00000364
_symmetry_Int_Tables_number   1
_chemical_formula_structural   Te2MoWSeS
_chemical_formula_sum   'Te4 Mo2 W2 Se2 S2'
_cell_volume   387.83216966
_cell_formula_units_Z   2
loop_
 _symmetry_equiv_pos_site_id
 _symmetry_equiv_pos_as_xyz
  1  'x, y, z'
loop_
 _atom_site_type_symbol
 _atom_site_label
 _atom_site_symmetry_multiplicity
 _atom_site_fract_x
 _atom_site_fract_y
 _atom_site_fract_z
 _atom_site_occupancy
  Te  Te0  1  0.00000000  0.00000000  0.33011000  1
  Te  Te1  1  0.00000000  0.00000000  0.70610000  1
  Te  Te2  1  0.00000000  0.00000000  0.23346700  1
  Te  Te3  1  0.00000000  0.00000000  0.60898700  1
  Mo  Mo0  1  0.00000000  0.00000000  0.46964300  1
  Mo  Mo1  1  0.33333300  0.66666700  0.28176100  1
  W  W0  1  0.00000000  0.00000000  0.09391300  1
  W  W1  1  0.33333300  0.66666700  0.65754700  1
  Se  Se0  1  0.33333300  0.66666700  0.42715500  1
  Se  Se1  1  0.33333300  0.66666700  0.51219800  1
  S  S0  1  0.33333300  0.66666700  0.05511300  1
  S  S1  1  0.33333300  0.66666700  0.13275500  1
loop_
_geom_bond_atom_site_label_1
_geom_bond_atom_site_label_2
_geom_bond_distance
_geom_bond_site_symmetry_2
Te1 W1 2.720180 1_545
Te1 W1 2.720182 1_445
Te1 W1 2.720182 1_555
Te3 W1 2.720368 1_545
Te3 W1 2.720370 1_445
Te3 W1 2.720370 1_555
Mo0 Se0 2.562524 1_545
Mo0 Se0 2.562526 1_555
Mo0 Se0 2.562526 1_445
Mo0 Se1 2.564200 1_545
Mo0 Se1 2.564203 1_445
Mo0 Se1 2.564203 1_555
Mo1 Te2 2.713217 1_565
Mo1 Te2 2.713219 1_665
Mo1 Te2 2.713219 1_555
Mo1 Te0 2.714694 1_565
Mo1 Te0 2.714696 1_665
Mo1 Te0 2.714696 1_555
S0 W0 2.472720 1_565
S0 W0 2.472722 1_665
S0 W0 2.472722 1_555
S1 W0 2.473714 1_565
S1 W0 2.473717 1_665
S1 W0 2.473717 1_555
