# generated using pymatgen
data_Na3Mn2P2(CO7)2
_symmetry_space_group_name_H-M   'P 1'
_cell_length_a   6.59112000
_cell_length_b   10.29913414
_cell_length_c   10.40371480
_cell_angle_alpha   118.72291773
_cell_angle_beta   89.57862056
_cell_angle_gamma   91.30470826
_symmetry_Int_Tables_number   1
_chemical_formula_structural   Na3Mn2P2(CO7)2
_chemical_formula_sum   'Na6 Mn4 P4 C4 O28'
_cell_volume   619.16862767
_cell_formula_units_Z   2
loop_
 _symmetry_equiv_pos_site_id
 _symmetry_equiv_pos_as_xyz
  1  'x, y, z'
loop_
 _atom_site_type_symbol
 _atom_site_label
 _atom_site_symmetry_multiplicity
 _atom_site_fract_x
 _atom_site_fract_y
 _atom_site_fract_z
 _atom_site_occupancy
  Na  Na0  1  0.99509000  0.76162800  0.01067400  1
  Na  Na1  1  0.51501100  0.76160000  0.00653700  1
  Na  Na2  1  0.97075800  0.75806300  0.50845800  1
  Na  Na3  1  0.48498900  0.23840000  0.99346300  1
  Na  Na4  1  0.00491000  0.23837200  0.98932600  1
  Na  Na5  1  0.02924200  0.24193700  0.49154200  1
  Mn  Mn0  1  0.25536500  0.65109200  0.18717600  1
  Mn  Mn1  1  0.25954300  0.65131200  0.67869700  1
  Mn  Mn2  1  0.74463500  0.34890800  0.81282400  1
  Mn  Mn3  1  0.74045700  0.34868800  0.32130300  1
  P  P0  1  0.75193800  0.57050500  0.17789300  1
  P  P1  1  0.75475600  0.57617900  0.68139300  1
  P  P2  1  0.24806200  0.42949500  0.82210700  1
  P  P3  1  0.24524400  0.42382100  0.31860700  1
  C  C0  1  0.25226700  0.91994600  0.34764400  1
  C  C1  1  0.24868000  0.92000400  0.84347900  1
  C  C2  1  0.74773300  0.08005400  0.65235600  1
  C  C3  1  0.75132000  0.07999600  0.15652100  1
  O  O0  1  0.75457900  0.94474900  0.57416400  1
  O  O1  1  0.76001700  0.94338300  0.07436000  1
  O  O2  1  0.26335500  0.85211700  0.20146400  1
  O  O3  1  0.25143500  0.85506900  0.70028000  1
  O  O4  1  0.24726200  0.82105700  0.39398800  1
  O  O5  1  0.25619700  0.82246500  0.89197900  1
  O  O6  1  0.93987000  0.66833500  0.18788800  1
  O  O7  1  0.56661000  0.66238100  0.18361600  1
  O  O8  1  0.94199000  0.67566700  0.69563800  1
  O  O9  1  0.56684400  0.66957900  0.70063500  1
  O  O10  1  0.76028800  0.54006600  0.81295700  1
  O  O11  1  0.24915400  0.57971200  0.96730900  1
  O  O12  1  0.75770500  0.53425900  0.30743600  1
  O  O13  1  0.24178500  0.57149500  0.46371100  1
  O  O14  1  0.75084600  0.42028800  0.03269100  1
  O  O15  1  0.23971200  0.45993400  0.18704300  1
  O  O16  1  0.75821500  0.42850500  0.53628900  1
  O  O17  1  0.24229500  0.46574100  0.69256400  1
  O  O18  1  0.43339000  0.33761900  0.81638400  1
  O  O19  1  0.06013000  0.33166500  0.81211200  1
  O  O20  1  0.43315600  0.33042100  0.29936500  1
  O  O21  1  0.05801000  0.32433300  0.30436200  1
  O  O22  1  0.75273800  0.17894300  0.60601200  1
  O  O23  1  0.74380300  0.17753500  0.10802100  1
  O  O24  1  0.73664500  0.14788300  0.79853600  1
  O  O25  1  0.74856500  0.14493100  0.29972000  1
  O  O26  1  0.24542100  0.05525100  0.42583600  1
  O  O27  1  0.23998300  0.05661700  0.92564000  1
loop_
_geom_bond_atom_site_label_1
_geom_bond_atom_site_label_2
_geom_bond_distance
_geom_bond_site_symmetry_2
Na0 O1 2.295341 1_555
Na0 O5 2.354271 1_654
Na0 O11 2.416057 1_654
Na0 O6 2.476228 1_555
Na0 O2 2.476584 1_655
Na0 O10 2.684750 1_554
Na1 O1 2.284773 1_555
Na1 O5 2.349488 1_554
Na1 O11 2.423330 1_554
Na1 O2 2.436560 1_555
Na1 O7 2.527518 1_555
Na1 O10 2.752972 1_554
Na1 O9 2.871077 1_554
Na2 O0 2.245323 1_555
Na2 O4 2.411940 1_655
Na2 O8 2.474655 1_555
Na2 O13 2.526713 1_655
Na2 O3 2.541064 1_655
Na2 O12 2.630827 1_555
Na3 O27 2.284773 1_555
Na3 O23 2.349488 1_556
Na3 O14 2.423330 1_556
Na3 O24 2.436560 1_555
Na3 O18 2.527518 1_555
Na3 O15 2.752972 1_556
Na3 O20 2.871077 1_556
Na4 O27 2.295341 1_555
Na4 O23 2.354271 1_456
Na4 O14 2.416057 1_456
Na4 O19 2.476228 1_555
Na4 O24 2.476584 1_455
Na4 O15 2.684750 1_556
Na5 O26 2.245323 1_555
Na5 O22 2.411940 1_455
Na5 O21 2.474655 1_555
Na5 O16 2.526713 1_455
Na5 O25 2.541064 1_455
Na5 O17 2.630827 1_555
Mn0 O15 1.968452 1_555
Mn0 O2 2.002674 1_555
Mn0 O4 2.019661 1_555
Mn0 O11 2.039168 1_554
Mn0 O7 2.053171 1_555
Mn0 O6 2.090716 1_455
Mn1 O13 1.980996 1_555
Mn1 O17 1.985291 1_555
Mn1 O3 2.002272 1_555
Mn1 O9 2.034242 1_555
Mn1 O5 2.067118 1_555
Mn1 O8 2.109679 1_455
Mn2 O10 1.968452 1_555
Mn2 O24 2.002674 1_555
Mn2 O22 2.019661 1_555
Mn2 O14 2.039168 1_556
Mn2 O18 2.053171 1_555
Mn2 O19 2.090716 1_655
Mn3 O16 1.980996 1_555
Mn3 O12 1.985291 1_555
Mn3 O25 2.002272 1_555
Mn3 O20 2.034242 1_555
Mn3 O23 2.067118 1_555
Mn3 O21 2.109679 1_655
C0 O26 1.232258 1_565
C0 O4 1.319490 1_555
C0 O2 1.336334 1_555
C1 O27 1.249231 1_565
C1 O3 1.307525 1_555
C1 O5 1.325155 1_555
C2 O0 1.232258 1_545
C2 O22 1.319490 1_555
C2 O24 1.336334 1_555
C3 O1 1.249231 1_545
C3 O25 1.307525 1_555
C3 O23 1.325155 1_555
O6 P0 1.550707 1_555
O7 P0 1.545460 1_555
O8 P1 1.547244 1_555
O9 P1 1.537833 1_555
O10 P1 1.582343 1_555
O11 P2 1.558510 1_555
O12 P0 1.562733 1_555
O13 P3 1.544968 1_555
O14 P0 1.558510 1_555
O15 P3 1.582343 1_555
O16 P1 1.544968 1_555
O17 P2 1.562733 1_555
O18 P2 1.545460 1_555
O19 P2 1.550707 1_555
O20 P3 1.537833 1_555
O21 P3 1.547244 1_555
