# generated using pymatgen
data_Mg6TiNi
_symmetry_space_group_name_H-M   'P 1'
_cell_length_a   4.82207700
_cell_length_b   5.90992800
_cell_length_c   10.98933400
_cell_angle_alpha   90.00000000
_cell_angle_beta   90.00000000
_cell_angle_gamma   90.00000000
_symmetry_Int_Tables_number   1
_chemical_formula_structural   Mg6TiNi
_chemical_formula_sum   'Mg12 Ti2 Ni2'
_cell_volume   313.17544565
_cell_formula_units_Z   2
loop_
 _symmetry_equiv_pos_site_id
 _symmetry_equiv_pos_as_xyz
  1  'x, y, z'
loop_
 _atom_site_type_symbol
 _atom_site_label
 _atom_site_symmetry_multiplicity
 _atom_site_fract_x
 _atom_site_fract_y
 _atom_site_fract_z
 _atom_site_occupancy
  Mg  Mg0  1  0.00000000  0.25335800  0.42611300  1
  Mg  Mg1  1  0.00000000  0.74664200  0.42611300  1
  Mg  Mg2  1  0.50000000  0.75265100  0.08504900  1
  Mg  Mg3  1  0.50000000  0.24734900  0.08504900  1
  Mg  Mg4  1  0.50000000  0.00000000  0.31132600  1
  Mg  Mg5  1  0.50000000  0.50000000  0.32805000  1
  Mg  Mg6  1  0.00000000  0.75335800  0.92611300  1
  Mg  Mg7  1  0.00000000  0.24664200  0.92611300  1
  Mg  Mg8  1  0.50000000  0.25265100  0.58504900  1
  Mg  Mg9  1  0.50000000  0.74734900  0.58504900  1
  Mg  Mg10  1  0.50000000  0.50000000  0.81132600  1
  Mg  Mg11  1  0.50000000  0.00000000  0.82805000  1
  Ti  Ti0  1  0.00000000  0.50000000  0.17793600  1
  Ti  Ti1  1  0.00000000  0.00000000  0.67793600  1
  Ni  Ni0  1  0.00000000  0.00000000  0.16036100  1
  Ni  Ni1  1  0.00000000  0.50000000  0.66036100  1
loop_
_geom_bond_atom_site_label_1
_geom_bond_atom_site_label_2
_geom_bond_distance
_geom_bond_site_symmetry_2
Mg0 Mg1 2.915273 1_555
Mg0 Ni1 2.958270 1_555
Mg0 Mg8 2.977203 1_455
Mg0 Mg8 2.977203 1_555
Mg0 Mg1 2.994655 1_545
Mg0 Mg5 3.016477 1_455
Mg0 Mg5 3.016477 1_555
Mg0 Ti0 3.092389 1_555
Mg0 Mg4 3.105851 1_555
Mg0 Mg4 3.105851 1_455
Mg0 Ti1 3.146476 1_555
Mg0 Ni0 3.281912 1_555
Mg1 Ni1 2.958270 1_555
Mg1 Mg9 2.977203 1_555
Mg1 Mg9 2.977203 1_455
Mg1 Mg5 3.016477 1_455
Mg1 Mg5 3.016477 1_555
Mg1 Ti0 3.092389 1_555
Mg1 Mg4 3.105851 1_465
Mg1 Mg4 3.105851 1_565
Mg1 Ti1 3.146476 1_565
Mg1 Ni0 3.281912 1_565
Mg2 Mg4 2.884484 1_565
Mg2 Mg3 2.923630 1_565
Mg2 Ni0 2.938533 1_665
Mg2 Ni0 2.938533 1_565
Mg2 Mg6 2.977203 1_654
Mg2 Mg6 2.977203 1_554
Mg2 Mg3 2.986298 1_555
Mg2 Ti0 3.014061 1_655
Mg2 Ti0 3.014061 1_555
Mg2 Mg5 3.059515 1_555
Mg3 Mg4 2.884484 1_555
Mg3 Ni0 2.938533 1_655
Mg3 Ni0 2.938533 1_555
Mg3 Mg7 2.977203 1_654
Mg3 Mg7 2.977203 1_554
Mg3 Ti0 3.014061 1_555
Mg3 Ti0 3.014061 1_655
Mg3 Mg5 3.059515 1_555
Mg4 Ni0 2.926671 1_655
Mg4 Ni0 2.926671 1_555
Mg4 Mg5 2.960674 1_555
Mg4 Mg5 2.960674 1_545
Mg4 Mg8 3.358238 1_555
Mg4 Mg9 3.358238 1_545
Mg5 Ti0 2.921380 1_655
Mg5 Ti0 2.921380 1_555
Mg5 Mg9 3.180138 1_555
Mg5 Mg8 3.180138 1_555
Mg6 Mg7 2.915273 1_565
Mg6 Ni0 2.958270 1_566
Mg6 Mg7 2.994655 1_555
Mg6 Ti1 3.092389 1_565
Mg6 Ti0 3.146476 1_556
Mg6 Ni1 3.281912 1_555
Mg7 Ni0 2.958270 1_556
Mg7 Ti1 3.092389 1_555
Mg7 Ti0 3.146476 1_556
Mg7 Ni1 3.281912 1_555
Mg8 Mg9 2.923630 1_555
Mg8 Ni1 2.938533 1_655
Mg8 Ni1 2.938533 1_555
Mg8 Mg9 2.986298 1_545
Mg8 Ti1 3.014061 1_655
Mg8 Ti1 3.014061 1_555
Mg9 Ni1 2.938533 1_555
Mg9 Ni1 2.938533 1_655
Mg9 Ti1 3.014061 1_565
Mg9 Ti1 3.014061 1_665
Mg10 Mg9 2.884484 1_555
Mg10 Mg8 2.884484 1_555
Mg10 Ni1 2.926671 1_655
Mg10 Ni1 2.926671 1_555
Mg10 Mg11 2.960674 1_555
Mg10 Mg11 2.960674 1_565
Mg10 Mg6 3.105851 1_555
Mg10 Mg7 3.105851 1_555
Mg10 Mg6 3.105851 1_655
Mg10 Mg7 3.105851 1_655
Mg10 Mg2 3.358238 1_556
Mg10 Mg3 3.358238 1_556
Mg11 Ti1 2.921380 1_555
Mg11 Ti1 2.921380 1_655
Mg11 Mg7 3.016477 1_555
Mg11 Mg7 3.016477 1_655
Mg11 Mg6 3.016477 1_645
Mg11 Mg6 3.016477 1_545
Mg11 Mg8 3.059515 1_555
Mg11 Mg9 3.059515 1_545
Mg11 Mg3 3.180138 1_556
Mg11 Mg2 3.180138 1_546
Ni0 Ti0 2.961269 1_545
Ni0 Ti0 2.961269 1_555
Ni1 Ti1 2.961269 1_555
Ni1 Ti1 2.961269 1_565
