# generated using pymatgen
data_Fe2W4S2O9
_symmetry_space_group_name_H-M   'P 1'
_cell_length_a   8.52796058
_cell_length_b   6.45639153
_cell_length_c   10.80342850
_cell_angle_alpha   82.75839887
_cell_angle_beta   106.10055314
_cell_angle_gamma   87.04992358
_symmetry_Int_Tables_number   1
_chemical_formula_structural   Fe2W4S2O9
_chemical_formula_sum   'Fe4 W8 S4 O18'
_cell_volume   564.60950634
_cell_formula_units_Z   2
loop_
 _symmetry_equiv_pos_site_id
 _symmetry_equiv_pos_as_xyz
  1  'x, y, z'
loop_
 _atom_site_type_symbol
 _atom_site_label
 _atom_site_symmetry_multiplicity
 _atom_site_fract_x
 _atom_site_fract_y
 _atom_site_fract_z
 _atom_site_occupancy
  Fe  Fe0  1  0.29816800  0.13659300  0.23570500  1
  Fe  Fe1  1  0.70183200  0.86340700  0.76429500  1
  Fe  Fe2  1  0.66070500  0.09400300  0.46431200  1
  Fe  Fe3  1  0.33929500  0.90599700  0.53568800  1
  W  W0  1  0.28375100  0.82585300  0.04452400  1
  W  W1  1  0.71624900  0.17414700  0.95547600  1
  W  W2  1  0.08203800  0.28453300  0.98349700  1
  W  W3  1  0.91796200  0.71546700  0.01650300  1
  W  W4  1  0.44083800  0.36571600  0.60308500  1
  W  W5  1  0.55916200  0.63428400  0.39691500  1
  W  W6  1  0.16943900  0.51809900  0.30657500  1
  W  W7  1  0.83056100  0.48190100  0.69342500  1
  S  S0  1  0.60027500  0.41330400  0.17848700  1
  S  S1  1  0.39972500  0.58669600  0.82151300  1
  S  S2  1  0.04259400  0.11658300  0.66857300  1
  S  S3  1  0.95740600  0.88341700  0.33142700  1
  O  O0  1  0.56208100  0.05956600  0.61543700  1
  O  O1  1  0.43791900  0.94043400  0.38456200  1
  O  O2  1  0.19199200  0.10576200  0.62339400  1
  O  O3  1  0.80800800  0.89423800  0.37660600  1
  O  O4  1  0.53596200  0.64194000  0.15772200  1
  O  O5  1  0.46403800  0.35806000  0.84227800  1
  O  O6  1  0.92759000  0.73351700  0.22714700  1
  O  O7  1  0.07241000  0.26648300  0.77285300  1
  O  O8  1  0.10160200  0.76257300  0.43579100  1
  O  O9  1  0.89839800  0.23742700  0.56420900  1
  O  O10  1  0.67772000  0.36436800  0.32584100  1
  O  O11  1  0.32228000  0.63563200  0.67415900  1
  O  O12  1  0.47088000  0.27357000  0.13712800  1
  O  O13  1  0.52912000  0.72643000  0.86287200  1
  O  O14  1  0.72599100  0.38864500  0.10964100  1
  O  O15  1  0.27400900  0.61135500  0.89035900  1
  O  O16  1  0.00006100  0.08599200  0.28284000  1
  O  O17  1  0.99993900  0.91400800  0.71716000  1
loop_
_geom_bond_atom_site_label_1
_geom_bond_atom_site_label_2
_geom_bond_distance
_geom_bond_site_symmetry_2
Fe0 O1 1.969433 1_545
Fe0 O12 2.202794 1_555
Fe0 W6 2.919209 1_555
Fe1 O0 1.969439 1_565
Fe1 O13 2.202794 1_555
Fe1 W7 2.919209 1_555
Fe2 O0 2.027754 1_555
Fe2 O10 2.189554 1_555
Fe2 O1 2.199181 1_545
Fe2 O3 2.222796 1_545
Fe2 O9 2.315789 1_555
Fe3 O1 2.027763 1_555
Fe3 O11 2.189554 1_555
Fe3 O0 2.199178 1_565
Fe3 O2 2.222796 1_565
Fe3 O8 2.315789 1_555
O0 W4 2.154187 1_555
O1 W5 2.154185 1_555
O2 S2 1.486837 1_555
O2 W4 2.810800 1_555
O3 S3 1.486837 1_555
O3 W5 2.810800 1_555
O4 S0 1.514968 1_555
O4 W0 2.333187 1_555
O4 W5 2.530297 1_555
O5 S1 1.514968 1_555
O5 W1 2.333187 1_555
O5 W4 2.530297 1_555
O6 S3 1.553006 1_555
O6 W3 2.272276 1_555
O6 W6 2.312309 1_655
O7 S2 1.553006 1_555
O7 W2 2.272276 1_555
O7 W7 2.312309 1_455
O8 S3 1.517429 1_455
O8 W6 2.384171 1_555
O9 S2 1.517429 1_655
O9 W7 2.384171 1_555
O10 S0 1.529321 1_555
O10 W5 2.288087 1_555
O11 S1 1.529321 1_555
O11 W4 2.288087 1_555
O12 S0 1.470325 1_555
O13 S1 1.470325 1_555
O14 S0 1.477331 1_555
O14 W1 2.283707 1_554
O15 S1 1.477331 1_555
O15 W0 2.283707 1_556
O16 S3 1.449226 1_445
O17 S2 1.449226 1_665
