# generated using pymatgen
data_Li5Mn2CrO8
_symmetry_space_group_name_H-M   'P 1'
_cell_length_a   5.81205100
_cell_length_b   10.14674595
_cell_length_c   5.83116576
_cell_angle_alpha   73.76689240
_cell_angle_beta   119.89145889
_cell_angle_gamma   89.99988978
_symmetry_Int_Tables_number   1
_chemical_formula_structural   Li5Mn2CrO8
_chemical_formula_sum   'Li10 Mn4 Cr2 O16'
_cell_volume   282.21358505
_cell_formula_units_Z   2
loop_
 _symmetry_equiv_pos_site_id
 _symmetry_equiv_pos_as_xyz
  1  'x, y, z'
loop_
 _atom_site_type_symbol
 _atom_site_label
 _atom_site_symmetry_multiplicity
 _atom_site_fract_x
 _atom_site_fract_y
 _atom_site_fract_z
 _atom_site_occupancy
  Li  Li0  1  0.50000000  0.99999600  0.00000400  1
  Li  Li1  1  0.99999700  0.50000400  0.99999800  1
  Li  Li2  1  0.00000000  0.99999400  0.00000400  1
  Li  Li3  1  0.49999800  0.50000500  0.99999900  1
  Li  Li4  1  0.24999300  0.25000100  0.49999900  1
  Li  Li5  1  0.75000400  0.75000000  0.50000100  1
  Li  Li6  1  0.00000000  0.99999100  0.50000600  1
  Li  Li7  1  0.49999600  0.50000900  0.49999400  1
  Li  Li8  1  0.50000200  0.99999100  0.50000500  1
  Li  Li9  1  0.99999300  0.50000900  0.49999400  1
  Mn  Mn0  1  0.24999900  0.74999700  0.99998400  1
  Mn  Mn1  1  0.74999900  0.75000500  0.99999900  1
  Mn  Mn2  1  0.75000700  0.25000300  0.00002400  1
  Mn  Mn3  1  0.25001000  0.24999700  0.00000200  1
  Cr  Cr0  1  0.25000700  0.75000100  0.49998400  1
  Cr  Cr1  1  0.74999500  0.24999500  0.50000700  1
  O  O0  1  0.61531800  0.13809600  0.23064800  1
  O  O1  1  0.11531800  0.63810300  0.23062600  1
  O  O2  1  0.88467400  0.36190600  0.76935400  1
  O  O3  1  0.38468500  0.86189400  0.76936300  1
  O  O4  1  0.11128500  0.13892400  0.22257000  1
  O  O5  1  0.61127700  0.63892800  0.22255600  1
  O  O6  1  0.38871200  0.36107900  0.77742700  1
  O  O7  1  0.88872000  0.86107400  0.77744400  1
  O  O8  1  0.12107500  0.13725200  0.75721200  1
  O  O9  1  0.62108800  0.63725200  0.75721800  1
  O  O10  1  0.63612700  0.13724800  0.75721700  1
  O  O11  1  0.13614800  0.63725600  0.75721400  1
  O  O12  1  0.37892000  0.36274900  0.24279000  1
  O  O13  1  0.87892900  0.86274600  0.24278400  1
  O  O14  1  0.86386000  0.36274700  0.24279200  1
  O  O15  1  0.36386400  0.86274900  0.24277800  1
loop_
_geom_bond_atom_site_label_1
_geom_bond_atom_site_label_2
_geom_bond_distance
_geom_bond_site_symmetry_2
Li0 O0 2.092078 1_565
Li0 O3 2.092083 1_554
Li0 O15 2.140957 1_555
Li0 O10 2.140995 1_564
Li0 O13 2.141049 1_555
Li0 O8 2.141058 1_564
Li1 O1 2.092007 1_656
Li1 O2 2.092060 1_555
Li1 O9 2.140958 1_555
Li1 O12 2.141046 1_656
Li1 O11 2.141080 1_655
Li1 O14 2.141086 1_556
Li2 O7 2.067764 1_454
Li2 O4 2.067874 1_565
Li2 O13 2.080715 1_455
Li2 O15 2.080754 1_555
Li2 O8 2.080826 1_564
Li2 O10 2.080832 1_464
Li3 O5 2.067778 1_556
Li3 O6 2.067862 1_555
Li3 O11 2.080727 1_555
Li3 O9 2.080789 1_555
Li3 O14 2.080807 1_556
Li3 O12 2.080824 1_556
Li4 O4 2.063194 1_555
Li4 O6 2.063198 1_555
Li4 O14 2.068953 1_455
Li4 O8 2.068954 1_555
Li4 O12 2.068971 1_555
Li4 O10 2.068984 1_555
Li5 O5 2.063225 1_555
Li5 O7 2.063231 1_555
Li5 O9 2.068960 1_555
Li5 O13 2.068991 1_555
Li5 O11 2.068994 1_655
Li5 O15 2.068996 1_555
Li6 O3 2.167628 1_555
Li6 O0 2.167652 1_465
Li6 O7 2.188687 1_455
Li6 O4 2.188769 1_565
Li6 O13 2.190892 1_455
Li6 O8 2.190960 1_565
Li7 O1 2.167589 1_555
Li7 O2 2.167628 1_555
Li7 O5 2.188700 1_555
Li7 O6 2.188740 1_555
Li7 O9 2.190881 1_555
Li7 O12 2.190943 1_555
Li8 O3 2.167588 1_555
Li8 O0 2.167616 1_565
Li8 O7 2.188689 1_555
Li8 O4 2.188755 1_565
Li8 O15 2.190885 1_555
Li8 O10 2.190950 1_565
Li9 O2 2.167630 1_555
Li9 O1 2.167646 1_655
Li9 O5 2.188690 1_555
Li9 O6 2.188749 1_655
Li9 O11 2.190901 1_655
Li9 O14 2.190953 1_555
Mn0 O11 1.929313 1_555
Mn0 O15 1.929503 1_556
Mn0 O5 1.956918 1_556
Mn0 O7 1.956960 1_455
Mn0 O3 1.976346 1_555
Mn0 O1 1.976401 1_556
Mn1 O13 1.929377 1_556
Mn1 O9 1.929455 1_555
Mn1 O7 1.956911 1_555
Mn1 O5 1.956956 1_556
Mn1 O3 1.976345 1_555
Mn1 O1 1.976418 1_656
Mn2 O14 1.929329 1_555
Mn2 O10 1.929580 1_554
Mn2 O4 1.956963 1_655
Mn2 O6 1.957015 1_554
Mn2 O0 1.976410 1_555
Mn2 O2 1.976493 1_554
Mn3 O8 1.929430 1_554
Mn3 O12 1.929476 1_555
Mn3 O6 1.956963 1_554
Mn3 O4 1.956998 1_555
Mn3 O0 1.976365 1_555
Mn3 O2 1.976516 1_454
Cr0 O15 2.006505 1_555
Cr0 O13 2.006555 1_455
Cr0 O9 2.006593 1_555
Cr0 O11 2.006607 1_555
Cr0 O1 2.034819 1_555
Cr0 O3 2.034870 1_555
Cr1 O8 2.006558 1_655
Cr1 O10 2.006564 1_555
Cr1 O12 2.006581 1_555
Cr1 O14 2.006592 1_555
Cr1 O0 2.034831 1_555
Cr1 O2 2.034874 1_555
