# generated using pymatgen
data_KRuO2
_symmetry_space_group_name_H-M   'P 1'
_cell_length_a   7.75386538
_cell_length_b   7.75386538
_cell_length_c   7.75386538
_cell_angle_alpha   131.54894108
_cell_angle_beta   131.54894108
_cell_angle_gamma   70.94236517
_symmetry_Int_Tables_number   1
_chemical_formula_structural   KRuO2
_chemical_formula_sum   'K4 Ru4 O8'
_cell_volume   255.69474779
_cell_formula_units_Z   4
loop_
 _symmetry_equiv_pos_site_id
 _symmetry_equiv_pos_as_xyz
  1  'x, y, z'
loop_
 _atom_site_type_symbol
 _atom_site_label
 _atom_site_symmetry_multiplicity
 _atom_site_fract_x
 _atom_site_fract_y
 _atom_site_fract_z
 _atom_site_occupancy
  K  K0  1  0.87500000  0.62500000  0.25000000  1
  K  K1  1  0.37500000  0.62500000  0.75000000  1
  K  K2  1  0.37500000  0.62500000  0.25000000  1
  K  K3  1  0.37500000  0.12500000  0.75000000  1
  Ru  Ru0  1  0.37500000  0.12500000  0.25000000  1
  Ru  Ru1  1  0.87500000  0.12500000  0.75000000  1
  Ru  Ru2  1  0.87500000  0.12500000  0.25000000  1
  Ru  Ru3  1  0.87500000  0.62500000  0.75000000  1
  O  O0  1  0.15109700  0.33685300  0.18575500  1
  O  O1  1  0.15109700  0.96534200  0.81424500  1
  O  O2  1  0.08685300  0.40109700  0.68575500  1
  O  O3  1  0.59890300  0.91314700  0.31424500  1
  O  O4  1  0.71534200  0.40109700  0.31424500  1
  O  O5  1  0.59890300  0.28465800  0.68575500  1
  O  O6  1  0.66314700  0.84890300  0.81424500  1
  O  O7  1  0.03465800  0.84890300  0.18575500  1
loop_
_geom_bond_atom_site_label_1
_geom_bond_atom_site_label_2
_geom_bond_distance
_geom_bond_site_symmetry_2
K0 O3 2.576399 1_555
K0 O0 2.576399 1_655
K0 O1 2.576403 1_655
K0 O5 2.576403 1_554
K0 O7 2.857205 1_655
K0 O4 2.857205 1_555
K1 O1 2.576403 1_555
K1 O5 2.576403 1_555
K1 O0 2.576403 1_555
K1 O3 2.576403 1_556
K1 O6 2.857199 1_555
K1 O2 2.857199 1_555
K2 O4 2.576403 1_555
K2 O7 2.576403 1_555
K2 O6 2.576403 1_555
K2 O2 2.576403 1_554
K2 O3 2.857199 1_555
K2 O0 2.857199 1_555
K3 O6 2.576399 1_545
K3 O2 2.576399 1_555
K3 O4 2.576403 1_556
K3 O7 2.576403 1_545
K3 O5 2.857205 1_555
K3 O1 2.857205 1_545
O0 Ru1 2.009102 1_454
O0 Ru0 2.009107 1_555
O1 Ru0 2.009102 1_566
O1 Ru1 2.009102 1_465
O2 Ru2 2.009102 1_455
O2 Ru3 2.009107 1_455
O3 Ru1 2.009102 1_565
O3 Ru0 2.009107 1_565
O4 Ru3 2.009102 1_555
O4 Ru2 2.009102 1_555
O5 Ru1 2.009102 1_555
O5 Ru0 2.009102 1_555
O6 Ru2 2.009102 1_566
O6 Ru3 2.009107 1_555
O7 Ru3 2.009102 1_454
O7 Ru2 2.009102 1_465
