# generated using pymatgen
data_Sr3(TiN2)2
_symmetry_space_group_name_H-M   'P 1'
_cell_length_a   7.31628333
_cell_length_b   8.88152715
_cell_length_c   5.79660184
_cell_angle_alpha   89.99999846
_cell_angle_beta   92.35464372
_cell_angle_gamma   127.37073195
_symmetry_Int_Tables_number   1
_chemical_formula_structural   Sr3(TiN2)2
_chemical_formula_sum   'Sr6 Ti4 N8'
_cell_volume   298.94223186
_cell_formula_units_Z   2
loop_
 _symmetry_equiv_pos_site_id
 _symmetry_equiv_pos_as_xyz
  1  'x, y, z'
loop_
 _atom_site_type_symbol
 _atom_site_label
 _atom_site_symmetry_multiplicity
 _atom_site_fract_x
 _atom_site_fract_y
 _atom_site_fract_z
 _atom_site_occupancy
  Sr  Sr0  1  0.23169200  0.98274900  0.04784600  1
  Sr  Sr1  1  0.76830800  0.75105700  0.45215400  1
  Sr  Sr2  1  0.76830800  0.01725100  0.95215400  1
  Sr  Sr3  1  0.23169200  0.24894300  0.54784600  1
  Sr  Sr4  1  0.00000000  0.60486200  0.75000000  1
  Sr  Sr5  1  0.00000000  0.39513800  0.25000000  1
  Ti  Ti0  1  0.59388300  0.17920800  0.58336600  1
  Ti  Ti1  1  0.40611700  0.58532500  0.91663400  1
  Ti  Ti2  1  0.40611700  0.82079200  0.41663400  1
  Ti  Ti3  1  0.59388300  0.41467500  0.08336600  1
  N  N0  1  0.26847900  0.95533500  0.52689300  1
  N  N1  1  0.73152100  0.68685600  0.97310700  1
  N  N2  1  0.73152100  0.04466500  0.47310700  1
  N  N3  1  0.26847900  0.31314400  0.02689300  1
  N  N4  1  0.66201700  0.26473900  0.90954500  1
  N  N5  1  0.33798300  0.60272300  0.59045500  1
  N  N6  1  0.33798300  0.73526100  0.09045500  1
  N  N7  1  0.66201700  0.39727700  0.40954500  1
loop_
_geom_bond_atom_site_label_1
_geom_bond_atom_site_label_2
_geom_bond_distance
_geom_bond_site_symmetry_2
N0 Ti0 1.979419 1_565
N0 Ti2 2.089033 1_555
N0 Sr3 2.782428 1_565
N0 Sr0 2.803699 1_555
N0 Sr4 2.829559 1_555
N0 Sr1 2.946290 1_455
N0 Sr0 3.065451 1_556
N1 Ti1 1.979419 1_555
N1 Ti3 2.089033 1_556
N1 Sr2 2.782428 1_565
N1 Sr1 2.803699 1_556
N1 Sr4 2.829560 1_655
N1 Sr0 2.946290 1_656
N1 Sr1 3.065450 1_555
N2 Ti2 1.979419 1_545
N2 Ti0 2.089033 1_555
N2 Sr1 2.782428 1_545
N2 Sr2 2.803699 1_555
N2 Sr5 2.829559 1_655
N2 Sr3 2.946290 1_655
N2 Sr2 3.065451 1_554
N3 Ti3 1.979419 1_555
N3 Ti1 2.089033 1_554
N3 Sr0 2.782428 1_545
N3 Sr3 2.803699 1_554
N3 Sr5 2.829560 1_555
N3 Sr2 2.946290 1_454
N3 Sr3 3.065450 1_555
N4 Ti0 1.965522 1_555
N4 Ti3 1.970815 1_556
N4 Sr4 2.686122 1_655
N4 Sr0 2.731819 1_546
N4 Sr5 2.733690 1_656
N4 Sr2 2.748913 1_555
N5 Ti1 1.965524 1_555
N5 Ti2 1.970808 1_555
N5 Sr4 2.686117 1_555
N5 Sr1 2.731821 1_555
N5 Sr5 2.733691 1_555
N5 Sr3 2.748922 1_555
N6 Ti2 1.965522 1_555
N6 Ti1 1.970815 1_554
N6 Sr5 2.686122 1_555
N6 Sr2 2.731819 1_564
N6 Sr4 2.733690 1_554
N6 Sr0 2.748913 1_555
N7 Ti3 1.965524 1_555
N7 Ti0 1.970808 1_555
N7 Sr5 2.686117 1_655
N7 Sr3 2.731821 1_555
N7 Sr4 2.733691 1_655
N7 Sr1 2.748922 1_555
