# generated using pymatgen
data_Li8BiO3
_symmetry_space_group_name_H-M   'P 1'
_cell_length_a   5.30616700
_cell_length_b   5.30616700
_cell_length_c   5.30616700
_cell_angle_alpha   90.00000000
_cell_angle_beta   90.00000000
_cell_angle_gamma   90.00000000
_symmetry_Int_Tables_number   1
_chemical_formula_structural   Li8BiO3
_chemical_formula_sum   'Li8 Bi1 O3'
_cell_volume   149.39729803
_cell_formula_units_Z   1
loop_
 _symmetry_equiv_pos_site_id
 _symmetry_equiv_pos_as_xyz
  1  'x, y, z'
loop_
 _atom_site_type_symbol
 _atom_site_label
 _atom_site_symmetry_multiplicity
 _atom_site_fract_x
 _atom_site_fract_y
 _atom_site_fract_z
 _atom_site_occupancy
  Li  Li0  1  0.27533000  0.27533000  0.27533000  1
  Li  Li1  1  0.72467000  0.72467000  0.27533000  1
  Li  Li2  1  0.72467000  0.27533000  0.72467000  1
  Li  Li3  1  0.27533000  0.72467000  0.72467000  1
  Li  Li4  1  0.27533000  0.27533000  0.72467000  1
  Li  Li5  1  0.72467000  0.72467000  0.72467000  1
  Li  Li6  1  0.72467000  0.27533000  0.27533000  1
  Li  Li7  1  0.27533000  0.72467000  0.27533000  1
  Bi  Bi0  1  0.00000000  0.00000000  0.00000000  1
  O  O0  1  0.00000000  0.50000000  0.50000000  1
  O  O1  1  0.50000000  0.50000000  0.00000000  1
  O  O2  1  0.50000000  0.00000000  0.50000000  1
loop_
_geom_bond_atom_site_label_1
_geom_bond_atom_site_label_2
_geom_bond_distance
_geom_bond_site_symmetry_2
Li0 O2 2.230862 1_555
Li0 O0 2.230862 1_555
Li0 O1 2.230862 1_555
Li1 O2 2.230862 1_565
Li1 O0 2.230862 1_655
Li1 O1 2.230862 1_555
Li2 O1 2.230862 1_556
Li2 O0 2.230862 1_655
Li2 O2 2.230862 1_555
Li3 O2 2.230862 1_565
Li3 O1 2.230862 1_556
Li3 O0 2.230862 1_555
Li4 O1 2.230862 1_556
Li4 O2 2.230862 1_555
Li4 O0 2.230862 1_555
Li5 O2 2.230862 1_565
Li5 O1 2.230862 1_556
Li5 O0 2.230862 1_655
Li6 O0 2.230862 1_655
Li6 O2 2.230862 1_555
Li6 O1 2.230862 1_555
Li7 O2 2.230862 1_565
Li7 O0 2.230862 1_555
Li7 O1 2.230862 1_555
Bi0 Li2 2.530434 1_454
Bi0 Li1 2.530434 1_445
Bi0 Li5 2.530434 1_444
Bi0 Li3 2.530434 1_544
Bi0 Li0 2.530434 1_555
Bi0 Li4 2.530434 1_554
Bi0 Li7 2.530434 1_545
Bi0 Li6 2.530434 1_455
