# generated using pymatgen
data_CaC2ClO7
_symmetry_space_group_name_H-M   'P 1'
_cell_length_a   6.71614158
_cell_length_b   9.78764012
_cell_length_c   9.86227500
_cell_angle_alpha   90.00000000
_cell_angle_beta   90.00000000
_cell_angle_gamma   106.23481633
_symmetry_Int_Tables_number   1
_chemical_formula_structural   CaC2ClO7
_chemical_formula_sum   'Ca4 C8 Cl4 O28'
_cell_volume   622.44682882
_cell_formula_units_Z   4
loop_
 _symmetry_equiv_pos_site_id
 _symmetry_equiv_pos_as_xyz
  1  'x, y, z'
loop_
 _atom_site_type_symbol
 _atom_site_label
 _atom_site_symmetry_multiplicity
 _atom_site_fract_x
 _atom_site_fract_y
 _atom_site_fract_z
 _atom_site_occupancy
  Ca  Ca0  1  0.30847200  0.11500300  0.51229100  1
  Ca  Ca1  1  0.19152800  0.38499700  0.01229100  1
  Ca  Ca2  1  0.69152800  0.88499700  0.48770900  1
  Ca  Ca3  1  0.80847200  0.61500300  0.98770900  1
  C  C0  1  0.88071800  0.31343400  0.30094300  1
  C  C1  1  0.61928200  0.18656600  0.80094300  1
  C  C2  1  0.11928200  0.68656600  0.69905700  1
  C  C3  1  0.38071800  0.81343400  0.19905700  1
  C  C4  1  0.82918600  0.18055500  0.39914400  1
  C  C5  1  0.67081400  0.31944500  0.89914400  1
  C  C6  1  0.17081400  0.81944500  0.60085600  1
  C  C7  1  0.32918600  0.68055500  0.10085600  1
  Cl  Cl0  1  0.64226900  0.51097500  0.61280800  1
  Cl  Cl1  1  0.85773100  0.98902500  0.11280800  1
  Cl  Cl2  1  0.35773100  0.48902500  0.38719200  1
  Cl  Cl3  1  0.14226900  0.01097500  0.88719200  1
  O  O0  1  0.64585300  0.13272400  0.44518100  1
  O  O1  1  0.85414700  0.36727600  0.94518100  1
  O  O2  1  0.35414700  0.86727600  0.55481900  1
  O  O3  1  0.14585300  0.63272400  0.05481900  1
  O  O4  1  0.03305100  0.88301800  0.57470000  1
  O  O5  1  0.46694900  0.61698200  0.07470000  1
  O  O6  1  0.96694900  0.11698200  0.42530000  1
  O  O7  1  0.53305100  0.38301800  0.92530000  1
  O  O8  1  0.64442700  0.62676400  0.50369000  1
  O  O9  1  0.85557300  0.87323600  0.00369000  1
  O  O10  1  0.35557300  0.37323600  0.49631000  1
  O  O11  1  0.14442700  0.12676400  0.99631000  1
  O  O12  1  0.39186800  0.19579400  0.22936200  1
  O  O13  1  0.10813200  0.30420600  0.72936200  1
  O  O14  1  0.60813200  0.80420600  0.77063800  1
  O  O15  1  0.89186800  0.69579400  0.27063800  1
  O  O16  1  0.26633400  0.89292800  0.19491200  1
  O  O17  1  0.23366600  0.60707200  0.69491200  1
  O  O18  1  0.73366600  0.10707200  0.80508800  1
  O  O19  1  0.76633400  0.39292800  0.30508800  1
  O  O20  1  0.46200800  0.17694600  0.72263400  1
  O  O21  1  0.03799200  0.32305400  0.22263400  1
  O  O22  1  0.53799200  0.82305400  0.27736600  1
  O  O23  1  0.96200800  0.67694600  0.77736600  1
  O  O24  1  0.01796700  0.66226200  0.34462000  1
  O  O25  1  0.48203300  0.83773800  0.84462000  1
  O  O26  1  0.98203300  0.33773800  0.65538000  1
  O  O27  1  0.51796700  0.16226200  0.15538000  1
loop_
_geom_bond_atom_site_label_1
_geom_bond_atom_site_label_2
_geom_bond_distance
_geom_bond_site_symmetry_2
Ca0 O0 2.320061 1_555
Ca0 O20 2.320496 1_555
Ca0 O6 2.454057 1_455
Ca0 O10 2.462938 1_555
Ca0 O2 2.562205 1_545
Ca0 O4 2.570520 1_545
Ca0 O12 2.911574 1_555
Ca1 O1 2.320061 1_454
Ca1 O21 2.320496 1_555
Ca1 O7 2.454057 1_554
Ca1 O11 2.462938 1_554
Ca1 O3 2.562205 1_555
Ca1 O5 2.570520 1_555
Ca1 O13 2.911574 1_554
Ca2 O2 2.320061 1_555
Ca2 O22 2.320496 1_555
Ca2 O4 2.454057 1_655
Ca2 O8 2.462938 1_555
Ca2 O0 2.562205 1_565
Ca2 O6 2.570520 1_565
Ca2 O14 2.911574 1_555
Ca3 O3 2.320061 1_656
Ca3 O23 2.320496 1_555
Ca3 O5 2.454057 1_556
Ca3 O9 2.462938 1_556
Ca3 O1 2.562205 1_555
Ca3 O7 2.570520 1_555
Ca3 O15 2.911574 1_556
C0 O19 1.237506 1_555
C0 O21 1.290514 1_655
C1 O18 1.237506 1_555
C1 O20 1.290514 1_555
C2 O17 1.237506 1_555
C2 O23 1.290514 1_455
C3 O16 1.237506 1_555
C3 O22 1.290514 1_555
C4 O0 1.272429 1_555
C4 O6 1.277372 1_555
C5 O1 1.272429 1_555
C5 O7 1.277372 1_555
C6 O2 1.272429 1_555
C6 O4 1.277372 1_555
C7 O3 1.272429 1_555
C7 O5 1.277372 1_555
Cl0 O8 1.559968 1_555
Cl0 O10 2.322411 1_555
Cl1 O9 1.559968 1_555
Cl1 O11 2.322411 1_664
Cl2 O10 1.559968 1_555
Cl2 O8 2.322411 1_555
Cl3 O11 1.559968 1_555
Cl3 O9 2.322411 1_446
O12 O27 1.229931 1_555
O13 O26 1.229931 1_455
O14 O25 1.229931 1_555
O15 O24 1.229931 1_655
