# generated using pymatgen
data_YbPrCo17
_symmetry_space_group_name_H-M   'P 1'
_cell_length_a   8.16996200
_cell_length_b   8.33374036
_cell_length_c   8.33374036
_cell_angle_alpha   120.00011396
_cell_angle_beta   90.00000000
_cell_angle_gamma   90.00000000
_symmetry_Int_Tables_number   1
_chemical_formula_structural   YbPrCo17
_chemical_formula_sum   'Yb2 Pr2 Co34'
_cell_volume   491.39428420
_cell_formula_units_Z   2
loop_
 _symmetry_equiv_pos_site_id
 _symmetry_equiv_pos_as_xyz
  1  'x, y, z'
loop_
 _atom_site_type_symbol
 _atom_site_label
 _atom_site_symmetry_multiplicity
 _atom_site_fract_x
 _atom_site_fract_y
 _atom_site_fract_z
 _atom_site_occupancy
  Yb  Yb0  1  0.75000000  0.00004600  0.99995400  1
  Yb  Yb1  1  0.25000000  0.99995400  0.00004600  1
  Pr  Pr0  1  0.25000000  0.66669800  0.33330200  1
  Pr  Pr1  1  0.75000000  0.33330200  0.66669800  1
  Co  Co0  1  0.60805700  0.66666900  0.33333100  1
  Co  Co1  1  0.39194300  0.33333100  0.66666900  1
  Co  Co2  1  0.10805700  0.33333100  0.66666900  1
  Co  Co3  1  0.89194300  0.66666900  0.33333100  1
  Co  Co4  1  0.48237000  0.83479800  0.66961400  1
  Co  Co5  1  0.48235700  0.83481400  0.16518600  1
  Co  Co6  1  0.48237000  0.33038600  0.16520200  1
  Co  Co7  1  0.51763000  0.16520200  0.33038600  1
  Co  Co8  1  0.51764300  0.16518600  0.83481400  1
  Co  Co9  1  0.51763000  0.66961400  0.83479800  1
  Co  Co10  1  0.98237000  0.16520200  0.33038600  1
  Co  Co11  1  0.98235700  0.16518600  0.83481400  1
  Co  Co12  1  0.98237000  0.66961400  0.83479800  1
  Co  Co13  1  0.01763000  0.83479800  0.66961400  1
  Co  Co14  1  0.01764300  0.83481400  0.16518600  1
  Co  Co15  1  0.01763000  0.33038600  0.16520200  1
  Co  Co16  1  0.50000000  0.50000000  0.00000000  1
  Co  Co17  1  0.50000000  0.50000000  0.50000000  1
  Co  Co18  1  0.50000000  0.00000000  0.50000000  1
  Co  Co19  1  0.00000000  0.50000000  0.00000000  1
  Co  Co20  1  0.00000000  0.50000000  0.50000000  1
  Co  Co21  1  0.00000000  0.00000000  0.50000000  1
  Co  Co22  1  0.75000000  0.67163000  0.04965000  1
  Co  Co23  1  0.75000000  0.37803800  0.32829800  1
  Co  Co24  1  0.75000000  0.95032300  0.62195900  1
  Co  Co25  1  0.75000000  0.37804100  0.04967700  1
  Co  Co26  1  0.75000000  0.95035000  0.32837000  1
  Co  Co27  1  0.75000000  0.67170200  0.62196200  1
  Co  Co28  1  0.25000000  0.32837000  0.95035000  1
  Co  Co29  1  0.25000000  0.62196200  0.67170200  1
  Co  Co30  1  0.25000000  0.04967700  0.37804100  1
  Co  Co31  1  0.25000000  0.62195900  0.95032300  1
  Co  Co32  1  0.25000000  0.04965000  0.67163000  1
  Co  Co33  1  0.25000000  0.32829800  0.37803800  1
loop_
_geom_bond_atom_site_label_1
_geom_bond_atom_site_label_2
_geom_bond_distance
_geom_bond_site_symmetry_2
Co0 Co3 2.319338 1_555
Co0 Co16 2.562593 1_555
Co0 Co18 2.562593 1_565
Co0 Co17 2.562644 1_555
Co0 Co6 2.635319 1_555
Co0 Co4 2.635319 1_555
Co0 Co5 2.635411 1_555
Co0 Co23 2.651704 1_555
Co0 Co27 2.651704 1_555
Co0 Co25 2.651893 1_555
Co0 Co24 2.651893 1_555
Co0 Co22 2.652049 1_555
Co0 Co26 2.652049 1_555
Co0 Pr0 2.925312 1_555
Co1 Co2 2.319338 1_555
Co1 Co18 2.562593 1_555
Co1 Co16 2.562593 1_556
Co1 Co17 2.562644 1_555
Co1 Co7 2.635319 1_555
Co1 Co9 2.635319 1_555
Co1 Co8 2.635411 1_555
Co1 Co33 2.651704 1_555
Co1 Co29 2.651704 1_555
Co1 Co30 2.651893 1_555
Co1 Co31 2.651893 1_555
Co1 Co32 2.652049 1_555
Co1 Co28 2.652049 1_555
Co1 Pr1 2.925312 1_555
Co2 Co21 2.562593 1_555
Co2 Co20 2.562644 1_555
Co2 Co33 2.651704 1_555
Co2 Co29 2.651704 1_555
Co2 Co30 2.651893 1_555
Co2 Co31 2.651893 1_555
Co2 Co32 2.652049 1_555
Co2 Co28 2.652049 1_555
Co2 Pr1 2.925312 1_455
Co3 Pr0 2.925312 1_655
Co4 Co9 2.401683 1_555
Co4 Co8 2.401835 1_565
Co4 Yb1 3.048181 1_556
Co4 Pr0 3.081496 1_555
Co4 Yb0 3.234967 1_565
Co5 Co9 2.401835 1_554
Co5 Co7 2.401835 1_565
Co5 Yb1 3.047259 1_555
Co5 Pr0 3.080979 1_555
Co5 Yb0 3.235701 1_564
Co6 Co7 2.401683 1_555
Co6 Co8 2.401835 1_554
Co6 Yb1 3.048181 1_545
Co6 Pr0 3.081496 1_555
Co6 Yb0 3.234967 1_554
Co7 Yb0 3.048181 1_554
Co7 Pr1 3.081496 1_555
Co7 Yb1 3.234967 1_545
Co8 Yb0 3.047259 1_555
Co8 Pr1 3.080979 1_555
Co8 Yb1 3.235701 1_546
Co9 Yb0 3.048181 1_565
Co9 Pr1 3.081496 1_555
Co9 Yb1 3.234967 1_556
Co10 Co15 2.401683 1_655
Co10 Co14 2.401835 1_645
Co10 Co20 2.420671 1_655
Co10 Co21 2.420805 1_655
Co10 Co33 2.499252 1_655
Co10 Co30 2.499575 1_655
Co10 Co26 2.603899 1_545
Co10 Co23 2.604108 1_555
Co10 Co2 2.635319 1_655
Co10 Yb0 3.048181 1_554
Co10 Pr1 3.081496 1_555
Co10 Yb1 3.234967 1_645
Co11 Co13 2.401835 1_645
Co11 Co15 2.401835 1_656
Co11 Co21 2.420793 1_655
Co11 Co19 2.420793 1_656
Co11 Co32 2.499689 1_655
Co11 Co28 2.499689 1_655
Co11 Co24 2.603905 1_545
Co11 Co25 2.603905 1_556
Co11 Co2 2.635411 1_655
Co11 Yb0 3.047259 1_555
Co11 Pr1 3.080979 1_555
Co11 Yb1 3.235701 1_646
Co12 Co13 2.401683 1_655
Co12 Co14 2.401835 1_656
Co12 Co20 2.420671 1_655
Co12 Co19 2.420805 1_656
Co12 Co29 2.499252 1_655
Co12 Co31 2.499575 1_655
Co12 Co22 2.603899 1_556
Co12 Co27 2.604108 1_555
Co12 Co2 2.635319 1_655
Co12 Yb0 3.048181 1_565
Co12 Pr1 3.081496 1_555
Co12 Yb1 3.234967 1_656
Co13 Co20 2.420671 1_555
Co13 Co21 2.420805 1_565
Co13 Co27 2.499252 1_455
Co13 Co24 2.499575 1_455
Co13 Co32 2.603899 1_565
Co13 Co29 2.604108 1_555
Co13 Co3 2.635319 1_455
Co13 Yb1 3.048181 1_556
Co13 Pr0 3.081496 1_555
Co13 Yb0 3.234967 1_465
Co14 Co19 2.420793 1_555
Co14 Co21 2.420793 1_565
Co14 Co22 2.499689 1_455
Co14 Co26 2.499689 1_455
Co14 Co31 2.603905 1_554
Co14 Co30 2.603905 1_565
Co14 Co3 2.635411 1_455
Co14 Yb1 3.047259 1_555
Co14 Pr0 3.080979 1_555
Co14 Yb0 3.235701 1_464
Co15 Co20 2.420671 1_555
Co15 Co19 2.420805 1_555
Co15 Co23 2.499252 1_455
Co15 Co25 2.499575 1_455
Co15 Co28 2.603899 1_554
Co15 Co33 2.604108 1_555
Co15 Co3 2.635319 1_455
Co15 Yb1 3.048181 1_545
Co15 Pr0 3.081496 1_555
Co15 Yb0 3.234967 1_454
Co16 Co31 2.407686 1_554
Co16 Co25 2.407686 1_555
Co16 Co22 2.407688 1_555
Co16 Co28 2.407688 1_554
Co16 Co5 2.420793 1_555
Co16 Co8 2.420793 1_554
Co16 Co6 2.420805 1_555
Co16 Co9 2.420805 1_554
Co16 Pr1 3.155672 1_554
Co16 Pr0 3.155672 1_555
Co17 Co33 2.407899 1_555
Co17 Co23 2.407899 1_555
Co17 Co27 2.407899 1_555
Co17 Co29 2.407899 1_555
Co17 Co9 2.420671 1_555
Co17 Co4 2.420671 1_555
Co17 Co6 2.420671 1_555
Co17 Co7 2.420671 1_555
Co17 Pr0 3.156193 1_555
Co17 Pr1 3.156193 1_555
Co18 Co30 2.407686 1_555
Co18 Co24 2.407686 1_545
Co18 Co32 2.407688 1_555
Co18 Co26 2.407688 1_545
Co18 Co8 2.420793 1_555
Co18 Co5 2.420793 1_545
Co18 Co7 2.420805 1_555
Co18 Co4 2.420805 1_545
Co18 Pr1 3.155672 1_555
Co18 Pr0 3.155672 1_545
Co19 Co31 2.407686 1_554
Co19 Co25 2.407686 1_455
Co19 Co22 2.407688 1_455
Co19 Co28 2.407688 1_554
Co19 Co3 2.562593 1_455
Co19 Co2 2.562593 1_554
Co19 Pr1 3.155672 1_454
Co19 Pr0 3.155672 1_555
Co20 Co33 2.407899 1_555
Co20 Co23 2.407899 1_455
Co20 Co29 2.407899 1_555
Co20 Co27 2.407899 1_455
Co20 Co3 2.562644 1_455
Co20 Pr0 3.156193 1_555
Co20 Pr1 3.156193 1_455
Co21 Co24 2.407686 1_445
Co21 Co30 2.407686 1_555
Co21 Co32 2.407688 1_555
Co21 Co26 2.407688 1_445
Co21 Co3 2.562593 1_445
Co21 Pr1 3.155672 1_455
Co21 Pr0 3.155672 1_545
Co22 Co26 2.322776 1_555
Co22 Co25 2.446807 1_555
Co22 Co5 2.499689 1_555
Co22 Co9 2.603899 1_554
Co22 Co3 2.652049 1_555
Co22 Yb0 2.965779 1_564
Co22 Pr1 3.022682 1_554
Co23 Co25 2.321968 1_555
Co23 Co27 2.447315 1_555
Co23 Co6 2.499252 1_555
Co23 Co7 2.604108 1_555
Co23 Co3 2.651704 1_555
Co23 Yb0 2.964937 1_554
Co23 Pr1 3.023834 1_555
Co24 Co27 2.321968 1_555
Co24 Co26 2.446807 1_555
Co24 Co4 2.499575 1_555
Co24 Co8 2.603905 1_565
Co24 Co3 2.651893 1_555
Co24 Yb0 2.964721 1_565
Co24 Pr1 3.022522 1_565
Co25 Co6 2.499575 1_555
Co25 Co8 2.603905 1_554
Co25 Co3 2.651893 1_555
Co25 Yb0 2.964721 1_554
Co25 Pr1 3.022522 1_554
Co26 Co5 2.499689 1_555
Co26 Co7 2.603899 1_565
Co26 Co3 2.652049 1_555
Co26 Yb0 2.965779 1_564
Co26 Pr1 3.022682 1_565
Co27 Co4 2.499252 1_555
Co27 Co9 2.604108 1_555
Co27 Co3 2.651704 1_555
Co27 Yb0 2.964937 1_565
Co27 Pr1 3.023834 1_555
Co28 Co32 2.322776 1_555
Co28 Co31 2.446807 1_555
Co28 Co8 2.499689 1_555
Co28 Co6 2.603899 1_556
Co28 Yb1 2.965779 1_546
Co28 Pr0 3.022682 1_556
Co29 Co31 2.321968 1_555
Co29 Co33 2.447315 1_555
Co29 Co9 2.499252 1_555
Co29 Co4 2.604108 1_555
Co29 Yb1 2.964937 1_556
Co29 Pr0 3.023834 1_555
Co30 Co33 2.321968 1_555
Co30 Co32 2.446807 1_555
Co30 Co7 2.499575 1_555
Co30 Co5 2.603905 1_545
Co30 Yb1 2.964721 1_545
Co30 Pr0 3.022522 1_545
Co31 Co9 2.499575 1_555
Co31 Co5 2.603905 1_556
Co31 Yb1 2.964721 1_556
Co31 Pr0 3.022522 1_556
Co32 Co8 2.499689 1_555
Co32 Co4 2.603899 1_545
Co32 Yb1 2.965779 1_546
Co32 Pr0 3.022682 1_545
Co33 Co7 2.499252 1_555
Co33 Co6 2.604108 1_555
Co33 Yb1 2.964937 1_545
Co33 Pr0 3.023834 1_555
