# generated using pymatgen
data_Mg5Si6
_symmetry_space_group_name_H-M   'P 1'
_cell_length_a   4.63065100
_cell_length_b   5.98845959
_cell_length_c   16.18044732
_cell_angle_alpha   88.33190525
_cell_angle_beta   86.25089386
_cell_angle_gamma   73.49884662
_symmetry_Int_Tables_number   1
_chemical_formula_structural   Mg5Si6
_chemical_formula_sum   'Mg10 Si12'
_cell_volume   429.26484294
_cell_formula_units_Z   2
loop_
 _symmetry_equiv_pos_site_id
 _symmetry_equiv_pos_as_xyz
  1  'x, y, z'
loop_
 _atom_site_type_symbol
 _atom_site_label
 _atom_site_symmetry_multiplicity
 _atom_site_fract_x
 _atom_site_fract_y
 _atom_site_fract_z
 _atom_site_occupancy
  Mg  Mg0  1  0.07513200  0.68259400  0.02906800  1
  Mg  Mg1  1  0.82989500  0.52722100  0.36258200  1
  Mg  Mg2  1  0.50280600  0.22708700  0.69378100  1
  Mg  Mg3  1  0.27304500  0.96919200  0.34107300  1
  Mg  Mg4  1  0.93835600  0.83971500  0.20722100  1
  Mg  Mg5  1  0.24973700  0.39113200  0.86628400  1
  Mg  Mg6  1  0.20126200  0.68704400  0.53731500  1
  Mg  Mg7  1  0.95240800  0.23807500  0.54063400  1
  Mg  Mg8  1  0.65239600  0.38507100  0.11981000  1
  Mg  Mg9  1  0.61157100  0.78915400  0.81463100  1
  Si  Si0  1  0.46737500  0.97664500  0.96724200  1
  Si  Si1  1  0.67631900  0.49935200  0.95270300  1
  Si  Si2  1  0.74956100  0.96956900  0.42560000  1
  Si  Si3  1  0.54530000  0.95772500  0.56588200  1
  Si  Si4  1  0.94297700  0.06913900  0.92271200  1
  Si  Si5  1  0.47261700  0.89432200  0.11194700  1
  Si  Si6  1  0.35786300  0.48564200  0.27783300  1
  Si  Si7  1  0.74372100  0.61000400  0.64695700  1
  Si  Si8  1  0.16546000  0.66686900  0.72269900  1
  Si  Si9  1  0.39325200  0.35076600  0.42384200  1
  Si  Si10  1  0.17147600  0.22736100  0.19392100  1
  Si  Si11  1  0.02399900  0.06011600  0.77276200  1
loop_
_geom_bond_atom_site_label_1
_geom_bond_atom_site_label_2
_geom_bond_distance
_geom_bond_site_symmetry_2
Mg0 Si1 2.769477 1_454
Mg0 Si4 2.792021 1_464
Mg0 Si1 2.893900 1_554
Mg0 Si5 2.922558 1_555
Mg0 Si5 2.964859 1_455
Mg0 Si0 2.979496 1_554
Mg0 Mg4 3.029263 1_455
Mg0 Si0 3.077712 1_454
Mg0 Mg5 3.134514 1_554
Mg0 Mg8 3.182947 1_555
Mg0 Mg8 3.258115 1_455
Mg1 Si9 2.660451 1_555
Mg1 Si6 2.674931 1_655
Mg1 Si6 2.727860 1_555
Mg1 Si9 2.759657 1_655
Mg1 Si2 2.782636 1_555
Mg2 Si3 2.623767 1_545
Mg2 Si8 2.689650 1_555
Mg2 Si11 2.723202 1_655
Mg2 Si7 2.884149 1_555
Mg2 Si11 2.891941 1_555
Mg3 Si2 2.671560 1_555
Mg3 Si2 2.703737 1_455
Mg3 Si10 2.792775 1_565
Mg3 Si9 2.884964 1_565
Mg3 Si6 3.010044 1_555
Mg4 Si5 2.671973 1_555
Mg4 Si6 2.717403 1_655
Mg4 Si10 2.822166 1_665
Mg4 Si5 2.921546 1_655
Mg5 Si1 2.723683 1_555
Mg5 Si8 2.793856 1_555
Mg5 Si4 2.802397 1_455
Mg5 Si1 2.831166 1_455
Mg5 Si0 2.898854 1_545
Mg5 Si11 2.978347 1_555
Mg6 Si3 2.643123 1_555
Mg6 Si9 2.683570 1_555
Mg6 Si7 2.804485 1_455
Mg6 Si2 2.968343 1_455
Mg6 Si8 2.994145 1_555
Mg6 Si3 3.021715 1_455
Mg6 Si7 3.089782 1_555
Mg7 Si7 2.763554 1_555
Mg7 Si3 2.830454 1_645
Mg7 Si2 2.862357 1_545
Mg7 Si3 2.862976 1_545
Mg7 Si9 2.897878 1_655
Mg7 Si9 3.209959 1_555
Mg8 Si10 2.670021 1_655
Mg8 Si1 2.772668 1_554
Mg8 Si6 2.815586 1_555
Mg8 Si10 2.840590 1_555
Mg8 Si5 2.925495 1_555
Mg9 Si0 2.706272 1_555
Mg9 Si1 2.767505 1_555
Mg9 Si8 2.797314 1_655
Mg9 Si11 2.857263 1_565
Mg9 Si11 2.875155 1_665
Mg9 Si8 2.888082 1_555
Mg9 Si7 2.909540 1_555
Mg9 Si4 3.194994 1_565
Si0 Si5 2.378902 1_556
Si0 Si4 2.477599 1_565
Si0 Si4 2.482762 1_465
Si0 Si1 2.756714 1_555
Si1 Si4 2.566100 1_555
Si2 Si9 2.407688 1_565
Si2 Si3 2.408270 1_555
Si3 Si7 2.410991 1_555
Si6 Si9 2.474862 1_555
Si7 Si8 2.479296 1_655
Si7 Si8 2.804507 1_555
Si10 Si5 2.452282 1_545
Si10 Si6 2.452452 1_555
Si11 Si8 2.407567 1_545
Si11 Si4 2.430532 1_455
