# generated using pymatgen
data_PbC3S2N(O2F)2
_symmetry_space_group_name_H-M   'P 1'
_cell_length_a   7.45751600
_cell_length_b   7.76693911
_cell_length_c   10.40113943
_cell_angle_alpha   95.60452618
_cell_angle_beta   105.14408770
_cell_angle_gamma   102.03602569
_symmetry_Int_Tables_number   1
_chemical_formula_structural   PbC3S2N(O2F)2
_chemical_formula_sum   'Pb2 C6 S4 N2 O8 F4'
_cell_volume   561.31533098
_cell_formula_units_Z   2
loop_
 _symmetry_equiv_pos_site_id
 _symmetry_equiv_pos_as_xyz
  1  'x, y, z'
loop_
 _atom_site_type_symbol
 _atom_site_label
 _atom_site_symmetry_multiplicity
 _atom_site_fract_x
 _atom_site_fract_y
 _atom_site_fract_z
 _atom_site_occupancy
  Pb  Pb0  1  0.40844800  0.77136300  0.70106500  1
  Pb  Pb1  1  0.59155200  0.22863700  0.29893500  1
  C  C0  1  0.33553200  0.69900000  0.47240600  1
  C  C1  1  0.66446800  0.30100000  0.52759400  1
  C  C2  1  0.33405100  0.52030400  0.79372200  1
  C  C3  1  0.66594900  0.47969600  0.20627800  1
  C  C4  1  0.47737800  0.05303600  0.80988300  1
  C  C5  1  0.52262200  0.94696400  0.19011700  1
  S  S0  1  0.87254200  0.73167700  0.89185200  1
  S  S1  1  0.12745800  0.26832300  0.10814800  1
  S  S2  1  0.88801000  0.85032500  0.64807000  1
  S  S3  1  0.11199000  0.14967500  0.35193000  1
  N  N0  1  0.76691700  0.78180700  0.74715500  1
  N  N1  1  0.23308300  0.21819300  0.25284500  1
  O  O0  1  0.74421400  0.73124700  0.97282500  1
  O  O1  1  0.25578600  0.26875300  0.02717500  1
  O  O2  1  0.07199100  0.81828400  0.94207400  1
  O  O3  1  0.92800900  0.18171600  0.05792600  1
  O  O4  1  0.03490600  0.75723600  0.64114200  1
  O  O5  1  0.96509400  0.24276400  0.35885800  1
  O  O6  1  0.75812900  0.87117200  0.52552100  1
  O  O7  1  0.24187100  0.12882800  0.47447900  1
  F  F0  1  0.86398400  0.52552900  0.84793000  1
  F  F1  1  0.13601600  0.47447100  0.15207000  1
  F  F2  1  0.00381600  0.04723100  0.72202800  1
  F  F3  1  0.99618400  0.95276900  0.27797200  1
loop_
_geom_bond_atom_site_label_1
_geom_bond_atom_site_label_2
_geom_bond_distance
_geom_bond_site_symmetry_2
C0 Pb0 2.281158 1_555
C1 Pb1 2.281158 1_555
C2 Pb0 2.287837 1_555
C3 Pb1 2.287837 1_555
C4 Pb0 2.252736 1_545
C5 Pb1 2.252736 1_565
N0 S2 1.598068 1_555
N0 S0 1.630977 1_555
N0 Pb0 2.572009 1_555
N1 S3 1.598068 1_555
N1 S1 1.630977 1_555
N1 Pb1 2.572009 1_555
O0 S0 1.430225 1_555
O1 S1 1.430225 1_555
O2 S0 1.430325 1_455
O3 S1 1.430325 1_655
O4 S2 1.445481 1_455
O4 Pb0 2.666945 1_555
O5 S3 1.445481 1_655
O5 Pb1 2.666945 1_555
O6 S2 1.431697 1_555
O7 S3 1.431697 1_555
F0 S0 1.604898 1_555
F1 S1 1.604898 1_555
F2 S2 1.596490 1_445
F3 S3 1.596490 1_665
