# generated using pymatgen
data_NaCuSO4F
_symmetry_space_group_name_H-M   'P 1'
_cell_length_a   5.59532524
_cell_length_b   5.59532524
_cell_length_c   6.95523945
_cell_angle_alpha   102.39024724
_cell_angle_beta   102.39024724
_cell_angle_gamma   99.99232802
_symmetry_Int_Tables_number   1
_chemical_formula_structural   NaCuSO4F
_chemical_formula_sum   'Na2 Cu2 S2 O8 F2'
_cell_volume   202.15049687
_cell_formula_units_Z   2
loop_
 _symmetry_equiv_pos_site_id
 _symmetry_equiv_pos_as_xyz
  1  'x, y, z'
loop_
 _atom_site_type_symbol
 _atom_site_label
 _atom_site_symmetry_multiplicity
 _atom_site_fract_x
 _atom_site_fract_y
 _atom_site_fract_z
 _atom_site_occupancy
  Na  Na0  1  0.34971900  0.65028100  0.25000000  1
  Na  Na1  1  0.65028100  0.34971900  0.75000000  1
  Cu  Cu0  1  0.00000000  0.00000000  0.50000000  1
  Cu  Cu1  1  0.00000000  0.00000000  0.00000000  1
  S  S0  1  0.69645400  0.30354600  0.25000000  1
  S  S1  1  0.30354600  0.69645400  0.75000000  1
  O  O0  1  0.69728700  0.09841600  0.36141200  1
  O  O1  1  0.90158400  0.30271300  0.13858800  1
  O  O2  1  0.30271300  0.90158400  0.63858800  1
  O  O3  1  0.09841600  0.69728700  0.86141200  1
  O  O4  1  0.74566600  0.55005700  0.39745900  1
  O  O5  1  0.44994300  0.25433400  0.10254100  1
  O  O6  1  0.25433400  0.44994300  0.60254100  1
  O  O7  1  0.55005700  0.74566600  0.89745900  1
  F  F0  1  0.09325000  0.90675000  0.25000000  1
  F  F1  1  0.90675000  0.09325000  0.75000000  1
loop_
_geom_bond_atom_site_label_1
_geom_bond_atom_site_label_2
_geom_bond_distance
_geom_bond_site_symmetry_2
Na0 O4 2.444887 1_555
Na0 O5 2.444887 1_555
Na0 O0 2.738084 1_565
Na0 O1 2.738084 1_455
Na0 O2 2.855448 1_555
Na0 O3 2.855448 1_554
Na0 O7 3.014504 1_554
Na0 O6 3.014504 1_555
Na1 O7 2.444887 1_555
Na1 O6 2.444887 1_555
Na1 O3 2.738084 1_655
Na1 O2 2.738084 1_545
Na1 O1 2.855448 1_556
Na1 O0 2.855448 1_555
Na1 O4 3.014504 1_555
Na1 O5 3.014504 1_556
Cu0 F1 1.913743 1_455
Cu0 F0 1.913743 1_545
Cu0 O0 1.987984 1_455
Cu0 O2 1.987984 1_545
Cu0 O6 2.534287 1_555
Cu0 O4 2.534287 1_445
Cu1 F1 1.913743 1_454
Cu1 F0 1.913743 1_545
Cu1 O3 1.987984 1_544
Cu1 O1 1.987984 1_455
Cu1 O5 2.534287 1_555
Cu1 O7 2.534287 1_444
O0 S0 1.516524 1_555
O1 S0 1.516524 1_555
O2 S1 1.516524 1_555
O3 S1 1.516524 1_555
O4 S0 1.473135 1_555
O5 S0 1.473135 1_555
O6 S1 1.473135 1_555
O7 S1 1.473135 1_555
F0 Na0 2.198466 1_555
F1 Na1 2.198466 1_555
