# generated using pymatgen
data_Mg5Si6
_symmetry_space_group_name_H-M   'P 1'
_cell_length_a   3.84693300
_cell_length_b   6.92720100
_cell_length_c   15.79189054
_cell_angle_alpha   81.99656102
_cell_angle_beta   90.00000000
_cell_angle_gamma   90.00000000
_symmetry_Int_Tables_number   1
_chemical_formula_structural   Mg5Si6
_chemical_formula_sum   'Mg10 Si12'
_cell_volume   416.73084625
_cell_formula_units_Z   2
loop_
 _symmetry_equiv_pos_site_id
 _symmetry_equiv_pos_as_xyz
  1  'x, y, z'
loop_
 _atom_site_type_symbol
 _atom_site_label
 _atom_site_symmetry_multiplicity
 _atom_site_fract_x
 _atom_site_fract_y
 _atom_site_fract_z
 _atom_site_occupancy
  Mg  Mg0  1  0.00000000  0.02160700  0.00648200  1
  Mg  Mg1  1  0.50000000  0.59355800  0.57068600  1
  Mg  Mg2  1  0.00000000  0.95894700  0.67794800  1
  Mg  Mg3  1  0.00000000  0.10359900  0.32862000  1
  Mg  Mg4  1  0.50000000  0.15583900  0.15458800  1
  Mg  Mg5  1  0.50000000  0.91814300  0.85699300  1
  Mg  Mg6  1  0.50000000  0.20352300  0.51620700  1
  Mg  Mg7  1  0.00000000  0.53013100  0.41684700  1
  Mg  Mg8  1  0.50000000  0.68012200  0.07870300  1
  Mg  Mg9  1  0.50000000  0.35218300  0.92938200  1
  Si  Si0  1  0.00000000  0.66728800  0.95130200  1
  Si  Si1  1  0.00000000  0.38168500  0.05696000  1
  Si  Si2  1  0.50000000  0.85412300  0.42220500  1
  Si  Si3  1  0.00000000  0.89957500  0.50959500  1
  Si  Si4  1  0.00000000  0.21008400  0.80570200  1
  Si  Si5  1  0.00000000  0.84435100  0.18863200  1
  Si  Si6  1  0.50000000  0.40185400  0.29659700  1
  Si  Si7  1  0.50000000  0.65685300  0.72873700  1
  Si  Si8  1  0.00000000  0.56901700  0.81313200  1
  Si  Si9  1  0.00000000  0.46656700  0.19985600  1
  Si  Si10  1  0.50000000  0.76199100  0.28283200  1
  Si  Si11  1  0.50000000  0.26533300  0.70436400  1
loop_
_geom_bond_atom_site_label_1
_geom_bond_atom_site_label_2
_geom_bond_distance
_geom_bond_site_symmetry_2
Mg0 Si0 2.716465 1_544
Mg0 Si1 2.722281 1_555
Mg0 Si5 2.966206 1_545
Mg1 Si7 2.593573 1_555
Mg1 Si2 2.752724 1_555
Mg1 Si11 2.879147 1_555
Mg1 Si3 2.924840 1_655
Mg1 Si3 2.924840 1_555
Mg2 Si3 2.746244 1_555
Mg2 Si4 2.841484 1_565
Mg2 Si7 2.873131 1_455
Mg2 Si7 2.873131 1_555
Mg2 Si11 2.936811 1_465
Mg2 Si11 2.936811 1_565
Mg3 Si6 2.816588 1_555
Mg3 Si6 2.816588 1_455
Mg3 Si2 2.856436 1_545
Mg3 Si2 2.856436 1_445
Mg3 Si9 3.005507 1_555
Mg3 Si3 3.006742 1_545
Mg3 Si5 3.036072 1_545
Mg3 Si10 3.209179 1_445
Mg3 Si10 3.209179 1_545
Mg4 Si1 2.802248 1_655
Mg4 Si1 2.802248 1_555
Mg4 Si5 2.884713 1_545
Mg4 Si5 2.884713 1_645
Mg4 Si6 2.999623 1_555
Mg4 Si9 3.045060 1_655
Mg4 Si9 3.045060 1_555
Mg4 Si10 3.163276 1_545
Mg5 Si4 2.826568 1_665
Mg5 Si4 2.826568 1_565
Mg5 Si0 2.866496 1_555
Mg5 Si0 2.866496 1_655
Mg5 Si7 2.898145 1_555
Mg5 Si11 3.159051 1_565
Mg6 Si3 2.864440 1_645
Mg6 Si3 2.864440 1_545
Mg6 Si2 3.010369 1_545
Mg6 Si11 3.060483 1_555
Mg7 Si6 2.926659 1_455
Mg7 Si6 2.926659 1_555
Mg7 Si2 2.965958 1_555
Mg7 Si2 2.965958 1_455
Mg7 Si3 3.120675 1_555
Mg7 Si10 3.132380 1_455
Mg7 Si10 3.132380 1_555
Mg8 Si0 2.793777 1_554
Mg8 Si0 2.793777 1_654
Mg8 Si1 2.879089 1_555
Mg8 Si1 2.879089 1_655
Mg8 Si5 2.925332 1_655
Mg8 Si5 2.925332 1_555
Mg8 Si9 2.959812 1_655
Mg8 Si9 2.959812 1_555
Mg9 Si1 2.813388 1_556
Mg9 Si1 2.813388 1_656
Mg9 Si8 2.925442 1_655
Mg9 Si8 2.925442 1_555
Mg9 Si0 2.965561 1_555
Mg9 Si0 2.965561 1_655
Mg9 Si4 3.003131 1_555
Mg9 Si4 3.003131 1_655
Si0 Si8 2.374448 1_555
Si0 Si1 2.403949 1_556
Si1 Si9 2.409867 1_555
Si2 Si3 2.413380 1_555
Si2 Si3 2.413380 1_655
Si4 Si8 2.505433 1_555
Si5 Si9 2.598242 1_555
Si6 Si9 2.458437 1_655
Si6 Si9 2.458437 1_555
Si7 Si8 2.370732 1_655
Si7 Si8 2.370732 1_555
Si10 Si2 2.375440 1_555
Si10 Si5 2.449863 1_555
Si10 Si5 2.449863 1_655
Si10 Si6 2.473859 1_555
Si11 Si4 2.497332 1_555
Si11 Si4 2.497332 1_655
Si11 Si7 2.791867 1_555
