# generated using pymatgen
data_Li2AlCr2SbO8
_symmetry_space_group_name_H-M   'P 1'
_cell_length_a   5.92100051
_cell_length_b   5.92100051
_cell_length_c   9.60922708
_cell_angle_alpha   89.70067508
_cell_angle_beta   89.70067508
_cell_angle_gamma   59.56839802
_symmetry_Int_Tables_number   1
_chemical_formula_structural   Li2AlCr2SbO8
_chemical_formula_sum   'Li4 Al2 Cr4 Sb2 O16'
_cell_volume   290.46656369
_cell_formula_units_Z   2
loop_
 _symmetry_equiv_pos_site_id
 _symmetry_equiv_pos_as_xyz
  1  'x, y, z'
loop_
 _atom_site_type_symbol
 _atom_site_label
 _atom_site_symmetry_multiplicity
 _atom_site_fract_x
 _atom_site_fract_y
 _atom_site_fract_z
 _atom_site_occupancy
  Li  Li0  1  0.33372400  0.33372400  0.60112900  1
  Li  Li1  1  0.66501000  0.66501000  0.09608800  1
  Li  Li2  1  0.00189400  0.00189400  0.00653300  1
  Li  Li3  1  0.99981400  0.99981400  0.51499800  1
  Al  Al0  1  0.34128000  0.82871700  0.78560400  1
  Al  Al1  1  0.82871700  0.34128000  0.78560400  1
  Cr  Cr0  1  0.16961900  0.16961900  0.28578000  1
  Cr  Cr1  1  0.66032300  0.16905800  0.28625100  1
  Cr  Cr2  1  0.16905800  0.66032300  0.28625100  1
  Cr  Cr3  1  0.82928800  0.82928800  0.78634800  1
  Sb  Sb0  1  0.33405100  0.33405100  0.00957200  1
  Sb  Sb1  1  0.66469200  0.66469200  0.51543900  1
  O  O0  1  0.00077000  0.00077000  0.19169100  1
  O  O1  1  0.00887900  0.00887900  0.70370200  1
  O  O2  1  0.16759000  0.16759000  0.89824000  1
  O  O3  1  0.67204900  0.17269800  0.89991800  1
  O  O4  1  0.17269800  0.67204900  0.89991800  1
  O  O5  1  0.83458800  0.83458800  0.40827200  1
  O  O6  1  0.32910500  0.83407100  0.40601100  1
  O  O7  1  0.83407100  0.32910500  0.40601100  1
  O  O8  1  0.33195300  0.33195300  0.39314800  1
  O  O9  1  0.65820100  0.65820100  0.88609300  1
  O  O10  1  0.48163000  0.48163000  0.15542800  1
  O  O11  1  0.03469900  0.48449000  0.15487200  1
  O  O12  1  0.48449000  0.03469900  0.15487200  1
  O  O13  1  0.51816600  0.51816600  0.66124800  1
  O  O14  1  0.96187600  0.51176500  0.66018900  1
  O  O15  1  0.51176500  0.96187600  0.66018900  1
loop_
_geom_bond_atom_site_label_1
_geom_bond_atom_site_label_2
_geom_bond_distance
_geom_bond_site_symmetry_2
Li0 O15 1.980629 1_545
Li0 O14 1.980629 1_455
Li0 O13 1.985036 1_555
Li0 O8 1.998729 1_555
Li1 O10 1.965806 1_555
Li1 O11 1.972166 1_655
Li1 O12 1.972166 1_565
Li1 O9 2.019524 1_554
Li2 O0 1.779193 1_555
Li2 O3 1.973790 1_454
Li2 O4 1.973790 1_544
Li2 O2 1.990392 1_554
Li3 O1 1.816251 1_665
Li3 O6 1.977985 1_655
Li3 O7 1.977985 1_565
Li3 O5 1.989075 1_555
Al0 O1 1.873901 1_565
Al0 O9 1.887461 1_555
Al0 O15 1.968900 1_555
Al0 O13 1.991215 1_555
Al0 O4 1.994837 1_555
Al0 O2 2.043461 1_565
Al1 O1 1.873901 1_655
Al1 O9 1.887461 1_555
Al1 O14 1.968900 1_555
Al1 O13 1.991215 1_555
Al1 O3 1.994837 1_555
Al1 O2 2.043461 1_655
Cr0 O0 1.961599 1_555
Cr0 O8 1.966927 1_555
Cr0 O11 2.042941 1_555
Cr0 O12 2.042941 1_555
Cr0 O7 2.064134 1_455
Cr0 O6 2.064134 1_545
Cr1 O0 1.958952 1_655
Cr1 O8 1.963525 1_555
Cr1 O10 2.032472 1_555
Cr1 O12 2.042993 1_555
Cr1 O5 2.068770 1_545
Cr1 O7 2.071730 1_555
Cr2 O0 1.958952 1_565
Cr2 O8 1.963525 1_555
Cr2 O10 2.032472 1_555
Cr2 O11 2.042993 1_555
Cr2 O5 2.068770 1_455
Cr2 O6 2.071730 1_555
Cr3 O9 1.997570 1_555
Cr3 O1 2.004985 1_665
Cr3 O14 2.034520 1_555
Cr3 O15 2.034520 1_555
Cr3 O3 2.070523 1_565
Cr3 O4 2.070523 1_655
O2 Sb0 2.023240 1_556
O3 Sb0 2.019843 1_556
O4 Sb0 2.019843 1_556
O5 Sb1 2.021838 1_555
O6 Sb1 2.012910 1_555
O7 Sb1 2.012910 1_555
O10 Sb0 2.071370 1_555
O11 Sb0 2.066943 1_555
O12 Sb0 2.066943 1_555
O13 Sb1 2.050756 1_555
O14 Sb1 2.061370 1_555
O15 Sb1 2.061370 1_555
