# generated using pymatgen
data_U(AlCu)6
_symmetry_space_group_name_H-M   'P 1'
_cell_length_a   8.73386381
_cell_length_b   6.71611360
_cell_length_c   6.61410834
_cell_angle_alpha   81.86465411
_cell_angle_beta   49.57322936
_cell_angle_gamma   48.56211652
_symmetry_Int_Tables_number   1
_chemical_formula_structural   U(AlCu)6
_chemical_formula_sum   'U1 Al6 Cu6'
_cell_volume   191.22076477
_cell_formula_units_Z   1
loop_
 _symmetry_equiv_pos_site_id
 _symmetry_equiv_pos_as_xyz
  1  'x, y, z'
loop_
 _atom_site_type_symbol
 _atom_site_label
 _atom_site_symmetry_multiplicity
 _atom_site_fract_x
 _atom_site_fract_y
 _atom_site_fract_z
 _atom_site_occupancy
  U  U0  1  0.00000000  0.00000000  0.00000000  1
  Al  Al0  1  0.50000000  0.00000000  0.50000000  1
  Al  Al1  1  0.00000000  0.50000000  0.00000000  1
  Al  Al2  1  0.48828100  0.73339000  0.26661000  1
  Al  Al3  1  0.51171900  0.26661000  0.73339000  1
  Al  Al4  1  0.73339000  0.48828100  0.51171900  1
  Al  Al5  1  0.26661000  0.51171900  0.48828100  1
  Cu  Cu0  1  0.99645000  0.65143900  0.34856100  1
  Cu  Cu1  1  0.00355000  0.34856100  0.65143900  1
  Cu  Cu2  1  0.65143900  0.99645000  0.00355000  1
  Cu  Cu3  1  0.34856100  0.00355000  0.99645000  1
  Cu  Cu4  1  0.00000000  0.00000000  0.50000000  1
  Cu  Cu5  1  0.50000000  0.50000000  0.00000000  1
loop_
_geom_bond_atom_site_label_1
_geom_bond_atom_site_label_2
_geom_bond_distance
_geom_bond_site_symmetry_2
Al0 Al1 2.507213 1_556
Al0 Al1 2.507213 1_645
Al0 Al3 2.613305 1_555
Al0 Al5 2.613305 1_555
Al0 Al4 2.613305 1_545
Al0 Al2 2.613305 1_545
Al0 Cu2 2.622893 1_545
Al0 Cu1 2.622893 1_555
Al0 Cu3 2.622893 1_555
Al0 Cu0 2.622893 1_545
Al0 U0 3.358057 1_556
Al0 U0 3.358057 1_655
Al1 Al3 2.613305 1_554
Al1 Al4 2.613305 1_455
Al1 Al5 2.613305 1_554
Al1 Al2 2.613305 1_455
Al1 Cu3 2.622893 1_554
Al1 Cu1 2.622893 1_554
Al1 Cu0 2.622893 1_455
Al1 Cu2 2.622893 1_455
Al1 U0 3.358057 1_565
Al1 U0 3.358057 1_555
Al2 Cu4 2.431634 1_565
Al2 Cu5 2.431634 1_555
Al2 Cu3 2.637025 1_564
Al2 Cu1 2.705641 1_565
Al2 Cu1 2.705641 1_654
Al2 Cu2 2.725067 1_555
Al2 Al5 2.762276 1_555
Al2 Al4 3.000371 1_555
Al2 U0 3.231751 1_566
Al2 U0 3.231751 1_655
Al3 Cu4 2.431634 1_655
Al3 Cu5 2.431634 1_556
Al3 Cu2 2.637025 1_546
Al3 Cu0 2.705641 1_456
Al3 Cu0 2.705641 1_545
Al3 Cu3 2.725067 1_555
Al3 Al4 2.762276 1_555
Al3 Al5 3.000371 1_555
Al3 U0 3.231751 1_566
Al3 U0 3.231751 1_655
Al4 Cu4 2.431634 1_655
Al4 Cu5 2.431634 1_556
Al4 Cu1 2.637025 1_655
Al4 Cu3 2.705641 1_654
Al4 Cu3 2.705641 1_565
Al4 Cu0 2.725067 1_555
Al4 U0 3.231751 1_655
Al4 U0 3.231751 1_566
Al5 Cu5 2.431634 1_555
Al5 Cu4 2.431634 1_565
Al5 Cu0 2.637025 1_455
Al5 Cu2 2.705641 1_545
Al5 Cu2 2.705641 1_456
Al5 Cu1 2.725067 1_555
Al5 U0 3.231751 1_655
Al5 U0 3.231751 1_566
Cu0 Cu1 2.644917 1_655
Cu0 Cu5 2.698959 1_655
Cu0 Cu4 2.698959 1_665
Cu0 U0 3.044995 1_665
Cu0 Cu3 3.111636 1_654
Cu0 Cu3 3.111636 1_565
Cu0 Cu2 3.144128 1_556
Cu0 Cu2 3.144128 1_645
Cu1 Cu4 2.698959 1_555
Cu1 Cu5 2.698959 1_456
Cu1 U0 3.044995 1_556
Cu1 Cu2 3.111636 1_545
Cu1 Cu2 3.111636 1_456
Cu1 Cu3 3.144128 1_465
Cu1 Cu3 3.144128 1_554
Cu2 Cu3 2.644917 1_564
Cu2 Cu5 2.698959 1_565
Cu2 Cu4 2.698959 1_664
Cu2 U0 3.044995 1_665
Cu3 Cu4 2.698959 1_556
Cu3 Cu5 2.698959 1_546
Cu3 U0 3.044995 1_556
Cu4 Cu5 2.507213 1_456
Cu4 Cu5 2.507213 1_545
Cu4 U0 3.307054 1_555
Cu4 U0 3.307054 1_556
Cu5 U0 3.307054 1_655
Cu5 U0 3.307054 1_565
