# generated using pymatgen
data_K4NaV10O38
_symmetry_space_group_name_H-M   'P 1'
_cell_length_a   10.45449301
_cell_length_b   10.85289751
_cell_length_c   13.64132180
_cell_angle_alpha   90.00000000
_cell_angle_beta   94.11780604
_cell_angle_gamma   90.00000000
_symmetry_Int_Tables_number   1
_chemical_formula_structural   K4NaV10O38
_chemical_formula_sum   'K8 Na2 V20 O76'
_cell_volume   1543.76986173
_cell_formula_units_Z   2
loop_
 _symmetry_equiv_pos_site_id
 _symmetry_equiv_pos_as_xyz
  1  'x, y, z'
loop_
 _atom_site_type_symbol
 _atom_site_label
 _atom_site_symmetry_multiplicity
 _atom_site_fract_x
 _atom_site_fract_y
 _atom_site_fract_z
 _atom_site_occupancy
  K  K0  1  0.76617921  0.22497888  0.02686363  1
  K  K1  1  0.23382079  0.77502112  0.97313637  1
  K  K2  1  0.73382079  0.22497888  0.47313637  1
  K  K3  1  0.26617921  0.77502112  0.52686363  1
  K  K4  1  0.94780906  0.21412011  0.73596749  1
  K  K5  1  0.05219094  0.78587989  0.26403251  1
  K  K6  1  0.55219094  0.21412011  0.76403251  1
  K  K7  1  0.44780906  0.78587989  0.23596749  1
  Na  Na0  1  0.25000000  0.99278831  0.75000000  1
  Na  Na1  1  0.75000000  0.00721169  0.25000000  1
  V  V0  1  0.09246409  0.27933447  0.23997998  1
  V  V1  1  0.90753591  0.72066553  0.76002002  1
  V  V2  1  0.40753591  0.27933447  0.26002002  1
  V  V3  1  0.59246409  0.72066553  0.73997998  1
  V  V4  1  0.40567777  0.27706277  0.02941027  1
  V  V5  1  0.59432223  0.72293723  0.97058973  1
  V  V6  1  0.09432223  0.27706277  0.47058973  1
  V  V7  1  0.90567777  0.72293723  0.52941027  1
  V  V8  1  0.10505789  0.27824565  0.01018693  1
  V  V9  1  0.89494211  0.72175435  0.98981307  1
  V  V10  1  0.39494211  0.27824565  0.48981307  1
  V  V11  1  0.60505789  0.72175435  0.51018693  1
  V  V12  1  0.25332156  0.48353070  0.13520912  1
  V  V13  1  0.74667844  0.51646930  0.86479088  1
  V  V14  1  0.24667844  0.48353070  0.36479088  1
  V  V15  1  0.75332156  0.51646930  0.63520912  1
  V  V16  1  0.25023541  0.06462032  0.13040923  1
  V  V17  1  0.74976459  0.93537968  0.86959077  1
  V  V18  1  0.24976459  0.06462032  0.36959077  1
  V  V19  1  0.75023541  0.93537968  0.63040923  1
  O  O0  1  0.25289383  0.27408130  0.15381372  1
  O  O1  1  0.74710617  0.72591870  0.84618628  1
  O  O2  1  0.24710617  0.27408130  0.34618628  1
  O  O3  1  0.75289383  0.72591870  0.65381372  1
  O  O4  1  0.13010206  0.44872185  0.24163011  1
  O  O5  1  0.86989794  0.55127815  0.75836989  1
  O  O6  1  0.36989794  0.44872185  0.25836989  1
  O  O7  1  0.63010206  0.55127815  0.74163011  1
  O  O8  1  0.13825420  0.10234108  0.24189716  1
  O  O9  1  0.86174580  0.89765892  0.75810284  1
  O  O10  1  0.36174580  0.10234108  0.25810284  1
  O  O11  1  0.63825420  0.89765892  0.74189716  1
  O  O12  1  0.99279920  0.27323070  0.33648090  1
  O  O13  1  0.00720080  0.72676930  0.66351910  1
  O  O14  1  0.50720080  0.27323070  0.16351910  1
  O  O15  1  0.49279920  0.72676930  0.83648090  1
  O  O16  1  0.25683371  0.27214237  0.94918111  1
  O  O17  1  0.74316629  0.72785763  0.05081889  1
  O  O18  1  0.24316629  0.27214237  0.55081889  1
  O  O19  1  0.75683371  0.72785763  0.44918111  1
  O  O20  1  0.99884026  0.27343957  0.12916490  1
  O  O21  1  0.00115974  0.72656043  0.87083510  1
  O  O22  1  0.50115974  0.27343957  0.37083510  1
  O  O23  1  0.49884026  0.72656043  0.62916490  1
  O  O24  1  0.38520612  0.10279943  0.05813812  1
  O  O25  1  0.61479388  0.89720057  0.94186188  1
  O  O26  1  0.11479388  0.10279943  0.44186188  1
  O  O27  1  0.88520612  0.89720057  0.55813812  1
  O  O28  1  0.12432393  0.10372939  0.03884110  1
  O  O29  1  0.87567607  0.89627061  0.96115890  1
  O  O30  1  0.37567607  0.10372939  0.46115890  1
  O  O31  1  0.62432393  0.89627061  0.53884110  1
  O  O32  1  0.38281407  0.44252747  0.05809068  1
  O  O33  1  0.61718593  0.55747253  0.94190932  1
  O  O34  1  0.11718593  0.44252747  0.44190932  1
  O  O35  1  0.88281407  0.55747253  0.55809068  1
  O  O36  1  0.12830285  0.44430672  0.04038262  1
  O  O37  1  0.87169715  0.55569328  0.95961738  1
  O  O38  1  0.37169715  0.44430672  0.45961738  1
  O  O39  1  0.62830285  0.55569328  0.54038262  1
  O  O40  1  0.51934752  0.27441573  0.95369813  1
  O  O41  1  0.48065248  0.72558427  0.04630187  1
  O  O42  1  0.98065248  0.27441573  0.54630187  1
  O  O43  1  0.01934752  0.72558427  0.45369813  1
  O  O44  1  0.99220154  0.27772134  0.92150992  1
  O  O45  1  0.00779846  0.72227866  0.07849008  1
  O  O46  1  0.50779846  0.27772134  0.57849008  1
  O  O47  1  0.49220154  0.72227866  0.42150992  1
  O  O48  1  0.25126381  0.91330697  0.13698351  1
  O  O49  1  0.74873619  0.08669303  0.86301649  1
  O  O50  1  0.24873619  0.91330697  0.36301649  1
  O  O51  1  0.75126381  0.08669303  0.63698351  1
  O  O52  1  0.25655839  0.63444536  0.14008375  1
  O  O53  1  0.74344161  0.36555464  0.85991625  1
  O  O54  1  0.24344161  0.63444536  0.35991625  1
  O  O55  1  0.75655839  0.36555464  0.64008375  1
  O  O56  1  0.72551964  0.49727252  0.17592890  1
  O  O57  1  0.27448036  0.50272748  0.82407110  1
  O  O58  1  0.77448036  0.49727252  0.32407110  1
  O  O59  1  0.22551964  0.50272748  0.67592890  1
  O  O60  1  0.75000000  0.22074769  0.25000000  1
  O  O61  1  0.25000000  0.77925231  0.75000000  1
  O  O62  1  0.25000000  0.20655238  0.75000000  1
  O  O63  1  0.75000000  0.79344762  0.25000000  1
  O  O64  1  0.09740124  0.02307870  0.86180757  1
  O  O65  1  0.90259876  0.97692130  0.13819243  1
  O  O66  1  0.40259876  0.02307870  0.63819243  1
  O  O67  1  0.59740124  0.97692130  0.36180757  1
  O  O68  1  0.38744025  0.97016542  0.90324410  1
  O  O69  1  0.61255975  0.02983458  0.09675590  1
  O  O70  1  0.11255975  0.97016542  0.59675590  1
  O  O71  1  0.88744025  0.02983458  0.40324410  1
  O  O72  1  0.15502416  0.48109833  0.76330607  1
  O  O73  1  0.84497584  0.51890167  0.23669393  1
  O  O74  1  0.34497584  0.48109833  0.73669393  1
  O  O75  1  0.65502416  0.51890167  0.26330607  1
loop_
_geom_bond_atom_site_label_1
_geom_bond_atom_site_label_2
_geom_bond_distance
_geom_bond_site_symmetry_2
K0 O49 2.687519 1_554
K0 O53 2.737308 1_554
K0 O40 2.751930 1_554
K0 O20 2.766398 1_555
K0 O69 2.862450 1_555
K0 O44 2.909352 1_554
K0 O60 3.061019 1_555
K1 O48 2.687519 1_556
K1 O52 2.737308 1_556
K1 O41 2.751930 1_556
K1 O21 2.766398 1_555
K1 O68 2.862450 1_555
K1 O45 2.909352 1_556
K1 O61 3.061019 1_555
K2 O51 2.687519 1_555
K2 O55 2.737308 1_555
K2 O42 2.751930 1_555
K2 O22 2.766398 1_555
K2 O71 2.862450 1_555
K2 O46 2.909352 1_555
K2 O60 3.061019 1_555
K3 O50 2.687519 1_555
K3 O54 2.737308 1_555
K3 O43 2.751930 1_555
K3 O23 2.766398 1_555
K3 O70 2.862450 1_555
K3 O47 2.909352 1_555
K3 O61 3.061019 1_555
K4 O44 2.632362 1_555
K4 O42 2.714363 1_555
K4 O51 2.749447 1_555
K4 O55 2.834440 1_555
K4 O64 3.050550 1_655
K4 O49 3.125009 1_555
K4 O62 3.152367 1_655
K4 O53 3.262467 1_555
K5 O45 2.632362 1_555
K5 O43 2.714363 1_555
K5 O50 2.749447 1_555
K5 O54 2.834440 1_555
K5 O65 3.050550 1_455
K5 O48 3.125009 1_555
K5 O63 3.152367 1_455
K5 O52 3.262467 1_555
K6 O46 2.632362 1_555
K6 O40 2.714363 1_555
K6 O49 2.749447 1_555
K6 O53 2.834440 1_555
K6 O66 3.050550 1_555
K6 O51 3.125009 1_555
K6 O62 3.152367 1_555
K6 O55 3.262467 1_555
K7 O47 2.632362 1_555
K7 O41 2.714363 1_555
K7 O48 2.749447 1_555
K7 O52 2.834440 1_555
K7 O67 3.050550 1_555
K7 O50 3.125009 1_555
K7 O63 3.152367 1_555
K7 O54 3.262467 1_555
Na0 O64 2.308436 1_565
Na0 O66 2.308436 1_565
Na0 O61 2.317484 1_555
Na0 O62 2.319960 1_565
Na0 O68 2.462415 1_555
Na0 O70 2.462415 1_555
Na1 O65 2.308436 1_545
Na1 O67 2.308436 1_545
Na1 O60 2.317484 1_555
Na1 O63 2.319960 1_545
Na1 O71 2.462415 1_555
Na1 O69 2.462415 1_555
O0 V2 2.092750 1_555
O0 V0 2.116845 1_555
O0 V12 2.287297 1_555
O0 V16 2.295460 1_555
O0 V8 2.407193 1_555
O0 V4 2.412786 1_555
O1 V3 2.092750 1_555
O1 V1 2.116845 1_555
O1 V13 2.287297 1_555
O1 V17 2.295460 1_555
O1 V9 2.407193 1_555
O1 V5 2.412786 1_555
O2 V0 2.092750 1_555
O2 V2 2.116845 1_555
O2 V14 2.287297 1_555
O2 V18 2.295460 1_555
O2 V10 2.407193 1_555
O2 V6 2.412786 1_555
O3 V1 2.092750 1_555
O3 V3 2.116845 1_555
O3 V15 2.287297 1_555
O3 V19 2.295460 1_555
O3 V11 2.407193 1_555
O3 V7 2.412786 1_555
O4 V0 1.879780 1_555
O4 V14 2.038786 1_555
O4 V12 2.044075 1_555
O5 V1 1.879780 1_555
O5 V15 2.038786 1_555
O5 V13 2.044075 1_555
O6 V2 1.879780 1_555
O6 V12 2.038786 1_555
O6 V14 2.044075 1_555
O7 V3 1.879780 1_555
O7 V13 2.038786 1_555
O7 V15 2.044075 1_555
O8 V0 1.979362 1_555
O8 V16 2.026526 1_555
O8 V18 2.066218 1_555
O9 V1 1.979362 1_555
O9 V17 2.026526 1_555
O9 V19 2.066218 1_555
O10 V2 1.979362 1_555
O10 V18 2.026526 1_555
O10 V16 2.066218 1_555
O11 V3 1.979362 1_555
O11 V19 2.026526 1_555
O11 V17 2.066218 1_555
O12 V0 1.737796 1_655
O12 V6 2.048455 1_655
O13 V1 1.737796 1_455
O13 V7 2.048455 1_455
O14 V2 1.737796 1_555
O14 V4 2.048455 1_555
O15 V3 1.737796 1_555
O15 V5 2.048455 1_555
O16 V4 1.837788 1_556
O16 V8 1.845082 1_556
O17 V5 1.837788 1_554
O17 V9 1.845082 1_554
O18 V6 1.837788 1_555
O18 V10 1.845082 1_555
O19 V7 1.837788 1_555
O19 V11 1.845082 1_555
O20 V0 1.742056 1_655
O20 V8 2.031955 1_655
O21 V1 1.742056 1_455
O21 V9 2.031955 1_455
O22 V2 1.742056 1_555
O22 V10 2.031955 1_555
O23 V3 1.742056 1_555
O23 V11 2.031955 1_555
O24 V16 1.826057 1_555
O24 V4 1.946355 1_555
O25 V17 1.826057 1_555
O25 V5 1.946355 1_555
O26 V18 1.826057 1_555
O26 V6 1.946355 1_555
O27 V19 1.826057 1_555
O27 V7 1.946355 1_555
O28 V16 1.799179 1_555
O28 V8 1.941472 1_555
O29 V17 1.799179 1_555
O29 V9 1.941472 1_555
O30 V18 1.799179 1_555
O30 V10 1.941472 1_555
O31 V19 1.799179 1_555
O31 V11 1.941472 1_555
O32 V12 1.828107 1_555
O32 V4 1.856994 1_555
O33 V13 1.828107 1_555
O33 V5 1.856994 1_555
O34 V14 1.828107 1_555
O34 V6 1.856994 1_555
O35 V15 1.828107 1_555
O35 V7 1.856994 1_555
O36 V12 1.822078 1_555
O36 V8 1.860761 1_555
O37 V13 1.822078 1_555
O37 V9 1.860761 1_555
O38 V14 1.822078 1_555
O38 V10 1.860761 1_555
O39 V15 1.822078 1_555
O39 V11 1.860761 1_555
O40 V4 1.629722 1_556
O41 V5 1.629722 1_554
O42 V6 1.629722 1_655
O43 V7 1.629722 1_455
O44 V8 1.628013 1_656
O45 V9 1.628013 1_454
O46 V10 1.628013 1_555
O47 V11 1.628013 1_555
O48 V16 1.644628 1_565
O49 V17 1.644628 1_545
O50 V18 1.644628 1_565
O51 V19 1.644628 1_545
O52 V12 1.639461 1_555
O53 V13 1.639461 1_555
O54 V14 1.639461 1_555
O55 V15 1.639461 1_555
O56 O75 1.464631 1_555
O56 O73 1.467368 1_555
O57 O74 1.464631 1_555
O57 O72 1.467368 1_555
O58 O73 1.464631 1_555
O58 O75 1.467368 1_555
O59 O72 1.464631 1_555
O59 O74 1.467368 1_555
