# generated using pymatgen
data_Dy2Ni12As7
_symmetry_space_group_name_H-M   'P 1'
_cell_length_a   9.36214577
_cell_length_b   9.36214577
_cell_length_c   3.83173500
_cell_angle_alpha   90.00000000
_cell_angle_beta   90.00000000
_cell_angle_gamma   119.99999835
_symmetry_Int_Tables_number   1
_chemical_formula_structural   Dy2Ni12As7
_chemical_formula_sum   'Dy2 Ni12 As7'
_cell_volume   290.85524663
_cell_formula_units_Z   1
loop_
 _symmetry_equiv_pos_site_id
 _symmetry_equiv_pos_as_xyz
  1  'x, y, z'
loop_
 _atom_site_type_symbol
 _atom_site_label
 _atom_site_symmetry_multiplicity
 _atom_site_fract_x
 _atom_site_fract_y
 _atom_site_fract_z
 _atom_site_occupancy
  Dy  Dy0  1  0.66666700  0.33333300  0.00000000  1
  Dy  Dy1  1  0.33333300  0.66666700  0.50000000  1
  Ni  Ni0  1  0.05650400  0.61880300  0.00000000  1
  Ni  Ni1  1  0.56229800  0.94349600  0.00000000  1
  Ni  Ni2  1  0.38119700  0.43770200  0.00000000  1
  Ni  Ni3  1  0.27924500  0.12728700  0.00000000  1
  Ni  Ni4  1  0.84804300  0.72075500  0.00000000  1
  Ni  Ni5  1  0.87271300  0.15195700  0.00000000  1
  Ni  Ni6  1  0.42582300  0.04740400  0.50000000  1
  Ni  Ni7  1  0.62158100  0.57417700  0.50000000  1
  Ni  Ni8  1  0.95259600  0.37841900  0.50000000  1
  Ni  Ni9  1  0.09520400  0.88405100  0.50000000  1
  Ni  Ni10  1  0.78884700  0.90479600  0.50000000  1
  Ni  Ni11  1  0.11594900  0.21115300  0.50000000  1
  As  As0  1  0.28719100  0.88252500  0.00000000  1
  As  As1  1  0.59533400  0.71280900  0.00000000  1
  As  As2  1  0.11747500  0.40466600  0.00000000  1
  As  As3  1  0.40651800  0.29649000  0.50000000  1
  As  As4  1  0.88997300  0.59348200  0.50000000  1
  As  As5  1  0.70351000  0.11002700  0.50000000  1
  As  As6  1  0.00000000  0.00000000  0.00000000  1
loop_
_geom_bond_atom_site_label_1
_geom_bond_atom_site_label_2
_geom_bond_distance
_geom_bond_site_symmetry_2
Dy0 Ni5 3.143284 1_555
Dy0 Ni4 3.143284 1_555
Dy0 Ni3 3.143284 1_555
Dy0 Ni8 3.143983 1_554
Dy0 Ni8 3.143983 1_555
Dy0 Ni6 3.143986 1_555
Dy0 Ni6 3.143986 1_554
Dy0 Ni7 3.143991 1_554
Dy0 Ni7 3.143991 1_555
Dy0 Ni1 3.272453 1_545
Dy0 Ni0 3.272458 1_655
Dy0 Ni2 3.272471 1_555
Dy1 Ni2 3.070335 1_555
Dy1 Ni2 3.070335 1_556
Dy1 Ni0 3.070335 1_555
Dy1 Ni0 3.070335 1_556
Dy1 Ni1 3.070335 1_556
Dy1 Ni1 3.070335 1_555
Dy1 Ni6 3.220098 1_565
Dy1 Ni8 3.220100 1_455
Dy1 Ni7 3.220107 1_555
As0 Ni3 2.329584 1_565
As0 Ni0 2.329812 1_555
As0 Ni1 2.342928 1_555
As0 Ni6 2.394658 1_565
As0 Ni6 2.394658 1_564
As0 Ni9 2.631941 1_554
As0 Ni9 2.631941 1_555
As0 Dy1 2.968868 1_555
As0 Dy1 2.968868 1_554
As1 Ni4 2.329594 1_555
As1 Ni1 2.329817 1_555
As1 Ni2 2.342931 1_555
As1 Ni7 2.394658 1_554
As1 Ni7 2.394658 1_555
As1 Ni10 2.631941 1_554
As1 Ni10 2.631941 1_555
As1 Dy1 2.968875 1_555
As1 Dy1 2.968875 1_554
As2 Ni5 2.329589 1_455
As2 Ni2 2.329808 1_555
As2 Ni0 2.342937 1_555
As2 Ni8 2.394658 1_455
As2 Ni8 2.394658 1_454
As2 Ni11 2.631941 1_554
As2 Ni11 2.631941 1_555
As2 Dy1 2.968873 1_555
As2 Dy1 2.968873 1_554
As3 Ni7 2.361822 1_555
As3 Ni3 2.390017 1_556
As3 Ni3 2.390017 1_555
As3 Ni2 2.405817 1_555
As3 Ni2 2.405817 1_556
As3 Ni11 2.421820 1_555
As3 Ni6 2.427399 1_555
As3 Dy0 2.980159 1_555
As3 Dy0 2.980159 1_556
As4 Ni8 2.361816 1_555
As4 Ni4 2.390017 1_556
As4 Ni4 2.390017 1_555
As4 Ni0 2.405806 1_656
As4 Ni0 2.405806 1_655
As4 Ni9 2.421818 1_655
As4 Ni7 2.427409 1_555
As4 Dy0 2.980159 1_556
As4 Dy0 2.980159 1_555
As5 Ni6 2.361825 1_555
As5 Ni5 2.390017 1_556
As5 Ni5 2.390017 1_555
As5 Ni1 2.405810 1_546
As5 Ni1 2.405810 1_545
As5 Ni10 2.421811 1_545
As5 Ni8 2.427404 1_555
As5 Dy0 2.980159 1_555
As5 Dy0 2.980159 1_556
As6 Ni5 2.267013 1_455
As6 Ni4 2.267021 1_445
As6 Ni3 2.267022 1_555
As6 Ni9 2.571170 1_544
As6 Ni9 2.571170 1_545
As6 Ni10 2.571170 1_445
As6 Ni10 2.571170 1_444
As6 Ni11 2.571170 1_555
As6 Ni11 2.571170 1_554
