# generated using pymatgen
data_Zr6Zn23Si
_symmetry_space_group_name_H-M   'P 1'
_cell_length_a   8.68646390
_cell_length_b   8.68645953
_cell_length_c   8.68645815
_cell_angle_alpha   59.99949106
_cell_angle_beta   59.99954532
_cell_angle_gamma   59.99935936
_symmetry_Int_Tables_number   1
_chemical_formula_structural   Zr6Zn23Si
_chemical_formula_sum   'Zr6 Zn23 Si1'
_cell_volume   463.45576391
_cell_formula_units_Z   1
loop_
 _symmetry_equiv_pos_site_id
 _symmetry_equiv_pos_as_xyz
  1  'x, y, z'
loop_
 _atom_site_type_symbol
 _atom_site_label
 _atom_site_symmetry_multiplicity
 _atom_site_fract_x
 _atom_site_fract_y
 _atom_site_fract_z
 _atom_site_occupancy
  Zr  Zr0  1  0.71172565  0.28827521  0.28827183  1
  Zr  Zr1  1  0.28827423  0.71172600  0.71172345  1
  Zr  Zr2  1  0.28827646  0.71172418  0.28827263  1
  Zr  Zr3  1  0.71172734  0.28827354  0.71172196  1
  Zr  Zr4  1  0.28827476  0.28827480  0.71172261  1
  Zr  Zr5  1  0.71172608  0.71172637  0.28827126  1
  Zn  Zn0  1  0.12398900  0.12398820  0.12400320  1
  Zn  Zn1  1  0.87599905  0.87600490  0.87601101  1
  Zn  Zn2  1  0.12399444  0.12399532  0.62800921  1
  Zn  Zn3  1  0.12399513  0.62800689  0.12399703  1
  Zn  Zn4  1  0.87600809  0.87600884  0.37199206  1
  Zn  Zn5  1  0.87600532  0.37199171  0.87601153  1
  Zn  Zn6  1  0.62800690  0.12399391  0.12399802  1
  Zn  Zn7  1  0.37199017  0.87600709  0.87601134  1
  Zn  Zn8  1  0.49999835  -0.00000351  -0.00000004  1
  Zn  Zn9  1  0.00000456  0.50000023  0.49999675  1
  Zn  Zn10  1  -0.00000239  0.49999869  0.99999937  1
  Zn  Zn11  1  0.50000001  0.00000379  0.49999715  1
  Zn  Zn12  1  0.00000047  -0.00000083  0.49999603  1
  Zn  Zn13  1  0.49999936  0.50000027  0.00000674  1
  Zn  Zn14  1  0.33437950  0.33437947  0.33437897  1
  Zn  Zn15  1  0.66562352  0.66562416  0.66562312  1
  Zn  Zn16  1  0.33437171  0.33437250  0.99687705  1
  Zn  Zn17  1  0.33437158  0.99687881  0.33437043  1
  Zn  Zn18  1  0.66562575  0.66562587  0.00312435  1
  Zn  Zn19  1  0.66562573  0.00312477  0.66562445  1
  Zn  Zn20  1  0.99688088  0.33437116  0.33436925  1
  Zn  Zn21  1  0.00312689  0.66562520  0.66562393  1
  Zn  Zn22  1  0.00000044  -0.00000008  0.00000570  1
  Si  Si0  1  0.50000100  0.50000253  0.49999064  1
loop_
_geom_bond_atom_site_label_1
_geom_bond_atom_site_label_2
_geom_bond_distance
_geom_bond_site_symmetry_2
Zn0 Zn22 2.638226 1_555
Zn0 Zn12 2.666777 1_555
Zn0 Zn8 2.666892 1_555
Zn0 Zn10 2.666897 1_554
Zn0 Zn20 2.683651 1_455
Zn0 Zn17 2.683653 1_545
Zn0 Zn16 2.683742 1_554
Zn0 Zr0 2.951729 1_455
Zn0 Zr2 2.951731 1_545
Zn0 Zr4 2.951858 1_554
Zn0 Zn4 3.046308 1_445
Zn0 Zn7 3.046378 1_544
Zn0 Zn5 3.046391 1_454
Zn1 Zn22 2.638345 1_666
Zn1 Zn8 2.666831 1_566
Zn1 Zn10 2.666867 1_655
Zn1 Zn12 2.666934 1_665
Zn1 Zn18 2.683668 1_556
Zn1 Zn19 2.683700 1_565
Zn1 Zn21 2.683731 1_655
Zn1 Zr5 2.951708 1_556
Zn1 Zr3 2.951764 1_565
Zn1 Zr1 2.951815 1_655
Zn1 Zn6 3.046397 1_566
Zn1 Zn3 3.046433 1_656
Zn1 Zn2 3.046464 1_665
Zn2 Zn22 2.638357 1_556
Zn2 Zn9 2.666857 1_555
Zn2 Zn20 2.683660 1_455
Zn2 Zr3 2.951755 1_455
Zn2 Zr1 2.951767 1_545
Zn2 Zr4 2.951830 1_555
Zn2 Zn7 3.046530 1_545
Zn2 Zn5 3.046537 1_455
Zn3 Zn9 2.666825 1_555
Zn3 Zr5 2.951764 1_455
Zn3 Zr1 2.951799 1_554
Zn3 Zr2 2.951832 1_555
Zn3 Zn7 3.046522 1_554
Zn3 Zn4 3.046526 1_455
Zn4 Zn9 2.666883 1_655
Zn4 Zr0 2.951739 1_565
Zn4 Zr2 2.951757 1_655
Zn4 Zr5 2.951911 1_555
Zn4 Zn6 3.046513 1_565
Zn5 Zn9 2.666932 1_655
Zn5 Zr0 2.951704 1_556
Zn5 Zr4 2.951770 1_655
Zn5 Zr3 2.951916 1_555
Zn5 Zn6 3.046528 1_556
Zn6 Zn8 2.666882 1_555
Zn6 Zr5 2.951750 1_545
Zn6 Zr3 2.951815 1_554
Zn6 Zr0 2.951828 1_555
Zn7 Zn8 2.666756 1_566
Zn7 Zr2 2.951713 1_556
Zn7 Zr4 2.951756 1_565
Zn7 Zr1 2.951912 1_555
Zn8 Zr2 3.106866 1_545
Zn8 Zr5 3.106879 1_545
Zn8 Zr4 3.106902 1_554
Zn8 Zr3 3.106937 1_554
Zn9 Zr4 3.106871 1_555
Zn9 Zr2 3.106881 1_555
Zn9 Zr5 3.106926 1_455
Zn9 Zr3 3.106934 1_455
Zn10 Zn18 2.507624 1_456
Zn10 Zn20 2.507631 1_456
Zn10 Zn21 2.507642 1_555
Zn10 Zn16 2.507648 1_555
Zn10 Zn5 2.666762 1_455
Zn10 Zn3 2.666878 1_556
Zn10 Zr0 3.106873 1_456
Zn10 Zr5 3.106886 1_456
Zn10 Zr4 3.106902 1_555
Zn10 Zr1 3.106924 1_555
Zn11 Zn14 2.507615 1_555
Zn11 Zn15 2.507662 1_545
Zn11 Zn19 2.507672 1_555
Zn11 Zn17 2.507708 1_545
Zn11 Zn6 2.666821 1_555
Zn11 Zn2 2.666865 1_555
Zn11 Zn4 2.666882 1_545
Zn11 Zn7 2.666927 1_545
Zn11 Zr4 3.106876 1_555
Zn11 Zr0 3.106886 1_555
Zn11 Zr5 3.106922 1_545
Zn11 Zr1 3.106931 1_545
Zn12 Zn17 2.507635 1_545
Zn12 Zn21 2.507639 1_545
Zn12 Zn20 2.507640 1_455
Zn12 Zn19 2.507649 1_455
Zn12 Zn4 2.666759 1_445
Zn12 Zn2 2.666877 1_555
Zn12 Zr2 3.106886 1_545
Zn12 Zr0 3.106887 1_455
Zn12 Zr3 3.106893 1_455
Zn12 Zr1 3.106895 1_545
Zn13 Zn14 2.507610 1_555
Zn13 Zn18 2.507649 1_555
Zn13 Zn15 2.507685 1_554
Zn13 Zn16 2.507736 1_554
Zn13 Zn3 2.666855 1_555
Zn13 Zn6 2.666867 1_555
Zn13 Zn5 2.666867 1_554
Zn13 Zn7 2.666871 1_554
Zn13 Zr2 3.106834 1_555
Zn13 Zr0 3.106839 1_555
Zn13 Zr1 3.106958 1_554
Zn13 Zr3 3.106978 1_554
Zn14 Zn9 2.507614 1_555
Zn14 Zn3 2.683684 1_555
Zn14 Zn6 2.683687 1_555
Zn14 Zn2 2.683712 1_555
Zn14 Zn20 2.931748 1_455
Zn14 Zn17 2.931757 1_545
Zn14 Zn16 2.931760 1_554
Zn14 Zr4 2.932500 1_555
Zn14 Zr2 2.932509 1_555
Zn14 Zr0 2.932517 1_555
Zn15 Zn9 2.507674 1_655
Zn15 Zn5 2.683714 1_555
Zn15 Zn4 2.683714 1_555
Zn15 Zn7 2.683723 1_555
Zn15 Zn19 2.931701 1_565
Zn15 Zn18 2.931707 1_556
Zn15 Zn21 2.931719 1_655
Zn15 Zr1 2.932572 1_555
Zn15 Zr3 2.932580 1_555
Zn15 Zr5 2.932585 1_555
Zn16 Zn8 2.507659 1_556
Zn16 Zn3 2.683651 1_556
Zn16 Zn6 2.683660 1_556
Zn16 Zn20 2.931587 1_456
Zn16 Zn17 2.931601 1_546
Zn16 Zr1 2.932597 1_555
Zn16 Zr4 2.932604 1_555
Zn16 Zr3 2.932617 1_555
Zn17 Zn8 2.507635 1_565
Zn17 Zn6 2.683641 1_565
Zn17 Zn2 2.683668 1_565
Zn17 Zn20 2.931579 1_465
Zn17 Zr1 2.932594 1_555
Zn17 Zr5 2.932596 1_555
Zn17 Zr2 2.932597 1_555
Zn18 Zn8 2.507615 1_565
Zn18 Zn5 2.683615 1_554
Zn18 Zn7 2.683625 1_554
Zn18 Zn19 2.931652 1_564
Zn18 Zn21 2.931667 1_654
Zn18 Zr2 2.932561 1_555
Zn18 Zr0 2.932563 1_555
Zn18 Zr5 2.932574 1_555
Zn19 Zn8 2.507647 1_556
Zn19 Zn4 2.683620 1_545
Zn19 Zn7 2.683655 1_545
Zn19 Zn21 2.931656 1_645
Zn19 Zr4 2.932569 1_555
Zn19 Zr3 2.932581 1_555
Zn19 Zr0 2.932584 1_555
Zn20 Zn9 2.507712 1_655
Zn20 Zn3 2.683639 1_655
Zn20 Zr3 2.932597 1_555
Zn20 Zr5 2.932606 1_555
Zn20 Zr0 2.932606 1_555
Zn21 Zn9 2.507672 1_555
Zn21 Zn4 2.683628 1_455
Zn21 Zn5 2.683658 1_455
Zn21 Zr4 2.932558 1_555
Zn21 Zr1 2.932576 1_555
Zn21 Zr2 2.932577 1_555
Zn22 Zn4 2.638285 1_445
Zn22 Zn7 2.638307 1_544
Zn22 Zn5 2.638319 1_454
Zn22 Zn3 2.638327 1_545
Zn22 Zn6 2.638334 1_455
Si0 Zr2 2.600879 1_555
Si0 Zr0 2.600902 1_555
Si0 Zr5 2.600925 1_555
Si0 Zr4 2.600956 1_555
Si0 Zr1 2.600964 1_555
Si0 Zr3 2.600971 1_555
