# generated using pymatgen
data_Mg3Fe2(Si2O7)2
_symmetry_space_group_name_H-M   'P 1'
_cell_length_a   9.25565775
_cell_length_b   9.25565775
_cell_length_c   10.00450573
_cell_angle_alpha   59.51371588
_cell_angle_beta   59.51371588
_cell_angle_gamma   48.84422530
_symmetry_Int_Tables_number   1
_chemical_formula_structural   Mg3Fe2(Si2O7)2
_chemical_formula_sum   'Mg6 Fe4 Si8 O28'
_cell_volume   535.84781028
_cell_formula_units_Z   2
loop_
 _symmetry_equiv_pos_site_id
 _symmetry_equiv_pos_as_xyz
  1  'x, y, z'
loop_
 _atom_site_type_symbol
 _atom_site_label
 _atom_site_symmetry_multiplicity
 _atom_site_fract_x
 _atom_site_fract_y
 _atom_site_fract_z
 _atom_site_occupancy
  Mg  Mg0  1  0.06894700  0.26830300  0.11053000  1
  Mg  Mg1  1  0.73169700  0.93105300  0.38947000  1
  Mg  Mg2  1  0.26830300  0.06894700  0.61053000  1
  Mg  Mg3  1  0.39450200  0.60549800  0.75000000  1
  Mg  Mg4  1  0.93105300  0.73169700  0.88947000  1
  Mg  Mg5  1  0.60549800  0.39450200  0.25000000  1
  Fe  Fe0  1  0.79862500  0.20137500  0.75000000  1
  Fe  Fe1  1  0.20137500  0.79862500  0.25000000  1
  Fe  Fe2  1  0.00000000  0.00000000  0.00000000  1
  Fe  Fe3  1  0.00000000  0.00000000  0.50000000  1
  Si  Si0  1  0.54473400  0.08679300  0.70621600  1
  Si  Si1  1  0.08679300  0.54473400  0.20621600  1
  Si  Si2  1  0.51794000  0.24794300  0.10052600  1
  Si  Si3  1  0.24794300  0.51794000  0.60052600  1
  Si  Si4  1  0.91320700  0.45526600  0.79378400  1
  Si  Si5  1  0.48206000  0.75205700  0.89947400  1
  Si  Si6  1  0.75205700  0.48206000  0.39947400  1
  Si  Si7  1  0.45526600  0.91320700  0.29378400  1
  O  O0  1  0.83036200  0.30516300  0.32950900  1
  O  O1  1  0.95670600  0.88858900  0.41939800  1
  O  O2  1  0.45721900  0.63609700  0.08940600  1
  O  O3  1  0.88858900  0.95670600  0.91939800  1
  O  O4  1  0.23938800  0.97323000  0.30375100  1
  O  O5  1  0.06629700  0.50425800  0.62679600  1
  O  O6  1  0.63609700  0.45721900  0.58940600  1
  O  O7  1  0.02677000  0.76061200  0.19624900  1
  O  O8  1  0.93370300  0.49574200  0.37320400  1
  O  O9  1  0.61884600  0.68517100  0.27474200  1
  O  O10  1  0.04329400  0.11141100  0.58060200  1
  O  O11  1  0.76061200  0.02677000  0.69624900  1
  O  O12  1  0.49574200  0.93370300  0.87320400  1
  O  O13  1  0.30516300  0.83036200  0.82950900  1
  O  O14  1  0.68517100  0.61884600  0.77474200  1
  O  O15  1  0.97323000  0.23938800  0.80375100  1
  O  O16  1  0.92049500  0.48207000  0.93849600  1
  O  O17  1  0.38115400  0.31482900  0.72525800  1
  O  O18  1  0.51793000  0.07950500  0.56150400  1
  O  O19  1  0.31482900  0.38115400  0.22525800  1
  O  O20  1  0.50425800  0.06629700  0.12679600  1
  O  O21  1  0.11141100  0.04329400  0.08060200  1
  O  O22  1  0.48207000  0.92049500  0.43849600  1
  O  O23  1  0.54278100  0.36390300  0.91059400  1
  O  O24  1  0.07950500  0.51793000  0.06150400  1
  O  O25  1  0.36390300  0.54278100  0.41059400  1
  O  O26  1  0.69483700  0.16963800  0.17049100  1
  O  O27  1  0.16963800  0.69483700  0.67049100  1
loop_
_geom_bond_atom_site_label_1
_geom_bond_atom_site_label_2
_geom_bond_distance
_geom_bond_site_symmetry_2
Mg0 O21 2.004323 1_555
Mg0 O16 2.032458 1_454
Mg0 O0 2.156462 1_455
Mg0 O24 2.164958 1_555
Mg0 O4 2.398103 1_545
Mg1 O1 2.004323 1_555
Mg1 O18 2.032458 1_565
Mg1 O26 2.156462 1_565
Mg1 O22 2.164958 1_555
Mg1 O7 2.398103 1_655
Mg2 O10 2.004323 1_555
Mg2 O22 2.032458 1_545
Mg2 O13 2.156462 1_545
Mg2 O18 2.164958 1_555
Mg2 O15 2.398103 1_455
Mg3 O23 2.004440 1_555
Mg3 O6 2.004440 1_555
Mg3 O13 2.096518 1_555
Mg3 O27 2.096518 1_555
Mg4 O3 2.004323 1_555
Mg4 O24 2.032458 1_656
Mg4 O27 2.156462 1_655
Mg4 O16 2.164958 1_555
Mg4 O11 2.398103 1_565
Mg5 O25 2.004440 1_555
Mg5 O2 2.004440 1_555
Mg5 O0 2.096518 1_555
Mg5 O26 2.096518 1_555
Fe0 O3 1.936383 1_545
Fe0 O10 1.936383 1_655
Fe0 O23 2.086886 1_555
Fe0 O6 2.086886 1_555
Fe0 O11 2.201558 1_555
Fe0 O15 2.201558 1_555
Fe1 O1 1.936383 1_455
Fe1 O21 1.936383 1_565
Fe1 O25 2.086886 1_555
Fe1 O2 2.086886 1_555
Fe1 O7 2.201558 1_555
Fe1 O4 2.201558 1_555
Fe2 O21 1.894631 1_555
Fe2 O3 1.894631 1_444
Fe2 O7 2.045120 1_545
Fe2 O15 2.045120 1_454
Fe2 O26 2.311767 1_455
Fe2 O13 2.311767 1_544
Fe3 O10 1.894631 1_555
Fe3 O1 1.894631 1_445
Fe3 O4 2.045120 1_545
Fe3 O11 2.045120 1_455
Fe3 O0 2.311767 1_455
Fe3 O27 2.311767 1_545
O0 Si6 1.667991 1_555
O2 Si5 1.621001 1_554
O4 Si7 1.644367 1_555
O5 Si4 1.636916 1_455
O5 Si3 1.646159 1_555
O6 Si6 1.621001 1_555
O7 Si1 1.644367 1_555
O8 Si1 1.636916 1_655
O8 Si6 1.646159 1_555
O9 Si7 1.640914 1_555
O9 Si6 1.655752 1_555
O11 Si0 1.644367 1_555
O12 Si0 1.636916 1_565
O12 Si5 1.646159 1_555
O13 Si5 1.667991 1_555
O14 Si4 1.640914 1_555
O14 Si5 1.655752 1_555
O15 Si4 1.644367 1_555
O16 Si4 1.627177 1_555
O17 Si0 1.640914 1_555
O17 Si3 1.655752 1_555
O18 Si0 1.627177 1_555
O19 Si1 1.640914 1_555
O19 Si2 1.655752 1_555
O20 Si7 1.636916 1_545
O20 Si2 1.646159 1_555
O22 Si7 1.627177 1_555
O23 Si2 1.621001 1_556
O24 Si1 1.627177 1_555
O25 Si3 1.621001 1_555
O26 Si2 1.667991 1_555
O27 Si3 1.667991 1_555
