# generated using pymatgen
data_CsFe4As3
_symmetry_space_group_name_H-M   'P 1'
_cell_length_a   3.86968900
_cell_length_b   3.86968900
_cell_length_c   10.16578300
_cell_angle_alpha   90.00000000
_cell_angle_beta   90.00000000
_cell_angle_gamma   90.00000000
_symmetry_Int_Tables_number   1
_chemical_formula_structural   CsFe4As3
_chemical_formula_sum   'Cs1 Fe4 As3'
_cell_volume   152.22744593
_cell_formula_units_Z   1
loop_
 _symmetry_equiv_pos_site_id
 _symmetry_equiv_pos_as_xyz
  1  'x, y, z'
loop_
 _atom_site_type_symbol
 _atom_site_label
 _atom_site_symmetry_multiplicity
 _atom_site_fract_x
 _atom_site_fract_y
 _atom_site_fract_z
 _atom_site_occupancy
  Cs  Cs0  1  0.00000000  0.00000000  0.50000000  1
  Fe  Fe0  1  0.50000000  0.00000000  0.86714200  1
  Fe  Fe1  1  0.00000000  0.50000000  0.86714200  1
  Fe  Fe2  1  0.50000000  0.00000000  0.13285800  1
  Fe  Fe3  1  0.00000000  0.50000000  0.13285800  1
  As  As0  1  0.50000000  0.50000000  0.74181900  1
  As  As1  1  0.50000000  0.50000000  0.25818100  1
  As  As2  1  0.00000000  0.00000000  0.00000000  1
loop_
_geom_bond_atom_site_label_1
_geom_bond_atom_site_label_2
_geom_bond_distance
_geom_bond_site_symmetry_2
As0 Fe0 2.316617 1_555
As0 Fe0 2.316617 1_565
As0 Fe1 2.316617 1_555
As0 Fe1 2.316617 1_655
As0 Cs0 3.678367 1_555
As0 Cs0 3.678367 1_655
As0 Cs0 3.678367 1_665
As0 Cs0 3.678367 1_565
As1 Fe3 2.316617 1_555
As1 Fe2 2.316617 1_555
As1 Fe2 2.316617 1_565
As1 Fe3 2.316617 1_655
As1 Cs0 3.678367 1_555
As1 Cs0 3.678367 1_655
As1 Cs0 3.678367 1_665
As1 Cs0 3.678367 1_565
As2 Fe2 2.359610 1_455
As2 Fe1 2.359610 1_554
As2 Fe3 2.359610 1_545
As2 Fe3 2.359610 1_555
As2 Fe0 2.359610 1_454
As2 Fe1 2.359610 1_544
As2 Fe2 2.359610 1_555
As2 Fe0 2.359610 1_554
