# generated using pymatgen
data_LiFe4(PO4)4
_symmetry_space_group_name_H-M   'P 1'
_cell_length_a   8.01337562
_cell_length_b   8.01337562
_cell_length_c   8.01337595
_cell_angle_alpha   141.06345522
_cell_angle_beta   119.57196727
_cell_angle_gamma   74.25485427
_symmetry_Int_Tables_number   1
_chemical_formula_structural   LiFe4(PO4)4
_chemical_formula_sum   'Li1 Fe4 P4 O16'
_cell_volume   275.23827536
_cell_formula_units_Z   1
loop_
 _symmetry_equiv_pos_site_id
 _symmetry_equiv_pos_as_xyz
  1  'x, y, z'
loop_
 _atom_site_type_symbol
 _atom_site_label
 _atom_site_symmetry_multiplicity
 _atom_site_fract_x
 _atom_site_fract_y
 _atom_site_fract_z
 _atom_site_occupancy
  Li  Li0  1  0.32593400  0.00000000  0.32593400  1
  Fe  Fe0  1  0.12860100  0.13041600  0.99818600  1
  Fe  Fe1  1  0.62278600  0.62286400  0.99992100  1
  Fe  Fe2  1  0.37705700  0.37713600  0.99992100  1
  Fe  Fe3  1  0.86777000  0.86958400  0.99818600  1
  P  P0  1  0.15186100  0.50000000  0.65186100  1
  P  P1  1  0.65942300  0.00000000  0.65942300  1
  P  P2  1  0.09570600  0.74786900  0.34783700  1
  P  P3  1  0.59996800  0.25213100  0.34783700  1
  O  O0  1  0.35673600  0.59857100  0.75816500  1
  O  O1  1  0.86317000  0.09890500  0.76426500  1
  O  O2  1  0.89038800  0.65186500  0.23852300  1
  O  O3  1  0.39461100  0.14884100  0.24576900  1
  O  O4  1  0.15959400  0.40142900  0.75816500  1
  O  O5  1  0.66536000  0.90109500  0.76426500  1
  O  O6  1  0.09692800  0.85115900  0.24576900  1
  O  O7  1  0.58665900  0.34813500  0.23852300  1
  O  O8  1  0.04158100  0.25423500  0.29581600  1
  O  O9  1  0.53541600  0.77069600  0.30611100  1
  O  O10  1  0.21023200  0.50865100  0.22314700  1
  O  O11  1  0.71449600  0.01291600  0.22314700  1
  O  O12  1  0.21023200  0.98708400  0.70158100  1
  O  O13  1  0.71449600  0.49134900  0.70158100  1
  O  O14  1  0.04158100  0.74576500  0.78734600  1
  O  O15  1  0.53541600  0.22930400  0.76472000  1
loop_
_geom_bond_atom_site_label_1
_geom_bond_atom_site_label_2
_geom_bond_distance
_geom_bond_site_symmetry_2
Li0 O6 2.008789 1_545
Li0 O3 2.008794 1_555
Li0 O9 2.086771 1_545
Li0 O15 2.086773 1_555
Fe0 O1 1.929095 1_455
Fe0 O3 2.010639 1_556
Fe0 O10 2.067911 1_556
Fe0 O12 2.067911 1_545
Fe0 O8 2.178003 1_556
Fe0 O14 2.178006 1_545
Fe1 O2 1.959715 1_556
Fe1 O0 1.974362 1_555
Fe1 O9 2.153462 1_556
Fe1 O15 2.153466 1_555
Fe1 O13 2.181856 1_555
Fe1 O11 2.181867 1_566
Fe2 O7 1.959723 1_556
Fe2 O4 1.974357 1_555
Fe2 O15 2.153464 1_555
Fe2 O9 2.153466 1_556
Fe2 O10 2.181862 1_556
Fe2 O12 2.181868 1_545
Fe3 O5 1.929100 1_555
Fe3 O6 2.010629 1_656
Fe3 O11 2.067906 1_566
Fe3 O13 2.067908 1_555
Fe3 O14 2.178009 1_655
Fe3 O8 2.178009 1_666
O0 P0 1.523653 1_555
O1 P1 1.520595 1_555
O2 P2 1.510689 1_655
O3 P3 1.555512 1_555
O4 P0 1.523653 1_555
O5 P1 1.520595 1_565
O6 P2 1.555519 1_555
O7 P3 1.510692 1_555
O8 P0 1.585681 1_555
O9 P1 1.581289 1_565
O10 P2 1.576668 1_555
O11 P3 1.576663 1_555
O12 P2 1.576668 1_555
O13 P3 1.576668 1_555
O14 P0 1.585681 1_555
O15 P1 1.581284 1_555
