# generated using pymatgen
data_Rb4Mn(AsS4)2
_symmetry_space_group_name_H-M   'P 1'
_cell_length_a   9.12099525
_cell_length_b   9.25424215
_cell_length_c   11.23344187
_cell_angle_alpha   105.71085686
_cell_angle_beta   104.14455462
_cell_angle_gamma   92.77873261
_symmetry_Int_Tables_number   1
_chemical_formula_structural   Rb4Mn(AsS4)2
_chemical_formula_sum   'Rb8 Mn2 As4 S16'
_cell_volume   878.39277566
_cell_formula_units_Z   2
loop_
 _symmetry_equiv_pos_site_id
 _symmetry_equiv_pos_as_xyz
  1  'x, y, z'
loop_
 _atom_site_type_symbol
 _atom_site_label
 _atom_site_symmetry_multiplicity
 _atom_site_fract_x
 _atom_site_fract_y
 _atom_site_fract_z
 _atom_site_occupancy
  Rb  Rb0  1  0.43344445  0.51674989  0.75022706  1
  Rb  Rb1  1  0.56655555  0.48325011  0.24977294  1
  Rb  Rb2  1  0.26405129  0.98334637  0.95941575  1
  Rb  Rb3  1  0.73594871  0.01665363  0.04058425  1
  Rb  Rb4  1  0.10204142  0.74045530  0.51926603  1
  Rb  Rb5  1  0.89795858  0.25954470  0.48073397  1
  Rb  Rb6  1  0.88092453  0.31851189  0.87969426  1
  Rb  Rb7  1  0.11907547  0.68148811  0.12030574  1
  Mn  Mn0  1  0.64921895  0.86266213  0.57419866  1
  Mn  Mn1  1  0.35078105  0.13733787  0.42580134  1
  As  As0  1  0.45314254  0.11137456  0.72662153  1
  As  As1  1  0.54685746  0.88862544  0.27337847  1
  As  As2  1  0.86634222  0.68741868  0.75552494  1
  As  As3  1  0.13365778  0.31258132  0.24447506  1
  S  S0  1  0.51429262  0.25894901  0.91768583  1
  S  S1  1  0.48570738  0.74105099  0.08231417  1
  S  S2  1  0.47320366  0.87902488  0.72716858  1
  S  S3  1  0.52679634  0.12097512  0.27283142  1
  S  S4  1  0.23045668  0.13250443  0.61204361  1
  S  S5  1  0.76954332  0.86749557  0.38795639  1
  S  S6  1  0.90453502  0.92353022  0.75409697  1
  S  S7  1  0.09546498  0.07646978  0.24590303  1
  S  S8  1  0.07143541  0.57931527  0.75916028  1
  S  S9  1  0.92856459  0.42068473  0.24083972  1
  S  S10  1  0.60346815  0.16515233  0.61505623  1
  S  S11  1  0.39653185  0.83484767  0.38494377  1
  S  S12  1  0.78521960  0.66913972  0.91522714  1
  S  S13  1  0.21478040  0.33086028  0.08477286  1
  S  S14  1  0.69027391  0.58749872  0.57601586  1
  S  S15  1  0.30972609  0.41250128  0.42398414  1
loop_
_geom_bond_atom_site_label_1
_geom_bond_atom_site_label_2
_geom_bond_distance
_geom_bond_site_symmetry_2
Rb0 S12 3.310312 1_555
Rb0 S8 3.400525 1_555
Rb0 S15 3.404933 1_555
Rb0 S0 3.420145 1_555
Rb0 S2 3.440455 1_555
Rb0 S14 3.540016 1_555
Rb0 S1 3.646058 1_556
Rb0 S4 3.667371 1_555
Rb0 S10 3.776508 1_555
Rb1 S13 3.310312 1_555
Rb1 S9 3.400525 1_555
Rb1 S14 3.404933 1_555
Rb1 S1 3.420145 1_555
Rb1 S3 3.440455 1_555
Rb1 S15 3.540016 1_555
Rb1 S0 3.646058 1_554
Rb1 S5 3.667371 1_555
Rb1 S11 3.776508 1_555
Rb2 S13 3.244118 1_566
Rb2 S1 3.431173 1_556
Rb2 S6 3.437301 1_455
Rb2 S0 3.541233 1_565
Rb2 S2 3.553137 1_555
Rb2 S3 3.593444 1_566
Rb2 S7 3.809099 1_566
Rb2 S8 3.873440 1_555
Rb3 S12 3.244118 1_544
Rb3 S0 3.431173 1_554
Rb3 S7 3.437301 1_655
Rb3 S1 3.541233 1_545
Rb3 S3 3.553137 1_555
Rb3 S2 3.593444 1_544
Rb3 S6 3.809099 1_544
Rb3 S9 3.873440 1_555
Rb4 S5 3.442943 1_455
Rb4 S8 3.473831 1_555
Rb4 S4 3.544698 1_565
Rb4 S2 3.557040 1_555
Rb4 S11 3.566770 1_555
Rb4 S9 3.627384 1_455
Rb4 S6 3.643148 1_455
Rb4 S15 3.705954 1_555
Rb5 S4 3.442943 1_655
Rb5 S9 3.473831 1_555
Rb5 S5 3.544698 1_545
Rb5 S3 3.557040 1_555
Rb5 S10 3.566770 1_555
Rb5 S8 3.627384 1_655
Rb5 S7 3.643148 1_655
Rb5 S14 3.705954 1_555
Rb6 S10 3.308480 1_555
Rb6 S13 3.314819 1_656
Rb6 S12 3.345671 1_555
Rb6 S0 3.509247 1_555
Rb6 S6 3.581865 1_545
Rb6 S8 3.631944 1_655
Rb6 S9 3.816088 1_556
Rb7 S11 3.308480 1_555
Rb7 S12 3.314819 1_454
Rb7 S13 3.345671 1_555
Rb7 S1 3.509247 1_555
Rb7 S7 3.581865 1_565
Rb7 S9 3.631944 1_455
Rb7 S8 3.816088 1_554
Mn0 S14 2.596499 1_555
Mn0 S5 2.598388 1_555
Mn0 S6 2.603947 1_555
Mn0 S2 2.604637 1_555
Mn0 S11 2.673823 1_555
Mn0 S10 2.780652 1_565
Mn1 S15 2.596499 1_555
Mn1 S4 2.598388 1_555
Mn1 S7 2.603947 1_555
Mn1 S3 2.604637 1_555
Mn1 S10 2.673823 1_555
Mn1 S11 2.780652 1_545
As0 S0 2.129901 1_555
As0 S2 2.168345 1_545
As0 S4 2.171965 1_555
As0 S10 2.193118 1_555
As1 S1 2.129901 1_555
As1 S3 2.168345 1_565
As1 S5 2.171965 1_555
As1 S11 2.193118 1_555
As2 S12 2.143717 1_555
As2 S8 2.160575 1_655
As2 S14 2.182614 1_555
As2 S6 2.200884 1_555
As3 S13 2.143717 1_555
As3 S9 2.160575 1_455
As3 S15 2.182614 1_555
As3 S7 2.200884 1_555
