# generated using pymatgen
data_Ba3GaAs3
_symmetry_space_group_name_H-M   'P 1'
_cell_length_a   6.87407500
_cell_length_b   13.59061000
_cell_length_c   20.23640200
_cell_angle_alpha   90.00000000
_cell_angle_beta   90.00000000
_cell_angle_gamma   90.00000000
_symmetry_Int_Tables_number   1
_chemical_formula_structural   Ba3GaAs3
_chemical_formula_sum   'Ba24 Ga8 As24'
_cell_volume   1890.54280260
_cell_formula_units_Z   8
loop_
 _symmetry_equiv_pos_site_id
 _symmetry_equiv_pos_as_xyz
  1  'x, y, z'
loop_
 _atom_site_type_symbol
 _atom_site_label
 _atom_site_symmetry_multiplicity
 _atom_site_fract_x
 _atom_site_fract_y
 _atom_site_fract_z
 _atom_site_occupancy
  Ba  Ba0  1  0.22548400  0.51125800  0.57483300  1
  Ba  Ba1  1  0.27451600  0.01125800  0.92516700  1
  Ba  Ba2  1  0.77451600  0.48874200  0.07483300  1
  Ba  Ba3  1  0.72548400  0.98874200  0.42516700  1
  Ba  Ba4  1  0.77451600  0.48874200  0.42516700  1
  Ba  Ba5  1  0.72548400  0.98874200  0.07483300  1
  Ba  Ba6  1  0.22548400  0.51125800  0.92516700  1
  Ba  Ba7  1  0.27451600  0.01125800  0.57483300  1
  Ba  Ba8  1  0.18834100  0.76598700  0.07418500  1
  Ba  Ba9  1  0.31165900  0.26598700  0.42581500  1
  Ba  Ba10  1  0.81165900  0.23401300  0.57418500  1
  Ba  Ba11  1  0.68834100  0.73401300  0.92581500  1
  Ba  Ba12  1  0.81165900  0.23401300  0.92581500  1
  Ba  Ba13  1  0.68834100  0.73401300  0.57418500  1
  Ba  Ba14  1  0.18834100  0.76598700  0.42581500  1
  Ba  Ba15  1  0.31165900  0.26598700  0.07418500  1
  Ba  Ba16  1  0.81391300  0.76848400  0.25000000  1
  Ba  Ba17  1  0.68608700  0.26848400  0.25000000  1
  Ba  Ba18  1  0.18608700  0.23151600  0.75000000  1
  Ba  Ba19  1  0.31391300  0.73151600  0.75000000  1
  Ba  Ba20  1  0.33682500  0.97920400  0.25000000  1
  Ba  Ba21  1  0.16317500  0.47920400  0.25000000  1
  Ba  Ba22  1  0.66317500  0.02079600  0.75000000  1
  Ba  Ba23  1  0.83682500  0.52079600  0.75000000  1
  Ga  Ga0  1  0.48297100  0.62736400  0.16506200  1
  Ga  Ga1  1  0.01702900  0.12736400  0.33493800  1
  Ga  Ga2  1  0.51702900  0.37263600  0.66506200  1
  Ga  Ga3  1  0.98297100  0.87263600  0.83493800  1
  Ga  Ga4  1  0.51702900  0.37263600  0.83493800  1
  Ga  Ga5  1  0.98297100  0.87263600  0.66506200  1
  Ga  Ga6  1  0.48297100  0.62736400  0.33493800  1
  Ga  Ga7  1  0.01702900  0.12736400  0.16506200  1
  As  As0  1  0.29372000  0.72924100  0.25000000  1
  As  As1  1  0.20628000  0.22924100  0.25000000  1
  As  As2  1  0.70628000  0.27075900  0.75000000  1
  As  As3  1  0.79372000  0.77075900  0.75000000  1
  As  As4  1  0.67416300  0.52241600  0.25000000  1
  As  As5  1  0.82583700  0.02241600  0.25000000  1
  As  As6  1  0.32583700  0.47758400  0.75000000  1
  As  As7  1  0.17416300  0.97758400  0.75000000  1
  As  As8  1  0.27358300  0.51651700  0.09153500  1
  As  As9  1  0.22641700  0.01651700  0.40846500  1
  As  As10  1  0.72641700  0.48348300  0.59153500  1
  As  As11  1  0.77358300  0.98348300  0.90846500  1
  As  As12  1  0.72641700  0.48348300  0.90846500  1
  As  As13  1  0.77358300  0.98348300  0.59153500  1
  As  As14  1  0.27358300  0.51651700  0.40846500  1
  As  As15  1  0.22641700  0.01651700  0.09153500  1
  As  As16  1  0.19229600  0.75956300  0.59251300  1
  As  As17  1  0.30770400  0.25956300  0.90748700  1
  As  As18  1  0.80770400  0.24043700  0.09251300  1
  As  As19  1  0.69229600  0.74043700  0.40748700  1
  As  As20  1  0.80770400  0.24043700  0.40748700  1
  As  As21  1  0.69229600  0.74043700  0.09251300  1
  As  As22  1  0.19229600  0.75956300  0.90748700  1
  As  As23  1  0.30770400  0.25956300  0.59251300  1
loop_
_geom_bond_atom_site_label_1
_geom_bond_atom_site_label_2
_geom_bond_distance
_geom_bond_site_symmetry_2
Ba0 Ga2 3.301465 1_555
Ba1 Ga3 3.301465 1_445
Ba2 Ga0 3.301465 1_555
Ba3 Ga1 3.301465 1_665
Ba4 Ga6 3.301465 1_555
Ba5 Ga7 3.301465 1_665
Ba6 Ga4 3.301465 1_555
Ba7 Ga5 3.301465 1_445
Ba8 Ga0 3.321631 1_555
Ba9 Ga1 3.321631 1_555
Ba10 Ga2 3.321631 1_555
Ba11 Ga3 3.321631 1_555
Ba12 Ga4 3.321631 1_555
Ba13 Ga5 3.321631 1_555
Ba14 Ga6 3.321631 1_555
Ba15 Ga7 3.321631 1_555
Ba16 Ga6 3.436283 1_555
Ba16 Ga0 3.436283 1_555
Ba17 Ga7 3.436283 1_655
Ba17 Ga1 3.436283 1_655
Ba18 Ga2 3.436283 1_555
Ba18 Ga4 3.436283 1_555
Ba19 Ga5 3.436283 1_455
Ba19 Ga3 3.436283 1_455
Ba20 Ga1 3.441143 1_565
Ba20 Ga7 3.441143 1_565
Ba21 Ga0 3.441143 1_555
Ba21 Ga6 3.441143 1_555
Ba22 Ga3 3.441143 1_545
Ba22 Ga5 3.441143 1_545
Ba23 Ga4 3.441143 1_555
Ba23 Ga2 3.441143 1_555
As0 Ga6 2.562002 1_555
As0 Ga0 2.562002 1_555
As0 Ba16 3.341072 1_455
As0 Ba20 3.410047 1_555
As0 Ba21 3.514647 1_555
As0 Ba16 3.615400 1_555
As0 Ba14 3.665040 1_555
As0 Ba8 3.665040 1_555
As1 Ga1 2.562002 1_555
As1 Ga7 2.562002 1_555
As1 Ba17 3.341072 1_555
As1 Ba21 3.410047 1_555
As1 Ba20 3.514647 1_545
As1 Ba17 3.615400 1_455
As1 Ba15 3.665040 1_555
As1 Ba9 3.665040 1_555
As2 Ga4 2.562002 1_555
As2 Ga2 2.562002 1_555
As2 Ba18 3.341072 1_655
As2 Ba22 3.410047 1_555
As2 Ba23 3.514647 1_555
As2 Ba18 3.615400 1_555
As2 Ba12 3.665040 1_555
As2 Ba10 3.665040 1_555
As3 Ga3 2.562002 1_555
As3 Ga5 2.562002 1_555
As3 Ba19 3.341072 1_555
As3 Ba23 3.410047 1_555
As3 Ba22 3.514647 1_565
As3 Ba19 3.615400 1_655
As3 Ba13 3.665040 1_555
As3 Ba11 3.665040 1_555
As4 Ga6 2.591537 1_555
As4 Ga0 2.591537 1_555
As4 Ba21 3.412420 1_655
As4 Ba17 3.452064 1_555
As4 Ba16 3.479457 1_555
As4 Ba21 3.561326 1_555
As4 Ba4 3.640133 1_555
As4 Ba2 3.640133 1_555
As5 Ga1 2.591537 1_655
As5 Ga7 2.591537 1_655
As5 Ba20 3.412420 1_545
As5 Ba16 3.452064 1_545
As5 Ba17 3.479457 1_555
As5 Ba20 3.561326 1_645
As5 Ba5 3.640133 1_545
As5 Ba3 3.640133 1_545
As6 Ga2 2.591537 1_555
As6 Ga4 2.591537 1_555
As6 Ba23 3.412420 1_455
As6 Ba19 3.452064 1_555
As6 Ba18 3.479457 1_555
As6 Ba23 3.561326 1_555
As6 Ba6 3.640133 1_555
As6 Ba0 3.640133 1_555
As7 Ga3 2.591537 1_455
As7 Ga5 2.591537 1_455
As7 Ba22 3.412420 1_565
As7 Ba18 3.452064 1_565
As7 Ba19 3.479457 1_555
As7 Ba22 3.561326 1_465
As7 Ba1 3.640133 1_565
As7 Ba7 3.640133 1_565
As8 Ga0 2.560296 1_555
As8 Ba21 3.334139 1_555
As8 Ba6 3.383641 1_554
As8 Ba15 3.432903 1_555
As8 Ba8 3.458579 1_555
As8 Ba2 3.467839 1_455
As8 Ba2 3.480529 1_555
As9 Ga1 2.560296 1_555
As9 Ba20 3.334139 1_545
As9 Ba7 3.383641 1_555
As9 Ba14 3.432903 1_545
As9 Ba9 3.458579 1_555
As9 Ba3 3.467839 1_545
As9 Ba3 3.480529 1_445
As10 Ga2 2.560296 1_555
As10 Ba23 3.334139 1_555
As10 Ba4 3.383641 1_555
As10 Ba13 3.432903 1_555
As10 Ba10 3.458579 1_555
As10 Ba0 3.467839 1_655
As10 Ba0 3.480529 1_555
As11 Ga3 2.560296 1_555
As11 Ba22 3.334139 1_565
As11 Ba5 3.383641 1_556
As11 Ba12 3.432903 1_565
As11 Ba11 3.458579 1_555
As11 Ba1 3.467839 1_565
As11 Ba1 3.480529 1_665
As12 Ga4 2.560296 1_555
As12 Ba23 3.334139 1_555
As12 Ba2 3.383641 1_556
As12 Ba11 3.432903 1_555
As12 Ba12 3.458579 1_555
As12 Ba6 3.467839 1_655
As12 Ba6 3.480529 1_555
As13 Ga5 2.560296 1_555
As13 Ba22 3.334139 1_565
As13 Ba3 3.383641 1_555
As13 Ba10 3.432903 1_565
As13 Ba13 3.458579 1_555
As13 Ba7 3.467839 1_565
As13 Ba7 3.480529 1_665
As14 Ga6 2.560296 1_555
As14 Ba21 3.334139 1_555
As14 Ba0 3.383641 1_555
As14 Ba9 3.432903 1_555
As14 Ba14 3.458579 1_555
As14 Ba4 3.467839 1_455
As14 Ba4 3.480529 1_555
As15 Ga7 2.560296 1_555
As15 Ba20 3.334139 1_545
As15 Ba1 3.383641 1_554
As15 Ba8 3.432903 1_545
As15 Ba15 3.458579 1_555
As15 Ba5 3.467839 1_545
As15 Ba5 3.480529 1_445
As16 Ga5 2.566599 1_455
As16 Ba19 3.316772 1_555
As16 Ba14 3.374607 1_555
As16 Ba0 3.401189 1_555
As16 Ba13 3.447494 1_555
As16 Ba7 3.485477 1_565
As16 Ba13 3.501284 1_455
As17 Ga4 2.566599 1_555
As17 Ba18 3.316772 1_555
As17 Ba15 3.374607 1_556
As17 Ba1 3.401189 1_555
As17 Ba12 3.447494 1_455
As17 Ba6 3.485477 1_555
As17 Ba12 3.501284 1_555
As18 Ga7 2.566599 1_655
As18 Ba17 3.316772 1_555
As18 Ba12 3.374607 1_554
As18 Ba2 3.401189 1_555
As18 Ba15 3.447494 1_555
As18 Ba5 3.485477 1_545
As18 Ba15 3.501284 1_655
As19 Ga6 2.566599 1_555
As19 Ba16 3.316772 1_555
As19 Ba13 3.374607 1_555
As19 Ba3 3.401189 1_555
As19 Ba14 3.447494 1_655
As19 Ba4 3.485477 1_555
As19 Ba14 3.501284 1_555
As20 Ga1 2.566599 1_655
As20 Ba17 3.316772 1_555
As20 Ba10 3.374607 1_555
As20 Ba4 3.401189 1_555
As20 Ba9 3.447494 1_555
As20 Ba3 3.485477 1_545
As20 Ba9 3.501284 1_655
As21 Ga0 2.566599 1_555
As21 Ba16 3.316772 1_555
As21 Ba11 3.374607 1_554
As21 Ba5 3.401189 1_555
As21 Ba8 3.447494 1_655
As21 Ba2 3.485477 1_555
As21 Ba8 3.501284 1_555
As22 Ga3 2.566599 1_455
As22 Ba19 3.316772 1_555
As22 Ba8 3.374607 1_556
As22 Ba6 3.401189 1_555
As22 Ba11 3.447494 1_555
As22 Ba1 3.485477 1_565
As22 Ba11 3.501284 1_455
As23 Ga2 2.566599 1_555
As23 Ba18 3.316772 1_555
As23 Ba9 3.374607 1_555
As23 Ba7 3.401189 1_555
As23 Ba10 3.447494 1_455
As23 Ba0 3.485477 1_555
As23 Ba10 3.501284 1_555
