# generated using pymatgen
data_NaMg6Ti
_symmetry_space_group_name_H-M   'P 1'
_cell_length_a   5.15680400
_cell_length_b   6.39855900
_cell_length_c   11.10781500
_cell_angle_alpha   90.00000000
_cell_angle_beta   90.00000000
_cell_angle_gamma   90.00000000
_symmetry_Int_Tables_number   1
_chemical_formula_structural   NaMg6Ti
_chemical_formula_sum   'Na2 Mg12 Ti2'
_cell_volume   366.51473720
_cell_formula_units_Z   2
loop_
 _symmetry_equiv_pos_site_id
 _symmetry_equiv_pos_as_xyz
  1  'x, y, z'
loop_
 _atom_site_type_symbol
 _atom_site_label
 _atom_site_symmetry_multiplicity
 _atom_site_fract_x
 _atom_site_fract_y
 _atom_site_fract_z
 _atom_site_occupancy
  Na  Na0  1  0.50000000  0.50000000  0.16625200  1
  Na  Na1  1  0.50000000  0.00000000  0.66625200  1
  Mg  Mg0  1  0.00000000  0.75017000  0.08230600  1
  Mg  Mg1  1  0.00000000  0.24983000  0.08230600  1
  Mg  Mg2  1  0.00000000  0.00000000  0.33517200  1
  Mg  Mg3  1  0.50000000  0.26036300  0.41295900  1
  Mg  Mg4  1  0.50000000  0.73963700  0.41295900  1
  Mg  Mg5  1  0.50000000  0.00000000  0.16711200  1
  Mg  Mg6  1  0.00000000  0.25017000  0.58230600  1
  Mg  Mg7  1  0.00000000  0.74983000  0.58230600  1
  Mg  Mg8  1  0.00000000  0.50000000  0.83517200  1
  Mg  Mg9  1  0.50000000  0.76036300  0.91295900  1
  Mg  Mg10  1  0.50000000  0.23963700  0.91295900  1
  Mg  Mg11  1  0.50000000  0.50000000  0.66711200  1
  Ti  Ti0  1  0.00000000  0.50000000  0.34093300  1
  Ti  Ti1  1  0.00000000  0.00000000  0.84093300  1
loop_
_geom_bond_atom_site_label_1
_geom_bond_atom_site_label_2
_geom_bond_distance
_geom_bond_site_symmetry_2
Na0 Ti0 3.226920 1_655
Na0 Ti0 3.226920 1_555
Na1 Ti1 3.226920 1_555
Na1 Ti1 3.226920 1_655
Mg0 Ti1 3.121507 1_564
Mg0 Na0 3.174895 1_455
Mg0 Na0 3.174895 1_555
Mg0 Mg5 3.176619 1_565
Mg0 Mg5 3.176619 1_465
Mg0 Mg8 3.177736 1_554
Mg0 Mg9 3.192312 1_554
Mg0 Mg9 3.192312 1_454
Mg0 Mg1 3.197104 1_565
Mg0 Mg1 3.201455 1_555
Mg0 Mg2 3.231820 1_565
Mg0 Ti0 3.288647 1_555
Mg1 Ti1 3.121507 1_554
Mg1 Na0 3.174895 1_455
Mg1 Na0 3.174895 1_555
Mg1 Mg5 3.176619 1_555
Mg1 Mg5 3.176619 1_455
Mg1 Mg8 3.177736 1_554
Mg1 Mg10 3.192312 1_554
Mg1 Mg10 3.192312 1_454
Mg1 Mg2 3.231820 1_555
Mg1 Ti0 3.288647 1_555
Mg2 Mg6 3.177736 1_555
Mg2 Mg7 3.177736 1_545
Mg2 Mg5 3.183241 1_555
Mg2 Mg5 3.183241 1_455
Mg2 Mg4 3.189061 1_545
Mg2 Mg3 3.189061 1_455
Mg2 Mg4 3.189061 1_445
Mg2 Mg3 3.189061 1_555
Mg2 Ti0 3.199919 1_555
Mg2 Ti0 3.199919 1_545
Mg3 Mg4 3.066663 1_555
Mg3 Ti0 3.104729 1_655
Mg3 Ti0 3.104729 1_555
Mg3 Na0 3.140185 1_555
Mg3 Mg6 3.192312 1_655
Mg3 Mg6 3.192312 1_555
Mg3 Mg5 3.198871 1_555
Mg3 Na1 3.269762 1_555
Mg3 Mg4 3.331896 1_545
Mg4 Ti0 3.104729 1_655
Mg4 Ti0 3.104729 1_555
Mg4 Na0 3.140185 1_555
Mg4 Mg7 3.192312 1_655
Mg4 Mg7 3.192312 1_555
Mg4 Mg5 3.198871 1_565
Mg4 Na1 3.269762 1_565
Mg5 Na0 3.199294 1_545
Mg5 Na0 3.199294 1_555
Mg5 Mg9 3.212618 1_544
Mg6 Ti0 3.121507 1_555
Mg6 Na1 3.174895 1_455
Mg6 Na1 3.174895 1_555
Mg6 Mg7 3.197104 1_555
Mg6 Mg7 3.201455 1_545
Mg6 Mg8 3.231820 1_555
Mg6 Ti1 3.288647 1_555
Mg7 Ti0 3.121507 1_555
Mg7 Na1 3.174895 1_465
Mg7 Na1 3.174895 1_565
Mg7 Mg8 3.231820 1_555
Mg7 Ti1 3.288647 1_565
Mg8 Mg9 3.189061 1_555
Mg8 Mg9 3.189061 1_455
Mg8 Ti1 3.199919 1_555
Mg8 Ti1 3.199919 1_565
Mg9 Ti1 3.104729 1_565
Mg9 Ti1 3.104729 1_665
Mg9 Na1 3.140185 1_565
Mg9 Na0 3.269762 1_556
Mg10 Mg9 3.066663 1_545
Mg10 Ti1 3.104729 1_555
Mg10 Ti1 3.104729 1_655
Mg10 Na1 3.140185 1_555
Mg10 Mg8 3.189061 1_655
Mg10 Mg8 3.189061 1_555
Mg10 Mg11 3.198871 1_555
Mg10 Mg5 3.212618 1_556
Mg10 Na0 3.269762 1_556
Mg10 Mg9 3.331896 1_555
Mg11 Mg7 3.176619 1_655
Mg11 Mg6 3.176619 1_555
Mg11 Mg6 3.176619 1_655
Mg11 Mg7 3.176619 1_555
Mg11 Mg8 3.183241 1_555
Mg11 Mg8 3.183241 1_655
Mg11 Mg9 3.198871 1_555
Mg11 Na1 3.199294 1_565
Mg11 Na1 3.199294 1_555
Mg11 Mg3 3.212618 1_555
Mg11 Mg4 3.212618 1_555
