# generated using pymatgen
data_MgCoP2O7
_symmetry_space_group_name_H-M   'P 1'
_cell_length_a   8.40766200
_cell_length_b   7.04067800
_cell_length_c   9.17022699
_cell_angle_alpha   66.83778135
_cell_angle_beta   90.00000000
_cell_angle_gamma   90.00000000
_symmetry_Int_Tables_number   1
_chemical_formula_structural   MgCoP2O7
_chemical_formula_sum   'Mg4 Co4 P8 O28'
_cell_volume   499.08199995
_cell_formula_units_Z   4
loop_
 _symmetry_equiv_pos_site_id
 _symmetry_equiv_pos_as_xyz
  1  'x, y, z'
loop_
 _atom_site_type_symbol
 _atom_site_label
 _atom_site_symmetry_multiplicity
 _atom_site_fract_x
 _atom_site_fract_y
 _atom_site_fract_z
 _atom_site_occupancy
  Mg  Mg0  1  0.94006700  0.69501800  0.18126200  1
  Mg  Mg1  1  0.44006700  0.30498200  0.31873800  1
  Mg  Mg2  1  0.55993300  0.69501800  0.68126200  1
  Mg  Mg3  1  0.05993300  0.30498200  0.81873800  1
  Co  Co0  1  0.07263800  0.23233400  0.39203700  1
  Co  Co1  1  0.92736200  0.76766600  0.60796300  1
  Co  Co2  1  0.57263800  0.76766600  0.10796300  1
  Co  Co3  1  0.42736200  0.23233400  0.89203700  1
  P  P0  1  0.73367700  0.05991100  0.75902500  1
  P  P1  1  0.22660100  0.53189900  0.03169900  1
  P  P2  1  0.76632300  0.05991100  0.25902500  1
  P  P3  1  0.27339900  0.53189900  0.53169900  1
  P  P4  1  0.23367700  0.94008900  0.74097500  1
  P  P5  1  0.72660100  0.46810100  0.46830100  1
  P  P6  1  0.77339900  0.46810100  0.96830100  1
  P  P7  1  0.26632300  0.94008900  0.24097500  1
  O  O0  1  0.17510500  0.74956300  0.89893000  1
  O  O1  1  0.60978700  0.11352500  0.31335500  1
  O  O2  1  0.89021300  0.11352500  0.81335500  1
  O  O3  1  0.38918900  0.54983700  0.10335200  1
  O  O4  1  0.82489500  0.25043700  0.10107000  1
  O  O5  1  0.09680300  0.97456300  0.62112800  1
  O  O6  1  0.61081100  0.45016300  0.89664800  1
  O  O7  1  0.09155900  0.48804700  0.15305200  1
  O  O8  1  0.26675000  0.37733800  0.45098500  1
  O  O9  1  0.90319700  0.02543700  0.37887200  1
  O  O10  1  0.40319700  0.97456300  0.12112800  1
  O  O11  1  0.75901000  0.87976700  0.20365600  1
  O  O12  1  0.25901000  0.12023300  0.29634400  1
  O  O13  1  0.32489500  0.74956300  0.39893000  1
  O  O14  1  0.59680300  0.02543700  0.87887200  1
  O  O15  1  0.10978700  0.88647500  0.18664500  1
  O  O16  1  0.24099000  0.12023300  0.79634400  1
  O  O17  1  0.90844100  0.51195300  0.84694800  1
  O  O18  1  0.23325000  0.37733800  0.95098500  1
  O  O19  1  0.76675000  0.62266200  0.04901500  1
  O  O20  1  0.88918900  0.45016300  0.39664800  1
  O  O21  1  0.40844100  0.48804700  0.65305200  1
  O  O22  1  0.59155900  0.51195300  0.34694800  1
  O  O23  1  0.39021300  0.88647500  0.68664500  1
  O  O24  1  0.74099000  0.87976700  0.70365600  1
  O  O25  1  0.11081100  0.54983700  0.60335200  1
  O  O26  1  0.73325000  0.62266200  0.54901500  1
  O  O27  1  0.67510500  0.25043700  0.60107000  1
loop_
_geom_bond_atom_site_label_1
_geom_bond_atom_site_label_2
_geom_bond_distance
_geom_bond_site_symmetry_2
Mg0 O15 1.976875 1_655
Mg0 O7 2.027128 1_655
Mg0 O11 2.064358 1_555
Mg0 O19 2.083187 1_555
Mg0 O20 2.092248 1_555
Mg1 O1 1.976875 1_555
Mg1 O22 2.027128 1_555
Mg1 O12 2.064358 1_555
Mg1 O8 2.083187 1_555
Mg1 O3 2.092248 1_555
Mg2 O23 1.976875 1_555
Mg2 O21 2.027128 1_555
Mg2 O24 2.064358 1_555
Mg2 O26 2.083187 1_555
Mg2 O6 2.092248 1_555
Mg3 O2 1.976875 1_455
Mg3 O17 2.027128 1_455
Mg3 O16 2.064358 1_555
Mg3 O18 2.083187 1_555
Mg3 O25 2.092248 1_555
Co0 O9 2.074698 1_455
Co0 O12 2.095993 1_555
Co0 O8 2.105271 1_555
Co0 O5 2.179252 1_545
Co0 O20 2.187203 1_455
Co0 O7 2.228379 1_555
Co1 O5 2.074698 1_655
Co1 O24 2.095993 1_555
Co1 O26 2.105271 1_555
Co1 O9 2.179252 1_565
Co1 O25 2.187203 1_655
Co1 O17 2.228379 1_555
Co2 O10 2.074698 1_555
Co2 O11 2.095993 1_555
Co2 O19 2.105271 1_555
Co2 O14 2.179252 1_564
Co2 O3 2.187203 1_555
Co2 O22 2.228379 1_555
Co3 O14 2.074698 1_555
Co3 O16 2.095993 1_555
Co3 O18 2.105271 1_555
Co3 O10 2.179252 1_546
Co3 O6 2.187203 1_555
Co3 O21 2.228379 1_555
O0 P1 1.597048 1_556
O0 P4 1.616019 1_555
O1 P2 1.506912 1_555
O2 P0 1.506912 1_555
O3 P1 1.543252 1_555
O4 P6 1.597048 1_554
O4 P2 1.616019 1_555
O5 P4 1.543126 1_555
O6 P6 1.543252 1_555
O7 P1 1.533800 1_555
O8 P3 1.539095 1_555
O9 P2 1.543126 1_555
O10 P7 1.543126 1_555
O11 P2 1.541711 1_565
O12 P7 1.541711 1_545
O13 P3 1.597048 1_555
O13 P7 1.616019 1_555
O14 P0 1.543126 1_555
O15 P7 1.506912 1_555
O16 P4 1.541711 1_545
O17 P6 1.533800 1_555
O18 P1 1.539095 1_556
O19 P6 1.539095 1_554
O20 P5 1.543252 1_555
O21 P3 1.533800 1_555
O22 P5 1.533800 1_555
O23 P4 1.506912 1_555
O24 P0 1.541711 1_565
O25 P3 1.543252 1_555
O26 P5 1.539095 1_555
O27 P5 1.597048 1_555
O27 P0 1.616019 1_555
