# generated using pymatgen
data_SnH12C2(NCl)6
_symmetry_space_group_name_H-M   'P 1'
_cell_length_a   8.69061800
_cell_length_b   8.76870445
_cell_length_c   14.09305078
_cell_angle_alpha   78.81188340
_cell_angle_beta   72.04138844
_cell_angle_gamma   60.29414469
_symmetry_Int_Tables_number   1
_chemical_formula_structural   SnH12C2(NCl)6
_chemical_formula_sum   'Sn2 H24 C4 N12 Cl12'
_cell_volume   886.27381203
_cell_formula_units_Z   2
loop_
 _symmetry_equiv_pos_site_id
 _symmetry_equiv_pos_as_xyz
  1  'x, y, z'
loop_
 _atom_site_type_symbol
 _atom_site_label
 _atom_site_symmetry_multiplicity
 _atom_site_fract_x
 _atom_site_fract_y
 _atom_site_fract_z
 _atom_site_occupancy
  Sn  Sn0  1  0.65632900  0.25000000  0.75000000  1
  Sn  Sn1  1  0.34367100  0.75000000  0.25000000  1
  H  H0  1  0.51123500  0.87868700  0.87725500  1
  H  H1  1  0.26717800  0.62131300  0.62274500  1
  H  H2  1  0.48876500  0.12131300  0.12274500  1
  H  H3  1  0.73282200  0.37868700  0.37725500  1
  H  H4  1  0.50990400  0.68109800  0.87564900  1
  H  H5  1  0.06665100  0.81890200  0.62435100  1
  H  H6  1  0.49009600  0.31890200  0.12435100  1
  H  H7  1  0.93334900  0.18109800  0.37564900  1
  H  H8  1  0.24790100  0.68355800  0.85850000  1
  H  H9  1  0.78995900  0.81644200  0.64150000  1
  H  H10  1  0.75209900  0.31644200  0.14150000  1
  H  H11  1  0.21004100  0.18355800  0.35850000  1
  H  H12  1  0.05191800  0.88269400  0.85224000  1
  H  H13  1  0.78685300  0.61730600  0.64776000  1
  H  H14  1  0.94808200  0.11730600  0.14776000  1
  H  H15  1  0.21314700  0.38269400  0.35224000  1
  H  H16  1  0.05304100  0.14920800  0.85635200  1
  H  H17  1  0.05860100  0.35079200  0.64364800  1
  H  H18  1  0.94695900  0.85079200  0.14364800  1
  H  H19  1  0.94139900  0.64920800  0.35635200  1
  H  H20  1  0.25026000  0.14734800  0.86418400  1
  H  H21  1  0.26179200  0.35265200  0.63581600  1
  H  H22  1  0.74974000  0.85265200  0.13581600  1
  H  H23  1  0.73820800  0.64734800  0.36418400  1
  C  C0  1  0.27022100  0.90332900  0.86531400  1
  C  C1  1  0.03886500  0.59667100  0.63468600  1
  C  C2  1  0.72977900  0.09667100  0.13468600  1
  C  C3  1  0.96113500  0.40332900  0.36531400  1
  N  N0  1  0.44368700  0.81469900  0.87178900  1
  N  N1  1  0.13017500  0.68530100  0.62821100  1
  N  N2  1  0.55631300  0.18530100  0.12821100  1
  N  N3  1  0.86982500  0.31469900  0.37178900  1
  N  N4  1  0.18210800  0.81686200  0.86088200  1
  N  N5  1  0.85985200  0.68313800  0.63911800  1
  N  N6  1  0.81789200  0.18313800  0.13911800  1
  N  N7  1  0.14014800  0.31686200  0.36088200  1
  N  N8  1  0.18371000  0.07926200  0.86378800  1
  N  N9  1  0.12676100  0.42073800  0.63621200  1
  N  N10  1  0.81629000  0.92073800  0.13621200  1
  N  N11  1  0.87323900  0.57926200  0.36378800  1
  Cl  Cl0  1  0.74540500  0.37085500  0.85749400  1
  Cl  Cl1  1  0.97375300  0.12914500  0.64250600  1
  Cl  Cl2  1  0.25459500  0.62914500  0.14250600  1
  Cl  Cl3  1  0.02624700  0.87085500  0.35749400  1
  Cl  Cl4  1  0.74353500  0.97254100  0.85513900  1
  Cl  Cl5  1  0.57121500  0.52745900  0.64486100  1
  Cl  Cl6  1  0.25646500  0.02745900  0.14486100  1
  Cl  Cl7  1  0.42878500  0.47254100  0.35513900  1
  Cl  Cl8  1  0.34090600  0.37098500  0.85861100  1
  Cl  Cl9  1  0.57050200  0.12901500  0.64138900  1
  Cl  Cl10  1  0.65909400  0.62901500  0.14138900  1
  Cl  Cl11  1  0.42949800  0.87098500  0.35861100  1
loop_
_geom_bond_atom_site_label_1
_geom_bond_atom_site_label_2
_geom_bond_distance
_geom_bond_site_symmetry_2
H0 N0 1.018073 1_555
H1 N1 1.018080 1_555
H2 N2 1.018073 1_555
H3 N3 1.018080 1_555
H4 N0 1.016349 1_555
H5 N1 1.016349 1_555
H6 N2 1.016349 1_555
H7 N3 1.016349 1_555
H8 N4 1.017537 1_555
H9 N5 1.017537 1_555
H10 N6 1.017537 1_555
H11 N7 1.017537 1_555
H12 N4 1.019107 1_555
H13 N5 1.019099 1_555
H14 N6 1.019107 1_555
H15 N7 1.019099 1_555
H16 N8 1.017292 1_555
H17 N9 1.017299 1_555
H18 N10 1.017292 1_555
H19 N11 1.017299 1_555
H20 N8 1.018075 1_555
H21 N9 1.018068 1_555
H22 N10 1.018075 1_555
H23 N11 1.018068 1_555
C0 N0 1.334577 1_555
C0 N4 1.337332 1_555
C0 N8 1.339112 1_565
C1 N1 1.334570 1_555
C1 N5 1.337340 1_455
C1 N9 1.339112 1_555
C2 N2 1.334577 1_555
C2 N6 1.337332 1_555
C2 N10 1.339112 1_545
C3 N3 1.334570 1_555
C3 N7 1.337340 1_655
C3 N11 1.339112 1_555
Cl0 Sn0 2.485267 1_555
Cl1 Sn0 2.485261 1_555
Cl2 Sn1 2.485267 1_555
Cl3 Sn1 2.485261 1_555
Cl4 Sn0 2.480977 1_565
Cl5 Sn0 2.480977 1_555
Cl6 Sn1 2.480977 1_545
Cl7 Sn1 2.480977 1_555
Cl8 Sn0 2.478547 1_555
Cl9 Sn0 2.478547 1_555
Cl10 Sn1 2.478547 1_555
Cl11 Sn1 2.478547 1_555
