# generated using pymatgen
data_CoP2O7
_symmetry_space_group_name_H-M   'P 1'
_cell_length_a   8.71990403
_cell_length_b   5.09703270
_cell_length_c   12.28878446
_cell_angle_alpha   90.04736511
_cell_angle_beta   76.73376860
_cell_angle_gamma   89.77388956
_symmetry_Int_Tables_number   1
_chemical_formula_structural   CoP2O7
_chemical_formula_sum   'Co4 P8 O28'
_cell_volume   531.60258131
_cell_formula_units_Z   4
loop_
 _symmetry_equiv_pos_site_id
 _symmetry_equiv_pos_as_xyz
  1  'x, y, z'
loop_
 _atom_site_type_symbol
 _atom_site_label
 _atom_site_symmetry_multiplicity
 _atom_site_fract_x
 _atom_site_fract_y
 _atom_site_fract_z
 _atom_site_occupancy
  Co  Co0  1  0.75776845  0.75240067  0.96949703  1
  Co  Co1  1  0.73937313  0.24851357  0.53222280  1
  Co  Co2  1  0.25925689  0.74891326  0.47144664  1
  Co  Co3  1  0.24041214  0.24855711  0.02862826  1
  P  P0  1  0.56032650  0.26978698  0.11782269  1
  P  P1  1  0.42749082  0.73446527  0.88471486  1
  P  P2  1  0.51946522  0.73747153  0.63783074  1
  P  P3  1  0.93868732  0.76691378  0.38310770  1
  P  P4  1  0.03227782  0.76178639  0.13252569  1
  P  P5  1  0.07430171  0.23730241  0.61542182  1
  P  P6  1  0.46556536  0.26018460  0.36682687  1
  P  P7  1  0.98208147  0.23639594  0.86162159  1
  O  O0  1  0.66609164  0.06647560  0.04740965  1
  O  O1  1  0.90421482  0.96993001  0.85614428  1
  O  O2  1  0.85675595  0.45252171  0.87914846  1
  O  O3  1  0.89808598  0.26124611  0.62321250  1
  O  O4  1  0.10721382  0.03411397  0.13860782  1
  O  O5  1  0.15659330  0.54135334  0.11718985  1
  O  O6  1  0.11591605  0.73696792  0.37683037  1
  O  O7  1  0.12955901  0.95311269  0.58400312  1
  O  O8  1  0.09903701  0.28097230  0.74068993  1
  O  O9  1  0.17686318  0.43554191  0.54272973  1
  O  O10  1  0.07908416  0.25794634  0.94837845  1
  O  O11  1  0.38439557  0.23487214  0.12313795  1
  O  O12  1  0.34427702  0.03996146  0.38189396  1
  O  O13  1  0.39246191  0.53603742  0.36065561  1
  O  O14  1  0.42123830  0.75900425  0.55134614  1
  O  O15  1  0.32365061  0.93574091  0.95718691  1
  O  O16  1  0.40349374  0.78152328  0.75944542  1
  O  O17  1  0.92368500  0.72116262  0.25594885  1
  O  O18  1  0.37047106  0.45440203  0.91671453  1
  O  O19  1  0.57643084  0.22022956  0.24387272  1
  O  O20  1  0.87657844  0.04437874  0.41423470  1
  O  O21  1  0.57366819  0.24507497  0.44590528  1
  O  O22  1  0.59728627  0.46950109  0.64323676  1
  O  O23  1  0.64292084  0.95391459  0.62045648  1
  O  O24  1  0.60430180  0.75945795  0.87725605  1
  O  O25  1  0.92242306  0.74392512  0.05406388  1
  O  O26  1  0.83441161  0.56237768  0.45158171  1
  O  O27  1  0.62188798  0.54555976  0.08705121  1
loop_
_geom_bond_atom_site_label_1
_geom_bond_atom_site_label_2
_geom_bond_distance
_geom_bond_site_symmetry_2
Co0 O0 1.937674 1_566
Co0 O24 1.942389 1_555
Co0 O25 1.956445 1_556
Co0 O27 1.956802 1_556
Co0 O2 1.964941 1_555
Co0 O1 1.999439 1_555
Co1 O23 1.931816 1_545
Co1 O20 1.951369 1_555
Co1 O26 1.965778 1_555
Co1 O22 1.968661 1_555
Co1 O3 1.969932 1_555
Co1 O21 1.979116 1_555
Co2 O7 1.883061 1_555
Co2 O9 1.886084 1_555
Co2 O6 1.893515 1_555
Co2 O12 1.896936 1_565
Co2 O14 1.897037 1_555
Co2 O13 1.908384 1_555
Co3 O15 1.880400 1_544
Co3 O5 1.889312 1_555
Co3 O18 1.890596 1_554
Co3 O10 1.894748 1_554
Co3 O11 1.897036 1_555
Co3 O4 1.913725 1_555
O0 P0 1.515883 1_555
O1 P7 1.529159 1_565
O2 P7 1.528484 1_555
O3 P5 1.521886 1_655
O4 P4 1.545536 1_545
O5 P4 1.539242 1_555
O6 P3 1.536544 1_455
O7 P5 1.545201 1_565
O8 P7 1.614622 1_455
O8 P5 1.618022 1_555
O9 P5 1.503577 1_555
O10 P7 1.509504 1_455
O11 P0 1.531531 1_555
O12 P6 1.527305 1_555
O13 P6 1.550584 1_555
O14 P2 1.514085 1_555
O15 P1 1.512146 1_555
O16 P2 1.615738 1_555
O16 P1 1.618380 1_555
O17 P4 1.607136 1_655
O17 P3 1.614545 1_555
O18 P1 1.535050 1_555
O19 P0 1.607212 1_555
O19 P6 1.608288 1_555
O20 P3 1.528957 1_545
O21 P6 1.502942 1_555
O22 P2 1.531007 1_555
O23 P2 1.525073 1_555
O24 P1 1.529186 1_555
O25 P4 1.509977 1_655
O26 P3 1.509795 1_555
O27 P0 1.523353 1_555
