# generated using pymatgen
data_SiC
_symmetry_space_group_name_H-M   'P 1'
_cell_length_a   3.07678129
_cell_length_b   3.07678129
_cell_length_c   47.84022062
_cell_angle_alpha   88.15725281
_cell_angle_beta   88.15725281
_cell_angle_gamma   59.99983980
_symmetry_Int_Tables_number   1
_chemical_formula_structural   SiC
_chemical_formula_sum   'Si19 C19'
_cell_volume   391.93745257
_cell_formula_units_Z   19
loop_
 _symmetry_equiv_pos_site_id
 _symmetry_equiv_pos_as_xyz
  1  'x, y, z'
loop_
 _atom_site_type_symbol
 _atom_site_label
 _atom_site_symmetry_multiplicity
 _atom_site_fract_x
 _atom_site_fract_y
 _atom_site_fract_z
 _atom_site_occupancy
  Si  Si0  1  0.00001098  0.00001098  -0.00000012  1
  Si  Si1  1  0.92981760  0.92981760  0.21053080  1
  Si  Si2  1  0.89472145  0.89472145  0.31580303  1
  Si  Si3  1  0.82457891  0.82457891  0.52625294  1
  Si  Si4  1  0.78946462  0.78946462  0.63154970  1
  Si  Si5  1  0.71930885  0.71930885  0.84203646  1
  Si  Si6  1  0.68419033  0.68419033  0.94740885  1
  Si  Si7  1  0.63159899  0.63159899  0.10525658  1
  Si  Si8  1  0.57892137  0.57892137  0.26318120  1
  Si  Si9  1  0.52633948  0.52633948  0.42104139  1
  Si  Si10  1  0.47367382  0.47367382  0.57889398  1
  Si  Si11  1  0.42107204  0.42107204  0.73682089  1
  Si  Si12  1  0.36841942  0.36841942  0.89472457  1
  Si  Si13  1  0.31581059  0.31581059  0.05257709  1
  Si  Si14  1  0.28069088  0.28069088  0.15794137  1
  Si  Si15  1  0.21057031  0.21057031  0.36836500  1
  Si  Si16  1  0.17543814  0.17543814  0.47369670  1
  Si  Si17  1  0.10528643  0.10528643  0.68414504  1
  Si  Si18  1  0.07017624  0.07017624  0.78946540  1
  C  C0  1  0.98683913  0.98683913  0.03948027  1
  C  C1  1  0.91666527  0.91666527  0.24998902  1
  C  C2  1  0.88158976  0.88158976  0.35525918  1
  C  C3  1  0.81143175  0.81143175  0.56569994  1
  C  C4  1  0.77633372  0.77633372  0.67103008  1
  C  C5  1  0.70617337  0.70617337  0.88150899  1
  C  C6  1  0.67104552  0.67104552  0.98688863  1
  C  C7  1  0.61837615  0.61837615  0.14486238  1
  C  C8  1  0.56574827  0.56574827  0.30274656  1
  C  C9  1  0.51312463  0.51312463  0.46062954  1
  C  C10  1  0.46050866  0.46050866  0.61847640  1
  C  C11  1  0.40786489  0.40786489  0.77640286  1
  C  C12  1  0.35522190  0.35522190  0.93432977  1
  C  C13  1  0.30265887  0.30265887  0.09204795  1
  C  C14  1  0.26752021  0.26752021  0.19742432  1
  C  C15  1  0.19738772  0.19738772  0.40783153  1
  C  C16  1  0.16228249  0.16228249  0.51315788  1
  C  C17  1  0.09212975  0.09212975  0.72361760  1
  C  C18  1  0.05700849  0.05700849  0.82892825  1
loop_
_geom_bond_atom_site_label_1
_geom_bond_atom_site_label_2
_geom_bond_distance
_geom_bond_site_symmetry_2
C0 Si13 1.883484 1_655
C0 Si13 1.883484 1_565
C0 Si13 1.883516 1_665
C0 Si0 1.887448 1_665
C1 Si8 1.884981 1_655
C1 Si8 1.884981 1_565
C1 Si8 1.885084 1_555
C1 Si1 1.886388 1_555
C2 Si15 1.883597 1_565
C2 Si15 1.883597 1_655
C2 Si15 1.883720 1_665
C2 Si2 1.886289 1_555
C3 Si10 1.884977 1_565
C3 Si10 1.884977 1_655
C3 Si10 1.885181 1_555
C3 Si3 1.885852 1_555
C4 Si17 1.883740 1_665
C4 Si17 1.883804 1_565
C4 Si17 1.883804 1_655
C4 Si4 1.887448 1_555
C5 Si12 1.885349 1_655
C5 Si12 1.885349 1_565
C5 Si12 1.885470 1_555
C5 Si5 1.887072 1_555
C6 Si0 1.883717 1_566
C6 Si0 1.883717 1_656
C6 Si0 1.883739 1_666
C6 Si6 1.887419 1_555
C7 Si14 1.883176 1_555
C7 Si14 1.883229 1_565
C7 Si14 1.883229 1_655
C7 Si7 1.893444 1_555
C8 Si2 1.882817 1_555
C8 Si2 1.882873 1_545
C8 Si2 1.882873 1_455
C8 Si8 1.891510 1_555
C9 Si16 1.883014 1_555
C9 Si16 1.883029 1_565
C9 Si16 1.883029 1_655
C9 Si9 1.892600 1_555
C10 Si4 1.883025 1_555
C10 Si4 1.883169 1_545
C10 Si4 1.883169 1_455
C10 Si10 1.892326 1_555
C11 Si18 1.882946 1_565
C11 Si18 1.882946 1_655
C11 Si18 1.882959 1_555
C11 Si11 1.892304 1_555
C12 Si6 1.883189 1_555
C12 Si6 1.883225 1_545
C12 Si6 1.883225 1_455
C12 Si12 1.893415 1_555
C13 Si7 1.885253 1_455
C13 Si7 1.885253 1_545
C13 Si7 1.885329 1_555
C13 Si13 1.886992 1_555
C14 Si1 1.883646 1_545
C14 Si1 1.883646 1_455
C14 Si1 1.883654 1_445
C14 Si14 1.887570 1_555
C15 Si9 1.885242 1_455
C15 Si9 1.885242 1_545
C15 Si9 1.885409 1_555
C15 Si15 1.886785 1_555
C16 Si3 1.883452 1_545
C16 Si3 1.883452 1_455
C16 Si3 1.883496 1_445
C16 Si16 1.886530 1_555
C17 Si11 1.885166 1_455
C17 Si11 1.885166 1_545
C17 Si11 1.885246 1_555
C17 Si17 1.887074 1_555
C18 Si5 1.883663 1_445
C18 Si5 1.883682 1_455
C18 Si5 1.883682 1_545
C18 Si18 1.886610 1_555
