# generated using pymatgen
data_Li5Cr2Co3O10
_symmetry_space_group_name_H-M   'P 1'
_cell_length_a   5.07623980
_cell_length_b   7.80439641
_cell_length_c   10.15990189
_cell_angle_alpha   109.30855763
_cell_angle_beta   99.45585543
_cell_angle_gamma   70.65727478
_symmetry_Int_Tables_number   1
_chemical_formula_structural   Li5Cr2Co3O10
_chemical_formula_sum   'Li10 Cr4 Co6 O20'
_cell_volume   357.74414500
_cell_formula_units_Z   2
loop_
 _symmetry_equiv_pos_site_id
 _symmetry_equiv_pos_as_xyz
  1  'x, y, z'
loop_
 _atom_site_type_symbol
 _atom_site_label
 _atom_site_symmetry_multiplicity
 _atom_site_fract_x
 _atom_site_fract_y
 _atom_site_fract_z
 _atom_site_occupancy
  Li  Li0  1  0.00618000  0.50424500  0.25013600  1
  Li  Li1  1  0.99899300  0.50232500  0.75109900  1
  Li  Li2  1  0.50147200  0.41709500  0.10497200  1
  Li  Li3  1  0.49572300  0.41398200  0.60250800  1
  Li  Li4  1  0.49072900  0.58852600  0.39226600  1
  Li  Li5  1  0.50019000  0.58588900  0.89937700  1
  Li  Li6  1  0.51172700  0.78229700  0.20337900  1
  Li  Li7  1  0.51399000  0.78764100  0.69830400  1
  Li  Li8  1  0.49235400  0.21247700  0.30225500  1
  Li  Li9  1  0.48484100  0.21310400  0.79812800  1
  Cr  Cr0  1  0.00532600  0.69459800  0.05533400  1
  Cr  Cr1  1  0.99985300  0.69634500  0.54706800  1
  Cr  Cr2  1  0.99928200  0.30313300  0.44984400  1
  Cr  Cr3  1  0.00072400  0.30392500  0.94927500  1
  Co  Co0  1  0.49971100  0.99867200  0.49743700  1
  Co  Co1  1  0.50210400  0.99829500  0.00094500  1
  Co  Co2  1  0.99925200  0.89875600  0.35043800  1
  Co  Co3  1  0.00955000  0.88859200  0.84544400  1
  Co  Co4  1  0.99351300  0.10972500  0.15659500  1
  Co  Co5  1  0.98733400  0.11439600  0.65540100  1
  O  O0  1  0.23332100  0.85939200  0.02683000  1
  O  O1  1  0.23221900  0.86649400  0.51763700  1
  O  O2  1  0.75703700  0.13264300  0.47275600  1
  O  O3  1  0.77107300  0.13784500  0.97284600  1
  O  O4  1  0.77090800  0.94586400  0.17895600  1
  O  O5  1  0.75045000  0.94787600  0.66143700  1
  O  O6  1  0.23783100  0.04395500  0.33519400  1
  O  O7  1  0.24039400  0.05067200  0.82802000  1
  O  O8  1  0.77077200  0.54450700  0.07006000  1
  O  O9  1  0.76735200  0.54836800  0.56726900  1
  O  O10  1  0.23196900  0.45007300  0.43013700  1
  O  O11  1  0.23227900  0.45277300  0.93067400  1
  O  O12  1  0.26002100  0.22977500  0.11215500  1
  O  O13  1  0.25211000  0.22952700  0.61007000  1
  O  O14  1  0.75731000  0.77313900  0.38494100  1
  O  O15  1  0.74427400  0.76884600  0.89029900  1
  O  O16  1  0.22925600  0.66751200  0.22978400  1
  O  O17  1  0.22543700  0.66910000  0.72541000  1
  O  O18  1  0.77409600  0.33180000  0.27235700  1
  O  O19  1  0.76904600  0.33582400  0.77296300  1
loop_
_geom_bond_atom_site_label_1
_geom_bond_atom_site_label_2
_geom_bond_distance
_geom_bond_site_symmetry_2
Li0 O16 2.038538 1_555
Li0 O8 2.070525 1_455
Li0 O10 2.082905 1_555
Li0 O18 2.142153 1_455
Li0 O14 2.187991 1_455
Li0 O12 2.234578 1_555
Li1 O11 2.081805 1_655
Li1 O19 2.093147 1_555
Li1 O17 2.097110 1_655
Li1 O9 2.107698 1_555
Li1 O15 2.207351 1_555
Li1 O13 2.238778 1_655
Li2 O8 2.067950 1_555
Li2 O11 2.087980 1_554
Li2 O16 2.117749 1_555
Li2 O18 2.148370 1_555
Li2 O12 2.220742 1_555
Li2 O3 2.262252 1_554
Li3 O10 2.060305 1_555
Li3 O9 2.120827 1_555
Li3 O17 2.124872 1_555
Li3 O19 2.155157 1_555
Li3 O13 2.211594 1_555
Li3 O2 2.247099 1_555
Li4 O16 2.068303 1_555
Li4 O10 2.102900 1_555
Li4 O9 2.118484 1_555
Li4 O18 2.149437 1_555
Li4 O1 2.210586 1_555
Li4 O14 2.303957 1_555
Li5 O8 2.071709 1_556
Li5 O11 2.080007 1_555
Li5 O19 2.115391 1_555
Li5 O17 2.200014 1_555
Li5 O15 2.208871 1_555
Li5 O0 2.213860 1_556
Li6 O16 2.016620 1_555
Li6 O14 2.057796 1_555
Li6 O8 2.077065 1_555
Li6 O6 2.195262 1_565
Li6 O4 2.202591 1_555
Li6 O0 2.212293 1_555
Li7 O9 2.059412 1_555
Li7 O17 2.067842 1_555
Li7 O15 2.125901 1_555
Li7 O5 2.144009 1_555
Li7 O7 2.191670 1_565
Li7 O1 2.257237 1_555
Li8 O18 2.053536 1_555
Li8 O10 2.054512 1_555
Li8 O12 2.111390 1_555
Li8 O2 2.142119 1_555
Li8 O4 2.192593 1_545
Li8 O6 2.251644 1_555
Li9 O19 2.064578 1_555
Li9 O11 2.066105 1_555
Li9 O13 2.093486 1_555
Li9 O7 2.158582 1_555
Li9 O3 2.209950 1_555
Li9 O5 2.212837 1_545
Cr0 O16 1.976060 1_555
Cr0 O8 1.977491 1_455
Cr0 O11 1.987867 1_554
Cr0 O4 2.038495 1_455
Cr0 O15 2.075348 1_454
Cr0 O0 2.102359 1_555
Cr1 O9 1.976878 1_555
Cr1 O10 1.985836 1_655
Cr1 O17 2.012799 1_655
Cr1 O14 2.021385 1_555
Cr1 O5 2.033506 1_555
Cr1 O1 2.158738 1_655
Cr2 O10 1.969064 1_655
Cr2 O9 1.982755 1_555
Cr2 O18 2.007121 1_555
Cr2 O13 2.017597 1_655
Cr2 O6 2.048752 1_655
Cr2 O2 2.172445 1_555
Cr3 O8 1.972040 1_456
Cr3 O11 1.972187 1_555
Cr3 O19 2.015599 1_455
Cr3 O7 2.047843 1_555
Cr3 O12 2.054007 1_556
Cr3 O3 2.096263 1_455
Co0 O13 1.935041 1_565
Co0 O14 1.936584 1_555
Co0 O5 1.989784 1_555
Co0 O6 1.990795 1_565
Co0 O2 2.011991 1_565
Co0 O1 2.027185 1_555
Co1 O15 1.909491 1_554
Co1 O12 1.919934 1_565
Co1 O7 2.089737 1_564
Co1 O0 2.095754 1_555
Co1 O3 2.109637 1_564
Co1 O4 2.146846 1_555
Co2 O16 1.932433 1_655
Co2 O14 1.938735 1_555
Co2 O1 1.942454 1_655
Co2 O6 1.965108 1_665
Co2 O2 1.975666 1_565
Co2 O4 1.997971 1_555
Co3 O17 1.853825 1_555
Co3 O0 2.038827 1_556
Co3 O7 2.050055 1_565
Co3 O15 2.052155 1_455
Co3 O3 2.052987 1_465
Co3 O5 2.190877 1_455
Co4 O18 1.852385 1_555
Co4 O4 2.048825 1_545
Co4 O3 2.054878 1_554
Co4 O12 2.057183 1_655
Co4 O0 2.070143 1_645
Co4 O6 2.132838 1_655
Co5 O19 1.855325 1_555
Co5 O13 2.025600 1_655
Co5 O2 2.045013 1_555
Co5 O5 2.061745 1_545
Co5 O7 2.094432 1_655
Co5 O1 2.105994 1_645
