# generated using pymatgen
data_MgBi
_symmetry_space_group_name_H-M   'P 1'
_cell_length_a   5.77624462
_cell_length_b   5.77624462
_cell_length_c   6.02019846
_cell_angle_alpha   71.26803655
_cell_angle_beta   71.26803655
_cell_angle_gamma   65.09023088
_symmetry_Int_Tables_number   1
_chemical_formula_structural   MgBi
_chemical_formula_sum   'Mg3 Bi3'
_cell_volume   168.43986303
_cell_formula_units_Z   3
loop_
 _symmetry_equiv_pos_site_id
 _symmetry_equiv_pos_as_xyz
  1  'x, y, z'
loop_
 _atom_site_type_symbol
 _atom_site_label
 _atom_site_symmetry_multiplicity
 _atom_site_fract_x
 _atom_site_fract_y
 _atom_site_fract_z
 _atom_site_occupancy
  Mg  Mg0  1  0.66262500  0.00235000  0.00320500  1
  Mg  Mg1  1  0.99765000  0.33737500  0.99679500  1
  Mg  Mg2  1  0.50186100  0.49813900  0.50000000  1
  Bi  Bi0  1  0.38027900  0.61972100  0.00000000  1
  Bi  Bi1  1  0.15016500  0.19258100  0.49631900  1
  Bi  Bi2  1  0.80741900  0.84983500  0.50368100  1
loop_
_geom_bond_atom_site_label_1
_geom_bond_atom_site_label_2
_geom_bond_distance
_geom_bond_site_symmetry_2
Mg0 Mg1 3.248095 1_554
Bi0 Mg2 3.103489 1_554
Bi0 Mg2 3.103489 1_555
Bi0 Mg0 3.233259 1_555
Bi0 Mg1 3.233259 1_554
Bi0 Mg1 3.260216 1_454
Bi0 Mg0 3.260216 1_565
Bi0 Bi1 3.501244 1_555
Bi0 Bi2 3.501244 1_554
Bi1 Mg1 3.137927 1_455
Bi1 Mg1 3.159830 1_454
Bi1 Mg2 3.212004 1_555
Bi1 Bi2 3.321159 1_445
Bi1 Mg2 3.397507 1_455
Bi1 Bi2 3.472010 1_455
Bi1 Bi2 3.472010 1_545
Bi1 Mg0 3.534624 1_555
Bi2 Mg0 3.137927 1_565
Bi2 Mg0 3.159830 1_566
Bi2 Mg2 3.212004 1_555
Bi2 Mg2 3.397507 1_565
Bi2 Mg1 3.534624 1_555
