# generated using pymatgen
data_HoFe11Re
_symmetry_space_group_name_H-M   'P 1'
_cell_length_a   4.68646200
_cell_length_b   6.42591583
_cell_length_c   6.42591583
_cell_angle_alpha   97.98705331
_cell_angle_beta   111.38625337
_cell_angle_gamma   68.61374663
_symmetry_Int_Tables_number   1
_chemical_formula_structural   HoFe11Re
_chemical_formula_sum   'Ho1 Fe11 Re1'
_cell_volume   167.77912306
_cell_formula_units_Z   1
loop_
 _symmetry_equiv_pos_site_id
 _symmetry_equiv_pos_as_xyz
  1  'x, y, z'
loop_
 _atom_site_type_symbol
 _atom_site_label
 _atom_site_symmetry_multiplicity
 _atom_site_fract_x
 _atom_site_fract_y
 _atom_site_fract_z
 _atom_site_occupancy
  Ho  Ho0  1  0.00428300  0.99571700  0.00428300  1
  Fe  Fe0  1  0.50043900  0.99887500  0.50002400  1
  Fe  Fe1  1  0.00071000  0.99887500  0.50002400  1
  Fe  Fe2  1  0.50043900  0.49997600  0.00112500  1
  Fe  Fe3  1  0.00071000  0.49997600  0.00112500  1
  Fe  Fe4  1  0.72665500  0.77334500  0.22665500  1
  Fe  Fe5  1  0.27257000  0.22743000  0.77257000  1
  Fe  Fe6  1  0.49864200  0.77745900  0.77474400  1
  Fe  Fe7  1  0.49864200  0.22525600  0.22254100  1
  Fe  Fe8  1  0.35950200  0.64049800  0.35950200  1
  Fe  Fe9  1  0.99931100  0.35970200  0.35832300  1
  Fe  Fe10  1  0.99931100  0.64167700  0.64029800  1
  Re  Re0  1  0.63878700  0.36121300  0.63878700  1
loop_
_geom_bond_atom_site_label_1
_geom_bond_atom_site_label_2
_geom_bond_distance
_geom_bond_site_symmetry_2
Ho0 Re0 3.103424 1_464
Fe0 Fe1 2.341961 1_555
Fe0 Fe1 2.344501 1_655
Fe0 Fe4 2.416656 1_555
Fe0 Fe6 2.420412 1_555
Fe0 Fe5 2.422814 1_565
Fe0 Fe7 2.448788 1_565
Fe0 Fe8 2.579039 1_555
Fe0 Fe10 2.582890 1_555
Fe0 Re0 2.595973 1_565
Fe0 Fe9 2.603177 1_465
Fe0 Ho0 3.188944 1_555
Fe0 Ho0 3.237106 1_656
Fe1 Fe4 2.416656 1_455
Fe1 Fe6 2.420410 1_555
Fe1 Fe5 2.422814 1_565
Fe1 Fe7 2.448790 1_465
Fe1 Fe8 2.579039 1_555
Fe1 Fe10 2.582888 1_455
Fe1 Re0 2.595973 1_465
Fe1 Fe9 2.603180 1_465
Fe1 Ho0 3.188944 1_555
Fe1 Ho0 3.237107 1_556
Fe2 Fe3 2.341961 1_555
Fe2 Fe3 2.344501 1_655
Fe2 Fe4 2.416656 1_555
Fe2 Fe7 2.420412 1_555
Fe2 Fe5 2.422814 1_554
Fe2 Fe6 2.448788 1_554
Fe2 Fe8 2.579039 1_555
Fe2 Fe9 2.582890 1_555
Fe2 Re0 2.595973 1_554
Fe2 Ho0 3.188944 1_555
Fe2 Ho0 3.237106 1_645
Fe3 Fe4 2.416656 1_455
Fe3 Fe7 2.420410 1_555
Fe3 Fe5 2.422814 1_554
Fe3 Fe6 2.448790 1_454
Fe3 Fe8 2.579039 1_555
Fe3 Fe9 2.582888 1_455
Fe3 Re0 2.595973 1_454
Fe3 Ho0 3.188944 1_555
Fe3 Ho0 3.237107 1_545
Fe4 Fe8 2.600600 1_655
Fe4 Fe8 2.600601 1_555
Fe4 Fe9 2.602545 1_555
Fe4 Fe7 2.704268 1_565
Fe4 Fe6 2.704268 1_554
Fe4 Ho0 3.009298 1_555
Fe4 Ho0 3.009299 1_655
Fe5 Re0 2.604057 1_455
Fe5 Re0 2.604058 1_555
Fe5 Fe9 2.607108 1_455
Fe5 Fe6 2.692499 1_545
Fe5 Fe7 2.692499 1_556
Fe5 Ho0 3.059686 1_646
Fe5 Ho0 3.059687 1_546
Fe6 Fe8 2.610869 1_555
Fe6 Re0 2.614738 1_555
Fe6 Ho0 3.009615 1_556
Fe6 Ho0 3.009618 1_656
Fe7 Fe9 2.605553 1_455
Fe7 Fe9 2.605561 1_555
Fe7 Fe8 2.610869 1_555
Fe7 Re0 2.614738 1_555
Fe7 Ho0 3.009615 1_545
Fe7 Ho0 3.009618 1_645
Fe8 Re0 2.371407 1_555
Fe8 Fe9 2.883304 1_455
Fe8 Fe9 2.883307 1_555
Fe8 Ho0 3.016162 1_555
Fe9 Re0 2.882144 1_655
Fe9 Re0 2.882148 1_555
Fe9 Ho0 3.027723 1_645
Fe10 Fe9 2.377798 1_555
Fe10 Fe4 2.602545 1_555
Fe10 Fe2 2.603177 1_656
Fe10 Fe3 2.603180 1_656
Fe10 Fe6 2.605553 1_655
Fe10 Fe6 2.605561 1_555
Fe10 Fe5 2.607108 1_655
Fe10 Re0 2.882144 1_655
Fe10 Re0 2.882148 1_555
Fe10 Fe8 2.883304 1_655
Fe10 Fe8 2.883307 1_555
Fe10 Ho0 3.027723 1_656
