# generated using pymatgen
data_PbO2
_symmetry_space_group_name_H-M   'P 1'
_cell_length_a   5.73451000
_cell_length_b   8.00519100
_cell_length_c   8.64226980
_cell_angle_alpha   65.43058362
_cell_angle_beta   90.00000000
_cell_angle_gamma   90.00000000
_symmetry_Int_Tables_number   1
_chemical_formula_structural   PbO2
_chemical_formula_sum   'Pb6 O12'
_cell_volume   360.81000246
_cell_formula_units_Z   6
loop_
 _symmetry_equiv_pos_site_id
 _symmetry_equiv_pos_as_xyz
  1  'x, y, z'
loop_
 _atom_site_type_symbol
 _atom_site_label
 _atom_site_symmetry_multiplicity
 _atom_site_fract_x
 _atom_site_fract_y
 _atom_site_fract_z
 _atom_site_occupancy
  Pb  Pb0  1  0.75000000  0.99065300  0.64823900  1
  Pb  Pb1  1  0.25000000  0.00934700  0.35176100  1
  Pb  Pb2  1  0.75000000  0.41524100  0.22337200  1
  Pb  Pb3  1  0.25000000  0.58475900  0.77662800  1
  Pb  Pb4  1  0.75000000  0.61215300  0.51200800  1
  Pb  Pb5  1  0.25000000  0.38784700  0.48799200  1
  O  O0  1  0.48830100  0.41656300  0.67983500  1
  O  O1  1  0.51169900  0.58343700  0.32016500  1
  O  O2  1  0.01169900  0.41656300  0.67983500  1
  O  O3  1  0.98830100  0.58343700  0.32016500  1
  O  O4  1  0.75000000  0.12064700  0.95466100  1
  O  O5  1  0.25000000  0.87935300  0.04533900  1
  O  O6  1  0.75000000  0.06602900  0.11192000  1
  O  O7  1  0.25000000  0.93397100  0.88808000  1
  O  O8  1  0.00525200  0.19630500  0.43792000  1
  O  O9  1  0.99474800  0.80369500  0.56208000  1
  O  O10  1  0.49474800  0.19630500  0.43792000  1
  O  O11  1  0.50525200  0.80369500  0.56208000  1
loop_
_geom_bond_atom_site_label_1
_geom_bond_atom_site_label_2
_geom_bond_distance
_geom_bond_site_symmetry_2
O0 Pb4 2.217848 1_555
O0 Pb5 2.232945 1_555
O0 Pb3 2.305801 1_555
O1 Pb5 2.217848 1_555
O1 Pb4 2.232945 1_555
O1 Pb2 2.305801 1_555
O2 Pb4 2.217848 1_455
O2 Pb5 2.232945 1_555
O2 Pb3 2.305801 1_555
O3 Pb5 2.217848 1_655
O3 Pb4 2.232945 1_555
O3 Pb2 2.305801 1_555
O4 O6 1.242618 1_556
O5 O7 1.242618 1_554
O8 Pb5 2.249441 1_555
O8 Pb0 2.380796 1_445
O8 Pb1 2.385567 1_555
O8 Pb2 2.439226 1_455
O9 Pb4 2.249441 1_555
O9 Pb1 2.380796 1_665
O9 Pb0 2.385567 1_555
O9 Pb3 2.439226 1_655
O10 Pb5 2.249441 1_555
O10 Pb0 2.380796 1_545
O10 Pb1 2.385567 1_555
O10 Pb2 2.439226 1_555
O11 Pb4 2.249441 1_555
O11 Pb1 2.380796 1_565
O11 Pb0 2.385567 1_555
O11 Pb3 2.439226 1_555
