# generated using pymatgen
data_NbAlFe4
_symmetry_space_group_name_H-M   'P 1'
_cell_length_a   4.79912597
_cell_length_b   4.79912597
_cell_length_c   7.72893800
_cell_angle_alpha   90.00000000
_cell_angle_beta   90.00000000
_cell_angle_gamma   119.99999962
_symmetry_Int_Tables_number   1
_chemical_formula_structural   NbAlFe4
_chemical_formula_sum   'Nb2 Al2 Fe8'
_cell_volume   154.16108442
_cell_formula_units_Z   2
loop_
 _symmetry_equiv_pos_site_id
 _symmetry_equiv_pos_as_xyz
  1  'x, y, z'
loop_
 _atom_site_type_symbol
 _atom_site_label
 _atom_site_symmetry_multiplicity
 _atom_site_fract_x
 _atom_site_fract_y
 _atom_site_fract_z
 _atom_site_occupancy
  Nb  Nb0  1  0.66666700  0.33333300  0.92201600  1
  Nb  Nb1  1  0.33333300  0.66666700  0.07798400  1
  Al  Al0  1  0.33333300  0.66666700  0.44433300  1
  Al  Al1  1  0.66666700  0.33333300  0.55566700  1
  Fe  Fe0  1  0.00000000  0.00000000  0.50000000  1
  Fe  Fe1  1  0.00000000  0.00000000  0.00000000  1
  Fe  Fe2  1  0.83082400  0.16917600  0.25237000  1
  Fe  Fe3  1  0.83082400  0.66164800  0.25237000  1
  Fe  Fe4  1  0.33835200  0.16917600  0.25237000  1
  Fe  Fe5  1  0.16917600  0.83082400  0.74763000  1
  Fe  Fe6  1  0.16917600  0.33835200  0.74763000  1
  Fe  Fe7  1  0.66164800  0.83082400  0.74763000  1
loop_
_geom_bond_atom_site_label_1
_geom_bond_atom_site_label_2
_geom_bond_distance
_geom_bond_site_symmetry_2
Nb0 Nb1 3.021645 1_656
Nb0 Nb1 3.021645 1_546
Nb0 Nb1 3.021653 1_556
Al0 Fe5 2.712386 1_555
Al0 Fe7 2.712388 1_555
Al0 Fe6 2.712388 1_555
Al0 Fe0 2.803979 1_565
Al0 Fe0 2.803983 1_555
Al0 Fe0 2.803983 1_665
Al0 Fe3 2.821277 1_455
Al0 Fe4 2.821277 1_565
Al0 Fe2 2.821279 1_455
Al0 Fe2 2.821279 1_565
Al0 Fe4 2.821281 1_555
Al0 Fe3 2.821281 1_555
Al0 Nb1 2.831489 1_555
Al0 Al1 2.901316 1_455
Al0 Al1 2.901316 1_565
Al0 Al1 2.901324 1_555
Al1 Fe2 2.712386 1_555
Al1 Fe3 2.712388 1_555
Al1 Fe4 2.712388 1_555
Al1 Fe0 2.803979 1_655
Al1 Fe0 2.803983 1_555
Al1 Fe0 2.803983 1_665
Al1 Fe6 2.821277 1_655
Al1 Fe7 2.821277 1_545
Al1 Fe5 2.821279 1_545
Al1 Fe5 2.821279 1_655
Al1 Fe7 2.821281 1_555
Al1 Fe6 2.821281 1_555
Al1 Nb0 2.831489 1_555
Fe0 Fe5 2.374996 1_545
Fe0 Fe2 2.374996 1_455
Fe0 Fe4 2.374996 1_555
Fe0 Fe3 2.374996 1_445
Fe0 Fe6 2.374996 1_555
Fe0 Fe7 2.374996 1_445
Fe1 Fe5 2.404617 1_544
Fe1 Fe2 2.404617 1_455
Fe1 Fe4 2.404617 1_555
Fe1 Fe7 2.404617 1_444
Fe1 Fe3 2.404617 1_445
Fe1 Fe6 2.404617 1_554
Fe1 Nb1 2.835573 1_545
Fe1 Nb0 2.835573 1_454
Fe1 Nb1 2.835577 1_555
Fe1 Nb0 2.835577 1_444
Fe1 Nb0 2.835577 1_554
Fe1 Nb1 2.835577 1_445
Fe2 Fe3 2.363435 1_555
Fe2 Fe4 2.363435 1_555
Fe2 Fe4 2.435691 1_655
Fe2 Fe3 2.435691 1_545
Fe2 Nb1 2.752263 1_545
Fe2 Nb1 2.752263 1_655
Fe2 Nb0 2.895031 1_554
Fe3 Fe4 2.363435 1_555
Fe3 Fe4 2.435691 1_665
Fe3 Nb1 2.752261 1_655
Fe3 Nb1 2.752265 1_555
Fe3 Nb0 2.895032 1_554
Fe4 Nb1 2.752261 1_545
Fe4 Nb1 2.752265 1_555
Fe4 Nb0 2.895032 1_554
Fe5 Fe6 2.363435 1_555
Fe5 Fe7 2.363435 1_555
Fe5 Fe7 2.435691 1_455
Fe5 Fe6 2.435691 1_565
Fe5 Nb0 2.752263 1_565
Fe5 Nb0 2.752263 1_455
Fe5 Nb1 2.895031 1_556
Fe6 Fe7 2.363435 1_555
Fe6 Fe7 2.435691 1_445
Fe6 Nb0 2.752261 1_455
Fe6 Nb0 2.752265 1_555
Fe6 Nb1 2.895032 1_556
Fe7 Nb0 2.752261 1_565
Fe7 Nb0 2.752265 1_555
Fe7 Nb1 2.895032 1_556
