# generated using pymatgen
data_AlNiRh2
_symmetry_space_group_name_H-M   'P 1'
_cell_length_a   9.92916784
_cell_length_b   9.92916784
_cell_length_c   9.92916784
_cell_angle_alpha   125.19291407
_cell_angle_beta   118.76951641
_cell_angle_gamma   86.69686629
_symmetry_Int_Tables_number   1
_chemical_formula_structural   AlNiRh2
_chemical_formula_sum   'Al1 Ni1 Rh2'
_cell_volume   667.41309397
_cell_formula_units_Z   1
loop_
 _symmetry_equiv_pos_site_id
 _symmetry_equiv_pos_as_xyz
  1  'x, y, z'
loop_
 _atom_site_type_symbol
 _atom_site_label
 _atom_site_symmetry_multiplicity
 _atom_site_fract_x
 _atom_site_fract_y
 _atom_site_fract_z
 _atom_site_occupancy
  Al  Al0  1  0.00000000  0.00000000  0.00000000  1
  Ni  Ni0  1  0.00000000  0.50000000  0.50000000  1
  Rh  Rh0  1  0.00000000  0.25273500  0.25273500  1
  Rh  Rh1  1  0.00000000  0.74726500  0.74726500  1
loop_
_geom_bond_atom_site_label_1
_geom_bond_atom_site_label_2
_geom_bond_distance
_geom_bond_site_symmetry_2
Al0 Rh0 2.309971 1_555
Al0 Rh1 2.309971 1_544
Ni0 Rh1 2.259975 1_555
Ni0 Rh0 2.259975 1_555
