# generated using pymatgen
data_Gd3Si2BO10
_symmetry_space_group_name_H-M   'P 1'
_cell_length_a   7.02698700
_cell_length_b   9.72909900
_cell_length_c   22.97324100
_cell_angle_alpha   90.00000000
_cell_angle_beta   90.00000000
_cell_angle_gamma   90.00000000
_symmetry_Int_Tables_number   1
_chemical_formula_structural   Gd3Si2BO10
_chemical_formula_sum   'Gd24 Si16 B8 O80'
_cell_volume   1570.59438794
_cell_formula_units_Z   8
loop_
 _symmetry_equiv_pos_site_id
 _symmetry_equiv_pos_as_xyz
  1  'x, y, z'
loop_
 _atom_site_type_symbol
 _atom_site_label
 _atom_site_symmetry_multiplicity
 _atom_site_fract_x
 _atom_site_fract_y
 _atom_site_fract_z
 _atom_site_occupancy
  Gd  Gd0  1  0.82259400  0.36529900  0.16393400  1
  Gd  Gd1  1  0.67740600  0.86529900  0.83606600  1
  Gd  Gd2  1  0.32259400  0.63470100  0.33606600  1
  Gd  Gd3  1  0.17740600  0.13470100  0.66393400  1
  Gd  Gd4  1  0.17740600  0.63470100  0.83606600  1
  Gd  Gd5  1  0.32259400  0.13470100  0.16393400  1
  Gd  Gd6  1  0.67740600  0.36529900  0.66393400  1
  Gd  Gd7  1  0.82259400  0.86529900  0.33606600  1
  Gd  Gd8  1  0.09616000  0.76665700  0.18211900  1
  Gd  Gd9  1  0.40384000  0.26665700  0.81788100  1
  Gd  Gd10  1  0.59616000  0.23334300  0.31788100  1
  Gd  Gd11  1  0.90384000  0.73334300  0.68211900  1
  Gd  Gd12  1  0.90384000  0.23334300  0.81788100  1
  Gd  Gd13  1  0.59616000  0.73334300  0.18211900  1
  Gd  Gd14  1  0.40384000  0.76665700  0.68211900  1
  Gd  Gd15  1  0.09616000  0.26665700  0.31788100  1
  Gd  Gd16  1  0.86575600  0.00959100  0.07192600  1
  Gd  Gd17  1  0.63424400  0.50959100  0.92807400  1
  Gd  Gd18  1  0.36575600  0.99040900  0.42807400  1
  Gd  Gd19  1  0.13424400  0.49040900  0.57192600  1
  Gd  Gd20  1  0.13424400  0.99040900  0.92807400  1
  Gd  Gd21  1  0.36575600  0.49040900  0.07192600  1
  Gd  Gd22  1  0.63424400  0.00959100  0.57192600  1
  Gd  Gd23  1  0.86575600  0.50959100  0.42807400  1
  Si  Si0  1  0.85910000  0.62203500  0.07848200  1
  Si  Si1  1  0.64090000  0.12203500  0.92151800  1
  Si  Si2  1  0.35910000  0.37796500  0.42151800  1
  Si  Si3  1  0.14090000  0.87796500  0.57848200  1
  Si  Si4  1  0.14090000  0.37796500  0.92151800  1
  Si  Si5  1  0.35910000  0.87796500  0.07848200  1
  Si  Si6  1  0.64090000  0.62203500  0.57848200  1
  Si  Si7  1  0.85910000  0.12203500  0.42151800  1
  Si  Si8  1  0.81567900  0.06203700  0.22073200  1
  Si  Si9  1  0.68432100  0.56203700  0.77926800  1
  Si  Si10  1  0.31567900  0.93796300  0.27926800  1
  Si  Si11  1  0.18432100  0.43796300  0.72073200  1
  Si  Si12  1  0.18432100  0.93796300  0.77926800  1
  Si  Si13  1  0.31567900  0.43796300  0.22073200  1
  Si  Si14  1  0.68432100  0.06203700  0.72073200  1
  Si  Si15  1  0.81567900  0.56203700  0.27926800  1
  B  B0  1  0.66174400  0.25714700  0.02868800  1
  B  B1  1  0.83825600  0.75714700  0.97131200  1
  B  B2  1  0.16174400  0.74285300  0.47131200  1
  B  B3  1  0.33825600  0.24285300  0.52868800  1
  B  B4  1  0.33825600  0.74285300  0.97131200  1
  B  B5  1  0.16174400  0.24285300  0.02868800  1
  B  B6  1  0.83825600  0.25714700  0.52868800  1
  B  B7  1  0.66174400  0.75714700  0.47131200  1
  O  O0  1  0.87135600  0.09869200  0.28906100  1
  O  O1  1  0.62864400  0.59869200  0.71093900  1
  O  O2  1  0.37135600  0.90130800  0.21093900  1
  O  O3  1  0.12864400  0.40130800  0.78906100  1
  O  O4  1  0.12864400  0.90130800  0.71093900  1
  O  O5  1  0.37135600  0.40130800  0.28906100  1
  O  O6  1  0.62864400  0.09869200  0.78906100  1
  O  O7  1  0.87135600  0.59869200  0.21093900  1
  O  O8  1  0.85687700  0.27513600  0.39005500  1
  O  O9  1  0.64312300  0.77513600  0.60994500  1
  O  O10  1  0.35687700  0.72486400  0.10994500  1
  O  O11  1  0.14312300  0.22486400  0.89005500  1
  O  O12  1  0.14312300  0.72486400  0.60994500  1
  O  O13  1  0.35687700  0.22486400  0.39005500  1
  O  O14  1  0.64312300  0.27513600  0.89005500  1
  O  O15  1  0.85687700  0.77513600  0.10994500  1
  O  O16  1  0.79832100  0.39330300  0.27881900  1
  O  O17  1  0.70167900  0.89330300  0.72118100  1
  O  O18  1  0.29832100  0.60669700  0.22118100  1
  O  O19  1  0.20167900  0.10669700  0.77881900  1
  O  O20  1  0.20167900  0.60669700  0.72118100  1
  O  O21  1  0.29832100  0.10669700  0.27881900  1
  O  O22  1  0.70167900  0.39330300  0.77881900  1
  O  O23  1  0.79832100  0.89330300  0.22118100  1
  O  O24  1  0.16263100  0.36373500  0.99328300  1
  O  O25  1  0.33736900  0.86373500  0.00671700  1
  O  O26  1  0.66263100  0.63626500  0.50671700  1
  O  O27  1  0.83736900  0.13626500  0.49328300  1
  O  O28  1  0.83736900  0.63626500  0.00671700  1
  O  O29  1  0.66263100  0.13626500  0.99328300  1
  O  O30  1  0.33736900  0.36373500  0.49328300  1
  O  O31  1  0.16263100  0.86373500  0.50671700  1
  O  O32  1  0.58219600  0.37468200  0.00888200  1
  O  O33  1  0.91780400  0.87468200  0.99111800  1
  O  O34  1  0.08219600  0.62531800  0.49111800  1
  O  O35  1  0.41780400  0.12531800  0.50888200  1
  O  O36  1  0.41780400  0.62531800  0.99111800  1
  O  O37  1  0.08219600  0.12531800  0.00888200  1
  O  O38  1  0.91780400  0.37468200  0.50888200  1
  O  O39  1  0.58219600  0.87468200  0.49111800  1
  O  O40  1  0.67238500  0.54715200  0.10722300  1
  O  O41  1  0.82761500  0.04715200  0.89277700  1
  O  O42  1  0.17238500  0.45284800  0.39277700  1
  O  O43  1  0.32761500  0.95284800  0.60722300  1
  O  O44  1  0.32761500  0.45284800  0.89277700  1
  O  O45  1  0.17238500  0.95284800  0.10722300  1
  O  O46  1  0.82761500  0.54715200  0.60722300  1
  O  O47  1  0.67238500  0.04715200  0.39277700  1
  O  O48  1  0.62403600  0.15626000  0.21146100  1
  O  O49  1  0.87596400  0.65626000  0.78853900  1
  O  O50  1  0.12403600  0.84374000  0.28853900  1
  O  O51  1  0.37596400  0.34374000  0.71146100  1
  O  O52  1  0.37596400  0.84374000  0.78853900  1
  O  O53  1  0.12403600  0.34374000  0.21146100  1
  O  O54  1  0.87596400  0.15626000  0.71146100  1
  O  O55  1  0.62403600  0.65626000  0.28853900  1
  O  O56  1  0.96554600  0.11229100  0.17098000  1
  O  O57  1  0.53445400  0.61229100  0.82902000  1
  O  O58  1  0.46554600  0.88770900  0.32902000  1
  O  O59  1  0.03445400  0.38770900  0.67098000  1
  O  O60  1  0.03445400  0.88770900  0.82902000  1
  O  O61  1  0.46554600  0.38770900  0.17098000  1
  O  O62  1  0.53445400  0.11229100  0.67098000  1
  O  O63  1  0.96554600  0.61229100  0.32902000  1
  O  O64  1  0.74651400  0.23959300  0.08179400  1
  O  O65  1  0.75348600  0.73959300  0.91820600  1
  O  O66  1  0.24651400  0.76040700  0.41820600  1
  O  O67  1  0.25348600  0.26040700  0.58179400  1
  O  O68  1  0.25348600  0.76040700  0.91820600  1
  O  O69  1  0.24651400  0.26040700  0.08179400  1
  O  O70  1  0.75348600  0.23959300  0.58179400  1
  O  O71  1  0.74651400  0.73959300  0.41820600  1
  O  O72  1  0.04273400  0.53415400  0.10020000  1
  O  O73  1  0.45726600  0.03415400  0.89980000  1
  O  O74  1  0.54273400  0.46584600  0.39980000  1
  O  O75  1  0.95726600  0.96584600  0.60020000  1
  O  O76  1  0.95726600  0.46584600  0.89980000  1
  O  O77  1  0.54273400  0.96584600  0.10020000  1
  O  O78  1  0.45726600  0.53415400  0.60020000  1
  O  O79  1  0.04273400  0.03415400  0.39980000  1
loop_
_geom_bond_atom_site_label_1
_geom_bond_atom_site_label_2
_geom_bond_distance
_geom_bond_site_symmetry_2
Gd0 O64 2.311365 1_555
Gd0 O53 2.392284 1_655
Gd0 O40 2.437580 1_555
Gd0 O61 2.523624 1_555
Gd0 O7 2.537636 1_555
Gd0 O16 2.658783 1_555
Gd0 O56 2.663540 1_555
Gd0 O72 2.689906 1_655
Gd0 O48 2.697236 1_555
Gd1 O65 2.311365 1_555
Gd1 O52 2.392284 1_555
Gd1 O41 2.437580 1_565
Gd1 O60 2.523624 1_655
Gd1 O6 2.537636 1_565
Gd1 O17 2.658783 1_555
Gd1 O57 2.663540 1_555
Gd1 O73 2.689906 1_565
Gd1 O49 2.697236 1_555
Gd2 O66 2.311365 1_555
Gd2 O55 2.392284 1_555
Gd2 O42 2.437580 1_555
Gd2 O63 2.523624 1_455
Gd2 O5 2.537636 1_555
Gd2 O18 2.658783 1_555
Gd2 O58 2.663540 1_555
Gd2 O74 2.689906 1_555
Gd2 O50 2.697236 1_555
Gd3 O67 2.311365 1_555
Gd3 O54 2.392284 1_455
Gd3 O43 2.437580 1_545
Gd3 O62 2.523624 1_555
Gd3 O4 2.537636 1_545
Gd3 O19 2.658783 1_555
Gd3 O59 2.663540 1_555
Gd3 O75 2.689906 1_445
Gd3 O51 2.697236 1_555
Gd4 O68 2.311365 1_555
Gd4 O49 2.392284 1_455
Gd4 O44 2.437580 1_555
Gd4 O57 2.523624 1_555
Gd4 O3 2.537636 1_555
Gd4 O20 2.658783 1_555
Gd4 O60 2.663540 1_555
Gd4 O76 2.689906 1_455
Gd4 O52 2.697236 1_555
Gd5 O69 2.311365 1_555
Gd5 O48 2.392284 1_555
Gd5 O45 2.437580 1_545
Gd5 O56 2.523624 1_455
Gd5 O2 2.537636 1_545
Gd5 O21 2.658783 1_555
Gd5 O61 2.663540 1_555
Gd5 O77 2.689906 1_545
Gd5 O53 2.697236 1_555
Gd6 O70 2.311365 1_555
Gd6 O51 2.392284 1_555
Gd6 O46 2.437580 1_555
Gd6 O59 2.523624 1_655
Gd6 O1 2.537636 1_555
Gd6 O22 2.658783 1_555
Gd6 O62 2.663540 1_555
Gd6 O78 2.689906 1_555
Gd6 O54 2.697236 1_555
Gd7 O71 2.311365 1_555
Gd7 O50 2.392284 1_655
Gd7 O47 2.437580 1_565
Gd7 O58 2.523624 1_555
Gd7 O0 2.537636 1_565
Gd7 O23 2.658783 1_555
Gd7 O63 2.663540 1_555
Gd7 O79 2.689906 1_665
Gd7 O55 2.697236 1_555
Gd8 O18 2.290265 1_555
Gd8 O15 2.362888 1_455
Gd8 O7 2.367327 1_455
Gd8 O2 2.427782 1_555
Gd8 O10 2.504187 1_555
Gd8 O45 2.555153 1_555
Gd8 O50 2.564742 1_555
Gd8 O23 2.589163 1_455
Gd9 O19 2.290265 1_555
Gd9 O14 2.362888 1_555
Gd9 O6 2.367327 1_555
Gd9 O3 2.427782 1_555
Gd9 O11 2.504187 1_555
Gd9 O44 2.555153 1_555
Gd9 O51 2.564742 1_555
Gd9 O22 2.589163 1_555
Gd10 O16 2.290265 1_555
Gd10 O13 2.362888 1_555
Gd10 O5 2.367327 1_555
Gd10 O0 2.427782 1_555
Gd10 O8 2.504187 1_555
Gd10 O47 2.555153 1_555
Gd10 O48 2.564742 1_555
Gd10 O21 2.589163 1_555
Gd11 O17 2.290265 1_555
Gd11 O12 2.362888 1_655
Gd11 O4 2.367327 1_655
Gd11 O1 2.427782 1_555
Gd11 O9 2.504187 1_555
Gd11 O46 2.555153 1_555
Gd11 O49 2.564742 1_555
Gd11 O20 2.589163 1_655
Gd12 O22 2.290265 1_555
Gd12 O11 2.362888 1_655
Gd12 O3 2.367327 1_655
Gd12 O6 2.427782 1_555
Gd12 O14 2.504187 1_555
Gd12 O41 2.555153 1_555
Gd12 O54 2.564742 1_555
Gd12 O19 2.589163 1_655
Gd13 O23 2.290265 1_555
Gd13 O10 2.362888 1_555
Gd13 O2 2.367327 1_555
Gd13 O7 2.427782 1_555
Gd13 O15 2.504187 1_555
Gd13 O40 2.555153 1_555
Gd13 O55 2.564742 1_555
Gd13 O18 2.589163 1_555
Gd14 O20 2.290265 1_555
Gd14 O9 2.362888 1_555
Gd14 O1 2.367327 1_555
Gd14 O4 2.427782 1_555
Gd14 O12 2.504187 1_555
Gd14 O43 2.555153 1_555
Gd14 O52 2.564742 1_555
Gd14 O17 2.589163 1_555
Gd15 O21 2.290265 1_555
Gd15 O8 2.362888 1_455
Gd15 O0 2.367327 1_455
Gd15 O5 2.427782 1_555
Gd15 O13 2.504187 1_555
Gd15 O42 2.555153 1_555
Gd15 O53 2.564742 1_555
Gd15 O16 2.589163 1_455
Gd16 O33 2.302789 1_544
Gd16 O45 2.367476 1_645
Gd16 O37 2.382969 1_655
Gd16 O77 2.399033 1_545
Gd16 O64 2.400176 1_555
Gd16 O15 2.443334 1_545
Gd16 O56 2.582322 1_555
Gd16 O29 2.611575 1_554
Gd17 O32 2.302789 1_556
Gd17 O44 2.367476 1_555
Gd17 O36 2.382969 1_555
Gd17 O76 2.399033 1_555
Gd17 O65 2.400176 1_555
Gd17 O14 2.443334 1_555
Gd17 O57 2.582322 1_555
Gd17 O28 2.611575 1_556
Gd18 O35 2.302789 1_565
Gd18 O47 2.367476 1_565
Gd18 O39 2.382969 1_555
Gd18 O79 2.399033 1_565
Gd18 O66 2.400176 1_555
Gd18 O13 2.443334 1_565
Gd18 O58 2.582322 1_555
Gd18 O31 2.611575 1_555
Gd19 O34 2.302789 1_555
Gd19 O46 2.367476 1_455
Gd19 O38 2.382969 1_455
Gd19 O78 2.399033 1_555
Gd19 O67 2.400176 1_555
Gd19 O12 2.443334 1_555
Gd19 O59 2.582322 1_555
Gd19 O30 2.611575 1_555
Gd20 O37 2.302789 1_566
Gd20 O41 2.367476 1_465
Gd20 O33 2.382969 1_455
Gd20 O73 2.399033 1_565
Gd20 O68 2.400176 1_555
Gd20 O11 2.443334 1_565
Gd20 O60 2.582322 1_555
Gd20 O25 2.611575 1_556
Gd21 O36 2.302789 1_554
Gd21 O40 2.367476 1_555
Gd21 O32 2.382969 1_555
Gd21 O72 2.399033 1_555
Gd21 O69 2.400176 1_555
Gd21 O10 2.443334 1_555
Gd21 O61 2.582322 1_555
Gd21 O24 2.611575 1_554
Gd22 O39 2.302789 1_545
Gd22 O43 2.367476 1_545
Gd22 O35 2.382969 1_555
Gd22 O75 2.399033 1_545
Gd22 O70 2.400176 1_555
Gd22 O9 2.443334 1_545
Gd22 O62 2.582322 1_555
Gd22 O27 2.611575 1_555
Gd23 O38 2.302789 1_555
Gd23 O42 2.367476 1_655
Gd23 O34 2.382969 1_655
Gd23 O74 2.399033 1_555
Gd23 O71 2.400176 1_555
Gd23 O8 2.443334 1_555
Gd23 O63 2.582322 1_555
Gd23 O26 2.611575 1_555
B0 O32 1.351706 1_555
B0 O64 1.368372 1_555
B0 O29 1.429949 1_554
B1 O33 1.351706 1_555
B1 O65 1.368372 1_555
B1 O28 1.429949 1_556
B2 O34 1.351706 1_555
B2 O66 1.368372 1_555
B2 O31 1.429949 1_555
B3 O35 1.351706 1_555
B3 O67 1.368372 1_555
B3 O30 1.429949 1_555
B4 O36 1.351706 1_555
B4 O68 1.368372 1_555
B4 O25 1.429949 1_556
B5 O37 1.351706 1_555
B5 O69 1.368372 1_555
B5 O24 1.429949 1_554
B6 O38 1.351706 1_555
B6 O70 1.368372 1_555
B6 O27 1.429949 1_555
B7 O39 1.351706 1_555
B7 O71 1.368372 1_555
B7 O26 1.429949 1_555
O0 Si8 1.656601 1_555
O1 Si9 1.656601 1_555
O2 Si10 1.656601 1_555
O3 Si11 1.656601 1_555
O4 Si12 1.656601 1_555
O5 Si13 1.656601 1_555
O6 Si14 1.656601 1_555
O7 Si15 1.656601 1_555
O8 Si7 1.655720 1_555
O9 Si6 1.655720 1_555
O10 Si5 1.655720 1_555
O11 Si4 1.655720 1_555
O12 Si3 1.655720 1_555
O13 Si2 1.655720 1_555
O14 Si1 1.655720 1_555
O15 Si0 1.655720 1_555
O16 Si15 1.646187 1_555
O17 Si14 1.646187 1_565
O18 Si13 1.646187 1_555
O19 Si12 1.646187 1_545
O20 Si11 1.646187 1_555
O21 Si10 1.646187 1_545
O22 Si9 1.646187 1_555
O23 Si8 1.646187 1_565
O24 Si4 1.661509 1_555
O25 Si5 1.661509 1_555
O26 Si6 1.661509 1_555
O27 Si7 1.661509 1_555
O28 Si0 1.661509 1_555
O29 Si1 1.661509 1_555
O30 Si2 1.661509 1_555
O31 Si3 1.661509 1_555
O40 Si0 1.639572 1_555
O41 Si1 1.639572 1_555
O42 Si2 1.639572 1_555
O43 Si3 1.639572 1_555
O44 Si4 1.639572 1_555
O45 Si5 1.639572 1_555
O46 Si6 1.639572 1_555
O47 Si7 1.639572 1_555
O48 Si8 1.642936 1_555
O49 Si9 1.642936 1_555
O50 Si10 1.642936 1_555
O51 Si11 1.642936 1_555
O52 Si12 1.642936 1_555
O53 Si13 1.642936 1_555
O54 Si14 1.642936 1_555
O55 Si15 1.642936 1_555
O56 Si8 1.629253 1_555
O57 Si9 1.629253 1_555
O58 Si10 1.629253 1_555
O59 Si11 1.629253 1_555
O60 Si12 1.629253 1_555
O61 Si13 1.629253 1_555
O62 Si14 1.629253 1_555
O63 Si15 1.629253 1_555
O72 Si0 1.626370 1_455
O73 Si1 1.626370 1_555
O74 Si2 1.626370 1_555
O75 Si3 1.626370 1_655
O76 Si4 1.626370 1_655
O77 Si5 1.626370 1_555
O78 Si6 1.626370 1_555
O79 Si7 1.626370 1_455
