# generated using pymatgen
data_NaMg6Mo
_symmetry_space_group_name_H-M   'P 1'
_cell_length_a   5.06076600
_cell_length_b   6.33073900
_cell_length_c   10.80663100
_cell_angle_alpha   90.00000000
_cell_angle_beta   90.00000000
_cell_angle_gamma   90.00000000
_symmetry_Int_Tables_number   1
_chemical_formula_structural   NaMg6Mo
_chemical_formula_sum   'Na2 Mg12 Mo2'
_cell_volume   346.22704436
_cell_formula_units_Z   2
loop_
 _symmetry_equiv_pos_site_id
 _symmetry_equiv_pos_as_xyz
  1  'x, y, z'
loop_
 _atom_site_type_symbol
 _atom_site_label
 _atom_site_symmetry_multiplicity
 _atom_site_fract_x
 _atom_site_fract_y
 _atom_site_fract_z
 _atom_site_occupancy
  Na  Na0  1  0.00000000  0.50000000  0.33504600  1
  Na  Na1  1  0.00000000  0.00000000  0.83504600  1
  Mg  Mg0  1  0.00000000  0.26709900  0.09248000  1
  Mg  Mg1  1  0.00000000  0.73290100  0.09248000  1
  Mg  Mg2  1  0.00000000  0.50000000  0.83481400  1
  Mg  Mg3  1  0.50000000  0.25119600  0.91569100  1
  Mg  Mg4  1  0.50000000  0.74880400  0.91569100  1
  Mg  Mg5  1  0.50000000  0.50000000  0.66261300  1
  Mg  Mg6  1  0.00000000  0.76709900  0.59248000  1
  Mg  Mg7  1  0.00000000  0.23290100  0.59248000  1
  Mg  Mg8  1  0.00000000  0.00000000  0.33481400  1
  Mg  Mg9  1  0.50000000  0.75119600  0.41569100  1
  Mg  Mg10  1  0.50000000  0.24880400  0.41569100  1
  Mg  Mg11  1  0.50000000  0.00000000  0.16261300  1
  Mo  Mo0  1  0.50000000  0.50000000  0.15118400  1
  Mo  Mo1  1  0.50000000  0.00000000  0.65118400  1
loop_
_geom_bond_atom_site_label_1
_geom_bond_atom_site_label_2
_geom_bond_distance
_geom_bond_site_symmetry_2
Mg0 Mg1 2.948871 1_555
Mg0 Mo0 2.996540 1_555
Mg0 Mo0 2.996540 1_455
Mg0 Na0 3.007538 1_555
Mg0 Mg8 3.117282 1_555
Mg0 Mg11 3.136321 1_455
Mg0 Mg11 3.136321 1_555
Mg0 Mg2 3.150779 1_554
Mg0 Mg3 3.172217 1_554
Mg0 Mg3 3.172217 1_454
Mg0 Na1 3.255572 1_554
Mg0 Mg1 3.381868 1_545
Mg1 Mo0 2.996540 1_555
Mg1 Mo0 2.996540 1_455
Mg1 Na0 3.007538 1_555
Mg1 Mg8 3.117282 1_565
Mg1 Mg11 3.136321 1_565
Mg1 Mg11 3.136321 1_465
Mg1 Mg2 3.150779 1_554
Mg1 Mg4 3.172217 1_554
Mg1 Mg4 3.172217 1_454
Mg1 Na1 3.255572 1_564
Mg2 Mg3 3.106076 1_455
Mg2 Mg4 3.106076 1_455
Mg2 Mg3 3.106076 1_555
Mg2 Mg4 3.106076 1_555
Mg2 Mg6 3.117282 1_555
Mg2 Mg7 3.117282 1_555
Mg2 Mg5 3.140993 1_455
Mg2 Mg5 3.140993 1_555
Mg2 Na1 3.165370 1_565
Mg2 Na1 3.165370 1_555
Mg3 Mo0 2.992896 1_556
Mg3 Na1 3.113080 1_555
Mg3 Na1 3.113080 1_655
Mg3 Mg5 3.156069 1_555
Mg3 Mo1 3.271014 1_555
Mg4 Mo0 2.992896 1_556
Mg4 Na1 3.113080 1_665
Mg4 Na1 3.113080 1_565
Mg4 Mg5 3.156069 1_555
Mg4 Mo1 3.271014 1_565
Mg5 Mg9 3.106324 1_555
Mg5 Mg6 3.136321 1_555
Mg5 Mg7 3.136321 1_555
Mg5 Mg6 3.136321 1_655
Mg5 Mg7 3.136321 1_655
Mg5 Mo1 3.167778 1_565
Mg5 Mo1 3.167778 1_555
Mg6 Mg7 2.948871 1_565
Mg6 Mo1 2.996540 1_565
Mg6 Mo1 2.996540 1_465
Mg6 Na1 3.007538 1_565
Mg6 Mg8 3.150779 1_565
Mg6 Mg9 3.172217 1_555
Mg6 Mg9 3.172217 1_455
Mg6 Na0 3.255572 1_555
Mg6 Mg7 3.381868 1_555
Mg7 Mo1 2.996540 1_455
Mg7 Mo1 2.996540 1_555
Mg7 Na1 3.007538 1_555
Mg7 Mg8 3.150779 1_555
Mg7 Na0 3.255572 1_555
Mg8 Mg9 3.106076 1_445
Mg8 Mg9 3.106076 1_545
Mg8 Na0 3.165370 1_555
Mg8 Na0 3.165370 1_545
Mg9 Mo1 2.992896 1_565
Mg9 Na0 3.113080 1_555
Mg9 Na0 3.113080 1_655
Mg9 Mo0 3.271014 1_555
Mg10 Mo1 2.992896 1_555
Mg10 Mg8 3.106076 1_555
Mg10 Mg8 3.106076 1_655
Mg10 Mg5 3.106324 1_555
Mg10 Na0 3.113080 1_555
Mg10 Na0 3.113080 1_655
Mg10 Mg11 3.156069 1_555
Mg10 Mg7 3.172217 1_555
Mg10 Mg7 3.172217 1_655
Mg10 Mo0 3.271014 1_555
Mg11 Mg4 3.106324 1_544
Mg11 Mg3 3.106324 1_554
Mg11 Mg8 3.140993 1_555
Mg11 Mg8 3.140993 1_655
Mg11 Mg9 3.156069 1_545
Mg11 Mo0 3.167778 1_545
Mg11 Mo0 3.167778 1_555
Mo0 Na0 3.217254 1_655
Mo0 Na0 3.217254 1_555
Mo1 Na1 3.217254 1_555
Mo1 Na1 3.217254 1_655
