# generated using pymatgen
data_PN2O4F
_symmetry_space_group_name_H-M   'P 1'
_cell_length_a   5.74220810
_cell_length_b   8.00282400
_cell_length_c   15.09150537
_cell_angle_alpha   90.00000000
_cell_angle_beta   89.24962974
_cell_angle_gamma   90.00000000
_symmetry_Int_Tables_number   1
_chemical_formula_structural   PN2O4F
_chemical_formula_sum   'P4 N8 O16 F4'
_cell_volume   693.45376545
_cell_formula_units_Z   4
loop_
 _symmetry_equiv_pos_site_id
 _symmetry_equiv_pos_as_xyz
  1  'x, y, z'
loop_
 _atom_site_type_symbol
 _atom_site_label
 _atom_site_symmetry_multiplicity
 _atom_site_fract_x
 _atom_site_fract_y
 _atom_site_fract_z
 _atom_site_occupancy
  P  P0  1  0.72824200  0.07306600  0.63413800  1
  P  P1  1  0.27175800  0.57306600  0.86586200  1
  P  P2  1  0.27175800  0.92693400  0.36586200  1
  P  P3  1  0.72824200  0.42693400  0.13413800  1
  N  N0  1  0.64719500  0.32782100  0.86776400  1
  N  N1  1  0.35280500  0.82782100  0.63223600  1
  N  N2  1  0.35280500  0.67217900  0.13223600  1
  N  N3  1  0.64719500  0.17217900  0.36776400  1
  N  N4  1  0.12843100  0.32644200  0.64591800  1
  N  N5  1  0.87156900  0.82644200  0.85408200  1
  N  N6  1  0.87156900  0.67355800  0.35408200  1
  N  N7  1  0.12843100  0.17355800  0.14591800  1
  O  O0  1  0.67141600  0.04803300  0.72823900  1
  O  O1  1  0.32858400  0.54803300  0.77176100  1
  O  O2  1  0.32858400  0.95196700  0.27176100  1
  O  O3  1  0.67141600  0.45196700  0.22823900  1
  O  O4  1  0.64892500  0.19292300  0.56730800  1
  O  O5  1  0.35107500  0.69292300  0.93269200  1
  O  O6  1  0.35107500  0.80707700  0.43269200  1
  O  O7  1  0.64892500  0.30707700  0.06730800  1
  O  O8  1  0.08609400  0.17759200  0.65877600  1
  O  O9  1  0.91390600  0.67759200  0.84122400  1
  O  O10  1  0.91390600  0.82240800  0.34122400  1
  O  O11  1  0.08609400  0.32240800  0.15877600  1
  O  O12  1  0.98725500  0.94096000  0.87861500  1
  O  O13  1  0.01274500  0.44096000  0.62138500  1
  O  O14  1  0.01274500  0.05904000  0.12138500  1
  O  O15  1  0.98725500  0.55904000  0.37861500  1
  F  F0  1  0.14777300  0.41791100  0.90870500  1
  F  F1  1  0.85222700  0.91791100  0.59129500  1
  F  F2  1  0.85222700  0.58208900  0.09129500  1
  F  F3  1  0.14777300  0.08208900  0.40870500  1
loop_
_geom_bond_atom_site_label_1
_geom_bond_atom_site_label_2
_geom_bond_distance
_geom_bond_site_symmetry_2
N4 O13 1.193615 1_555
N4 O8 1.230661 1_555
N5 O12 1.193615 1_555
N5 O9 1.230661 1_555
N6 O15 1.193615 1_555
N6 O10 1.230661 1_555
N7 O14 1.193615 1_555
N7 O11 1.230661 1_555
O0 P0 1.466707 1_555
O1 P1 1.466707 1_555
O2 P2 1.466707 1_555
O3 P3 1.466707 1_555
O4 P0 1.468580 1_555
O5 P1 1.468580 1_555
O6 P2 1.468580 1_555
O7 P3 1.468580 1_555
O8 P0 2.253987 1_455
O9 P1 2.253987 1_655
O10 P2 2.253987 1_655
O11 P3 2.253987 1_455
F0 P1 1.566724 1_555
F1 P0 1.566724 1_565
F2 P3 1.566724 1_555
F3 P2 1.566724 1_545
