# generated using pymatgen
data_NaV2O4
_symmetry_space_group_name_H-M   'P 1'
_cell_length_a   2.94714401
_cell_length_b   9.27565023
_cell_length_c   10.87477441
_cell_angle_alpha   89.76154141
_cell_angle_beta   90.00829665
_cell_angle_gamma   89.99876883
_symmetry_Int_Tables_number   1
_chemical_formula_structural   NaV2O4
_chemical_formula_sum   'Na4 V8 O16'
_cell_volume   297.27761743
_cell_formula_units_Z   4
loop_
 _symmetry_equiv_pos_site_id
 _symmetry_equiv_pos_as_xyz
  1  'x, y, z'
loop_
 _atom_site_type_symbol
 _atom_site_label
 _atom_site_symmetry_multiplicity
 _atom_site_fract_x
 _atom_site_fract_y
 _atom_site_fract_z
 _atom_site_occupancy
  Na  Na0  1  0.74998700  0.25611300  0.84662000  1
  Na  Na1  1  0.74997800  0.75514100  0.65350600  1
  Na  Na2  1  0.24998300  0.24419100  0.34856500  1
  Na  Na3  1  0.25001300  0.74587700  0.15167900  1
  V  V0  1  0.75000100  0.43443500  0.61088900  1
  V  V1  1  0.25000000  0.08016200  0.60477500  1
  V  V2  1  0.74988800  0.92045100  0.39576800  1
  V  V3  1  0.75000600  0.41548700  0.10622700  1
  V  V4  1  0.24999100  0.56693000  0.38844500  1
  V  V5  1  0.25003900  0.06525800  0.10943400  1
  V  V6  1  0.74998900  0.93403400  0.88912100  1
  V  V7  1  0.24998200  0.57822100  0.89650900  1
  O  O0  1  0.25002200  0.47957900  0.21414000  1
  O  O1  1  0.25029700  0.98024400  0.28379800  1
  O  O2  1  0.74991600  0.01958900  0.71757700  1
  O  O3  1  0.75000200  0.52050200  0.78175600  1
  O  O4  1  0.74998100  0.42395100  0.42708500  1
  O  O5  1  0.25000500  0.57686700  0.57076600  1
  O  O6  1  0.24998600  0.07647300  0.92512200  1
  O  O7  1  0.75003400  0.92379600  0.06957900  1
  O  O8  1  0.75001800  0.11279400  0.48100600  1
  O  O9  1  0.24983800  0.88681300  0.51912300  1
  O  O10  1  0.24999000  0.38540300  0.98383900  1
  O  O11  1  0.74999500  0.60774700  0.02303100  1
  O  O12  1  0.75006400  0.70975100  0.34927600  1
  O  O13  1  0.24997900  0.29080600  0.64876400  1
  O  O14  1  0.24998700  0.79014700  0.85289100  1
  O  O15  1  0.75003100  0.21923700  0.15070700  1
loop_
_geom_bond_atom_site_label_1
_geom_bond_atom_site_label_2
_geom_bond_distance
_geom_bond_site_symmetry_2
Na0 O6 2.379993 1_655
Na0 O6 2.380194 1_555
Na0 O10 2.418824 1_655
Na0 O10 2.419045 1_555
Na0 O3 2.548986 1_555
Na0 O2 2.609248 1_555
Na0 O13 2.626383 1_555
Na0 O13 2.626714 1_655
Na1 O5 2.393179 1_555
Na1 O5 2.393393 1_655
Na1 O9 2.404863 1_655
Na1 O9 2.405078 1_555
Na1 O2 2.552753 1_565
Na1 O3 2.580065 1_555
Na1 O14 2.642586 1_655
Na1 O14 2.642899 1_555
Na2 O4 2.385855 1_555
Na2 O4 2.385971 1_455
Na2 O8 2.390865 1_555
Na2 O8 2.391027 1_455
Na2 O1 2.550393 1_545
Na2 O15 2.618675 1_455
Na2 O15 2.619180 1_555
Na2 O0 2.622508 1_555
Na3 O7 2.383096 1_455
Na3 O7 2.383376 1_555
Na3 O11 2.405165 1_455
Na3 O11 2.405314 1_555
Na3 O0 2.559051 1_555
Na3 O1 2.610777 1_555
Na3 O12 2.625767 1_555
Na3 O12 2.625955 1_455
O0 V3 1.976738 1_455
O0 V3 1.976902 1_555
O0 V4 2.064532 1_555
O1 V2 1.987953 1_555
O1 V2 1.990018 1_455
O1 V5 2.050570 1_565
O2 V1 1.996210 1_555
O2 V1 1.996855 1_655
O2 V6 2.024239 1_545
O3 V7 2.005049 1_655
O3 V7 2.005385 1_555
O3 V0 2.025428 1_555
O4 V0 2.001595 1_555
O4 V4 2.025306 1_555
O4 V4 2.025478 1_655
O5 V4 1.985224 1_555
O5 V0 2.025372 1_555
O5 V0 2.025522 1_455
O6 V5 2.006617 1_556
O6 V6 2.018537 1_445
O6 V6 2.018591 1_545
O7 V6 1.964342 1_554
O7 V5 2.021307 1_665
O7 V5 2.021336 1_565
O8 V2 2.013958 1_545
O8 V1 2.017548 1_655
O8 V1 2.017919 1_555
O9 V2 2.015878 1_455
O9 V2 2.016388 1_555
O9 V1 2.024331 1_565
O10 V3 2.005834 1_556
O10 V3 2.006039 1_456
O10 V7 2.021523 1_555
O11 V3 1.996349 1_555
O11 V7 2.035239 1_554
O11 V7 2.035463 1_654
O12 V2 2.020754 1_555
O12 V4 2.025398 1_655
O12 V4 2.025842 1_555
O13 V1 2.013501 1_555
O13 V0 2.027545 1_455
O13 V0 2.027768 1_555
O14 V7 2.020250 1_555
O14 V6 2.027864 1_555
O14 V6 2.027897 1_455
O15 V3 1.881570 1_555
O15 V5 2.101891 1_555
O15 V5 2.101972 1_655
