# generated using pymatgen
data_U6Si19Pt30
_symmetry_space_group_name_H-M   'P 1'
_cell_length_a   16.11283437
_cell_length_b   16.11283437
_cell_length_c   4.00048300
_cell_angle_alpha   90.00000000
_cell_angle_beta   90.00000000
_cell_angle_gamma   120.00000153
_symmetry_Int_Tables_number   1
_chemical_formula_structural   U6Si19Pt30
_chemical_formula_sum   'U6 Si19 Pt30'
_cell_volume   899.47053246
_cell_formula_units_Z   1
loop_
 _symmetry_equiv_pos_site_id
 _symmetry_equiv_pos_as_xyz
  1  'x, y, z'
loop_
 _atom_site_type_symbol
 _atom_site_label
 _atom_site_symmetry_multiplicity
 _atom_site_fract_x
 _atom_site_fract_y
 _atom_site_fract_z
 _atom_site_occupancy
  U  U0  1  0.09861700  0.70346300  0.24866000  1
  U  U1  1  0.60484600  0.90138300  0.24866000  1
  U  U2  1  0.29653700  0.39515400  0.24866000  1
  U  U3  1  0.90138300  0.29653700  0.75134000  1
  U  U4  1  0.39515400  0.09861700  0.75134000  1
  U  U5  1  0.70346300  0.60484600  0.75134000  1
  Si  Si0  1  0.37346100  0.93907000  0.25011700  1
  Si  Si1  1  0.56560900  0.62653900  0.25011700  1
  Si  Si2  1  0.06093000  0.43439100  0.25011700  1
  Si  Si3  1  0.62653900  0.06093000  0.74988300  1
  Si  Si4  1  0.43439100  0.37346100  0.74988300  1
  Si  Si5  1  0.93907000  0.56560900  0.74988300  1
  Si  Si6  1  0.68162100  0.44452100  0.25046200  1
  Si  Si7  1  0.76290000  0.31837900  0.25046200  1
  Si  Si8  1  0.55547900  0.23710000  0.25046200  1
  Si  Si9  1  0.31837900  0.55547900  0.74953800  1
  Si  Si10  1  0.23710000  0.68162100  0.74953800  1
  Si  Si11  1  0.44452100  0.76290000  0.74953800  1
  Si  Si12  1  0.86463300  0.74449900  0.25109600  1
  Si  Si13  1  0.87986600  0.13536700  0.25109600  1
  Si  Si14  1  0.25550100  0.12013400  0.25109600  1
  Si  Si15  1  0.13536700  0.25550100  0.74890400  1
  Si  Si16  1  0.12013400  0.86463300  0.74890400  1
  Si  Si17  1  0.74449900  0.87986600  0.74890400  1
  Si  Si18  1  0.00000000  0.00000000  0.50000000  1
  Pt  Pt0  1  0.34420500  0.77411900  0.24985800  1
  Pt  Pt1  1  0.42991300  0.65579500  0.24985800  1
  Pt  Pt2  1  0.22588100  0.57008700  0.24985800  1
  Pt  Pt3  1  0.65579500  0.22588100  0.75014200  1
  Pt  Pt4  1  0.57008700  0.34420500  0.75014200  1
  Pt  Pt5  1  0.77411900  0.42991300  0.75014200  1
  Pt  Pt6  1  0.54470800  0.46812700  0.25027200  1
  Pt  Pt7  1  0.92341800  0.45529200  0.25027200  1
  Pt  Pt8  1  0.53187300  0.07658200  0.25027200  1
  Pt  Pt9  1  0.45529200  0.53187300  0.74972800  1
  Pt  Pt10  1  0.07658200  0.54470800  0.74972800  1
  Pt  Pt11  1  0.46812700  0.92341800  0.74972800  1
  Pt  Pt12  1  0.23916700  0.96253100  0.24811600  1
  Pt  Pt13  1  0.72336500  0.76083300  0.24811600  1
  Pt  Pt14  1  0.03746900  0.27663500  0.24811600  1
  Pt  Pt15  1  0.76083300  0.03746900  0.75188400  1
  Pt  Pt16  1  0.27663500  0.23916700  0.75188400  1
  Pt  Pt17  1  0.96253100  0.72336500  0.75188400  1
  Pt  Pt18  1  0.02845900  0.87693000  0.24192000  1
  Pt  Pt19  1  0.84847100  0.97154100  0.24192000  1
  Pt  Pt20  1  0.12307000  0.15152900  0.24192000  1
  Pt  Pt21  1  0.97154100  0.12307000  0.75808000  1
  Pt  Pt22  1  0.15152900  0.02845900  0.75808000  1
  Pt  Pt23  1  0.87693000  0.84847100  0.75808000  1
  Pt  Pt24  1  0.84047200  0.58517400  0.25094800  1
  Pt  Pt25  1  0.74470200  0.15952800  0.25094800  1
  Pt  Pt26  1  0.41482600  0.25529800  0.25094800  1
  Pt  Pt27  1  0.15952800  0.41482600  0.74905200  1
  Pt  Pt28  1  0.25529800  0.84047200  0.74905200  1
  Pt  Pt29  1  0.58517400  0.74470200  0.74905200  1
loop_
_geom_bond_atom_site_label_1
_geom_bond_atom_site_label_2
_geom_bond_distance
_geom_bond_site_symmetry_2
Si0 U4 3.132699 1_564
Si0 U4 3.138940 1_565
Si1 U5 3.132699 1_554
Si1 U5 3.138940 1_555
Si2 U3 3.132698 1_454
Si2 U3 3.138940 1_455
Si3 U1 3.132699 1_546
Si3 U1 3.138940 1_545
Si4 U2 3.132699 1_556
Si4 U2 3.138940 1_555
Si5 U0 3.132698 1_656
Si5 U0 3.138940 1_655
Si6 U5 3.142454 1_554
Si6 U5 3.146923 1_555
Si7 U3 3.142455 1_554
Si7 U3 3.146923 1_555
Si8 U4 3.142454 1_554
Si8 U4 3.146923 1_555
Si9 U2 3.142454 1_556
Si9 U2 3.146923 1_555
Si10 U0 3.142455 1_556
Si10 U0 3.146923 1_555
Si11 U1 3.142454 1_556
Si11 U1 3.146923 1_555
Si12 U5 3.156079 1_554
Si12 U5 3.157316 1_555
Si13 U3 3.156079 1_554
Si13 U3 3.157316 1_555
Si14 U4 3.156079 1_554
Si14 U4 3.157316 1_555
Si15 U2 3.156079 1_556
Si15 U2 3.157316 1_555
Si16 U0 3.156079 1_556
Si16 U0 3.157316 1_555
Si17 U1 3.156079 1_556
Si17 U1 3.157316 1_555
Pt0 Si0 2.456293 1_555
Pt0 Si10 2.573583 1_555
Pt0 Si10 2.575572 1_554
Pt0 Si11 2.633132 1_555
Pt0 Si11 2.635076 1_554
Pt1 Si1 2.456309 1_555
Pt1 Si11 2.573579 1_555
Pt1 Si11 2.575568 1_554
Pt1 Si9 2.633126 1_555
Pt1 Si9 2.635070 1_554
Pt2 Si2 2.456298 1_555
Pt2 Si9 2.573589 1_555
Pt2 Si9 2.575578 1_554
Pt2 Si10 2.633122 1_555
Pt2 Si10 2.635066 1_554
Pt3 Si3 2.456293 1_555
Pt3 Si7 2.573583 1_555
Pt3 Si7 2.575572 1_556
Pt3 Si8 2.633132 1_555
Pt3 Si8 2.635076 1_556
Pt4 Si4 2.456309 1_555
Pt4 Si8 2.573579 1_555
Pt4 Si8 2.575568 1_556
Pt4 Si6 2.633126 1_555
Pt4 Si6 2.635070 1_556
Pt5 Si5 2.456298 1_555
Pt5 Si6 2.573589 1_555
Pt5 Si6 2.575578 1_556
Pt5 Si7 2.633122 1_555
Pt5 Si7 2.635066 1_556
Pt6 Si1 2.401853 1_555
Pt6 Si6 2.418771 1_555
Pt6 Si4 2.601856 1_555
Pt6 Si4 2.604248 1_554
Pt6 U5 3.121705 1_554
Pt6 U5 3.127175 1_555
Pt7 Si2 2.401869 1_655
Pt7 Si7 2.418761 1_555
Pt7 Si5 2.601852 1_555
Pt7 Si5 2.604244 1_554
Pt7 U3 3.121710 1_554
Pt7 U3 3.127180 1_555
Pt8 Si0 2.401859 1_545
Pt8 Si8 2.418755 1_555
Pt8 Si3 2.601863 1_555
Pt8 Si3 2.604254 1_554
Pt8 U4 3.121698 1_554
Pt8 U4 3.127168 1_555
Pt9 Si4 2.401853 1_555
Pt9 Si9 2.418771 1_555
Pt9 Si1 2.601856 1_555
Pt9 Si1 2.604248 1_556
Pt9 U2 3.121705 1_556
Pt9 U2 3.127175 1_555
Pt10 Si5 2.401869 1_455
Pt10 Si10 2.418761 1_555
Pt10 Si2 2.601852 1_555
Pt10 Si2 2.604244 1_556
Pt10 U0 3.121710 1_556
Pt10 U0 3.127180 1_555
Pt11 Si3 2.401859 1_565
Pt11 Si11 2.418755 1_555
Pt11 Si0 2.601863 1_555
Pt11 Si0 2.604254 1_556
Pt11 U1 3.121698 1_556
Pt11 U1 3.127168 1_555
Pt12 Si0 2.375549 1_555
Pt12 Si14 2.418631 1_565
Pt12 Si16 2.670159 1_554
Pt12 Si16 2.674878 1_555
Pt12 U4 3.092500 1_564
Pt12 U4 3.109139 1_565
Pt13 Si1 2.375558 1_555
Pt13 Si12 2.418615 1_555
Pt13 Si17 2.670163 1_554
Pt13 Si17 2.674882 1_555
Pt13 U5 3.092495 1_554
Pt13 U5 3.109134 1_555
Pt14 Si2 2.375564 1_555
Pt14 Si13 2.418624 1_455
Pt14 Si15 2.670153 1_554
Pt14 Si15 2.674871 1_555
Pt14 U3 3.092507 1_454
Pt14 U3 3.109147 1_455
Pt15 Si3 2.375549 1_555
Pt15 Si17 2.418631 1_545
Pt15 Si13 2.670159 1_556
Pt15 Si13 2.674878 1_555
Pt15 U1 3.092500 1_546
Pt15 U1 3.109139 1_545
Pt16 Si4 2.375558 1_555
Pt16 Si15 2.418615 1_555
Pt16 Si14 2.670163 1_556
Pt16 Si14 2.674882 1_555
Pt16 U2 3.092495 1_556
Pt16 U2 3.109134 1_555
Pt17 Si5 2.375564 1_555
Pt17 Si16 2.418624 1_655
Pt17 Si12 2.670153 1_556
Pt17 Si12 2.674871 1_555
Pt17 U0 3.092507 1_656
Pt17 U0 3.109147 1_655
Pt18 Si12 2.426920 1_455
Pt18 Si18 2.473428 1_565
Pt18 Si16 2.530587 1_554
Pt18 Si16 2.574376 1_555
Pt19 Si13 2.426920 1_565
Pt19 Si18 2.473428 1_665
Pt19 Si17 2.530587 1_554
Pt19 Si17 2.574376 1_555
Pt20 Si14 2.426920 1_555
Pt20 Si18 2.473428 1_555
Pt20 Si15 2.530587 1_554
Pt20 Si15 2.574376 1_555
Pt21 Si15 2.426920 1_655
Pt21 Si18 2.473428 1_655
Pt21 Si13 2.530587 1_556
Pt21 Si13 2.574376 1_555
Pt22 Si16 2.426920 1_545
Pt22 Si18 2.473428 1_555
Pt22 Si14 2.530587 1_556
Pt22 Si14 2.574376 1_555
Pt23 Si17 2.426920 1_555
Pt23 Si18 2.473428 1_665
Pt23 Si12 2.530587 1_556
Pt23 Si12 2.574376 1_555
Pt24 Si12 2.396361 1_555
Pt24 Si6 2.426255 1_555
Pt24 Si5 2.666102 1_555
Pt24 Si5 2.672487 1_554
Pt24 U5 3.109409 1_554
Pt24 U5 3.111426 1_555
Pt25 Si13 2.396361 1_555
Pt25 Si7 2.426255 1_555
Pt25 Si3 2.666102 1_555
Pt25 Si3 2.672487 1_554
Pt25 U3 3.109409 1_554
Pt25 U3 3.111426 1_555
Pt26 Si14 2.396361 1_555
Pt26 Si8 2.426255 1_555
Pt26 Si4 2.666102 1_555
Pt26 Si4 2.672487 1_554
Pt26 U4 3.109409 1_554
Pt26 U4 3.111426 1_555
Pt27 Si15 2.396361 1_555
Pt27 Si9 2.426255 1_555
Pt27 Si2 2.666102 1_555
Pt27 Si2 2.672487 1_556
Pt27 U2 3.109409 1_556
Pt27 U2 3.111426 1_555
Pt28 Si16 2.396361 1_555
Pt28 Si10 2.426255 1_555
Pt28 Si0 2.666102 1_555
Pt28 Si0 2.672487 1_556
Pt28 U0 3.109409 1_556
Pt28 U0 3.111426 1_555
Pt29 Si17 2.396361 1_555
Pt29 Si11 2.426255 1_555
Pt29 Si1 2.666102 1_555
Pt29 Si1 2.672487 1_556
Pt29 U1 3.109409 1_556
Pt29 U1 3.111426 1_555
