# generated using pymatgen
data_CaFeReO6
_symmetry_space_group_name_H-M   'P 1'
_cell_length_a   5.51484100
_cell_length_b   5.33793300
_cell_length_c   9.32094751
_cell_angle_alpha   55.12545378
_cell_angle_beta   90.00000000
_cell_angle_gamma   90.00000000
_symmetry_Int_Tables_number   1
_chemical_formula_structural   CaFeReO6
_chemical_formula_sum   'Ca2 Fe2 Re2 O12'
_cell_volume   225.11010436
_cell_formula_units_Z   2
loop_
 _symmetry_equiv_pos_site_id
 _symmetry_equiv_pos_as_xyz
  1  'x, y, z'
loop_
 _atom_site_type_symbol
 _atom_site_label
 _atom_site_symmetry_multiplicity
 _atom_site_fract_x
 _atom_site_fract_y
 _atom_site_fract_z
 _atom_site_occupancy
  Ca  Ca0  1  0.31141600  0.23219000  0.75274600  1
  Ca  Ca1  1  0.68858400  0.23219000  0.25274600  1
  Fe  Fe0  1  0.75624300  0.98712400  0.00128400  1
  Fe  Fe1  1  0.24375700  0.98712400  0.50128400  1
  Re  Re0  1  0.23726700  0.49411400  0.00218000  1
  Re  Re1  1  0.76273300  0.49411400  0.50218000  1
  O  O0  1  0.76874100  0.65864300  0.25854500  1
  O  O1  1  0.26016400  0.32686000  0.24180600  1
  O  O2  1  0.73983600  0.32686000  0.74180600  1
  O  O3  1  0.23125900  0.65864300  0.75854500  1
  O  O4  1  0.45541200  0.19318200  0.03173000  1
  O  O5  1  0.94687700  0.83260700  0.45550000  1
  O  O6  1  0.05312300  0.83260700  0.95550000  1
  O  O7  1  0.54458800  0.19318200  0.53173000  1
  O  O8  1  0.52115100  0.74484600  0.96529700  1
  O  O9  1  0.04046900  0.26388000  0.54331700  1
  O  O10  1  0.47884900  0.74484600  0.46529700  1
  O  O11  1  0.95953100  0.26388000  0.04331700  1
loop_
_geom_bond_atom_site_label_1
_geom_bond_atom_site_label_2
_geom_bond_distance
_geom_bond_site_symmetry_2
Ca0 O3 2.349667 1_555
Ca0 O6 2.353807 1_545
Ca0 O9 2.386278 1_555
Ca0 O2 2.406043 1_555
Ca0 O8 2.477194 1_545
Ca0 O7 2.536015 1_555
Ca0 O4 2.610907 1_556
Ca0 O10 2.671187 1_555
Ca1 O0 2.349667 1_555
Ca1 O5 2.353807 1_545
Ca1 O11 2.386278 1_555
Ca1 O1 2.406043 1_555
Ca1 O10 2.477194 1_545
Ca1 O4 2.536015 1_555
Ca1 O7 2.610907 1_555
Ca1 O8 2.671187 1_554
Fe0 O6 1.986329 1_654
Fe0 O8 1.990484 1_554
Fe0 O0 2.005257 1_555
Fe0 O2 2.032416 1_564
Fe0 O11 2.062687 1_565
Fe0 O4 2.097551 1_565
Fe1 O5 1.986329 1_455
Fe1 O10 1.990484 1_555
Fe1 O3 2.005257 1_555
Fe1 O1 2.032416 1_565
Fe1 O9 2.062687 1_565
Fe1 O7 2.097551 1_565
O0 Re1 1.910157 1_555
O1 Re0 1.876530 1_555
O2 Re1 1.876530 1_555
O3 Re0 1.910157 1_556
O4 Re0 1.896726 1_555
O5 Re1 1.893751 1_555
O6 Re0 1.893751 1_556
O7 Re1 1.896726 1_555
O8 Re0 1.958144 1_556
O9 Re1 1.861324 1_455
O10 Re1 1.958144 1_555
O11 Re0 1.861324 1_655
