# generated using pymatgen
data_Bi(SO4)2
_symmetry_space_group_name_H-M   'P 1'
_cell_length_a   9.86641300
_cell_length_b   10.00410500
_cell_length_c   14.74928900
_cell_angle_alpha   90.00000000
_cell_angle_beta   90.00000000
_cell_angle_gamma   90.00000000
_symmetry_Int_Tables_number   1
_chemical_formula_structural   Bi(SO4)2
_chemical_formula_sum   'Bi8 S16 O64'
_cell_volume   1455.82313748
_cell_formula_units_Z   8
loop_
 _symmetry_equiv_pos_site_id
 _symmetry_equiv_pos_as_xyz
  1  'x, y, z'
loop_
 _atom_site_type_symbol
 _atom_site_label
 _atom_site_symmetry_multiplicity
 _atom_site_fract_x
 _atom_site_fract_y
 _atom_site_fract_z
 _atom_site_occupancy
  Bi  Bi0  1  0.89862500  0.85678800  0.12473100  1
  Bi  Bi1  1  0.60137500  0.85678800  0.62473100  1
  Bi  Bi2  1  0.39862500  0.64321200  0.12473100  1
  Bi  Bi3  1  0.10137500  0.64321200  0.62473100  1
  Bi  Bi4  1  0.89862500  0.35678800  0.37526900  1
  Bi  Bi5  1  0.60137500  0.35678800  0.87526900  1
  Bi  Bi6  1  0.39862500  0.14321200  0.37526900  1
  Bi  Bi7  1  0.10137500  0.14321200  0.87526900  1
  S  S0  1  0.92942200  0.92345200  0.72719400  1
  S  S1  1  0.57057800  0.92345200  0.22719400  1
  S  S2  1  0.31383800  0.84208700  0.48825900  1
  S  S3  1  0.18616200  0.84208700  0.98825900  1
  S  S4  1  0.81383800  0.65791300  0.48825900  1
  S  S5  1  0.68616200  0.65791300  0.98825900  1
  S  S6  1  0.07057800  0.57654800  0.22719400  1
  S  S7  1  0.42942200  0.57654800  0.72719400  1
  S  S8  1  0.57057800  0.42345200  0.27280600  1
  S  S9  1  0.92942200  0.42345200  0.77280600  1
  S  S10  1  0.31383800  0.34208700  0.01174100  1
  S  S11  1  0.18616200  0.34208700  0.51174100  1
  S  S12  1  0.81383800  0.15791300  0.01174100  1
  S  S13  1  0.68616200  0.15791300  0.51174100  1
  S  S14  1  0.42942200  0.07654800  0.77280600  1
  S  S15  1  0.07057800  0.07654800  0.27280600  1
  O  O0  1  0.30682800  0.99148200  0.47723400  1
  O  O1  1  0.19317200  0.99148200  0.97723400  1
  O  O2  1  0.01055900  0.99499800  0.34283700  1
  O  O3  1  0.48944100  0.99499800  0.84283700  1
  O  O4  1  0.53554900  0.97173200  0.32184800  1
  O  O5  1  0.96445100  0.97173200  0.82184800  1
  O  O6  1  0.72291300  0.92291500  0.22538000  1
  O  O7  1  0.77708700  0.92291500  0.72538000  1
  O  O8  1  0.26358200  0.81667900  0.07511900  1
  O  O9  1  0.23641800  0.81667900  0.57511900  1
  O  O10  1  0.03982900  0.80305800  0.00561900  1
  O  O11  1  0.46017100  0.80305800  0.50561900  1
  O  O12  1  0.97609000  0.77988900  0.72325900  1
  O  O13  1  0.52391000  0.77988900  0.22325900  1
  O  O14  1  0.26318500  0.76814600  0.41154000  1
  O  O15  1  0.23681500  0.76814600  0.91154000  1
  O  O16  1  0.76318500  0.73185400  0.41154000  1
  O  O17  1  0.73681500  0.73185400  0.91154000  1
  O  O18  1  0.02391000  0.72011100  0.22325900  1
  O  O19  1  0.47609000  0.72011100  0.72325900  1
  O  O20  1  0.96017100  0.69694200  0.50561900  1
  O  O21  1  0.53982900  0.69694200  0.00561900  1
  O  O22  1  0.76358200  0.68332100  0.07511900  1
  O  O23  1  0.73641800  0.68332100  0.57511900  1
  O  O24  1  0.22291300  0.57708500  0.22538000  1
  O  O25  1  0.27708700  0.57708500  0.72538000  1
  O  O26  1  0.46445100  0.52826800  0.82184800  1
  O  O27  1  0.03554900  0.52826800  0.32184800  1
  O  O28  1  0.51055900  0.50500200  0.34283700  1
  O  O29  1  0.98944100  0.50500200  0.84283700  1
  O  O30  1  0.80682800  0.50851800  0.47723400  1
  O  O31  1  0.69317200  0.50851800  0.97723400  1
  O  O32  1  0.30682800  0.49148200  0.02276600  1
  O  O33  1  0.19317200  0.49148200  0.52276600  1
  O  O34  1  0.48944100  0.49499800  0.65716300  1
  O  O35  1  0.01055900  0.49499800  0.15716300  1
  O  O36  1  0.53554900  0.47173200  0.17815200  1
  O  O37  1  0.96445100  0.47173200  0.67815200  1
  O  O38  1  0.72291300  0.42291500  0.27462000  1
  O  O39  1  0.77708700  0.42291500  0.77462000  1
  O  O40  1  0.26358200  0.31667900  0.42488100  1
  O  O41  1  0.23641800  0.31667900  0.92488100  1
  O  O42  1  0.46017100  0.30305800  0.99438100  1
  O  O43  1  0.03982900  0.30305800  0.49438100  1
  O  O44  1  0.52391000  0.27988900  0.27674100  1
  O  O45  1  0.97609000  0.27988900  0.77674100  1
  O  O46  1  0.26318500  0.26814600  0.08846000  1
  O  O47  1  0.23681500  0.26814600  0.58846000  1
  O  O48  1  0.76318500  0.23185400  0.08846000  1
  O  O49  1  0.73681500  0.23185400  0.58846000  1
  O  O50  1  0.47609000  0.22011100  0.77674100  1
  O  O51  1  0.02391000  0.22011100  0.27674100  1
  O  O52  1  0.53982900  0.19694200  0.49438100  1
  O  O53  1  0.96017100  0.19694200  0.99438100  1
  O  O54  1  0.76358200  0.18332100  0.42488100  1
  O  O55  1  0.73641800  0.18332100  0.92488100  1
  O  O56  1  0.27708700  0.07708500  0.77462000  1
  O  O57  1  0.22291300  0.07708500  0.27462000  1
  O  O58  1  0.46445100  0.02826800  0.67815200  1
  O  O59  1  0.03554900  0.02826800  0.17815200  1
  O  O60  1  0.98944100  0.00500200  0.65716300  1
  O  O61  1  0.51055900  0.00500200  0.15716300  1
  O  O62  1  0.80682800  0.00851800  0.02276600  1
  O  O63  1  0.69317200  0.00851800  0.52276600  1
loop_
_geom_bond_atom_site_label_1
_geom_bond_atom_site_label_2
_geom_bond_distance
_geom_bond_site_symmetry_2
Bi0 O10 2.305705 1_655
Bi0 O22 2.307002 1_555
Bi0 O62 2.320807 1_565
Bi0 O59 2.321387 1_665
Bi0 O18 2.347214 1_655
Bi0 O6 2.376323 1_555
Bi1 O11 2.305705 1_555
Bi1 O23 2.307002 1_555
Bi1 O63 2.320807 1_565
Bi1 O58 2.321387 1_565
Bi1 O19 2.347214 1_555
Bi1 O7 2.376323 1_555
Bi2 O21 2.305705 1_555
Bi2 O8 2.307002 1_555
Bi2 O32 2.320807 1_555
Bi2 O36 2.321387 1_555
Bi2 O13 2.347214 1_555
Bi2 O24 2.376323 1_555
Bi3 O20 2.305705 1_455
Bi3 O9 2.307002 1_555
Bi3 O33 2.320807 1_555
Bi3 O37 2.321387 1_455
Bi3 O12 2.347214 1_455
Bi3 O25 2.376323 1_555
Bi4 O43 2.305705 1_655
Bi4 O54 2.307002 1_555
Bi4 O30 2.320807 1_555
Bi4 O27 2.321387 1_655
Bi4 O51 2.347214 1_655
Bi4 O38 2.376323 1_555
Bi5 O42 2.305705 1_555
Bi5 O55 2.307002 1_555
Bi5 O31 2.320807 1_555
Bi5 O26 2.321387 1_555
Bi5 O50 2.347214 1_555
Bi5 O39 2.376323 1_555
Bi6 O52 2.305705 1_555
Bi6 O40 2.307002 1_555
Bi6 O0 2.320807 1_545
Bi6 O4 2.321387 1_545
Bi6 O44 2.347214 1_555
Bi6 O57 2.376323 1_555
Bi7 O53 2.305705 1_455
Bi7 O41 2.307002 1_555
Bi7 O1 2.320807 1_545
Bi7 O5 2.321387 1_445
Bi7 O45 2.347214 1_455
Bi7 O56 2.376323 1_555
O0 S2 1.504974 1_555
O1 S3 1.504974 1_555
O2 S15 1.443313 1_565
O3 S14 1.443313 1_565
O4 S1 1.517159 1_555
O5 S0 1.517159 1_555
O6 S1 1.503248 1_555
O7 S0 1.503248 1_555
O8 S3 1.513065 1_554
O9 S2 1.513065 1_555
O10 S3 1.517405 1_554
O11 S2 1.517405 1_555
O12 S0 1.509339 1_555
O13 S1 1.509339 1_555
O14 S2 1.441300 1_555
O15 S3 1.441300 1_555
O16 S4 1.441300 1_555
O17 S5 1.441300 1_555
O18 S6 1.509339 1_555
O19 S7 1.509339 1_555
O20 S4 1.517405 1_555
O21 S5 1.517405 1_554
O22 S5 1.513065 1_554
O23 S4 1.513065 1_555
O24 S6 1.503248 1_555
O25 S7 1.503248 1_555
O26 S7 1.517159 1_555
O27 S6 1.517159 1_555
O28 S8 1.443313 1_555
O29 S9 1.443313 1_555
O30 S4 1.504974 1_555
O31 S5 1.504974 1_555
O32 S10 1.504974 1_555
O33 S11 1.504974 1_555
O34 S7 1.443313 1_555
O35 S6 1.443313 1_555
O36 S8 1.517159 1_555
O37 S9 1.517159 1_555
O38 S8 1.503248 1_555
O39 S9 1.503248 1_555
O40 S11 1.513065 1_555
O41 S10 1.513065 1_556
O42 S10 1.517405 1_556
O43 S11 1.517405 1_555
O44 S8 1.509339 1_555
O45 S9 1.509339 1_555
O46 S10 1.441300 1_555
O47 S11 1.441300 1_555
O48 S12 1.441300 1_555
O49 S13 1.441300 1_555
O50 S14 1.509339 1_555
O51 S15 1.509339 1_555
O52 S13 1.517405 1_555
O53 S12 1.517405 1_556
O54 S13 1.513065 1_555
O55 S12 1.513065 1_556
O56 S14 1.503248 1_555
O57 S15 1.503248 1_555
O58 S14 1.517159 1_555
O59 S15 1.517159 1_555
O60 S0 1.443313 1_545
O61 S1 1.443313 1_545
O62 S12 1.504974 1_555
O63 S13 1.504974 1_555
