# generated using pymatgen
data_KCu2H2C2BrN2O
_symmetry_space_group_name_H-M   'P 1'
_cell_length_a   7.81708900
_cell_length_b   9.34195700
_cell_length_c   10.67580400
_cell_angle_alpha   90.00000000
_cell_angle_beta   90.00000000
_cell_angle_gamma   90.00000000
_symmetry_Int_Tables_number   1
_chemical_formula_structural   KCu2H2C2BrN2O
_chemical_formula_sum   'K4 Cu8 H8 C8 Br4 N8 O4'
_cell_volume   779.62097045
_cell_formula_units_Z   4
loop_
 _symmetry_equiv_pos_site_id
 _symmetry_equiv_pos_as_xyz
  1  'x, y, z'
loop_
 _atom_site_type_symbol
 _atom_site_label
 _atom_site_symmetry_multiplicity
 _atom_site_fract_x
 _atom_site_fract_y
 _atom_site_fract_z
 _atom_site_occupancy
  K  K0  1  0.56097400  0.42030700  0.75000000  1
  K  K1  1  0.43902600  0.57969300  0.25000000  1
  K  K2  1  0.93902600  0.92030700  0.25000000  1
  K  K3  1  0.06097400  0.07969300  0.75000000  1
  Cu  Cu0  1  0.74566300  0.77585500  0.93538800  1
  Cu  Cu1  1  0.25433700  0.22414500  0.06461200  1
  Cu  Cu2  1  0.75433700  0.27585500  0.06461200  1
  Cu  Cu3  1  0.25433700  0.22414500  0.43538800  1
  Cu  Cu4  1  0.24566300  0.72414500  0.93538800  1
  Cu  Cu5  1  0.74566300  0.77585500  0.56461200  1
  Cu  Cu6  1  0.24566300  0.72414500  0.56461200  1
  Cu  Cu7  1  0.75433700  0.27585500  0.43538800  1
  H  H0  1  0.96343400  0.41794200  0.82150300  1
  H  H1  1  0.03656600  0.58205800  0.17849700  1
  H  H2  1  0.53656600  0.91794200  0.17849700  1
  H  H3  1  0.03656600  0.58205800  0.32150300  1
  H  H4  1  0.46343400  0.08205800  0.82150300  1
  H  H5  1  0.96343400  0.41794200  0.67849700  1
  H  H6  1  0.46343400  0.08205800  0.67849700  1
  H  H7  1  0.53656600  0.91794200  0.32150300  1
  C  C0  1  0.74171300  0.59301700  0.49969000  1
  C  C1  1  0.25828700  0.40698300  0.50031000  1
  C  C2  1  0.75828700  0.09301700  0.50031000  1
  C  C3  1  0.25828700  0.40698300  0.99969000  1
  C  C4  1  0.24171300  0.90698300  0.49969000  1
  C  C5  1  0.74171300  0.59301700  0.00031000  1
  C  C6  1  0.24171300  0.90698300  0.00031000  1
  C  C7  1  0.75828700  0.09301700  0.99969000  1
  Br  Br0  1  0.99975900  0.73363600  0.75000000  1
  Br  Br1  1  0.00024100  0.26636400  0.25000000  1
  Br  Br2  1  0.50024100  0.23363600  0.25000000  1
  Br  Br3  1  0.49975900  0.76636400  0.75000000  1
  N  N0  1  0.75901800  0.97292500  0.96554500  1
  N  N1  1  0.24098200  0.02707500  0.03445500  1
  N  N2  1  0.74098200  0.47292500  0.03445500  1
  N  N3  1  0.24098200  0.02707500  0.46554500  1
  N  N4  1  0.25901800  0.52707500  0.96554500  1
  N  N5  1  0.75901800  0.97292500  0.53445500  1
  N  N6  1  0.25901800  0.52707500  0.53445500  1
  N  N7  1  0.74098200  0.47292500  0.46554500  1
  O  O0  1  0.92990500  0.35912500  0.75000000  1
  O  O1  1  0.07009500  0.64087500  0.25000000  1
  O  O2  1  0.57009500  0.85912500  0.25000000  1
  O  O3  1  0.42990500  0.14087500  0.75000000  1
loop_
_geom_bond_atom_site_label_1
_geom_bond_atom_site_label_2
_geom_bond_distance
_geom_bond_site_symmetry_2
K0 O3 2.804312 1_555
K0 O0 2.940058 1_555
K1 O2 2.804312 1_555
K1 O1 2.940058 1_555
K2 O1 2.804312 1_655
K2 O2 2.940058 1_555
K3 O0 2.804312 1_455
K3 O3 2.940058 1_555
Cu0 N0 1.871872 1_555
Cu1 N1 1.871872 1_555
Cu2 N2 1.871872 1_555
Cu3 N3 1.871872 1_555
Cu4 N4 1.871872 1_555
Cu5 N5 1.871872 1_555
Cu6 N6 1.871872 1_555
Cu7 N7 1.871872 1_555
H0 O0 0.976379 1_555
H1 O1 0.976379 1_555
H2 O2 0.976379 1_555
H3 O1 0.976379 1_555
H4 O3 0.976379 1_555
H5 O0 0.976379 1_555
H6 O3 0.976379 1_555
H7 O2 0.976379 1_555
C0 N7 1.179643 1_555
C0 Cu5 1.843589 1_555
C1 N6 1.179643 1_555
C1 Cu3 1.843589 1_555
C2 N5 1.179643 1_545
C2 Cu7 1.843589 1_555
C3 N4 1.179643 1_555
C3 Cu1 1.843589 1_556
C4 N3 1.179643 1_565
C4 Cu6 1.843589 1_555
C5 N2 1.179643 1_555
C5 Cu0 1.843589 1_554
C6 N1 1.179643 1_565
C6 Cu4 1.843589 1_554
C7 N0 1.179643 1_545
C7 Cu2 1.843589 1_556
Br0 Cu4 2.760438 1_655
Br0 Cu6 2.760438 1_655
Br0 Cu5 2.831609 1_555
Br0 Cu0 2.831609 1_555
Br0 K3 3.268073 1_665
Br1 Cu7 2.760438 1_455
Br1 Cu2 2.760438 1_455
Br1 Cu1 2.831609 1_555
Br1 Cu3 2.831609 1_555
Br1 K2 3.268073 1_445
Br2 Cu1 2.760438 1_555
Br2 Cu3 2.760438 1_555
Br2 Cu2 2.831609 1_555
Br2 Cu7 2.831609 1_555
Br2 K1 3.268073 1_555
Br3 Cu5 2.760438 1_555
Br3 Cu0 2.760438 1_555
Br3 Cu6 2.831609 1_555
Br3 Cu4 2.831609 1_555
Br3 K0 3.268073 1_555
