# generated using pymatgen
data_Li3V3P8O29
_symmetry_space_group_name_H-M   'P 1'
_cell_length_a   9.77933092
_cell_length_b   9.77933092
_cell_length_c   14.26956485
_cell_angle_alpha   89.45295410
_cell_angle_beta   89.45295410
_cell_angle_gamma   59.95881130
_symmetry_Int_Tables_number   1
_chemical_formula_structural   Li3V3P8O29
_chemical_formula_sum   'Li6 V6 P16 O58'
_cell_volume   1181.28002777
_cell_formula_units_Z   2
loop_
 _symmetry_equiv_pos_site_id
 _symmetry_equiv_pos_as_xyz
  1  'x, y, z'
loop_
 _atom_site_type_symbol
 _atom_site_label
 _atom_site_symmetry_multiplicity
 _atom_site_fract_x
 _atom_site_fract_y
 _atom_site_fract_z
 _atom_site_occupancy
  Li  Li0  1  0.22559500  0.08141600  0.94025300  1
  Li  Li1  1  0.08141600  0.22559500  0.44025300  1
  Li  Li2  1  0.68770600  0.22627300  0.94100300  1
  Li  Li3  1  0.22627300  0.68770600  0.44100300  1
  Li  Li4  1  0.90777100  0.77566300  0.55892800  1
  Li  Li5  1  0.77566300  0.90777100  0.05892800  1
  V  V0  1  0.56377300  0.00569400  0.25777500  1
  V  V1  1  0.99691800  0.43320500  0.24489700  1
  V  V2  1  0.56582400  0.43703100  0.74645000  1
  V  V3  1  0.43703100  0.56582400  0.24645000  1
  V  V4  1  0.00569400  0.56377300  0.75777500  1
  V  V5  1  0.43320500  0.99691800  0.74489700  1
  P  P0  1  0.23488000  0.08671500  0.15704900  1
  P  P1  1  0.08671500  0.23488000  0.65704900  1
  P  P2  1  0.68614500  0.08820600  0.66118100  1
  P  P3  1  0.32612500  0.33853500  0.37014100  1
  P  P4  1  0.33853500  0.32612500  0.87014100  1
  P  P5  1  0.68390000  0.22825900  0.15866700  1
  P  P6  1  0.77127100  0.31221200  0.34046800  1
  P  P7  1  0.08820600  0.68614500  0.16118100  1
  P  P8  1  0.91243700  0.31289400  0.83774100  1
  P  P9  1  0.22825900  0.68390000  0.65866700  1
  P  P10  1  0.31221200  0.77127100  0.84046800  1
  P  P11  1  0.66656100  0.67268200  0.13114500  1
  P  P12  1  0.67268200  0.66656100  0.63114500  1
  P  P13  1  0.31289400  0.91243700  0.33774100  1
  P  P14  1  0.91300600  0.76589800  0.34177600  1
  P  P15  1  0.76589800  0.91300600  0.84177600  1
  O  O0  1  0.22498400  0.00687000  0.42028600  1
  O  O1  1  0.25512900  0.08828700  0.66957000  1
  O  O2  1  0.98697200  0.21670700  0.74166800  1
  O  O3  1  0.00687000  0.22498400  0.92028600  1
  O  O4  1  0.38495300  0.09614200  0.18112100  1
  O  O5  1  0.08828700  0.25512900  0.16957000  1
  O  O6  1  0.33305900  0.18081000  0.82814300  1
  O  O7  1  0.52419200  0.09467100  0.67746900  1
  O  O8  1  0.75682100  0.99553400  0.93147700  1
  O  O9  1  0.66265800  0.08086500  0.16662400  1
  O  O10  1  0.18081000  0.33305900  0.32814300  1
  O  O11  1  0.47868000  0.18672700  0.32646000  1
  O  O12  1  0.09614200  0.38495300  0.68112100  1
  O  O13  1  0.32527400  0.33422400  0.47414100  1
  O  O14  1  0.33422400  0.32527400  0.97414100  1
  O  O15  1  0.09467100  0.52419200  0.17746900  1
  O  O16  1  0.48748700  0.32864800  0.82912700  1
  O  O17  1  0.18672700  0.47868000  0.82646000  1
  O  O18  1  0.65710700  0.25844000  0.66676900  1
  O  O19  1  0.79478200  0.21193300  0.24452200  1
  O  O20  1  0.74975200  0.23665900  0.06624400  1
  O  O21  1  0.76552800  0.23092700  0.42615300  1
  O  O22  1  0.52096700  0.38045300  0.17929000  1
  O  O23  1  0.32864800  0.48748700  0.32912700  1
  O  O24  1  0.08086500  0.66265800  0.66662400  1
  O  O25  1  0.74240800  0.33883800  0.83806000  1
  O  O26  1  0.38045300  0.52096700  0.67929000  1
  O  O27  1  0.01433800  0.24299900  0.56557800  1
  O  O28  1  0.99553400  0.75682100  0.43147700  1
  O  O29  1  0.61763700  0.47444200  0.31950900  1
  O  O30  1  0.25844000  0.65710700  0.16676900  1
  O  O31  1  0.00841700  0.78704200  0.25617500  1
  O  O32  1  0.91594500  0.33966200  0.33507600  1
  O  O33  1  0.66790300  0.51896600  0.67536400  1
  O  O34  1  0.47444200  0.61763700  0.81950900  1
  O  O35  1  0.23092700  0.76552800  0.92615300  1
  O  O36  1  0.23665900  0.74975200  0.56624400  1
  O  O37  1  0.21193300  0.79478200  0.74452200  1
  O  O38  1  0.33883800  0.74240800  0.33806000  1
  O  O39  1  0.81502800  0.52088800  0.17590000  1
  O  O40  1  0.90338900  0.47658400  0.82332100  1
  O  O41  1  0.51896600  0.66790300  0.17536400  1
  O  O42  1  0.66830500  0.67090500  0.52737400  1
  O  O43  1  0.67090500  0.66830500  0.02737400  1
  O  O44  1  0.90464800  0.61523600  0.32254800  1
  O  O45  1  0.52088800  0.81502800  0.67590000  1
  O  O46  1  0.82028300  0.66741000  0.67184100  1
  O  O47  1  0.33966200  0.91594500  0.83507600  1
  O  O48  1  0.21670700  0.98697200  0.24166800  1
  O  O49  1  0.24299900  0.01433800  0.06557800  1
  O  O50  1  0.47658400  0.90338900  0.32332100  1
  O  O51  1  0.66741000  0.82028300  0.17184100  1
  O  O52  1  0.91161000  0.74439100  0.83451200  1
  O  O53  1  0.61523600  0.90464800  0.82254800  1
  O  O54  1  0.99514100  0.77250900  0.07819500  1
  O  O55  1  0.74439100  0.91161000  0.33451200  1
  O  O56  1  0.77250900  0.99514100  0.57819500  1
  O  O57  1  0.78704200  0.00841700  0.75617500  1
loop_
_geom_bond_atom_site_label_1
_geom_bond_atom_site_label_2
_geom_bond_distance
_geom_bond_site_symmetry_2
Li0 O49 1.878573 1_556
Li0 O3 1.903884 1_555
Li0 O47 2.079050 1_545
Li0 O6 2.359970 1_555
Li1 O27 1.878573 1_555
Li1 O0 1.903884 1_555
Li1 O32 2.079050 1_455
Li1 O10 2.359970 1_555
Li2 O20 1.912645 1_556
Li2 O8 2.010981 1_545
Li2 O25 2.049268 1_555
Li2 O16 2.334765 1_555
Li3 O36 1.912645 1_555
Li3 O28 2.010981 1_455
Li3 O38 2.049268 1_555
Li3 O23 2.334765 1_555
Li4 O56 1.895728 1_555
Li4 O28 1.973925 1_555
Li4 O24 2.143030 1_655
Li4 O46 2.301464 1_555
Li5 O54 1.895728 1_555
Li5 O8 1.973925 1_554
Li5 O9 2.143030 1_565
Li5 O51 2.301464 1_555
O0 P13 1.478461 1_545
O1 P1 1.560873 1_555
O1 V5 1.856309 1_545
O2 P1 1.608728 1_655
O2 P8 1.616967 1_555
O3 P8 1.478461 1_455
O4 P0 1.557587 1_555
O4 V0 1.872495 1_555
O5 P0 1.560873 1_555
O5 V1 1.856309 1_455
O6 P4 1.573076 1_555
O6 V5 1.964537 1_545
O7 P2 1.568250 1_555
O7 V5 1.857177 1_545
O8 P15 1.497815 1_555
O9 P5 1.558829 1_555
O9 V0 1.958781 1_555
O10 P3 1.573076 1_555
O10 V1 1.964537 1_455
O11 P3 1.612621 1_555
O11 V0 1.824783 1_555
O12 P1 1.557587 1_555
O12 V4 1.872495 1_555
O13 P3 1.484293 1_555
O14 P4 1.484293 1_555
O15 P7 1.568250 1_555
O15 V1 1.857177 1_455
O16 P4 1.576195 1_555
O16 V2 1.968248 1_555
O17 P4 1.612621 1_555
O17 V4 1.824783 1_555
O18 P2 1.545069 1_555
O18 V2 1.896700 1_555
O19 P5 1.597030 1_555
O19 P6 1.637952 1_555
O20 P5 1.481715 1_555
O21 P6 1.467936 1_555
O22 P5 1.570222 1_555
O22 V3 1.845735 1_555
O23 P3 1.576195 1_555
O23 V3 1.968248 1_555
O24 P9 1.558829 1_555
O24 V4 1.958781 1_555
O25 P8 1.551347 1_555
O25 V2 1.992957 1_555
O26 P9 1.570222 1_555
O26 V2 1.845735 1_555
O27 P1 1.473214 1_555
O28 P14 1.497815 1_555
O29 P6 1.573748 1_555
O29 V3 1.855257 1_555
O30 P7 1.545069 1_555
O30 V3 1.896700 1_555
O31 P14 1.603736 1_455
O31 P7 1.629217 1_555
O32 P6 1.567635 1_555
O32 V1 1.950161 1_555
O33 P12 1.591622 1_555
O33 V2 1.852976 1_555
O34 P10 1.573748 1_555
O34 V2 1.855257 1_555
O35 P10 1.467936 1_555
O36 P9 1.481715 1_555
O37 P9 1.597030 1_555
O37 P10 1.637952 1_555
O38 P13 1.551347 1_555
O38 V3 1.992957 1_555
O39 P11 1.600346 1_555
O39 V1 1.832700 1_555
O40 P8 1.570000 1_555
O40 V4 1.850349 1_655
O41 P11 1.591622 1_555
O41 V3 1.852976 1_555
O42 P12 1.481383 1_555
O43 P11 1.481383 1_555
O44 P14 1.543216 1_555
O44 V1 1.902936 1_555
O45 P12 1.600346 1_555
O45 V5 1.832700 1_555
O46 P12 1.564900 1_555
O46 V4 1.999323 1_655
O47 P10 1.567635 1_555
O47 V5 1.950161 1_555
O48 P0 1.608728 1_565
O48 P13 1.616967 1_555
O49 P0 1.473214 1_555
O50 P13 1.570000 1_555
O50 V0 1.850349 1_565
O51 P11 1.564900 1_555
O51 V0 1.999323 1_565
O52 P15 1.551810 1_555
O52 V4 1.885733 1_655
O53 P15 1.543216 1_555
O53 V5 1.902936 1_555
O54 P7 1.475043 1_655
O55 P14 1.551810 1_555
O55 V0 1.885733 1_565
O56 P2 1.475043 1_565
O57 P15 1.603736 1_545
O57 P2 1.629217 1_555
