# generated using pymatgen
data_Zr6CoSb2
_symmetry_space_group_name_H-M   'P 1'
_cell_length_a   7.80291814
_cell_length_b   7.80291814
_cell_length_c   3.62743552
_cell_angle_alpha   90.00000000
_cell_angle_beta   90.00000000
_cell_angle_gamma   119.99999945
_symmetry_Int_Tables_number   1
_chemical_formula_structural   Zr6CoSb2
_chemical_formula_sum   'Zr6 Co1 Sb2'
_cell_volume   191.26893357
_cell_formula_units_Z   1
loop_
 _symmetry_equiv_pos_site_id
 _symmetry_equiv_pos_as_xyz
  1  'x, y, z'
loop_
 _atom_site_type_symbol
 _atom_site_label
 _atom_site_symmetry_multiplicity
 _atom_site_fract_x
 _atom_site_fract_y
 _atom_site_fract_z
 _atom_site_occupancy
  Zr  Zr0  1  0.23880349  -0.00000000  0.50000000  1
  Zr  Zr1  1  -0.00000000  0.23880349  0.50000000  1
  Zr  Zr2  1  0.76119651  0.76119651  0.50000000  1
  Zr  Zr3  1  0.59735465  -0.00000000  0.00000000  1
  Zr  Zr4  1  -0.00000000  0.59735465  -0.00000000  1
  Zr  Zr5  1  0.40264535  0.40264535  0.00000000  1
  Co  Co0  1  0.00000000  -0.00000000  -0.00000000  1
  Sb  Sb0  1  0.33333300  0.66666700  0.50000000  1
  Sb  Sb1  1  0.66666700  0.33333300  0.50000000  1
loop_
_geom_bond_atom_site_label_1
_geom_bond_atom_site_label_2
_geom_bond_distance
_geom_bond_site_symmetry_2
Co0 Zr1 2.600326 1_554
Co0 Zr0 2.600326 1_555
Co0 Zr0 2.600326 1_554
Co0 Zr1 2.600326 1_555
Co0 Zr2 2.600326 1_444
Co0 Zr2 2.600326 1_445
Co0 Zr4 3.141809 1_545
Co0 Zr3 3.141809 1_455
Co0 Zr5 3.141809 1_555
Sb0 Zr4 2.990053 1_555
Sb0 Zr4 2.990053 1_556
Sb0 Zr3 2.990055 1_565
Sb0 Zr3 2.990055 1_566
Sb0 Zr5 2.990059 1_555
Sb0 Zr5 2.990059 1_556
Sb0 Zr0 3.037696 1_565
Sb0 Zr1 3.037702 1_555
Sb0 Zr2 3.037704 1_555
Sb1 Zr3 2.990053 1_555
Sb1 Zr3 2.990053 1_556
Sb1 Zr4 2.990055 1_655
Sb1 Zr4 2.990055 1_656
Sb1 Zr5 2.990059 1_555
Sb1 Zr5 2.990059 1_556
Sb1 Zr1 3.037696 1_655
Sb1 Zr0 3.037702 1_555
Sb1 Zr2 3.037704 1_555
