# generated using pymatgen
data_La2Ta2O9
_symmetry_space_group_name_H-M   'P 1'
_cell_length_a   3.92810600
_cell_length_b   6.80879700
_cell_length_c   15.74008978
_cell_angle_alpha   67.39164034
_cell_angle_beta   90.00000000
_cell_angle_gamma   90.00000000
_symmetry_Int_Tables_number   1
_chemical_formula_structural   La2Ta2O9
_chemical_formula_sum   'La4 Ta4 O18'
_cell_volume   388.62882581
_cell_formula_units_Z   2
loop_
 _symmetry_equiv_pos_site_id
 _symmetry_equiv_pos_as_xyz
  1  'x, y, z'
loop_
 _atom_site_type_symbol
 _atom_site_label
 _atom_site_symmetry_multiplicity
 _atom_site_fract_x
 _atom_site_fract_y
 _atom_site_fract_z
 _atom_site_occupancy
  La  La0  1  0.49407400  0.18681200  0.80447300  1
  La  La1  1  0.00592600  0.18681200  0.30447300  1
  La  La2  1  0.50592600  0.81318800  0.19552700  1
  La  La3  1  0.99407400  0.81318800  0.69552700  1
  Ta  Ta0  1  0.00415200  0.19560100  0.03789900  1
  Ta  Ta1  1  0.49584800  0.19560100  0.53789900  1
  Ta  Ta2  1  0.99584800  0.80439900  0.96210100  1
  Ta  Ta3  1  0.50415200  0.80439900  0.46210100  1
  O  O0  1  0.99887300  0.84433700  0.07962700  1
  O  O1  1  0.50112700  0.84433700  0.57962700  1
  O  O2  1  0.00112700  0.15566300  0.92037300  1
  O  O3  1  0.49887300  0.15566300  0.42037300  1
  O  O4  1  0.50178500  0.16197700  0.04683100  1
  O  O5  1  0.99821500  0.16197700  0.54683100  1
  O  O6  1  0.49821500  0.83802300  0.95316900  1
  O  O7  1  0.00178500  0.83802300  0.45316900  1
  O  O8  1  0.00000000  0.50000000  0.00000000  1
  O  O9  1  0.50000000  0.50000000  0.50000000  1
  O  O10  1  0.49796500  0.08056500  0.67430000  1
  O  O11  1  0.00203500  0.08056500  0.17430000  1
  O  O12  1  0.50203500  0.91943500  0.32570000  1
  O  O13  1  0.99796500  0.91943500  0.82570000  1
  O  O14  1  0.99219100  0.43757200  0.72099700  1
  O  O15  1  0.50780900  0.43757200  0.22099700  1
  O  O16  1  0.00780900  0.56242800  0.27900300  1
  O  O17  1  0.49219100  0.56242800  0.77900300  1
loop_
_geom_bond_atom_site_label_1
_geom_bond_atom_site_label_2
_geom_bond_distance
_geom_bond_site_symmetry_2
La0 O10 2.421017 1_555
La0 O17 2.431714 1_555
La0 O14 2.597151 1_555
La0 O13 2.599219 1_445
La0 O14 2.608314 1_455
La0 O2 2.612457 1_555
La0 O6 2.616191 1_545
La0 O13 2.622216 1_545
La0 O2 2.653788 1_655
La1 O11 2.421017 1_555
La1 O16 2.431714 1_555
La1 O15 2.597151 1_455
La1 O12 2.599219 1_545
La1 O15 2.608314 1_555
La1 O3 2.612457 1_555
La1 O7 2.616191 1_545
La1 O12 2.622216 1_445
La1 O3 2.653788 1_455
La2 O12 2.421017 1_555
La2 O15 2.431714 1_555
La2 O16 2.597151 1_555
La2 O11 2.599219 1_665
La2 O16 2.608314 1_655
La2 O0 2.612457 1_555
La2 O4 2.616191 1_565
La2 O11 2.622216 1_565
La2 O0 2.653788 1_455
La3 O13 2.421017 1_555
La3 O14 2.431714 1_555
La3 O17 2.597151 1_655
La3 O10 2.599219 1_565
La3 O17 2.608314 1_555
La3 O1 2.612457 1_555
La3 O5 2.616191 1_565
La3 O10 2.622216 1_665
La3 O1 2.653788 1_655
O0 Ta2 1.970500 1_554
O0 Ta0 2.223556 1_665
O1 Ta3 1.970500 1_555
O1 Ta1 2.223556 1_565
O2 Ta0 1.970500 1_556
O2 Ta2 2.223556 1_445
O3 Ta1 1.970500 1_555
O3 Ta3 2.223556 1_545
O4 Ta0 1.966850 1_555
O4 Ta0 1.985333 1_655
O5 Ta1 1.966850 1_655
O5 Ta1 1.985333 1_555
O6 Ta2 1.966850 1_555
O6 Ta2 1.985333 1_455
O7 Ta3 1.966850 1_455
O7 Ta3 1.985333 1_555
O8 Ta2 1.923839 1_454
O8 Ta0 1.923839 1_555
O9 Ta3 1.923839 1_555
O9 Ta1 1.923839 1_555
O10 Ta1 1.982443 1_555
O11 Ta0 1.982443 1_555
O12 Ta3 1.982443 1_555
O13 Ta2 1.982443 1_555
