# generated using pymatgen
data_Mg3Co2O7
_symmetry_space_group_name_H-M   'P 1'
_cell_length_a   5.01401396
_cell_length_b   9.07598603
_cell_length_c   5.32471038
_cell_angle_alpha   90.34805258
_cell_angle_beta   89.97459154
_cell_angle_gamma   106.01335156
_symmetry_Int_Tables_number   1
_chemical_formula_structural   Mg3Co2O7
_chemical_formula_sum   'Mg6 Co4 O14'
_cell_volume   232.90541361
_cell_formula_units_Z   2
loop_
 _symmetry_equiv_pos_site_id
 _symmetry_equiv_pos_as_xyz
  1  'x, y, z'
loop_
 _atom_site_type_symbol
 _atom_site_label
 _atom_site_symmetry_multiplicity
 _atom_site_fract_x
 _atom_site_fract_y
 _atom_site_fract_z
 _atom_site_occupancy
  Mg  Mg0  1  0.76664800  0.99380400  0.67290000  1
  Mg  Mg1  1  0.22732100  0.99390100  0.17292800  1
  Mg  Mg2  1  0.56436000  0.61764300  0.83027800  1
  Mg  Mg3  1  0.43255000  0.38698600  0.33369700  1
  Mg  Mg4  1  0.95446500  0.38706700  0.83364100  1
  Mg  Mg5  1  0.05332400  0.61764900  0.33028000  1
  Co  Co0  1  0.64562300  0.79482000  0.25091000  1
  Co  Co1  1  0.84826400  0.20475600  0.25166100  1
  Co  Co2  1  0.35647500  0.20475600  0.75165300  1
  Co  Co3  1  0.14918500  0.79482300  0.75090900  1
  O  O0  1  0.38352400  0.99515800  0.80562600  1
  O  O1  1  0.61161700  0.99513900  0.30566200  1
  O  O2  1  0.93019900  0.59478500  0.70607400  1
  O  O3  1  0.07249000  0.41117700  0.20305100  1
  O  O4  1  0.66456800  0.59475700  0.20616400  1
  O  O5  1  0.33867600  0.41120400  0.70309600  1
  O  O6  1  0.31110600  0.73067500  0.04678100  1
  O  O7  1  0.67460800  0.26265400  0.57060600  1
  O  O8  1  0.41963500  0.73071200  0.54679700  1
  O  O9  1  0.58798000  0.26258500  0.07060000  1
  O  O10  1  0.86715400  0.85134000  0.94439500  1
  O  O11  1  0.12843100  0.15612900  0.40396300  1
  O  O12  1  0.02764400  0.15608700  0.90396200  1
  O  O13  1  0.98415100  0.85139100  0.44437500  1
loop_
_geom_bond_atom_site_label_1
_geom_bond_atom_site_label_2
_geom_bond_distance
_geom_bond_site_symmetry_2
Mg0 O0 2.049763 1_555
Mg0 O12 2.076444 1_665
Mg0 O10 2.097263 1_555
Mg0 O1 2.105931 1_555
Mg0 O13 2.257892 1_555
Mg0 O11 2.461820 1_665
Mg0 O8 2.620924 1_555
Mg0 O7 2.664825 1_565
Mg1 O1 2.049787 1_555
Mg1 O11 2.075421 1_565
Mg1 O13 2.097549 1_455
Mg1 O0 2.105370 1_554
Mg1 O10 2.260483 1_454
Mg1 O12 2.461752 1_564
Mg1 O6 2.620903 1_555
Mg1 O9 2.663818 1_565
Mg2 O2 2.013051 1_555
Mg2 O5 2.016215 1_555
Mg2 O8 2.070937 1_555
Mg2 O4 2.089272 1_556
Mg2 O6 2.167233 1_556
Mg2 O10 2.319803 1_555
Mg3 O3 2.003265 1_555
Mg3 O4 2.043280 1_555
Mg3 O5 2.046882 1_555
Mg3 O9 2.076049 1_555
Mg3 O11 2.258661 1_555
Mg3 O7 2.260967 1_555
Mg4 O5 2.002540 1_655
Mg4 O2 2.042677 1_555
Mg4 O3 2.047324 1_656
Mg4 O7 2.077017 1_555
Mg4 O12 2.259126 1_655
Mg4 O9 2.261615 1_556
Mg5 O4 2.013816 1_455
Mg5 O3 2.015862 1_555
Mg5 O6 2.070561 1_555
Mg5 O2 2.088404 1_455
Mg5 O8 2.168695 1_555
Mg5 O13 2.319480 1_455
Co0 O4 1.858142 1_555
Co0 O1 1.893166 1_555
Co0 O13 1.928789 1_555
Co0 O8 1.936626 1_555
Co0 O6 1.946478 1_555
Co0 O10 1.963387 1_554
Co1 O11 1.781350 1_655
Co1 O9 1.814755 1_555
Co1 O3 1.919487 1_655
Co1 O1 1.967462 1_545
Co1 O7 2.039300 1_555
Co1 O12 2.153952 1_654
Co2 O12 1.781183 1_555
Co2 O7 1.814448 1_555
Co2 O5 1.919323 1_555
Co2 O0 1.966923 1_545
Co2 O9 2.040067 1_556
Co2 O11 2.154809 1_555
Co3 O2 1.858471 1_455
Co3 O0 1.893838 1_555
Co3 O10 1.927882 1_455
Co3 O6 1.937307 1_556
Co3 O8 1.945501 1_555
Co3 O13 1.964226 1_455
