# generated using pymatgen
data_Cd2In3Ag3Te8
_symmetry_space_group_name_H-M   'P 1'
_cell_length_a   6.60644700
_cell_length_b   6.60644700
_cell_length_c   12.99935000
_cell_angle_alpha   90.00000000
_cell_angle_beta   90.00000000
_cell_angle_gamma   90.00000000
_symmetry_Int_Tables_number   1
_chemical_formula_structural   Cd2In3Ag3Te8
_chemical_formula_sum   'Cd2 In3 Ag3 Te8'
_cell_volume   567.35847619
_cell_formula_units_Z   1
loop_
 _symmetry_equiv_pos_site_id
 _symmetry_equiv_pos_as_xyz
  1  'x, y, z'
loop_
 _atom_site_type_symbol
 _atom_site_label
 _atom_site_symmetry_multiplicity
 _atom_site_fract_x
 _atom_site_fract_y
 _atom_site_fract_z
 _atom_site_occupancy
  Cd  Cd0  1  0.50000000  0.50000000  0.50000000  1
  Cd  Cd1  1  0.00000000  0.00000000  0.50000000  1
  In  In0  1  0.50000000  0.00000000  0.24954400  1
  In  In1  1  0.00000000  0.50000000  0.75045600  1
  In  In2  1  0.50000000  0.50000000  0.00000000  1
  Ag  Ag0  1  0.00000000  0.50000000  0.24976000  1
  Ag  Ag1  1  0.50000000  0.00000000  0.75024000  1
  Ag  Ag2  1  0.00000000  0.00000000  0.00000000  1
  Te  Te0  1  0.75272400  0.25092300  0.37292800  1
  Te  Te1  1  0.24871500  0.75489500  0.87527200  1
  Te  Te2  1  0.24727600  0.74907700  0.37292800  1
  Te  Te3  1  0.75128500  0.24510500  0.87527200  1
  Te  Te4  1  0.24510500  0.24871500  0.12472800  1
  Te  Te5  1  0.74907700  0.75272400  0.62707200  1
  Te  Te6  1  0.75489500  0.75128500  0.12472800  1
  Te  Te7  1  0.25092300  0.24727600  0.62707200  1
loop_
_geom_bond_atom_site_label_1
_geom_bond_atom_site_label_2
_geom_bond_distance
_geom_bond_site_symmetry_2
Cd0 Te5 2.867739 1_555
Cd0 Te0 2.867739 1_555
Cd0 Te7 2.867739 1_555
Cd0 Te2 2.867739 1_555
Cd1 Te7 2.854001 1_555
Cd1 Te2 2.854001 1_545
Cd1 Te5 2.854001 1_445
Cd1 Te0 2.854001 1_455
In0 Te0 2.847477 1_555
In0 Te2 2.847477 1_545
In0 Te6 2.857995 1_545
In0 Te4 2.857995 1_555
In1 Te7 2.847477 1_555
In1 Te5 2.847477 1_455
In1 Te3 2.857995 1_455
In1 Te1 2.857995 1_555
In2 Te1 2.867143 1_554
In2 Te3 2.867143 1_554
In2 Te6 2.867143 1_555
In2 Te4 2.867143 1_555
Ag0 Te2 2.817792 1_555
Ag0 Te0 2.817792 1_455
Ag0 Te4 2.831906 1_555
Ag0 Te6 2.831906 1_455
Ag1 Te7 2.817792 1_555
Ag1 Te5 2.817792 1_545
Ag1 Te3 2.831906 1_555
Ag1 Te1 2.831906 1_545
Ag2 Te3 2.819713 1_454
Ag2 Te6 2.819713 1_445
Ag2 Te4 2.819713 1_555
Ag2 Te1 2.819713 1_544
