# generated using pymatgen
data_NaMg6Al
_symmetry_space_group_name_H-M   'P 1'
_cell_length_a   5.11331700
_cell_length_b   6.39099800
_cell_length_c   11.16332400
_cell_angle_alpha   90.00000000
_cell_angle_beta   90.00000000
_cell_angle_gamma   90.00000000
_symmetry_Int_Tables_number   1
_chemical_formula_structural   NaMg6Al
_chemical_formula_sum   'Na2 Mg12 Al2'
_cell_volume   364.80848338
_cell_formula_units_Z   2
loop_
 _symmetry_equiv_pos_site_id
 _symmetry_equiv_pos_as_xyz
  1  'x, y, z'
loop_
 _atom_site_type_symbol
 _atom_site_label
 _atom_site_symmetry_multiplicity
 _atom_site_fract_x
 _atom_site_fract_y
 _atom_site_fract_z
 _atom_site_occupancy
  Na  Na0  1  0.50000000  0.50000000  0.16694100  1
  Na  Na1  1  0.50000000  0.00000000  0.66694100  1
  Mg  Mg0  1  0.50000000  0.25201400  0.41667300  1
  Mg  Mg1  1  0.50000000  0.74798600  0.41667300  1
  Mg  Mg2  1  0.00000000  0.75545400  0.08393000  1
  Mg  Mg3  1  0.00000000  0.24454600  0.08393000  1
  Mg  Mg4  1  0.00000000  0.00000000  0.33146700  1
  Mg  Mg5  1  0.00000000  0.50000000  0.33513500  1
  Mg  Mg6  1  0.50000000  0.75201400  0.91667300  1
  Mg  Mg7  1  0.50000000  0.24798600  0.91667300  1
  Mg  Mg8  1  0.00000000  0.25545400  0.58393000  1
  Mg  Mg9  1  0.00000000  0.74454600  0.58393000  1
  Mg  Mg10  1  0.00000000  0.50000000  0.83146700  1
  Mg  Mg11  1  0.00000000  0.00000000  0.83513500  1
  Al  Al0  1  0.50000000  0.00000000  0.16524500  1
  Al  Al1  1  0.50000000  0.50000000  0.66524500  1
loop_
_geom_bond_atom_site_label_1
_geom_bond_atom_site_label_2
_geom_bond_distance
_geom_bond_site_symmetry_2
Mg0 Mg5 3.142749 1_655
Mg0 Mg5 3.142749 1_555
Mg0 Mg8 3.165946 1_555
Mg0 Mg8 3.165946 1_655
Mg0 Mg4 3.167862 1_655
Mg0 Mg4 3.167862 1_555
Mg0 Mg1 3.169756 1_555
Mg0 Na0 3.206850 1_555
Mg0 Mg1 3.221242 1_545
Mg0 Na1 3.224833 1_555
Mg1 Mg5 3.142749 1_655
Mg1 Mg5 3.142749 1_555
Mg1 Mg9 3.165946 1_555
Mg1 Mg9 3.165946 1_655
Mg1 Mg4 3.167862 1_665
Mg1 Mg4 3.167862 1_565
Mg1 Na0 3.206850 1_555
Mg1 Na1 3.224833 1_565
Mg2 Mg3 3.125786 1_565
Mg2 Mg6 3.165946 1_554
Mg2 Mg6 3.165946 1_454
Mg2 Na0 3.171851 1_555
Mg2 Na0 3.171851 1_455
Mg2 Mg4 3.174690 1_565
Mg2 Mg5 3.244904 1_555
Mg2 Mg3 3.265212 1_555
Mg3 Mg7 3.165946 1_554
Mg3 Mg7 3.165946 1_454
Mg3 Na0 3.171851 1_555
Mg3 Na0 3.171851 1_455
Mg3 Mg4 3.174690 1_555
Mg3 Mg5 3.244904 1_555
Mg4 Mg5 3.195761 1_545
Mg4 Mg5 3.195761 1_555
Mg4 Mg8 3.257049 1_555
Mg4 Mg9 3.257049 1_545
Mg5 Na0 3.172050 1_455
Mg5 Na0 3.172050 1_555
Mg5 Mg9 3.186922 1_555
Mg5 Mg8 3.186922 1_555
Mg6 Mg7 3.169756 1_565
Mg6 Na1 3.206850 1_565
Mg6 Mg7 3.221242 1_555
Mg6 Na0 3.224833 1_556
Mg7 Na1 3.206850 1_555
Mg7 Na0 3.224833 1_556
Mg8 Mg9 3.125786 1_555
Mg8 Na1 3.171851 1_555
Mg8 Na1 3.171851 1_455
Mg8 Mg9 3.265212 1_545
Mg9 Na1 3.171851 1_565
Mg9 Na1 3.171851 1_465
Mg10 Mg6 3.167862 1_455
Mg10 Mg6 3.167862 1_555
Mg10 Mg7 3.167862 1_555
Mg10 Mg7 3.167862 1_455
Mg10 Mg8 3.174690 1_555
Mg10 Mg9 3.174690 1_555
Mg10 Mg11 3.195761 1_555
Mg10 Mg11 3.195761 1_565
Mg10 Mg2 3.257049 1_556
Mg10 Mg3 3.257049 1_556
Mg11 Mg6 3.142749 1_545
Mg11 Mg7 3.142749 1_455
Mg11 Mg7 3.142749 1_555
Mg11 Mg6 3.142749 1_445
Mg11 Na1 3.172050 1_455
Mg11 Na1 3.172050 1_555
Mg11 Mg3 3.186922 1_556
Mg11 Mg2 3.186922 1_546
Mg11 Mg8 3.244904 1_555
Mg11 Mg9 3.244904 1_545
Al0 Mg2 3.130997 1_645
Al0 Mg3 3.130997 1_655
Al0 Mg2 3.130997 1_545
Al0 Mg3 3.130997 1_555
Al0 Mg4 3.159069 1_555
Al0 Mg4 3.159069 1_655
Al0 Na0 3.195555 1_555
Al0 Na0 3.195555 1_545
Al0 Mg7 3.195599 1_554
Al0 Mg6 3.195599 1_544
Al0 Mg0 3.236058 1_555
Al0 Mg1 3.236058 1_545
Al1 Mg9 3.130997 1_655
Al1 Mg8 3.130997 1_555
Al1 Mg8 3.130997 1_655
Al1 Mg9 3.130997 1_555
Al1 Mg10 3.159069 1_555
Al1 Mg10 3.159069 1_655
Al1 Na1 3.195555 1_565
Al1 Na1 3.195555 1_555
Al1 Mg1 3.195599 1_555
Al1 Mg0 3.195599 1_555
Al1 Mg6 3.236058 1_555
Al1 Mg7 3.236058 1_555
