# generated using pymatgen
data_Li9Mn2Co5O16
_symmetry_space_group_name_H-M   'P 1'
_cell_length_a   7.71427689
_cell_length_b   7.71427689
_cell_length_c   5.17577762
_cell_angle_alpha   76.24852229
_cell_angle_beta   76.24852229
_cell_angle_gamma   96.48083552
_symmetry_Int_Tables_number   1
_chemical_formula_structural   Li9Mn2Co5O16
_chemical_formula_sum   'Li9 Mn2 Co5 O16'
_cell_volume   285.88508849
_cell_formula_units_Z   1
loop_
 _symmetry_equiv_pos_site_id
 _symmetry_equiv_pos_as_xyz
  1  'x, y, z'
loop_
 _atom_site_type_symbol
 _atom_site_label
 _atom_site_symmetry_multiplicity
 _atom_site_fract_x
 _atom_site_fract_y
 _atom_site_fract_z
 _atom_site_occupancy
  Li  Li0  1  0.87461200  0.62659000  0.50137700  1
  Li  Li1  1  0.99973800  0.00026200  0.50000000  1
  Li  Li2  1  0.11971300  0.36523500  0.50845200  1
  Li  Li3  1  0.24784400  0.75215600  0.50000000  1
  Li  Li4  1  0.37341000  0.12538800  0.49862300  1
  Li  Li5  1  0.49981800  0.50018200  0.50000000  1
  Li  Li6  1  0.63476500  0.88028700  0.49154800  1
  Li  Li7  1  0.75314600  0.24685400  0.50000000  1
  Li  Li8  1  0.87638400  0.12361600  0.00000000  1
  Mn  Mn0  1  0.99636700  0.49951000  0.99387300  1
  Mn  Mn1  1  0.50049000  0.00363300  0.00612700  1
  Co  Co0  1  0.12405500  0.87594500  0.00000000  1
  Co  Co1  1  0.24045800  0.24381500  0.99798800  1
  Co  Co2  1  0.37671300  0.62328700  0.00000000  1
  Co  Co3  1  0.62403500  0.37596500  0.00000000  1
  Co  Co4  1  0.75618500  0.75954200  0.00201200  1
  O  O0  1  0.76367100  0.50772600  0.23083400  1
  O  O1  1  0.88721800  0.86893200  0.22426800  1
  O  O2  1  0.01284200  0.26838200  0.23264800  1
  O  O3  1  0.12348100  0.62586400  0.20706000  1
  O  O4  1  0.26239100  0.00316600  0.23827700  1
  O  O5  1  0.38326900  0.38165800  0.22428800  1
  O  O6  1  0.50132400  0.76270400  0.23616500  1
  O  O7  1  0.61681000  0.13030500  0.21511700  1
  O  O8  1  0.99683400  0.73760900  0.76172300  1
  O  O9  1  0.13106800  0.11278200  0.77573200  1
  O  O10  1  0.23729600  0.49867600  0.76383500  1
  O  O11  1  0.37413600  0.87651900  0.79294000  1
  O  O12  1  0.49227400  0.23632900  0.76916600  1
  O  O13  1  0.61834200  0.61673100  0.77571200  1
  O  O14  1  0.73161800  0.98715800  0.76735200  1
  O  O15  1  0.86969500  0.38319000  0.78488300  1
loop_
_geom_bond_atom_site_label_1
_geom_bond_atom_site_label_2
_geom_bond_distance
_geom_bond_site_symmetry_2
Li0 O1 2.044367 1_555
Li0 O15 2.080327 1_555
Li0 O8 2.099661 1_555
Li0 O13 2.123761 1_555
Li0 O0 2.130028 1_555
Li0 O3 2.149984 1_655
Li1 O8 2.147401 1_545
Li1 O4 2.147401 1_655
Li1 O2 2.174551 1_655
Li1 O14 2.174551 1_545
Li1 O9 2.212316 1_655
Li1 O1 2.212316 1_545
Li2 O2 2.050172 1_555
Li2 O9 2.128243 1_555
Li2 O15 2.151449 1_455
Li2 O10 2.153075 1_555
Li2 O5 2.178189 1_555
Li2 O3 2.225034 1_555
Li3 O8 2.056383 1_455
Li3 O4 2.056383 1_565
Li3 O6 2.082492 1_555
Li3 O10 2.082492 1_555
Li3 O3 2.313270 1_555
Li3 O11 2.313270 1_555
Li4 O9 2.044367 1_555
Li4 O7 2.080327 1_555
Li4 O4 2.099661 1_555
Li4 O5 2.123761 1_555
Li4 O12 2.130028 1_555
Li4 O11 2.149984 1_545
Li5 O10 2.153729 1_555
Li5 O6 2.153729 1_555
Li5 O12 2.161901 1_555
Li5 O0 2.161901 1_555
Li5 O13 2.173816 1_555
Li5 O5 2.173816 1_555
Li6 O14 2.050172 1_555
Li6 O1 2.128243 1_555
Li6 O7 2.151449 1_565
Li6 O6 2.153075 1_555
Li6 O13 2.178189 1_555
Li6 O11 2.225034 1_555
Li7 O2 2.110338 1_655
Li7 O14 2.110338 1_545
Li7 O0 2.138642 1_555
Li7 O12 2.138642 1_555
Li7 O15 2.289696 1_555
Li7 O7 2.289696 1_555
Li8 O1 2.052651 1_545
Li8 O9 2.052651 1_654
Li8 O15 2.059785 1_554
Li8 O7 2.059785 1_555
Li8 O2 2.186731 1_655
Li8 O14 2.186731 1_544
Mn0 O15 1.922540 1_555
Mn0 O0 1.935584 1_556
Mn0 O8 1.940271 1_555
Mn0 O2 1.949549 1_656
Mn0 O10 1.956089 1_655
Mn0 O3 1.984725 1_656
Mn1 O7 1.922540 1_555
Mn1 O12 1.935584 1_554
Mn1 O4 1.940271 1_555
Mn1 O14 1.949549 1_544
Mn1 O6 1.956089 1_545
Mn1 O11 1.984725 1_544
Co0 O9 1.904706 1_564
Co0 O1 1.904706 1_455
Co0 O3 1.970588 1_555
Co0 O11 1.970588 1_554
Co0 O4 2.141885 1_565
Co0 O8 2.141885 1_454
Co1 O2 1.940325 1_556
Co1 O9 1.969504 1_555
Co1 O4 2.023612 1_556
Co1 O12 2.035594 1_555
Co1 O10 2.055933 1_555
Co1 O5 2.158121 1_556
Co2 O13 1.960890 1_554
Co2 O5 1.960890 1_555
Co2 O3 1.997165 1_555
Co2 O11 1.997165 1_554
Co2 O10 2.127233 1_554
Co2 O6 2.127233 1_555
Co3 O7 1.943616 1_555
Co3 O15 1.943616 1_554
Co3 O5 1.953668 1_555
Co3 O13 1.953668 1_554
Co3 O12 2.136105 1_554
Co3 O0 2.136105 1_555
Co4 O14 1.940325 1_554
Co4 O1 1.969504 1_555
Co4 O8 2.023612 1_554
Co4 O0 2.035594 1_555
Co4 O6 2.055933 1_555
Co4 O13 2.158121 1_554
