# generated using pymatgen
data_CsW3Br7
_symmetry_space_group_name_H-M   'P 1'
_cell_length_a   10.48476848
_cell_length_b   10.48476848
_cell_length_c   15.82677600
_cell_angle_alpha   90.00000000
_cell_angle_beta   90.00000000
_cell_angle_gamma   120.00000306
_symmetry_Int_Tables_number   1
_chemical_formula_structural   CsW3Br7
_chemical_formula_sum   'Cs4 W12 Br28'
_cell_volume   1506.74848834
_cell_formula_units_Z   4
loop_
 _symmetry_equiv_pos_site_id
 _symmetry_equiv_pos_as_xyz
  1  'x, y, z'
loop_
 _atom_site_type_symbol
 _atom_site_label
 _atom_site_symmetry_multiplicity
 _atom_site_fract_x
 _atom_site_fract_y
 _atom_site_fract_z
 _atom_site_occupancy
  Cs  Cs0  1  0.00000000  0.00000000  0.50000000  1
  Cs  Cs1  1  0.00000000  0.00000000  0.00000000  1
  Cs  Cs2  1  0.33333300  0.66666700  0.75000000  1
  Cs  Cs3  1  0.66666700  0.33333300  0.25000000  1
  W  W0  1  0.66547400  0.18609800  0.68148900  1
  W  W1  1  0.33452600  0.81390200  0.31851100  1
  W  W2  1  0.81390200  0.47937500  0.68148900  1
  W  W3  1  0.66547400  0.47937500  0.81851100  1
  W  W4  1  0.18609800  0.52062500  0.31851100  1
  W  W5  1  0.33452600  0.52062500  0.18148900  1
  W  W6  1  0.52062500  0.33452600  0.68148900  1
  W  W7  1  0.81390200  0.33452600  0.81851100  1
  W  W8  1  0.47937500  0.66547400  0.31851100  1
  W  W9  1  0.18609800  0.66547400  0.18148900  1
  W  W10  1  0.52062500  0.18609800  0.81851100  1
  W  W11  1  0.47937500  0.81390200  0.18148900  1
  Br  Br0  1  0.67176400  0.04261600  0.82083500  1
  Br  Br1  1  0.32823600  0.95738400  0.17916500  1
  Br  Br2  1  0.95738400  0.62914700  0.82083500  1
  Br  Br3  1  0.67176400  0.62914700  0.67916500  1
  Br  Br4  1  0.04261600  0.37085300  0.17916500  1
  Br  Br5  1  0.32823600  0.37085300  0.32083500  1
  Br  Br6  1  0.37085300  0.32823600  0.82083500  1
  Br  Br7  1  0.95738400  0.32823600  0.67916500  1
  Br  Br8  1  0.62914700  0.67176400  0.17916500  1
  Br  Br9  1  0.04261600  0.67176400  0.32083500  1
  Br  Br10  1  0.37085300  0.04261600  0.67916500  1
  Br  Br11  1  0.62914700  0.95738400  0.32083500  1
  Br  Br12  1  0.66666700  0.33333300  0.54474600  1
  Br  Br13  1  0.33333300  0.66666700  0.45525400  1
  Br  Br14  1  0.66666700  0.33333300  0.95525400  1
  Br  Br15  1  0.33333300  0.66666700  0.04474600  1
  Br  Br16  1  0.31614800  0.34523400  0.59047700  1
  Br  Br17  1  0.68385200  0.65476600  0.40952300  1
  Br  Br18  1  0.65476600  0.97091300  0.59047700  1
  Br  Br19  1  0.31614800  0.97091300  0.90952300  1
  Br  Br20  1  0.34523400  0.02908700  0.40952300  1
  Br  Br21  1  0.68385200  0.02908700  0.09047700  1
  Br  Br22  1  0.02908700  0.68385200  0.59047700  1
  Br  Br23  1  0.65476600  0.68385200  0.90952300  1
  Br  Br24  1  0.97091300  0.31614800  0.40952300  1
  Br  Br25  1  0.34523400  0.31614800  0.09047700  1
  Br  Br26  1  0.02908700  0.34523400  0.90952300  1
  Br  Br27  1  0.97091300  0.65476600  0.09047700  1
loop_
_geom_bond_atom_site_label_1
_geom_bond_atom_site_label_2
_geom_bond_distance
_geom_bond_site_symmetry_2
Br0 W7 2.651122 1_555
Br0 W10 2.675735 1_555
Br0 W0 2.688957 1_555
Br0 Cs2 3.924070 1_545
Br1 W9 2.651122 1_555
Br1 W11 2.675735 1_555
Br1 W1 2.688957 1_555
Br1 Cs3 3.924070 1_565
Br2 W3 2.651122 1_555
Br2 W7 2.675735 1_555
Br2 W2 2.688957 1_555
Br2 Cs2 3.924062 1_655
Br3 W2 2.651122 1_555
Br3 W6 2.675735 1_555
Br3 W3 2.688957 1_555
Br3 Cs2 3.924082 1_555
Br4 W5 2.651122 1_555
Br4 W9 2.675735 1_555
Br4 W4 2.688957 1_555
Br4 Cs3 3.924062 1_455
Br5 W4 2.651122 1_555
Br5 W8 2.675735 1_555
Br5 W5 2.688957 1_555
Br5 Cs3 3.924082 1_555
Br6 W10 2.651122 1_555
Br6 W3 2.675735 1_555
Br6 W6 2.688957 1_555
Br6 Cs2 3.924082 1_555
Br7 W0 2.651122 1_555
Br7 W2 2.675735 1_555
Br7 W7 2.688957 1_555
Br7 Cs2 3.924070 1_655
Br8 W11 2.651122 1_555
Br8 W5 2.675735 1_555
Br8 W8 2.688957 1_555
Br8 Cs3 3.924082 1_555
Br9 W1 2.651122 1_555
Br9 W4 2.675735 1_555
Br9 W9 2.688957 1_555
Br9 Cs3 3.924070 1_455
Br10 W6 2.651122 1_555
Br10 W0 2.675735 1_555
Br10 W10 2.688957 1_555
Br10 Cs2 3.924062 1_545
Br11 W8 2.651122 1_555
Br11 W1 2.675735 1_555
Br11 W11 2.688957 1_555
Br11 Cs3 3.924062 1_565
Br12 W2 2.654750 1_555
Br12 W0 2.654750 1_555
Br12 W6 2.654750 1_555
Br13 W4 2.654750 1_555
Br13 W1 2.654750 1_555
Br13 W8 2.654750 1_555
Br14 W10 2.654750 1_555
Br14 W7 2.654750 1_555
Br14 W3 2.654750 1_555
Br15 W11 2.654750 1_555
Br15 W9 2.654750 1_555
Br15 W5 2.654750 1_555
Br16 W6 2.631428 1_555
Br16 Cs0 3.760567 1_555
Br16 Cs2 4.142153 1_555
Br17 W8 2.631428 1_555
Br17 Cs0 3.760567 1_665
Br17 Cs3 4.142153 1_555
Br18 W0 2.631428 1_565
Br18 Cs0 3.760563 1_665
Br18 Cs2 4.142145 1_555
Br19 W10 2.631428 1_565
Br19 Cs1 3.760572 1_566
Br19 Cs2 4.142136 1_555
Br20 W1 2.631428 1_545
Br20 Cs0 3.760563 1_555
Br20 Cs3 4.142145 1_555
Br21 W11 2.631428 1_545
Br21 Cs1 3.760572 1_655
Br21 Cs3 4.142136 1_555
Br22 W2 2.631428 1_455
Br22 Cs0 3.760572 1_565
Br22 Cs2 4.142136 1_555
Br23 W3 2.631428 1_555
Br23 Cs1 3.760567 1_666
Br23 Cs2 4.142153 1_555
Br24 W4 2.631428 1_655
Br24 Cs0 3.760572 1_655
Br24 Cs3 4.142136 1_555
Br25 W5 2.631428 1_555
Br25 Cs1 3.760567 1_555
Br25 Cs3 4.142153 1_555
Br26 W7 2.631428 1_455
Br26 Cs1 3.760563 1_556
Br26 Cs2 4.142145 1_555
Br27 W9 2.631428 1_655
Br27 Cs1 3.760563 1_665
Br27 Cs3 4.142145 1_555
