# generated using pymatgen
data_Zr3Si
_symmetry_space_group_name_H-M   'P 1'
_cell_length_a   11.02498341
_cell_length_b   11.02509169
_cell_length_c   5.44391005
_cell_angle_alpha   90.00032193
_cell_angle_beta   90.00146102
_cell_angle_gamma   89.99935850
_symmetry_Int_Tables_number   1
_chemical_formula_structural   Zr3Si
_chemical_formula_sum   'Zr24 Si8'
_cell_volume   661.71517631
_cell_formula_units_Z   8
loop_
 _symmetry_equiv_pos_site_id
 _symmetry_equiv_pos_as_xyz
  1  'x, y, z'
loop_
 _atom_site_type_symbol
 _atom_site_label
 _atom_site_symmetry_multiplicity
 _atom_site_fract_x
 _atom_site_fract_y
 _atom_site_fract_z
 _atom_site_occupancy
  Zr  Zr0  1  0.91772706  0.60819198  0.53358234  1
  Zr  Zr1  1  0.08229863  0.39178431  0.53357714  1
  Zr  Zr2  1  0.89179220  0.41768749  0.03360497  1
  Zr  Zr3  1  0.10823908  0.58229475  0.03360306  1
  Zr  Zr4  1  0.58226712  0.89179518  0.96642843  1
  Zr  Zr5  1  0.41769314  0.10821582  0.96641387  1
  Zr  Zr6  1  0.60820429  0.08231102  0.46639568  1
  Zr  Zr7  1  0.39175451  0.91770456  0.46639691  1
  Zr  Zr8  1  0.86184634  0.97245668  0.72207455  1
  Zr  Zr9  1  0.13818352  0.02756328  0.72207780  1
  Zr  Zr10  1  0.52756860  0.36181923  0.22208115  1
  Zr  Zr11  1  0.47240275  0.63816907  0.22206696  1
  Zr  Zr12  1  0.63816462  0.52754539  0.77792455  1
  Zr  Zr13  1  0.36181435  0.47243747  0.77792289  1
  Zr  Zr14  1  0.97243688  0.13818335  0.27791587  1
  Zr  Zr15  1  0.02760164  0.86183455  0.27792371  1
  Zr  Zr16  1  0.82067301  0.71616061  0.00969221  1
  Zr  Zr17  1  0.17934126  0.28382998  0.00968760  1
  Zr  Zr18  1  0.78383566  0.32064256  0.50967717  1
  Zr  Zr19  1  0.21617250  0.67935666  0.50968243  1
  Zr  Zr20  1  0.67933187  0.78384043  0.49030527  1
  Zr  Zr21  1  0.32064908  0.21615856  0.49031385  1
  Zr  Zr22  1  0.71617746  0.17936855  0.99033156  1
  Zr  Zr23  1  0.28382116  0.82064568  0.99032207  1
  Si  Si0  1  0.79481517  0.95773228  0.21224147  1
  Si  Si1  1  0.20518920  0.04227810  0.21224441  1
  Si  Si2  1  0.54226851  0.29481050  0.71225020  1
  Si  Si3  1  0.45771618  0.70518885  0.71224307  1
  Si  Si4  1  0.70518995  0.54226646  0.28776233  1
  Si  Si5  1  0.29480812  0.45772288  0.28776035  1
  Si  Si6  1  0.95773346  0.20519662  0.78774650  1
  Si  Si7  1  0.04228466  0.79480511  0.78774963  1
loop_
_geom_bond_atom_site_label_1
_geom_bond_atom_site_label_2
_geom_bond_distance
_geom_bond_site_symmetry_2
Si0 Zr20 2.754675 1_555
Si0 Zr8 2.773644 1_554
Si0 Zr4 2.794694 1_554
Si0 Zr15 2.798633 1_655
Si0 Zr14 2.814389 1_565
Si0 Zr6 2.834376 1_565
Si0 Zr22 2.860415 1_564
Si0 Zr8 2.876754 1_555
Si0 Zr16 2.896641 1_555
Si1 Zr21 2.754438 1_555
Si1 Zr9 2.773523 1_554
Si1 Zr5 2.794395 1_554
Si1 Zr14 2.798327 1_455
Si1 Zr15 2.814087 1_545
Si1 Zr7 2.833936 1_545
Si1 Zr23 2.860395 1_544
Si1 Zr9 2.876715 1_555
Si1 Zr17 2.896451 1_555
Si2 Zr22 2.754574 1_555
Si2 Zr10 2.773555 1_555
Si2 Zr6 2.794386 1_555
Si2 Zr12 2.798143 1_555
Si2 Zr13 2.814433 1_555
Si2 Zr5 2.834285 1_555
Si2 Zr21 2.860339 1_555
Si2 Zr10 2.876684 1_556
Si2 Zr18 2.896628 1_555
Si3 Zr23 2.754582 1_555
Si3 Zr11 2.773616 1_555
Si3 Zr7 2.794584 1_555
Si3 Zr13 2.798348 1_555
Si3 Zr12 2.814511 1_555
Si3 Zr4 2.834260 1_555
Si3 Zr20 2.860362 1_555
Si3 Zr11 2.876670 1_556
Si3 Zr19 2.896312 1_555
Si4 Zr16 2.754710 1_555
Si4 Zr12 2.773600 1_555
Si4 Zr0 2.794578 1_555
Si4 Zr11 2.798670 1_555
Si4 Zr10 2.814361 1_555
Si4 Zr2 2.834317 1_555
Si4 Zr18 2.860337 1_555
Si4 Zr12 2.876760 1_554
Si4 Zr20 2.896651 1_555
Si5 Zr17 2.754579 1_555
Si5 Zr13 2.773503 1_555
Si5 Zr1 2.794413 1_555
Si5 Zr10 2.798408 1_555
Si5 Zr11 2.814172 1_555
Si5 Zr3 2.833969 1_555
Si5 Zr19 2.860420 1_555
Si5 Zr13 2.876738 1_554
Si5 Zr21 2.896563 1_555
Si6 Zr18 2.754473 1_555
Si6 Zr14 2.773572 1_556
Si6 Zr2 2.794333 1_556
Si6 Zr8 2.798155 1_545
Si6 Zr9 2.814447 1_655
Si6 Zr1 2.834190 1_655
Si6 Zr17 2.860178 1_656
Si6 Zr14 2.876697 1_555
Si6 Zr22 2.896536 1_555
Si7 Zr19 2.754449 1_555
Si7 Zr15 2.773631 1_556
Si7 Zr3 2.794532 1_556
Si7 Zr9 2.798398 1_565
Si7 Zr8 2.814490 1_455
Si7 Zr0 2.834302 1_455
Si7 Zr16 2.860312 1_456
Si7 Zr15 2.876706 1_555
Si7 Zr23 2.896272 1_555
