# generated using pymatgen
data_Sr2Eu2TlNi2O9
_symmetry_space_group_name_H-M   'P 1'
_cell_length_a   15.24082335
_cell_length_b   15.23598537
_cell_length_c   3.81686703
_cell_angle_alpha   82.87753408
_cell_angle_beta   82.73342978
_cell_angle_gamma   14.38903614
_symmetry_Int_Tables_number   1
_chemical_formula_structural   Sr2Eu2TlNi2O9
_chemical_formula_sum   'Sr2 Eu2 Tl1 Ni2 O9'
_cell_volume   218.47936577
_cell_formula_units_Z   1
loop_
 _symmetry_equiv_pos_site_id
 _symmetry_equiv_pos_as_xyz
  1  'x, y, z'
loop_
 _atom_site_type_symbol
 _atom_site_label
 _atom_site_symmetry_multiplicity
 _atom_site_fract_x
 _atom_site_fract_y
 _atom_site_fract_z
 _atom_site_occupancy
  Sr  Sr0  1  0.59180000  0.57757900  0.42242100  1
  Sr  Sr1  1  0.42242100  0.40820000  0.59180000  1
  Eu  Eu0  1  0.70473200  0.70352100  0.29647900  1
  Eu  Eu1  1  0.29647900  0.29526800  0.70473200  1
  Tl  Tl0  1  0.04439200  0.95560800  0.04439200  1
  Ni  Ni0  1  0.14983900  0.14586000  0.85414000  1
  Ni  Ni1  1  0.85414000  0.85016100  0.14983900  1
  O  O0  1  0.21913300  0.21828800  0.78171200  1
  O  O1  1  0.78171200  0.78086700  0.21913300  1
  O  O2  1  0.47888400  0.52111600  0.47888400  1
  O  O3  1  0.65110300  0.64745600  0.85221500  1
  O  O4  1  0.15077500  0.14778500  0.35254400  1
  O  O5  1  0.35254400  0.34889700  0.15077500  1
  O  O6  1  0.85221500  0.84922500  0.65110300  1
  O  O7  1  0.07154800  0.06971700  0.93028300  1
  O  O8  1  0.93028300  0.92845200  0.07154800  1
loop_
_geom_bond_atom_site_label_1
_geom_bond_atom_site_label_2
_geom_bond_distance
_geom_bond_site_symmetry_2
Eu0 O1 2.314503 1_555
Eu0 O4 2.517029 1_565
Eu0 O3 2.517040 1_554
Eu0 O4 2.522243 1_655
Eu0 O3 2.522251 1_555
Eu0 O0 2.720639 1_565
Eu0 O0 2.720639 1_654
Eu0 O0 2.746622 1_655
Eu0 O0 2.748583 1_564
Eu1 O0 2.314503 1_555
Eu1 O6 2.517029 1_455
Eu1 O5 2.517037 1_555
Eu1 O6 2.522243 1_545
Eu1 O5 2.522254 1_556
Eu1 O1 2.720639 1_545
Eu1 O1 2.720639 1_456
Eu1 O1 2.746622 1_546
Eu1 O1 2.748583 1_455
Ni0 O3 1.908264 1_545
Ni0 O4 1.908266 1_556
Ni0 O4 1.909567 1_555
Ni0 O3 1.909569 1_455
Ni0 O0 2.125491 1_555
Ni0 O7 2.316130 1_555
Ni1 O6 1.908262 1_555
Ni1 O5 1.908264 1_655
Ni1 O5 1.909569 1_565
Ni1 O6 1.909571 1_554
Ni1 O1 2.125491 1_555
Ni1 O8 2.316130 1_555
O2 Tl0 2.357168 1_555
O2 Sr0 2.544871 1_555
O2 Sr1 2.544871 1_555
O2 Tl0 2.708656 1_556
O2 Tl0 2.708656 1_645
O3 Sr0 2.704408 1_555
O3 Sr0 2.734779 1_556
O4 Sr0 2.704420 1_455
O4 Sr0 2.734788 1_545
O5 Sr1 2.704411 1_554
O5 Sr1 2.734776 1_555
O6 Sr1 2.704420 1_565
O6 Sr1 2.734788 1_655
O7 Tl0 2.131709 1_546
O7 Sr0 2.711925 1_455
O7 Sr0 2.718349 1_456
O7 Sr0 2.718349 1_545
O7 Sr0 2.778345 1_546
O8 Tl0 2.131709 1_655
O8 Sr1 2.711925 1_564
O8 Sr1 2.718349 1_654
O8 Sr1 2.718349 1_565
O8 Sr1 2.778345 1_655
