# generated using pymatgen
data_Te2MoWSeS
_symmetry_space_group_name_H-M   'P 1'
_cell_length_a   3.40415190
_cell_length_b   3.40415190
_cell_length_c   37.68940700
_cell_angle_alpha   90.00000000
_cell_angle_beta   90.00000000
_cell_angle_gamma   119.99999814
_symmetry_Int_Tables_number   1
_chemical_formula_structural   Te2MoWSeS
_chemical_formula_sum   'Te4 Mo2 W2 Se2 S2'
_cell_volume   378.24030684
_cell_formula_units_Z   2
loop_
 _symmetry_equiv_pos_site_id
 _symmetry_equiv_pos_as_xyz
  1  'x, y, z'
loop_
 _atom_site_type_symbol
 _atom_site_label
 _atom_site_symmetry_multiplicity
 _atom_site_fract_x
 _atom_site_fract_y
 _atom_site_fract_z
 _atom_site_occupancy
  Te  Te0  1  0.33333300  0.66666700  0.33178600  1
  Te  Te1  1  0.33333300  0.66666700  0.70751700  1
  Te  Te2  1  0.33333300  0.66666700  0.23187700  1
  Te  Te3  1  0.33333300  0.66666700  0.60754900  1
  Mo  Mo0  1  0.33333300  0.66666700  0.09386700  1
  Mo  Mo1  1  0.33333300  0.66666700  0.46966600  1
  W  W0  1  0.66666700  0.33333300  0.28182800  1
  W  W1  1  0.66666700  0.33333300  0.65755300  1
  Se  Se0  1  0.66666700  0.33333300  0.05023800  1
  Se  Se1  1  0.66666700  0.33333300  0.13753800  1
  S  S0  1  0.66666700  0.33333300  0.42978600  1
  S  S1  1  0.66666700  0.33333300  0.50954300  1
loop_
_geom_bond_atom_site_label_1
_geom_bond_atom_site_label_2
_geom_bond_distance
_geom_bond_site_symmetry_2
Te0 W0 2.721765 1_455
Te0 W0 2.721765 1_565
Te0 W0 2.721770 1_555
Te1 W1 2.721922 1_455
Te1 W1 2.721922 1_565
Te1 W1 2.721926 1_555
Te2 W0 2.721583 1_455
Te2 W0 2.721583 1_565
Te2 W0 2.721587 1_555
Te3 W1 2.722965 1_565
Te3 W1 2.722965 1_455
Te3 W1 2.722969 1_555
Mo0 Se0 2.562544 1_565
Mo0 Se0 2.562544 1_455
Mo0 Se0 2.562549 1_555
Mo0 Se1 2.563560 1_455
Mo0 Se1 2.563560 1_565
Mo0 Se1 2.563565 1_555
Mo1 S1 2.474181 1_455
Mo1 S1 2.474181 1_565
Mo1 S1 2.474186 1_555
Mo1 S0 2.474250 1_455
Mo1 S0 2.474250 1_565
Mo1 S0 2.474255 1_555
