# generated using pymatgen
data_CeIn3Pt
_symmetry_space_group_name_H-M   'P 1'
_cell_length_a   9.83762800
_cell_length_b   9.83762800
_cell_length_c   9.83762800
_cell_angle_alpha   90.00000000
_cell_angle_beta   90.00000000
_cell_angle_gamma   90.00000000
_symmetry_Int_Tables_number   1
_chemical_formula_structural   CeIn3Pt
_chemical_formula_sum   'Ce8 In24 Pt8'
_cell_volume   952.07505911
_cell_formula_units_Z   8
loop_
 _symmetry_equiv_pos_site_id
 _symmetry_equiv_pos_as_xyz
  1  'x, y, z'
loop_
 _atom_site_type_symbol
 _atom_site_label
 _atom_site_symmetry_multiplicity
 _atom_site_fract_x
 _atom_site_fract_y
 _atom_site_fract_z
 _atom_site_occupancy
  Ce  Ce0  1  0.00000000  0.00000000  0.00000000  1
  Ce  Ce1  1  0.50000000  0.50000000  0.50000000  1
  Ce  Ce2  1  0.25000000  0.00000000  0.50000000  1
  Ce  Ce3  1  0.75000000  0.00000000  0.50000000  1
  Ce  Ce4  1  0.50000000  0.25000000  0.00000000  1
  Ce  Ce5  1  0.50000000  0.75000000  0.00000000  1
  Ce  Ce6  1  0.00000000  0.50000000  0.25000000  1
  Ce  Ce7  1  0.00000000  0.50000000  0.75000000  1
  In  In0  1  0.00000000  0.15216500  0.31926800  1
  In  In1  1  0.00000000  0.84783500  0.68073200  1
  In  In2  1  0.00000000  0.84783500  0.31926800  1
  In  In3  1  0.00000000  0.15216500  0.68073200  1
  In  In4  1  0.31926800  0.00000000  0.15216500  1
  In  In5  1  0.65216500  0.50000000  0.18073200  1
  In  In6  1  0.68073200  0.00000000  0.84783500  1
  In  In7  1  0.34783500  0.50000000  0.81926800  1
  In  In8  1  0.31926800  0.00000000  0.84783500  1
  In  In9  1  0.34783500  0.50000000  0.18073200  1
  In  In10  1  0.68073200  0.00000000  0.15216500  1
  In  In11  1  0.65216500  0.50000000  0.81926800  1
  In  In12  1  0.15216500  0.31926800  0.00000000  1
  In  In13  1  0.50000000  0.81926800  0.34783500  1
  In  In14  1  0.84783500  0.68073200  0.00000000  1
  In  In15  1  0.50000000  0.18073200  0.65216500  1
  In  In16  1  0.15216500  0.68073200  0.00000000  1
  In  In17  1  0.50000000  0.18073200  0.34783500  1
  In  In18  1  0.84783500  0.31926800  0.00000000  1
  In  In19  1  0.50000000  0.81926800  0.65216500  1
  In  In20  1  0.18073200  0.65216500  0.50000000  1
  In  In21  1  0.81926800  0.34783500  0.50000000  1
  In  In22  1  0.18073200  0.34783500  0.50000000  1
  In  In23  1  0.81926800  0.65216500  0.50000000  1
  Pt  Pt0  1  0.25000000  0.25000000  0.25000000  1
  Pt  Pt1  1  0.75000000  0.75000000  0.75000000  1
  Pt  Pt2  1  0.75000000  0.75000000  0.25000000  1
  Pt  Pt3  1  0.75000000  0.25000000  0.75000000  1
  Pt  Pt4  1  0.25000000  0.25000000  0.75000000  1
  Pt  Pt5  1  0.25000000  0.75000000  0.25000000  1
  Pt  Pt6  1  0.25000000  0.75000000  0.75000000  1
  Pt  Pt7  1  0.75000000  0.25000000  0.25000000  1
loop_
_geom_bond_atom_site_label_1
_geom_bond_atom_site_label_2
_geom_bond_distance
_geom_bond_site_symmetry_2
Ce0 In12 3.479326 1_555
Ce0 In1 3.479326 1_544
Ce0 In3 3.479326 1_554
Ce0 In14 3.479326 1_445
Ce0 In0 3.479326 1_555
Ce0 In18 3.479326 1_455
Ce0 In2 3.479326 1_545
Ce0 In16 3.479326 1_545
Ce0 In10 3.479326 1_455
Ce0 In8 3.479326 1_554
Ce0 In4 3.479326 1_555
Ce0 In6 3.479326 1_454
Ce1 In7 3.479326 1_555
Ce1 In11 3.479326 1_555
Ce1 In5 3.479326 1_555
Ce1 In9 3.479326 1_555
Ce1 In19 3.479326 1_555
Ce1 In13 3.479326 1_555
Ce1 In22 3.479326 1_555
Ce1 In23 3.479326 1_555
Ce1 In20 3.479326 1_555
Ce1 In17 3.479326 1_555
Ce1 In21 3.479326 1_555
Ce1 In15 3.479326 1_555
Ce2 In15 3.383890 1_555
Ce2 In13 3.383890 1_545
Ce2 In1 3.383890 1_545
Ce2 In2 3.383890 1_545
Ce2 In3 3.383890 1_555
Ce2 In0 3.383890 1_555
Ce2 In17 3.383890 1_555
Ce2 In19 3.383890 1_545
Ce2 Pt0 3.478127 1_555
Ce2 Pt4 3.478127 1_555
Ce2 Pt5 3.478127 1_545
Ce2 Pt6 3.478127 1_545
Ce2 In20 3.489062 1_545
Ce2 In8 3.489062 1_555
Ce2 In4 3.489062 1_555
Ce2 In22 3.489062 1_555
Ce3 In13 3.383890 1_545
Ce3 In15 3.383890 1_555
Ce3 In2 3.383890 1_645
Ce3 In0 3.383890 1_655
Ce3 In1 3.383890 1_645
Ce3 In3 3.383890 1_655
Ce3 In17 3.383890 1_555
Ce3 In19 3.383890 1_545
Ce3 Pt3 3.478127 1_555
Ce3 Pt2 3.478127 1_545
Ce3 Pt7 3.478127 1_555
Ce3 Pt1 3.478127 1_545
Ce3 In23 3.489062 1_545
Ce3 In10 3.489062 1_555
Ce3 In6 3.489062 1_555
Ce3 In21 3.489062 1_555
Ce4 In10 3.383890 1_555
Ce4 In7 3.383890 1_554
Ce4 In5 3.383890 1_555
Ce4 In9 3.383890 1_555
Ce4 In6 3.383890 1_554
Ce4 In8 3.383890 1_554
Ce4 In4 3.383890 1_555
Ce4 In11 3.383890 1_554
Ce4 Pt3 3.478127 1_554
Ce4 Pt0 3.478127 1_555
Ce4 Pt7 3.478127 1_555
Ce4 Pt4 3.478127 1_554
Ce4 In17 3.489062 1_555
Ce4 In18 3.489062 1_555
Ce4 In15 3.489062 1_554
Ce4 In12 3.489062 1_555
Ce5 In10 3.383890 1_565
Ce5 In7 3.383890 1_554
Ce5 In4 3.383890 1_565
Ce5 In5 3.383890 1_555
Ce5 In8 3.383890 1_564
Ce5 In9 3.383890 1_555
Ce5 In6 3.383890 1_564
Ce5 In11 3.383890 1_554
Ce5 Pt5 3.478127 1_555
Ce5 Pt1 3.478127 1_554
Ce5 Pt2 3.478127 1_555
Ce5 Pt6 3.478127 1_554
Ce5 In19 3.489062 1_554
Ce5 In14 3.489062 1_555
Ce5 In13 3.489062 1_555
Ce5 In16 3.489062 1_555
Ce6 In21 3.383890 1_455
Ce6 In14 3.383890 1_455
Ce6 In22 3.383890 1_555
Ce6 In18 3.383890 1_455
Ce6 In12 3.383890 1_555
Ce6 In23 3.383890 1_455
Ce6 In16 3.383890 1_555
Ce6 In20 3.383890 1_555
Ce6 Pt7 3.478127 1_455
Ce6 Pt0 3.478127 1_555
Ce6 Pt5 3.478127 1_555
Ce6 Pt2 3.478127 1_455
Ce6 In5 3.489062 1_455
Ce6 In2 3.489062 1_555
Ce6 In0 3.489062 1_555
Ce6 In9 3.489062 1_555
Ce7 In21 3.383890 1_455
Ce7 In14 3.383890 1_456
Ce7 In12 3.383890 1_556
Ce7 In22 3.383890 1_555
Ce7 In23 3.383890 1_455
Ce7 In18 3.383890 1_456
Ce7 In20 3.383890 1_555
Ce7 In16 3.383890 1_556
Ce7 Pt1 3.478127 1_455
Ce7 Pt4 3.478127 1_555
Ce7 Pt3 3.478127 1_455
Ce7 Pt6 3.478127 1_555
Ce7 In1 3.489062 1_555
Ce7 In3 3.489062 1_555
Ce7 In11 3.489062 1_455
Ce7 In7 3.489062 1_555
In0 Pt7 2.727521 1_455
In0 Pt0 2.727521 1_555
In1 Pt6 2.727521 1_555
In1 Pt1 2.727521 1_455
In2 Pt2 2.727521 1_455
In2 Pt5 2.727521 1_555
In3 Pt4 2.727521 1_555
In3 Pt3 2.727521 1_455
In4 Pt5 2.727521 1_545
In4 Pt0 2.727521 1_555
In5 Pt7 2.727521 1_555
In5 Pt2 2.727521 1_555
In6 Pt3 2.727521 1_555
In6 Pt1 2.727521 1_545
In7 Pt6 2.727521 1_555
In7 Pt4 2.727521 1_555
In8 Pt4 2.727521 1_555
In8 Pt6 2.727521 1_545
In9 Pt0 2.727521 1_555
In9 Pt5 2.727521 1_555
In10 Pt2 2.727521 1_545
In10 Pt7 2.727521 1_555
In11 Pt3 2.727521 1_555
In11 Pt1 2.727521 1_555
In12 Pt0 2.727521 1_555
In12 Pt4 2.727521 1_554
In13 Pt5 2.727521 1_555
In13 Pt2 2.727521 1_555
In14 Pt1 2.727521 1_554
In14 Pt2 2.727521 1_555
In15 Pt3 2.727521 1_555
In15 Pt4 2.727521 1_555
In16 Pt6 2.727521 1_554
In16 Pt5 2.727521 1_555
In17 Pt0 2.727521 1_555
In17 Pt7 2.727521 1_555
In18 Pt3 2.727521 1_554
In18 Pt7 2.727521 1_555
In19 Pt6 2.727521 1_555
In19 Pt1 2.727521 1_555
In20 Pt6 2.727521 1_555
In20 Pt5 2.727521 1_555
In21 Pt3 2.727521 1_555
In21 Pt7 2.727521 1_555
In22 Pt0 2.727521 1_555
In22 Pt4 2.727521 1_555
In23 Pt1 2.727521 1_555
In23 Pt2 2.727521 1_555
