# generated using pymatgen
data_Sr5V3BrO12
_symmetry_space_group_name_H-M   'P 1'
_cell_length_a   10.45558816
_cell_length_b   10.45558816
_cell_length_c   7.38141300
_cell_angle_alpha   90.00000000
_cell_angle_beta   90.00000000
_cell_angle_gamma   120.00000099
_symmetry_Int_Tables_number   1
_chemical_formula_structural   Sr5V3BrO12
_chemical_formula_sum   'Sr10 V6 Br2 O24'
_cell_volume   698.82280488
_cell_formula_units_Z   2
loop_
 _symmetry_equiv_pos_site_id
 _symmetry_equiv_pos_as_xyz
  1  'x, y, z'
loop_
 _atom_site_type_symbol
 _atom_site_label
 _atom_site_symmetry_multiplicity
 _atom_site_fract_x
 _atom_site_fract_y
 _atom_site_fract_z
 _atom_site_occupancy
  Sr  Sr0  1  0.33333300  0.66666700  0.49752400  1
  Sr  Sr1  1  0.66666700  0.33333300  0.99752400  1
  Sr  Sr2  1  0.66666700  0.33333300  0.50247600  1
  Sr  Sr3  1  0.33333300  0.66666700  0.00247600  1
  Sr  Sr4  1  0.74084100  0.74027300  0.25000000  1
  Sr  Sr5  1  0.99943200  0.25915900  0.25000000  1
  Sr  Sr6  1  0.25972700  0.00056800  0.25000000  1
  Sr  Sr7  1  0.25915900  0.25972700  0.75000000  1
  Sr  Sr8  1  0.00056800  0.74084100  0.75000000  1
  Sr  Sr9  1  0.74027300  0.99943200  0.75000000  1
  V  V0  1  0.96546000  0.59402800  0.25000000  1
  V  V1  1  0.62856800  0.03454000  0.25000000  1
  V  V2  1  0.40597200  0.37143200  0.25000000  1
  V  V3  1  0.03454000  0.40597200  0.75000000  1
  V  V4  1  0.37143200  0.96546000  0.75000000  1
  V  V5  1  0.59402800  0.62856800  0.75000000  1
  Br  Br0  1  0.00000000  0.00000000  0.50000000  1
  Br  Br1  1  0.00000000  0.00000000  0.00000000  1
  O  O0  1  0.15676300  0.66711100  0.25000000  1
  O  O1  1  0.51034700  0.84323700  0.25000000  1
  O  O2  1  0.33288900  0.48965300  0.25000000  1
  O  O3  1  0.84323700  0.33288900  0.75000000  1
  O  O4  1  0.48965300  0.15676300  0.75000000  1
  O  O5  1  0.66711100  0.51034700  0.75000000  1
  O  O6  1  0.86809400  0.40030300  0.25000000  1
  O  O7  1  0.53220800  0.13190600  0.25000000  1
  O  O8  1  0.59969700  0.46779200  0.25000000  1
  O  O9  1  0.13190600  0.59969700  0.75000000  1
  O  O10  1  0.46779200  0.86809400  0.75000000  1
  O  O11  1  0.40030300  0.53220800  0.75000000  1
  O  O12  1  0.90309800  0.64713800  0.43720100  1
  O  O13  1  0.74404000  0.09690200  0.43720100  1
  O  O14  1  0.35286200  0.25596000  0.43720100  1
  O  O15  1  0.09690200  0.35286200  0.93720100  1
  O  O16  1  0.25596000  0.90309800  0.93720100  1
  O  O17  1  0.64713800  0.74404000  0.93720100  1
  O  O18  1  0.09690200  0.35286200  0.56279900  1
  O  O19  1  0.25596000  0.90309800  0.56279900  1
  O  O20  1  0.64713800  0.74404000  0.56279900  1
  O  O21  1  0.90309800  0.64713800  0.06279900  1
  O  O22  1  0.74404000  0.09690200  0.06279900  1
  O  O23  1  0.35286200  0.25596000  0.06279900  1
loop_
_geom_bond_atom_site_label_1
_geom_bond_atom_site_label_2
_geom_bond_distance
_geom_bond_site_symmetry_2
Br0 Sr7 3.280810 1_555
Br0 Sr4 3.280810 1_445
Br0 Sr9 3.280810 1_445
Br0 Sr6 3.280810 1_555
Br0 Sr8 3.280810 1_545
Br0 Sr5 3.280810 1_455
Br1 Sr7 3.280810 1_554
Br1 Sr4 3.280810 1_445
Br1 Sr9 3.280810 1_444
Br1 Sr6 3.280810 1_555
Br1 Sr8 3.280810 1_544
Br1 Sr5 3.280810 1_455
O0 V0 1.748210 1_455
O0 Sr0 2.599047 1_555
O0 Sr3 2.599047 1_555
O0 Sr6 3.092117 1_565
O1 V1 1.748211 1_565
O1 Sr0 2.599047 1_555
O1 Sr3 2.599047 1_555
O1 Sr4 3.092127 1_555
O2 V2 1.748219 1_555
O2 Sr0 2.599047 1_555
O2 Sr3 2.599047 1_555
O2 Sr5 3.092119 1_455
O3 V3 1.748210 1_655
O3 Sr1 2.599047 1_555
O3 Sr2 2.599047 1_555
O3 Sr9 3.092117 1_545
O4 V4 1.748211 1_545
O4 Sr1 2.599047 1_555
O4 Sr2 2.599047 1_555
O4 Sr7 3.092127 1_555
O5 V5 1.748219 1_555
O5 Sr1 2.599047 1_555
O5 Sr2 2.599047 1_555
O5 Sr8 3.092119 1_655
O6 V0 1.754150 1_555
O6 Sr5 2.467804 1_555
O6 Sr2 2.631375 1_555
O6 Sr1 2.631375 1_554
O7 V1 1.754159 1_555
O7 Sr6 2.467795 1_555
O7 Sr2 2.631378 1_555
O7 Sr1 2.631378 1_554
O8 V2 1.754150 1_555
O8 Sr4 2.467795 1_555
O8 Sr2 2.631389 1_555
O8 Sr1 2.631389 1_554
O9 V3 1.754150 1_555
O9 Sr8 2.467804 1_555
O9 Sr3 2.631375 1_556
O9 Sr0 2.631375 1_555
O10 V4 1.754159 1_555
O10 Sr9 2.467795 1_555
O10 Sr3 2.631378 1_556
O10 Sr0 2.631378 1_555
O11 V5 1.754150 1_555
O11 Sr7 2.467795 1_555
O11 Sr3 2.631389 1_556
O11 Sr0 2.631389 1_555
O12 V0 1.733483 1_555
O12 Sr8 2.516148 1_655
O12 Sr4 2.718040 1_555
O12 Sr2 2.999562 1_555
O13 V1 1.733483 1_555
O13 Sr9 2.516148 1_545
O13 Sr5 2.718040 1_555
O13 Sr2 2.999555 1_555
O14 V2 1.733483 1_555
O14 Sr7 2.516148 1_555
O14 Sr6 2.718040 1_555
O14 Sr2 2.999565 1_555
O15 V3 1.733483 1_555
O15 Sr5 2.516148 1_456
O15 Sr7 2.718040 1_555
O15 Sr3 2.999562 1_556
O16 V4 1.733483 1_555
O16 Sr6 2.516148 1_566
O16 Sr8 2.718040 1_555
O16 Sr3 2.999555 1_556
O17 V5 1.733483 1_555
O17 Sr4 2.516148 1_556
O17 Sr9 2.718040 1_555
O17 Sr3 2.999565 1_556
O18 V3 1.733483 1_555
O18 Sr5 2.516148 1_455
O18 Sr7 2.718040 1_555
O18 Sr0 2.999562 1_555
O19 V4 1.733483 1_555
O19 Sr6 2.516148 1_565
O19 Sr8 2.718040 1_555
O19 Sr0 2.999555 1_555
O20 V5 1.733483 1_555
O20 Sr4 2.516148 1_555
O20 Sr9 2.718040 1_555
O20 Sr0 2.999565 1_555
O21 V0 1.733483 1_555
O21 Sr8 2.516148 1_654
O21 Sr4 2.718040 1_555
O21 Sr1 2.999562 1_554
O22 V1 1.733483 1_555
O22 Sr9 2.516148 1_544
O22 Sr5 2.718040 1_555
O22 Sr1 2.999555 1_554
O23 V2 1.733483 1_555
O23 Sr7 2.516148 1_554
O23 Sr6 2.718040 1_555
O23 Sr1 2.999565 1_554
