# generated using pymatgen
data_CaP2H8(CO3)2
_symmetry_space_group_name_H-M   'P 1'
_cell_length_a   10.70576964
_cell_length_b   10.70576964
_cell_length_c   7.34334641
_cell_angle_alpha   72.25593599
_cell_angle_beta   72.25593599
_cell_angle_gamma   30.74966924
_symmetry_Int_Tables_number   1
_chemical_formula_structural   CaP2H8(CO3)2
_chemical_formula_sum   'Ca2 P4 H16 C4 O12'
_cell_volume   408.26269642
_cell_formula_units_Z   2
loop_
 _symmetry_equiv_pos_site_id
 _symmetry_equiv_pos_as_xyz
  1  'x, y, z'
loop_
 _atom_site_type_symbol
 _atom_site_label
 _atom_site_symmetry_multiplicity
 _atom_site_fract_x
 _atom_site_fract_y
 _atom_site_fract_z
 _atom_site_occupancy
  Ca  Ca0  1  0.13186200  0.86813800  0.25000000  1
  Ca  Ca1  1  0.86813800  0.13186200  0.75000000  1
  P  P0  1  0.77686100  0.42573200  0.05283600  1
  P  P1  1  0.57426800  0.22313900  0.44716400  1
  P  P2  1  0.22313900  0.57426800  0.94716400  1
  P  P3  1  0.42573200  0.77686100  0.55283600  1
  H  H0  1  0.80448400  0.39408000  0.36489300  1
  H  H1  1  0.60592000  0.19551600  0.13510700  1
  H  H2  1  0.19551600  0.60592000  0.63510700  1
  H  H3  1  0.39408000  0.80448400  0.86489300  1
  H  H4  1  0.10183000  0.29227900  0.86900500  1
  H  H5  1  0.70772100  0.89817000  0.63099500  1
  H  H6  1  0.89817000  0.70772100  0.13099500  1
  H  H7  1  0.29227900  0.10183000  0.36900500  1
  H  H8  1  0.85564300  0.49752000  0.72802200  1
  H  H9  1  0.50248000  0.14435700  0.77197800  1
  H  H10  1  0.14435700  0.50248000  0.27197800  1
  H  H11  1  0.49752000  0.85564300  0.22802200  1
  H  H12  1  0.82907900  0.61370400  0.89381900  1
  H  H13  1  0.38629600  0.17092100  0.60618100  1
  H  H14  1  0.17092100  0.38629600  0.10618100  1
  H  H15  1  0.61370400  0.82907900  0.39381900  1
  C  C0  1  0.90177300  0.46209700  0.86842800  1
  C  C1  1  0.53790300  0.09822700  0.63157200  1
  C  C2  1  0.09822700  0.53790300  0.13157200  1
  C  C3  1  0.46209700  0.90177300  0.36842800  1
  O  O0  1  0.90292100  0.32739000  0.23614800  1
  O  O1  1  0.67261000  0.09707900  0.26385200  1
  O  O2  1  0.09707900  0.67261000  0.76385200  1
  O  O3  1  0.32739000  0.90292100  0.73614800  1
  O  O4  1  0.87125800  0.22039800  0.01203300  1
  O  O5  1  0.77960200  0.12874200  0.48796700  1
  O  O6  1  0.12874200  0.77960200  0.98796700  1
  O  O7  1  0.22039800  0.87125800  0.51203300  1
  O  O8  1  0.49640400  0.67315900  0.07744100  1
  O  O9  1  0.32684100  0.50359600  0.42255900  1
  O  O10  1  0.50359600  0.32684100  0.92255900  1
  O  O11  1  0.67315900  0.49640400  0.57744100  1
loop_
_geom_bond_atom_site_label_1
_geom_bond_atom_site_label_2
_geom_bond_distance
_geom_bond_site_symmetry_2
Ca0 O8 2.406153 1_555
Ca0 O9 2.406153 1_555
Ca0 O7 2.409845 1_555
Ca0 O6 2.409845 1_554
Ca0 O4 2.435121 1_465
Ca0 O5 2.435121 1_465
Ca1 O11 2.406153 1_555
Ca1 O10 2.406153 1_555
Ca1 O4 2.409845 1_556
Ca1 O5 2.409845 1_555
Ca1 O6 2.435121 1_645
Ca1 O7 2.435121 1_645
H0 O0 1.012442 1_555
H0 O11 1.634080 1_555
H1 O1 1.012442 1_555
H1 O10 1.634080 1_554
H2 O2 1.012442 1_555
H2 O9 1.634080 1_555
H3 O3 1.012442 1_555
H3 O8 1.634080 1_556
C0 H12 1.095300 1_555
C0 H4 1.095682 1_655
C0 H8 1.095857 1_555
C0 P0 1.800936 1_556
C1 H13 1.095300 1_555
C1 H5 1.095682 1_545
C1 H9 1.095857 1_555
C1 P1 1.800936 1_555
C2 H14 1.095300 1_555
C2 H6 1.095682 1_455
C2 H10 1.095857 1_555
C2 P2 1.800936 1_554
C3 H15 1.095300 1_555
C3 H7 1.095682 1_565
C3 H11 1.095857 1_555
C3 P3 1.800936 1_555
O0 P0 1.594711 1_555
O1 P1 1.594711 1_555
O2 P2 1.594711 1_555
O3 P3 1.594711 1_555
O4 P0 1.530325 1_555
O5 P1 1.530325 1_555
O6 P2 1.530325 1_555
O7 P3 1.530325 1_555
O8 P0 1.534624 1_555
O9 P1 1.534624 1_555
O10 P2 1.534624 1_555
O11 P3 1.534624 1_555
