# generated using pymatgen
data_HoNiO3
_symmetry_space_group_name_H-M   'P 1'
_cell_length_a   5.13100678
_cell_length_b   5.49720193
_cell_length_c   7.36043418
_cell_angle_alpha   90.00000000
_cell_angle_beta   90.00000000
_cell_angle_gamma   90.00000000
_symmetry_Int_Tables_number   1
_chemical_formula_structural   HoNiO3
_chemical_formula_sum   'Ho4 Ni4 O12'
_cell_volume   207.60973411
_cell_formula_units_Z   4
loop_
 _symmetry_equiv_pos_site_id
 _symmetry_equiv_pos_as_xyz
  1  'x, y, z'
loop_
 _atom_site_type_symbol
 _atom_site_label
 _atom_site_symmetry_multiplicity
 _atom_site_fract_x
 _atom_site_fract_y
 _atom_site_fract_z
 _atom_site_occupancy
  Ho  Ho0  1  0.47966411  0.42420910  0.75000000  1
  Ho  Ho1  1  0.02033589  0.92420910  0.75000000  1
  Ho  Ho2  1  0.52033589  0.57579090  0.25000000  1
  Ho  Ho3  1  0.97966411  0.07579090  0.25000000  1
  Ni  Ni0  1  0.00000000  0.50000000  0.00000000  1
  Ni  Ni1  1  0.50000000  -0.00000000  0.50000000  1
  Ni  Ni2  1  0.00000000  0.50000000  0.50000000  1
  Ni  Ni3  1  0.50000000  -0.00000000  0.00000000  1
  O  O0  1  0.69418051  0.30506414  0.44893791  1
  O  O1  1  0.80581949  0.80506414  0.05106209  1
  O  O2  1  0.30581949  0.69493586  0.55106209  1
  O  O3  1  0.19418051  0.19493586  0.94893791  1
  O  O4  1  0.19418051  0.19493586  0.55106209  1
  O  O5  1  0.30581949  0.69493586  0.94893791  1
  O  O6  1  0.80581949  0.80506414  0.44893791  1
  O  O7  1  0.69418051  0.30506414  0.05106209  1
  O  O8  1  0.10218414  0.47105404  0.25000000  1
  O  O9  1  0.39781586  0.97105404  0.25000000  1
  O  O10  1  0.89781586  0.52894596  0.75000000  1
  O  O11  1  0.60218414  0.02894596  0.75000000  1
loop_
_geom_bond_atom_site_label_1
_geom_bond_atom_site_label_2
_geom_bond_distance
_geom_bond_site_symmetry_2
Ho0 O10 2.221450 1_555
Ho0 O11 2.261955 1_555
Ho0 O2 2.270375 1_555
Ho0 O5 2.270375 1_555
Ho0 O3 2.424518 1_555
Ho0 O4 2.424518 1_555
Ho0 O0 2.559474 1_555
Ho0 O7 2.559474 1_556
Ho1 O11 2.221450 1_465
Ho1 O10 2.261955 1_455
Ho1 O3 2.270375 1_565
Ho1 O4 2.270375 1_565
Ho1 O5 2.424518 1_555
Ho1 O2 2.424518 1_555
Ho1 O6 2.559474 1_455
Ho1 O1 2.559474 1_456
Ho2 O8 2.221450 1_555
Ho2 O9 2.261955 1_555
Ho2 O0 2.270375 1_555
Ho2 O7 2.270375 1_555
Ho2 O6 2.424518 1_555
Ho2 O1 2.424518 1_555
Ho2 O5 2.559474 1_554
Ho2 O2 2.559474 1_555
Ho3 O9 2.221450 1_645
Ho3 O8 2.261955 1_655
Ho3 O6 2.270375 1_545
Ho3 O1 2.270375 1_545
Ho3 O0 2.424518 1_555
Ho3 O7 2.424518 1_555
Ho3 O4 2.559474 1_655
Ho3 O3 2.559474 1_654
Ni0 O8 1.919952 1_555
Ni0 O10 1.919952 1_454
Ni0 O7 1.936970 1_455
Ni0 O5 1.936970 1_554
Ni0 O3 1.986524 1_554
Ni0 O1 1.986524 1_455
Ni1 O9 1.919952 1_545
Ni1 O11 1.919952 1_555
Ni1 O6 1.936970 1_545
Ni1 O4 1.936970 1_555
Ni1 O0 1.986524 1_555
Ni1 O2 1.986524 1_545
Ni2 O8 1.919952 1_555
Ni2 O10 1.919952 1_455
Ni2 O0 1.936970 1_455
Ni2 O2 1.936970 1_555
Ni2 O4 1.986524 1_555
Ni2 O6 1.986524 1_455
Ni3 O11 1.919952 1_554
Ni3 O9 1.919952 1_545
Ni3 O1 1.936970 1_545
Ni3 O3 1.936970 1_554
Ni3 O7 1.986524 1_555
Ni3 O5 1.986524 1_544
