# generated using pymatgen
data_MoS6
_symmetry_space_group_name_H-M   'P 1'
_cell_length_a   9.43134677
_cell_length_b   9.43134677
_cell_length_c   49.25940400
_cell_angle_alpha   90.00000000
_cell_angle_beta   90.00000000
_cell_angle_gamma   123.33073361
_symmetry_Int_Tables_number   1
_chemical_formula_structural   MoS6
_chemical_formula_sum   'Mo1 S6'
_cell_volume   3660.91510730
_cell_formula_units_Z   1
loop_
 _symmetry_equiv_pos_site_id
 _symmetry_equiv_pos_as_xyz
  1  'x, y, z'
loop_
 _atom_site_type_symbol
 _atom_site_label
 _atom_site_symmetry_multiplicity
 _atom_site_fract_x
 _atom_site_fract_y
 _atom_site_fract_z
 _atom_site_occupancy
  Mo  Mo0  1  0.00000000  0.00000000  0.00000000  1
  S  S0  1  0.00000000  0.00000000  0.25009400  1
  S  S1  1  0.00000000  0.00000000  0.74990600  1
  S  S2  1  0.24230200  0.99094500  0.00000000  1
  S  S3  1  0.75769800  0.00905500  0.00000000  1
  S  S4  1  0.99094500  0.24230200  0.00000000  1
  S  S5  1  0.00905500  0.75769800  0.00000000  1
loop_
_geom_bond_atom_site_label_1
_geom_bond_atom_site_label_2
_geom_bond_distance
_geom_bond_site_symmetry_2
Mo0 S4 2.333251 1_455
Mo0 S3 2.333251 1_455
Mo0 S2 2.333251 1_545
Mo0 S5 2.333251 1_545
S2 S5 2.088171 1_555
S3 S4 2.088171 1_555
