# generated using pymatgen
data_NaMo3NO10
_symmetry_space_group_name_H-M   'P 1'
_cell_length_a   7.68175800
_cell_length_b   8.79396000
_cell_length_c   14.97697700
_cell_angle_alpha   90.00000000
_cell_angle_beta   90.00000000
_cell_angle_gamma   90.00000000
_symmetry_Int_Tables_number   1
_chemical_formula_structural   NaMo3NO10
_chemical_formula_sum   'Na4 Mo12 N4 O40'
_cell_volume   1011.74081434
_cell_formula_units_Z   4
loop_
 _symmetry_equiv_pos_site_id
 _symmetry_equiv_pos_as_xyz
  1  'x, y, z'
loop_
 _atom_site_type_symbol
 _atom_site_label
 _atom_site_symmetry_multiplicity
 _atom_site_fract_x
 _atom_site_fract_y
 _atom_site_fract_z
 _atom_site_occupancy
  Na  Na0  1  0.25000000  0.97142900  0.81158400  1
  Na  Na1  1  0.75000000  0.02857100  0.18841600  1
  Na  Na2  1  0.75000000  0.52857100  0.31158400  1
  Na  Na3  1  0.25000000  0.47142900  0.68841600  1
  Mo  Mo0  1  0.50046600  0.61728200  0.89198300  1
  Mo  Mo1  1  0.49953400  0.38271800  0.10801700  1
  Mo  Mo2  1  0.49953400  0.88271800  0.39198300  1
  Mo  Mo3  1  0.00046600  0.38271800  0.10801700  1
  Mo  Mo4  1  0.50046600  0.11728200  0.60801700  1
  Mo  Mo5  1  0.99953400  0.61728200  0.89198300  1
  Mo  Mo6  1  0.99953400  0.11728200  0.60801700  1
  Mo  Mo7  1  0.00046600  0.88271800  0.39198300  1
  Mo  Mo8  1  0.25000000  0.80034300  0.57445700  1
  Mo  Mo9  1  0.75000000  0.19965700  0.42554300  1
  Mo  Mo10  1  0.75000000  0.69965700  0.07445700  1
  Mo  Mo11  1  0.25000000  0.30034300  0.92554300  1
  N  N0  1  0.25000000  0.85847900  0.10402200  1
  N  N1  1  0.75000000  0.14152100  0.89597800  1
  N  N2  1  0.75000000  0.64152100  0.60402200  1
  N  N3  1  0.25000000  0.35847900  0.39597800  1
  O  O0  1  0.03842500  0.81060700  0.88314300  1
  O  O1  1  0.96157500  0.18939300  0.11685700  1
  O  O2  1  0.96157500  0.68939300  0.38314300  1
  O  O3  1  0.53842500  0.18939300  0.11685700  1
  O  O4  1  0.03842500  0.31060700  0.61685700  1
  O  O5  1  0.46157500  0.81060700  0.88314300  1
  O  O6  1  0.46157500  0.31060700  0.61685700  1
  O  O7  1  0.53842500  0.68939300  0.38314300  1
  O  O8  1  0.25000000  0.88233600  0.42577000  1
  O  O9  1  0.75000000  0.11766400  0.57423000  1
  O  O10  1  0.75000000  0.61766400  0.92577000  1
  O  O11  1  0.25000000  0.38233600  0.07423000  1
  O  O12  1  0.25000000  0.78113600  0.69081900  1
  O  O13  1  0.75000000  0.21886400  0.30918100  1
  O  O14  1  0.75000000  0.71886400  0.19081900  1
  O  O15  1  0.25000000  0.28113600  0.80918100  1
  O  O16  1  0.25000000  0.61359900  0.53860600  1
  O  O17  1  0.75000000  0.38640100  0.46139400  1
  O  O18  1  0.75000000  0.88640100  0.03860600  1
  O  O19  1  0.25000000  0.11359900  0.96139400  1
  O  O20  1  0.01513900  0.87802800  0.54707400  1
  O  O21  1  0.98486100  0.12197200  0.45292600  1
  O  O22  1  0.98486100  0.62197200  0.04707400  1
  O  O23  1  0.51513900  0.12197200  0.45292600  1
  O  O24  1  0.01513900  0.37802800  0.95292600  1
  O  O25  1  0.48486100  0.87802800  0.54707400  1
  O  O26  1  0.48486100  0.37802800  0.95292600  1
  O  O27  1  0.51513900  0.62197200  0.04707400  1
  O  O28  1  0.52257200  0.55423600  0.78320300  1
  O  O29  1  0.47742800  0.44576400  0.21679700  1
  O  O30  1  0.47742800  0.94576400  0.28320300  1
  O  O31  1  0.02257200  0.44576400  0.21679700  1
  O  O32  1  0.52257200  0.05423600  0.71679700  1
  O  O33  1  0.97742800  0.55423600  0.78320300  1
  O  O34  1  0.97742800  0.05423600  0.71679700  1
  O  O35  1  0.02257200  0.94576400  0.28320300  1
  O  O36  1  0.25000000  0.56431500  0.90833600  1
  O  O37  1  0.75000000  0.43568500  0.09166400  1
  O  O38  1  0.75000000  0.93568500  0.40833600  1
  O  O39  1  0.25000000  0.06431500  0.59166400  1
loop_
_geom_bond_atom_site_label_1
_geom_bond_atom_site_label_2
_geom_bond_distance
_geom_bond_site_symmetry_2
Na0 O5 2.406295 1_555
Na0 O0 2.406295 1_555
Na0 O12 2.464090 1_555
Na0 O19 2.568518 1_565
Na0 O32 2.632440 1_565
Na0 O34 2.632440 1_465
Na0 O15 2.723789 1_565
Na1 O1 2.406295 1_555
Na1 O3 2.406295 1_555
Na1 O13 2.464090 1_555
Na1 O18 2.568518 1_545
Na1 O35 2.632440 1_645
Na1 O30 2.632440 1_545
Na1 O14 2.723789 1_545
Na2 O2 2.406295 1_555
Na2 O7 2.406295 1_555
Na2 O14 2.464090 1_555
Na2 O17 2.568518 1_555
Na2 O31 2.632440 1_655
Na2 O29 2.632440 1_555
Na2 O13 2.723789 1_555
Na3 O6 2.406295 1_555
Na3 O4 2.406295 1_555
Na3 O15 2.464090 1_555
Na3 O16 2.568518 1_555
Na3 O28 2.632440 1_555
Na3 O33 2.632440 1_455
Na3 O12 2.723789 1_555
Mo0 O28 1.729306 1_555
Mo0 O5 1.731212 1_555
Mo0 O10 1.982530 1_555
Mo0 O36 1.994692 1_555
Mo0 O26 2.296572 1_555
Mo0 O27 2.325893 1_556
Mo1 O29 1.729306 1_555
Mo1 O3 1.731212 1_555
Mo1 O11 1.982530 1_555
Mo1 O37 1.994692 1_555
Mo1 O27 2.296572 1_555
Mo1 O26 2.325893 1_554
Mo2 O30 1.729306 1_555
Mo2 O7 1.731212 1_555
Mo2 O8 1.982530 1_555
Mo2 O38 1.994692 1_555
Mo2 O23 2.296572 1_565
Mo2 O25 2.325893 1_555
Mo3 O31 1.729306 1_555
Mo3 O1 1.731212 1_455
Mo3 O11 1.982530 1_555
Mo3 O37 1.994692 1_455
Mo3 O22 2.296572 1_455
Mo3 O24 2.325893 1_554
Mo4 O32 1.729306 1_555
Mo4 O6 1.731212 1_555
Mo4 O9 1.982530 1_555
Mo4 O39 1.994692 1_555
Mo4 O25 2.296572 1_545
Mo4 O23 2.325893 1_555
Mo5 O33 1.729306 1_555
Mo5 O0 1.731212 1_655
Mo5 O10 1.982530 1_555
Mo5 O36 1.994692 1_655
Mo5 O24 2.296572 1_655
Mo5 O22 2.325893 1_556
Mo6 O34 1.729306 1_555
Mo6 O4 1.731212 1_655
Mo6 O9 1.982530 1_555
Mo6 O39 1.994692 1_655
Mo6 O20 2.296572 1_645
Mo6 O21 2.325893 1_555
Mo7 O35 1.729306 1_555
Mo7 O2 1.731212 1_455
Mo7 O8 1.982530 1_555
Mo7 O38 1.994692 1_455
Mo7 O21 2.296572 1_465
Mo7 O20 2.325893 1_555
Mo8 O16 1.727770 1_555
Mo8 O12 1.750917 1_555
Mo8 O20 1.972268 1_555
Mo8 O25 1.972268 1_555
Mo8 O39 2.335620 1_565
Mo8 O8 2.340706 1_555
Mo9 O17 1.727770 1_555
Mo9 O13 1.750917 1_555
Mo9 O23 1.972268 1_555
Mo9 O21 1.972268 1_555
Mo9 O38 2.335620 1_545
Mo9 O9 2.340706 1_555
Mo10 O18 1.727770 1_555
Mo10 O14 1.750917 1_555
Mo10 O22 1.972268 1_555
Mo10 O27 1.972268 1_555
Mo10 O37 2.335620 1_555
Mo10 O10 2.340706 1_554
Mo11 O19 1.727770 1_555
Mo11 O15 1.750917 1_555
Mo11 O24 1.972268 1_555
Mo11 O26 1.972268 1_555
Mo11 O36 2.335620 1_555
Mo11 O11 2.340706 1_556
