# generated using pymatgen
data_TmNiP
_symmetry_space_group_name_H-M   'P 1'
_cell_length_a   3.84335968
_cell_length_b   3.84335968
_cell_length_c   15.10479553
_cell_angle_alpha   90.00000000
_cell_angle_beta   90.00000000
_cell_angle_gamma   119.97976111
_symmetry_Int_Tables_number   1
_chemical_formula_structural   TmNiP
_chemical_formula_sum   'Tm4 Ni4 P4'
_cell_volume   193.26627440
_cell_formula_units_Z   4
loop_
 _symmetry_equiv_pos_site_id
 _symmetry_equiv_pos_as_xyz
  1  'x, y, z'
loop_
 _atom_site_type_symbol
 _atom_site_label
 _atom_site_symmetry_multiplicity
 _atom_site_fract_x
 _atom_site_fract_y
 _atom_site_fract_z
 _atom_site_occupancy
  Tm  Tm0  1  0.00000000  -0.00000000  0.50000000  1
  Tm  Tm1  1  0.00000000  -0.00000000  0.00000000  1
  Tm  Tm2  1  0.00002822  0.99997178  0.75000000  1
  Tm  Tm3  1  0.99997178  0.00002822  0.25000000  1
  Ni  Ni0  1  0.66660736  0.33339264  0.62982766  1
  Ni  Ni1  1  0.33339264  0.66660736  0.37017234  1
  Ni  Ni2  1  0.33339264  0.66660736  0.12982766  1
  Ni  Ni3  1  0.66660736  0.33339264  0.87017234  1
  P  P0  1  0.66662405  0.33337595  0.12210602  1
  P  P1  1  0.33337595  0.66662405  0.87789398  1
  P  P2  1  0.33337595  0.66662405  0.62210602  1
  P  P3  1  0.66662405  0.33337595  0.37789398  1
loop_
_geom_bond_atom_site_label_1
_geom_bond_atom_site_label_2
_geom_bond_distance
_geom_bond_site_symmetry_2
Ni0 P2 2.221124 1_555
Ni0 P2 2.222819 1_655
Ni0 P2 2.222819 1_545
Ni0 Tm2 2.866949 1_655
Ni0 Tm2 2.866949 1_545
Ni0 Tm2 2.867099 1_645
Ni0 Tm0 2.961444 1_655
Ni0 Tm0 2.961509 1_665
Ni0 Tm0 2.961509 1_555
Ni1 P3 2.221124 1_555
Ni1 P3 2.222819 1_565
Ni1 P3 2.222819 1_455
Ni1 Tm3 2.866949 1_565
Ni1 Tm3 2.866949 1_455
Ni1 Tm3 2.867099 1_465
Ni1 Tm0 2.961444 1_565
Ni1 Tm0 2.961509 1_665
Ni1 Tm0 2.961509 1_555
Ni2 P0 2.221124 1_555
Ni2 P0 2.222819 1_565
Ni2 P0 2.222819 1_455
Ni2 Tm3 2.866949 1_565
Ni2 Tm3 2.866949 1_455
Ni2 Tm3 2.867099 1_465
Ni2 Tm1 2.961444 1_565
Ni2 Tm1 2.961509 1_665
Ni2 Tm1 2.961509 1_555
Ni3 P1 2.221124 1_555
Ni3 P1 2.222819 1_655
Ni3 P1 2.222819 1_545
Ni3 Tm2 2.866949 1_655
Ni3 Tm2 2.866949 1_545
Ni3 Tm2 2.867099 1_645
Ni3 Tm1 2.961444 1_656
Ni3 Tm1 2.961509 1_666
Ni3 Tm1 2.961509 1_556
P0 Tm1 2.885450 1_655
P0 Tm1 2.885645 1_665
P0 Tm1 2.885645 1_555
P0 Tm3 2.941959 1_555
P0 Tm3 2.942363 1_455
P0 Tm3 2.942363 1_565
P1 Tm1 2.885450 1_566
P1 Tm1 2.885645 1_666
P1 Tm1 2.885645 1_556
P1 Tm2 2.941959 1_555
P1 Tm2 2.942363 1_655
P1 Tm2 2.942363 1_545
P2 Tm0 2.885450 1_565
P2 Tm0 2.885645 1_555
P2 Tm0 2.885645 1_665
P2 Tm2 2.941959 1_555
P2 Tm2 2.942363 1_655
P2 Tm2 2.942363 1_545
P3 Tm0 2.885450 1_655
P3 Tm0 2.885645 1_665
P3 Tm0 2.885645 1_555
P3 Tm3 2.941959 1_555
P3 Tm3 2.942363 1_455
P3 Tm3 2.942363 1_565
