# generated using pymatgen
data_Mg6Si5
_symmetry_space_group_name_H-M   'P 1'
_cell_length_a   4.30922600
_cell_length_b   8.51765078
_cell_length_c   12.05733130
_cell_angle_alpha   79.07737347
_cell_angle_beta   83.15733857
_cell_angle_gamma   79.55726000
_symmetry_Int_Tables_number   1
_chemical_formula_structural   Mg6Si5
_chemical_formula_sum   'Mg12 Si10'
_cell_volume   425.69217716
_cell_formula_units_Z   2
loop_
 _symmetry_equiv_pos_site_id
 _symmetry_equiv_pos_as_xyz
  1  'x, y, z'
loop_
 _atom_site_type_symbol
 _atom_site_label
 _atom_site_symmetry_multiplicity
 _atom_site_fract_x
 _atom_site_fract_y
 _atom_site_fract_z
 _atom_site_occupancy
  Mg  Mg0  1  0.01826300  0.36629200  0.90187400  1
  Mg  Mg1  1  0.09765900  0.61587200  0.65589700  1
  Mg  Mg2  1  0.10508500  0.73102000  0.37395700  1
  Mg  Mg3  1  0.86635900  0.74330900  0.91353000  1
  Mg  Mg4  1  0.61877200  0.33449500  0.71078700  1
  Mg  Mg5  1  0.64847700  0.85652800  0.17063300  1
  Mg  Mg6  1  0.32841600  0.32790300  0.33325500  1
  Mg  Mg7  1  0.84093100  0.09107000  0.50300100  1
  Mg  Mg8  1  0.14565000  0.04865500  0.73082600  1
  Mg  Mg9  1  0.52028400  0.22240600  0.07783600  1
  Mg  Mg10  1  0.31653500  0.60028400  0.10298800  1
  Mg  Mg11  1  0.16544300  0.97839400  0.00702400  1
  Si  Si0  1  0.18680600  0.33156600  0.56019900  1
  Si  Si1  1  0.47823400  0.99499400  0.36205700  1
  Si  Si2  1  0.03212300  0.06126800  0.23190400  1
  Si  Si3  1  0.46482100  0.58279700  0.83579600  1
  Si  Si4  1  0.62624100  0.83625900  0.69948800  1
  Si  Si5  1  0.53298600  0.77857400  0.51993100  1
  Si  Si6  1  0.93643800  0.35766600  0.15960600  1
  Si  Si7  1  0.68581900  0.49257600  0.48450900  1
  Si  Si8  1  0.66055600  0.09106800  0.88679000  1
  Si  Si9  1  0.72061600  0.55680500  0.28161500  1
loop_
_geom_bond_atom_site_label_1
_geom_bond_atom_site_label_2
_geom_bond_distance
_geom_bond_site_symmetry_2
Mg0 Si3 2.832837 1_455
Mg0 Si3 2.846544 1_555
Mg0 Si8 3.072944 1_455
Mg0 Si6 3.073829 1_456
Mg1 Si4 2.581458 1_455
Mg1 Si5 2.734198 1_555
Mg1 Si3 2.777102 1_555
Mg1 Si0 2.821218 1_555
Mg1 Si5 3.065330 1_455
Mg2 Si5 2.824211 1_555
Mg2 Si9 2.853659 1_455
Mg2 Si5 2.865977 1_455
Mg2 Si1 2.965646 1_555
Mg2 Si7 2.982660 1_455
Mg2 Si2 2.987802 1_565
Mg2 Si9 2.995456 1_555
Mg2 Si1 3.184520 1_455
Mg3 Si3 2.733365 1_555
Mg3 Si4 2.814764 1_555
Mg3 Si3 2.833714 1_655
Mg3 Si8 2.901442 1_565
Mg4 Si8 2.668927 1_555
Mg4 Si0 2.757112 1_555
Mg4 Si3 2.765173 1_555
Mg4 Si7 2.810901 1_555
Mg4 Si0 2.867925 1_655
Mg5 Si9 2.630886 1_555
Mg5 Si1 2.751512 1_555
Mg5 Si2 2.853855 1_665
Mg5 Si2 2.997161 1_565
Mg6 Si0 2.736506 1_555
Mg6 Si9 2.743923 1_555
Mg6 Si1 2.755841 1_545
Mg6 Si6 2.790610 1_455
Mg6 Si9 3.020986 1_455
Mg6 Si6 3.169450 1_555
Mg7 Si1 2.761169 1_545
Mg7 Si0 2.963167 1_655
Mg7 Si4 3.071837 1_545
Mg7 Si1 3.114479 1_645
Mg7 Si5 3.146011 1_545
Mg7 Si0 3.255194 1_555
Mg8 Si4 2.533579 1_545
Mg8 Si8 2.661487 1_455
Mg8 Si0 2.874026 1_555
Mg8 Si8 3.183143 1_555
Mg8 Si4 3.217746 1_445
Mg9 Si6 2.667591 1_555
Mg9 Si8 2.706035 1_554
Mg9 Si6 2.723580 1_455
Mg9 Si2 2.984798 1_555
Mg9 Si2 3.018636 1_655
Mg10 Si6 2.800954 1_455
Mg10 Si9 2.857535 1_555
Mg10 Si6 3.125894 1_555
Mg10 Si9 3.177230 1_455
Mg11 Si8 2.655698 1_564
Mg11 Si8 2.687682 1_464
Mg11 Si2 2.896110 1_565
Si0 Si7 2.509238 1_455
Si0 Si7 2.732187 1_555
Si1 Si5 2.386795 1_555
Si1 Si2 2.542973 1_565
Si1 Si2 2.781816 1_665
Si2 Si6 2.485532 1_455
Si3 Si4 2.602530 1_555
Si4 Si5 2.402508 1_555
Si5 Si7 2.509197 1_555
Si6 Si9 2.440068 1_555
Si7 Si9 2.396163 1_555
