# generated using pymatgen
data_Ga4H12C15O31
_symmetry_space_group_name_H-M   'P 1'
_cell_length_a   10.15757386
_cell_length_b   10.15757386
_cell_length_c   10.15757386
_cell_angle_alpha   109.47122063
_cell_angle_beta   109.47122063
_cell_angle_gamma   109.47122063
_symmetry_Int_Tables_number   1
_chemical_formula_structural   Ga4H12C15O31
_chemical_formula_sum   'Ga4 H12 C15 O31'
_cell_volume   806.76690720
_cell_formula_units_Z   1
loop_
 _symmetry_equiv_pos_site_id
 _symmetry_equiv_pos_as_xyz
  1  'x, y, z'
loop_
 _atom_site_type_symbol
 _atom_site_label
 _atom_site_symmetry_multiplicity
 _atom_site_fract_x
 _atom_site_fract_y
 _atom_site_fract_z
 _atom_site_occupancy
  Ga  Ga0  1  0.00000000  0.00000000  0.50000000  1
  Ga  Ga1  1  0.50000000  0.00000000  0.00000000  1
  Ga  Ga2  1  0.00000000  0.50000000  0.00000000  1
  Ga  Ga3  1  0.50000000  0.50000000  0.50000000  1
  H  H0  1  0.67593700  0.78355500  0.45949200  1
  H  H1  1  0.67593700  0.21644500  0.89238100  1
  H  H2  1  0.32406300  0.78355500  0.10761900  1
  H  H3  1  0.32406300  0.21644500  0.54050800  1
  H  H4  1  0.78355500  0.45949200  0.67593700  1
  H  H5  1  0.21644500  0.89238100  0.67593700  1
  H  H6  1  0.78355500  0.10761900  0.32406300  1
  H  H7  1  0.21644500  0.54050800  0.32406300  1
  H  H8  1  0.45949200  0.67593700  0.78355500  1
  H  H9  1  0.89238100  0.67593700  0.21644500  1
  H  H10  1  0.10761900  0.32406300  0.78355500  1
  H  H11  1  0.54050800  0.32406300  0.21644500  1
  C  C0  1  0.75749100  0.73690900  0.49440100  1
  C  C1  1  0.75749100  0.26309100  0.02058200  1
  C  C2  1  0.24250900  0.73690900  0.97941800  1
  C  C3  1  0.24250900  0.26309100  0.50559900  1
  C  C4  1  0.73690900  0.49440100  0.75749100  1
  C  C5  1  0.26309100  0.02058200  0.75749100  1
  C  C6  1  0.73690900  0.97941800  0.24250900  1
  C  C7  1  0.26309100  0.50559900  0.24250900  1
  C  C8  1  0.49440100  0.75749100  0.73690900  1
  C  C9  1  0.02058200  0.75749100  0.26309100  1
  C  C10  1  0.97941800  0.24250900  0.73690900  1
  C  C11  1  0.50559900  0.24250900  0.26309100  1
  C  C12  1  0.50000000  0.00000000  0.50000000  1
  C  C13  1  0.00000000  0.50000000  0.50000000  1
  C  C14  1  0.50000000  0.50000000  0.00000000  1
  O  O0  1  0.89818500  0.80432800  0.51419800  1
  O  O1  1  0.70986900  0.19567200  0.09385700  1
  O  O2  1  0.10181500  0.61601200  0.90614300  1
  O  O3  1  0.29013100  0.38398800  0.48580200  1
  O  O4  1  0.80432800  0.51419800  0.89818500  1
  O  O5  1  0.19567200  0.09385700  0.70986900  1
  O  O6  1  0.61601200  0.90614300  0.10181500  1
  O  O7  1  0.38398800  0.48580200  0.29013100  1
  O  O8  1  0.51419800  0.89818500  0.80432800  1
  O  O9  1  0.09385700  0.70986900  0.19567200  1
  O  O10  1  0.90614300  0.10181500  0.61601200  1
  O  O11  1  0.48580200  0.29013100  0.38398800  1
  O  O12  1  0.10181500  0.19567200  0.48580200  1
  O  O13  1  0.29013100  0.80432800  0.90614300  1
  O  O14  1  0.89818500  0.38398800  0.09385700  1
  O  O15  1  0.70986900  0.61601200  0.51419800  1
  O  O16  1  0.19567200  0.48580200  0.10181500  1
  O  O17  1  0.80432800  0.90614300  0.29013100  1
  O  O18  1  0.38398800  0.09385700  0.89818500  1
  O  O19  1  0.61601200  0.51419800  0.70986900  1
  O  O20  1  0.48580200  0.10181500  0.19567200  1
  O  O21  1  0.90614300  0.29013100  0.80432800  1
  O  O22  1  0.09385700  0.89818500  0.38398800  1
  O  O23  1  0.51419800  0.70986900  0.61601200  1
  O  O24  1  0.50000000  0.89966800  0.39966800  1
  O  O25  1  0.50000000  0.10033200  0.60033200  1
  O  O26  1  0.89966800  0.39966800  0.50000000  1
  O  O27  1  0.10033200  0.60033200  0.50000000  1
  O  O28  1  0.39966800  0.50000000  0.89966800  1
  O  O29  1  0.60033200  0.50000000  0.10033200  1
  O  O30  1  0.00000000  0.00000000  0.00000000  1
loop_
_geom_bond_atom_site_label_1
_geom_bond_atom_site_label_2
_geom_bond_distance
_geom_bond_site_symmetry_2
Ga0 O5 1.990196 1_555
Ga0 O22 1.990196 1_545
Ga0 O17 1.990196 1_445
Ga0 O10 1.990196 1_455
Ga0 O0 1.990202 1_445
Ga0 O12 1.990202 1_555
Ga1 O1 1.990196 1_555
Ga1 O6 1.990196 1_545
Ga1 O13 1.990196 1_544
Ga1 O18 1.990196 1_554
Ga1 O8 1.990202 1_544
Ga1 O20 1.990202 1_555
Ga2 O14 1.990196 1_455
Ga2 O2 1.990196 1_554
Ga2 O9 1.990196 1_555
Ga2 O21 1.990196 1_454
Ga2 O4 1.990202 1_454
Ga2 O16 1.990202 1_555
Ga3 O23 1.990191 1_555
Ga3 O15 1.990191 1_555
Ga3 O19 1.990191 1_555
Ga3 O7 1.990191 1_555
Ga3 O3 1.990191 1_555
Ga3 O11 1.990191 1_555
C0 H0 1.101956 1_555
C0 O0 1.271188 1_555
C0 O15 1.271188 1_555
C1 H1 1.101962 1_554
C1 O14 1.271188 1_555
C1 O1 1.271188 1_555
C2 H2 1.101962 1_556
C2 O13 1.271188 1_555
C2 O2 1.271188 1_555
C3 H3 1.101956 1_555
C3 O3 1.271188 1_555
C3 O12 1.271188 1_555
C4 H4 1.101956 1_555
C4 O4 1.271188 1_555
C4 O19 1.271188 1_555
C5 H5 1.101962 1_545
C5 O18 1.271188 1_555
C5 O5 1.271188 1_555
C6 H6 1.101962 1_565
C6 O17 1.271188 1_555
C6 O6 1.271188 1_555
C7 H7 1.101956 1_555
C7 O7 1.271188 1_555
C7 O16 1.271188 1_555
C8 H8 1.101956 1_555
C8 O8 1.271188 1_555
C8 O23 1.271188 1_555
C9 H9 1.101962 1_455
C9 O22 1.271188 1_555
C9 O9 1.271188 1_555
C10 H10 1.101962 1_655
C10 O21 1.271188 1_555
C10 O10 1.271188 1_555
C11 H11 1.101956 1_555
C11 O20 1.271188 1_555
C11 O11 1.271188 1_555
C12 O24 1.176790 1_545
C12 O25 1.176790 1_555
C13 O26 1.176790 1_455
C13 O27 1.176790 1_555
C14 O28 1.176790 1_554
C14 O29 1.176790 1_555
