# generated using pymatgen
data_LaMg6Al
_symmetry_space_group_name_H-M   'P 1'
_cell_length_a   7.34266721
_cell_length_b   7.34266721
_cell_length_c   4.91133900
_cell_angle_alpha   90.00000000
_cell_angle_beta   90.00000000
_cell_angle_gamma   130.62868303
_symmetry_Int_Tables_number   1
_chemical_formula_structural   LaMg6Al
_chemical_formula_sum   'La1 Mg6 Al1'
_cell_volume   200.96394615
_cell_formula_units_Z   1
loop_
 _symmetry_equiv_pos_site_id
 _symmetry_equiv_pos_as_xyz
  1  'x, y, z'
loop_
 _atom_site_type_symbol
 _atom_site_label
 _atom_site_symmetry_multiplicity
 _atom_site_fract_x
 _atom_site_fract_y
 _atom_site_fract_z
 _atom_site_occupancy
  La  La0  1  0.30271700  0.69728300  0.50000000  1
  Mg  Mg0  1  0.32087500  0.19336300  0.50000000  1
  Mg  Mg1  1  0.80663700  0.67912500  0.50000000  1
  Mg  Mg2  1  0.17717500  0.32381300  0.00000000  1
  Mg  Mg3  1  0.67618700  0.82282500  0.00000000  1
  Mg  Mg4  1  0.71216500  0.28783500  0.00000000  1
  Mg  Mg5  1  0.13603800  0.86396200  0.00000000  1
  Al  Al0  1  0.86821500  0.13178500  0.50000000  1
loop_
_geom_bond_atom_site_label_1
_geom_bond_atom_site_label_2
_geom_bond_distance
_geom_bond_site_symmetry_2
La0 Mg5 3.313109 1_556
La0 Mg5 3.313109 1_555
La0 Mg2 3.332870 1_555
La0 Mg3 3.332870 1_555
La0 Mg3 3.332870 1_556
La0 Mg2 3.332870 1_556
La0 Mg1 3.557173 1_455
La0 Mg0 3.557173 1_565
La0 Mg0 3.788286 1_555
La0 Mg1 3.788286 1_555
Mg0 Mg1 2.979265 1_555
Mg0 Mg2 3.062240 1_556
Mg0 Mg2 3.062240 1_555
Mg0 Mg5 3.073650 1_545
Mg0 Mg5 3.073650 1_546
Mg0 Mg1 3.153913 1_445
Mg0 Mg4 3.488662 1_555
Mg0 Mg4 3.488662 1_556
Mg1 Mg3 3.062240 1_555
Mg1 Mg3 3.062240 1_556
Mg1 Mg5 3.073650 1_656
Mg1 Mg5 3.073650 1_655
Mg1 Mg4 3.488662 1_555
Mg1 Mg4 3.488662 1_556
Mg2 Mg3 3.060529 1_555
Mg2 Mg3 3.072649 1_445
Mg2 Mg5 3.188101 1_545
Mg2 Mg4 3.248588 1_455
Mg3 Mg5 3.188101 1_655
Mg3 Mg4 3.248588 1_565
Mg4 Mg5 3.230447 1_545
Mg4 Mg5 3.230447 1_655
Al0 Mg3 2.999868 1_545
Al0 Mg3 2.999868 1_546
Al0 Mg2 2.999868 1_655
Al0 Mg2 2.999868 1_656
Al0 Mg1 3.048688 1_545
Al0 Mg0 3.048688 1_655
Al0 La0 3.188694 1_655
Al0 La0 3.188694 1_545
Al0 Mg4 3.219619 1_556
Al0 Mg4 3.219619 1_555
