# generated using pymatgen
data_K2MgFe4P6(O4F3)4
_symmetry_space_group_name_H-M   'P 1'
_cell_length_a   7.47370293
_cell_length_b   7.93597351
_cell_length_c   10.79619747
_cell_angle_alpha   100.31535018
_cell_angle_beta   108.81512562
_cell_angle_gamma   90.63819629
_symmetry_Int_Tables_number   1
_chemical_formula_structural   K2MgFe4P6(O4F3)4
_chemical_formula_sum   'K2 Mg1 Fe4 P6 O16 F12'
_cell_volume   594.68716396
_cell_formula_units_Z   1
loop_
 _symmetry_equiv_pos_site_id
 _symmetry_equiv_pos_as_xyz
  1  'x, y, z'
loop_
 _atom_site_type_symbol
 _atom_site_label
 _atom_site_symmetry_multiplicity
 _atom_site_fract_x
 _atom_site_fract_y
 _atom_site_fract_z
 _atom_site_occupancy
  K  K0  1  0.78216595  0.09199563  0.77349361  1
  K  K1  1  0.22989823  0.94830931  0.21952080  1
  Mg  Mg0  1  0.63360310  0.21889779  0.08115807  1
  Fe  Fe0  1  0.67602209  0.32510778  0.36431072  1
  Fe  Fe1  1  0.33620476  0.67394259  0.65839626  1
  Fe  Fe2  1  0.48070632  0.52319682  0.98650325  1
  Fe  Fe3  1  0.00564183  0.99773870  0.50821494  1
  P  P0  1  0.65639569  0.73017141  0.50229077  1
  P  P1  1  0.33503444  0.27804604  0.49642885  1
  P  P2  1  0.30300694  0.05875349  0.81890185  1
  P  P3  1  0.70560542  0.91565135  0.18862848  1
  P  P4  1  0.04807212  0.59540404  0.82791847  1
  P  P5  1  0.96956895  0.39347511  0.15267928  1
  O  O0  1  0.72922457  0.57200034  0.44161742  1
  O  O1  1  0.25882280  0.44470246  0.54448840  1
  O  O2  1  0.80184128  0.88520494  0.55472860  1
  O  O3  1  0.19853102  0.11855936  0.46090048  1
  O  O4  1  0.59443377  0.07574661  0.20941952  1
  O  O5  1  0.41277720  0.90886534  0.78238041  1
  O  O6  1  0.44126652  0.21232952  0.90343119  1
  O  O7  1  0.58073764  0.75835567  0.11153527  1
  O  O8  1  0.87968131  0.89939291  0.30387985  1
  O  O9  1  0.13381193  0.10012108  0.70843566  1
  O  O10  1  0.91088746  0.31996664  0.25325559  1
  O  O11  1  0.10633816  0.65712001  0.72311095  1
  O  O12  1  0.80911126  0.38270495  0.02229672  1
  O  O13  1  0.18966091  0.54556435  0.94641670  1
  O  O14  1  0.41848215  0.27864323  0.38612005  1
  O  O15  1  0.56123766  0.71106032  0.60472537  1
  F  F0  1  0.84777095  0.19256110  0.49393387  1
  F  F1  1  0.16509298  0.79705536  0.52337046  1
  F  F2  1  0.52539044  0.41435843  0.15284975  1
  F  F3  1  0.48527112  0.57146510  0.81313060  1
  F  F4  1  0.79426156  0.98058932  0.07698443  1
  F  F5  1  0.20893640  0.00529027  0.92358307  1
  F  F6  1  0.88810172  0.44635165  0.75983252  1
  F  F7  1  0.06917836  0.57753779  0.20756790  1
  F  F8  1  0.50626238  0.24633184  0.62381051  1
  F  F9  1  0.49143151  0.78574145  0.38123594  1
  F  F10  1  0.13486050  0.29376809  0.12177474  1
  F  F11  1  0.92681360  0.73458881  0.88048872  1
loop_
_geom_bond_atom_site_label_1
_geom_bond_atom_site_label_2
_geom_bond_distance
_geom_bond_site_symmetry_2
K0 O2 2.671014 1_545
K0 O9 2.933856 1_655
K0 O5 3.142327 1_545
K0 O12 3.162236 1_556
K0 O15 3.340784 1_545
K0 O6 3.354240 1_555
K1 O3 2.794947 1_565
K1 O4 2.937173 1_565
K1 O14 2.947508 1_565
K1 O8 3.077772 1_455
Mg0 O6 1.983463 1_554
Mg0 O4 2.027618 1_555
Mg0 O12 2.147053 1_555
Mg0 O10 2.309917 1_555
Fe0 O0 1.968910 1_555
Fe0 O14 2.050315 1_555
Fe0 O4 2.283547 1_555
Fe0 O10 2.421140 1_555
Fe1 O1 1.968001 1_555
Fe1 O15 1.982362 1_555
Fe1 O5 2.045336 1_555
Fe1 O11 2.063941 1_555
Fe2 O7 2.068721 1_556
Fe2 O13 2.092640 1_555
Fe2 O6 2.449161 1_555
Fe2 O12 2.649524 1_556
Fe3 O3 1.969289 1_565
Fe3 O2 1.998347 1_455
Fe3 O9 2.066011 1_565
Fe3 O8 2.095095 1_455
O0 P0 1.500568 1_555
O1 P1 1.518061 1_555
O2 P0 1.529595 1_555
O3 P1 1.528011 1_555
O4 P3 1.548095 1_545
O5 P2 1.518505 1_565
O6 P2 1.533404 1_555
O7 P3 1.490917 1_555
O8 P3 1.508149 1_555
O9 P2 1.518489 1_555
O10 P5 1.496674 1_555
O11 P4 1.490438 1_555
O12 P5 1.514146 1_555
O13 P4 1.493389 1_555
O14 P1 1.512712 1_555
O15 P0 1.522101 1_555
F0 Fe3 1.953202 1_645
F0 Fe0 2.027586 1_555
F1 Fe3 1.998289 1_555
F1 Fe1 2.012582 1_555
F2 Mg0 1.913379 1_555
F2 Fe2 2.063483 1_554
F2 Fe0 2.433121 1_555
F3 Fe2 1.987228 1_555
F3 Fe1 1.999882 1_555
F4 P3 1.699244 1_555
F4 Mg0 2.252861 1_565
F4 K1 3.156273 1_655
F5 P2 1.621469 1_555
F5 K0 3.222868 1_455
F5 K1 3.260859 1_546
F6 P4 1.568166 1_655
F6 K0 2.954843 1_555
F7 P5 1.555725 1_455
F7 K1 3.130923 1_555
F8 P1 1.608793 1_555
F8 K0 2.641833 1_555
F9 P0 1.612998 1_555
F9 K1 2.682315 1_555
F10 P5 1.567351 1_455
F10 K1 3.119335 1_545
F11 P4 1.578935 1_655
F11 K0 3.314246 1_565
