# generated using pymatgen
data_Ba4Sr4CoCu7O24
_symmetry_space_group_name_H-M   'P 1'
_cell_length_a   7.91666219
_cell_length_b   7.91666219
_cell_length_c   7.92090246
_cell_angle_alpha   89.93417752
_cell_angle_beta   89.93417752
_cell_angle_gamma   90.00985648
_symmetry_Int_Tables_number   1
_chemical_formula_structural   Ba4Sr4CoCu7O24
_chemical_formula_sum   'Ba4 Sr4 Co1 Cu7 O24'
_cell_volume   496.43033640
_cell_formula_units_Z   1
loop_
 _symmetry_equiv_pos_site_id
 _symmetry_equiv_pos_as_xyz
  1  'x, y, z'
loop_
 _atom_site_type_symbol
 _atom_site_label
 _atom_site_symmetry_multiplicity
 _atom_site_fract_x
 _atom_site_fract_y
 _atom_site_fract_z
 _atom_site_occupancy
  Ba  Ba0  1  0.25104400  0.74913100  0.75128500  1
  Ba  Ba1  1  0.25113600  0.25113600  0.75151600  1
  Ba  Ba2  1  0.74887100  0.74887100  0.24879200  1
  Ba  Ba3  1  0.74913100  0.25104400  0.75128500  1
  Sr  Sr0  1  0.25204700  0.74759400  0.24788300  1
  Sr  Sr1  1  0.25222700  0.25222700  0.24806800  1
  Sr  Sr2  1  0.74759400  0.25204700  0.24788300  1
  Sr  Sr3  1  0.74794900  0.74794900  0.75201500  1
  Co  Co0  1  0.00004900  0.00004900  0.49702400  1
  Cu  Cu0  1  0.99991800  0.50007000  0.00037700  1
  Cu  Cu1  1  0.99991500  0.99991500  0.99989000  1
  Cu  Cu2  1  0.99997200  0.50016000  0.49935100  1
  Cu  Cu3  1  0.49999100  0.49999100  0.00045100  1
  Cu  Cu4  1  0.50007000  0.99991800  0.00037700  1
  Cu  Cu5  1  0.50004700  0.50004700  0.49979500  1
  Cu  Cu6  1  0.50016000  0.99997200  0.49935100  1
  O  O0  1  0.24999100  0.50007200  0.01219500  1
  O  O1  1  0.24901200  0.99978600  0.01236600  1
  O  O2  1  0.24913500  0.50015700  0.48773100  1
  O  O3  1  0.24368600  0.99989600  0.49099100  1
  O  O4  1  0.75001900  0.49975800  0.00162600  1
  O  O5  1  0.75093900  0.00026600  0.00143200  1
  O  O6  1  0.75089500  0.49978200  0.49844000  1
  O  O7  1  0.75640400  0.00012400  0.49846500  1
  O  O8  1  0.00515600  0.49464600  0.25083400  1
  O  O9  1  0.00356300  0.00356300  0.25563300  1
  O  O10  1  0.99436200  0.50576700  0.74905700  1
  O  O11  1  0.99597400  0.99597400  0.74276300  1
  O  O12  1  0.49484700  0.49484700  0.24995500  1
  O  O13  1  0.49464600  0.00515600  0.25083400  1
  O  O14  1  0.50564200  0.50564200  0.75003200  1
  O  O15  1  0.50576700  0.99436200  0.74905700  1
  O  O16  1  0.00026600  0.75093900  0.00143200  1
  O  O17  1  0.99978600  0.24901200  0.01236600  1
  O  O18  1  0.00012400  0.75640400  0.49846500  1
  O  O19  1  0.99989600  0.24368600  0.49099100  1
  O  O20  1  0.49975800  0.75001900  0.00162600  1
  O  O21  1  0.50007200  0.24999100  0.01219500  1
  O  O22  1  0.49978200  0.75089500  0.49844000  1
  O  O23  1  0.50015700  0.24913500  0.48773100  1
loop_
_geom_bond_atom_site_label_1
_geom_bond_atom_site_label_2
_geom_bond_distance
_geom_bond_site_symmetry_2
Ba0 O14 2.789204 1_555
Ba0 O20 2.796059 1_556
Ba0 O15 2.798996 1_555
Ba0 O10 2.800057 1_455
Ba0 O16 2.803331 1_556
Ba0 O22 2.807091 1_555
Ba0 O11 2.811103 1_455
Ba0 O18 2.822847 1_555
Ba0 O0 2.854704 1_556
Ba0 O3 2.861167 1_555
Ba0 O1 2.867731 1_556
Ba0 O2 2.872763 1_555
Ba1 O14 2.849171 1_555
Ba1 O21 2.855989 1_556
Ba1 O0 2.855989 1_556
Ba1 O11 2.857464 1_445
Ba1 O15 2.863145 1_545
Ba1 O10 2.863145 1_455
Ba1 O17 2.866934 1_456
Ba1 O1 2.866934 1_546
Ba1 O19 2.868382 1_455
Ba1 O3 2.868382 1_545
Ba1 O2 2.871064 1_555
Ba1 O23 2.871064 1_555
Ba2 O20 2.780497 1_555
Ba2 O4 2.780497 1_555
Ba2 O22 2.791100 1_555
Ba2 O6 2.791100 1_555
Ba2 O5 2.791249 1_565
Ba2 O16 2.791249 1_655
Ba2 O7 2.807192 1_565
Ba2 O18 2.807192 1_655
Ba2 O12 2.843770 1_555
Ba2 O9 2.851851 1_665
Ba2 O8 2.858112 1_655
Ba2 O13 2.858112 1_565
Ba3 O14 2.789204 1_555
Ba3 O4 2.796059 1_556
Ba3 O10 2.798996 1_555
Ba3 O15 2.800057 1_545
Ba3 O5 2.803331 1_556
Ba3 O6 2.807091 1_555
Ba3 O11 2.811103 1_545
Ba3 O7 2.822847 1_555
Ba3 O21 2.854704 1_556
Ba3 O19 2.861167 1_555
Ba3 O17 2.867731 1_556
Ba3 O23 2.872763 1_555
Co0 O9 1.912375 1_555
Co0 O7 1.928876 1_455
Co0 O18 1.928876 1_545
Co0 O3 1.929329 1_545
Co0 O19 1.929329 1_455
Co0 O11 1.946935 1_445
Cu0 O4 1.978380 1_555
Cu0 O0 1.982063 1_655
Cu0 O8 1.984742 1_655
Cu0 O16 1.986074 1_655
Cu0 O17 1.989700 1_555
Cu0 O10 1.991677 1_554
Cu1 O5 1.971085 1_566
Cu1 O16 1.971085 1_656
Cu1 O17 1.974605 1_566
Cu1 O1 1.974605 1_656
Cu1 O9 2.026193 1_666
Cu1 O11 2.037227 1_555
Cu2 O8 1.969394 1_655
Cu2 O6 1.971882 1_555
Cu2 O2 1.974580 1_655
Cu2 O10 1.978893 1_555
Cu2 O18 2.028601 1_655
Cu2 O19 2.031574 1_555
Cu3 O12 1.977042 1_555
Cu3 O20 1.979421 1_555
Cu3 O4 1.979421 1_555
Cu3 O0 1.981244 1_555
Cu3 O21 1.981244 1_555
Cu3 O14 1.984450 1_554
Cu4 O20 1.978380 1_555
Cu4 O21 1.982063 1_565
Cu4 O13 1.984742 1_565
Cu4 O5 1.986074 1_565
Cu4 O1 1.989700 1_555
Cu4 O15 1.991677 1_554
Cu5 O12 1.979909 1_555
Cu5 O14 1.983194 1_555
Cu5 O22 1.985897 1_555
Cu5 O6 1.985897 1_555
Cu5 O2 1.988793 1_555
Cu5 O23 1.988793 1_555
Cu6 O13 1.969394 1_565
Cu6 O22 1.971882 1_555
Cu6 O23 1.974580 1_565
Cu6 O15 1.978893 1_555
Cu6 O7 2.028601 1_565
Cu6 O3 2.031574 1_555
O0 Sr1 2.707855 1_555
O0 Sr0 2.708086 1_555
O1 Sr0 2.730997 1_555
O1 Sr1 2.736578 1_565
O2 Sr0 2.727333 1_555
O2 Sr1 2.732268 1_555
O3 Sr1 2.772779 1_565
O3 Sr0 2.776798 1_555
O4 Sr2 2.764404 1_555
O4 Sr3 2.785883 1_554
O5 Sr2 2.791666 1_555
O5 Sr3 2.811189 1_544
O6 Sr2 2.791944 1_555
O6 Sr3 2.811339 1_555
O7 Sr2 2.813058 1_555
O7 Sr3 2.830885 1_545
O8 Sr1 2.740575 1_555
O8 Sr0 2.798086 1_555
O8 Sr2 2.801012 1_455
O9 Sr1 2.784313 1_555
O9 Sr2 2.825112 1_455
O9 Sr0 2.825112 1_545
O10 Sr3 2.735556 1_555
O11 Sr3 2.777460 1_555
O12 Sr1 2.716169 1_555
O12 Sr2 2.774880 1_555
O12 Sr0 2.774880 1_555
O13 Sr1 2.740575 1_555
O13 Sr2 2.798086 1_555
O13 Sr0 2.801012 1_545
O14 Sr3 2.712671 1_555
O15 Sr3 2.735556 1_555
O16 Sr0 2.791666 1_555
O16 Sr3 2.811189 1_454
O17 Sr2 2.730997 1_555
O17 Sr1 2.736578 1_655
O18 Sr0 2.813058 1_555
O18 Sr3 2.830885 1_455
O19 Sr1 2.772779 1_655
O19 Sr2 2.776798 1_555
O20 Sr0 2.764404 1_555
O20 Sr3 2.785883 1_554
O21 Sr1 2.707855 1_555
O21 Sr2 2.708086 1_555
O22 Sr0 2.791944 1_555
O22 Sr3 2.811339 1_555
O23 Sr2 2.727333 1_555
O23 Sr1 2.732268 1_555
