# generated using pymatgen
data_V2Zn(PO4)2
_symmetry_space_group_name_H-M   'P 1'
_cell_length_a   8.61456401
_cell_length_b   8.61456401
_cell_length_c   17.50207394
_cell_angle_alpha   64.14722417
_cell_angle_beta   64.14722417
_cell_angle_gamma   32.29055955
_symmetry_Int_Tables_number   1
_chemical_formula_structural   V2Zn(PO4)2
_chemical_formula_sum   'V8 Zn4 P8 O32'
_cell_volume   618.24116157
_cell_formula_units_Z   4
loop_
 _symmetry_equiv_pos_site_id
 _symmetry_equiv_pos_as_xyz
  1  'x, y, z'
loop_
 _atom_site_type_symbol
 _atom_site_label
 _atom_site_symmetry_multiplicity
 _atom_site_fract_x
 _atom_site_fract_y
 _atom_site_fract_z
 _atom_site_occupancy
  V  V0  1  0.37285300  0.80972500  0.53439000  1
  V  V1  1  0.19027500  0.62714700  0.96561000  1
  V  V2  1  0.62714700  0.19027500  0.46561000  1
  V  V3  1  0.00000000  0.50000000  0.50000000  1
  V  V4  1  0.80972500  0.37285300  0.03439000  1
  V  V5  1  0.67498300  0.32501700  0.25000000  1
  V  V6  1  0.32501700  0.67498300  0.75000000  1
  V  V7  1  0.50000000  0.00000000  0.00000000  1
  Zn  Zn0  1  0.15451300  0.51440200  0.66185100  1
  Zn  Zn1  1  0.48559800  0.84548700  0.83814900  1
  Zn  Zn2  1  0.51440200  0.15451300  0.16185100  1
  Zn  Zn3  1  0.84548700  0.48559800  0.33814900  1
  P  P0  1  0.50647700  0.93446300  0.63408000  1
  P  P1  1  0.80932200  0.23471700  0.88046700  1
  P  P2  1  0.49352300  0.06553700  0.36592000  1
  P  P3  1  0.23471700  0.80932200  0.38046700  1
  P  P4  1  0.93446300  0.50647700  0.13408000  1
  P  P5  1  0.06553700  0.49352300  0.86592000  1
  P  P6  1  0.19067800  0.76528300  0.11953300  1
  P  P7  1  0.76528300  0.19067800  0.61953300  1
  O  O0  1  0.15353500  0.32392100  0.38768600  1
  O  O1  1  0.56453100  0.27490400  0.58096400  1
  O  O2  1  0.32392100  0.15353500  0.88768600  1
  O  O3  1  0.67494300  0.16266300  0.94630500  1
  O  O4  1  0.62156900  0.82392700  0.44557300  1
  O  O5  1  0.70612100  0.39467500  0.79306000  1
  O  O6  1  0.83733700  0.32505700  0.55369500  1
  O  O7  1  0.92812400  0.15065000  0.37125500  1
  O  O8  1  0.32505700  0.83733700  0.05369500  1
  O  O9  1  0.72509600  0.43546900  0.91903600  1
  O  O10  1  0.59784500  0.15518700  0.35889800  1
  O  O11  1  0.05535100  0.39165800  0.21502100  1
  O  O12  1  0.43546900  0.72509600  0.41903600  1
  O  O13  1  0.15065000  0.92812400  0.87125500  1
  O  O14  1  0.84646500  0.67607900  0.61231400  1
  O  O15  1  0.40215500  0.84481300  0.64110200  1
  O  O16  1  0.39165800  0.05535100  0.71502100  1
  O  O17  1  0.16266300  0.67494300  0.44630500  1
  O  O18  1  0.15518700  0.59784500  0.85889800  1
  O  O19  1  0.94464900  0.60834200  0.78497900  1
  O  O20  1  0.84935000  0.07187600  0.12874500  1
  O  O21  1  0.82392700  0.62156900  0.94557300  1
  O  O22  1  0.07187600  0.84935000  0.62874500  1
  O  O23  1  0.39467500  0.70612100  0.29306000  1
  O  O24  1  0.27490400  0.56453100  0.08096400  1
  O  O25  1  0.67607900  0.84646500  0.11231400  1
  O  O26  1  0.60834200  0.94464900  0.28497900  1
  O  O27  1  0.17607300  0.37843100  0.05442700  1
  O  O28  1  0.37843100  0.17607300  0.55442700  1
  O  O29  1  0.60532500  0.29387900  0.70694000  1
  O  O30  1  0.29387900  0.60532500  0.20694000  1
  O  O31  1  0.84481300  0.40215500  0.14110200  1
loop_
_geom_bond_atom_site_label_1
_geom_bond_atom_site_label_2
_geom_bond_distance
_geom_bond_site_symmetry_2
O0 P2 1.556326 1_555
O0 Zn3 2.106706 1_455
O0 V3 2.203468 1_555
O1 P7 1.562819 1_555
O1 V2 2.137191 1_555
O1 Zn0 2.145308 1_555
O2 P5 1.556326 1_555
O2 Zn1 2.106706 1_545
O2 V7 2.203468 1_556
O3 P1 1.575082 1_555
O3 V1 2.293565 1_555
O3 V7 2.510919 1_556
O3 V1 2.535266 1_645
O4 P2 1.556036 1_565
O4 V3 2.081265 1_655
O4 V0 2.096347 1_555
O5 P1 1.518533 1_555
O5 V6 2.084390 1_555
O6 P7 1.575082 1_555
O6 V0 2.293565 1_555
O6 V3 2.510919 1_655
O6 V0 2.535266 1_645
O7 P3 1.573373 1_645
O7 Zn3 2.144067 1_555
O7 V2 2.197106 1_555
O7 V5 2.689502 1_555
O8 P6 1.575082 1_555
O8 V4 2.293565 1_555
O8 V7 2.510919 1_565
O8 V4 2.535266 1_465
O9 P1 1.562819 1_555
O9 V4 2.137191 1_556
O9 Zn1 2.145308 1_555
O10 P2 1.553551 1_555
O10 V5 2.078912 1_555
O10 V2 2.162365 1_555
O11 P4 1.546862 1_455
O11 Zn3 2.053520 1_455
O11 Zn2 2.338289 1_555
O12 P3 1.562819 1_555
O12 V0 2.137191 1_555
O12 Zn3 2.145308 1_555
O13 P1 1.573373 1_465
O13 Zn1 2.144067 1_555
O13 V1 2.197106 1_555
O13 V6 2.689502 1_555
O14 P0 1.556326 1_555
O14 Zn0 2.106706 1_655
O14 V3 2.203468 1_655
O15 P0 1.553551 1_555
O15 V6 2.078912 1_555
O15 V0 2.162365 1_555
O16 P0 1.546862 1_545
O16 Zn1 2.053520 1_545
O16 Zn0 2.338289 1_555
O17 P3 1.575082 1_555
O17 V2 2.293565 1_555
O17 V3 2.510919 1_555
O17 V2 2.535266 1_465
O18 P5 1.553551 1_555
O18 V6 2.078912 1_555
O18 V1 2.162365 1_555
O19 P5 1.546862 1_655
O19 Zn0 2.053520 1_655
O19 Zn1 2.338289 1_555
O20 P6 1.573373 1_645
O20 Zn2 2.144067 1_555
O20 V4 2.197106 1_555
O20 V5 2.689502 1_555
O21 P5 1.556036 1_655
O21 V7 2.081265 1_566
O21 V4 2.096347 1_556
O22 P7 1.573373 1_465
O22 Zn0 2.144067 1_555
O22 V0 2.197106 1_555
O22 V6 2.689502 1_555
O23 P3 1.518533 1_555
O23 V5 2.084390 1_555
O24 P6 1.562819 1_555
O24 V1 2.137191 1_554
O24 Zn2 2.145308 1_555
O25 P4 1.556326 1_555
O25 Zn2 2.106706 1_565
O25 V7 2.203468 1_565
O26 P2 1.546862 1_565
O26 Zn2 2.053520 1_565
O26 Zn3 2.338289 1_555
O27 P4 1.556036 1_455
O27 V7 2.081265 1_555
O27 V1 2.096347 1_554
O28 P0 1.556036 1_545
O28 V3 2.081265 1_555
O28 V2 2.096347 1_555
O29 P7 1.518533 1_555
O29 V6 2.084390 1_555
O30 P6 1.518533 1_555
O30 V5 2.084390 1_555
O31 P4 1.553551 1_555
O31 V5 2.078912 1_555
O31 V4 2.162365 1_555
