# generated using pymatgen
data_Ca(Al2Fe)4
_symmetry_space_group_name_H-M   'P 1'
_cell_length_a   5.09987300
_cell_length_b   6.70165197
_cell_length_c   6.70165197
_cell_angle_alpha   81.67572578
_cell_angle_beta   67.63573635
_cell_angle_gamma   67.63573635
_symmetry_Int_Tables_number   1
_chemical_formula_structural   Ca(Al2Fe)4
_chemical_formula_sum   'Ca1 Al8 Fe4'
_cell_volume   195.88594606
_cell_formula_units_Z   1
loop_
 _symmetry_equiv_pos_site_id
 _symmetry_equiv_pos_as_xyz
  1  'x, y, z'
loop_
 _atom_site_type_symbol
 _atom_site_label
 _atom_site_symmetry_multiplicity
 _atom_site_fract_x
 _atom_site_fract_y
 _atom_site_fract_z
 _atom_site_occupancy
  Ca  Ca0  1  0.00000000  0.00000000  0.00000000  1
  Al  Al0  1  0.00000000  0.33792900  0.66207100  1
  Al  Al1  1  0.00000000  0.66207100  0.33792900  1
  Al  Al2  1  0.66207100  0.33792900  0.33792900  1
  Al  Al3  1  0.33792900  0.66207100  0.66207100  1
  Al  Al4  1  0.50000000  0.77155300  0.22844700  1
  Al  Al5  1  0.50000000  0.22844700  0.77155300  1
  Al  Al6  1  0.72844700  0.77155300  0.77155300  1
  Al  Al7  1  0.27155300  0.22844700  0.22844700  1
  Fe  Fe0  1  0.00000000  0.00000000  0.50000000  1
  Fe  Fe1  1  0.50000000  0.00000000  0.50000000  1
  Fe  Fe2  1  0.50000000  0.50000000  0.00000000  1
  Fe  Fe3  1  0.00000000  0.50000000  0.00000000  1
loop_
_geom_bond_atom_site_label_1
_geom_bond_atom_site_label_2
_geom_bond_distance
_geom_bond_site_symmetry_2
Ca0 Fe0 3.350826 1_554
Ca0 Fe3 3.350826 1_555
Ca0 Fe3 3.350826 1_545
Ca0 Fe0 3.350826 1_555
Ca0 Fe1 3.350826 1_554
Ca0 Fe2 3.350826 1_545
Ca0 Fe2 3.350826 1_455
Ca0 Fe1 3.350826 1_455
Al0 Fe0 2.649665 1_555
Al0 Fe3 2.649665 1_556
Al0 Fe1 2.649665 1_555
Al0 Fe2 2.649665 1_456
Al0 Al5 2.724512 1_455
Al0 Al5 2.724512 1_555
Al0 Al7 2.771752 1_555
Al0 Al6 2.771752 1_455
Al0 Al1 2.841007 1_555
Al0 Ca0 2.961846 1_556
Al1 Fe3 2.649665 1_555
Al1 Fe0 2.649665 1_565
Al1 Fe2 2.649665 1_555
Al1 Fe1 2.649665 1_465
Al1 Al4 2.724512 1_455
Al1 Al4 2.724512 1_555
Al1 Al7 2.771752 1_555
Al1 Al6 2.771752 1_455
Al1 Ca0 2.961846 1_565
Al2 Fe2 2.649665 1_555
Al2 Fe1 2.649665 1_555
Al2 Fe0 2.649665 1_655
Al2 Fe3 2.649665 1_655
Al2 Al7 2.724512 1_555
Al2 Al7 2.724512 1_655
Al2 Al4 2.771752 1_555
Al2 Al5 2.771752 1_555
Al2 Al3 2.841007 1_555
Al2 Ca0 2.961846 1_655
Al3 Fe1 2.649665 1_565
Al3 Fe2 2.649665 1_556
Al3 Fe0 2.649665 1_565
Al3 Fe3 2.649665 1_556
Al3 Al6 2.724512 1_555
Al3 Al6 2.724512 1_455
Al3 Al4 2.771752 1_555
Al3 Al5 2.771752 1_555
Al3 Ca0 2.961846 1_566
Al4 Fe1 2.542140 1_565
Al4 Fe2 2.542140 1_555
Al4 Fe0 2.542140 1_565
Al4 Fe3 2.542140 1_655
Al4 Al7 2.831636 1_565
Al4 Al6 2.831636 1_554
Al4 Ca0 3.242107 1_565
Al4 Ca0 3.242107 1_665
Al5 Fe2 2.542140 1_556
Al5 Fe1 2.542140 1_555
Al5 Fe0 2.542140 1_655
Al5 Fe3 2.542140 1_556
Al5 Al6 2.831636 1_545
Al5 Al7 2.831636 1_556
Al5 Ca0 3.242107 1_656
Al5 Ca0 3.242107 1_556
Al6 Fe2 2.542140 1_556
Al6 Fe1 2.542140 1_565
Al6 Fe3 2.542140 1_656
Al6 Fe0 2.542140 1_665
Al6 Ca0 3.242107 1_666
Al6 Ca0 3.242107 1_566
Al7 Fe2 2.542140 1_555
Al7 Fe1 2.542140 1_555
Al7 Fe3 2.542140 1_555
Al7 Fe0 2.542140 1_555
Al7 Ca0 3.242107 1_555
Al7 Ca0 3.242107 1_655
Fe0 Fe1 2.549936 1_555
Fe0 Fe1 2.549936 1_455
Fe2 Fe3 2.549936 1_555
Fe2 Fe3 2.549936 1_655
