# generated using pymatgen
data_Mg3C2O7
_symmetry_space_group_name_H-M   'P 1'
_cell_length_a   7.51082030
_cell_length_b   7.51082030
_cell_length_c   7.51082030
_cell_angle_alpha   107.09496488
_cell_angle_beta   107.09496488
_cell_angle_gamma   114.33602590
_symmetry_Int_Tables_number   1
_chemical_formula_structural   Mg3C2O7
_chemical_formula_sum   'Mg6 C4 O14'
_cell_volume   324.38822583
_cell_formula_units_Z   2
loop_
 _symmetry_equiv_pos_site_id
 _symmetry_equiv_pos_as_xyz
  1  'x, y, z'
loop_
 _atom_site_type_symbol
 _atom_site_label
 _atom_site_symmetry_multiplicity
 _atom_site_fract_x
 _atom_site_fract_y
 _atom_site_fract_z
 _atom_site_occupancy
  Mg  Mg0  1  0.78272600  0.50000000  0.28272600  1
  Mg  Mg1  1  0.50000000  0.21727400  0.71727400  1
  Mg  Mg2  1  0.25000000  0.75000000  0.50000000  1
  Mg  Mg3  1  0.50000000  0.78272600  0.28272600  1
  Mg  Mg4  1  0.21727400  0.50000000  0.71727400  1
  Mg  Mg5  1  0.75000000  0.25000000  0.50000000  1
  C  C0  1  0.45876100  0.45876100  0.47824600  1
  C  C1  1  0.98051500  0.98051500  0.52175400  1
  C  C2  1  0.54123900  0.01948500  0.00000000  1
  C  C3  1  0.01948500  0.54123900  0.00000000  1
  O  O0  1  0.38796000  0.56550500  0.40595800  1
  O  O1  1  0.56550500  0.38796000  0.40595800  1
  O  O2  1  0.41962000  0.41962000  0.62725900  1
  O  O3  1  0.15954700  0.98200200  0.59404200  1
  O  O4  1  0.98200200  0.15954700  0.59404200  1
  O  O5  1  0.79236000  0.79236000  0.37274100  1
  O  O6  1  0.61204000  0.01799800  0.17754500  1
  O  O7  1  0.43449500  0.84045300  0.82245500  1
  O  O8  1  0.58038000  0.20764000  0.00000000  1
  O  O9  1  0.84045300  0.43449500  0.82245500  1
  O  O10  1  0.01799800  0.61204000  0.17754500  1
  O  O11  1  0.20764000  0.58038000  0.00000000  1
  O  O12  1  0.50000000  0.00000000  0.50000000  1
  O  O13  1  0.00000000  0.50000000  0.50000000  1
loop_
_geom_bond_atom_site_label_1
_geom_bond_atom_site_label_2
_geom_bond_distance
_geom_bond_site_symmetry_2
Mg0 O13 1.939215 1_655
Mg0 O8 2.061945 1_555
Mg0 O5 2.061945 1_555
Mg0 O10 2.107325 1_655
Mg0 O1 2.107325 1_555
Mg1 O12 1.939215 1_555
Mg1 O8 2.061945 1_556
Mg1 O2 2.061949 1_555
Mg1 O9 2.107325 1_555
Mg1 O3 2.107325 1_545
Mg2 O12 2.036099 1_565
Mg2 O13 2.036099 1_555
Mg2 O0 2.128626 1_555
Mg2 O7 2.128626 1_555
Mg2 O10 2.128626 1_555
Mg2 O3 2.128626 1_555
Mg3 O12 1.939215 1_565
Mg3 O11 2.061945 1_555
Mg3 O5 2.061945 1_555
Mg3 O6 2.107325 1_565
Mg3 O0 2.107325 1_555
Mg4 O13 1.939215 1_555
Mg4 O11 2.061945 1_556
Mg4 O2 2.061949 1_555
Mg4 O4 2.107325 1_455
Mg4 O7 2.107325 1_555
Mg5 O13 2.036099 1_655
Mg5 O12 2.036099 1_555
Mg5 O4 2.128626 1_555
Mg5 O6 2.128626 1_555
Mg5 O9 2.128626 1_555
Mg5 O1 2.128626 1_555
C0 O1 1.287595 1_555
C0 O0 1.287595 1_555
C0 O2 1.319518 1_555
C1 O4 1.287595 1_565
C1 O3 1.287595 1_655
C1 O5 1.319524 1_555
C2 O7 1.287595 1_544
C2 O6 1.287595 1_555
C2 O8 1.319526 1_555
C3 O9 1.287595 1_454
C3 O10 1.287595 1_555
C3 O11 1.319526 1_555
