# generated using pymatgen
data_CsGdZnTe3
_symmetry_space_group_name_H-M   'P 1'
_cell_length_a   8.81111436
_cell_length_b   8.81111436
_cell_length_c   11.81492048
_cell_angle_alpha   90.00000000
_cell_angle_beta   90.00000000
_cell_angle_gamma   150.75235696
_symmetry_Int_Tables_number   1
_chemical_formula_structural   CsGdZnTe3
_chemical_formula_sum   'Cs2 Gd2 Zn2 Te6'
_cell_volume   448.15982173
_cell_formula_units_Z   2
loop_
 _symmetry_equiv_pos_site_id
 _symmetry_equiv_pos_as_xyz
  1  'x, y, z'
loop_
 _atom_site_type_symbol
 _atom_site_label
 _atom_site_symmetry_multiplicity
 _atom_site_fract_x
 _atom_site_fract_y
 _atom_site_fract_z
 _atom_site_occupancy
  Cs  Cs0  1  0.25537693  0.74462307  0.25000000  1
  Cs  Cs1  1  0.74462307  0.25537693  0.75000000  1
  Gd  Gd0  1  -0.00000000  0.00000000  0.50000000  1
  Gd  Gd1  1  -0.00000000  0.00000000  0.00000000  1
  Zn  Zn0  1  0.53911487  0.46088513  0.25000000  1
  Zn  Zn1  1  0.46088513  0.53911487  0.75000000  1
  Te  Te0  1  0.62106090  0.37893910  0.43943201  1
  Te  Te1  1  0.37893910  0.62106090  0.56056799  1
  Te  Te2  1  0.62106090  0.37893910  0.06056799  1
  Te  Te3  1  0.37893910  0.62106090  0.93943201  1
  Te  Te4  1  0.94274853  0.05725147  0.25000000  1
  Te  Te5  1  0.05725147  0.94274853  0.75000000  1
loop_
_geom_bond_atom_site_label_1
_geom_bond_atom_site_label_2
_geom_bond_distance
_geom_bond_site_symmetry_2
Cs0 Te4 3.893107 1_455
Cs0 Te4 3.893107 1_565
Cs0 Te2 3.899126 1_565
Cs0 Te2 3.899126 1_455
Cs0 Te0 3.899126 1_565
Cs0 Te0 3.899126 1_455
Cs0 Te1 4.231201 1_555
Cs0 Te3 4.231201 1_554
Cs1 Te5 3.893107 1_545
Cs1 Te5 3.893107 1_655
Cs1 Te1 3.899126 1_545
Cs1 Te3 3.899126 1_545
Cs1 Te3 3.899126 1_655
Cs1 Te1 3.899126 1_655
Cs1 Te2 4.231201 1_556
Cs1 Te0 4.231201 1_555
Gd0 Te5 3.110871 1_545
Gd0 Te4 3.110871 1_455
Gd0 Te0 3.117993 1_555
Gd0 Te1 3.117993 1_445
Gd0 Te0 3.117993 1_445
Gd0 Te1 3.117993 1_555
Gd1 Te5 3.110871 1_544
Gd1 Te4 3.110871 1_455
Gd1 Te2 3.117993 1_445
Gd1 Te2 3.117993 1_555
Gd1 Te3 3.117993 1_444
Gd1 Te3 3.117993 1_554
Te0 Zn0 2.638488 1_555
Te1 Zn1 2.638488 1_555
Te2 Zn0 2.638488 1_555
Te3 Zn1 2.638488 1_555
Te4 Zn0 2.765625 1_545
Te4 Zn0 2.765625 1_655
Te5 Zn1 2.765625 1_455
Te5 Zn1 2.765625 1_565
