# generated using pymatgen
data_Eu2MgSe4
_symmetry_space_group_name_H-M   'P 1'
_cell_length_a   16.91409320
_cell_length_b   16.91383582
_cell_length_c   16.91383582
_cell_angle_alpha   60.00100678
_cell_angle_beta   59.99949661
_cell_angle_gamma   59.99949661
_symmetry_Int_Tables_number   1
_chemical_formula_structural   Eu2MgSe4
_chemical_formula_sum   'Eu32 Mg16 Se64'
_cell_volume   3421.51101432
_cell_formula_units_Z   16
loop_
 _symmetry_equiv_pos_site_id
 _symmetry_equiv_pos_as_xyz
  1  'x, y, z'
loop_
 _atom_site_type_symbol
 _atom_site_label
 _atom_site_symmetry_multiplicity
 _atom_site_fract_x
 _atom_site_fract_y
 _atom_site_fract_z
 _atom_site_occupancy
  Eu  Eu0  1  0.31250000  0.06250000  0.31250000  1
  Eu  Eu1  1  0.31250000  0.06250000  0.81250000  1
  Eu  Eu2  1  0.31250000  0.56250000  0.31250000  1
  Eu  Eu3  1  0.31250000  0.56250000  0.81250000  1
  Eu  Eu4  1  0.81250000  0.06250000  0.31250000  1
  Eu  Eu5  1  0.81250000  0.06250000  0.81250000  1
  Eu  Eu6  1  0.81250000  0.56250000  0.31250000  1
  Eu  Eu7  1  0.81250000  0.56250000  0.81250000  1
  Eu  Eu8  1  0.31250000  0.31250000  0.06250000  1
  Eu  Eu9  1  0.31250000  0.31250000  0.56250000  1
  Eu  Eu10  1  0.31250000  0.81250000  0.06250000  1
  Eu  Eu11  1  0.31250000  0.81250000  0.56250000  1
  Eu  Eu12  1  0.81250000  0.31250000  0.06250000  1
  Eu  Eu13  1  0.81250000  0.31250000  0.56250000  1
  Eu  Eu14  1  0.81250000  0.81250000  0.06250000  1
  Eu  Eu15  1  0.81250000  0.81250000  0.56250000  1
  Eu  Eu16  1  0.06250000  0.31250000  0.31250000  1
  Eu  Eu17  1  0.06250000  0.31250000  0.81250000  1
  Eu  Eu18  1  0.06250000  0.81250000  0.31250000  1
  Eu  Eu19  1  0.06250000  0.81250000  0.81250000  1
  Eu  Eu20  1  0.56250000  0.31250000  0.31250000  1
  Eu  Eu21  1  0.56250000  0.31250000  0.81250000  1
  Eu  Eu22  1  0.56250000  0.81250000  0.31250000  1
  Eu  Eu23  1  0.56250000  0.81250000  0.81250000  1
  Eu  Eu24  1  0.31250000  0.31250000  0.31250000  1
  Eu  Eu25  1  0.31250000  0.31250000  0.81250000  1
  Eu  Eu26  1  0.31250000  0.81250000  0.31250000  1
  Eu  Eu27  1  0.31250000  0.81250000  0.81250000  1
  Eu  Eu28  1  0.81250000  0.31250000  0.31250000  1
  Eu  Eu29  1  0.81250000  0.31250000  0.81250000  1
  Eu  Eu30  1  0.81250000  0.81250000  0.31250000  1
  Eu  Eu31  1  0.81250000  0.81250000  0.81250000  1
  Mg  Mg0  1  0.00000000  0.00000000  0.00000000  1
  Mg  Mg1  1  0.00000000  0.00000000  0.50000000  1
  Mg  Mg2  1  0.00000000  0.50000000  0.00000000  1
  Mg  Mg3  1  0.00000000  0.50000000  0.50000000  1
  Mg  Mg4  1  0.50000000  0.00000000  0.00000000  1
  Mg  Mg5  1  0.50000000  0.00000000  0.50000000  1
  Mg  Mg6  1  0.50000000  0.50000000  0.00000000  1
  Mg  Mg7  1  0.50000000  0.50000000  0.50000000  1
  Mg  Mg8  1  0.12500000  0.12500000  0.12500000  1
  Mg  Mg9  1  0.12500000  0.12500000  0.62500000  1
  Mg  Mg10  1  0.12500000  0.62500000  0.12500000  1
  Mg  Mg11  1  0.12500000  0.62500000  0.62500000  1
  Mg  Mg12  1  0.62500000  0.12500000  0.12500000  1
  Mg  Mg13  1  0.62500000  0.12500000  0.62500000  1
  Mg  Mg14  1  0.62500000  0.62500000  0.12500000  1
  Mg  Mg15  1  0.62500000  0.62500000  0.62500000  1
  Se  Se0  1  0.18868200  0.18868100  0.18868100  1
  Se  Se1  1  0.18868200  0.18868100  0.68868100  1
  Se  Se2  1  0.18868200  0.68868100  0.18868100  1
  Se  Se3  1  0.18868200  0.68868100  0.68868100  1
  Se  Se4  1  0.68868200  0.18868100  0.18868100  1
  Se  Se5  1  0.68868200  0.18868100  0.68868100  1
  Se  Se6  1  0.68868200  0.68868100  0.18868100  1
  Se  Se7  1  0.68868200  0.68868100  0.68868100  1
  Se  Se8  1  0.43395500  0.18868100  0.18868100  1
  Se  Se9  1  0.43395500  0.18868100  0.68868100  1
  Se  Se10  1  0.43395500  0.68868100  0.18868100  1
  Se  Se11  1  0.43395500  0.68868100  0.68868100  1
  Se  Se12  1  0.93395500  0.18868100  0.18868100  1
  Se  Se13  1  0.93395500  0.18868100  0.68868100  1
  Se  Se14  1  0.93395500  0.68868100  0.18868100  1
  Se  Se15  1  0.93395500  0.68868100  0.68868100  1
  Se  Se16  1  0.18868100  0.43395500  0.18868200  1
  Se  Se17  1  0.18868100  0.43395500  0.68868200  1
  Se  Se18  1  0.18868100  0.93395500  0.18868200  1
  Se  Se19  1  0.18868100  0.93395500  0.68868200  1
  Se  Se20  1  0.68868100  0.43395500  0.18868200  1
  Se  Se21  1  0.68868100  0.43395500  0.68868200  1
  Se  Se22  1  0.68868100  0.93395500  0.18868200  1
  Se  Se23  1  0.68868100  0.93395500  0.68868200  1
  Se  Se24  1  0.18868100  0.18868200  0.43395500  1
  Se  Se25  1  0.18868100  0.18868200  0.93395500  1
  Se  Se26  1  0.18868100  0.68868200  0.43395500  1
  Se  Se27  1  0.18868100  0.68868200  0.93395500  1
  Se  Se28  1  0.68868100  0.18868200  0.43395500  1
  Se  Se29  1  0.68868100  0.18868200  0.93395500  1
  Se  Se30  1  0.68868100  0.68868200  0.43395500  1
  Se  Se31  1  0.68868100  0.68868200  0.93395500  1
  Se  Se32  1  0.43631900  0.43631800  0.19104500  1
  Se  Se33  1  0.43631900  0.43631800  0.69104500  1
  Se  Se34  1  0.43631900  0.93631800  0.19104500  1
  Se  Se35  1  0.43631900  0.93631800  0.69104500  1
  Se  Se36  1  0.93631900  0.43631800  0.19104500  1
  Se  Se37  1  0.93631900  0.43631800  0.69104500  1
  Se  Se38  1  0.93631900  0.93631800  0.19104500  1
  Se  Se39  1  0.93631900  0.93631800  0.69104500  1
  Se  Se40  1  0.43631900  0.19104500  0.43631800  1
  Se  Se41  1  0.43631900  0.19104500  0.93631800  1
  Se  Se42  1  0.43631900  0.69104500  0.43631800  1
  Se  Se43  1  0.43631900  0.69104500  0.93631800  1
  Se  Se44  1  0.93631900  0.19104500  0.43631800  1
  Se  Se45  1  0.93631900  0.19104500  0.93631800  1
  Se  Se46  1  0.93631900  0.69104500  0.43631800  1
  Se  Se47  1  0.93631900  0.69104500  0.93631800  1
  Se  Se48  1  0.19104500  0.43631900  0.43631900  1
  Se  Se49  1  0.19104500  0.43631900  0.93631900  1
  Se  Se50  1  0.19104500  0.93631900  0.43631900  1
  Se  Se51  1  0.19104500  0.93631900  0.93631900  1
  Se  Se52  1  0.69104500  0.43631900  0.43631900  1
  Se  Se53  1  0.69104500  0.43631900  0.93631900  1
  Se  Se54  1  0.69104500  0.93631900  0.43631900  1
  Se  Se55  1  0.69104500  0.93631900  0.93631900  1
  Se  Se56  1  0.43631800  0.43631900  0.43631900  1
  Se  Se57  1  0.43631800  0.43631900  0.93631900  1
  Se  Se58  1  0.43631800  0.93631900  0.43631900  1
  Se  Se59  1  0.43631800  0.93631900  0.93631900  1
  Se  Se60  1  0.93631800  0.43631900  0.43631900  1
  Se  Se61  1  0.93631800  0.43631900  0.93631900  1
  Se  Se62  1  0.93631800  0.93631900  0.43631900  1
  Se  Se63  1  0.93631800  0.93631900  0.93631900  1
loop_
_geom_bond_atom_site_label_1
_geom_bond_atom_site_label_2
_geom_bond_distance
_geom_bond_site_symmetry_2
Eu0 Se24 2.961936 1_555
Eu0 Se34 2.961936 1_545
Eu0 Se8 2.962014 1_555
Eu0 Se50 2.962014 1_545
Eu0 Se58 2.962025 1_545
Eu0 Se0 2.962025 1_555
Eu1 Se25 2.961936 1_555
Eu1 Se35 2.961936 1_545
Eu1 Se9 2.962014 1_555
Eu1 Se51 2.962014 1_545
Eu1 Se59 2.962025 1_545
Eu1 Se1 2.962025 1_555
Eu2 Se26 2.961936 1_555
Eu2 Se32 2.961936 1_555
Eu2 Se10 2.962014 1_555
Eu2 Se48 2.962014 1_555
Eu2 Se56 2.962025 1_555
Eu2 Se2 2.962025 1_555
Eu3 Se27 2.961936 1_555
Eu3 Se33 2.961936 1_555
Eu3 Se11 2.962014 1_555
Eu3 Se49 2.962014 1_555
Eu3 Se57 2.962025 1_555
Eu3 Se3 2.962025 1_555
Eu4 Se28 2.961936 1_555
Eu4 Se38 2.961936 1_545
Eu4 Se54 2.962014 1_545
Eu4 Se12 2.962014 1_555
Eu4 Se4 2.962025 1_555
Eu4 Se62 2.962025 1_545
Eu5 Se29 2.961936 1_555
Eu5 Se39 2.961936 1_545
Eu5 Se55 2.962014 1_545
Eu5 Se13 2.962014 1_555
Eu5 Se63 2.962025 1_545
Eu5 Se5 2.962025 1_555
Eu6 Se30 2.961936 1_555
Eu6 Se36 2.961936 1_555
Eu6 Se14 2.962014 1_555
Eu6 Se52 2.962014 1_555
Eu6 Se6 2.962025 1_555
Eu6 Se60 2.962025 1_555
Eu7 Se37 2.961936 1_555
Eu7 Se31 2.961936 1_555
Eu7 Se53 2.962014 1_555
Eu7 Se15 2.962014 1_555
Eu7 Se61 2.962025 1_555
Eu7 Se7 2.962025 1_555
Eu8 Se16 2.961936 1_555
Eu8 Se41 2.961936 1_554
Eu8 Se8 2.962014 1_555
Eu8 Se49 2.962014 1_554
Eu8 Se0 2.962025 1_555
Eu8 Se57 2.962025 1_554
Eu9 Se17 2.961936 1_555
Eu9 Se40 2.961936 1_555
Eu9 Se9 2.962014 1_555
Eu9 Se48 2.962014 1_555
Eu9 Se56 2.962025 1_555
Eu9 Se1 2.962025 1_555
Eu10 Se18 2.961936 1_555
Eu10 Se43 2.961936 1_554
Eu10 Se10 2.962014 1_555
Eu10 Se51 2.962014 1_554
Eu10 Se2 2.962025 1_555
Eu10 Se59 2.962025 1_554
Eu11 Se19 2.961936 1_555
Eu11 Se42 2.961936 1_555
Eu11 Se11 2.962014 1_555
Eu11 Se50 2.962014 1_555
Eu11 Se3 2.962025 1_555
Eu11 Se58 2.962025 1_555
Eu12 Se20 2.961936 1_555
Eu12 Se45 2.961936 1_554
Eu12 Se53 2.962014 1_554
Eu12 Se12 2.962014 1_555
Eu12 Se61 2.962025 1_554
Eu12 Se4 2.962025 1_555
Eu13 Se21 2.961936 1_555
Eu13 Se44 2.961936 1_555
Eu13 Se52 2.962014 1_555
Eu13 Se13 2.962014 1_555
Eu13 Se5 2.962025 1_555
Eu13 Se60 2.962025 1_555
Eu14 Se22 2.961936 1_555
Eu14 Se47 2.961936 1_554
Eu14 Se14 2.962014 1_555
Eu14 Se55 2.962014 1_554
Eu14 Se6 2.962025 1_555
Eu14 Se63 2.962025 1_554
Eu15 Se23 2.961936 1_555
Eu15 Se46 2.961936 1_555
Eu15 Se54 2.962014 1_555
Eu15 Se15 2.962014 1_555
Eu15 Se7 2.962025 1_555
Eu15 Se62 2.962025 1_555
Eu16 Se0 2.961947 1_555
Eu16 Se60 2.961947 1_455
Eu16 Se16 2.962014 1_555
Eu16 Se24 2.962014 1_555
Eu16 Se36 2.962014 1_455
Eu16 Se44 2.962014 1_455
Eu17 Se61 2.961947 1_455
Eu17 Se1 2.961947 1_555
Eu17 Se17 2.962014 1_555
Eu17 Se25 2.962014 1_555
Eu17 Se37 2.962014 1_455
Eu17 Se45 2.962014 1_455
Eu18 Se2 2.961947 1_555
Eu18 Se62 2.961947 1_455
Eu18 Se46 2.962014 1_455
Eu18 Se18 2.962014 1_555
Eu18 Se38 2.962014 1_455
Eu18 Se26 2.962014 1_555
Eu19 Se3 2.961947 1_555
Eu19 Se63 2.961947 1_455
Eu19 Se19 2.962014 1_555
Eu19 Se47 2.962014 1_455
Eu19 Se39 2.962014 1_455
Eu19 Se27 2.962014 1_555
Eu20 Se56 2.961947 1_555
Eu20 Se4 2.961947 1_555
Eu20 Se20 2.962014 1_555
Eu20 Se40 2.962014 1_555
Eu20 Se28 2.962014 1_555
Eu20 Se32 2.962014 1_555
Eu21 Se57 2.961947 1_555
Eu21 Se5 2.961947 1_555
Eu21 Se21 2.962014 1_555
Eu21 Se41 2.962014 1_555
Eu21 Se29 2.962014 1_555
Eu21 Se33 2.962014 1_555
Eu22 Se6 2.961947 1_555
Eu22 Se58 2.961947 1_555
Eu22 Se22 2.962014 1_555
Eu22 Se42 2.962014 1_555
Eu22 Se30 2.962014 1_555
Eu22 Se34 2.962014 1_555
Eu23 Se7 2.961947 1_555
Eu23 Se59 2.961947 1_555
Eu23 Se23 2.962014 1_555
Eu23 Se43 2.962014 1_555
Eu23 Se31 2.962014 1_555
Eu23 Se35 2.962014 1_555
Eu24 Se48 2.961948 1_555
Eu24 Se8 2.961948 1_555
Eu24 Se40 2.962026 1_555
Eu24 Se24 2.962026 1_555
Eu24 Se16 2.962026 1_555
Eu24 Se32 2.962026 1_555
Eu25 Se9 2.961948 1_555
Eu25 Se49 2.961948 1_555
Eu25 Se41 2.962026 1_555
Eu25 Se33 2.962026 1_555
Eu25 Se17 2.962026 1_555
Eu25 Se25 2.962026 1_555
Eu26 Se50 2.961948 1_555
Eu26 Se10 2.961948 1_555
Eu26 Se34 2.962026 1_555
Eu26 Se26 2.962026 1_555
Eu26 Se18 2.962026 1_555
Eu26 Se42 2.962026 1_555
Eu27 Se11 2.961948 1_555
Eu27 Se51 2.961948 1_555
Eu27 Se19 2.962026 1_555
Eu27 Se27 2.962026 1_555
Eu27 Se43 2.962026 1_555
Eu27 Se35 2.962026 1_555
Eu28 Se52 2.961948 1_555
Eu28 Se12 2.961948 1_555
Eu28 Se36 2.962026 1_555
Eu28 Se44 2.962026 1_555
Eu28 Se28 2.962026 1_555
Eu28 Se20 2.962026 1_555
Eu29 Se53 2.961948 1_555
Eu29 Se13 2.961948 1_555
Eu29 Se29 2.962026 1_555
Eu29 Se45 2.962026 1_555
Eu29 Se37 2.962026 1_555
Eu29 Se21 2.962026 1_555
Eu30 Se14 2.961948 1_555
Eu30 Se54 2.961948 1_555
Eu30 Se22 2.962026 1_555
Eu30 Se46 2.962026 1_555
Eu30 Se38 2.962026 1_555
Eu30 Se30 2.962026 1_555
Eu31 Se55 2.961948 1_555
Eu31 Se15 2.961948 1_555
Eu31 Se23 2.962026 1_555
Eu31 Se31 2.962026 1_555
Eu31 Se39 2.962026 1_555
Eu31 Se47 2.962026 1_555
Mg0 Se63 2.638348 1_444
Mg0 Se45 2.638362 1_454
Mg0 Se38 2.638362 1_445
Mg0 Se51 2.638362 1_544
Mg1 Se62 2.638348 1_445
Mg1 Se44 2.638362 1_455
Mg1 Se39 2.638362 1_445
Mg1 Se50 2.638362 1_545
Mg2 Se61 2.638348 1_454
Mg2 Se36 2.638362 1_455
Mg2 Se47 2.638362 1_454
Mg2 Se49 2.638362 1_554
Mg3 Se60 2.638348 1_455
Mg3 Se46 2.638362 1_455
Mg3 Se37 2.638362 1_455
Mg3 Se48 2.638362 1_555
Mg4 Se59 2.638348 1_544
Mg4 Se34 2.638362 1_545
Mg4 Se41 2.638362 1_554
Mg4 Se55 2.638362 1_544
Mg5 Se58 2.638348 1_545
Mg5 Se40 2.638362 1_555
Mg5 Se35 2.638362 1_545
Mg5 Se54 2.638362 1_545
Mg6 Se57 2.638348 1_554
Mg6 Se43 2.638362 1_554
Mg6 Se32 2.638362 1_555
Mg6 Se53 2.638362 1_554
Mg7 Se56 2.638348 1_555
Mg7 Se42 2.638362 1_555
Mg7 Se33 2.638362 1_555
Mg7 Se52 2.638362 1_555
Mg8 Se0 2.638348 1_555
Mg8 Se18 2.638362 1_545
Mg8 Se25 2.638362 1_554
Mg8 Se12 2.638362 1_455
Mg9 Se1 2.638348 1_555
Mg9 Se19 2.638362 1_545
Mg9 Se24 2.638362 1_555
Mg9 Se13 2.638362 1_455
Mg10 Se2 2.638348 1_555
Mg10 Se16 2.638362 1_555
Mg10 Se27 2.638362 1_554
Mg10 Se14 2.638362 1_455
Mg11 Se3 2.638348 1_555
Mg11 Se17 2.638362 1_555
Mg11 Se26 2.638362 1_555
Mg11 Se15 2.638362 1_455
Mg12 Se4 2.638348 1_555
Mg12 Se29 2.638362 1_554
Mg12 Se22 2.638362 1_545
Mg12 Se8 2.638362 1_555
Mg13 Se5 2.638348 1_555
Mg13 Se23 2.638362 1_545
Mg13 Se28 2.638362 1_555
Mg13 Se9 2.638362 1_555
Mg14 Se6 2.638348 1_555
Mg14 Se20 2.638362 1_555
Mg14 Se31 2.638362 1_554
Mg14 Se10 2.638362 1_555
Mg15 Se7 2.638348 1_555
Mg15 Se21 2.638362 1_555
Mg15 Se30 2.638362 1_555
Mg15 Se11 2.638362 1_555
