# generated using pymatgen
data_BeCuO5F4
_symmetry_space_group_name_H-M   'P 1'
_cell_length_a   6.66938899
_cell_length_b   10.63002138
_cell_length_c   5.30682734
_cell_angle_alpha   95.24423367
_cell_angle_beta   114.89323478
_cell_angle_gamma   102.73691928
_symmetry_Int_Tables_number   1
_chemical_formula_structural   BeCuO5F4
_chemical_formula_sum   'Be2 Cu2 O10 F8'
_cell_volume   325.58500869
_cell_formula_units_Z   2
loop_
 _symmetry_equiv_pos_site_id
 _symmetry_equiv_pos_as_xyz
  1  'x, y, z'
loop_
 _atom_site_type_symbol
 _atom_site_label
 _atom_site_symmetry_multiplicity
 _atom_site_fract_x
 _atom_site_fract_y
 _atom_site_fract_z
 _atom_site_occupancy
  Be  Be0  1  0.97937100  0.72526100  0.58934600  1
  Be  Be1  1  0.02062900  0.27473900  0.41065400  1
  Cu  Cu0  1  0.00000000  0.00000000  0.00000000  1
  Cu  Cu1  1  0.50000000  0.50000000  0.50000000  1
  O  O0  1  0.85262900  0.04845400  0.67413400  1
  O  O1  1  0.14737100  0.95154600  0.32586600  1
  O  O2  1  0.61092200  0.86737700  0.90174600  1
  O  O3  1  0.38907800  0.13262300  0.09825400  1
  O  O4  1  0.54835700  0.54081900  0.95222900  1
  O  O5  1  0.45164200  0.45918100  0.04777100  1
  O  O6  1  0.91496700  0.45432600  0.93182500  1
  O  O7  1  0.08503300  0.54567400  0.06817500  1
  O  O8  1  0.57280600  0.87624400  0.10755900  1
  O  O9  1  0.42719400  0.12375600  0.89244100  1
  F  F0  1  0.05573800  0.86626700  0.80429200  1
  F  F1  1  0.94426200  0.13373300  0.19570800  1
  F  F2  1  0.72187800  0.65265100  0.55737400  1
  F  F3  1  0.27812200  0.34734900  0.44262600  1
  F  F4  1  0.15343300  0.65158800  0.72279000  1
  F  F5  1  0.84656700  0.34841200  0.27721000  1
  F  F6  1  0.94912600  0.75118000  0.29622700  1
  F  F7  1  0.05087400  0.24882000  0.70377300  1
loop_
_geom_bond_atom_site_label_1
_geom_bond_atom_site_label_2
_geom_bond_distance
_geom_bond_site_symmetry_2
Be0 F4 1.507531 1_655
Be0 F6 1.541096 1_555
Be0 F0 1.633701 1_655
Be0 F2 1.649244 1_555
Be1 F5 1.507531 1_455
Be1 F7 1.541096 1_555
Be1 F1 1.633701 1_455
Be1 F3 1.649244 1_555
Cu0 O1 1.782418 1_545
Cu0 O0 1.782418 1_454
Cu0 F0 1.877741 1_544
Cu0 F1 1.877741 1_455
Cu0 O2 2.471112 1_444
Cu0 O3 2.471112 1_555
Cu1 F2 1.840419 1_555
Cu1 F3 1.840419 1_555
Cu1 O5 2.268952 1_555
Cu1 O4 2.268955 1_555
O2 O8 1.221445 1_556
O3 O9 1.221445 1_554
O4 O5 1.239020 1_556
O6 O7 1.203307 1_656
