# generated using pymatgen
data_CaCuP4(RuO7)2
_symmetry_space_group_name_H-M   'P 1'
_cell_length_a   5.01290304
_cell_length_b   6.76010545
_cell_length_c   8.68856367
_cell_angle_alpha   92.06008419
_cell_angle_beta   93.62338655
_cell_angle_gamma   104.28195907
_symmetry_Int_Tables_number   1
_chemical_formula_structural   CaCuP4(RuO7)2
_chemical_formula_sum   'Ca1 Cu1 P4 Ru2 O14'
_cell_volume   284.36092063
_cell_formula_units_Z   1
loop_
 _symmetry_equiv_pos_site_id
 _symmetry_equiv_pos_as_xyz
  1  'x, y, z'
loop_
 _atom_site_type_symbol
 _atom_site_label
 _atom_site_symmetry_multiplicity
 _atom_site_fract_x
 _atom_site_fract_y
 _atom_site_fract_z
 _atom_site_occupancy
  Ca  Ca0  1  0.06013300  0.12874100  0.36426900  1
  Cu  Cu0  1  0.97173000  0.82369600  0.61929600  1
  P  P0  1  0.40217100  0.75607400  0.80893300  1
  P  P1  1  0.59778500  0.28257200  0.16891700  1
  P  P2  1  0.98964600  0.66350500  0.27109500  1
  P  P3  1  0.01410800  0.36284900  0.72381100  1
  Ru  Ru0  1  0.50005700  0.51001200  0.49542800  1
  Ru  Ru1  1  0.99904900  0.01653100  0.98664400  1
  O  O0  1  0.12568700  0.85140600  0.18566200  1
  O  O1  1  0.87209800  0.18717500  0.81725900  1
  O  O2  1  0.48863600  0.75986200  0.64054600  1
  O  O3  1  0.53560700  0.26186800  0.34303100  1
  O  O4  1  0.23103900  0.52780200  0.84013700  1
  O  O5  1  0.75791700  0.51869300  0.15238100  1
  O  O6  1  0.19262300  0.89491500  0.81535500  1
  O  O7  1  0.80043700  0.14841800  0.14698000  1
  O  O8  1  0.17234000  0.53000900  0.33281600  1
  O  O9  1  0.81445600  0.47840700  0.65403200  1
  O  O10  1  0.63425300  0.80388600  0.93448600  1
  O  O11  1  0.34937800  0.24451000  0.05545600  1
  O  O12  1  0.19131500  0.29244100  0.60136100  1
  O  O13  1  0.82731200  0.74366500  0.40147900  1
loop_
_geom_bond_atom_site_label_1
_geom_bond_atom_site_label_2
_geom_bond_distance
_geom_bond_site_symmetry_2
Ca0 O7 2.251572 1_455
Ca0 O12 2.281766 1_555
Ca0 O3 2.352500 1_555
Ca0 O0 2.488046 1_545
Ca0 O13 2.617687 1_445
Ca0 O8 2.658808 1_555
Cu0 O6 1.949189 1_655
Cu0 O13 1.989572 1_555
Cu0 O9 2.309515 1_555
Cu0 O2 2.373097 1_555
O0 P2 1.527719 1_455
O0 Ru1 2.233554 1_464
O1 P3 1.517103 1_655
O1 Ru1 2.065804 1_555
O2 P0 1.551253 1_555
O2 Ru0 2.085558 1_555
O3 P1 1.567994 1_555
O3 Ru0 2.148626 1_555
O4 P0 1.611538 1_555
O4 P3 1.621508 1_555
O5 P2 1.608265 1_555
O5 P1 1.616093 1_555
O6 P0 1.574028 1_555
O6 Ru1 2.078607 1_465
O7 P1 1.535379 1_555
O7 Ru1 2.061756 1_554
O8 P2 1.523558 1_455
O8 Ru0 2.131484 1_555
O9 P3 1.524008 1_655
O9 Ru0 2.083596 1_555
O10 P0 1.508873 1_555
O10 Ru1 2.041399 1_565
O11 P1 1.502390 1_555
O11 Ru1 2.069402 1_454
O12 P3 1.561804 1_555
O12 Ru0 2.135420 1_555
O13 P2 1.590334 1_555
O13 Ru0 2.199072 1_555
