# generated using pymatgen
data_Ce2Ga10Pd
_symmetry_space_group_name_H-M   'P 1'
_cell_length_a   13.45576583
_cell_length_b   13.45576583
_cell_length_c   13.45576583
_cell_angle_alpha   161.09437761
_cell_angle_beta   161.09437761
_cell_angle_gamma   26.86076521
_symmetry_Int_Tables_number   1
_chemical_formula_structural   Ce2Ga10Pd
_chemical_formula_sum   'Ce2 Ga10 Pd1'
_cell_volume   255.66768754
_cell_formula_units_Z   1
loop_
 _symmetry_equiv_pos_site_id
 _symmetry_equiv_pos_as_xyz
  1  'x, y, z'
loop_
 _atom_site_type_symbol
 _atom_site_label
 _atom_site_symmetry_multiplicity
 _atom_site_fract_x
 _atom_site_fract_y
 _atom_site_fract_z
 _atom_site_occupancy
  Ce  Ce0  1  0.64423900  0.64423900  0.00000000  1
  Ce  Ce1  1  0.35576100  0.35576100  0.00000000  1
  Ga  Ga0  1  0.80238200  0.80238200  0.00000000  1
  Ga  Ga1  1  0.19761800  0.19761800  0.00000000  1
  Ga  Ga2  1  0.89455100  0.89455100  0.00000000  1
  Ga  Ga3  1  0.25000000  0.75000000  0.50000000  1
  Ga  Ga4  1  0.75000000  0.25000000  0.50000000  1
  Ga  Ga5  1  0.94796300  0.44796300  0.50000000  1
  Ga  Ga6  1  0.44796300  0.94796300  0.50000000  1
  Ga  Ga7  1  0.05203700  0.55203700  0.50000000  1
  Ga  Ga8  1  0.55203700  0.05203700  0.50000000  1
  Ga  Ga9  1  0.10544900  0.10544900  0.00000000  1
  Pd  Pd0  1  0.50000000  0.50000000  0.00000000  1
loop_
_geom_bond_atom_site_label_1
_geom_bond_atom_site_label_2
_geom_bond_distance
_geom_bond_site_symmetry_2
Ce0 Ga8 3.272370 1_554
Ce0 Ga7 3.272370 1_554
Ce0 Ga7 3.272370 1_655
Ce0 Ga8 3.272370 1_565
Ce0 Ga9 3.286084 1_655
Ce0 Ga9 3.286084 1_554
Ce0 Ga9 3.286084 1_565
Ce0 Ga9 3.286084 1_666
Ce0 Ga1 3.423398 1_554
Ce0 Ga1 3.423398 1_655
Ce0 Ga1 3.423398 1_565
Ce0 Ga1 3.423398 1_666
Ce0 Ga3 3.542245 1_554
Ce0 Ga4 3.542245 1_554
Ce0 Ga3 3.542245 1_655
Ce0 Ga4 3.542245 1_565
Ce1 Ga6 3.272370 1_544
Ce1 Ga5 3.272370 1_555
Ce1 Ga6 3.272370 1_555
Ce1 Ga5 3.272370 1_454
Ce1 Ga2 3.286084 1_455
Ce1 Ga2 3.286084 1_545
Ce1 Ga2 3.286084 1_444
Ce1 Ga2 3.286084 1_556
Ce1 Ga0 3.423398 1_455
Ce1 Ga0 3.423398 1_556
Ce1 Ga0 3.423398 1_444
Ce1 Ga0 3.423398 1_545
Ce1 Ga3 3.542245 1_544
Ce1 Ga4 3.542245 1_454
Ce1 Ga4 3.542245 1_555
Ce1 Ga3 3.542245 1_555
Ga0 Ga2 2.412577 1_555
Ga0 Ga3 2.600712 1_655
Ga0 Ga3 2.600712 1_554
Ga0 Ga4 2.600712 1_565
Ga0 Ga4 2.600712 1_554
Ga1 Ga9 2.412577 1_555
Ga1 Ga3 2.600712 1_544
Ga1 Ga4 2.600712 1_454
Ga1 Ga4 2.600712 1_555
Ga1 Ga3 2.600712 1_555
Ga2 Ga5 2.615026 1_554
Ga2 Ga6 2.615026 1_554
Ga2 Ga6 2.615026 1_655
Ga2 Ga5 2.615026 1_565
Ga5 Pd0 2.595962 1_555
Ga5 Pd0 2.595962 1_656
Ga6 Pd0 2.595962 1_555
Ga6 Pd0 2.595962 1_566
Ga7 Pd0 2.595962 1_556
Ga7 Pd0 2.595962 1_455
Ga7 Ga9 2.615026 1_566
Ga7 Ga9 2.615026 1_555
Ga8 Pd0 2.595962 1_556
Ga8 Pd0 2.595962 1_545
Ga8 Ga9 2.615026 1_656
Ga8 Ga9 2.615026 1_555
