# generated using pymatgen
data_EuIn6Ni7
_symmetry_space_group_name_H-M   'P 1'
_cell_length_a   8.80851965
_cell_length_b   8.80851965
_cell_length_c   8.80851965
_cell_angle_alpha   125.15846721
_cell_angle_beta   115.90140164
_cell_angle_gamma   89.27440840
_symmetry_Int_Tables_number   1
_chemical_formula_structural   EuIn6Ni7
_chemical_formula_sum   'Eu2 In12 Ni14'
_cell_volume   475.38281338
_cell_formula_units_Z   2
loop_
 _symmetry_equiv_pos_site_id
 _symmetry_equiv_pos_as_xyz
  1  'x, y, z'
loop_
 _atom_site_type_symbol
 _atom_site_label
 _atom_site_symmetry_multiplicity
 _atom_site_fract_x
 _atom_site_fract_y
 _atom_site_fract_z
 _atom_site_occupancy
  Eu  Eu0  1  0.25000000  0.75000000  0.50000000  1
  Eu  Eu1  1  0.75000000  0.25000000  0.50000000  1
  In  In0  1  0.04476800  0.32320800  0.36797600  1
  In  In1  1  0.95523200  0.67679200  0.63202400  1
  In  In2  1  0.54476800  0.17679200  0.72156000  1
  In  In3  1  0.45523200  0.82320800  0.27844000  1
  In  In4  1  0.55169200  0.53533100  0.36763300  1
  In  In5  1  0.44830800  0.46466900  0.63236700  1
  In  In6  1  0.16769800  0.18405900  0.63236700  1
  In  In7  1  0.33230200  0.96466900  0.01636100  1
  In  In8  1  0.83230200  0.81594100  0.36763300  1
  In  In9  1  0.66769800  0.03533100  0.98363900  1
  In  In10  1  0.94830800  0.31594100  0.98363900  1
  In  In11  1  0.05169200  0.68405900  0.01636100  1
  Ni  Ni0  1  0.25955500  0.07358900  0.33314500  1
  Ni  Ni1  1  0.74044500  0.92641100  0.66685500  1
  Ni  Ni2  1  0.75955500  0.42641100  0.18596600  1
  Ni  Ni3  1  0.24044500  0.57358900  0.81403400  1
  Ni  Ni4  1  0.25896000  0.29282000  0.20945800  1
  Ni  Ni5  1  0.74104000  0.70718000  0.79054200  1
  Ni  Ni6  1  0.08336100  0.04950200  0.79054200  1
  Ni  Ni7  1  0.41663900  0.20718000  0.96614100  1
  Ni  Ni8  1  0.91663900  0.95049800  0.20945800  1
  Ni  Ni9  1  0.58336100  0.79282000  0.03385900  1
  Ni  Ni10  1  0.24104000  0.45049800  0.03385900  1
  Ni  Ni11  1  0.75896000  0.54950200  0.96614100  1
  Ni  Ni12  1  0.00000000  0.00000000  0.00000000  1
  Ni  Ni13  1  0.50000000  0.50000000  0.00000000  1
loop_
_geom_bond_atom_site_label_1
_geom_bond_atom_site_label_2
_geom_bond_distance
_geom_bond_site_symmetry_2
Eu0 Ni4 3.327493 1_555
Eu0 Ni7 3.327495 1_565
Eu0 Ni10 3.327500 1_555
Eu0 Ni6 3.327500 1_565
Eu0 In4 3.469537 1_555
Eu0 In7 3.469537 1_556
Eu0 In6 3.469537 1_565
Eu0 In10 3.469537 1_454
Eu0 In3 3.471886 1_555
Eu0 In1 3.471886 1_455
Eu0 In0 3.471886 1_555
Eu0 In2 3.471886 1_565
Eu0 In8 3.494575 1_455
Eu0 In9 3.494575 1_565
Eu0 In11 3.494575 1_555
Eu0 In5 3.494575 1_555
Eu1 Ni5 3.327493 1_555
Eu1 Ni9 3.327495 1_545
Eu1 Ni11 3.327500 1_555
Eu1 Ni8 3.327500 1_545
Eu1 In11 3.469537 1_656
Eu1 In5 3.469537 1_555
Eu1 In9 3.469537 1_554
Eu1 In8 3.469537 1_545
Eu1 In0 3.471886 1_655
Eu1 In2 3.471886 1_555
Eu1 In1 3.471886 1_555
Eu1 In3 3.471886 1_545
Eu1 In6 3.494575 1_655
Eu1 In10 3.494575 1_555
Eu1 In7 3.494575 1_545
Eu1 In4 3.494575 1_555
In0 Ni12 2.655383 1_555
In0 Ni8 2.727516 1_445
In0 Ni4 2.727517 1_555
In0 Ni3 2.733612 1_555
In0 Ni2 2.794677 1_455
In0 Ni0 2.851854 1_555
In0 In1 2.988257 1_455
In0 In6 3.024783 1_555
In0 In5 3.024783 1_555
In0 In9 3.070177 1_454
In0 In10 3.070177 1_454
In1 Ni12 2.655383 1_666
In1 Ni6 2.727516 1_665
In1 Ni5 2.727517 1_555
In1 Ni2 2.733612 1_555
In1 Ni3 2.794677 1_655
In1 Ni1 2.851854 1_555
In1 In8 3.024783 1_555
In1 In4 3.024783 1_555
In1 In7 3.070177 1_656
In1 In11 3.070177 1_656
In2 Ni13 2.655383 1_556
In2 Ni11 2.727516 1_555
In2 Ni7 2.727519 1_555
In2 Ni1 2.733612 1_545
In2 Ni0 2.794671 1_555
In2 Ni2 2.851854 1_556
In2 In3 2.988257 1_545
In2 In9 3.024783 1_555
In2 In5 3.070177 1_555
In2 In6 3.070177 1_555
In3 Ni13 2.655383 1_555
In3 Ni10 2.727516 1_555
In3 Ni9 2.727519 1_555
In3 Ni0 2.733612 1_565
In3 Ni1 2.794671 1_555
In3 Ni3 2.851854 1_554
In3 In7 3.024783 1_555
In3 In4 3.070177 1_555
In3 In8 3.070177 1_555
In4 Ni4 2.593523 1_555
In4 Ni7 2.629831 1_554
In4 Ni5 2.663056 1_555
In4 Ni10 2.680130 1_555
In4 Ni1 2.727266 1_555
In4 Ni2 2.753309 1_555
In4 Ni13 2.888860 1_555
In5 Ni5 2.593523 1_555
In5 Ni9 2.629831 1_556
In5 Ni4 2.663056 1_555
In5 Ni11 2.680130 1_555
In5 Ni0 2.727266 1_555
In5 Ni3 2.753309 1_555
In5 Ni13 2.888860 1_556
In6 Ni6 2.593527 1_555
In6 Ni10 2.629828 1_556
In6 Ni8 2.663054 1_445
In6 Ni7 2.680135 1_555
In6 Ni0 2.727258 1_555
In6 Ni3 2.753309 1_555
In6 Ni13 2.888860 1_556
In7 Ni7 2.593519 1_564
In7 Ni4 2.629835 1_565
In7 Ni9 2.663049 1_555
In7 Ni6 2.680130 1_564
In7 Ni3 2.727266 1_554
In7 Ni0 2.753317 1_565
In7 Ni12 2.888860 1_565
In8 Ni8 2.593527 1_555
In8 Ni11 2.629828 1_554
In8 Ni6 2.663054 1_665
In8 Ni9 2.680135 1_555
In8 Ni1 2.727258 1_555
In8 Ni2 2.753309 1_555
In8 Ni13 2.888860 1_555
In9 Ni9 2.593519 1_546
In9 Ni5 2.629835 1_545
In9 Ni7 2.663049 1_555
In9 Ni8 2.680130 1_546
In9 Ni2 2.727266 1_556
In9 Ni1 2.753317 1_545
In9 Ni12 2.888860 1_656
In10 Ni10 2.593527 1_656
In10 Ni6 2.629828 1_655
In10 Ni11 2.663054 1_555
In10 Ni4 2.680126 1_656
In10 Ni2 2.727266 1_556
In10 Ni1 2.753309 1_545
In10 Ni12 2.888860 1_656
In10 In2 3.024783 1_555
In11 Ni11 2.593527 1_454
In11 Ni8 2.629828 1_455
In11 Ni10 2.663054 1_555
In11 Ni5 2.680126 1_454
In11 Ni3 2.727266 1_554
In11 Ni0 2.753309 1_565
In11 Ni12 2.888860 1_565
In11 In3 3.024783 1_555
Ni0 Ni12 2.498816 1_555
Ni0 Ni8 2.708117 1_445
Ni0 Ni4 2.708135 1_555
Ni1 Ni12 2.498816 1_666
Ni1 Ni6 2.708117 1_665
Ni1 Ni5 2.708135 1_555
Ni2 Ni7 2.708123 1_554
Ni3 Ni9 2.708123 1_556
Ni4 Ni6 2.567413 1_554
Ni4 Ni7 2.793538 1_554
Ni5 Ni8 2.567413 1_556
Ni5 Ni9 2.793538 1_556
Ni6 Ni7 2.569402 1_555
Ni8 Ni9 2.569402 1_555
Ni10 Ni13 2.500323 1_555
Ni10 Ni7 2.567419 1_554
Ni10 Ni4 2.569396 1_555
Ni10 Ni3 2.708120 1_554
Ni10 Ni6 2.793541 1_554
Ni11 Ni13 2.500323 1_556
Ni11 Ni9 2.567419 1_556
Ni11 Ni5 2.569396 1_555
Ni11 Ni2 2.708120 1_556
Ni11 Ni8 2.793541 1_556
Ni12 Ni8 2.500323 1_445
Ni12 Ni6 2.500323 1_554
Ni12 Ni5 2.500328 1_444
Ni12 Ni4 2.500328 1_555
Ni13 Ni2 2.498810 1_555
Ni13 Ni3 2.498810 1_554
Ni13 Ni7 2.500331 1_554
Ni13 Ni9 2.500331 1_555
