# generated using pymatgen
data_Cs3Re6(SCl)7
_symmetry_space_group_name_H-M   'P 1'
_cell_length_a   13.28760200
_cell_length_b   9.46421000
_cell_length_c   11.38418130
_cell_angle_alpha   73.37804707
_cell_angle_beta   90.00000000
_cell_angle_gamma   90.00000000
_symmetry_Int_Tables_number   1
_chemical_formula_structural   Cs3Re6(SCl)7
_chemical_formula_sum   'Cs6 Re12 S14 Cl14'
_cell_volume   1371.81283203
_cell_formula_units_Z   2
loop_
 _symmetry_equiv_pos_site_id
 _symmetry_equiv_pos_as_xyz
  1  'x, y, z'
loop_
 _atom_site_type_symbol
 _atom_site_label
 _atom_site_symmetry_multiplicity
 _atom_site_fract_x
 _atom_site_fract_y
 _atom_site_fract_z
 _atom_site_occupancy
  Cs  Cs0  1  0.25937200  0.97568000  0.88573600  1
  Cs  Cs1  1  0.75937200  0.02432000  0.11426400  1
  Cs  Cs2  1  0.74050300  0.02616100  0.61311700  1
  Cs  Cs3  1  0.24050300  0.97383900  0.38688300  1
  Cs  Cs4  1  0.99891800  0.49970700  0.25031800  1
  Cs  Cs5  1  0.49891800  0.50029300  0.74968200  1
  Re  Re0  1  0.12240200  0.59932400  0.72533400  1
  Re  Re1  1  0.62240200  0.40067600  0.27466600  1
  Re  Re2  1  0.87990600  0.39803800  0.77491300  1
  Re  Re3  1  0.37990600  0.60196200  0.22508700  1
  Re  Re4  1  0.04313800  0.38496500  0.65201500  1
  Re  Re5  1  0.54313800  0.61503500  0.34798500  1
  Re  Re6  1  0.95991700  0.61401000  0.84894500  1
  Re  Re7  1  0.45991700  0.38599000  0.15105500  1
  Re  Re8  1  0.05305400  0.36253100  0.88651500  1
  Re  Re9  1  0.55305400  0.63746900  0.11348500  1
  Re  Re10  1  0.94986700  0.63670200  0.61226100  1
  Re  Re11  1  0.44986700  0.36329800  0.38773900  1
  S  S0  1  0.97477900  0.17745000  0.80758800  1
  S  S1  1  0.47477900  0.82255000  0.19241200  1
  S  S2  1  0.02459400  0.82386500  0.69197500  1
  S  S3  1  0.52459400  0.17613500  0.30802500  1
  S  S4  1  0.12104500  0.57121100  0.94275400  1
  S  S5  1  0.62104500  0.42878900  0.05724600  1
  S  S6  1  0.87810100  0.42954000  0.55665500  1
  S  S7  1  0.37810100  0.57046000  0.44334500  1
  S  S8  1  0.89676700  0.38753200  0.98875400  1
  S  S9  1  0.39676700  0.61246800  0.01124600  1
  S  S10  1  0.10253500  0.61299900  0.51140200  1
  S  S11  1  0.60253500  0.38700100  0.48859800  1
  S  S12  1  0.20128600  0.36041400  0.76224300  1
  S  S13  1  0.70128600  0.63958600  0.23775700  1
  Cl  Cl0  1  0.28105000  0.73844800  0.69026800  1
  Cl  Cl1  1  0.78105000  0.26155200  0.30973200  1
  Cl  Cl2  1  0.72014000  0.26318500  0.80903200  1
  Cl  Cl3  1  0.22014000  0.73681500  0.19096800  1
  Cl  Cl4  1  0.11486200  0.17946800  0.06894200  1
  Cl  Cl5  1  0.61486200  0.82053200  0.93105800  1
  Cl  Cl6  1  0.88604300  0.81867900  0.43359900  1
  Cl  Cl7  1  0.38604300  0.18132100  0.56640100  1
  Cl  Cl8  1  0.09409400  0.23356700  0.52225000  1
  Cl  Cl9  1  0.59409400  0.76643300  0.47775000  1
  Cl  Cl10  1  0.90667500  0.76517900  0.97561300  1
  Cl  Cl11  1  0.40667500  0.23482100  0.02438700  1
  Cl  Cl12  1  0.79095200  0.64322300  0.73755800  1
  Cl  Cl13  1  0.29095200  0.35677700  0.26244200  1
loop_
_geom_bond_atom_site_label_1
_geom_bond_atom_site_label_2
_geom_bond_distance
_geom_bond_site_symmetry_2
Cs0 S12 3.591918 1_565
Cs0 S9 3.792237 1_556
Cs1 S13 3.591918 1_545
Cs1 S8 3.792237 1_554
Cs2 S11 3.776688 1_555
Cs3 S10 3.776688 1_555
Cs4 S8 3.693875 1_554
Cs4 S10 3.701713 1_655
Cs4 S6 3.722255 1_555
Cs4 S4 3.741031 1_654
Cs4 S13 4.159961 1_555
Cs5 S9 3.693875 1_556
Cs5 S11 3.701713 1_555
Cs5 S7 3.722255 1_555
Cs5 S5 3.741031 1_556
Cs5 S12 4.159961 1_555
Re0 S4 2.412615 1_555
Re0 S10 2.416088 1_555
Re0 S12 2.417485 1_555
Re0 S2 2.426441 1_555
Re1 S5 2.412615 1_555
Re1 S11 2.416088 1_555
Re1 S13 2.417485 1_555
Re1 S3 2.426441 1_555
Re2 S0 2.375234 1_555
Re2 S6 2.416470 1_555
Re2 S8 2.418248 1_555
Re3 S1 2.375234 1_555
Re3 S7 2.416470 1_555
Re3 S9 2.418248 1_555
Re4 S0 2.414317 1_455
Re4 S10 2.422093 1_555
Re4 S12 2.424408 1_555
Re4 S6 2.429709 1_455
Re5 S1 2.414317 1_555
Re5 S11 2.422093 1_555
Re5 S13 2.424408 1_555
Re5 S7 2.429709 1_555
Re6 S4 2.375076 1_655
Re6 S2 2.417849 1_655
Re6 S8 2.424847 1_555
Re7 S5 2.375076 1_555
Re7 S3 2.417849 1_555
Re7 S9 2.424847 1_555
Re8 S4 2.418698 1_555
Re8 S0 2.420293 1_455
Re8 S8 2.425041 1_455
Re8 S12 2.428499 1_555
Re9 S5 2.418698 1_555
Re9 S1 2.420293 1_555
Re9 S9 2.425041 1_555
Re9 S13 2.428499 1_555
Re10 S10 2.373021 1_655
Re10 S6 2.421609 1_555
Re10 S2 2.422144 1_655
Re11 S11 2.373021 1_555
Re11 S7 2.421609 1_555
Re11 S3 2.422144 1_555
Cl0 Re0 2.456872 1_555
Cl0 Cs3 3.574910 1_555
Cl0 Cs0 3.596389 1_555
Cl0 Cs5 3.611963 1_555
Cl1 Re1 2.456872 1_555
Cl1 Cs2 3.574910 1_555
Cl1 Cs1 3.596389 1_555
Cl1 Cs4 3.611963 1_555
Cl2 Re2 2.450076 1_555
Cl2 Cs2 3.597515 1_555
Cl2 Cs1 3.600355 1_556
Cl2 Cs5 3.642185 1_555
Cl3 Re3 2.450076 1_555
Cl3 Cs3 3.597515 1_555
Cl3 Cs0 3.600355 1_554
Cl3 Cs4 3.642185 1_455
Cl4 Re8 2.435306 1_554
Cl4 Cs0 3.749438 1_544
Cl4 Cs3 3.955417 1_545
Cl5 Re9 2.435306 1_556
Cl5 Cs1 3.749438 1_566
Cl5 Cs2 3.955417 1_565
Cl6 Re10 2.412090 1_555
Cl6 Cs2 3.750773 1_565
Cl6 Cs1 3.973522 1_565
Cl7 Re11 2.412090 1_555
Cl7 Cs3 3.750773 1_545
Cl7 Cs0 3.973522 1_545
Cl8 Re4 2.429991 1_555
Cl8 Cs4 3.614720 1_455
Cl8 Cs3 3.790652 1_545
Cl9 Re5 2.429991 1_555
Cl9 Cs5 3.614720 1_555
Cl9 Cs2 3.790652 1_565
Cl10 Re6 2.409791 1_555
Cl10 Cs4 3.619338 1_556
Cl10 Cs1 3.814748 1_566
Cl11 Re7 2.409791 1_555
Cl11 Cs5 3.619338 1_554
Cl11 Cs0 3.814748 1_544
Cl12 Re2 2.529429 1_555
Cl12 Re6 2.554304 1_555
Cl12 Re10 2.558838 1_555
Cl12 Cs2 3.557216 1_565
Cl12 Cs5 4.098760 1_555
Cl13 Re3 2.529429 1_555
Cl13 Re7 2.554304 1_555
Cl13 Re11 2.558838 1_555
Cl13 Cs3 3.557216 1_545
Cl13 Cs4 4.098760 1_455
