# generated using pymatgen
data_Sr3CaV4O12
_symmetry_space_group_name_H-M   'P 1'
_cell_length_a   6.75710966
_cell_length_b   6.75717777
_cell_length_c   11.68513932
_cell_angle_alpha   78.72881599
_cell_angle_beta   79.12011757
_cell_angle_gamma   109.58019945
_symmetry_Int_Tables_number   1
_chemical_formula_structural   Sr3CaV4O12
_chemical_formula_sum   'Sr6 Ca2 V8 O24'
_cell_volume   473.95365636
_cell_formula_units_Z   2
loop_
 _symmetry_equiv_pos_site_id
 _symmetry_equiv_pos_as_xyz
  1  'x, y, z'
loop_
 _atom_site_type_symbol
 _atom_site_label
 _atom_site_symmetry_multiplicity
 _atom_site_fract_x
 _atom_site_fract_y
 _atom_site_fract_z
 _atom_site_occupancy
  Sr  Sr0  1  0.24998800  0.74995500  0.50001400  1
  Sr  Sr1  1  0.75000400  0.25001200  0.50001700  1
  Sr  Sr2  1  0.12408100  0.12376600  0.24944900  1
  Sr  Sr3  1  0.62635500  0.62602600  0.24954800  1
  Sr  Sr4  1  0.87366000  0.87398900  0.75047300  1
  Sr  Sr5  1  0.37590100  0.37622600  0.75051400  1
  Ca  Ca0  1  0.50114400  0.00115300  0.00002000  1
  Ca  Ca1  1  0.99880300  0.49880500  0.00004900  1
  V  V0  1  0.50040300  0.50016800  0.99957100  1
  V  V1  1  0.99964400  0.99987700  0.00036000  1
  V  V2  1  0.37123900  0.87506100  0.75402500  1
  V  V3  1  0.87562300  0.37159000  0.75315600  1
  V  V4  1  0.62446000  0.12847300  0.24672500  1
  V  V5  1  0.12879600  0.62494900  0.24594400  1
  V  V6  1  0.24995000  0.24995900  0.49996500  1
  V  V7  1  0.75000500  0.75004900  0.49997200  1
  O  O0  1  0.99648100  0.99647000  0.49998600  1
  O  O1  1  0.50348700  0.50348000  0.50004300  1
  O  O2  1  0.25000500  0.25003800  0.99998100  1
  O  O3  1  0.75001500  0.74998500  0.00001900  1
  O  O4  1  0.12026200  0.62372400  0.75693700  1
  O  O5  1  0.61973100  0.12303900  0.75698800  1
  O  O6  1  0.37969300  0.87629000  0.24311400  1
  O  O7  1  0.88028500  0.37689000  0.24305900  1
  O  O8  1  0.31391400  0.05747200  0.62871200  1
  O  O9  1  0.80935400  0.56875700  0.62203500  1
  O  O10  1  0.69063500  0.93129000  0.37795400  1
  O  O11  1  0.18606900  0.44253100  0.37125000  1
  O  O12  1  0.44764600  0.18289000  0.36927200  1
  O  O13  1  0.93398500  0.68836800  0.37752000  1
  O  O14  1  0.56603500  0.81164100  0.62245400  1
  O  O15  1  0.05237500  0.31707500  0.63069500  1
  O  O16  1  0.43784700  0.68987100  0.87289000  1
  O  O17  1  0.93243200  0.18745500  0.88076400  1
  O  O18  1  0.56761000  0.31258100  0.11930400  1
  O  O19  1  0.06215300  0.81006700  0.12711900  1
  O  O20  1  0.18627800  0.93407600  0.88011000  1
  O  O21  1  0.68847100  0.43903800  0.87294700  1
  O  O22  1  0.81143900  0.06085000  0.12713700  1
  O  O23  1  0.31374300  0.56606700  0.11990900  1
loop_
_geom_bond_atom_site_label_1
_geom_bond_atom_site_label_2
_geom_bond_distance
_geom_bond_site_symmetry_2
Ca0 O5 2.677603 1_554
Ca0 O6 2.678304 1_545
Ca0 O18 2.705988 1_555
Ca0 O17 2.709579 1_554
Ca0 O20 2.724444 1_544
Ca0 O23 2.726624 1_545
Ca0 O22 2.758304 1_555
Ca0 O2 2.760591 1_554
Ca0 O3 2.760676 1_545
Ca0 O21 2.761280 1_554
Ca0 O16 2.769891 1_544
Ca0 O19 2.773463 1_545
Ca1 O7 2.677362 1_555
Ca1 O4 2.678504 1_654
Ca1 O17 2.705560 1_554
Ca1 O18 2.709046 1_555
Ca1 O23 2.724456 1_655
Ca1 O20 2.727781 1_654
Ca1 O21 2.758381 1_554
Ca1 O3 2.760284 1_555
Ca1 O2 2.760294 1_654
Ca1 O22 2.761707 1_555
Ca1 O19 2.769281 1_655
Ca1 O16 2.773924 1_654
O0 V7 1.920376 1_555
O0 V6 1.975022 1_665
O0 Sr4 2.759817 1_555
O0 Sr2 2.760355 1_665
O0 Sr1 2.760691 1_565
O0 Sr0 2.760702 1_655
O1 V7 1.920786 1_555
O1 V6 1.975797 1_555
O1 Sr5 2.759628 1_555
O1 Sr3 2.759902 1_555
O1 Sr0 2.760438 1_555
O1 Sr1 2.760499 1_555
O2 V0 1.948462 1_555
O2 V1 1.948558 1_446
O2 Sr5 2.748516 1_555
O2 Sr2 2.748528 1_556
O3 V1 1.947461 1_555
O3 V0 1.947521 1_554
O3 Sr3 2.749186 1_555
O3 Sr4 2.749372 1_554
O4 V2 1.945939 1_555
O4 V3 1.951031 1_455
O4 Sr4 2.743786 1_455
O4 Sr5 2.778982 1_555
O4 Sr0 2.830799 1_555
O5 V2 1.946053 1_545
O5 V3 1.951267 1_555
O5 Sr5 2.744617 1_555
O5 Sr4 2.778140 1_545
O5 Sr1 2.831315 1_555
O6 V5 1.945948 1_555
O6 V4 1.951010 1_565
O6 Sr3 2.744105 1_555
O6 Sr2 2.778684 1_565
O6 Sr0 2.830538 1_555
O7 V5 1.946125 1_655
O7 V4 1.951099 1_555
O7 Sr2 2.744063 1_655
O7 Sr3 2.778612 1_555
O7 Sr1 2.831178 1_555
O8 V2 1.908420 1_545
O8 V6 1.999798 1_555
O8 Sr1 2.762248 1_555
O8 Sr0 2.762462 1_545
O8 Sr4 2.766181 1_445
O8 Sr5 2.767499 1_555
O9 V7 1.886288 1_555
O9 V3 2.045472 1_555
O9 Sr5 2.747264 1_555
O9 Sr4 2.747857 1_555
O9 Sr0 2.769235 1_655
O9 Sr1 2.769478 1_555
O10 V7 1.885820 1_555
O10 V4 2.046004 1_565
O10 Sr2 2.747300 1_665
O10 Sr3 2.747759 1_555
O10 Sr0 2.769394 1_555
O10 Sr1 2.769712 1_565
O11 V5 1.908193 1_555
O11 V6 1.999557 1_555
O11 Sr1 2.762323 1_455
O11 Sr0 2.762512 1_555
O11 Sr3 2.766204 1_555
O11 Sr2 2.767552 1_555
O12 V4 1.862158 1_555
O12 V6 2.056288 1_555
O12 Sr0 2.745860 1_545
O12 Sr1 2.746274 1_555
O12 Sr3 2.771768 1_555
O12 Sr2 2.772913 1_555
O13 V7 1.917155 1_555
O13 V5 2.037628 1_655
O13 Sr2 2.750555 1_665
O13 Sr3 2.750873 1_555
O13 Sr1 2.751522 1_555
O13 Sr0 2.751794 1_655
O14 V7 1.917000 1_555
O14 V2 2.037534 1_555
O14 Sr5 2.750617 1_555
O14 Sr4 2.751239 1_555
O14 Sr1 2.751448 1_565
O14 Sr0 2.751595 1_555
O15 V3 1.861605 1_455
O15 V6 2.056284 1_555
O15 Sr0 2.745375 1_555
O15 Sr1 2.745763 1_455
O15 Sr4 2.771619 1_445
O15 Sr5 2.772657 1_555
O16 V2 1.905708 1_555
O16 V0 1.967410 1_555
O16 Sr4 2.743099 1_555
O16 Sr5 2.743680 1_555
O17 V1 1.923228 1_546
O17 V3 1.931283 1_555
O17 Sr5 2.807211 1_655
O17 Sr4 2.808416 1_545
O18 V0 1.924273 1_554
O18 V4 1.929842 1_555
O18 Sr2 2.807229 1_555
O18 Sr3 2.807909 1_555
O19 V5 1.905259 1_555
O19 V1 1.968251 1_455
O19 Sr3 2.743053 1_455
O19 Sr2 2.743604 1_565
O20 V1 1.927072 1_456
O20 V2 1.939149 1_555
O20 Sr5 2.791836 1_565
O20 Sr4 2.792006 1_455
O21 V3 1.932294 1_555
O21 V0 1.963606 1_555
O21 Sr5 2.732202 1_555
O21 Sr4 2.732523 1_555
O22 V4 1.930768 1_555
O22 V1 1.964732 1_545
O22 Sr2 2.731611 1_655
O22 Sr3 2.731653 1_545
O23 V0 1.928238 1_554
O23 V5 1.938186 1_555
O23 Sr3 2.791992 1_555
O23 Sr2 2.792501 1_555
