# generated using pymatgen
data_Ca2HoMn4BiO12
_symmetry_space_group_name_H-M   'P 1'
_cell_length_a   6.24844762
_cell_length_b   5.73449459
_cell_length_c   7.32141800
_cell_angle_alpha   90.00000000
_cell_angle_beta   90.00000000
_cell_angle_gamma   90.03641811
_symmetry_Int_Tables_number   1
_chemical_formula_structural   Ca2HoMn4BiO12
_chemical_formula_sum   'Ca2 Ho1 Mn4 Bi1 O12'
_cell_volume   262.33872071
_cell_formula_units_Z   1
loop_
 _symmetry_equiv_pos_site_id
 _symmetry_equiv_pos_as_xyz
  1  'x, y, z'
loop_
 _atom_site_type_symbol
 _atom_site_label
 _atom_site_symmetry_multiplicity
 _atom_site_fract_x
 _atom_site_fract_y
 _atom_site_fract_z
 _atom_site_occupancy
  Ca  Ca0  1  0.04028200  0.94631100  0.25000000  1
  Ca  Ca1  1  0.57416900  0.57171400  0.75000000  1
  Ho  Ho0  1  0.93935000  0.02604000  0.75000000  1
  Mn  Mn0  1  0.00878000  0.47925400  0.99099800  1
  Mn  Mn1  1  0.46701200  0.03148300  0.50142500  1
  Mn  Mn2  1  0.00878000  0.47925400  0.50900200  1
  Mn  Mn3  1  0.46701200  0.03148300  0.99857500  1
  Bi  Bi0  1  0.44744900  0.47366500  0.25000000  1
  O  O0  1  0.39538200  0.07858200  0.25000000  1
  O  O1  1  0.09503300  0.49513500  0.25000000  1
  O  O2  1  0.56720700  0.99427900  0.75000000  1
  O  O3  1  0.90554300  0.41902900  0.75000000  1
  O  O4  1  0.36964700  0.70555900  0.01492400  1
  O  O5  1  0.15549500  0.18300600  0.53203100  1
  O  O6  1  0.63876000  0.31853800  0.47063600  1
  O  O7  1  0.87809700  0.77978200  0.98873900  1
  O  O8  1  0.63876000  0.31853800  0.02936400  1
  O  O9  1  0.87809700  0.77978200  0.51126100  1
  O  O10  1  0.36964700  0.70555900  0.48507600  1
  O  O11  1  0.15549500  0.18300600  0.96796900  1
loop_
_geom_bond_atom_site_label_1
_geom_bond_atom_site_label_2
_geom_bond_distance
_geom_bond_site_symmetry_2
Ca0 O0 2.344434 1_565
Ca0 O9 2.365695 1_455
Ca0 O7 2.365695 1_454
Ca0 O5 2.573524 1_565
Ca0 O11 2.573524 1_564
Ca0 O1 2.610002 1_555
Ca1 O3 2.248600 1_555
Ca1 O2 2.423615 1_555
Ca1 O4 2.446553 1_556
Ca1 O10 2.446553 1_555
Ca1 O8 2.540646 1_556
Ca1 O6 2.540646 1_555
Ca1 O7 2.842964 1_555
Ca1 O9 2.842964 1_555
Ho0 O3 2.263606 1_555
Ho0 O11 2.275835 1_655
Ho0 O5 2.275835 1_655
Ho0 O7 2.279297 1_545
Ho0 O9 2.279297 1_545
Ho0 O2 2.332323 1_545
Mn0 O7 1.907582 1_455
Mn0 O3 1.910073 1_455
Mn0 O11 1.938260 1_555
Mn0 O1 1.973450 1_556
Mn0 O8 2.504229 1_456
Mn0 O4 2.606817 1_556
Mn1 O0 1.913616 1_555
Mn1 O2 1.936429 1_545
Mn1 O10 1.968808 1_545
Mn1 O6 1.977355 1_555
Mn1 O5 2.143879 1_555
Mn2 O9 1.907582 1_455
Mn2 O3 1.910073 1_455
Mn2 O5 1.938260 1_555
Mn2 O1 1.973450 1_555
Mn2 O6 2.504229 1_455
Mn2 O10 2.606817 1_555
Mn3 O0 1.913616 1_556
Mn3 O2 1.936429 1_545
Mn3 O4 1.968808 1_546
Mn3 O8 1.977355 1_556
Mn3 O11 2.143879 1_555
Bi0 O6 2.197973 1_555
Bi0 O8 2.197973 1_555
Bi0 O1 2.205570 1_555
Bi0 O10 2.228825 1_555
Bi0 O4 2.228825 1_555
Bi0 O0 2.288637 1_555
