# generated using pymatgen
data_Tb2Be2SiO7
_symmetry_space_group_name_H-M   'P 1'
_cell_length_a   7.35644000
_cell_length_b   7.35644000
_cell_length_c   4.80198700
_cell_angle_alpha   90.00000000
_cell_angle_beta   90.00000000
_cell_angle_gamma   90.00000000
_symmetry_Int_Tables_number   1
_chemical_formula_structural   Tb2Be2SiO7
_chemical_formula_sum   'Tb4 Be4 Si2 O14'
_cell_volume   259.87013637
_cell_formula_units_Z   2
loop_
 _symmetry_equiv_pos_site_id
 _symmetry_equiv_pos_as_xyz
  1  'x, y, z'
loop_
 _atom_site_type_symbol
 _atom_site_label
 _atom_site_symmetry_multiplicity
 _atom_site_fract_x
 _atom_site_fract_y
 _atom_site_fract_z
 _atom_site_occupancy
  Tb  Tb0  1  0.15923500  0.34076500  0.50871300  1
  Tb  Tb1  1  0.84076500  0.65923500  0.50871300  1
  Tb  Tb2  1  0.65923500  0.15923500  0.49128700  1
  Tb  Tb3  1  0.34076500  0.84076500  0.49128700  1
  Be  Be0  1  0.63590400  0.86409600  0.95957900  1
  Be  Be1  1  0.36409600  0.13590400  0.95957900  1
  Be  Be2  1  0.13590400  0.63590400  0.04042100  1
  Be  Be3  1  0.86409600  0.36409600  0.04042100  1
  Si  Si0  1  0.00000000  0.00000000  0.00000000  1
  Si  Si1  1  0.50000000  0.50000000  0.00000000  1
  O  O0  1  0.00000000  0.50000000  0.18319200  1
  O  O1  1  0.50000000  0.00000000  0.81680800  1
  O  O2  1  0.64062900  0.85937100  0.28940400  1
  O  O3  1  0.35937100  0.14062900  0.28940400  1
  O  O4  1  0.14062900  0.64062900  0.71059600  1
  O  O5  1  0.85937100  0.35937100  0.71059600  1
  O  O6  1  0.08000200  0.83668300  0.19855400  1
  O  O7  1  0.91999800  0.16331700  0.19855400  1
  O  O8  1  0.16331700  0.08000200  0.80144600  1
  O  O9  1  0.41999800  0.33668300  0.80144600  1
  O  O10  1  0.83668300  0.91999800  0.80144600  1
  O  O11  1  0.58000200  0.66331700  0.80144600  1
  O  O12  1  0.33668300  0.58000200  0.19855400  1
  O  O13  1  0.66331700  0.41999800  0.19855400  1
loop_
_geom_bond_atom_site_label_1
_geom_bond_atom_site_label_2
_geom_bond_distance
_geom_bond_site_symmetry_2
Be0 O1 1.571338 1_565
Be0 O2 1.584578 1_556
Be0 O11 1.710941 1_555
Be0 O10 1.710941 1_555
Be1 O1 1.571338 1_555
Be1 O3 1.584578 1_556
Be1 O9 1.710941 1_555
Be1 O8 1.710941 1_555
Be2 O0 1.571338 1_555
Be2 O4 1.584578 1_554
Be2 O6 1.710941 1_555
Be2 O12 1.710941 1_555
Be3 O0 1.571338 1_655
Be3 O5 1.584578 1_554
Be3 O13 1.710941 1_555
Be3 O7 1.710941 1_555
O0 Tb0 2.277674 1_555
O0 Tb1 2.277674 1_455
O1 Tb3 2.277674 1_545
O1 Tb2 2.277674 1_555
O2 Tb1 2.333308 1_555
O2 Tb2 2.413438 1_565
O2 Tb3 2.413438 1_555
O3 Tb0 2.333308 1_555
O3 Tb2 2.413438 1_555
O3 Tb3 2.413438 1_545
O4 Tb3 2.333308 1_555
O4 Tb0 2.413438 1_555
O4 Tb1 2.413438 1_455
O5 Tb2 2.333308 1_555
O5 Tb0 2.413438 1_655
O5 Tb1 2.413438 1_555
O6 Si0 1.642827 1_565
O6 Tb3 2.378386 1_555
O6 Tb1 2.649461 1_455
O7 Si0 1.642827 1_655
O7 Tb2 2.378386 1_555
O7 Tb0 2.649461 1_655
O8 Si0 1.642827 1_556
O8 Tb0 2.378386 1_555
O8 Tb3 2.649461 1_545
O9 Si1 1.642827 1_556
O9 Tb0 2.378386 1_555
O9 Tb2 2.649461 1_555
O10 Si0 1.642827 1_666
O10 Tb1 2.378386 1_555
O10 Tb2 2.649461 1_565
O11 Si1 1.642827 1_556
O11 Tb1 2.378386 1_555
O11 Tb3 2.649461 1_555
O12 Si1 1.642827 1_555
O12 Tb3 2.378386 1_555
O12 Tb0 2.649461 1_555
O13 Si1 1.642827 1_555
O13 Tb2 2.378386 1_555
O13 Tb1 2.649461 1_555
