# generated using pymatgen
data_Ba2SrUO6
_symmetry_space_group_name_H-M   'P 1'
_cell_length_a   6.25188320
_cell_length_b   6.29188002
_cell_length_c   8.84130900
_cell_angle_alpha   90.00000000
_cell_angle_beta   90.26833004
_cell_angle_gamma   90.00000000
_symmetry_Int_Tables_number   1
_chemical_formula_structural   Ba2SrUO6
_chemical_formula_sum   'Ba4 Sr2 U2 O12'
_cell_volume   347.77879236
_cell_formula_units_Z   2
loop_
 _symmetry_equiv_pos_site_id
 _symmetry_equiv_pos_as_xyz
  1  'x, y, z'
loop_
 _atom_site_type_symbol
 _atom_site_label
 _atom_site_symmetry_multiplicity
 _atom_site_fract_x
 _atom_site_fract_y
 _atom_site_fract_z
 _atom_site_occupancy
  Ba  Ba0  1  0.50782026  0.46757054  0.75074618  1
  Ba  Ba1  1  0.99217974  0.96757054  0.74925382  1
  Ba  Ba2  1  0.00782026  0.03242946  0.25074618  1
  Ba  Ba3  1  0.49217974  0.53242946  0.24925382  1
  Sr  Sr0  1  0.00000000  0.50000000  0.50000000  1
  Sr  Sr1  1  0.50000000  -0.00000000  0.00000000  1
  U  U0  1  0.00000000  0.50000000  0.00000000  1
  U  U1  1  0.50000000  -0.00000000  0.50000000  1
  O  O0  1  0.91388002  0.47184184  0.22673516  1
  O  O1  1  0.58611998  0.97184184  0.27326484  1
  O  O2  1  0.08611998  0.52815816  0.77326484  1
  O  O3  1  0.41388002  0.02815816  0.72673516  1
  O  O4  1  0.76423864  0.19177334  0.54126949  1
  O  O5  1  0.73576136  0.69177334  0.95873051  1
  O  O6  1  0.23576136  0.80822666  0.45873051  1
  O  O7  1  0.26423864  0.30822666  0.04126949  1
  O  O8  1  0.18945144  0.76486844  0.05067247  1
  O  O9  1  0.31054856  0.26486844  0.44932753  1
  O  O10  1  0.81054856  0.23513156  0.94932753  1
  O  O11  1  0.68945144  0.73513156  0.55067247  1
loop_
_geom_bond_atom_site_label_1
_geom_bond_atom_site_label_2
_geom_bond_distance
_geom_bond_site_symmetry_2
Ba0 O2 2.672188 1_555
Ba0 O11 2.696545 1_555
Ba0 O5 2.716172 1_555
Ba0 O3 2.834176 1_555
Ba0 O10 2.961805 1_555
Ba0 O4 3.006496 1_555
Ba0 O7 3.155722 1_556
Ba0 O9 3.196680 1_555
Ba1 O3 2.672188 1_665
Ba1 O10 2.696545 1_565
Ba1 O4 2.716172 1_565
Ba1 O2 2.834176 1_655
Ba1 O11 2.961805 1_555
Ba1 O5 3.006496 1_555
Ba1 O6 3.155722 1_655
Ba1 O8 3.196680 1_656
Ba2 O1 2.672188 1_445
Ba2 O8 2.696545 1_545
Ba2 O6 2.716172 1_545
Ba2 O0 2.834176 1_455
Ba2 O9 2.961805 1_555
Ba2 O7 3.006496 1_555
Ba2 O4 3.155722 1_455
Ba2 O10 3.196680 1_454
Ba3 O0 2.672188 1_555
Ba3 O9 2.696545 1_555
Ba3 O7 2.716172 1_555
Ba3 O1 2.834176 1_555
Ba3 O8 2.961805 1_555
Ba3 O6 3.006496 1_555
Ba3 O5 3.155722 1_554
Ba3 O11 3.196680 1_555
O0 U0 2.085653 1_655
O0 Sr0 2.479161 1_655
O1 U1 2.085653 1_565
O1 Sr1 2.479161 1_565
O2 U0 2.085653 1_556
O2 Sr0 2.479161 1_555
O3 U1 2.085653 1_555
O3 Sr1 2.479161 1_556
O4 U1 2.076650 1_555
O4 Sr0 2.464080 1_655
O5 U0 2.076650 1_656
O5 Sr1 2.464080 1_566
O6 U1 2.076650 1_565
O6 Sr0 2.464080 1_555
O7 U0 2.076650 1_555
O7 Sr1 2.464080 1_555
O8 U0 2.091866 1_555
O8 Sr1 2.483348 1_565
O9 U1 2.091866 1_555
O9 Sr0 2.483348 1_555
O10 U0 2.091866 1_656
O10 Sr1 2.483348 1_556
O11 U1 2.091866 1_565
O11 Sr0 2.483348 1_655
