# generated using pymatgen
data_Mg3Te2Pb6WO18
_symmetry_space_group_name_H-M   'P 1'
_cell_length_a   5.71493038
_cell_length_b   5.71493038
_cell_length_c   13.98936300
_cell_angle_alpha   90.00000000
_cell_angle_beta   90.00000000
_cell_angle_gamma   120.00000440
_symmetry_Int_Tables_number   1
_chemical_formula_structural   Mg3Te2Pb6WO18
_chemical_formula_sum   'Mg3 Te2 Pb6 W1 O18'
_cell_volume   395.68577747
_cell_formula_units_Z   1
loop_
 _symmetry_equiv_pos_site_id
 _symmetry_equiv_pos_as_xyz
  1  'x, y, z'
loop_
 _atom_site_type_symbol
 _atom_site_label
 _atom_site_symmetry_multiplicity
 _atom_site_fract_x
 _atom_site_fract_y
 _atom_site_fract_z
 _atom_site_occupancy
  Mg  Mg0  1  0.00000000  0.00000000  0.50000000  1
  Mg  Mg1  1  0.33333300  0.66666700  0.16609100  1
  Mg  Mg2  1  0.66666700  0.33333300  0.83390900  1
  Te  Te0  1  0.33333300  0.66666700  0.66651200  1
  Te  Te1  1  0.66666700  0.33333300  0.33348800  1
  Pb  Pb0  1  0.33333300  0.66666700  0.41656600  1
  Pb  Pb1  1  0.66666700  0.33333300  0.08369000  1
  Pb  Pb2  1  0.00000000  0.00000000  0.74963600  1
  Pb  Pb3  1  0.00000000  0.00000000  0.25036400  1
  Pb  Pb4  1  0.33333300  0.66666700  0.91631000  1
  Pb  Pb5  1  0.66666700  0.33333300  0.58343400  1
  W  W0  1  0.00000000  0.00000000  0.00000000  1
  O  O0  1  0.82745200  0.17254800  0.41366700  1
  O  O1  1  0.16145500  0.83854500  0.08077700  1
  O  O2  1  0.49376200  0.50623800  0.74697600  1
  O  O3  1  0.50623800  0.01247600  0.25302400  1
  O  O4  1  0.83854500  0.67709100  0.91922300  1
  O  O5  1  0.17254800  0.34509600  0.58633300  1
  O  O6  1  0.34509600  0.17254800  0.41366700  1
  O  O7  1  0.67709100  0.83854500  0.08077700  1
  O  O8  1  0.01247600  0.50623800  0.74697600  1
  O  O9  1  0.50623800  0.49376200  0.25302400  1
  O  O10  1  0.83854500  0.16145500  0.91922300  1
  O  O11  1  0.17254800  0.82745200  0.58633300  1
  O  O12  1  0.82745200  0.65490400  0.41366700  1
  O  O13  1  0.16145500  0.32290900  0.08077700  1
  O  O14  1  0.49376200  0.98752400  0.74697600  1
  O  O15  1  0.98752400  0.49376200  0.25302400  1
  O  O16  1  0.32290900  0.16145500  0.91922300  1
  O  O17  1  0.65490400  0.82745200  0.58633300  1
loop_
_geom_bond_atom_site_label_1
_geom_bond_atom_site_label_2
_geom_bond_distance
_geom_bond_site_symmetry_2
Mg0 O17 2.091847 1_445
Mg0 O12 2.091847 1_445
Mg0 O6 2.091847 1_555
Mg0 O5 2.091847 1_555
Mg0 O0 2.091847 1_455
Mg0 O11 2.091847 1_545
Mg1 O1 2.078216 1_555
Mg1 O13 2.078224 1_555
Mg1 O7 2.078224 1_555
Mg1 O3 2.099580 1_565
Mg1 O15 2.099580 1_455
Mg1 O9 2.099584 1_555
Mg2 O10 2.078216 1_555
Mg2 O16 2.078224 1_555
Mg2 O4 2.078224 1_555
Mg2 O8 2.099580 1_655
Mg2 O14 2.099580 1_545
Mg2 O2 2.099584 1_555
O0 Te1 1.947075 1_555
O0 Pb3 2.852392 1_655
O0 Pb0 2.858346 1_655
O0 Pb0 2.858346 1_545
O0 Pb5 2.858898 1_555
O1 W0 1.957317 1_565
O1 Pb1 2.858221 1_455
O1 Pb1 2.858221 1_565
O1 Pb3 2.860506 1_565
O1 Pb4 2.861502 1_554
O2 Te0 1.946498 1_555
O2 Pb4 2.851904 1_555
O2 Pb5 2.857186 1_555
O2 Pb2 2.858374 1_555
O2 Pb2 2.858374 1_665
O3 Te1 1.946494 1_555
O3 Pb1 2.851901 1_555
O3 Pb0 2.857183 1_545
O3 Pb3 2.858374 1_555
O3 Pb3 2.858374 1_655
O4 W0 1.957313 1_666
O4 Pb4 2.858221 1_555
O4 Pb4 2.858221 1_655
O4 Pb2 2.860504 1_665
O4 Pb1 2.861508 1_556
O5 Te0 1.947079 1_555
O5 Pb2 2.852392 1_555
O5 Pb5 2.858343 1_455
O5 Pb5 2.858349 1_555
O5 Pb0 2.858901 1_555
O6 Te1 1.947079 1_555
O6 Pb3 2.852392 1_555
O6 Pb0 2.858343 1_545
O6 Pb0 2.858349 1_555
O6 Pb5 2.858901 1_555
O7 W0 1.957313 1_665
O7 Pb1 2.858221 1_555
O7 Pb1 2.858221 1_565
O7 Pb3 2.860504 1_665
O7 Pb4 2.861508 1_554
O8 Te0 1.946494 1_555
O8 Pb4 2.851901 1_555
O8 Pb5 2.857183 1_455
O8 Pb2 2.858374 1_555
O8 Pb2 2.858374 1_565
O9 Te1 1.946498 1_555
O9 Pb1 2.851904 1_555
O9 Pb0 2.857186 1_555
O9 Pb3 2.858374 1_555
O9 Pb3 2.858374 1_665
O10 W0 1.957317 1_656
O10 Pb4 2.858221 1_545
O10 Pb4 2.858221 1_655
O10 Pb2 2.860506 1_655
O10 Pb1 2.861502 1_556
O11 Te0 1.947075 1_555
O11 Pb2 2.852392 1_565
O11 Pb5 2.858346 1_455
O11 Pb5 2.858346 1_565
O11 Pb0 2.858898 1_555
O12 Te1 1.947079 1_555
O12 Pb3 2.852392 1_665
O12 Pb0 2.858343 1_655
O12 Pb0 2.858349 1_555
O12 Pb5 2.858901 1_555
O13 W0 1.957313 1_555
O13 Pb1 2.858221 1_555
O13 Pb1 2.858221 1_455
O13 Pb3 2.860504 1_555
O13 Pb4 2.861508 1_554
O14 Te0 1.946494 1_555
O14 Pb4 2.851901 1_555
O14 Pb5 2.857183 1_565
O14 Pb2 2.858374 1_665
O14 Pb2 2.858374 1_565
O15 Te1 1.946494 1_555
O15 Pb1 2.851901 1_555
O15 Pb0 2.857183 1_655
O15 Pb3 2.858374 1_665
O15 Pb3 2.858374 1_655
O16 W0 1.957313 1_556
O16 Pb4 2.858221 1_555
O16 Pb4 2.858221 1_545
O16 Pb2 2.860504 1_555
O16 Pb1 2.861508 1_556
O17 Te0 1.947079 1_555
O17 Pb2 2.852392 1_665
O17 Pb5 2.858343 1_565
O17 Pb5 2.858349 1_555
O17 Pb0 2.858901 1_555
