# generated using pymatgen
data_Te3MoWS
_symmetry_space_group_name_H-M   'P 1'
_cell_length_a   3.45920571
_cell_length_b   3.45920571
_cell_length_c   37.26117417
_cell_angle_alpha   90.00000000
_cell_angle_beta   90.00000000
_cell_angle_gamma   120.00000710
_symmetry_Int_Tables_number   1
_chemical_formula_structural   Te3MoWS
_chemical_formula_sum   'Te6 Mo2 W2 S2'
_cell_volume   386.13566396
_cell_formula_units_Z   2
loop_
 _symmetry_equiv_pos_site_id
 _symmetry_equiv_pos_as_xyz
  1  'x, y, z'
loop_
 _atom_site_type_symbol
 _atom_site_label
 _atom_site_symmetry_multiplicity
 _atom_site_fract_x
 _atom_site_fract_y
 _atom_site_fract_z
 _atom_site_occupancy
  Te  Te0  1  0.33333300  0.66666700  0.71062258  1
  Te  Te1  1  0.66666700  0.33333300  0.04645275  1
  Te  Te2  1  0.66666700  0.33333300  0.41492037  1
  Te  Te3  1  0.66666700  0.33333300  0.14508048  1
  Te  Te4  1  0.66666700  0.33333300  0.51301242  1
  Te  Te5  1  0.33333300  0.66666700  0.61209206  1
  Mo  Mo0  1  0.33333300  0.66666700  0.46399840  1
  Mo  Mo1  1  0.66666700  0.33333300  0.28180400  1
  W  W0  1  0.33333300  0.66666700  0.09574319  1
  W  W1  1  0.66666700  0.33333300  0.66140887  1
  S  S0  1  0.33333300  0.66666700  0.32137849  1
  S  S1  1  0.33333300  0.66666700  0.24223541  1
loop_
_geom_bond_atom_site_label_1
_geom_bond_atom_site_label_2
_geom_bond_distance
_geom_bond_site_symmetry_2
Te0 W1 2.711341 1_565
Te0 W1 2.711341 1_455
Te0 W1 2.711346 1_555
Te1 W0 2.713276 1_545
Te1 W0 2.713276 1_655
Te1 W0 2.713280 1_555
Te3 W0 2.714458 1_545
Te3 W0 2.714458 1_655
Te3 W0 2.714462 1_555
Te5 W1 2.713941 1_455
Te5 W1 2.713941 1_565
Te5 W1 2.713945 1_555
Mo0 Te4 2.706314 1_455
Mo0 Te4 2.706314 1_565
Mo0 Te4 2.706319 1_555
Mo0 Te2 2.707924 1_455
Mo0 Te2 2.707924 1_565
Mo0 Te2 2.707929 1_555
Mo1 S1 2.482431 1_545
Mo1 S1 2.482431 1_655
Mo1 S1 2.482436 1_555
Mo1 S0 2.482562 1_545
Mo1 S0 2.482562 1_655
Mo1 S0 2.482567 1_555
