# generated using pymatgen
data_Sr4LiMn2Cu3(SO)4
_symmetry_space_group_name_H-M   'P 1'
_cell_length_a   5.91148118
_cell_length_b   5.90005843
_cell_length_c   9.35569443
_cell_angle_alpha   91.18388020
_cell_angle_beta   71.59014073
_cell_angle_gamma   93.83719223
_symmetry_Int_Tables_number   1
_chemical_formula_structural   Sr4LiMn2Cu3(SO)4
_chemical_formula_sum   'Sr4 Li1 Mn2 Cu3 S4 O4'
_cell_volume   308.91466187
_cell_formula_units_Z   1
loop_
 _symmetry_equiv_pos_site_id
 _symmetry_equiv_pos_as_xyz
  1  'x, y, z'
loop_
 _atom_site_type_symbol
 _atom_site_label
 _atom_site_symmetry_multiplicity
 _atom_site_fract_x
 _atom_site_fract_y
 _atom_site_fract_z
 _atom_site_occupancy
  Sr  Sr0  1  0.45529300  0.96557500  0.16788500  1
  Sr  Sr1  1  0.87704700  0.53402300  0.16762900  1
  Sr  Sr2  1  0.08947700  0.52036000  0.78940400  1
  Sr  Sr3  1  0.62083400  0.97966300  0.79002000  1
  Li  Li0  1  0.12026900  0.24997000  0.26042000  1
  Mn  Mn0  1  0.50105600  0.48497900  0.96915800  1
  Mn  Mn1  1  0.03006100  0.01500500  0.96886100  1
  Cu  Cu0  1  0.50247500  0.24936000  0.49776800  1
  Cu  Cu1  1  0.50201800  0.74942200  0.49720400  1
  Cu  Cu2  1  0.98408100  0.25161800  0.52588500  1
  S  S0  1  0.17527800  0.01482500  0.66685700  1
  S  S1  1  0.65744800  0.48641400  0.66731300  1
  S  S2  1  0.32558700  0.49530900  0.37116900  1
  S  S3  1  0.80398700  0.00357000  0.36984800  1
  O  O0  1  0.21995000  0.24990900  0.06014600  1
  O  O1  1  0.75384100  0.75006700  0.99229100  1
  O  O2  1  0.75798300  0.25001100  0.98404500  1
  O  O3  1  0.25873000  0.74991900  0.98266800  1
loop_
_geom_bond_atom_site_label_1
_geom_bond_atom_site_label_2
_geom_bond_distance
_geom_bond_site_symmetry_2
Li0 O0 1.777811 1_555
Li0 S2 2.266985 1_555
Li0 S3 2.268483 1_455
Mn0 O0 2.063118 1_556
Mn0 O1 2.145588 1_555
Mn0 O2 2.161369 1_555
Mn0 O3 2.165341 1_555
Mn0 S1 2.679645 1_555
Mn1 O0 2.063655 1_556
Mn1 O1 2.145741 1_445
Mn1 O2 2.162320 1_455
Mn1 O3 2.166045 1_545
Mn1 S0 2.681069 1_555
Cu0 S3 2.374676 1_555
Cu0 S2 2.378739 1_555
Cu0 S0 2.440929 1_555
Cu0 S1 2.442580 1_555
Cu1 S2 2.284830 1_555
Cu1 S3 2.286223 1_565
Cu1 S1 2.646042 1_555
Cu1 S0 2.658527 1_565
Cu2 Li0 2.356624 1_655
Cu2 S1 2.463067 1_555
Cu2 S2 2.467751 1_655
Cu2 S3 2.468035 1_555
Cu2 S0 2.489551 1_655
Cu2 Sr3 3.105366 1_545
Cu2 Sr2 3.107565 1_655
S0 Sr3 3.105925 1_445
S0 Sr2 3.107358 1_545
S0 Sr2 3.187796 1_555
S0 Sr3 3.210633 1_545
S1 Sr3 3.102149 1_555
S1 Sr2 3.103559 1_655
S1 Sr3 3.194106 1_545
S1 Sr2 3.205645 1_555
S2 Sr1 3.209820 1_555
S2 Sr0 3.303880 1_555
S3 Sr0 3.201585 1_545
S3 Sr1 3.296687 1_545
O0 Sr1 2.650995 1_455
O0 Sr0 2.652133 1_545
O1 Sr1 2.410704 1_556
O1 Sr0 2.411022 1_556
O1 Sr3 2.687500 1_555
O1 Sr2 2.692818 1_655
O2 Sr1 2.596171 1_556
O2 Sr0 2.598036 1_546
O2 Sr3 2.670860 1_545
O2 Sr2 2.673604 1_655
O3 Sr3 2.635084 1_555
O3 Sr1 2.635946 1_456
O3 Sr0 2.637168 1_556
O3 Sr2 2.639108 1_555
