# generated using pymatgen
data_Er2NiGe6
_symmetry_space_group_name_H-M   'P 1'
_cell_length_a   4.01782300
_cell_length_b   4.04580000
_cell_length_c   10.86038925
_cell_angle_alpha   90.00000000
_cell_angle_beta   100.65973120
_cell_angle_gamma   90.00000000
_symmetry_Int_Tables_number   1
_chemical_formula_structural   Er2NiGe6
_chemical_formula_sum   'Er2 Ni1 Ge6'
_cell_volume   173.49245027
_cell_formula_units_Z   1
loop_
 _symmetry_equiv_pos_site_id
 _symmetry_equiv_pos_as_xyz
  1  'x, y, z'
loop_
 _atom_site_type_symbol
 _atom_site_label
 _atom_site_symmetry_multiplicity
 _atom_site_fract_x
 _atom_site_fract_y
 _atom_site_fract_z
 _atom_site_occupancy
  Er  Er0  1  0.77680600  0.50000000  0.55361100  1
  Er  Er1  1  0.11393400  0.50000000  0.22786800  1
  Ni  Ni0  1  0.55601900  0.00000000  0.11203900  1
  Ge  Ge0  1  0.49854600  0.50000000  0.99709200  1
  Ge  Ge1  1  0.38112200  0.50000000  0.76224300  1
  Ge  Ge2  1  0.99844700  0.00000000  0.99689400  1
  Ge  Ge3  1  0.88019600  0.00000000  0.76039200  1
  Ge  Ge4  1  0.66352500  0.00000000  0.32705000  1
  Ge  Ge5  1  0.23840500  0.00000000  0.47681000  1
loop_
_geom_bond_atom_site_label_1
_geom_bond_atom_site_label_2
_geom_bond_distance
_geom_bond_site_symmetry_2
Er0 Ge5 2.966436 1_655
Er0 Ge5 2.966436 1_665
Er0 Ge5 2.966439 1_565
Er0 Ge5 2.966439 1_555
Er0 Ge3 2.993799 1_555
Er0 Ge3 2.993799 1_565
Er0 Ge1 2.999004 1_555
Er0 Ge1 2.999004 1_655
Er0 Ge4 3.152655 1_565
Er0 Ge4 3.152655 1_555
Er1 Ge4 3.041120 1_465
Er1 Ge4 3.041120 1_455
Er1 Ge4 3.041120 1_565
Er1 Ge4 3.041120 1_555
Er1 Ni0 3.107431 1_555
Er1 Ni0 3.107431 1_565
Er1 Ni0 3.107434 1_465
Er1 Ni0 3.107434 1_455
Er1 Ge0 3.178430 1_554
Er1 Ge0 3.178430 1_454
Er1 Ge2 3.188923 1_464
Er1 Ge2 3.188923 1_454
Er1 Ge5 3.339388 1_555
Er1 Ge5 3.339388 1_565
Ge0 Ni0 2.365846 1_566
Ge0 Ni0 2.365846 1_556
Ge0 Ge1 2.506537 1_555
Ge0 Ge2 2.850939 1_555
Ge0 Ge2 2.850939 1_565
Ge0 Ge2 2.850939 1_455
Ge0 Ge2 2.850939 1_465
Ge1 Ge3 2.851005 1_555
Ge1 Ge3 2.851005 1_565
Ge1 Ge3 2.851008 1_465
Ge1 Ge3 2.851008 1_455
Ge2 Ni0 2.354997 1_656
Ge2 Ni0 2.355000 1_556
Ge2 Ge3 2.524179 1_555
Ge4 Ni0 2.294806 1_555
Ge4 Ge5 2.567208 1_555
Ge4 Ge5 2.567208 1_655
