# generated using pymatgen
data_YbUTe6
_symmetry_space_group_name_H-M   'P 1'
_cell_length_a   13.16956736
_cell_length_b   13.16956736
_cell_length_c   4.35694525
_cell_angle_alpha   90.00000000
_cell_angle_beta   90.00000000
_cell_angle_gamma   160.96394957
_symmetry_Int_Tables_number   1
_chemical_formula_structural   YbUTe6
_chemical_formula_sum   'Yb1 U1 Te6'
_cell_volume   246.46759301
_cell_formula_units_Z   1
loop_
 _symmetry_equiv_pos_site_id
 _symmetry_equiv_pos_as_xyz
  1  'x, y, z'
loop_
 _atom_site_type_symbol
 _atom_site_label
 _atom_site_symmetry_multiplicity
 _atom_site_fract_x
 _atom_site_fract_y
 _atom_site_fract_z
 _atom_site_occupancy
  Yb  Yb0  1  0.16982522  0.83017478  0.50000000  1
  U  U0  1  0.83066603  0.16933397  0.00000000  1
  Te  Te0  1  0.42519671  0.57480329  0.00000000  1
  Te  Te1  1  0.57601269  0.42398731  0.50000000  1
  Te  Te2  1  0.70520464  0.29479536  0.00000000  1
  Te  Te3  1  0.29218490  0.70781510  0.50000000  1
  Te  Te4  1  0.07580057  0.92419943  0.00000000  1
  Te  Te5  1  0.92510924  0.07489076  0.50000000  1
loop_
_geom_bond_atom_site_label_1
_geom_bond_atom_site_label_2
_geom_bond_distance
_geom_bond_site_symmetry_2
Te0 Te5 3.080274 1_564
Te0 Te5 3.080274 1_565
Te0 Te5 3.080274 1_455
Te0 Te5 3.080274 1_454
Te0 U0 3.282105 1_565
Te0 U0 3.282105 1_455
Te1 Te4 3.080278 1_656
Te1 Te4 3.080278 1_545
Te1 Te4 3.080278 1_655
Te1 Te4 3.080278 1_546
Te1 Yb0 3.268172 1_545
Te1 Yb0 3.268172 1_655
Te2 Yb0 3.214453 1_544
Te2 Yb0 3.214453 1_655
Te2 Yb0 3.214453 1_654
Te2 Yb0 3.214453 1_545
Te2 U0 3.259053 1_555
Te3 Yb0 3.178481 1_555
Te3 U0 3.238410 1_456
Te3 U0 3.238410 1_455
Te3 U0 3.238410 1_566
Te3 U0 3.238410 1_565
Te4 Yb0 3.272802 1_555
Te4 Yb0 3.272802 1_554
Te5 U0 3.280924 1_556
Te5 U0 3.280924 1_555
