# generated using pymatgen
data_K(MoS)3
_symmetry_space_group_name_H-M   'P 1'
_cell_length_a   9.59154644
_cell_length_b   9.59154644
_cell_length_c   4.47621600
_cell_angle_alpha   90.00000000
_cell_angle_beta   90.00000000
_cell_angle_gamma   120.00000300
_symmetry_Int_Tables_number   1
_chemical_formula_structural   K(MoS)3
_chemical_formula_sum   'K2 Mo6 S6'
_cell_volume   356.63086024
_cell_formula_units_Z   2
loop_
 _symmetry_equiv_pos_site_id
 _symmetry_equiv_pos_as_xyz
  1  'x, y, z'
loop_
 _atom_site_type_symbol
 _atom_site_label
 _atom_site_symmetry_multiplicity
 _atom_site_fract_x
 _atom_site_fract_y
 _atom_site_fract_z
 _atom_site_occupancy
  K  K0  1  0.33333300  0.66666700  0.75000000  1
  K  K1  1  0.66666700  0.33333300  0.25000000  1
  Mo  Mo0  1  0.97745400  0.82874800  0.75000000  1
  Mo  Mo1  1  0.85129300  0.02254600  0.75000000  1
  Mo  Mo2  1  0.17125200  0.14870700  0.75000000  1
  Mo  Mo3  1  0.02254600  0.17125200  0.25000000  1
  Mo  Mo4  1  0.14870700  0.97745400  0.25000000  1
  Mo  Mo5  1  0.82874800  0.85129300  0.25000000  1
  S  S0  1  0.27736100  0.95881600  0.75000000  1
  S  S1  1  0.68145500  0.72263900  0.75000000  1
  S  S2  1  0.04118400  0.31854500  0.75000000  1
  S  S3  1  0.72263900  0.04118400  0.25000000  1
  S  S4  1  0.31854500  0.27736100  0.25000000  1
  S  S5  1  0.95881600  0.68145500  0.25000000  1
loop_
_geom_bond_atom_site_label_1
_geom_bond_atom_site_label_2
_geom_bond_distance
_geom_bond_site_symmetry_2
K0 S0 3.105589 1_555
K0 S2 3.105595 1_555
K0 S1 3.105599 1_555
K1 S3 3.105589 1_555
K1 S5 3.105595 1_555
K1 S4 3.105599 1_555
Mo0 S1 2.491336 1_555
Mo0 S0 2.498475 1_655
Mo0 S5 2.604696 1_556
Mo0 S5 2.604696 1_555
Mo1 S2 2.491337 1_655
Mo1 S1 2.498474 1_545
Mo1 S3 2.604691 1_555
Mo1 S3 2.604691 1_556
Mo2 S0 2.491345 1_545
Mo2 S2 2.498467 1_555
Mo2 S4 2.604694 1_555
Mo2 S4 2.604694 1_556
Mo3 S4 2.491336 1_555
Mo3 S3 2.498475 1_455
Mo3 S2 2.604696 1_555
Mo3 S2 2.604696 1_554
Mo4 S5 2.491337 1_455
Mo4 S4 2.498474 1_565
Mo4 S0 2.604691 1_554
Mo4 S0 2.604691 1_555
Mo5 S3 2.491345 1_565
Mo5 S5 2.498467 1_555
Mo5 S1 2.604694 1_555
Mo5 S1 2.604694 1_554
