# generated using pymatgen
data_TiFeP
_symmetry_space_group_name_H-M   'P 1'
_cell_length_a   3.59870097
_cell_length_b   5.95170157
_cell_length_c   6.84421131
_cell_angle_alpha   90.00000000
_cell_angle_beta   90.00000000
_cell_angle_gamma   90.00000000
_symmetry_Int_Tables_number   1
_chemical_formula_structural   TiFeP
_chemical_formula_sum   'Ti4 Fe4 P4'
_cell_volume   146.59201592
_cell_formula_units_Z   4
loop_
 _symmetry_equiv_pos_site_id
 _symmetry_equiv_pos_as_xyz
  1  'x, y, z'
loop_
 _atom_site_type_symbol
 _atom_site_label
 _atom_site_symmetry_multiplicity
 _atom_site_fract_x
 _atom_site_fract_y
 _atom_site_fract_z
 _atom_site_occupancy
  Ti  Ti0  1  0.75000000  0.47748293  0.67978852  1
  Ti  Ti1  1  0.75000000  0.97741756  0.82022202  1
  Ti  Ti2  1  0.25000000  0.52258244  0.32022202  1
  Ti  Ti3  1  0.25000000  0.02251707  0.17978852  1
  Fe  Fe0  1  0.75000000  0.35303789  0.06051017  1
  Fe  Fe1  1  0.75000000  0.85300297  0.43947477  1
  Fe  Fe2  1  0.25000000  0.64699703  0.93947477  1
  Fe  Fe3  1  0.25000000  0.14696211  0.56051017  1
  P  P0  1  0.75000000  0.72594302  0.12282745  1
  P  P1  1  0.75000000  0.22592565  0.37717807  1
  P  P2  1  0.25000000  0.27407435  0.87717807  1
  P  P3  1  0.25000000  0.77405698  0.62282745  1
loop_
_geom_bond_atom_site_label_1
_geom_bond_atom_site_label_2
_geom_bond_distance
_geom_bond_site_symmetry_2
Fe0 P2 2.243427 1_654
Fe0 P2 2.243427 1_554
Fe0 P0 2.260031 1_555
Fe0 P1 2.295586 1_555
Fe0 Ti0 2.708958 1_554
Fe0 Ti2 2.723140 1_555
Fe0 Ti2 2.723140 1_655
Fe0 Ti1 2.775333 1_544
Fe0 Ti3 2.788161 1_555
Fe0 Ti3 2.788161 1_655
Fe1 P3 2.243484 1_555
Fe1 P3 2.243484 1_655
Fe1 P1 2.260107 1_565
Fe1 P0 2.295351 1_555
Fe1 Ti1 2.709077 1_555
Fe1 Ti3 2.722958 1_565
Fe1 Ti3 2.722958 1_665
Fe1 Ti0 2.774956 1_555
Fe1 Ti2 2.787688 1_655
Fe1 Ti2 2.787688 1_555
Fe2 P0 2.243484 1_456
Fe2 P0 2.243484 1_556
Fe2 P2 2.260107 1_555
Fe2 P3 2.295351 1_555
Fe2 Ti2 2.709077 1_556
Fe2 Ti0 2.722958 1_555
Fe2 Ti0 2.722958 1_455
Fe2 Ti3 2.774956 1_566
Fe2 Ti1 2.787688 1_455
Fe2 Ti1 2.787688 1_555
Fe3 P1 2.243427 1_555
Fe3 P1 2.243427 1_455
Fe3 P3 2.260031 1_545
Fe3 P2 2.295586 1_555
Fe3 Ti3 2.708958 1_555
Fe3 Ti1 2.723140 1_545
Fe3 Ti1 2.723140 1_445
Fe3 Ti2 2.775333 1_555
Fe3 Ti0 2.788161 1_555
Fe3 Ti0 2.788161 1_455
P0 Ti3 2.550548 1_565
P0 Ti3 2.550548 1_665
P0 Ti2 2.554959 1_555
P0 Ti2 2.554959 1_655
P0 Ti1 2.555299 1_554
P1 Ti2 2.550884 1_655
P1 Ti2 2.550884 1_555
P1 Ti3 2.555076 1_555
P1 Ti3 2.555076 1_655
P1 Ti0 2.555615 1_555
P2 Ti1 2.550884 1_545
P2 Ti1 2.550884 1_445
P2 Ti0 2.555076 1_555
P2 Ti0 2.555076 1_455
P2 Ti3 2.555615 1_556
P3 Ti0 2.550548 1_455
P3 Ti0 2.550548 1_555
P3 Ti1 2.554959 1_455
P3 Ti1 2.554959 1_555
P3 Ti2 2.555299 1_555
