# generated using pymatgen
data_MgSi2
_symmetry_space_group_name_H-M   'P 1'
_cell_length_a   6.17584300
_cell_length_b   7.32772702
_cell_length_c   9.83549776
_cell_angle_alpha   89.07344179
_cell_angle_beta   85.79578928
_cell_angle_gamma   79.76488005
_symmetry_Int_Tables_number   1
_chemical_formula_structural   MgSi2
_chemical_formula_sum   'Mg8 Si16'
_cell_volume   436.84046729
_cell_formula_units_Z   8
loop_
 _symmetry_equiv_pos_site_id
 _symmetry_equiv_pos_as_xyz
  1  'x, y, z'
loop_
 _atom_site_type_symbol
 _atom_site_label
 _atom_site_symmetry_multiplicity
 _atom_site_fract_x
 _atom_site_fract_y
 _atom_site_fract_z
 _atom_site_occupancy
  Mg  Mg0  1  0.66769100  0.04452700  0.71943100  1
  Mg  Mg1  1  0.33230900  0.95547300  0.28056900  1
  Mg  Mg2  1  0.22275500  0.59089100  0.02495500  1
  Mg  Mg3  1  0.44627500  0.35537800  0.26137900  1
  Mg  Mg4  1  0.14554500  0.02784800  0.85583500  1
  Mg  Mg5  1  0.85445500  0.97215200  0.14416500  1
  Mg  Mg6  1  0.55372500  0.64462200  0.73862100  1
  Mg  Mg7  1  0.77724500  0.40910900  0.97504500  1
  Si  Si0  1  0.48753900  0.34778800  0.55018500  1
  Si  Si1  1  0.11724500  0.22791700  0.10526400  1
  Si  Si2  1  0.52307500  0.83074700  0.00368500  1
  Si  Si3  1  0.73331500  0.11270200  0.41369900  1
  Si  Si4  1  0.30818100  0.36370500  0.78696800  1
  Si  Si5  1  0.82949900  0.78779000  0.48870300  1
  Si  Si6  1  0.26668500  0.88729800  0.58630100  1
  Si  Si7  1  0.97200600  0.34360900  0.32347500  1
  Si  Si8  1  0.88275500  0.77208300  0.89473600  1
  Si  Si9  1  0.17050100  0.21221000  0.51129700  1
  Si  Si10  1  0.02799400  0.65639100  0.67652500  1
  Si  Si11  1  0.69181900  0.63629500  0.21303200  1
  Si  Si12  1  0.93910200  0.32958300  0.70608200  1
  Si  Si13  1  0.47692500  0.16925300  0.99631500  1
  Si  Si14  1  0.06089800  0.67041700  0.29391800  1
  Si  Si15  1  0.51246100  0.65221200  0.44981500  1
loop_
_geom_bond_atom_site_label_1
_geom_bond_atom_site_label_2
_geom_bond_distance
_geom_bond_site_symmetry_2
Mg0 Si8 2.829268 1_545
Mg0 Si0 2.867111 1_555
Mg0 Si12 2.897088 1_555
Mg0 Si5 2.970723 1_545
Mg0 Si4 2.971474 1_555
Mg0 Si13 2.977762 1_555
Mg0 Si3 3.049706 1_555
Mg1 Si1 2.829268 1_565
Mg1 Si15 2.867111 1_555
Mg1 Si14 2.897088 1_555
Mg1 Si9 2.970723 1_565
Mg1 Si11 2.971474 1_555
Mg1 Si2 2.977762 1_555
Mg1 Si6 3.049706 1_555
Mg2 Si8 2.675983 1_454
Mg2 Si2 2.768147 1_555
Mg2 Si14 2.791413 1_555
Mg2 Si4 2.856845 1_554
Mg2 Si1 2.931794 1_555
Mg3 Si3 2.780672 1_555
Mg3 Si11 2.781188 1_555
Mg3 Si0 2.869278 1_555
Mg3 Si1 2.921906 1_555
Mg3 Si13 2.939985 1_554
Mg3 Si7 2.964005 1_455
Mg3 Si15 2.981709 1_555
Mg3 Si14 3.009298 1_555
Mg3 Si9 3.159291 1_555
Mg4 Si8 2.694364 1_445
Mg4 Si12 2.802111 1_455
Mg4 Si1 2.856698 1_556
Mg4 Si6 2.858657 1_545
Mg4 Si4 2.872159 1_555
Mg4 Si13 2.895793 1_555
Mg4 Si2 2.978141 1_546
Mg5 Si1 2.694364 1_665
Mg5 Si14 2.802111 1_655
Mg5 Si8 2.856698 1_554
Mg5 Si3 2.858657 1_565
Mg5 Si11 2.872159 1_555
Mg5 Si2 2.895793 1_555
Mg5 Si13 2.978141 1_564
Mg6 Si6 2.780672 1_555
Mg6 Si4 2.781188 1_555
Mg6 Si15 2.869278 1_555
Mg6 Si8 2.921906 1_555
Mg6 Si2 2.939985 1_556
Mg6 Si10 2.964005 1_655
Mg6 Si0 2.981709 1_555
Mg6 Si12 3.009298 1_555
Mg6 Si5 3.159291 1_555
Mg7 Si1 2.675983 1_656
Mg7 Si13 2.768147 1_555
Mg7 Si12 2.791413 1_555
Mg7 Si11 2.856845 1_556
Mg7 Si8 2.931794 1_555
Si0 Si9 2.404234 1_555
Si0 Si3 2.433170 1_555
Si0 Si15 2.450088 1_555
Si0 Si4 2.499777 1_555
Si1 Si13 2.365140 1_554
Si1 Si7 2.373992 1_455
Si2 Si8 2.365140 1_554
Si3 Si5 2.463825 1_545
Si3 Si7 2.543516 1_555
Si6 Si9 2.463825 1_565
Si7 Si9 2.386946 1_655
Si10 Si8 2.373992 1_455
Si10 Si5 2.386946 1_455
Si10 Si6 2.543516 1_555
Si10 Si12 2.557745 1_455
Si10 Si4 2.766846 1_555
Si11 Si15 2.499777 1_555
Si11 Si14 2.523058 1_655
Si11 Si2 2.654807 1_555
Si11 Si7 2.766846 1_555
Si12 Si9 2.380628 1_655
Si12 Si4 2.523058 1_655
Si13 Si2 2.446475 1_546
Si13 Si4 2.654807 1_555
Si14 Si5 2.380628 1_455
Si14 Si7 2.557745 1_455
Si15 Si5 2.404234 1_555
Si15 Si6 2.433170 1_555
