# generated using pymatgen
data_Bi2Pd3PtO8
_symmetry_space_group_name_H-M   'P 1'
_cell_length_a   5.82803051
_cell_length_b   6.19069120
_cell_length_c   6.51582179
_cell_angle_alpha   114.94327956
_cell_angle_beta   95.51734390
_cell_angle_gamma   111.87348201
_symmetry_Int_Tables_number   1
_chemical_formula_structural   Bi2Pd3PtO8
_chemical_formula_sum   'Bi2 Pd3 Pt1 O8'
_cell_volume   188.64171525
_cell_formula_units_Z   1
loop_
 _symmetry_equiv_pos_site_id
 _symmetry_equiv_pos_as_xyz
  1  'x, y, z'
loop_
 _atom_site_type_symbol
 _atom_site_label
 _atom_site_symmetry_multiplicity
 _atom_site_fract_x
 _atom_site_fract_y
 _atom_site_fract_z
 _atom_site_occupancy
  Bi  Bi0  1  0.86226100  0.23802900  0.64480500  1
  Bi  Bi1  1  0.13773900  0.76197100  0.35519500  1
  Pd  Pd0  1  0.50000000  0.50000000  0.50000000  1
  Pd  Pd1  1  0.50000000  0.00000000  0.00000000  1
  Pd  Pd2  1  0.00000000  0.00000000  0.00000000  1
  Pt  Pt0  1  0.50000000  0.50000000  0.00000000  1
  O  O0  1  0.64581700  0.39865700  0.22639500  1
  O  O1  1  0.35418300  0.60134300  0.77360500  1
  O  O2  1  0.87460300  0.64502600  0.99121600  1
  O  O3  1  0.12539700  0.35497400  0.00878400  1
  O  O4  1  0.51721600  0.86344600  0.24198100  1
  O  O5  1  0.48278400  0.13655400  0.75801900  1
  O  O6  1  0.83886400  0.86088100  0.64296800  1
  O  O7  1  0.16113600  0.13911900  0.35703200  1
loop_
_geom_bond_atom_site_label_1
_geom_bond_atom_site_label_2
_geom_bond_distance
_geom_bond_site_symmetry_2
Bi0 O6 2.282313 1_545
Bi0 O5 2.345073 1_555
Bi0 O3 2.350685 1_656
Bi0 O2 2.546617 1_555
Bi0 O4 2.585968 1_545
Bi0 O1 2.668891 1_655
Bi0 O7 2.716483 1_655
Bi1 O7 2.282313 1_565
Bi1 O4 2.345073 1_555
Bi1 O2 2.350685 1_454
Bi1 O3 2.546617 1_555
Bi1 O5 2.585968 1_565
Bi1 O0 2.668891 1_455
Bi1 O6 2.716483 1_455
O0 Pd0 2.009798 1_555
O0 Pd1 2.028457 1_555
O0 Pt0 2.056375 1_555
O1 Pd0 2.009798 1_555
O1 Pd1 2.028457 1_566
O1 Pt0 2.056375 1_556
O2 Pd2 2.013888 1_666
O2 Pt0 2.045131 1_556
O3 Pd2 2.013888 1_555
O3 Pt0 2.045131 1_555
O4 Pt0 2.089903 1_555
O4 Pd1 2.089904 1_565
O5 Pt0 2.089903 1_556
O5 Pd1 2.089904 1_556
O6 Pd2 2.079172 1_666
O6 Pd0 2.088679 1_555
O7 Pd2 2.079172 1_555
O7 Pd0 2.088679 1_555
