# generated using pymatgen
data_Mg14ZrNi
_symmetry_space_group_name_H-M   'P 1'
_cell_length_a   6.31391793
_cell_length_b   6.31391743
_cell_length_c   9.99500731
_cell_angle_alpha   90.00000000
_cell_angle_beta   90.00000000
_cell_angle_gamma   120.00000265
_symmetry_Int_Tables_number   1
_chemical_formula_structural   Mg14ZrNi
_chemical_formula_sum   'Mg14 Zr1 Ni1'
_cell_volume   345.07346689
_cell_formula_units_Z   1
loop_
 _symmetry_equiv_pos_site_id
 _symmetry_equiv_pos_as_xyz
  1  'x, y, z'
loop_
 _atom_site_type_symbol
 _atom_site_label
 _atom_site_symmetry_multiplicity
 _atom_site_fract_x
 _atom_site_fract_y
 _atom_site_fract_z
 _atom_site_occupancy
  Mg  Mg0  1  0.17823826  0.83911863  0.12500000  1
  Mg  Mg1  1  0.16058337  0.83029119  0.62500000  1
  Mg  Mg2  1  0.66088137  0.32176174  0.12500000  1
  Mg  Mg3  1  0.66970881  0.33941663  0.62500000  1
  Mg  Mg4  1  0.66088137  0.83911863  0.12500000  1
  Mg  Mg5  1  0.66970881  0.83029119  0.62500000  1
  Mg  Mg6  1  0.32493341  0.17506659  0.38830993  1
  Mg  Mg7  1  0.32493341  0.17506659  0.86169007  1
  Mg  Mg8  1  0.32493341  0.64986782  0.38830993  1
  Mg  Mg9  1  0.32493341  0.64986782  0.86169007  1
  Mg  Mg10  1  0.85013218  0.17506659  0.38830993  1
  Mg  Mg11  1  0.85013218  0.17506659  0.86169007  1
  Mg  Mg12  1  0.83333300  0.66666700  0.36652417  1
  Mg  Mg13  1  0.83333300  0.66666700  0.88347583  1
  Zr  Zr0  1  0.16666700  0.33333300  0.12500000  1
  Ni  Ni0  1  0.16666700  0.33333300  0.62500000  1
loop_
_geom_bond_atom_site_label_1
_geom_bond_atom_site_label_2
_geom_bond_distance
_geom_bond_site_symmetry_2
Mg0 Mg2 3.047369 1_565
Mg0 Mg4 3.047369 1_555
Mg0 Mg13 3.063391 1_454
Mg0 Mg12 3.063391 1_455
Mg0 Zr0 3.157593 1_555
Mg0 Zr0 3.157593 1_565
Mg0 Mg9 3.212281 1_554
Mg0 Mg8 3.212281 1_555
Mg0 Mg6 3.212288 1_565
Mg0 Mg7 3.212288 1_564
Mg0 Mg2 3.266549 1_455
Mg0 Mg4 3.266549 1_455
Mg1 Mg9 3.025438 1_555
Mg1 Mg8 3.025438 1_555
Mg1 Mg7 3.025445 1_565
Mg1 Mg6 3.025445 1_565
Mg1 Mg3 3.099341 1_455
Mg1 Mg5 3.099342 1_455
Mg1 Mg12 3.142657 1_455
Mg1 Mg13 3.142657 1_455
Mg1 Ni0 3.157134 1_565
Mg1 Ni0 3.157134 1_555
Mg1 Mg3 3.214576 1_565
Mg1 Mg5 3.214576 1_555
Mg2 Mg4 3.047369 1_545
Mg2 Zr0 3.157593 1_655
Mg2 Zr0 3.157593 1_555
Mg2 Mg7 3.212288 1_554
Mg2 Mg6 3.212288 1_555
Mg2 Mg4 3.266549 1_555
Mg3 Mg7 3.025445 1_555
Mg3 Mg6 3.025445 1_555
Mg3 Mg5 3.099341 1_555
Mg3 Ni0 3.157134 1_555
Mg3 Ni0 3.157134 1_655
Mg3 Mg5 3.214576 1_545
Mg4 Zr0 3.157593 1_555
Mg4 Zr0 3.157593 1_665
Mg4 Mg8 3.212287 1_555
Mg4 Mg9 3.212287 1_554
Mg5 Mg9 3.025445 1_555
Mg5 Mg8 3.025445 1_555
Mg5 Ni0 3.157134 1_665
Mg5 Ni0 3.157134 1_555
Mg6 Ni0 2.931265 1_555
Mg6 Mg8 2.997856 1_555
Mg6 Zr0 3.149917 1_555
Mg6 Mg8 3.316062 1_545
Mg7 Ni0 2.931265 1_555
Mg7 Mg9 2.997856 1_555
Mg7 Zr0 3.149917 1_556
Mg7 Mg9 3.316062 1_545
Mg8 Ni0 2.931271 1_555
Mg8 Zr0 3.149923 1_555
Mg9 Ni0 2.931271 1_555
Mg9 Zr0 3.149923 1_556
Mg10 Ni0 2.931271 1_655
Mg10 Mg8 2.997856 1_655
Mg10 Mg6 2.997856 1_655
Mg10 Mg3 3.025438 1_555
Mg10 Mg5 3.025445 1_545
Mg10 Zr0 3.149923 1_655
Mg10 Mg12 3.165792 1_545
Mg10 Mg12 3.165792 1_555
Mg10 Mg2 3.212281 1_555
Mg10 Mg4 3.212287 1_545
Mg10 Mg8 3.316062 1_545
Mg10 Mg6 3.316062 1_555
Mg11 Ni0 2.931271 1_655
Mg11 Mg9 2.997856 1_655
Mg11 Mg7 2.997856 1_655
Mg11 Mg3 3.025438 1_555
Mg11 Mg5 3.025445 1_545
Mg11 Zr0 3.149923 1_656
Mg11 Mg13 3.165792 1_545
Mg11 Mg13 3.165792 1_555
Mg11 Mg2 3.212281 1_556
Mg11 Mg4 3.212287 1_546
Mg11 Mg9 3.316062 1_545
Mg11 Mg7 3.316062 1_555
Mg12 Mg4 3.063384 1_555
Mg12 Mg2 3.063391 1_555
Mg12 Mg5 3.142651 1_555
Mg12 Mg3 3.142657 1_555
Mg12 Mg6 3.165792 1_665
Mg12 Mg6 3.165792 1_555
Mg12 Mg8 3.165793 1_555
Mg12 Mg8 3.165793 1_655
Mg13 Mg4 3.063384 1_556
Mg13 Mg2 3.063391 1_556
Mg13 Mg5 3.142651 1_555
Mg13 Mg3 3.142657 1_555
Mg13 Mg7 3.165792 1_665
Mg13 Mg7 3.165792 1_555
Mg13 Mg9 3.165793 1_555
Mg13 Mg9 3.165793 1_655
