# generated using pymatgen
data_SrCaP2WO8
_symmetry_space_group_name_H-M   'P 1'
_cell_length_a   6.12669000
_cell_length_b   6.73383257
_cell_length_c   9.63375721
_cell_angle_alpha   107.28722032
_cell_angle_beta   106.25295633
_cell_angle_gamma   94.67243175
_symmetry_Int_Tables_number   1
_chemical_formula_structural   SrCaP2WO8
_chemical_formula_sum   'Sr2 Ca2 P4 W2 O16'
_cell_volume   358.40708572
_cell_formula_units_Z   2
loop_
 _symmetry_equiv_pos_site_id
 _symmetry_equiv_pos_as_xyz
  1  'x, y, z'
loop_
 _atom_site_type_symbol
 _atom_site_label
 _atom_site_symmetry_multiplicity
 _atom_site_fract_x
 _atom_site_fract_y
 _atom_site_fract_z
 _atom_site_occupancy
  Sr  Sr0  1  0.31567200  0.80021000  0.07429600  1
  Sr  Sr1  1  0.68432800  0.19979000  0.92570400  1
  Ca  Ca0  1  0.02049600  0.42068700  0.67665100  1
  Ca  Ca1  1  0.97950400  0.57931300  0.32334900  1
  P  P0  1  0.37393900  0.39556700  0.21874100  1
  P  P1  1  0.62606100  0.60443300  0.78125900  1
  P  P2  1  0.86567300  0.01721400  0.27559900  1
  P  P3  1  0.13432700  0.98278600  0.72440100  1
  W  W0  1  0.64347100  0.84828700  0.53034700  1
  W  W1  1  0.35652900  0.15171300  0.46965300  1
  O  O0  1  0.87113400  0.60633900  0.88765200  1
  O  O1  1  0.57163100  0.44090500  0.15599700  1
  O  O2  1  0.60883500  0.81030800  0.74039800  1
  O  O3  1  0.91499600  0.09580500  0.71678100  1
  O  O4  1  0.42836900  0.55909500  0.84400300  1
  O  O5  1  0.04409000  0.75060900  0.60650100  1
  O  O6  1  0.95591000  0.24939100  0.39349900  1
  O  O7  1  0.25966900  0.99193600  0.88662000  1
  O  O8  1  0.39116500  0.18969200  0.25960200  1
  O  O9  1  0.74033100  0.00806400  0.11338000  1
  O  O10  1  0.12886600  0.39366100  0.11234800  1
  O  O11  1  0.39039900  0.57937600  0.37040000  1
  O  O12  1  0.60960100  0.42062400  0.62960000  1
  O  O13  1  0.71039400  0.87600200  0.32576500  1
  O  O14  1  0.08500400  0.90419500  0.28321900  1
  O  O15  1  0.28960600  0.12399800  0.67423500  1
loop_
_geom_bond_atom_site_label_1
_geom_bond_atom_site_label_2
_geom_bond_distance
_geom_bond_site_symmetry_2
Ca0 O3 2.401135 1_455
Ca0 O12 2.429789 1_455
Ca0 O4 2.486936 1_555
Ca0 O0 2.499915 1_455
Ca0 O5 2.511568 1_555
Ca0 O6 2.525766 1_455
Ca0 O15 2.690881 1_555
Ca1 O14 2.401135 1_655
Ca1 O11 2.429789 1_655
Ca1 O1 2.486936 1_555
Ca1 O10 2.499915 1_655
Ca1 O6 2.511568 1_555
Ca1 O5 2.525766 1_655
Ca1 O13 2.690881 1_555
O0 P1 1.559734 1_555
O0 Sr0 2.763970 1_656
O0 Sr1 3.042982 1_555
O1 P0 1.544287 1_555
O1 Sr1 2.633302 1_554
O1 Sr0 3.160969 1_555
O2 P1 1.553356 1_555
O2 W0 2.178167 1_555
O2 Sr1 2.614760 1_565
O3 P3 1.592141 1_645
O3 W0 2.206338 1_545
O3 Sr1 2.730265 1_555
O4 P1 1.544287 1_555
O4 Sr0 2.633302 1_556
O4 Sr1 3.160969 1_555
O5 P3 1.578726 1_555
O5 W0 2.556782 1_455
O6 P2 1.578726 1_555
O6 W1 2.556782 1_655
O7 P3 1.516274 1_555
O7 Sr0 2.483086 1_556
O7 Sr1 2.723066 1_565
O8 P0 1.553356 1_555
O8 W1 2.178167 1_555
O8 Sr0 2.614760 1_545
O9 P2 1.516274 1_555
O9 Sr1 2.483086 1_554
O9 Sr0 2.723066 1_545
O10 P0 1.559734 1_555
O10 Sr1 2.763970 1_454
O10 Sr0 3.042982 1_555
O11 P0 1.580899 1_555
O11 W0 2.145766 1_555
O12 P1 1.580899 1_555
O12 W1 2.145766 1_555
O13 P2 1.557543 1_565
O13 W0 2.178496 1_555
O13 Sr0 2.786119 1_555
O14 P2 1.592141 1_465
O14 W1 2.206338 1_565
O14 Sr0 2.730265 1_555
O15 P3 1.557543 1_545
O15 W1 2.178496 1_555
O15 Sr1 2.786119 1_555
