# generated using pymatgen
data_LuMgTiS4
_symmetry_space_group_name_H-M   'P 1'
_cell_length_a   7.68933686
_cell_length_b   7.55697552
_cell_length_c   7.55661659
_cell_angle_alpha   58.81141475
_cell_angle_beta   59.41595062
_cell_angle_gamma   59.42008748
_symmetry_Int_Tables_number   1
_chemical_formula_structural   LuMgTiS4
_chemical_formula_sum   'Lu2 Mg2 Ti2 S8'
_cell_volume   304.92107388
_cell_formula_units_Z   2
loop_
 _symmetry_equiv_pos_site_id
 _symmetry_equiv_pos_as_xyz
  1  'x, y, z'
loop_
 _atom_site_type_symbol
 _atom_site_label
 _atom_site_symmetry_multiplicity
 _atom_site_fract_x
 _atom_site_fract_y
 _atom_site_fract_z
 _atom_site_occupancy
  Lu  Lu0  1  0.49999900  0.50001700  0.49997400  1
  Lu  Lu1  1  0.00000500  0.49999100  0.50000900  1
  Mg  Mg0  1  0.87717900  0.87285100  0.87286300  1
  Mg  Mg1  1  0.12282200  0.12715700  0.12715000  1
  Ti  Ti0  1  0.49999700  0.50000900  0.99999000  1
  Ti  Ti1  1  0.50000600  0.99998700  0.50000000  1
  S  S0  1  0.72554700  0.75013900  0.75018400  1
  S  S1  1  0.26611400  0.23898800  0.72877700  1
  S  S2  1  0.26613200  0.72876800  0.23900300  1
  S  S3  1  0.72586600  0.24987400  0.24985700  1
  S  S4  1  0.73385200  0.27122900  0.76098900  1
  S  S5  1  0.27413600  0.75011500  0.75014100  1
  S  S6  1  0.27445100  0.24985900  0.24983600  1
  S  S7  1  0.73389800  0.76101100  0.27122900  1
loop_
_geom_bond_atom_site_label_1
_geom_bond_atom_site_label_2
_geom_bond_distance
_geom_bond_site_symmetry_2
Lu0 S2 2.650683 1_555
Lu0 S4 2.650833 1_555
Lu0 S7 2.650916 1_555
Lu0 S1 2.651002 1_555
Lu0 S3 2.679838 1_555
Lu0 S5 2.679868 1_555
Lu1 S1 2.650916 1_555
Lu1 S2 2.650937 1_555
Lu1 S7 2.650966 1_455
Lu1 S4 2.651004 1_455
Lu1 S6 2.680094 1_555
Lu1 S0 2.680191 1_455
Mg0 S7 2.434636 1_556
Mg0 S4 2.434924 1_565
Mg0 S5 2.483320 1_655
Mg0 S0 2.483784 1_555
Mg1 S1 2.434684 1_554
Mg1 S2 2.435002 1_545
Mg1 S3 2.483329 1_455
Mg1 S6 2.483746 1_555
S0 Ti0 2.540218 1_555
S0 Ti1 2.540560 1_555
S1 Ti1 2.500047 1_545
S2 Ti0 2.500009 1_554
S3 Ti1 2.540577 1_545
S3 Ti0 2.540615 1_554
S4 Ti0 2.500056 1_555
S5 Ti0 2.540475 1_555
S5 Ti1 2.540549 1_555
S6 Ti0 2.540307 1_554
S6 Ti1 2.540529 1_545
S7 Ti1 2.499880 1_555
