# generated using pymatgen
data_Al119Cr16Fe13
_symmetry_space_group_name_H-M   'P 1'
_cell_length_a   12.20500227
_cell_length_b   12.53911756
_cell_length_c   17.35057508
_cell_angle_alpha   111.54855206
_cell_angle_beta   110.59240200
_cell_angle_gamma   90.00000000
_symmetry_Int_Tables_number   1
_chemical_formula_structural   Al119Cr16Fe13
_chemical_formula_sum   'Al119 Cr16 Fe13'
_cell_volume   2286.35155994
_cell_formula_units_Z   1
loop_
 _symmetry_equiv_pos_site_id
 _symmetry_equiv_pos_as_xyz
  1  'x, y, z'
loop_
 _atom_site_type_symbol
 _atom_site_label
 _atom_site_symmetry_multiplicity
 _atom_site_fract_x
 _atom_site_fract_y
 _atom_site_fract_z
 _atom_site_occupancy
  Al  Al0  1  0.94060163  0.45326863  0.88120326  1
  Al  Al1  1  0.29284764  0.54110047  0.21593993  1
  Al  Al2  1  0.92309229  0.54110047  0.21593993  1
  Al  Al3  1  0.93926775  0.68000735  0.87853551  1
  Al  Al4  1  0.59041697  0.59470312  0.18083395  1
  Al  Al5  1  0.29281878  0.72479048  0.58563755  1
  Al  Al6  1  0.38066157  0.01245756  0.38960417  1
  Al  Al7  1  0.00894260  0.01245756  0.38960417  1
  Al  Al8  1  0.80021814  0.24922863  0.85038136  1
  Al  Al9  1  0.05016322  0.24922863  0.85038136  1
  Al  Al10  1  0.68937624  0.62960084  0.76465293  1
  Al  Al11  1  0.07527669  0.62960084  0.76465293  1
  Al  Al12  1  0.50563070  0.02571110  0.01126141  1
  Al  Al13  1  0.52778792  0.84153130  0.62233794  1
  Al  Al14  1  0.09455001  0.84153130  0.62233794  1
  Al  Al15  1  0.73121937  0.36058945  0.46243875  1
  Al  Al16  1  0.29569294  0.92640666  0.20738026  1
  Al  Al17  1  0.91168731  0.92640666  0.20738026  1
  Al  Al18  1  0.49963383  0.44289888  0.64447745  1
  Al  Al19  1  0.14484362  0.44289888  0.64447745  1
  Al  Al20  1  0.55828610  0.69365724  0.88425135  1
  Al  Al21  1  0.32596526  0.69365724  0.88425135  1
  Al  Al22  1  0.99747778  0.24795477  0.99495555  1
  Al  Al23  1  0.79304367  0.10117264  0.94269276  1
  Al  Al24  1  0.14964909  0.10117264  0.94269276  1
  Al  Al25  1  0.53645756  0.59460131  0.32538181  1
  Al  Al26  1  0.78892425  0.59460131  0.32538181  1
  Al  Al27  1  0.54949428  0.98554805  0.32245756  1
  Al  Al28  1  0.77296328  0.98554805  0.32245756  1
  Al  Al29  1  0.66491874  0.30161889  0.96006044  1
  Al  Al30  1  0.29514170  0.30161889  0.96006044  1
  Al  Al31  1  0.49460500  0.00182485  0.55459855  1
  Al  Al32  1  0.05999355  0.00182485  0.55459855  1
  Al  Al33  1  0.26271640  0.77061336  0.29513143  1
  Al  Al34  1  0.03241503  0.77061336  0.29513143  1
  Al  Al35  1  0.12939133  0.45981261  0.03203276  1
  Al  Al36  1  0.90264143  0.45981261  0.03203276  1
  Al  Al37  1  0.77494422  0.59558205  0.93920970  1
  Al  Al38  1  0.16426548  0.59558205  0.93920970  1
  Al  Al39  1  0.72419977  0.75408272  0.44839954  1
  Al  Al40  1  0.37096298  0.91085156  0.74192597  1
  Al  Al41  1  0.81537751  0.85817467  0.85425478  1
  Al  Al42  1  0.03887726  0.85817467  0.85425478  1
  Al  Al43  1  0.08232999  0.20941185  0.16465999  1
  Al  Al44  1  0.45910255  0.38483175  0.14495647  1
  Al  Al45  1  0.68585392  0.38483175  0.14495647  1
  Al  Al46  1  0.55543739  0.07202775  0.88183253  1
  Al  Al47  1  0.32639514  0.07202775  0.88183253  1
  Al  Al48  1  0.08289948  0.81858185  0.16579896  1
  Al  Al49  1  0.50575959  0.63482289  0.01151919  1
  Al  Al50  1  0.69353735  0.40498955  0.77213542  1
  Al  Al51  1  0.07859808  0.40498955  0.77213542  1
  Al  Al52  1  0.86143798  0.88378049  0.72287595  1
  Al  Al53  1  0.67792642  0.92006052  0.97042162  1
  Al  Al54  1  0.29249519  0.92006052  0.97042162  1
  Al  Al55  1  0.21718019  0.93170598  0.43436038  1
  Al  Al56  1  0.68281079  0.54662512  0.59007806  1
  Al  Al57  1  0.90726728  0.54662512  0.59007806  1
  Al  Al58  1  0.51061457  0.44494797  0.40796067  1
  Al  Al59  1  0.89734610  0.44494797  0.40796067  1
  Al  Al60  1  0.37497007  0.49160309  0.74994013  1
  Al  Al61  1  0.57869971  0.82838905  0.78672594  1
  Al  Al62  1  0.20802623  0.82838905  0.78672594  1
  Al  Al63  1  0.23715340  0.06308428  0.11216066  1
  Al  Al64  1  0.87500726  0.06308428  0.11216066  1
  Al  Al65  1  0.42534334  0.25020766  0.23736433  1
  Al  Al66  1  0.81202099  0.25020766  0.23736433  1
  Al  Al67  1  0.48066441  0.08528852  0.72507757  1
  Al  Al68  1  0.24441316  0.08528852  0.72507757  1
  Al  Al69  1  0.08246904  0.61016090  0.16493807  1
  Al  Al70  1  0.33364892  0.55157747  0.44489602  1
  Al  Al71  1  0.11124710  0.55157747  0.44489602  1
  Al  Al72  1  0.64932356  0.16674434  0.29864711  1
  Al  Al73  1  0.43795152  0.74297710  0.23332108  1
  Al  Al74  1  0.79536956  0.74297710  0.23332108  1
  Al  Al75  1  0.12699596  0.82541173  0.02721129  1
  Al  Al76  1  0.90021533  0.82541173  0.02721129  1
  Al  Al77  1  0.67946165  0.30710786  0.58938049  1
  Al  Al78  1  0.90991884  0.30710786  0.58938049  1
  Al  Al79  1  0.46531052  0.20974435  0.55456284  1
  Al  Al80  1  0.08925232  0.20974435  0.55456284  1
  Al  Al81  1  0.34926852  0.35263512  0.46874099  1
  Al  Al82  1  0.11947247  0.35263512  0.46874099  1
  Al  Al83  1  0.35091581  0.78157464  0.06446105  1
  Al  Al84  1  0.71354525  0.78157464  0.06446105  1
  Al  Al85  1  0.51141865  0.22050041  0.40912997  1
  Al  Al86  1  0.89771132  0.22050041  0.40912997  1
  Al  Al87  1  0.64788915  0.39308384  0.29577830  1
  Al  Al88  1  0.72766135  0.95999904  0.45532270  1
  Al  Al89  1  0.50583107  0.23443342  0.01166215  1
  Al  Al90  1  0.29560832  0.11440690  0.59121664  1
  Al  Al91  1  0.86232039  0.09042819  0.72464078  1
  Al  Al92  1  0.36909054  0.69235287  0.73818107  1
  Al  Al93  1  0.85766936  0.48870247  0.71533873  1
  Al  Al94  1  0.23650964  0.30212758  0.10723942  1
  Al  Al95  1  0.87072978  0.30212758  0.10723942  1
  Al  Al96  1  0.25884193  0.38577876  0.28644096  1
  Al  Al97  1  0.02759903  0.38577876  0.28644096  1
  Al  Al98  1  0.26372746  0.15769838  0.29434299  1
  Al  Al99  1  0.03061553  0.15769838  0.29434299  1
  Al  Al100  1  0.46150688  0.01933218  0.14936243  1
  Al  Al101  1  0.68785555  0.01933218  0.14936243  1
  Al  Al102  1  0.56035430  0.45602836  0.88904904  1
  Al  Al103  1  0.32869474  0.45602836  0.88904904  1
  Al  Al104  1  0.49445233  0.63006652  0.61313029  1
  Al  Al105  1  0.11867796  0.63006652  0.61313029  1
  Al  Al106  1  0.58813458  0.84157850  0.17626915  1
  Al  Al107  1  0.00008188  0.00030327  0.00016377  1
  Al  Al108  1  0.52162418  0.82893554  0.41709887  1
  Al  Al109  1  0.89547468  0.82893554  0.41709887  1
  Al  Al110  1  0.34528549  0.75919886  0.45335914  1
  Al  Al111  1  0.10807364  0.75919886  0.45335914  1
  Al  Al112  1  0.69351918  0.01469583  0.75907372  1
  Al  Al113  1  0.06555453  0.01469583  0.75907372  1
  Al  Al114  1  0.21845542  0.14992364  0.43691084  1
  Al  Al115  1  0.47802746  0.29134020  0.72860384  1
  Al  Al116  1  0.25057638  0.29134020  0.72860384  1
  Al  Al117  1  0.35151404  0.54112156  0.06879430  1
  Al  Al118  1  0.71728026  0.54112156  0.06879430  1
  Cr  Cr0  1  0.29274783  0.52468748  0.58549567  1
  Cr  Cr1  1  0.56999642  0.67507910  0.49850169  1
  Cr  Cr2  1  0.92850527  0.67507910  0.49850169  1
  Cr  Cr3  1  0.65492895  0.17013796  0.67860477  1
  Cr  Cr4  1  0.02367583  0.17013796  0.67860477  1
  Cr  Cr5  1  0.58140390  0.20844629  0.16280781  1
  Cr  Cr6  1  0.72481086  0.55069756  0.44962172  1
  Cr  Cr7  1  0.86399340  0.29775567  0.72798680  1
  Cr  Cr8  1  0.07599040  0.39954438  0.15198079  1
  Cr  Cr9  1  0.79254719  0.71623734  0.58509438  1
  Cr  Cr10  1  0.79567502  0.13573709  0.59135004  1
  Cr  Cr11  1  0.70144620  0.92029023  0.58856450  1
  Cr  Cr12  1  0.88711830  0.92029023  0.58856450  1
  Cr  Cr13  1  0.72467008  0.15881504  0.44934016  1
  Cr  Cr14  1  0.51120686  0.44460244  0.02241371  1
  Cr  Cr15  1  0.00692595  0.63610344  0.01385190  1
  Fe  Fe0  1  0.34911558  0.14843268  0.05196989  1
  Fe  Fe1  1  0.70285431  0.14843268  0.05196989  1
  Fe  Fe2  1  0.15853781  0.58680611  0.31707562  1
  Fe  Fe3  1  0.29629509  0.30602576  0.59259017  1
  Fe  Fe4  1  0.42992609  0.25420532  0.85985218  1
  Fe  Fe5  1  0.51290020  0.83244654  0.02580041  1
  Fe  Fe6  1  0.65137613  0.78701138  0.30275226  1
  Fe  Fe7  1  0.23838927  0.69514687  0.12346963  1
  Fe  Fe8  1  0.88508036  0.69514687  0.12346963  1
  Fe  Fe9  1  0.07650556  0.01274783  0.15301112  1
  Fe  Fe10  1  0.93616542  0.05363014  0.87233085  1
  Fe  Fe11  1  0.86577130  0.68687722  0.73154260  1
  Fe  Fe12  1  0.29407557  0.92029732  0.58815113  1
loop_
_geom_bond_atom_site_label_1
_geom_bond_atom_site_label_2
_geom_bond_distance
_geom_bond_site_symmetry_2
Al0 Cr15 2.453925 1_656
Al0 Cr7 2.487440 1_555
Al0 Al35 2.786594 1_656
Al0 Al36 2.786594 1_556
Al0 Al8 2.849190 1_555
Al0 Al9 2.849190 1_655
Al0 Al3 2.860382 1_555
Al0 Al50 2.860907 1_555
Al0 Al51 2.860908 1_655
Al0 Al93 2.897266 1_555
Al0 Al38 2.897810 1_655
Al0 Al37 2.897810 1_555
Al1 Al69 2.662794 1_555
Al1 Fe2 2.716519 1_555
Al1 Al96 2.751155 1_555
Al1 Al33 2.784983 1_555
Al1 Cr8 2.806116 1_555
Al1 Al94 2.818730 1_555
Al1 Al25 2.826448 1_555
Al1 Fe7 2.876354 1_555
Al1 Al117 2.883960 1_555
Al1 Al35 2.886803 1_555
Al1 Al73 2.949349 1_555
Al1 Al44 3.075547 1_555
Al2 Al69 2.662794 1_655
Al2 Fe2 2.716519 1_655
Al2 Al97 2.751155 1_655
Al2 Al34 2.784983 1_655
Al2 Cr8 2.806116 1_655
Al2 Al95 2.818730 1_555
Al2 Al26 2.826448 1_555
Al2 Fe8 2.876354 1_555
Al2 Al36 2.886803 1_555
Al2 Al74 2.949349 1_555
Al2 Al45 3.075547 1_555
Al3 Fe11 2.422551 1_555
Al3 Cr15 2.466348 1_656
Al3 Al76 2.759668 1_556
Al3 Al75 2.759668 1_656
Al3 Al41 2.774557 1_555
Al3 Al42 2.774557 1_655
Al3 Al37 2.924902 1_555
Al3 Al38 2.924902 1_655
Al4 Fe6 2.447219 1_555
Al4 Cr14 2.522457 1_555
Al4 Al44 2.824234 1_555
Al4 Al45 2.824235 1_555
Al5 Fe12 2.435754 1_555
Al5 Cr0 2.508212 1_555
Al5 Al92 2.663602 1_555
Al5 Al70 2.808689 1_555
Al5 Al71 2.808689 1_555
Al6 Al79 2.845653 1_555
Al6 Al85 2.904702 1_555
Al6 Al98 2.938929 1_555
Al7 Al80 2.845653 1_555
Al7 Al86 2.904702 1_455
Al7 Al99 2.938929 1_555
Al8 Cr3 2.668697 1_555
Al8 Al91 2.696517 1_555
Al8 Cr7 2.756419 1_555
Al8 Fe10 3.025747 1_555
Al8 Al9 3.050580 1_655
Al9 Cr4 2.668697 1_555
Al9 Al91 2.696517 1_455
Al9 Cr7 2.756419 1_455
Al9 Fe10 3.025747 1_455
Al10 Fe11 2.579519 1_555
Al10 Al56 2.788886 1_555
Al10 Al61 2.801288 1_555
Al10 Al41 2.835771 1_555
Al10 Al104 2.860627 1_555
Al10 Al18 2.865106 1_555
Al10 Al50 2.866296 1_555
Al10 Al20 2.936350 1_555
Al10 Al37 3.028114 1_555
Al11 Fe11 2.579519 1_455
Al11 Al57 2.788886 1_455
Al11 Al62 2.801288 1_555
Al11 Al42 2.835771 1_555
Al11 Al19 2.865106 1_555
Al11 Al51 2.866296 1_555
Al11 Al21 2.936350 1_555
Al11 Al38 3.028114 1_555
Al12 Fe5 2.525378 1_545
Al12 Fe0 2.581990 1_555
Al12 Fe1 2.581990 1_555
Al12 Al89 2.614647 1_555
Al12 Cr5 2.623554 1_555
Al12 Al54 2.652881 1_544
Al12 Al53 2.652881 1_544
Al12 Al47 2.769144 1_554
Al12 Al46 2.769144 1_554
Al13 Cr1 2.592800 1_555
Al13 Al31 2.643052 1_565
Al13 Cr11 2.666406 1_555
Al13 Al61 2.765326 1_555
Al13 Fe12 2.950252 1_555
Al13 Al5 2.967027 1_555
Al13 Al67 3.093455 1_565
Al14 Cr2 2.592800 1_455
Al14 Al32 2.643052 1_565
Al14 Cr12 2.666406 1_455
Al14 Al62 2.765326 1_555
Al14 Fe12 2.950252 1_555
Al14 Al5 2.967028 1_555
Al14 Al68 3.093455 1_565
Al15 Cr13 2.454413 1_555
Al15 Cr6 2.472891 1_555
Al15 Al77 2.786313 1_555
Al15 Al78 2.786313 1_555
Al15 Al56 2.796553 1_555
Al15 Al57 2.796553 1_555
Al15 Al72 2.812661 1_555
Al15 Al85 2.863373 1_555
Al15 Al86 2.863373 1_555
Al15 Al58 2.864617 1_555
Al15 Al59 2.864617 1_555
Al15 Al87 2.891157 1_555
Al16 Al48 2.656889 1_555
Al16 Fe7 2.683295 1_555
Al16 Al6 2.724622 1_565
Al16 Al63 2.725197 1_565
Al16 Al83 2.787298 1_555
Al16 Al98 2.835412 1_565
Al16 Al75 2.859986 1_555
Al16 Fe9 2.862452 1_565
Al16 Al27 2.948493 1_555
Al16 Al73 2.952650 1_555
Al16 Al33 2.985331 1_555
Al17 Al48 2.656889 1_655
Al17 Fe8 2.683295 1_555
Al17 Al7 2.724622 1_665
Al17 Al64 2.725197 1_565
Al17 Al84 2.787297 1_555
Al17 Al99 2.835413 1_665
Al17 Al76 2.859986 1_555
Al17 Fe9 2.862453 1_665
Al17 Al28 2.948493 1_555
Al17 Al74 2.952650 1_555
Al17 Al34 2.985331 1_655
Al18 Al60 2.678408 1_555
Al18 Fe3 2.684863 1_555
Al18 Al79 2.710419 1_555
Al18 Cr0 2.725462 1_555
Al18 Al81 2.734016 1_555
Al18 Al50 2.796209 1_555
Al18 Al77 2.985032 1_555
Al19 Al60 2.678408 1_555
Al19 Fe3 2.684864 1_555
Al19 Al80 2.710419 1_555
Al19 Cr0 2.725462 1_555
Al19 Al82 2.734016 1_555
Al19 Al51 2.796209 1_555
Al19 Al78 2.985032 1_455
Al20 Fe5 2.680396 1_556
Al20 Al92 2.758336 1_555
Al20 Al53 2.788062 1_555
Al20 Al84 2.807617 1_556
Al20 Al49 2.832616 1_556
Al20 Al21 2.835476 1_555
Al20 Al61 2.859368 1_555
Al20 Al37 2.915770 1_555
Al20 Al60 2.975024 1_555
Al21 Fe5 2.680396 1_556
Al21 Al92 2.758336 1_555
Al21 Al54 2.788062 1_555
Al21 Al83 2.807617 1_556
Al21 Al49 2.832615 1_556
Al21 Al62 2.859368 1_555
Al21 Al38 2.915770 1_555
Al21 Al60 2.975024 1_555
Al22 Fe10 2.468968 1_555
Al22 Cr8 2.512654 1_656
Al22 Al9 2.805371 1_655
Al22 Al8 2.805371 1_555
Al22 Al35 2.842371 1_656
Al22 Al36 2.842371 1_556
Al23 Fe1 2.408423 1_556
Al23 Fe10 2.421277 1_555
Al23 Al46 2.687180 1_555
Al23 Al8 2.881393 1_555
Al23 Al41 2.927912 1_545
Al23 Al29 2.937440 1_555
Al23 Al53 2.939555 1_545
Al24 Fe0 2.408423 1_556
Al24 Fe10 2.421277 1_455
Al24 Al47 2.687180 1_555
Al24 Al9 2.881393 1_555
Al24 Al42 2.927913 1_545
Al24 Al30 2.937440 1_555
Al24 Al54 2.939555 1_545
Al25 Cr1 2.667727 1_555
Al25 Al39 2.688772 1_555
Al25 Cr6 2.760510 1_555
Al25 Al4 2.808548 1_555
Al25 Al58 2.822523 1_555
Al25 Al87 2.834864 1_555
Al25 Al73 2.879313 1_555
Al25 Fe6 3.004253 1_555
Al25 Al44 3.079318 1_555
Al25 Al26 3.081357 1_555
Al26 Cr2 2.667727 1_555
Al26 Al39 2.688772 1_555
Al26 Cr6 2.760510 1_555
Al26 Al4 2.808548 1_555
Al26 Al59 2.822523 1_555
Al26 Al87 2.834864 1_555
Al26 Al74 2.879313 1_555
Al26 Fe6 3.004253 1_555
Al26 Al45 3.079318 1_555
Al27 Al6 2.667806 1_565
Al27 Al88 2.676155 1_555
Al27 Cr13 2.704350 1_565
Al27 Al28 2.727440 1_555
Al27 Fe6 2.744889 1_555
Al27 Al72 2.803742 1_565
Al27 Al85 2.897244 1_565
Al27 Al73 2.925771 1_555
Al28 Al7 2.667806 1_665
Al28 Al88 2.676155 1_555
Al28 Cr13 2.704350 1_565
Al28 Fe6 2.744889 1_555
Al28 Al72 2.803742 1_565
Al28 Al86 2.897244 1_565
Al28 Al74 2.925771 1_555
Al29 Al89 2.656746 1_556
Al29 Fe4 2.708365 1_555
Al29 Al46 2.787381 1_555
Al29 Cr14 2.811999 1_556
Al29 Al8 2.841133 1_555
Al29 Fe1 2.859658 1_556
Al29 Al95 2.882134 1_556
Al29 Al45 2.900020 1_556
Al29 Al36 3.089339 1_556
Al30 Al89 2.656746 1_556
Al30 Fe4 2.708365 1_555
Al30 Al47 2.787381 1_555
Al30 Cr14 2.811999 1_556
Al30 Al9 2.841133 1_555
Al30 Fe0 2.859658 1_556
Al30 Al94 2.882134 1_556
Al30 Al44 2.900020 1_556
Al30 Al35 3.089339 1_556
Al31 Cr3 2.572001 1_555
Al31 Al79 2.631725 1_555
Al31 Cr11 2.676134 1_545
Al31 Al6 2.761697 1_555
Al31 Al67 2.820195 1_555
Al31 Al90 2.953299 1_555
Al31 Fe12 2.968749 1_545
Al32 Cr4 2.572001 1_555
Al32 Al80 2.631725 1_555
Al32 Cr12 2.676134 1_445
Al32 Al7 2.761697 1_555
Al32 Al68 2.820195 1_555
Al32 Al90 2.953299 1_555
Al32 Fe12 2.968749 1_545
Al33 Al69 2.675081 1_555
Al33 Fe7 2.676233 1_555
Al33 Al73 2.680469 1_555
Al33 Al55 2.754030 1_555
Al33 Al48 2.782271 1_555
Al33 Al34 2.810829 1_555
Al33 Fe2 2.838812 1_555
Al33 Al6 2.940059 1_565
Al34 Al69 2.675082 1_555
Al34 Fe8 2.676233 1_455
Al34 Al74 2.680469 1_455
Al34 Al55 2.754030 1_555
Al34 Al48 2.782271 1_555
Al34 Fe2 2.838812 1_555
Al34 Al7 2.940059 1_565
Al35 Al69 2.633467 1_555
Al35 Cr15 2.720407 1_555
Al35 Cr8 2.727015 1_555
Al35 Al36 2.767483 1_455
Al35 Al94 2.831360 1_555
Al35 Fe7 2.840919 1_555
Al35 Al38 2.858241 1_554
Al35 Al9 3.095771 1_554
Al36 Al69 2.633467 1_655
Al36 Cr15 2.720407 1_655
Al36 Cr8 2.727016 1_655
Al36 Al95 2.831360 1_555
Al36 Fe8 2.840919 1_555
Al36 Al37 2.858241 1_554
Al36 Al8 3.095771 1_554
Al37 Cr15 2.624716 1_656
Al37 Fe8 2.762520 1_556
Al37 Al50 2.826094 1_555
Al37 Al76 2.845984 1_556
Al37 Al84 2.854100 1_556
Al38 Cr15 2.624716 1_556
Al38 Fe7 2.762520 1_556
Al38 Al51 2.826094 1_555
Al38 Al75 2.845984 1_556
Al38 Al83 2.854101 1_556
Al39 Cr9 2.445655 1_555
Al39 Al88 2.539997 1_555
Al39 Fe6 2.555977 1_555
Al39 Cr6 2.558124 1_555
Al39 Cr2 2.657560 1_555
Al39 Cr1 2.657560 1_555
Al39 Cr12 2.662115 1_555
Al39 Cr11 2.662115 1_555
Al40 Fe12 2.546411 1_555
Al40 Al5 2.690617 1_555
Al40 Al62 2.702933 1_555
Al40 Al61 2.702933 1_555
Al40 Al92 2.716492 1_555
Al40 Al68 2.721648 1_565
Al40 Al67 2.721648 1_565
Al40 Al47 2.756439 1_565
Al40 Al46 2.756440 1_565
Al41 Al52 2.655991 1_555
Al41 Fe11 2.662110 1_555
Al41 Al61 2.674763 1_555
Al41 Fe10 2.718163 1_565
Al41 Al42 2.727815 1_655
Al41 Al53 2.951026 1_555
Al41 Al76 2.994351 1_556
Al42 Al52 2.655991 1_455
Al42 Fe11 2.662110 1_455
Al42 Al62 2.674763 1_555
Al42 Fe10 2.718163 1_465
Al42 Al54 2.951026 1_555
Al42 Al75 2.994351 1_556
Al43 Fe9 2.398082 1_555
Al43 Cr8 2.472162 1_555
Al43 Al97 2.713271 1_555
Al43 Al96 2.713271 1_555
Al43 Al99 2.820015 1_555
Al43 Al98 2.820016 1_555
Al44 Al89 2.637128 1_555
Al44 Al94 2.671194 1_555
Al44 Cr5 2.719144 1_555
Al44 Cr14 2.758347 1_555
Al44 Al45 2.767501 1_555
Al44 Al87 2.779807 1_555
Al44 Al65 2.835995 1_555
Al44 Fe0 2.855719 1_555
Al45 Al89 2.637128 1_555
Al45 Al95 2.671194 1_555
Al45 Cr5 2.719144 1_555
Al45 Cr14 2.758347 1_555
Al45 Al87 2.779807 1_555
Al45 Al66 2.835995 1_555
Al45 Fe1 2.855719 1_555
Al46 Al67 2.616097 1_555
Al46 Fe1 2.656243 1_556
Al46 Al89 2.679090 1_556
Al46 Al47 2.795461 1_555
Al46 Fe4 2.817675 1_555
Al46 Al61 2.960253 1_545
Al46 Al53 2.960361 1_545
Al47 Al68 2.616097 1_555
Al47 Fe0 2.656243 1_556
Al47 Al89 2.679090 1_556
Al47 Fe4 2.817675 1_555
Al47 Al62 2.960253 1_545
Al47 Al54 2.960361 1_545
Al48 Fe9 2.523405 1_565
Al48 Fe8 2.584929 1_455
Al48 Fe7 2.584929 1_555
Al48 Al69 2.607960 1_555
Al48 Cr15 2.625814 1_555
Al48 Al76 2.672188 1_455
Al48 Al75 2.672188 1_555
Al49 Fe5 2.396533 1_555
Al49 Cr14 2.460014 1_555
Al50 Cr7 2.662196 1_555
Al50 Cr3 2.734812 1_555
Al50 Al8 2.838552 1_555
Al50 Al93 2.869566 1_555
Al50 Al77 2.889377 1_555
Al51 Cr7 2.662196 1_455
Al51 Cr4 2.734812 1_555
Al51 Al9 2.838552 1_555
Al51 Al93 2.869566 1_455
Al51 Al78 2.889377 1_455
Al52 Cr9 2.394212 1_555
Al52 Fe10 2.524179 1_565
Al52 Fe11 2.527542 1_555
Al52 Al91 2.580068 1_565
Al52 Cr12 2.652541 1_555
Al52 Cr11 2.652541 1_555
Al53 Fe1 2.648686 1_566
Al53 Al84 2.729281 1_556
Al53 Al61 2.745894 1_555
Al53 Al64 2.765699 1_566
Al53 Fe5 2.885087 1_556
Al53 Al76 2.952717 1_556
Al54 Fe0 2.648686 1_566
Al54 Al83 2.729281 1_556
Al54 Al62 2.745894 1_555
Al54 Al63 2.765699 1_566
Al54 Fe5 2.885087 1_556
Al54 Al75 2.952717 1_556
Al55 Fe12 2.557382 1_555
Al55 Al90 2.675603 1_565
Al55 Al7 2.697591 1_565
Al55 Al6 2.697591 1_565
Al56 Cr9 2.557552 1_555
Al56 Fe11 2.660341 1_555
Al56 Cr6 2.678527 1_555
Al56 Cr1 2.712165 1_555
Al56 Al57 2.739492 1_555
Al56 Al93 2.775313 1_555
Al56 Al58 2.897629 1_555
Al56 Al77 2.999131 1_555
Al57 Cr9 2.557552 1_555
Al57 Fe11 2.660342 1_555
Al57 Cr6 2.678527 1_555
Al57 Cr2 2.712165 1_555
Al57 Al93 2.775313 1_555
Al57 Al59 2.897629 1_555
Al57 Al78 2.999131 1_555
Al58 Cr6 2.661167 1_555
Al58 Cr1 2.681265 1_555
Al58 Al70 2.684702 1_555
Al58 Al85 2.821881 1_555
Al58 Al65 2.886313 1_555
Al58 Al87 2.895296 1_555
Al58 Al81 2.947433 1_555
Al58 Al96 2.954985 1_555
Al59 Cr6 2.661167 1_555
Al59 Cr2 2.681265 1_555
Al59 Al71 2.684702 1_655
Al59 Al86 2.821881 1_555
Al59 Al66 2.886313 1_555
Al59 Al87 2.895296 1_555
Al59 Al82 2.947433 1_655
Al59 Al97 2.954985 1_655
Al60 Al92 2.598108 1_555
Al60 Fe3 2.698070 1_555
Al60 Cr0 2.859250 1_555
Al61 Al92 2.755493 1_555
Al62 Al92 2.755494 1_555
Al63 Fe0 2.434781 1_555
Al63 Fe9 2.459942 1_555
Al63 Al98 2.833458 1_555
Al63 Al75 2.870715 1_545
Al63 Al65 2.871585 1_555
Al64 Fe1 2.434781 1_555
Al64 Fe9 2.459942 1_655
Al64 Al99 2.833458 1_655
Al64 Al76 2.870715 1_545
Al64 Al66 2.871585 1_555
Al65 Cr5 2.609825 1_555
Al65 Fe0 2.778613 1_555
Al65 Al96 2.810410 1_555
Al65 Al94 2.872697 1_555
Al65 Al87 2.888622 1_555
Al65 Al98 2.903085 1_555
Al65 Al72 2.910607 1_555
Al65 Al85 2.955895 1_555
Al66 Cr5 2.609825 1_555
Al66 Fe1 2.778613 1_555
Al66 Al97 2.810410 1_655
Al66 Al95 2.872697 1_555
Al66 Al87 2.888622 1_555
Al66 Al99 2.903085 1_655
Al66 Al72 2.910607 1_555
Al66 Al86 2.955895 1_555
Al67 Al90 2.749875 1_555
Al67 Fe12 2.773836 1_545
Al67 Fe4 2.778167 1_555
Al67 Cr3 2.853488 1_555
Al67 Al68 2.883447 1_555
Al68 Al90 2.749875 1_555
Al68 Fe12 2.773836 1_545
Al68 Fe4 2.778167 1_555
Al68 Cr4 2.853488 1_555
Al69 Cr8 2.565686 1_555
Al69 Cr15 2.598854 1_555
Al69 Fe2 2.599908 1_555
Al69 Fe7 2.607893 1_555
Al69 Fe8 2.607893 1_455
Al70 Al96 2.598066 1_555
Al70 Fe2 2.658344 1_555
Al70 Al81 2.670767 1_555
Al70 Al71 2.714415 1_555
Al70 Cr0 2.788337 1_555
Al70 Cr1 2.939209 1_555
Al71 Al97 2.598066 1_555
Al71 Fe2 2.658344 1_555
Al71 Al82 2.670767 1_555
Al71 Cr0 2.788337 1_555
Al71 Cr2 2.939209 1_455
Al72 Cr5 2.458964 1_555
Al72 Cr13 2.488246 1_555
Al72 Al87 2.856701 1_555
Al72 Al86 2.877912 1_555
Al72 Al85 2.877912 1_555
Al73 Fe7 2.412390 1_555
Al73 Fe6 2.417717 1_555
Al74 Fe8 2.412390 1_555
Al74 Fe6 2.417717 1_555
Al75 Cr15 2.681957 1_555
Al75 Al83 2.684643 1_555
Al75 Al76 2.767858 1_455
Al75 Fe7 2.777131 1_555
Al75 Fe9 2.800298 1_565
Al76 Cr15 2.681957 1_655
Al76 Al84 2.684643 1_555
Al76 Fe8 2.777131 1_555
Al76 Fe9 2.800298 1_665
Al77 Cr10 2.578824 1_555
Al77 Al79 2.652256 1_555
Al77 Cr7 2.695712 1_555
Al77 Cr13 2.700013 1_555
Al77 Al93 2.773551 1_555
Al77 Cr3 2.777619 1_555
Al77 Al78 2.812731 1_555
Al77 Al85 2.856542 1_555
Al78 Cr10 2.578824 1_555
Al78 Al80 2.652256 1_655
Al78 Cr7 2.695712 1_555
Al78 Cr13 2.700013 1_555
Al78 Al93 2.773551 1_555
Al78 Cr4 2.777619 1_655
Al78 Al86 2.856542 1_555
Al79 Fe3 2.553511 1_555
Al79 Cr3 2.741536 1_555
Al79 Al90 2.758357 1_555
Al79 Al81 2.812436 1_555
Al79 Al85 2.819756 1_555
Al80 Fe3 2.553512 1_555
Al80 Cr4 2.741536 1_555
Al80 Al90 2.758357 1_555
Al80 Al82 2.812436 1_555
Al80 Al86 2.819756 1_455
Al81 Cr0 2.646986 1_555
Al81 Fe3 2.697592 1_555
Al81 Al82 2.804661 1_555
Al81 Al85 2.812927 1_555
Al81 Al98 2.926678 1_555
Al82 Cr0 2.646986 1_555
Al82 Fe3 2.697592 1_555
Al82 Al86 2.812927 1_455
Al82 Al99 2.926678 1_555
Al83 Fe7 2.431679 1_555
Al83 Fe5 2.452069 1_555
Al84 Fe8 2.431678 1_555
Al84 Fe5 2.452069 1_555
Al85 Cr13 2.641649 1_555
Al85 Al98 2.887612 1_555
Al86 Cr13 2.641649 1_555
Al86 Al99 2.887612 1_655
Al87 Cr5 2.469969 1_555
Al87 Cr6 2.504862 1_555
Al88 Cr10 2.432421 1_565
Al88 Cr13 2.532680 1_565
Al88 Fe6 2.574447 1_555
Al88 Cr12 2.657196 1_555
Al88 Cr11 2.657196 1_555
Al89 Cr14 2.571839 1_555
Al89 Fe4 2.573094 1_554
Al89 Cr5 2.600091 1_555
Al89 Fe0 2.608724 1_555
Al89 Fe1 2.608724 1_555
Al90 Fe3 2.394066 1_555
Al90 Fe12 2.414862 1_545
Al91 Cr10 2.444332 1_555
Al91 Cr7 2.578865 1_555
Al91 Fe10 2.614497 1_555
Al91 Cr11 2.649507 1_545
Al91 Cr12 2.649507 1_545
Al91 Cr3 2.684820 1_555
Al91 Cr4 2.684820 1_655
Al92 Cr0 2.545322 1_555
Al93 Fe11 2.393945 1_555
Al93 Cr7 2.482109 1_555
Al94 Fe0 2.468210 1_555
Al94 Cr8 2.511218 1_555
Al94 Al96 2.801802 1_555
Al95 Fe1 2.468210 1_555
Al95 Cr8 2.511218 1_655
Al95 Al97 2.801802 1_655
Al96 Cr8 2.662028 1_555
Al96 Fe2 2.758386 1_555
Al96 Al97 2.822320 1_555
Al96 Al98 2.912700 1_555
Al97 Cr8 2.662028 1_555
Al97 Fe2 2.758386 1_555
Al97 Al99 2.912700 1_555
Al98 Fe9 2.706021 1_555
Al98 Al99 2.845132 1_555
Al99 Fe9 2.706021 1_555
Al100 Al12 2.662021 1_555
Al100 Cr5 2.678147 1_555
Al100 Al63 2.689308 1_555
Al100 Al101 2.762586 1_555
Al100 Al72 2.772494 1_555
Al100 Fe0 2.781466 1_555
Al100 Fe5 2.781468 1_545
Al100 Al106 2.798428 1_545
Al100 Al54 2.846031 1_544
Al100 Al65 2.852031 1_555
Al100 Al83 2.873175 1_545
Al100 Al16 2.959948 1_545
Al100 Al27 3.003058 1_545
Al101 Al12 2.662021 1_555
Al101 Cr5 2.678147 1_555
Al101 Al64 2.689308 1_555
Al101 Al72 2.772494 1_555
Al101 Fe1 2.781466 1_555
Al101 Fe5 2.781468 1_545
Al101 Al106 2.798428 1_545
Al101 Al53 2.846031 1_544
Al101 Al66 2.852031 1_555
Al101 Al84 2.873175 1_545
Al101 Al17 2.959948 1_545
Al101 Al28 3.003058 1_545
Al102 Al115 2.614030 1_555
Al102 Cr14 2.637163 1_556
Al102 Al49 2.735334 1_556
Al102 Al29 2.746221 1_555
Al102 Fe4 2.772375 1_555
Al102 Al118 2.808352 1_556
Al102 Al37 2.820800 1_555
Al102 Al103 2.827405 1_555
Al102 Al60 2.844879 1_555
Al102 Al50 2.921052 1_555
Al102 Al20 3.011087 1_555
Al103 Al116 2.614030 1_555
Al103 Cr14 2.637163 1_556
Al103 Al49 2.735334 1_556
Al103 Al30 2.746221 1_555
Al103 Fe4 2.772375 1_555
Al103 Al117 2.808352 1_556
Al103 Al38 2.820800 1_555
Al103 Al60 2.844879 1_555
Al103 Al51 2.921052 1_555
Al103 Al21 3.011087 1_555
Al104 Al18 2.592549 1_555
Al104 Cr0 2.596276 1_555
Al104 Al13 2.620123 1_555
Al104 Al56 2.622802 1_555
Al104 Al70 2.683405 1_555
Al104 Cr1 2.690509 1_555
Al104 Al5 2.699065 1_555
Al104 Al61 2.938156 1_555
Al104 Al92 2.957878 1_555
Al105 Al19 2.592549 1_555
Al105 Cr0 2.596276 1_555
Al105 Al14 2.620123 1_555
Al105 Al57 2.622802 1_455
Al105 Al71 2.683405 1_555
Al105 Cr2 2.690509 1_455
Al105 Al5 2.699065 1_555
Al105 Al11 2.860627 1_555
Al105 Al62 2.938156 1_555
Al105 Al92 2.957878 1_555
Al106 Fe5 2.401294 1_555
Al106 Fe6 2.406549 1_555
Al106 Al28 2.718970 1_555
Al106 Al27 2.718970 1_555
Al107 Fe10 2.418146 1_454
Al107 Fe9 2.425569 1_555
Al107 Al41 2.708934 1_444
Al107 Al42 2.708934 1_544
Al107 Al76 2.770095 1_445
Al107 Al75 2.770095 1_545
Al108 Al39 2.592052 1_555
Al108 Al110 2.673775 1_555
Al108 Al31 2.693371 1_565
Al108 Cr1 2.735017 1_555
Al108 Al88 2.736881 1_555
Al108 Al73 2.748977 1_555
Al108 Cr11 2.807745 1_555
Al108 Al25 2.822561 1_555
Al108 Fe6 2.857334 1_555
Al108 Al6 2.951633 1_565
Al108 Al33 3.026176 1_555
Al108 Al27 3.070876 1_555
Al109 Al39 2.592052 1_555
Al109 Al111 2.673775 1_655
Al109 Al32 2.693371 1_665
Al109 Cr2 2.735017 1_555
Al109 Al88 2.736881 1_555
Al109 Al74 2.748977 1_555
Al109 Cr12 2.807745 1_555
Al109 Al26 2.822561 1_555
Al109 Fe6 2.857333 1_555
Al109 Al7 2.951633 1_665
Al109 Al34 3.026176 1_655
Al109 Al28 3.070876 1_555
Al110 Al70 2.554189 1_555
Al110 Al33 2.629725 1_555
Al110 Al55 2.719090 1_555
Al110 Fe12 2.738368 1_555
Al110 Al5 2.761331 1_555
Al110 Al13 2.793912 1_555
Al110 Fe2 2.813030 1_555
Al110 Cr1 2.888547 1_555
Al110 Al111 2.895171 1_555
Al110 Al31 3.079779 1_565
Al111 Al71 2.554189 1_555
Al111 Al34 2.629725 1_555
Al111 Al55 2.719091 1_555
Al111 Fe12 2.738368 1_555
Al111 Al5 2.761331 1_555
Al111 Al14 2.793912 1_555
Al111 Fe2 2.813030 1_555
Al111 Cr2 2.888547 1_455
Al111 Al32 3.079779 1_565
Al112 Al91 2.604950 1_555
Al112 Al67 2.680693 1_555
Al112 Al13 2.697206 1_545
Al112 Al52 2.727180 1_545
Al112 Cr3 2.739822 1_555
Al112 Al23 2.746146 1_555
Al112 Cr11 2.791373 1_545
Al112 Al8 2.824988 1_555
Al112 Fe10 2.841113 1_555
Al112 Al61 2.991287 1_545
Al112 Al46 3.048584 1_555
Al112 Al41 3.073171 1_545
Al113 Al91 2.604950 1_455
Al113 Al68 2.680693 1_555
Al113 Al14 2.697206 1_545
Al113 Al52 2.727180 1_445
Al113 Cr4 2.739822 1_555
Al113 Al24 2.746146 1_555
Al113 Cr12 2.791373 1_445
Al113 Al9 2.824988 1_555
Al113 Fe10 2.841113 1_455
Al113 Al62 2.991287 1_545
Al113 Al47 3.048585 1_555
Al113 Al42 3.073171 1_545
Al114 Fe3 2.518143 1_555
Al114 Al55 2.720270 1_545
Al114 Al99 2.751776 1_555
Al114 Al98 2.751776 1_555
Al114 Al81 2.768300 1_555
Al114 Al82 2.768300 1_555
Al114 Al7 2.769104 1_555
Al114 Al6 2.769104 1_555
Al114 Al79 2.890666 1_555
Al114 Al80 2.890666 1_555
Al115 Al67 2.562339 1_555
Al115 Fe3 2.675816 1_555
Al115 Al50 2.707693 1_555
Al115 Fe4 2.732513 1_555
Al115 Al79 2.755054 1_555
Al115 Al60 2.769394 1_555
Al115 Al116 2.776041 1_555
Al115 Al90 2.818368 1_555
Al115 Cr3 2.841301 1_555
Al115 Al18 2.849576 1_555
Al116 Al68 2.562339 1_555
Al116 Fe3 2.675816 1_555
Al116 Al51 2.707693 1_555
Al116 Fe4 2.732513 1_555
Al116 Al80 2.755054 1_555
Al116 Al60 2.769394 1_555
Al116 Al90 2.818368 1_555
Al116 Cr4 2.841301 1_555
Al116 Al19 2.849576 1_555
Al117 Fe7 2.472204 1_555
Al117 Cr14 2.509782 1_555
Al117 Al35 2.664922 1_555
Al117 Al30 2.824277 1_554
Al117 Al44 2.827157 1_555
Al117 Al38 2.873633 1_554
Al118 Fe8 2.472204 1_555
Al118 Cr14 2.509782 1_555
Al118 Al36 2.664922 1_555
Al118 Al29 2.824277 1_554
Al118 Al45 2.827157 1_555
Al118 Al37 2.873633 1_554
Al118 Al2 2.883960 1_555
Cr0 Fe3 2.789051 1_555
Cr1 Cr9 2.541909 1_555
Cr1 Cr6 2.622514 1_555
Cr1 Cr11 3.029321 1_555
Cr2 Cr9 2.541909 1_555
Cr2 Cr6 2.622514 1_555
Cr3 Cr7 2.694546 1_555
Cr4 Cr7 2.694546 1_455
Cr5 Fe0 2.721027 1_555
Cr5 Fe1 2.721027 1_555
Cr6 Cr9 2.359257 1_555
Cr8 Fe2 2.786211 1_555
Cr9 Fe11 2.545679 1_555
Cr10 Cr7 2.348277 1_555
Cr10 Cr13 2.434655 1_555
Cr10 Cr3 2.603563 1_555
Cr10 Cr4 2.603563 1_655
Cr10 Cr11 2.913442 1_545
Cr10 Cr12 2.913442 1_545
Cr11 Cr12 2.266128 1_555
Cr11 Cr9 2.778579 1_555
Cr11 Cr3 3.099432 1_565
Cr12 Cr9 2.778579 1_555
Cr12 Cr2 3.029321 1_555
Cr12 Cr4 3.099432 1_665
Cr14 Fe4 2.779305 1_554
Cr15 Fe7 2.707812 1_555
Cr15 Fe8 2.707812 1_455
