# generated using pymatgen
data_YbWO5
_symmetry_space_group_name_H-M   'P 1'
_cell_length_a   12.83476100
_cell_length_b   5.43524900
_cell_length_c   7.19363140
_cell_angle_alpha   61.17855998
_cell_angle_beta   90.00000000
_cell_angle_gamma   90.00000000
_symmetry_Int_Tables_number   1
_chemical_formula_structural   YbWO5
_chemical_formula_sum   'Yb4 W4 O20'
_cell_volume   439.66526102
_cell_formula_units_Z   4
loop_
 _symmetry_equiv_pos_site_id
 _symmetry_equiv_pos_as_xyz
  1  'x, y, z'
loop_
 _atom_site_type_symbol
 _atom_site_label
 _atom_site_symmetry_multiplicity
 _atom_site_fract_x
 _atom_site_fract_y
 _atom_site_fract_z
 _atom_site_occupancy
  Yb  Yb0  1  0.55772000  0.65065800  0.22793800  1
  Yb  Yb1  1  0.44228000  0.34934200  0.77206200  1
  Yb  Yb2  1  0.05772000  0.34934200  0.27206200  1
  Yb  Yb3  1  0.94228000  0.65065800  0.72793800  1
  W  W0  1  0.86285300  0.89236800  0.15006600  1
  W  W1  1  0.13714700  0.10763200  0.84993400  1
  W  W2  1  0.36285300  0.10763200  0.34993400  1
  W  W3  1  0.63714700  0.89236800  0.65006600  1
  O  O0  1  0.91972600  0.54257200  0.44658000  1
  O  O1  1  0.08027400  0.45742800  0.55342000  1
  O  O2  1  0.41972600  0.45742800  0.05342000  1
  O  O3  1  0.58027400  0.54257200  0.94658000  1
  O  O4  1  0.42763500  0.00611200  0.15726000  1
  O  O5  1  0.57236500  0.99388800  0.84274000  1
  O  O6  1  0.92763500  0.99388800  0.34274000  1
  O  O7  1  0.07236500  0.00611200  0.65726000  1
  O  O8  1  0.93514800  0.70345800  0.03568100  1
  O  O9  1  0.06485200  0.29654200  0.96431900  1
  O  O10  1  0.43514800  0.29654200  0.46431900  1
  O  O11  1  0.56485200  0.70345800  0.53568100  1
  O  O12  1  0.72981800  0.78208000  0.20946100  1
  O  O13  1  0.27018200  0.21792000  0.79053900  1
  O  O14  1  0.22981800  0.21792000  0.29053900  1
  O  O15  1  0.77018200  0.78208000  0.70946100  1
  O  O16  1  0.14943400  0.76180600  0.07673000  1
  O  O17  1  0.85056600  0.23819400  0.92327000  1
  O  O18  1  0.64943400  0.23819400  0.42327000  1
  O  O19  1  0.35056600  0.76180600  0.57673000  1
loop_
_geom_bond_atom_site_label_1
_geom_bond_atom_site_label_2
_geom_bond_distance
_geom_bond_site_symmetry_2
O0 W0 2.187973 1_555
O0 Yb3 2.381568 1_555
O0 Yb2 2.662185 1_655
O1 W1 2.187973 1_555
O1 Yb2 2.381568 1_555
O1 Yb3 2.662185 1_455
O2 W2 2.187973 1_555
O2 Yb1 2.381568 1_554
O2 Yb0 2.662185 1_555
O3 W3 2.187973 1_555
O3 Yb0 2.381568 1_556
O3 Yb1 2.662185 1_555
O4 W2 1.911608 1_555
O4 Yb0 2.414865 1_545
O4 Yb1 2.491938 1_554
O5 W3 1.911608 1_555
O5 Yb1 2.414865 1_565
O5 Yb0 2.491938 1_556
O6 W0 1.911608 1_555
O6 Yb2 2.414865 1_665
O6 Yb3 2.491938 1_555
O7 W1 1.911608 1_555
O7 Yb3 2.414865 1_445
O7 Yb2 2.491938 1_555
O8 W0 1.845781 1_555
O8 Yb3 2.367309 1_554
O8 Yb2 2.432146 1_655
O9 W1 1.845781 1_555
O9 Yb2 2.367309 1_556
O9 Yb3 2.432146 1_455
O10 W2 1.845781 1_555
O10 Yb1 2.367309 1_555
O10 Yb0 2.432146 1_555
O11 W3 1.845781 1_555
O11 Yb0 2.367309 1_555
O11 Yb1 2.432146 1_555
O12 W0 1.791761 1_555
O12 Yb0 2.305499 1_555
O13 W1 1.791761 1_555
O13 Yb1 2.305499 1_555
O14 W2 1.791761 1_555
O14 Yb2 2.305499 1_555
O15 W3 1.791761 1_555
O15 Yb3 2.305499 1_555
O16 W1 1.806371 1_564
O16 Yb2 2.312726 1_555
O17 W0 1.806371 1_546
O17 Yb3 2.312726 1_555
O18 W3 1.806371 1_545
O18 Yb0 2.312726 1_555
O19 W2 1.806371 1_565
O19 Yb1 2.312726 1_555
