# generated using pymatgen
data_DySiAg
_symmetry_space_group_name_H-M   'P 1'
_cell_length_a   7.01888348
_cell_length_b   7.01888348
_cell_length_c   4.18348395
_cell_angle_alpha   90.00000000
_cell_angle_beta   90.00000000
_cell_angle_gamma   120.00000359
_symmetry_Int_Tables_number   1
_chemical_formula_structural   DySiAg
_chemical_formula_sum   'Dy3 Si3 Ag3'
_cell_volume   178.48625972
_cell_formula_units_Z   3
loop_
 _symmetry_equiv_pos_site_id
 _symmetry_equiv_pos_as_xyz
  1  'x, y, z'
loop_
 _atom_site_type_symbol
 _atom_site_label
 _atom_site_symmetry_multiplicity
 _atom_site_fract_x
 _atom_site_fract_y
 _atom_site_fract_z
 _atom_site_occupancy
  Dy  Dy0  1  0.41833322  0.41833322  0.50000000  1
  Dy  Dy1  1  0.58166678  -0.00000000  0.50000000  1
  Dy  Dy2  1  -0.00000000  0.58166678  0.50000000  1
  Si  Si0  1  0.66666700  0.33333300  0.00000000  1
  Si  Si1  1  0.33333300  0.66666700  0.00000000  1
  Si  Si2  1  0.00000000  0.00000000  0.50000000  1
  Ag  Ag0  1  0.75030724  0.75030724  0.00000000  1
  Ag  Ag1  1  0.24969276  0.00000000  -0.00000000  1
  Ag  Ag2  1  0.00000000  0.24969276  0.00000000  1
loop_
_geom_bond_atom_site_label_1
_geom_bond_atom_site_label_2
_geom_bond_distance
_geom_bond_site_symmetry_2
Dy0 Si2 2.936232 1_555
Dy0 Si0 2.968057 1_555
Dy0 Si0 2.968057 1_556
Dy0 Si1 2.968057 1_556
Dy0 Si1 2.968057 1_555
Dy1 Si2 2.936232 1_655
Dy1 Si0 2.968052 1_555
Dy1 Si0 2.968052 1_556
Dy1 Si1 2.968054 1_546
Dy1 Si1 2.968054 1_545
Dy2 Si2 2.936232 1_565
Dy2 Si1 2.968052 1_556
Dy2 Si1 2.968052 1_555
Dy2 Si0 2.968054 1_455
Dy2 Si0 2.968054 1_456
Ag0 Si1 2.681796 1_555
Ag0 Si0 2.681796 1_555
Ag0 Si2 2.728895 1_665
Ag0 Si2 2.728895 1_664
Ag0 Ag2 3.035530 1_665
Ag0 Ag1 3.035530 1_665
Ag0 Dy0 3.131244 1_554
Ag0 Dy0 3.131244 1_555
Ag0 Dy2 3.304904 1_655
Ag0 Dy2 3.304904 1_654
Ag0 Dy1 3.304904 1_565
Ag0 Dy1 3.304904 1_564
Ag1 Si1 2.681789 1_545
Ag1 Si0 2.681793 1_555
Ag1 Si2 2.728895 1_554
Ag1 Si2 2.728895 1_555
Ag1 Ag2 3.035531 1_555
Ag1 Dy1 3.131244 1_555
Ag1 Dy1 3.131244 1_554
Ag1 Dy2 3.304904 1_544
Ag1 Dy2 3.304904 1_545
Ag1 Dy0 3.304904 1_555
Ag1 Dy0 3.304904 1_554
Ag2 Si0 2.681789 1_455
Ag2 Si1 2.681793 1_555
Ag2 Si2 2.728895 1_554
Ag2 Si2 2.728895 1_555
Ag2 Dy2 3.131244 1_554
Ag2 Dy2 3.131244 1_555
Ag2 Dy1 3.304904 1_454
Ag2 Dy1 3.304904 1_455
Ag2 Dy0 3.304904 1_555
Ag2 Dy0 3.304904 1_554
