# generated using pymatgen
data_Al2TeSO9
_symmetry_space_group_name_H-M   'P 1'
_cell_length_a   9.53367200
_cell_length_b   5.03203700
_cell_length_c   7.23496088
_cell_angle_alpha   86.72028689
_cell_angle_beta   90.00000000
_cell_angle_gamma   90.00000000
_symmetry_Int_Tables_number   1
_chemical_formula_structural   Al2TeSO9
_chemical_formula_sum   'Al4 Te2 S2 O18'
_cell_volume   346.52001207
_cell_formula_units_Z   2
loop_
 _symmetry_equiv_pos_site_id
 _symmetry_equiv_pos_as_xyz
  1  'x, y, z'
loop_
 _atom_site_type_symbol
 _atom_site_label
 _atom_site_symmetry_multiplicity
 _atom_site_fract_x
 _atom_site_fract_y
 _atom_site_fract_z
 _atom_site_occupancy
  Al  Al0  1  0.92682700  0.75400700  0.06402700  1
  Al  Al1  1  0.42682700  0.24599300  0.93597300  1
  Al  Al2  1  0.07317300  0.24599300  0.93597300  1
  Al  Al3  1  0.57317300  0.75400700  0.06402700  1
  Te  Te0  1  0.25000000  0.65496200  0.16042100  1
  Te  Te1  1  0.75000000  0.34503800  0.83957900  1
  S  S0  1  0.25000000  0.04243300  0.60451200  1
  S  S1  1  0.75000000  0.95756700  0.39548800  1
  O  O0  1  0.25000000  0.41078300  0.95847300  1
  O  O1  1  0.75000000  0.58921700  0.04152700  1
  O  O2  1  0.11027600  0.91546100  0.05983200  1
  O  O3  1  0.61027600  0.08453900  0.94016800  1
  O  O4  1  0.88972400  0.08453900  0.94016800  1
  O  O5  1  0.38972400  0.91546100  0.05983200  1
  O  O6  1  0.03252900  0.45225400  0.14814200  1
  O  O7  1  0.53252900  0.54774600  0.85185800  1
  O  O8  1  0.96747100  0.54774600  0.85185800  1
  O  O9  1  0.46747100  0.45225400  0.14814200  1
  O  O10  1  0.25000000  0.13607000  0.40793100  1
  O  O11  1  0.75000000  0.86393000  0.59206900  1
  O  O12  1  0.25000000  0.75025300  0.60999400  1
  O  O13  1  0.75000000  0.24974700  0.39000600  1
  O  O14  1  0.12159000  0.14336200  0.69777600  1
  O  O15  1  0.62159000  0.85663800  0.30222400  1
  O  O16  1  0.87841000  0.85663800  0.30222400  1
  O  O17  1  0.37841000  0.14336200  0.69777600  1
loop_
_geom_bond_atom_site_label_1
_geom_bond_atom_site_label_2
_geom_bond_distance
_geom_bond_site_symmetry_2
Al0 O4 1.877233 1_564
Al0 O16 1.884552 1_555
Al0 O1 1.889848 1_555
Al0 O6 1.893614 1_655
Al0 O2 1.927943 1_655
Al0 O8 1.940629 1_554
Al1 O5 1.877233 1_546
Al1 O17 1.884552 1_555
Al1 O0 1.889848 1_555
Al1 O7 1.893614 1_555
Al1 O3 1.927943 1_555
Al1 O9 1.940629 1_556
Al2 O2 1.877233 1_546
Al2 O14 1.884552 1_555
Al2 O0 1.889848 1_555
Al2 O8 1.893614 1_455
Al2 O4 1.927943 1_455
Al2 O6 1.940629 1_556
Al3 O3 1.877233 1_564
Al3 O15 1.884552 1_555
Al3 O1 1.889848 1_555
Al3 O9 1.893614 1_555
Al3 O5 1.927943 1_555
Al3 O7 1.940629 1_554
O0 Te0 1.962125 1_556
O1 Te1 1.962125 1_554
O2 Te0 1.978187 1_555
O3 Te1 1.978187 1_555
O4 Te1 1.978187 1_555
O5 Te0 1.978187 1_555
O6 Te0 2.314582 1_555
O7 Te1 2.314582 1_555
O8 Te1 2.314582 1_555
O9 Te0 2.314582 1_555
O10 S0 1.472463 1_555
O11 S1 1.472463 1_555
O12 S0 1.468525 1_565
O13 S1 1.468525 1_545
O14 S0 1.500389 1_555
O15 S1 1.500389 1_555
O16 S1 1.500389 1_555
O17 S0 1.500389 1_555
