# generated using pymatgen
data_InGe3
_symmetry_space_group_name_H-M   'P 1'
_cell_length_a   5.68154874
_cell_length_b   5.68154874
_cell_length_c   5.68154874
_cell_angle_alpha   135.87679917
_cell_angle_beta   135.87679917
_cell_angle_gamma   64.17086322
_symmetry_Int_Tables_number   1
_chemical_formula_structural   InGe3
_chemical_formula_sum   'In1 Ge3'
_cell_volume   87.68675234
_cell_formula_units_Z   1
loop_
 _symmetry_equiv_pos_site_id
 _symmetry_equiv_pos_as_xyz
  1  'x, y, z'
loop_
 _atom_site_type_symbol
 _atom_site_label
 _atom_site_symmetry_multiplicity
 _atom_site_fract_x
 _atom_site_fract_y
 _atom_site_fract_z
 _atom_site_occupancy
  In  In0  1  0.00000000  0.00000000  0.00000000  1
  Ge  Ge0  1  0.75000000  0.25000000  0.50000000  1
  Ge  Ge1  1  0.25000000  0.75000000  0.50000000  1
  Ge  Ge2  1  0.50000000  0.50000000  0.00000000  1
loop_
_geom_bond_atom_site_label_1
_geom_bond_atom_site_label_2
_geom_bond_distance
_geom_bond_site_symmetry_2
Ge0 Ge1 3.017943 1_544
Ge0 Ge1 3.017943 1_656
Ge0 Ge1 3.017943 1_645
Ge0 Ge1 3.017943 1_555
Ge0 In0 3.216674 1_655
Ge0 In0 3.216674 1_666
Ge0 In0 3.216674 1_656
Ge0 In0 3.216674 1_555
Ge1 In0 3.216674 1_555
Ge1 In0 3.216674 1_566
Ge1 In0 3.216674 1_565
Ge1 In0 3.216674 1_666
Ge2 In0 3.017943 1_554
Ge2 In0 3.017943 1_666
Ge2 In0 3.017943 1_565
Ge2 In0 3.017943 1_655
