# generated using pymatgen
data_B4Pb6O13
_symmetry_space_group_name_H-M   'P 1'
_cell_length_a   7.60165500
_cell_length_b   12.96861200
_cell_length_c   14.20646200
_cell_angle_alpha   90.00000000
_cell_angle_beta   90.00000000
_cell_angle_gamma   90.00000000
_symmetry_Int_Tables_number   1
_chemical_formula_structural   B4Pb6O13
_chemical_formula_sum   'B16 Pb24 O52'
_cell_volume   1400.51442518
_cell_formula_units_Z   4
loop_
 _symmetry_equiv_pos_site_id
 _symmetry_equiv_pos_as_xyz
  1  'x, y, z'
loop_
 _atom_site_type_symbol
 _atom_site_label
 _atom_site_symmetry_multiplicity
 _atom_site_fract_x
 _atom_site_fract_y
 _atom_site_fract_z
 _atom_site_occupancy
  B  B0  1  0.87590400  0.61268100  0.06219700  1
  B  B1  1  0.62409600  0.88731900  0.56219700  1
  B  B2  1  0.12409600  0.11268100  0.93780300  1
  B  B3  1  0.37590400  0.38731900  0.43780300  1
  B  B4  1  0.12409600  0.38731900  0.93780300  1
  B  B5  1  0.37590400  0.11268100  0.43780300  1
  B  B6  1  0.87590400  0.88731900  0.06219700  1
  B  B7  1  0.62409600  0.61268100  0.56219700  1
  B  B8  1  0.02829200  0.75000000  0.97092000  1
  B  B9  1  0.47170800  0.75000000  0.47092000  1
  B  B10  1  0.97170800  0.25000000  0.02908000  1
  B  B11  1  0.52829200  0.25000000  0.52908000  1
  B  B12  1  0.71498100  0.75000000  0.97289600  1
  B  B13  1  0.78501900  0.75000000  0.47289600  1
  B  B14  1  0.28501900  0.25000000  0.02710400  1
  B  B15  1  0.21498100  0.25000000  0.52710400  1
  Pb  Pb0  1  0.64196900  0.39946900  0.06306900  1
  Pb  Pb1  1  0.85803100  0.10053100  0.56306900  1
  Pb  Pb2  1  0.35803100  0.89946900  0.93693100  1
  Pb  Pb3  1  0.14196900  0.60053100  0.43693100  1
  Pb  Pb4  1  0.35803100  0.60053100  0.93693100  1
  Pb  Pb5  1  0.14196900  0.89946900  0.43693100  1
  Pb  Pb6  1  0.64196900  0.10053100  0.06306900  1
  Pb  Pb7  1  0.85803100  0.39946900  0.56306900  1
  Pb  Pb8  1  0.14515100  0.48978800  0.20349200  1
  Pb  Pb9  1  0.35484900  0.01021200  0.70349200  1
  Pb  Pb10  1  0.85484900  0.98978800  0.79650800  1
  Pb  Pb11  1  0.64515100  0.51021200  0.29650800  1
  Pb  Pb12  1  0.85484900  0.51021200  0.79650800  1
  Pb  Pb13  1  0.64515100  0.98978800  0.29650800  1
  Pb  Pb14  1  0.14515100  0.01021200  0.20349200  1
  Pb  Pb15  1  0.35484900  0.48978800  0.70349200  1
  Pb  Pb16  1  0.12236400  0.75000000  0.74382200  1
  Pb  Pb17  1  0.37763600  0.75000000  0.24382200  1
  Pb  Pb18  1  0.87763600  0.25000000  0.25617800  1
  Pb  Pb19  1  0.62236400  0.25000000  0.75617800  1
  Pb  Pb20  1  0.60294300  0.75000000  0.75765300  1
  Pb  Pb21  1  0.89705700  0.75000000  0.25765300  1
  Pb  Pb22  1  0.39705700  0.25000000  0.24234700  1
  Pb  Pb23  1  0.10294300  0.25000000  0.74234700  1
  O  O0  1  0.87851900  0.52833800  0.12223700  1
  O  O1  1  0.62148100  0.97166200  0.62223700  1
  O  O2  1  0.12148100  0.02833800  0.87776300  1
  O  O3  1  0.37851900  0.47166200  0.37776300  1
  O  O4  1  0.12148100  0.47166200  0.87776300  1
  O  O5  1  0.37851900  0.02833800  0.37776300  1
  O  O6  1  0.87851900  0.97166200  0.12223700  1
  O  O7  1  0.62148100  0.52833800  0.62223700  1
  O  O8  1  0.03411900  0.65612900  0.03335500  1
  O  O9  1  0.46588100  0.84387100  0.53335500  1
  O  O10  1  0.96588100  0.15612900  0.96664500  1
  O  O11  1  0.53411900  0.34387100  0.46664500  1
  O  O12  1  0.96588100  0.34387100  0.96664500  1
  O  O13  1  0.53411900  0.15612900  0.46664500  1
  O  O14  1  0.03411900  0.84387100  0.03335500  1
  O  O15  1  0.46588100  0.65612900  0.53335500  1
  O  O16  1  0.71786900  0.65434600  0.03351800  1
  O  O17  1  0.78213100  0.84565400  0.53351800  1
  O  O18  1  0.28213100  0.15434600  0.96648200  1
  O  O19  1  0.21786900  0.34565400  0.46648200  1
  O  O20  1  0.28213100  0.34565400  0.96648200  1
  O  O21  1  0.21786900  0.15434600  0.46648200  1
  O  O22  1  0.71786900  0.84565400  0.03351800  1
  O  O23  1  0.78213100  0.65434600  0.53351800  1
  O  O24  1  0.18337700  0.75000000  0.91088300  1
  O  O25  1  0.31662300  0.75000000  0.41088300  1
  O  O26  1  0.81662300  0.25000000  0.08911700  1
  O  O27  1  0.68337700  0.25000000  0.58911700  1
  O  O28  1  0.87119100  0.75000000  0.91094900  1
  O  O29  1  0.62880900  0.75000000  0.41094900  1
  O  O30  1  0.12880900  0.25000000  0.08905100  1
  O  O31  1  0.37119100  0.25000000  0.58905100  1
  O  O32  1  0.55516500  0.75000000  0.91723100  1
  O  O33  1  0.94483500  0.75000000  0.41723100  1
  O  O34  1  0.44483500  0.25000000  0.08276900  1
  O  O35  1  0.05516500  0.25000000  0.58276900  1
  O  O36  1  0.62428300  0.35933500  0.22782500  1
  O  O37  1  0.87571700  0.14066500  0.72782500  1
  O  O38  1  0.37571700  0.85933500  0.77217500  1
  O  O39  1  0.12428300  0.64066500  0.27217500  1
  O  O40  1  0.37571700  0.64066500  0.77217500  1
  O  O41  1  0.12428300  0.85933500  0.27217500  1
  O  O42  1  0.62428300  0.14066500  0.22782500  1
  O  O43  1  0.87571700  0.35933500  0.72782500  1
  O  O44  1  0.06163300  0.56509200  0.69320700  1
  O  O45  1  0.43836700  0.93490800  0.19320700  1
  O  O46  1  0.93836700  0.06509200  0.30679300  1
  O  O47  1  0.56163300  0.43490800  0.80679300  1
  O  O48  1  0.93836700  0.43490800  0.30679300  1
  O  O49  1  0.56163300  0.06509200  0.80679300  1
  O  O50  1  0.06163300  0.93490800  0.69320700  1
  O  O51  1  0.43836700  0.56509200  0.19320700  1
loop_
_geom_bond_atom_site_label_1
_geom_bond_atom_site_label_2
_geom_bond_distance
_geom_bond_site_symmetry_2
B0 O16 1.378822 1_555
B0 O0 1.387210 1_555
B0 O8 1.389911 1_655
B1 O17 1.378822 1_555
B1 O1 1.387210 1_555
B1 O9 1.389911 1_555
B2 O18 1.378822 1_555
B2 O2 1.387210 1_555
B2 O10 1.389911 1_455
B3 O19 1.378822 1_555
B3 O3 1.387210 1_555
B3 O11 1.389911 1_555
B4 O20 1.378822 1_555
B4 O4 1.387210 1_555
B4 O12 1.389911 1_455
B5 O21 1.378822 1_555
B5 O5 1.387210 1_555
B5 O13 1.389911 1_555
B6 O22 1.378822 1_555
B6 O6 1.387210 1_555
B6 O14 1.389911 1_655
B7 O23 1.378822 1_555
B7 O7 1.387210 1_555
B7 O15 1.389911 1_555
B8 O24 1.455085 1_555
B8 O28 1.466984 1_455
B8 O8 1.506885 1_556
B8 O14 1.506885 1_556
B9 O25 1.455085 1_555
B9 O29 1.466984 1_555
B9 O9 1.506885 1_555
B9 O15 1.506885 1_555
B10 O26 1.455085 1_555
B10 O30 1.466984 1_655
B10 O12 1.506885 1_554
B10 O10 1.506885 1_554
B11 O27 1.455085 1_555
B11 O31 1.466984 1_555
B11 O11 1.506885 1_555
B11 O13 1.506885 1_555
B12 O32 1.449575 1_555
B12 O28 1.478016 1_555
B12 O16 1.510307 1_556
B12 O22 1.510307 1_556
B13 O33 1.449575 1_555
B13 O29 1.478016 1_555
B13 O23 1.510307 1_555
B13 O17 1.510307 1_555
B14 O34 1.449575 1_555
B14 O30 1.478016 1_555
B14 O18 1.510307 1_554
B14 O20 1.510307 1_554
B15 O35 1.449575 1_555
B15 O31 1.478016 1_555
B15 O21 1.510307 1_555
B15 O19 1.510307 1_555
O0 Pb8 2.385488 1_655
O0 Pb0 2.594814 1_555
O1 Pb9 2.385488 1_565
O1 Pb1 2.594814 1_565
O2 Pb10 2.385488 1_445
O2 Pb2 2.594814 1_545
O3 Pb11 2.385488 1_555
O3 Pb3 2.594814 1_555
O4 Pb12 2.385488 1_455
O4 Pb4 2.594814 1_555
O5 Pb13 2.385488 1_545
O5 Pb5 2.594814 1_545
O6 Pb14 2.385488 1_665
O6 Pb6 2.594814 1_565
O7 Pb15 2.385488 1_555
O7 Pb7 2.594814 1_555
O24 Pb4 2.378452 1_555
O24 Pb2 2.378452 1_555
O24 Pb16 2.418239 1_555
O25 Pb3 2.378452 1_555
O25 Pb5 2.378452 1_555
O25 Pb17 2.418239 1_555
O26 Pb6 2.378452 1_555
O26 Pb0 2.378452 1_555
O26 Pb18 2.418239 1_555
O27 Pb7 2.378452 1_555
O27 Pb1 2.378452 1_555
O27 Pb19 2.418239 1_555
O32 Pb20 2.295947 1_555
O32 Pb2 2.466045 1_555
O32 Pb4 2.466045 1_555
O33 Pb21 2.295947 1_555
O33 Pb5 2.466045 1_655
O33 Pb3 2.466045 1_655
O34 Pb22 2.295947 1_555
O34 Pb6 2.466045 1_555
O34 Pb0 2.466045 1_555
O35 Pb23 2.295947 1_555
O35 Pb1 2.466045 1_455
O35 Pb7 2.466045 1_455
O36 Pb11 2.192208 1_555
O36 Pb22 2.244240 1_555
O36 Pb0 2.401538 1_555
O36 Pb18 2.425252 1_555
O37 Pb10 2.192208 1_545
O37 Pb23 2.244240 1_655
O37 Pb1 2.401538 1_555
O37 Pb19 2.425252 1_555
O38 Pb9 2.192208 1_565
O38 Pb20 2.244240 1_555
O38 Pb2 2.401538 1_555
O38 Pb16 2.425252 1_555
O39 Pb8 2.192208 1_555
O39 Pb21 2.244240 1_455
O39 Pb3 2.401538 1_555
O39 Pb17 2.425252 1_555
O40 Pb15 2.192208 1_555
O40 Pb20 2.244240 1_555
O40 Pb4 2.401538 1_555
O40 Pb16 2.425252 1_555
O41 Pb14 2.192208 1_565
O41 Pb21 2.244240 1_455
O41 Pb5 2.401538 1_555
O41 Pb17 2.425252 1_555
O42 Pb13 2.192208 1_545
O42 Pb22 2.244240 1_555
O42 Pb6 2.401538 1_555
O42 Pb18 2.425252 1_555
O43 Pb12 2.192208 1_555
O43 Pb23 2.244240 1_655
O43 Pb7 2.401538 1_555
O43 Pb19 2.425252 1_555
O44 Pb12 2.265191 1_455
O44 Pb15 2.437866 1_555
O44 Pb16 2.545698 1_555
O45 Pb13 2.265191 1_555
O45 Pb14 2.437866 1_565
O45 Pb17 2.545698 1_555
O46 Pb14 2.265191 1_655
O46 Pb13 2.437866 1_545
O46 Pb18 2.545698 1_555
O47 Pb15 2.265191 1_555
O47 Pb12 2.437866 1_555
O47 Pb19 2.545698 1_555
O48 Pb8 2.265191 1_655
O48 Pb11 2.437866 1_555
O48 Pb18 2.545698 1_555
O49 Pb9 2.265191 1_555
O49 Pb10 2.437866 1_545
O49 Pb19 2.545698 1_555
O50 Pb10 2.265191 1_455
O50 Pb9 2.437866 1_565
O50 Pb16 2.545698 1_555
O51 Pb11 2.265191 1_555
O51 Pb8 2.437866 1_555
O51 Pb17 2.545698 1_555
