# generated using pymatgen
data_Ag6Au2Se3S
_symmetry_space_group_name_H-M   'P 1'
_cell_length_a   8.71726806
_cell_length_b   8.71726806
_cell_length_c   10.07415563
_cell_angle_alpha   54.81446317
_cell_angle_beta   54.81446317
_cell_angle_gamma   70.59740989
_symmetry_Int_Tables_number   1
_chemical_formula_structural   Ag6Au2Se3S
_chemical_formula_sum   'Ag12 Au4 Se6 S2'
_cell_volume   511.35466104
_cell_formula_units_Z   2
loop_
 _symmetry_equiv_pos_site_id
 _symmetry_equiv_pos_as_xyz
  1  'x, y, z'
loop_
 _atom_site_type_symbol
 _atom_site_label
 _atom_site_symmetry_multiplicity
 _atom_site_fract_x
 _atom_site_fract_y
 _atom_site_fract_z
 _atom_site_occupancy
  Ag  Ag0  1  0.87311600  0.12688400  0.50000000  1
  Ag  Ag1  1  0.62645300  0.37354700  0.00000000  1
  Ag  Ag2  1  0.37594600  0.62405400  0.50000000  1
  Ag  Ag3  1  0.13025900  0.86974100  0.00000000  1
  Ag  Ag4  1  0.75233100  0.74850700  0.12614200  1
  Ag  Ag5  1  0.25149300  0.24766900  0.87385800  1
  Ag  Ag6  1  0.74447200  0.75409700  0.62836300  1
  Ag  Ag7  1  0.24590300  0.25552800  0.37163700  1
  Ag  Ag8  1  0.37684600  0.87626000  0.62544000  1
  Ag  Ag9  1  0.12374000  0.62315400  0.37456000  1
  Ag  Ag10  1  0.87860800  0.37646200  0.12758900  1
  Ag  Ag11  1  0.62353800  0.12139200  0.87241100  1
  Au  Au0  1  0.49987300  0.24478500  0.50492000  1
  Au  Au1  1  0.75521500  0.50012700  0.49508000  1
  Au  Au2  1  0.75047100  0.00020700  0.24950800  1
  Au  Au3  1  0.99979300  0.24952900  0.75049200  1
  Se  Se0  1  0.46288200  0.00147500  0.24896300  1
  Se  Se1  1  0.99852500  0.53711800  0.75103700  1
  Se  Se2  1  0.46738900  0.50023700  0.78292800  1
  Se  Se3  1  0.49976300  0.53261100  0.21707200  1
  Se  Se4  1  0.03770600  0.00006700  0.24931400  1
  Se  Se5  1  0.99993300  0.96229400  0.75068600  1
  S  S0  1  0.49884600  0.97310100  0.77712300  1
  S  S1  1  0.02689900  0.50115400  0.22287700  1
loop_
_geom_bond_atom_site_label_1
_geom_bond_atom_site_label_2
_geom_bond_distance
_geom_bond_site_symmetry_2
Ag0 Se5 2.765214 1_545
Ag0 Se4 2.765214 1_655
Ag0 S0 2.886436 1_545
Ag0 S1 2.886436 1_655
Ag0 Au0 3.048956 1_555
Ag0 Au1 3.048956 1_555
Ag1 Se3 2.760128 1_555
Ag1 Se2 2.760128 1_554
Ag1 Se1 2.901706 1_554
Ag1 Se0 2.901706 1_555
Ag1 Au2 3.073289 1_555
Ag1 Au3 3.073289 1_554
Ag2 Se0 2.766500 1_565
Ag2 Se1 2.766500 1_455
Ag2 Se2 2.902713 1_555
Ag2 Se3 2.902713 1_555
Ag2 Au0 3.098419 1_555
Ag2 Au1 3.098419 1_555
Ag3 S1 2.730366 1_555
Ag3 S0 2.730366 1_554
Ag3 Se4 2.931555 1_565
Ag3 Se5 2.931555 1_454
Ag3 Au3 3.126469 1_464
Ag3 Au2 3.126469 1_465
Ag4 Se5 2.752957 1_554
Ag4 Se3 2.769575 1_555
Ag4 S1 2.857502 1_655
Ag4 Se0 2.934288 1_565
Ag4 Au1 3.049599 1_555
Ag4 Au2 3.074869 1_565
Ag5 Se4 2.752957 1_556
Ag5 Se2 2.769575 1_555
Ag5 S0 2.857502 1_545
Ag5 Se1 2.934288 1_455
Ag5 Au0 3.049599 1_555
Ag5 Au3 3.074869 1_455
Ag6 S0 2.712664 1_555
Ag6 Se1 2.772496 1_555
Ag6 Se2 2.898587 1_555
Ag6 Se4 2.944444 1_665
Ag6 Au2 3.095195 1_565
Ag6 Au1 3.139474 1_555
Ag7 S1 2.712664 1_555
Ag7 Se0 2.772496 1_555
Ag7 Se3 2.898587 1_555
Ag7 Se5 2.944444 1_445
Ag7 Au3 3.095195 1_455
Ag7 Au0 3.139474 1_555
Ag8 Se2 2.759624 1_555
Ag8 Se5 2.761456 1_455
Ag8 S0 2.852149 1_555
Ag8 Se0 2.938232 1_565
Ag8 Au0 3.039414 1_565
Ag8 Au2 3.086300 1_565
Ag9 Se3 2.759624 1_555
Ag9 Se4 2.761456 1_565
Ag9 S1 2.852149 1_555
Ag9 Se1 2.938232 1_455
Ag9 Au1 3.039414 1_455
Ag9 Au3 3.086300 1_455
Ag10 S1 2.709288 1_655
Ag10 Se1 2.779283 1_554
Ag10 Se4 2.914217 1_655
Ag10 Se3 2.927184 1_555
Ag10 Au0 3.113439 1_555
Ag10 Au2 3.118418 1_555
Ag11 S0 2.709288 1_545
Ag11 Se0 2.779283 1_556
Ag11 Se5 2.914217 1_545
Ag11 Se2 2.927184 1_555
Ag11 Au1 3.113439 1_555
Ag11 Au3 3.118418 1_555
Au0 S0 2.372775 1_545
Au0 Se3 2.514144 1_555
Au1 S1 2.372775 1_655
Au1 Se2 2.514144 1_555
Au2 Se4 2.502374 1_655
Au2 Se0 2.506498 1_555
Au3 Se5 2.502374 1_545
Au3 Se1 2.506498 1_555
