# generated using pymatgen
data_TbVO2
_symmetry_space_group_name_H-M   'P 1'
_cell_length_a   7.33004858
_cell_length_b   7.33004858
_cell_length_c   7.33004858
_cell_angle_alpha   129.80149115
_cell_angle_beta   129.80149115
_cell_angle_gamma   73.72431358
_symmetry_Int_Tables_number   1
_chemical_formula_structural   TbVO2
_chemical_formula_sum   'Tb4 V4 O8'
_cell_volume   226.79347448
_cell_formula_units_Z   4
loop_
 _symmetry_equiv_pos_site_id
 _symmetry_equiv_pos_as_xyz
  1  'x, y, z'
loop_
 _atom_site_type_symbol
 _atom_site_label
 _atom_site_symmetry_multiplicity
 _atom_site_fract_x
 _atom_site_fract_y
 _atom_site_fract_z
 _atom_site_occupancy
  Tb  Tb0  1  0.87500000  0.62500000  0.25000000  1
  Tb  Tb1  1  0.37500000  0.62500000  0.75000000  1
  Tb  Tb2  1  0.37500000  0.62500000  0.25000000  1
  Tb  Tb3  1  0.37500000  0.12500000  0.75000000  1
  V  V0  1  0.37500000  0.12500000  0.25000000  1
  V  V1  1  0.87500000  0.12500000  0.75000000  1
  V  V2  1  0.87500000  0.12500000  0.25000000  1
  V  V3  1  0.87500000  0.62500000  0.75000000  1
  O  O0  1  0.17409900  0.40760500  0.23350600  1
  O  O1  1  0.17409900  0.94059400  0.76649400  1
  O  O2  1  0.15760500  0.42409900  0.73350600  1
  O  O3  1  0.57590100  0.84239500  0.26649400  1
  O  O4  1  0.69059400  0.42409900  0.26649400  1
  O  O5  1  0.57590100  0.30940600  0.73350600  1
  O  O6  1  0.59239500  0.82590100  0.76649400  1
  O  O7  1  0.05940600  0.82590100  0.23350600  1
loop_
_geom_bond_atom_site_label_1
_geom_bond_atom_site_label_2
_geom_bond_distance
_geom_bond_site_symmetry_2
O0 V0 2.203900 1_555
O0 V1 2.203900 1_454
O0 Tb0 2.344146 1_455
O0 Tb1 2.344146 1_555
O0 Tb2 2.358653 1_555
O1 V1 2.203897 1_465
O1 V0 2.203902 1_566
O1 Tb0 2.344148 1_455
O1 Tb1 2.344152 1_555
O1 Tb3 2.358647 1_565
O2 V3 2.203900 1_455
O2 V2 2.203900 1_455
O2 Tb2 2.344146 1_556
O2 Tb3 2.344146 1_555
O2 Tb1 2.358653 1_555
O3 V0 2.203900 1_565
O3 V1 2.203900 1_565
O3 Tb0 2.344146 1_555
O3 Tb1 2.344146 1_554
O3 Tb2 2.358653 1_555
O4 V2 2.203897 1_555
O4 V3 2.203902 1_555
O4 Tb3 2.344148 1_554
O4 Tb2 2.344152 1_555
O4 Tb0 2.358647 1_555
O5 V1 2.203897 1_555
O5 V0 2.203902 1_555
O5 Tb0 2.344148 1_556
O5 Tb1 2.344152 1_555
O5 Tb3 2.358647 1_555
O6 V3 2.203900 1_555
O6 V2 2.203900 1_566
O6 Tb2 2.344146 1_555
O6 Tb3 2.344146 1_565
O6 Tb1 2.358653 1_555
O7 V2 2.203897 1_465
O7 V3 2.203902 1_454
O7 Tb3 2.344148 1_565
O7 Tb2 2.344152 1_555
O7 Tb0 2.358647 1_455
