# generated using pymatgen
data_MgHg8(NO4)4
_symmetry_space_group_name_H-M   'P 1'
_cell_length_a   5.56914706
_cell_length_b   6.91566409
_cell_length_c   13.95505047
_cell_angle_alpha   99.90363841
_cell_angle_beta   98.59283701
_cell_angle_gamma   88.02096409
_symmetry_Int_Tables_number   1
_chemical_formula_structural   MgHg8(NO4)4
_chemical_formula_sum   'Mg1 Hg8 N4 O16'
_cell_volume   523.49584721
_cell_formula_units_Z   1
loop_
 _symmetry_equiv_pos_site_id
 _symmetry_equiv_pos_as_xyz
  1  'x, y, z'
loop_
 _atom_site_type_symbol
 _atom_site_label
 _atom_site_symmetry_multiplicity
 _atom_site_fract_x
 _atom_site_fract_y
 _atom_site_fract_z
 _atom_site_occupancy
  Mg  Mg0  1  0.61653481  0.25582749  0.94154131  1
  Hg  Hg0  1  0.44899433  0.79284951  0.27215598  1
  Hg  Hg1  1  0.46133375  0.27763422  0.26455650  1
  Hg  Hg2  1  0.53489670  0.28927181  0.70883318  1
  Hg  Hg3  1  0.53827157  0.80400387  0.73454987  1
  Hg  Hg4  1  0.81758226  0.53277584  0.54239744  1
  Hg  Hg5  1  0.28943566  0.89607924  0.96117543  1
  Hg  Hg6  1  0.14573762  0.55326524  0.43136884  1
  Hg  Hg7  1  0.83666930  0.95384326  0.06276256  1
  N  N0  1  0.99863111  0.03580484  0.62280074  1
  N  N1  1  0.09948126  0.41673400  0.88649268  1
  N  N2  1  0.88111934  0.46450460  0.13712592  1
  N  N3  1  0.99247718  0.03541197  0.37920345  1
  O  O0  1  0.17084845  0.51367308  0.82898747  1
  O  O1  1  0.01581610  0.21730340  0.65974919  1
  O  O2  1  0.91958042  0.39546759  0.21581428  1
  O  O3  1  0.98507243  0.86138598  0.32908324  1
  O  O4  1  0.46789217  0.00123140  0.18489617  1
  O  O5  1  0.45278280  0.55772250  0.35074244  1
  O  O6  1  0.54428399  0.09063452  0.80788975  1
  O  O7  1  0.53517580  0.53534872  0.63927413  1
  O  O8  1  0.67782652  0.41714121  0.07858364  1
  O  O9  1  0.19220492  0.12699147  0.39845125  1
  O  O10  1  0.79200416  0.95350535  0.60896344  1
  O  O11  1  0.24854167  0.33128627  0.94491680  1
  O  O12  1  0.02589596  0.57637898  0.11438737  1
  O  O13  1  0.80184449  0.11194440  0.40866162  1
  O  O14  1  0.87215310  0.40540357  0.88976039  1
  O  O15  1  0.18453116  0.93916865  0.60008292  1
loop_
_geom_bond_atom_site_label_1
_geom_bond_atom_site_label_2
_geom_bond_distance
_geom_bond_site_symmetry_2
Mg0 O6 2.005051 1_555
Mg0 O8 2.028744 1_556
Mg0 O14 2.070016 1_555
Mg0 O11 2.102651 1_555
Hg0 O4 2.055014 1_565
Hg0 O5 2.109821 1_555
Hg1 O4 2.041411 1_555
Hg1 O5 2.100036 1_555
Hg2 O7 2.099334 1_555
Hg2 O6 2.104119 1_555
Hg3 O6 2.067453 1_565
Hg3 O7 2.089404 1_555
Hg4 O7 2.219629 1_555
Hg6 O5 2.186649 1_555
Hg7 Mg0 3.024045 1_564
N0 O15 1.263489 1_645
N0 O1 1.273355 1_655
N0 O10 1.275323 1_545
N1 O0 1.245055 1_555
N1 O11 1.277754 1_555
N1 O14 1.279206 1_455
N2 O12 1.246338 1_655
N2 O2 1.258031 1_555
N2 O8 1.309079 1_555
N3 O13 1.262147 1_555
N3 O9 1.269393 1_655
N3 O3 1.282413 1_545
