# generated using pymatgen
data_Ca4Co3Si8NiO24
_symmetry_space_group_name_H-M   'P 1'
_cell_length_a   5.30496200
_cell_length_b   6.71388239
_cell_length_c   13.38606942
_cell_angle_alpha   90.61883679
_cell_angle_beta   101.20488913
_cell_angle_gamma   101.61658341
_symmetry_Int_Tables_number   1
_chemical_formula_structural   Ca4Co3Si8NiO24
_chemical_formula_sum   'Ca4 Co3 Si8 Ni1 O24'
_cell_volume   457.48382784
_cell_formula_units_Z   1
loop_
 _symmetry_equiv_pos_site_id
 _symmetry_equiv_pos_as_xyz
  1  'x, y, z'
loop_
 _atom_site_type_symbol
 _atom_site_label
 _atom_site_symmetry_multiplicity
 _atom_site_fract_x
 _atom_site_fract_y
 _atom_site_fract_z
 _atom_site_occupancy
  Ca  Ca0  1  0.10173400  0.70312900  0.85144000  1
  Ca  Ca1  1  0.60081400  0.70305600  0.35144200  1
  Ca  Ca2  1  0.39876200  0.29718700  0.64862000  1
  Ca  Ca3  1  0.89929600  0.29622400  0.14821700  1
  Co  Co0  1  0.29726400  0.09354000  0.04691600  1
  Co  Co1  1  0.70344700  0.90723100  0.95360200  1
  Co  Co2  1  0.20346700  0.90734400  0.45363600  1
  Si  Si0  1  0.86836200  0.62016300  0.59715800  1
  Si  Si1  1  0.36816300  0.62073200  0.09700100  1
  Si  Si2  1  0.03871900  0.19407300  0.80992200  1
  Si  Si3  1  0.53942300  0.19457300  0.31066000  1
  Si  Si4  1  0.63159800  0.37942200  0.90270900  1
  Si  Si5  1  0.13073300  0.37882300  0.40281100  1
  Si  Si6  1  0.46148400  0.80571600  0.68945400  1
  Si  Si7  1  0.96050100  0.80521400  0.18964500  1
  Ni  Ni0  1  0.79646500  0.09183000  0.54620300  1
  O  O0  1  0.86708500  0.79561100  0.51476800  1
  O  O1  1  0.36729300  0.79459800  0.01418500  1
  O  O2  1  0.04439500  0.02864500  0.89705500  1
  O  O3  1  0.54582400  0.02925700  0.39805400  1
  O  O4  1  0.63269500  0.20572700  0.98595700  1
  O  O5  1  0.12885600  0.20463800  0.48611600  1
  O  O6  1  0.45996700  0.97257500  0.60253400  1
  O  O7  1  0.95569600  0.97212400  0.10285600  1
  O  O8  1  0.73749000  0.38945700  0.55720900  1
  O  O9  1  0.23664100  0.39047400  0.05723400  1
  O  O10  1  0.01469300  0.11477100  0.69436300  1
  O  O11  1  0.51496400  0.11405500  0.19517000  1
  O  O12  1  0.76248200  0.61003100  0.94269800  1
  O  O13  1  0.26226200  0.60926600  0.44271500  1
  O  O14  1  0.48492900  0.88558600  0.80490100  1
  O  O15  1  0.98488100  0.88549600  0.30496900  1
  O  O16  1  0.17260200  0.63262900  0.66556800  1
  O  O17  1  0.67196500  0.63200400  0.16578600  1
  O  O18  1  0.80967600  0.33153200  0.81595400  1
  O  O19  1  0.30938600  0.33096100  0.31625900  1
  O  O20  1  0.32780000  0.36751500  0.83411000  1
  O  O21  1  0.82772200  0.36808400  0.33400000  1
  O  O22  1  0.69019100  0.66797200  0.68405800  1
  O  O23  1  0.19027300  0.66873300  0.18404400  1
loop_
_geom_bond_atom_site_label_1
_geom_bond_atom_site_label_2
_geom_bond_distance
_geom_bond_site_symmetry_2
Ca0 O14 2.350940 1_555
Ca0 O1 2.353225 1_556
Ca0 O12 2.353685 1_455
Ca0 O2 2.356428 1_565
Ca0 O16 2.639272 1_555
Ca0 O18 2.642375 1_455
Ca0 O22 2.778911 1_455
Ca0 O20 2.784674 1_555
Ca1 O13 2.351357 1_555
Ca1 O15 2.354267 1_555
Ca1 O3 2.359949 1_565
Ca1 O0 2.361839 1_555
Ca1 O17 2.637752 1_555
Ca1 O19 2.643705 1_555
Ca1 O23 2.776265 1_555
Ca1 O21 2.783784 1_555
Ca2 O10 2.349955 1_555
Ca2 O8 2.352156 1_555
Ca2 O6 2.360000 1_545
Ca2 O5 2.360122 1_555
Ca2 O20 2.634272 1_555
Ca2 O22 2.636641 1_555
Ca2 O18 2.776902 1_555
Ca2 O16 2.783140 1_555
Ca3 O9 2.343935 1_655
Ca3 O7 2.344636 1_545
Ca3 O4 2.349189 1_554
Ca3 O11 2.357597 1_555
Ca3 O21 2.641300 1_555
Ca3 O23 2.645623 1_655
Ca3 O19 2.780222 1_655
Ca3 O17 2.790276 1_555
Co0 O11 2.080972 1_555
Co0 O9 2.089589 1_555
Co0 O4 2.106524 1_554
Co0 O7 2.110508 1_445
Co0 O1 2.168598 1_545
Co0 O2 2.171057 1_554
Co1 O14 2.087163 1_555
Co1 O12 2.089021 1_555
Co1 O1 2.107563 1_556
Co1 O2 2.111998 1_665
Co1 O7 2.163234 1_556
Co1 O4 2.166125 1_565
Co2 O15 2.086836 1_455
Co2 O13 2.094393 1_555
Co2 O0 2.111510 1_455
Co2 O3 2.112278 1_565
Co2 O5 2.167026 1_565
Co2 O6 2.168678 1_555
Ni0 O10 2.080059 1_655
Ni0 O5 2.087197 1_655
Ni0 O6 2.087304 1_545
Ni0 O8 2.091852 1_555
Ni0 O3 2.146979 1_555
Ni0 O0 2.148466 1_545
O0 Si0 1.622435 1_555
O1 Si1 1.618559 1_555
O2 Si2 1.619475 1_555
O3 Si3 1.621550 1_555
O4 Si4 1.621749 1_555
O5 Si5 1.624510 1_555
O6 Si6 1.623882 1_555
O7 Si7 1.623033 1_555
O8 Si0 1.603719 1_555
O9 Si1 1.601112 1_555
O10 Si2 1.603377 1_555
O11 Si3 1.604617 1_555
O12 Si4 1.603288 1_555
O13 Si5 1.602640 1_555
O14 Si6 1.603673 1_555
O15 Si7 1.602101 1_555
O16 Si0 1.679305 1_455
O16 Si6 1.698702 1_555
O17 Si1 1.680365 1_555
O17 Si7 1.697778 1_555
O18 Si2 1.680099 1_655
O18 Si4 1.698557 1_555
O19 Si3 1.678518 1_555
O19 Si5 1.698578 1_555
O20 Si4 1.678798 1_555
O20 Si2 1.700690 1_555
O21 Si5 1.677507 1_655
O21 Si3 1.697854 1_555
O22 Si6 1.678394 1_555
O22 Si0 1.700289 1_555
O23 Si7 1.677766 1_455
O23 Si1 1.701098 1_555
