# generated using pymatgen
data_TiFe5O8
_symmetry_space_group_name_H-M   'P 1'
_cell_length_a   6.09560995
_cell_length_b   6.09560995
_cell_length_c   6.09560946
_cell_angle_alpha   59.69200590
_cell_angle_beta   59.69200590
_cell_angle_gamma   59.69199622
_symmetry_Int_Tables_number   1
_chemical_formula_structural   TiFe5O8
_chemical_formula_sum   'Ti1 Fe5 O8'
_cell_volume   159.03300542
_cell_formula_units_Z   1
loop_
 _symmetry_equiv_pos_site_id
 _symmetry_equiv_pos_as_xyz
  1  'x, y, z'
loop_
 _atom_site_type_symbol
 _atom_site_label
 _atom_site_symmetry_multiplicity
 _atom_site_fract_x
 _atom_site_fract_y
 _atom_site_fract_z
 _atom_site_occupancy
  Ti  Ti0  1  0.50000000  0.50000000  0.50000000  1
  Fe  Fe0  1  0.12923400  0.12923400  0.12923400  1
  Fe  Fe1  1  0.87076600  0.87076600  0.87076600  1
  Fe  Fe2  1  0.00000000  0.50000000  0.50000000  1
  Fe  Fe3  1  0.50000000  0.50000000  0.00000000  1
  Fe  Fe4  1  0.50000000  0.00000000  0.50000000  1
  O  O0  1  0.25735700  0.25735700  0.25735700  1
  O  O1  1  0.73879100  0.26588000  0.26588000  1
  O  O2  1  0.26588000  0.26588000  0.73879100  1
  O  O3  1  0.26588000  0.73879100  0.26588000  1
  O  O4  1  0.74264300  0.74264300  0.74264300  1
  O  O5  1  0.26120900  0.73412000  0.73412000  1
  O  O6  1  0.73412000  0.73412000  0.26120900  1
  O  O7  1  0.73412000  0.26120900  0.73412000  1
loop_
_geom_bond_atom_site_label_1
_geom_bond_atom_site_label_2
_geom_bond_distance
_geom_bond_site_symmetry_2
Fe0 O0 1.917462 1_555
Fe0 O1 1.936628 1_455
Fe0 O3 1.936628 1_545
Fe0 O2 1.936628 1_554
Fe1 O4 1.917462 1_555
Fe1 O7 1.936628 1_565
Fe1 O5 1.936628 1_655
Fe1 O6 1.936628 1_556
Fe2 O0 2.088172 1_555
Fe2 O4 2.088172 1_455
Fe2 O2 2.175317 1_555
Fe2 O6 2.175317 1_455
Fe2 O7 2.175317 1_455
Fe2 O3 2.175317 1_555
Fe3 O0 2.088172 1_555
Fe3 O4 2.088172 1_554
Fe3 O5 2.175317 1_554
Fe3 O3 2.175317 1_555
Fe3 O7 2.175317 1_554
Fe3 O1 2.175317 1_555
Fe4 O0 2.088172 1_555
Fe4 O4 2.088172 1_545
Fe4 O2 2.175317 1_555
Fe4 O6 2.175317 1_545
Fe4 O5 2.175317 1_545
Fe4 O1 2.175317 1_555
O1 Ti0 2.013548 1_555
O2 Ti0 2.013548 1_555
O3 Ti0 2.013548 1_555
O5 Ti0 2.013548 1_555
O6 Ti0 2.013548 1_555
O7 Ti0 2.013548 1_555
