# generated using pymatgen
data_ZrPt
_symmetry_space_group_name_H-M   'P 1'
_cell_length_a   3.43332512
_cell_length_b   4.28243150
_cell_length_c   5.47926789
_cell_angle_alpha   90.00000000
_cell_angle_beta   108.25829275
_cell_angle_gamma   90.00000000
_symmetry_Int_Tables_number   1
_chemical_formula_structural   ZrPt
_chemical_formula_sum   'Zr2 Pt2'
_cell_volume   76.50559477
_cell_formula_units_Z   2
loop_
 _symmetry_equiv_pos_site_id
 _symmetry_equiv_pos_as_xyz
  1  'x, y, z'
loop_
 _atom_site_type_symbol
 _atom_site_label
 _atom_site_symmetry_multiplicity
 _atom_site_fract_x
 _atom_site_fract_y
 _atom_site_fract_z
 _atom_site_occupancy
  Zr  Zr0  1  0.85875085  0.75000000  0.71750069  1
  Zr  Zr1  1  0.14124915  0.25000000  0.28249931  1
  Pt  Pt0  1  0.59226539  0.75000000  0.18453077  1
  Pt  Pt1  1  0.40773461  0.25000000  0.81546923  1
loop_
_geom_bond_atom_site_label_1
_geom_bond_atom_site_label_2
_geom_bond_distance
_geom_bond_site_symmetry_2
Pt0 Zr0 2.773260 1_555
Pt0 Zr1 2.791343 1_655
Pt0 Zr1 2.791343 1_665
Pt0 Zr1 2.791345 1_565
Pt0 Zr1 2.791345 1_555
Pt0 Pt1 2.876222 1_564
Pt0 Pt1 2.876222 1_554
Pt0 Zr0 2.975323 1_454
Pt0 Zr0 2.975324 1_554
Pt1 Zr1 2.773260 1_555
Pt1 Zr0 2.791343 1_445
Pt1 Zr0 2.791343 1_455
Pt1 Zr0 2.791345 1_545
Pt1 Zr0 2.791345 1_555
Pt1 Zr1 2.975323 1_656
Pt1 Zr1 2.975324 1_556
