# generated using pymatgen
data_Hf(MoO4)2
_symmetry_space_group_name_H-M   'P 1'
_cell_length_a   11.23993356
_cell_length_b   10.63664151
_cell_length_c   10.54776771
_cell_angle_alpha   105.53707167
_cell_angle_beta   82.71861902
_cell_angle_gamma   118.23981214
_symmetry_Int_Tables_number   1
_chemical_formula_structural   Hf(MoO4)2
_chemical_formula_sum   'Hf6 Mo12 O48'
_cell_volume   1070.34760632
_cell_formula_units_Z   6
loop_
 _symmetry_equiv_pos_site_id
 _symmetry_equiv_pos_as_xyz
  1  'x, y, z'
loop_
 _atom_site_type_symbol
 _atom_site_label
 _atom_site_symmetry_multiplicity
 _atom_site_fract_x
 _atom_site_fract_y
 _atom_site_fract_z
 _atom_site_occupancy
  Hf  Hf0  1  0.87055200  0.93527600  0.75000000  1
  Hf  Hf1  1  0.12944800  0.06472400  0.25000000  1
  Hf  Hf2  1  0.66336500  0.39252500  0.43810300  1
  Hf  Hf3  1  0.33663500  0.72916000  0.93810300  1
  Hf  Hf4  1  0.33663500  0.60747500  0.56189700  1
  Hf  Hf5  1  0.66336500  0.27084000  0.06189700  1
  Mo  Mo0  1  0.34936700  0.33427900  0.74017500  1
  Mo  Mo1  1  0.62039000  0.99992700  0.73234600  1
  Mo  Mo2  1  0.03540700  0.70071400  0.67919200  1
  Mo  Mo3  1  0.65063300  0.98491200  0.24017500  1
  Mo  Mo4  1  0.96459300  0.66530700  0.17919200  1
  Mo  Mo5  1  0.37961000  0.37953700  0.23234600  1
  Mo  Mo6  1  0.65063300  0.66572100  0.25982500  1
  Mo  Mo7  1  0.37961000  0.00007300  0.26765400  1
  Mo  Mo8  1  0.96459300  0.29928600  0.32080800  1
  Mo  Mo9  1  0.34936700  0.01508800  0.75982500  1
  Mo  Mo10  1  0.03540700  0.33469300  0.82080800  1
  Mo  Mo11  1  0.62039000  0.62046300  0.76765400  1
  O  O0  1  0.91399500  0.29707900  0.94434300  1
  O  O1  1  0.74956800  0.69380300  0.87708500  1
  O  O2  1  0.32934500  0.15746200  0.87275800  1
  O  O3  1  0.08600500  0.38308400  0.44434300  1
  O  O4  1  0.67065500  0.82811700  0.37275800  1
  O  O5  1  0.25043200  0.94423400  0.37708500  1
  O  O6  1  0.08600500  0.70292100  0.05565700  1
  O  O7  1  0.25043200  0.30619700  0.12291500  1
  O  O8  1  0.67065500  0.84253800  0.12724200  1
  O  O9  1  0.91399500  0.61691600  0.55565700  1
  O  O10  1  0.32934500  0.17188300  0.62724200  1
  O  O11  1  0.74956800  0.05576600  0.62291500  1
  O  O12  1  0.99252200  0.12978600  0.72915600  1
  O  O13  1  0.71139000  0.74560300  0.65341100  1
  O  O14  1  0.20906100  0.89620600  0.65321600  1
  O  O15  1  0.00747800  0.13726400  0.22915600  1
  O  O16  1  0.79093900  0.68714500  0.15321600  1
  O  O17  1  0.28861000  0.03421300  0.15341100  1
  O  O18  1  0.00747800  0.87021400  0.27084400  1
  O  O19  1  0.28861000  0.25439700  0.34658900  1
  O  O20  1  0.79093900  0.10379400  0.34678400  1
  O  O21  1  0.99252200  0.86273600  0.77084400  1
  O  O22  1  0.20906100  0.31285500  0.84678400  1
  O  O23  1  0.71139000  0.96578700  0.84658900  1
  O  O24  1  0.18287500  0.54011000  0.87870100  1
  O  O25  1  0.49385300  0.68898800  0.85923100  1
  O  O26  1  0.35788900  0.89164500  0.85518400  1
  O  O27  1  0.81712500  0.35723500  0.37870100  1
  O  O28  1  0.64211100  0.53375600  0.35518400  1
  O  O29  1  0.50614700  0.19513500  0.35923100  1
  O  O30  1  0.81712500  0.45989000  0.12129900  1
  O  O31  1  0.50614700  0.31101200  0.14076900  1
  O  O32  1  0.64211100  0.10835500  0.14481600  1
  O  O33  1  0.18287500  0.64276500  0.62129900  1
  O  O34  1  0.35788900  0.46624400  0.64481600  1
  O  O35  1  0.49385300  0.80486500  0.64076900  1
  O  O36  1  0.96943600  0.36010100  0.69769800  1
  O  O37  1  0.62436000  0.46145000  0.62309900  1
  O  O38  1  0.50361000  0.06889000  0.66034200  1
  O  O39  1  0.03056400  0.39066500  0.19769800  1
  O  O40  1  0.49639000  0.56528100  0.16034200  1
  O  O41  1  0.37564000  0.83709100  0.12309900  1
  O  O42  1  0.03056400  0.63989900  0.30230200  1
  O  O43  1  0.37564000  0.53855000  0.37690100  1
  O  O44  1  0.49639000  0.93111000  0.33965800  1
  O  O45  1  0.96943600  0.60933500  0.80230200  1
  O  O46  1  0.50361000  0.43471900  0.83965800  1
  O  O47  1  0.62436000  0.16290900  0.87690100  1
loop_
_geom_bond_atom_site_label_1
_geom_bond_atom_site_label_2
_geom_bond_distance
_geom_bond_site_symmetry_2
Hf0 O12 1.921310 1_565
Hf0 O21 1.921310 1_555
Hf0 O13 2.062517 1_555
Hf0 O23 2.062517 1_555
Hf1 O18 1.921310 1_545
Hf1 O15 1.921310 1_555
Hf1 O19 2.062517 1_555
Hf1 O17 2.062517 1_555
Hf2 O27 1.932294 1_555
Hf2 O37 1.964223 1_555
Hf2 O29 2.036874 1_555
Hf2 O28 2.043313 1_555
Hf3 O24 1.932293 1_555
Hf3 O41 1.964225 1_556
Hf3 O25 2.036874 1_555
Hf3 O26 2.043313 1_555
Hf4 O33 1.932294 1_555
Hf4 O43 1.964223 1_555
Hf4 O35 2.036874 1_555
Hf4 O34 2.043313 1_555
Hf5 O30 1.932293 1_555
Hf5 O47 1.964225 1_554
Hf5 O31 2.036874 1_555
Hf5 O32 2.043313 1_555
Mo0 O10 1.746737 1_555
Mo0 O22 1.775134 1_555
Mo0 O46 1.831913 1_555
Mo0 O34 1.896267 1_555
Mo1 O11 1.708682 1_565
Mo1 O23 1.878414 1_555
Mo1 O35 1.934614 1_555
Mo1 O47 1.964713 1_565
Mo1 O38 2.073671 1_565
Mo2 O45 1.711955 1_455
Mo2 O9 1.741291 1_455
Mo2 O21 1.977973 1_455
Mo2 O33 2.002211 1_555
Mo2 O14 2.130137 1_555
Mo3 O8 1.746737 1_555
Mo3 O20 1.775134 1_565
Mo3 O44 1.831913 1_555
Mo3 O32 1.896267 1_565
Mo4 O42 1.711955 1_655
Mo4 O6 1.741291 1_655
Mo4 O18 1.977973 1_655
Mo4 O30 2.002211 1_555
Mo4 O16 2.130137 1_555
Mo5 O7 1.708680 1_555
Mo5 O19 1.878414 1_555
Mo5 O31 1.934614 1_555
Mo5 O43 1.964720 1_555
Mo5 O40 2.073679 1_555
Mo6 O4 1.746737 1_555
Mo6 O16 1.775134 1_555
Mo6 O40 1.831913 1_555
Mo6 O28 1.896267 1_555
Mo7 O5 1.708682 1_545
Mo7 O17 1.878414 1_555
Mo7 O29 1.934614 1_555
Mo7 O41 1.964713 1_545
Mo7 O44 2.073671 1_545
Mo8 O39 1.711955 1_655
Mo8 O3 1.741291 1_655
Mo8 O15 1.977973 1_655
Mo8 O27 2.002211 1_555
Mo8 O20 2.130137 1_555
Mo9 O2 1.746737 1_555
Mo9 O14 1.775134 1_545
Mo9 O38 1.831913 1_555
Mo9 O26 1.896267 1_545
Mo10 O36 1.711955 1_455
Mo10 O0 1.741291 1_455
Mo10 O12 1.977973 1_455
Mo10 O24 2.002211 1_555
Mo10 O22 2.130137 1_555
Mo11 O1 1.708680 1_555
Mo11 O13 1.878414 1_555
Mo11 O25 1.934614 1_555
Mo11 O37 1.964720 1_555
Mo11 O46 2.073679 1_555
