# generated using pymatgen
data_MgFe8(O7F)2
_symmetry_space_group_name_H-M   'P 1'
_cell_length_a   7.96246641
_cell_length_b   7.31516004
_cell_length_c   5.74581125
_cell_angle_alpha   108.75839782
_cell_angle_beta   114.09512057
_cell_angle_gamma   83.78428821
_symmetry_Int_Tables_number   1
_chemical_formula_structural   MgFe8(O7F)2
_chemical_formula_sum   'Mg1 Fe8 O14 F2'
_cell_volume   289.18354752
_cell_formula_units_Z   1
loop_
 _symmetry_equiv_pos_site_id
 _symmetry_equiv_pos_as_xyz
  1  'x, y, z'
loop_
 _atom_site_type_symbol
 _atom_site_label
 _atom_site_symmetry_multiplicity
 _atom_site_fract_x
 _atom_site_fract_y
 _atom_site_fract_z
 _atom_site_occupancy
  Mg  Mg0  1  0.87426200  0.36901400  0.24410300  1
  Fe  Fe0  1  0.69956200  0.25570300  0.54939400  1
  Fe  Fe1  1  0.53930300  0.99674500  0.97596300  1
  Fe  Fe2  1  0.25864500  0.24406300  0.51610000  1
  Fe  Fe3  1  0.73746900  0.77872200  0.49082800  1
  Fe  Fe4  1  0.49857800  0.52220600  0.00750500  1
  Fe  Fe5  1  0.00613400  0.97874400  0.01081200  1
  Fe  Fe6  1  0.20236400  0.76747800  0.52979300  1
  Fe  Fe7  1  0.06995800  0.48011500  0.99137700  1
  O  O0  1  0.01316300  0.14972500  0.35412900  1
  O  O1  1  0.90616500  0.25897700  0.88612800  1
  O  O2  1  0.61595900  0.26651000  0.16320000  1
  O  O3  1  0.33682900  0.01715500  0.65520500  1
  O  O4  1  0.50920100  0.35195700  0.67396300  1
  O  O5  1  0.74523000  0.60788200  0.16449800  1
  O  O6  1  0.73498800  0.91142800  0.82924800  1
  O  O7  1  0.26052300  0.41769100  0.86754500  1
  O  O8  1  0.50660000  0.65812200  0.34637800  1
  O  O9  1  0.65307600  0.99002300  0.33697900  1
  O  O10  1  0.14698100  0.48409000  0.36900300  1
  O  O11  1  0.41027100  0.75104600  0.84923900  1
  O  O12  1  0.09075000  0.75792600  0.15829800  1
  O  O13  1  0.99624400  0.83606400  0.64944600  1
  F  F0  1  0.85976200  0.49549100  0.62149900  1
  F  F1  1  0.26316800  0.09756500  0.15222600  1
loop_
_geom_bond_atom_site_label_1
_geom_bond_atom_site_label_2
_geom_bond_distance
_geom_bond_site_symmetry_2
Mg0 O0 1.973141 1_655
Mg0 O5 2.014851 1_555
Mg0 O1 2.064127 1_554
Mg0 O2 2.082692 1_555
Mg0 O10 2.161941 1_655
Fe0 O4 1.906865 1_555
Fe0 O9 1.914447 1_545
Fe0 O1 1.957088 1_555
Fe0 O2 2.066074 1_555
Fe1 O9 1.909856 1_556
Fe1 O3 1.927935 1_565
Fe1 O11 1.939973 1_555
Fe1 O2 1.945096 1_566
Fe1 O6 2.012826 1_555
Fe2 O0 1.885924 1_555
Fe2 O4 1.956747 1_555
Fe2 O3 2.001195 1_555
Fe2 O7 2.005252 1_555
Fe2 O10 2.142582 1_555
Fe3 O8 1.865725 1_555
Fe3 O6 1.880692 1_555
Fe3 O5 1.911063 1_555
Fe3 O13 1.913153 1_555
Fe3 O9 1.947058 1_555
Fe4 O8 1.857666 1_555
Fe4 O7 1.870276 1_554
Fe4 O5 1.876178 1_555
Fe4 O4 1.950772 1_554
Fe4 O11 2.079839 1_554
Fe4 O2 2.277585 1_555
Fe5 O0 1.948581 1_565
Fe5 O13 1.974144 1_454
Fe5 O12 1.989941 1_555
Fe5 O6 2.013166 1_454
Fe5 O1 2.339813 1_464
Fe6 O12 1.928619 1_555
Fe6 O11 1.934365 1_555
Fe6 O13 1.984728 1_455
Fe6 O3 1.987076 1_565
Fe6 O10 1.994737 1_555
Fe7 O7 1.881408 1_555
Fe7 O12 1.940842 1_556
Fe7 O1 1.966509 1_455
Fe7 O10 1.990383 1_556
F0 Fe0 2.112157 1_555
F0 Mg0 2.112449 1_555
F0 Fe7 2.130544 1_655
F0 Fe3 2.402345 1_555
F1 Fe2 2.032996 1_555
F1 Fe5 2.043907 1_545
