# generated using pymatgen
data_P2W9O31
_symmetry_space_group_name_H-M   'P 1'
_cell_length_a   6.70186900
_cell_length_b   5.42536100
_cell_length_c   33.96237884
_cell_angle_alpha   80.96234811
_cell_angle_beta   90.00000000
_cell_angle_gamma   90.00000000
_symmetry_Int_Tables_number   1
_chemical_formula_structural   P2W9O31
_chemical_formula_sum   'P4 W18 O62'
_cell_volume   1219.54352975
_cell_formula_units_Z   2
loop_
 _symmetry_equiv_pos_site_id
 _symmetry_equiv_pos_as_xyz
  1  'x, y, z'
loop_
 _atom_site_type_symbol
 _atom_site_label
 _atom_site_symmetry_multiplicity
 _atom_site_fract_x
 _atom_site_fract_y
 _atom_site_fract_z
 _atom_site_occupancy
  P  P0  1  0.36459500  0.29367500  0.71648600  1
  P  P1  1  0.86459500  0.70632500  0.78351400  1
  P  P2  1  0.13540500  0.29367500  0.21648600  1
  P  P3  1  0.63540500  0.70632500  0.28351400  1
  W  W0  1  0.33052600  0.54044800  0.45402200  1
  W  W1  1  0.16947400  0.54044800  0.95402200  1
  W  W2  1  0.33821200  0.90634300  0.59195000  1
  W  W3  1  0.66947400  0.45955200  0.54597800  1
  W  W4  1  0.66178800  0.09365700  0.40805000  1
  W  W5  1  0.83821200  0.09365700  0.90805000  1
  W  W6  1  0.50758800  0.63411600  0.86056400  1
  W  W7  1  0.67053200  0.81657100  0.68578300  1
  W  W8  1  0.82946800  0.81657100  0.18578300  1
  W  W9  1  0.16178800  0.90634300  0.09195000  1
  W  W10  1  0.99241200  0.63411600  0.36056400  1
  W  W11  1  0.00000000  0.00000000  0.50000000  1
  W  W12  1  0.32946800  0.18342900  0.31421700  1
  W  W13  1  0.00758800  0.36588400  0.63943600  1
  W  W14  1  0.49241200  0.36588400  0.13943600  1
  W  W15  1  0.17053200  0.18342900  0.81421700  1
  W  W16  1  0.50000000  0.00000000  0.00000000  1
  W  W17  1  0.83052600  0.45955200  0.04597800  1
  O  O0  1  0.49181800  0.13308700  0.35884200  1
  O  O1  1  0.66396600  0.40092600  0.09591100  1
  O  O2  1  0.68188900  0.84501700  0.88287700  1
  O  O3  1  0.80156300  0.76870000  0.73918700  1
  O  O4  1  0.49806100  0.91062100  0.29285600  1
  O  O5  1  0.82605900  0.56802100  0.66879900  1
  O  O6  1  0.15180500  0.74771100  0.47789500  1
  O  O7  1  0.33112000  0.94897900  0.04745700  1
  O  O8  1  0.65751900  0.34662300  0.87939300  1
  O  O9  1  0.32605900  0.43197900  0.83120100  1
  O  O10  1  0.84819500  0.25228900  0.52210500  1
  O  O11  1  0.98798400  0.33971200  0.92724900  1
  O  O12  1  0.83112000  0.05102100  0.45254300  1
  O  O13  1  0.66888000  0.05102100  0.95254300  1
  O  O14  1  0.83603400  0.40092600  0.59591100  1
  O  O15  1  0.47434200  0.54674500  0.71121500  1
  O  O16  1  0.34819500  0.74771100  0.97789500  1
  O  O17  1  0.67394100  0.56802100  0.16879900  1
  O  O18  1  0.14974200  0.92490700  0.33448400  1
  O  O19  1  0.00818200  0.13308700  0.85884200  1
  O  O20  1  0.02565800  0.54674500  0.21121500  1
  O  O21  1  0.52565800  0.45325500  0.28878500  1
  O  O22  1  0.82153700  0.74127300  0.52577800  1
  O  O23  1  0.30156300  0.23130000  0.76081300  1
  O  O24  1  0.18188900  0.15498300  0.61712300  1
  O  O25  1  0.51201600  0.33971200  0.42724900  1
  O  O26  1  0.33603400  0.59907400  0.90408900  1
  O  O27  1  0.84248100  0.34662300  0.37939300  1
  O  O28  1  0.67503300  0.68670800  0.80947600  1
  O  O29  1  0.19843700  0.23130000  0.26081300  1
  O  O30  1  0.98555500  0.15860600  0.06897900  1
  O  O31  1  0.99806100  0.08937900  0.20714400  1
  O  O32  1  0.64974200  0.07509300  0.16551600  1
  O  O33  1  0.31811100  0.15498300  0.11712300  1
  O  O34  1  0.00193900  0.91062100  0.79285600  1
  O  O35  1  0.81811100  0.84501700  0.38287700  1
  O  O36  1  0.32153700  0.25872700  0.97422200  1
  O  O37  1  0.17503300  0.31329200  0.69052400  1
  O  O38  1  0.85025800  0.07509300  0.66551600  1
  O  O39  1  0.01201600  0.66028800  0.07275100  1
  O  O40  1  0.48798400  0.66028800  0.57275100  1
  O  O41  1  0.69843700  0.76870000  0.23918700  1
  O  O42  1  0.17394100  0.43197900  0.33120100  1
  O  O43  1  0.50818200  0.86691300  0.64115800  1
  O  O44  1  0.97434200  0.45325500  0.78878500  1
  O  O45  1  0.01444500  0.84139400  0.93102100  1
  O  O46  1  0.51444500  0.15860600  0.56897900  1
  O  O47  1  0.48555500  0.84139400  0.43102100  1
  O  O48  1  0.35025800  0.92490700  0.83448400  1
  O  O49  1  0.82496700  0.68670800  0.30947600  1
  O  O50  1  0.50193900  0.08937900  0.70714400  1
  O  O51  1  0.15751900  0.65337700  0.62060700  1
  O  O52  1  0.67846300  0.74127300  0.02577800  1
  O  O53  1  0.99181800  0.86691300  0.14115800  1
  O  O54  1  0.65180500  0.25228900  0.02210500  1
  O  O55  1  0.32496700  0.31329200  0.19052400  1
  O  O56  1  0.16888000  0.94897900  0.54745700  1
  O  O57  1  0.34248100  0.65337700  0.12060700  1
  O  O58  1  0.50000000  0.50000000  0.50000000  1
  O  O59  1  0.17846300  0.25872700  0.47422200  1
  O  O60  1  0.00000000  0.50000000  0.00000000  1
  O  O61  1  0.16396600  0.59907400  0.40408900  1
loop_
_geom_bond_atom_site_label_1
_geom_bond_atom_site_label_2
_geom_bond_distance
_geom_bond_site_symmetry_2
O0 W12 1.850772 1_555
O0 W4 2.005994 1_555
O1 W14 1.858723 1_555
O1 W17 2.013364 1_555
O2 W6 1.876288 1_555
O2 W5 2.002627 1_565
O3 P1 1.548966 1_555
O3 W7 1.995049 1_555
O4 P3 1.512250 1_555
O4 W12 2.081090 1_565
O5 W7 1.865985 1_555
O5 W13 2.005198 1_655
O6 W0 1.908635 1_555
O6 W11 1.948075 1_565
O7 W9 1.874819 1_555
O7 W16 1.953254 1_565
O8 W6 1.880974 1_555
O8 W5 1.969171 1_555
O9 W15 1.865985 1_555
O9 W6 2.005198 1_555
O10 W3 1.908635 1_555
O10 W11 1.948075 1_655
O11 W5 1.867672 1_555
O11 W1 1.950228 1_655
O12 W4 1.874819 1_555
O12 W11 1.953254 1_655
O13 W5 1.874819 1_555
O13 W16 1.953254 1_556
O14 W13 1.858723 1_655
O14 W3 2.013364 1_555
O15 P0 1.543023 1_555
O15 W7 2.054412 1_555
O16 W1 1.908635 1_555
O16 W16 1.948075 1_566
O17 W8 1.865985 1_555
O17 W14 2.005198 1_555
O18 W12 1.894338 1_565
O18 W10 1.986519 1_455
O19 W15 1.850772 1_555
O19 W5 2.005994 1_455
O20 P2 1.543023 1_555
O20 W8 2.054412 1_455
O21 P3 1.543023 1_555
O21 W12 2.054412 1_555
O22 W3 1.875080 1_555
O22 W11 1.944538 1_665
O23 P0 1.548966 1_555
O23 W15 1.995049 1_555
O24 W13 1.876288 1_555
O24 W2 2.002627 1_545
O25 W4 1.867672 1_555
O25 W0 1.950228 1_555
O26 W6 1.858723 1_555
O26 W1 2.013364 1_555
O27 W10 1.880974 1_555
O27 W4 1.969171 1_555
O28 P1 1.540539 1_555
O28 W6 2.048333 1_555
O29 P2 1.548966 1_555
O29 W12 1.995049 1_555
O30 W9 1.881829 1_645
O30 W17 1.988681 1_555
O31 P2 1.512250 1_655
O31 W8 2.081090 1_545
O32 W8 1.894338 1_545
O32 W14 1.986519 1_555
O33 W14 1.876288 1_555
O33 W9 2.002627 1_545
O34 P1 1.512250 1_455
O34 W15 2.081090 1_565
O35 W10 1.876288 1_555
O35 W4 2.002627 1_565
O36 W1 1.875080 1_555
O36 W16 1.944538 1_556
O37 P0 1.540539 1_555
O37 W13 2.048333 1_555
O38 W7 1.894338 1_545
O38 W13 1.986519 1_655
O39 W9 1.867672 1_555
O39 W17 1.950228 1_455
O40 W2 1.867672 1_555
O40 W3 1.950228 1_555
O41 P3 1.548966 1_555
O41 W8 1.995049 1_555
O42 W12 1.865985 1_555
O42 W10 2.005198 1_455
O43 W7 1.850772 1_555
O43 W2 2.005994 1_555
O44 P1 1.543023 1_555
O44 W15 2.054412 1_655
O45 W5 1.881829 1_465
O45 W1 1.988681 1_555
O46 W2 1.881829 1_545
O46 W3 1.988681 1_555
O47 W4 1.881829 1_565
O47 W0 1.988681 1_555
O48 W15 1.894338 1_565
O48 W6 1.986519 1_555
O49 P3 1.540539 1_555
O49 W10 2.048333 1_555
O50 P0 1.512250 1_555
O50 W7 2.081090 1_545
O51 W13 1.880974 1_555
O51 W2 1.969171 1_555
O52 W17 1.875080 1_555
O52 W16 1.944538 1_565
O53 W8 1.850772 1_555
O53 W9 2.005994 1_655
O54 W17 1.908635 1_555
O54 W16 1.948075 1_555
O55 P2 1.540539 1_555
O55 W14 2.048333 1_555
O56 W2 1.874819 1_555
O56 W11 1.953254 1_565
O57 W14 1.880974 1_555
O57 W9 1.969171 1_555
O58 W3 1.915431 1_555
O58 W0 1.915431 1_555
O59 W0 1.875080 1_555
O59 W11 1.944538 1_555
O60 W1 1.915431 1_554
O60 W17 1.915431 1_455
O61 W10 1.858723 1_455
O61 W0 2.013364 1_555
