# generated using pymatgen
data_KErP2O9
_symmetry_space_group_name_H-M   'P 1'
_cell_length_a   10.56066900
_cell_length_b   7.69049700
_cell_length_c   10.13665545
_cell_angle_alpha   88.84222112
_cell_angle_beta   90.00000000
_cell_angle_gamma   90.00000000
_symmetry_Int_Tables_number   1
_chemical_formula_structural   KErP2O9
_chemical_formula_sum   'K4 Er4 P8 O36'
_cell_volume   823.09857596
_cell_formula_units_Z   4
loop_
 _symmetry_equiv_pos_site_id
 _symmetry_equiv_pos_as_xyz
  1  'x, y, z'
loop_
 _atom_site_type_symbol
 _atom_site_label
 _atom_site_symmetry_multiplicity
 _atom_site_fract_x
 _atom_site_fract_y
 _atom_site_fract_z
 _atom_site_occupancy
  K  K0  1  0.72095500  0.73985000  0.14636300  1
  K  K1  1  0.22095500  0.26015000  0.35363700  1
  K  K2  1  0.27904500  0.26015000  0.85363700  1
  K  K3  1  0.77904500  0.73985000  0.64636300  1
  Er  Er0  1  0.62207400  0.25126800  0.16749400  1
  Er  Er1  1  0.12207400  0.74873200  0.33250600  1
  Er  Er2  1  0.37792600  0.74873200  0.83250600  1
  Er  Er3  1  0.87792600  0.25126800  0.66749400  1
  P  P0  1  0.39286600  0.60362800  0.16612600  1
  P  P1  1  0.89286600  0.39637200  0.33387400  1
  P  P2  1  0.60713400  0.39637200  0.83387400  1
  P  P3  1  0.10713400  0.60362800  0.66612600  1
  P  P4  1  0.64696900  0.03296000  0.86718400  1
  P  P5  1  0.14696900  0.96704000  0.63281600  1
  P  P6  1  0.35303100  0.96704000  0.13281600  1
  P  P7  1  0.85303100  0.03296000  0.36718400  1
  O  O0  1  0.36061800  0.57929800  0.02089900  1
  O  O1  1  0.86061800  0.42070200  0.47910100  1
  O  O2  1  0.63938200  0.42070200  0.97910100  1
  O  O3  1  0.13938200  0.57929800  0.52089900  1
  O  O4  1  0.28161900  0.58175200  0.25998700  1
  O  O5  1  0.78161900  0.41824800  0.24001300  1
  O  O6  1  0.71838100  0.41824800  0.74001300  1
  O  O7  1  0.21838100  0.58175200  0.75998700  1
  O  O8  1  0.50846500  0.49486600  0.20957400  1
  O  O9  1  0.00846500  0.50513400  0.29042600  1
  O  O10  1  0.49153500  0.50513400  0.79042600  1
  O  O11  1  0.99153500  0.49486600  0.70957400  1
  O  O12  1  0.44464900  0.80379100  0.17901600  1
  O  O13  1  0.94464900  0.19620900  0.32098400  1
  O  O14  1  0.55535100  0.19620900  0.82098400  1
  O  O15  1  0.05535100  0.80379100  0.67901600  1
  O  O16  1  0.57235000  0.86927900  0.83404300  1
  O  O17  1  0.07235000  0.13072100  0.66595700  1
  O  O18  1  0.42765000  0.13072100  0.16595700  1
  O  O19  1  0.92765000  0.86927900  0.33404300  1
  O  O20  1  0.76885300  0.04954800  0.78681300  1
  O  O21  1  0.26885300  0.95045200  0.71318700  1
  O  O22  1  0.23114700  0.95045200  0.21318700  1
  O  O23  1  0.73114700  0.04954800  0.28681300  1
  O  O24  1  0.66824700  0.05028300  0.01565200  1
  O  O25  1  0.16824700  0.94971700  0.48434800  1
  O  O26  1  0.33175300  0.94971700  0.98434800  1
  O  O27  1  0.83175300  0.05028300  0.51565200  1
  O  O28  1  0.93077000  0.58453700  0.95729500  1
  O  O29  1  0.43077000  0.41546300  0.54270500  1
  O  O30  1  0.06923000  0.41546300  0.04270500  1
  O  O31  1  0.56923000  0.58453700  0.45729500  1
  O  O32  1  0.52164800  0.29740100  0.39399100  1
  O  O33  1  0.02164800  0.70259900  0.10600900  1
  O  O34  1  0.47835200  0.70259900  0.60600900  1
  O  O35  1  0.97835200  0.29740100  0.89399100  1
loop_
_geom_bond_atom_site_label_1
_geom_bond_atom_site_label_2
_geom_bond_distance
_geom_bond_site_symmetry_2
K0 O5 2.708105 1_555
K0 O24 2.763542 1_565
K0 O23 2.801457 1_565
K0 O12 2.978678 1_555
K0 O8 2.991173 1_555
K0 O19 3.074309 1_555
K0 O2 3.131940 1_554
K0 O28 3.178353 1_554
K0 O33 3.215284 1_655
K1 O4 2.708105 1_555
K1 O25 2.763542 1_545
K1 O22 2.801457 1_545
K1 O13 2.978678 1_455
K1 O9 2.991173 1_555
K1 O18 3.074309 1_555
K1 O3 3.131940 1_555
K1 O29 3.178353 1_555
K1 O32 3.215284 1_555
K2 O7 2.708105 1_555
K2 O26 2.763542 1_545
K2 O21 2.801457 1_545
K2 O14 2.978678 1_555
K2 O10 2.991173 1_555
K2 O17 3.074309 1_555
K2 O0 3.131940 1_556
K2 O30 3.178353 1_556
K2 O35 3.215284 1_455
K3 O6 2.708105 1_555
K3 O27 2.763542 1_565
K3 O20 2.801457 1_565
K3 O15 2.978678 1_655
K3 O11 2.991173 1_555
K3 O16 3.074309 1_555
K3 O1 3.131940 1_555
K3 O31 3.178353 1_555
K3 O34 3.215284 1_555
Er0 O5 2.250884 1_555
Er0 O18 2.253021 1_555
Er0 O24 2.256561 1_555
Er0 O23 2.262854 1_555
Er0 O8 2.272293 1_555
Er0 O2 2.297303 1_554
Er0 O32 2.560244 1_555
Er1 O4 2.250884 1_555
Er1 O19 2.253021 1_455
Er1 O25 2.256561 1_555
Er1 O22 2.262854 1_555
Er1 O9 2.272293 1_555
Er1 O3 2.297303 1_555
Er1 O33 2.560244 1_555
Er2 O7 2.250884 1_555
Er2 O16 2.253021 1_555
Er2 O26 2.256561 1_555
Er2 O21 2.262854 1_555
Er2 O10 2.272293 1_555
Er2 O0 2.297303 1_556
Er2 O34 2.560244 1_555
Er3 O6 2.250884 1_555
Er3 O17 2.253021 1_655
Er3 O27 2.256561 1_555
Er3 O20 2.262854 1_555
Er3 O11 2.272293 1_555
Er3 O1 2.297303 1_555
Er3 O35 2.560244 1_555
O0 P0 1.526188 1_555
O1 P1 1.526188 1_555
O2 P2 1.526188 1_555
O3 P3 1.526188 1_555
O4 P0 1.518987 1_555
O5 P1 1.518987 1_555
O6 P2 1.518987 1_555
O7 P3 1.518987 1_555
O8 P0 1.539176 1_555
O9 P1 1.539176 1_455
O10 P2 1.539176 1_555
O11 P3 1.539176 1_655
O12 P0 1.641300 1_555
O12 P6 1.645570 1_555
O13 P1 1.641300 1_555
O13 P7 1.645570 1_555
O14 P2 1.641300 1_555
O14 P4 1.645570 1_555
O15 P3 1.641300 1_555
O15 P5 1.645570 1_555
O16 P4 1.528227 1_565
O17 P5 1.528227 1_545
O18 P6 1.528227 1_545
O19 P7 1.528227 1_565
O20 P4 1.527293 1_555
O21 P5 1.527293 1_555
O22 P6 1.527293 1_555
O23 P7 1.527293 1_555
O24 P4 1.530123 1_554
O25 P5 1.530123 1_555
O26 P6 1.530123 1_556
O27 P7 1.530123 1_555
O28 O33 2.018223 1_656
O29 O32 2.018223 1_555
O30 O35 2.018223 1_454
O31 O34 2.018223 1_555
