# generated using pymatgen
data_Li7Mn2(CoO4)3
_symmetry_space_group_name_H-M   'P 1'
_cell_length_a   2.97747300
_cell_length_b   6.44031286
_cell_length_c   11.94822692
_cell_angle_alpha   102.90957049
_cell_angle_beta   93.68365396
_cell_angle_gamma   103.34954093
_symmetry_Int_Tables_number   1
_chemical_formula_structural   Li7Mn2(CoO4)3
_chemical_formula_sum   'Li7 Mn2 Co3 O12'
_cell_volume   215.66516192
_cell_formula_units_Z   1
loop_
 _symmetry_equiv_pos_site_id
 _symmetry_equiv_pos_as_xyz
  1  'x, y, z'
loop_
 _atom_site_type_symbol
 _atom_site_label
 _atom_site_symmetry_multiplicity
 _atom_site_fract_x
 _atom_site_fract_y
 _atom_site_fract_z
 _atom_site_occupancy
  Li  Li0  1  0.99740100  0.00113700  0.25175100  1
  Li  Li1  1  0.33856500  0.66228200  0.58106600  1
  Li  Li2  1  0.65917700  0.32958500  0.41675300  1
  Li  Li3  1  0.00733700  0.01429100  0.74849500  1
  Li  Li4  1  0.67305200  0.33123300  0.90829700  1
  Li  Li5  1  0.32619900  0.66184300  0.08825300  1
  Li  Li6  1  0.65268200  0.32539100  0.67066400  1
  Mn  Mn0  1  0.01075200  0.00506200  0.00003200  1
  Mn  Mn1  1  0.33272100  0.65546900  0.82711300  1
  Co  Co0  1  0.33447700  0.66934800  0.33427500  1
  Co  Co1  1  0.99917400  0.01178700  0.50591900  1
  Co  Co2  1  0.66905900  0.33688000  0.16919700  1
  O  O0  1  0.48346900  0.01471200  0.12479200  1
  O  O1  1  0.81701500  0.68920900  0.45471400  1
  O  O2  1  0.14821500  0.35282500  0.28864700  1
  O  O3  1  0.46412500  0.99402800  0.61273300  1
  O  O4  1  0.16940900  0.35438800  0.79611400  1
  O  O5  1  0.86521500  0.67739700  0.94466000  1
  O  O6  1  0.51585200  0.98170500  0.37956000  1
  O  O7  1  0.80756400  0.66516900  0.72322400  1
  O  O8  1  0.15264500  0.29842000  0.53268200  1
  O  O9  1  0.52886500  0.98679900  0.87791700  1
  O  O10  1  0.19453600  0.32775200  0.05022000  1
  O  O11  1  0.85249300  0.65328800  0.21292200  1
loop_
_geom_bond_atom_site_label_1
_geom_bond_atom_site_label_2
_geom_bond_distance
_geom_bond_site_symmetry_2
Li0 O0 2.114964 1_555
Li0 O11 2.117468 1_545
Li0 O2 2.141229 1_655
Li0 O6 2.145296 1_645
Li0 O0 2.164765 1_655
Li0 O6 2.165024 1_545
Li1 O3 2.024729 1_555
Li1 O7 2.122384 1_555
Li1 O1 2.148923 1_555
Li1 O1 2.158892 1_455
Li1 O8 2.210569 1_555
Li1 O7 2.393657 1_455
Li2 O8 2.028945 1_655
Li2 O8 2.118115 1_555
Li2 O6 2.118604 1_545
Li2 O2 2.141994 1_555
Li2 O2 2.184855 1_655
Li2 O1 2.188937 1_555
Li3 O4 2.067347 1_555
Li3 O7 2.134596 1_445
Li3 O3 2.176026 1_445
Li3 O9 2.177410 1_445
Li3 O3 2.183792 1_545
Li3 O9 2.185095 1_545
Li4 O4 2.000483 1_555
Li4 O4 2.060369 1_655
Li4 O9 2.101709 1_545
Li4 O5 2.105373 1_555
Li4 O10 2.231956 1_656
Li4 O10 2.284435 1_556
Li5 O10 2.034820 1_555
Li5 O11 2.110460 1_555
Li5 O11 2.117067 1_455
Li5 O0 2.147909 1_565
Li5 O5 2.162229 1_454
Li5 O5 2.426043 1_554
Li6 O3 2.021229 1_545
Li6 O4 2.023516 1_655
Li6 O7 2.068416 1_555
Li6 O8 2.098111 1_555
Li6 O4 2.151342 1_555
Li6 O8 2.295865 1_655
Mn0 O9 1.943640 1_444
Mn0 O10 1.963132 1_555
Mn0 O0 1.963570 1_555
Mn0 O5 1.998940 1_444
Mn0 O9 2.195185 1_544
Mn0 O0 2.234976 1_455
Mn1 O4 1.831424 1_555
Mn1 O7 1.939843 1_555
Mn1 O7 1.954490 1_455
Mn1 O5 2.007017 1_555
Mn1 O9 2.015723 1_555
Mn1 O5 2.045359 1_455
Co0 O6 1.898861 1_555
Co0 O2 1.924268 1_555
Co0 O1 1.928375 1_555
Co0 O11 1.941553 1_455
Co0 O1 2.180522 1_455
Co0 O11 2.187696 1_555
Co1 O8 1.745489 1_655
Co1 O3 1.862709 1_645
Co1 O6 1.961951 1_545
Co1 O1 1.963059 1_545
Co1 O3 2.102890 1_545
Co1 O6 2.233600 1_645
Co2 O10 1.920091 1_555
Co2 O2 1.920445 1_655
Co2 O11 1.922870 1_555
Co2 O0 1.957778 1_555
Co2 O2 2.178284 1_555
Co2 O10 2.182471 1_655
