# generated using pymatgen
data_Mg2Si3
_symmetry_space_group_name_H-M   'P 1'
_cell_length_a   3.93410400
_cell_length_b   5.86100030
_cell_length_c   17.00687748
_cell_angle_alpha   93.28669266
_cell_angle_beta   95.77447772
_cell_angle_gamma   99.44846235
_symmetry_Int_Tables_number   1
_chemical_formula_structural   Mg2Si3
_chemical_formula_sum   'Mg8 Si12'
_cell_volume   383.76704827
_cell_formula_units_Z   4
loop_
 _symmetry_equiv_pos_site_id
 _symmetry_equiv_pos_as_xyz
  1  'x, y, z'
loop_
 _atom_site_type_symbol
 _atom_site_label
 _atom_site_symmetry_multiplicity
 _atom_site_fract_x
 _atom_site_fract_y
 _atom_site_fract_z
 _atom_site_occupancy
  Mg  Mg0  1  0.29500800  0.76806400  0.53196000  1
  Mg  Mg1  1  0.93996900  0.72281000  0.96625700  1
  Mg  Mg2  1  0.86523600  0.54549100  0.65924400  1
  Mg  Mg3  1  0.94580400  0.94273600  0.80963900  1
  Mg  Mg4  1  0.06003100  0.27719000  0.03374300  1
  Mg  Mg5  1  0.70499200  0.23193600  0.46804000  1
  Mg  Mg6  1  0.05419600  0.05726400  0.19036100  1
  Mg  Mg7  1  0.13476400  0.45450900  0.34075600  1
  Si  Si0  1  0.47972900  0.15067500  0.71324400  1
  Si  Si1  1  0.79133400  0.45413700  0.81318700  1
  Si  Si2  1  0.89744300  0.00100200  0.64127300  1
  Si  Si3  1  0.31327900  0.39419800  0.89351100  1
  Si  Si4  1  0.50900700  0.97125000  0.07425000  1
  Si  Si5  1  0.72679400  0.70788400  0.41910200  1
  Si  Si6  1  0.20866600  0.54586300  0.18681300  1
  Si  Si7  1  0.52027100  0.84932500  0.28675600  1
  Si  Si8  1  0.68672100  0.60580200  0.10648900  1
  Si  Si9  1  0.10255700  0.99899800  0.35872700  1
  Si  Si10  1  0.27320600  0.29211600  0.58089800  1
  Si  Si11  1  0.49099300  0.02875000  0.92575000  1
loop_
_geom_bond_atom_site_label_1
_geom_bond_atom_site_label_2
_geom_bond_distance
_geom_bond_site_symmetry_2
Mg0 Si5 2.732961 1_555
Mg0 Si5 2.757818 1_455
Mg0 Si10 2.946788 1_555
Mg0 Si2 2.949095 1_565
Mg0 Si2 2.959983 1_465
Mg0 Si10 3.153048 1_565
Mg1 Si11 2.748649 1_665
Mg1 Si8 2.755368 1_556
Mg1 Si11 2.783230 1_565
Mg1 Si4 2.881106 1_656
Mg1 Si3 2.901391 1_655
Mg1 Si1 2.918867 1_555
Mg1 Si3 2.978684 1_555
Mg1 Si4 3.081960 1_556
Mg2 Si2 2.688368 1_565
Mg2 Si10 2.723683 1_555
Mg2 Si1 2.736494 1_555
Mg2 Si10 2.746391 1_655
Mg2 Si0 2.805341 1_555
Mg3 Si11 2.726244 1_665
Mg3 Si0 2.809414 1_565
Mg3 Si1 2.833624 1_555
Mg3 Si11 2.871936 1_565
Mg3 Si2 2.894062 1_565
Mg3 Si0 2.943904 1_665
Mg3 Si3 3.003728 1_665
Mg3 Si1 3.153022 1_565
Mg4 Si4 2.748649 1_445
Mg4 Si3 2.755368 1_554
Mg4 Si4 2.783230 1_545
Mg4 Si11 2.881106 1_454
Mg4 Si8 2.901391 1_455
Mg4 Si6 2.918867 1_555
Mg4 Si8 2.978684 1_555
Mg4 Si11 3.081960 1_554
Mg5 Si10 2.732961 1_555
Mg5 Si10 2.757818 1_655
Mg5 Si5 2.946788 1_555
Mg5 Si9 2.949095 1_545
Mg5 Si9 2.959983 1_645
Mg5 Si5 3.153048 1_545
Mg6 Si4 2.726244 1_445
Mg6 Si7 2.809414 1_545
Mg6 Si6 2.833624 1_555
Mg6 Si4 2.871936 1_545
Mg6 Si9 2.894062 1_545
Mg6 Si7 2.943904 1_445
Mg6 Si8 3.003728 1_445
Mg6 Si6 3.153022 1_545
Mg7 Si9 2.688368 1_545
Mg7 Si5 2.723683 1_555
Mg7 Si6 2.736494 1_555
Mg7 Si5 2.746391 1_455
Mg7 Si7 2.805341 1_555
Si0 Si2 2.392319 1_555
Si0 Si1 2.464435 1_555
Si0 Si2 2.483596 1_455
Si0 Si10 2.545684 1_555
Si1 Si3 2.425227 1_555
Si1 Si3 2.435846 1_655
Si4 Si8 2.434399 1_555
Si5 Si9 2.414338 1_655
Si5 Si7 2.545684 1_555
Si6 Si8 2.425227 1_555
Si6 Si8 2.435846 1_455
Si6 Si7 2.464435 1_555
Si7 Si9 2.392319 1_555
Si7 Si9 2.483596 1_655
Si10 Si2 2.414338 1_455
Si11 Si3 2.434399 1_555
Si11 Si4 2.562474 1_546
