# generated using pymatgen
data_Sr4In2N
_symmetry_space_group_name_H-M   'P 1'
_cell_length_a   15.77418963
_cell_length_b   15.77418963
_cell_length_c   15.77418963
_cell_angle_alpha   160.84140569
_cell_angle_beta   160.84140569
_cell_angle_gamma   27.22365658
_symmetry_Int_Tables_number   1
_chemical_formula_structural   Sr4In2N
_chemical_formula_sum   'Sr8 In4 N2'
_cell_volume   422.57130292
_cell_formula_units_Z   2
loop_
 _symmetry_equiv_pos_site_id
 _symmetry_equiv_pos_as_xyz
  1  'x, y, z'
loop_
 _atom_site_type_symbol
 _atom_site_label
 _atom_site_symmetry_multiplicity
 _atom_site_fract_x
 _atom_site_fract_y
 _atom_site_fract_z
 _atom_site_occupancy
  Sr  Sr0  1  0.66783525  0.16783525  0.50000000  1
  Sr  Sr1  1  0.49989415  0.99989415  0.50000000  1
  Sr  Sr2  1  0.83216475  0.33216475  0.50000000  1
  Sr  Sr3  1  0.91783525  0.91783525  -0.00000000  1
  Sr  Sr4  1  0.08216475  0.08216475  0.00000000  1
  Sr  Sr5  1  0.00010585  0.50010585  0.50000000  1
  Sr  Sr6  1  0.25010585  0.25010585  0.00000000  1
  Sr  Sr7  1  0.74989415  0.74989415  -0.00000000  1
  In  In0  1  0.40858254  0.40858254  0.00000000  1
  In  In1  1  0.15858254  0.65858254  0.50000000  1
  In  In2  1  0.59141746  0.59141746  -0.00000000  1
  In  In3  1  0.34141746  0.84141746  0.50000000  1
  N  N0  1  0.75000000  0.25000000  0.50000000  1
  N  N1  1  -0.00000000  -0.00000000  0.00000000  1
loop_
_geom_bond_atom_site_label_1
_geom_bond_atom_site_label_2
_geom_bond_distance
_geom_bond_site_symmetry_2
In0 In3 3.336466 1_555
In0 In3 3.336466 1_544
In0 Sr2 3.518672 1_555
In0 Sr2 3.518672 1_454
In0 Sr3 3.723167 1_556
In0 Sr3 3.723167 1_455
In0 Sr3 3.723167 1_444
In0 Sr3 3.723167 1_545
In0 Sr1 3.837934 1_544
In0 Sr1 3.837934 1_555
In0 Sr5 3.842672 1_554
In0 Sr5 3.842672 1_655
In1 In2 3.336466 1_556
In1 In2 3.336466 1_455
In1 Sr4 3.518672 1_566
In1 Sr4 3.518672 1_555
In1 Sr0 3.723167 1_566
In1 Sr0 3.723167 1_454
In1 Sr0 3.723167 1_555
In1 Sr0 3.723167 1_465
In1 Sr7 3.837934 1_455
In1 Sr7 3.837934 1_556
In1 Sr6 3.842672 1_566
In1 Sr6 3.842672 1_555
In2 Sr0 3.518672 1_565
In2 Sr0 3.518672 1_554
In2 Sr4 3.723167 1_565
In2 Sr4 3.723167 1_666
In2 Sr4 3.723167 1_655
In2 Sr4 3.723167 1_554
In2 Sr5 3.837934 1_655
In2 Sr5 3.837934 1_554
In2 Sr1 3.842672 1_544
In2 Sr1 3.842672 1_555
In3 Sr3 3.518672 1_455
In3 Sr3 3.518672 1_556
In3 Sr2 3.723167 1_454
In3 Sr2 3.723167 1_566
In3 Sr2 3.723167 1_465
In3 Sr2 3.723167 1_555
In3 Sr6 3.837934 1_566
In3 Sr6 3.837934 1_555
In3 Sr7 3.842672 1_556
In3 Sr7 3.842672 1_455
N0 Sr2 2.519357 1_555
N0 Sr0 2.519357 1_555
N0 Sr6 2.625024 1_555
N0 Sr7 2.625024 1_556
N0 Sr6 2.625024 1_656
N0 Sr7 2.625024 1_545
N1 Sr4 2.519357 1_555
N1 Sr3 2.519357 1_445
N1 Sr5 2.625024 1_544
N1 Sr1 2.625024 1_444
N1 Sr5 2.625024 1_555
N1 Sr1 2.625024 1_545
