# generated using pymatgen
data_Ta3Tl2Cl9
_symmetry_space_group_name_H-M   'P 1'
_cell_length_a   9.79162501
_cell_length_b   9.79162501
_cell_length_c   9.56080143
_cell_angle_alpha   76.72947737
_cell_angle_beta   76.72947737
_cell_angle_gamma   116.29231004
_symmetry_Int_Tables_number   1
_chemical_formula_structural   Ta3Tl2Cl9
_chemical_formula_sum   'Ta6 Tl4 Cl18'
_cell_volume   740.00929053
_cell_formula_units_Z   2
loop_
 _symmetry_equiv_pos_site_id
 _symmetry_equiv_pos_as_xyz
  1  'x, y, z'
loop_
 _atom_site_type_symbol
 _atom_site_label
 _atom_site_symmetry_multiplicity
 _atom_site_fract_x
 _atom_site_fract_y
 _atom_site_fract_z
 _atom_site_occupancy
  Ta  Ta0  1  0.61271511  0.61271511  0.13058761  1
  Ta  Ta1  1  0.38728489  0.38728489  0.86941239  1
  Ta  Ta2  1  0.45379101  0.28090792  0.14003305  1
  Ta  Ta3  1  0.54620899  0.71909208  0.85996695  1
  Ta  Ta4  1  0.71909208  0.54620899  0.85996695  1
  Ta  Ta5  1  0.28090792  0.45379101  0.14003305  1
  Tl  Tl0  1  0.73020677  0.04933614  0.32659474  1
  Tl  Tl1  1  0.26979323  0.95066386  0.67340526  1
  Tl  Tl2  1  0.95066386  0.26979323  0.67340526  1
  Tl  Tl3  1  0.04933614  0.73020677  0.32659474  1
  Cl  Cl0  1  0.70753250  0.29246750  -0.00000000  1
  Cl  Cl1  1  0.29246750  0.70753250  -0.00000000  1
  Cl  Cl2  1  0.39288276  0.99800494  0.32236471  1
  Cl  Cl3  1  0.60711724  0.00199506  0.67763529  1
  Cl  Cl4  1  0.00199506  0.60711724  0.67763529  1
  Cl  Cl5  1  0.99800494  0.39288276  0.32236471  1
  Cl  Cl6  1  0.31149476  0.10269172  0.01128852  1
  Cl  Cl7  1  0.68850524  0.89730828  0.98871148  1
  Cl  Cl8  1  0.89730828  0.68850524  0.98871148  1
  Cl  Cl9  1  0.10269172  0.31149476  0.01128852  1
  Cl  Cl10  1  0.75595046  0.75595046  0.29419864  1
  Cl  Cl11  1  0.24404954  0.24404954  0.70580136  1
  Cl  Cl12  1  0.82012820  0.82012820  0.66564443  1
  Cl  Cl13  1  0.17987180  0.17987180  0.33435557  1
  Cl  Cl14  1  0.58012429  0.37158258  0.32161616  1
  Cl  Cl15  1  0.41987571  0.62841742  0.67838384  1
  Cl  Cl16  1  0.62841742  0.41987571  0.67838384  1
  Cl  Cl17  1  0.37158258  0.58012429  0.32161616  1
loop_
_geom_bond_atom_site_label_1
_geom_bond_atom_site_label_2
_geom_bond_distance
_geom_bond_site_symmetry_2
Cl0 Ta4 2.476365 1_554
Cl0 Ta2 2.476365 1_555
Cl1 Ta5 2.476365 1_555
Cl1 Ta3 2.476365 1_554
Cl2 Ta2 2.628707 1_565
Cl2 Tl0 3.124692 1_565
Cl2 Tl1 3.140937 1_555
Cl2 Tl3 3.204330 1_555
Cl3 Ta3 2.628707 1_545
Cl3 Tl1 3.124692 1_545
Cl3 Tl0 3.140937 1_555
Cl3 Tl2 3.204330 1_555
Cl4 Ta4 2.628707 1_455
Cl4 Tl2 3.124692 1_455
Cl4 Tl3 3.140937 1_555
Cl4 Tl1 3.204330 1_555
Cl5 Ta5 2.628707 1_655
Cl5 Tl3 3.124692 1_655
Cl5 Tl2 3.140937 1_555
Cl5 Tl0 3.204330 1_555
Cl6 Ta2 2.474083 1_555
Cl6 Ta1 2.475168 1_554
Cl7 Ta3 2.474083 1_555
Cl7 Ta0 2.475168 1_556
Cl8 Ta4 2.474083 1_555
Cl8 Ta0 2.475168 1_556
Cl9 Ta5 2.474083 1_555
Cl9 Ta1 2.475168 1_554
Cl10 Ta0 2.579293 1_555
Cl10 Tl0 3.070207 1_565
Cl10 Tl3 3.070207 1_655
Cl11 Ta1 2.579293 1_555
Cl11 Tl2 3.070207 1_455
Cl11 Tl1 3.070207 1_545
Cl12 Ta4 2.478298 1_555
Cl12 Ta3 2.478298 1_555
Cl13 Ta5 2.478298 1_555
Cl13 Ta2 2.478298 1_555
Cl14 Ta2 2.460296 1_555
Cl14 Ta0 2.469293 1_555
Cl15 Ta3 2.460296 1_555
Cl15 Ta1 2.469293 1_555
Cl16 Ta4 2.460296 1_555
Cl16 Ta1 2.469293 1_555
Cl17 Ta5 2.460296 1_555
Cl17 Ta0 2.469293 1_555
