# generated using pymatgen
data_Sr6Mg(W2O9)2
_symmetry_space_group_name_H-M   'P 1'
_cell_length_a   7.50776448
_cell_length_b   7.50776448
_cell_length_c   7.50776334
_cell_angle_alpha   82.73625028
_cell_angle_beta   82.73625028
_cell_angle_gamma   82.73625126
_symmetry_Int_Tables_number   1
_chemical_formula_structural   Sr6Mg(W2O9)2
_chemical_formula_sum   'Sr6 Mg1 W4 O18'
_cell_volume   413.78980001
_cell_formula_units_Z   1
loop_
 _symmetry_equiv_pos_site_id
 _symmetry_equiv_pos_as_xyz
  1  'x, y, z'
loop_
 _atom_site_type_symbol
 _atom_site_label
 _atom_site_symmetry_multiplicity
 _atom_site_fract_x
 _atom_site_fract_y
 _atom_site_fract_z
 _atom_site_occupancy
  Sr  Sr0  1  0.24785200  0.91952300  0.57818300  1
  Sr  Sr1  1  0.08047700  0.42181700  0.75214800  1
  Sr  Sr2  1  0.42181700  0.75214800  0.08047700  1
  Sr  Sr3  1  0.57818300  0.24785200  0.91952300  1
  Sr  Sr4  1  0.91952300  0.57818300  0.24785200  1
  Sr  Sr5  1  0.75214800  0.08047700  0.42181700  1
  Mg  Mg0  1  0.00000000  0.00000000  0.00000000  1
  W  W0  1  0.82469900  0.82469900  0.82469900  1
  W  W1  1  0.36860200  0.36860200  0.36860200  1
  W  W2  1  0.17530100  0.17530100  0.17530100  1
  W  W3  1  0.63139800  0.63139800  0.63139800  1
  O  O0  1  0.08763100  0.93972600  0.26265600  1
  O  O1  1  0.06027400  0.73734400  0.91236900  1
  O  O2  1  0.57496200  0.88718100  0.73668300  1
  O  O3  1  0.24910200  0.58714600  0.42499900  1
  O  O4  1  0.11281900  0.26331700  0.42503800  1
  O  O5  1  0.26331700  0.42503800  0.11281900  1
  O  O6  1  0.41285400  0.57500100  0.75089800  1
  O  O7  1  0.57500100  0.75089800  0.41285400  1
  O  O8  1  0.73734400  0.91236900  0.06027400  1
  O  O9  1  0.26265600  0.08763100  0.93972600  1
  O  O10  1  0.42499900  0.24910200  0.58714600  1
  O  O11  1  0.88718100  0.73668300  0.57496200  1
  O  O12  1  0.58714600  0.42499900  0.24910200  1
  O  O13  1  0.73668300  0.57496200  0.88718100  1
  O  O14  1  0.75089800  0.41285400  0.57500100  1
  O  O15  1  0.42503800  0.11281900  0.26331700  1
  O  O16  1  0.93972600  0.26265600  0.08763100  1
  O  O17  1  0.91236900  0.06027400  0.73734400  1
loop_
_geom_bond_atom_site_label_1
_geom_bond_atom_site_label_2
_geom_bond_distance
_geom_bond_site_symmetry_2
Mg0 O17 2.133866 1_454
Mg0 O0 2.133866 1_545
Mg0 O1 2.133866 1_544
Mg0 O16 2.133866 1_455
Mg0 O8 2.133866 1_445
Mg0 O9 2.133866 1_554
O0 W2 1.970622 1_565
O0 Sr0 2.768620 1_555
O0 Sr5 2.788139 1_465
O0 Sr2 2.979072 1_555
O0 Sr4 3.154555 1_455
O1 W0 1.970622 1_455
O1 Sr1 2.768620 1_555
O1 Sr4 2.788139 1_456
O1 Sr0 2.979072 1_555
O1 Sr2 3.154555 1_556
O2 W0 2.045659 1_555
O2 W3 2.141384 1_555
O2 Sr2 2.809727 1_556
O2 Sr0 2.832213 1_555
O2 Sr5 2.879120 1_565
O2 Sr3 3.190958 1_565
O3 W1 1.839491 1_555
O3 Sr1 2.831304 1_555
O3 Sr0 2.875218 1_555
O3 Sr2 2.941816 1_555
O3 Sr4 2.965291 1_455
O4 W2 2.045659 1_555
O4 W1 2.141384 1_555
O4 Sr0 2.809728 1_545
O4 Sr1 2.832213 1_555
O4 Sr4 2.879120 1_455
O4 Sr5 3.190958 1_455
O5 W2 2.045659 1_555
O5 W1 2.141384 1_555
O5 Sr4 2.809728 1_455
O5 Sr2 2.832213 1_555
O5 Sr3 2.879120 1_554
O5 Sr1 3.190958 1_554
O6 W3 1.839491 1_555
O6 Sr3 2.831305 1_555
O6 Sr1 2.875218 1_555
O6 Sr0 2.941817 1_555
O6 Sr2 2.965291 1_556
O7 W3 1.839491 1_555
O7 Sr0 2.831305 1_555
O7 Sr2 2.875218 1_555
O7 Sr4 2.941817 1_555
O7 Sr5 2.965291 1_565
O8 W0 1.970622 1_554
O8 Sr2 2.768620 1_555
O8 Sr3 2.788139 1_564
O8 Sr4 2.979072 1_555
O8 Sr5 3.154555 1_565
O9 W2 1.970622 1_556
O9 Sr3 2.768620 1_555
O9 Sr2 2.788139 1_546
O9 Sr1 2.979072 1_555
O9 Sr0 3.154555 1_545
O10 W1 1.839491 1_555
O10 Sr5 2.831305 1_555
O10 Sr3 2.875218 1_555
O10 Sr1 2.941817 1_555
O10 Sr0 2.965291 1_545
O11 W0 2.045659 1_555
O11 W3 2.141384 1_555
O11 Sr5 2.809728 1_565
O11 Sr4 2.832213 1_555
O11 Sr1 2.879120 1_655
O11 Sr0 3.190958 1_655
O12 W1 1.839491 1_555
O12 Sr2 2.831305 1_555
O12 Sr4 2.875218 1_555
O12 Sr5 2.941817 1_555
O12 Sr3 2.965291 1_554
O13 W0 2.045659 1_555
O13 W3 2.141384 1_555
O13 Sr1 2.809728 1_655
O13 Sr3 2.832213 1_555
O13 Sr2 2.879120 1_556
O13 Sr4 3.190958 1_556
O14 W3 1.839491 1_555
O14 Sr4 2.831304 1_555
O14 Sr5 2.875218 1_555
O14 Sr3 2.941816 1_555
O14 Sr1 2.965291 1_655
O15 W2 2.045659 1_555
O15 W1 2.141384 1_555
O15 Sr3 2.809727 1_554
O15 Sr5 2.832213 1_555
O15 Sr0 2.879120 1_545
O15 Sr2 3.190958 1_545
O16 W2 1.970622 1_655
O16 Sr4 2.768620 1_555
O16 Sr1 2.788139 1_654
O16 Sr5 2.979072 1_555
O16 Sr3 3.154555 1_554
O17 W0 1.970622 1_545
O17 Sr5 2.768620 1_555
O17 Sr0 2.788139 1_645
O17 Sr3 2.979072 1_555
O17 Sr1 3.154555 1_655
