# generated using pymatgen
data_KHfMg6
_symmetry_space_group_name_H-M   'P 1'
_cell_length_a   6.65551448
_cell_length_b   6.65551448
_cell_length_c   4.67310500
_cell_angle_alpha   90.00000000
_cell_angle_beta   90.00000000
_cell_angle_gamma   90.04855245
_symmetry_Int_Tables_number   1
_chemical_formula_structural   KHfMg6
_chemical_formula_sum   'K1 Hf1 Mg6'
_cell_volume   206.99919136
_cell_formula_units_Z   1
loop_
 _symmetry_equiv_pos_site_id
 _symmetry_equiv_pos_as_xyz
  1  'x, y, z'
loop_
 _atom_site_type_symbol
 _atom_site_label
 _atom_site_symmetry_multiplicity
 _atom_site_fract_x
 _atom_site_fract_y
 _atom_site_fract_z
 _atom_site_occupancy
  K  K0  1  0.13173000  0.13173000  0.50000000  1
  Hf  Hf0  1  0.62245600  0.62245600  0.50000000  1
  Mg  Mg0  1  0.63155600  0.11915200  0.50000000  1
  Mg  Mg1  1  0.11915200  0.63155600  0.50000000  1
  Mg  Mg2  1  0.84838900  0.39679500  0.00000000  1
  Mg  Mg3  1  0.39679500  0.84838900  0.00000000  1
  Mg  Mg4  1  0.40066400  0.40066400  0.00000000  1
  Mg  Mg5  1  0.84925900  0.84925900  0.00000000  1
loop_
_geom_bond_atom_site_label_1
_geom_bond_atom_site_label_2
_geom_bond_distance
_geom_bond_site_symmetry_2
K0 Mg0 3.327723 1_555
K0 Mg1 3.327723 1_555
K0 Mg1 3.329897 1_545
K0 Mg0 3.329897 1_455
K0 Mg4 3.444051 1_555
K0 Mg4 3.444051 1_556
K0 Mg2 3.483315 1_455
K0 Mg3 3.483315 1_546
K0 Mg3 3.483315 1_545
K0 Mg2 3.483315 1_456
K0 Mg5 3.538674 1_446
K0 Mg5 3.538674 1_445
Hf0 Mg4 3.132693 1_556
Hf0 Mg4 3.132693 1_555
Hf0 Mg2 3.159129 1_556
Hf0 Mg3 3.159129 1_556
Hf0 Mg3 3.159129 1_555
Hf0 Mg2 3.159129 1_555
Hf0 Mg5 3.164291 1_556
Hf0 Mg5 3.164291 1_555
Hf0 Mg1 3.306271 1_655
Hf0 Mg0 3.306271 1_565
Hf0 Mg0 3.350346 1_555
Hf0 Mg1 3.350346 1_555
Mg0 Mg5 3.284796 1_546
Mg0 Mg5 3.284796 1_545
Mg0 Mg2 3.309407 1_556
Mg0 Mg2 3.309407 1_555
Mg0 Mg3 3.338176 1_546
Mg0 Mg3 3.338176 1_545
Mg0 Mg4 3.366931 1_555
Mg0 Mg4 3.366931 1_556
Mg1 Mg5 3.284796 1_456
Mg1 Mg5 3.284796 1_455
Mg1 Mg3 3.309407 1_556
Mg1 Mg3 3.309407 1_555
Mg1 Mg2 3.338176 1_456
Mg1 Mg2 3.338176 1_455
Mg1 Mg4 3.366931 1_555
Mg1 Mg4 3.366931 1_556
Mg2 Mg4 2.979973 1_555
Mg2 Mg5 3.011381 1_555
Mg3 Mg4 2.979973 1_555
Mg3 Mg5 3.011381 1_555
