# generated using pymatgen
data_Rb2BiPWO8
_symmetry_space_group_name_H-M   'P 1'
_cell_length_a   12.71903906
_cell_length_b   12.71903906
_cell_length_c   12.71903906
_cell_angle_alpha   147.19423370
_cell_angle_beta   120.19068819
_cell_angle_gamma   69.91635864
_symmetry_Int_Tables_number   1
_chemical_formula_structural   Rb2BiPWO8
_chemical_formula_sum   'Rb8 Bi4 P4 W4 O32'
_cell_volume   949.67269190
_cell_formula_units_Z   4
loop_
 _symmetry_equiv_pos_site_id
 _symmetry_equiv_pos_as_xyz
  1  'x, y, z'
loop_
 _atom_site_type_symbol
 _atom_site_label
 _atom_site_symmetry_multiplicity
 _atom_site_fract_x
 _atom_site_fract_y
 _atom_site_fract_z
 _atom_site_occupancy
  Rb  Rb0  1  0.23934200  0.62373800  0.54796400  1
  Rb  Rb1  1  0.26065800  0.80862200  0.38439600  1
  Rb  Rb2  1  0.92422600  0.87626200  0.11560400  1
  Rb  Rb3  1  0.57577400  0.69137800  0.95203600  1
  Rb  Rb4  1  0.76065800  0.37626200  0.45203600  1
  Rb  Rb5  1  0.73934200  0.19137800  0.61560400  1
  Rb  Rb6  1  0.07577400  0.12373800  0.88439600  1
  Rb  Rb7  1  0.42422600  0.30862200  0.04796400  1
  Bi  Bi0  1  0.16591800  0.75000000  0.91591800  1
  Bi  Bi1  1  0.33408200  0.25000000  0.58408200  1
  Bi  Bi2  1  0.83408200  0.25000000  0.08408200  1
  Bi  Bi3  1  0.66591800  0.75000000  0.41591800  1
  P  P0  1  0.92673700  0.75000000  0.67673700  1
  P  P1  1  0.57326300  0.25000000  0.82326300  1
  P  P2  1  0.07326300  0.25000000  0.32326300  1
  P  P3  1  0.42673700  0.75000000  0.17673700  1
  W  W0  1  0.08719000  0.33719000  0.75000000  1
  W  W1  1  0.41281000  0.16281000  0.25000000  1
  W  W2  1  0.91281000  0.66281000  0.25000000  1
  W  W3  1  0.58719000  0.83719000  0.75000000  1
  O  O0  1  0.94211200  0.71582000  0.77542100  1
  O  O1  1  0.55788800  0.33330900  0.77370800  1
  O  O2  1  0.05960100  0.78418000  0.72629200  1
  O  O3  1  0.44039900  0.16669100  0.72457900  1
  O  O4  1  0.05788800  0.28418000  0.22457900  1
  O  O5  1  0.44211200  0.66669100  0.22629200  1
  O  O6  1  0.94039900  0.21582000  0.27370800  1
  O  O7  1  0.55960100  0.83330900  0.27542100  1
  O  O8  1  0.10076300  0.58875100  0.91695500  1
  O  O9  1  0.39923700  0.31619200  0.48798800  1
  O  O10  1  0.32820400  0.91124900  0.01201200  1
  O  O11  1  0.17179600  0.18380800  0.58304500  1
  O  O12  1  0.89923700  0.41124900  0.08304500  1
  O  O13  1  0.60076300  0.68380800  0.51201200  1
  O  O14  1  0.67179600  0.08875100  0.98798800  1
  O  O15  1  0.82820400  0.81619200  0.41695500  1
  O  O16  1  0.35998100  0.59160400  0.93200200  1
  O  O17  1  0.14001900  0.07202200  0.23162400  1
  O  O18  1  0.34039800  0.90839600  0.26837600  1
  O  O19  1  0.15960200  0.42797800  0.56799800  1
  O  O20  1  0.64001900  0.40839600  0.06799800  1
  O  O21  1  0.85998100  0.92797800  0.76837600  1
  O  O22  1  0.65960200  0.09160400  0.73162400  1
  O  O23  1  0.84039800  0.57202200  0.43200200  1
  O  O24  1  0.92662800  0.22290300  0.57420600  1
  O  O25  1  0.57337200  0.14757700  0.29627400  1
  O  O26  1  0.35130300  0.27709700  0.20372600  1
  O  O27  1  0.14869700  0.35242300  0.92579400  1
  O  O28  1  0.07337200  0.77709700  0.42579400  1
  O  O29  1  0.42662800  0.85242300  0.70372600  1
  O  O30  1  0.64869700  0.72290300  0.79627400  1
  O  O31  1  0.85130300  0.64757700  0.07420600  1
loop_
_geom_bond_atom_site_label_1
_geom_bond_atom_site_label_2
_geom_bond_distance
_geom_bond_site_symmetry_2
Bi0 O19 2.400993 1_555
Bi0 O17 2.400998 1_566
Bi0 O0 2.431724 1_455
Bi0 O2 2.431724 1_555
Bi0 O8 2.473256 1_555
Bi0 O10 2.473256 1_556
Bi0 O18 2.638722 1_556
Bi0 O16 2.638730 1_555
Bi1 O16 2.400991 1_555
Bi1 O18 2.400993 1_545
Bi1 O1 2.431724 1_555
Bi1 O3 2.431724 1_555
Bi1 O11 2.473256 1_555
Bi1 O9 2.473256 1_555
Bi1 O19 2.638722 1_555
Bi1 O17 2.638727 1_555
Bi2 O23 2.400993 1_555
Bi2 O21 2.400998 1_544
Bi2 O4 2.431724 1_655
Bi2 O6 2.431724 1_555
Bi2 O12 2.473256 1_555
Bi2 O14 2.473256 1_554
Bi2 O22 2.638722 1_554
Bi2 O20 2.638730 1_555
Bi3 O20 2.400991 1_555
Bi3 O22 2.400993 1_565
Bi3 O7 2.431724 1_555
Bi3 O5 2.431724 1_555
Bi3 O15 2.473256 1_555
Bi3 O13 2.473256 1_555
Bi3 O23 2.638722 1_555
Bi3 O21 2.638727 1_555
O0 P0 1.553931 1_555
O0 Rb4 2.886727 1_555
O0 Rb2 2.960697 1_556
O1 P1 1.553931 1_555
O1 Rb5 2.886727 1_555
O1 Rb3 2.960697 1_555
O2 P0 1.553931 1_455
O2 Rb6 2.886727 1_565
O2 Rb0 2.960697 1_555
O3 P1 1.553931 1_555
O3 Rb7 2.886727 1_556
O3 Rb1 2.960697 1_545
O4 P2 1.553931 1_555
O4 Rb0 2.886727 1_555
O4 Rb6 2.960697 1_554
O5 P3 1.553931 1_555
O5 Rb1 2.886727 1_555
O5 Rb7 2.960697 1_555
O6 P2 1.553931 1_655
O6 Rb2 2.886727 1_545
O6 Rb4 2.960697 1_555
O7 P3 1.553931 1_555
O7 Rb3 2.886727 1_554
O7 Rb5 2.960697 1_565
O8 W0 1.834588 1_555
O8 Rb2 3.055005 1_456
O8 Rb1 3.331646 1_556
O9 W1 1.834588 1_555
O9 Rb3 3.055005 1_555
O9 Rb0 3.331646 1_555
O10 W1 1.834588 1_565
O10 Rb0 3.055005 1_554
O10 Rb3 3.331646 1_554
O11 W0 1.834588 1_555
O11 Rb1 3.055005 1_545
O11 Rb2 3.331646 1_445
O12 W2 1.834588 1_555
O12 Rb6 3.055005 1_654
O12 Rb5 3.331646 1_554
O13 W3 1.834588 1_555
O13 Rb7 3.055005 1_555
O13 Rb4 3.331646 1_555
O14 W3 1.834588 1_545
O14 Rb4 3.055005 1_556
O14 Rb7 3.331646 1_556
O15 W2 1.834588 1_555
O15 Rb5 3.055005 1_565
O15 Rb6 3.331646 1_665
O16 P3 1.563265 1_556
O16 Rb3 3.217726 1_555
O17 P2 1.563259 1_555
O17 Rb2 3.217726 1_445
O18 P3 1.563265 1_555
O18 Rb1 3.217738 1_555
O19 P2 1.563265 1_555
O19 Rb0 3.217738 1_555
O20 P1 1.563265 1_554
O20 Rb7 3.217726 1_555
O21 P0 1.563259 1_555
O21 Rb6 3.217726 1_665
O22 P1 1.563265 1_555
O22 Rb5 3.217738 1_555
O23 P0 1.563265 1_555
O23 Rb4 3.217738 1_555
O24 W0 1.807088 1_655
O24 Rb5 2.895652 1_555
O24 Rb4 3.105425 1_555
O24 Rb2 3.185164 1_545
O25 W1 1.807090 1_555
O25 Rb4 2.895653 1_555
O25 Rb5 3.105427 1_555
O25 Rb3 3.185158 1_544
O26 W1 1.807078 1_555
O26 Rb7 2.895664 1_555
O26 Rb6 3.105428 1_554
O26 Rb0 3.185159 1_555
O27 W0 1.807078 1_555
O27 Rb6 2.895664 1_555
O27 Rb7 3.105428 1_556
O27 Rb1 3.185159 1_556
O28 W2 1.807088 1_455
O28 Rb1 2.895652 1_555
O28 Rb0 3.105425 1_555
O28 Rb6 3.185164 1_565
O29 W3 1.807090 1_555
O29 Rb0 2.895653 1_555
O29 Rb1 3.105427 1_555
O29 Rb7 3.185158 1_566
O30 W3 1.807078 1_555
O30 Rb3 2.895664 1_555
O30 Rb2 3.105428 1_556
O30 Rb4 3.185159 1_555
O31 W2 1.807078 1_555
O31 Rb2 2.895664 1_555
O31 Rb3 3.105428 1_554
O31 Rb5 3.185159 1_554
