# generated using pymatgen
data_LiFe6(OF2)4
_symmetry_space_group_name_H-M   'P 1'
_cell_length_a   7.86999790
_cell_length_b   5.81746039
_cell_length_c   5.79733724
_cell_angle_alpha   70.10889635
_cell_angle_beta   68.72085817
_cell_angle_gamma   68.64834609
_symmetry_Int_Tables_number   1
_chemical_formula_structural   LiFe6(OF2)4
_chemical_formula_sum   'Li1 Fe6 O4 F8'
_cell_volume   223.63042296
_cell_formula_units_Z   1
loop_
 _symmetry_equiv_pos_site_id
 _symmetry_equiv_pos_as_xyz
  1  'x, y, z'
loop_
 _atom_site_type_symbol
 _atom_site_label
 _atom_site_symmetry_multiplicity
 _atom_site_fract_x
 _atom_site_fract_y
 _atom_site_fract_z
 _atom_site_occupancy
  Li  Li0  1  0.16929300  0.82907300  0.32658000  1
  Fe  Fe0  1  0.84555100  0.63233800  0.66451600  1
  Fe  Fe1  1  0.67403900  0.34987700  0.31000500  1
  Fe  Fe2  1  0.35205400  0.68111300  0.66859300  1
  Fe  Fe3  1  0.16071000  0.32334600  0.35367900  1
  Fe  Fe4  1  0.51164400  0.97769800  0.01680600  1
  Fe  Fe5  1  0.98451400  0.98049000  0.98723900  1
  O  O0  1  0.34048100  0.97790100  0.35776600  1
  O  O1  1  0.68395800  0.64966500  0.01020900  1
  O  O2  1  0.00771800  0.28995400  0.70051700  1
  O  O3  1  0.00082000  0.67868100  0.29817600  1
  F  F0  1  0.65645100  0.03996800  0.62561200  1
  F  F1  1  0.33664900  0.35936100  0.95908200  1
  F  F2  1  0.30964600  0.88747700  0.93554300  1
  F  F3  1  0.98449300  0.19448200  0.25200800  1
  F  F4  1  0.64751100  0.55707300  0.57292900  1
  F  F5  1  0.04172200  0.76615100  0.71731400  1
  F  F6  1  0.35816100  0.46107600  0.41050900  1
  F  F7  1  0.68458700  0.11427300  0.08291900  1
loop_
_geom_bond_atom_site_label_1
_geom_bond_atom_site_label_2
_geom_bond_distance
_geom_bond_site_symmetry_2
Li0 O3 1.910950 1_555
Li0 O0 1.931341 1_555
Fe0 O2 1.923293 1_655
Fe0 O1 1.959108 1_556
Fe0 O3 2.010723 1_655
Fe1 O1 2.001610 1_555
Fe2 O0 2.030744 1_555
Fe3 O2 1.917764 1_555
Fe3 O3 1.976662 1_555
Fe3 O0 1.990558 1_545
Fe4 O1 1.899932 1_555
Fe4 O0 1.946674 1_555
Fe5 O2 2.005039 1_665
Fe5 O3 2.049085 1_656
F0 Fe1 2.090578 1_555
F0 Fe4 2.106878 1_546
F0 Fe0 2.280111 1_545
F1 Fe2 2.055824 1_555
F1 Fe4 2.130898 1_546
F1 Fe3 2.186398 1_556
F2 Fe4 2.084243 1_556
F2 Li0 2.099134 1_556
F2 Fe2 2.131966 1_555
F2 Fe5 2.339986 1_455
F3 Li0 2.097777 1_645
F3 Fe3 2.117484 1_655
F3 Fe1 2.214060 1_555
F3 Fe5 2.281617 1_544
F4 Fe0 2.039255 1_555
F4 Fe2 2.085559 1_555
F4 Fe1 2.157733 1_555
F5 Li0 2.079872 1_555
F5 Fe0 2.112694 1_455
F5 Fe5 2.147977 1_455
F5 Fe2 2.236957 1_555
F6 Li0 2.127948 1_555
F6 Fe3 2.150145 1_555
F6 Fe1 2.229816 1_555
F6 Fe2 2.255154 1_555
F7 Fe4 2.000989 1_545
F7 Fe5 2.119132 1_544
F7 Fe1 2.164326 1_555
