# generated using pymatgen
data_NaFe7(PO4)6
_symmetry_space_group_name_H-M   'P 1'
_cell_length_a   6.48246200
_cell_length_b   8.09609192
_cell_length_c   9.48843004
_cell_angle_alpha   105.39294645
_cell_angle_beta   108.23523744
_cell_angle_gamma   101.43833762
_symmetry_Int_Tables_number   1
_chemical_formula_structural   NaFe7(PO4)6
_chemical_formula_sum   'Na1 Fe7 P6 O24'
_cell_volume   433.94180058
_cell_formula_units_Z   1
loop_
 _symmetry_equiv_pos_site_id
 _symmetry_equiv_pos_as_xyz
  1  'x, y, z'
loop_
 _atom_site_type_symbol
 _atom_site_label
 _atom_site_symmetry_multiplicity
 _atom_site_fract_x
 _atom_site_fract_y
 _atom_site_fract_z
 _atom_site_occupancy
  Na  Na0  1  0.50000000  0.00000000  0.00000000  1
  Fe  Fe0  1  0.00000000  0.00000000  0.00000000  1
  Fe  Fe1  1  0.71593000  0.18840900  0.70753300  1
  Fe  Fe2  1  0.28407000  0.81159100  0.29246700  1
  Fe  Fe3  1  0.96006500  0.28176200  0.47389900  1
  Fe  Fe4  1  0.03993500  0.71823800  0.52610100  1
  Fe  Fe5  1  0.60773700  0.54242800  0.89007900  1
  Fe  Fe6  1  0.39226300  0.45757200  0.10992100  1
  P  P0  1  0.22632500  0.14647400  0.76457800  1
  P  P1  1  0.77367500  0.85352600  0.23542200  1
  P  P2  1  0.08524600  0.58915000  0.82927900  1
  P  P3  1  0.91475400  0.41085000  0.17072100  1
  P  P4  1  0.59879700  0.76791100  0.63187000  1
  P  P5  1  0.40120300  0.23208900  0.36813000  1
  O  O0  1  0.30136300  0.54207500  0.91382700  1
  O  O1  1  0.69863700  0.45792500  0.08617300  1
  O  O2  1  0.11339600  0.78702900  0.91068700  1
  O  O3  1  0.88660400  0.21297100  0.08931300  1
  O  O4  1  0.28170200  0.03761400  0.23734600  1
  O  O5  1  0.71829800  0.96238600  0.76265400  1
  O  O6  1  0.87389400  0.46495000  0.83383100  1
  O  O7  1  0.12610600  0.53505000  0.16616900  1
  O  O8  1  0.75137500  0.72509400  0.54074300  1
  O  O9  1  0.24862500  0.27490600  0.45925700  1
  O  O10  1  0.63230300  0.23547300  0.49096800  1
  O  O11  1  0.36769700  0.76452700  0.50903200  1
  O  O12  1  0.93793800  0.45339700  0.34821600  1
  O  O13  1  0.06206200  0.54660300  0.65178400  1
  O  O14  1  0.54898400  0.63727800  0.71496000  1
  O  O15  1  0.45101600  0.36272200  0.28504000  1
  O  O16  1  0.54719700  0.73785600  0.22883700  1
  O  O17  1  0.45280300  0.26214400  0.77116300  1
  O  O18  1  0.76687600  0.80936100  0.06170000  1
  O  O19  1  0.23312400  0.19063900  0.93830000  1
  O  O20  1  0.78909700  0.05202700  0.29618400  1
  O  O21  1  0.21090300  0.94797300  0.70381600  1
  O  O22  1  0.98087200  0.81376200  0.34240500  1
  O  O23  1  0.01912800  0.18623800  0.65759500  1
loop_
_geom_bond_atom_site_label_1
_geom_bond_atom_site_label_2
_geom_bond_distance
_geom_bond_site_symmetry_2
Na0 O2 2.480552 1_544
Na0 O3 2.480552 1_555
Na0 O19 2.573470 1_554
Na0 O18 2.573470 1_545
Na0 O20 2.711053 1_555
Na0 O21 2.711053 1_544
Na0 O4 2.994708 1_555
Na0 O5 2.994708 1_544
Fe0 O3 2.085269 1_455
Fe0 O2 2.085269 1_544
Fe0 O19 2.262069 1_554
Fe0 O18 2.262069 1_445
Fe0 O4 2.311005 1_555
Fe0 O5 2.311005 1_444
Fe1 O5 2.033843 1_545
Fe1 O6 2.096589 1_555
Fe1 O10 2.112335 1_555
Fe1 O17 2.118339 1_555
Fe1 O23 2.163336 1_655
Fe2 O4 2.033843 1_565
Fe2 O7 2.096589 1_555
Fe2 O11 2.112335 1_555
Fe2 O16 2.118339 1_555
Fe2 O22 2.163336 1_455
Fe3 O9 1.929036 1_655
Fe3 O20 1.969506 1_555
Fe3 O23 2.048926 1_655
Fe3 O12 2.055565 1_555
Fe3 O10 2.147746 1_555
Fe3 O13 2.168297 1_655
Fe4 O8 1.929036 1_455
Fe4 O21 1.969506 1_555
Fe4 O22 2.048926 1_455
Fe4 O13 2.055565 1_555
Fe4 O11 2.147746 1_555
Fe4 O12 2.168297 1_455
Fe5 O14 1.973069 1_555
Fe5 O0 2.067214 1_555
Fe5 O1 2.103973 1_556
Fe5 O17 2.111567 1_555
Fe5 O6 2.117302 1_555
Fe5 O18 2.140684 1_556
Fe6 O15 1.973069 1_555
Fe6 O1 2.067214 1_555
Fe6 O0 2.103973 1_554
Fe6 O16 2.111567 1_555
Fe6 O7 2.117302 1_555
Fe6 O19 2.140684 1_554
O0 P2 1.556359 1_555
O1 P3 1.556359 1_555
O2 P2 1.528200 1_555
O3 P3 1.528200 1_555
O4 P5 1.580001 1_555
O5 P4 1.580001 1_555
O6 P2 1.550407 1_655
O7 P3 1.550407 1_455
O8 P4 1.535632 1_555
O9 P5 1.535632 1_555
O10 P5 1.574016 1_555
O11 P4 1.574016 1_555
O12 P3 1.578190 1_555
O13 P2 1.578190 1_555
O14 P4 1.520169 1_555
O15 P5 1.520169 1_555
O16 P1 1.550009 1_555
O17 P0 1.550009 1_555
O18 P1 1.575512 1_555
O19 P0 1.575512 1_555
O20 P1 1.527557 1_545
O21 P0 1.527557 1_565
O22 P1 1.558787 1_555
O23 P0 1.558787 1_555
