# generated using pymatgen
data_Li4Fe(PO4)2
_symmetry_space_group_name_H-M   'P 1'
_cell_length_a   7.64585584
_cell_length_b   10.90773486
_cell_length_c   8.27358057
_cell_angle_alpha   105.88177793
_cell_angle_beta   76.74084263
_cell_angle_gamma   83.81680268
_symmetry_Int_Tables_number   1
_chemical_formula_structural   Li4Fe(PO4)2
_chemical_formula_sum   'Li16 Fe4 P8 O32'
_cell_volume   635.17797350
_cell_formula_units_Z   4
loop_
 _symmetry_equiv_pos_site_id
 _symmetry_equiv_pos_as_xyz
  1  'x, y, z'
loop_
 _atom_site_type_symbol
 _atom_site_label
 _atom_site_symmetry_multiplicity
 _atom_site_fract_x
 _atom_site_fract_y
 _atom_site_fract_z
 _atom_site_occupancy
  Li  Li0  1  0.26283900  0.14647700  0.25275200  1
  Li  Li1  1  0.76279300  0.14647600  0.75283300  1
  Li  Li2  1  0.51269900  0.64644000  0.00263500  1
  Li  Li3  1  0.01270900  0.64649500  0.50270000  1
  Li  Li4  1  0.48712100  0.35348000  0.99716500  1
  Li  Li5  1  0.98721200  0.35354100  0.49720100  1
  Li  Li6  1  0.73731200  0.85352600  0.74730300  1
  Li  Li7  1  0.23725000  0.85351800  0.24731500  1
  Li  Li8  1  0.12006200  0.30901200  0.08348000  1
  Li  Li9  1  0.62007500  0.30908100  0.58343300  1
  Li  Li10  1  0.37016300  0.80893800  0.83338700  1
  Li  Li11  1  0.87015100  0.80903300  0.33348500  1
  Li  Li12  1  0.62996300  0.19106500  0.16653000  1
  Li  Li13  1  0.12990300  0.19089200  0.66652500  1
  Li  Li14  1  0.87985300  0.69103900  0.91655900  1
  Li  Li15  1  0.37985500  0.69100500  0.41650900  1
  Fe  Fe0  1  0.50002700  0.00017800  0.50004600  1
  Fe  Fe1  1  0.75006000  0.50001300  0.24983800  1
  Fe  Fe2  1  0.00021500  0.99987700  0.00017300  1
  Fe  Fe3  1  0.24989800  0.49990900  0.74992400  1
  P  P0  1  0.34302600  0.41054200  0.38767900  1
  P  P1  1  0.84298400  0.41055200  0.88768000  1
  P  P2  1  0.59301500  0.91055100  0.13774100  1
  P  P3  1  0.09304800  0.91052500  0.63773900  1
  P  P4  1  0.40701700  0.08940900  0.86230400  1
  P  P5  1  0.90697500  0.08950200  0.36234000  1
  P  P6  1  0.65697300  0.58943900  0.61226700  1
  P  P7  1  0.15693900  0.58947600  0.11230600  1
  O  O0  1  0.39595300  0.34437400  0.51916600  1
  O  O1  1  0.89584600  0.34437300  0.01922300  1
  O  O2  1  0.64589900  0.84437800  0.26925300  1
  O  O3  1  0.14603500  0.84434400  0.76920100  1
  O  O4  1  0.35412000  0.15562200  0.73080900  1
  O  O5  1  0.85399900  0.15563400  0.23086300  1
  O  O6  1  0.60411600  0.65561900  0.48074400  1
  O  O7  1  0.10400500  0.65562600  0.98081800  1
  O  O8  1  0.20907500  0.33778900  0.30045800  1
  O  O9  1  0.70905600  0.33775600  0.80046600  1
  O  O10  1  0.45908300  0.83778600  0.05047200  1
  O  O11  1  0.95908300  0.83779500  0.55047500  1
  O  O12  1  0.54090400  0.16222000  0.94954800  1
  O  O13  1  0.04096600  0.16225200  0.44952800  1
  O  O14  1  0.79089800  0.66221800  0.69954200  1
  O  O15  1  0.29092400  0.66220800  0.19952000  1
  O  O16  1  0.23149400  0.09570300  0.00768800  1
  O  O17  1  0.73150900  0.09577200  0.50776300  1
  O  O18  1  0.48146700  0.59571700  0.75765000  1
  O  O19  1  0.98146900  0.59576700  0.25775300  1
  O  O20  1  0.51848800  0.40422800  0.24224300  1
  O  O21  1  0.01849400  0.40426400  0.74230400  1
  O  O22  1  0.76851800  0.90428500  0.99235100  1
  O  O23  1  0.26848400  0.90426300  0.49230200  1
  O  O24  1  0.49632600  0.05207700  0.25039500  1
  O  O25  1  0.99636800  0.05206400  0.75043300  1
  O  O26  1  0.74620100  0.55204000  0.00035900  1
  O  O27  1  0.24629900  0.55207400  0.50041200  1
  O  O28  1  0.25361700  0.44794900  0.99958900  1
  O  O29  1  0.75366300  0.44792000  0.49960500  1
  O  O30  1  0.50381000  0.94793700  0.74961500  1
  O  O31  1  0.00369900  0.94795900  0.24960300  1
loop_
_geom_bond_atom_site_label_1
_geom_bond_atom_site_label_2
_geom_bond_distance
_geom_bond_site_symmetry_2
Li0 O24 1.955677 1_555
Li0 O8 1.992340 1_555
Li0 O13 2.018626 1_555
Li0 O16 2.027821 1_555
Li1 O25 1.956185 1_555
Li1 O9 1.992073 1_555
Li1 O12 2.018483 1_555
Li1 O17 2.027684 1_555
Li2 O26 1.956005 1_555
Li2 O10 1.992499 1_555
Li2 O15 2.018692 1_555
Li2 O18 2.026867 1_554
Li3 O27 1.956643 1_555
Li3 O11 1.992085 1_455
Li3 O14 2.018770 1_455
Li3 O19 2.026591 1_455
Li4 O28 1.955918 1_555
Li4 O12 1.991896 1_555
Li4 O9 2.018682 1_555
Li4 O20 2.027991 1_556
Li5 O29 1.955850 1_555
Li5 O13 1.992130 1_655
Li5 O8 2.018472 1_655
Li5 O21 2.027940 1_655
Li6 O30 1.955954 1_555
Li6 O14 1.992171 1_555
Li6 O11 2.018485 1_555
Li6 O22 2.027293 1_555
Li7 O31 1.956481 1_555
Li7 O15 1.992186 1_555
Li7 O10 2.018862 1_555
Li7 O23 2.026891 1_555
Li8 O1 1.938600 1_455
Li8 O8 2.020510 1_555
Li8 O28 2.098839 1_554
Li8 O16 2.249910 1_555
Li9 O0 1.937846 1_555
Li9 O9 2.020852 1_555
Li9 O29 2.097820 1_555
Li9 O17 2.250006 1_555
Li10 O3 1.937752 1_555
Li10 O10 2.020892 1_556
Li10 O30 2.099357 1_555
Li10 O18 2.248873 1_555
Li11 O2 1.938713 1_555
Li11 O11 2.020265 1_555
Li11 O31 2.098678 1_655
Li11 O19 2.249348 1_555
Li12 O5 1.937797 1_555
Li12 O12 2.020699 1_554
Li12 O24 2.099537 1_555
Li12 O20 2.248577 1_555
Li13 O4 1.938548 1_555
Li13 O13 2.020409 1_555
Li13 O25 2.097794 1_455
Li13 O21 2.250515 1_555
Li14 O7 1.938257 1_655
Li14 O14 2.020536 1_555
Li14 O26 2.099472 1_556
Li14 O22 2.249129 1_555
Li15 O6 1.938870 1_555
Li15 O15 2.020234 1_555
Li15 O27 2.098827 1_555
Li15 O23 2.249305 1_555
Fe0 O4 2.146709 1_555
Fe0 O2 2.148692 1_545
Fe0 O17 2.153309 1_555
Fe0 O23 2.155718 1_545
Fe0 O24 2.291486 1_555
Fe0 O30 2.292787 1_545
Fe1 O1 2.146867 1_555
Fe1 O6 2.148296 1_555
Fe1 O19 2.153944 1_555
Fe1 O20 2.155006 1_555
Fe1 O26 2.291024 1_555
Fe1 O29 2.293318 1_555
Fe2 O3 2.147990 1_554
Fe2 O5 2.148597 1_465
Fe2 O16 2.153231 1_565
Fe2 O22 2.154820 1_454
Fe2 O31 2.289493 1_555
Fe2 O25 2.293965 1_464
Fe3 O0 2.147434 1_555
Fe3 O7 2.148746 1_555
Fe3 O21 2.153030 1_555
Fe3 O18 2.155220 1_555
Fe3 O27 2.291649 1_555
Fe3 O28 2.291953 1_555
O0 P0 1.561050 1_555
O1 P1 1.561350 1_554
O2 P2 1.561145 1_555
O3 P3 1.561125 1_555
O4 P4 1.561330 1_555
O5 P5 1.560870 1_555
O6 P6 1.561197 1_555
O7 P7 1.560954 1_556
O8 P0 1.549227 1_555
O9 P1 1.549269 1_555
O10 P2 1.549357 1_555
O11 P3 1.549371 1_655
O12 P4 1.549204 1_555
O13 P5 1.549334 1_455
O14 P6 1.549406 1_555
O15 P7 1.549309 1_555
O16 P4 1.564309 1_554
O17 P5 1.564262 1_555
O18 P6 1.564261 1_555
O19 P7 1.564335 1_655
O20 P0 1.564178 1_555
O21 P1 1.564221 1_455
O22 P2 1.564312 1_556
O23 P3 1.564195 1_555
O24 P2 1.564910 1_545
O25 P3 1.565076 1_645
O26 P1 1.564800 1_554
O27 P0 1.565170 1_555
O28 P7 1.565013 1_556
O29 P6 1.564868 1_555
O30 P4 1.564701 1_565
O31 P5 1.565264 1_465
