# generated using pymatgen
data_HfMg14NbO16
_symmetry_space_group_name_H-M   'P 1'
_cell_length_a   8.73474633
_cell_length_b   8.66788527
_cell_length_c   4.32134561
_cell_angle_alpha   90.00000000
_cell_angle_beta   90.00000000
_cell_angle_gamma   90.00000000
_symmetry_Int_Tables_number   1
_chemical_formula_structural   HfMg14NbO16
_chemical_formula_sum   'Hf1 Mg14 Nb1 O16'
_cell_volume   327.17676403
_cell_formula_units_Z   1
loop_
 _symmetry_equiv_pos_site_id
 _symmetry_equiv_pos_as_xyz
  1  'x, y, z'
loop_
 _atom_site_type_symbol
 _atom_site_label
 _atom_site_symmetry_multiplicity
 _atom_site_fract_x
 _atom_site_fract_y
 _atom_site_fract_z
 _atom_site_occupancy
  Hf  Hf0  1  -0.00000000  0.50000000  0.00000000  1
  Mg  Mg0  1  0.50000000  -0.00000000  0.00000000  1
  Mg  Mg1  1  0.50000000  0.50000000  0.00000000  1
  Mg  Mg2  1  -0.00000000  0.24082603  0.50000000  1
  Mg  Mg3  1  -0.00000000  0.75917397  0.50000000  1
  Mg  Mg4  1  0.50000000  0.24842438  0.50000000  1
  Mg  Mg5  1  0.50000000  0.75157562  0.50000000  1
  Mg  Mg6  1  0.25453082  -0.00000000  0.50000000  1
  Mg  Mg7  1  0.25972084  0.50000000  0.50000000  1
  Mg  Mg8  1  0.74546918  -0.00000000  0.50000000  1
  Mg  Mg9  1  0.74027916  0.50000000  0.50000000  1
  Mg  Mg10  1  0.25499339  0.24228721  -0.00000000  1
  Mg  Mg11  1  0.25499339  0.75771279  0.00000000  1
  Mg  Mg12  1  0.74500661  0.24228721  -0.00000000  1
  Mg  Mg13  1  0.74500661  0.75771279  0.00000000  1
  Nb  Nb0  1  -0.00000000  -0.00000000  0.00000000  1
  O  O0  1  0.26989741  -0.00000000  0.00000000  1
  O  O1  1  0.25419984  0.50000000  0.00000000  1
  O  O2  1  0.73010259  -0.00000000  -0.00000000  1
  O  O3  1  0.74580016  0.50000000  -0.00000000  1
  O  O4  1  0.24930202  0.25125151  0.50000000  1
  O  O5  1  0.24930202  0.74874849  0.50000000  1
  O  O6  1  0.75069798  0.25125151  0.50000000  1
  O  O7  1  0.75069798  0.74874849  0.50000000  1
  O  O8  1  -0.00000000  -0.00000000  0.50000000  1
  O  O9  1  -0.00000000  0.50000000  0.50000000  1
  O  O10  1  0.50000000  -0.00000000  0.50000000  1
  O  O11  1  0.50000000  0.50000000  0.50000000  1
  O  O12  1  -0.00000000  0.26204581  0.00000000  1
  O  O13  1  -0.00000000  0.73795419  -0.00000000  1
  O  O14  1  0.50000000  0.25367755  0.00000000  1
  O  O15  1  0.50000000  0.74632245  -0.00000000  1
loop_
_geom_bond_atom_site_label_1
_geom_bond_atom_site_label_2
_geom_bond_distance
_geom_bond_site_symmetry_2
Hf0 O13 2.062560 1_555
Hf0 O12 2.062560 1_555
Hf0 O9 2.160673 1_554
Hf0 O9 2.160673 1_555
Hf0 O3 2.220371 1_455
Hf0 O1 2.220371 1_555
Mg0 O0 2.009888 1_555
Mg0 O2 2.009888 1_555
Mg0 O10 2.160673 1_555
Mg0 O10 2.160673 1_554
Mg0 O14 2.198848 1_555
Mg0 O15 2.198848 1_545
Mg1 O15 2.135095 1_555
Mg1 O14 2.135095 1_555
Mg1 O1 2.147002 1_555
Mg1 O3 2.147002 1_555
Mg1 O11 2.160673 1_554
Mg1 O11 2.160673 1_555
Mg2 O8 2.087452 1_555
Mg2 O12 2.168487 1_556
Mg2 O12 2.168487 1_555
Mg2 O4 2.179464 1_555
Mg2 O6 2.179464 1_455
Mg2 O9 2.246490 1_555
Mg3 O8 2.087452 1_565
Mg3 O13 2.168487 1_555
Mg3 O13 2.168487 1_556
Mg3 O7 2.179464 1_455
Mg3 O5 2.179464 1_555
Mg3 O9 2.246490 1_555
Mg4 O10 2.153314 1_555
Mg4 O14 2.161153 1_555
Mg4 O14 2.161153 1_556
Mg4 O11 2.180629 1_555
Mg4 O6 2.189920 1_555
Mg4 O4 2.189920 1_555
Mg5 O10 2.153314 1_565
Mg5 O15 2.161153 1_556
Mg5 O15 2.161153 1_555
Mg5 O11 2.180629 1_555
Mg5 O5 2.189920 1_555
Mg5 O7 2.189920 1_555
Mg6 O10 2.144111 1_555
Mg6 O0 2.164838 1_555
Mg6 O0 2.164838 1_556
Mg6 O5 2.178298 1_545
Mg6 O4 2.178298 1_555
Mg6 O8 2.223262 1_555
Mg7 O11 2.098778 1_555
Mg7 O4 2.158043 1_555
Mg7 O5 2.158043 1_555
Mg7 O1 2.161211 1_555
Mg7 O1 2.161211 1_556
Mg7 O9 2.268596 1_555
Mg8 O10 2.144111 1_555
Mg8 O2 2.164838 1_556
Mg8 O2 2.164838 1_555
Mg8 O6 2.178298 1_555
Mg8 O7 2.178298 1_545
Mg8 O8 2.223262 1_655
Mg9 O11 2.098778 1_555
Mg9 O7 2.158043 1_555
Mg9 O6 2.158043 1_555
Mg9 O3 2.161211 1_556
Mg9 O3 2.161211 1_555
Mg9 O9 2.268596 1_655
Mg10 O0 2.104149 1_555
Mg10 O14 2.142347 1_555
Mg10 O4 2.162641 1_554
Mg10 O4 2.162641 1_555
Mg10 O1 2.233836 1_555
Mg10 O12 2.233877 1_555
Mg11 O0 2.104149 1_565
Mg11 O15 2.142347 1_555
Mg11 O5 2.162641 1_554
Mg11 O5 2.162641 1_555
Mg11 O1 2.233836 1_555
Mg11 O13 2.233877 1_555
Mg12 O2 2.104149 1_555
Mg12 O14 2.142347 1_555
Mg12 O6 2.162641 1_554
Mg12 O6 2.162641 1_555
Mg12 O3 2.233836 1_555
Mg12 O12 2.233877 1_655
Mg13 O2 2.104149 1_565
Mg13 O15 2.142347 1_555
Mg13 O7 2.162641 1_554
Mg13 O7 2.162641 1_555
Mg13 O3 2.233836 1_555
Mg13 O13 2.233877 1_655
Nb0 O8 2.160673 1_555
Nb0 O8 2.160673 1_554
Nb0 O12 2.271383 1_555
Nb0 O13 2.271383 1_545
Nb0 O0 2.357485 1_555
Nb0 O2 2.357485 1_455
