# generated using pymatgen
data_LiFePH2O5
_symmetry_space_group_name_H-M   'P 1'
_cell_length_a   4.70001463
_cell_length_b   5.72363727
_cell_length_c   8.07206555
_cell_angle_alpha   90.45920200
_cell_angle_beta   89.92518612
_cell_angle_gamma   90.06934603
_symmetry_Int_Tables_number   1
_chemical_formula_structural   LiFePH2O5
_chemical_formula_sum   'Li2 Fe2 P2 H4 O10'
_cell_volume   217.14076392
_cell_formula_units_Z   2
loop_
 _symmetry_equiv_pos_site_id
 _symmetry_equiv_pos_as_xyz
  1  'x, y, z'
loop_
 _atom_site_type_symbol
 _atom_site_label
 _atom_site_symmetry_multiplicity
 _atom_site_fract_x
 _atom_site_fract_y
 _atom_site_fract_z
 _atom_site_occupancy
  Li  Li0  1  0.08862300  0.00231700  0.43875600  1
  Li  Li1  1  0.58873700  0.49824100  0.56116700  1
  Fe  Fe0  1  0.51366000  0.49892700  0.02304700  1
  Fe  Fe1  1  0.01452300  0.00096800  0.97710900  1
  P  P0  1  0.59147800  0.99753100  0.22686300  1
  P  P1  1  0.09107300  0.50247100  0.77314700  1
  H  H0  1  0.57970000  0.13790100  0.78548300  1
  H  H1  1  0.07733100  0.36207300  0.21378500  1
  H  H2  1  0.07016500  0.63341500  0.21164300  1
  H  H3  1  0.56984300  0.86670300  0.78875900  1
  O  O0  1  0.26276400  0.00070200  0.21382700  1
  O  O1  1  0.76234200  0.49873600  0.78628800  1
  O  O2  1  0.68447800  0.00439100  0.40865400  1
  O  O3  1  0.18486200  0.49561800  0.59136800  1
  O  O4  1  0.70209800  0.99915300  0.77625200  1
  O  O5  1  0.20111400  0.50026800  0.22338800  1
  O  O6  1  0.72667500  0.20741900  0.12672700  1
  O  O7  1  0.22566100  0.29322600  0.87364400  1
  O  O8  1  0.21783300  0.72430700  0.86512400  1
  O  O9  1  0.71823700  0.77563300  0.13496600  1
loop_
_geom_bond_atom_site_label_1
_geom_bond_atom_site_label_2
_geom_bond_distance
_geom_bond_site_symmetry_2
Li0 O2 1.915344 1_455
Li0 O0 1.990576 1_555
Li1 O3 1.913549 1_555
Li1 O1 1.992924 1_555
Fe0 O9 2.055391 1_555
Fe0 O6 2.124907 1_555
Fe0 O7 2.156493 1_554
Fe0 O5 2.183296 1_555
Fe0 O1 2.238903 1_554
Fe0 O8 2.292951 1_554
Fe1 O8 2.053334 1_545
Fe1 O7 2.120538 1_555
Fe1 O6 2.159152 1_456
Fe1 O4 2.188821 1_445
Fe1 O0 2.240160 1_556
Fe1 O9 2.289899 1_446
H0 O4 0.983463 1_545
H1 O5 0.983944 1_555
H2 O5 0.985394 1_555
H3 O4 0.985500 1_555
O0 P0 1.548815 1_545
O1 P1 1.548673 1_655
O2 P0 1.531880 1_545
O3 P1 1.531778 1_555
O6 P0 1.585142 1_545
O7 P1 1.584711 1_555
O8 P1 1.581943 1_555
O9 P0 1.582354 1_555
