# generated using pymatgen
data_MgCuP4(RuO7)2
_symmetry_space_group_name_H-M   'P 1'
_cell_length_a   5.05524257
_cell_length_b   6.82896828
_cell_length_c   8.40335812
_cell_angle_alpha   92.10652621
_cell_angle_beta   91.61176864
_cell_angle_gamma   107.65161230
_symmetry_Int_Tables_number   1
_chemical_formula_structural   MgCuP4(RuO7)2
_chemical_formula_sum   'Mg1 Cu1 P4 Ru2 O14'
_cell_volume   276.02105933
_cell_formula_units_Z   1
loop_
 _symmetry_equiv_pos_site_id
 _symmetry_equiv_pos_as_xyz
  1  'x, y, z'
loop_
 _atom_site_type_symbol
 _atom_site_label
 _atom_site_symmetry_multiplicity
 _atom_site_fract_x
 _atom_site_fract_y
 _atom_site_fract_z
 _atom_site_occupancy
  Mg  Mg0  1  0.44631000  0.20898200  0.81880900  1
  Cu  Cu0  1  0.98233300  0.00486200  0.48224200  1
  P  P0  1  0.40923800  0.75570000  0.80855600  1
  P  P1  1  0.61361000  0.25063900  0.19204900  1
  P  P2  1  0.01849500  0.65761900  0.26826500  1
  P  P3  1  0.97745100  0.34864200  0.72951100  1
  Ru  Ru0  1  0.49635500  0.50542400  0.49372300  1
  Ru  Ru1  1  0.99542700  0.99995700  0.00626300  1
  O  O0  1  0.14799500  0.83351100  0.16230400  1
  O  O1  1  0.84059500  0.17899300  0.84350000  1
  O  O2  1  0.49745300  0.75874000  0.63601700  1
  O  O3  1  0.49792600  0.24783500  0.35890400  1
  O  O4  1  0.19901400  0.52192800  0.83659600  1
  O  O5  1  0.79840700  0.48256100  0.15700800  1
  O  O6  1  0.23292200  0.90637900  0.82373300  1
  O  O7  1  0.79214300  0.10621800  0.18276600  1
  O  O8  1  0.22382400  0.55901700  0.33476300  1
  O  O9  1  0.73314000  0.41645500  0.66987700  1
  O  O10  1  0.62899400  0.77343900  0.93854700  1
  O  O11  1  0.38968200  0.22221400  0.05353700  1
  O  O12  1  0.15692500  0.26739800  0.60959800  1
  O  O13  1  0.83842800  0.72496900  0.39812000  1
loop_
_geom_bond_atom_site_label_1
_geom_bond_atom_site_label_2
_geom_bond_distance
_geom_bond_site_symmetry_2
Mg0 O11 2.003805 1_556
Mg0 O6 2.023008 1_545
Mg0 O1 2.070091 1_555
Mg0 O9 2.159340 1_555
Mg0 O12 2.377157 1_555
Cu0 O13 1.926340 1_545
Cu0 O12 1.996205 1_655
O0 P2 1.516165 1_555
O0 Ru1 2.047096 1_455
O1 P3 1.539857 1_555
O1 Ru1 2.149720 1_546
O2 P0 1.527908 1_555
O2 Ru0 2.064967 1_555
O3 P1 1.532868 1_555
O3 Ru0 2.059220 1_555
O4 P3 1.589291 1_455
O4 P0 1.657205 1_555
O5 P2 1.610527 1_655
O5 P1 1.618727 1_555
O6 P0 1.556433 1_555
O6 Ru1 2.167803 1_456
O7 P1 1.526907 1_555
O7 Ru1 2.059475 1_545
O8 P2 1.503990 1_555
O8 Ru0 2.013601 1_555
O9 P3 1.523167 1_555
O9 Ru0 2.097784 1_555
O10 P0 1.510782 1_555
O10 Ru1 2.070335 1_556
O11 P1 1.565232 1_555
O11 Ru1 2.123756 1_445
O12 P3 1.569073 1_455
O12 Ru0 2.247998 1_555
O13 P2 1.582338 1_655
O13 Ru0 2.116119 1_555
