# generated using pymatgen
data_MgFe10(O4F)4
_symmetry_space_group_name_H-M   'P 1'
_cell_length_a   4.85407118
_cell_length_b   12.96875680
_cell_length_c   5.55478410
_cell_angle_alpha   103.35374802
_cell_angle_beta   89.68054104
_cell_angle_gamma   90.37112496
_symmetry_Int_Tables_number   1
_chemical_formula_structural   MgFe10(O4F)4
_chemical_formula_sum   'Mg1 Fe10 O16 F4'
_cell_volume   340.21613482
_cell_formula_units_Z   1
loop_
 _symmetry_equiv_pos_site_id
 _symmetry_equiv_pos_as_xyz
  1  'x, y, z'
loop_
 _atom_site_type_symbol
 _atom_site_label
 _atom_site_symmetry_multiplicity
 _atom_site_fract_x
 _atom_site_fract_y
 _atom_site_fract_z
 _atom_site_occupancy
  Mg  Mg0  1  0.51460478  0.89887570  0.80017858  1
  Fe  Fe0  1  0.50786837  0.01165944  0.44796685  1
  Fe  Fe1  1  0.47245306  0.40881605  0.30495855  1
  Fe  Fe2  1  0.46762556  0.21168347  0.88260752  1
  Fe  Fe3  1  0.51644680  0.60689055  0.70056397  1
  Fe  Fe4  1  0.54419373  0.79018136  0.14550789  1
  Fe  Fe5  1  0.96954255  0.39660020  0.79852307  1
  Fe  Fe6  1  0.01160973  0.79861395  0.62560680  1
  Fe  Fe7  1  0.01550273  0.20284851  0.40457264  1
  Fe  Fe8  1  0.97274002  0.58945308  0.22192203  1
  Fe  Fe9  1  0.03229190  0.00293464  0.01226161  1
  O  O0  1  0.80220707  0.25520774  0.70556291  1
  O  O1  1  0.84686700  0.86268512  0.95419330  1
  O  O2  1  0.81573163  0.66600307  0.52725985  1
  O  O3  1  0.83324853  0.06578335  0.31225555  1
  O  O4  1  0.79394559  0.45390731  0.11866129  1
  O  O5  1  0.67074139  0.46523354  0.62085159  1
  O  O6  1  0.69225540  0.65167046  0.02464483  1
  O  O7  1  0.68044278  0.86773744  0.46147817  1
  O  O8  1  0.29365072  0.34774483  0.98728433  1
  O  O9  1  0.34842759  0.74759535  0.78847759  1
  O  O10  1  0.32038963  0.14239251  0.56870906  1
  O  O11  1  0.35134781  0.93585232  0.14652818  1
  O  O12  1  0.29948049  0.54799675  0.40049492  1
  O  O13  1  0.18310335  0.14488074  0.07533221  1
  O  O14  1  0.17699772  0.94649794  0.67938192  1
  O  O15  1  0.17283731  0.34104111  0.47980546  1
  F  F0  1  0.66853945  0.05233209  0.82329965  1
  F  F1  1  0.67227930  0.26029644  0.21030314  1
  F  F2  1  0.17667734  0.54306307  0.89184710  1
  F  F3  1  0.18984469  0.74185585  0.28372145  1
loop_
_geom_bond_atom_site_label_1
_geom_bond_atom_site_label_2
_geom_bond_distance
_geom_bond_site_symmetry_2
Mg0 O14 1.932365 1_555
Mg0 O1 1.940122 1_555
Mg0 O7 1.996784 1_555
Mg0 O11 2.030047 1_556
Mg0 O9 2.103613 1_555
Fe0 O11 1.895146 1_545
Fe0 O10 1.907995 1_555
Fe0 O3 1.942247 1_555
Fe0 O7 2.068043 1_545
Fe0 O14 2.325335 1_545
Fe1 O12 1.953666 1_555
Fe1 O8 1.963929 1_554
Fe1 O5 1.989333 1_555
Fe1 O4 2.024321 1_555
Fe1 O15 2.047691 1_555
Fe2 O10 1.907977 1_555
Fe2 O8 1.924776 1_555
Fe2 O0 2.037192 1_555
Fe2 O13 2.049504 1_556
Fe3 O5 1.941742 1_555
Fe3 O6 1.958070 1_556
Fe3 O9 1.958731 1_555
Fe3 O12 1.972789 1_555
Fe3 O2 1.983882 1_555
Fe4 O6 1.910047 1_555
Fe4 O7 1.928331 1_555
Fe4 O11 2.112620 1_555
Fe4 O1 2.144365 1_554
Fe4 O9 2.156263 1_554
Fe5 O4 1.954999 1_556
Fe5 O0 1.958776 1_555
Fe5 O15 2.006933 1_655
Fe5 O5 2.075672 1_555
Fe5 O8 2.077049 1_655
Fe6 O2 1.926344 1_455
Fe6 O1 1.988248 1_455
Fe6 O14 2.032253 1_555
Fe6 O9 2.058232 1_555
Fe6 O7 2.152076 1_455
Fe7 O15 1.899920 1_555
Fe7 O3 1.941385 1_455
Fe7 O0 1.947766 1_455
Fe7 O13 1.981913 1_555
Fe7 O10 1.999126 1_555
Fe8 O2 1.913299 1_555
Fe8 O4 1.921543 1_555
Fe8 O12 2.015784 1_655
Fe8 O6 2.035896 1_555
Fe9 O13 1.932591 1_555
Fe9 O3 1.933795 1_455
Fe9 O14 1.953249 1_544
Fe9 O1 1.983291 1_444
Fe9 O11 2.010396 1_545
F0 Mg0 2.097429 1_545
F0 Fe0 2.176712 1_555
F0 Fe9 2.230629 1_656
F0 Fe2 2.244655 1_555
F1 Fe2 2.044427 1_554
F1 Fe1 2.116111 1_555
F1 Fe7 2.214214 1_655
F2 Fe8 2.044883 1_456
F2 Fe5 2.100897 1_455
F2 Fe3 2.214340 1_555
F3 Fe4 2.033300 1_555
F3 Fe6 2.059396 1_555
F3 Fe8 2.190552 1_455
