# generated using pymatgen
data_Eu3Pd2
_symmetry_space_group_name_H-M   'P 1'
_cell_length_a   7.82315942
_cell_length_b   7.82313956
_cell_length_c   7.82309398
_cell_angle_alpha   71.56246473
_cell_angle_beta   71.56151988
_cell_angle_gamma   71.56088198
_symmetry_Int_Tables_number   1
_chemical_formula_structural   Eu3Pd2
_chemical_formula_sum   'Eu9 Pd6'
_cell_volume   418.26641070
_cell_formula_units_Z   3
loop_
 _symmetry_equiv_pos_site_id
 _symmetry_equiv_pos_as_xyz
  1  'x, y, z'
loop_
 _atom_site_type_symbol
 _atom_site_label
 _atom_site_symmetry_multiplicity
 _atom_site_fract_x
 _atom_site_fract_y
 _atom_site_fract_z
 _atom_site_occupancy
  Eu  Eu0  1  0.49999888  0.49999818  0.49999911  1
  Eu  Eu1  1  0.70348767  0.70348594  0.70348061  1
  Eu  Eu2  1  0.29651015  0.29651357  0.29651703  1
  Eu  Eu3  1  0.16432305  0.89403623  0.66088215  1
  Eu  Eu4  1  0.89403523  0.66085873  0.16433786  1
  Eu  Eu5  1  0.66086599  0.16433246  0.89402510  1
  Eu  Eu6  1  0.83568616  0.10596323  0.33911316  1
  Eu  Eu7  1  0.10596788  0.33913521  0.83566690  1
  Eu  Eu8  1  0.33913264  0.83567283  0.10597466  1
  Pd  Pd0  1  0.54241371  0.91188181  0.34807620  1
  Pd  Pd1  1  0.91186673  0.34805370  0.54241864  1
  Pd  Pd2  1  0.34806448  0.54243329  0.91188784  1
  Pd  Pd3  1  0.45757382  0.08813524  0.65191982  1
  Pd  Pd4  1  0.08814443  0.65193008  0.45757372  1
  Pd  Pd5  1  0.65192818  0.45756551  0.08812621  1
loop_
_geom_bond_atom_site_label_1
_geom_bond_atom_site_label_2
_geom_bond_distance
_geom_bond_site_symmetry_2
Eu0 Pd4 3.147781 1_555
Eu0 Pd1 3.147867 1_555
Eu0 Pd3 3.147867 1_555
Eu0 Pd5 3.147913 1_555
Eu0 Pd0 3.147995 1_555
Eu0 Pd2 3.148036 1_555
Eu1 Pd3 2.996636 1_565
Eu1 Pd5 2.996665 1_556
Eu1 Pd4 2.996666 1_655
Eu1 Pd0 3.166331 1_555
Eu1 Pd2 3.166402 1_555
Eu1 Pd1 3.166412 1_555
Eu2 Pd0 2.996503 1_545
Eu2 Pd2 2.996565 1_554
Eu2 Pd1 2.996569 1_455
Eu2 Pd3 3.166264 1_555
Eu2 Pd4 3.166276 1_555
Eu2 Pd5 3.166351 1_555
Eu3 Pd2 3.058744 1_555
Eu3 Pd3 3.099735 1_565
Eu3 Pd4 3.113094 1_555
Eu3 Pd0 3.197378 1_555
Eu3 Pd1 3.466008 1_465
Eu4 Pd0 3.058841 1_555
Eu4 Pd4 3.099759 1_655
Eu4 Pd5 3.113175 1_555
Eu4 Pd1 3.197331 1_555
Eu4 Pd2 3.466016 1_654
Eu5 Pd1 3.058693 1_555
Eu5 Pd5 3.099652 1_556
Eu5 Pd3 3.113080 1_555
Eu5 Pd2 3.197405 1_555
Eu5 Pd0 3.466210 1_546
Eu6 Pd5 3.058718 1_555
Eu6 Pd0 3.099785 1_545
Eu6 Pd1 3.112983 1_555
Eu6 Pd3 3.197485 1_555
Eu6 Pd4 3.466104 1_645
Eu7 Pd3 3.058710 1_555
Eu7 Pd1 3.099829 1_455
Eu7 Pd2 3.113176 1_555
Eu7 Pd4 3.197356 1_555
Eu7 Pd5 3.466107 1_456
Eu8 Pd4 3.058677 1_555
Eu8 Pd2 3.099634 1_554
Eu8 Pd0 3.113039 1_555
Eu8 Pd5 3.197408 1_555
Eu8 Pd3 3.466252 1_564
Pd0 Pd3 2.913442 1_565
Pd1 Pd4 2.913846 1_655
Pd2 Pd5 2.913498 1_556
