# generated using pymatgen
data_InC
_symmetry_space_group_name_H-M   'P 1'
_cell_length_a   3.63526042
_cell_length_b   3.63526042
_cell_length_c   6.06141800
_cell_angle_alpha   90.00000000
_cell_angle_beta   90.00000000
_cell_angle_gamma   120.00000773
_symmetry_Int_Tables_number   1
_chemical_formula_structural   InC
_chemical_formula_sum   'In2 C2'
_cell_volume   69.37067004
_cell_formula_units_Z   2
loop_
 _symmetry_equiv_pos_site_id
 _symmetry_equiv_pos_as_xyz
  1  'x, y, z'
loop_
 _atom_site_type_symbol
 _atom_site_label
 _atom_site_symmetry_multiplicity
 _atom_site_fract_x
 _atom_site_fract_y
 _atom_site_fract_z
 _atom_site_occupancy
  In  In0  1  0.66666700  0.33333300  0.87136000  1
  In  In1  1  0.33333300  0.66666700  0.37136000  1
  C  C0  1  0.66666700  0.33333300  0.50364000  1
  C  C1  1  0.33333300  0.66666700  0.00364000  1
loop_
_geom_bond_atom_site_label_1
_geom_bond_atom_site_label_2
_geom_bond_distance
_geom_bond_site_symmetry_2
C0 In0 2.228905 1_555
C0 In1 2.246758 1_545
C0 In1 2.246758 1_655
C0 In1 2.246764 1_555
C1 In1 2.228905 1_555
C1 In0 2.246758 1_454
C1 In0 2.246758 1_564
C1 In0 2.246764 1_554
