# generated using pymatgen
data_Ti2Cu
_symmetry_space_group_name_H-M   'P 1'
_cell_length_a   8.09881782
_cell_length_b   8.09881782
_cell_length_c   8.09881782
_cell_angle_alpha   60.00000000
_cell_angle_beta   60.00000000
_cell_angle_gamma   60.00000000
_symmetry_Int_Tables_number   1
_chemical_formula_structural   Ti2Cu
_chemical_formula_sum   'Ti16 Cu8'
_cell_volume   375.62102328
_cell_formula_units_Z   8
loop_
 _symmetry_equiv_pos_site_id
 _symmetry_equiv_pos_as_xyz
  1  'x, y, z'
loop_
 _atom_site_type_symbol
 _atom_site_label
 _atom_site_symmetry_multiplicity
 _atom_site_fract_x
 _atom_site_fract_y
 _atom_site_fract_z
 _atom_site_occupancy
  Ti  Ti0  1  0.12500000  0.62500000  0.62500000  1
  Ti  Ti1  1  0.62500000  0.12500000  0.62500000  1
  Ti  Ti2  1  0.62500000  0.62500000  0.12500000  1
  Ti  Ti3  1  0.62500000  0.62500000  0.62500000  1
  Ti  Ti4  1  0.81634600  0.81634600  0.18365400  1
  Ti  Ti5  1  0.18365400  0.18365400  0.81634600  1
  Ti  Ti6  1  0.81634600  0.18365400  0.81634600  1
  Ti  Ti7  1  0.18365400  0.81634600  0.18365400  1
  Ti  Ti8  1  0.18365400  0.81634600  0.81634600  1
  Ti  Ti9  1  0.81634600  0.18365400  0.18365400  1
  Ti  Ti10  1  0.43365400  0.43365400  0.06634600  1
  Ti  Ti11  1  0.06634600  0.06634600  0.43365400  1
  Ti  Ti12  1  0.43365400  0.06634600  0.43365400  1
  Ti  Ti13  1  0.06634600  0.43365400  0.06634600  1
  Ti  Ti14  1  0.06634600  0.43365400  0.43365400  1
  Ti  Ti15  1  0.43365400  0.06634600  0.06634600  1
  Cu  Cu0  1  0.75730200  0.41423300  0.41423300  1
  Cu  Cu1  1  0.41423300  0.75730200  0.41423300  1
  Cu  Cu2  1  0.41423300  0.41423300  0.75730200  1
  Cu  Cu3  1  0.41423300  0.41423300  0.41423300  1
  Cu  Cu4  1  0.49269800  0.83576700  0.83576700  1
  Cu  Cu5  1  0.83576700  0.49269800  0.83576700  1
  Cu  Cu6  1  0.83576700  0.83576700  0.49269800  1
  Cu  Cu7  1  0.83576700  0.83576700  0.83576700  1
loop_
_geom_bond_atom_site_label_1
_geom_bond_atom_site_label_2
_geom_bond_distance
_geom_bond_site_symmetry_2
Ti0 Ti8 2.983693 1_555
Ti0 Ti14 2.983693 1_555
Ti0 Ti11 2.983693 1_565
Ti0 Ti13 2.983693 1_556
Ti0 Ti5 2.983693 1_555
Ti0 Ti7 2.983693 1_555
Ti1 Ti6 2.983693 1_555
Ti1 Ti15 2.983693 1_556
Ti1 Ti11 2.983693 1_655
Ti1 Ti12 2.983693 1_555
Ti1 Ti9 2.983693 1_555
Ti1 Ti5 2.983693 1_555
Ti2 Ti4 2.983693 1_555
Ti2 Ti9 2.983693 1_555
Ti2 Ti7 2.983693 1_555
Ti3 Ti8 2.983693 1_555
Ti3 Ti6 2.983693 1_555
Ti3 Ti4 2.983693 1_555
Ti4 Ti8 2.974761 1_654
Ti4 Ti6 2.974761 1_564
Ti4 Ti7 2.974761 1_655
Ti4 Ti9 2.974761 1_565
Ti5 Ti7 2.974761 1_546
Ti5 Ti9 2.974761 1_456
Ti5 Ti8 2.974761 1_545
Ti5 Ti6 2.974761 1_455
Ti6 Ti8 2.974761 1_645
Ti6 Ti9 2.974761 1_556
Ti7 Ti9 2.974761 1_465
Ti7 Ti8 2.974761 1_554
Ti10 Ti12 2.974761 1_555
Ti10 Ti14 2.974761 1_555
Ti10 Ti15 2.974761 1_555
Ti10 Ti13 2.974761 1_555
Ti10 Ti3 2.983693 1_554
Ti10 Ti2 2.983693 1_555
Ti10 Ti7 3.058386 1_555
Ti10 Ti9 3.058386 1_555
Ti10 Ti6 3.058386 1_554
Ti10 Ti8 3.058386 1_554
Ti11 Ti12 2.974761 1_555
Ti11 Ti14 2.974761 1_555
Ti11 Ti15 2.974761 1_555
Ti11 Ti13 2.974761 1_555
Ti11 Ti8 3.058386 1_545
Ti11 Ti6 3.058386 1_455
Ti11 Ti7 3.058386 1_545
Ti11 Ti9 3.058386 1_455
Ti12 Ti14 2.974761 1_555
Ti12 Ti15 2.974761 1_555
Ti12 Ti3 2.983693 1_545
Ti12 Ti5 3.058386 1_555
Ti12 Ti9 3.058386 1_555
Ti12 Ti4 3.058386 1_545
Ti12 Ti8 3.058386 1_545
Ti13 Ti14 2.974761 1_555
Ti13 Ti15 2.974761 1_555
Ti13 Ti2 2.983693 1_455
Ti13 Ti4 3.058386 1_455
Ti13 Ti8 3.058386 1_554
Ti13 Ti5 3.058386 1_554
Ti13 Ti9 3.058386 1_455
Ti14 Ti3 2.983693 1_455
Ti14 Ti7 3.058386 1_555
Ti14 Ti5 3.058386 1_555
Ti14 Ti4 3.058386 1_455
Ti14 Ti6 3.058386 1_455
Ti15 Ti2 2.983693 1_545
Ti15 Ti6 3.058386 1_554
Ti15 Ti4 3.058386 1_545
Ti15 Ti5 3.058386 1_554
Ti15 Ti7 3.058386 1_545
Cu0 Ti3 2.496252 1_555
Cu0 Ti1 2.496259 1_555
Cu0 Ti2 2.496259 1_555
Cu0 Ti14 2.669462 1_655
Cu0 Ti13 2.669466 1_655
Cu0 Ti11 2.669466 1_655
Cu0 Cu1 2.778453 1_555
Cu0 Cu2 2.778453 1_555
Cu0 Cu3 2.778453 1_555
Cu0 Ti6 2.984027 1_555
Cu0 Ti4 2.984027 1_555
Cu0 Ti9 2.984034 1_555
Cu1 Ti3 2.496252 1_555
Cu1 Ti2 2.496259 1_555
Cu1 Ti0 2.496259 1_555
Cu1 Ti12 2.669462 1_565
Cu1 Ti11 2.669466 1_565
Cu1 Ti15 2.669466 1_565
Cu1 Cu2 2.778453 1_555
Cu1 Cu3 2.778453 1_555
Cu1 Ti4 2.984027 1_555
Cu1 Ti8 2.984027 1_555
Cu1 Ti7 2.984034 1_555
Cu2 Ti3 2.496252 1_555
Cu2 Ti0 2.496259 1_555
Cu2 Ti1 2.496259 1_555
Cu2 Ti10 2.669462 1_556
Cu2 Ti15 2.669466 1_556
Cu2 Ti13 2.669466 1_556
Cu2 Cu3 2.778453 1_555
Cu2 Ti6 2.984027 1_555
Cu2 Ti8 2.984027 1_555
Cu2 Ti5 2.984034 1_555
Cu3 Ti2 2.496254 1_555
Cu3 Ti1 2.496254 1_555
Cu3 Ti0 2.496254 1_555
Cu3 Ti14 2.669470 1_555
Cu3 Ti12 2.669470 1_555
Cu3 Ti10 2.669470 1_555
Cu3 Ti5 2.984030 1_555
Cu3 Ti7 2.984030 1_555
Cu3 Ti9 2.984030 1_555
Cu4 Ti3 2.496252 1_555
Cu4 Ti2 2.496259 1_556
Cu4 Ti1 2.496259 1_565
Cu4 Ti8 2.669462 1_555
Cu4 Ti7 2.669466 1_556
Cu4 Ti5 2.669466 1_565
Cu4 Cu6 2.778453 1_555
Cu4 Cu7 2.778453 1_555
Cu4 Cu5 2.778453 1_555
Cu4 Ti10 2.984027 1_556
Cu4 Ti12 2.984027 1_565
Cu4 Ti15 2.984034 1_566
Cu5 Ti3 2.496252 1_555
Cu5 Ti2 2.496259 1_556
Cu5 Ti0 2.496259 1_655
Cu5 Ti6 2.669462 1_555
Cu5 Ti5 2.669466 1_655
Cu5 Ti9 2.669466 1_556
Cu5 Cu6 2.778453 1_555
Cu5 Cu7 2.778453 1_555
Cu5 Ti10 2.984027 1_556
Cu5 Ti14 2.984027 1_655
Cu5 Ti13 2.984034 1_656
Cu6 Ti3 2.496252 1_555
Cu6 Ti1 2.496259 1_565
Cu6 Ti0 2.496259 1_655
Cu6 Ti4 2.669462 1_555
Cu6 Ti9 2.669466 1_565
Cu6 Ti7 2.669466 1_655
Cu6 Cu7 2.778453 1_555
Cu6 Ti14 2.984027 1_655
Cu6 Ti12 2.984027 1_565
Cu6 Ti11 2.984034 1_665
Cu7 Ti0 2.496254 1_655
Cu7 Ti1 2.496254 1_565
Cu7 Ti2 2.496254 1_556
Cu7 Ti8 2.669470 1_655
Cu7 Ti4 2.669470 1_556
Cu7 Ti6 2.669470 1_565
Cu7 Ti11 2.984030 1_665
Cu7 Ti13 2.984030 1_656
Cu7 Ti15 2.984030 1_566
