# generated using pymatgen
data_SrP2(HO4)2
_symmetry_space_group_name_H-M   'P 1'
_cell_length_a   6.87011200
_cell_length_b   7.11541395
_cell_length_c   7.93770458
_cell_angle_alpha   103.06966828
_cell_angle_beta   98.03734414
_cell_angle_gamma   109.12409361
_symmetry_Int_Tables_number   1
_chemical_formula_structural   SrP2(HO4)2
_chemical_formula_sum   'Sr2 P4 H4 O16'
_cell_volume   347.33369335
_cell_formula_units_Z   2
loop_
 _symmetry_equiv_pos_site_id
 _symmetry_equiv_pos_as_xyz
  1  'x, y, z'
loop_
 _atom_site_type_symbol
 _atom_site_label
 _atom_site_symmetry_multiplicity
 _atom_site_fract_x
 _atom_site_fract_y
 _atom_site_fract_z
 _atom_site_occupancy
  Sr  Sr0  1  0.76660000  0.78282900  0.09721600  1
  Sr  Sr1  1  0.23340000  0.21717100  0.90278400  1
  P  P0  1  0.78592800  0.70048000  0.57966100  1
  P  P1  1  0.21407200  0.29952000  0.42033900  1
  P  P2  1  0.73323900  0.22137000  0.90937200  1
  P  P3  1  0.26676100  0.77863000  0.09062800  1
  H  H0  1  0.86343600  0.38565600  0.70643500  1
  H  H1  1  0.13656400  0.61434400  0.29356500  1
  H  H2  1  0.53139200  0.90408000  0.73929800  1
  H  H3  1  0.46860800  0.09592000  0.26070200  1
  O  O0  1  0.65514300  0.38625600  0.99660900  1
  O  O1  1  0.34485700  0.61374400  0.00339100  1
  O  O2  1  0.89015100  0.30012800  0.78833400  1
  O  O3  1  0.10984900  0.69987200  0.21166600  1
  O  O4  1  0.65005800  0.71857300  0.71770800  1
  O  O5  1  0.34994200  0.28142700  0.28229200  1
  O  O6  1  0.85223100  0.51340600  0.58127100  1
  O  O7  1  0.14776900  0.48659400  0.41872900  1
  O  O8  1  0.85772900  0.13269200  0.02111900  1
  O  O9  1  0.14227100  0.86730800  0.97888100  1
  O  O10  1  0.98081000  0.90498800  0.63288100  1
  O  O11  1  0.01919000  0.09501200  0.36711900  1
  O  O12  1  0.67420300  0.67118900  0.38802800  1
  O  O13  1  0.32579700  0.32881100  0.61197200  1
  O  O14  1  0.51692200  0.04049800  0.78497000  1
  O  O15  1  0.48307800  0.95950200  0.21503000  1
loop_
_geom_bond_atom_site_label_1
_geom_bond_atom_site_label_2
_geom_bond_distance
_geom_bond_site_symmetry_2
H0 O2 1.022451 1_555
H0 O6 1.500725 1_555
H1 O3 1.022451 1_555
H1 O7 1.500725 1_555
H2 O14 0.998831 1_565
H3 O15 0.998831 1_545
O0 P2 1.514182 1_555
O0 Sr0 2.565268 1_556
O0 Sr1 2.665416 1_555
O1 P3 1.514182 1_555
O1 Sr1 2.565268 1_554
O1 Sr0 2.665416 1_555
O2 P2 1.592639 1_555
O2 Sr1 2.700031 1_655
O3 P3 1.592639 1_555
O3 Sr0 2.700031 1_455
O4 P0 1.545825 1_555
O4 Sr0 2.896126 1_556
O5 P1 1.545825 1_555
O5 Sr1 2.896126 1_554
O6 P0 1.543650 1_555
O7 P1 1.543650 1_555
O8 P2 1.520194 1_554
O8 Sr0 2.592037 1_545
O8 Sr1 2.796683 1_654
O9 P3 1.520194 1_556
O9 Sr1 2.592037 1_565
O9 Sr0 2.796683 1_456
O10 P0 1.541349 1_555
O10 Sr1 2.611093 1_665
O11 P1 1.541349 1_555
O11 Sr0 2.611093 1_445
O12 P0 1.540039 1_555
O12 Sr0 2.696528 1_555
O13 P1 1.540039 1_555
O13 Sr1 2.696528 1_555
O14 P2 1.612957 1_555
O14 Sr1 2.798388 1_555
O15 P3 1.612957 1_555
O15 Sr0 2.798388 1_555
