# generated using pymatgen
data_Gd2Mg2O5
_symmetry_space_group_name_H-M   'P 1'
_cell_length_a   3.89952900
_cell_length_b   3.89952900
_cell_length_c   7.30356700
_cell_angle_alpha   90.00000000
_cell_angle_beta   90.00000000
_cell_angle_gamma   90.00000000
_symmetry_Int_Tables_number   1
_chemical_formula_structural   Gd2Mg2O5
_chemical_formula_sum   'Gd2 Mg2 O5'
_cell_volume   111.06042385
_cell_formula_units_Z   1
loop_
 _symmetry_equiv_pos_site_id
 _symmetry_equiv_pos_as_xyz
  1  'x, y, z'
loop_
 _atom_site_type_symbol
 _atom_site_label
 _atom_site_symmetry_multiplicity
 _atom_site_fract_x
 _atom_site_fract_y
 _atom_site_fract_z
 _atom_site_occupancy
  Gd  Gd0  1  0.00000000  0.00000000  0.00000000  1
  Gd  Gd1  1  0.00000000  0.00000000  0.50000000  1
  Mg  Mg0  1  0.50000000  0.50000000  0.23988400  1
  Mg  Mg1  1  0.50000000  0.50000000  0.76011600  1
  O  O0  1  0.50000000  0.00000000  0.20116400  1
  O  O1  1  0.50000000  0.00000000  0.79883600  1
  O  O2  1  0.00000000  0.50000000  0.20116400  1
  O  O3  1  0.00000000  0.50000000  0.79883600  1
  O  O4  1  0.50000000  0.50000000  0.50000000  1
loop_
_geom_bond_atom_site_label_1
_geom_bond_atom_site_label_2
_geom_bond_distance
_geom_bond_site_symmetry_2
Gd0 O0 2.441347 1_555
Gd0 O0 2.441347 1_455
Gd0 O2 2.441347 1_555
Gd0 O2 2.441347 1_545
Gd0 O1 2.441347 1_454
Gd0 O3 2.441347 1_554
Gd0 O3 2.441347 1_544
Gd0 O1 2.441347 1_554
Gd1 O4 2.757383 1_455
Gd1 O4 2.757383 1_555
Gd1 O4 2.757383 1_445
Gd1 O4 2.757383 1_545
Gd1 O3 2.926634 1_555
Gd1 O1 2.926634 1_455
Gd1 O1 2.926634 1_555
Gd1 O3 2.926634 1_545
Gd1 O2 2.926634 1_555
Gd1 O0 2.926634 1_555
Gd1 O2 2.926634 1_545
Gd1 O0 2.926634 1_455
Mg0 O4 1.899775 1_555
Mg0 O0 1.970166 1_565
Mg0 O2 1.970166 1_655
Mg0 O0 1.970166 1_555
Mg0 O2 1.970166 1_555
Mg1 O4 1.899775 1_555
Mg1 O3 1.970166 1_555
Mg1 O1 1.970166 1_555
Mg1 O3 1.970166 1_655
Mg1 O1 1.970166 1_565
