# generated using pymatgen
data_CeFeB4
_symmetry_space_group_name_H-M   'P 1'
_cell_length_a   3.46570200
_cell_length_b   5.94576000
_cell_length_c   11.52350900
_cell_angle_alpha   90.00000000
_cell_angle_beta   90.00000000
_cell_angle_gamma   90.00000000
_symmetry_Int_Tables_number   1
_chemical_formula_structural   CeFeB4
_chemical_formula_sum   'Ce4 Fe4 B16'
_cell_volume   237.45610364
_cell_formula_units_Z   4
loop_
 _symmetry_equiv_pos_site_id
 _symmetry_equiv_pos_as_xyz
  1  'x, y, z'
loop_
 _atom_site_type_symbol
 _atom_site_label
 _atom_site_symmetry_multiplicity
 _atom_site_fract_x
 _atom_site_fract_y
 _atom_site_fract_z
 _atom_site_occupancy
  Ce  Ce0  1  0.50000000  0.37337600  0.14983200  1
  Ce  Ce1  1  0.50000000  0.62662400  0.85016800  1
  Ce  Ce2  1  0.50000000  0.12662400  0.64983200  1
  Ce  Ce3  1  0.50000000  0.87337600  0.35016800  1
  Fe  Fe0  1  0.50000000  0.36604400  0.41037300  1
  Fe  Fe1  1  0.50000000  0.63395600  0.58962700  1
  Fe  Fe2  1  0.50000000  0.13395600  0.91037300  1
  Fe  Fe3  1  0.50000000  0.86604400  0.08962700  1
  B  B0  1  0.00000000  0.11011000  0.04502800  1
  B  B1  1  0.00000000  0.88989000  0.95497200  1
  B  B2  1  0.00000000  0.38989000  0.54502800  1
  B  B3  1  0.00000000  0.61011000  0.45497200  1
  B  B4  1  0.00000000  0.14213300  0.46656400  1
  B  B5  1  0.00000000  0.85786700  0.53343600  1
  B  B6  1  0.00000000  0.35786700  0.96656400  1
  B  B7  1  0.00000000  0.64213300  0.03343600  1
  B  B8  1  0.00000000  0.02364600  0.18865600  1
  B  B9  1  0.00000000  0.97635400  0.81134400  1
  B  B10  1  0.00000000  0.47635400  0.68865600  1
  B  B11  1  0.00000000  0.52364600  0.31134400  1
  B  B12  1  0.00000000  0.22100700  0.31629500  1
  B  B13  1  0.00000000  0.77899300  0.68370500  1
  B  B14  1  0.00000000  0.27899300  0.81629500  1
  B  B15  1  0.00000000  0.72100700  0.18370500  1
loop_
_geom_bond_atom_site_label_1
_geom_bond_atom_site_label_2
_geom_bond_distance
_geom_bond_site_symmetry_2
B0 B1 1.670752 1_544
B0 B6 1.728461 1_554
B0 B8 1.733102 1_555
B0 Fe3 2.317922 1_545
B0 Fe3 2.317922 1_445
B0 Fe2 2.330374 1_454
B0 Fe2 2.330374 1_554
B0 Ce0 2.628983 1_455
B0 Ce0 2.628983 1_555
B1 B7 1.728461 1_556
B1 B9 1.733102 1_555
B1 Fe2 2.317922 1_465
B1 Fe2 2.317922 1_565
B1 Fe3 2.330374 1_556
B1 Fe3 2.330374 1_456
B1 Ce1 2.628983 1_455
B1 Ce1 2.628983 1_555
B2 B3 1.670752 1_555
B2 B4 1.728461 1_555
B2 Fe1 2.317922 1_555
B2 Fe1 2.317922 1_455
B2 Fe0 2.330374 1_555
B2 Fe0 2.330374 1_455
B2 Ce2 2.628983 1_455
B2 Ce2 2.628983 1_555
B3 B5 1.728461 1_555
B3 Fe0 2.317922 1_555
B3 Fe0 2.317922 1_455
B3 Fe1 2.330374 1_455
B3 Fe1 2.330374 1_555
B3 Ce3 2.628983 1_555
B3 Ce3 2.628983 1_455
B4 B5 1.857559 1_545
B4 Fe0 2.279137 1_555
B4 Fe0 2.279137 1_455
B4 Ce3 2.712070 1_545
B4 Ce3 2.712070 1_445
B4 Ce2 2.733378 1_455
B4 Ce2 2.733378 1_555
B5 Fe1 2.279137 1_455
B5 Fe1 2.279137 1_555
B5 Ce2 2.712070 1_565
B5 Ce2 2.712070 1_465
B5 Ce3 2.733378 1_455
B5 Ce3 2.733378 1_555
B6 B7 1.857559 1_556
B6 Fe2 2.279137 1_555
B6 Fe2 2.279137 1_455
B6 Ce1 2.712070 1_455
B6 Ce1 2.712070 1_555
B6 Ce0 2.733378 1_556
B6 Ce0 2.733378 1_456
B7 Fe3 2.279137 1_455
B7 Fe3 2.279137 1_555
B7 Ce0 2.712070 1_455
B7 Ce0 2.712070 1_555
B7 Ce1 2.733378 1_554
B7 Ce1 2.733378 1_454
B8 Fe3 2.276645 1_545
B8 Fe3 2.276645 1_445
B8 Ce3 2.695379 1_545
B8 Ce3 2.695379 1_445
B8 Ce0 2.743516 1_455
B8 Ce0 2.743516 1_555
B9 Fe2 2.276645 1_465
B9 Fe2 2.276645 1_565
B9 Ce2 2.695379 1_565
B9 Ce2 2.695379 1_465
B9 Ce1 2.743516 1_455
B9 Ce1 2.743516 1_555
B10 B2 1.733102 1_555
B10 B13 1.800323 1_555
B10 B14 1.881597 1_555
B10 Fe1 2.276645 1_455
B10 Fe1 2.276645 1_555
B10 Ce1 2.695379 1_455
B10 Ce1 2.695379 1_555
B10 Ce2 2.743516 1_455
B10 Ce2 2.743516 1_555
B11 B3 1.733102 1_555
B11 B12 1.800323 1_555
B11 B15 1.881597 1_555
B11 Fe0 2.276645 1_555
B11 Fe0 2.276645 1_455
B11 Ce0 2.695379 1_455
B11 Ce0 2.695379 1_555
B11 Ce3 2.743516 1_455
B11 Ce3 2.743516 1_555
B12 B4 1.794006 1_555
B12 B8 1.881597 1_555
B12 Fe0 2.218495 1_555
B12 Fe0 2.218495 1_455
B12 Ce3 2.725314 1_445
B12 Ce3 2.725314 1_545
B12 Ce0 2.739189 1_455
B12 Ce0 2.739189 1_555
B13 B5 1.794006 1_555
B13 B9 1.881597 1_555
B13 Fe1 2.218495 1_455
B13 Fe1 2.218495 1_555
B13 Ce2 2.725314 1_565
B13 Ce2 2.725314 1_465
B13 Ce1 2.739189 1_555
B13 Ce1 2.739189 1_455
B14 B6 1.794006 1_555
B14 B9 1.800323 1_545
B14 Fe2 2.218495 1_555
B14 Fe2 2.218495 1_455
B14 Ce1 2.725314 1_455
B14 Ce1 2.725314 1_555
B14 Ce2 2.739189 1_555
B14 Ce2 2.739189 1_455
B15 B7 1.794006 1_555
B15 B8 1.800323 1_565
B15 Fe3 2.218495 1_555
B15 Fe3 2.218495 1_455
B15 Ce0 2.725314 1_455
B15 Ce0 2.725314 1_555
B15 Ce3 2.739189 1_555
B15 Ce3 2.739189 1_455
