# generated using pymatgen
data_Lu(CoB)4
_symmetry_space_group_name_H-M   'P 1'
_cell_length_a   4.97848300
_cell_length_b   4.97848300
_cell_length_c   6.92144200
_cell_angle_alpha   90.00000000
_cell_angle_beta   90.00000000
_cell_angle_gamma   90.00000000
_symmetry_Int_Tables_number   1
_chemical_formula_structural   Lu(CoB)4
_chemical_formula_sum   'Lu2 Co8 B8'
_cell_volume   171.54996782
_cell_formula_units_Z   2
loop_
 _symmetry_equiv_pos_site_id
 _symmetry_equiv_pos_as_xyz
  1  'x, y, z'
loop_
 _atom_site_type_symbol
 _atom_site_label
 _atom_site_symmetry_multiplicity
 _atom_site_fract_x
 _atom_site_fract_y
 _atom_site_fract_z
 _atom_site_occupancy
  Lu  Lu0  1  0.00000000  0.00000000  0.00000000  1
  Lu  Lu1  1  0.50000000  0.50000000  0.50000000  1
  Co  Co0  1  0.25332800  0.50000000  0.86153300  1
  Co  Co1  1  0.74667200  0.50000000  0.86153300  1
  Co  Co2  1  0.00000000  0.75332800  0.36153300  1
  Co  Co3  1  0.00000000  0.24667200  0.36153300  1
  Co  Co4  1  0.24667200  0.00000000  0.63846700  1
  Co  Co5  1  0.75332800  0.00000000  0.63846700  1
  Co  Co6  1  0.50000000  0.74667200  0.13846700  1
  Co  Co7  1  0.50000000  0.25332800  0.13846700  1
  B  B0  1  0.82502000  0.50000000  0.15707000  1
  B  B1  1  0.17498000  0.50000000  0.15707000  1
  B  B2  1  0.00000000  0.32502000  0.65707000  1
  B  B3  1  0.00000000  0.67498000  0.65707000  1
  B  B4  1  0.67498000  0.00000000  0.34293000  1
  B  B5  1  0.32502000  0.00000000  0.34293000  1
  B  B6  1  0.50000000  0.17498000  0.84293000  1
  B  B7  1  0.50000000  0.82502000  0.84293000  1
loop_
_geom_bond_atom_site_label_1
_geom_bond_atom_site_label_2
_geom_bond_distance
_geom_bond_site_symmetry_2
Co0 Lu1 2.787430 1_555
Co0 Lu0 2.950497 1_556
Co0 Lu0 2.950497 1_566
Co1 Lu1 2.787430 1_555
Co1 Lu0 2.950497 1_656
Co1 Lu0 2.950497 1_666
Co2 Lu0 2.787430 1_565
Co2 Lu1 2.950497 1_455
Co2 Lu1 2.950497 1_555
Co3 Lu0 2.787430 1_555
Co3 Lu1 2.950497 1_455
Co3 Lu1 2.950497 1_555
Co4 Lu0 2.787430 1_556
Co4 Lu1 2.950497 1_555
Co4 Lu1 2.950497 1_545
Co5 Lu0 2.787430 1_656
Co5 Lu1 2.950497 1_555
Co5 Lu1 2.950497 1_545
Co6 Lu1 2.787430 1_555
Co6 Lu0 2.950497 1_565
Co6 Lu0 2.950497 1_665
Co7 Lu1 2.787430 1_555
Co7 Lu0 2.950497 1_555
Co7 Lu0 2.950497 1_655
B0 B1 1.742270 1_655
B0 Co6 2.035426 1_555
B0 Co7 2.035426 1_555
B0 Co1 2.082399 1_554
B0 Co2 2.086194 1_655
B0 Co3 2.086194 1_655
B0 Lu0 2.852560 1_655
B0 Lu0 2.852560 1_665
B0 Lu1 2.872648 1_555
B1 Co6 2.035426 1_555
B1 Co7 2.035426 1_555
B1 Co0 2.082399 1_554
B1 Co2 2.086194 1_555
B1 Co3 2.086194 1_555
B1 Lu0 2.852560 1_555
B1 Lu0 2.852560 1_565
B1 Lu1 2.872648 1_555
B2 B3 1.742270 1_555
B2 Co5 2.035426 1_455
B2 Co4 2.035426 1_555
B2 Co3 2.082399 1_555
B2 Co1 2.086194 1_455
B2 Co0 2.086194 1_555
B2 Lu1 2.852560 1_455
B2 Lu1 2.852560 1_555
B2 Lu0 2.872648 1_556
B3 Co4 2.035426 1_565
B3 Co5 2.035426 1_465
B3 Co2 2.082399 1_555
B3 Co1 2.086194 1_455
B3 Co0 2.086194 1_555
B3 Lu1 2.852560 1_455
B3 Lu1 2.852560 1_555
B3 Lu0 2.872648 1_566
B4 B5 1.742270 1_555
B4 Co2 2.035426 1_645
B4 Co3 2.035426 1_655
B4 Co5 2.082399 1_555
B4 Co7 2.086194 1_555
B4 Co6 2.086194 1_545
B4 Lu1 2.852560 1_545
B4 Lu1 2.852560 1_555
B4 Lu0 2.872648 1_655
B5 Co2 2.035426 1_545
B5 Co3 2.035426 1_555
B5 Co4 2.082399 1_555
B5 Co7 2.086194 1_555
B5 Co6 2.086194 1_545
B5 Lu1 2.852560 1_545
B5 Lu1 2.852560 1_555
B5 Lu0 2.872648 1_555
B6 B7 1.742270 1_545
B6 Co0 2.035426 1_555
B6 Co1 2.035426 1_555
B6 Co7 2.082399 1_556
B6 Co5 2.086194 1_555
B6 Co4 2.086194 1_555
B6 Lu0 2.852560 1_556
B6 Lu0 2.852560 1_656
B6 Lu1 2.872648 1_555
B7 Co0 2.035426 1_555
B7 Co1 2.035426 1_555
B7 Co6 2.082399 1_556
B7 Co4 2.086194 1_565
B7 Co5 2.086194 1_565
B7 Lu0 2.852560 1_666
B7 Lu0 2.852560 1_566
B7 Lu1 2.872648 1_555
