# generated using pymatgen
data_Ga3Pt
_symmetry_space_group_name_H-M   'P 1'
_cell_length_a   5.91168801
_cell_length_b   5.91168801
_cell_length_c   4.52180100
_cell_angle_alpha   90.00000000
_cell_angle_beta   90.00000000
_cell_angle_gamma   120.00000012
_symmetry_Int_Tables_number   1
_chemical_formula_structural   Ga3Pt
_chemical_formula_sum   'Ga6 Pt2'
_cell_volume   136.85639283
_cell_formula_units_Z   2
loop_
 _symmetry_equiv_pos_site_id
 _symmetry_equiv_pos_as_xyz
  1  'x, y, z'
loop_
 _atom_site_type_symbol
 _atom_site_label
 _atom_site_symmetry_multiplicity
 _atom_site_fract_x
 _atom_site_fract_y
 _atom_site_fract_z
 _atom_site_occupancy
  Ga  Ga0  1  0.17053500  0.34107000  0.25000000  1
  Ga  Ga1  1  0.65893000  0.82946500  0.25000000  1
  Ga  Ga2  1  0.17053500  0.82946500  0.25000000  1
  Ga  Ga3  1  0.82946500  0.65893000  0.75000000  1
  Ga  Ga4  1  0.34107000  0.17053500  0.75000000  1
  Ga  Ga5  1  0.82946500  0.17053500  0.75000000  1
  Pt  Pt0  1  0.33333300  0.66666700  0.75000000  1
  Pt  Pt1  1  0.66666700  0.33333300  0.25000000  1
loop_
_geom_bond_atom_site_label_1
_geom_bond_atom_site_label_2
_geom_bond_distance
_geom_bond_site_symmetry_2
Ga0 Pt0 2.808984 1_555
Ga0 Pt0 2.808984 1_554
Ga0 Ga5 2.856706 1_455
Ga0 Ga5 2.856706 1_454
Ga0 Ga4 2.856706 1_555
Ga0 Ga4 2.856706 1_554
Ga0 Ga1 2.887239 1_555
Ga0 Ga2 2.887239 1_555
Ga0 Pt1 2.956106 1_455
Ga0 Pt1 2.956112 1_555
Ga0 Ga1 3.024449 1_445
Ga0 Ga2 3.024449 1_545
Ga1 Pt0 2.808984 1_555
Ga1 Pt0 2.808984 1_554
Ga1 Ga5 2.856706 1_565
Ga1 Ga5 2.856706 1_564
Ga1 Ga3 2.856706 1_555
Ga1 Ga3 2.856706 1_554
Ga1 Ga2 2.887239 1_555
Ga1 Pt1 2.956106 1_565
Ga1 Pt1 2.956112 1_555
Ga1 Ga2 3.024449 1_655
Ga2 Pt0 2.808981 1_554
Ga2 Pt0 2.808981 1_555
Ga2 Ga3 2.856706 1_454
Ga2 Ga4 2.856706 1_564
Ga2 Ga4 2.856706 1_565
Ga2 Ga3 2.856706 1_455
Ga2 Pt1 2.956109 1_455
Ga2 Pt1 2.956109 1_565
Ga3 Pt1 2.808984 1_555
Ga3 Pt1 2.808984 1_556
Ga3 Ga4 2.887239 1_555
Ga3 Ga5 2.887239 1_555
Ga3 Pt0 2.956106 1_655
Ga3 Pt0 2.956112 1_555
Ga3 Ga4 3.024449 1_665
Ga3 Ga5 3.024449 1_565
Ga4 Pt1 2.808984 1_555
Ga4 Pt1 2.808984 1_556
Ga4 Ga5 2.887239 1_555
Ga4 Pt0 2.956106 1_545
Ga4 Pt0 2.956112 1_555
Ga4 Ga5 3.024449 1_455
Ga5 Pt1 2.808981 1_555
Ga5 Pt1 2.808981 1_556
Ga5 Pt0 2.956109 1_545
Ga5 Pt0 2.956109 1_655
