# generated using pymatgen
data_Pr5S9
_symmetry_space_group_name_H-M   'P 1'
_cell_length_a   12.23014343
_cell_length_b   12.23014343
_cell_length_c   10.00862613
_cell_angle_alpha   82.02438545
_cell_angle_beta   82.02438545
_cell_angle_gamma   26.34404139
_symmetry_Int_Tables_number   1
_chemical_formula_structural   Pr5S9
_chemical_formula_sum   'Pr10 S18'
_cell_volume   657.55335234
_cell_formula_units_Z   2
loop_
 _symmetry_equiv_pos_site_id
 _symmetry_equiv_pos_as_xyz
  1  'x, y, z'
loop_
 _atom_site_type_symbol
 _atom_site_label
 _atom_site_symmetry_multiplicity
 _atom_site_fract_x
 _atom_site_fract_y
 _atom_site_fract_z
 _atom_site_occupancy
  Pr  Pr0  1  0.94054100  0.04451500  0.23533300  1
  Pr  Pr1  1  0.14907100  0.24973800  0.84846900  1
  Pr  Pr2  1  0.34571900  0.44431300  0.42764400  1
  Pr  Pr3  1  0.53268800  0.65652400  0.04144200  1
  Pr  Pr4  1  0.76049800  0.83216400  0.63146400  1
  Pr  Pr5  1  0.34347600  0.46731200  0.95855800  1
  Pr  Pr6  1  0.55568700  0.65428100  0.57235600  1
  Pr  Pr7  1  0.75026200  0.85092900  0.15153100  1
  Pr  Pr8  1  0.95548500  0.05945900  0.76466700  1
  Pr  Pr9  1  0.16783600  0.23950200  0.36853600  1
  S  S0  1  0.47249000  0.57495300  0.82134200  1
  S  S1  1  0.07389200  0.17657000  0.62617700  1
  S  S2  1  0.86537900  0.98227000  0.01192300  1
  S  S3  1  0.68357800  0.75661600  0.42250600  1
  S  S4  1  0.27071400  0.37345400  0.21338800  1
  S  S5  1  0.01773000  0.13462100  0.98807700  1
  S  S6  1  0.62654600  0.72928600  0.78661200  1
  S  S7  1  0.42504700  0.52751000  0.17865800  1
  S  S8  1  0.24338400  0.31642200  0.57749400  1
  S  S9  1  0.82343000  0.92610800  0.37382300  1
  S  S10  1  0.69950500  0.30049500  0.50000000  1
  S  S11  1  0.28601800  0.88863600  0.32700400  1
  S  S12  1  0.11136400  0.71398200  0.67299600  1
  S  S13  1  0.89159600  0.48614200  0.12404800  1
  S  S14  1  0.51385800  0.10840400  0.87595200  1
  S  S15  1  0.00287600  0.60780900  0.88778800  1
  S  S16  1  0.19913800  0.80086200  0.50000000  1
  S  S17  1  0.39219100  0.99712400  0.11221200  1
loop_
_geom_bond_atom_site_label_1
_geom_bond_atom_site_label_2
_geom_bond_distance
_geom_bond_site_symmetry_2
Pr0 S7 2.877105 1_555
Pr0 S7 2.885252 1_645
Pr0 S11 2.912420 1_645
Pr0 S9 2.946067 1_545
Pr0 S5 2.947748 1_654
Pr0 S2 2.953190 1_545
Pr0 S10 3.016892 1_555
Pr0 S16 3.023617 1_645
Pr1 S6 2.910401 1_545
Pr1 S6 2.921444 1_455
Pr1 S15 2.962924 1_555
Pr1 S17 2.967246 1_546
Pr1 S1 3.031643 1_555
Pr1 S14 3.058527 1_555
Pr1 S13 3.060674 1_456
Pr1 S5 3.065844 1_555
Pr1 S8 3.091139 1_555
Pr2 S9 2.881060 1_545
Pr2 S9 2.902997 1_455
Pr2 S12 2.911093 1_555
Pr2 S7 2.929411 1_555
Pr2 S8 2.932410 1_555
Pr2 S4 2.945740 1_555
Pr2 S10 3.035720 1_555
Pr2 S16 3.042786 1_555
Pr3 S5 2.864323 1_564
Pr3 S5 2.901744 1_654
Pr3 S13 2.903219 1_555
Pr3 S17 2.908381 1_555
Pr3 S7 2.954435 1_555
Pr3 S0 2.960808 1_554
Pr3 S6 3.000525 1_554
Pr3 S11 3.136550 1_555
Pr4 S8 2.872435 1_655
Pr4 S8 2.879846 1_565
Pr4 S15 2.911444 1_655
Pr4 S14 2.912280 1_565
Pr4 S3 2.958492 1_555
Pr4 S9 2.962066 1_555
Pr4 S6 3.020677 1_555
Pr4 S12 3.144468 1_655
Pr5 S2 2.864323 1_456
Pr5 S2 2.901744 1_546
Pr5 S14 2.903219 1_555
Pr5 S15 2.908381 1_555
Pr5 S0 2.954435 1_555
Pr5 S7 2.960808 1_556
Pr5 S4 3.000525 1_556
Pr5 S12 3.136550 1_555
Pr6 S1 2.881060 1_655
Pr6 S1 2.902997 1_565
Pr6 S11 2.911093 1_555
Pr6 S0 2.929411 1_555
Pr6 S3 2.932410 1_555
Pr6 S6 2.945740 1_555
Pr6 S10 3.035720 1_555
Pr6 S16 3.042786 1_555
Pr7 S4 2.910401 1_655
Pr7 S4 2.921444 1_565
Pr7 S17 2.962924 1_555
Pr7 S15 2.967246 1_654
Pr7 S9 3.031643 1_555
Pr7 S13 3.058527 1_555
Pr7 S14 3.060674 1_564
Pr7 S2 3.065844 1_555
Pr7 S3 3.091139 1_555
Pr8 S0 2.877105 1_555
Pr8 S0 2.885252 1_645
Pr8 S12 2.912420 1_645
Pr8 S1 2.946067 1_655
Pr8 S2 2.947748 1_546
Pr8 S5 2.953190 1_655
Pr8 S10 3.016892 1_555
Pr8 S16 3.023617 1_645
Pr9 S3 2.872435 1_545
Pr9 S3 2.879846 1_455
Pr9 S17 2.911444 1_545
Pr9 S13 2.912280 1_455
Pr9 S8 2.958492 1_555
Pr9 S1 2.962066 1_555
Pr9 S4 3.020677 1_555
Pr9 S11 3.144468 1_545
S10 S16 2.784903 1_645
S10 S16 2.788995 1_555
S11 S16 2.509453 1_555
S12 S16 2.509453 1_555
