# generated using pymatgen
data_Np2SO2
_symmetry_space_group_name_H-M   'P 1'
_cell_length_a   3.98909238
_cell_length_b   3.98909238
_cell_length_c   6.66194421
_cell_angle_alpha   90.00000000
_cell_angle_beta   90.00000000
_cell_angle_gamma   119.99998316
_symmetry_Int_Tables_number   1
_chemical_formula_structural   Np2SO2
_chemical_formula_sum   'Np2 S1 O2'
_cell_volume   91.80786450
_cell_formula_units_Z   1
loop_
 _symmetry_equiv_pos_site_id
 _symmetry_equiv_pos_as_xyz
  1  'x, y, z'
loop_
 _atom_site_type_symbol
 _atom_site_label
 _atom_site_symmetry_multiplicity
 _atom_site_fract_x
 _atom_site_fract_y
 _atom_site_fract_z
 _atom_site_occupancy
  Np  Np0  1  0.33333300  0.66666700  0.27789277  1
  Np  Np1  1  0.66666700  0.33333300  0.72210723  1
  S  S0  1  0.00000000  0.00000000  0.00000000  1
  O  O0  1  0.33333300  0.66666700  0.62675793  1
  O  O1  1  0.66666700  0.33333300  0.37324207  1
loop_
_geom_bond_atom_site_label_1
_geom_bond_atom_site_label_2
_geom_bond_distance
_geom_bond_site_symmetry_2
Np0 O0 2.324120 1_555
Np0 O1 2.389094 1_455
Np0 O1 2.389094 1_565
Np0 O1 2.389100 1_555
Np0 S0 2.954930 1_565
Np0 S0 2.954933 1_665
Np0 S0 2.954933 1_555
Np1 O1 2.324120 1_555
Np1 O0 2.389094 1_545
Np1 O0 2.389094 1_655
Np1 O0 2.389100 1_555
Np1 S0 2.954930 1_656
Np1 S0 2.954933 1_556
Np1 S0 2.954933 1_666
