# generated using pymatgen
data_Tb2Al17
_symmetry_space_group_name_H-M   'P 1'
_cell_length_a   9.47645768
_cell_length_b   9.47645768
_cell_length_c   8.87670300
_cell_angle_alpha   90.00000000
_cell_angle_beta   90.00000000
_cell_angle_gamma   119.99999779
_symmetry_Int_Tables_number   1
_chemical_formula_structural   Tb2Al17
_chemical_formula_sum   'Tb4 Al34'
_cell_volume   690.35803822
_cell_formula_units_Z   2
loop_
 _symmetry_equiv_pos_site_id
 _symmetry_equiv_pos_as_xyz
  1  'x, y, z'
loop_
 _atom_site_type_symbol
 _atom_site_label
 _atom_site_symmetry_multiplicity
 _atom_site_fract_x
 _atom_site_fract_y
 _atom_site_fract_z
 _atom_site_occupancy
  Tb  Tb0  1  0.00000000  0.00000000  0.25000000  1
  Tb  Tb1  1  0.00000000  0.00000000  0.75000000  1
  Tb  Tb2  1  0.33333300  0.66666700  0.75000000  1
  Tb  Tb3  1  0.66666700  0.33333300  0.25000000  1
  Al  Al0  1  0.33333300  0.66666700  0.39864300  1
  Al  Al1  1  0.66666700  0.33333300  0.60135700  1
  Al  Al2  1  0.66666700  0.33333300  0.89864300  1
  Al  Al3  1  0.33333300  0.66666700  0.10135700  1
  Al  Al4  1  0.50000000  0.50000000  0.50000000  1
  Al  Al5  1  0.50000000  0.00000000  0.50000000  1
  Al  Al6  1  0.00000000  0.50000000  0.50000000  1
  Al  Al7  1  0.50000000  0.50000000  0.00000000  1
  Al  Al8  1  0.50000000  0.00000000  0.00000000  1
  Al  Al9  1  0.00000000  0.50000000  0.00000000  1
  Al  Al10  1  0.32758700  0.36433100  0.25000000  1
  Al  Al11  1  0.63566900  0.96325500  0.25000000  1
  Al  Al12  1  0.03674500  0.67241300  0.25000000  1
  Al  Al13  1  0.63566900  0.67241300  0.25000000  1
  Al  Al14  1  0.03674500  0.36433100  0.25000000  1
  Al  Al15  1  0.32758700  0.96325500  0.25000000  1
  Al  Al16  1  0.67241300  0.63566900  0.75000000  1
  Al  Al17  1  0.36433100  0.03674500  0.75000000  1
  Al  Al18  1  0.96325500  0.32758700  0.75000000  1
  Al  Al19  1  0.36433100  0.32758700  0.75000000  1
  Al  Al20  1  0.96325500  0.63566900  0.75000000  1
  Al  Al21  1  0.67241300  0.03674500  0.75000000  1
  Al  Al22  1  0.16334000  0.83666000  0.52659100  1
  Al  Al23  1  0.16334000  0.32668000  0.52659100  1
  Al  Al24  1  0.67332000  0.83666000  0.52659100  1
  Al  Al25  1  0.83666000  0.16334000  0.47340900  1
  Al  Al26  1  0.83666000  0.67332000  0.47340900  1
  Al  Al27  1  0.32668000  0.16334000  0.47340900  1
  Al  Al28  1  0.83666000  0.16334000  0.02659100  1
  Al  Al29  1  0.83666000  0.67332000  0.02659100  1
  Al  Al30  1  0.32668000  0.16334000  0.02659100  1
  Al  Al31  1  0.16334000  0.83666000  0.97340900  1
  Al  Al32  1  0.16334000  0.32668000  0.97340900  1
  Al  Al33  1  0.67332000  0.83666000  0.97340900  1
loop_
_geom_bond_atom_site_label_1
_geom_bond_atom_site_label_2
_geom_bond_distance
_geom_bond_site_symmetry_2
Al0 Al3 2.638920 1_555
Al0 Al6 2.879771 1_555
Al0 Al5 2.879771 1_565
Al0 Al4 2.879778 1_555
Al0 Al22 3.012514 1_555
Al0 Al23 3.012522 1_555
Al0 Al24 3.012522 1_555
Al0 Tb2 3.118892 1_555
Al1 Al2 2.638920 1_555
Al1 Al6 2.879771 1_655
Al1 Al5 2.879771 1_555
Al1 Al4 2.879778 1_555
Al1 Al25 3.012514 1_555
Al1 Al26 3.012522 1_555
Al1 Al27 3.012522 1_555
Al1 Tb3 3.118892 1_555
Al2 Al9 2.879771 1_656
Al2 Al8 2.879771 1_556
Al2 Al7 2.879778 1_556
Al2 Al28 3.012514 1_556
Al2 Al30 3.012522 1_556
Al2 Al29 3.012522 1_556
Al2 Tb3 3.118892 1_556
Al3 Al8 2.879771 1_565
Al3 Al9 2.879771 1_555
Al3 Al7 2.879778 1_555
Al3 Al31 3.012514 1_554
Al3 Al32 3.012522 1_554
Al3 Al33 3.012522 1_554
Al3 Tb2 3.118892 1_554
Al4 Tb2 3.522552 1_555
Al4 Tb3 3.522552 1_555
Al5 Tb2 3.522546 1_545
Al5 Tb3 3.522546 1_555
Al6 Tb3 3.522546 1_455
Al6 Tb2 3.522546 1_555
Al7 Tb2 3.522552 1_554
Al7 Tb3 3.522552 1_555
Al8 Tb2 3.522546 1_544
Al8 Tb3 3.522546 1_555
Al9 Tb2 3.522546 1_554
Al9 Tb3 3.522546 1_455
Al10 Al7 2.673309 1_555
Al10 Al4 2.673309 1_555
Al10 Al27 2.746697 1_555
Al10 Al30 2.746697 1_555
Al10 Al14 2.756152 1_555
Al10 Al23 2.832432 1_555
Al10 Al32 2.832432 1_554
Al10 Al13 2.919526 1_555
Al10 Tb0 3.292305 1_555
Al10 Tb3 3.369769 1_555
Al11 Al8 2.673313 1_565
Al11 Al5 2.673313 1_565
Al11 Al25 2.746700 1_565
Al11 Al28 2.746700 1_565
Al11 Al13 2.756152 1_555
Al11 Al24 2.832427 1_555
Al11 Al33 2.832427 1_554
Al11 Al15 2.919526 1_555
Al11 Tb0 3.292301 1_665
Al11 Tb3 3.369769 1_565
Al12 Al6 2.673308 1_555
Al12 Al9 2.673308 1_555
Al12 Al26 2.746704 1_455
Al12 Al29 2.746704 1_455
Al12 Al15 2.756152 1_555
Al12 Al31 2.832431 1_554
Al12 Al22 2.832431 1_555
Al12 Al14 2.919526 1_555
Al12 Tb0 3.292310 1_565
Al12 Tb3 3.369769 1_455
Al13 Al4 2.673309 1_555
Al13 Al7 2.673309 1_555
Al13 Al26 2.746697 1_555
Al13 Al29 2.746697 1_555
Al13 Al24 2.832432 1_555
Al13 Al33 2.832432 1_554
Al13 Tb0 3.292305 1_665
Al13 Tb3 3.369769 1_555
Al14 Al9 2.673313 1_555
Al14 Al6 2.673313 1_555
Al14 Al25 2.746700 1_455
Al14 Al28 2.746700 1_455
Al14 Al23 2.832427 1_555
Al14 Al32 2.832427 1_554
Al14 Tb0 3.292301 1_555
Al14 Tb3 3.369769 1_455
Al15 Al8 2.673308 1_565
Al15 Al5 2.673308 1_565
Al15 Al27 2.746704 1_565
Al15 Al30 2.746704 1_565
Al15 Al22 2.832431 1_555
Al15 Al31 2.832431 1_554
Al15 Tb0 3.292310 1_565
Al15 Tb3 3.369769 1_565
Al16 Al7 2.673309 1_556
Al16 Al4 2.673309 1_555
Al16 Al24 2.746697 1_555
Al16 Al33 2.746697 1_555
Al16 Al20 2.756152 1_555
Al16 Al29 2.832432 1_556
Al16 Al26 2.832432 1_555
Al16 Al19 2.919526 1_555
Al16 Tb1 3.292305 1_665
Al16 Tb2 3.369769 1_555
Al17 Al5 2.673313 1_555
Al17 Al8 2.673313 1_556
Al17 Al31 2.746700 1_545
Al17 Al22 2.746700 1_545
Al17 Al19 2.756152 1_555
Al17 Al30 2.832427 1_556
Al17 Al27 2.832427 1_555
Al17 Al21 2.919526 1_555
Al17 Tb1 3.292301 1_555
Al17 Tb2 3.369769 1_545
Al18 Al9 2.673308 1_656
Al18 Al6 2.673308 1_655
Al18 Al23 2.746704 1_655
Al18 Al32 2.746704 1_655
Al18 Al21 2.756152 1_555
Al18 Al28 2.832431 1_556
Al18 Al25 2.832431 1_555
Al18 Al20 2.919526 1_555
Al18 Tb1 3.292310 1_655
Al18 Tb2 3.369769 1_655
Al19 Al4 2.673309 1_555
Al19 Al7 2.673309 1_556
Al19 Al32 2.746697 1_555
Al19 Al23 2.746697 1_555
Al19 Al30 2.832432 1_556
Al19 Al27 2.832432 1_555
Al19 Tb1 3.292305 1_555
Al19 Tb2 3.369769 1_555
Al20 Al6 2.673313 1_655
Al20 Al9 2.673313 1_656
Al20 Al31 2.746700 1_655
Al20 Al22 2.746700 1_655
Al20 Al29 2.832427 1_556
Al20 Al26 2.832427 1_555
Al20 Tb1 3.292301 1_665
Al20 Tb2 3.369769 1_655
Al21 Al5 2.673308 1_555
Al21 Al8 2.673308 1_556
Al21 Al33 2.746704 1_545
Al21 Al24 2.746704 1_545
Al21 Al28 2.832431 1_556
Al21 Al25 2.832431 1_555
Al21 Tb1 3.292310 1_655
Al21 Tb2 3.369769 1_545
Al22 Al26 2.722260 1_455
Al22 Al27 2.722260 1_565
Al22 Al5 2.773387 1_565
Al22 Al6 2.773387 1_555
Al22 Tb1 3.334766 1_565
Al22 Tb2 3.423175 1_555
Al22 Tb0 3.635372 1_565
Al23 Al27 2.722260 1_555
Al23 Al25 2.722260 1_455
Al23 Al6 2.773387 1_555
Al23 Al4 2.773387 1_555
Al23 Tb1 3.334766 1_555
Al23 Tb2 3.423182 1_555
Al23 Tb0 3.635372 1_555
Al24 Al26 2.722260 1_555
Al24 Al25 2.722260 1_565
Al24 Al5 2.773387 1_565
Al24 Al4 2.773387 1_555
Al24 Tb1 3.334766 1_665
Al24 Tb2 3.423182 1_555
Al24 Tb0 3.635372 1_665
Al25 Al6 2.773387 1_655
Al25 Al5 2.773387 1_555
Al25 Tb0 3.334766 1_655
Al25 Tb3 3.423175 1_555
Al25 Tb1 3.635372 1_655
Al26 Al6 2.773387 1_655
Al26 Al4 2.773387 1_555
Al26 Tb0 3.334766 1_665
Al26 Tb3 3.423182 1_555
Al26 Tb1 3.635372 1_665
Al27 Al5 2.773387 1_555
Al27 Al4 2.773387 1_555
Al27 Tb0 3.334766 1_555
Al27 Tb3 3.423182 1_555
Al27 Tb1 3.635372 1_555
Al28 Al32 2.722260 1_654
Al28 Al33 2.722260 1_544
Al28 Al9 2.773387 1_655
Al28 Al8 2.773387 1_555
Al28 Tb0 3.334766 1_655
Al28 Tb3 3.423175 1_555
Al28 Tb1 3.635372 1_654
Al29 Al33 2.722260 1_554
Al29 Al31 2.722260 1_654
Al29 Al9 2.773387 1_655
Al29 Al7 2.773387 1_555
Al29 Tb0 3.334766 1_665
Al29 Tb3 3.423182 1_555
Al29 Tb1 3.635372 1_664
Al30 Al32 2.722260 1_554
Al30 Al31 2.722260 1_544
Al30 Al8 2.773387 1_555
Al30 Al7 2.773387 1_555
Al30 Tb0 3.334766 1_555
Al30 Tb3 3.423182 1_555
Al30 Tb1 3.635372 1_554
Al31 Al8 2.773387 1_566
Al31 Al9 2.773387 1_556
Al31 Tb1 3.334766 1_565
Al31 Tb2 3.423175 1_555
Al31 Tb0 3.635372 1_566
Al32 Al9 2.773387 1_556
Al32 Al7 2.773387 1_556
Al32 Tb1 3.334766 1_555
Al32 Tb2 3.423182 1_555
Al32 Tb0 3.635372 1_556
Al33 Al8 2.773387 1_566
Al33 Al7 2.773387 1_556
Al33 Tb1 3.334766 1_665
Al33 Tb2 3.423182 1_555
Al33 Tb0 3.635372 1_666
