# generated using pymatgen
data_Te2MoWSe2
_symmetry_space_group_name_H-M   'P 1'
_cell_length_a   3.43765923
_cell_length_b   3.43765923
_cell_length_c   39.14337700
_cell_angle_alpha   90.00000000
_cell_angle_beta   90.00000000
_cell_angle_gamma   119.99998517
_symmetry_Int_Tables_number   1
_chemical_formula_structural   Te2MoWSe2
_chemical_formula_sum   'Te4 Mo2 W2 Se4'
_cell_volume   400.60340300
_cell_formula_units_Z   2
loop_
 _symmetry_equiv_pos_site_id
 _symmetry_equiv_pos_as_xyz
  1  'x, y, z'
loop_
 _atom_site_type_symbol
 _atom_site_label
 _atom_site_symmetry_multiplicity
 _atom_site_fract_x
 _atom_site_fract_y
 _atom_site_fract_z
 _atom_site_occupancy
  Te  Te0  1  0.00000000  0.00000000  0.70521600  1
  Te  Te1  1  0.33333300  0.66666700  0.42225100  1
  Te  Te2  1  0.33333300  0.66666700  0.51699200  1
  Te  Te3  1  0.00000000  0.00000000  0.60989500  1
  Mo  Mo0  1  0.00000000  0.00000000  0.46962100  1
  Mo  Mo1  1  0.33333300  0.66666700  0.28180200  1
  W  W0  1  0.00000000  0.00000000  0.09391900  1
  W  W1  1  0.33333300  0.66666700  0.65758300  1
  Se  Se0  1  0.00000000  0.00000000  0.32362200  1
  Se  Se1  1  0.33333300  0.66666700  0.05201400  1
  Se  Se2  1  0.33333300  0.66666700  0.13583400  1
  Se  Se3  1  0.00000000  0.00000000  0.23999800  1
loop_
_geom_bond_atom_site_label_1
_geom_bond_atom_site_label_2
_geom_bond_distance
_geom_bond_site_symmetry_2
Te0 W1 2.723156 1_545
Te0 W1 2.723159 1_555
Te0 W1 2.723159 1_445
Te3 W1 2.724631 1_545
Te3 W1 2.724633 1_445
Te3 W1 2.724633 1_555
Mo0 Te1 2.716118 1_545
Mo0 Te1 2.716120 1_555
Mo0 Te1 2.716120 1_445
Mo0 Te2 2.716145 1_545
Mo0 Te2 2.716147 1_555
Mo0 Te2 2.716147 1_445
Mo1 Se3 2.572314 1_565
Mo1 Se3 2.572317 1_555
Mo1 Se3 2.572317 1_665
Mo1 Se0 2.572712 1_565
Mo1 Se0 2.572715 1_555
Mo1 Se0 2.572715 1_665
Se1 W0 2.574831 1_565
Se1 W0 2.574833 1_665
Se1 W0 2.574833 1_555
Se2 W0 2.575080 1_565
Se2 W0 2.575083 1_665
Se2 W0 2.575083 1_555
