# generated using pymatgen
data_Ca4Bi6O13
_symmetry_space_group_name_H-M   'P 1'
_cell_length_a   7.30313000
_cell_length_b   6.00264200
_cell_length_c   9.33606136
_cell_angle_alpha   71.31450958
_cell_angle_beta   90.00000000
_cell_angle_gamma   90.00000000
_symmetry_Int_Tables_number   1
_chemical_formula_structural   Ca4Bi6O13
_chemical_formula_sum   'Ca4 Bi6 O13'
_cell_volume   387.70266284
_cell_formula_units_Z   1
loop_
 _symmetry_equiv_pos_site_id
 _symmetry_equiv_pos_as_xyz
  1  'x, y, z'
loop_
 _atom_site_type_symbol
 _atom_site_label
 _atom_site_symmetry_multiplicity
 _atom_site_fract_x
 _atom_site_fract_y
 _atom_site_fract_z
 _atom_site_occupancy
  Ca  Ca0  1  0.74709100  0.65058100  0.57029400  1
  Ca  Ca1  1  0.25318300  0.22068600  0.42858000  1
  Ca  Ca2  1  0.25290900  0.65058100  0.57029400  1
  Ca  Ca3  1  0.74681700  0.22068600  0.42858000  1
  Bi  Bi0  1  0.00000000  0.88104100  0.22701600  1
  Bi  Bi1  1  0.00000000  0.10720300  0.77279900  1
  Bi  Bi2  1  0.50000000  0.09880300  0.77689400  1
  Bi  Bi3  1  0.50000000  0.87122100  0.22345800  1
  Bi  Bi4  1  0.77186300  0.50566400  0.00121300  1
  Bi  Bi5  1  0.22813700  0.50566400  0.00121300  1
  O  O0  1  0.50000000  0.36964700  0.56427200  1
  O  O1  1  0.50000000  0.93371100  0.43643000  1
  O  O2  1  0.00000000  0.92271500  0.44278600  1
  O  O3  1  0.00000000  0.36488600  0.55809600  1
  O  O4  1  0.74556400  0.93911600  0.69709400  1
  O  O5  1  0.25496100  0.63595400  0.30519100  1
  O  O6  1  0.25443600  0.93911600  0.69709400  1
  O  O7  1  0.74503900  0.63595400  0.30519100  1
  O  O8  1  0.76230200  0.36316100  0.82090700  1
  O  O9  1  0.23092200  0.18242500  0.17982100  1
  O  O10  1  0.23769800  0.36316100  0.82090700  1
  O  O11  1  0.76907800  0.18242500  0.17982100  1
  O  O12  1  0.50000000  0.60579600  0.02004800  1
loop_
_geom_bond_atom_site_label_1
_geom_bond_atom_site_label_2
_geom_bond_distance
_geom_bond_site_symmetry_2
Ca0 O4 2.390608 1_555
Ca0 O8 2.424212 1_555
Ca0 O0 2.482746 1_555
Ca0 O2 2.500206 1_655
Ca0 O7 2.504573 1_555
Ca0 O1 2.519069 1_555
Ca0 O3 2.547662 1_655
Ca1 O5 2.387648 1_555
Ca1 O9 2.411352 1_555
Ca1 O1 2.478103 1_545
Ca1 O3 2.510150 1_555
Ca1 O0 2.525731 1_555
Ca1 O6 2.535005 1_545
Ca1 O2 2.546298 1_545
Ca2 O6 2.390608 1_555
Ca2 O10 2.424212 1_555
Ca2 O0 2.482746 1_555
Ca2 O2 2.500206 1_555
Ca2 O5 2.504573 1_555
Ca2 O1 2.519069 1_555
Ca2 O3 2.547662 1_555
Ca3 O7 2.387648 1_555
Ca3 O11 2.411352 1_555
Ca3 O1 2.478103 1_545
Ca3 O3 2.510150 1_655
Ca3 O0 2.525731 1_555
Ca3 O4 2.535005 1_545
Ca3 O2 2.546298 1_645
Bi0 O2 2.107947 1_555
Bi0 O5 2.340112 1_555
Bi0 O7 2.340112 1_455
Bi0 O9 2.408394 1_565
Bi0 O11 2.408394 1_465
Bi1 O3 2.103293 1_555
Bi1 O4 2.329661 1_445
Bi1 O6 2.329661 1_545
Bi1 O10 2.453155 1_555
Bi1 O8 2.453155 1_455
Bi2 O0 2.125027 1_555
Bi2 O6 2.268847 1_545
Bi2 O4 2.268847 1_545
Bi2 O8 2.602757 1_555
Bi2 O10 2.602757 1_555
Bi3 O1 2.138225 1_555
Bi3 O5 2.255806 1_555
Bi3 O7 2.255806 1_555
Bi3 O11 2.651339 1_565
Bi3 O9 2.651339 1_565
Bi3 O12 2.843152 1_555
Bi4 O12 2.098077 1_555
Bi4 O11 2.114849 1_555
Bi4 O8 2.119637 1_554
Bi5 O12 2.098077 1_555
Bi5 O9 2.114849 1_555
Bi5 O10 2.119637 1_554
