# generated using pymatgen
data_BaO
_symmetry_space_group_name_H-M   'P 1'
_cell_length_a   13.18486459
_cell_length_b   13.95633184
_cell_length_c   14.32686669
_cell_angle_alpha   96.54376621
_cell_angle_beta   94.89241777
_cell_angle_gamma   86.64033621
_symmetry_Int_Tables_number   1
_chemical_formula_structural   BaO
_chemical_formula_sum   'Ba50 O50'
_cell_volume   2606.41817415
_cell_formula_units_Z   50
loop_
 _symmetry_equiv_pos_site_id
 _symmetry_equiv_pos_as_xyz
  1  'x, y, z'
loop_
 _atom_site_type_symbol
 _atom_site_label
 _atom_site_symmetry_multiplicity
 _atom_site_fract_x
 _atom_site_fract_y
 _atom_site_fract_z
 _atom_site_occupancy
  Ba  Ba0  1  0.54608110  0.74357483  0.58659359  1
  Ba  Ba1  1  0.00468047  0.65225284  0.36314166  1
  Ba  Ba2  1  0.14373817  0.87521416  0.20615116  1
  Ba  Ba3  1  0.08907614  0.21493285  0.79596431  1
  Ba  Ba4  1  0.27768412  0.95144185  0.94256417  1
  Ba  Ba5  1  0.86293246  0.83589031  0.54848687  1
  Ba  Ba6  1  0.72465475  0.68714105  0.77998793  1
  Ba  Ba7  1  0.62920431  0.83496629  0.29306233  1
  Ba  Ba8  1  0.02262438  0.78428461  0.88911726  1
  Ba  Ba9  1  0.03386550  0.12293990  0.51941125  1
  Ba  Ba10  1  0.30315179  0.29348655  0.98508010  1
  Ba  Ba11  1  0.26611250  0.25830574  0.63435125  1
  Ba  Ba12  1  0.29650823  0.75729856  0.43275126  1
  Ba  Ba13  1  0.85226350  0.97690501  0.29875292  1
  Ba  Ba14  1  0.68546472  0.30659453  0.30410034  1
  Ba  Ba15  1  0.31350175  0.28811774  0.25645699  1
  Ba  Ba16  1  0.03233075  0.11665677  0.03244956  1
  Ba  Ba17  1  0.47966856  0.48473386  0.37850370  1
  Ba  Ba18  1  0.97588067  0.27490034  0.30486130  1
  Ba  Ba19  1  0.74844650  0.12384695  0.51887867  1
  Ba  Ba20  1  0.62660245  0.44291159  0.63936950  1
  Ba  Ba21  1  0.53608421  0.08746867  0.23487420  1
  Ba  Ba22  1  0.47765923  0.97710592  0.45061027  1
  Ba  Ba23  1  0.37414615  0.55002865  0.64874333  1
  Ba  Ba24  1  0.04475684  0.38758278  0.06677644  1
  Ba  Ba25  1  0.31508923  0.97470449  0.65452989  1
  Ba  Ba26  1  0.80230973  0.96431727  0.04119729  1
  Ba  Ba27  1  0.25421268  0.62633072  0.99947467  1
  Ba  Ba28  1  0.87985619  0.35823136  0.57236361  1
  Ba  Ba29  1  0.56519570  0.95097747  0.94272067  1
  Ba  Ba30  1  0.40133093  0.79300259  0.13675475  1
  Ba  Ba31  1  0.89972849  0.75005282  0.16580510  1
  Ba  Ba32  1  0.26166262  0.06119038  0.34174060  1
  Ba  Ba33  1  0.52280583  0.48463649  0.88129805  1
  Ba  Ba34  1  0.80146430  0.47584484  0.15616972  1
  Ba  Ba35  1  0.80591254  0.22140912  0.80825100  1
  Ba  Ba36  1  0.76731366  0.97833642  0.77728901  1
  Ba  Ba37  1  0.04359023  0.97555964  0.75528121  1
  Ba  Ba38  1  0.13685886  0.47310022  0.48989102  1
  Ba  Ba39  1  0.16758640  0.72735932  0.65845999  1
  Ba  Ba40  1  0.94429816  0.60626642  0.66244811  1
  Ba  Ba41  1  0.21169785  0.55262177  0.21874614  1
  Ba  Ba42  1  0.86217828  0.49121004  0.88787631  1
  Ba  Ba43  1  0.52158545  0.46472438  0.12618739  1
  Ba  Ba44  1  0.65113262  0.23277038  0.02971247  1
  Ba  Ba45  1  0.40338497  0.74497497  0.82120849  1
  Ba  Ba46  1  0.47836582  0.16920892  0.79690010  1
  Ba  Ba47  1  0.16636514  0.47421166  0.81190527  1
  Ba  Ba48  1  0.72908068  0.56377677  0.45086254  1
  Ba  Ba49  1  0.50305662  0.24424632  0.52160986  1
  O  O0  1  0.76546441  0.84960508  0.88859283  1
  O  O1  1  0.38222969  0.60050065  0.14312145  1
  O  O2  1  0.66115879  0.12764049  0.86102801  1
  O  O3  1  0.52160051  0.79765619  0.42699716  1
  O  O4  1  0.21470601  0.81309638  0.05827978  1
  O  O5  1  0.52438067  0.57440677  0.53088120  1
  O  O6  1  0.90877900  0.06074293  0.87468628  1
  O  O7  1  0.69153406  0.48507473  0.99391766  1
  O  O8  1  0.66323213  0.49541868  0.27572165  1
  O  O9  1  0.15212823  0.65459558  0.48358747  1
  O  O10  1  0.97750605  0.79562612  0.69702958  1
  O  O11  1  0.72314584  0.26436230  0.64766157  1
  O  O12  1  0.18313916  0.84153362  0.82127499  1
  O  O13  1  0.40611481  0.17193006  0.37030902  1
  O  O14  1  0.20190923  0.45621967  0.02088940  1
  O  O15  1  0.42125998  0.37328555  0.62727903  1
  O  O16  1  0.80447929  0.50620305  0.71748570  1
  O  O17  1  0.48882809  0.32728051  0.95902273  1
  O  O18  1  0.44882834  0.83021588  0.98326236  1
  O  O19  1  0.28634645  0.93898339  0.45687492  1
  O  O20  1  0.41934093  0.00516512  0.83166554  1
  O  O21  1  0.75213684  0.86122797  0.16715016  1
  O  O22  1  0.85999767  0.01394467  0.61720727  1
  O  O23  1  0.33656823  0.57750258  0.84535779  1
  O  O24  1  0.35113633  0.77318939  0.62997142  1
  O  O25  1  0.09368126  0.14429795  0.35938884  1
  O  O26  1  0.86178500  0.21616853  0.42602323  1
  O  O27  1  0.50016150  0.31161328  0.20964786  1
  O  O28  1  0.54957851  0.61968911  0.76302894  1
  O  O29  1  0.99172966  0.52972489  0.20050230  1
  O  O30  1  0.14824860  0.07742781  0.66355590  1
  O  O31  1  0.75080649  0.71292191  0.60376675  1
  O  O32  1  0.15302425  0.24995175  0.12592809  1
  O  O33  1  0.42730255  0.11771845  0.61442521  1
  O  O34  1  0.95341054  0.32961871  0.89537373  1
  O  O35  1  0.82333214  0.29737670  0.17426289  1
  O  O36  1  0.28194615  0.44825380  0.35257635  1
  O  O37  1  0.92443829  0.51193680  0.48402924  1
  O  O38  1  0.14849355  0.09140806  0.91452549  1
  O  O39  1  0.63080978  0.07095476  0.08356753  1
  O  O40  1  0.66496397  0.01009335  0.36537665  1
  O  O41  1  0.25512011  0.29502384  0.80939009  1
  O  O42  1  0.00548340  0.60783696  0.85514042  1
  O  O43  1  0.14593496  0.72338023  0.27317615  1
  O  O44  1  0.88173820  0.80743011  0.35153712  1
  O  O45  1  0.06253461  0.29307081  0.60690412  1
  O  O46  1  0.43681983  0.94290404  0.25509729  1
  O  O47  1  0.16717975  0.53854025  0.65642669  1
  O  O48  1  0.63738181  0.38702327  0.46293914  1
  O  O49  1  0.96656509  0.91802213  0.14332034  1
loop_
_geom_bond_atom_site_label_1
_geom_bond_atom_site_label_2
_geom_bond_distance
_geom_bond_site_symmetry_2
Ba0 O5 2.429778 1_555
Ba0 O3 2.478093 1_555
Ba0 O24 2.693140 1_555
Ba0 O31 2.702778 1_555
Ba0 O28 3.216838 1_555
Ba1 O9 2.486085 1_555
Ba1 O44 2.640099 1_455
Ba1 O43 2.652003 1_555
Ba1 O29 2.727819 1_455
Ba1 O37 3.046686 1_455
Ba2 O43 2.421804 1_555
Ba2 O4 2.437157 1_555
Ba2 O49 2.494890 1_455
Ba3 O41 2.499060 1_555
Ba3 O38 2.598689 1_555
Ba3 O30 2.671574 1_555
Ba3 O34 2.714641 1_455
Ba3 O45 3.019150 1_555
Ba4 O12 2.484654 1_555
Ba4 O38 2.559449 1_565
Ba4 O20 2.741673 1_565
Ba4 O18 2.801288 1_555
Ba4 O4 2.884129 1_556
Ba5 O31 2.562223 1_555
Ba5 O22 2.565848 1_565
Ba5 O10 2.598374 1_555
Ba5 O44 2.834330 1_555
Ba6 O28 2.525993 1_555
Ba6 O31 2.644338 1_555
Ba6 O0 2.654758 1_555
Ba6 O16 2.760471 1_555
Ba7 O21 2.595128 1_555
Ba7 O40 2.596930 1_565
Ba7 O3 2.597056 1_555
Ba7 O46 2.915964 1_555
Ba7 O44 3.373951 1_555
Ba8 O42 2.474973 1_555
Ba8 O12 2.605411 1_555
Ba8 O10 2.785951 1_455
Ba8 O4 3.361487 1_556
Ba8 O0 3.458665 1_455
Ba9 O25 2.541391 1_555
Ba9 O30 2.568690 1_555
Ba9 O45 2.588037 1_555
Ba9 O26 2.857232 1_455
Ba9 O22 3.312801 1_455
Ba10 O41 2.544812 1_555
Ba10 O17 2.585815 1_555
Ba10 O14 2.588270 1_556
Ba10 O32 3.075858 1_556
Ba11 O41 2.516515 1_555
Ba11 O15 2.688297 1_555
Ba11 O45 2.702868 1_555
Ba11 O33 2.816932 1_555
Ba11 O30 3.126348 1_555
Ba12 O19 2.516998 1_555
Ba12 O9 2.646321 1_555
Ba12 O24 2.842612 1_555
Ba12 O43 2.912304 1_555
Ba12 O3 3.062708 1_555
Ba13 O44 2.562641 1_555
Ba13 O21 2.652467 1_555
Ba13 O40 2.718710 1_565
Ba13 O49 2.813472 1_555
Ba14 O48 2.533969 1_555
Ba14 O27 2.691265 1_555
Ba14 O35 2.697374 1_555
Ba14 O8 2.707275 1_555
Ba14 O26 3.084530 1_555
Ba15 O36 2.520233 1_555
Ba15 O13 2.610013 1_555
Ba15 O27 2.653381 1_555
Ba15 O32 2.736412 1_555
Ba16 O38 2.359388 1_554
Ba16 O32 2.683706 1_555
Ba16 O6 2.736846 1_454
Ba17 O5 2.433911 1_555
Ba17 O36 2.672196 1_555
Ba17 O48 2.694731 1_555
Ba17 O8 2.957793 1_555
Ba17 O27 3.235095 1_555
Ba18 O25 2.476042 1_655
Ba18 O26 2.619617 1_555
Ba18 O35 2.657566 1_555
Ba19 O22 2.524891 1_555
Ba19 O11 2.562216 1_555
Ba19 O26 2.572638 1_555
Ba19 O40 2.750383 1_555
Ba20 O48 2.572303 1_555
Ba20 O16 2.665127 1_555
Ba20 O11 2.741141 1_555
Ba20 O5 2.757388 1_555
Ba20 O15 2.914504 1_555
Ba20 O28 3.045321 1_555
Ba21 O46 2.524868 1_545
Ba21 O39 2.574162 1_555
Ba21 O40 2.693058 1_555
Ba21 O13 2.810710 1_555
Ba21 O27 3.193062 1_555
Ba22 O3 2.528375 1_555
Ba22 O19 2.619275 1_555
Ba22 O46 2.798570 1_555
Ba22 O40 2.928781 1_565
Ba22 O33 2.977161 1_565
Ba22 O13 3.135884 1_565
Ba23 O15 2.499015 1_555
Ba23 O47 2.755149 1_555
Ba23 O5 2.769697 1_555
Ba23 O28 2.868985 1_555
Ba23 O23 2.880428 1_555
Ba23 O24 3.151312 1_555
Ba24 O14 2.500330 1_555
Ba24 O32 2.507744 1_555
Ba24 O34 2.700408 1_454
Ba24 O29 2.700820 1_455
Ba25 O30 2.558842 1_565
Ba25 O33 2.693591 1_565
Ba25 O20 2.781746 1_565
Ba25 O24 2.811700 1_555
Ba25 O19 2.815748 1_555
Ba26 O21 2.582785 1_555
Ba26 O0 2.586770 1_554
Ba26 O49 2.599867 1_555
Ba26 O39 2.707444 1_565
Ba26 O6 3.316173 1_564
Ba27 O23 2.549126 1_555
Ba27 O14 2.569081 1_556
Ba27 O1 2.592217 1_556
Ba27 O4 2.681509 1_556
Ba28 O45 2.552595 1_655
Ba28 O26 2.721435 1_555
Ba28 O37 2.728064 1_555
Ba28 O11 2.858118 1_555
Ba28 O16 2.951036 1_555
Ba29 O18 2.492019 1_555
Ba29 O20 2.526569 1_565
Ba29 O39 2.593448 1_566
Ba29 O0 3.039188 1_555
Ba29 O2 3.213362 1_565
Ba30 O18 2.455839 1_554
Ba30 O46 2.577076 1_555
Ba30 O4 2.629919 1_555
Ba30 O1 2.725575 1_555
Ba31 O21 2.416679 1_555
Ba31 O49 2.615043 1_555
Ba31 O44 2.716235 1_555
Ba31 O29 3.313961 1_555
Ba32 O25 2.458092 1_555
Ba32 O19 2.494064 1_545
Ba32 O13 2.500290 1_555
Ba32 O46 3.028973 1_545
Ba33 O7 2.634307 1_555
Ba33 O17 2.649791 1_555
Ba33 O28 2.730610 1_555
Ba33 O23 2.745528 1_555
Ba34 O35 2.530702 1_555
Ba34 O8 2.587965 1_555
Ba34 O7 2.644365 1_554
Ba34 O29 2.665056 1_555
Ba35 O11 2.579356 1_555
Ba35 O2 2.586768 1_555
Ba35 O34 2.668574 1_555
Ba35 O6 2.771858 1_555
Ba36 O6 2.488077 1_565
Ba36 O0 2.536936 1_555
Ba36 O2 2.667408 1_565
Ba36 O22 2.794519 1_565
Ba37 O30 2.572436 1_565
Ba37 O6 2.703087 1_465
Ba37 O10 2.723345 1_455
Ba37 O12 2.735159 1_555
Ba37 O38 2.935199 1_565
Ba37 O22 3.054903 1_465
Ba38 O47 2.463749 1_555
Ba38 O9 2.565119 1_555
Ba38 O37 2.817319 1_455
Ba38 O36 2.838759 1_555
Ba38 O45 3.407710 1_555
Ba39 O9 2.589784 1_555
Ba39 O24 2.615704 1_555
Ba39 O47 2.632376 1_555
Ba39 O12 2.670549 1_555
Ba39 O10 2.707471 1_455
Ba40 O16 2.602146 1_555
Ba40 O10 2.687299 1_555
Ba40 O37 2.737704 1_555
Ba40 O42 2.807315 1_655
Ba40 O31 2.984163 1_555
Ba40 O47 3.039030 1_655
Ba41 O43 2.547340 1_555
Ba41 O36 2.613685 1_555
Ba41 O1 2.726265 1_555
Ba41 O29 2.922700 1_455
Ba41 O14 2.991795 1_555
Ba42 O34 2.501942 1_555
Ba42 O16 2.522461 1_555
Ba42 O42 2.669267 1_655
Ba42 O7 2.830695 1_555
Ba43 O1 2.566868 1_555
Ba43 O27 2.605090 1_555
Ba43 O8 2.731893 1_555
Ba43 O17 2.911258 1_554
Ba43 O7 3.100683 1_554
Ba44 O39 2.504122 1_555
Ba44 O17 2.636076 1_554
Ba44 O2 2.689672 1_554
Ba44 O35 3.044507 1_555
Ba44 O27 3.433751 1_555
Ba45 O18 2.526143 1_555
Ba45 O23 2.614657 1_555
Ba45 O28 2.648468 1_555
Ba45 O24 2.833451 1_555
Ba45 O12 3.128937 1_555
Ba46 O2 2.563039 1_555
Ba46 O20 2.574912 1_555
Ba46 O33 2.670677 1_555
Ba46 O17 3.015624 1_555
Ba46 O41 3.345397 1_555
Ba47 O47 2.495800 1_555
Ba47 O41 2.695995 1_555
Ba47 O23 2.716993 1_555
Ba47 O42 2.803263 1_555
Ba47 O14 3.027453 1_556
Ba48 O37 2.652351 1_555
Ba48 O8 2.672079 1_555
Ba48 O48 2.838924 1_555
Ba48 O31 2.852581 1_555
Ba48 O5 3.010421 1_555
Ba49 O15 2.475430 1_555
Ba49 O13 2.555597 1_555
Ba49 O33 2.617750 1_555
Ba49 O48 2.977105 1_555
Ba49 O11 3.293471 1_555
