# generated using pymatgen
data_K3Tb
_symmetry_space_group_name_H-M   'P 1'
_cell_length_a   8.63841762
_cell_length_b   8.63841762
_cell_length_c   7.10983700
_cell_angle_alpha   90.00000000
_cell_angle_beta   90.00000000
_cell_angle_gamma   119.99999710
_symmetry_Int_Tables_number   1
_chemical_formula_structural   K3Tb
_chemical_formula_sum   'K6 Tb2'
_cell_volume   459.47160843
_cell_formula_units_Z   2
loop_
 _symmetry_equiv_pos_site_id
 _symmetry_equiv_pos_as_xyz
  1  'x, y, z'
loop_
 _atom_site_type_symbol
 _atom_site_label
 _atom_site_symmetry_multiplicity
 _atom_site_fract_x
 _atom_site_fract_y
 _atom_site_fract_z
 _atom_site_occupancy
  K  K0  1  0.17133600  0.34267200  0.25000000  1
  K  K1  1  0.65732800  0.82866400  0.25000000  1
  K  K2  1  0.17133600  0.82866400  0.25000000  1
  K  K3  1  0.82866400  0.65732800  0.75000000  1
  K  K4  1  0.34267200  0.17133600  0.75000000  1
  K  K5  1  0.82866400  0.17133600  0.75000000  1
  Tb  Tb0  1  0.33333300  0.66666700  0.75000000  1
  Tb  Tb1  1  0.66666700  0.33333300  0.25000000  1
loop_
_geom_bond_atom_site_label_1
_geom_bond_atom_site_label_2
_geom_bond_distance
_geom_bond_site_symmetry_2
K0 K2 4.198202 1_555
K0 K1 4.198202 1_555
K0 Tb0 4.302607 1_554
K0 Tb0 4.302607 1_555
K0 Tb1 4.319770 1_455
K0 Tb1 4.319778 1_555
K0 K4 4.382840 1_555
K0 K4 4.382840 1_554
K0 K5 4.382840 1_455
K0 K5 4.382840 1_454
K0 K2 4.440216 1_545
K0 K1 4.440216 1_445
K1 K2 4.198202 1_555
K1 Tb0 4.302607 1_554
K1 Tb0 4.302607 1_555
K1 Tb1 4.319770 1_565
K1 Tb1 4.319778 1_555
K1 K3 4.382840 1_555
K1 K3 4.382840 1_554
K1 K5 4.382840 1_565
K1 K5 4.382840 1_564
K1 K2 4.440216 1_655
K2 Tb0 4.302602 1_554
K2 Tb0 4.302602 1_555
K2 Tb1 4.319774 1_455
K2 Tb1 4.319774 1_565
K2 K4 4.382840 1_565
K2 K4 4.382840 1_564
K2 K3 4.382840 1_455
K2 K3 4.382840 1_454
K3 K5 4.198202 1_555
K3 K4 4.198202 1_555
K3 Tb1 4.302607 1_556
K3 Tb1 4.302607 1_555
K3 Tb0 4.319770 1_655
K3 Tb0 4.319778 1_555
K3 K5 4.440216 1_565
K3 K4 4.440216 1_665
K4 K5 4.198202 1_555
K4 Tb1 4.302607 1_556
K4 Tb1 4.302607 1_555
K4 Tb0 4.319770 1_545
K4 Tb0 4.319778 1_555
K4 K5 4.440216 1_455
K5 Tb1 4.302602 1_556
K5 Tb1 4.302602 1_555
K5 Tb0 4.319774 1_545
K5 Tb0 4.319774 1_655
