# generated using pymatgen
data_SrCaI4
_symmetry_space_group_name_H-M   'P 1'
_cell_length_a   9.05010996
_cell_length_b   9.05010996
_cell_length_c   7.72606133
_cell_angle_alpha   70.59227809
_cell_angle_beta   70.59227809
_cell_angle_gamma   110.59770964
_symmetry_Int_Tables_number   1
_chemical_formula_structural   SrCaI4
_chemical_formula_sum   'Sr2 Ca2 I8'
_cell_volume   480.97460034
_cell_formula_units_Z   2
loop_
 _symmetry_equiv_pos_site_id
 _symmetry_equiv_pos_as_xyz
  1  'x, y, z'
loop_
 _atom_site_type_symbol
 _atom_site_label
 _atom_site_symmetry_multiplicity
 _atom_site_fract_x
 _atom_site_fract_y
 _atom_site_fract_z
 _atom_site_occupancy
  Sr  Sr0  1  0.63519600  0.36480400  0.75000000  1
  Sr  Sr1  1  0.36480400  0.63519600  0.25000000  1
  Ca  Ca0  1  0.00041900  0.99958100  0.25000000  1
  Ca  Ca1  1  0.99958100  0.00041900  0.75000000  1
  I  I0  1  0.64083900  0.76170400  0.73171400  1
  I  I1  1  0.94356700  0.29608100  0.41521800  1
  I  I2  1  0.29608100  0.94356700  0.91521800  1
  I  I3  1  0.23829600  0.35916100  0.76828600  1
  I  I4  1  0.76170400  0.64083900  0.23171400  1
  I  I5  1  0.70391900  0.05643300  0.08478200  1
  I  I6  1  0.05643300  0.70391900  0.58478200  1
  I  I7  1  0.35916100  0.23829600  0.26828600  1
loop_
_geom_bond_atom_site_label_1
_geom_bond_atom_site_label_2
_geom_bond_distance
_geom_bond_site_symmetry_2
Ca0 I0 3.282233 1_455
Ca0 I3 3.282233 1_564
Ca0 I4 3.286420 1_455
Ca0 I7 3.286420 1_565
Ca0 I2 3.366485 1_554
Ca0 I6 3.366485 1_555
Ca0 I1 3.450485 1_465
Ca0 I5 3.450485 1_465
Ca1 I4 3.282233 1_546
Ca1 I7 3.282233 1_655
Ca1 I0 3.286420 1_545
Ca1 I3 3.286420 1_655
Ca1 I5 3.366485 1_556
Ca1 I1 3.366485 1_555
Ca1 I2 3.450485 1_645
Ca1 I6 3.450485 1_645
I0 Sr1 3.446567 1_556
I0 Sr0 3.528998 1_555
I1 Sr1 3.392914 1_655
I1 Sr0 3.515493 1_555
I2 Sr0 3.392914 1_565
I2 Sr1 3.515493 1_556
I3 Sr1 3.446567 1_555
I3 Sr0 3.528998 1_555
I4 Sr0 3.446567 1_555
I4 Sr1 3.528998 1_555
I5 Sr1 3.392914 1_545
I5 Sr0 3.515493 1_554
I6 Sr0 3.392914 1_455
I6 Sr1 3.515493 1_555
I7 Sr0 3.446567 1_554
I7 Sr1 3.528998 1_555
