# generated using pymatgen
data_MgCrH10O9
_symmetry_space_group_name_H-M   'P 1'
_cell_length_a   6.24806000
_cell_length_b   6.45712376
_cell_length_c   11.02137422
_cell_angle_alpha   75.23512731
_cell_angle_beta   81.03784602
_cell_angle_gamma   70.21237909
_symmetry_Int_Tables_number   1
_chemical_formula_structural   MgCrH10O9
_chemical_formula_sum   'Mg2 Cr2 H20 O18'
_cell_volume   403.39915270
_cell_formula_units_Z   2
loop_
 _symmetry_equiv_pos_site_id
 _symmetry_equiv_pos_as_xyz
  1  'x, y, z'
loop_
 _atom_site_type_symbol
 _atom_site_label
 _atom_site_symmetry_multiplicity
 _atom_site_fract_x
 _atom_site_fract_y
 _atom_site_fract_z
 _atom_site_occupancy
  Mg  Mg0  1  0.00000000  0.00000000  0.00000000  1
  Mg  Mg1  1  0.00000000  0.50000000  0.50000000  1
  Cr  Cr0  1  0.64799300  0.97838500  0.28972300  1
  Cr  Cr1  1  0.35200700  0.02161500  0.71027700  1
  H  H0  1  0.66094500  0.31959300  0.62756600  1
  H  H1  1  0.33905500  0.68040700  0.37243400  1
  H  H2  1  0.56306800  0.59197100  0.60554300  1
  H  H3  1  0.43693200  0.40802900  0.39445700  1
  H  H4  1  0.90303200  0.32288200  0.79396500  1
  H  H5  1  0.09696800  0.67711800  0.20603500  1
  H  H6  1  0.66423400  0.34130600  0.87242500  1
  H  H7  1  0.33576600  0.65869400  0.12757500  1
  H  H8  1  0.74926000  0.89736000  0.85950600  1
  H  H9  1  0.25074000  0.10264000  0.14049400  1
  H  H10  1  0.76749300  0.72062300  0.99276000  1
  H  H11  1  0.23250700  0.27937700  0.00724000  1
  H  H12  1  0.30360200  0.60709000  0.87385300  1
  H  H13  1  0.69639800  0.39291000  0.12614700  1
  H  H14  1  0.29402900  0.43022000  0.80171400  1
  H  H15  1  0.70597100  0.56978000  0.19828600  1
  H  H16  1  0.10194000  0.80198700  0.59359300  1
  H  H17  1  0.89806000  0.19801300  0.40640700  1
  H  H18  1  0.83200300  0.86014500  0.62018800  1
  H  H19  1  0.16799700  0.13985500  0.37981200  1
  O  O0  1  0.82646500  0.72108100  0.34022900  1
  O  O1  1  0.17353500  0.27891900  0.65977100  1
  O  O2  1  0.38438200  0.96157100  0.29472300  1
  O  O3  1  0.61561800  0.03842900  0.70527700  1
  O  O4  1  0.35297100  0.84734200  0.62281300  1
  O  O5  1  0.64702900  0.15265800  0.37718700  1
  O  O6  1  0.26660800  0.92225200  0.85840700  1
  O  O7  1  0.73339200  0.07774800  0.14159300  1
  O  O8  1  0.69962400  0.46114200  0.59598100  1
  O  O9  1  0.30037600  0.53885800  0.40401900  1
  O  O10  1  0.83117700  0.29513800  0.87952200  1
  O  O11  1  0.16882300  0.70486200  0.12047800  1
  O  O12  1  0.84106000  0.82370500  0.93274700  1
  O  O13  1  0.15894000  0.17629500  0.06725300  1
  O  O14  1  0.35670700  0.44380000  0.87418000  1
  O  O15  1  0.64329300  0.55620000  0.12582000  1
  O  O16  1  0.96861500  0.76089800  0.58159100  1
  O  O17  1  0.03138500  0.23910200  0.41840900  1
loop_
_geom_bond_atom_site_label_1
_geom_bond_atom_site_label_2
_geom_bond_distance
_geom_bond_site_symmetry_2
Mg0 O13 2.063072 1_555
Mg0 O12 2.063072 1_444
Mg0 O11 2.071992 1_545
Mg0 O10 2.071992 1_454
Mg0 O7 2.117869 1_455
Mg0 O6 2.117869 1_544
Mg1 O16 2.044185 1_455
Mg1 O17 2.044185 1_555
Mg1 O8 2.066212 1_455
Mg1 O9 2.066212 1_555
Mg1 O1 2.140059 1_555
Mg1 O0 2.140059 1_455
Cr0 O5 1.655928 1_565
Cr0 O0 1.667726 1_555
Cr0 O7 1.669791 1_565
Cr0 O2 1.678502 1_555
Cr1 O4 1.655928 1_545
Cr1 O1 1.667726 1_555
Cr1 O6 1.669791 1_545
Cr1 O3 1.678502 1_555
H0 O8 0.988002 1_555
H1 O9 0.988002 1_555
H2 O8 0.990997 1_555
H3 O9 0.990997 1_555
H4 O10 0.979425 1_555
H5 O11 0.979425 1_555
H6 O10 0.992966 1_555
H7 O11 0.992966 1_555
H8 O12 0.985216 1_555
H9 O13 0.985216 1_555
H10 O12 0.989864 1_555
H11 O13 0.989864 1_555
H12 O14 0.991663 1_555
H13 O15 0.991663 1_555
H14 O14 0.977410 1_555
H15 O15 0.977410 1_555
H16 O16 0.991806 1_455
H17 O17 0.991806 1_655
H18 O16 0.987763 1_555
H19 O17 0.987763 1_555
