# generated using pymatgen
data_UCu2(SiNi4)2
_symmetry_space_group_name_H-M   'P 1'
_cell_length_a   8.13816702
_cell_length_b   6.30248365
_cell_length_c   6.19360775
_cell_angle_alpha   81.26781474
_cell_angle_beta   49.94780974
_cell_angle_gamma   48.78437552
_symmetry_Int_Tables_number   1
_chemical_formula_structural   UCu2(SiNi4)2
_chemical_formula_sum   'U1 Cu2 Si2 Ni8'
_cell_volume   161.19372479
_cell_formula_units_Z   1
loop_
 _symmetry_equiv_pos_site_id
 _symmetry_equiv_pos_as_xyz
  1  'x, y, z'
loop_
 _atom_site_type_symbol
 _atom_site_label
 _atom_site_symmetry_multiplicity
 _atom_site_fract_x
 _atom_site_fract_y
 _atom_site_fract_z
 _atom_site_occupancy
  U  U0  1  0.00000000  0.00000000  0.00000000  1
  Cu  Cu0  1  0.00000000  0.00000000  0.50000000  1
  Cu  Cu1  1  0.50000000  0.50000000  0.00000000  1
  Si  Si0  1  0.00000000  0.50000000  0.00000000  1
  Si  Si1  1  0.50000000  0.00000000  0.50000000  1
  Ni  Ni0  1  0.72214000  0.50548700  0.49451300  1
  Ni  Ni1  1  0.27786000  0.49451300  0.50548700  1
  Ni  Ni2  1  0.50548700  0.72214000  0.27786000  1
  Ni  Ni3  1  0.49451300  0.27786000  0.72214000  1
  Ni  Ni4  1  0.65402600  0.99367000  0.00633000  1
  Ni  Ni5  1  0.34597400  0.00633000  0.99367000  1
  Ni  Ni6  1  0.99367000  0.65402600  0.34597400  1
  Ni  Ni7  1  0.00633000  0.34597400  0.65402600  1
loop_
_geom_bond_atom_site_label_1
_geom_bond_atom_site_label_2
_geom_bond_distance
_geom_bond_site_symmetry_2
Cu0 Ni1 2.415912 1_545
Cu0 Ni0 2.415912 1_455
Cu0 Ni3 2.415912 1_455
Cu0 Ni2 2.415912 1_545
Cu0 Cu1 2.434370 1_545
Cu0 Cu1 2.434370 1_456
Cu0 Ni4 2.551500 1_446
Cu0 Ni6 2.551500 1_445
Cu0 Ni5 2.551500 1_554
Cu0 Ni7 2.551500 1_555
Cu0 U0 3.096804 1_556
Cu0 U0 3.096804 1_555
Cu1 Ni1 2.415912 1_555
Cu1 Ni3 2.415912 1_554
Cu1 Ni2 2.415912 1_555
Cu1 Ni0 2.415912 1_554
Cu1 Ni4 2.551500 1_545
Cu1 Ni7 2.551500 1_654
Cu1 Ni6 2.551500 1_455
Cu1 Ni5 2.551500 1_564
Cu1 U0 3.096804 1_655
Cu1 U0 3.096804 1_565
Si0 Si1 2.434370 1_465
Si0 Si1 2.434370 1_554
Si0 U0 3.151242 1_565
Si0 U0 3.151242 1_555
Si1 U0 3.151242 1_556
Si1 U0 3.151242 1_655
Ni0 Si0 2.347581 1_655
Ni0 Si1 2.347581 1_565
Ni0 Ni2 2.467738 1_555
Ni0 Ni6 2.540483 1_555
Ni0 Ni7 2.628841 1_655
Ni0 Ni5 2.634789 1_565
Ni0 Ni5 2.634789 1_654
Ni0 Ni3 2.646555 1_555
Ni0 U0 3.033093 1_655
Ni0 U0 3.033093 1_566
Ni1 Si0 2.347581 1_556
Ni1 Si1 2.347581 1_555
Ni1 Ni3 2.467738 1_555
Ni1 Ni7 2.540483 1_555
Ni1 Ni6 2.628841 1_455
Ni1 Ni4 2.634789 1_545
Ni1 Ni4 2.634789 1_456
Ni1 Ni2 2.646555 1_555
Ni1 U0 3.033093 1_566
Ni1 U0 3.033093 1_655
Ni2 Si0 2.347581 1_655
Ni2 Si1 2.347581 1_565
Ni2 Ni4 2.540483 1_555
Ni2 Ni5 2.628841 1_564
Ni2 Ni7 2.634789 1_565
Ni2 Ni7 2.634789 1_654
Ni2 U0 3.033093 1_566
Ni2 U0 3.033093 1_655
Ni3 Si0 2.347581 1_556
Ni3 Si1 2.347581 1_555
Ni3 Ni5 2.540483 1_555
Ni3 Ni4 2.628841 1_546
Ni3 Ni6 2.634789 1_545
Ni3 Ni6 2.634789 1_456
Ni3 U0 3.033093 1_566
Ni3 U0 3.033093 1_655
Ni4 Si0 2.441382 1_655
Ni4 Si1 2.441382 1_565
Ni4 Ni5 2.506979 1_564
Ni4 U0 2.817123 1_665
Ni5 Si0 2.441382 1_556
Ni5 Si1 2.441382 1_555
Ni5 U0 2.817123 1_556
Ni6 Si0 2.441382 1_655
Ni6 Si1 2.441382 1_565
Ni6 Ni7 2.506979 1_655
Ni6 U0 2.817123 1_665
Ni7 Si0 2.441382 1_556
Ni7 Si1 2.441382 1_555
Ni7 U0 2.817123 1_556
