# generated using pymatgen
data_Cs2Li3B3P6(PbO12)2
_symmetry_space_group_name_H-M   'P 1'
_cell_length_a   12.95484987
_cell_length_b   12.95484987
_cell_length_c   12.95484987
_cell_angle_alpha   90.00000000
_cell_angle_beta   90.00000000
_cell_angle_gamma   90.00000000
_symmetry_Int_Tables_number   1
_chemical_formula_structural   Cs2Li3B3P6(PbO12)2
_chemical_formula_sum   'Cs8 Li12 B12 P24 Pb8 O96'
_cell_volume   2174.18829489
_cell_formula_units_Z   4
loop_
 _symmetry_equiv_pos_site_id
 _symmetry_equiv_pos_as_xyz
  1  'x, y, z'
loop_
 _atom_site_type_symbol
 _atom_site_label
 _atom_site_symmetry_multiplicity
 _atom_site_fract_x
 _atom_site_fract_y
 _atom_site_fract_z
 _atom_site_occupancy
  Cs  Cs0  1  0.64866443  0.35133557  0.85133557  1
  Cs  Cs1  1  0.14866443  0.14866443  0.14866443  1
  Cs  Cs2  1  0.85133557  0.64866443  0.35133557  1
  Cs  Cs3  1  0.35133557  0.85133557  0.64866443  1
  Cs  Cs4  1  0.65190207  0.84809793  0.15190207  1
  Cs  Cs5  1  0.84809793  0.15190207  0.65190207  1
  Cs  Cs6  1  0.34809793  0.34809793  0.34809793  1
  Cs  Cs7  1  0.15190207  0.65190207  0.84809793  1
  Li  Li0  1  0.69614597  0.56190922  0.09978564  1
  Li  Li1  1  0.90021436  0.19614597  0.93809078  1
  Li  Li2  1  0.06190922  0.40021436  0.30385403  1
  Li  Li3  1  0.19614597  0.93809078  0.90021436  1
  Li  Li4  1  0.40021436  0.30385403  0.06190922  1
  Li  Li5  1  0.56190922  0.09978564  0.69614597  1
  Li  Li6  1  0.30385403  0.06190922  0.40021436  1
  Li  Li7  1  0.09978564  0.69614597  0.56190922  1
  Li  Li8  1  0.93809078  0.90021436  0.19614597  1
  Li  Li9  1  0.80385403  0.43809078  0.59978564  1
  Li  Li10  1  0.59978564  0.80385403  0.43809078  1
  Li  Li11  1  0.43809078  0.59978564  0.80385403  1
  B  B0  1  0.64668053  0.13205407  0.11846932  1
  B  B1  1  0.88153068  0.14668053  0.36794593  1
  B  B2  1  0.63205407  0.38153068  0.35331947  1
  B  B3  1  0.14668053  0.36794593  0.88153068  1
  B  B4  1  0.38153068  0.35331947  0.63205407  1
  B  B5  1  0.13205407  0.11846932  0.64668053  1
  B  B6  1  0.35331947  0.63205407  0.38153068  1
  B  B7  1  0.11846932  0.64668053  0.13205407  1
  B  B8  1  0.36794593  0.88153068  0.14668053  1
  B  B9  1  0.85331947  0.86794593  0.61846932  1
  B  B10  1  0.61846932  0.85331947  0.86794593  1
  B  B11  1  0.86794593  0.61846932  0.85331947  1
  P  P0  1  0.94606253  0.41449783  0.81669796  1
  P  P1  1  0.18330204  0.44606253  0.08550217  1
  P  P2  1  0.91449783  0.68330204  0.05393747  1
  P  P3  1  0.44606253  0.08550217  0.18330204  1
  P  P4  1  0.68330204  0.05393747  0.91449783  1
  P  P5  1  0.41449783  0.81669796  0.94606253  1
  P  P6  1  0.05393747  0.91449783  0.68330204  1
  P  P7  1  0.81669796  0.94606253  0.41449783  1
  P  P8  1  0.08550217  0.18330204  0.44606253  1
  P  P9  1  0.55393747  0.58550217  0.31669796  1
  P  P10  1  0.31669796  0.55393747  0.58550217  1
  P  P11  1  0.58550217  0.31669796  0.55393747  1
  P  P12  1  0.62158534  0.34620796  0.13757820  1
  P  P13  1  0.86242180  0.12158534  0.15379204  1
  P  P14  1  0.84620796  0.36242180  0.37841466  1
  P  P15  1  0.12158534  0.15379204  0.86242180  1
  P  P16  1  0.36242180  0.37841466  0.84620796  1
  P  P17  1  0.34620796  0.13757820  0.62158534  1
  P  P18  1  0.37841466  0.84620796  0.36242180  1
  P  P19  1  0.13757820  0.62158534  0.34620796  1
  P  P20  1  0.15379204  0.86242180  0.12158534  1
  P  P21  1  0.87841466  0.65379204  0.63757820  1
  P  P22  1  0.63757820  0.87841466  0.65379204  1
  P  P23  1  0.65379204  0.63757820  0.87841466  1
  Pb  Pb0  1  0.59617900  0.59617900  0.59617900  1
  Pb  Pb1  1  0.40382100  0.09617900  0.90382100  1
  Pb  Pb2  1  0.09617900  0.90382100  0.40382100  1
  Pb  Pb3  1  0.90382100  0.40382100  0.09617900  1
  Pb  Pb4  1  0.44001560  0.55998440  0.05998440  1
  Pb  Pb5  1  0.94001560  0.94001560  0.94001560  1
  Pb  Pb6  1  0.05998440  0.44001560  0.55998440  1
  Pb  Pb7  1  0.55998440  0.05998440  0.44001560  1
  O  O0  1  0.59694687  0.59724273  0.20774402  1
  O  O1  1  0.79225598  0.09694687  0.90275727  1
  O  O2  1  0.09724273  0.29225598  0.40305313  1
  O  O3  1  0.09694687  0.90275727  0.79225598  1
  O  O4  1  0.29225598  0.40305313  0.09724273  1
  O  O5  1  0.59724273  0.20774402  0.59694687  1
  O  O6  1  0.40305313  0.09724273  0.29225598  1
  O  O7  1  0.20774402  0.59694687  0.59724273  1
  O  O8  1  0.90275727  0.79225598  0.09694687  1
  O  O9  1  0.90305313  0.40275727  0.70774402  1
  O  O10  1  0.70774402  0.90305313  0.40275727  1
  O  O11  1  0.40275727  0.70774402  0.90305313  1
  O  O12  1  0.06704385  0.40045967  0.80673240  1
  O  O13  1  0.19326760  0.56704385  0.09954033  1
  O  O14  1  0.90045967  0.69326760  0.93295615  1
  O  O15  1  0.56704385  0.09954033  0.19326760  1
  O  O16  1  0.69326760  0.93295615  0.90045967  1
  O  O17  1  0.40045967  0.80673240  0.06704385  1
  O  O18  1  0.93295615  0.90045967  0.69326760  1
  O  O19  1  0.80673240  0.06704385  0.40045967  1
  O  O20  1  0.09954033  0.19326760  0.56704385  1
  O  O21  1  0.43295615  0.59954033  0.30673240  1
  O  O22  1  0.30673240  0.43295615  0.59954033  1
  O  O23  1  0.59954033  0.30673240  0.43295615  1
  O  O24  1  0.71383026  0.41359381  0.10628987  1
  O  O25  1  0.89371013  0.21383026  0.08640619  1
  O  O26  1  0.91359381  0.39371013  0.28616974  1
  O  O27  1  0.21383026  0.08640619  0.89371013  1
  O  O28  1  0.39371013  0.28616974  0.91359381  1
  O  O29  1  0.41359381  0.10628987  0.71383026  1
  O  O30  1  0.28616974  0.91359381  0.39371013  1
  O  O31  1  0.10628987  0.71383026  0.41359381  1
  O  O32  1  0.08640619  0.89371013  0.21383026  1
  O  O33  1  0.78616974  0.58640619  0.60628987  1
  O  O34  1  0.60628987  0.78616974  0.58640619  1
  O  O35  1  0.58640619  0.60628987  0.78616974  1
  O  O36  1  0.93690735  0.52833902  0.85987358  1
  O  O37  1  0.14012642  0.43690735  0.97166098  1
  O  O38  1  0.02833902  0.64012642  0.06309265  1
  O  O39  1  0.43690735  0.97166098  0.14012642  1
  O  O40  1  0.64012642  0.06309265  0.02833902  1
  O  O41  1  0.52833902  0.85987358  0.93690735  1
  O  O42  1  0.06309265  0.02833902  0.64012642  1
  O  O43  1  0.85987358  0.93690735  0.52833902  1
  O  O44  1  0.97166098  0.14012642  0.43690735  1
  O  O45  1  0.56309265  0.47166098  0.35987358  1
  O  O46  1  0.35987358  0.56309265  0.47166098  1
  O  O47  1  0.47166098  0.35987358  0.56309265  1
  O  O48  1  0.89821768  0.34053537  0.89534749  1
  O  O49  1  0.10465251  0.39821768  0.15946463  1
  O  O50  1  0.84053537  0.60465251  0.10178232  1
  O  O51  1  0.39821768  0.15946463  0.10465251  1
  O  O52  1  0.60465251  0.10178232  0.84053537  1
  O  O53  1  0.34053537  0.89534749  0.89821768  1
  O  O54  1  0.10178232  0.84053537  0.60465251  1
  O  O55  1  0.89534749  0.89821768  0.34053537  1
  O  O56  1  0.15946463  0.10465251  0.39821768  1
  O  O57  1  0.60178232  0.65946463  0.39534749  1
  O  O58  1  0.39534749  0.60178232  0.65946463  1
  O  O59  1  0.65946463  0.39534749  0.60178232  1
  O  O60  1  0.63312347  0.23888499  0.08196633  1
  O  O61  1  0.91803367  0.13312347  0.26111501  1
  O  O62  1  0.73888499  0.41803367  0.36687653  1
  O  O63  1  0.13312347  0.26111501  0.91803367  1
  O  O64  1  0.41803367  0.36687653  0.73888499  1
  O  O65  1  0.23888499  0.08196633  0.63312347  1
  O  O66  1  0.36687653  0.73888499  0.41803367  1
  O  O67  1  0.08196633  0.63312347  0.23888499  1
  O  O68  1  0.26111501  0.91803367  0.13312347  1
  O  O69  1  0.86687653  0.76111501  0.58196633  1
  O  O70  1  0.58196633  0.86687653  0.76111501  1
  O  O71  1  0.76111501  0.58196633  0.86687653  1
  O  O72  1  0.61847121  0.32367405  0.25584734  1
  O  O73  1  0.74415266  0.11847121  0.17632595  1
  O  O74  1  0.82367405  0.24415266  0.38152879  1
  O  O75  1  0.11847121  0.17632595  0.74415266  1
  O  O76  1  0.24415266  0.38152879  0.82367405  1
  O  O77  1  0.32367405  0.25584734  0.61847121  1
  O  O78  1  0.38152879  0.82367405  0.24415266  1
  O  O79  1  0.25584734  0.61847121  0.32367405  1
  O  O80  1  0.17632595  0.74415266  0.11847121  1
  O  O81  1  0.88152879  0.67632595  0.75584734  1
  O  O82  1  0.75584734  0.88152879  0.67632595  1
  O  O83  1  0.67632595  0.75584734  0.88152879  1
  O  O84  1  0.51862430  0.39206258  0.10077985  1
  O  O85  1  0.89922015  0.01862430  0.10793742  1
  O  O86  1  0.89206258  0.39922015  0.48137570  1
  O  O87  1  0.01862430  0.10793742  0.89922015  1
  O  O88  1  0.39922015  0.48137570  0.89206258  1
  O  O89  1  0.39206258  0.10077985  0.51862430  1
  O  O90  1  0.48137570  0.89206258  0.39922015  1
  O  O91  1  0.10077985  0.51862430  0.39206258  1
  O  O92  1  0.10793742  0.89922015  0.01862430  1
  O  O93  1  0.98137570  0.60793742  0.60077985  1
  O  O94  1  0.60077985  0.98137570  0.60793742  1
  O  O95  1  0.60793742  0.60077985  0.98137570  1
loop_
_geom_bond_atom_site_label_1
_geom_bond_atom_site_label_2
_geom_bond_distance
_geom_bond_site_symmetry_2
Cs0 O52 3.285798 1_555
Cs0 O48 3.285798 1_555
Cs0 O59 3.285798 1_555
Cs0 O60 3.330107 1_556
Cs0 O64 3.330107 1_555
Cs0 O71 3.330107 1_555
Cs0 O24 3.503188 1_556
Cs0 O28 3.503188 1_555
Cs0 O35 3.503188 1_555
Cs1 O51 3.285798 1_555
Cs1 O49 3.285798 1_555
Cs1 O56 3.285798 1_555
Cs1 O68 3.330107 1_545
Cs1 O63 3.330107 1_554
Cs1 O61 3.330107 1_455
Cs1 O25 3.503188 1_455
Cs1 O32 3.503188 1_545
Cs1 O27 3.503188 1_554
Cs2 O50 3.285798 1_555
Cs2 O57 3.285798 1_555
Cs2 O55 3.285798 1_555
Cs2 O67 3.330107 1_655
Cs2 O62 3.330107 1_555
Cs2 O69 3.330107 1_555
Cs2 O31 3.503188 1_655
Cs2 O26 3.503188 1_555
Cs2 O33 3.503188 1_555
Cs3 O54 3.285798 1_555
Cs3 O53 3.285798 1_555
Cs3 O58 3.285798 1_555
Cs3 O65 3.330107 1_565
Cs3 O66 3.330107 1_555
Cs3 O70 3.330107 1_555
Cs3 O29 3.503188 1_565
Cs3 O30 3.503188 1_555
Cs3 O34 3.503188 1_555
Cs4 O39 3.216072 1_555
Cs4 O40 3.216072 1_565
Cs4 O41 3.216072 1_554
Cs4 O0 3.404606 1_555
Cs4 O10 3.404606 1_555
Cs4 O8 3.404606 1_555
Cs5 O42 3.216072 1_655
Cs5 O43 3.216072 1_545
Cs5 O44 3.216072 1_555
Cs5 O5 3.404606 1_555
Cs5 O9 3.404606 1_555
Cs5 O1 3.404606 1_555
Cs6 O45 3.216072 1_555
Cs6 O46 3.216072 1_555
Cs6 O47 3.216072 1_555
Cs6 O4 3.404606 1_555
Cs6 O6 3.404606 1_555
Cs6 O2 3.404606 1_555
Cs7 O37 3.216072 1_555
Cs7 O38 3.216072 1_556
Cs7 O36 3.216072 1_455
Cs7 O7 3.404606 1_555
Cs7 O11 3.404606 1_555
Cs7 O3 3.404606 1_555
Li0 O24 1.936848 1_555
Li0 O50 1.950954 1_555
Li0 O0 1.953733 1_555
Li0 O95 1.978006 1_554
Li1 O25 1.936848 1_556
Li1 O48 1.950954 1_555
Li1 O1 1.953733 1_555
Li1 O87 1.978006 1_655
Li2 O26 1.936848 1_455
Li2 O49 1.950954 1_555
Li2 O2 1.953733 1_555
Li2 O91 1.978006 1_555
Li3 O27 1.936848 1_565
Li3 O53 1.950954 1_555
Li3 O3 1.953733 1_555
Li3 O92 1.978006 1_556
Li4 O28 1.936848 1_554
Li4 O51 1.950954 1_555
Li4 O4 1.953733 1_555
Li4 O84 1.978006 1_555
Li5 O29 1.936848 1_555
Li5 O52 1.950954 1_555
Li5 O5 1.953733 1_555
Li5 O94 1.978006 1_545
Li6 O30 1.936848 1_545
Li6 O56 1.950954 1_555
Li6 O6 1.953733 1_555
Li6 O89 1.978006 1_555
Li7 O31 1.936848 1_555
Li7 O54 1.950954 1_555
Li7 O7 1.953733 1_555
Li7 O93 1.978006 1_455
Li8 O32 1.936848 1_655
Li8 O55 1.950954 1_555
Li8 O8 1.953733 1_555
Li8 O85 1.978006 1_565
Li9 O33 1.936848 1_555
Li9 O59 1.950954 1_555
Li9 O9 1.953733 1_555
Li9 O86 1.978006 1_555
Li10 O34 1.936848 1_555
Li10 O57 1.950954 1_555
Li10 O10 1.953733 1_555
Li10 O90 1.978006 1_555
Li11 O35 1.936848 1_555
Li11 O58 1.950954 1_555
Li11 O11 1.953733 1_555
Li11 O88 1.978006 1_555
B0 O40 1.472648 1_555
B0 O60 1.473047 1_555
B0 O15 1.476735 1_555
B0 O73 1.478937 1_555
B1 O44 1.472648 1_555
B1 O61 1.473047 1_555
B1 O19 1.476735 1_555
B1 O74 1.478937 1_555
B2 O45 1.472648 1_555
B2 O62 1.473047 1_555
B2 O23 1.476735 1_555
B2 O72 1.478937 1_555
B3 O37 1.472648 1_555
B3 O63 1.473047 1_555
B3 O12 1.476735 1_555
B3 O76 1.478937 1_555
B4 O47 1.472648 1_555
B4 O64 1.473047 1_555
B4 O22 1.476735 1_555
B4 O77 1.478937 1_555
B5 O42 1.472648 1_555
B5 O65 1.473047 1_555
B5 O20 1.476735 1_555
B5 O75 1.478937 1_555
B6 O46 1.472648 1_555
B6 O66 1.473047 1_555
B6 O21 1.476735 1_555
B6 O79 1.478937 1_555
B7 O38 1.472648 1_555
B7 O67 1.473047 1_555
B7 O13 1.476735 1_555
B7 O80 1.478937 1_555
B8 O39 1.472648 1_555
B8 O68 1.473047 1_555
B8 O17 1.476735 1_555
B8 O78 1.478937 1_555
B9 O43 1.472648 1_555
B9 O69 1.473047 1_555
B9 O18 1.476735 1_555
B9 O82 1.478937 1_555
B10 O41 1.472648 1_555
B10 O70 1.473047 1_555
B10 O16 1.476735 1_555
B10 O83 1.478937 1_555
B11 O36 1.472648 1_555
B11 O71 1.473047 1_555
B11 O14 1.476735 1_555
B11 O81 1.478937 1_555
O0 P9 1.525079 1_555
O1 P4 1.525079 1_555
O2 P8 1.525079 1_555
O3 P6 1.525079 1_555
O4 P1 1.525079 1_555
O5 P11 1.525079 1_555
O6 P3 1.525079 1_555
O7 P10 1.525079 1_555
O8 P2 1.525079 1_555
O9 P0 1.525079 1_555
O10 P7 1.525079 1_555
O11 P5 1.525079 1_555
O12 P0 1.583084 1_455
O13 P1 1.583084 1_555
O14 P2 1.583084 1_556
O15 P3 1.583084 1_555
O16 P4 1.583084 1_565
O17 P5 1.583084 1_554
O18 P6 1.583084 1_655
O19 P7 1.583084 1_545
O20 P8 1.583084 1_555
O21 P9 1.583084 1_555
O22 P10 1.583084 1_555
O23 P11 1.583084 1_555
O24 P12 1.534422 1_555
O24 Pb3 2.468034 1_555
O25 P13 1.534422 1_555
O25 Pb3 2.468034 1_555
O26 P14 1.534422 1_555
O26 Pb3 2.468034 1_555
O27 P15 1.534422 1_555
O27 Pb1 2.468034 1_555
O28 P16 1.534422 1_555
O28 Pb1 2.468034 1_555
O29 P17 1.534422 1_555
O29 Pb1 2.468034 1_555
O30 P18 1.534422 1_555
O30 Pb2 2.468034 1_555
O31 P19 1.534422 1_555
O31 Pb2 2.468034 1_555
O32 P20 1.534422 1_555
O32 Pb2 2.468034 1_555
O33 P21 1.534422 1_555
O33 Pb0 2.468034 1_555
O34 P22 1.534422 1_555
O34 Pb0 2.468034 1_555
O35 P23 1.534422 1_555
O35 Pb0 2.468034 1_555
O36 P0 1.581753 1_555
O37 P1 1.581753 1_556
O38 P2 1.581753 1_455
O39 P3 1.581753 1_565
O40 P4 1.581753 1_554
O41 P5 1.581753 1_555
O42 P6 1.581753 1_545
O43 P7 1.581753 1_555
O44 P8 1.581753 1_655
O45 P9 1.581753 1_555
O46 P10 1.581753 1_555
O47 P11 1.581753 1_555
O48 P0 1.529842 1_555
O48 Pb3 2.728827 1_556
O49 P1 1.529842 1_555
O49 Pb3 2.728827 1_455
O50 P2 1.529842 1_555
O50 Pb3 2.728827 1_555
O51 P3 1.529842 1_555
O51 Pb1 2.728827 1_554
O52 P4 1.529842 1_555
O52 Pb1 2.728827 1_555
O53 P5 1.529842 1_555
O53 Pb1 2.728827 1_565
O54 P6 1.529842 1_555
O54 Pb2 2.728827 1_555
O55 P7 1.529842 1_555
O55 Pb2 2.728827 1_655
O56 P8 1.529842 1_555
O56 Pb2 2.728827 1_545
O57 P9 1.529842 1_555
O57 Pb0 2.728827 1_555
O58 P10 1.529842 1_555
O58 Pb0 2.728827 1_555
O59 P11 1.529842 1_555
O59 Pb0 2.728827 1_555
O60 P12 1.573043 1_555
O61 P13 1.573043 1_555
O62 P14 1.573043 1_555
O63 P15 1.573043 1_555
O64 P16 1.573043 1_555
O65 P17 1.573043 1_555
O66 P18 1.573043 1_555
O67 P19 1.573043 1_555
O68 P20 1.573043 1_555
O69 P21 1.573043 1_555
O70 P22 1.573043 1_555
O71 P23 1.573043 1_555
O72 P12 1.560243 1_555
O73 P13 1.560243 1_555
O74 P14 1.560243 1_555
O75 P15 1.560243 1_555
O76 P16 1.560243 1_555
O77 P17 1.560243 1_555
O78 P18 1.560243 1_555
O79 P19 1.560243 1_555
O80 P20 1.560243 1_555
O81 P21 1.560243 1_555
O82 P22 1.560243 1_555
O83 P23 1.560243 1_555
O84 P12 1.535996 1_555
O84 Pb4 2.459421 1_555
O85 P13 1.535996 1_555
O85 Pb5 2.459421 1_544
O86 P14 1.535996 1_555
O86 Pb6 2.459421 1_655
O87 P15 1.535996 1_555
O87 Pb5 2.459421 1_445
O88 P16 1.535996 1_555
O88 Pb4 2.459421 1_556
O89 P17 1.535996 1_555
O89 Pb7 2.459421 1_555
O90 P18 1.535996 1_555
O90 Pb7 2.459421 1_565
O91 P19 1.535996 1_555
O91 Pb6 2.459421 1_555
O92 P20 1.535996 1_555
O92 Pb5 2.459421 1_454
O93 P21 1.535996 1_555
O93 Pb6 2.459421 1_655
O94 P22 1.535996 1_555
O94 Pb7 2.459421 1_565
O95 P23 1.535996 1_555
O95 Pb4 2.459421 1_556
