# generated using pymatgen
data_Li2Fe(CoO3)2
_symmetry_space_group_name_H-M   'P 1'
_cell_length_a   5.24650068
_cell_length_b   10.20832961
_cell_length_c   5.15427062
_cell_angle_alpha   90.14007704
_cell_angle_beta   57.72011717
_cell_angle_gamma   90.21527313
_symmetry_Int_Tables_number   1
_chemical_formula_structural   Li2Fe(CoO3)2
_chemical_formula_sum   'Li4 Fe2 Co4 O12'
_cell_volume   233.38671421
_cell_formula_units_Z   2
loop_
 _symmetry_equiv_pos_site_id
 _symmetry_equiv_pos_as_xyz
  1  'x, y, z'
loop_
 _atom_site_type_symbol
 _atom_site_label
 _atom_site_symmetry_multiplicity
 _atom_site_fract_x
 _atom_site_fract_y
 _atom_site_fract_z
 _atom_site_occupancy
  Li  Li0  1  0.13884100  0.75129700  0.50030700  1
  Li  Li1  1  0.36767200  0.25154700  0.48808600  1
  Li  Li2  1  0.63594900  0.74897200  0.50615600  1
  Li  Li3  1  0.86089300  0.24865900  0.49997000  1
  Fe  Fe0  1  0.99374100  0.00164000  0.01511200  1
  Fe  Fe1  1  0.50383000  0.50152100  0.98678100  1
  Co  Co0  1  0.33398100  0.99831400  0.33674400  1
  Co  Co1  1  0.66009300  0.00068300  0.67050900  1
  Co  Co2  1  0.83989300  0.49977800  0.32810700  1
  Co  Co3  1  0.16382900  0.49929300  0.66503500  1
  O  O0  1  0.16124200  0.59501300  0.98803700  1
  O  O1  1  0.33879300  0.09246100  0.01090800  1
  O  O2  1  0.63999300  0.90550600  0.03997300  1
  O  O3  1  0.86129900  0.40303500  0.96112700  1
  O  O4  1  0.96266500  0.88980000  0.36343200  1
  O  O5  1  0.17755200  0.39423600  0.34655600  1
  O  O6  1  0.46455000  0.60468600  0.35918100  1
  O  O7  1  0.67435800  0.11356100  0.35098300  1
  O  O8  1  0.03763500  0.10338500  0.64258600  1
  O  O9  1  0.32088500  0.89413000  0.65272600  1
  O  O10  1  0.53553700  0.38941500  0.63682800  1
  O  O11  1  0.82676800  0.61306900  0.65085700  1
loop_
_geom_bond_atom_site_label_1
_geom_bond_atom_site_label_2
_geom_bond_distance
_geom_bond_site_symmetry_2
Li0 O11 1.976097 1_455
Li0 O4 2.015523 1_455
Li0 O6 2.091750 1_555
Li0 O9 2.107314 1_555
Li1 O7 1.967281 1_555
Li1 O10 2.012654 1_555
Li1 O8 2.105564 1_555
Li1 O5 2.107634 1_555
Li2 O9 2.044011 1_555
Li2 O4 2.045948 1_555
Li2 O6 2.065000 1_555
Li2 O11 2.072744 1_555
Li3 O5 2.043983 1_655
Li3 O10 2.050210 1_555
Li3 O7 2.058361 1_555
Li3 O8 2.084036 1_655
Fe0 O7 2.004098 1_555
Fe0 O1 2.020611 1_655
Fe0 O2 2.038853 1_545
Fe0 O9 2.054045 1_644
Fe0 O4 2.061374 1_545
Fe0 O8 2.086686 1_654
Fe1 O11 2.006731 1_555
Fe1 O0 2.035179 1_555
Fe1 O5 2.042983 1_556
Fe1 O10 2.064395 1_555
Fe1 O3 2.072261 1_555
Fe1 O6 2.098835 1_556
Co0 O2 1.787805 1_555
Co0 O8 1.854510 1_565
Co0 O9 1.917490 1_555
Co0 O1 1.925431 1_565
Co0 O7 2.168481 1_565
Co0 O4 2.177029 1_455
Co1 O4 1.904584 1_545
Co1 O1 1.908528 1_556
Co1 O7 1.980586 1_555
Co1 O2 2.091729 1_546
Co1 O9 2.125541 1_545
Co1 O8 2.173475 1_655
Co2 O10 1.905880 1_555
Co2 O0 1.923416 1_654
Co2 O11 1.994609 1_555
Co2 O3 2.081000 1_554
Co2 O5 2.122012 1_655
Co2 O6 2.174529 1_555
Co3 O3 1.795062 1_455
Co3 O6 1.863032 1_555
Co3 O0 1.922158 1_555
Co3 O5 1.927613 1_555
Co3 O11 2.153003 1_455
Co3 O10 2.189802 1_555
