# generated using pymatgen
data_CaMg14NiO16
_symmetry_space_group_name_H-M   'P 1'
_cell_length_a   4.31889000
_cell_length_b   8.57985600
_cell_length_c   8.58993100
_cell_angle_alpha   90.00000000
_cell_angle_beta   90.00000000
_cell_angle_gamma   90.00000000
_symmetry_Int_Tables_number   1
_chemical_formula_structural   CaMg14NiO16
_chemical_formula_sum   'Ca1 Mg14 Ni1 O16'
_cell_volume   318.30379544
_cell_formula_units_Z   1
loop_
 _symmetry_equiv_pos_site_id
 _symmetry_equiv_pos_as_xyz
  1  'x, y, z'
loop_
 _atom_site_type_symbol
 _atom_site_label
 _atom_site_symmetry_multiplicity
 _atom_site_fract_x
 _atom_site_fract_y
 _atom_site_fract_z
 _atom_site_occupancy
  Ca  Ca0  1  0.00000000  0.00000000  0.00000000  1
  Mg  Mg0  1  0.00000000  0.00000000  0.50000000  1
  Mg  Mg1  1  0.00000000  0.50000000  0.50000000  1
  Mg  Mg2  1  0.50000000  0.74321100  0.00000000  1
  Mg  Mg3  1  0.50000000  0.25678900  0.00000000  1
  Mg  Mg4  1  0.50000000  0.74898100  0.50000000  1
  Mg  Mg5  1  0.50000000  0.25101900  0.50000000  1
  Mg  Mg6  1  0.50000000  0.00000000  0.74433300  1
  Mg  Mg7  1  0.50000000  0.50000000  0.75031200  1
  Mg  Mg8  1  0.50000000  0.00000000  0.25566700  1
  Mg  Mg9  1  0.50000000  0.50000000  0.24968800  1
  Mg  Mg10  1  0.00000000  0.74603300  0.74700100  1
  Mg  Mg11  1  0.00000000  0.25396700  0.74700100  1
  Mg  Mg12  1  0.00000000  0.74603300  0.25299900  1
  Mg  Mg13  1  0.00000000  0.25396700  0.25299900  1
  Ni  Ni0  1  0.00000000  0.50000000  0.00000000  1
  O  O0  1  0.00000000  0.00000000  0.73655100  1
  O  O1  1  0.00000000  0.50000000  0.74605200  1
  O  O2  1  0.00000000  0.00000000  0.26344900  1
  O  O3  1  0.00000000  0.50000000  0.25394800  1
  O  O4  1  0.50000000  0.74945000  0.75040000  1
  O  O5  1  0.50000000  0.25055000  0.75040000  1
  O  O6  1  0.50000000  0.74945000  0.24960000  1
  O  O7  1  0.50000000  0.25055000  0.24960000  1
  O  O8  1  0.50000000  0.00000000  0.00000000  1
  O  O9  1  0.50000000  0.50000000  0.00000000  1
  O  O10  1  0.50000000  0.00000000  0.50000000  1
  O  O11  1  0.50000000  0.50000000  0.50000000  1
  O  O12  1  0.00000000  0.73701500  0.00000000  1
  O  O13  1  0.00000000  0.26298500  0.00000000  1
  O  O14  1  0.00000000  0.74739900  0.50000000  1
  O  O15  1  0.00000000  0.25260100  0.50000000  1
loop_
_geom_bond_atom_site_label_1
_geom_bond_atom_site_label_2
_geom_bond_distance
_geom_bond_site_symmetry_2
Ca0 O8 2.159445 1_555
Ca0 O8 2.159445 1_455
Ca0 O13 2.256373 1_555
Ca0 O12 2.256373 1_545
Ca0 O2 2.263009 1_555
Ca0 O0 2.263009 1_554
Mg0 O0 2.031957 1_555
Mg0 O2 2.031957 1_555
Mg0 O10 2.159445 1_455
Mg0 O10 2.159445 1_555
Mg0 O15 2.167280 1_555
Mg0 O14 2.167280 1_545
Mg1 O1 2.113570 1_555
Mg1 O3 2.113570 1_555
Mg1 O14 2.122648 1_555
Mg1 O15 2.122648 1_555
Mg1 O11 2.159445 1_455
Mg1 O11 2.159445 1_555
Mg2 O9 2.086715 1_555
Mg2 O4 2.144715 1_554
Mg2 O6 2.144715 1_555
Mg2 O12 2.160099 1_655
Mg2 O12 2.160099 1_555
Mg2 O8 2.203213 1_565
Mg3 O9 2.086715 1_555
Mg3 O5 2.144715 1_554
Mg3 O7 2.144715 1_555
Mg3 O13 2.160099 1_555
Mg3 O13 2.160099 1_655
Mg3 O8 2.203213 1_555
Mg4 O11 2.136221 1_555
Mg4 O6 2.150922 1_555
Mg4 O4 2.150922 1_555
Mg4 O10 2.153707 1_565
Mg4 O14 2.159488 1_555
Mg4 O14 2.159488 1_655
Mg5 O11 2.136221 1_555
Mg5 O7 2.150922 1_555
Mg5 O5 2.150922 1_555
Mg5 O10 2.153707 1_555
Mg5 O15 2.159488 1_555
Mg5 O15 2.159488 1_655
Mg6 O10 2.098804 1_555
Mg6 O4 2.150315 1_545
Mg6 O5 2.150315 1_555
Mg6 O0 2.160479 1_555
Mg6 O0 2.160479 1_655
Mg6 O8 2.196162 1_556
Mg7 O5 2.140245 1_555
Mg7 O4 2.140245 1_555
Mg7 O9 2.144803 1_556
Mg7 O11 2.150163 1_555
Mg7 O1 2.159755 1_555
Mg7 O1 2.159755 1_655
Mg8 O10 2.098804 1_555
Mg8 O6 2.150315 1_545
Mg8 O7 2.150315 1_555
Mg8 O2 2.160479 1_555
Mg8 O2 2.160479 1_655
Mg8 O8 2.196162 1_555
Mg9 O7 2.140245 1_555
Mg9 O6 2.140245 1_555
Mg9 O9 2.144803 1_555
Mg9 O11 2.150163 1_555
Mg9 O3 2.159755 1_555
Mg9 O3 2.159755 1_655
Mg10 O1 2.110943 1_555
Mg10 O14 2.121754 1_555
Mg10 O4 2.159841 1_555
Mg10 O4 2.159841 1_455
Mg10 O12 2.174621 1_556
Mg10 O0 2.180848 1_565
Mg11 O1 2.110943 1_555
Mg11 O15 2.121754 1_555
Mg11 O5 2.159841 1_455
Mg11 O5 2.159841 1_555
Mg11 O13 2.174621 1_556
Mg11 O0 2.180848 1_555
Mg12 O3 2.110943 1_555
Mg12 O14 2.121754 1_555
Mg12 O6 2.159841 1_455
Mg12 O6 2.159841 1_555
Mg12 O12 2.174621 1_555
Mg12 O2 2.180848 1_565
Mg13 O3 2.110943 1_555
Mg13 O15 2.121754 1_555
Mg13 O7 2.159841 1_455
Mg13 O7 2.159841 1_555
Mg13 O13 2.174621 1_555
Mg13 O2 2.180848 1_555
Ni0 O12 2.033555 1_555
Ni0 O13 2.033555 1_555
Ni0 O9 2.159445 1_555
Ni0 O9 2.159445 1_455
Ni0 O3 2.181396 1_555
Ni0 O1 2.181396 1_554
