# generated using pymatgen
data_Ba5Ce4ZrO15
_symmetry_space_group_name_H-M   'P 1'
_cell_length_a   6.22479400
_cell_length_b   6.23105591
_cell_length_c   25.63030371
_cell_angle_alpha   83.12578926
_cell_angle_beta   83.17214978
_cell_angle_gamma   60.45174651
_symmetry_Int_Tables_number   1
_chemical_formula_structural   Ba5Ce4ZrO15
_chemical_formula_sum   'Ba10 Ce8 Zr2 O30'
_cell_volume   856.54686205
_cell_formula_units_Z   2
loop_
 _symmetry_equiv_pos_site_id
 _symmetry_equiv_pos_as_xyz
  1  'x, y, z'
loop_
 _atom_site_type_symbol
 _atom_site_label
 _atom_site_symmetry_multiplicity
 _atom_site_fract_x
 _atom_site_fract_y
 _atom_site_fract_z
 _atom_site_occupancy
  Ba  Ba0  1  0.95634000  0.94310900  0.65074900  1
  Ba  Ba1  1  0.35674000  0.34326500  0.44989700  1
  Ba  Ba2  1  0.15551700  0.14451700  0.04915400  1
  Ba  Ba3  1  0.75681400  0.74470900  0.24753000  1
  Ba  Ba4  1  0.55489900  0.54304600  0.85236800  1
  Ba  Ba5  1  0.64326000  0.65673500  0.55010300  1
  Ba  Ba6  1  0.04366000  0.05689100  0.34925100  1
  Ba  Ba7  1  0.84448300  0.85548300  0.95084600  1
  Ba  Ba8  1  0.44510100  0.45695400  0.14763200  1
  Ba  Ba9  1  0.24318600  0.25529100  0.75247000  1
  Ce  Ce0  1  0.89892700  0.89873100  0.80303100  1
  Ce  Ce1  1  0.29971000  0.29995800  0.60034500  1
  Ce  Ce2  1  0.70029000  0.70004200  0.39965500  1
  Ce  Ce3  1  0.10107300  0.10126900  0.19696900  1
  Ce  Ce4  1  0.50000000  0.50000000  0.00000000  1
  Ce  Ce5  1  0.59957800  0.59942500  0.70104600  1
  Ce  Ce6  1  0.00000000  0.00000000  0.50000000  1
  Ce  Ce7  1  0.40042200  0.40057500  0.29895400  1
  Zr  Zr0  1  0.80008000  0.80063000  0.09925600  1
  Zr  Zr1  1  0.19992000  0.19937000  0.90074400  1
  O  O0  1  0.97236900  0.47508800  0.65831000  1
  O  O1  1  0.37474800  0.87429400  0.45808500  1
  O  O2  1  0.15990100  0.67437300  0.05756600  1
  O  O3  1  0.77792100  0.27139400  0.25656800  1
  O  O4  1  0.55547600  0.07757400  0.85908900  1
  O  O5  1  0.42660500  0.92393500  0.64217200  1
  O  O6  1  0.82543100  0.32587900  0.44181400  1
  O  O7  1  0.63571300  0.12119500  0.04455400  1
  O  O8  1  0.22485200  0.73141200  0.24114500  1
  O  O9  1  0.03694800  0.51488800  0.84557200  1
  O  O10  1  0.17456900  0.67412100  0.55818600  1
  O  O11  1  0.57339500  0.07606500  0.35782800  1
  O  O12  1  0.36428700  0.87880500  0.95544600  1
  O  O13  1  0.96305200  0.48511200  0.15442800  1
  O  O14  1  0.77514800  0.26858800  0.75885500  1
  O  O15  1  0.62525200  0.12570600  0.54191500  1
  O  O16  1  0.02763100  0.52491200  0.34169000  1
  O  O17  1  0.84009900  0.32562700  0.94243400  1
  O  O18  1  0.44452400  0.92242600  0.14091100  1
  O  O19  1  0.22207900  0.72860600  0.74343200  1
  O  O20  1  0.68116100  0.82235700  0.75109100  1
  O  O21  1  0.07552800  0.22469100  0.55003200  1
  O  O22  1  0.47520600  0.62310800  0.34980000  1
  O  O23  1  0.88056200  0.00726100  0.14744400  1
  O  O24  1  0.28571100  0.40632700  0.94867600  1
  O  O25  1  0.92447200  0.77530900  0.44996800  1
  O  O26  1  0.31883900  0.17764300  0.24890900  1
  O  O27  1  0.71428900  0.59367300  0.05132400  1
  O  O28  1  0.11943800  0.99273900  0.85255600  1
  O  O29  1  0.52479400  0.37689200  0.65020000  1
loop_
_geom_bond_atom_site_label_1
_geom_bond_atom_site_label_2
_geom_bond_distance
_geom_bond_site_symmetry_2
Ba0 O29 2.713037 1_565
Ba0 O0 2.852092 1_555
Ba0 O5 2.853073 1_655
Ba0 O19 2.856450 1_655
Ba0 O10 2.867550 1_655
Ba0 O20 3.142437 1_555
Ba0 O21 3.168107 1_665
Ba1 O25 2.709794 1_455
Ba1 O6 2.848932 1_555
Ba1 O11 2.851037 1_555
Ba1 O15 2.851460 1_555
Ba1 O1 2.851575 1_545
Ba1 O21 3.154434 1_555
Ba2 O27 2.792631 1_455
Ba2 O12 2.878562 1_544
Ba2 O2 2.898364 1_545
Ba2 O18 2.907523 1_545
Ba2 O7 2.908906 1_555
Ba2 O24 3.122860 1_554
Ba2 O23 3.148014 1_455
Ba2 O17 3.311018 1_454
Ba2 O7 3.326136 1_455
Ba2 O2 3.347865 1_555
Ba2 O13 3.363630 1_455
Ba2 O27 3.479570 1_545
Ba3 O26 2.730792 1_565
Ba3 O13 2.847126 1_555
Ba3 O8 2.858946 1_655
Ba3 O3 2.868888 1_555
Ba3 O16 2.905302 1_655
Ba3 O23 3.101408 1_565
Ba4 O28 2.776309 1_555
Ba4 O17 2.858235 1_555
Ba4 O4 2.883084 1_555
Ba4 O9 2.903244 1_655
Ba4 O14 2.904500 1_555
Ba4 O24 3.089923 1_555
Ba4 O20 3.188624 1_555
Ba4 O12 3.300603 1_555
Ba4 O9 3.339908 1_555
Ba4 O4 3.357434 1_565
Ba4 O19 3.415340 1_555
Ba4 O28 3.496031 1_645
Ba5 O21 2.709794 1_655
Ba5 O10 2.848932 1_555
Ba5 O5 2.851037 1_555
Ba5 O1 2.851460 1_555
Ba5 O15 2.851575 1_565
Ba5 O25 3.154434 1_555
Ba6 O22 2.713037 1_545
Ba6 O16 2.852092 1_555
Ba6 O11 2.853073 1_455
Ba6 O3 2.856450 1_455
Ba6 O6 2.867550 1_455
Ba6 O26 3.142437 1_555
Ba6 O25 3.168107 1_445
Ba7 O24 2.792631 1_655
Ba7 O7 2.878562 1_566
Ba7 O17 2.898364 1_565
Ba7 O4 2.907523 1_565
Ba7 O12 2.908906 1_555
Ba7 O27 3.122860 1_556
Ba7 O28 3.148014 1_655
Ba7 O2 3.311018 1_656
Ba7 O12 3.326136 1_655
Ba7 O17 3.347865 1_555
Ba7 O9 3.363630 1_655
Ba7 O24 3.479570 1_565
Ba8 O23 2.776309 1_555
Ba8 O2 2.858235 1_555
Ba8 O18 2.883084 1_555
Ba8 O13 2.903244 1_455
Ba8 O8 2.904500 1_555
Ba8 O27 3.089923 1_555
Ba8 O26 3.188624 1_555
Ba8 O7 3.300603 1_555
Ba8 O13 3.339908 1_555
Ba8 O18 3.357434 1_545
Ba8 O3 3.415340 1_555
Ba8 O23 3.496031 1_465
Ba9 O20 2.730792 1_545
Ba9 O9 2.847126 1_555
Ba9 O14 2.858946 1_455
Ba9 O19 2.868888 1_555
Ba9 O0 2.905302 1_455
Ba9 O28 3.101408 1_545
Ce0 O14 2.240143 1_565
Ce0 O20 2.247926 1_555
Ce0 O19 2.248841 1_655
Ce0 O4 2.275945 1_565
Ce0 O9 2.284549 1_655
Ce0 O28 2.285562 1_655
Ce1 O10 2.239592 1_555
Ce1 O0 2.241677 1_455
Ce1 O15 2.241785 1_555
Ce1 O5 2.244461 1_545
Ce1 O21 2.246868 1_555
Ce1 O29 2.249545 1_555
Ce2 O6 2.239592 1_555
Ce2 O16 2.241677 1_655
Ce2 O1 2.241785 1_555
Ce2 O11 2.244461 1_565
Ce2 O25 2.246868 1_555
Ce2 O22 2.249545 1_555
Ce3 O8 2.240143 1_545
Ce3 O26 2.247926 1_555
Ce3 O3 2.248841 1_455
Ce3 O18 2.275945 1_545
Ce3 O13 2.284549 1_455
Ce3 O23 2.285562 1_455
Ce4 O7 2.281755 1_555
Ce4 O12 2.281755 1_554
Ce4 O17 2.282901 1_554
Ce4 O2 2.282901 1_555
Ce4 O27 2.284585 1_555
Ce4 O24 2.284585 1_554
Ce5 O0 2.238409 1_555
Ce5 O5 2.243542 1_555
Ce5 O29 2.247488 1_555
Ce5 O14 2.251913 1_555
Ce5 O19 2.255365 1_555
Ce5 O20 2.260514 1_555
Ce6 O10 2.238790 1_545
Ce6 O6 2.238790 1_455
Ce6 O15 2.238895 1_455
Ce6 O1 2.238895 1_545
Ce6 O21 2.246762 1_555
Ce6 O25 2.246762 1_445
Ce7 O16 2.238409 1_555
Ce7 O11 2.243542 1_555
Ce7 O22 2.247488 1_555
Ce7 O8 2.251913 1_555
Ce7 O3 2.255365 1_555
Ce7 O26 2.260514 1_555
O2 Zr0 2.161393 1_455
O4 Zr1 2.142368 1_555
O7 Zr0 2.158086 1_545
O9 Zr1 2.145318 1_555
O12 Zr1 2.158086 1_565
O13 Zr0 2.145318 1_555
O17 Zr1 2.161393 1_655
O18 Zr0 2.142368 1_555
O23 Zr0 2.144320 1_545
O24 Zr1 2.161450 1_555
O27 Zr0 2.161450 1_555
O28 Zr1 2.144320 1_565
