# generated using pymatgen
data_Ba3LiN
_symmetry_space_group_name_H-M   'P 1'
_cell_length_a   8.28906623
_cell_length_b   8.28906623
_cell_length_c   6.94223500
_cell_angle_alpha   90.00000000
_cell_angle_beta   90.00000000
_cell_angle_gamma   120.00000187
_symmetry_Int_Tables_number   1
_chemical_formula_structural   Ba3LiN
_chemical_formula_sum   'Ba6 Li2 N2'
_cell_volume   413.08664456
_cell_formula_units_Z   2
loop_
 _symmetry_equiv_pos_site_id
 _symmetry_equiv_pos_as_xyz
  1  'x, y, z'
loop_
 _atom_site_type_symbol
 _atom_site_label
 _atom_site_symmetry_multiplicity
 _atom_site_fract_x
 _atom_site_fract_y
 _atom_site_fract_z
 _atom_site_occupancy
  Ba  Ba0  1  0.14770700  0.29541400  0.75000000  1
  Ba  Ba1  1  0.14770700  0.85229300  0.75000000  1
  Ba  Ba2  1  0.85229300  0.70458600  0.25000000  1
  Ba  Ba3  1  0.70458600  0.85229300  0.75000000  1
  Ba  Ba4  1  0.29541400  0.14770700  0.25000000  1
  Ba  Ba5  1  0.85229300  0.14770700  0.25000000  1
  Li  Li0  1  0.33333300  0.66666700  0.25000000  1
  Li  Li1  1  0.66666700  0.33333300  0.75000000  1
  N  N0  1  0.00000000  0.00000000  0.00000000  1
  N  N1  1  0.00000000  0.00000000  0.50000000  1
loop_
_geom_bond_atom_site_label_1
_geom_bond_atom_site_label_2
_geom_bond_distance
_geom_bond_site_symmetry_2
Ba0 N1 2.740308 1_555
Ba0 N0 2.740308 1_556
Ba0 Li1 4.153458 1_455
Ba0 Li1 4.153466 1_555
Ba1 N0 2.740308 1_566
Ba1 N1 2.740308 1_565
Ba1 Li1 4.153463 1_565
Ba1 Li1 4.153463 1_455
Ba2 N1 2.740308 1_665
Ba2 N0 2.740308 1_665
Ba2 Li0 4.153458 1_655
Ba2 Li0 4.153466 1_555
Ba3 N0 2.740308 1_666
Ba3 N1 2.740308 1_665
Ba3 Li1 4.153458 1_565
Ba3 Li1 4.153466 1_555
Ba4 N1 2.740308 1_555
Ba4 N0 2.740308 1_555
Ba4 Li0 4.153458 1_545
Ba4 Li0 4.153466 1_555
Ba5 N0 2.740308 1_655
Ba5 N1 2.740308 1_655
Ba5 Li0 4.153463 1_545
Ba5 Li0 4.153463 1_655
