# generated using pymatgen
data_SrNdMn2O5
_symmetry_space_group_name_H-M   'P 1'
_cell_length_a   9.01430683
_cell_length_b   9.01430683
_cell_length_c   5.48978256
_cell_angle_alpha   72.28196545
_cell_angle_beta   72.28196545
_cell_angle_gamma   128.02995459
_symmetry_Int_Tables_number   1
_chemical_formula_structural   SrNdMn2O5
_chemical_formula_sum   'Sr2 Nd2 Mn4 O10'
_cell_volume   252.77720956
_cell_formula_units_Z   2
loop_
 _symmetry_equiv_pos_site_id
 _symmetry_equiv_pos_as_xyz
  1  'x, y, z'
loop_
 _atom_site_type_symbol
 _atom_site_label
 _atom_site_symmetry_multiplicity
 _atom_site_fract_x
 _atom_site_fract_y
 _atom_site_fract_z
 _atom_site_occupancy
  Sr  Sr0  1  0.62727700  0.90261000  0.48924900  1
  Sr  Sr1  1  0.90261000  0.62727700  0.48924900  1
  Nd  Nd0  1  0.36734700  0.08220800  0.51985700  1
  Nd  Nd1  1  0.08220800  0.36734700  0.51985700  1
  Mn  Mn0  1  0.49909300  0.99907700  0.99925500  1
  Mn  Mn1  1  0.99907700  0.49909300  0.99925500  1
  Mn  Mn2  1  0.30648700  0.30648700  0.98771800  1
  Mn  Mn3  1  0.68711200  0.68711200  0.10842800  1
  O  O0  1  0.32352100  0.32352100  0.36848400  1
  O  O1  1  0.64401800  0.64401800  0.52520800  1
  O  O2  1  0.70494100  0.93705900  0.91167900  1
  O  O3  1  0.33331600  0.09493200  0.03948900  1
  O  O4  1  0.93705900  0.70494100  0.91167900  1
  O  O5  1  0.09493200  0.33331600  0.03948900  1
  O  O6  1  0.73895400  0.26081700  0.49710300  1
  O  O7  1  0.25353100  0.73769800  0.00624900  1
  O  O8  1  0.26081700  0.73895400  0.49710300  1
  O  O9  1  0.73769800  0.25353100  0.00624900  1
loop_
_geom_bond_atom_site_label_1
_geom_bond_atom_site_label_2
_geom_bond_distance
_geom_bond_site_symmetry_2
Nd0 O4 2.335207 1_445
Nd0 O0 2.395175 1_555
Nd0 O9 2.597681 1_555
Nd0 O6 2.608917 1_555
Nd0 O8 2.675624 1_545
Nd0 O7 2.680711 1_546
Nd0 O3 2.722735 1_555
Nd0 O3 2.820431 1_556
Nd1 O2 2.335207 1_445
Nd1 O0 2.395175 1_555
Nd1 O7 2.597681 1_555
Nd1 O8 2.608917 1_555
Nd1 O6 2.675624 1_455
Nd1 O9 2.680711 1_456
Nd1 O5 2.722735 1_555
Nd1 O5 2.820431 1_556
Mn0 O8 1.975339 1_556
Mn0 O9 1.978369 1_566
Mn0 O7 1.979836 1_556
Mn0 O6 1.992152 1_565
Mn0 O3 2.129500 1_566
Mn0 O2 2.210344 1_555
Mn1 O6 1.975339 1_556
Mn1 O7 1.978369 1_656
Mn1 O9 1.979836 1_556
Mn1 O8 1.992152 1_655
Mn1 O5 2.129500 1_656
Mn1 O4 2.210344 1_555
Mn2 O3 2.014003 1_556
Mn2 O5 2.014003 1_556
Mn2 O1 2.037375 1_555
Mn2 O0 2.185927 1_556
Mn3 O4 2.058117 1_554
Mn3 O2 2.058117 1_554
Mn3 O1 2.066151 1_555
Mn3 O0 2.142543 1_555
O1 Sr0 2.380528 1_555
O1 Sr1 2.380528 1_555
O2 Sr0 2.668930 1_555
O2 Sr0 2.902037 1_556
O3 Sr1 2.569945 1_445
O3 Sr1 3.144286 1_554
O4 Sr1 2.668930 1_555
O4 Sr1 2.902037 1_556
O5 Sr0 2.569945 1_445
O5 Sr0 3.144286 1_554
O6 Sr1 2.638279 1_555
O6 Sr0 2.747290 1_545
O7 Sr0 2.656446 1_554
O7 Sr1 2.727033 1_455
O8 Sr0 2.638279 1_555
O8 Sr1 2.747290 1_455
O9 Sr1 2.656446 1_554
O9 Sr0 2.727033 1_545
