# generated using pymatgen
data_NaMgCd2
_symmetry_space_group_name_H-M   'P 1'
_cell_length_a   12.34071742
_cell_length_b   12.58308654
_cell_length_c   12.58308635
_cell_angle_alpha   60.42342008
_cell_angle_beta   60.63514628
_cell_angle_gamma   60.63514435
_symmetry_Int_Tables_number   1
_chemical_formula_structural   NaMgCd2
_chemical_formula_sum   'Na1 Mg1 Cd2'
_cell_volume   1399.26439880
_cell_formula_units_Z   1
loop_
 _symmetry_equiv_pos_site_id
 _symmetry_equiv_pos_as_xyz
  1  'x, y, z'
loop_
 _atom_site_type_symbol
 _atom_site_label
 _atom_site_symmetry_multiplicity
 _atom_site_fract_x
 _atom_site_fract_y
 _atom_site_fract_z
 _atom_site_occupancy
  Na  Na0  1  0.00000000  0.00000000  0.00000000  1
  Mg  Mg0  1  0.50000000  0.00000000  0.00000000  1
  Cd  Cd0  1  0.74965767  0.00000000  0.00000000  1
  Cd  Cd1  1  0.25034233  0.00000000  0.00000000  1
loop_
_geom_bond_atom_site_label_1
_geom_bond_atom_site_label_2
_geom_bond_distance
_geom_bond_site_symmetry_2
Cd0 Mg0 3.080955 1_555
Cd0 Na0 3.089404 1_655
Cd1 Mg0 3.080955 1_555
Cd1 Na0 3.089404 1_555
