# generated using pymatgen
data_Ti4Cr2Ge5
_symmetry_space_group_name_H-M   'P 1'
_cell_length_a   5.04709200
_cell_length_b   7.85662400
_cell_length_c   9.48298908
_cell_angle_alpha   114.47198657
_cell_angle_beta   105.43309370
_cell_angle_gamma   90.00000000
_symmetry_Int_Tables_number   1
_chemical_formula_structural   Ti4Cr2Ge5
_chemical_formula_sum   'Ti8 Cr4 Ge10'
_cell_volume   327.29347000
_cell_formula_units_Z   2
loop_
 _symmetry_equiv_pos_site_id
 _symmetry_equiv_pos_as_xyz
  1  'x, y, z'
loop_
 _atom_site_type_symbol
 _atom_site_label
 _atom_site_symmetry_multiplicity
 _atom_site_fract_x
 _atom_site_fract_y
 _atom_site_fract_z
 _atom_site_occupancy
  Ti  Ti0  1  0.64320200  0.03533800  0.28640400  1
  Ti  Ti1  1  0.35679800  0.96466200  0.71359600  1
  Ti  Ti2  1  0.85679800  0.74893400  0.71359600  1
  Ti  Ti3  1  0.14320200  0.25106600  0.28640400  1
  Ti  Ti4  1  0.93570700  0.19527300  0.87141400  1
  Ti  Ti5  1  0.06429300  0.80472700  0.12858600  1
  Ti  Ti6  1  0.56429300  0.32385900  0.12858600  1
  Ti  Ti7  1  0.43570700  0.67614100  0.87141400  1
  Cr  Cr0  1  0.55730900  0.30730900  0.61461800  1
  Cr  Cr1  1  0.94269100  0.69269100  0.38538200  1
  Cr  Cr2  1  0.44269100  0.69269100  0.38538200  1
  Cr  Cr3  1  0.05730900  0.30730900  0.61461800  1
  Ge  Ge0  1  0.78569100  0.98660900  0.57138200  1
  Ge  Ge1  1  0.21430900  0.01339100  0.42861800  1
  Ge  Ge2  1  0.71430900  0.41522700  0.42861800  1
  Ge  Ge3  1  0.28569100  0.58477300  0.57138200  1
  Ge  Ge4  1  0.57153800  0.66629700  0.14307600  1
  Ge  Ge5  1  0.42846200  0.33370300  0.85692400  1
  Ge  Ge6  1  0.92846200  0.52322100  0.85692400  1
  Ge  Ge7  1  0.07153800  0.47677900  0.14307600  1
  Ge  Ge8  1  0.25000000  0.00000000  0.00000000  1
  Ge  Ge9  1  0.75000000  0.00000000  0.00000000  1
loop_
_geom_bond_atom_site_label_1
_geom_bond_atom_site_label_2
_geom_bond_distance
_geom_bond_site_symmetry_2
Cr0 Ge5 2.479158 1_555
Cr0 Ge6 2.479158 1_555
Cr0 Ge2 2.537869 1_555
Cr0 Ge1 2.537869 1_555
Cr0 Ge3 2.690886 1_555
Cr0 Ge0 2.690886 1_545
Cr1 Ge4 2.479158 1_555
Cr1 Ge7 2.479158 1_655
Cr1 Ge3 2.537869 1_655
Cr1 Ge0 2.537869 1_555
Cr1 Ge1 2.690886 1_665
Cr1 Ge2 2.690886 1_555
Cr2 Ge4 2.479158 1_555
Cr2 Ge7 2.479158 1_555
Cr2 Ge0 2.537869 1_555
Cr2 Ge3 2.537869 1_555
Cr2 Ge1 2.690886 1_565
Cr2 Ge2 2.690886 1_555
Cr3 Ge6 2.479158 1_455
Cr3 Ge5 2.479158 1_555
Cr3 Ge2 2.537869 1_455
Cr3 Ge1 2.537869 1_555
Cr3 Ge3 2.690886 1_555
Cr3 Ge0 2.690886 1_445
Ge0 Ti4 2.518942 1_565
Ge0 Ti2 2.695043 1_555
Ge0 Ti0 2.791015 1_565
Ge0 Ti1 2.877610 1_555
Ge0 Ti1 2.877610 1_655
Ge1 Ti5 2.518942 1_545
Ge1 Ti3 2.695043 1_555
Ge1 Ti1 2.791015 1_545
Ge1 Ti0 2.877610 1_555
Ge1 Ti0 2.877610 1_455
Ge2 Ti6 2.518942 1_555
Ge2 Ti0 2.695043 1_555
Ge2 Ti2 2.791015 1_555
Ge2 Ti3 2.877610 1_555
Ge2 Ti3 2.877610 1_655
Ge3 Ti7 2.518942 1_555
Ge3 Ti1 2.695043 1_555
Ge3 Ti3 2.791015 1_555
Ge3 Ti2 2.877610 1_555
Ge3 Ti2 2.877610 1_455
Ge4 Ti7 2.517481 1_554
Ge4 Ti0 2.618816 1_565
Ge4 Ti6 2.636200 1_555
Ge4 Ti5 2.773536 1_655
Ge4 Ti5 2.773536 1_555
Ge5 Ti6 2.517481 1_556
Ge5 Ti1 2.618816 1_545
Ge5 Ti7 2.636200 1_555
Ge5 Ti4 2.773536 1_455
Ge5 Ti4 2.773536 1_555
Ge6 Ti5 2.517481 1_656
Ge6 Ti2 2.618816 1_555
Ge6 Ti4 2.636200 1_555
Ge6 Ti7 2.773536 1_655
Ge6 Ti7 2.773536 1_555
Ge7 Ti4 2.517481 1_454
Ge7 Ti3 2.618816 1_555
Ge7 Ti5 2.636200 1_555
Ge7 Ti6 2.773536 1_555
Ge7 Ti6 2.773536 1_455
Ge8 Ge9 2.523546 1_555
Ge8 Ge9 2.523546 1_455
Ge8 Ti6 2.622462 1_555
Ge8 Ti7 2.622462 1_544
Ge8 Ti5 2.622462 1_545
Ge8 Ti4 2.622462 1_454
Ge8 Ti1 2.810431 1_544
Ge8 Ti0 2.810431 1_555
Ge8 Ti3 2.810431 1_555
Ge8 Ti2 2.810431 1_444
Ge9 Ti5 2.622462 1_645
Ge9 Ti7 2.622462 1_544
Ge9 Ti6 2.622462 1_555
Ge9 Ti4 2.622462 1_554
Ge9 Ti1 2.810431 1_544
Ge9 Ti2 2.810431 1_544
Ge9 Ti3 2.810431 1_655
Ge9 Ti0 2.810431 1_555
