# generated using pymatgen
data_Na4Eu2SnAs4
_symmetry_space_group_name_H-M   'P 1'
_cell_length_a   9.79781480
_cell_length_b   9.79781480
_cell_length_c   7.39294694
_cell_angle_alpha   89.47377047
_cell_angle_beta   89.47377047
_cell_angle_gamma   119.91010962
_symmetry_Int_Tables_number   1
_chemical_formula_structural   Na4Eu2SnAs4
_chemical_formula_sum   'Na8 Eu4 Sn2 As8'
_cell_volume   615.07243161
_cell_formula_units_Z   2
loop_
 _symmetry_equiv_pos_site_id
 _symmetry_equiv_pos_as_xyz
  1  'x, y, z'
loop_
 _atom_site_type_symbol
 _atom_site_label
 _atom_site_symmetry_multiplicity
 _atom_site_fract_x
 _atom_site_fract_y
 _atom_site_fract_z
 _atom_site_occupancy
  Na  Na0  1  0.05403300  0.52629600  0.62121000  1
  Na  Na1  1  0.52629600  0.05403300  0.12121000  1
  Na  Na2  1  0.28767400  0.14206200  0.80358100  1
  Na  Na3  1  0.85977400  0.70833100  0.79112300  1
  Na  Na4  1  0.85855300  0.14978800  0.79575300  1
  Na  Na5  1  0.70833100  0.85977400  0.29112300  1
  Na  Na6  1  0.14206200  0.28767400  0.30358100  1
  Na  Na7  1  0.14978800  0.85855300  0.29575300  1
  Eu  Eu0  1  0.47169700  0.94813100  0.62123000  1
  Eu  Eu1  1  0.47014300  0.52102300  0.62350300  1
  Eu  Eu2  1  0.94813100  0.47169700  0.12123000  1
  Eu  Eu3  1  0.52102300  0.47014300  0.12350300  1
  Sn  Sn0  1  0.67214200  0.33562300  0.49755300  1
  Sn  Sn1  1  0.33562300  0.67214200  0.99755300  1
  As  As0  1  0.66376600  0.33626200  0.85946800  1
  As  As1  1  0.33626200  0.66376600  0.35946800  1
  As  As2  1  0.62922800  0.80977100  0.87945800  1
  As  As3  1  0.18884800  0.37299300  0.89959400  1
  As  As4  1  0.18275800  0.81169800  0.89059800  1
  As  As5  1  0.37299300  0.18884800  0.39959400  1
  As  As6  1  0.80977100  0.62922800  0.37945800  1
  As  As7  1  0.81169800  0.18275800  0.39059800  1
loop_
_geom_bond_atom_site_label_1
_geom_bond_atom_site_label_2
_geom_bond_distance
_geom_bond_site_symmetry_2
As0 Sn0 2.676284 1_555
As0 Eu3 3.051789 1_556
As0 Na1 3.056877 1_556
As0 Eu2 3.118910 1_556
As0 Na3 3.193630 1_555
As0 Na2 3.227935 1_555
As0 Na4 3.267868 1_555
As1 Sn1 2.676284 1_554
As1 Eu1 3.051789 1_555
As1 Na0 3.056877 1_555
As1 Eu0 3.118910 1_555
As1 Na5 3.193630 1_555
As1 Na6 3.227935 1_555
As1 Na7 3.267868 1_555
As2 Sn1 2.630516 1_555
As2 Na3 2.956427 1_555
As2 Na4 3.000239 1_565
As2 Eu1 3.125505 1_555
As2 Na5 3.129718 1_556
As2 Eu0 3.155594 1_555
As2 Eu3 3.433436 1_556
As2 Na1 3.520149 1_566
As3 Sn1 2.652905 1_555
As3 Na2 2.960172 1_555
As3 Na4 2.977118 1_455
As3 Na6 3.062004 1_556
As3 Eu1 3.117940 1_555
As3 Na0 3.195048 1_555
As3 Eu3 3.358121 1_556
As3 Eu2 3.378666 1_456
As4 Sn1 2.604294 1_555
As4 Na3 2.905344 1_455
As4 Na2 2.928999 1_565
As4 Na7 3.072823 1_556
As4 Eu0 3.136973 1_555
As4 Na0 3.163490 1_555
As4 Eu2 3.387570 1_456
As4 Na1 3.476101 1_566
As5 Sn0 2.652905 1_555
As5 Na6 2.960172 1_555
As5 Na7 2.977118 1_545
As5 Na2 3.062004 1_555
As5 Eu3 3.117940 1_555
As5 Na1 3.195048 1_555
As5 Eu1 3.358121 1_555
As5 Eu0 3.378666 1_545
As6 Sn0 2.630516 1_555
As6 Na5 2.956427 1_555
As6 Na7 3.000239 1_655
As6 Eu3 3.125505 1_555
As6 Na3 3.129718 1_555
As6 Eu2 3.155594 1_555
As6 Eu1 3.433436 1_555
As6 Na0 3.520149 1_655
As7 Sn0 2.604294 1_555
As7 Na5 2.905344 1_545
As7 Na6 2.928999 1_655
As7 Na4 3.072823 1_555
As7 Eu2 3.136973 1_555
As7 Na1 3.163490 1_555
As7 Eu0 3.387570 1_545
As7 Na0 3.476101 1_655
