# generated using pymatgen
data_LiZr2(PO4)3
_symmetry_space_group_name_H-M   'P 1'
_cell_length_a   8.83884391
_cell_length_b   8.94681054
_cell_length_c   12.37464507
_cell_angle_alpha   90.00000000
_cell_angle_beta   90.84582884
_cell_angle_gamma   90.00000000
_symmetry_Int_Tables_number   1
_chemical_formula_structural   LiZr2(PO4)3
_chemical_formula_sum   'Li4 Zr8 P12 O48'
_cell_volume   978.47364245
_cell_formula_units_Z   4
loop_
 _symmetry_equiv_pos_site_id
 _symmetry_equiv_pos_as_xyz
  1  'x, y, z'
loop_
 _atom_site_type_symbol
 _atom_site_label
 _atom_site_symmetry_multiplicity
 _atom_site_fract_x
 _atom_site_fract_y
 _atom_site_fract_z
 _atom_site_occupancy
  Li  Li0  1  0.28960871  0.22469241  0.32172403  1
  Li  Li1  1  0.21039129  0.72469241  0.17827597  1
  Li  Li2  1  0.71039129  0.77530759  0.67827597  1
  Li  Li3  1  0.78960871  0.27530759  0.82172403  1
  Zr  Zr0  1  0.75434420  0.45414248  0.61084637  1
  Zr  Zr1  1  0.24914844  0.47476504  0.87746704  1
  Zr  Zr2  1  0.25085156  0.97476504  0.62253296  1
  Zr  Zr3  1  0.75085156  0.52523496  0.12253296  1
  Zr  Zr4  1  0.74914844  0.02523496  0.37746704  1
  Zr  Zr5  1  0.25434420  0.04585752  0.11084637  1
  Zr  Zr6  1  0.24565580  0.54585752  0.38915363  1
  Zr  Zr7  1  0.74565580  0.95414248  0.88915363  1
  P  P0  1  0.53557797  0.24911053  0.98809550  1
  P  P1  1  0.96442203  0.74911053  0.51190450  1
  P  P2  1  0.03557797  0.25088947  0.48809550  1
  P  P3  1  0.09614584  0.12273468  0.85358801  1
  P  P4  1  0.40385416  0.62273468  0.64641199  1
  P  P5  1  0.90385416  0.87726532  0.14641199  1
  P  P6  1  0.59614584  0.37726532  0.35358801  1
  P  P7  1  0.11451318  0.40112694  0.14497581  1
  P  P8  1  0.38548682  0.90112694  0.35502419  1
  P  P9  1  0.88548682  0.59887306  0.85502419  1
  P  P10  1  0.61451318  0.09887306  0.64497581  1
  P  P11  1  0.46442203  0.75088947  0.01190450  1
  O  O0  1  0.37408355  0.78686311  0.66918161  1
  O  O1  1  0.37852552  0.64704867  0.93635289  1
  O  O2  1  0.12147448  0.14704867  0.56364711  1
  O  O3  1  0.62147448  0.35295133  0.06364711  1
  O  O4  1  0.87852552  0.85295133  0.43635289  1
  O  O5  1  0.32140203  0.52142958  0.72413763  1
  O  O6  1  0.17859797  0.02142958  0.77586237  1
  O  O7  1  0.67859797  0.47857042  0.27586237  1
  O  O8  1  0.44325535  0.10601816  0.64619031  1
  O  O9  1  0.94325535  0.39398184  0.14619031  1
  O  O10  1  0.55674465  0.89398184  0.35380969  1
  O  O11  1  0.42979664  0.33304895  0.91221941  1
  O  O12  1  0.07020336  0.83304895  0.58778059  1
  O  O13  1  0.57020336  0.66695105  0.08778059  1
  O  O14  1  0.92979664  0.16695105  0.41222041  1
  O  O15  1  0.12591645  0.28686311  0.83081839  1
  O  O16  1  0.82140203  0.97857042  0.22413763  1
  O  O17  1  0.05674465  0.60601816  0.85380969  1
  O  O18  1  0.87408355  0.71313689  0.16918161  1
  O  O19  1  0.62591645  0.21313689  0.33081839  1
  O  O20  1  0.64636735  0.41587007  0.46947156  1
  O  O21  1  0.85363265  0.91587007  0.03052844  1
  O  O22  1  0.35363265  0.58412993  0.53052844  1
  O  O23  1  0.14636735  0.08412993  0.96947156  1
  O  O24  1  0.68135784  0.25141858  0.68021370  1
  O  O25  1  0.81864216  0.75141858  0.81978630  1
  O  O26  1  0.31864216  0.74858142  0.31978630  1
  O  O27  1  0.18135784  0.24858142  0.18021370  1
  O  O28  1  0.94713086  0.36244827  0.55606612  1
  O  O29  1  0.55286914  0.86244827  0.94393388  1
  O  O30  1  0.17316213  0.44240508  0.03471486  1
  O  O31  1  0.44713086  0.13755173  0.05606612  1
  O  O32  1  0.57547954  0.59738182  0.65719551  1
  O  O33  1  0.92452046  0.09738182  0.84280449  1
  O  O34  1  0.42452046  0.40261818  0.34280449  1
  O  O35  1  0.07547954  0.90261818  0.15719551  1
  O  O36  1  0.82965985  0.47902773  0.77388681  1
  O  O37  1  0.67034015  0.97902773  0.72611319  1
  O  O38  1  0.17034015  0.52097227  0.22611319  1
  O  O39  1  0.32965985  0.02097227  0.27388681  1
  O  O40  1  0.84752072  0.66508598  0.58055608  1
  O  O41  1  0.65247928  0.16508598  0.91944392  1
  O  O42  1  0.15247928  0.33491402  0.41944392  1
  O  O43  1  0.34752072  0.83491402  0.08055608  1
  O  O44  1  0.67316213  0.05759492  0.53471486  1
  O  O45  1  0.82683787  0.55759492  0.96528514  1
  O  O46  1  0.32683787  0.94240508  0.46528514  1
  O  O47  1  0.05286914  0.63755173  0.44393388  1
loop_
_geom_bond_atom_site_label_1
_geom_bond_atom_site_label_2
_geom_bond_distance
_geom_bond_site_symmetry_2
Li0 O39 1.950377 1_555
Li0 O42 1.986735 1_555
Li0 O27 1.994541 1_555
Li0 O34 2.003717 1_555
Li1 O38 1.950377 1_555
Li1 O43 1.986735 1_555
Li1 O26 1.994541 1_555
Li1 O35 2.003717 1_555
Li2 O37 1.950377 1_555
Li2 O40 1.986735 1_555
Li2 O25 1.994541 1_555
Li2 O32 2.003717 1_555
Li3 O36 1.950377 1_555
Li3 O41 1.986735 1_555
Li3 O24 1.994541 1_555
Li3 O33 2.003717 1_555
O0 P4 1.518913 1_555
O0 Zr2 2.080206 1_555
O1 P11 1.514158 1_556
O1 Zr1 2.046940 1_555
O2 P2 1.514158 1_555
O2 Zr2 2.046940 1_545
O3 P0 1.514158 1_554
O3 Zr3 2.046940 1_555
O4 P1 1.514158 1_555
O4 Zr4 2.046940 1_565
O5 P4 1.516052 1_555
O5 Zr1 2.053790 1_555
O6 P3 1.516052 1_555
O6 Zr2 2.053790 1_545
O7 P6 1.516052 1_555
O7 Zr3 2.053790 1_555
O8 P10 1.515367 1_555
O8 Zr2 2.083773 1_545
O9 P7 1.515367 1_655
O9 Zr3 2.083773 1_555
O10 P8 1.515367 1_555
O10 Zr4 2.083773 1_565
O11 P0 1.514549 1_555
O11 Zr1 2.078888 1_555
O12 P1 1.514549 1_455
O12 Zr2 2.078888 1_555
O13 P11 1.514549 1_555
O13 Zr3 2.078888 1_555
O14 P2 1.514541 1_655
O14 Zr4 2.078890 1_555
O15 P3 1.518913 1_555
O15 Zr1 2.080206 1_555
O16 P5 1.516052 1_555
O16 Zr4 2.053790 1_565
O17 P9 1.515367 1_455
O17 Zr1 2.083773 1_555
O18 P5 1.518913 1_555
O18 Zr3 2.080206 1_555
O19 P6 1.518913 1_555
O19 Zr4 2.080206 1_555
O20 P6 1.534260 1_555
O20 Zr0 2.009835 1_555
O21 P5 1.534260 1_555
O21 Zr7 2.009835 1_554
O22 P4 1.534260 1_555
O22 Zr6 2.009835 1_555
O23 P3 1.534260 1_555
O23 Zr5 2.009835 1_556
O24 P10 1.547348 1_555
O24 Zr0 2.111632 1_555
O25 P9 1.547348 1_555
O25 Zr7 2.111632 1_555
O26 P8 1.547348 1_555
O26 Zr6 2.111632 1_555
O27 P7 1.547348 1_555
O27 Zr5 2.111632 1_555
O28 P2 1.527823 1_655
O28 Zr0 2.017497 1_555
O29 P11 1.527823 1_556
O29 Zr7 2.017497 1_555
O30 P7 1.512513 1_555
O30 Zr1 2.088053 1_554
O31 P0 1.527823 1_554
O31 Zr5 2.017497 1_555
O32 P4 1.537686 1_555
O32 Zr0 2.120729 1_555
O33 P3 1.537686 1_655
O33 Zr7 2.120729 1_545
O34 P6 1.537686 1_555
O34 Zr6 2.120729 1_555
O35 P5 1.537686 1_455
O35 Zr5 2.120729 1_565
O36 P9 1.544880 1_555
O36 Zr0 2.126889 1_555
O37 P10 1.544880 1_565
O37 Zr7 2.126889 1_555
O38 P7 1.544880 1_555
O38 Zr6 2.126889 1_555
O39 P8 1.544880 1_545
O39 Zr5 2.126889 1_555
O40 P1 1.542859 1_555
O40 Zr0 2.095156 1_555
O41 P0 1.542859 1_555
O41 Zr7 2.095156 1_545
O42 P2 1.542859 1_555
O42 Zr6 2.095156 1_555
O43 P11 1.542859 1_555
O43 Zr5 2.095156 1_565
O44 P10 1.512513 1_555
O44 Zr4 2.088053 1_555
O45 P9 1.512513 1_555
O45 Zr3 2.088053 1_556
O46 P8 1.512513 1_555
O46 Zr2 2.088053 1_555
O47 P1 1.527823 1_455
O47 Zr6 2.017497 1_555
