# generated using pymatgen
data_Ti2Be3(SiO4)3
_symmetry_space_group_name_H-M   'P 1'
_cell_length_a   7.51486100
_cell_length_b   8.07629100
_cell_length_c   16.08834132
_cell_angle_alpha   59.83208014
_cell_angle_beta   90.00000000
_cell_angle_gamma   90.00000000
_symmetry_Int_Tables_number   1
_chemical_formula_structural   Ti2Be3(SiO4)3
_chemical_formula_sum   'Ti8 Be12 Si12 O48'
_cell_volume   844.18468080
_cell_formula_units_Z   4
loop_
 _symmetry_equiv_pos_site_id
 _symmetry_equiv_pos_as_xyz
  1  'x, y, z'
loop_
 _atom_site_type_symbol
 _atom_site_label
 _atom_site_symmetry_multiplicity
 _atom_site_fract_x
 _atom_site_fract_y
 _atom_site_fract_z
 _atom_site_occupancy
  Ti  Ti0  1  0.04731200  0.66255800  0.58864900  1
  Ti  Ti1  1  0.45268800  0.66255800  0.08864900  1
  Ti  Ti2  1  0.95268800  0.33744200  0.41135100  1
  Ti  Ti3  1  0.54731200  0.33744200  0.91135100  1
  Ti  Ti4  1  0.93826800  0.32326300  0.92642500  1
  Ti  Ti5  1  0.43826800  0.67673700  0.57357500  1
  Ti  Ti6  1  0.06173200  0.67673700  0.07357500  1
  Ti  Ti7  1  0.56173200  0.32326300  0.42642500  1
  Be  Be0  1  0.65464900  0.66055700  0.26557700  1
  Be  Be1  1  0.84046400  0.02439300  0.90328700  1
  Be  Be2  1  0.34046400  0.97560700  0.59671300  1
  Be  Be3  1  0.15953600  0.97560700  0.09671300  1
  Be  Be4  1  0.65953600  0.02439300  0.40328700  1
  Be  Be5  1  0.34585500  0.69615200  0.91462900  1
  Be  Be6  1  0.84585500  0.30384800  0.58537100  1
  Be  Be7  1  0.65414500  0.30384800  0.08537100  1
  Be  Be8  1  0.15414500  0.69615200  0.41462900  1
  Be  Be9  1  0.84535100  0.66055700  0.76557700  1
  Be  Be10  1  0.34535100  0.33944300  0.73442300  1
  Be  Be11  1  0.15464900  0.33944300  0.23442300  1
  Si  Si0  1  0.27089300  0.66169800  0.26671500  1
  Si  Si1  1  0.77089300  0.33830200  0.23328500  1
  Si  Si2  1  0.72910700  0.33830200  0.73328500  1
  Si  Si3  1  0.22910700  0.66169800  0.76671500  1
  Si  Si4  1  0.76719000  0.69316000  0.41936800  1
  Si  Si5  1  0.26719000  0.30684000  0.08063200  1
  Si  Si6  1  0.23281000  0.30684000  0.58063200  1
  Si  Si7  1  0.73281000  0.69316000  0.91936800  1
  Si  Si8  1  0.26731800  0.03823400  0.40120900  1
  Si  Si9  1  0.76731800  0.96176600  0.09879100  1
  Si  Si10  1  0.73268200  0.96176600  0.59879100  1
  Si  Si11  1  0.23268200  0.03823400  0.90120900  1
  O  O0  1  0.37521100  0.21129800  0.53804200  1
  O  O1  1  0.46256400  0.57172500  0.32315600  1
  O  O2  1  0.96256400  0.42827500  0.17684400  1
  O  O3  1  0.53743600  0.42827500  0.67684400  1
  O  O4  1  0.03743600  0.57172500  0.82315600  1
  O  O5  1  0.96342800  0.71655900  0.46074900  1
  O  O6  1  0.46342800  0.28344100  0.03925100  1
  O  O7  1  0.03657200  0.28344100  0.53925100  1
  O  O8  1  0.53657200  0.71655900  0.96074900  1
  O  O9  1  0.46732900  0.13744200  0.39097800  1
  O  O10  1  0.96732900  0.86255800  0.10902200  1
  O  O11  1  0.53267100  0.86255800  0.60902200  1
  O  O12  1  0.37156800  0.22362000  0.85246500  1
  O  O13  1  0.87156800  0.77638000  0.64753500  1
  O  O14  1  0.62843200  0.77638000  0.14753500  1
  O  O15  1  0.12843200  0.22362000  0.35246500  1
  O  O16  1  0.87521100  0.78870200  0.96195800  1
  O  O17  1  0.03267100  0.13744200  0.89097800  1
  O  O18  1  0.12478900  0.21129800  0.03804200  1
  O  O19  1  0.62478900  0.78870200  0.46195800  1
  O  O20  1  0.73499900  0.09172300  0.97820000  1
  O  O21  1  0.87665500  0.42095200  0.64505800  1
  O  O22  1  0.62334500  0.42095200  0.14505800  1
  O  O23  1  0.12334500  0.57904800  0.35494200  1
  O  O24  1  0.76794300  0.11571300  0.30939900  1
  O  O25  1  0.26794300  0.88428700  0.19060100  1
  O  O26  1  0.23205700  0.88428700  0.69060100  1
  O  O27  1  0.73205700  0.11571300  0.80939900  1
  O  O28  1  0.76095100  0.76270700  0.30810200  1
  O  O29  1  0.26095100  0.23729300  0.19189800  1
  O  O30  1  0.23904900  0.23729300  0.69189800  1
  O  O31  1  0.73904900  0.76270700  0.80810200  1
  O  O32  1  0.26091200  0.88389600  0.36782900  1
  O  O33  1  0.76091200  0.11610400  0.13217100  1
  O  O34  1  0.73908800  0.11610400  0.63217100  1
  O  O35  1  0.23908800  0.88389600  0.86782900  1
  O  O36  1  0.75190200  0.44038700  0.30412800  1
  O  O37  1  0.25190200  0.55961300  0.19587200  1
  O  O38  1  0.24809800  0.55961300  0.69587200  1
  O  O39  1  0.74809800  0.44038700  0.80412800  1
  O  O40  1  0.73652100  0.45260300  0.47563100  1
  O  O41  1  0.23652100  0.54739700  0.02436900  1
  O  O42  1  0.26347900  0.54739700  0.52436900  1
  O  O43  1  0.76347900  0.45260300  0.97563100  1
  O  O44  1  0.76500100  0.09172300  0.47820000  1
  O  O45  1  0.26500100  0.90827700  0.02180000  1
  O  O46  1  0.23499900  0.90827700  0.52180000  1
  O  O47  1  0.37665500  0.57904800  0.85494200  1
loop_
_geom_bond_atom_site_label_1
_geom_bond_atom_site_label_2
_geom_bond_distance
_geom_bond_site_symmetry_2
Be0 O28 1.534316 1_555
Be0 O14 1.653766 1_555
Be0 O1 1.669892 1_555
Be0 O36 1.724008 1_555
Be1 O27 1.539335 1_555
Be1 O16 1.666326 1_545
Be1 O17 1.666556 1_655
Be1 O20 1.742155 1_555
Be2 O26 1.539335 1_555
Be2 O0 1.666326 1_565
Be2 O11 1.666556 1_555
Be2 O46 1.742155 1_555
Be3 O25 1.539335 1_555
Be3 O18 1.666326 1_565
Be3 O10 1.666556 1_455
Be3 O45 1.742155 1_555
Be4 O24 1.539335 1_555
Be4 O19 1.666326 1_545
Be4 O9 1.666556 1_555
Be4 O44 1.742155 1_555
Be5 O35 1.536978 1_555
Be5 O8 1.659736 1_555
Be5 O47 1.668217 1_555
Be5 O41 1.761724 1_556
Be6 O34 1.536978 1_555
Be6 O7 1.659736 1_655
Be6 O21 1.668217 1_555
Be6 O40 1.761724 1_555
Be7 O33 1.536978 1_555
Be7 O6 1.659736 1_555
Be7 O22 1.668217 1_555
Be7 O43 1.761724 1_554
Be8 O32 1.536978 1_555
Be8 O5 1.659736 1_455
Be8 O23 1.668217 1_555
Be8 O42 1.761724 1_555
Be9 O31 1.534316 1_555
Be9 O13 1.653766 1_555
Be9 O4 1.669892 1_655
Be9 O39 1.724008 1_555
Be10 O30 1.534316 1_555
Be10 O12 1.653766 1_555
Be10 O3 1.669892 1_555
Be10 O38 1.724008 1_555
Be11 O29 1.534316 1_555
Be11 O15 1.653766 1_555
Be11 O2 1.669892 1_455
Be11 O37 1.724008 1_555
O0 Si6 1.655739 1_555
O0 Ti7 2.091650 1_555
O1 Si0 1.662553 1_555
O1 Ti7 1.997886 1_555
O2 Si1 1.662553 1_555
O2 Ti6 1.997886 1_655
O3 Si2 1.662553 1_555
O3 Ti5 1.997886 1_555
O4 Si3 1.662553 1_555
O4 Ti4 1.997886 1_455
O5 Si4 1.667373 1_555
O5 Ti0 1.979832 1_655
O6 Si5 1.667373 1_555
O6 Ti3 1.979832 1_554
O7 Si6 1.667373 1_555
O7 Ti2 1.979832 1_455
O8 Si7 1.667373 1_555
O8 Ti1 1.979832 1_556
O9 Si8 1.672031 1_555
O9 Ti7 1.985178 1_555
O10 Si9 1.672031 1_555
O10 Ti6 1.985178 1_655
O11 Si10 1.672031 1_555
O11 Ti5 1.985178 1_555
O12 Si11 1.663104 1_555
O12 Ti3 2.088563 1_555
O13 Si10 1.663104 1_555
O13 Ti0 2.088563 1_655
O14 Si9 1.663104 1_555
O14 Ti1 2.088563 1_555
O15 Si8 1.663104 1_555
O15 Ti2 2.088563 1_455
O16 Si7 1.655739 1_555
O16 Ti6 2.091650 1_656
O17 Si11 1.672031 1_555
O17 Ti4 1.985178 1_455
O18 Si5 1.655739 1_555
O18 Ti4 2.091650 1_454
O19 Si4 1.655739 1_555
O19 Ti5 2.091650 1_555
O20 Si9 1.696467 1_546
O20 Ti3 2.222414 1_555
O20 Ti4 2.226772 1_555
O21 Si2 1.654538 1_555
O21 Ti0 2.120375 1_655
O22 Si1 1.654538 1_555
O22 Ti1 2.120375 1_555
O23 Si0 1.654538 1_555
O23 Ti2 2.120375 1_455
O24 Si1 1.587194 1_555
O25 Si0 1.587194 1_555
O26 Si3 1.587194 1_555
O27 Si2 1.587194 1_555
O28 Si4 1.584781 1_555
O29 Si5 1.584781 1_555
O30 Si6 1.584781 1_555
O31 Si7 1.584781 1_555
O32 Si8 1.586574 1_565
O33 Si9 1.586574 1_545
O34 Si10 1.586574 1_545
O35 Si11 1.586574 1_565
O36 Si1 1.715689 1_555
O36 Ti2 2.121846 1_555
O36 Ti7 2.222112 1_555
O37 Si0 1.715689 1_555
O37 Ti1 2.121846 1_555
O37 Ti6 2.222112 1_555
O38 Si3 1.715689 1_555
O38 Ti0 2.121846 1_555
O38 Ti5 2.222112 1_555
O39 Si2 1.715689 1_555
O39 Ti3 2.121846 1_555
O39 Ti4 2.222112 1_555
O40 Si4 1.696898 1_555
O40 Ti7 2.067442 1_555
O40 Ti2 2.353748 1_555
O41 Si5 1.696898 1_555
O41 Ti6 2.067442 1_555
O41 Ti1 2.353748 1_555
O42 Si6 1.696898 1_555
O42 Ti5 2.067442 1_555
O42 Ti0 2.353748 1_555
O43 Si7 1.696898 1_555
O43 Ti4 2.067442 1_555
O43 Ti3 2.353748 1_555
O44 Si10 1.696467 1_545
O44 Ti2 2.222414 1_555
O44 Ti7 2.226772 1_555
O45 Si11 1.696467 1_564
O45 Ti1 2.222414 1_555
O45 Ti6 2.226772 1_555
O46 Si8 1.696467 1_565
O46 Ti0 2.222414 1_555
O46 Ti5 2.226772 1_555
O47 Si3 1.654538 1_555
O47 Ti3 2.120375 1_555
