# generated using pymatgen
data_KVN2
_symmetry_space_group_name_H-M   'P 1'
_cell_length_a   5.71496100
_cell_length_b   11.49090200
_cell_length_c   16.02342800
_cell_angle_alpha   90.00000000
_cell_angle_beta   90.00000000
_cell_angle_gamma   90.00000000
_symmetry_Int_Tables_number   1
_chemical_formula_structural   KVN2
_chemical_formula_sum   'K16 V16 N32'
_cell_volume   1052.25942665
_cell_formula_units_Z   16
loop_
 _symmetry_equiv_pos_site_id
 _symmetry_equiv_pos_as_xyz
  1  'x, y, z'
loop_
 _atom_site_type_symbol
 _atom_site_label
 _atom_site_symmetry_multiplicity
 _atom_site_fract_x
 _atom_site_fract_y
 _atom_site_fract_z
 _atom_site_occupancy
  K  K0  1  0.24485900  0.00098200  0.43687000  1
  K  K1  1  0.74485900  0.49901800  0.56313000  1
  K  K2  1  0.75514100  0.50098200  0.06313000  1
  K  K3  1  0.25514100  0.99901800  0.93687000  1
  K  K4  1  0.75514100  0.99901800  0.56313000  1
  K  K5  1  0.25514100  0.50098200  0.43687000  1
  K  K6  1  0.24485900  0.49901800  0.93687000  1
  K  K7  1  0.74485900  0.00098200  0.06313000  1
  K  K8  1  0.30991800  0.25771200  0.31208300  1
  K  K9  1  0.80991800  0.24228800  0.68791700  1
  K  K10  1  0.69008200  0.75771200  0.18791700  1
  K  K11  1  0.19008200  0.74228800  0.81208300  1
  K  K12  1  0.69008200  0.74228800  0.68791700  1
  K  K13  1  0.19008200  0.75771200  0.31208300  1
  K  K14  1  0.30991800  0.24228800  0.81208300  1
  K  K15  1  0.80991800  0.25771200  0.18791700  1
  V  V0  1  0.73916600  0.00761800  0.31253000  1
  V  V1  1  0.23916600  0.49238200  0.68747000  1
  V  V2  1  0.26083400  0.50761800  0.18747000  1
  V  V3  1  0.76083400  0.99238200  0.81253000  1
  V  V4  1  0.26083400  0.99238200  0.68747000  1
  V  V5  1  0.76083400  0.50761800  0.31253000  1
  V  V6  1  0.73916600  0.49238200  0.81253000  1
  V  V7  1  0.23916600  0.00761800  0.18747000  1
  V  V8  1  0.78805300  0.26142200  0.43825600  1
  V  V9  1  0.28805300  0.23857800  0.56174400  1
  V  V10  1  0.21194700  0.76142200  0.06174400  1
  V  V11  1  0.71194700  0.73857800  0.93825600  1
  V  V12  1  0.21194700  0.73857800  0.56174400  1
  V  V13  1  0.71194700  0.76142200  0.43825600  1
  V  V14  1  0.78805300  0.23857800  0.93825600  1
  V  V15  1  0.28805300  0.26142200  0.06174400  1
  N  N0  1  0.08632600  0.26981200  0.47737700  1
  N  N1  1  0.58632600  0.23018800  0.52262300  1
  N  N2  1  0.91367400  0.76981200  0.02262300  1
  N  N3  1  0.41367400  0.73018800  0.97737700  1
  N  N4  1  0.91367400  0.73018800  0.52262300  1
  N  N5  1  0.41367400  0.76981200  0.47737700  1
  N  N6  1  0.08632600  0.23018800  0.97737700  1
  N  N7  1  0.58632600  0.26981200  0.02262300  1
  N  N8  1  0.70751500  0.39998100  0.39300700  1
  N  N9  1  0.20751500  0.10001900  0.60699300  1
  N  N10  1  0.29248500  0.89998100  0.10699300  1
  N  N11  1  0.79248500  0.60001900  0.89300700  1
  N  N12  1  0.29248500  0.60001900  0.60699300  1
  N  N13  1  0.79248500  0.89998100  0.39300700  1
  N  N14  1  0.70751500  0.10001900  0.89300700  1
  N  N15  1  0.20751500  0.39998100  0.10699300  1
  N  N16  1  0.76911700  0.15117100  0.35752700  1
  N  N17  1  0.26911700  0.34882900  0.64247300  1
  N  N18  1  0.23088300  0.65117100  0.14247300  1
  N  N19  1  0.73088300  0.84882900  0.85752700  1
  N  N20  1  0.23088300  0.84882900  0.64247300  1
  N  N21  1  0.73088300  0.65117100  0.35752700  1
  N  N22  1  0.76911700  0.34882900  0.85752700  1
  N  N23  1  0.26911700  0.15117100  0.14247300  1
  N  N24  1  0.55359300  0.48892500  0.22806000  1
  N  N25  1  0.05359300  0.01107500  0.77194000  1
  N  N26  1  0.44640700  0.98892500  0.27194000  1
  N  N27  1  0.94640700  0.51107500  0.72806000  1
  N  N28  1  0.44640700  0.51107500  0.77194000  1
  N  N29  1  0.94640700  0.98892500  0.22806000  1
  N  N30  1  0.55359300  0.01107500  0.72806000  1
  N  N31  1  0.05359300  0.48892500  0.27194000  1
loop_
_geom_bond_atom_site_label_1
_geom_bond_atom_site_label_2
_geom_bond_distance
_geom_bond_site_symmetry_2
K0 N26 2.886178 1_545
K0 N5 2.899701 1_545
K0 N13 2.919714 1_445
K0 N9 2.961667 1_555
K1 N27 2.886178 1_555
K1 N4 2.899701 1_555
K1 N12 2.919714 1_555
K1 N8 2.961667 1_555
K2 N24 2.886178 1_555
K2 N7 2.899701 1_555
K2 N15 2.919714 1_655
K2 N11 2.961667 1_554
K3 N25 2.886178 1_565
K3 N6 2.899701 1_565
K3 N14 2.919714 1_565
K3 N10 2.961667 1_556
K4 N30 2.886178 1_565
K4 N1 2.899701 1_565
K4 N9 2.919714 1_665
K4 N13 2.961667 1_555
K5 N31 2.886178 1_555
K5 N0 2.899701 1_555
K5 N8 2.919714 1_555
K5 N12 2.961667 1_555
K6 N28 2.886178 1_555
K6 N3 2.899701 1_555
K6 N11 2.919714 1_455
K6 N15 2.961667 1_556
K7 N29 2.886178 1_545
K7 N2 2.899701 1_545
K7 N10 2.919714 1_545
K7 N14 2.961667 1_554
K8 N0 2.943996 1_555
K8 N16 2.985967 1_555
K8 N23 2.989856 1_555
K8 N8 3.084975 1_555
K8 N31 3.101366 1_555
K8 N26 3.249872 1_545
K8 N24 3.287973 1_555
K8 N16 3.403113 1_455
K9 N1 2.943996 1_555
K9 N17 2.985967 1_655
K9 N22 2.989856 1_555
K9 N9 3.084975 1_655
K9 N30 3.101366 1_555
K9 N27 3.249872 1_555
K9 N25 3.287973 1_655
K9 N17 3.403113 1_555
K10 N2 2.943996 1_555
K10 N18 2.985967 1_555
K10 N21 2.989856 1_555
K10 N10 3.084975 1_555
K10 N29 3.101366 1_555
K10 N24 3.249872 1_555
K10 N26 3.287973 1_555
K10 N18 3.403113 1_655
K11 N3 2.943996 1_555
K11 N19 2.985967 1_455
K11 N20 2.989856 1_555
K11 N11 3.084975 1_455
K11 N28 3.101366 1_555
K11 N25 3.249872 1_565
K11 N27 3.287973 1_455
K11 N19 3.403113 1_555
K12 N4 2.943996 1_555
K12 N20 2.985967 1_555
K12 N19 2.989856 1_555
K12 N12 3.084975 1_555
K12 N27 3.101366 1_555
K12 N30 3.249872 1_565
K12 N28 3.287973 1_555
K12 N20 3.403113 1_655
K13 N5 2.943996 1_555
K13 N21 2.985967 1_455
K13 N18 2.989856 1_555
K13 N13 3.084975 1_455
K13 N26 3.101366 1_555
K13 N31 3.249872 1_555
K13 N29 3.287973 1_455
K13 N21 3.403113 1_555
K14 N6 2.943996 1_555
K14 N22 2.985967 1_555
K14 N17 2.989856 1_555
K14 N14 3.084975 1_555
K14 N25 3.101366 1_555
K14 N28 3.249872 1_555
K14 N30 3.287973 1_555
K14 N22 3.403113 1_455
K15 N7 2.943996 1_555
K15 N23 2.985967 1_655
K15 N16 2.989856 1_555
K15 N15 3.084975 1_655
K15 N24 3.101366 1_555
K15 N29 3.249872 1_545
K15 N31 3.287973 1_655
K15 N23 3.403113 1_555
N0 V9 1.812567 1_555
N0 V8 1.818781 1_455
N1 V8 1.812567 1_555
N1 V9 1.818781 1_555
N2 V11 1.812567 1_554
N2 V10 1.818781 1_655
N3 V10 1.812567 1_556
N3 V11 1.818781 1_555
N4 V13 1.812567 1_555
N4 V12 1.818781 1_655
N5 V12 1.812567 1_555
N5 V13 1.818781 1_555
N6 V15 1.812567 1_556
N6 V14 1.818781 1_455
N7 V14 1.812567 1_554
N7 V15 1.818781 1_555
N8 V8 1.809016 1_555
N8 V5 1.812594 1_555
N9 V9 1.809016 1_555
N9 V4 1.812594 1_545
N10 V10 1.809016 1_555
N10 V7 1.812594 1_565
N11 V11 1.809016 1_555
N11 V6 1.812594 1_555
N12 V12 1.809016 1_555
N12 V1 1.812594 1_555
N13 V13 1.809016 1_555
N13 V0 1.812594 1_565
N14 V14 1.809016 1_555
N14 V3 1.812594 1_545
N15 V15 1.809016 1_555
N15 V2 1.812594 1_555
N16 V0 1.808363 1_555
N16 V8 1.813833 1_555
N17 V1 1.808363 1_555
N17 V9 1.813833 1_555
N18 V2 1.808363 1_555
N18 V10 1.813833 1_555
N19 V3 1.808363 1_555
N19 V11 1.813833 1_555
N20 V4 1.808363 1_555
N20 V12 1.813833 1_555
N21 V5 1.808363 1_555
N21 V13 1.813833 1_555
N22 V6 1.808363 1_555
N22 V14 1.813833 1_555
N23 V7 1.808363 1_555
N23 V15 1.813833 1_555
N24 V2 1.807880 1_555
N24 V5 1.811309 1_555
N25 V3 1.807880 1_445
N25 V4 1.811309 1_545
N26 V0 1.807880 1_565
N26 V7 1.811309 1_565
N27 V1 1.807880 1_655
N27 V6 1.811309 1_555
N28 V6 1.807880 1_555
N28 V1 1.811309 1_555
N29 V7 1.807880 1_665
N29 V0 1.811309 1_565
N30 V4 1.807880 1_545
N30 V3 1.811309 1_545
N31 V5 1.807880 1_455
N31 V2 1.811309 1_555
