# generated using pymatgen
data_BaRu2Xe5F22
_symmetry_space_group_name_H-M   'P 1'
_cell_length_a   9.93889411
_cell_length_b   9.35809475
_cell_length_c   9.27430954
_cell_angle_alpha   64.47178717
_cell_angle_beta   58.17266439
_cell_angle_gamma   57.35554845
_symmetry_Int_Tables_number   1
_chemical_formula_structural   BaRu2Xe5F22
_chemical_formula_sum   'Ba1 Ru2 Xe5 F22'
_cell_volume   604.04960489
_cell_formula_units_Z   1
loop_
 _symmetry_equiv_pos_site_id
 _symmetry_equiv_pos_as_xyz
  1  'x, y, z'
loop_
 _atom_site_type_symbol
 _atom_site_label
 _atom_site_symmetry_multiplicity
 _atom_site_fract_x
 _atom_site_fract_y
 _atom_site_fract_z
 _atom_site_occupancy
  Ba  Ba0  1  0.00000000  0.00000000  0.00000000  1
  Ru  Ru0  1  0.50000000  0.00000000  0.50000000  1
  Ru  Ru1  1  0.00000000  0.50000000  0.00000000  1
  Xe  Xe0  1  0.50000000  0.50000000  0.50000000  1
  Xe  Xe1  1  0.00000000  0.50000000  0.50000000  1
  Xe  Xe2  1  0.50000000  0.00000000  0.00000000  1
  Xe  Xe3  1  0.50000000  0.50000000  0.00000000  1
  Xe  Xe4  1  0.00000000  0.00000000  0.50000000  1
  F  F0  1  0.64814600  0.35185400  0.64814600  1
  F  F1  1  0.35185400  0.64814600  0.35185400  1
  F  F2  1  0.05864200  0.69958100  0.30041900  1
  F  F3  1  0.94135800  0.30041900  0.69958100  1
  F  F4  1  0.69958100  0.05864200  0.94135800  1
  F  F5  1  0.30041900  0.94135800  0.05864200  1
  F  F6  1  0.29930000  0.70070000  0.92423100  1
  F  F7  1  0.07576900  0.92423100  0.70070000  1
  F  F8  1  0.70070000  0.29930000  0.07576900  1
  F  F9  1  0.92423100  0.07576900  0.29930000  1
  F  F10  1  0.29532000  0.05030500  0.70468000  1
  F  F11  1  0.94969500  0.70468000  0.05030500  1
  F  F12  1  0.05030500  0.29532000  0.94969500  1
  F  F13  1  0.70468000  0.94969500  0.29532000  1
  F  F14  1  0.58494200  0.76324500  0.60761100  1
  F  F15  1  0.04420300  0.60761100  0.76324500  1
  F  F16  1  0.76324500  0.58494200  0.04420300  1
  F  F17  1  0.60761100  0.04420300  0.58494200  1
  F  F18  1  0.41505800  0.23675500  0.39238900  1
  F  F19  1  0.95579700  0.39238900  0.23675500  1
  F  F20  1  0.23675500  0.41505800  0.95579700  1
  F  F21  1  0.39238900  0.95579700  0.41505800  1
loop_
_geom_bond_atom_site_label_1
_geom_bond_atom_site_label_2
_geom_bond_distance
_geom_bond_site_symmetry_2
Ba0 F9 2.773182 1_455
Ba0 F8 2.773182 1_455
Ba0 F6 2.773182 1_544
Ba0 F7 2.773182 1_544
Ba0 F12 2.870308 1_554
Ba0 F10 2.870308 1_554
Ba0 F13 2.870308 1_445
Ba0 F11 2.870308 1_445
Ba0 F5 3.033132 1_545
Ba0 F2 3.033132 1_545
Ba0 F3 3.033132 1_454
Ba0 F4 3.033132 1_454
F0 Xe0 2.065779 1_555
F1 Xe0 2.065779 1_555
F2 Xe1 2.076287 1_555
F3 Xe1 2.076287 1_655
F4 Xe2 2.076287 1_556
F5 Xe2 2.076287 1_565
F6 Xe3 2.073475 1_556
F7 Xe4 2.073475 1_565
F8 Xe3 2.073475 1_555
F9 Xe4 2.073475 1_655
F10 Ru0 1.904595 1_555
F11 Ru1 1.904595 1_655
F12 Ru1 1.904595 1_556
F13 Ru0 1.904595 1_565
F14 Ru0 1.892728 1_565
F15 Ru1 1.892728 1_556
F16 Ru1 1.892726 1_655
F17 Ru0 1.892735 1_555
F18 Ru0 1.892728 1_555
F19 Ru1 1.892728 1_655
F20 Ru1 1.892726 1_556
F21 Ru0 1.892735 1_565
