# generated using pymatgen
data_NaMn6P7O24
_symmetry_space_group_name_H-M   'P 1'
_cell_length_a   5.44000823
_cell_length_b   6.65253350
_cell_length_c   27.06500900
_cell_angle_alpha   90.00000000
_cell_angle_beta   90.00000000
_cell_angle_gamma   107.37521010
_symmetry_Int_Tables_number   1
_chemical_formula_structural   NaMn6P7O24
_chemical_formula_sum   'Na2 Mn12 P14 O48'
_cell_volume   934.78430226
_cell_formula_units_Z   2
loop_
 _symmetry_equiv_pos_site_id
 _symmetry_equiv_pos_as_xyz
  1  'x, y, z'
loop_
 _atom_site_type_symbol
 _atom_site_label
 _atom_site_symmetry_multiplicity
 _atom_site_fract_x
 _atom_site_fract_y
 _atom_site_fract_z
 _atom_site_occupancy
  Na  Na0  1  0.77863200  0.57012500  0.75000000  1
  Na  Na1  1  0.22136800  0.42987600  0.25000000  1
  Mn  Mn0  1  0.87283100  0.72090600  0.18283600  1
  Mn  Mn1  1  0.12717100  0.27909500  0.68283600  1
  Mn  Mn2  1  0.87283100  0.72090600  0.31716400  1
  Mn  Mn3  1  0.12717100  0.27909500  0.81716400  1
  Mn  Mn4  1  0.18663000  0.68565800  0.95517800  1
  Mn  Mn5  1  0.81337000  0.31434200  0.45517800  1
  Mn  Mn6  1  0.81337000  0.31434200  0.04482200  1
  Mn  Mn7  1  0.18663000  0.68565800  0.54482200  1
  Mn  Mn8  1  0.79202900  0.91290100  0.90226000  1
  Mn  Mn9  1  0.20797100  0.08710000  0.40226000  1
  Mn  Mn10  1  0.20797100  0.08710000  0.09774000  1
  Mn  Mn11  1  0.79202900  0.91290100  0.59774000  1
  P  P0  1  0.24941900  0.80695000  0.66791300  1
  P  P1  1  0.31494500  0.61724400  0.39025700  1
  P  P2  1  0.24941900  0.80695000  0.83208700  1
  P  P3  1  0.75058100  0.19304900  0.33208700  1
  P  P4  1  0.75058100  0.19304900  0.16791300  1
  P  P5  1  0.68505400  0.38275500  0.89025700  1
  P  P6  1  0.45838000  0.91317300  0.25000000  1
  P  P7  1  0.54162000  0.08682800  0.75000000  1
  P  P8  1  0.31494500  0.61724400  0.10974300  1
  P  P9  1  0.68505400  0.38275500  0.60974300  1
  P  P10  1  0.70829800  0.79499600  0.47528300  1
  P  P11  1  0.29170200  0.20500400  0.97528300  1
  P  P12  1  0.70829800  0.79499600  0.02471700  1
  P  P13  1  0.29170200  0.20500400  0.52471700  1
  O  O0  1  0.85512300  0.63111000  0.02228300  1
  O  O1  1  0.14487700  0.36889000  0.52228300  1
  O  O2  1  0.14487700  0.36889000  0.97771700  1
  O  O3  1  0.85512300  0.63111000  0.47771700  1
  O  O4  1  0.58835700  0.82427500  0.97470800  1
  O  O5  1  0.41164300  0.17572600  0.47470800  1
  O  O6  1  0.41164300  0.17572600  0.02529200  1
  O  O7  1  0.58835700  0.82427500  0.52529200  1
  O  O8  1  0.87117000  0.00326800  0.04769800  1
  O  O9  1  0.12883000  0.99673100  0.54769800  1
  O  O10  1  0.12883000  0.99673100  0.95230200  1
  O  O11  1  0.87117000  0.00326800  0.45230200  1
  O  O12  1  0.45585800  0.71147500  0.05870100  1
  O  O13  1  0.54414200  0.28852500  0.55870200  1
  O  O14  1  0.14207200  0.39692600  0.09502800  1
  O  O15  1  0.45585800  0.71147500  0.44129900  1
  O  O16  1  0.82635600  0.21081400  0.75000000  1
  O  O17  1  0.17364300  0.78918500  0.25000000  1
  O  O18  1  0.35788800  0.22089800  0.75000000  1
  O  O19  1  0.64211200  0.77910300  0.25000000  1
  O  O20  1  0.49554300  0.93374000  0.70372500  1
  O  O21  1  0.50445700  0.06626000  0.20372500  1
  O  O22  1  0.50445700  0.06626000  0.29627500  1
  O  O23  1  0.49554300  0.93374000  0.79627500  1
  O  O24  1  0.50728600  0.61198400  0.14951200  1
  O  O25  1  0.49271400  0.38801700  0.64951200  1
  O  O26  1  0.49271400  0.38801700  0.85048800  1
  O  O27  1  0.50728600  0.61198400  0.35048800  1
  O  O28  1  0.07001900  0.94654900  0.66497500  1
  O  O29  1  0.92998100  0.05345200  0.16497500  1
  O  O30  1  0.92998100  0.05345200  0.33502500  1
  O  O31  1  0.07001900  0.94654900  0.83502600  1
  O  O32  1  0.39009100  0.79182800  0.61979300  1
  O  O33  1  0.60990900  0.20817300  0.11979300  1
  O  O34  1  0.60990900  0.20817300  0.38020700  1
  O  O35  1  0.39009100  0.79182800  0.88020700  1
  O  O36  1  0.12277800  0.59925400  0.69409100  1
  O  O37  1  0.87722200  0.40074600  0.19409100  1
  O  O38  1  0.87722200  0.40074600  0.30590900  1
  O  O39  1  0.12277800  0.59925400  0.80590900  1
  O  O40  1  0.15315900  0.76597400  0.12247500  1
  O  O41  1  0.84684100  0.23402600  0.62247500  1
  O  O42  1  0.84684100  0.23402600  0.87752500  1
  O  O43  1  0.15315900  0.76597400  0.37752500  1
  O  O44  1  0.14207200  0.39692600  0.40497200  1
  O  O45  1  0.85792800  0.60307500  0.90497200  1
  O  O46  1  0.85792800  0.60307500  0.59502800  1
  O  O47  1  0.54414200  0.28852500  0.94129900  1
loop_
_geom_bond_atom_site_label_1
_geom_bond_atom_site_label_2
_geom_bond_distance
_geom_bond_site_symmetry_2
Na0 O39 2.369716 1_655
Na0 O36 2.369716 1_655
Na0 O16 2.480265 1_555
Na0 O18 2.731366 1_555
Na1 O37 2.369714 1_455
Na1 O38 2.369714 1_455
Na1 O17 2.480254 1_555
Na1 O19 2.731366 1_555
Mn0 O24 2.105304 1_555
Mn0 O37 2.158730 1_555
Mn0 O40 2.193463 1_655
Mn0 O29 2.194016 1_565
Mn0 O19 2.306469 1_555
Mn0 O17 2.396794 1_655
Mn1 O25 2.105294 1_555
Mn1 O36 2.158727 1_555
Mn1 O41 2.193470 1_455
Mn1 O28 2.194015 1_545
Mn1 O18 2.306462 1_555
Mn1 O16 2.396805 1_455
Mn2 O27 2.105304 1_555
Mn2 O38 2.158730 1_555
Mn2 O43 2.193463 1_655
Mn2 O30 2.194016 1_565
Mn2 O19 2.306469 1_555
Mn2 O17 2.396794 1_655
Mn3 O26 2.105294 1_555
Mn3 O39 2.158727 1_555
Mn3 O42 2.193470 1_455
Mn3 O31 2.194021 1_545
Mn3 O18 2.306462 1_555
Mn3 O16 2.396805 1_455
Mn4 O2 2.139765 1_555
Mn4 O4 2.168432 1_555
Mn4 O45 2.181502 1_455
Mn4 O10 2.185422 1_555
Mn4 O35 2.318239 1_555
Mn4 O0 2.508317 1_456
Mn5 O3 2.139765 1_555
Mn5 O5 2.168431 1_555
Mn5 O44 2.181502 1_655
Mn5 O11 2.185429 1_555
Mn5 O34 2.318238 1_555
Mn5 O1 2.508317 1_655
Mn6 O0 2.139765 1_555
Mn6 O6 2.168431 1_555
Mn6 O14 2.181502 1_655
Mn6 O8 2.185429 1_555
Mn6 O33 2.318238 1_555
Mn6 O2 2.508317 1_654
Mn7 O1 2.139765 1_555
Mn7 O7 2.168432 1_555
Mn7 O46 2.181502 1_455
Mn7 O9 2.185422 1_555
Mn7 O32 2.318239 1_555
Mn7 O3 2.508317 1_455
Mn8 O42 2.172644 1_565
Mn8 O35 2.175803 1_555
Mn8 O45 2.196238 1_555
Mn8 O10 2.211801 1_655
Mn8 O4 2.242728 1_555
Mn8 O31 2.333699 1_655
Mn9 O43 2.172651 1_545
Mn9 O34 2.175803 1_555
Mn9 O44 2.196238 1_555
Mn9 O11 2.211801 1_455
Mn9 O5 2.242728 1_555
Mn9 O30 2.333720 1_455
Mn10 O40 2.172651 1_545
Mn10 O33 2.175803 1_555
Mn10 O14 2.196238 1_555
Mn10 O8 2.211801 1_455
Mn10 O6 2.242728 1_555
Mn10 O29 2.333720 1_455
Mn11 O41 2.172644 1_565
Mn11 O32 2.175803 1_555
Mn11 O46 2.196238 1_555
Mn11 O9 2.211801 1_655
Mn11 O7 2.242728 1_555
Mn11 O28 2.333720 1_655
O0 P12 1.533320 1_555
O1 P13 1.533320 1_555
O2 P11 1.533320 1_555
O3 P10 1.533320 1_555
O4 P12 1.539974 1_556
O5 P13 1.539972 1_555
O6 P11 1.539972 1_554
O7 P10 1.539974 1_555
O8 P12 1.535711 1_545
O9 P13 1.535716 1_565
O10 P11 1.535716 1_565
O11 P10 1.535711 1_545
O12 P12 1.607754 1_555
O12 P8 1.613072 1_555
O13 P13 1.607770 1_555
O13 P9 1.613045 1_555
O14 P8 1.538825 1_555
O15 P10 1.607754 1_555
O15 P1 1.613072 1_555
O16 P7 1.522025 1_555
O17 P6 1.522033 1_555
O18 P7 1.525429 1_555
O19 P6 1.525429 1_555
O20 P7 1.586234 1_565
O20 P0 1.664058 1_555
O21 P6 1.586230 1_545
O21 P4 1.664057 1_555
O22 P6 1.586230 1_545
O22 P3 1.664057 1_555
O23 P7 1.586234 1_565
O23 P2 1.664058 1_555
O24 P8 1.508787 1_555
O25 P9 1.508786 1_555
O26 P5 1.508786 1_555
O27 P1 1.508787 1_555
O28 P0 1.537060 1_555
O29 P4 1.537049 1_555
O30 P3 1.537049 1_555
O31 P2 1.537061 1_555
O32 P0 1.529013 1_555
O33 P4 1.529016 1_555
O34 P3 1.529016 1_555
O35 P2 1.529013 1_555
O36 P0 1.522231 1_555
O37 P4 1.522236 1_555
O38 P3 1.522236 1_555
O39 P2 1.522231 1_555
O40 P8 1.546746 1_555
O41 P9 1.546745 1_555
O42 P5 1.546745 1_555
O43 P1 1.546746 1_555
O44 P1 1.538825 1_555
O45 P5 1.538837 1_555
O46 P9 1.538837 1_555
O47 P11 1.607754 1_555
O47 P5 1.613069 1_555
