# generated using pymatgen
data_CeFe(Ni2Ge)4
_symmetry_space_group_name_H-M   'P 1'
_cell_length_a   8.04220023
_cell_length_b   8.04220023
_cell_length_c   8.24510227
_cell_angle_alpha   60.60558860
_cell_angle_beta   60.60558860
_cell_angle_gamma   89.63307898
_symmetry_Int_Tables_number   1
_chemical_formula_structural   CeFe(Ni2Ge)4
_chemical_formula_sum   'Ce2 Fe2 Ni16 Ge8'
_cell_volume   385.00287542
_cell_formula_units_Z   2
loop_
 _symmetry_equiv_pos_site_id
 _symmetry_equiv_pos_as_xyz
  1  'x, y, z'
loop_
 _atom_site_type_symbol
 _atom_site_label
 _atom_site_symmetry_multiplicity
 _atom_site_fract_x
 _atom_site_fract_y
 _atom_site_fract_z
 _atom_site_occupancy
  Ce  Ce0  1  0.25190200  0.25190200  0.49619600  1
  Ce  Ce1  1  0.75190200  0.75190200  0.49619600  1
  Fe  Fe0  1  0.70018400  0.44170200  0.35811400  1
  Fe  Fe1  1  0.94170200  0.20018400  0.35811400  1
  Ni  Ni0  1  0.43289100  0.70342400  0.99969200  1
  Ni  Ni1  1  0.56741700  0.29688400  0.99969200  1
  Ni  Ni2  1  0.06526200  0.20339200  0.00183400  1
  Ni  Ni3  1  0.93290300  0.79477300  0.00183400  1
  Ni  Ni4  1  0.29477300  0.43290300  0.00183400  1
  Ni  Ni5  1  0.70339200  0.56526200  0.00183400  1
  Ni  Ni6  1  0.79688400  0.06741700  0.99969200  1
  Ni  Ni7  1  0.20342400  0.93289100  0.99969200  1
  Ni  Ni8  1  0.00059100  0.50059100  0.99881900  1
  Ni  Ni9  1  0.49971200  0.99971200  0.00057600  1
  Ni  Ni10  1  0.44084700  0.94084700  0.36363800  1
  Ni  Ni11  1  0.19551500  0.69551500  0.36363800  1
  Ni  Ni12  1  0.30559200  0.55671400  0.63769500  1
  Ni  Ni13  1  0.05671400  0.80559200  0.63769500  1
  Ni  Ni14  1  0.55773900  0.05773900  0.63938700  1
  Ni  Ni15  1  0.80287400  0.30287400  0.63938700  1
  Ge  Ge0  1  0.55239200  0.70362900  0.24397800  1
  Ge  Ge1  1  0.20362900  0.05239200  0.24397800  1
  Ge  Ge2  1  0.69946800  0.19946800  0.24671700  1
  Ge  Ge3  1  0.05381600  0.55381600  0.24671700  1
  Ge  Ge4  1  0.44613900  0.29635100  0.75751000  1
  Ge  Ge5  1  0.79635100  0.94613900  0.75751000  1
  Ge  Ge6  1  0.29817300  0.79817300  0.75401400  1
  Ge  Ge7  1  0.94781300  0.44781300  0.75401400  1
loop_
_geom_bond_atom_site_label_1
_geom_bond_atom_site_label_2
_geom_bond_distance
_geom_bond_site_symmetry_2
Ce0 Ni10 3.281202 1_545
Ce0 Ni11 3.281202 1_555
Ce0 Ni13 3.297293 1_545
Ce0 Ni12 3.297303 1_555
Ce0 Ni14 3.297492 1_555
Ce0 Ni15 3.297492 1_455
Ce0 Ge3 3.305876 1_555
Ce0 Ge2 3.305879 1_555
Ce0 Fe1 3.310414 1_455
Ce0 Fe0 3.310414 1_555
Ce0 Ge7 3.334225 1_455
Ce0 Ge6 3.334225 1_545
Ce0 Ge0 3.335495 1_555
Ce0 Ge1 3.335504 1_555
Ce0 Ge4 3.358134 1_555
Ce0 Ge5 3.358134 1_445
Ce0 Ni5 3.413882 1_555
Ce0 Ni4 3.413887 1_555
Ce0 Ni1 3.418953 1_554
Ce0 Ni0 3.418953 1_554
Ce0 Ni7 3.454998 1_545
Ce0 Ni6 3.454998 1_455
Ce0 Ni2 3.471911 1_556
Ce0 Ni3 3.471916 1_446
Ce1 Ni10 3.281202 1_555
Ce1 Ni11 3.281202 1_655
Ce1 Ni12 3.297293 1_555
Ce1 Ni13 3.297303 1_655
Ce1 Ni15 3.297492 1_555
Ce1 Ni14 3.297492 1_565
Ce1 Ge3 3.305876 1_655
Ce1 Ge2 3.305879 1_565
Ce1 Fe1 3.310414 1_565
Ce1 Fe0 3.310414 1_555
Ce1 Ge7 3.334225 1_555
Ce1 Ge6 3.334225 1_555
Ce1 Ge1 3.335495 1_665
Ce1 Ge0 3.335504 1_555
Ce1 Ge4 3.358134 1_555
Ce1 Ge5 3.358134 1_555
Ce1 Ni2 3.413882 1_665
Ce1 Ni3 3.413887 1_555
Ce1 Ni6 3.418953 1_564
Ce1 Ni7 3.418953 1_654
Ce1 Ni0 3.454998 1_555
Ce1 Ni1 3.454998 1_555
Ce1 Ni5 3.471911 1_556
Ce1 Ni4 3.471916 1_556
Fe0 Ge0 2.419817 1_555
Fe0 Ge4 2.456071 1_555
Fe0 Ge2 2.529916 1_555
Fe0 Ge3 2.529925 1_655
Fe0 Ni8 2.539450 1_654
Fe0 Ni15 2.575552 1_555
Fe0 Ni14 2.575552 1_555
Fe0 Ni3 2.584153 1_555
Fe0 Ni5 2.584158 1_555
Fe0 Fe1 2.738069 1_555
Fe1 Ge1 2.419817 1_655
Fe1 Ge5 2.456071 1_545
Fe1 Ge2 2.529916 1_555
Fe1 Ge3 2.529925 1_655
Fe1 Ni8 2.539450 1_654
Fe1 Ni15 2.575552 1_555
Fe1 Ni14 2.575552 1_555
Fe1 Ni4 2.584153 1_655
Fe1 Ni2 2.584158 1_655
Ni0 Ni4 2.437472 1_556
Ni0 Ni5 2.440261 1_556
Ni0 Ni9 2.450286 1_556
Ni0 Ni14 2.598455 1_565
Ni0 Ni7 2.601447 1_555
Ni0 Ni11 2.616083 1_556
Ni1 Ni5 2.437461 1_556
Ni1 Ni4 2.440264 1_556
Ni1 Ni9 2.450286 1_546
Ni1 Ni15 2.598455 1_555
Ni1 Ni6 2.601447 1_555
Ni1 Ni10 2.616083 1_546
Ni2 Ni8 2.433578 1_554
Ni2 Ni6 2.437461 1_454
Ni2 Ni7 2.440261 1_544
Ni2 Ni4 2.618663 1_555
Ni3 Ni8 2.433566 1_654
Ni3 Ni7 2.437472 1_654
Ni3 Ni6 2.440264 1_564
Ni3 Ni5 2.618663 1_555
Ni4 Ni8 2.433566 1_554
Ni5 Ni8 2.433578 1_654
Ni6 Ni9 2.450286 1_546
Ni7 Ni9 2.450286 1_556
Ni10 Ni12 2.571102 1_555
Ni10 Ni13 2.571102 1_555
Ni10 Ni9 2.574845 1_555
Ni10 Ni6 2.616083 1_564
Ni10 Ni11 2.799176 1_555
Ni11 Ni12 2.571109 1_555
Ni11 Ni13 2.571109 1_555
Ni11 Ni9 2.574845 1_555
Ni11 Ni7 2.616083 1_554
Ni12 Ni8 2.571278 1_555
Ni12 Ni4 2.612140 1_556
Ni12 Ni2 2.612152 1_556
Ni13 Ni8 2.571278 1_555
Ni13 Ni3 2.612140 1_456
Ni13 Ni5 2.612152 1_456
Ni14 Ni9 2.564880 1_546
Ni14 Ni7 2.598455 1_545
Ni14 Ni15 2.796929 1_555
Ni15 Ni9 2.564880 1_546
Ni15 Ni6 2.598455 1_555
Ge0 Ni12 2.411149 1_555
Ge0 Ni9 2.451065 1_555
Ge0 Ni11 2.524786 1_555
Ge0 Ni10 2.524793 1_555
Ge0 Ni5 2.546089 1_555
Ge0 Ni3 2.546089 1_555
Ge0 Ni0 2.623723 1_554
Ge0 Ni6 2.623732 1_564
Ge1 Ni13 2.411149 1_545
Ge1 Ni9 2.451065 1_545
Ge1 Ni11 2.524786 1_545
Ge1 Ni10 2.524793 1_545
Ge1 Ni4 2.546089 1_555
Ge1 Ni2 2.546089 1_555
Ge1 Ni7 2.623723 1_544
Ge1 Ni1 2.623732 1_554
Ge2 Ni10 2.387485 1_545
Ge2 Ni14 2.419104 1_555
Ge2 Ni8 2.502834 1_654
Ge2 Ni6 2.536959 1_554
Ge2 Ni1 2.536959 1_554
Ge2 Ni2 2.615303 1_655
Ge2 Ni5 2.615303 1_555
Ge3 Ni11 2.387474 1_555
Ge3 Ni15 2.419107 1_455
Ge3 Ni8 2.502834 1_554
Ge3 Ni7 2.536952 1_554
Ge3 Ni0 2.536952 1_554
Ge3 Ni3 2.615309 1_455
Ge3 Ni4 2.615309 1_555
Ge4 Ni12 2.381838 1_555
Ge4 Ni9 2.456516 1_546
Ge4 Ni15 2.528045 1_555
Ge4 Ni14 2.528045 1_555
Ge4 Ni4 2.548187 1_556
Ge4 Ni2 2.548192 1_556
Ge4 Ni1 2.618941 1_555
Ge4 Ni7 2.618941 1_545
Ge5 Ni13 2.381838 1_655
Ge5 Ni9 2.456516 1_556
Ge5 Ni14 2.528045 1_565
Ge5 Ni15 2.528045 1_565
Ge5 Ni3 2.548187 1_556
Ge5 Ni5 2.548192 1_556
Ge5 Ni0 2.618941 1_555
Ge5 Ni6 2.618941 1_565
Ge6 Ni10 2.399841 1_555
Ge6 Ni14 2.406420 1_565
Ge6 Ni8 2.473598 1_555
Ge6 Ni12 2.542577 1_555
Ge6 Ni13 2.542577 1_555
Ge6 Ni0 2.546813 1_555
Ge6 Ni7 2.546813 1_555
Ge6 Ni3 2.619012 1_456
Ge6 Ni4 2.619012 1_556
Ge7 Ni11 2.399841 1_655
Ge7 Ni15 2.406420 1_555
Ge7 Ni8 2.473607 1_655
Ge7 Ni12 2.542586 1_655
Ge7 Ni13 2.542586 1_655
Ge7 Ni6 2.546813 1_555
Ge7 Ni1 2.546813 1_555
Ge7 Ni2 2.619009 1_656
Ge7 Ni5 2.619009 1_556
