# generated using pymatgen
data_Mg7Ga
_symmetry_space_group_name_H-M   'P 1'
_cell_length_a   6.25753820
_cell_length_b   6.25753820
_cell_length_c   5.04361365
_cell_angle_alpha   90.00000000
_cell_angle_beta   90.00000000
_cell_angle_gamma   119.99999912
_symmetry_Int_Tables_number   1
_chemical_formula_structural   Mg7Ga
_chemical_formula_sum   'Mg7 Ga1'
_cell_volume   171.03282358
_cell_formula_units_Z   1
loop_
 _symmetry_equiv_pos_site_id
 _symmetry_equiv_pos_as_xyz
  1  'x, y, z'
loop_
 _atom_site_type_symbol
 _atom_site_label
 _atom_site_symmetry_multiplicity
 _atom_site_fract_x
 _atom_site_fract_y
 _atom_site_fract_z
 _atom_site_occupancy
  Mg  Mg0  1  0.83346079  0.66692058  0.00000000  1
  Mg  Mg1  1  0.33307942  0.16653921  0.00000000  1
  Mg  Mg2  1  0.83346079  0.16653921  -0.00000000  1
  Mg  Mg3  1  0.49867874  0.50132126  0.50000000  1
  Mg  Mg4  1  0.00264353  0.50132126  0.50000000  1
  Mg  Mg5  1  0.49867874  0.99735647  0.50000000  1
  Mg  Mg6  1  0.00000000  -0.00000000  0.50000000  1
  Ga  Ga0  1  0.33333300  0.66666700  0.00000000  1
loop_
_geom_bond_atom_site_label_1
_geom_bond_atom_site_label_2
_geom_bond_distance
_geom_bond_site_symmetry_2
Mg0 Mg6 3.101226 1_664
Mg0 Mg6 3.101226 1_665
Mg0 Mg3 3.106626 1_555
Mg0 Mg3 3.106626 1_554
Mg0 Mg4 3.106626 1_654
Mg0 Mg4 3.106626 1_655
Mg0 Mg2 3.126383 1_565
Mg0 Mg1 3.126383 1_665
Mg0 Mg2 3.131156 1_555
Mg0 Mg1 3.131156 1_555
Mg1 Mg6 3.101226 1_554
Mg1 Mg6 3.101226 1_555
Mg1 Mg3 3.106626 1_554
Mg1 Mg3 3.106626 1_555
Mg1 Mg5 3.106626 1_545
Mg1 Mg5 3.106626 1_544
Mg1 Mg2 3.126383 1_455
Mg1 Mg2 3.131156 1_555
Mg2 Mg6 3.101223 1_654
Mg2 Mg6 3.101223 1_655
Mg2 Mg4 3.106626 1_654
Mg2 Mg4 3.106626 1_655
Mg2 Mg5 3.106626 1_544
Mg2 Mg5 3.106626 1_545
Mg3 Mg4 3.103959 1_555
Mg3 Mg5 3.103959 1_555
Mg3 Mg6 3.128802 1_665
Mg3 Mg6 3.128802 1_555
Mg3 Mg5 3.153579 1_545
Mg3 Mg4 3.153579 1_655
Mg4 Mg5 3.103959 1_555
Mg4 Mg6 3.128799 1_555
Mg4 Mg6 3.128805 1_565
Mg4 Mg5 3.153579 1_445
Mg5 Mg6 3.128799 1_665
Mg5 Mg6 3.128805 1_565
Ga0 Mg4 3.093706 1_554
Ga0 Mg5 3.093706 1_555
Ga0 Mg4 3.093706 1_555
Ga0 Mg5 3.093706 1_554
Ga0 Mg3 3.093712 1_555
Ga0 Mg3 3.093712 1_554
Ga0 Mg0 3.128763 1_455
Ga0 Mg1 3.128763 1_565
Ga0 Mg2 3.128769 1_455
Ga0 Mg2 3.128769 1_565
Ga0 Mg0 3.128776 1_555
Ga0 Mg1 3.128776 1_555
