# generated using pymatgen
data_MgV6O5F19
_symmetry_space_group_name_H-M   'P 1'
_cell_length_a   5.45130209
_cell_length_b   5.37435212
_cell_length_c   15.51809902
_cell_angle_alpha   90.03088917
_cell_angle_beta   100.10533544
_cell_angle_gamma   91.22233535
_symmetry_Int_Tables_number   1
_chemical_formula_structural   MgV6O5F19
_chemical_formula_sum   'Mg1 V6 O5 F19'
_cell_volume   447.47817233
_cell_formula_units_Z   1
loop_
 _symmetry_equiv_pos_site_id
 _symmetry_equiv_pos_as_xyz
  1  'x, y, z'
loop_
 _atom_site_type_symbol
 _atom_site_label
 _atom_site_symmetry_multiplicity
 _atom_site_fract_x
 _atom_site_fract_y
 _atom_site_fract_z
 _atom_site_occupancy
  Mg  Mg0  1  0.48900000  0.73581100  0.48789000  1
  V  V0  1  0.04930700  0.96297400  0.00520500  1
  V  V1  1  0.13454700  0.48384200  0.32192200  1
  V  V2  1  0.31851800  0.06200300  0.67029100  1
  V  V3  1  0.53739900  0.45503300  0.99466300  1
  V  V4  1  0.66988300  0.01226800  0.32374200  1
  V  V5  1  0.83725800  0.49921000  0.67753000  1
  O  O0  1  0.05547800  0.23050500  0.65205500  1
  O  O1  1  0.54651100  0.27261600  0.65754800  1
  O  O2  1  0.70583200  0.23049100  0.97096600  1
  O  O3  1  0.29317900  0.79446900  0.02897300  1
  O  O4  1  0.87569200  0.28566600  0.32189900  1
  F  F0  1  0.21779200  0.27095300  0.97666600  1
  F  F1  1  0.11365500  0.72679700  0.68102900  1
  F  F2  1  0.02277100  0.09714500  0.10796700  1
  F  F3  1  0.24601400  0.46638500  0.44787500  1
  F  F4  1  0.37573600  0.04514700  0.78554000  1
  F  F5  1  0.13618200  0.58875500  0.21375700  1
  F  F6  1  0.29207500  0.92651100  0.55325900  1
  F  F7  1  0.44003900  0.60050300  0.89254000  1
  F  F8  1  0.37122300  0.21491100  0.30858700  1
  F  F9  1  0.45621600  0.71388100  0.35244500  1
  F  F10  1  0.62457600  0.77092600  0.68427300  1
  F  F11  1  0.54351400  0.42015000  0.10885000  1
  F  F12  1  0.68150600  0.02751200  0.44635200  1
  F  F13  1  0.89315600  0.43024800  0.78964800  1
  F  F14  1  0.60342600  0.91337900  0.21491200  1
  F  F15  1  0.76270100  0.55916500  0.55190900  1
  F  F16  1  0.94950600  0.91343700  0.89173400  1
  F  F17  1  0.80082400  0.70983500  0.02462200  1
  F  F18  1  0.95648200  0.79196600  0.34642600  1
loop_
_geom_bond_atom_site_label_1
_geom_bond_atom_site_label_2
_geom_bond_distance
_geom_bond_site_symmetry_2
O0 V2 1.693976 1_555
O0 V5 1.973464 1_455
O1 V2 1.700437 1_555
O1 V5 1.958577 1_555
O2 V3 1.612405 1_555
O2 V0 2.371028 1_646
O3 V0 1.613436 1_555
O4 V1 1.749647 1_655
O4 V4 1.832884 1_555
F0 V3 1.961547 1_555
F0 V0 1.964185 1_546
F1 V5 1.913586 1_455
F1 V2 2.121365 1_565
F2 V0 1.779893 1_545
F3 V1 1.945291 1_555
F3 Mg0 1.966054 1_555
F4 V2 1.763422 1_555
F5 V1 1.772417 1_555
F6 Mg0 1.913050 1_555
F6 V2 1.936886 1_565
F7 V3 1.768683 1_555
F8 V4 1.957963 1_555
F8 V1 1.992316 1_555
F9 V4 2.056662 1_565
F9 Mg0 2.081014 1_555
F9 V1 2.107854 1_555
F10 V5 1.897960 1_555
F10 V2 2.294028 1_565
F11 V3 1.776518 1_554
F12 V4 1.894255 1_555
F12 Mg0 2.035368 1_545
F13 V5 1.754079 1_555
F14 V4 1.744127 1_565
F15 Mg0 1.911982 1_555
F15 V5 1.948693 1_555
F16 V0 1.767658 1_656
F17 V3 1.958225 1_554
F17 V0 1.959976 1_655
F18 V4 1.962906 1_565
F18 V1 2.006609 1_655
