# generated using pymatgen
data_BaGdFe4O7
_symmetry_space_group_name_H-M   'P 1'
_cell_length_a   6.56649794
_cell_length_b   6.56649794
_cell_length_c   10.63045200
_cell_angle_alpha   90.00000000
_cell_angle_beta   90.00000000
_cell_angle_gamma   120.86020663
_symmetry_Int_Tables_number   1
_chemical_formula_structural   BaGdFe4O7
_chemical_formula_sum   'Ba2 Gd2 Fe8 O14'
_cell_volume   393.47747360
_cell_formula_units_Z   2
loop_
 _symmetry_equiv_pos_site_id
 _symmetry_equiv_pos_as_xyz
  1  'x, y, z'
loop_
 _atom_site_type_symbol
 _atom_site_label
 _atom_site_symmetry_multiplicity
 _atom_site_fract_x
 _atom_site_fract_y
 _atom_site_fract_z
 _atom_site_occupancy
  Ba  Ba0  1  0.69320000  0.30680000  0.97971100  1
  Ba  Ba1  1  0.30680000  0.69320000  0.47971100  1
  Gd  Gd0  1  0.66066900  0.33933100  0.37305300  1
  Gd  Gd1  1  0.33933100  0.66066900  0.87305300  1
  Fe  Fe0  1  0.16670100  0.83329900  0.17949200  1
  Fe  Fe1  1  0.17548900  0.34684500  0.18619600  1
  Fe  Fe2  1  0.65315500  0.82451100  0.18619600  1
  Fe  Fe3  1  0.83329900  0.16670100  0.67949200  1
  Fe  Fe4  1  0.82451100  0.65315500  0.68619600  1
  Fe  Fe5  1  0.34684500  0.17548900  0.68619600  1
  Fe  Fe6  1  0.99468500  0.00531500  0.94040500  1
  Fe  Fe7  1  0.00531500  0.99468500  0.44040500  1
  O  O0  1  0.47874600  0.52125400  0.28320900  1
  O  O1  1  0.48166700  0.99802800  0.24544300  1
  O  O2  1  0.00197200  0.51833300  0.24544300  1
  O  O3  1  0.52125400  0.47874600  0.78320900  1
  O  O4  1  0.51833300  0.00197200  0.74544300  1
  O  O5  1  0.99802800  0.48166700  0.74544300  1
  O  O6  1  0.16478200  0.83521800  0.00043500  1
  O  O7  1  0.13220800  0.33945600  0.00080200  1
  O  O8  1  0.66054400  0.86779200  0.00080200  1
  O  O9  1  0.83521800  0.16478200  0.50043500  1
  O  O10  1  0.86779200  0.66054400  0.50080200  1
  O  O11  1  0.33945600  0.13220800  0.50080200  1
  O  O12  1  0.99232900  0.00767100  0.74201300  1
  O  O13  1  0.00767100  0.99232900  0.24201300  1
loop_
_geom_bond_atom_site_label_1
_geom_bond_atom_site_label_2
_geom_bond_distance
_geom_bond_site_symmetry_2
Ba0 O7 2.787885 1_656
Ba0 O8 2.787885 1_546
Ba0 O3 2.867231 1_555
Ba0 O5 3.028061 1_555
Ba0 O4 3.028061 1_555
Ba0 O6 3.264129 1_656
Ba0 O6 3.264129 1_546
Ba0 O2 3.336301 1_656
Ba0 O1 3.336301 1_546
Ba1 O11 2.787885 1_565
Ba1 O10 2.787885 1_455
Ba1 O0 2.867231 1_555
Ba1 O1 3.028061 1_555
Ba1 O2 3.028061 1_555
Ba1 O9 3.264129 1_565
Ba1 O9 3.264129 1_455
Ba1 O4 3.336301 1_565
Ba1 O5 3.336301 1_455
Gd0 O11 2.280341 1_555
Gd0 O10 2.280341 1_555
Gd0 O0 2.286988 1_555
Gd0 O2 2.354178 1_655
Gd0 O1 2.354178 1_545
Gd0 O9 2.410152 1_555
Gd1 O7 2.280341 1_556
Gd1 O8 2.280341 1_556
Gd1 O3 2.286988 1_555
Gd1 O4 2.354178 1_565
Gd1 O5 2.354178 1_455
Gd1 O6 2.410152 1_556
Fe0 O6 1.903583 1_555
Fe0 O1 1.908934 1_555
Fe0 O2 1.908934 1_555
Fe0 O13 1.934286 1_555
Fe1 O7 1.988245 1_555
Fe1 O0 2.000240 1_555
Fe1 O2 2.068628 1_555
Fe1 O13 2.086610 1_545
Fe2 O8 1.988245 1_555
Fe2 O0 2.000240 1_555
Fe2 O1 2.068628 1_555
Fe2 O13 2.086610 1_655
Fe3 O9 1.903583 1_555
Fe3 O5 1.908934 1_555
Fe3 O4 1.908934 1_555
Fe3 O12 1.934286 1_555
Fe4 O10 1.988245 1_555
Fe4 O3 2.000240 1_555
Fe4 O5 2.068628 1_555
Fe4 O12 2.086610 1_565
Fe5 O11 1.988245 1_555
Fe5 O3 2.000240 1_555
Fe5 O4 2.068628 1_555
Fe5 O12 2.086610 1_455
Fe6 O8 2.002310 1_546
Fe6 O7 2.002310 1_656
Fe6 O6 2.045044 1_646
Fe6 O12 2.109168 1_555
Fe7 O10 2.002310 1_455
Fe7 O11 2.002310 1_565
Fe7 O9 2.045044 1_465
Fe7 O13 2.109168 1_555
