# generated using pymatgen
data_KMgAs3F18
_symmetry_space_group_name_H-M   'P 1'
_cell_length_a   9.72780122
_cell_length_b   10.61051059
_cell_length_c   14.29490736
_cell_angle_alpha   90.00000000
_cell_angle_beta   90.00000000
_cell_angle_gamma   90.00000000
_symmetry_Int_Tables_number   1
_chemical_formula_structural   KMgAs3F18
_chemical_formula_sum   'K4 Mg4 As12 F72'
_cell_volume   1475.47656472
_cell_formula_units_Z   4
loop_
 _symmetry_equiv_pos_site_id
 _symmetry_equiv_pos_as_xyz
  1  'x, y, z'
loop_
 _atom_site_type_symbol
 _atom_site_label
 _atom_site_symmetry_multiplicity
 _atom_site_fract_x
 _atom_site_fract_y
 _atom_site_fract_z
 _atom_site_occupancy
  K  K0  1  0.52720198  0.92551444  0.75000000  1
  K  K1  1  0.97279802  0.42551444  0.75000000  1
  K  K2  1  0.47279802  0.07448556  0.25000000  1
  K  K3  1  0.02720198  0.57448556  0.25000000  1
  Mg  Mg0  1  -0.00000000  -0.00000000  0.50000000  1
  Mg  Mg1  1  0.50000000  0.50000000  -0.00000000  1
  Mg  Mg2  1  0.00000000  -0.00000000  -0.00000000  1
  Mg  Mg3  1  0.50000000  0.50000000  0.50000000  1
  As  As0  1  0.09997467  0.02097884  0.75000000  1
  As  As1  1  0.40002533  0.52097884  0.75000000  1
  As  As2  1  0.90002533  0.97902116  0.25000000  1
  As  As3  1  0.59997467  0.47902116  0.25000000  1
  As  As4  1  0.69705146  0.20565337  0.54671709  1
  As  As5  1  0.80294854  0.70565337  0.95328291  1
  As  As6  1  0.30294854  0.79434663  0.04671709  1
  As  As7  1  0.19705146  0.29434663  0.45328291  1
  As  As8  1  0.30294854  0.79434663  0.45328291  1
  As  As9  1  0.19705146  0.29434663  0.04671709  1
  As  As10  1  0.69705146  0.20565337  0.95328291  1
  As  As11  1  0.80294854  0.70565337  0.54671709  1
  F  F0  1  0.09908442  0.02333845  0.62224017  1
  F  F1  1  0.40091558  0.52333845  0.87775983  1
  F  F2  1  0.90091558  0.97666155  0.12224017  1
  F  F3  1  0.59908442  0.47666155  0.37775983  1
  F  F4  1  0.90091558  0.97666155  0.37775983  1
  F  F5  1  0.59908442  0.47666155  0.12224017  1
  F  F6  1  0.09908442  0.02333845  0.87775983  1
  F  F7  1  0.40091558  0.52333845  0.62224017  1
  F  F8  1  0.13846186  0.86084244  0.75000000  1
  F  F9  1  0.36153814  0.36084244  0.75000000  1
  F  F10  1  0.86153814  0.13915756  0.25000000  1
  F  F11  1  0.63846186  0.63915756  0.25000000  1
  F  F12  1  0.27677651  0.05518538  0.75000000  1
  F  F13  1  0.22322349  0.55518538  0.75000000  1
  F  F14  1  0.72322349  0.94481462  0.25000000  1
  F  F15  1  0.77677651  0.44481462  0.25000000  1
  F  F16  1  0.06568713  0.18410494  0.75000000  1
  F  F17  1  0.43431287  0.68410494  0.75000000  1
  F  F18  1  0.93431287  0.81589506  0.25000000  1
  F  F19  1  0.56568713  0.31589506  0.25000000  1
  F  F20  1  0.92361351  0.98945377  0.75000000  1
  F  F21  1  0.57638649  0.48945377  0.75000000  1
  F  F22  1  0.07638649  0.01054623  0.25000000  1
  F  F23  1  0.42361351  0.51054623  0.25000000  1
  F  F24  1  0.82671902  0.08079188  0.55062401  1
  F  F25  1  0.67328098  0.58079188  0.94937599  1
  F  F26  1  0.17328098  0.91920812  0.05062401  1
  F  F27  1  0.32671902  0.41920812  0.44937599  1
  F  F28  1  0.17328098  0.91920812  0.44937599  1
  F  F29  1  0.32671902  0.41920812  0.05062401  1
  F  F30  1  0.82671902  0.08079188  0.94937599  1
  F  F31  1  0.67328098  0.58079188  0.55062401  1
  F  F32  1  0.79406224  0.28720295  0.46440619  1
  F  F33  1  0.70593776  0.78720295  0.03559381  1
  F  F34  1  0.20593776  0.71279705  0.96440619  1
  F  F35  1  0.29406224  0.21279705  0.53559381  1
  F  F36  1  0.20593776  0.71279705  0.53559381  1
  F  F37  1  0.29406224  0.21279705  0.96440619  1
  F  F38  1  0.79406224  0.28720295  0.03559381  1
  F  F39  1  0.70593776  0.78720295  0.46440619  1
  F  F40  1  0.60922527  0.12624066  0.45750809  1
  F  F41  1  0.89077473  0.62624066  0.04249191  1
  F  F42  1  0.39077473  0.87375934  0.95750809  1
  F  F43  1  0.10922527  0.37375934  0.54249191  1
  F  F44  1  0.39077473  0.87375934  0.54249191  1
  F  F45  1  0.10922527  0.37375934  0.95750809  1
  F  F46  1  0.60922527  0.12624066  0.04249191  1
  F  F47  1  0.89077473  0.62624066  0.45750809  1
  F  F48  1  0.56830763  0.33052717  0.54543655  1
  F  F49  1  0.93169237  0.83052717  0.95456345  1
  F  F50  1  0.43169237  0.66947283  0.04543655  1
  F  F51  1  0.06830763  0.16947283  0.45456345  1
  F  F52  1  0.43169237  0.66947283  0.45456345  1
  F  F53  1  0.06830763  0.16947283  0.04543655  1
  F  F54  1  0.56830763  0.33052717  0.95456345  1
  F  F55  1  0.93169237  0.83052717  0.54543655  1
  F  F56  1  0.60027943  0.12304593  0.63055959  1
  F  F57  1  0.89972057  0.62304593  0.86944041  1
  F  F58  1  0.39972057  0.87695407  0.13055959  1
  F  F59  1  0.10027943  0.37695407  0.36944041  1
  F  F60  1  0.39972057  0.87695407  0.36944041  1
  F  F61  1  0.10027943  0.37695407  0.13055959  1
  F  F62  1  0.60027943  0.12304593  0.86944041  1
  F  F63  1  0.89972057  0.62304593  0.63055959  1
  F  F64  1  0.78358318  0.28386103  0.63794934  1
  F  F65  1  0.71641682  0.78386103  0.86205066  1
  F  F66  1  0.21641682  0.71613897  0.13794934  1
  F  F67  1  0.28358318  0.21613897  0.36205066  1
  F  F68  1  0.21641682  0.71613897  0.36205066  1
  F  F69  1  0.28358318  0.21613897  0.13794934  1
  F  F70  1  0.78358318  0.28386103  0.86205066  1
  F  F71  1  0.71641682  0.78386103  0.63794934  1
loop_
_geom_bond_atom_site_label_1
_geom_bond_atom_site_label_2
_geom_bond_distance
_geom_bond_site_symmetry_2
As0 F8 1.739888 1_545
As0 F20 1.747911 1_445
As0 F12 1.757773 1_555
As0 F16 1.762696 1_555
As0 F6 1.826507 1_555
As0 F0 1.826507 1_555
As1 F9 1.739888 1_555
As1 F21 1.747911 1_555
As1 F13 1.757773 1_555
As1 F17 1.762696 1_555
As1 F1 1.826507 1_555
As1 F7 1.826507 1_555
As2 F10 1.739888 1_565
As2 F22 1.747911 1_665
As2 F14 1.757773 1_555
As2 F18 1.762696 1_555
As2 F2 1.826507 1_555
As2 F4 1.826507 1_555
As3 F11 1.739888 1_555
As3 F23 1.747911 1_555
As3 F15 1.757773 1_555
As3 F19 1.762696 1_555
As3 F5 1.826507 1_555
As3 F3 1.826507 1_555
As4 F32 1.738890 1_555
As4 F40 1.751039 1_555
As4 F56 1.758099 1_555
As4 F64 1.760113 1_555
As4 F48 1.823290 1_555
As4 F24 1.830140 1_555
As5 F33 1.738890 1_556
As5 F41 1.751039 1_556
As5 F57 1.758099 1_555
As5 F65 1.760113 1_555
As5 F49 1.823290 1_555
As5 F25 1.830140 1_555
As6 F34 1.738890 1_554
As6 F42 1.751039 1_554
As6 F58 1.758099 1_555
As6 F66 1.760113 1_555
As6 F50 1.823290 1_555
As6 F26 1.830140 1_555
As7 F35 1.738890 1_555
As7 F43 1.751039 1_555
As7 F59 1.758099 1_555
As7 F67 1.760113 1_555
As7 F51 1.823290 1_555
As7 F27 1.830140 1_555
As8 F36 1.738890 1_555
As8 F44 1.751039 1_555
As8 F60 1.758099 1_555
As8 F68 1.760113 1_555
As8 F52 1.823290 1_555
As8 F28 1.830140 1_555
As9 F37 1.738890 1_554
As9 F45 1.751039 1_554
As9 F61 1.758099 1_555
As9 F69 1.760113 1_555
As9 F53 1.823290 1_555
As9 F29 1.830140 1_555
As10 F38 1.738890 1_556
As10 F46 1.751039 1_556
As10 F62 1.758099 1_555
As10 F70 1.760113 1_555
As10 F54 1.823290 1_555
As10 F30 1.830140 1_555
As11 F39 1.738890 1_555
As11 F47 1.751039 1_555
As11 F63 1.758099 1_555
As11 F71 1.760113 1_555
As11 F55 1.823290 1_555
As11 F31 1.830140 1_555
F0 Mg0 2.010926 1_555
F1 Mg1 2.010926 1_556
F2 Mg2 2.010926 1_665
F3 Mg3 2.010926 1_555
F4 Mg0 2.010926 1_665
F5 Mg1 2.010926 1_555
F6 Mg2 2.010926 1_556
F7 Mg3 2.010926 1_555
F12 K0 2.797778 1_545
F13 K1 2.797778 1_455
F14 K2 2.797778 1_565
F15 K3 2.797778 1_655
F16 K1 2.716188 1_455
F17 K0 2.716188 1_555
F18 K3 2.716188 1_655
F19 K2 2.716188 1_555
F24 Mg0 2.024833 1_655
F25 Mg1 2.024833 1_556
F26 Mg2 2.024833 1_565
F27 Mg3 2.024833 1_555
F28 Mg0 2.024833 1_565
F29 Mg1 2.024833 1_555
F30 Mg2 2.024833 1_656
F31 Mg3 2.024833 1_555
F48 Mg3 2.024080 1_555
F49 Mg2 2.024080 1_666
F50 Mg1 2.024080 1_555
F51 Mg0 2.024080 1_555
F52 Mg3 2.024080 1_555
F53 Mg2 2.024080 1_555
F54 Mg1 2.024080 1_556
F55 Mg0 2.024080 1_665
F56 K0 2.795241 1_545
F57 K1 2.795241 1_555
F58 K2 2.795241 1_565
F59 K3 2.795241 1_555
F60 K2 2.795241 1_565
F61 K3 2.795241 1_555
F62 K0 2.795241 1_545
F63 K1 2.795241 1_555
F64 K1 2.865771 1_555
F65 K0 2.865771 1_555
F66 K3 2.865771 1_555
F67 K2 2.865771 1_555
F68 K3 2.865771 1_555
F69 K2 2.865771 1_555
F70 K1 2.865771 1_555
F71 K0 2.865771 1_555
