# generated using pymatgen
data_LaAgSn
_symmetry_space_group_name_H-M   'P 1'
_cell_length_a   4.91066196
_cell_length_b   4.91066196
_cell_length_c   8.12447000
_cell_angle_alpha   90.00000000
_cell_angle_beta   90.00000000
_cell_angle_gamma   119.99999952
_symmetry_Int_Tables_number   1
_chemical_formula_structural   LaAgSn
_chemical_formula_sum   'La2 Ag2 Sn2'
_cell_volume   169.67027054
_cell_formula_units_Z   2
loop_
 _symmetry_equiv_pos_site_id
 _symmetry_equiv_pos_as_xyz
  1  'x, y, z'
loop_
 _atom_site_type_symbol
 _atom_site_label
 _atom_site_symmetry_multiplicity
 _atom_site_fract_x
 _atom_site_fract_y
 _atom_site_fract_z
 _atom_site_occupancy
  La  La0  1  0.00000000  0.00000000  0.26248100  1
  La  La1  1  0.00000000  0.00000000  0.73751900  1
  Ag  Ag0  1  0.66666700  0.33333300  0.49282300  1
  Ag  Ag1  1  0.33333300  0.66666700  0.50717700  1
  Sn  Sn0  1  0.33333300  0.66666700  0.95960800  1
  Sn  Sn1  1  0.66666700  0.33333300  0.04039200  1
loop_
_geom_bond_atom_site_label_1
_geom_bond_atom_site_label_2
_geom_bond_distance
_geom_bond_site_symmetry_2
La0 Sn1 3.360637 1_455
La0 Sn1 3.360641 1_445
La0 Sn1 3.360641 1_555
La1 Sn0 3.360637 1_545
La1 Sn0 3.360641 1_555
La1 Sn0 3.360641 1_445
Ag0 Ag1 2.837567 1_545
Ag0 Ag1 2.837567 1_655
Ag0 Ag1 2.837575 1_555
Ag0 La0 3.397109 1_655
Ag0 La0 3.397112 1_555
Ag0 La0 3.397112 1_665
Ag0 La1 3.462720 1_655
Ag0 La1 3.462723 1_555
Ag0 La1 3.462723 1_665
Ag1 La1 3.397109 1_565
Ag1 La1 3.397112 1_555
Ag1 La1 3.397112 1_665
Ag1 La0 3.462720 1_565
Ag1 La0 3.462723 1_555
Ag1 La0 3.462723 1_665
Sn0 Sn1 2.910146 1_456
Sn0 Sn1 2.910146 1_566
Sn0 Sn1 2.910154 1_556
