# generated using pymatgen
data_Li4MnCo2O7
_symmetry_space_group_name_H-M   'P 1'
_cell_length_a   6.45062628
_cell_length_b   6.45062628
_cell_length_c   14.43931449
_cell_angle_alpha   70.84490762
_cell_angle_beta   70.84490762
_cell_angle_gamma   26.56988401
_symmetry_Int_Tables_number   1
_chemical_formula_structural   Li4MnCo2O7
_chemical_formula_sum   'Li8 Mn2 Co4 O14'
_cell_volume   253.00931108
_cell_formula_units_Z   2
loop_
 _symmetry_equiv_pos_site_id
 _symmetry_equiv_pos_as_xyz
  1  'x, y, z'
loop_
 _atom_site_type_symbol
 _atom_site_label
 _atom_site_symmetry_multiplicity
 _atom_site_fract_x
 _atom_site_fract_y
 _atom_site_fract_z
 _atom_site_occupancy
  Li  Li0  1  0.28278400  0.28278400  0.07641000  1
  Li  Li1  1  0.84126200  0.84126200  0.22719800  1
  Li  Li2  1  0.42521100  0.42521100  0.36488100  1
  Li  Li3  1  0.72299700  0.72299700  0.91807600  1
  Li  Li4  1  0.14771500  0.14771500  0.77201000  1
  Li  Li5  1  0.00391800  0.00391800  0.50198200  1
  Li  Li6  1  0.57180900  0.57180900  0.63974600  1
  Li  Li7  1  0.14668400  0.14668400  0.28459400  1
  Mn  Mn0  1  0.99807000  0.99807100  0.00031000  1
  Mn  Mn1  1  0.57482800  0.57482800  0.14759000  1
  Co  Co0  1  0.71244200  0.71244200  0.42352700  1
  Co  Co1  1  0.28630700  0.28630700  0.57232400  1
  Co  Co2  1  0.85709300  0.85709300  0.71861900  1
  Co  Co3  1  0.42813200  0.42813200  0.85283600  1
  O  O0  1  0.44102000  0.44102000  0.09538200  1
  O  O1  1  0.00800000  0.00800000  0.23427900  1
  O  O2  1  0.58512800  0.58512800  0.39959400  1
  O  O3  1  0.86890500  0.86890500  0.96275900  1
  O  O4  1  0.28354300  0.28354300  0.81729400  1
  O  O5  1  0.15467300  0.15467300  0.53081100  1
  O  O6  1  0.72169500  0.72169500  0.67356600  1
  O  O7  1  0.12828000  0.12828000  0.04825300  1
  O  O8  1  0.70541600  0.70541600  0.17471800  1
  O  O9  1  0.28267200  0.28267200  0.32947400  1
  O  O10  1  0.56372100  0.56372100  0.91157800  1
  O  O11  1  0.99451900  0.99451900  0.74884900  1
  O  O12  1  0.84421700  0.84421700  0.46460100  1
  O  O13  1  0.41895900  0.41895900  0.60873900  1
loop_
_geom_bond_atom_site_label_1
_geom_bond_atom_site_label_2
_geom_bond_distance
_geom_bond_site_symmetry_2
Li0 O8 2.055748 1_545
Li0 O8 2.055748 1_455
Li0 O0 2.095106 1_555
Li0 O7 2.112001 1_555
Li0 O3 2.205224 1_454
Li0 O3 2.205224 1_544
Li1 O9 2.046169 1_655
Li1 O9 2.046169 1_565
Li1 O8 2.086893 1_555
Li1 O1 2.130211 1_665
Li1 O0 2.404432 1_565
Li1 O0 2.404432 1_655
Li2 O9 2.020263 1_555
Li2 O12 2.077827 1_545
Li2 O12 2.077827 1_455
Li2 O2 2.227466 1_555
Li2 O1 2.347818 1_655
Li2 O1 2.347818 1_565
Li3 O10 2.033423 1_555
Li3 O4 2.036393 1_565
Li3 O4 2.036393 1_655
Li3 O3 2.137662 1_555
Li3 O7 2.374325 1_566
Li3 O7 2.374325 1_656
Li4 O4 2.021898 1_555
Li4 O6 2.047029 1_455
Li4 O6 2.047029 1_545
Li4 O11 2.060479 1_445
Li4 O10 2.436734 1_455
Li4 O10 2.436734 1_545
Li5 O5 2.070650 1_555
Li5 O2 2.099093 1_545
Li5 O2 2.099093 1_455
Li5 O13 2.145370 1_455
Li5 O13 2.145370 1_545
Li5 O12 2.245439 1_445
Li6 O6 2.097615 1_555
Li6 O13 2.112610 1_555
Li6 O11 2.142418 1_545
Li6 O11 2.142418 1_455
Li6 O5 2.156481 1_565
Li6 O5 2.156481 1_655
Li7 O9 2.020273 1_555
Li7 O1 2.100727 1_555
Li7 O8 2.114061 1_455
Li7 O8 2.114061 1_545
Li7 O2 2.164846 1_455
Li7 O2 2.164846 1_545
Mn0 O3 1.875416 1_554
Mn0 O10 1.950933 1_564
Mn0 O10 1.950936 1_654
Mn0 O7 1.978719 1_665
Mn0 O0 1.982880 1_565
Mn0 O0 1.982882 1_655
Mn1 O8 1.809701 1_555
Mn1 O1 1.939055 1_655
Mn1 O1 1.939055 1_565
Mn1 O7 2.013940 1_655
Mn1 O7 2.013940 1_565
Mn1 O0 2.060346 1_555
Co0 O2 1.745651 1_555
Co0 O12 1.936755 1_555
Co0 O9 2.002915 1_655
Co0 O9 2.002915 1_565
Co0 O5 2.089367 1_655
Co0 O5 2.089367 1_565
Co1 O13 1.908182 1_555
Co1 O5 1.938835 1_555
Co1 O6 2.047626 1_455
Co1 O6 2.047626 1_545
Co1 O12 2.093501 1_545
Co1 O12 2.093501 1_455
Co2 O11 1.917246 1_555
Co2 O6 2.014728 1_555
Co2 O4 2.047661 1_565
Co2 O4 2.047661 1_655
Co2 O13 2.118230 1_565
Co2 O13 2.118230 1_655
Co3 O4 2.046342 1_555
Co3 O11 2.074280 1_545
Co3 O11 2.074280 1_455
Co3 O3 2.115095 1_455
Co3 O3 2.115095 1_545
Co3 O10 2.142775 1_555
