# generated using pymatgen
data_LuTiFe11C
_symmetry_space_group_name_H-M   'P 1'
_cell_length_a   4.80517800
_cell_length_b   6.47968399
_cell_length_c   6.47968399
_cell_angle_alpha   97.65793746
_cell_angle_beta   111.76421331
_cell_angle_gamma   68.23578669
_symmetry_Int_Tables_number   1
_chemical_formula_structural   LuTiFe11C
_chemical_formula_sum   'Lu1 Ti1 Fe11 C1'
_cell_volume   174.01203045
_cell_formula_units_Z   1
loop_
 _symmetry_equiv_pos_site_id
 _symmetry_equiv_pos_as_xyz
  1  'x, y, z'
loop_
 _atom_site_type_symbol
 _atom_site_label
 _atom_site_symmetry_multiplicity
 _atom_site_fract_x
 _atom_site_fract_y
 _atom_site_fract_z
 _atom_site_occupancy
  Lu  Lu0  1  0.00759400  0.99240600  0.00759400  1
  Ti  Ti0  1  0.63430300  0.36569700  0.63430300  1
  Fe  Fe0  1  0.72398000  0.77602000  0.22398000  1
  Fe  Fe1  1  0.27821800  0.22178200  0.77821800  1
  Fe  Fe2  1  0.49800800  0.78189200  0.77790900  1
  Fe  Fe3  1  0.49800800  0.22209100  0.21810800  1
  Fe  Fe4  1  0.50016200  0.99765000  0.49917900  1
  Fe  Fe5  1  0.00136700  0.99765000  0.49917900  1
  Fe  Fe6  1  0.50016200  0.50082100  0.00235000  1
  Fe  Fe7  1  0.00136700  0.50082100  0.00235000  1
  Fe  Fe8  1  0.35563700  0.64436300  0.35563700  1
  Fe  Fe9  1  0.99984800  0.35792200  0.35761800  1
  Fe  Fe10  1  0.99984800  0.64238200  0.64207800  1
  C  C0  1  0.50149800  0.99850200  0.00149800  1
loop_
_geom_bond_atom_site_label_1
_geom_bond_atom_site_label_2
_geom_bond_distance
_geom_bond_site_symmetry_2
Lu0 Ti0 3.169084 1_464
Fe0 Fe4 2.448095 1_555
Fe0 Fe6 2.448095 1_555
Fe0 Fe5 2.448095 1_655
Fe0 Fe7 2.448095 1_655
Fe0 Fe9 2.637674 1_555
Fe0 Fe10 2.637674 1_555
Fe1 Fe6 2.469265 1_556
Fe1 Fe4 2.469265 1_545
Fe1 Fe5 2.469265 1_545
Fe1 Fe7 2.469265 1_556
Fe1 Fe10 2.656552 1_455
Fe1 Fe9 2.656552 1_455
Fe1 Ti0 2.695399 1_555
Fe1 Ti0 2.695399 1_455
Fe2 Fe5 2.431893 1_555
Fe2 Fe4 2.431895 1_555
Fe2 Fe6 2.472416 1_556
Fe2 Fe7 2.472419 1_656
Fe2 Ti0 2.653476 1_555
Fe3 Fe7 2.431893 1_555
Fe3 Fe6 2.431895 1_555
Fe3 Fe4 2.472416 1_545
Fe3 Fe5 2.472419 1_645
Fe3 Ti0 2.653476 1_555
Fe3 Fe9 2.674346 1_455
Fe3 Fe9 2.674350 1_555
Fe4 Fe5 2.396799 1_555
Fe4 Fe5 2.408379 1_655
Fe4 Fe8 2.592341 1_555
Fe4 Fe9 2.616140 1_465
Fe4 Ti0 2.652246 1_565
Fe4 Lu0 3.192079 1_555
Fe4 Lu0 3.287993 1_656
Fe5 Fe8 2.592341 1_555
Fe5 Fe9 2.616140 1_465
Fe5 Ti0 2.652246 1_465
Fe5 Lu0 3.192078 1_555
Fe5 Lu0 3.287992 1_556
Fe6 Fe7 2.396799 1_555
Fe6 Fe7 2.408379 1_655
Fe6 Fe8 2.592341 1_555
Fe6 Fe9 2.596594 1_555
Fe6 Ti0 2.652246 1_554
Fe6 Lu0 3.192079 1_555
Fe6 Lu0 3.287993 1_645
Fe7 Fe8 2.592341 1_555
Fe7 Fe9 2.596594 1_455
Fe7 Ti0 2.652246 1_454
Fe7 Lu0 3.192078 1_555
Fe7 Lu0 3.287992 1_545
Fe8 Ti0 2.365757 1_555
Fe8 Fe9 2.956969 1_455
Fe8 Fe9 2.956969 1_555
Fe9 Ti0 2.923649 1_555
Fe9 Ti0 2.923649 1_655
Fe9 Lu0 3.052940 1_645
Fe10 Fe9 2.426804 1_555
Fe10 Fe5 2.596594 1_655
Fe10 Fe4 2.596594 1_555
Fe10 Fe7 2.616140 1_656
Fe10 Fe6 2.616140 1_656
Fe10 Fe2 2.674346 1_655
Fe10 Fe2 2.674350 1_555
Fe10 Ti0 2.923649 1_555
Fe10 Ti0 2.923649 1_655
Fe10 Fe8 2.956969 1_655
Fe10 Fe8 2.956969 1_555
Fe10 Lu0 3.052940 1_656
C0 Fe2 1.877961 1_554
C0 Fe3 1.877961 1_565
C0 Fe0 1.888779 1_555
C0 Fe1 1.895553 1_564
C0 Lu0 2.403146 1_555
C0 Lu0 2.403146 1_655
