# generated using pymatgen
data_Sr4CaCl10
_symmetry_space_group_name_H-M   'P 1'
_cell_length_a   12.96739112
_cell_length_b   12.96735857
_cell_length_c   12.96737946
_cell_angle_alpha   158.14741566
_cell_angle_beta   148.92574161
_cell_angle_gamma   38.31171620
_symmetry_Int_Tables_number   1
_chemical_formula_structural   Sr4CaCl10
_chemical_formula_sum   'Sr4 Ca1 Cl10'
_cell_volume   418.31639339
_cell_formula_units_Z   1
loop_
 _symmetry_equiv_pos_site_id
 _symmetry_equiv_pos_as_xyz
  1  'x, y, z'
loop_
 _atom_site_type_symbol
 _atom_site_label
 _atom_site_symmetry_multiplicity
 _atom_site_fract_x
 _atom_site_fract_y
 _atom_site_fract_z
 _atom_site_occupancy
  Sr  Sr0  1  0.59792164  0.59792019  0.00000046  1
  Sr  Sr1  1  0.19879469  0.19879646  -0.00000084  1
  Sr  Sr2  1  0.80120533  0.80120343  0.00000027  1
  Sr  Sr3  1  0.40207890  0.40208005  0.00000021  1
  Ca  Ca0  1  0.00000016  -0.00000014  -0.00000002  1
  Cl  Cl0  1  0.14944791  0.90338420  0.24605844  1
  Cl  Cl1  1  0.94800898  0.69928841  0.24871489  1
  Cl  Cl2  1  0.54942479  0.30070567  0.24871730  1
  Cl  Cl3  1  0.76042155  0.49999650  0.26041998  1
  Cl  Cl4  1  0.34267097  0.09660985  0.24605947  1
  Cl  Cl5  1  0.65732831  0.90338956  0.75394007  1
  Cl  Cl6  1  0.45057601  0.69929484  0.75128347  1
  Cl  Cl7  1  0.05199027  0.30071146  0.75128433  1
  Cl  Cl8  1  0.23957874  0.50000348  0.73957978  1
  Cl  Cl9  1  0.85055276  0.09661603  0.75394218  1
loop_
_geom_bond_atom_site_label_1
_geom_bond_atom_site_label_2
_geom_bond_distance
_geom_bond_site_symmetry_2
Ca0 Cl4 2.919577 1_555
Ca0 Cl5 2.919589 1_444
Ca0 Cl0 2.919609 1_545
Ca0 Cl9 2.919610 1_454
Ca0 Cl8 2.968340 1_544
Ca0 Cl3 2.968341 1_455
Ca0 Cl8 2.968443 1_555
Ca0 Cl3 2.968443 1_444
Cl0 Sr3 3.025570 1_555
Cl0 Sr3 3.025682 1_566
Cl0 Sr2 3.031293 1_455
Cl1 Sr1 3.014698 1_655
Cl1 Sr1 3.014810 1_666
Cl1 Sr0 3.025388 1_555
Cl1 Sr2 3.036283 1_555
Cl2 Sr2 3.014718 1_545
Cl2 Sr2 3.014805 1_556
Cl2 Sr3 3.025418 1_555
Cl2 Sr1 3.036268 1_555
Cl3 Sr3 3.004636 1_555
Cl3 Sr0 3.004647 1_555
Cl4 Sr0 3.025591 1_545
Cl4 Sr0 3.025680 1_556
Cl4 Sr1 3.031333 1_555
Cl5 Sr3 3.025589 1_566
Cl5 Sr3 3.025676 1_555
Cl5 Sr2 3.031319 1_556
Cl6 Sr1 3.014719 1_566
Cl6 Sr1 3.014810 1_555
Cl6 Sr0 3.025422 1_556
Cl6 Sr2 3.036264 1_556
Cl7 Sr2 3.014695 1_456
Cl7 Sr2 3.014809 1_445
Cl7 Sr3 3.025395 1_556
Cl7 Sr1 3.036279 1_556
Cl8 Sr0 3.004634 1_556
Cl8 Sr3 3.004653 1_556
Cl9 Sr0 3.025570 1_556
Cl9 Sr0 3.025682 1_545
Cl9 Sr1 3.031292 1_656
