# generated using pymatgen
data_TaVO4
_symmetry_space_group_name_H-M   'P 1'
_cell_length_a   5.65999970
_cell_length_b   5.65007419
_cell_length_c   9.15688543
_cell_angle_alpha   94.24570231
_cell_angle_beta   85.63120242
_cell_angle_gamma   108.12345888
_symmetry_Int_Tables_number   1
_chemical_formula_structural   TaVO4
_chemical_formula_sum   'Ta4 V4 O16'
_cell_volume   277.10359599
_cell_formula_units_Z   4
loop_
 _symmetry_equiv_pos_site_id
 _symmetry_equiv_pos_as_xyz
  1  'x, y, z'
loop_
 _atom_site_type_symbol
 _atom_site_label
 _atom_site_symmetry_multiplicity
 _atom_site_fract_x
 _atom_site_fract_y
 _atom_site_fract_z
 _atom_site_occupancy
  Ta  Ta0  1  0.24899600  0.75098000  0.74920300  1
  Ta  Ta1  1  0.50000600  0.49999000  0.50000000  1
  Ta  Ta2  1  0.00000000  0.00001900  0.00001300  1
  Ta  Ta3  1  0.75103000  0.24900200  0.25075800  1
  V  V0  1  0.87328900  0.12669700  0.62659600  1
  V  V1  1  0.12671000  0.87329800  0.37342600  1
  V  V2  1  0.62033900  0.37969300  0.87926400  1
  V  V3  1  0.37961600  0.62036900  0.12075700  1
  O  O0  1  0.02576500  0.97415300  0.77923400  1
  O  O1  1  0.27814600  0.72179100  0.52740600  1
  O  O2  1  0.77963700  0.22020400  0.02981800  1
  O  O3  1  0.53150900  0.46837100  0.27879000  1
  O  O4  1  0.72186700  0.27818600  0.47259000  1
  O  O5  1  0.97424800  0.02582200  0.22075000  1
  O  O6  1  0.46851500  0.53160100  0.72122800  1
  O  O7  1  0.22033900  0.77980900  0.97015800  1
  O  O8  1  0.54412000  0.05278200  0.75317200  1
  O  O9  1  0.79848500  0.79843700  0.50001300  1
  O  O10  1  0.29734800  0.29741900  0.99994800  1
  O  O11  1  0.05267500  0.54410500  0.24685000  1
  O  O12  1  0.94726200  0.45588900  0.75318000  1
  O  O13  1  0.20153600  0.20153700  0.49998400  1
  O  O14  1  0.70267700  0.70256100  0.99999800  1
  O  O15  1  0.45588500  0.94728600  0.24686100  1
loop_
_geom_bond_atom_site_label_1
_geom_bond_atom_site_label_2
_geom_bond_distance
_geom_bond_site_symmetry_2
O0 Ta2 2.013525 1_566
O0 Ta0 2.036884 1_555
O0 V0 2.065446 1_465
O1 Ta1 2.023554 1_555
O1 Ta0 2.023744 1_555
O1 V1 2.067557 1_555
O2 Ta2 2.010229 1_655
O2 Ta3 2.015802 1_555
O2 V2 2.098641 1_554
O3 Ta3 2.002072 1_555
O3 Ta1 2.019394 1_555
O3 V3 2.098476 1_555
O4 Ta1 2.023573 1_555
O4 Ta3 2.024063 1_555
O4 V0 2.067627 1_555
O5 Ta2 2.013134 1_655
O5 Ta3 2.036847 1_555
O5 V1 2.065588 1_645
O6 Ta0 2.002090 1_555
O6 Ta1 2.019553 1_555
O6 V2 2.097967 1_555
O7 Ta2 2.010253 1_566
O7 Ta0 2.015952 1_555
O7 V3 2.098696 1_556
O8 Ta0 1.981740 1_545
O8 V2 2.048239 1_555
O8 V0 2.060954 1_555
O9 Ta1 1.981209 1_555
O9 V1 2.056557 1_655
O9 V0 2.056841 1_565
O10 Ta2 1.973978 1_556
O10 V2 2.004731 1_555
O10 V3 2.005263 1_556
O11 Ta3 1.981103 1_455
O11 V3 2.048218 1_555
O11 V1 2.061152 1_555
O12 Ta0 1.981375 1_655
O12 V2 2.048106 1_555
O12 V0 2.061197 1_555
O13 Ta1 1.981199 1_555
O13 V1 2.056625 1_545
O13 V0 2.056777 1_455
O14 Ta2 1.974089 1_666
O14 V2 2.004545 1_555
O14 V3 2.005395 1_556
O15 Ta3 1.981506 1_565
O15 V3 2.048315 1_555
O15 V1 2.060915 1_555
