# generated using pymatgen
data_HoNiSn2
_symmetry_space_group_name_H-M   'P 1'
_cell_length_a   4.43308000
_cell_length_b   14.62301300
_cell_length_c   16.13516600
_cell_angle_alpha   90.00000000
_cell_angle_beta   90.00000000
_cell_angle_gamma   90.00000000
_symmetry_Int_Tables_number   1
_chemical_formula_structural   HoNiSn2
_chemical_formula_sum   'Ho12 Ni12 Sn24'
_cell_volume   1045.96191764
_cell_formula_units_Z   12
loop_
 _symmetry_equiv_pos_site_id
 _symmetry_equiv_pos_as_xyz
  1  'x, y, z'
loop_
 _atom_site_type_symbol
 _atom_site_label
 _atom_site_symmetry_multiplicity
 _atom_site_fract_x
 _atom_site_fract_y
 _atom_site_fract_z
 _atom_site_occupancy
  Ho  Ho0  1  0.25000000  0.97325100  0.34839700  1
  Ho  Ho1  1  0.25000000  0.52674900  0.84839700  1
  Ho  Ho2  1  0.75000000  0.02674900  0.65160300  1
  Ho  Ho3  1  0.75000000  0.47325100  0.15160300  1
  Ho  Ho4  1  0.25000000  0.27426800  0.87397300  1
  Ho  Ho5  1  0.25000000  0.22573200  0.37397300  1
  Ho  Ho6  1  0.75000000  0.72573200  0.12602700  1
  Ho  Ho7  1  0.75000000  0.77426800  0.62602700  1
  Ho  Ho8  1  0.25000000  0.39813200  0.64585400  1
  Ho  Ho9  1  0.25000000  0.10186800  0.14585400  1
  Ho  Ho10  1  0.75000000  0.60186800  0.35414600  1
  Ho  Ho11  1  0.75000000  0.89813200  0.85414600  1
  Ni  Ni0  1  0.25000000  0.60721000  0.05295200  1
  Ni  Ni1  1  0.25000000  0.89279000  0.55295200  1
  Ni  Ni2  1  0.75000000  0.39279000  0.94704800  1
  Ni  Ni3  1  0.75000000  0.10721000  0.44704800  1
  Ni  Ni4  1  0.25000000  0.74508400  0.30714900  1
  Ni  Ni5  1  0.25000000  0.75491600  0.80714900  1
  Ni  Ni6  1  0.75000000  0.25491600  0.69285100  1
  Ni  Ni7  1  0.75000000  0.24508400  0.19285100  1
  Ni  Ni8  1  0.25000000  0.04605800  0.79970900  1
  Ni  Ni9  1  0.25000000  0.45394200  0.29970900  1
  Ni  Ni10  1  0.75000000  0.95394200  0.20029100  1
  Ni  Ni11  1  0.75000000  0.54605800  0.70029100  1
  Sn  Sn0  1  0.25000000  0.17750700  0.68319200  1
  Sn  Sn1  1  0.25000000  0.32249300  0.18319200  1
  Sn  Sn2  1  0.75000000  0.82249300  0.31680800  1
  Sn  Sn3  1  0.75000000  0.67750700  0.81680800  1
  Sn  Sn4  1  0.25000000  0.05272900  0.95719400  1
  Sn  Sn5  1  0.25000000  0.44727100  0.45719400  1
  Sn  Sn6  1  0.75000000  0.94727100  0.04280600  1
  Sn  Sn7  1  0.75000000  0.55272900  0.54280600  1
  Sn  Sn8  1  0.25000000  0.07762600  0.52029900  1
  Sn  Sn9  1  0.25000000  0.42237400  0.02029900  1
  Sn  Sn10  1  0.75000000  0.92237400  0.47970100  1
  Sn  Sn11  1  0.75000000  0.57762600  0.97970100  1
  Sn  Sn12  1  0.25000000  0.60471900  0.21491200  1
  Sn  Sn13  1  0.25000000  0.89528100  0.71491200  1
  Sn  Sn14  1  0.75000000  0.39528100  0.78508800  1
  Sn  Sn15  1  0.75000000  0.10471900  0.28508800  1
  Sn  Sn16  1  0.25000000  0.73443900  0.46917900  1
  Sn  Sn17  1  0.25000000  0.76556100  0.96917900  1
  Sn  Sn18  1  0.75000000  0.26556100  0.53082100  1
  Sn  Sn19  1  0.75000000  0.23443900  0.03082100  1
  Sn  Sn20  1  0.25000000  0.86813100  0.17515100  1
  Sn  Sn21  1  0.25000000  0.63186900  0.67515100  1
  Sn  Sn22  1  0.75000000  0.13186900  0.82484900  1
  Sn  Sn23  1  0.75000000  0.36813100  0.32484900  1
loop_
_geom_bond_atom_site_label_1
_geom_bond_atom_site_label_2
_geom_bond_distance
_geom_bond_site_symmetry_2
Ho0 Sn15 3.106825 1_565
Ho0 Sn15 3.106825 1_465
Ho0 Sn10 3.155165 1_555
Ho0 Sn10 3.155165 1_455
Ho0 Sn8 3.165873 1_565
Ho0 Sn2 3.167462 1_555
Ho0 Sn2 3.167462 1_455
Ho0 Sn20 3.190124 1_555
Ho0 Ni10 3.271622 1_555
Ho0 Ni10 3.271622 1_455
Ho0 Ni3 3.359158 1_465
Ho0 Ni3 3.359158 1_565
Ho0 Ni4 3.402221 1_555
Ho0 Ni1 3.503974 1_555
Ho1 Sn14 3.106825 1_555
Ho1 Sn14 3.106825 1_455
Ho1 Sn11 3.155165 1_555
Ho1 Sn11 3.155165 1_455
Ho1 Sn9 3.165873 1_556
Ho1 Sn3 3.167462 1_555
Ho1 Sn3 3.167462 1_455
Ho1 Sn21 3.190124 1_555
Ho1 Ni11 3.271622 1_555
Ho1 Ni11 3.271622 1_455
Ho1 Ni2 3.359158 1_555
Ho1 Ni2 3.359158 1_455
Ho1 Ni5 3.402221 1_555
Ho1 Ni0 3.503974 1_556
Ho2 Sn13 3.106825 1_545
Ho2 Sn13 3.106825 1_645
Ho2 Sn8 3.155165 1_555
Ho2 Sn8 3.155165 1_655
Ho2 Sn10 3.165873 1_545
Ho2 Sn0 3.167462 1_555
Ho2 Sn0 3.167462 1_655
Ho2 Sn22 3.190124 1_555
Ho2 Ni8 3.271622 1_555
Ho2 Ni8 3.271622 1_655
Ho2 Ni1 3.359158 1_545
Ho2 Ni1 3.359158 1_645
Ho2 Ni6 3.402221 1_555
Ho2 Ni3 3.503974 1_555
Ho3 Sn12 3.106825 1_555
Ho3 Sn12 3.106825 1_655
Ho3 Sn9 3.155165 1_555
Ho3 Sn9 3.155165 1_655
Ho3 Sn11 3.165873 1_554
Ho3 Sn1 3.167462 1_555
Ho3 Sn1 3.167462 1_655
Ho3 Sn23 3.190124 1_555
Ho3 Ni9 3.271622 1_655
Ho3 Ni9 3.271622 1_555
Ho3 Ni0 3.359158 1_655
Ho3 Ni0 3.359158 1_555
Ho3 Ni7 3.402221 1_555
Ho3 Ni2 3.503974 1_554
Ho4 Ni2 3.050750 1_555
Ho4 Ni2 3.050750 1_455
Ho4 Sn22 3.142815 1_555
Ho4 Sn22 3.142815 1_455
Ho4 Sn14 3.178254 1_555
Ho4 Sn14 3.178254 1_455
Ho4 Sn9 3.203872 1_556
Ho4 Sn0 3.387901 1_555
Ho4 Sn19 3.414243 1_456
Ho4 Sn19 3.414243 1_556
Ho4 Sn4 3.506832 1_555
Ho5 Ni3 3.050750 1_555
Ho5 Ni3 3.050750 1_455
Ho5 Sn23 3.142815 1_455
Ho5 Sn23 3.142815 1_555
Ho5 Sn15 3.178254 1_555
Ho5 Sn15 3.178254 1_455
Ho5 Sn8 3.203872 1_555
Ho5 Sn1 3.387901 1_555
Ho5 Sn18 3.414243 1_455
Ho5 Sn18 3.414243 1_555
Ho5 Sn5 3.506832 1_555
Ho6 Ni0 3.050750 1_655
Ho6 Ni0 3.050750 1_555
Ho6 Sn20 3.142815 1_655
Ho6 Sn20 3.142815 1_555
Ho6 Sn12 3.178254 1_555
Ho6 Sn12 3.178254 1_655
Ho6 Sn11 3.203872 1_554
Ho6 Sn2 3.387901 1_555
Ho6 Sn17 3.414243 1_554
Ho6 Sn17 3.414243 1_654
Ho6 Sn6 3.506832 1_555
Ho7 Ni1 3.050750 1_655
Ho7 Ni1 3.050750 1_555
Ho7 Sn21 3.142815 1_655
Ho7 Sn21 3.142815 1_555
Ho7 Sn13 3.178254 1_655
Ho7 Sn13 3.178254 1_555
Ho7 Sn10 3.203872 1_555
Ho7 Sn3 3.387901 1_555
Ho7 Sn16 3.414243 1_555
Ho7 Sn16 3.414243 1_655
Ho7 Sn7 3.506832 1_555
Ho8 Sn5 3.127720 1_555
Ho8 Ni6 3.142285 1_455
Ho8 Ni6 3.142285 1_555
Ho8 Sn14 3.156238 1_555
Ho8 Sn14 3.156238 1_455
Ho8 Ni11 3.219263 1_555
Ho8 Ni11 3.219263 1_455
Ho8 Sn0 3.281971 1_555
Ho8 Sn21 3.450473 1_555
Ho8 Sn18 3.480832 1_555
Ho8 Sn18 3.480832 1_455
Ho8 Sn7 3.576067 1_455
Ho8 Sn7 3.576067 1_555
Ho9 Sn4 3.127720 1_554
Ho9 Ni7 3.142285 1_455
Ho9 Ni7 3.142285 1_555
Ho9 Sn15 3.156238 1_555
Ho9 Sn15 3.156238 1_455
Ho9 Ni10 3.219263 1_445
Ho9 Ni10 3.219263 1_545
Ho9 Sn1 3.281971 1_555
Ho9 Sn20 3.450473 1_545
Ho9 Sn19 3.480832 1_555
Ho9 Sn19 3.480832 1_455
Ho9 Sn6 3.576067 1_445
Ho9 Sn6 3.576067 1_545
Ho10 Sn7 3.127720 1_555
Ho10 Ni4 3.142285 1_555
Ho10 Ni4 3.142285 1_655
Ho10 Sn12 3.156238 1_555
Ho10 Sn12 3.156238 1_655
Ho10 Ni9 3.219263 1_655
Ho10 Ni9 3.219263 1_555
Ho10 Sn2 3.281971 1_555
Ho10 Sn23 3.450473 1_555
Ho10 Sn16 3.480832 1_555
Ho10 Sn16 3.480832 1_655
Ho10 Sn5 3.576067 1_655
Ho10 Sn5 3.576067 1_555
Ho11 Sn6 3.127720 1_556
Ho11 Ni5 3.142285 1_555
Ho11 Ni5 3.142285 1_655
Ho11 Sn13 3.156238 1_555
Ho11 Sn13 3.156238 1_655
Ho11 Ni8 3.219263 1_565
Ho11 Ni8 3.219263 1_665
Ho11 Sn3 3.281971 1_555
Ho11 Sn22 3.450473 1_565
Ho11 Sn17 3.480832 1_655
Ho11 Sn17 3.480832 1_555
Ho11 Sn4 3.576067 1_665
Ho11 Sn4 3.576067 1_565
Ni0 Sn11 2.548946 1_554
Ni0 Sn11 2.548946 1_454
Ni0 Sn12 2.613505 1_555
Ni0 Sn17 2.681218 1_554
Ni0 Sn9 2.753730 1_555
Ni1 Sn10 2.548946 1_555
Ni1 Sn10 2.548946 1_455
Ni1 Sn13 2.613505 1_555
Ni1 Sn16 2.681218 1_555
Ni1 Sn8 2.753730 1_565
Ni2 Sn9 2.548946 1_556
Ni2 Sn9 2.548946 1_656
Ni2 Sn14 2.613505 1_555
Ni2 Sn19 2.681218 1_556
Ni2 Sn11 2.753730 1_555
Ni3 Sn8 2.548946 1_655
Ni3 Sn8 2.548946 1_555
Ni3 Sn15 2.613505 1_555
Ni3 Sn18 2.681218 1_555
Ni3 Sn10 2.753730 1_545
Ni4 Sn2 2.493723 1_555
Ni4 Sn2 2.493723 1_455
Ni4 Sn12 2.535333 1_555
Ni4 Sn16 2.619011 1_555
Ni4 Sn20 2.788124 1_555
Ni5 Sn3 2.493723 1_455
Ni5 Sn3 2.493723 1_555
Ni5 Sn13 2.535333 1_555
Ni5 Sn17 2.619011 1_555
Ni5 Sn21 2.788124 1_555
Ni6 Sn0 2.493723 1_555
Ni6 Sn0 2.493723 1_655
Ni6 Sn14 2.535333 1_555
Ni6 Sn18 2.619011 1_555
Ni6 Sn22 2.788124 1_555
Ni7 Sn1 2.493723 1_655
Ni7 Sn1 2.493723 1_555
Ni7 Sn15 2.535333 1_555
Ni7 Sn19 2.619011 1_555
Ni7 Sn23 2.788124 1_555
Ni8 Sn4 2.542918 1_555
Ni8 Sn22 2.579177 1_555
Ni8 Sn22 2.579177 1_455
Ni8 Sn13 2.594844 1_545
Ni8 Sn0 2.688728 1_555
Ni9 Sn5 2.542918 1_555
Ni9 Sn23 2.579177 1_555
Ni9 Sn23 2.579177 1_455
Ni9 Sn12 2.594844 1_555
Ni9 Sn1 2.688728 1_555
Ni10 Sn6 2.542918 1_555
Ni10 Sn20 2.579177 1_555
Ni10 Sn20 2.579177 1_655
Ni10 Sn15 2.594844 1_565
Ni10 Sn2 2.688728 1_555
Ni11 Sn7 2.542918 1_555
Ni11 Sn21 2.579177 1_655
Ni11 Sn21 2.579177 1_555
Ni11 Sn14 2.594844 1_555
Ni11 Sn3 2.688728 1_555
Sn0 Sn8 3.006864 1_555
Sn1 Sn9 3.006864 1_555
Sn10 Sn2 3.006864 1_555
Sn11 Sn3 3.006864 1_555
