# generated using pymatgen
data_Lu9B5S21
_symmetry_space_group_name_H-M   'P 1'
_cell_length_a   10.99008447
_cell_length_b   10.99008447
_cell_length_c   10.99008389
_cell_angle_alpha   93.55686381
_cell_angle_beta   93.55686381
_cell_angle_gamma   93.55686040
_symmetry_Int_Tables_number   1
_chemical_formula_structural   Lu9B5S21
_chemical_formula_sum   'Lu18 B10 S42'
_cell_volume   1319.39927871
_cell_formula_units_Z   2
loop_
 _symmetry_equiv_pos_site_id
 _symmetry_equiv_pos_as_xyz
  1  'x, y, z'
loop_
 _atom_site_type_symbol
 _atom_site_label
 _atom_site_symmetry_multiplicity
 _atom_site_fract_x
 _atom_site_fract_y
 _atom_site_fract_z
 _atom_site_occupancy
  Lu  Lu0  1  0.92149000  0.53265200  0.76046700  1
  Lu  Lu1  1  0.55741400  0.19815600  0.41490600  1
  Lu  Lu2  1  0.24097600  0.85198400  0.08423000  1
  Lu  Lu3  1  0.19815600  0.41490600  0.55741400  1
  Lu  Lu4  1  0.85198400  0.08423000  0.24097600  1
  Lu  Lu5  1  0.53265200  0.76046700  0.92149000  1
  Lu  Lu6  1  0.08423000  0.24097600  0.85198400  1
  Lu  Lu7  1  0.76046700  0.92149000  0.53265200  1
  Lu  Lu8  1  0.41490600  0.55741400  0.19815600  1
  Lu  Lu9  1  0.72172100  0.08133900  0.86725500  1
  Lu  Lu10  1  0.37700300  0.76632900  0.53485100  1
  Lu  Lu11  1  0.05651300  0.44461300  0.21233300  1
  Lu  Lu12  1  0.44461300  0.21233300  0.05651300  1
  Lu  Lu13  1  0.08133900  0.86725500  0.72172100  1
  Lu  Lu14  1  0.76632900  0.53485100  0.37700300  1
  Lu  Lu15  1  0.53485100  0.37700300  0.76632900  1
  Lu  Lu16  1  0.21233300  0.05651300  0.44461300  1
  Lu  Lu17  1  0.86725500  0.72172100  0.08133900  1
  B  B0  1  0.75904000  0.42229400  0.08640700  1
  B  B1  1  0.42229400  0.08640700  0.75904000  1
  B  B2  1  0.08640700  0.75904000  0.42229400  1
  B  B3  1  0.58720700  0.92115800  0.25958000  1
  B  B4  1  0.25958000  0.58720700  0.92115800  1
  B  B5  1  0.92115800  0.25958000  0.58720700  1
  B  B6  1  0.02177400  0.02177400  0.02177400  1
  B  B7  1  0.69464900  0.69464900  0.69464900  1
  B  B8  1  0.19437500  0.19437500  0.19437500  1
  B  B9  1  0.52194500  0.52194500  0.52194500  1
  S  S0  1  0.97267600  0.65373000  0.30863300  1
  S  S1  1  0.65373000  0.30863300  0.97267600  1
  S  S2  1  0.30863300  0.97267600  0.65373000  1
  S  S3  1  0.47388000  0.80674300  0.15443100  1
  S  S4  1  0.15443100  0.47388000  0.80674300  1
  S  S5  1  0.80674300  0.15443100  0.47388000  1
  S  S6  1  0.50373300  0.35283000  0.24853100  1
  S  S7  1  0.14927900  0.01828200  0.92437900  1
  S  S8  1  0.81788900  0.68720200  0.59237700  1
  S  S9  1  0.68720200  0.59237700  0.81788900  1
  S  S10  1  0.35283000  0.24853100  0.50373300  1
  S  S11  1  0.01828200  0.92437900  0.14927900  1
  S  S12  1  0.92437900  0.14927900  0.01828200  1
  S  S13  1  0.59237700  0.81788900  0.68720200  1
  S  S14  1  0.24853100  0.50373300  0.35283000  1
  S  S15  1  0.73377500  0.88296400  0.98907800  1
  S  S16  1  0.41197000  0.54334400  0.63691800  1
  S  S17  1  0.07996700  0.21123900  0.30542500  1
  S  S18  1  0.54334400  0.63691800  0.41197000  1
  S  S19  1  0.21123900  0.30542500  0.07996700  1
  S  S20  1  0.88296400  0.98907800  0.73377500  1
  S  S21  1  0.30542500  0.07996700  0.21123900  1
  S  S22  1  0.98907800  0.73377500  0.88296400  1
  S  S23  1  0.63691800  0.41197000  0.54334400  1
  S  S24  1  0.68286100  0.56934800  0.14183700  1
  S  S25  1  0.34658900  0.23235300  0.81824100  1
  S  S26  1  0.01196000  0.90561100  0.47920400  1
  S  S27  1  0.90561100  0.47920400  0.01196000  1
  S  S28  1  0.56934800  0.14183700  0.68286100  1
  S  S29  1  0.23235300  0.81824100  0.34658900  1
  S  S30  1  0.81824100  0.34658900  0.23235300  1
  S  S31  1  0.47920400  0.01196000  0.90561100  1
  S  S32  1  0.14183700  0.68286100  0.56934800  1
  S  S33  1  0.74761500  0.86127000  0.28924600  1
  S  S34  1  0.42119700  0.52559300  0.95151500  1
  S  S35  1  0.08165400  0.19767700  0.61257700  1
  S  S36  1  0.52559300  0.95151500  0.42119700  1
  S  S37  1  0.19767700  0.61257700  0.08165400  1
  S  S38  1  0.86127000  0.28924600  0.74761500  1
  S  S39  1  0.61257700  0.08165400  0.19767700  1
  S  S40  1  0.28924600  0.74761500  0.86127000  1
  S  S41  1  0.95151500  0.42119700  0.52559300  1
loop_
_geom_bond_atom_site_label_1
_geom_bond_atom_site_label_2
_geom_bond_distance
_geom_bond_site_symmetry_2
Lu0 S22 2.559847 1_555
Lu0 S4 2.704449 1_655
Lu0 S38 2.708453 1_555
Lu0 S9 2.796219 1_555
Lu0 S8 2.821744 1_555
Lu0 S41 2.834752 1_555
Lu0 S27 2.874607 1_556
Lu1 S10 2.583508 1_555
Lu1 S6 2.637653 1_555
Lu1 S36 2.717186 1_545
Lu1 S23 2.730986 1_555
Lu1 S39 2.757355 1_555
Lu1 S5 2.853255 1_555
Lu1 S28 3.043146 1_555
Lu2 S37 2.642666 1_555
Lu2 S3 2.711946 1_555
Lu2 S40 2.736667 1_554
Lu2 S11 2.742648 1_555
Lu2 S7 2.801661 1_564
Lu2 S21 2.819758 1_565
Lu2 S29 2.936394 1_555
Lu3 S14 2.583508 1_555
Lu3 S10 2.637653 1_555
Lu3 S41 2.717186 1_455
Lu3 S16 2.730986 1_555
Lu3 S35 2.757355 1_555
Lu3 S4 2.853254 1_555
Lu3 S32 3.043146 1_555
Lu4 S39 2.642666 1_555
Lu4 S5 2.711946 1_555
Lu4 S33 2.736668 1_545
Lu4 S12 2.742648 1_555
Lu4 S11 2.801661 1_645
Lu4 S17 2.819758 1_655
Lu4 S30 2.936394 1_555
Lu5 S15 2.559847 1_555
Lu5 S3 2.704449 1_556
Lu5 S40 2.708453 1_555
Lu5 S13 2.796219 1_555
Lu5 S9 2.821744 1_555
Lu5 S34 2.834753 1_555
Lu5 S31 2.874608 1_565
Lu6 S35 2.642666 1_555
Lu6 S4 2.711946 1_555
Lu6 S38 2.736667 1_455
Lu6 S7 2.742648 1_555
Lu6 S12 2.801662 1_456
Lu6 S19 2.819757 1_556
Lu6 S25 2.936394 1_555
Lu7 S20 2.559847 1_555
Lu7 S5 2.704449 1_565
Lu7 S33 2.708453 1_555
Lu7 S8 2.796219 1_555
Lu7 S13 2.821744 1_555
Lu7 S36 2.834752 1_555
Lu7 S26 2.874608 1_655
Lu8 S6 2.583508 1_555
Lu8 S14 2.637653 1_555
Lu8 S34 2.717185 1_554
Lu8 S18 2.730986 1_555
Lu8 S37 2.757355 1_555
Lu8 S3 2.853255 1_555
Lu8 S24 3.043146 1_555
Lu9 S20 2.584811 1_545
Lu9 S15 2.634226 1_545
Lu9 S28 2.690224 1_555
Lu9 S12 2.730237 1_556
Lu9 S31 2.791044 1_555
Lu9 S1 2.849648 1_555
Lu9 S38 3.080577 1_555
Lu10 S29 2.642801 1_555
Lu10 S2 2.716598 1_555
Lu10 S32 2.745066 1_555
Lu10 S18 2.753017 1_555
Lu10 S16 2.795702 1_555
Lu10 S13 2.819795 1_555
Lu10 S36 2.919781 1_555
Lu11 S14 2.561396 1_555
Lu11 S0 2.707905 1_455
Lu11 S27 2.733710 1_455
Lu11 S19 2.775111 1_555
Lu11 S30 2.795900 1_455
Lu11 S17 2.840113 1_555
Lu11 S37 2.850790 1_555
Lu12 S6 2.561396 1_555
Lu12 S1 2.707905 1_554
Lu12 S31 2.733710 1_554
Lu12 S21 2.775111 1_555
Lu12 S25 2.795900 1_554
Lu12 S19 2.840113 1_555
Lu12 S39 2.850790 1_555
Lu13 S22 2.584811 1_455
Lu13 S20 2.634226 1_455
Lu13 S32 2.690224 1_555
Lu13 S7 2.730236 1_565
Lu13 S26 2.791044 1_555
Lu13 S2 2.849648 1_555
Lu13 S40 3.080577 1_555
Lu14 S30 2.642801 1_555
Lu14 S0 2.716598 1_555
Lu14 S24 2.745066 1_555
Lu14 S23 2.753017 1_555
Lu14 S18 2.795702 1_555
Lu14 S8 2.819795 1_555
Lu14 S41 2.919781 1_555
Lu15 S25 2.642801 1_555
Lu15 S1 2.716598 1_555
Lu15 S28 2.745066 1_555
Lu15 S16 2.753017 1_555
Lu15 S23 2.795702 1_555
Lu15 S9 2.819795 1_555
Lu15 S34 2.919781 1_555
Lu16 S10 2.561396 1_555
Lu16 S2 2.707905 1_545
Lu16 S26 2.733710 1_545
Lu16 S17 2.775111 1_555
Lu16 S29 2.795900 1_545
Lu16 S21 2.840113 1_555
Lu16 S35 2.850790 1_555
Lu17 S15 2.584811 1_554
Lu17 S22 2.634226 1_554
Lu17 S24 2.690225 1_555
Lu17 S11 2.730237 1_655
Lu17 S27 2.791044 1_555
Lu17 S0 2.849648 1_555
Lu17 S33 3.080577 1_555
B0 S27 1.938396 1_555
B0 S30 1.947175 1_555
B0 S24 1.947545 1_555
B0 S1 1.977255 1_554
B1 S31 1.938396 1_555
B1 S25 1.947175 1_555
B1 S28 1.947545 1_555
B1 S2 1.977255 1_545
B2 S26 1.938396 1_555
B2 S29 1.947175 1_555
B2 S32 1.947545 1_555
B2 S0 1.977255 1_455
B3 S33 1.935607 1_555
B3 S39 1.939897 1_565
B3 S36 1.956629 1_555
B3 S3 1.978520 1_555
B4 S40 1.935607 1_555
B4 S37 1.939897 1_556
B4 S34 1.956629 1_555
B4 S4 1.978520 1_555
B5 S38 1.935607 1_555
B5 S35 1.939897 1_655
B5 S41 1.956629 1_555
B5 S5 1.978520 1_555
B6 S11 1.816172 1_545
B6 S12 1.816172 1_455
B6 S7 1.816172 1_554
B7 S9 1.815407 1_555
B7 S13 1.815407 1_555
B7 S8 1.815407 1_555
B8 S17 1.815498 1_555
B8 S21 1.815498 1_555
B8 S19 1.815498 1_555
B9 S16 1.816751 1_555
B9 S23 1.816751 1_555
B9 S18 1.816751 1_555
