# generated using pymatgen
data_Ca2CoSbO6
_symmetry_space_group_name_H-M   'P 1'
_cell_length_a   7.68707100
_cell_length_b   5.50576500
_cell_length_c   5.66532098
_cell_angle_alpha   89.91674628
_cell_angle_beta   90.00000000
_cell_angle_gamma   90.00000000
_symmetry_Int_Tables_number   1
_chemical_formula_structural   Ca2CoSbO6
_chemical_formula_sum   'Ca4 Co2 Sb2 O12'
_cell_volume   239.77429643
_cell_formula_units_Z   2
loop_
 _symmetry_equiv_pos_site_id
 _symmetry_equiv_pos_as_xyz
  1  'x, y, z'
loop_
 _atom_site_type_symbol
 _atom_site_label
 _atom_site_symmetry_multiplicity
 _atom_site_fract_x
 _atom_site_fract_y
 _atom_site_fract_z
 _atom_site_occupancy
  Ca  Ca0  1  0.25000000  0.48101300  0.43355700  1
  Ca  Ca1  1  0.75000000  0.51898700  0.56644300  1
  Ca  Ca2  1  0.25000000  0.00232100  0.95618100  1
  Ca  Ca3  1  0.75000000  0.99767900  0.04381900  1
  Co  Co0  1  0.50000000  0.50000000  0.00000000  1
  Co  Co1  1  0.00000000  0.50000000  0.00000000  1
  Sb  Sb0  1  0.50000000  0.00000000  0.50000000  1
  Sb  Sb1  1  0.00000000  0.00000000  0.50000000  1
  O  O0  1  0.54721500  0.70580300  0.30649400  1
  O  O1  1  0.95055200  0.81003400  0.79365700  1
  O  O2  1  0.04721500  0.29419700  0.69350600  1
  O  O3  1  0.45055200  0.18996600  0.20634300  1
  O  O4  1  0.54944800  0.81003400  0.79365700  1
  O  O5  1  0.04944800  0.18996600  0.20634300  1
  O  O6  1  0.75000000  0.10770300  0.46364700  1
  O  O7  1  0.95278500  0.70580300  0.30649400  1
  O  O8  1  0.25000000  0.57577100  0.02418200  1
  O  O9  1  0.45278500  0.29419700  0.69350600  1
  O  O10  1  0.25000000  0.89229700  0.53635300  1
  O  O11  1  0.75000000  0.42422900  0.97581800  1
loop_
_geom_bond_atom_site_label_1
_geom_bond_atom_site_label_2
_geom_bond_distance
_geom_bond_site_symmetry_2
Ca0 O10 2.338941 1_555
Ca0 O8 2.376457 1_555
Ca0 O2 2.377457 1_555
Ca0 O9 2.377457 1_555
Ca0 O5 2.570504 1_555
Ca0 O3 2.570504 1_555
Ca0 O7 2.695787 1_455
Ca0 O0 2.695787 1_555
Ca1 O6 2.338941 1_555
Ca1 O11 2.376457 1_555
Ca1 O0 2.377457 1_555
Ca1 O7 2.377457 1_555
Ca1 O4 2.570504 1_555
Ca1 O1 2.570504 1_555
Ca1 O9 2.695787 1_555
Ca1 O2 2.695787 1_655
Ca2 O5 2.336003 1_556
Ca2 O3 2.336003 1_556
Ca2 O8 2.379320 1_546
Ca2 O10 2.455242 1_545
Ca2 O2 2.687003 1_555
Ca2 O9 2.687003 1_555
Ca2 O1 2.696308 1_445
Ca2 O4 2.696308 1_545
Ca3 O4 2.336003 1_554
Ca3 O1 2.336003 1_554
Ca3 O11 2.379320 1_564
Ca3 O6 2.455242 1_565
Ca3 O7 2.687003 1_555
Ca3 O0 2.687003 1_555
Ca3 O5 2.696308 1_665
Ca3 O3 2.696308 1_565
Co0 O11 1.971335 1_554
Co0 O8 1.971335 1_555
Co0 O3 2.102143 1_555
Co0 O4 2.102143 1_554
Co0 O0 2.106278 1_555
Co0 O9 2.106278 1_554
Co1 O11 1.971335 1_454
Co1 O8 1.971335 1_555
Co1 O5 2.102143 1_555
Co1 O1 2.102143 1_454
Co1 O7 2.106278 1_455
Co1 O2 2.106278 1_554
O0 Sb0 1.990576 1_565
O1 Sb1 2.000280 1_665
O2 Sb1 1.990576 1_555
O3 Sb0 2.000280 1_555
O4 Sb0 2.000280 1_565
O5 Sb1 2.000280 1_555
O6 Sb1 2.021605 1_655
O6 Sb0 2.021605 1_555
O7 Sb1 1.990576 1_665
O9 Sb0 1.990576 1_555
O10 Sb0 2.021605 1_565
O10 Sb1 2.021605 1_565
