# generated using pymatgen
data_Ca2La2MgTi3O12
_symmetry_space_group_name_H-M   'P 1'
_cell_length_a   5.52575300
_cell_length_b   5.56496273
_cell_length_c   7.82857184
_cell_angle_alpha   89.94409457
_cell_angle_beta   89.95780709
_cell_angle_gamma   89.90447546
_symmetry_Int_Tables_number   1
_chemical_formula_structural   Ca2La2MgTi3O12
_chemical_formula_sum   'Ca2 La2 Mg1 Ti3 O12'
_cell_volume   240.73284162
_cell_formula_units_Z   1
loop_
 _symmetry_equiv_pos_site_id
 _symmetry_equiv_pos_as_xyz
  1  'x, y, z'
loop_
 _atom_site_type_symbol
 _atom_site_label
 _atom_site_symmetry_multiplicity
 _atom_site_fract_x
 _atom_site_fract_y
 _atom_site_fract_z
 _atom_site_occupancy
  Ca  Ca0  1  0.49427800  0.53150800  0.75814900  1
  Ca  Ca1  1  0.98931500  0.96419100  0.24176500  1
  La  La0  1  0.00998900  0.03269300  0.76170900  1
  La  La1  1  0.50362400  0.47588100  0.23880000  1
  Mg  Mg0  1  0.00007100  0.50123100  0.99979300  1
  Ti  Ti0  1  0.50144900  0.00041600  0.49911500  1
  Ti  Ti1  1  0.00071000  0.50267800  0.50136300  1
  Ti  Ti2  1  0.50037200  0.99939000  0.00055500  1
  O  O0  1  0.57480500  0.98242600  0.74607700  1
  O  O1  1  0.91984500  0.48267200  0.73885300  1
  O  O2  1  0.41836300  0.01299400  0.25395200  1
  O  O3  1  0.07557800  0.51784100  0.26055700  1
  O  O4  1  0.22504800  0.79026400  0.96209800  1
  O  O5  1  0.28557300  0.28142600  0.54271400  1
  O  O6  1  0.78068200  0.21373700  0.45669300  1
  O  O7  1  0.70901800  0.72236700  0.03793700  1
  O  O8  1  0.77804000  0.20609900  0.04083500  1
  O  O9  1  0.71738000  0.72070000  0.45918500  1
  O  O10  1  0.22103900  0.78303200  0.54140600  1
  O  O11  1  0.29482200  0.27845400  0.95844300  1
loop_
_geom_bond_atom_site_label_1
_geom_bond_atom_site_label_2
_geom_bond_distance
_geom_bond_site_symmetry_2
Ca0 O1 2.371502 1_555
Ca0 O11 2.377992 1_555
Ca0 O5 2.474683 1_555
Ca0 O0 2.550868 1_555
Ca0 O4 2.613393 1_555
Ca0 O10 2.666468 1_555
Ca0 O7 2.710404 1_556
Ca0 O9 2.846283 1_555
Ca1 O8 2.375473 1_565
Ca1 O2 2.388755 1_665
Ca1 O6 2.466787 1_565
Ca1 O3 2.532619 1_655
Ca1 O7 2.602104 1_555
Ca1 O9 2.643794 1_555
Ca1 O4 2.724476 1_654
Ca1 O10 2.855522 1_655
La0 O4 2.384654 1_545
La0 O0 2.424592 1_445
La0 O10 2.502220 1_545
La0 O1 2.558482 1_455
La0 O11 2.595109 1_555
La0 O5 2.678192 1_555
La0 O8 2.710118 1_456
La0 O6 2.884072 1_455
La1 O7 2.375008 1_555
La1 O3 2.382375 1_555
La1 O9 2.498183 1_555
La1 O2 2.622006 1_555
La1 O8 2.636026 1_555
La1 O11 2.714424 1_554
La1 O6 2.715372 1_555
La1 O5 2.877246 1_555
La1 O2 3.027565 1_565
Mg0 O7 2.045379 1_456
Mg0 O4 2.055453 1_555
Mg0 O11 2.070692 1_555
Mg0 O8 2.076312 1_456
Mg0 O3 2.086081 1_556
Mg0 O1 2.093339 1_455
O0 Ti0 1.978093 1_565
O0 Ti2 2.036165 1_556
O1 Ti1 1.915007 1_655
O2 Ti0 1.974901 1_555
O2 Ti2 2.035965 1_545
O3 Ti1 1.931523 1_555
O4 Ti2 1.940839 1_556
O5 Ti0 1.994788 1_555
O5 Ti1 2.022879 1_555
O6 Ti0 1.976083 1_555
O6 Ti1 2.047985 1_655
O7 Ti2 1.945552 1_555
O8 Ti2 1.945289 1_545
O9 Ti0 1.984600 1_565
O9 Ti1 2.006458 1_655
O10 Ti0 1.994658 1_565
O10 Ti1 2.005613 1_555
O11 Ti2 1.950433 1_546
