# generated using pymatgen
data_K2NdNb5O15
_symmetry_space_group_name_H-M   'P 1'
_cell_length_a   12.78511700
_cell_length_b   12.78511700
_cell_length_c   3.96739000
_cell_angle_alpha   90.00000000
_cell_angle_beta   90.00000000
_cell_angle_gamma   90.00000000
_symmetry_Int_Tables_number   1
_chemical_formula_structural   K2NdNb5O15
_chemical_formula_sum   'K4 Nd2 Nb10 O30'
_cell_volume   648.50646176
_cell_formula_units_Z   2
loop_
 _symmetry_equiv_pos_site_id
 _symmetry_equiv_pos_as_xyz
  1  'x, y, z'
loop_
 _atom_site_type_symbol
 _atom_site_label
 _atom_site_symmetry_multiplicity
 _atom_site_fract_x
 _atom_site_fract_y
 _atom_site_fract_z
 _atom_site_occupancy
  K  K0  1  0.66987800  0.16987800  0.50000000  1
  K  K1  1  0.33012200  0.83012200  0.50000000  1
  K  K2  1  0.16987800  0.33012200  0.50000000  1
  K  K3  1  0.83012200  0.66987800  0.50000000  1
  Nd  Nd0  1  0.00000000  0.00000000  0.50000000  1
  Nd  Nd1  1  0.50000000  0.50000000  0.50000000  1
  Nb  Nb0  1  0.50000000  0.00000000  0.00000000  1
  Nb  Nb1  1  0.00000000  0.50000000  0.00000000  1
  Nb  Nb2  1  0.21330700  0.07651300  0.00000000  1
  Nb  Nb3  1  0.78669300  0.92348700  0.00000000  1
  Nb  Nb4  1  0.07651300  0.78669300  0.00000000  1
  Nb  Nb5  1  0.71330700  0.42348700  0.00000000  1
  Nb  Nb6  1  0.92348700  0.21330700  0.00000000  1
  Nb  Nb7  1  0.28669300  0.57651300  0.00000000  1
  Nb  Nb8  1  0.57651300  0.71330700  0.00000000  1
  Nb  Nb9  1  0.42348700  0.28669300  0.00000000  1
  O  O0  1  0.18948100  0.07899000  0.50000000  1
  O  O1  1  0.81051900  0.92101000  0.50000000  1
  O  O2  1  0.07899000  0.81051900  0.50000000  1
  O  O3  1  0.68948100  0.42101000  0.50000000  1
  O  O4  1  0.92101000  0.18948100  0.50000000  1
  O  O5  1  0.31051900  0.57899000  0.50000000  1
  O  O6  1  0.57899000  0.68948100  0.50000000  1
  O  O7  1  0.42101000  0.31051900  0.50000000  1
  O  O8  1  0.21776100  0.71776100  0.00000000  1
  O  O9  1  0.78223900  0.28223900  0.00000000  1
  O  O10  1  0.71776100  0.78223900  0.00000000  1
  O  O11  1  0.28223900  0.21776100  0.00000000  1
  O  O12  1  0.50000000  0.00000000  0.50000000  1
  O  O13  1  0.00000000  0.50000000  0.50000000  1
  O  O14  1  0.05815100  0.13160600  0.00000000  1
  O  O15  1  0.94184900  0.86839400  0.00000000  1
  O  O16  1  0.13160600  0.94184900  0.00000000  1
  O  O17  1  0.55815100  0.36839400  0.00000000  1
  O  O18  1  0.86839400  0.05815100  0.00000000  1
  O  O19  1  0.44184900  0.63160600  0.00000000  1
  O  O20  1  0.63160600  0.55815100  0.00000000  1
  O  O21  1  0.36839400  0.44184900  0.00000000  1
  O  O22  1  0.34229800  0.99931600  0.00000000  1
  O  O23  1  0.65770200  0.00068400  0.00000000  1
  O  O24  1  0.99931600  0.65770200  0.00000000  1
  O  O25  1  0.84229800  0.50068400  0.00000000  1
  O  O26  1  0.00068400  0.34229800  0.00000000  1
  O  O27  1  0.15770200  0.49931600  0.00000000  1
  O  O28  1  0.49931600  0.84229800  0.00000000  1
  O  O29  1  0.50068400  0.15770200  0.00000000  1
loop_
_geom_bond_atom_site_label_1
_geom_bond_atom_site_label_2
_geom_bond_distance
_geom_bond_site_symmetry_2
K0 O9 2.839435 1_556
K0 O9 2.839435 1_555
K0 O29 2.939143 1_556
K0 O29 2.939143 1_555
K0 O23 2.939143 1_556
K0 O23 2.939143 1_555
K0 O12 3.071545 1_555
K0 O3 3.220519 1_555
K0 O4 3.220519 1_555
K1 O8 2.839435 1_556
K1 O8 2.839435 1_555
K1 O28 2.939143 1_555
K1 O28 2.939143 1_556
K1 O22 2.939143 1_555
K1 O22 2.939143 1_556
K1 O12 3.071545 1_565
K1 O5 3.220519 1_555
K1 O2 3.220519 1_555
K2 O11 2.839435 1_556
K2 O11 2.839435 1_555
K2 O27 2.939143 1_556
K2 O27 2.939143 1_555
K2 O26 2.939143 1_555
K2 O26 2.939143 1_556
K2 O13 3.071545 1_555
K2 O0 3.220519 1_555
K2 O7 3.220519 1_555
K3 O10 2.839435 1_555
K3 O10 2.839435 1_556
K3 O24 2.939143 1_556
K3 O24 2.939143 1_555
K3 O25 2.939143 1_555
K3 O25 2.939143 1_556
K3 O13 3.071545 1_655
K3 O1 3.220519 1_555
K3 O6 3.220519 1_555
Nd0 O1 2.624610 1_445
Nd0 O4 2.624610 1_455
Nd0 O0 2.624610 1_555
Nd0 O2 2.624610 1_545
Nd0 O14 2.705351 1_556
Nd0 O16 2.705351 1_545
Nd0 O16 2.705351 1_546
Nd0 O18 2.705351 1_456
Nd0 O18 2.705351 1_455
Nd0 O15 2.705351 1_446
Nd0 O14 2.705351 1_555
Nd0 O15 2.705351 1_445
Nd1 O5 2.624610 1_555
Nd1 O6 2.624610 1_555
Nd1 O7 2.624610 1_555
Nd1 O3 2.624610 1_555
Nd1 O17 2.705351 1_556
Nd1 O21 2.705351 1_555
Nd1 O20 2.705351 1_555
Nd1 O21 2.705351 1_556
Nd1 O19 2.705351 1_556
Nd1 O19 2.705351 1_555
Nd1 O17 2.705351 1_555
Nd1 O20 2.705351 1_556
Nb0 O12 1.983695 1_554
Nb0 O12 1.983695 1_555
Nb0 O29 2.016257 1_555
Nb0 O28 2.016257 1_545
Nb0 O23 2.016257 1_555
Nb0 O22 2.016257 1_545
Nb1 O13 1.983695 1_555
Nb1 O13 1.983695 1_554
Nb1 O26 2.016257 1_555
Nb1 O24 2.016257 1_455
Nb1 O27 2.016257 1_555
Nb1 O25 2.016257 1_455
Nb2 O22 1.921942 1_545
Nb2 O0 2.007197 1_555
Nb2 O0 2.007197 1_554
Nb2 O11 2.009445 1_555
Nb2 O16 2.013786 1_545
Nb2 O14 2.105031 1_555
Nb3 O23 1.921942 1_565
Nb3 O1 2.007197 1_555
Nb3 O1 2.007197 1_554
Nb3 O10 2.009445 1_555
Nb3 O18 2.013786 1_565
Nb3 O15 2.105031 1_555
Nb4 O24 1.921942 1_455
Nb4 O2 2.007197 1_554
Nb4 O2 2.007197 1_555
Nb4 O8 2.009445 1_555
Nb4 O15 2.013786 1_455
Nb4 O16 2.105031 1_555
Nb5 O25 1.921942 1_555
Nb5 O3 2.007197 1_554
Nb5 O3 2.007197 1_555
Nb5 O9 2.009445 1_555
Nb5 O20 2.013786 1_555
Nb5 O17 2.105031 1_555
Nb6 O26 1.921942 1_655
Nb6 O4 2.007197 1_554
Nb6 O4 2.007197 1_555
Nb6 O9 2.009445 1_555
Nb6 O14 2.013786 1_655
Nb6 O18 2.105031 1_555
Nb7 O27 1.921942 1_555
Nb7 O5 2.007197 1_554
Nb7 O5 2.007197 1_555
Nb7 O8 2.009445 1_555
Nb7 O21 2.013786 1_555
Nb7 O19 2.105031 1_555
Nb8 O28 1.921942 1_555
Nb8 O6 2.007197 1_555
Nb8 O6 2.007197 1_554
Nb8 O10 2.009445 1_555
Nb8 O19 2.013786 1_555
Nb8 O20 2.105031 1_555
Nb9 O29 1.921942 1_555
Nb9 O7 2.007197 1_555
Nb9 O7 2.007197 1_554
Nb9 O11 2.009445 1_555
Nb9 O17 2.013786 1_555
Nb9 O21 2.105031 1_555
