# generated using pymatgen
data_DyGa3Ru
_symmetry_space_group_name_H-M   'P 1'
_cell_length_a   6.37718383
_cell_length_b   6.37718383
_cell_length_c   6.37718383
_cell_angle_alpha   90.00000000
_cell_angle_beta   90.00000000
_cell_angle_gamma   90.00000000
_symmetry_Int_Tables_number   1
_chemical_formula_structural   DyGa3Ru
_chemical_formula_sum   'Dy3 Ga9 Ru3'
_cell_volume   259.35033224
_cell_formula_units_Z   3
loop_
 _symmetry_equiv_pos_site_id
 _symmetry_equiv_pos_as_xyz
  1  'x, y, z'
loop_
 _atom_site_type_symbol
 _atom_site_label
 _atom_site_symmetry_multiplicity
 _atom_site_fract_x
 _atom_site_fract_y
 _atom_site_fract_z
 _atom_site_occupancy
  Dy  Dy0  1  0.50000000  0.50000000  0.00000000  1
  Dy  Dy1  1  0.50000000  0.00000000  0.50000000  1
  Dy  Dy2  1  -0.00000000  0.50000000  0.50000000  1
  Ga  Ga0  1  0.50000000  0.50000000  0.50000000  1
  Ga  Ga1  1  0.20915076  0.20915076  0.79084924  1
  Ga  Ga2  1  0.20915076  0.79084924  0.20915076  1
  Ga  Ga3  1  0.79084924  0.20915076  0.20915076  1
  Ga  Ga4  1  0.79084924  0.79084924  0.79084924  1
  Ga  Ga5  1  0.79084924  0.79084924  0.20915076  1
  Ga  Ga6  1  0.79084924  0.20915076  0.79084924  1
  Ga  Ga7  1  0.20915076  0.79084924  0.79084924  1
  Ga  Ga8  1  0.20915076  0.20915076  0.20915076  1
  Ru  Ru0  1  -0.00000000  0.00000000  0.50000000  1
  Ru  Ru1  1  -0.00000000  0.50000000  0.00000000  1
  Ru  Ru2  1  0.50000000  0.00000000  0.00000000  1
loop_
_geom_bond_atom_site_label_1
_geom_bond_atom_site_label_2
_geom_bond_distance
_geom_bond_site_symmetry_2
Dy0 Ga6 2.942713 1_554
Dy0 Ga8 2.942713 1_555
Dy0 Ga5 2.942713 1_555
Dy0 Ga7 2.942713 1_554
Dy0 Ga4 2.942713 1_554
Dy0 Ga1 2.942713 1_554
Dy0 Ga3 2.942713 1_555
Dy0 Ga2 2.942713 1_555
Dy0 Ru2 3.188592 1_565
Dy0 Ru2 3.188592 1_555
Dy0 Ru1 3.188592 1_655
Dy0 Ga0 3.188592 1_555
Dy0 Ru1 3.188592 1_555
Dy0 Ga0 3.188592 1_554
Dy1 Ga4 2.942713 1_545
Dy1 Ga8 2.942713 1_555
Dy1 Ga5 2.942713 1_545
Dy1 Ga2 2.942713 1_545
Dy1 Ga3 2.942713 1_555
Dy1 Ga6 2.942713 1_555
Dy1 Ga7 2.942713 1_545
Dy1 Ga1 2.942713 1_555
Dy1 Ru2 3.188592 1_556
Dy1 Ru2 3.188592 1_555
Dy1 Ru0 3.188592 1_555
Dy1 Ga0 3.188592 1_555
Dy1 Ga0 3.188592 1_545
Dy1 Ru0 3.188592 1_655
Dy2 Ga8 2.942713 1_555
Dy2 Ga5 2.942713 1_455
Dy2 Ga2 2.942713 1_555
Dy2 Ga4 2.942713 1_455
Dy2 Ga7 2.942713 1_555
Dy2 Ga6 2.942713 1_455
Dy2 Ga1 2.942713 1_555
Dy2 Ga3 2.942713 1_455
Dy2 Ru1 3.188592 1_556
Dy2 Ru1 3.188592 1_555
Dy2 Ru0 3.188592 1_565
Dy2 Ru0 3.188592 1_555
Dy2 Ga0 3.188592 1_555
Dy2 Ga0 3.188592 1_455
Ga0 Ga1 3.212606 1_555
Ga0 Ga4 3.212606 1_555
Ga0 Ga8 3.212606 1_555
Ga0 Ga5 3.212606 1_555
Ga0 Ga3 3.212606 1_555
Ga0 Ga2 3.212606 1_555
Ga0 Ga6 3.212606 1_555
Ga0 Ga7 3.212606 1_555
Ga1 Ru2 2.645427 1_556
Ga1 Ru1 2.645427 1_556
Ga1 Ru0 2.645427 1_555
Ga1 Ga7 2.667586 1_545
Ga1 Ga6 2.667586 1_455
Ga1 Ga8 2.667586 1_556
Ga2 Ru1 2.645427 1_555
Ga2 Ru0 2.645427 1_565
Ga2 Ru2 2.645427 1_565
Ga2 Ga5 2.667586 1_455
Ga2 Ga7 2.667586 1_554
Ga2 Ga8 2.667586 1_565
Ga3 Ru1 2.645427 1_655
Ga3 Ru2 2.645427 1_555
Ga3 Ru0 2.645427 1_655
Ga3 Ga5 2.667586 1_545
Ga3 Ga8 2.667586 1_655
Ga3 Ga6 2.667586 1_554
Ga4 Ru1 2.645427 1_656
Ga4 Ru2 2.645427 1_566
Ga4 Ru0 2.645427 1_665
Ga4 Ga6 2.667586 1_565
Ga4 Ga5 2.667586 1_556
Ga4 Ga7 2.667586 1_655
Ga5 Ru1 2.645427 1_655
Ga5 Ru0 2.645427 1_665
Ga5 Ru2 2.645427 1_565
Ga6 Ru2 2.645427 1_556
Ga6 Ru1 2.645427 1_656
Ga6 Ru0 2.645427 1_655
Ga7 Ru1 2.645427 1_556
Ga7 Ru2 2.645427 1_566
Ga7 Ru0 2.645427 1_565
Ga8 Ru1 2.645427 1_555
Ga8 Ru2 2.645427 1_555
Ga8 Ru0 2.645427 1_555
