# generated using pymatgen
data_Ac3Np
_symmetry_space_group_name_H-M   'P 1'
_cell_length_a   7.78223147
_cell_length_b   7.78223147
_cell_length_c   6.17414800
_cell_angle_alpha   90.00000000
_cell_angle_beta   90.00000000
_cell_angle_gamma   119.99999551
_symmetry_Int_Tables_number   1
_chemical_formula_structural   Ac3Np
_chemical_formula_sum   'Ac6 Np2'
_cell_volume   323.82917644
_cell_formula_units_Z   2
loop_
 _symmetry_equiv_pos_site_id
 _symmetry_equiv_pos_as_xyz
  1  'x, y, z'
loop_
 _atom_site_type_symbol
 _atom_site_label
 _atom_site_symmetry_multiplicity
 _atom_site_fract_x
 _atom_site_fract_y
 _atom_site_fract_z
 _atom_site_occupancy
  Ac  Ac0  1  0.82918300  0.17081700  0.75000000  1
  Ac  Ac1  1  0.34163400  0.17081700  0.75000000  1
  Ac  Ac2  1  0.82918300  0.65836600  0.75000000  1
  Ac  Ac3  1  0.17081700  0.82918300  0.25000000  1
  Ac  Ac4  1  0.65836600  0.82918300  0.25000000  1
  Ac  Ac5  1  0.17081700  0.34163400  0.25000000  1
  Np  Np0  1  0.66666700  0.33333300  0.25000000  1
  Np  Np1  1  0.33333300  0.66666700  0.75000000  1
loop_
_geom_bond_atom_site_label_1
_geom_bond_atom_site_label_2
_geom_bond_distance
_geom_bond_site_symmetry_2
Ac0 Np0 3.785328 1_556
Ac0 Np0 3.785328 1_555
Ac0 Ac1 3.794219 1_555
Ac0 Ac2 3.794219 1_555
Ac0 Ac5 3.851161 1_656
Ac0 Ac4 3.851161 1_545
Ac0 Ac4 3.851161 1_546
Ac0 Ac5 3.851161 1_655
Ac0 Np1 3.891518 1_545
Ac0 Np1 3.891518 1_655
Ac0 Ac1 3.988012 1_655
Ac0 Ac2 3.988012 1_545
Ac1 Np0 3.785332 1_556
Ac1 Np0 3.785332 1_555
Ac1 Ac2 3.794219 1_555
Ac1 Ac5 3.851161 1_555
Ac1 Ac5 3.851161 1_556
Ac1 Ac3 3.851161 1_546
Ac1 Ac3 3.851161 1_545
Ac1 Np1 3.891514 1_545
Ac1 Np1 3.891522 1_555
Ac1 Ac2 3.988013 1_445
Ac2 Np0 3.785332 1_556
Ac2 Np0 3.785332 1_555
Ac2 Ac4 3.851161 1_555
Ac2 Ac4 3.851161 1_556
Ac2 Ac3 3.851161 1_655
Ac2 Ac3 3.851161 1_656
Ac2 Np1 3.891514 1_655
Ac2 Np1 3.891522 1_555
Ac3 Np1 3.785328 1_554
Ac3 Np1 3.785328 1_555
Ac3 Ac4 3.794219 1_555
Ac3 Ac5 3.794219 1_555
Ac3 Np0 3.891518 1_455
Ac3 Np0 3.891518 1_565
Ac3 Ac4 3.988012 1_455
Ac3 Ac5 3.988012 1_565
Ac4 Np1 3.785332 1_555
Ac4 Np1 3.785332 1_554
Ac4 Ac5 3.794219 1_555
Ac4 Np0 3.891514 1_565
Ac4 Np0 3.891522 1_555
Ac4 Ac5 3.988013 1_665
Ac5 Np1 3.785332 1_555
Ac5 Np1 3.785332 1_554
Ac5 Np0 3.891514 1_455
Ac5 Np0 3.891522 1_555
