# generated using pymatgen
data_Sr2ZnP2
_symmetry_space_group_name_H-M   'P 1'
_cell_length_a   4.24814433
_cell_length_b   4.24814433
_cell_length_c   8.40373800
_cell_angle_alpha   90.00000000
_cell_angle_beta   90.00000000
_cell_angle_gamma   120.00000509
_symmetry_Int_Tables_number   1
_chemical_formula_structural   Sr2ZnP2
_chemical_formula_sum   'Sr2 Zn1 P2'
_cell_volume   131.34139953
_cell_formula_units_Z   1
loop_
 _symmetry_equiv_pos_site_id
 _symmetry_equiv_pos_as_xyz
  1  'x, y, z'
loop_
 _atom_site_type_symbol
 _atom_site_label
 _atom_site_symmetry_multiplicity
 _atom_site_fract_x
 _atom_site_fract_y
 _atom_site_fract_z
 _atom_site_occupancy
  Sr  Sr0  1  0.00000000  0.00000000  0.70368500  1
  Sr  Sr1  1  0.00000000  0.00000000  0.29631500  1
  Zn  Zn0  1  0.66666700  0.33333300  0.00000000  1
  P  P0  1  0.66666700  0.33333300  0.50000000  1
  P  P1  1  0.33333300  0.66666700  0.00000000  1
loop_
_geom_bond_atom_site_label_1
_geom_bond_atom_site_label_2
_geom_bond_distance
_geom_bond_site_symmetry_2
P0 Sr1 2.990909 1_655
P0 Sr0 2.990909 1_655
P0 Sr0 2.990912 1_555
P0 Sr1 2.990912 1_555
P0 Sr0 2.990912 1_665
P0 Sr1 2.990912 1_665
P1 Zn0 2.452665 1_455
P1 Zn0 2.452665 1_565
P1 Zn0 2.452672 1_555
