# generated using pymatgen
data_Si4P4Ru
_symmetry_space_group_name_H-M   'P 1'
_cell_length_a   4.94923406
_cell_length_b   5.64607356
_cell_length_c   6.17584892
_cell_angle_alpha   85.53879648
_cell_angle_beta   68.26744556
_cell_angle_gamma   70.67927682
_symmetry_Int_Tables_number   1
_chemical_formula_structural   Si4P4Ru
_chemical_formula_sum   'Si4 P4 Ru1'
_cell_volume   151.08453488
_cell_formula_units_Z   1
loop_
 _symmetry_equiv_pos_site_id
 _symmetry_equiv_pos_as_xyz
  1  'x, y, z'
loop_
 _atom_site_type_symbol
 _atom_site_label
 _atom_site_symmetry_multiplicity
 _atom_site_fract_x
 _atom_site_fract_y
 _atom_site_fract_z
 _atom_site_occupancy
  Si  Si0  1  0.67010017  0.77515135  0.22655648  1
  Si  Si1  1  0.23688997  0.34377057  0.43246126  1
  Si  Si2  1  0.35987100  0.59440498  0.88025308  1
  Si  Si3  1  0.84394261  0.97223578  0.68908969  1
  P  P0  1  0.16053447  0.01624026  0.31931302  1
  P  P1  1  0.61985063  0.41151238  0.12327760  1
  P  P2  1  0.76736900  0.64244519  0.56337052  1
  P  P3  1  0.34202505  0.22789438  0.75796273  1
  Ru  Ru0  1  -0.00068190  -0.00185489  0.99921661  1
loop_
_geom_bond_atom_site_label_1
_geom_bond_atom_site_label_2
_geom_bond_distance
_geom_bond_site_symmetry_2
P0 Si1 2.215828 1_555
P0 Si3 2.291621 1_445
P0 Si0 2.306764 1_545
P0 Ru0 2.410091 1_554
P1 Si1 2.251820 1_555
P1 Si2 2.298780 1_554
P1 Si0 2.311516 1_555
P1 Ru0 2.423516 1_654
P2 Si3 2.263481 1_555
P2 Si1 2.263862 1_655
P2 Si2 2.308137 1_555
P2 Si0 2.319580 1_555
P3 Si1 2.254914 1_555
P3 Si2 2.296490 1_555
P3 Si3 2.318541 1_545
P3 Ru0 2.462366 1_555
Ru0 Si3 2.343042 1_445
Ru0 Si2 2.349124 1_545
Ru0 Si0 2.366357 1_446
