# generated using pymatgen
data_La4Co
_symmetry_space_group_name_H-M   'P 1'
_cell_length_a   7.80214280
_cell_length_b   7.80214280
_cell_length_c   7.80214280
_cell_angle_alpha   60.00000000
_cell_angle_beta   60.00000000
_cell_angle_gamma   60.00000000
_symmetry_Int_Tables_number   1
_chemical_formula_structural   La4Co
_chemical_formula_sum   'La8 Co2'
_cell_volume   335.83556509
_cell_formula_units_Z   2
loop_
 _symmetry_equiv_pos_site_id
 _symmetry_equiv_pos_as_xyz
  1  'x, y, z'
loop_
 _atom_site_type_symbol
 _atom_site_label
 _atom_site_symmetry_multiplicity
 _atom_site_fract_x
 _atom_site_fract_y
 _atom_site_fract_z
 _atom_site_occupancy
  La  La0  1  0.38352463  0.38352463  0.38352463  1
  La  La1  1  0.38352463  0.38352463  0.84942712  1
  La  La2  1  0.38352463  0.84942712  0.38352463  1
  La  La3  1  0.86647537  0.86647537  0.40057288  1
  La  La4  1  0.86647537  0.86647537  0.86647537  1
  La  La5  1  0.84942712  0.38352463  0.38352463  1
  La  La6  1  0.86647537  0.40057288  0.86647537  1
  La  La7  1  0.40057288  0.86647537  0.86647537  1
  Co  Co0  1  -0.00000000  0.00000000  0.00000000  1
  Co  Co1  1  0.25000000  0.25000000  0.25000000  1
loop_
_geom_bond_atom_site_label_1
_geom_bond_atom_site_label_2
_geom_bond_distance
_geom_bond_site_symmetry_2
Co0 La6 2.551819 1_454
Co0 La3 2.551819 1_445
Co0 La7 2.551819 1_544
Co0 La4 2.551825 1_444
Co1 La5 2.551819 1_455
Co1 La2 2.551819 1_545
Co1 La1 2.551819 1_554
Co1 La0 2.551825 1_555
