# generated using pymatgen
data_GaCuO2
_symmetry_space_group_name_H-M   'P 1'
_cell_length_a   5.37019800
_cell_length_b   5.51330200
_cell_length_c   6.65992600
_cell_angle_alpha   90.00000000
_cell_angle_beta   90.00000000
_cell_angle_gamma   90.00000000
_symmetry_Int_Tables_number   1
_chemical_formula_structural   GaCuO2
_chemical_formula_sum   'Ga4 Cu4 O8'
_cell_volume   197.18391471
_cell_formula_units_Z   4
loop_
 _symmetry_equiv_pos_site_id
 _symmetry_equiv_pos_as_xyz
  1  'x, y, z'
loop_
 _atom_site_type_symbol
 _atom_site_label
 _atom_site_symmetry_multiplicity
 _atom_site_fract_x
 _atom_site_fract_y
 _atom_site_fract_z
 _atom_site_occupancy
  Ga  Ga0  1  0.00237100  0.57973200  0.37631000  1
  Ga  Ga1  1  0.50237100  0.42026800  0.62369000  1
  Ga  Ga2  1  0.50237100  0.92026800  0.87631000  1
  Ga  Ga3  1  0.00237100  0.07973200  0.12369000  1
  Cu  Cu0  1  0.50410900  0.94422000  0.36753700  1
  Cu  Cu1  1  0.00410900  0.05578000  0.63246300  1
  Cu  Cu2  1  0.00410900  0.55578000  0.86753700  1
  Cu  Cu3  1  0.50410900  0.44422000  0.13246300  1
  O  O0  1  0.90460500  0.90735500  0.35623500  1
  O  O1  1  0.40460500  0.09264500  0.64376500  1
  O  O2  1  0.40460500  0.59264500  0.85623500  1
  O  O3  1  0.90460500  0.40735500  0.14376500  1
  O  O4  1  0.85171500  0.94231200  0.89675800  1
  O  O5  1  0.35171500  0.05768800  0.10324200  1
  O  O6  1  0.35171500  0.55768800  0.39675800  1
  O  O7  1  0.85171500  0.44231200  0.60324200  1
loop_
_geom_bond_atom_site_label_1
_geom_bond_atom_site_label_2
_geom_bond_distance
_geom_bond_site_symmetry_2
Ga0 O7 1.874236 1_455
Ga0 O6 1.884905 1_555
Ga0 O0 1.885786 1_455
Ga0 O3 1.891406 1_455
Ga1 O6 1.874236 1_555
Ga1 O7 1.884905 1_555
Ga1 O1 1.885786 1_555
Ga1 O2 1.891406 1_555
Ga2 O5 1.874236 1_566
Ga2 O4 1.884905 1_555
Ga2 O2 1.885786 1_555
Ga2 O1 1.891406 1_565
Ga3 O4 1.874236 1_444
Ga3 O5 1.884905 1_555
Ga3 O3 1.885786 1_455
Ga3 O0 1.891406 1_445
Cu0 O5 2.039451 1_565
Cu0 O1 2.083150 1_565
Cu0 O0 2.161636 1_555
Cu0 O6 2.291087 1_555
Cu1 O4 2.039451 1_445
Cu1 O0 2.083150 1_445
Cu1 O1 2.161636 1_555
Cu1 O7 2.291087 1_455
Cu2 O7 2.039451 1_455
Cu2 O3 2.083150 1_456
Cu2 O2 2.161636 1_555
Cu2 O4 2.291087 1_455
Cu3 O6 2.039451 1_555
Cu3 O2 2.083150 1_554
Cu3 O3 2.161636 1_555
Cu3 O5 2.291087 1_555
