# generated using pymatgen
data_Mg6CoMo
_symmetry_space_group_name_H-M   'P 1'
_cell_length_a   4.65911500
_cell_length_b   5.84274700
_cell_length_c   10.95202800
_cell_angle_alpha   90.00000000
_cell_angle_beta   90.00000000
_cell_angle_gamma   90.00000000
_symmetry_Int_Tables_number   1
_chemical_formula_structural   Mg6CoMo
_chemical_formula_sum   'Mg12 Co2 Mo2'
_cell_volume   298.13643685
_cell_formula_units_Z   2
loop_
 _symmetry_equiv_pos_site_id
 _symmetry_equiv_pos_as_xyz
  1  'x, y, z'
loop_
 _atom_site_type_symbol
 _atom_site_label
 _atom_site_symmetry_multiplicity
 _atom_site_fract_x
 _atom_site_fract_y
 _atom_site_fract_z
 _atom_site_occupancy
  Mg  Mg0  1  0.00000000  0.26210000  0.08276600  1
  Mg  Mg1  1  0.00000000  0.73790000  0.08276600  1
  Mg  Mg2  1  0.00000000  0.00000000  0.32590500  1
  Mg  Mg3  1  0.50000000  0.74306600  0.42269900  1
  Mg  Mg4  1  0.50000000  0.25693400  0.42269900  1
  Mg  Mg5  1  0.50000000  0.00000000  0.17115000  1
  Mg  Mg6  1  0.00000000  0.76210000  0.58276600  1
  Mg  Mg7  1  0.00000000  0.23790000  0.58276600  1
  Mg  Mg8  1  0.00000000  0.50000000  0.82590500  1
  Mg  Mg9  1  0.50000000  0.24306600  0.92269900  1
  Mg  Mg10  1  0.50000000  0.75693400  0.92269900  1
  Mg  Mg11  1  0.50000000  0.50000000  0.67115000  1
  Co  Co0  1  0.00000000  0.50000000  0.29785800  1
  Co  Co1  1  0.00000000  0.00000000  0.79785800  1
  Mo  Mo0  1  0.50000000  0.50000000  0.19415800  1
  Mo  Mo1  1  0.50000000  0.00000000  0.69415800  1
loop_
_geom_bond_atom_site_label_1
_geom_bond_atom_site_label_2
_geom_bond_distance
_geom_bond_site_symmetry_2
Mg0 Mg9 2.917605 1_554
Mg0 Mg9 2.917605 1_454
Mg0 Mo0 2.974430 1_555
Mg0 Mo0 2.974430 1_455
Mg1 Mg10 2.917605 1_454
Mg1 Mg10 2.917605 1_554
Mg1 Mo0 2.974430 1_555
Mg1 Mo0 2.974430 1_455
Mg2 Mg4 2.967193 1_555
Mg2 Mg3 2.967193 1_545
Mg2 Mg4 2.967193 1_455
Mg2 Mg3 2.967193 1_445
Mg3 Mg4 2.840346 1_555
Mg3 Mo0 2.877818 1_555
Mg3 Mg6 2.917605 1_655
Mg3 Mg6 2.917605 1_555
Mg3 Mg4 3.002401 1_565
Mg3 Mg5 3.137431 1_565
Mg3 Mo1 3.330539 1_565
Mg4 Mo0 2.877818 1_555
Mg4 Mg7 2.917605 1_555
Mg4 Mg7 2.917605 1_655
Mg4 Mg5 3.137431 1_555
Mg4 Mo1 3.330539 1_555
Mg5 Mo0 2.932221 1_545
Mg5 Mo0 2.932221 1_555
Mg5 Mg9 3.069359 1_554
Mg6 Mo1 2.974430 1_465
Mg6 Mo1 2.974430 1_565
Mg7 Mo1 2.974430 1_455
Mg7 Mo1 2.974430 1_555
Mg8 Mg9 2.967193 1_455
Mg8 Mg9 2.967193 1_555
Mg9 Mo1 2.877818 1_555
Mg9 Mo0 3.330539 1_556
Mg10 Mg9 2.840346 1_565
Mg10 Mo1 2.877818 1_565
Mg10 Mg8 2.967193 1_655
Mg10 Mg8 2.967193 1_555
Mg10 Mg9 3.002401 1_555
Mg10 Mg5 3.069359 1_566
Mg10 Mg11 3.137431 1_555
Mg10 Mo0 3.330539 1_556
Mg11 Mo1 2.932221 1_555
Mg11 Mo1 2.932221 1_565
Mg11 Mg4 3.069359 1_555
Mg11 Mg3 3.069359 1_555
Mg11 Mg9 3.137431 1_555
Co0 Mo0 2.591662 1_455
Co0 Mo0 2.591662 1_555
Co0 Mg0 2.735208 1_555
Co0 Mg1 2.735208 1_555
Co0 Mg2 2.937478 1_565
Co0 Mg2 2.937478 1_555
Co0 Mg3 3.051743 1_555
Co0 Mg4 3.051743 1_555
Co0 Mg3 3.051743 1_455
Co0 Mg4 3.051743 1_455
Co1 Mo1 2.591662 1_455
Co1 Mo1 2.591662 1_555
Co1 Mg6 2.735208 1_545
Co1 Mg7 2.735208 1_555
Co1 Mg8 2.937478 1_555
Co1 Mg8 2.937478 1_545
Co1 Mg9 3.051743 1_455
Co1 Mg9 3.051743 1_555
Co1 Mg10 3.051743 1_445
Co1 Mg10 3.051743 1_545
