# generated using pymatgen
data_Li4Co3O7
_symmetry_space_group_name_H-M   'P 1'
_cell_length_a   5.07191700
_cell_length_b   5.86733849
_cell_length_c   8.66449192
_cell_angle_alpha   91.32802654
_cell_angle_beta   95.19417500
_cell_angle_gamma   106.61957218
_symmetry_Int_Tables_number   1
_chemical_formula_structural   Li4Co3O7
_chemical_formula_sum   'Li8 Co6 O14'
_cell_volume   245.73209709
_cell_formula_units_Z   2
loop_
 _symmetry_equiv_pos_site_id
 _symmetry_equiv_pos_as_xyz
  1  'x, y, z'
loop_
 _atom_site_type_symbol
 _atom_site_label
 _atom_site_symmetry_multiplicity
 _atom_site_fract_x
 _atom_site_fract_y
 _atom_site_fract_z
 _atom_site_occupancy
  Li  Li0  1  0.50000000  0.50000000  0.00000000  1
  Li  Li1  1  0.07823100  0.64517300  0.14033000  1
  Li  Li2  1  0.92176900  0.35482700  0.85967000  1
  Li  Li3  1  0.35651700  0.21175800  0.71652500  1
  Li  Li4  1  0.64348300  0.78824200  0.28347500  1
  Li  Li5  1  0.21393900  0.92816600  0.42637700  1
  Li  Li6  1  0.78606100  0.07183400  0.57362300  1
  Li  Li7  1  0.50000000  0.00000000  0.00000000  1
  Co  Co0  1  0.92332000  0.85988300  0.86056400  1
  Co  Co1  1  0.07668000  0.14011700  0.13943600  1
  Co  Co2  1  0.64132300  0.28272300  0.27815700  1
  Co  Co3  1  0.21364100  0.43148900  0.42980200  1
  Co  Co4  1  0.78635900  0.56851100  0.57019800  1
  Co  Co5  1  0.35867700  0.71727700  0.72184300  1
  O  O0  1  0.81797100  0.84261800  0.05960300  1
  O  O1  1  0.33871600  0.98805900  0.21235200  1
  O  O2  1  0.19638800  0.69281900  0.91259500  1
  O  O3  1  0.65225100  0.55642200  0.78975400  1
  O  O4  1  0.94349100  0.11965400  0.34323100  1
  O  O5  1  0.51183600  0.26364000  0.49813800  1
  O  O6  1  0.07367700  0.39805900  0.63597600  1
  O  O7  1  0.18202900  0.15738200  0.94039700  1
  O  O8  1  0.80361200  0.30718100  0.08740500  1
  O  O9  1  0.66128400  0.01194100  0.78764800  1
  O  O10  1  0.05650900  0.88034600  0.65676900  1
  O  O11  1  0.34774900  0.44357800  0.21024600  1
  O  O12  1  0.92632300  0.60194100  0.36402400  1
  O  O13  1  0.48816400  0.73636000  0.50186200  1
loop_
_geom_bond_atom_site_label_1
_geom_bond_atom_site_label_2
_geom_bond_distance
_geom_bond_site_symmetry_2
Li0 O11 2.039807 1_555
Li0 O3 2.039807 1_554
Li0 O0 2.203466 1_555
Li0 O7 2.203466 1_554
Li0 O8 2.247186 1_555
Li0 O2 2.247186 1_554
Li1 O0 2.078195 1_455
Li1 O8 2.084513 1_455
Li1 O11 2.107809 1_555
Li1 O1 2.110553 1_555
Li1 O2 2.115345 1_554
Li1 O12 2.143813 1_455
Li2 O7 2.078195 1_655
Li2 O2 2.084513 1_655
Li2 O3 2.107809 1_555
Li2 O9 2.110553 1_555
Li2 O8 2.115345 1_556
Li2 O6 2.143813 1_655
Li3 O5 2.110243 1_555
Li3 O10 2.117228 1_545
Li3 O6 2.119179 1_555
Li3 O3 2.185181 1_555
Li3 O7 2.196717 1_555
Li3 O9 2.245281 1_555
Li4 O13 2.110243 1_555
Li4 O4 2.117228 1_565
Li4 O12 2.119179 1_555
Li4 O11 2.185181 1_555
Li4 O0 2.196717 1_555
Li4 O1 2.245281 1_555
Li5 O1 2.019492 1_555
Li5 O12 2.072607 1_455
Li5 O13 2.096069 1_555
Li5 O4 2.098335 1_465
Li5 O5 2.148434 1_565
Li5 O10 2.210797 1_555
Li6 O9 2.019492 1_555
Li6 O6 2.072607 1_655
Li6 O5 2.096069 1_555
Li6 O10 2.098335 1_645
Li6 O13 2.148434 1_545
Li6 O4 2.210797 1_555
Li7 O1 2.074870 1_545
Li7 O9 2.074870 1_554
Li7 O8 2.081148 1_555
Li7 O2 2.081148 1_544
Li7 O0 2.107948 1_545
Li7 O7 2.107948 1_554
Co0 O0 1.847671 1_556
Co0 O9 1.874513 1_565
Co0 O7 1.927846 1_665
Co0 O2 1.940683 1_655
Co0 O10 1.941168 1_655
Co0 O3 1.957848 1_555
Co1 O7 1.847671 1_554
Co1 O1 1.874513 1_545
Co1 O0 1.927846 1_445
Co1 O8 1.940683 1_455
Co1 O4 1.941168 1_455
Co1 O11 1.957848 1_555
Co2 O8 1.902500 1_555
Co2 O1 1.986892 1_545
Co2 O11 2.031014 1_555
Co2 O5 2.066702 1_555
Co2 O4 2.071098 1_555
Co2 O12 2.083977 1_555
Co3 O13 1.973408 1_555
Co3 O6 1.974795 1_555
Co3 O4 2.025801 1_455
Co3 O12 2.039198 1_455
Co3 O11 2.073530 1_555
Co3 O5 2.079613 1_555
Co4 O5 1.973408 1_555
Co4 O12 1.974795 1_555
Co4 O10 2.025801 1_655
Co4 O6 2.039198 1_655
Co4 O3 2.073530 1_555
Co4 O13 2.079613 1_555
Co5 O2 1.902500 1_555
Co5 O9 1.986892 1_565
Co5 O3 2.031014 1_555
Co5 O13 2.066702 1_555
Co5 O10 2.071098 1_555
Co5 O6 2.083977 1_555
