# generated using pymatgen
data_Y4Zr3O12
_symmetry_space_group_name_H-M   'P 1'
_cell_length_a   6.37679565
_cell_length_b   6.38799377
_cell_length_c   6.39025448
_cell_angle_alpha   98.82246541
_cell_angle_beta   99.27351472
_cell_angle_gamma   99.69475225
_symmetry_Int_Tables_number   1
_chemical_formula_structural   Y4Zr3O12
_chemical_formula_sum   'Y4 Zr3 O12'
_cell_volume   248.83805452
_cell_formula_units_Z   1
loop_
 _symmetry_equiv_pos_site_id
 _symmetry_equiv_pos_as_xyz
  1  'x, y, z'
loop_
 _atom_site_type_symbol
 _atom_site_label
 _atom_site_symmetry_multiplicity
 _atom_site_fract_x
 _atom_site_fract_y
 _atom_site_fract_z
 _atom_site_occupancy
  Y  Y0  1  0.30247600  0.60910093  0.13889255  1
  Y  Y1  1  0.86079509  0.68937676  0.39421911  1
  Y  Y2  1  0.39349429  0.86190182  0.69340750  1
  Y  Y3  1  0.69462352  0.39073540  0.86284069  1
  Zr  Zr0  1  0.00430048  0.00328029  0.00122063  1
  Zr  Zr1  1  0.14189693  0.30875074  0.60846444  1
  Zr  Zr2  1  0.61407077  0.13876910  0.30362739  1
  O  O0  1  0.94673168  0.09348893  0.31928966  1
  O  O1  1  0.32072248  0.96353769  0.09249611  1
  O  O2  1  0.07330732  0.31433030  0.92319630  1
  O  O3  1  0.05647700  0.92887636  0.68688785  1
  O  O4  1  0.68329748  0.05514033  0.94227091  1
  O  O5  1  0.92780062  0.68917564  0.05661685  1
  O  O6  1  0.40752952  0.55969685  0.81733944  1
  O  O7  1  0.82320068  0.39223021  0.56251245  1
  O  O8  1  0.57492887  0.83726712  0.41263917  1
  O  O9  1  0.57949995  0.41753695  0.18758614  1
  O  O10  1  0.17830642  0.56413523  0.43653321  1
  O  O11  1  0.41654288  0.18267034  0.55996060  1
loop_
_geom_bond_atom_site_label_1
_geom_bond_atom_site_label_2
_geom_bond_distance
_geom_bond_site_symmetry_2
O0 Zr0 2.133193 1_655
O0 Zr2 2.177326 1_555
O0 Zr1 2.181154 1_655
O0 Y1 2.679704 1_545
O1 Zr0 2.077173 1_565
O1 Zr2 2.142573 1_565
O1 Y0 2.314320 1_555
O1 Y2 2.667542 1_554
O2 Zr0 2.114349 1_556
O2 Zr1 2.122343 1_555
O2 Y0 2.282321 1_556
O2 Y3 2.524421 1_455
O3 Zr0 2.084982 1_566
O3 Y2 2.256024 1_555
O3 Y1 2.263330 1_455
O3 Zr1 2.540126 1_565
O4 Zr0 2.111845 1_656
O4 Y2 2.269430 1_545
O4 Y3 2.269822 1_555
O4 Zr2 2.417032 1_556
O5 Zr0 2.081632 1_665
O5 Y3 2.259753 1_554
O5 Y1 2.265661 1_555
O5 Y0 2.517089 1_655
O6 Y2 2.205967 1_555
O6 Zr1 2.218338 1_555
O6 Y0 2.255334 1_556
O6 Y3 2.278442 1_555
O7 Zr1 2.172875 1_655
O7 Y3 2.205834 1_555
O7 Zr2 2.208367 1_555
O7 Y1 2.317995 1_555
O8 Zr2 2.136048 1_565
O8 Y1 2.201004 1_555
O8 Y2 2.286082 1_555
O8 Y0 2.363991 1_555
O9 Zr2 2.062569 1_555
O9 Y3 2.301971 1_554
O9 Y0 2.320044 1_555
O9 Y1 2.336833 1_555
O10 Zr1 2.104023 1_555
O10 Y0 2.214368 1_555
O10 Y1 2.290870 1_455
O10 Y2 2.373341 1_555
O11 Zr1 2.094148 1_555
O11 Zr2 2.234149 1_555
O11 Y2 2.328613 1_545
O11 Y3 2.442961 1_555
