# generated using pymatgen
data_Ca3Fe4(SbO4)6
_symmetry_space_group_name_H-M   'P 1'
_cell_length_a   6.92532500
_cell_length_b   8.73243337
_cell_length_c   10.21285857
_cell_angle_alpha   107.40765329
_cell_angle_beta   95.51336835
_cell_angle_gamma   112.02556197
_symmetry_Int_Tables_number   1
_chemical_formula_structural   Ca3Fe4(SbO4)6
_chemical_formula_sum   'Ca3 Fe4 Sb6 O24'
_cell_volume   530.96401200
_cell_formula_units_Z   1
loop_
 _symmetry_equiv_pos_site_id
 _symmetry_equiv_pos_as_xyz
  1  'x, y, z'
loop_
 _atom_site_type_symbol
 _atom_site_label
 _atom_site_symmetry_multiplicity
 _atom_site_fract_x
 _atom_site_fract_y
 _atom_site_fract_z
 _atom_site_occupancy
  Ca  Ca0  1  0.50000000  0.00000000  0.50000000  1
  Ca  Ca1  1  0.43894000  0.46522500  0.81221600  1
  Ca  Ca2  1  0.56106000  0.53477500  0.18778400  1
  Fe  Fe0  1  0.23022000  0.63772800  0.59785400  1
  Fe  Fe1  1  0.76978000  0.36227200  0.40214600  1
  Fe  Fe2  1  0.96240000  0.81386600  0.00718500  1
  Fe  Fe3  1  0.03760000  0.18613400  0.99281500  1
  Sb  Sb0  1  0.88670500  0.38912100  0.75828900  1
  Sb  Sb1  1  0.11329500  0.61087900  0.24171100  1
  Sb  Sb2  1  0.79870800  0.77707100  0.66022400  1
  Sb  Sb3  1  0.44722800  0.07793300  0.88549800  1
  Sb  Sb4  1  0.20129200  0.22292900  0.33977600  1
  Sb  Sb5  1  0.55277200  0.92206700  0.11450200  1
  O  O0  1  0.77384800  0.92732700  0.56940600  1
  O  O1  1  0.22615200  0.07267300  0.43059400  1
  O  O2  1  0.59757500  0.24623900  0.79404800  1
  O  O3  1  0.40242500  0.75376100  0.20595200  1
  O  O4  1  0.72928700  0.28731300  0.56588100  1
  O  O5  1  0.27071300  0.71268700  0.43411900  1
  O  O6  1  0.91774200  0.62164800  0.56114800  1
  O  O7  1  0.08225800  0.37835200  0.43885200  1
  O  O8  1  0.35897100  0.25599600  0.98503900  1
  O  O9  1  0.64102900  0.74400400  0.01496100  1
  O  O10  1  0.83102400  0.46790900  0.25901100  1
  O  O11  1  0.16897600  0.53209100  0.74098900  1
  O  O12  1  0.51257900  0.62521800  0.65811200  1
  O  O13  1  0.03936000  0.07006500  0.14307800  1
  O  O14  1  0.96064000  0.92993500  0.85692200  1
  O  O15  1  0.67404000  0.10255600  0.29668600  1
  O  O16  1  0.32596000  0.89744400  0.70331400  1
  O  O17  1  0.96725500  0.71088900  0.14737400  1
  O  O18  1  0.03274500  0.28911100  0.85262600  1
  O  O19  1  0.82526000  0.59030300  0.84347000  1
  O  O20  1  0.17474000  0.40969700  0.15653000  1
  O  O21  1  0.69990100  0.08829600  0.00183300  1
  O  O22  1  0.30009900  0.91170400  0.99816700  1
  O  O23  1  0.48742100  0.37478200  0.34188800  1
loop_
_geom_bond_atom_site_label_1
_geom_bond_atom_site_label_2
_geom_bond_distance
_geom_bond_site_symmetry_2
Ca0 O5 2.250652 1_545
Ca0 O4 2.250652 1_555
Ca0 O0 2.327096 1_545
Ca0 O1 2.327096 1_555
Ca0 O15 2.711125 1_555
Ca0 O16 2.711125 1_545
Ca0 O2 2.958925 1_555
Ca0 O3 2.958925 1_545
Ca1 O11 2.275315 1_555
Ca1 O12 2.371604 1_555
Ca1 O19 2.426551 1_555
Ca1 O9 2.458491 1_556
Ca1 O2 2.510128 1_555
Ca1 O18 2.794040 1_555
Ca1 O8 2.849321 1_555
Ca2 O10 2.275315 1_555
Ca2 O23 2.371604 1_555
Ca2 O20 2.426551 1_555
Ca2 O8 2.458491 1_554
Ca2 O3 2.510128 1_555
Ca2 O17 2.794040 1_555
Ca2 O9 2.849321 1_555
Fe0 O11 1.949430 1_555
Fe0 O5 1.977556 1_555
Fe0 O16 2.004152 1_555
Fe0 O12 2.045377 1_555
Fe0 O6 2.104259 1_455
Fe0 O7 2.134448 1_555
Fe1 O10 1.949430 1_555
Fe1 O4 1.977556 1_555
Fe1 O15 2.004152 1_555
Fe1 O23 2.045377 1_555
Fe1 O7 2.104259 1_655
Fe1 O6 2.134448 1_555
Fe2 O17 1.908764 1_555
Fe2 O19 1.964685 1_554
Fe2 O14 2.078184 1_554
Fe2 O13 2.078740 1_665
Fe2 O9 2.091973 1_555
Fe2 O22 2.190354 1_654
Fe3 O18 1.908764 1_555
Fe3 O20 1.964685 1_556
Fe3 O13 2.078184 1_556
Fe3 O14 2.078740 1_445
Fe3 O8 2.091973 1_555
Fe3 O21 2.190354 1_456
O0 Sb2 1.865058 1_555
O1 Sb4 1.865058 1_555
O2 Sb3 1.994213 1_555
O2 Sb0 2.058823 1_555
O3 Sb5 1.994213 1_555
O3 Sb1 2.058823 1_555
O4 Sb0 1.912160 1_555
O5 Sb1 1.912160 1_555
O6 Sb2 1.929556 1_555
O7 Sb4 1.929556 1_555
O8 Sb3 1.926459 1_555
O9 Sb5 1.926459 1_555
O10 Sb1 1.943983 1_655
O11 Sb0 1.943983 1_455
O12 Sb2 1.920732 1_555
O13 Sb4 1.978591 1_555
O14 Sb2 1.978591 1_555
O15 Sb5 1.898322 1_545
O16 Sb3 1.898322 1_565
O17 Sb1 1.921591 1_655
O18 Sb0 1.921591 1_455
O19 Sb0 1.934331 1_555
O20 Sb1 1.934331 1_555
O21 Sb3 1.974628 1_554
O21 Sb5 2.141187 1_545
O22 Sb5 1.974628 1_556
O22 Sb3 2.141187 1_565
O23 Sb4 1.920732 1_555
