# generated using pymatgen
data_Ca4Al6TeO12
_symmetry_space_group_name_H-M   'P 1'
_cell_length_a   7.99788663
_cell_length_b   7.99788663
_cell_length_c   7.99788663
_cell_angle_alpha   109.47122063
_cell_angle_beta   109.47122063
_cell_angle_gamma   109.47122063
_symmetry_Int_Tables_number   1
_chemical_formula_structural   Ca4Al6TeO12
_chemical_formula_sum   'Ca4 Al6 Te1 O12'
_cell_volume   393.82550698
_cell_formula_units_Z   1
loop_
 _symmetry_equiv_pos_site_id
 _symmetry_equiv_pos_as_xyz
  1  'x, y, z'
loop_
 _atom_site_type_symbol
 _atom_site_label
 _atom_site_symmetry_multiplicity
 _atom_site_fract_x
 _atom_site_fract_y
 _atom_site_fract_z
 _atom_site_occupancy
  Ca  Ca0  1  0.00000000  0.00000000  0.39036900  1
  Ca  Ca1  1  0.60963100  0.60963100  0.60963100  1
  Ca  Ca2  1  0.39036900  0.00000000  0.00000000  1
  Ca  Ca3  1  0.00000000  0.39036900  0.00000000  1
  Al  Al0  1  0.25000000  0.75000000  0.50000000  1
  Al  Al1  1  0.75000000  0.25000000  0.50000000  1
  Al  Al2  1  0.50000000  0.25000000  0.75000000  1
  Al  Al3  1  0.50000000  0.75000000  0.25000000  1
  Al  Al4  1  0.25000000  0.50000000  0.75000000  1
  Al  Al5  1  0.75000000  0.50000000  0.25000000  1
  Te  Te0  1  0.00000000  0.00000000  0.00000000  1
  O  O0  1  0.58507800  0.28566900  0.00000000  1
  O  O1  1  0.41492200  0.41492200  0.70059100  1
  O  O2  1  0.00000000  0.28566900  0.58507800  1
  O  O3  1  0.28566900  0.00000000  0.58507800  1
  O  O4  1  0.70059100  0.41492200  0.41492200  1
  O  O5  1  0.00000000  0.58507800  0.28566900  1
  O  O6  1  0.58507800  0.00000000  0.28566900  1
  O  O7  1  0.41492200  0.70059100  0.41492200  1
  O  O8  1  0.28566900  0.58507800  0.00000000  1
  O  O9  1  0.71433100  0.29940900  0.71433100  1
  O  O10  1  0.71433100  0.71433100  0.29940900  1
  O  O11  1  0.29940900  0.71433100  0.71433100  1
loop_
_geom_bond_atom_site_label_1
_geom_bond_atom_site_label_2
_geom_bond_distance
_geom_bond_site_symmetry_2
Ca0 O10 2.296338 1_445
Ca0 O3 2.296338 1_555
Ca0 O2 2.296338 1_555
Ca0 Te0 3.122127 1_555
Ca1 O4 2.296338 1_555
Ca1 O1 2.296338 1_555
Ca1 O7 2.296338 1_555
Ca1 Te0 3.122127 1_666
Ca2 O11 2.296338 1_544
Ca2 O6 2.296338 1_555
Ca2 O0 2.296338 1_555
Ca2 Te0 3.122127 1_555
Ca3 O9 2.296338 1_454
Ca3 O8 2.296338 1_555
Ca3 O5 2.296338 1_555
Ca3 Te0 3.122127 1_555
Al0 O5 1.767930 1_555
Al0 O3 1.767930 1_565
Al0 O7 1.767930 1_555
Al0 O11 1.767930 1_555
Al1 O6 1.767930 1_555
Al1 O9 1.767930 1_555
Al1 O4 1.767930 1_555
Al1 O2 1.767930 1_655
Al2 O0 1.767930 1_556
Al2 O3 1.767930 1_555
Al2 O1 1.767930 1_555
Al2 O9 1.767930 1_555
Al3 O6 1.767930 1_565
Al3 O8 1.767930 1_555
Al3 O10 1.767930 1_555
Al3 O7 1.767930 1_555
Al4 O8 1.767930 1_556
Al4 O2 1.767930 1_555
Al4 O11 1.767930 1_555
Al4 O1 1.767930 1_555
Al5 O0 1.767930 1_555
Al5 O5 1.767930 1_655
Al5 O10 1.767930 1_555
Al5 O4 1.767930 1_555
