# generated using pymatgen
data_UMo
_symmetry_space_group_name_H-M   'P 1'
_cell_length_a   5.15143410
_cell_length_b   3.02008000
_cell_length_c   9.98756025
_cell_angle_alpha   90.00000000
_cell_angle_beta   90.05365595
_cell_angle_gamma   90.00000000
_symmetry_Int_Tables_number   1
_chemical_formula_structural   UMo
_chemical_formula_sum   'U4 Mo4'
_cell_volume   155.38382844
_cell_formula_units_Z   4
loop_
 _symmetry_equiv_pos_site_id
 _symmetry_equiv_pos_as_xyz
  1  'x, y, z'
loop_
 _atom_site_type_symbol
 _atom_site_label
 _atom_site_symmetry_multiplicity
 _atom_site_fract_x
 _atom_site_fract_y
 _atom_site_fract_z
 _atom_site_occupancy
  U  U0  1  0.25016600  0.42310200  0.34150100  1
  U  U1  1  0.74983400  0.92310200  0.15849900  1
  U  U2  1  0.74983400  0.57689800  0.65849900  1
  U  U3  1  0.25016600  0.07689800  0.84150100  1
  Mo  Mo0  1  0.75018400  0.39560500  0.90295100  1
  Mo  Mo1  1  0.24981600  0.89560500  0.59704900  1
  Mo  Mo2  1  0.24981600  0.60439500  0.09704900  1
  Mo  Mo3  1  0.75018400  0.10439500  0.40295100  1
loop_
_geom_bond_atom_site_label_1
_geom_bond_atom_site_label_2
_geom_bond_distance
_geom_bond_site_symmetry_2
Mo0 U2 2.502118 1_555
Mo0 U3 2.816905 1_555
Mo0 U3 2.817786 1_655
Mo0 U1 2.924136 1_546
Mo0 U1 3.008682 1_556
Mo1 U3 2.502118 1_565
Mo1 U2 2.816905 1_555
Mo1 U2 2.817786 1_455
Mo1 U0 2.924136 1_555
Mo1 U0 3.008682 1_565
Mo2 U0 2.502118 1_555
Mo2 U1 2.816905 1_555
Mo2 U1 2.817786 1_455
Mo2 U3 2.924136 1_564
Mo2 U3 3.008682 1_554
Mo3 U1 2.502118 1_545
Mo3 U0 2.816905 1_555
Mo3 U0 2.817786 1_655
Mo3 U2 2.924136 1_555
Mo3 U2 3.008682 1_545
