# generated using pymatgen
data_La(ClO)3
_symmetry_space_group_name_H-M   'P 1'
_cell_length_a   4.94758100
_cell_length_b   9.07784300
_cell_length_c   15.11329800
_cell_angle_alpha   90.00000000
_cell_angle_beta   90.00000000
_cell_angle_gamma   90.00000000
_symmetry_Int_Tables_number   1
_chemical_formula_structural   La(ClO)3
_chemical_formula_sum   'La4 Cl12 O12'
_cell_volume   678.78904748
_cell_formula_units_Z   4
loop_
 _symmetry_equiv_pos_site_id
 _symmetry_equiv_pos_as_xyz
  1  'x, y, z'
loop_
 _atom_site_type_symbol
 _atom_site_label
 _atom_site_symmetry_multiplicity
 _atom_site_fract_x
 _atom_site_fract_y
 _atom_site_fract_z
 _atom_site_occupancy
  La  La0  1  0.59121900  0.75000000  0.01075800  1
  La  La1  1  0.40878100  0.25000000  0.98924200  1
  La  La2  1  0.09121900  0.25000000  0.48924200  1
  La  La3  1  0.90878100  0.75000000  0.51075800  1
  Cl  Cl0  1  0.76167500  0.03507200  0.58423700  1
  Cl  Cl1  1  0.23832500  0.96492800  0.41576300  1
  Cl  Cl2  1  0.26167500  0.96492800  0.91576300  1
  Cl  Cl3  1  0.23832500  0.53507200  0.41576300  1
  Cl  Cl4  1  0.73832500  0.03507200  0.08423700  1
  Cl  Cl5  1  0.76167500  0.46492800  0.58423700  1
  Cl  Cl6  1  0.73832500  0.46492800  0.08423700  1
  Cl  Cl7  1  0.26167500  0.53507200  0.91576300  1
  Cl  Cl8  1  0.17561400  0.75000000  0.66774100  1
  Cl  Cl9  1  0.82438600  0.25000000  0.33225900  1
  Cl  Cl10  1  0.67561400  0.25000000  0.83225900  1
  Cl  Cl11  1  0.32438600  0.75000000  0.16774100  1
  O  O0  1  0.75367400  0.68184300  0.81444300  1
  O  O1  1  0.24632600  0.31815700  0.18555700  1
  O  O2  1  0.25367400  0.31815700  0.68555700  1
  O  O3  1  0.24632600  0.18184300  0.18555700  1
  O  O4  1  0.74632600  0.68184300  0.31444300  1
  O  O5  1  0.75367400  0.81815700  0.81444300  1
  O  O6  1  0.74632600  0.81815700  0.31444300  1
  O  O7  1  0.25367400  0.18184300  0.68555700  1
  O  O8  1  0.39521500  0.75000000  0.51363400  1
  O  O9  1  0.60478500  0.25000000  0.48636600  1
  O  O10  1  0.89521500  0.25000000  0.98636600  1
  O  O11  1  0.10478500  0.75000000  0.01363400  1
loop_
_geom_bond_atom_site_label_1
_geom_bond_atom_site_label_2
_geom_bond_distance
_geom_bond_site_symmetry_2
La0 O11 2.407064 1_555
La0 O11 2.541281 1_655
La0 O0 3.135560 1_554
La0 O5 3.135560 1_554
La1 O10 2.407064 1_555
La1 O10 2.541281 1_455
La1 O3 3.135560 1_556
La1 O1 3.135560 1_556
La2 O9 2.407064 1_455
La2 O9 2.541281 1_555
La2 O7 3.135560 1_555
La2 O2 3.135560 1_555
La3 O8 2.407064 1_655
La3 O8 2.541281 1_555
La3 O4 3.135560 1_555
La3 O6 3.135560 1_555
Cl0 La3 2.908584 1_545
Cl0 La2 2.919979 1_655
Cl1 La2 2.908584 1_565
Cl1 La3 2.919979 1_455
Cl2 La1 2.908584 1_565
Cl2 La0 2.919979 1_556
Cl3 La2 2.908584 1_555
Cl3 La3 2.919979 1_455
Cl4 La0 2.908584 1_545
Cl4 La1 2.919979 1_554
Cl5 La3 2.908584 1_555
Cl5 La2 2.919979 1_655
Cl6 La0 2.908584 1_555
Cl6 La1 2.919979 1_554
Cl7 La1 2.908584 1_555
Cl7 La0 2.919979 1_556
Cl8 La3 2.715101 1_455
Cl9 La2 2.715101 1_655
Cl10 La1 2.715101 1_555
Cl11 La0 2.715101 1_555
O0 O5 1.237437 1_555
O1 O3 1.237437 1_555
O2 O7 1.237437 1_555
O4 O6 1.237437 1_555
