# generated using pymatgen
data_KHfMg30O31
_symmetry_space_group_name_H-M   'P 1'
_cell_length_a   8.61416000
_cell_length_b   8.64460400
_cell_length_c   8.64615600
_cell_angle_alpha   90.00000000
_cell_angle_beta   90.00000000
_cell_angle_gamma   90.00000000
_symmetry_Int_Tables_number   1
_chemical_formula_structural   KHfMg30O31
_chemical_formula_sum   'K1 Hf1 Mg30 O31'
_cell_volume   643.84466992
_cell_formula_units_Z   1
loop_
 _symmetry_equiv_pos_site_id
 _symmetry_equiv_pos_as_xyz
  1  'x, y, z'
loop_
 _atom_site_type_symbol
 _atom_site_label
 _atom_site_symmetry_multiplicity
 _atom_site_fract_x
 _atom_site_fract_y
 _atom_site_fract_z
 _atom_site_occupancy
  K  K0  1  0.00026200  0.00000000  0.00000000  1
  Hf  Hf0  1  0.01720200  0.00000000  0.50000000  1
  Mg  Mg0  1  0.99955000  0.50000000  0.00000000  1
  Mg  Mg1  1  0.99723900  0.50000000  0.50000000  1
  Mg  Mg2  1  0.50088900  0.00000000  0.00000000  1
  Mg  Mg3  1  0.50062500  0.00000000  0.50000000  1
  Mg  Mg4  1  0.50032300  0.50000000  0.00000000  1
  Mg  Mg5  1  0.50092200  0.50000000  0.50000000  1
  Mg  Mg6  1  0.99962800  0.25890900  0.24546600  1
  Mg  Mg7  1  0.99962800  0.25890900  0.75453400  1
  Mg  Mg8  1  0.99962800  0.74109100  0.24546600  1
  Mg  Mg9  1  0.99962800  0.74109100  0.75453400  1
  Mg  Mg10  1  0.50000500  0.25166000  0.24907800  1
  Mg  Mg11  1  0.50000500  0.25166000  0.75092200  1
  Mg  Mg12  1  0.50000500  0.74834000  0.24907800  1
  Mg  Mg13  1  0.50000500  0.74834000  0.75092200  1
  Mg  Mg14  1  0.25954300  0.00000000  0.24276500  1
  Mg  Mg15  1  0.25954300  0.00000000  0.75723500  1
  Mg  Mg16  1  0.25136500  0.50000000  0.24767900  1
  Mg  Mg17  1  0.25136500  0.50000000  0.75232100  1
  Mg  Mg18  1  0.74324900  0.00000000  0.24755700  1
  Mg  Mg19  1  0.74324900  0.00000000  0.75244300  1
  Mg  Mg20  1  0.74827000  0.50000000  0.24918500  1
  Mg  Mg21  1  0.74827000  0.50000000  0.75081500  1
  Mg  Mg22  1  0.25267500  0.25404700  0.00000000  1
  Mg  Mg23  1  0.25288000  0.25684700  0.50000000  1
  Mg  Mg24  1  0.25267500  0.74595300  0.00000000  1
  Mg  Mg25  1  0.25288000  0.74315300  0.50000000  1
  Mg  Mg26  1  0.74736700  0.25218900  0.00000000  1
  Mg  Mg27  1  0.74700000  0.25223500  0.50000000  1
  Mg  Mg28  1  0.74736700  0.74781100  0.00000000  1
  Mg  Mg29  1  0.74700000  0.74776500  0.50000000  1
  O  O0  1  0.27471600  0.00000000  0.00000000  1
  O  O1  1  0.25457800  0.50000000  0.00000000  1
  O  O2  1  0.25021300  0.50000000  0.50000000  1
  O  O3  1  0.72628800  0.00000000  0.00000000  1
  O  O4  1  0.74881300  0.00000000  0.50000000  1
  O  O5  1  0.74529000  0.50000000  0.00000000  1
  O  O6  1  0.74731800  0.50000000  0.50000000  1
  O  O7  1  0.24960300  0.25242400  0.24668300  1
  O  O8  1  0.24960300  0.25242400  0.75331700  1
  O  O9  1  0.24960300  0.74757600  0.24668300  1
  O  O10  1  0.24960300  0.74757600  0.75331700  1
  O  O11  1  0.75022800  0.24923400  0.24955500  1
  O  O12  1  0.75022800  0.24923400  0.75044500  1
  O  O13  1  0.75022800  0.75076600  0.24955500  1
  O  O14  1  0.75022800  0.75076600  0.75044500  1
  O  O15  1  0.99839200  0.00000000  0.26967600  1
  O  O16  1  0.99839200  0.00000000  0.73032400  1
  O  O17  1  0.99934500  0.50000000  0.25530300  1
  O  O18  1  0.99934500  0.50000000  0.74469700  1
  O  O19  1  0.50007600  0.00000000  0.25592400  1
  O  O20  1  0.50007600  0.00000000  0.74407600  1
  O  O21  1  0.50029100  0.50000000  0.25200200  1
  O  O22  1  0.50029100  0.50000000  0.74799800  1
  O  O23  1  0.99924900  0.27417700  0.00000000  1
  O  O24  1  0.99329700  0.25619700  0.50000000  1
  O  O25  1  0.99924900  0.72582300  0.00000000  1
  O  O26  1  0.99329700  0.74380300  0.50000000  1
  O  O27  1  0.50042500  0.25446800  0.00000000  1
  O  O28  1  0.50053200  0.25153700  0.50000000  1
  O  O29  1  0.50042500  0.74553200  0.00000000  1
  O  O30  1  0.50053200  0.74846300  0.50000000  1
loop_
_geom_bond_atom_site_label_1
_geom_bond_atom_site_label_2
_geom_bond_distance
_geom_bond_site_symmetry_2
K0 O15 2.331716 1_455
K0 O16 2.331716 1_454
K0 O3 2.360056 1_455
K0 O0 2.364191 1_555
K0 O25 2.370168 1_445
K0 O23 2.370168 1_455
Hf0 O16 1.997998 1_455
Hf0 O15 1.997998 1_455
Hf0 O24 2.224274 1_455
Hf0 O26 2.224274 1_445
Hf0 O4 2.311946 1_455
Mg0 O25 1.952152 1_555
Mg0 O23 1.952152 1_555
Mg0 O5 2.190236 1_555
Mg0 O1 2.196852 1_655
Mg0 O17 2.207390 1_555
Mg0 O18 2.207390 1_554
Mg1 O26 2.107854 1_555
Mg1 O24 2.107854 1_555
Mg1 O18 2.115766 1_555
Mg1 O17 2.115766 1_555
Mg1 O6 2.152859 1_555
Mg1 O2 2.179159 1_655
Mg2 O3 1.941623 1_555
Mg2 O0 1.948290 1_555
Mg2 O27 2.199779 1_555
Mg2 O29 2.199779 1_545
Mg2 O19 2.212770 1_555
Mg2 O20 2.212770 1_554
Mg3 O20 2.110324 1_555
Mg3 O19 2.110324 1_555
Mg3 O4 2.137931 1_555
Mg3 O28 2.174438 1_555
Mg3 O30 2.174438 1_545
Mg4 O5 2.110185 1_555
Mg4 O1 2.116887 1_555
Mg4 O29 2.122527 1_555
Mg4 O27 2.122527 1_555
Mg4 O21 2.178849 1_555
Mg4 O22 2.178849 1_554
Mg5 O6 2.122495 1_555
Mg5 O22 2.144236 1_555
Mg5 O21 2.144236 1_555
Mg5 O30 2.147867 1_555
Mg5 O28 2.147867 1_555
Mg5 O2 2.159647 1_555
Mg6 O17 2.085872 1_555
Mg6 O23 2.126440 1_555
Mg6 O11 2.150290 1_555
Mg6 O7 2.154080 1_655
Mg6 O24 2.201541 1_555
Mg6 O15 2.247958 1_555
Mg7 O18 2.085872 1_555
Mg7 O23 2.126440 1_556
Mg7 O12 2.150290 1_555
Mg7 O8 2.154080 1_655
Mg7 O24 2.201541 1_555
Mg7 O16 2.247958 1_555
Mg8 O17 2.085872 1_555
Mg8 O25 2.126440 1_555
Mg8 O13 2.150290 1_555
Mg8 O9 2.154080 1_655
Mg8 O26 2.201541 1_555
Mg8 O15 2.247958 1_565
Mg9 O18 2.085872 1_555
Mg9 O25 2.126440 1_556
Mg9 O14 2.150290 1_555
Mg9 O10 2.154080 1_655
Mg9 O26 2.201541 1_555
Mg9 O16 2.247958 1_565
Mg10 O21 2.146951 1_555
Mg10 O27 2.153707 1_555
Mg10 O11 2.155567 1_555
Mg10 O7 2.157112 1_555
Mg10 O28 2.169516 1_555
Mg10 O19 2.176306 1_555
Mg11 O22 2.146951 1_555
Mg11 O27 2.153707 1_556
Mg11 O12 2.155567 1_555
Mg11 O8 2.157112 1_555
Mg11 O28 2.169516 1_555
Mg11 O20 2.176306 1_555
Mg12 O21 2.146951 1_555
Mg12 O29 2.153707 1_555
Mg12 O13 2.155567 1_555
Mg12 O9 2.157112 1_555
Mg12 O30 2.169516 1_555
Mg12 O19 2.176306 1_565
Mg13 O22 2.146951 1_555
Mg13 O29 2.153707 1_556
Mg13 O14 2.155567 1_555
Mg13 O10 2.157112 1_555
Mg13 O30 2.169516 1_555
Mg13 O20 2.176306 1_565
Mg14 O19 2.075111 1_555
Mg14 O0 2.103050 1_555
Mg14 O7 2.184048 1_555
Mg14 O9 2.184048 1_545
Mg14 O15 2.261597 1_455
Mg15 O20 2.075111 1_555
Mg15 O0 2.103050 1_556
Mg15 O8 2.184048 1_555
Mg15 O10 2.184048 1_545
Mg15 O16 2.261597 1_455
Mg16 O7 2.140268 1_555
Mg16 O9 2.140268 1_555
Mg16 O1 2.141650 1_555
Mg16 O21 2.144614 1_555
Mg16 O17 2.171941 1_455
Mg16 O2 2.181629 1_555
Mg17 O8 2.140268 1_555
Mg17 O10 2.140268 1_555
Mg17 O1 2.141650 1_556
Mg17 O22 2.144614 1_555
Mg17 O18 2.171941 1_455
Mg17 O2 2.181629 1_555
Mg18 O19 2.095980 1_555
Mg18 O3 2.145397 1_555
Mg18 O11 2.155437 1_555
Mg18 O13 2.155437 1_545
Mg18 O4 2.183188 1_555
Mg18 O15 2.206147 1_555
Mg19 O20 2.095980 1_555
Mg19 O3 2.145397 1_556
Mg19 O12 2.155437 1_555
Mg19 O14 2.155437 1_545
Mg19 O4 2.183188 1_555
Mg19 O16 2.206147 1_555
Mg20 O21 2.136270 1_555
Mg20 O5 2.154645 1_555
Mg20 O17 2.163447 1_555
Mg20 O13 2.167841 1_555
Mg20 O11 2.167841 1_555
Mg20 O6 2.168601 1_555
Mg21 O22 2.136270 1_555
Mg21 O5 2.154645 1_556
Mg21 O18 2.163447 1_555
Mg21 O14 2.167841 1_555
Mg21 O12 2.167841 1_555
Mg21 O6 2.168601 1_555
Mg22 O1 2.126229 1_555
Mg22 O7 2.133070 1_555
Mg22 O8 2.133070 1_554
Mg22 O27 2.134161 1_555
Mg22 O23 2.189977 1_455
Mg22 O0 2.204328 1_555
Mg23 O2 2.102087 1_555
Mg23 O28 2.133808 1_555
Mg23 O8 2.190734 1_555
Mg23 O7 2.190734 1_555
Mg23 O24 2.236097 1_455
Mg24 O1 2.126229 1_555
Mg24 O9 2.133070 1_555
Mg24 O10 2.133070 1_554
Mg24 O29 2.134161 1_555
Mg24 O25 2.189977 1_455
Mg24 O0 2.204328 1_565
Mg25 O2 2.102087 1_555
Mg25 O30 2.133808 1_555
Mg25 O10 2.190734 1_555
Mg25 O9 2.190734 1_555
Mg25 O26 2.236097 1_455
Mg26 O27 2.127289 1_555
Mg26 O5 2.142303 1_555
Mg26 O11 2.157983 1_555
Mg26 O12 2.157983 1_554
Mg26 O23 2.178062 1_555
Mg26 O3 2.187623 1_555
Mg27 O24 2.121918 1_555
Mg27 O28 2.123123 1_555
Mg27 O6 2.141832 1_555
Mg27 O12 2.165720 1_555
Mg27 O11 2.165720 1_555
Mg27 O4 2.180528 1_555
Mg28 O29 2.127289 1_555
Mg28 O5 2.142303 1_555
Mg28 O13 2.157983 1_555
Mg28 O14 2.157983 1_554
Mg28 O25 2.178062 1_555
Mg28 O3 2.187623 1_565
Mg29 O26 2.121918 1_555
Mg29 O30 2.123123 1_555
Mg29 O6 2.141832 1_555
Mg29 O14 2.165720 1_555
Mg29 O13 2.165720 1_555
Mg29 O4 2.180528 1_565
