# generated using pymatgen
data_Y4ScSi10
_symmetry_space_group_name_H-M   'P 1'
_cell_length_a   4.05746495
_cell_length_b   4.05746495
_cell_length_c   19.85682300
_cell_angle_alpha   90.00000000
_cell_angle_beta   90.00000000
_cell_angle_gamma   120.00001555
_symmetry_Int_Tables_number   1
_chemical_formula_structural   Y4ScSi10
_chemical_formula_sum   'Y4 Sc1 Si10'
_cell_volume   283.10652747
_cell_formula_units_Z   1
loop_
 _symmetry_equiv_pos_site_id
 _symmetry_equiv_pos_as_xyz
  1  'x, y, z'
loop_
 _atom_site_type_symbol
 _atom_site_label
 _atom_site_symmetry_multiplicity
 _atom_site_fract_x
 _atom_site_fract_y
 _atom_site_fract_z
 _atom_site_occupancy
  Y  Y0  1  0.00000000  0.00000000  0.80581600  1
  Y  Y1  1  0.00000000  0.00000000  0.60130100  1
  Y  Y2  1  0.00000000  0.00000000  0.39869900  1
  Y  Y3  1  0.00000000  0.00000000  0.19418400  1
  Sc  Sc0  1  0.00000000  0.00000000  0.00000000  1
  Si  Si0  1  0.66666700  0.33333300  0.90810200  1
  Si  Si1  1  0.66666700  0.33333300  0.70319800  1
  Si  Si2  1  0.66666700  0.33333300  0.50000000  1
  Si  Si3  1  0.66666700  0.33333300  0.29680200  1
  Si  Si4  1  0.66666700  0.33333300  0.09189800  1
  Si  Si5  1  0.33333300  0.66666700  0.90810200  1
  Si  Si6  1  0.33333300  0.66666700  0.70319800  1
  Si  Si7  1  0.33333300  0.66666700  0.50000000  1
  Si  Si8  1  0.33333300  0.66666700  0.29680200  1
  Si  Si9  1  0.33333300  0.66666700  0.09189800  1
loop_
_geom_bond_atom_site_label_1
_geom_bond_atom_site_label_2
_geom_bond_distance
_geom_bond_site_symmetry_2
Sc0 Si9 2.969439 1_545
Sc0 Si4 2.969439 1_455
Sc0 Si5 2.969439 1_544
Sc0 Si0 2.969439 1_454
Sc0 Si9 2.969441 1_445
Sc0 Si4 2.969441 1_445
Sc0 Si9 2.969441 1_555
Sc0 Si4 2.969441 1_555
Sc0 Si0 2.969441 1_554
Sc0 Si5 2.969441 1_444
Sc0 Si0 2.969441 1_444
Sc0 Si5 2.969441 1_554
Si0 Si5 2.342576 1_545
Si0 Si5 2.342576 1_655
Si0 Si5 2.342583 1_555
Si0 Y0 3.100472 1_655
Si0 Y0 3.100475 1_555
Si0 Y0 3.100475 1_665
Si1 Si6 2.342576 1_545
Si1 Si6 2.342576 1_655
Si1 Si6 2.342583 1_555
Si1 Y1 3.095418 1_655
Si1 Y1 3.095420 1_665
Si1 Y1 3.095420 1_555
Si1 Y0 3.104795 1_655
Si1 Y0 3.104797 1_555
Si1 Y0 3.104797 1_665
Si2 Si7 2.342576 1_545
Si2 Si7 2.342576 1_655
Si2 Si7 2.342583 1_555
Si2 Y1 3.087695 1_655
Si2 Y2 3.087695 1_655
Si2 Y1 3.087697 1_665
Si2 Y1 3.087697 1_555
Si2 Y2 3.087697 1_555
Si2 Y2 3.087697 1_665
Si3 Si8 2.342576 1_545
Si3 Si8 2.342576 1_655
Si3 Si8 2.342583 1_555
Si3 Y2 3.095418 1_655
Si3 Y2 3.095420 1_555
Si3 Y2 3.095420 1_665
Si3 Y3 3.104795 1_655
Si3 Y3 3.104797 1_555
Si3 Y3 3.104797 1_665
Si4 Si9 2.342576 1_545
Si4 Si9 2.342576 1_655
Si4 Si9 2.342583 1_555
Si4 Y3 3.100472 1_655
Si4 Y3 3.100475 1_555
Si4 Y3 3.100475 1_665
Si5 Y0 3.100472 1_565
Si5 Y0 3.100475 1_665
Si5 Y0 3.100475 1_555
Si6 Y1 3.095418 1_565
Si6 Y1 3.095420 1_665
Si6 Y1 3.095420 1_555
Si6 Y0 3.104795 1_565
Si6 Y0 3.104797 1_665
Si6 Y0 3.104797 1_555
Si7 Y1 3.087695 1_565
Si7 Y2 3.087695 1_565
Si7 Y1 3.087697 1_665
Si7 Y1 3.087697 1_555
Si7 Y2 3.087697 1_555
Si7 Y2 3.087697 1_665
Si8 Y2 3.095418 1_565
Si8 Y2 3.095420 1_665
Si8 Y2 3.095420 1_555
Si8 Y3 3.104795 1_565
Si8 Y3 3.104797 1_555
Si8 Y3 3.104797 1_665
Si9 Y3 3.100472 1_565
Si9 Y3 3.100475 1_665
Si9 Y3 3.100475 1_555
