# generated using pymatgen
data_Mg14CdBiO16
_symmetry_space_group_name_H-M   'P 1'
_cell_length_a   8.80655369
_cell_length_b   8.80655369
_cell_length_c   4.45924048
_cell_angle_alpha   90.00000000
_cell_angle_beta   90.00000000
_cell_angle_gamma   90.00000000
_symmetry_Int_Tables_number   1
_chemical_formula_structural   Mg14CdBiO16
_chemical_formula_sum   'Mg14 Cd1 Bi1 O16'
_cell_volume   345.83812514
_cell_formula_units_Z   1
loop_
 _symmetry_equiv_pos_site_id
 _symmetry_equiv_pos_as_xyz
  1  'x, y, z'
loop_
 _atom_site_type_symbol
 _atom_site_label
 _atom_site_symmetry_multiplicity
 _atom_site_fract_x
 _atom_site_fract_y
 _atom_site_fract_z
 _atom_site_occupancy
  Mg  Mg0  1  -0.00000000  0.50000000  -0.00000000  1
  Mg  Mg1  1  0.50000000  -0.00000000  -0.00000000  1
  Mg  Mg2  1  -0.00000000  0.25208006  0.50000000  1
  Mg  Mg3  1  -0.00000000  0.74791994  0.50000000  1
  Mg  Mg4  1  0.50000000  0.23465803  0.50000000  1
  Mg  Mg5  1  0.50000000  0.76534197  0.50000000  1
  Mg  Mg6  1  0.25208006  -0.00000000  0.50000000  1
  Mg  Mg7  1  0.23465803  0.50000000  0.50000000  1
  Mg  Mg8  1  0.74791994  -0.00000000  0.50000000  1
  Mg  Mg9  1  0.76534197  0.50000000  0.50000000  1
  Mg  Mg10  1  0.24238730  0.24238730  -0.00000000  1
  Mg  Mg11  1  0.24238730  0.75761270  -0.00000000  1
  Mg  Mg12  1  0.75761270  0.24238730  0.00000000  1
  Mg  Mg13  1  0.75761270  0.75761270  0.00000000  1
  Cd  Cd0  1  -0.00000000  -0.00000000  -0.00000000  1
  Bi  Bi0  1  0.50000000  0.50000000  -0.00000000  1
  O  O0  1  0.26841490  -0.00000000  0.00000000  1
  O  O1  1  0.23454945  0.50000000  0.00000000  1
  O  O2  1  0.73158510  -0.00000000  -0.00000000  1
  O  O3  1  0.76545055  0.50000000  -0.00000000  1
  O  O4  1  0.25205345  0.25205345  0.50000000  1
  O  O5  1  0.25205345  0.74794655  0.50000000  1
  O  O6  1  0.74794655  0.25205345  0.50000000  1
  O  O7  1  0.74794655  0.74794655  0.50000000  1
  O  O8  1  -0.00000000  -0.00000000  0.50000000  1
  O  O9  1  -0.00000000  0.50000000  0.50000000  1
  O  O10  1  0.50000000  -0.00000000  0.50000000  1
  O  O11  1  0.50000000  0.50000000  0.50000000  1
  O  O12  1  -0.00000000  0.26841490  -0.00000000  1
  O  O13  1  -0.00000000  0.73158510  0.00000000  1
  O  O14  1  0.50000000  0.23454945  0.00000000  1
  O  O15  1  0.50000000  0.76545055  -0.00000000  1
loop_
_geom_bond_atom_site_label_1
_geom_bond_atom_site_label_2
_geom_bond_distance
_geom_bond_site_symmetry_2
Mg0 O13 2.039467 1_555
Mg0 O12 2.039467 1_555
Mg0 O3 2.065572 1_455
Mg0 O1 2.065572 1_555
Mg0 O9 2.229620 1_555
Mg0 O9 2.229620 1_554
Mg1 O0 2.039467 1_555
Mg1 O2 2.039467 1_555
Mg1 O15 2.065572 1_545
Mg1 O14 2.065572 1_555
Mg1 O10 2.229620 1_555
Mg1 O10 2.229620 1_554
Mg2 O9 2.183320 1_555
Mg2 O4 2.219722 1_555
Mg2 O6 2.219722 1_455
Mg2 O8 2.219957 1_555
Mg2 O12 2.234256 1_556
Mg2 O12 2.234256 1_555
Mg3 O9 2.183320 1_555
Mg3 O7 2.219722 1_455
Mg3 O5 2.219722 1_555
Mg3 O8 2.219957 1_565
Mg3 O13 2.234256 1_555
Mg3 O13 2.234256 1_556
Mg4 O10 2.066529 1_555
Mg4 O4 2.188922 1_555
Mg4 O6 2.188922 1_555
Mg4 O14 2.229620 1_555
Mg4 O14 2.229620 1_556
Mg4 O11 2.336748 1_555
Mg5 O10 2.066529 1_565
Mg5 O5 2.188922 1_555
Mg5 O7 2.188922 1_555
Mg5 O15 2.229620 1_556
Mg5 O15 2.229620 1_555
Mg5 O11 2.336748 1_555
Mg6 O10 2.183320 1_555
Mg6 O4 2.219722 1_555
Mg6 O5 2.219722 1_545
Mg6 O8 2.219957 1_555
Mg6 O0 2.234256 1_555
Mg6 O0 2.234256 1_556
Mg7 O9 2.066529 1_555
Mg7 O4 2.188922 1_555
Mg7 O5 2.188922 1_555
Mg7 O1 2.229620 1_556
Mg7 O1 2.229620 1_555
Mg7 O11 2.336748 1_555
Mg8 O10 2.183320 1_555
Mg8 O6 2.219722 1_555
Mg8 O7 2.219722 1_545
Mg8 O8 2.219957 1_655
Mg8 O2 2.234256 1_556
Mg8 O2 2.234256 1_555
Mg9 O9 2.066529 1_655
Mg9 O6 2.188922 1_555
Mg9 O7 2.188922 1_555
Mg9 O3 2.229620 1_556
Mg9 O3 2.229620 1_555
Mg9 O11 2.336748 1_555
Mg10 O0 2.146868 1_555
Mg10 O12 2.146868 1_555
Mg10 O4 2.232868 1_554
Mg10 O4 2.232868 1_555
Mg10 O1 2.269730 1_555
Mg10 O14 2.269730 1_555
Mg11 O13 2.146868 1_555
Mg11 O0 2.146868 1_565
Mg11 O5 2.232868 1_555
Mg11 O5 2.232868 1_554
Mg11 O1 2.269730 1_555
Mg11 O15 2.269730 1_555
Mg12 O2 2.146868 1_555
Mg12 O12 2.146868 1_655
Mg12 O6 2.232868 1_555
Mg12 O6 2.232868 1_554
Mg12 O14 2.269730 1_555
Mg12 O3 2.269730 1_555
Mg13 O13 2.146868 1_655
Mg13 O2 2.146868 1_565
Mg13 O7 2.232868 1_554
Mg13 O7 2.232868 1_555
Mg13 O15 2.269730 1_555
Mg13 O3 2.269730 1_555
Cd0 O8 2.229620 1_554
Cd0 O8 2.229620 1_555
Cd0 O13 2.363810 1_545
Cd0 O12 2.363810 1_555
Cd0 O2 2.363810 1_455
Cd0 O0 2.363810 1_555
Bi0 O11 2.229620 1_554
Bi0 O11 2.229620 1_555
Bi0 O14 2.337705 1_555
Bi0 O1 2.337705 1_555
Bi0 O3 2.337705 1_555
Bi0 O15 2.337705 1_555
