# generated using pymatgen
data_Na3Mo2N5
_symmetry_space_group_name_H-M   'P 1'
_cell_length_a   9.62472447
_cell_length_b   9.62472447
_cell_length_c   9.62472447
_cell_angle_alpha   101.78707972
_cell_angle_beta   101.78707972
_cell_angle_gamma   126.25992811
_symmetry_Int_Tables_number   1
_chemical_formula_structural   Na3Mo2N5
_chemical_formula_sum   'Na12 Mo8 N20'
_cell_volume   641.30656536
_cell_formula_units_Z   4
loop_
 _symmetry_equiv_pos_site_id
 _symmetry_equiv_pos_as_xyz
  1  'x, y, z'
loop_
 _atom_site_type_symbol
 _atom_site_label
 _atom_site_symmetry_multiplicity
 _atom_site_fract_x
 _atom_site_fract_y
 _atom_site_fract_z
 _atom_site_occupancy
  Na  Na0  1  0.49968100  0.61914800  0.66677400  1
  Na  Na1  1  0.95237400  0.83290600  0.33322600  1
  Na  Na2  1  0.86914800  0.70237400  0.61946700  1
  Na  Na3  1  0.08290600  0.24968100  0.38053300  1
  Na  Na4  1  0.28379800  0.91397800  0.22525400  1
  Na  Na5  1  0.68872400  0.05854300  0.77474600  1
  Na  Na6  1  0.16397800  0.43872400  0.13018100  1
  Na  Na7  1  0.30854300  0.03379800  0.86981900  1
  Na  Na8  1  0.56226700  0.56226700  0.00000000  1
  Na  Na9  1  0.81226700  0.31226700  0.50000000  1
  Na  Na10  1  0.22558300  0.72558300  0.50000000  1
  Na  Na11  1  0.97558300  0.97558300  0.00000000  1
  Mo  Mo0  1  0.63830900  0.86113300  0.39992400  1
  Mo  Mo1  1  0.46120900  0.23838500  0.60007600  1
  Mo  Mo2  1  0.11113300  0.21120900  0.72282400  1
  Mo  Mo3  1  0.48838500  0.38830900  0.27717600  1
  Mo  Mo4  1  0.23213600  0.61486700  0.81341400  1
  Mo  Mo5  1  0.80145300  0.41872100  0.18658600  1
  Mo  Mo6  1  0.86486700  0.55145300  0.88273100  1
  Mo  Mo7  1  0.66872100  0.98213600  0.11726900  1
  N  N0  1  0.51424700  0.80658300  0.51849900  1
  N  N1  1  0.28808400  0.99574800  0.48150100  1
  N  N2  1  0.05658300  0.03808400  0.79233600  1
  N  N3  1  0.24574800  0.26424700  0.20766400  1
  N  N4  1  0.75681100  0.64335500  0.83943500  1
  N  N5  1  0.80392000  0.91737600  0.16056500  1
  N  N6  1  0.89335500  0.55392000  0.38654400  1
  N  N7  1  0.16737600  0.50681100  0.61345600  1
  N  N8  1  0.61022700  0.64441000  0.31099600  1
  N  N9  1  0.33341300  0.29923100  0.68900400  1
  N  N10  1  0.89441000  0.08341300  0.53418200  1
  N  N11  1  0.54923100  0.36022700  0.46581800  1
  N  N12  1  0.08334100  0.68563700  0.83502000  1
  N  N13  1  0.85061700  0.24832100  0.16498000  1
  N  N14  1  0.93563700  0.60061700  0.10229600  1
  N  N15  1  0.49832100  0.83334100  0.89770400  1
  N  N16  1  0.17890900  0.42642300  0.88873600  1
  N  N17  1  0.53768700  0.29017400  0.11126400  1
  N  N18  1  0.67642300  0.28768700  0.74751400  1
  N  N19  1  0.54017400  0.92890900  0.25248600  1
loop_
_geom_bond_atom_site_label_1
_geom_bond_atom_site_label_2
_geom_bond_distance
_geom_bond_site_symmetry_2
Mo0 N0 1.750388 1_555
Mo0 N10 1.911513 1_565
Mo0 N8 1.914627 1_555
Mo0 N19 1.972506 1_555
Mo1 N1 1.750388 1_545
Mo1 N11 1.911508 1_555
Mo1 N9 1.914636 1_555
Mo1 N18 1.972511 1_555
Mo2 N2 1.750388 1_555
Mo2 N9 1.911508 1_555
Mo2 N10 1.914631 1_455
Mo2 N16 1.972511 1_555
Mo3 N3 1.750388 1_555
Mo3 N8 1.911517 1_555
Mo3 N11 1.914636 1_555
Mo3 N17 1.972506 1_555
Mo4 N7 1.760502 1_555
Mo4 N16 1.915047 1_555
Mo4 N15 1.929972 1_555
Mo4 N12 1.943148 1_555
Mo5 N6 1.760504 1_555
Mo5 N17 1.915052 1_555
Mo5 N14 1.929978 1_555
Mo5 N13 1.943139 1_555
Mo6 N4 1.760502 1_555
Mo6 N18 1.915047 1_555
Mo6 N12 1.929972 1_655
Mo6 N14 1.943148 1_556
Mo7 N5 1.760511 1_555
Mo7 N19 1.915035 1_555
Mo7 N13 1.929972 1_565
Mo7 N15 1.943146 1_554
N0 Na10 2.353201 1_555
N0 Na5 2.414699 1_565
N0 Na0 2.478937 1_555
N1 Na10 2.353201 1_555
N1 Na4 2.414703 1_555
N1 Na1 2.478935 1_455
N2 Na11 2.353201 1_446
N2 Na7 2.414692 1_555
N2 Na2 2.478937 1_445
N3 Na11 2.353201 1_445
N3 Na6 2.414699 1_555
N3 Na3 2.478944 1_555
N4 Na11 2.394547 1_556
N4 Na0 2.533792 1_555
N4 Na8 2.539623 1_556
N4 Na2 2.583402 1_555
N5 Na11 2.394547 1_555
N5 Na1 2.533800 1_555
N5 Na8 2.539623 1_555
N5 Na3 2.583400 1_665
N6 Na10 2.394547 1_655
N6 Na2 2.533792 1_555
N6 Na9 2.539623 1_555
N6 Na1 2.583392 1_555
N7 Na10 2.394547 1_555
N7 Na3 2.533788 1_555
N7 Na9 2.539623 1_455
N7 Na0 2.583402 1_555
N8 Na1 2.582245 1_555
N8 Na8 2.799049 1_555
N9 Na0 2.582243 1_555
N9 Na8 2.799049 1_556
N10 Na3 2.582235 1_655
N10 Na9 2.799056 1_555
N11 Na2 2.582243 1_555
N11 Na9 2.799049 1_555
N12 Na7 2.586964 1_565
N12 Na2 2.713313 1_455
N13 Na6 2.586956 1_655
N13 Na3 2.713307 1_655
N14 Na4 2.586961 1_655
N14 Na1 2.713307 1_555
N15 Na5 2.586956 1_565
N15 Na0 2.713313 1_555
N16 Na6 2.340741 1_556
N16 Na8 2.928726 1_556
N17 Na7 2.340741 1_554
N17 Na8 2.928717 1_555
N18 Na5 2.340741 1_555
N18 Na9 2.928726 1_555
N19 Na4 2.340741 1_555
N19 Na9 2.928726 1_565
