# generated using pymatgen
data_CrN2
_symmetry_space_group_name_H-M   'P 1'
_cell_length_a   5.09756400
_cell_length_b   5.31422253
_cell_length_c   6.67038731
_cell_angle_alpha   92.21439515
_cell_angle_beta   93.23621011
_cell_angle_gamma   109.95416819
_symmetry_Int_Tables_number   1
_chemical_formula_structural   CrN2
_chemical_formula_sum   'Cr4 N8'
_cell_volume   169.25604536
_cell_formula_units_Z   4
loop_
 _symmetry_equiv_pos_site_id
 _symmetry_equiv_pos_as_xyz
  1  'x, y, z'
loop_
 _atom_site_type_symbol
 _atom_site_label
 _atom_site_symmetry_multiplicity
 _atom_site_fract_x
 _atom_site_fract_y
 _atom_site_fract_z
 _atom_site_occupancy
  Cr  Cr0  1  0.21618800  0.13367200  0.89241100  1
  Cr  Cr1  1  0.32050000  0.93414400  0.45816300  1
  Cr  Cr2  1  0.52400200  0.72078900  0.83578000  1
  Cr  Cr3  1  0.79716400  0.42126400  0.18903600  1
  N  N0  1  0.21722900  0.14243500  0.64067700  1
  N  N1  1  0.46081500  0.72272100  0.56405700  1
  N  N2  1  0.01819000  0.72414300  0.31442000  1
  N  N3  1  0.83899500  0.92145700  0.87643000  1
  N  N4  1  0.01309500  0.30623500  0.07359400  1
  N  N5  1  0.54075000  0.45321300  0.98276300  1
  N  N6  1  0.34443900  0.90214100  0.97101800  1
  N  N7  1  0.57335300  0.17758600  0.33558000  1
loop_
_geom_bond_atom_site_label_1
_geom_bond_atom_site_label_2
_geom_bond_distance
_geom_bond_site_symmetry_2
Cr0 N6 1.666263 1_545
Cr0 N0 1.681864 1_555
Cr0 N3 1.862196 1_445
Cr0 N5 1.968465 1_555
Cr0 N4 2.019157 1_556
Cr1 N1 1.680981 1_555
Cr1 N7 1.751065 1_565
Cr1 N2 1.765292 1_555
Cr1 N0 1.830428 1_565
Cr2 N3 1.596486 1_555
Cr2 N5 1.780912 1_555
Cr2 N6 1.791242 1_555
Cr2 N1 1.823947 1_555
Cr3 N4 1.642195 1_655
Cr3 N2 1.763929 1_655
Cr3 N7 1.774660 1_555
Cr3 N5 1.896557 1_554
