# generated using pymatgen
data_Dy3Co2Si3
_symmetry_space_group_name_H-M   'P 1'
_cell_length_a   5.61680742
_cell_length_b   5.61680742
_cell_length_c   13.60279100
_cell_angle_alpha   90.00000000
_cell_angle_beta   90.00000000
_cell_angle_gamma   137.27755105
_symmetry_Int_Tables_number   1
_chemical_formula_structural   Dy3Co2Si3
_chemical_formula_sum   'Dy6 Co4 Si6'
_cell_volume   291.15441498
_cell_formula_units_Z   2
loop_
 _symmetry_equiv_pos_site_id
 _symmetry_equiv_pos_as_xyz
  1  'x, y, z'
loop_
 _atom_site_type_symbol
 _atom_site_label
 _atom_site_symmetry_multiplicity
 _atom_site_fract_x
 _atom_site_fract_y
 _atom_site_fract_z
 _atom_site_occupancy
  Dy  Dy0  1  0.63855000  0.36145000  0.25000000  1
  Dy  Dy1  1  0.36145000  0.63855000  0.75000000  1
  Dy  Dy2  1  0.91889200  0.08110800  0.11141200  1
  Dy  Dy3  1  0.08110800  0.91889200  0.88858800  1
  Dy  Dy4  1  0.08110800  0.91889200  0.61141200  1
  Dy  Dy5  1  0.91889200  0.08110800  0.38858800  1
  Co  Co0  1  0.78612100  0.21387900  0.58062500  1
  Co  Co1  1  0.21387900  0.78612100  0.41937500  1
  Co  Co2  1  0.21387900  0.78612100  0.08062500  1
  Co  Co3  1  0.78612100  0.21387900  0.91937500  1
  Si  Si0  1  0.32974300  0.67025700  0.25000000  1
  Si  Si1  1  0.67025700  0.32974300  0.75000000  1
  Si  Si2  1  0.62228100  0.37771900  0.03950900  1
  Si  Si3  1  0.37771900  0.62228100  0.96049100  1
  Si  Si4  1  0.37771900  0.62228100  0.53950900  1
  Si  Si5  1  0.62228100  0.37771900  0.46049100  1
loop_
_geom_bond_atom_site_label_1
_geom_bond_atom_site_label_2
_geom_bond_distance
_geom_bond_site_symmetry_2
Dy0 Si0 2.861238 1_545
Dy0 Si0 2.861238 1_655
Dy0 Si5 2.868319 1_555
Dy0 Si2 2.868319 1_555
Dy0 Si0 3.230706 1_555
Dy1 Si1 2.861238 1_455
Dy1 Si1 2.861238 1_565
Dy1 Si4 2.868319 1_555
Dy1 Si3 2.868319 1_555
Dy1 Si1 3.230706 1_555
Dy2 Si3 2.930163 1_544
Dy2 Si3 2.930163 1_654
Dy2 Si0 2.934196 1_545
Dy2 Si0 2.934196 1_655
Dy2 Si2 3.109669 1_545
Dy2 Si2 3.109669 1_655
Dy2 Si2 3.253606 1_555
Dy3 Si2 2.930163 1_566
Dy3 Si2 2.930163 1_456
Dy3 Si1 2.934196 1_455
Dy3 Si1 2.934196 1_565
Dy3 Si3 3.109669 1_455
Dy3 Si3 3.109669 1_565
Dy3 Si3 3.253606 1_555
Dy4 Si5 2.930163 1_455
Dy4 Si5 2.930163 1_565
Dy4 Si1 2.934196 1_455
Dy4 Si1 2.934196 1_565
Dy4 Si4 3.109669 1_455
Dy4 Si4 3.109669 1_565
Dy4 Si4 3.253606 1_555
Dy5 Si4 2.930163 1_655
Dy5 Si4 2.930163 1_545
Dy5 Si0 2.934196 1_545
Dy5 Si0 2.934196 1_655
Dy5 Si5 3.109669 1_545
Dy5 Si5 3.109669 1_655
Dy5 Si5 3.253606 1_555
Co0 Si4 2.327411 1_655
Co0 Si4 2.327411 1_545
Co0 Si5 2.368234 1_555
Co0 Si1 2.603385 1_555
Co0 Dy5 2.958583 1_555
Co0 Dy4 2.993556 1_545
Co0 Dy4 2.993556 1_655
Co0 Dy4 3.114408 1_645
Co0 Dy1 3.180422 1_545
Co0 Dy1 3.180422 1_655
Co1 Si5 2.327411 1_565
Co1 Si5 2.327411 1_455
Co1 Si4 2.368234 1_555
Co1 Si0 2.603385 1_555
Co1 Dy4 2.958583 1_555
Co1 Dy5 2.993556 1_565
Co1 Dy5 2.993556 1_455
Co1 Dy5 3.114408 1_465
Co1 Dy0 3.180422 1_455
Co1 Dy0 3.180422 1_565
Co2 Si2 2.327411 1_455
Co2 Si2 2.327411 1_565
Co2 Si3 2.368234 1_554
Co2 Si0 2.603385 1_555
Co2 Dy3 2.958583 1_554
Co2 Dy2 2.993556 1_565
Co2 Dy2 2.993556 1_455
Co2 Dy2 3.114408 1_465
Co2 Dy0 3.180422 1_455
Co2 Dy0 3.180422 1_565
Co3 Si3 2.327411 1_545
Co3 Si3 2.327411 1_655
Co3 Si2 2.368234 1_556
Co3 Si1 2.603385 1_555
Co3 Dy2 2.958583 1_556
Co3 Dy3 2.993556 1_545
Co3 Dy3 2.993556 1_655
Co3 Dy3 3.114408 1_645
Co3 Dy1 3.180422 1_545
Co3 Dy1 3.180422 1_655
Si2 Si3 2.775189 1_554
Si4 Si5 2.775189 1_555
