# generated using pymatgen
data_YbAgSn
_symmetry_space_group_name_H-M   'P 1'
_cell_length_a   4.82074197
_cell_length_b   4.82074197
_cell_length_c   10.88897100
_cell_angle_alpha   90.00000000
_cell_angle_beta   90.00000000
_cell_angle_gamma   119.99999956
_symmetry_Int_Tables_number   1
_chemical_formula_structural   YbAgSn
_chemical_formula_sum   'Yb3 Ag3 Sn3'
_cell_volume   219.15190363
_cell_formula_units_Z   3
loop_
 _symmetry_equiv_pos_site_id
 _symmetry_equiv_pos_as_xyz
  1  'x, y, z'
loop_
 _atom_site_type_symbol
 _atom_site_label
 _atom_site_symmetry_multiplicity
 _atom_site_fract_x
 _atom_site_fract_y
 _atom_site_fract_z
 _atom_site_occupancy
  Yb  Yb0  1  0.66666700  0.33333300  0.00000000  1
  Yb  Yb1  1  0.66666700  0.33333300  0.66779600  1
  Yb  Yb2  1  0.66666700  0.33333300  0.33220400  1
  Ag  Ag0  1  0.00000000  0.00000000  0.80604700  1
  Ag  Ag1  1  0.00000000  0.00000000  0.19395300  1
  Ag  Ag2  1  0.33333300  0.66666700  0.50000000  1
  Sn  Sn0  1  0.33333300  0.66666700  0.85463700  1
  Sn  Sn1  1  0.00000000  0.00000000  0.50000000  1
  Sn  Sn2  1  0.33333300  0.66666700  0.14536300  1
loop_
_geom_bond_atom_site_label_1
_geom_bond_atom_site_label_2
_geom_bond_distance
_geom_bond_site_symmetry_2
Ag0 Sn0 2.833098 1_545
Ag0 Sn0 2.833102 1_555
Ag0 Sn0 2.833102 1_445
Ag0 Yb1 3.164295 1_455
Ag0 Yb1 3.164299 1_555
Ag0 Yb1 3.164299 1_445
Ag0 Sn1 3.332537 1_555
Ag0 Yb0 3.493827 1_456
Ag0 Yb0 3.493831 1_446
Ag0 Yb0 3.493831 1_556
Ag1 Sn2 2.833098 1_545
Ag1 Sn2 2.833102 1_445
Ag1 Sn2 2.833102 1_555
Ag1 Yb2 3.164295 1_455
Ag1 Yb2 3.164299 1_555
Ag1 Yb2 3.164299 1_445
Ag1 Sn1 3.332537 1_555
Ag1 Yb0 3.493827 1_455
Ag1 Yb0 3.493831 1_555
Ag1 Yb0 3.493831 1_445
Ag2 Sn1 2.783254 1_565
Ag2 Sn1 2.783258 1_555
Ag2 Sn1 2.783258 1_665
Ag2 Yb1 3.329398 1_455
Ag2 Yb1 3.329398 1_565
Ag2 Yb2 3.329398 1_455
Ag2 Yb2 3.329398 1_565
Ag2 Yb1 3.329405 1_555
Ag2 Yb2 3.329405 1_555
Sn0 Sn2 3.165707 1_556
Sn0 Yb0 3.201863 1_456
Sn0 Yb0 3.201863 1_566
Sn0 Yb0 3.201870 1_556
Sn0 Yb1 3.447567 1_455
Sn0 Yb1 3.447567 1_565
Sn0 Yb1 3.447574 1_555
Sn1 Yb1 3.329398 1_455
Sn1 Yb2 3.329398 1_455
Sn1 Yb2 3.329401 1_555
Sn1 Yb2 3.329401 1_445
Sn1 Yb1 3.329401 1_445
Sn1 Yb1 3.329401 1_555
Sn2 Yb0 3.201863 1_455
Sn2 Yb0 3.201863 1_565
Sn2 Yb0 3.201870 1_555
Sn2 Yb2 3.447567 1_455
Sn2 Yb2 3.447567 1_565
Sn2 Yb2 3.447574 1_555
