# generated using pymatgen
data_Tc2Te5
_symmetry_space_group_name_H-M   'P 1'
_cell_length_a   13.14932600
_cell_length_b   13.23526100
_cell_length_c   14.46182000
_cell_angle_alpha   90.00000000
_cell_angle_beta   90.00000000
_cell_angle_gamma   90.00000000
_symmetry_Int_Tables_number   1
_chemical_formula_structural   Tc2Te5
_chemical_formula_sum   'Tc24 Te60'
_cell_volume   2516.85939577
_cell_formula_units_Z   12
loop_
 _symmetry_equiv_pos_site_id
 _symmetry_equiv_pos_as_xyz
  1  'x, y, z'
loop_
 _atom_site_type_symbol
 _atom_site_label
 _atom_site_symmetry_multiplicity
 _atom_site_fract_x
 _atom_site_fract_y
 _atom_site_fract_z
 _atom_site_occupancy
  Tc  Tc0  1  0.86729900  0.97126600  0.45202500  1
  Tc  Tc1  1  0.13270100  0.52873400  0.95202500  1
  Tc  Tc2  1  0.63270100  0.47126600  0.54797500  1
  Tc  Tc3  1  0.36729900  0.02873400  0.04797500  1
  Tc  Tc4  1  0.13270100  0.02873400  0.54797500  1
  Tc  Tc5  1  0.86729900  0.47126600  0.04797500  1
  Tc  Tc6  1  0.36729900  0.52873400  0.45202500  1
  Tc  Tc7  1  0.63270100  0.97126600  0.95202500  1
  Tc  Tc8  1  0.05865000  0.95258300  0.38743100  1
  Tc  Tc9  1  0.94135000  0.54741700  0.88743100  1
  Tc  Tc10  1  0.44135000  0.45258300  0.61256900  1
  Tc  Tc11  1  0.55865000  0.04741700  0.11256900  1
  Tc  Tc12  1  0.94135000  0.04741700  0.61256900  1
  Tc  Tc13  1  0.05865000  0.45258300  0.11256900  1
  Tc  Tc14  1  0.55865000  0.54741700  0.38743100  1
  Tc  Tc15  1  0.44135000  0.95258300  0.88743100  1
  Tc  Tc16  1  0.99248400  0.13387300  0.44920700  1
  Tc  Tc17  1  0.00751600  0.36612700  0.94920700  1
  Tc  Tc18  1  0.50751600  0.63387300  0.55079300  1
  Tc  Tc19  1  0.49248400  0.86612700  0.05079300  1
  Tc  Tc20  1  0.00751600  0.86612700  0.55079300  1
  Tc  Tc21  1  0.99248400  0.63387300  0.05079300  1
  Tc  Tc22  1  0.49248400  0.36612700  0.44920700  1
  Tc  Tc23  1  0.50751600  0.13387300  0.94920700  1
  Te  Te0  1  0.80052800  0.15152400  0.51602800  1
  Te  Te1  1  0.19947200  0.34847600  0.01602800  1
  Te  Te2  1  0.69947200  0.65152400  0.48397200  1
  Te  Te3  1  0.30052800  0.84847600  0.98397200  1
  Te  Te4  1  0.19947200  0.84847600  0.48397200  1
  Te  Te5  1  0.80052800  0.65152400  0.98397200  1
  Te  Te6  1  0.30052800  0.34847600  0.51602800  1
  Te  Te7  1  0.69947200  0.15152400  0.01602800  1
  Te  Te8  1  0.91917700  0.05651100  0.28940900  1
  Te  Te9  1  0.08082300  0.44348900  0.78940900  1
  Te  Te10  1  0.58082300  0.55651100  0.71059100  1
  Te  Te11  1  0.41917700  0.94348900  0.21059100  1
  Te  Te12  1  0.08082300  0.94348900  0.71059100  1
  Te  Te13  1  0.91917700  0.55651100  0.21059100  1
  Te  Te14  1  0.41917700  0.44348900  0.28940900  1
  Te  Te15  1  0.58082300  0.05651100  0.78940900  1
  Te  Te16  1  0.18338800  0.11452100  0.38506900  1
  Te  Te17  1  0.81661200  0.38547900  0.88506900  1
  Te  Te18  1  0.31661200  0.61452100  0.61493100  1
  Te  Te19  1  0.68338800  0.88547900  0.11493100  1
  Te  Te20  1  0.81661200  0.88547900  0.61493100  1
  Te  Te21  1  0.18338800  0.61452100  0.11493100  1
  Te  Te22  1  0.68338800  0.38547900  0.38506900  1
  Te  Te23  1  0.31661200  0.11452100  0.88506900  1
  Te  Te24  1  0.06398600  0.21005200  0.60825700  1
  Te  Te25  1  0.93601400  0.28994800  0.10825700  1
  Te  Te26  1  0.43601400  0.71005200  0.39174300  1
  Te  Te27  1  0.56398600  0.78994800  0.89174300  1
  Te  Te28  1  0.93601400  0.78994800  0.39174300  1
  Te  Te29  1  0.06398600  0.71005200  0.89174300  1
  Te  Te30  1  0.56398600  0.28994800  0.60825700  1
  Te  Te31  1  0.43601400  0.21005200  0.10825700  1
  Te  Te32  1  0.67728900  0.92707600  0.38002800  1
  Te  Te33  1  0.32271100  0.57292400  0.88002800  1
  Te  Te34  1  0.82271100  0.42707600  0.61997200  1
  Te  Te35  1  0.17728900  0.07292400  0.11997200  1
  Te  Te36  1  0.32271100  0.07292400  0.61997200  1
  Te  Te37  1  0.67728900  0.42707600  0.11997200  1
  Te  Te38  1  0.17728900  0.57292400  0.38002800  1
  Te  Te39  1  0.82271100  0.92707600  0.88002800  1
  Te  Te40  1  0.50000000  0.00000000  0.50000000  1
  Te  Te41  1  0.50000000  0.50000000  0.00000000  1
  Te  Te42  1  0.00000000  0.50000000  0.50000000  1
  Te  Te43  1  0.00000000  0.00000000  0.00000000  1
  Te  Te44  1  0.46069500  0.17778400  0.37424900  1
  Te  Te45  1  0.53930500  0.32221600  0.87424900  1
  Te  Te46  1  0.03930500  0.67778400  0.62575100  1
  Te  Te47  1  0.96069500  0.82221600  0.12575100  1
  Te  Te48  1  0.53930500  0.82221600  0.62575100  1
  Te  Te49  1  0.46069500  0.67778400  0.12575100  1
  Te  Te50  1  0.96069500  0.32221600  0.37424900  1
  Te  Te51  1  0.03930500  0.17778400  0.87424900  1
  Te  Te52  1  0.64100800  0.11170600  0.27514600  1
  Te  Te53  1  0.35899200  0.38829400  0.77514600  1
  Te  Te54  1  0.85899200  0.61170600  0.72485400  1
  Te  Te55  1  0.14100800  0.88829400  0.22485400  1
  Te  Te56  1  0.35899200  0.88829400  0.72485400  1
  Te  Te57  1  0.64100800  0.61170600  0.22485400  1
  Te  Te58  1  0.14100800  0.38829400  0.27514600  1
  Te  Te59  1  0.85899200  0.11170600  0.77514600  1
loop_
_geom_bond_atom_site_label_1
_geom_bond_atom_site_label_2
_geom_bond_distance
_geom_bond_site_symmetry_2
Tc0 Tc8 2.695314 1_655
Tc0 Te8 2.696084 1_565
Tc0 Te20 2.698839 1_555
Tc0 Te0 2.705451 1_565
Tc0 Te28 2.708399 1_555
Tc0 Tc16 2.709803 1_565
Tc0 Tc12 2.711921 1_565
Tc0 Tc20 2.715891 1_655
Tc0 Te32 2.769242 1_555
Tc1 Tc9 2.695314 1_455
Tc1 Te9 2.696084 1_555
Tc1 Te21 2.698839 1_556
Tc1 Te1 2.705451 1_556
Tc1 Te29 2.708399 1_555
Tc1 Tc17 2.709803 1_555
Tc1 Tc13 2.711921 1_556
Tc1 Tc21 2.715891 1_456
Tc1 Te33 2.769242 1_555
Tc2 Te10 2.696084 1_555
Tc2 Te22 2.698839 1_555
Tc2 Te2 2.705451 1_555
Tc2 Te30 2.708399 1_555
Tc2 Tc22 2.715891 1_555
Tc2 Te34 2.769242 1_555
Tc3 Te11 2.696084 1_545
Tc3 Te23 2.698839 1_554
Tc3 Te3 2.705451 1_544
Tc3 Te31 2.708399 1_555
Tc3 Te35 2.769242 1_555
Tc4 Te12 2.696084 1_545
Tc4 Te16 2.698839 1_555
Tc4 Te4 2.705451 1_545
Tc4 Te24 2.708399 1_555
Tc4 Tc8 2.711921 1_545
Tc4 Te36 2.769242 1_555
Tc5 Te13 2.696084 1_555
Tc5 Te17 2.698839 1_554
Tc5 Te5 2.705451 1_554
Tc5 Te25 2.708399 1_555
Tc5 Tc9 2.711921 1_554
Tc5 Te37 2.769242 1_555
Tc6 Te14 2.696084 1_555
Tc6 Te18 2.698839 1_555
Tc6 Te6 2.705451 1_555
Tc6 Te26 2.708399 1_555
Tc6 Te38 2.769242 1_555
Tc7 Te15 2.696084 1_565
Tc7 Te19 2.698839 1_556
Tc7 Te7 2.705451 1_566
Tc7 Te27 2.708399 1_555
Tc7 Te39 2.769242 1_555
Tc8 Te28 2.690285 1_455
Tc8 Te8 2.695372 1_465
Tc8 Te4 2.697530 1_555
Tc8 Te16 2.699109 1_565
Tc8 Te55 2.724837 1_555
Tc9 Te29 2.690285 1_655
Tc9 Te9 2.695372 1_655
Tc9 Te5 2.697530 1_555
Tc9 Te17 2.699109 1_555
Tc9 Te54 2.724837 1_555
Tc10 Te30 2.690285 1_555
Tc10 Tc2 2.695314 1_555
Tc10 Te10 2.695372 1_555
Tc10 Te6 2.697530 1_555
Tc10 Te18 2.699109 1_555
Tc10 Tc18 2.704133 1_555
Tc10 Tc22 2.709779 1_555
Tc10 Tc6 2.711921 1_555
Tc10 Te53 2.724837 1_555
Tc11 Te31 2.690285 1_555
Tc11 Tc3 2.695314 1_555
Tc11 Te11 2.695372 1_545
Tc11 Te7 2.697530 1_555
Tc11 Te19 2.699109 1_545
Tc11 Tc19 2.704133 1_545
Tc11 Tc23 2.709779 1_554
Tc11 Tc7 2.711921 1_544
Tc11 Te52 2.724837 1_555
Tc12 Te24 2.690285 1_655
Tc12 Tc4 2.695314 1_655
Tc12 Te12 2.695372 1_645
Tc12 Te0 2.697530 1_555
Tc12 Te20 2.699109 1_545
Tc12 Tc20 2.704133 1_645
Tc12 Tc16 2.709779 1_555
Tc12 Te59 2.724837 1_555
Tc13 Te25 2.690285 1_455
Tc13 Tc5 2.695314 1_455
Tc13 Te13 2.695372 1_455
Tc13 Te1 2.697530 1_555
Tc13 Te21 2.699109 1_555
Tc13 Tc21 2.704133 1_455
Tc13 Tc17 2.709779 1_554
Tc13 Te58 2.724837 1_555
Tc14 Te26 2.690285 1_555
Tc14 Tc6 2.695314 1_555
Tc14 Te14 2.695372 1_555
Tc14 Te2 2.697530 1_555
Tc14 Te22 2.699109 1_555
Tc14 Tc22 2.704133 1_555
Tc14 Tc18 2.709779 1_555
Tc14 Tc2 2.711921 1_555
Tc14 Te57 2.724837 1_555
Tc15 Te27 2.690285 1_555
Tc15 Tc7 2.695314 1_555
Tc15 Te15 2.695372 1_565
Tc15 Te3 2.697530 1_555
Tc15 Te23 2.699109 1_565
Tc15 Tc23 2.704133 1_565
Tc15 Tc19 2.709779 1_556
Tc15 Tc3 2.711921 1_566
Tc15 Te56 2.724837 1_555
Tc16 Te24 2.681650 1_655
Tc16 Te16 2.688374 1_655
Tc16 Tc8 2.704133 1_645
Tc16 Te8 2.705206 1_555
Tc16 Te0 2.712832 1_555
Tc16 Tc4 2.715891 1_655
Tc16 Te50 2.750226 1_555
Tc17 Te25 2.681650 1_456
Tc17 Te17 2.688374 1_455
Tc17 Tc9 2.704133 1_455
Tc17 Te9 2.705206 1_555
Tc17 Te1 2.712832 1_556
Tc17 Tc5 2.715891 1_456
Tc17 Te51 2.750226 1_555
Tc18 Te26 2.681650 1_555
Tc18 Te18 2.688374 1_555
Tc18 Te10 2.705206 1_555
Tc18 Tc2 2.709803 1_555
Tc18 Te2 2.712832 1_555
Tc18 Tc6 2.715891 1_555
Tc18 Te48 2.750226 1_555
Tc19 Te27 2.681650 1_554
Tc19 Te19 2.688374 1_555
Tc19 Te11 2.705206 1_555
Tc19 Tc3 2.709803 1_565
Tc19 Te3 2.712832 1_554
Tc19 Tc7 2.715891 1_554
Tc19 Te49 2.750226 1_555
Tc20 Te28 2.681650 1_455
Tc20 Te20 2.688374 1_455
Tc20 Te12 2.705206 1_555
Tc20 Tc8 2.709779 1_555
Tc20 Tc4 2.709803 1_565
Tc20 Te4 2.712832 1_555
Tc20 Te46 2.750226 1_555
Tc21 Te29 2.681650 1_654
Tc21 Te21 2.688374 1_655
Tc21 Te13 2.705206 1_555
Tc21 Tc9 2.709779 1_554
Tc21 Tc5 2.709803 1_555
Tc21 Te5 2.712832 1_554
Tc21 Te47 2.750226 1_555
Tc22 Te30 2.681650 1_555
Tc22 Te22 2.688374 1_555
Tc22 Te14 2.705206 1_555
Tc22 Tc6 2.709803 1_555
Tc22 Te6 2.712832 1_555
Tc22 Te44 2.750226 1_555
Tc23 Te31 2.681650 1_556
Tc23 Te23 2.688374 1_555
Tc23 Te15 2.705206 1_555
Tc23 Tc7 2.709803 1_545
Tc23 Te7 2.712832 1_556
Tc23 Tc3 2.715891 1_556
Tc23 Te45 2.750226 1_555
Te32 Te52 2.915397 1_565
Te32 Te40 3.062100 1_565
Te33 Te53 2.915397 1_555
Te33 Te41 3.062100 1_556
Te34 Te54 2.915397 1_555
Te34 Te42 3.062100 1_655
Te35 Te55 2.915397 1_545
Te35 Te43 3.062100 1_555
Te36 Te56 2.915397 1_545
Te36 Te40 3.062100 1_555
Te37 Te57 2.915397 1_555
Te37 Te41 3.062100 1_555
Te38 Te58 2.915397 1_555
Te38 Te42 3.062100 1_555
Te39 Te59 2.915397 1_565
Te39 Te43 3.062100 1_666
Te40 Te48 3.018455 1_545
Te40 Te44 3.018455 1_555
Te41 Te45 3.018455 1_554
Te41 Te49 3.018455 1_555
Te42 Te46 3.018455 1_555
Te42 Te50 3.018455 1_455
Te43 Te51 3.018455 1_554
Te43 Te47 3.018455 1_445
Te44 Te52 2.905264 1_555
Te45 Te53 2.905264 1_555
Te46 Te54 2.905264 1_455
Te47 Te55 2.905264 1_655
Te48 Te56 2.905264 1_555
Te49 Te57 2.905264 1_555
Te50 Te58 2.905264 1_655
Te51 Te59 2.905264 1_455
