# generated using pymatgen
data_Cu3Ag2Bi7Pb3S16
_symmetry_space_group_name_H-M   'P 1'
_cell_length_a   4.05663000
_cell_length_b   12.81222400
_cell_length_c   29.27994548
_cell_angle_alpha   77.83737251
_cell_angle_beta   90.00000000
_cell_angle_gamma   90.00000000
_symmetry_Int_Tables_number   1
_chemical_formula_structural   Cu3Ag2Bi7Pb3S16
_chemical_formula_sum   'Cu6 Ag4 Bi14 Pb6 S32'
_cell_volume   1487.64988192
_cell_formula_units_Z   2
loop_
 _symmetry_equiv_pos_site_id
 _symmetry_equiv_pos_as_xyz
  1  'x, y, z'
loop_
 _atom_site_type_symbol
 _atom_site_label
 _atom_site_symmetry_multiplicity
 _atom_site_fract_x
 _atom_site_fract_y
 _atom_site_fract_z
 _atom_site_occupancy
  Cu  Cu0  1  0.25000000  0.77876500  0.76447700  1
  Cu  Cu1  1  0.75000000  0.22123500  0.23552300  1
  Cu  Cu2  1  0.25000000  0.46621900  0.25964200  1
  Cu  Cu3  1  0.75000000  0.53378100  0.74035800  1
  Cu  Cu4  1  0.25000000  0.26438100  0.75760300  1
  Cu  Cu5  1  0.75000000  0.73561900  0.24239700  1
  Ag  Ag0  1  0.25000000  0.61292700  0.45007800  1
  Ag  Ag1  1  0.75000000  0.38707300  0.54992200  1
  Ag  Ag2  1  0.25000000  0.43635100  0.94833600  1
  Ag  Ag3  1  0.75000000  0.56364900  0.05166400  1
  Bi  Bi0  1  0.25000000  0.98989200  0.19243900  1
  Bi  Bi1  1  0.75000000  0.01010800  0.80756100  1
  Bi  Bi2  1  0.25000000  0.94746400  0.44427500  1
  Bi  Bi3  1  0.75000000  0.05253600  0.55572500  1
  Bi  Bi4  1  0.25000000  0.76308400  0.95468200  1
  Bi  Bi5  1  0.75000000  0.23691600  0.04531800  1
  Bi  Bi6  1  0.25000000  0.47972000  0.64673900  1
  Bi  Bi7  1  0.75000000  0.52028000  0.35326100  1
  Bi  Bi8  1  0.25000000  0.36341900  0.14376700  1
  Bi  Bi9  1  0.75000000  0.63658100  0.85623300  1
  Bi  Bi10  1  0.25000000  0.28261700  0.45314900  1
  Bi  Bi11  1  0.75000000  0.71738300  0.54685100  1
  Bi  Bi12  1  0.25000000  0.10085500  0.94390900  1
  Bi  Bi13  1  0.75000000  0.89914500  0.05609100  1
  Pb  Pb0  1  0.25000000  0.81163600  0.65961100  1
  Pb  Pb1  1  0.75000000  0.18836400  0.34038900  1
  Pb  Pb2  1  0.25000000  0.67781600  0.16122200  1
  Pb  Pb3  1  0.75000000  0.32218400  0.83877800  1
  Pb  Pb4  1  0.25000000  0.13729400  0.67247400  1
  Pb  Pb5  1  0.75000000  0.86270600  0.32752600  1
  S  S0  1  0.25000000  0.95926600  0.75298500  1
  S  S1  1  0.75000000  0.04073400  0.24701500  1
  S  S2  1  0.25000000  0.87808200  0.55762400  1
  S  S3  1  0.75000000  0.12191800  0.44237600  1
  S  S4  1  0.25000000  0.80898600  0.25460300  1
  S  S5  1  0.75000000  0.19101400  0.74539700  1
  S  S6  1  0.25000000  0.78918500  0.86094200  1
  S  S7  1  0.75000000  0.21081500  0.13905800  1
  S  S8  1  0.25000000  0.74834900  0.06083200  1
  S  S9  1  0.75000000  0.25165100  0.93916800  1
  S  S10  1  0.25000000  0.65530900  0.36461000  1
  S  S11  1  0.75000000  0.34469100  0.63539000  1
  S  S12  1  0.25000000  0.57722000  0.53694200  1
  S  S13  1  0.75000000  0.42278000  0.46305800  1
  S  S14  1  0.25000000  0.47809200  0.86258400  1
  S  S15  1  0.75000000  0.52190800  0.13741600  1
  S  S16  1  0.25000000  0.44811000  0.73949200  1
  S  S17  1  0.75000000  0.55189000  0.26050800  1
  S  S18  1  0.25000000  0.38764000  0.03539900  1
  S  S19  1  0.75000000  0.61236000  0.96460100  1
  S  S20  1  0.25000000  0.34506600  0.35667600  1
  S  S21  1  0.75000000  0.65493400  0.64332400  1
  S  S22  1  0.25000000  0.30602400  0.23714300  1
  S  S23  1  0.75000000  0.69397600  0.76285700  1
  S  S24  1  0.25000000  0.19562900  0.55640500  1
  S  S25  1  0.75000000  0.80437100  0.44359500  1
  S  S26  1  0.25000000  0.14421600  0.84625400  1
  S  S27  1  0.75000000  0.85578400  0.15374600  1
  S  S28  1  0.25000000  0.06806900  0.04775400  1
  S  S29  1  0.75000000  0.93193100  0.95224600  1
  S  S30  1  0.25000000  0.00822700  0.35226200  1
  S  S31  1  0.75000000  0.99177300  0.64773800  1
loop_
_geom_bond_atom_site_label_1
_geom_bond_atom_site_label_2
_geom_bond_distance
_geom_bond_site_symmetry_2
Cu0 S0 2.265730 1_555
Cu0 S23 2.306111 1_455
Cu0 S23 2.306111 1_555
Cu0 S6 2.855601 1_555
Cu0 Pb0 3.010028 1_555
Cu1 S1 2.265730 1_555
Cu1 S22 2.306111 1_555
Cu1 S22 2.306111 1_655
Cu1 S7 2.855601 1_555
Cu1 Pb1 3.010028 1_555
Cu2 S22 2.283918 1_555
Cu2 S17 2.308947 1_555
Cu2 S17 2.308947 1_455
Cu2 S20 2.936539 1_555
Cu3 S23 2.283918 1_555
Cu3 S16 2.308947 1_555
Cu3 S16 2.308947 1_655
Cu3 S21 2.936539 1_555
Cu4 S5 2.294981 1_555
Cu4 S5 2.294981 1_455
Cu4 S16 2.301395 1_555
Cu4 S26 2.724705 1_555
Cu4 Pb4 3.251823 1_555
Cu5 S4 2.294981 1_555
Cu5 S4 2.294981 1_655
Cu5 S17 2.301395 1_555
Cu5 S27 2.724705 1_555
Cu5 Pb5 3.251823 1_555
Ag0 S10 2.446377 1_555
Ag0 S12 2.487518 1_555
Ag0 S13 3.131047 1_455
Ag0 S13 3.131047 1_555
Ag0 S25 3.157569 1_455
Ag0 S25 3.157569 1_555
Ag1 S11 2.446377 1_555
Ag1 S13 2.487518 1_555
Ag1 S12 3.131047 1_555
Ag1 S12 3.131047 1_655
Ag1 S24 3.157569 1_555
Ag1 S24 3.157569 1_655
Ag2 S14 2.454462 1_555
Ag2 S18 2.493498 1_556
Ag2 S19 3.143044 1_455
Ag2 S19 3.143044 1_555
Ag2 S9 3.170761 1_455
Ag2 S9 3.170761 1_555
Ag3 S15 2.454462 1_555
Ag3 S19 2.493498 1_554
Ag3 S18 3.143044 1_655
Ag3 S18 3.143044 1_555
Ag3 S8 3.170761 1_555
Ag3 S8 3.170761 1_655
Bi0 S4 2.628217 1_555
Bi0 S1 2.744185 1_465
Bi0 S1 2.744185 1_565
Bi0 S27 3.028223 1_455
Bi0 S27 3.028223 1_555
Bi1 S5 2.628217 1_555
Bi1 S0 2.744185 1_545
Bi1 S0 2.744185 1_645
Bi1 S26 3.028223 1_555
Bi1 S26 3.028223 1_655
Bi2 S30 2.642092 1_565
Bi2 S25 2.736964 1_555
Bi2 S25 2.736964 1_455
Bi2 S3 3.010092 1_565
Bi2 S3 3.010092 1_465
Bi2 S2 3.249897 1_555
Bi3 S31 2.642092 1_545
Bi3 S24 2.736964 1_555
Bi3 S24 2.736964 1_655
Bi3 S2 3.010092 1_645
Bi3 S2 3.010092 1_545
Bi3 S3 3.249897 1_555
Bi4 S6 2.694153 1_555
Bi4 S19 2.773313 1_455
Bi4 S19 2.773313 1_555
Bi4 S29 2.955338 1_555
Bi4 S29 2.955338 1_455
Bi4 S8 3.073836 1_556
Bi5 S7 2.694153 1_555
Bi5 S18 2.773313 1_655
Bi5 S18 2.773313 1_555
Bi5 S28 2.955338 1_555
Bi5 S28 2.955338 1_655
Bi5 S9 3.073836 1_554
Bi6 S16 2.660102 1_555
Bi6 S11 2.731245 1_555
Bi6 S11 2.731245 1_455
Bi6 S21 3.011472 1_555
Bi6 S21 3.011472 1_455
Bi6 S12 3.194294 1_555
Bi7 S17 2.660102 1_555
Bi7 S10 2.731245 1_555
Bi7 S10 2.731245 1_655
Bi7 S20 3.011472 1_555
Bi7 S20 3.011472 1_655
Bi7 S13 3.194294 1_555
Bi8 S22 2.677419 1_555
Bi8 S7 2.840680 1_455
Bi8 S7 2.840680 1_555
Bi8 S15 2.848307 1_455
Bi8 S15 2.848307 1_555
Bi8 S18 3.122399 1_555
Bi9 S23 2.677419 1_555
Bi9 S6 2.840680 1_655
Bi9 S6 2.840680 1_555
Bi9 S14 2.848307 1_655
Bi9 S14 2.848307 1_555
Bi9 S19 3.122399 1_555
Bi10 S13 2.764540 1_455
Bi10 S13 2.764540 1_555
Bi10 S20 2.768917 1_555
Bi10 S3 2.954037 1_455
Bi10 S3 2.954037 1_555
Bi10 S24 2.993797 1_555
Bi11 S12 2.764540 1_655
Bi11 S12 2.764540 1_555
Bi11 S21 2.768917 1_555
Bi11 S2 2.954037 1_555
Bi11 S2 2.954037 1_655
Bi11 S25 2.993797 1_555
Bi12 S9 2.784433 1_455
Bi12 S9 2.784433 1_555
Bi12 S26 2.795544 1_555
Bi12 S29 2.938569 1_545
Bi12 S29 2.938569 1_445
Bi12 S28 2.980497 1_556
Bi13 S8 2.784433 1_655
Bi13 S8 2.784433 1_555
Bi13 S27 2.795544 1_555
Bi13 S28 2.938569 1_565
Bi13 S28 2.938569 1_665
Bi13 S29 2.980497 1_554
Pb0 S2 2.927587 1_555
Pb0 S21 2.962395 1_455
Pb0 S21 2.962395 1_555
Pb0 S31 3.037020 1_455
Pb0 S31 3.037020 1_555
Pb1 S3 2.927587 1_555
Pb1 S20 2.962395 1_555
Pb1 S20 2.962395 1_655
Pb1 S30 3.037020 1_555
Pb1 S30 3.037020 1_655
Pb2 S8 2.887473 1_555
Pb2 S27 3.025032 1_455
Pb2 S27 3.025032 1_555
Pb2 S15 3.029314 1_455
Pb2 S15 3.029314 1_555
Pb3 S9 2.887473 1_555
Pb3 S26 3.025032 1_555
Pb3 S26 3.025032 1_655
Pb3 S14 3.029314 1_655
Pb3 S14 3.029314 1_555
Pb4 S0 2.914460 1_545
Pb4 S31 2.946829 1_445
Pb4 S31 2.946829 1_545
Pb4 S5 3.125064 1_555
Pb4 S5 3.125064 1_455
Pb5 S1 2.914460 1_565
Pb5 S30 2.946829 1_565
Pb5 S30 2.946829 1_665
Pb5 S4 3.125064 1_555
Pb5 S4 3.125064 1_655
