# generated using pymatgen
data_CoH2Cl2O
_symmetry_space_group_name_H-M   'P 1'
_cell_length_a   3.57466002
_cell_length_b   8.88091103
_cell_length_c   11.47533903
_cell_angle_alpha   89.99804985
_cell_angle_beta   90.00804419
_cell_angle_gamma   89.99030088
_symmetry_Int_Tables_number   1
_chemical_formula_structural   CoH2Cl2O
_chemical_formula_sum   'Co4 H8 Cl8 O4'
_cell_volume   364.29883066
_cell_formula_units_Z   4
loop_
 _symmetry_equiv_pos_site_id
 _symmetry_equiv_pos_as_xyz
  1  'x, y, z'
loop_
 _atom_site_type_symbol
 _atom_site_label
 _atom_site_symmetry_multiplicity
 _atom_site_fract_x
 _atom_site_fract_y
 _atom_site_fract_z
 _atom_site_occupancy
  Co  Co0  1  0.74995600  0.82069200  0.51869000  1
  Co  Co1  1  0.25002200  0.17930600  0.48130900  1
  Co  Co2  1  0.75000700  0.32063300  0.98130400  1
  Co  Co3  1  0.24998900  0.67936800  0.01869700  1
  H  H0  1  0.74996300  0.19109800  0.76844400  1
  H  H1  1  0.74997200  0.69112500  0.73142900  1
  H  H2  1  0.25002700  0.80890200  0.23155600  1
  H  H3  1  0.25006500  0.30887300  0.26857100  1
  H  H4  1  0.74999500  0.05489000  0.86121400  1
  H  H5  1  0.74993700  0.55485100  0.63869500  1
  H  H6  1  0.25004500  0.94511100  0.13878700  1
  H  H7  1  0.25005600  0.44514900  0.36130400  1
  Cl  Cl0  1  0.24994900  0.19411400  0.09117200  1
  Cl  Cl1  1  0.25008500  0.69406400  0.40879900  1
  Cl  Cl2  1  0.75005500  0.80588600  0.90882900  1
  Cl  Cl3  1  0.74997400  0.30593300  0.59119700  1
  Cl  Cl4  1  0.74993900  0.53425500  0.12257700  1
  Cl  Cl5  1  0.75013600  0.03433600  0.37746600  1
  Cl  Cl6  1  0.25004300  0.46574400  0.87742300  1
  Cl  Cl7  1  0.24981300  0.96567300  0.62253400  1
  O  O0  1  0.75005600  0.16491800  0.85188700  1
  O  O1  1  0.74999600  0.66479500  0.64811300  1
  O  O2  1  0.24993600  0.83508300  0.14811400  1
  O  O3  1  0.24998400  0.33520300  0.35188800  1
loop_
_geom_bond_atom_site_label_1
_geom_bond_atom_site_label_2
_geom_bond_distance
_geom_bond_site_symmetry_2
Co0 O1 2.030384 1_555
Co1 O3 2.030367 1_555
Co2 O0 2.029301 1_555
Co3 O2 2.029301 1_555
H0 O0 0.985352 1_555
H1 O1 0.984267 1_555
H2 O2 0.985343 1_555
H3 O3 0.984278 1_555
H4 O0 0.982990 1_555
H5 O1 0.982370 1_555
H6 O2 0.982990 1_555
H7 O3 0.982385 1_555
Cl0 Co2 2.458543 1_454
Cl0 Co2 2.459378 1_554
Cl1 Co0 2.459252 1_555
Cl1 Co0 2.459903 1_455
Cl2 Co3 2.458518 1_656
Cl2 Co3 2.459395 1_556
Cl3 Co1 2.459441 1_555
Cl3 Co1 2.459671 1_655
Cl4 Co2 2.495509 1_554
Cl4 Co3 2.504849 1_555
Cl4 Co3 2.505654 1_655
Cl5 Co0 2.495208 1_545
Cl5 Co1 2.504184 1_655
Cl5 Co1 2.504693 1_555
Cl6 Co3 2.495530 1_556
Cl6 Co2 2.504881 1_555
Cl6 Co2 2.505615 1_455
Cl7 Co1 2.495141 1_565
Cl7 Co0 2.504165 1_455
Cl7 Co0 2.504823 1_555
