# generated using pymatgen
data_Cu3Bi2(PO7)2
_symmetry_space_group_name_H-M   'P 1'
_cell_length_a   6.11126200
_cell_length_b   9.41686825
_cell_length_c   22.33569421
_cell_angle_alpha   116.66560748
_cell_angle_beta   90.00000000
_cell_angle_gamma   90.00000000
_symmetry_Int_Tables_number   1
_chemical_formula_structural   Cu3Bi2(PO7)2
_chemical_formula_sum   'Cu12 Bi8 P8 O56'
_cell_volume   1148.68224390
_cell_formula_units_Z   4
loop_
 _symmetry_equiv_pos_site_id
 _symmetry_equiv_pos_as_xyz
  1  'x, y, z'
loop_
 _atom_site_type_symbol
 _atom_site_label
 _atom_site_symmetry_multiplicity
 _atom_site_fract_x
 _atom_site_fract_y
 _atom_site_fract_z
 _atom_site_occupancy
  Cu  Cu0  1  0.50000000  0.50000000  0.50000000  1
  Cu  Cu1  1  0.00000000  0.00000000  0.00000000  1
  Cu  Cu2  1  0.00000000  0.50000000  0.50000000  1
  Cu  Cu3  1  0.50000000  0.00000000  0.00000000  1
  Cu  Cu4  1  0.76815600  0.87603700  0.62359400  1
  Cu  Cu5  1  0.73184400  0.37603700  0.12359400  1
  Cu  Cu6  1  0.23184400  0.12396300  0.37640600  1
  Cu  Cu7  1  0.26815600  0.62396300  0.87640600  1
  Cu  Cu8  1  0.03608100  0.24868200  0.74901100  1
  Cu  Cu9  1  0.46391900  0.74868200  0.24901100  1
  Cu  Cu10  1  0.96391900  0.75131800  0.25098900  1
  Cu  Cu11  1  0.53608100  0.25131800  0.75098900  1
  Bi  Bi0  1  0.24606600  0.85522900  0.53719500  1
  Bi  Bi1  1  0.25393400  0.35522900  0.03719500  1
  Bi  Bi2  1  0.75393400  0.14477100  0.46280500  1
  Bi  Bi3  1  0.74606600  0.64477100  0.96280500  1
  Bi  Bi4  1  0.29020900  0.89486100  0.70955300  1
  Bi  Bi5  1  0.20979100  0.39486100  0.20955300  1
  Bi  Bi6  1  0.70979100  0.10513900  0.29044700  1
  Bi  Bi7  1  0.79020900  0.60513900  0.79044700  1
  P  P0  1  0.23475800  0.23074600  0.52839800  1
  P  P1  1  0.26524200  0.73074600  0.02839800  1
  P  P2  1  0.76524200  0.76925400  0.47160200  1
  P  P3  1  0.73475800  0.26925400  0.97160200  1
  P  P4  1  0.27702600  0.52180900  0.72455200  1
  P  P5  1  0.22297400  0.02180900  0.22455200  1
  P  P6  1  0.72297400  0.47819100  0.27544800  1
  P  P7  1  0.77702600  0.97819100  0.77544800  1
  O  O0  1  0.22311500  0.14694800  0.57264800  1
  O  O1  1  0.27688500  0.64694800  0.07264800  1
  O  O2  1  0.77688500  0.85305200  0.42735200  1
  O  O3  1  0.72311500  0.35305200  0.92735200  1
  O  O4  1  0.45705200  0.31669200  0.53534200  1
  O  O5  1  0.04294800  0.81669200  0.03534200  1
  O  O6  1  0.54294800  0.68330800  0.46465800  1
  O  O7  1  0.95705200  0.18330800  0.96465800  1
  O  O8  1  0.20898300  0.08957600  0.45426700  1
  O  O9  1  0.29101700  0.58957600  0.95426700  1
  O  O10  1  0.79101700  0.91042400  0.54573300  1
  O  O11  1  0.70898300  0.41042400  0.04573300  1
  O  O12  1  0.03374200  0.34287300  0.54132800  1
  O  O13  1  0.46625800  0.84287300  0.04132800  1
  O  O14  1  0.96625800  0.65712700  0.45867200  1
  O  O15  1  0.53374200  0.15712700  0.95867200  1
  O  O16  1  0.27761800  0.60630800  0.68052400  1
  O  O17  1  0.22238200  0.10630800  0.18052400  1
  O  O18  1  0.72238200  0.39369200  0.31947600  1
  O  O19  1  0.77761800  0.89369200  0.81947600  1
  O  O20  1  0.49649600  0.43232300  0.71834900  1
  O  O21  1  0.00350400  0.93232300  0.21834900  1
  O  O22  1  0.50350400  0.56767700  0.28165100  1
  O  O23  1  0.99649600  0.06767700  0.78165100  1
  O  O24  1  0.07235000  0.41197400  0.70941700  1
  O  O25  1  0.42765000  0.91197400  0.20941700  1
  O  O26  1  0.92765000  0.58802600  0.29058300  1
  O  O27  1  0.57235000  0.08802600  0.79058300  1
  O  O28  1  0.24832500  0.66037000  0.79890400  1
  O  O29  1  0.25167500  0.16037000  0.29890400  1
  O  O30  1  0.75167500  0.33963000  0.20109600  1
  O  O31  1  0.74832500  0.83963000  0.70109600  1
  O  O32  1  0.47123100  0.88481000  0.62098000  1
  O  O33  1  0.02876900  0.38481000  0.12098000  1
  O  O34  1  0.52876900  0.11519000  0.37902000  1
  O  O35  1  0.97123100  0.61519000  0.87902000  1
  O  O36  1  0.06512600  0.86895200  0.62620500  1
  O  O37  1  0.43487400  0.36895200  0.12620500  1
  O  O38  1  0.93487400  0.13104800  0.37379500  1
  O  O39  1  0.56512600  0.63104800  0.87379500  1
  O  O40  1  0.28799400  0.13216700  0.70387200  1
  O  O41  1  0.21200600  0.63216700  0.20387200  1
  O  O42  1  0.71200600  0.86783300  0.29612800  1
  O  O43  1  0.78799400  0.36783300  0.79612800  1
  O  O44  1  0.25139300  0.61944500  0.54462100  1
  O  O45  1  0.24860700  0.11944500  0.04462100  1
  O  O46  1  0.74860700  0.38055500  0.45537900  1
  O  O47  1  0.75139300  0.88055500  0.95537900  1
  O  O48  1  0.74390300  0.60537800  0.55737500  1
  O  O49  1  0.75609700  0.10537800  0.05737500  1
  O  O50  1  0.25609700  0.39462200  0.44262500  1
  O  O51  1  0.24390300  0.89462200  0.94262500  1
  O  O52  1  0.78174200  0.14868900  0.69256900  1
  O  O53  1  0.71825800  0.64868900  0.19256900  1
  O  O54  1  0.21825800  0.85131100  0.30743100  1
  O  O55  1  0.28174200  0.35131100  0.80743100  1
loop_
_geom_bond_atom_site_label_1
_geom_bond_atom_site_label_2
_geom_bond_distance
_geom_bond_site_symmetry_2
Cu0 O46 1.886943 1_555
Cu0 O44 1.886943 1_555
Cu0 O48 1.925442 1_555
Cu0 O50 1.925442 1_555
Cu0 O6 2.212419 1_555
Cu0 O4 2.212419 1_555
Cu1 O45 1.886943 1_555
Cu1 O47 1.886943 1_444
Cu1 O51 1.925442 1_544
Cu1 O49 1.925442 1_455
Cu1 O7 2.212419 1_454
Cu1 O5 2.212419 1_545
Cu2 O46 1.900679 1_455
Cu2 O44 1.900679 1_555
Cu2 O48 1.983692 1_455
Cu2 O50 1.983692 1_555
Cu2 O14 2.076029 1_455
Cu2 O12 2.076029 1_555
Cu3 O45 1.900679 1_555
Cu3 O47 1.900679 1_544
Cu3 O51 1.983692 1_544
Cu3 O49 1.983692 1_555
Cu3 O13 2.076029 1_545
Cu3 O15 2.076029 1_554
Cu4 O36 1.817984 1_655
Cu4 O32 1.818595 1_555
Cu4 O10 1.911605 1_555
Cu4 O31 1.913500 1_555
Cu4 O48 2.306977 1_555
Cu4 O52 2.328561 1_565
Cu5 O37 1.817984 1_555
Cu5 O33 1.818595 1_655
Cu5 O11 1.911605 1_555
Cu5 O30 1.913500 1_555
Cu5 O49 2.306977 1_555
Cu5 O53 2.328561 1_555
Cu6 O38 1.817984 1_455
Cu6 O34 1.818595 1_555
Cu6 O8 1.911605 1_555
Cu6 O29 1.913500 1_555
Cu6 O50 2.306977 1_555
Cu6 O54 2.328561 1_545
Cu7 O39 1.817984 1_555
Cu7 O35 1.818595 1_455
Cu7 O9 1.911605 1_555
Cu7 O28 1.913500 1_555
Cu7 O51 2.306977 1_555
Cu7 O55 2.328561 1_555
Cu8 O40 1.896716 1_555
Cu8 O43 1.898750 1_455
Cu8 O55 1.938726 1_555
Cu8 O52 1.956122 1_455
Cu8 O24 2.101504 1_555
Cu8 O23 2.147252 1_455
Cu9 O41 1.896716 1_555
Cu9 O42 1.898750 1_555
Cu9 O54 1.938726 1_555
Cu9 O53 1.956122 1_555
Cu9 O25 2.101504 1_555
Cu9 O22 2.147252 1_555
Cu10 O42 1.896716 1_555
Cu10 O41 1.898750 1_655
Cu10 O53 1.938726 1_555
Cu10 O54 1.956122 1_655
Cu10 O26 2.101504 1_555
Cu10 O21 2.147252 1_655
Cu11 O43 1.896716 1_555
Cu11 O40 1.898750 1_555
Cu11 O52 1.938726 1_555
Cu11 O55 1.956122 1_555
Cu11 O27 2.101504 1_555
Cu11 O20 2.147252 1_555
Bi0 O36 2.227414 1_555
Bi0 O32 2.237256 1_555
Bi0 O44 2.299797 1_555
Bi0 O6 2.486651 1_555
Bi0 O0 2.498135 1_565
Bi0 O14 2.558023 1_455
Bi1 O37 2.227414 1_555
Bi1 O33 2.237256 1_555
Bi1 O45 2.299797 1_555
Bi1 O7 2.486651 1_454
Bi1 O1 2.498135 1_555
Bi1 O15 2.558023 1_554
Bi2 O38 2.227414 1_555
Bi2 O34 2.237256 1_555
Bi2 O46 2.299797 1_555
Bi2 O4 2.486651 1_555
Bi2 O2 2.498135 1_545
Bi2 O12 2.558023 1_655
Bi3 O39 2.227414 1_555
Bi3 O35 2.237256 1_555
Bi3 O47 2.299797 1_555
Bi3 O5 2.486651 1_656
Bi3 O3 2.498135 1_555
Bi3 O13 2.558023 1_556
Bi4 O32 2.231268 1_555
Bi4 O36 2.238224 1_555
Bi4 O40 2.294469 1_565
Bi4 O23 2.472101 1_465
Bi4 O16 2.495696 1_555
Bi4 O27 2.569526 1_565
Bi5 O33 2.231268 1_555
Bi5 O37 2.238224 1_555
Bi5 O41 2.294469 1_555
Bi5 O22 2.472101 1_555
Bi5 O17 2.495696 1_555
Bi5 O26 2.569526 1_455
Bi6 O34 2.231268 1_555
Bi6 O38 2.238224 1_555
Bi6 O42 2.294469 1_545
Bi6 O21 2.472101 1_645
Bi6 O18 2.495696 1_555
Bi6 O25 2.569526 1_545
Bi7 O35 2.231268 1_555
Bi7 O39 2.238224 1_555
Bi7 O43 2.294469 1_555
Bi7 O20 2.472101 1_555
Bi7 O19 2.495696 1_555
Bi7 O24 2.569526 1_655
O0 P0 1.518105 1_555
O1 P1 1.518105 1_555
O2 P2 1.518105 1_555
O3 P3 1.518105 1_555
O4 P0 1.553040 1_555
O5 P1 1.553040 1_555
O6 P2 1.553040 1_555
O7 P3 1.553040 1_555
O8 P0 1.599361 1_555
O9 P1 1.599361 1_556
O10 P2 1.599361 1_555
O11 P3 1.599361 1_554
O12 P0 1.560036 1_555
O13 P1 1.560036 1_555
O14 P2 1.560036 1_555
O15 P3 1.560036 1_555
O16 P4 1.517430 1_555
O17 P5 1.517430 1_555
O18 P6 1.517430 1_555
O19 P7 1.517430 1_555
O20 P4 1.556737 1_555
O21 P5 1.556737 1_565
O22 P6 1.556737 1_555
O23 P7 1.556737 1_545
O24 P4 1.560385 1_555
O25 P5 1.560385 1_565
O26 P6 1.560385 1_555
O27 P7 1.560385 1_545
O28 P4 1.595711 1_555
O29 P5 1.595711 1_555
O30 P6 1.595711 1_555
O31 P7 1.595711 1_555
