# generated using pymatgen
data_KNb2(PS6)2
_symmetry_space_group_name_H-M   'P 1'
_cell_length_a   13.24662879
_cell_length_b   13.24662879
_cell_length_c   13.24662879
_cell_angle_alpha   119.40845756
_cell_angle_beta   104.83460209
_cell_angle_gamma   104.65143946
_symmetry_Int_Tables_number   1
_chemical_formula_structural   KNb2(PS6)2
_chemical_formula_sum   'K4 Nb8 P8 S48'
_cell_volume   1748.36588146
_cell_formula_units_Z   4
loop_
 _symmetry_equiv_pos_site_id
 _symmetry_equiv_pos_as_xyz
  1  'x, y, z'
loop_
 _atom_site_type_symbol
 _atom_site_label
 _atom_site_symmetry_multiplicity
 _atom_site_fract_x
 _atom_site_fract_y
 _atom_site_fract_z
 _atom_site_occupancy
  K  K0  1  0.31845600  0.25000000  0.56845600  1
  K  K1  1  0.18154400  0.75000000  0.93154400  1
  K  K2  1  0.68154400  0.75000000  0.43154400  1
  K  K3  1  0.81845600  0.25000000  0.06845600  1
  Nb  Nb0  1  0.25040600  0.55671700  0.44485400  1
  Nb  Nb1  1  0.61186300  0.80555200  0.05514600  1
  Nb  Nb2  1  0.24959400  0.69444800  0.30631100  1
  Nb  Nb3  1  0.88813700  0.94328300  0.19368900  1
  Nb  Nb4  1  0.11186300  0.05671700  0.80631100  1
  Nb  Nb5  1  0.75040600  0.30555200  0.69368900  1
  Nb  Nb6  1  0.38813700  0.19444800  0.94485400  1
  Nb  Nb7  1  0.74959400  0.44328300  0.55514600  1
  P  P0  1  0.43077700  0.68077700  0.75000000  1
  P  P1  1  0.06922300  0.81922300  0.25000000  1
  P  P2  1  0.93008400  0.75000000  0.68008400  1
  P  P3  1  0.56991600  0.25000000  0.81991600  1
  P  P4  1  0.93077700  0.18077700  0.75000000  1
  P  P5  1  0.56922300  0.31922300  0.25000000  1
  P  P6  1  0.43008400  0.75000000  0.18008400  1
  P  P7  1  0.06991600  0.25000000  0.31991600  1
  S  S0  1  0.74915400  0.70138900  0.04041000  1
  S  S1  1  0.16097900  0.70874400  0.45959000  1
  S  S2  1  0.75084600  0.79125600  0.95223500  1
  S  S3  1  0.33902100  0.79861100  0.54776500  1
  S  S4  1  0.66118800  0.45931800  0.70813600  1
  S  S5  1  0.25118200  0.95305200  0.79186400  1
  S  S6  1  0.83881200  0.54694800  0.79813000  1
  S  S7  1  0.24881800  0.04068200  0.70187000  1
  S  S8  1  0.46642200  0.33903900  0.87240900  1
  S  S9  1  0.96663100  0.59401300  0.62759100  1
  S  S10  1  0.03357800  0.90598700  0.87261700  1
  S  S11  1  0.53336900  0.16096100  0.62738300  1
  S  S12  1  0.46522600  0.62585000  0.59296500  1
  S  S13  1  0.53288500  0.87226100  0.90703500  1
  S  S14  1  0.03477400  0.62773900  0.16062400  1
  S  S15  1  0.96711500  0.87415000  0.33937600  1
  S  S16  1  0.83902100  0.29125600  0.54041000  1
  S  S17  1  0.25084600  0.29861100  0.95959000  1
  S  S18  1  0.66097900  0.20138900  0.45223500  1
  S  S19  1  0.24915400  0.20874400  0.04776500  1
  S  S20  1  0.75118200  0.95931800  0.29813000  1
  S  S21  1  0.16118800  0.45305200  0.20187000  1
  S  S22  1  0.74881800  0.04694800  0.20813600  1
  S  S23  1  0.33881200  0.54068200  0.29186400  1
  S  S24  1  0.24529100  0.33381400  0.37370700  1
  S  S25  1  0.46010700  0.87158400  0.12629300  1
  S  S26  1  0.25470900  0.62841600  0.08852300  1
  S  S27  1  0.03989300  0.16618600  0.41147700  1
  S  S28  1  0.95922300  0.12549500  0.87065600  1
  S  S29  1  0.75484000  0.08856700  0.62934500  1
  S  S30  1  0.54077700  0.41143300  0.16627200  1
  S  S31  1  0.74516000  0.37450500  0.33372800  1
  S  S32  1  0.25484000  0.62549500  0.66627200  1
  S  S33  1  0.45922300  0.58856700  0.83372800  1
  S  S34  1  0.24516000  0.91143300  0.37065500  1
  S  S35  1  0.04077700  0.87450500  0.12934500  1
  S  S36  1  0.96010700  0.83381400  0.58852300  1
  S  S37  1  0.74529100  0.37158400  0.91147700  1
  S  S38  1  0.53989300  0.12841600  0.87370700  1
  S  S39  1  0.75470900  0.66618600  0.62629300  1
  S  S40  1  0.03336900  0.40598700  0.37240900  1
  S  S41  1  0.53357800  0.66096100  0.12759100  1
  S  S42  1  0.46663100  0.83903900  0.37261700  1
  S  S43  1  0.96642200  0.09401300  0.12738300  1
  S  S44  1  0.03288500  0.12585000  0.66062400  1
  S  S45  1  0.96522600  0.37226100  0.83937600  1
  S  S46  1  0.46711500  0.12773900  0.09296500  1
  S  S47  1  0.53477400  0.37415000  0.40703500  1
loop_
_geom_bond_atom_site_label_1
_geom_bond_atom_site_label_2
_geom_bond_distance
_geom_bond_site_symmetry_2
K0 S24 3.302131 1_555
K0 S27 3.302131 1_555
K0 S11 3.401472 1_555
K0 S8 3.401484 1_555
K0 S34 3.588343 1_545
K0 S33 3.588345 1_555
K1 S26 3.302131 1_556
K1 S25 3.302131 1_556
K1 S9 3.401479 1_455
K1 S10 3.401484 1_555
K1 S35 3.588354 1_556
K1 S32 3.588354 1_555
K2 S36 3.302131 1_555
K2 S39 3.302131 1_555
K2 S42 3.401472 1_555
K2 S41 3.401484 1_555
K2 S29 3.588343 1_565
K2 S30 3.588345 1_555
K3 S38 3.302131 1_554
K3 S37 3.302131 1_554
K3 S40 3.401479 1_655
K3 S43 3.401484 1_555
K3 S28 3.588345 1_554
K3 S31 3.588354 1_555
Nb0 S1 2.536956 1_555
Nb0 S23 2.538115 1_555
Nb0 S3 2.547886 1_555
Nb0 S21 2.555978 1_555
Nb0 S32 2.587791 1_555
Nb0 S24 2.597023 1_555
Nb0 S12 2.616101 1_555
Nb0 S40 2.640988 1_555
Nb1 S0 2.536956 1_555
Nb1 S22 2.538115 1_565
Nb1 S2 2.547886 1_554
Nb1 S20 2.555978 1_555
Nb1 S33 2.587796 1_554
Nb1 S25 2.597023 1_555
Nb1 S13 2.616101 1_554
Nb1 S41 2.640977 1_555
Nb2 S3 2.536956 1_555
Nb2 S21 2.538115 1_555
Nb2 S1 2.547886 1_555
Nb2 S23 2.555978 1_555
Nb2 S34 2.587804 1_555
Nb2 S26 2.597023 1_555
Nb2 S14 2.616101 1_555
Nb2 S42 2.640988 1_555
Nb3 S2 2.536956 1_554
Nb3 S20 2.538115 1_555
Nb3 S0 2.547886 1_555
Nb3 S22 2.555978 1_565
Nb3 S35 2.587791 1_655
Nb3 S27 2.597023 1_665
Nb3 S15 2.616101 1_555
Nb3 S43 2.640977 1_565
Nb4 S19 2.536956 1_556
Nb4 S7 2.538115 1_555
Nb4 S17 2.547886 1_555
Nb4 S5 2.555978 1_545
Nb4 S28 2.587796 1_455
Nb4 S36 2.597023 1_445
Nb4 S44 2.616101 1_555
Nb4 S10 2.640977 1_545
Nb5 S18 2.536956 1_555
Nb5 S6 2.538115 1_555
Nb5 S16 2.547886 1_555
Nb5 S4 2.555978 1_555
Nb5 S29 2.587804 1_555
Nb5 S37 2.597023 1_555
Nb5 S45 2.616101 1_555
Nb5 S11 2.640988 1_555
Nb6 S17 2.536956 1_555
Nb6 S5 2.538115 1_545
Nb6 S19 2.547886 1_556
Nb6 S7 2.555978 1_555
Nb6 S30 2.587796 1_556
Nb6 S38 2.597023 1_555
Nb6 S46 2.616101 1_556
Nb6 S8 2.640977 1_555
Nb7 S16 2.536956 1_555
Nb7 S4 2.538115 1_555
Nb7 S18 2.547886 1_555
Nb7 S6 2.555978 1_555
Nb7 S31 2.587791 1_555
Nb7 S39 2.597023 1_555
Nb7 S47 2.616101 1_555
Nb7 S9 2.640988 1_555
P0 S32 2.052645 1_555
P0 S33 2.052657 1_555
P0 S12 2.057293 1_555
P0 S13 2.057293 1_555
P1 S34 2.052644 1_555
P1 S35 2.052645 1_555
P1 S14 2.057293 1_555
P1 S15 2.057293 1_455
P2 S36 2.051334 1_555
P2 S39 2.051334 1_555
P2 S10 2.062730 1_655
P2 S9 2.062737 1_555
P3 S38 2.051334 1_555
P3 S37 2.051334 1_555
P3 S11 2.062727 1_555
P3 S8 2.062730 1_555
P4 S29 2.052644 1_555
P4 S28 2.052657 1_555
P4 S45 2.057293 1_555
P4 S44 2.057293 1_655
P5 S31 2.052645 1_555
P5 S30 2.052657 1_555
P5 S46 2.057293 1_555
P5 S47 2.057293 1_555
P6 S25 2.051334 1_555
P6 S26 2.051334 1_555
P6 S42 2.062727 1_555
P6 S41 2.062730 1_555
P7 S24 2.051334 1_555
P7 S27 2.051334 1_555
P7 S43 2.062730 1_455
P7 S40 2.062737 1_555
S0 S2 2.036501 1_554
S1 S3 2.036501 1_555
S4 S6 2.031711 1_555
S5 S7 2.031711 1_565
S16 S18 2.036501 1_555
S17 S19 2.036501 1_556
S20 S22 2.031711 1_565
S21 S23 2.031711 1_555
