# generated using pymatgen
data_Ba2B5O11
_symmetry_space_group_name_H-M   'P 1'
_cell_length_a   16.60913300
_cell_length_b   6.79983900
_cell_length_c   8.40067713
_cell_angle_alpha   73.72019708
_cell_angle_beta   90.00000000
_cell_angle_gamma   90.00000000
_symmetry_Int_Tables_number   1
_chemical_formula_structural   Ba2B5O11
_chemical_formula_sum   'Ba8 B20 O44'
_cell_volume   910.72606057
_cell_formula_units_Z   4
loop_
 _symmetry_equiv_pos_site_id
 _symmetry_equiv_pos_as_xyz
  1  'x, y, z'
loop_
 _atom_site_type_symbol
 _atom_site_label
 _atom_site_symmetry_multiplicity
 _atom_site_fract_x
 _atom_site_fract_y
 _atom_site_fract_z
 _atom_site_occupancy
  Ba  Ba0  1  0.28399800  0.53172500  0.89995200  1
  Ba  Ba1  1  0.78399800  0.46827500  0.60004800  1
  Ba  Ba2  1  0.71600200  0.46827500  0.10004800  1
  Ba  Ba3  1  0.21600200  0.53172500  0.39995200  1
  Ba  Ba4  1  0.43233900  0.09811500  0.69094400  1
  Ba  Ba5  1  0.93233900  0.90188500  0.80905600  1
  Ba  Ba6  1  0.56766100  0.90188500  0.30905600  1
  Ba  Ba7  1  0.06766100  0.09811500  0.19094400  1
  B  B0  1  0.24207500  0.02379000  0.86534400  1
  B  B1  1  0.74207500  0.97621000  0.63465600  1
  B  B2  1  0.75792500  0.97621000  0.13465600  1
  B  B3  1  0.25792500  0.02379000  0.36534400  1
  B  B4  1  0.58240800  0.36042800  0.79139400  1
  B  B5  1  0.08240800  0.63957200  0.70860600  1
  B  B6  1  0.41759200  0.63957200  0.20860600  1
  B  B7  1  0.91759200  0.36042800  0.29139400  1
  B  B8  1  0.66214400  0.01354400  0.87723500  1
  B  B9  1  0.16214400  0.98645600  0.62276500  1
  B  B10  1  0.33785600  0.98645600  0.12276500  1
  B  B11  1  0.83785600  0.01354400  0.37723500  1
  B  B12  1  0.37135400  0.26784200  0.25628300  1
  B  B13  1  0.87135400  0.73215800  0.24371700  1
  B  B14  1  0.62864600  0.73215800  0.74371700  1
  B  B15  1  0.12864600  0.26784200  0.75628300  1
  B  B16  1  0.48109500  0.64047000  0.71350500  1
  B  B17  1  0.98109500  0.35953000  0.78649500  1
  B  B18  1  0.51890500  0.35953000  0.28649500  1
  B  B19  1  0.01890500  0.64047000  0.21350500  1
  O  O0  1  0.59234700  0.15316600  0.82487800  1
  O  O1  1  0.09234700  0.84683400  0.67512200  1
  O  O2  1  0.40765300  0.84683400  0.17512200  1
  O  O3  1  0.90765300  0.15316600  0.32487800  1
  O  O4  1  0.55016700  0.78073600  0.65935200  1
  O  O5  1  0.05016700  0.21926400  0.84064800  1
  O  O6  1  0.44983300  0.21926400  0.34064800  1
  O  O7  1  0.94983300  0.78073600  0.15935200  1
  O  O8  1  0.36164500  0.19709300  0.10924500  1
  O  O9  1  0.86164500  0.80290700  0.39075500  1
  O  O10  1  0.63835500  0.80290700  0.89075500  1
  O  O11  1  0.13835500  0.19709300  0.60924500  1
  O  O12  1  0.31026900  0.96256800  0.95976400  1
  O  O13  1  0.81026900  0.03743200  0.54023600  1
  O  O14  1  0.68973100  0.03743200  0.04023600  1
  O  O15  1  0.18973100  0.96256800  0.45976400  1
  O  O16  1  0.35719800  0.49921400  0.20597600  1
  O  O17  1  0.85719800  0.50078600  0.29402400  1
  O  O18  1  0.64280200  0.50078600  0.79402400  1
  O  O19  1  0.14280200  0.49921400  0.70597600  1
  O  O20  1  0.19252500  0.17908100  0.88325200  1
  O  O21  1  0.69252500  0.82091900  0.61674800  1
  O  O22  1  0.80747500  0.82091900  0.11674800  1
  O  O23  1  0.30747500  0.17908100  0.38325200  1
  O  O24  1  0.22944000  0.92434700  0.74523100  1
  O  O25  1  0.72944000  0.07565300  0.75476900  1
  O  O26  1  0.77056000  0.07565300  0.25476900  1
  O  O27  1  0.27056000  0.92434700  0.24523100  1
  O  O28  1  0.50489500  0.42702700  0.74539300  1
  O  O29  1  0.00489500  0.57297300  0.75460700  1
  O  O30  1  0.49510500  0.57297300  0.25460700  1
  O  O31  1  0.99510500  0.42702700  0.24539300  1
  O  O32  1  0.41474200  0.70556900  0.59392000  1
  O  O33  1  0.91474200  0.29443100  0.90608000  1
  O  O34  1  0.58525800  0.29443100  0.40608000  1
  O  O35  1  0.08525800  0.70556900  0.09392000  1
  O  O36  1  0.43774500  0.68864000  0.84762200  1
  O  O37  1  0.93774500  0.31136000  0.65237800  1
  O  O38  1  0.56225500  0.31136000  0.15237800  1
  O  O39  1  0.06225500  0.68864000  0.34762200  1
  O  O40  1  0.33408400  0.43423300  0.63372200  1
  O  O41  1  0.83408400  0.56576700  0.86627800  1
  O  O42  1  0.66591600  0.56576700  0.36627800  1
  O  O43  1  0.16591600  0.43423300  0.13372200  1
loop_
_geom_bond_atom_site_label_1
_geom_bond_atom_site_label_2
_geom_bond_distance
_geom_bond_site_symmetry_2
Ba0 O40 2.639082 1_555
Ba0 O43 2.722617 1_556
Ba0 O36 2.754932 1_555
Ba0 O8 2.772923 1_556
Ba0 O24 2.773562 1_555
Ba0 O16 2.795968 1_556
Ba0 O20 2.875162 1_555
Ba0 O19 2.899294 1_555
Ba0 O12 3.138645 1_555
Ba1 O41 2.639082 1_555
Ba1 O42 2.722617 1_555
Ba1 O37 2.754932 1_555
Ba1 O9 2.772923 1_555
Ba1 O25 2.773562 1_555
Ba1 O17 2.795968 1_555
Ba1 O21 2.875162 1_555
Ba1 O18 2.899294 1_555
Ba1 O13 3.138645 1_555
Ba2 O42 2.639082 1_555
Ba2 O41 2.722617 1_554
Ba2 O38 2.754932 1_555
Ba2 O10 2.772923 1_554
Ba2 O26 2.773562 1_555
Ba2 O18 2.795968 1_554
Ba2 O22 2.875162 1_555
Ba2 O17 2.899294 1_555
Ba2 O14 3.138645 1_555
Ba3 O43 2.639082 1_555
Ba3 O40 2.722617 1_555
Ba3 O39 2.754932 1_555
Ba3 O11 2.772923 1_555
Ba3 O27 2.773562 1_555
Ba3 O19 2.795968 1_555
Ba3 O23 2.875162 1_555
Ba3 O16 2.899294 1_555
Ba3 O15 3.138645 1_555
Ba4 O28 2.690201 1_555
Ba4 O36 2.727351 1_545
Ba4 O40 2.738983 1_555
Ba4 O6 2.839637 1_555
Ba4 O0 2.950425 1_555
Ba4 O4 2.979764 1_545
Ba4 O12 2.982113 1_545
Ba4 O32 3.015696 1_545
Ba4 O23 3.238447 1_555
Ba5 O29 2.690201 1_655
Ba5 O37 2.727351 1_565
Ba5 O41 2.738983 1_555
Ba5 O7 2.839637 1_556
Ba5 O1 2.950425 1_655
Ba5 O5 2.979764 1_665
Ba5 O13 2.982113 1_565
Ba5 O33 3.015696 1_565
Ba5 O22 3.238447 1_556
Ba6 O30 2.690201 1_555
Ba6 O38 2.727351 1_565
Ba6 O42 2.738983 1_555
Ba6 O4 2.839637 1_555
Ba6 O2 2.950425 1_555
Ba6 O6 2.979764 1_565
Ba6 O14 2.982113 1_565
Ba6 O34 3.015696 1_565
Ba6 O21 3.238447 1_555
Ba7 O31 2.690201 1_455
Ba7 O39 2.727351 1_545
Ba7 O43 2.738983 1_555
Ba7 O5 2.839637 1_554
Ba7 O3 2.950425 1_455
Ba7 O7 2.979764 1_445
Ba7 O15 2.982113 1_545
Ba7 O35 3.015696 1_545
Ba7 O20 3.238447 1_554
B0 O12 1.378480 1_545
B0 O24 1.379116 1_545
B0 O20 1.379868 1_555
B1 O13 1.378480 1_565
B1 O25 1.379116 1_565
B1 O21 1.379868 1_555
B2 O14 1.378480 1_565
B2 O26 1.379116 1_565
B2 O22 1.379868 1_555
B3 O15 1.378480 1_545
B3 O27 1.379116 1_545
B3 O23 1.379868 1_555
B4 O0 1.367616 1_555
B4 O28 1.383388 1_555
B4 O18 1.389031 1_555
B5 O1 1.367616 1_555
B5 O29 1.383388 1_555
B5 O19 1.389031 1_555
B6 O2 1.367616 1_555
B6 O30 1.383388 1_555
B6 O16 1.389031 1_555
B7 O3 1.367616 1_555
B7 O31 1.383388 1_555
B7 O17 1.389031 1_555
B8 O10 1.459207 1_545
B8 O0 1.484793 1_555
B8 O14 1.495348 1_556
B8 O25 1.497499 1_555
B9 O11 1.459207 1_565
B9 O1 1.484793 1_555
B9 O15 1.495348 1_555
B9 O24 1.497499 1_555
B10 O8 1.459207 1_565
B10 O2 1.484793 1_555
B10 O12 1.495348 1_554
B10 O27 1.497499 1_555
B11 O9 1.459207 1_545
B11 O3 1.484793 1_555
B11 O13 1.495348 1_555
B11 O26 1.497499 1_555
B12 O8 1.454776 1_555
B12 O6 1.476204 1_555
B12 O23 1.505559 1_555
B12 O16 1.528514 1_555
B13 O9 1.454776 1_555
B13 O7 1.476204 1_555
B13 O22 1.505559 1_555
B13 O17 1.528514 1_555
B14 O10 1.454776 1_555
B14 O4 1.476204 1_555
B14 O21 1.505559 1_555
B14 O18 1.528514 1_555
B15 O11 1.454776 1_555
B15 O5 1.476204 1_555
B15 O20 1.505559 1_555
B15 O19 1.528514 1_555
B16 O36 1.449826 1_555
B16 O28 1.454832 1_555
B16 O32 1.473224 1_555
B16 O4 1.479703 1_555
B17 O37 1.449826 1_555
B17 O29 1.454832 1_655
B17 O33 1.473224 1_555
B17 O5 1.479703 1_655
B18 O38 1.449826 1_555
B18 O30 1.454832 1_555
B18 O34 1.473224 1_555
B18 O6 1.479703 1_555
B19 O39 1.449826 1_555
B19 O31 1.454832 1_455
B19 O35 1.473224 1_555
B19 O7 1.479703 1_455
