# generated using pymatgen
data_RbEu3
_symmetry_space_group_name_H-M   'P 1'
_cell_length_a   7.37718200
_cell_length_b   7.37718200
_cell_length_c   7.37718200
_cell_angle_alpha   132.33250943
_cell_angle_beta   132.33250943
_cell_angle_gamma   69.70436868
_symmetry_Int_Tables_number   1
_chemical_formula_structural   RbEu3
_chemical_formula_sum   'Rb1 Eu3'
_cell_volume   215.18991854
_cell_formula_units_Z   1
loop_
 _symmetry_equiv_pos_site_id
 _symmetry_equiv_pos_as_xyz
  1  'x, y, z'
loop_
 _atom_site_type_symbol
 _atom_site_label
 _atom_site_symmetry_multiplicity
 _atom_site_fract_x
 _atom_site_fract_y
 _atom_site_fract_z
 _atom_site_occupancy
  Rb  Rb0  1  0.00000000  0.00000000  0.00000000  1
  Eu  Eu0  1  0.75000000  0.25000000  0.50000000  1
  Eu  Eu1  1  0.25000000  0.75000000  0.50000000  1
  Eu  Eu2  1  0.50000000  0.50000000  0.00000000  1
loop_
_geom_bond_atom_site_label_1
_geom_bond_atom_site_label_2
_geom_bond_distance
_geom_bond_site_symmetry_2
Eu0 Eu1 4.215773 1_544
Eu0 Eu1 4.215773 1_645
Eu0 Eu1 4.215773 1_656
Eu0 Eu1 4.215773 1_555
Eu0 Eu2 4.248399 1_545
Eu0 Rb0 4.248399 1_656
Eu0 Eu2 4.248399 1_555
Eu0 Eu2 4.248399 1_656
Eu0 Rb0 4.248399 1_655
Eu0 Eu2 4.248399 1_556
Eu0 Rb0 4.248399 1_555
Eu0 Rb0 4.248399 1_666
Eu1 Rb0 4.248399 1_565
Eu1 Eu2 4.248399 1_555
Eu1 Eu2 4.248399 1_566
Eu1 Eu2 4.248399 1_556
Eu1 Eu2 4.248399 1_455
Eu1 Rb0 4.248399 1_566
Eu1 Rb0 4.248399 1_555
Eu1 Rb0 4.248399 1_666
Eu2 Rb0 4.215773 1_655
Eu2 Rb0 4.215773 1_565
Eu2 Rb0 4.215773 1_554
Eu2 Rb0 4.215773 1_666
