# generated using pymatgen
data_ReBi9O17
_symmetry_space_group_name_H-M   'P 1'
_cell_length_a   20.12747600
_cell_length_b   10.09193400
_cell_length_c   11.82370787
_cell_angle_alpha   54.89318908
_cell_angle_beta   90.00000000
_cell_angle_gamma   90.00000000
_symmetry_Int_Tables_number   1
_chemical_formula_structural   ReBi9O17
_chemical_formula_sum   'Re4 Bi36 O68'
_cell_volume   1964.77990100
_cell_formula_units_Z   4
loop_
 _symmetry_equiv_pos_site_id
 _symmetry_equiv_pos_as_xyz
  1  'x, y, z'
loop_
 _atom_site_type_symbol
 _atom_site_label
 _atom_site_symmetry_multiplicity
 _atom_site_fract_x
 _atom_site_fract_y
 _atom_site_fract_z
 _atom_site_occupancy
  Re  Re0  1  0.93968200  0.36466000  0.68042500  1
  Re  Re1  1  0.43968200  0.63534000  0.81957500  1
  Re  Re2  1  0.06031800  0.63534000  0.31957500  1
  Re  Re3  1  0.56031800  0.36466000  0.18042500  1
  Bi  Bi0  1  0.75216700  0.91652600  0.90427600  1
  Bi  Bi1  1  0.25216700  0.08347400  0.59572400  1
  Bi  Bi2  1  0.24783300  0.08347400  0.09572400  1
  Bi  Bi3  1  0.74783300  0.91652600  0.40427600  1
  Bi  Bi4  1  0.77406600  0.39238100  0.18552600  1
  Bi  Bi5  1  0.27406600  0.60761900  0.31447400  1
  Bi  Bi6  1  0.22593400  0.60761900  0.81447400  1
  Bi  Bi7  1  0.72593400  0.39238100  0.68552600  1
  Bi  Bi8  1  0.55309800  0.89979800  0.93552700  1
  Bi  Bi9  1  0.05309800  0.10020200  0.56447300  1
  Bi  Bi10  1  0.44690200  0.10020200  0.06447300  1
  Bi  Bi11  1  0.94690200  0.89979800  0.43552700  1
  Bi  Bi12  1  0.94642200  0.86164100  0.93946500  1
  Bi  Bi13  1  0.44642200  0.13835900  0.56053500  1
  Bi  Bi14  1  0.05357800  0.13835900  0.06053500  1
  Bi  Bi15  1  0.55357800  0.86164100  0.43946500  1
  Bi  Bi16  1  0.95049900  0.37965700  0.17376100  1
  Bi  Bi17  1  0.45049900  0.62034300  0.32623900  1
  Bi  Bi18  1  0.04950100  0.62034300  0.82623900  1
  Bi  Bi19  1  0.54950100  0.37965700  0.67376100  1
  Bi  Bi20  1  0.14706000  0.91682700  0.89117300  1
  Bi  Bi21  1  0.64706000  0.08317300  0.60882700  1
  Bi  Bi22  1  0.85294000  0.08317300  0.10882700  1
  Bi  Bi23  1  0.35294000  0.91682700  0.39117300  1
  Bi  Bi24  1  0.34451600  0.89382500  0.94547700  1
  Bi  Bi25  1  0.84451600  0.10617500  0.55452300  1
  Bi  Bi26  1  0.65548400  0.10617500  0.05452300  1
  Bi  Bi27  1  0.15548400  0.89382500  0.44547700  1
  Bi  Bi28  1  0.34235500  0.33788200  0.69479000  1
  Bi  Bi29  1  0.84235500  0.66211800  0.80521000  1
  Bi  Bi30  1  0.65764500  0.66211800  0.30521000  1
  Bi  Bi31  1  0.15764500  0.33788200  0.19479000  1
  Bi  Bi32  1  0.16634000  0.37282500  0.69216800  1
  Bi  Bi33  1  0.66634000  0.62717500  0.80783200  1
  Bi  Bi34  1  0.83366000  0.62717500  0.30783200  1
  Bi  Bi35  1  0.33366000  0.37282500  0.19216800  1
  O  O0  1  0.60430500  0.54278900  0.12636400  1
  O  O1  1  0.10430500  0.45721100  0.37363600  1
  O  O2  1  0.39569500  0.45721100  0.87363600  1
  O  O3  1  0.89569500  0.54278900  0.62636400  1
  O  O4  1  0.95363100  0.35493300  0.53880700  1
  O  O5  1  0.45363100  0.64506700  0.96119300  1
  O  O6  1  0.04636900  0.64506700  0.46119300  1
  O  O7  1  0.54636900  0.35493300  0.03880700  1
  O  O8  1  0.98524400  0.64306100  0.24059600  1
  O  O9  1  0.48524400  0.35693900  0.25940400  1
  O  O10  1  0.01475600  0.35693900  0.75940400  1
  O  O11  1  0.51475600  0.64306100  0.74059600  1
  O  O12  1  0.39070700  0.80251600  0.69719000  1
  O  O13  1  0.89070700  0.19748400  0.80281000  1
  O  O14  1  0.60929300  0.19748400  0.30281000  1
  O  O15  1  0.10929300  0.80251600  0.19719000  1
  O  O16  1  0.74258000  0.55202000  0.25909600  1
  O  O17  1  0.24258000  0.44798000  0.24090400  1
  O  O18  1  0.25742000  0.44798000  0.74090400  1
  O  O19  1  0.75742000  0.55202000  0.75909600  1
  O  O20  1  0.74931000  0.09193800  0.67077800  1
  O  O21  1  0.24931000  0.90806200  0.82922200  1
  O  O22  1  0.25069000  0.90806200  0.32922200  1
  O  O23  1  0.75069000  0.09193800  0.17077800  1
  O  O24  1  0.86381400  0.47684400  0.22558900  1
  O  O25  1  0.36381400  0.52315600  0.27441100  1
  O  O26  1  0.13618600  0.52315600  0.77441100  1
  O  O27  1  0.63618600  0.47684400  0.72558900  1
  O  O28  1  0.63413600  0.32661100  0.59722400  1
  O  O29  1  0.13413600  0.67338900  0.90277600  1
  O  O30  1  0.36586400  0.67338900  0.40277600  1
  O  O31  1  0.86586400  0.32661100  0.09722400  1
  O  O32  1  0.74338600  0.68585500  0.40135500  1
  O  O33  1  0.24338600  0.31414500  0.09864500  1
  O  O34  1  0.25661400  0.31414500  0.59864500  1
  O  O35  1  0.75661400  0.68585500  0.90135500  1
  O  O36  1  0.77200600  0.16780700  0.39018800  1
  O  O37  1  0.27200600  0.83219300  0.10981200  1
  O  O38  1  0.22799400  0.83219300  0.60981200  1
  O  O39  1  0.72799400  0.16780700  0.89018800  1
  O  O40  1  0.93889500  0.11524500  0.42680100  1
  O  O41  1  0.43889500  0.88475500  0.07319900  1
  O  O42  1  0.06110500  0.88475500  0.57319900  1
  O  O43  1  0.56110500  0.11524500  0.92680100  1
  O  O44  1  0.53407500  0.63123600  0.47953800  1
  O  O45  1  0.03407500  0.36876400  0.02046200  1
  O  O46  1  0.46592500  0.36876400  0.52046200  1
  O  O47  1  0.96592500  0.63123600  0.97953800  1
  O  O48  1  0.85280300  0.91480500  0.33310300  1
  O  O49  1  0.35280300  0.08519500  0.16689700  1
  O  O50  1  0.14719700  0.08519500  0.66689700  1
  O  O51  1  0.64719700  0.91480500  0.83310300  1
  O  O52  1  0.65758500  0.85044300  0.61220600  1
  O  O53  1  0.15758500  0.14955700  0.88779400  1
  O  O54  1  0.34241500  0.14955700  0.38779400  1
  O  O55  1  0.84241500  0.85044300  0.11220600  1
  O  O56  1  0.63275700  0.89315900  0.30821600  1
  O  O57  1  0.13275700  0.10684100  0.19178400  1
  O  O58  1  0.36724300  0.10684100  0.69178400  1
  O  O59  1  0.86724300  0.89315900  0.80821600  1
  O  O60  1  0.83510600  0.87036200  0.59056500  1
  O  O61  1  0.33510600  0.12963800  0.90943500  1
  O  O62  1  0.16489400  0.12963800  0.40943500  1
  O  O63  1  0.66489400  0.87036200  0.09056500  1
  O  O64  1  0.47481200  0.96192500  0.28347400  1
  O  O65  1  0.97481200  0.03807500  0.21652600  1
  O  O66  1  0.52518800  0.03807500  0.71652600  1
  O  O67  1  0.02518800  0.96192500  0.78347400  1
loop_
_geom_bond_atom_site_label_1
_geom_bond_atom_site_label_2
_geom_bond_distance
_geom_bond_site_symmetry_2
Bi0 O20 2.266660 1_565
Bi0 O51 2.277966 1_555
Bi0 O35 2.349654 1_555
Bi0 O39 2.491878 1_565
Bi0 O63 2.640814 1_556
Bi0 O59 2.649230 1_555
Bi0 O55 2.811171 1_556
Bi1 O21 2.266660 1_545
Bi1 O50 2.277966 1_555
Bi1 O34 2.349654 1_555
Bi1 O38 2.491878 1_545
Bi1 O62 2.640814 1_555
Bi1 O58 2.649230 1_555
Bi1 O54 2.811171 1_555
Bi2 O22 2.266660 1_545
Bi2 O49 2.277966 1_555
Bi2 O33 2.349654 1_555
Bi2 O37 2.491878 1_545
Bi2 O61 2.640814 1_554
Bi2 O57 2.649230 1_555
Bi2 O53 2.811171 1_554
Bi3 O23 2.266660 1_565
Bi3 O48 2.277966 1_555
Bi3 O32 2.349654 1_555
Bi3 O36 2.491878 1_565
Bi3 O60 2.640814 1_555
Bi3 O56 2.649230 1_555
Bi3 O52 2.811171 1_555
Bi4 O24 2.162977 1_555
Bi4 O36 2.164681 1_555
Bi4 O16 2.316408 1_555
Bi4 O31 2.396153 1_555
Bi5 O25 2.162977 1_555
Bi5 O37 2.164681 1_555
Bi5 O17 2.316408 1_555
Bi5 O30 2.396153 1_555
Bi6 O26 2.162977 1_555
Bi6 O38 2.164681 1_555
Bi6 O18 2.316408 1_555
Bi6 O29 2.396153 1_555
Bi7 O27 2.162977 1_555
Bi7 O39 2.164681 1_555
Bi7 O19 2.316408 1_555
Bi7 O28 2.396153 1_555
Bi8 O43 2.122752 1_565
Bi8 O66 2.193565 1_565
Bi8 O51 2.205837 1_555
Bi8 O41 2.769867 1_556
Bi8 O63 2.808115 1_556
Bi9 O42 2.122752 1_545
Bi9 O67 2.193565 1_545
Bi9 O50 2.205837 1_555
Bi9 O40 2.769867 1_455
Bi9 O62 2.808115 1_555
Bi10 O41 2.122752 1_545
Bi10 O64 2.193565 1_545
Bi10 O49 2.205837 1_555
Bi10 O43 2.769867 1_554
Bi10 O61 2.808115 1_554
Bi11 O40 2.122752 1_565
Bi11 O65 2.193565 1_565
Bi11 O48 2.205837 1_555
Bi11 O42 2.769867 1_655
Bi11 O60 2.808115 1_555
Bi12 O59 2.116945 1_555
Bi12 O47 2.125580 1_555
Bi12 O67 2.189156 1_655
Bi13 O58 2.116945 1_555
Bi13 O46 2.125580 1_555
Bi13 O66 2.189156 1_555
Bi14 O57 2.116945 1_555
Bi14 O45 2.125580 1_555
Bi14 O65 2.189156 1_455
Bi15 O56 2.116945 1_555
Bi15 O44 2.125580 1_555
Bi15 O64 2.189156 1_555
Bi16 O31 2.136497 1_555
Bi16 O24 2.252325 1_555
Bi16 O47 2.260509 1_554
Bi16 O45 2.521183 1_655
Bi16 O40 2.635068 1_555
Bi17 O30 2.136497 1_555
Bi17 O25 2.252325 1_555
Bi17 O46 2.260509 1_555
Bi17 O44 2.521183 1_555
Bi17 O41 2.635068 1_555
Bi18 O29 2.136497 1_555
Bi18 O26 2.252325 1_555
Bi18 O45 2.260509 1_556
Bi18 O47 2.521183 1_455
Bi18 O42 2.635068 1_555
Bi19 O28 2.136497 1_555
Bi19 O27 2.252325 1_555
Bi19 O44 2.260509 1_555
Bi19 O46 2.521183 1_555
Bi19 O43 2.635068 1_555
Bi20 O50 2.176345 1_565
Bi20 O21 2.203270 1_555
Bi20 O53 2.335576 1_565
Bi20 O29 2.394679 1_555
Bi20 O67 2.679397 1_555
Bi21 O51 2.176345 1_545
Bi21 O20 2.203270 1_555
Bi21 O52 2.335576 1_545
Bi21 O28 2.394679 1_555
Bi21 O66 2.679397 1_555
Bi22 O48 2.176345 1_545
Bi22 O23 2.203270 1_555
Bi22 O55 2.335576 1_545
Bi22 O31 2.394679 1_555
Bi22 O65 2.679397 1_555
Bi23 O49 2.176345 1_565
Bi23 O22 2.203270 1_555
Bi23 O54 2.335576 1_565
Bi23 O30 2.394679 1_555
Bi23 O64 2.679397 1_555
Bi24 O61 2.171286 1_565
Bi24 O37 2.214092 1_556
Bi24 O21 2.314077 1_555
Bi24 O41 2.395507 1_556
Bi24 O58 2.532048 1_565
Bi25 O60 2.171286 1_545
Bi25 O36 2.214092 1_555
Bi25 O20 2.314077 1_555
Bi25 O40 2.395507 1_555
Bi25 O59 2.532048 1_545
Bi26 O63 2.171286 1_545
Bi26 O39 2.214092 1_554
Bi26 O23 2.314077 1_555
Bi26 O43 2.395507 1_554
Bi26 O56 2.532048 1_545
Bi27 O62 2.171286 1_565
Bi27 O38 2.214092 1_555
Bi27 O22 2.314077 1_555
Bi27 O42 2.395507 1_555
Bi27 O57 2.532048 1_565
Bi28 O34 2.154325 1_555
Bi28 O61 2.178104 1_555
Bi28 O18 2.269609 1_555
Bi28 O58 2.405018 1_555
Bi29 O35 2.154325 1_555
Bi29 O60 2.178104 1_555
Bi29 O19 2.269609 1_555
Bi29 O59 2.405018 1_555
Bi30 O32 2.154325 1_555
Bi30 O63 2.178104 1_555
Bi30 O16 2.269609 1_555
Bi30 O56 2.405018 1_555
Bi31 O33 2.154325 1_555
Bi31 O62 2.178104 1_555
Bi31 O17 2.269609 1_555
Bi31 O57 2.405018 1_555
Bi32 O53 2.112706 1_555
Bi32 O18 2.184188 1_555
Bi32 O26 2.304890 1_555
Bi32 O34 2.372364 1_555
Bi33 O52 2.112706 1_555
Bi33 O19 2.184188 1_555
Bi33 O27 2.304890 1_555
Bi33 O35 2.372364 1_555
Bi34 O55 2.112706 1_555
Bi34 O16 2.184188 1_555
Bi34 O24 2.304890 1_555
Bi34 O32 2.372364 1_555
Bi35 O54 2.112706 1_555
Bi35 O17 2.184188 1_555
Bi35 O25 2.304890 1_555
Bi35 O33 2.372364 1_555
O0 Re3 1.761350 1_555
O1 Re2 1.761350 1_555
O2 Re1 1.761350 1_555
O3 Re0 1.761350 1_555
O4 Re0 1.755364 1_555
O5 Re1 1.755364 1_555
O6 Re2 1.755364 1_555
O7 Re3 1.755364 1_555
O8 Re2 1.754332 1_655
O9 Re3 1.754332 1_555
O10 Re0 1.754332 1_455
O11 Re1 1.754332 1_555
O12 Re1 1.761811 1_555
O13 Re0 1.761811 1_555
O14 Re3 1.761811 1_555
O15 Re2 1.761811 1_555
