# generated using pymatgen
data_MgNiMoS4
_symmetry_space_group_name_H-M   'P 1'
_cell_length_a   7.27999178
_cell_length_b   7.30354503
_cell_length_c   7.30283717
_cell_angle_alpha   56.08456555
_cell_angle_beta   60.04460859
_cell_angle_gamma   60.05135942
_symmetry_Int_Tables_number   1
_chemical_formula_structural   MgNiMoS4
_chemical_formula_sum   'Mg2 Ni2 Mo2 S8'
_cell_volume   265.71527338
_cell_formula_units_Z   2
loop_
 _symmetry_equiv_pos_site_id
 _symmetry_equiv_pos_as_xyz
  1  'x, y, z'
loop_
 _atom_site_type_symbol
 _atom_site_label
 _atom_site_symmetry_multiplicity
 _atom_site_fract_x
 _atom_site_fract_y
 _atom_site_fract_z
 _atom_site_occupancy
  Mg  Mg0  1  0.86894874  0.88015151  0.87965401  1
  Mg  Mg1  1  0.13098583  0.11992159  0.12040799  1
  Ni  Ni0  1  0.49998651  0.49999187  0.49997136  1
  Ni  Ni1  1  0.00004498  0.49998157  0.49998993  1
  Mo  Mo0  1  0.49996302  0.50066695  0.99939523  1
  Mo  Mo1  1  0.49997842  0.99938769  0.50066658  1
  S  S0  1  0.75399020  0.73447454  0.73432831  1
  S  S1  1  0.26865048  0.26705813  0.69833212  1
  S  S2  1  0.26872142  0.69836882  0.26693030  1
  S  S3  1  0.72310195  0.26469393  0.26480033  1
  S  S4  1  0.73126803  0.30169857  0.73301007  1
  S  S5  1  0.27660987  0.73523957  0.73514815  1
  S  S6  1  0.24639765  0.26546342  0.26564116  1
  S  S7  1  0.73135690  0.73289683  0.30172546  1
loop_
_geom_bond_atom_site_label_1
_geom_bond_atom_site_label_2
_geom_bond_distance
_geom_bond_site_symmetry_2
Mg0 S4 2.437596 1_565
Mg0 S7 2.440018 1_556
Mg0 S0 2.448439 1_555
Mg0 S5 2.454398 1_655
Mg1 S2 2.437683 1_545
Mg1 S1 2.440096 1_554
Mg1 S6 2.449590 1_555
Mg1 S3 2.455538 1_455
Ni0 S1 2.345875 1_555
Ni0 S7 2.346035 1_555
Ni0 S2 2.346127 1_555
Ni0 S4 2.346295 1_555
Ni0 S5 2.502056 1_555
Ni0 S3 2.502367 1_555
Ni1 S1 2.360766 1_555
Ni1 S7 2.360879 1_455
Ni1 S2 2.361164 1_555
Ni1 S4 2.361265 1_455
Ni1 S0 2.493342 1_455
Ni1 S6 2.493599 1_555
Mo0 S5 2.442492 1_555
Mo0 S0 2.443840 1_555
Mo0 S3 2.446847 1_556
Mo0 S6 2.448146 1_556
Mo0 S4 2.484313 1_555
Mo0 S2 2.484482 1_556
Mo1 S5 2.441992 1_555
Mo1 S0 2.443238 1_555
Mo1 S3 2.446195 1_565
Mo1 S6 2.447548 1_565
Mo1 S7 2.484853 1_555
Mo1 S1 2.485148 1_565
