# generated using pymatgen
data_Li2ZnAg
_symmetry_space_group_name_H-M   'P 1'
_cell_length_a   10.88243834
_cell_length_b   10.88243834
_cell_length_c   10.88243834
_cell_angle_alpha   121.27813442
_cell_angle_beta   119.53978630
_cell_angle_gamma   89.29978184
_symmetry_Int_Tables_number   1
_chemical_formula_structural   Li2ZnAg
_chemical_formula_sum   'Li2 Zn1 Ag1'
_cell_volume   905.33379744
_cell_formula_units_Z   1
loop_
 _symmetry_equiv_pos_site_id
 _symmetry_equiv_pos_as_xyz
  1  'x, y, z'
loop_
 _atom_site_type_symbol
 _atom_site_label
 _atom_site_symmetry_multiplicity
 _atom_site_fract_x
 _atom_site_fract_y
 _atom_site_fract_z
 _atom_site_occupancy
  Li  Li0  1  0.00000000  0.25792800  0.25792800  1
  Li  Li1  1  0.00000000  0.74207200  0.74207200  1
  Zn  Zn0  1  0.00000000  0.00000000  0.00000000  1
  Ag  Ag0  1  0.00000000  0.50000000  0.50000000  1
loop_
_geom_bond_atom_site_label_1
_geom_bond_atom_site_label_2
_geom_bond_distance
_geom_bond_site_symmetry_2
Li0 Zn0 2.752486 1_555
Li1 Zn0 2.752486 1_566
Ag0 Li1 2.583278 1_555
Ag0 Li0 2.583278 1_555
