# generated using pymatgen
data_TlAgTe2
_symmetry_space_group_name_H-M   'P 1'
_cell_length_a   19.66906642
_cell_length_b   19.66906642
_cell_length_c   19.66906642
_cell_angle_alpha   159.09013141
_cell_angle_beta   159.09013141
_cell_angle_gamma   29.73992782
_symmetry_Int_Tables_number   1
_chemical_formula_structural   TlAgTe2
_chemical_formula_sum   'Tl8 Ag8 Te16'
_cell_volume   968.70102431
_cell_formula_units_Z   8
loop_
 _symmetry_equiv_pos_site_id
 _symmetry_equiv_pos_as_xyz
  1  'x, y, z'
loop_
 _atom_site_type_symbol
 _atom_site_label
 _atom_site_symmetry_multiplicity
 _atom_site_fract_x
 _atom_site_fract_y
 _atom_site_fract_z
 _atom_site_occupancy
  Tl  Tl0_0  1  0.00000000  0.00000000  0.00000000  1
  Tl  Tl0_1  1  0.00000000  0.00000000  0.50000000  1
  Tl  Tl0_2  1  0.00000000  0.50000000  0.00000000  1
  Tl  Tl0_3  1  0.00000000  0.50000000  0.50000000  1
  Tl  Tl0_4  1  0.50000000  0.00000000  0.00000000  1
  Tl  Tl0_5  1  0.50000000  0.00000000  0.50000000  1
  Tl  Tl0_6  1  0.50000000  0.50000000  0.00000000  1
  Tl  Tl0_7  1  0.50000000  0.50000000  0.50000000  1
  Ag  Ag0_0  1  0.37500000  0.12500000  0.25000000  1
  Ag  Ag0_1  1  0.37500000  0.12500000  0.75000000  1
  Ag  Ag0_2  1  0.37500000  0.62500000  0.25000000  1
  Ag  Ag0_3  1  0.37500000  0.62500000  0.75000000  1
  Ag  Ag0_4  1  0.87500000  0.12500000  0.25000000  1
  Ag  Ag0_5  1  0.87500000  0.12500000  0.75000000  1
  Ag  Ag0_6  1  0.87500000  0.62500000  0.25000000  1
  Ag  Ag0_7  1  0.87500000  0.62500000  0.75000000  1
  Te  Te0_0  1  0.18263450  0.18263450  0.00000000  1
  Te  Te0_1  1  0.18263450  0.18263450  0.50000000  1
  Te  Te0_2  1  0.18263450  0.68263450  0.00000000  1
  Te  Te0_3  1  0.18263450  0.68263450  0.50000000  1
  Te  Te0_4  1  0.68263450  0.18263450  0.00000000  1
  Te  Te0_5  1  0.68263450  0.18263450  0.50000000  1
  Te  Te0_6  1  0.68263450  0.68263450  0.00000000  1
  Te  Te0_7  1  0.68263450  0.68263450  0.50000000  1
  Te  Te1_0  1  0.31736550  0.31736550  0.00000000  1
  Te  Te1_1  1  0.31736550  0.31736550  0.50000000  1
  Te  Te1_2  1  0.31736550  0.81736550  0.00000000  1
  Te  Te1_3  1  0.31736550  0.81736550  0.50000000  1
  Te  Te1_4  1  0.81736550  0.31736550  0.00000000  1
  Te  Te1_5  1  0.81736550  0.31736550  0.50000000  1
  Te  Te1_6  1  0.81736550  0.81736550  0.00000000  1
  Te  Te1_7  1  0.81736550  0.81736550  0.50000000  1
loop_
_geom_bond_atom_site_label_1
_geom_bond_atom_site_label_2
_geom_bond_distance
_geom_bond_site_symmetry_2
Tl0_0 Tl0_5 3.569190 1_454
Tl0_0 Tl0_5 3.569190 1_555
Tl0_0 Tl0_3 3.569190 1_544
Tl0_0 Tl0_3 3.569190 1_555
Tl0_1 Tl0_4 3.569190 1_556
Tl0_1 Tl0_2 3.569190 1_545
Tl0_1 Tl0_4 3.569190 1_455
Tl0_1 Tl0_2 3.569190 1_556
Tl0_2 Tl0_7 3.569190 1_454
Tl0_2 Tl0_7 3.569190 1_555
Tl0_3 Tl0_6 3.569190 1_455
Tl0_3 Tl0_6 3.569190 1_556
Tl0_4 Tl0_7 3.569190 1_544
Tl0_4 Tl0_7 3.569190 1_555
Tl0_5 Tl0_6 3.569190 1_556
Tl0_5 Tl0_6 3.569190 1_545
Ag0_0 Te0_0 2.826057 1_555
Ag0_0 Te0_5 2.826057 1_555
Ag0_0 Te1_1 2.826057 1_555
Ag0_0 Te1_2 2.826057 1_545
Ag0_1 Te0_1 2.826057 1_555
Ag0_1 Te0_4 2.826057 1_556
Ag0_1 Te1_0 2.826057 1_556
Ag0_1 Te1_3 2.826057 1_545
Ag0_2 Te0_7 2.826057 1_555
Ag0_2 Te0_2 2.826057 1_555
Ag0_2 Te1_0 2.826057 1_555
Ag0_2 Te1_3 2.826057 1_555
Ag0_3 Te0_6 2.826057 1_556
Ag0_3 Te0_3 2.826057 1_555
Ag0_3 Te1_2 2.826057 1_556
Ag0_3 Te1_1 2.826057 1_555
Ag0_4 Te0_1 2.826057 1_655
Ag0_4 Te0_4 2.826057 1_555
Ag0_4 Te1_6 2.826057 1_545
Ag0_4 Te1_5 2.826057 1_555
Ag0_5 Te0_0 2.826057 1_656
Ag0_5 Te0_5 2.826057 1_555
Ag0_5 Te1_7 2.826057 1_545
Ag0_5 Te1_4 2.826057 1_556
Ag0_6 Te0_6 2.826057 1_555
Ag0_6 Te0_3 2.826057 1_655
Ag0_6 Te1_7 2.826057 1_555
Ag0_6 Te1_4 2.826057 1_555
Ag0_7 Te0_7 2.826057 1_555
Ag0_7 Te0_2 2.826057 1_656
Ag0_7 Te1_5 2.826057 1_555
Ag0_7 Te1_6 2.826057 1_556
Te0_0 Tl0_7 3.595795 1_555
Te0_0 Tl0_4 3.595795 1_555
Te0_0 Tl0_2 3.595795 1_555
Te0_0 Tl0_1 3.595795 1_554
Te0_1 Tl0_5 3.595795 1_555
Te0_1 Tl0_3 3.595795 1_555
Te0_1 Tl0_6 3.595795 1_556
Te0_1 Tl0_0 3.595795 1_555
Te0_2 Tl0_3 3.595795 1_554
Te0_2 Tl0_0 3.595795 1_565
Te0_2 Tl0_6 3.595795 1_555
Te0_2 Tl0_5 3.595795 1_565
Te0_3 Tl0_7 3.595795 1_555
Te0_3 Tl0_4 3.595795 1_566
Te0_3 Tl0_1 3.595795 1_565
Te0_3 Tl0_2 3.595795 1_555
Te0_4 Tl0_6 3.595795 1_555
Te0_4 Tl0_5 3.595795 1_554
Te0_4 Tl0_0 3.595795 1_655
Te0_4 Tl0_3 3.595795 1_655
Te0_5 Tl0_7 3.595795 1_555
Te0_5 Tl0_4 3.595795 1_555
Te0_5 Tl0_1 3.595795 1_655
Te0_5 Tl0_2 3.595795 1_656
Te0_6 Tl0_2 3.595795 1_655
Te0_6 Tl0_7 3.595795 1_554
Te0_6 Tl0_1 3.595795 1_665
Te0_6 Tl0_4 3.595795 1_565
Te0_7 Tl0_5 3.595795 1_565
Te0_7 Tl0_6 3.595795 1_555
Te0_7 Tl0_3 3.595795 1_655
Te0_7 Tl0_0 3.595795 1_666
Te1_0 Tl0_2 3.595795 1_555
Te1_0 Tl0_1 3.595795 1_554
Te1_0 Tl0_7 3.595795 1_555
Te1_0 Tl0_4 3.595795 1_555
Te1_1 Tl0_5 3.595795 1_555
Te1_1 Tl0_3 3.595795 1_555
Te1_1 Tl0_6 3.595795 1_556
Te1_1 Tl0_0 3.595795 1_555
Te1_2 Tl0_5 3.595795 1_565
Te1_2 Tl0_6 3.595795 1_555
Te1_2 Tl0_3 3.595795 1_554
Te1_2 Tl0_0 3.595795 1_565
Te1_3 Tl0_1 3.595795 1_565
Te1_3 Tl0_4 3.595795 1_566
Te1_3 Tl0_2 3.595795 1_555
Te1_3 Tl0_7 3.595795 1_555
Te1_4 Tl0_6 3.595795 1_555
Te1_4 Tl0_3 3.595795 1_655
Te1_4 Tl0_5 3.595795 1_554
Te1_4 Tl0_0 3.595795 1_655
Te1_5 Tl0_1 3.595795 1_655
Te1_5 Tl0_2 3.595795 1_656
Te1_5 Tl0_7 3.595795 1_555
Te1_5 Tl0_4 3.595795 1_555
Te1_6 Tl0_1 3.595795 1_665
Te1_6 Tl0_2 3.595795 1_655
Te1_6 Tl0_7 3.595795 1_554
Te1_6 Tl0_4 3.595795 1_565
Te1_7 Tl0_0 3.595795 1_666
Te1_7 Tl0_5 3.595795 1_565
Te1_7 Tl0_6 3.595795 1_555
Te1_7 Tl0_3 3.595795 1_655
