# generated using pymatgen
data_Ba(MoSe)3
_symmetry_space_group_name_H-M   'P 1'
_cell_length_a   9.09957825
_cell_length_b   9.09957825
_cell_length_c   4.53056000
_cell_angle_alpha   90.00000000
_cell_angle_beta   90.00000000
_cell_angle_gamma   120.00000182
_symmetry_Int_Tables_number   1
_chemical_formula_structural   Ba(MoSe)3
_chemical_formula_sum   'Ba2 Mo6 Se6'
_cell_volume   324.88154214
_cell_formula_units_Z   2
loop_
 _symmetry_equiv_pos_site_id
 _symmetry_equiv_pos_as_xyz
  1  'x, y, z'
loop_
 _atom_site_type_symbol
 _atom_site_label
 _atom_site_symmetry_multiplicity
 _atom_site_fract_x
 _atom_site_fract_y
 _atom_site_fract_z
 _atom_site_occupancy
  Ba  Ba0  1  0.33333300  0.66666700  0.25000000  1
  Ba  Ba1  1  0.66666700  0.33333300  0.75000000  1
  Mo  Mo0  1  0.03302500  0.84961700  0.25000000  1
  Mo  Mo1  1  0.81659100  0.96697500  0.25000000  1
  Mo  Mo2  1  0.15038300  0.18340900  0.25000000  1
  Mo  Mo3  1  0.96697500  0.15038300  0.75000000  1
  Mo  Mo4  1  0.18340900  0.03302500  0.75000000  1
  Mo  Mo5  1  0.84961700  0.81659100  0.75000000  1
  Se  Se0  1  0.36934900  0.06724600  0.25000000  1
  Se  Se1  1  0.69789700  0.63065100  0.25000000  1
  Se  Se2  1  0.93275400  0.30210300  0.25000000  1
  Se  Se3  1  0.63065100  0.93275400  0.75000000  1
  Se  Se4  1  0.30210300  0.36934900  0.75000000  1
  Se  Se5  1  0.06724600  0.69789700  0.75000000  1
loop_
_geom_bond_atom_site_label_1
_geom_bond_atom_site_label_2
_geom_bond_distance
_geom_bond_site_symmetry_2
Ba0 Se5 3.429712 1_555
Ba0 Se5 3.429712 1_554
Ba0 Se3 3.429716 1_554
Ba0 Se3 3.429716 1_555
Ba0 Se4 3.429719 1_554
Ba0 Se4 3.429719 1_555
Ba0 Se0 3.492786 1_565
Ba0 Se2 3.492789 1_455
Ba0 Se1 3.492795 1_555
Ba1 Se2 3.429712 1_556
Ba1 Se2 3.429712 1_555
Ba1 Se0 3.429716 1_555
Ba1 Se0 3.429716 1_556
Ba1 Se1 3.429719 1_555
Ba1 Se1 3.429719 1_556
Ba1 Se3 3.492786 1_545
Ba1 Se5 3.492789 1_655
Ba1 Se4 3.492795 1_555
Mo0 Se1 2.682065 1_455
Mo0 Se0 2.688342 1_565
Mo0 Se5 2.750345 1_555
Mo0 Se5 2.750345 1_554
Mo1 Se2 2.682063 1_565
Mo1 Se1 2.688343 1_555
Mo1 Se3 2.750339 1_555
Mo1 Se3 2.750339 1_554
Mo2 Se0 2.682072 1_555
Mo2 Se2 2.688335 1_455
Mo2 Se4 2.750341 1_555
Mo2 Se4 2.750341 1_554
Mo3 Se4 2.682065 1_655
Mo3 Se3 2.688342 1_545
Mo3 Se2 2.750345 1_556
Mo3 Se2 2.750345 1_555
Mo4 Se5 2.682063 1_545
Mo4 Se4 2.688343 1_555
Mo4 Se0 2.750339 1_555
Mo4 Se0 2.750339 1_556
Mo5 Se3 2.682072 1_555
Mo5 Se5 2.688335 1_655
Mo5 Se1 2.750341 1_555
Mo5 Se1 2.750341 1_556
