# generated using pymatgen
data_Al2(PS3)3
_symmetry_space_group_name_H-M   'P 1'
_cell_length_a   10.27667692
_cell_length_b   10.27667692
_cell_length_c   7.26185096
_cell_angle_alpha   76.49335999
_cell_angle_beta   76.49335999
_cell_angle_gamma   59.97640728
_symmetry_Int_Tables_number   1
_chemical_formula_structural   Al2(PS3)3
_chemical_formula_sum   'Al4 P6 S18'
_cell_volume   639.42062974
_cell_formula_units_Z   2
loop_
 _symmetry_equiv_pos_site_id
 _symmetry_equiv_pos_as_xyz
  1  'x, y, z'
loop_
 _atom_site_type_symbol
 _atom_site_label
 _atom_site_symmetry_multiplicity
 _atom_site_fract_x
 _atom_site_fract_y
 _atom_site_fract_z
 _atom_site_occupancy
  Al  Al0  1  0.16380700  0.48783500  0.50086100  1
  Al  Al1  1  0.51216500  0.83619300  0.49913900  1
  Al  Al2  1  0.81607300  0.18392700  0.50000000  1
  Al  Al3  1  0.16478900  0.83521100  0.50000000  1
  P  P0  1  0.84392600  0.86107600  0.34486100  1
  P  P1  1  0.13892400  0.15607400  0.65513900  1
  P  P2  1  0.51068400  0.51517700  0.34412200  1
  P  P3  1  0.48482300  0.48931600  0.65587800  1
  P  P4  1  0.19009900  0.18203500  0.34357800  1
  P  P5  1  0.81796500  0.80990100  0.65642200  1
  S  S0  1  0.73733300  0.41218900  0.26184200  1
  S  S1  1  0.58781100  0.26266700  0.73815800  1
  S  S2  1  0.08241000  0.73910100  0.28634800  1
  S  S3  1  0.26089900  0.91759000  0.71365200  1
  S  S4  1  0.41648400  0.06587000  0.26901400  1
  S  S5  1  0.93413000  0.58351600  0.73098600  1
  S  S6  1  0.74227600  0.76354400  0.26303800  1
  S  S7  1  0.23645600  0.25772400  0.73696200  1
  S  S8  1  0.39449400  0.42920300  0.27123900  1
  S  S9  1  0.57079700  0.60550600  0.72876100  1
  S  S10  1  0.06919500  0.08396100  0.28509700  1
  S  S11  1  0.91603900  0.93080500  0.71490300  1
  S  S12  1  0.41319900  0.75350000  0.28549900  1
  S  S13  1  0.24650000  0.58680100  0.71450100  1
  S  S14  1  0.09269200  0.40872400  0.26312200  1
  S  S15  1  0.59127600  0.90730800  0.73687800  1
  S  S16  1  0.75756200  0.08770500  0.27136100  1
  S  S17  1  0.91229500  0.24243800  0.72863900  1
loop_
_geom_bond_atom_site_label_1
_geom_bond_atom_site_label_2
_geom_bond_distance
_geom_bond_site_symmetry_2
Al0 S5 2.435812 1_455
Al0 S8 2.440708 1_555
Al0 S14 2.452591 1_555
Al0 S7 2.454877 1_555
Al0 S2 2.522344 1_555
Al0 S13 2.526116 1_555
Al1 S4 2.435812 1_565
Al1 S9 2.440708 1_555
Al1 S15 2.452591 1_555
Al1 S6 2.454877 1_555
Al1 S3 2.522344 1_555
Al1 S12 2.526116 1_555
Al2 S16 2.434007 1_555
Al2 S17 2.434007 1_555
Al2 S1 2.451046 1_555
Al2 S0 2.451046 1_555
Al2 S11 2.536881 1_545
Al2 S10 2.536881 1_655
Al3 S13 2.501348 1_555
Al3 S12 2.501348 1_555
Al3 S2 2.503105 1_555
Al3 S3 2.503105 1_555
Al3 S10 2.504969 1_565
Al3 S11 2.504969 1_455
P0 S6 2.016141 1_555
P0 S16 2.017149 1_565
P0 S2 2.108649 1_655
P0 P5 2.183883 1_555
P1 S7 2.016141 1_555
P1 S17 2.017149 1_455
P1 S3 2.108649 1_545
P1 P4 2.183883 1_555
P2 S8 2.013914 1_555
P2 S0 2.020079 1_555
P2 S12 2.107157 1_555
P2 P3 2.185223 1_555
P3 S9 2.013914 1_555
P3 S1 2.020079 1_555
P3 S13 2.107157 1_555
P4 S4 2.016198 1_555
P4 S14 2.018474 1_555
P4 S10 2.107020 1_555
P5 S5 2.016198 1_555
P5 S15 2.018474 1_555
P5 S11 2.107020 1_555
