# generated using pymatgen
data_Er5Ir3
_symmetry_space_group_name_H-M   'P 1'
_cell_length_a   6.15535800
_cell_length_b   8.27468935
_cell_length_c   8.27356296
_cell_angle_alpha   120.00450317
_cell_angle_beta   90.00000000
_cell_angle_gamma   90.00000000
_symmetry_Int_Tables_number   1
_chemical_formula_structural   Er5Ir3
_chemical_formula_sum   'Er10 Ir6'
_cell_volume   364.92911550
_cell_formula_units_Z   2
loop_
 _symmetry_equiv_pos_site_id
 _symmetry_equiv_pos_as_xyz
  1  'x, y, z'
loop_
 _atom_site_type_symbol
 _atom_site_label
 _atom_site_symmetry_multiplicity
 _atom_site_fract_x
 _atom_site_fract_y
 _atom_site_fract_z
 _atom_site_occupancy
  Er  Er0  1  0.49999700  0.33339800  0.66681700  1
  Er  Er1  1  0.49999700  0.66658100  0.33318300  1
  Er  Er2  1  0.99999700  0.66660200  0.33318300  1
  Er  Er3  1  0.99999700  0.33341900  0.66681700  1
  Er  Er4  1  0.75003100  0.26182300  0.00000000  1
  Er  Er5  1  0.74998600  0.73817200  0.73812700  1
  Er  Er6  1  0.74998600  0.00004500  0.26187300  1
  Er  Er7  1  0.25003100  0.73817700  0.00000000  1
  Er  Er8  1  0.24998600  0.26182800  0.26187300  1
  Er  Er9  1  0.24998600  0.99995500  0.73812700  1
  Ir  Ir0  1  0.75000500  0.61116500  0.00000000  1
  Ir  Ir1  1  0.74999900  0.38893300  0.38894300  1
  Ir  Ir2  1  0.74999900  0.99999100  0.61105700  1
  Ir  Ir3  1  0.25000500  0.38883500  0.00000000  1
  Ir  Ir4  1  0.24999900  0.61106700  0.61105700  1
  Ir  Ir5  1  0.24999900  0.00000900  0.38894300  1
loop_
_geom_bond_atom_site_label_1
_geom_bond_atom_site_label_2
_geom_bond_distance
_geom_bond_site_symmetry_2
Er0 Ir3 2.985383 1_556
Er0 Ir0 2.985487 1_556
Er0 Ir2 2.986498 1_545
Er0 Ir4 2.986639 1_555
Er0 Ir5 2.986752 1_555
Er0 Ir1 2.986853 1_555
Er0 Er3 3.077679 1_455
Er0 Er3 3.077679 1_555
Er0 Er7 3.456964 1_556
Er0 Er4 3.457051 1_556
Er0 Er9 3.457924 1_545
Er0 Er5 3.458017 1_555
Er0 Er6 3.458103 1_555
Er0 Er8 3.458217 1_555
Er1 Ir3 2.985383 1_555
Er1 Ir0 2.985487 1_555
Er1 Ir1 2.986505 1_555
Er1 Ir5 2.986632 1_565
Er1 Ir4 2.986747 1_555
Er1 Ir2 2.986858 1_555
Er1 Er2 3.077679 1_455
Er1 Er2 3.077679 1_555
Er1 Er7 3.456964 1_555
Er1 Er4 3.457051 1_555
Er1 Er8 3.457924 1_555
Er1 Er6 3.458017 1_565
Er1 Er5 3.458103 1_555
Er1 Er9 3.458217 1_555
Er2 Ir0 2.985383 1_555
Er2 Ir3 2.985487 1_655
Er2 Ir5 2.986498 1_665
Er2 Ir1 2.986639 1_555
Er2 Ir2 2.986752 1_555
Er2 Ir4 2.986853 1_655
Er2 Er4 3.456964 1_555
Er2 Er7 3.457051 1_655
Er2 Er6 3.457924 1_565
Er2 Er8 3.458017 1_655
Er2 Er9 3.458103 1_655
Er2 Er5 3.458217 1_555
Er3 Ir0 2.985383 1_556
Er3 Ir3 2.985487 1_656
Er3 Ir4 2.986505 1_655
Er3 Ir2 2.986632 1_545
Er3 Ir1 2.986747 1_555
Er3 Ir5 2.986858 1_655
Er3 Er4 3.456964 1_556
Er3 Er7 3.457051 1_656
Er3 Er5 3.457924 1_555
Er3 Er9 3.458017 1_645
Er3 Er8 3.458103 1_655
Er3 Er6 3.458217 1_555
Er4 Ir2 2.841892 1_544
Er4 Ir1 2.841894 1_555
Er4 Ir0 2.890697 1_555
Er4 Ir3 3.252029 1_655
Er4 Ir3 3.252332 1_555
Er5 Ir0 2.841838 1_556
Er5 Ir2 2.841978 1_555
Er5 Ir1 2.889223 1_555
Er5 Ir4 3.252260 1_555
Er5 Ir4 3.252412 1_655
Er6 Ir0 2.841838 1_545
Er6 Ir1 2.841971 1_555
Er6 Ir2 2.889219 1_545
Er6 Ir5 3.252262 1_555
Er6 Ir5 3.252413 1_655
Er7 Ir5 2.841892 1_565
Er7 Ir4 2.841894 1_554
Er7 Ir3 2.890697 1_555
Er7 Ir0 3.252029 1_555
Er7 Ir0 3.252332 1_455
Er8 Ir3 2.841838 1_555
Er8 Ir5 2.841978 1_555
Er8 Ir4 2.889223 1_555
Er8 Ir1 3.252260 1_455
Er8 Ir1 3.252412 1_555
Er9 Ir3 2.841838 1_566
Er9 Ir4 2.841971 1_555
Er9 Ir5 2.889219 1_565
Er9 Ir2 3.252262 1_455
Er9 Ir2 3.252413 1_555
