# generated using pymatgen
data_Sr3Co2O9
_symmetry_space_group_name_H-M   'P 1'
_cell_length_a   12.67790417
_cell_length_b   12.67790417
_cell_length_c   3.77874505
_cell_angle_alpha   81.82532173
_cell_angle_beta   81.82532173
_cell_angle_gamma   17.80341754
_symmetry_Int_Tables_number   1
_chemical_formula_structural   Sr3Co2O9
_chemical_formula_sum   'Sr3 Co2 O9'
_cell_volume   183.76662741
_cell_formula_units_Z   1
loop_
 _symmetry_equiv_pos_site_id
 _symmetry_equiv_pos_as_xyz
  1  'x, y, z'
loop_
 _atom_site_type_symbol
 _atom_site_label
 _atom_site_symmetry_multiplicity
 _atom_site_fract_x
 _atom_site_fract_y
 _atom_site_fract_z
 _atom_site_occupancy
  Sr  Sr0  1  0.65810600  0.65810600  0.34173800  1
  Sr  Sr1  1  0.34189400  0.34189400  0.65826200  1
  Sr  Sr2  1  0.50000000  0.50000000  0.50000000  1
  Co  Co0  1  0.92286000  0.92286000  0.08358200  1
  Co  Co1  1  0.07714000  0.07714000  0.91641800  1
  O  O0  1  0.58885400  0.58885400  0.91047700  1
  O  O1  1  0.41114600  0.41114600  0.08952300  1
  O  O2  1  0.81849700  0.81849700  0.18555200  1
  O  O3  1  0.18150300  0.18150300  0.81444800  1
  O  O4  1  0.76356000  0.76356000  0.22634100  1
  O  O5  1  0.23644000  0.23644000  0.77365900  1
  O  O6  1  0.91213600  0.91213600  0.59044000  1
  O  O7  1  0.08786400  0.08786400  0.40956000  1
  O  O8  1  0.00000000  0.00000000  0.00000000  1
loop_
_geom_bond_atom_site_label_1
_geom_bond_atom_site_label_2
_geom_bond_distance
_geom_bond_site_symmetry_2
Co0 O6 1.895359 1_555
Co0 O8 1.912641 1_665
Co0 O6 1.920610 1_554
Co0 O1 1.983251 1_655
Co0 O1 1.983251 1_565
Co0 O2 2.587132 1_555
Co1 O7 1.895359 1_555
Co1 O8 1.912641 1_556
Co1 O7 1.920610 1_556
Co1 O0 1.983251 1_545
Co1 O0 1.983251 1_455
Co1 O3 2.587132 1_555
O0 Sr0 2.545377 1_556
O0 Sr0 2.560279 1_555
O0 Sr2 2.890325 1_555
O0 Sr2 2.913674 1_556
O1 Sr1 2.545377 1_554
O1 Sr1 2.560279 1_555
O1 Sr2 2.890325 1_555
O1 Sr2 2.913674 1_554
O2 O4 1.362575 1_555
O2 Sr1 2.772028 1_655
O2 Sr1 2.772028 1_565
O2 Sr1 2.797493 1_654
O2 Sr1 2.797493 1_564
O3 O5 1.362575 1_555
O3 Sr0 2.772028 1_545
O3 Sr0 2.772028 1_455
O3 Sr0 2.797493 1_456
O3 Sr0 2.797493 1_546
O4 Sr0 2.614758 1_555
O5 Sr1 2.614758 1_555
O6 Sr1 2.623090 1_655
O6 Sr1 2.623090 1_565
O6 Sr2 2.931445 1_565
O6 Sr2 2.931445 1_655
O7 Sr0 2.623090 1_455
O7 Sr0 2.623090 1_545
O7 Sr2 2.931445 1_455
O7 Sr2 2.931445 1_545
O8 Sr2 2.723655 1_455
O8 Sr2 2.723655 1_454
O8 Sr2 2.723655 1_545
O8 Sr2 2.723655 1_544
