# generated using pymatgen
data_Mg6AlFe
_symmetry_space_group_name_H-M   'P 1'
_cell_length_a   4.90233665
_cell_length_b   5.99879629
_cell_length_c   10.64039823
_cell_angle_alpha   90.00000188
_cell_angle_beta   90.00000000
_cell_angle_gamma   90.00000000
_symmetry_Int_Tables_number   1
_chemical_formula_structural   Mg6AlFe
_chemical_formula_sum   'Mg12 Al2 Fe2'
_cell_volume   312.91409638
_cell_formula_units_Z   2
loop_
 _symmetry_equiv_pos_site_id
 _symmetry_equiv_pos_as_xyz
  1  'x, y, z'
loop_
 _atom_site_type_symbol
 _atom_site_label
 _atom_site_symmetry_multiplicity
 _atom_site_fract_x
 _atom_site_fract_y
 _atom_site_fract_z
 _atom_site_occupancy
  Mg  Mg0  1  0.00000000  0.25722472  0.08414204  1
  Mg  Mg1  1  0.00000000  0.74277521  0.08414219  1
  Mg  Mg2  1  0.00000000  0.49999997  0.83068508  1
  Mg  Mg3  1  0.50000000  0.24654739  0.91695567  1
  Mg  Mg4  1  0.50000000  0.75345257  0.91695562  1
  Mg  Mg5  1  0.50000000  0.49999987  0.66916689  1
  Mg  Mg6  1  0.00000000  0.75722472  0.58414204  1
  Mg  Mg7  1  0.00000000  0.24277521  0.58414219  1
  Mg  Mg8  1  0.00000000  0.99999997  0.33068508  1
  Mg  Mg9  1  0.50000000  0.74654739  0.41695567  1
  Mg  Mg10  1  0.50000000  0.25345257  0.41695562  1
  Mg  Mg11  1  0.50000000  0.99999987  0.16916689  1
  Al  Al0  1  0.00000000  0.49999995  0.31971743  1
  Al  Al1  1  0.00000000  0.99999995  0.81971743  1
  Fe  Fe0  1  0.50000000  0.50000032  0.17823509  1
  Fe  Fe1  1  0.50000000  0.00000032  0.67823509  1
loop_
_geom_bond_atom_site_label_1
_geom_bond_atom_site_label_2
_geom_bond_distance
_geom_bond_site_symmetry_2
Mg0 Mg1 2.912718 1_555
Mg0 Mg3 3.029343 1_554
Mg0 Mg3 3.029343 1_454
Mg0 Mg11 3.034415 1_545
Mg0 Mg11 3.034415 1_445
Mg0 Mg8 3.043478 1_545
Mg0 Mg2 3.064989 1_554
Mg0 Mg1 3.086078 1_545
Mg1 Mg4 3.029344 1_554
Mg1 Mg4 3.029344 1_454
Mg1 Mg11 3.034414 1_455
Mg1 Mg11 3.034414 1_555
Mg1 Mg8 3.043476 1_555
Mg1 Mg2 3.064991 1_554
Mg2 Mg5 2.993639 1_555
Mg2 Mg5 2.993639 1_455
Mg2 Mg4 3.026964 1_555
Mg2 Mg4 3.026964 1_455
Mg2 Mg3 3.026964 1_555
Mg2 Mg3 3.026964 1_455
Mg2 Mg7 3.043476 1_555
Mg2 Mg6 3.043478 1_555
Mg3 Mg4 2.957975 1_545
Mg3 Mg4 3.040821 1_555
Mg3 Mg5 3.043543 1_555
Mg4 Mg5 3.043543 1_555
Mg5 Mg7 3.034414 1_555
Mg5 Mg7 3.034414 1_655
Mg5 Mg6 3.034415 1_655
Mg5 Mg6 3.034415 1_555
Mg5 Mg9 3.064191 1_555
Mg6 Mg7 2.912718 1_565
Mg6 Mg9 3.029343 1_455
Mg6 Mg9 3.029343 1_555
Mg6 Mg8 3.064989 1_555
Mg6 Mg7 3.086078 1_555
Mg7 Mg8 3.064991 1_545
Mg8 Mg9 3.026964 1_455
Mg8 Mg9 3.026964 1_555
Mg10 Mg9 2.957975 1_555
Mg10 Mg8 3.026964 1_645
Mg10 Mg8 3.026964 1_545
Mg10 Mg7 3.029344 1_555
Mg10 Mg7 3.029344 1_655
Mg10 Mg9 3.040821 1_545
Mg10 Mg11 3.043543 1_545
Mg10 Mg5 3.064191 1_555
Mg11 Mg8 2.993639 1_655
Mg11 Mg8 2.993639 1_555
Mg11 Mg9 3.043543 1_555
Mg11 Mg4 3.064191 1_554
Mg11 Mg3 3.064191 1_564
Al0 Fe0 2.876550 1_555
Al0 Fe0 2.876550 1_455
Al0 Mg1 2.898982 1_555
Al0 Mg0 2.898983 1_555
Al0 Mg8 3.001667 1_545
Al0 Mg8 3.001668 1_555
Al0 Mg10 3.044033 1_555
Al0 Mg10 3.044033 1_455
Al0 Mg9 3.044033 1_555
Al0 Mg9 3.044033 1_455
Al0 Mg6 3.208928 1_555
Al0 Mg7 3.208929 1_555
Al1 Fe1 2.876550 1_465
Al1 Fe1 2.876550 1_565
Al1 Mg7 2.898982 1_565
Al1 Mg6 2.898983 1_555
Al1 Mg2 3.001667 1_555
Al1 Mg2 3.001668 1_565
Al1 Mg4 3.044033 1_555
Al1 Mg4 3.044033 1_455
Al1 Mg3 3.044033 1_565
Al1 Mg3 3.044033 1_465
Al1 Mg0 3.208928 1_566
Al1 Mg1 3.208929 1_556
Fe0 Mg9 2.939288 1_555
Fe0 Mg10 2.939290 1_555
Fe0 Mg11 3.000947 1_555
Fe0 Mg11 3.000952 1_545
Fe0 Mg1 3.021850 1_655
Fe0 Mg1 3.021850 1_555
Fe0 Mg0 3.021852 1_555
Fe0 Mg0 3.021852 1_655
Fe0 Mg4 3.168706 1_554
Fe0 Mg3 3.168707 1_554
Fe1 Mg3 2.939288 1_555
Fe1 Mg4 2.939290 1_545
Fe1 Mg5 3.000947 1_555
Fe1 Mg5 3.000952 1_545
Fe1 Mg7 3.021850 1_555
Fe1 Mg7 3.021850 1_655
Fe1 Mg6 3.021852 1_545
Fe1 Mg6 3.021852 1_645
Fe1 Mg10 3.168706 1_555
Fe1 Mg9 3.168707 1_545
