# generated using pymatgen
data_KMn4O8
_symmetry_space_group_name_H-M   'P 1'
_cell_length_a   5.94563850
_cell_length_b   5.94563850
_cell_length_c   7.39018773
_cell_angle_alpha   66.69595901
_cell_angle_beta   66.69595901
_cell_angle_gamma   58.74219711
_symmetry_Int_Tables_number   1
_chemical_formula_structural   KMn4O8
_chemical_formula_sum   'K1 Mn4 O8'
_cell_volume   198.98754679
_cell_formula_units_Z   1
loop_
 _symmetry_equiv_pos_site_id
 _symmetry_equiv_pos_as_xyz
  1  'x, y, z'
loop_
 _atom_site_type_symbol
 _atom_site_label
 _atom_site_symmetry_multiplicity
 _atom_site_fract_x
 _atom_site_fract_y
 _atom_site_fract_z
 _atom_site_occupancy
  K  K0  1  0.00000000  0.00000000  0.00000000  1
  Mn  Mn0  1  0.00000000  0.50000000  0.50000000  1
  Mn  Mn1  1  0.50000000  0.00000000  0.50000000  1
  Mn  Mn2  1  0.00000000  0.00000000  0.50000000  1
  Mn  Mn3  1  0.50000000  0.50000000  0.50000000  1
  O  O0  1  0.21358600  0.21358600  0.34989800  1
  O  O1  1  0.73463600  0.73463600  0.34222400  1
  O  O2  1  0.71474300  0.20871000  0.35418300  1
  O  O3  1  0.20871000  0.71474300  0.35418300  1
  O  O4  1  0.28525700  0.79129000  0.64581700  1
  O  O5  1  0.79129000  0.28525700  0.64581700  1
  O  O6  1  0.78641400  0.78641400  0.65010200  1
  O  O7  1  0.26536400  0.26536400  0.65777600  1
loop_
_geom_bond_atom_site_label_1
_geom_bond_atom_site_label_2
_geom_bond_distance
_geom_bond_site_symmetry_2
K0 O1 2.764765 1_445
K0 O7 2.764765 1_554
K0 O2 2.853226 1_455
K0 O3 2.853226 1_545
K0 O5 2.853226 1_454
K0 O4 2.853226 1_544
Mn0 O7 1.918172 1_555
Mn0 O1 1.918172 1_455
Mn0 O5 1.956750 1_455
Mn0 O3 1.956750 1_555
Mn0 O6 1.969490 1_455
Mn0 O0 1.969490 1_555
Mn1 O7 1.918172 1_555
Mn1 O1 1.918172 1_545
Mn1 O4 1.956750 1_545
Mn1 O2 1.956750 1_555
Mn1 O6 1.969490 1_545
Mn1 O0 1.969490 1_555
Mn2 O4 1.944624 1_545
Mn2 O5 1.944624 1_455
Mn2 O2 1.944624 1_455
Mn2 O3 1.944624 1_545
Mn2 O0 1.974905 1_555
Mn2 O6 1.974905 1_445
Mn3 O5 1.970829 1_555
Mn3 O4 1.970829 1_555
Mn3 O2 1.970829 1_555
Mn3 O3 1.970829 1_555
Mn3 O1 2.167395 1_555
Mn3 O7 2.167395 1_555
