# generated using pymatgen
data_Ti2CrO5
_symmetry_space_group_name_H-M   'P 1'
_cell_length_a   5.20013300
_cell_length_b   10.30967975
_cell_length_c   7.06797688
_cell_angle_alpha   109.20859023
_cell_angle_beta   89.99997188
_cell_angle_gamma   89.99990205
_symmetry_Int_Tables_number   1
_chemical_formula_structural   Ti2CrO5
_chemical_formula_sum   'Ti8 Cr4 O20'
_cell_volume   357.83035427
_cell_formula_units_Z   4
loop_
 _symmetry_equiv_pos_site_id
 _symmetry_equiv_pos_as_xyz
  1  'x, y, z'
loop_
 _atom_site_type_symbol
 _atom_site_label
 _atom_site_symmetry_multiplicity
 _atom_site_fract_x
 _atom_site_fract_y
 _atom_site_fract_z
 _atom_site_occupancy
  Ti  Ti0  1  0.48303400  0.13426700  0.22042900  1
  Ti  Ti1  1  0.98303400  0.63427000  0.22043100  1
  Ti  Ti2  1  0.98303300  0.36573100  0.27957100  1
  Ti  Ti3  1  0.48303200  0.86573400  0.27957200  1
  Ti  Ti4  1  0.51696700  0.13426600  0.72043100  1
  Ti  Ti5  1  0.01696700  0.63427000  0.72043100  1
  Ti  Ti6  1  0.01696600  0.36572900  0.77957000  1
  Ti  Ti7  1  0.51696800  0.86573500  0.77957200  1
  Cr  Cr0  1  0.49997600  0.50000200  0.99999700  1
  Cr  Cr1  1  0.50002200  0.49999100  0.49999500  1
  Cr  Cr2  1  0.00002000  0.99999800  0.99999800  1
  Cr  Cr3  1  0.99998900  0.00000300  0.49998600  1
  O  O0  1  0.79211300  0.00000200  0.75000100  1
  O  O1  1  0.29211700  0.50000100  0.74999800  1
  O  O2  1  0.20789100  0.99999800  0.25000000  1
  O  O3  1  0.70788200  0.49999900  0.25000200  1
  O  O4  1  0.85438700  0.41664300  0.55700400  1
  O  O5  1  0.35437800  0.91665000  0.55700600  1
  O  O6  1  0.35437600  0.08335100  0.94299700  1
  O  O7  1  0.85437900  0.58335500  0.94299900  1
  O  O8  1  0.64561600  0.08335300  0.44299400  1
  O  O9  1  0.14561700  0.58335500  0.44299900  1
  O  O10  1  0.14561500  0.41664600  0.05700400  1
  O  O11  1  0.64562200  0.91665000  0.05700700  1
  O  O12  1  0.18744100  0.20419500  0.67048000  1
  O  O13  1  0.68744800  0.70420300  0.67048000  1
  O  O14  1  0.68744800  0.29579700  0.82951900  1
  O  O15  1  0.18744200  0.79580500  0.82952600  1
  O  O16  1  0.31255200  0.29579700  0.32952200  1
  O  O17  1  0.81255900  0.79580500  0.32952600  1
  O  O18  1  0.81255800  0.20419400  0.17047500  1
  O  O19  1  0.31255200  0.70420400  0.17048200  1
loop_
_geom_bond_atom_site_label_1
_geom_bond_atom_site_label_2
_geom_bond_distance
_geom_bond_site_symmetry_2
Cr0 O1 2.071368 1_555
Cr0 O3 2.071544 1_556
Cr0 O10 2.127053 1_556
Cr0 O7 2.127207 1_555
Cr0 O19 2.272605 1_556
Cr0 O14 2.272724 1_555
Cr1 O3 2.071360 1_555
Cr1 O1 2.071490 1_555
Cr1 O4 2.127035 1_555
Cr1 O9 2.127263 1_555
Cr1 O16 2.272630 1_555
Cr1 O13 2.272690 1_555
Cr2 O2 2.071422 1_556
Cr2 O0 2.071501 1_465
Cr2 O6 2.127003 1_565
Cr2 O11 2.127186 1_456
Cr2 O15 2.272510 1_555
Cr2 O18 2.272630 1_466
Cr3 O2 2.071394 1_645
Cr3 O0 2.071516 1_555
Cr3 O8 2.127042 1_555
Cr3 O5 2.127192 1_645
Cr3 O17 2.272551 1_545
Cr3 O12 2.272608 1_655
O0 Ti4 2.048726 1_555
O0 Ti7 2.048750 1_545
O1 Ti5 2.048770 1_555
O1 Ti6 2.048810 1_555
O2 Ti3 2.048712 1_555
O2 Ti0 2.048757 1_565
O3 Ti2 2.048771 1_555
O3 Ti1 2.048804 1_555
O4 Ti2 1.972527 1_555
O4 Ti6 2.002059 1_655
O4 Ti5 2.318988 1_655
O5 Ti3 1.972545 1_555
O5 Ti7 2.002089 1_555
O5 Ti4 2.318911 1_565
O6 Ti0 1.972540 1_556
O6 Ti4 2.002091 1_555
O6 Ti7 2.318914 1_545
O7 Ti1 1.972536 1_556
O7 Ti5 2.002097 1_655
O7 Ti6 2.318992 1_655
O8 Ti4 1.972557 1_555
O8 Ti0 2.002060 1_555
O8 Ti3 2.318923 1_545
O9 Ti5 1.972526 1_555
O9 Ti1 2.002086 1_455
O9 Ti2 2.318972 1_455
O10 Ti6 1.972537 1_554
O10 Ti2 2.002077 1_455
O10 Ti1 2.318962 1_455
O11 Ti7 1.972553 1_554
O11 Ti3 2.002088 1_555
O11 Ti0 2.318911 1_565
O12 Ti6 1.819030 1_555
O12 Ti4 1.936038 1_555
O13 Ti7 1.819029 1_555
O13 Ti5 1.936024 1_655
O14 Ti4 1.819023 1_555
O14 Ti6 1.936012 1_655
O15 Ti5 1.819046 1_555
O15 Ti7 1.936051 1_555
O16 Ti0 1.819019 1_555
O16 Ti2 1.936028 1_455
O17 Ti1 1.819043 1_555
O17 Ti3 1.936049 1_555
O18 Ti2 1.819063 1_555
O18 Ti0 1.936028 1_555
O19 Ti3 1.819014 1_555
O19 Ti1 1.936021 1_455
