# generated using pymatgen
data_CrN2
_symmetry_space_group_name_H-M   'P 1'
_cell_length_a   14.42800568
_cell_length_b   14.42800568
_cell_length_c   18.46248314
_cell_angle_alpha   61.36311623
_cell_angle_beta   61.36311623
_cell_angle_gamma   37.44372986
_symmetry_Int_Tables_number   1
_chemical_formula_structural   CrN2
_chemical_formula_sum   'Cr28 N56'
_cell_volume   2015.39362038
_cell_formula_units_Z   28
loop_
 _symmetry_equiv_pos_site_id
 _symmetry_equiv_pos_as_xyz
  1  'x, y, z'
loop_
 _atom_site_type_symbol
 _atom_site_label
 _atom_site_symmetry_multiplicity
 _atom_site_fract_x
 _atom_site_fract_y
 _atom_site_fract_z
 _atom_site_occupancy
  Cr  Cr0  1  0.47326000  0.84267300  0.60087200  1
  Cr  Cr1  1  0.84267300  0.47326000  0.60087200  1
  Cr  Cr2  1  0.52674000  0.15732700  0.39912800  1
  Cr  Cr3  1  0.15732700  0.52674000  0.39912800  1
  Cr  Cr4  1  0.54886000  0.92258200  0.22403400  1
  Cr  Cr5  1  0.92258200  0.54886000  0.22403400  1
  Cr  Cr6  1  0.45114000  0.07741800  0.77596600  1
  Cr  Cr7  1  0.07741800  0.45114000  0.77596600  1
  Cr  Cr8  1  0.99283800  0.62072300  0.90777400  1
  Cr  Cr9  1  0.62072300  0.99283800  0.90777400  1
  Cr  Cr10  1  0.00716200  0.37927700  0.09222600  1
  Cr  Cr11  1  0.37927700  0.00716200  0.09222600  1
  Cr  Cr12  1  0.96703100  0.59675800  0.59590500  1
  Cr  Cr13  1  0.59675800  0.96703100  0.59590500  1
  Cr  Cr14  1  0.03296900  0.40324200  0.40409500  1
  Cr  Cr15  1  0.40324200  0.03296900  0.40409500  1
  Cr  Cr16  1  0.23635600  0.60779500  0.91409900  1
  Cr  Cr17  1  0.60779500  0.23635600  0.91409900  1
  Cr  Cr18  1  0.76364400  0.39220500  0.08590100  1
  Cr  Cr19  1  0.39220500  0.76364400  0.08590100  1
  Cr  Cr20  1  0.18683900  0.56052200  0.11781100  1
  Cr  Cr21  1  0.56052200  0.18683900  0.11781100  1
  Cr  Cr22  1  0.81316100  0.43947800  0.88218900  1
  Cr  Cr23  1  0.43947800  0.81316100  0.88218900  1
  Cr  Cr24  1  0.24206600  0.86990500  0.78427800  1
  Cr  Cr25  1  0.86990500  0.24206600  0.78427800  1
  Cr  Cr26  1  0.75793400  0.13009500  0.21572200  1
  Cr  Cr27  1  0.13009500  0.75793400  0.21572200  1
  N  N0  1  0.73408100  0.73408100  0.21979400  1
  N  N1  1  0.26591900  0.26591900  0.78020600  1
  N  N2  1  0.84362600  0.33460900  0.83664100  1
  N  N3  1  0.33460900  0.84362600  0.83664100  1
  N  N4  1  0.15637400  0.66539100  0.16335900  1
  N  N5  1  0.66539100  0.15637400  0.16335900  1
  N  N6  1  0.80868800  0.80868800  0.91434400  1
  N  N7  1  0.19131200  0.19131200  0.08565600  1
  N  N8  1  0.83023900  0.35582000  0.98644800  1
  N  N9  1  0.35582000  0.83023900  0.98644800  1
  N  N10  1  0.16976100  0.64418000  0.01355200  1
  N  N11  1  0.64418000  0.16976100  0.01355200  1
  N  N12  1  0.50000000  0.00000000  0.00000000  1
  N  N13  1  0.00000000  0.50000000  0.00000000  1
  N  N14  1  0.42277200  0.42277200  0.91166800  1
  N  N15  1  0.57722800  0.57722800  0.08833200  1
  N  N16  1  0.50771600  0.06360400  0.38423600  1
  N  N17  1  0.06360400  0.50771600  0.38423600  1
  N  N18  1  0.49228400  0.93639600  0.61576400  1
  N  N19  1  0.93639600  0.49228400  0.61576400  1
  N  N20  1  0.05364600  0.53399600  0.67257400  1
  N  N21  1  0.53399600  0.05364600  0.67257400  1
  N  N22  1  0.94635400  0.46600400  0.32742600  1
  N  N23  1  0.46600400  0.94635400  0.32742600  1
  N  N24  1  0.26162000  0.76485300  0.16296500  1
  N  N25  1  0.76485300  0.26162000  0.16296500  1
  N  N26  1  0.73838000  0.23514700  0.83703500  1
  N  N27  1  0.23514700  0.73838000  0.83703500  1
  N  N28  1  0.56068000  0.05012300  0.16912800  1
  N  N29  1  0.05012300  0.56068000  0.16912800  1
  N  N30  1  0.43932000  0.94987700  0.83087200  1
  N  N31  1  0.94987700  0.43932000  0.83087200  1
  N  N32  1  0.94514100  0.94514100  0.21789400  1
  N  N33  1  0.05485900  0.05485900  0.78210600  1
  N  N34  1  0.37214400  0.37214400  0.12466000  1
  N  N35  1  0.62785600  0.62785600  0.87534000  1
  N  N36  1  0.15263500  0.65735300  0.31822500  1
  N  N37  1  0.65735300  0.15263500  0.31822500  1
  N  N38  1  0.84736500  0.34264700  0.68177500  1
  N  N39  1  0.34264700  0.84736500  0.68177500  1
  N  N40  1  0.42178300  0.92381800  0.50403400  1
  N  N41  1  0.92381800  0.42178300  0.50403400  1
  N  N42  1  0.57821700  0.07618200  0.49596600  1
  N  N43  1  0.07618200  0.57821700  0.49596600  1
  N  N44  1  0.78936700  0.78936700  0.59531900  1
  N  N45  1  0.21063300  0.21063300  0.40468100  1
  N  N46  1  0.43853600  0.96450900  0.17541400  1
  N  N47  1  0.96450900  0.43853600  0.17541400  1
  N  N48  1  0.56146400  0.03549100  0.82458600  1
  N  N49  1  0.03549100  0.56146400  0.82458600  1
  N  N50  1  0.65278700  0.65278700  0.59915700  1
  N  N51  1  0.34721300  0.34721300  0.40084300  1
  N  N52  1  0.12480200  0.61271700  0.89710200  1
  N  N53  1  0.61271700  0.12480200  0.89710200  1
  N  N54  1  0.87519800  0.38728300  0.10289800  1
  N  N55  1  0.38728300  0.87519800  0.10289800  1
loop_
_geom_bond_atom_site_label_1
_geom_bond_atom_site_label_2
_geom_bond_distance
_geom_bond_site_symmetry_2
Cr0 N50 1.718218 1_555
Cr0 N39 1.727206 1_555
Cr0 N18 1.731340 1_555
Cr0 N40 1.733347 1_555
Cr1 N50 1.718218 1_555
Cr1 N38 1.727206 1_555
Cr1 N19 1.731340 1_555
Cr1 N41 1.733347 1_555
Cr2 N51 1.718218 1_555
Cr2 N37 1.727206 1_555
Cr2 N16 1.731340 1_555
Cr2 N42 1.733347 1_555
Cr3 N51 1.718218 1_555
Cr3 N36 1.727206 1_555
Cr3 N17 1.731340 1_555
Cr3 N43 1.733347 1_555
Cr4 N23 1.726187 1_555
Cr4 N28 1.728437 1_565
Cr4 N0 1.734088 1_555
Cr4 N46 1.739393 1_555
Cr5 N22 1.726187 1_555
Cr5 N29 1.728437 1_655
Cr5 N0 1.734088 1_555
Cr5 N47 1.739393 1_555
Cr6 N21 1.726187 1_555
Cr6 N30 1.728437 1_545
Cr6 N1 1.734088 1_555
Cr6 N48 1.739393 1_555
Cr7 N20 1.726187 1_555
Cr7 N31 1.728437 1_455
Cr7 N1 1.734088 1_555
Cr7 N49 1.739393 1_555
Cr8 N13 1.727391 1_656
Cr8 N49 1.727947 1_655
Cr8 N52 1.729249 1_655
Cr8 N6 1.730173 1_555
Cr9 N12 1.727391 1_566
Cr9 N48 1.727947 1_565
Cr9 N53 1.729249 1_565
Cr9 N6 1.730173 1_555
Cr10 N13 1.727391 1_555
Cr10 N47 1.727947 1_455
Cr10 N54 1.729249 1_455
Cr10 N7 1.730173 1_555
Cr11 N12 1.727391 1_555
Cr11 N46 1.727947 1_545
Cr11 N55 1.729249 1_545
Cr11 N7 1.730173 1_555
Cr12 N19 1.724753 1_555
Cr12 N43 1.724842 1_655
Cr12 N44 1.726246 1_555
Cr12 N20 1.747958 1_655
Cr13 N18 1.724753 1_555
Cr13 N42 1.724842 1_565
Cr13 N44 1.726246 1_555
Cr13 N21 1.747958 1_565
Cr14 N17 1.724753 1_555
Cr14 N41 1.724842 1_455
Cr14 N45 1.726246 1_555
Cr14 N22 1.747958 1_455
Cr15 N16 1.724753 1_555
Cr15 N40 1.724842 1_545
Cr15 N45 1.726246 1_555
Cr15 N23 1.747958 1_545
Cr16 N14 1.720581 1_555
Cr16 N52 1.724899 1_555
Cr16 N27 1.725271 1_555
Cr16 N10 1.732677 1_556
Cr17 N14 1.720581 1_555
Cr17 N53 1.724899 1_555
Cr17 N26 1.725271 1_555
Cr17 N11 1.732677 1_556
Cr18 N15 1.720581 1_555
Cr18 N54 1.724899 1_555
Cr18 N25 1.725271 1_555
Cr18 N8 1.732677 1_554
Cr19 N15 1.720581 1_555
Cr19 N55 1.724899 1_555
Cr19 N24 1.725271 1_555
Cr19 N9 1.732677 1_554
Cr20 N10 1.725731 1_555
Cr20 N29 1.729786 1_555
Cr20 N4 1.731740 1_555
Cr20 N34 1.734107 1_555
Cr21 N11 1.725731 1_555
Cr21 N28 1.729786 1_555
Cr21 N5 1.731740 1_555
Cr21 N34 1.734107 1_555
Cr22 N8 1.725731 1_555
Cr22 N31 1.729786 1_555
Cr22 N2 1.731740 1_555
Cr22 N35 1.734107 1_555
Cr23 N9 1.725731 1_555
Cr23 N30 1.729786 1_555
Cr23 N3 1.731740 1_555
Cr23 N35 1.734107 1_555
Cr24 N3 1.715577 1_555
Cr24 N33 1.724589 1_565
Cr24 N27 1.730802 1_555
Cr24 N39 1.732411 1_555
Cr25 N2 1.715577 1_555
Cr25 N33 1.724589 1_655
Cr25 N26 1.730802 1_555
Cr25 N38 1.732411 1_555
Cr26 N5 1.715577 1_555
Cr26 N32 1.724589 1_545
Cr26 N25 1.730802 1_555
Cr26 N37 1.732411 1_555
Cr27 N4 1.715577 1_555
Cr27 N32 1.724589 1_455
Cr27 N24 1.730802 1_555
Cr27 N36 1.732411 1_555
