# generated using pymatgen
data_Th2(Mo3S4)5
_symmetry_space_group_name_H-M   'P 1'
_cell_length_a   9.30057000
_cell_length_b   11.20737450
_cell_length_c   14.46104528
_cell_angle_alpha   105.13612225
_cell_angle_beta   107.35737379
_cell_angle_gamma   90.85248666
_symmetry_Int_Tables_number   1
_chemical_formula_structural   Th2(Mo3S4)5
_chemical_formula_sum   'Th4 Mo30 S40'
_cell_volume   1381.73571038
_cell_formula_units_Z   2
loop_
 _symmetry_equiv_pos_site_id
 _symmetry_equiv_pos_as_xyz
  1  'x, y, z'
loop_
 _atom_site_type_symbol
 _atom_site_label
 _atom_site_symmetry_multiplicity
 _atom_site_fract_x
 _atom_site_fract_y
 _atom_site_fract_z
 _atom_site_occupancy
  Th  Th0  1  0.89951700  0.60048300  0.80180700  1
  Th  Th1  1  0.30015700  0.19949700  0.59958400  1
  Th  Th2  1  0.69984300  0.80050300  0.40041600  1
  Th  Th3  1  0.10048300  0.39951700  0.19819300  1
  Mo  Mo0  1  0.55053100  0.38661600  0.08191200  1
  Mo  Mo1  1  0.95062800  0.98851800  0.88169000  1
  Mo  Mo2  1  0.34854700  0.58800800  0.68209600  1
  Mo  Mo3  1  0.74925500  0.18769800  0.48133500  1
  Mo  Mo4  1  0.14928900  0.78853500  0.28173900  1
  Mo  Mo5  1  0.64534300  0.43356400  0.93477100  1
  Mo  Mo6  1  0.04676200  0.03359200  0.73747400  1
  Mo  Mo7  1  0.44533000  0.63456200  0.53624300  1
  Mo  Mo8  1  0.84468600  0.23500200  0.33538600  1
  Mo  Mo9  1  0.24851200  0.83462500  0.13603800  1
  Mo  Mo10  1  0.65438800  0.61886100  0.09926700  1
  Mo  Mo11  1  0.05813200  0.21746600  0.89957100  1
  Mo  Mo12  1  0.45793500  0.81971200  0.70116100  1
  Mo  Mo13  1  0.85581300  0.41933200  0.49921200  1
  Mo  Mo14  1  0.25624600  0.02039000  0.29972800  1
  Mo  Mo15  1  0.44946900  0.61338400  0.91808800  1
  Mo  Mo16  1  0.85071100  0.21146500  0.71826100  1
  Mo  Mo17  1  0.25074500  0.81230200  0.51866500  1
  Mo  Mo18  1  0.65145300  0.41199200  0.31790400  1
  Mo  Mo19  1  0.04937200  0.01148200  0.11831000  1
  Mo  Mo20  1  0.35465700  0.56643600  0.06522900  1
  Mo  Mo21  1  0.75148800  0.16537500  0.86396200  1
  Mo  Mo22  1  0.15531400  0.76499800  0.66461400  1
  Mo  Mo23  1  0.55467000  0.36543800  0.46375700  1
  Mo  Mo24  1  0.95323800  0.96640800  0.26252600  1
  Mo  Mo25  1  0.34561200  0.38113900  0.90073300  1
  Mo  Mo26  1  0.74375400  0.97961000  0.70027200  1
  Mo  Mo27  1  0.14418700  0.58066800  0.50078800  1
  Mo  Mo28  1  0.54206500  0.18028800  0.29883900  1
  Mo  Mo29  1  0.94186800  0.78253400  0.10042900  1
  S  S0  1  0.72101000  0.02355200  0.32501200  1
  S  S1  1  0.12154600  0.62335100  0.12694100  1
  S  S2  1  0.52819800  0.22909800  0.92769500  1
  S  S3  1  0.92233100  0.82313900  0.72651500  1
  S  S4  1  0.32242200  0.42275200  0.52610600  1
  S  S5  1  0.92517600  0.44826700  0.34674900  1
  S  S6  1  0.32459100  0.04711800  0.15270300  1
  S  S7  1  0.72319800  0.65068000  0.94742700  1
  S  S8  1  0.12466200  0.24831200  0.74734400  1
  S  S9  1  0.52406300  0.84777600  0.54588800  1
  S  S10  1  0.75055700  0.37899800  0.62576800  1
  S  S11  1  0.15034100  0.97882200  0.42609700  1
  S  S12  1  0.55072300  0.58040700  0.22678600  1
  S  S13  1  0.94699900  0.17858800  0.02518500  1
  S  S14  1  0.35219300  0.77343800  0.82242100  1
  S  S15  1  0.67757800  0.57724800  0.47389400  1
  S  S16  1  0.07766900  0.17686100  0.27348500  1
  S  S17  1  0.47180200  0.77090200  0.07230500  1
  S  S18  1  0.87845400  0.37664900  0.87305900  1
  S  S19  1  0.27899000  0.97644800  0.67498800  1
  S  S20  1  0.47593700  0.15222400  0.45411200  1
  S  S21  1  0.87533800  0.75168800  0.25265600  1
  S  S22  1  0.27680200  0.34932000  0.05257300  1
  S  S23  1  0.67540900  0.95288200  0.84729700  1
  S  S24  1  0.07482400  0.55173300  0.65325100  1
  S  S25  1  0.64780700  0.22656200  0.17757900  1
  S  S26  1  0.05300100  0.82141200  0.97481500  1
  S  S27  1  0.44927700  0.41959300  0.77321400  1
  S  S28  1  0.84965900  0.02117800  0.57390300  1
  S  S29  1  0.24944300  0.62100200  0.37423200  1
  S  S30  1  0.00932500  0.24793400  0.50315200  1
  S  S31  1  0.41015700  0.84875800  0.30367800  1
  S  S32  1  0.80970800  0.44749500  0.10229400  1
  S  S33  1  0.21307000  0.04852700  0.90429700  1
  S  S34  1  0.60950300  0.64795400  0.70355700  1
  S  S35  1  0.39049700  0.35204600  0.29644300  1
  S  S36  1  0.78693000  0.95147300  0.09570300  1
  S  S37  1  0.19029200  0.55250500  0.89770600  1
  S  S38  1  0.58984300  0.15124200  0.69632200  1
  S  S39  1  0.99067500  0.75206600  0.49684800  1
loop_
_geom_bond_atom_site_label_1
_geom_bond_atom_site_label_2
_geom_bond_distance
_geom_bond_site_symmetry_2
Mo0 S32 2.405203 1_555
Mo0 S2 2.406214 1_554
Mo0 S22 2.463180 1_555
Mo0 S25 2.558819 1_555
Mo0 S12 2.593778 1_555
Mo1 S33 2.424295 1_665
Mo1 S3 2.449732 1_555
Mo1 S23 2.462753 1_555
Mo1 S13 2.565217 1_566
Mo1 S26 2.613939 1_655
Mo2 S34 2.414824 1_555
Mo2 S4 2.460806 1_555
Mo2 S24 2.463191 1_555
Mo2 S14 2.488449 1_555
Mo2 S27 2.606035 1_555
Mo3 S30 2.406393 1_655
Mo3 S0 2.454202 1_555
Mo3 S20 2.462919 1_555
Mo3 S10 2.569986 1_555
Mo3 S28 2.599516 1_555
Mo4 S31 2.413073 1_555
Mo4 S1 2.445780 1_555
Mo4 S21 2.465327 1_455
Mo4 S11 2.562878 1_555
Mo4 S29 2.608116 1_555
Mo5 S32 2.411594 1_556
Mo5 S27 2.463028 1_555
Mo5 S7 2.472790 1_555
Mo5 S2 2.487036 1_555
Mo5 S18 2.608085 1_555
Mo6 S33 2.407349 1_555
Mo6 S8 2.458319 1_555
Mo6 S28 2.491652 1_455
Mo6 S3 2.557669 1_445
Mo6 S19 2.606735 1_545
Mo7 S34 2.409843 1_555
Mo7 S9 2.445126 1_555
Mo7 S29 2.467849 1_555
Mo7 S4 2.569208 1_555
Mo7 S15 2.606181 1_555
Mo8 S30 2.417593 1_655
Mo8 S25 2.441000 1_555
Mo8 S5 2.443039 1_555
Mo8 S0 2.567453 1_555
Mo8 S16 2.610743 1_655
Mo9 S6 2.403878 1_565
Mo9 S31 2.404175 1_555
Mo9 S26 2.458909 1_554
Mo9 S17 2.552383 1_555
Mo9 S1 2.584526 1_555
Mo10 S32 2.421977 1_555
Mo10 S17 2.444852 1_555
Mo10 S12 2.445271 1_555
Mo10 S7 2.568791 1_554
Mo10 S21 2.612279 1_555
Mo11 S33 2.399168 1_555
Mo11 S13 2.465377 1_456
Mo11 S18 2.487159 1_455
Mo11 S8 2.559719 1_555
Mo11 S22 2.594911 1_556
Mo12 S34 2.404216 1_555
Mo12 S14 2.408274 1_555
Mo12 S19 2.461119 1_555
Mo12 S23 2.548959 1_555
Mo12 S9 2.589612 1_555
Mo13 S30 2.412858 1_655
Mo13 S10 2.449466 1_555
Mo13 S15 2.465322 1_555
Mo13 S5 2.568691 1_555
Mo13 S24 2.605683 1_655
Mo14 S31 2.417207 1_545
Mo14 S11 2.455935 1_545
Mo14 S16 2.456797 1_555
Mo14 S6 2.479422 1_555
Mo14 S20 2.609211 1_555
Mo15 S37 2.405203 1_555
Mo15 S17 2.406214 1_556
Mo15 S7 2.463180 1_555
Mo15 S14 2.558819 1_555
Mo15 S27 2.593778 1_555
Mo16 S38 2.413073 1_555
Mo16 S18 2.445780 1_555
Mo16 S8 2.465327 1_655
Mo16 S28 2.562878 1_555
Mo16 S10 2.608116 1_555
Mo17 S39 2.406393 1_455
Mo17 S19 2.454202 1_555
Mo17 S9 2.462919 1_555
Mo17 S29 2.569986 1_555
Mo17 S11 2.599516 1_555
Mo18 S35 2.414824 1_555
Mo18 S15 2.460806 1_555
Mo18 S5 2.463191 1_555
Mo18 S25 2.488449 1_555
Mo18 S12 2.606035 1_555
Mo19 S36 2.424295 1_445
Mo19 S16 2.449732 1_555
Mo19 S6 2.462753 1_555
Mo19 S26 2.565217 1_544
Mo19 S13 2.613939 1_455
Mo20 S37 2.411594 1_554
Mo20 S12 2.463028 1_555
Mo20 S22 2.472790 1_555
Mo20 S17 2.487036 1_555
Mo20 S1 2.608085 1_555
Mo21 S23 2.403878 1_545
Mo21 S38 2.404175 1_555
Mo21 S13 2.458909 1_556
Mo21 S2 2.552383 1_555
Mo21 S18 2.584526 1_555
Mo22 S39 2.417593 1_455
Mo22 S14 2.441000 1_555
Mo22 S24 2.443039 1_555
Mo22 S19 2.567453 1_555
Mo22 S3 2.610743 1_455
Mo23 S35 2.409843 1_555
Mo23 S20 2.445126 1_555
Mo23 S10 2.467849 1_555
Mo23 S15 2.569208 1_555
Mo23 S4 2.606181 1_555
Mo24 S36 2.407349 1_555
Mo24 S21 2.458319 1_555
Mo24 S11 2.491652 1_655
Mo24 S16 2.557669 1_665
Mo24 S0 2.606735 1_565
Mo25 S37 2.421977 1_555
Mo25 S2 2.444852 1_555
Mo25 S27 2.445271 1_555
Mo25 S22 2.568791 1_556
Mo25 S8 2.612279 1_555
Mo26 S38 2.417207 1_565
Mo26 S28 2.455935 1_565
Mo26 S3 2.456797 1_555
Mo26 S23 2.479422 1_555
Mo26 S9 2.609211 1_555
Mo27 S39 2.412858 1_455
Mo27 S29 2.449466 1_555
Mo27 S4 2.465322 1_555
Mo27 S24 2.568691 1_555
Mo27 S5 2.605683 1_455
Mo28 S35 2.404216 1_555
Mo28 S25 2.408274 1_555
Mo28 S0 2.461119 1_555
Mo28 S6 2.548959 1_555
Mo28 S20 2.589612 1_555
Mo29 S36 2.399168 1_555
Mo29 S26 2.465377 1_654
Mo29 S1 2.487159 1_655
Mo29 S21 2.559719 1_555
Mo29 S7 2.594911 1_554
S0 Th2 3.002279 1_545
S1 Th3 2.974685 1_555
S3 Th0 2.999741 1_555
S4 Th1 2.989438 1_555
S5 Th3 3.012547 1_655
S7 Th0 2.984850 1_555
S8 Th1 3.004360 1_555
S9 Th2 2.979039 1_555
S10 Th0 3.009145 1_555
S11 Th1 2.987251 1_565
S12 Th2 2.983045 1_555
S13 Th3 2.992777 1_655
S15 Th2 2.989438 1_555
S16 Th3 2.999741 1_555
S18 Th0 2.974685 1_555
S19 Th1 3.002279 1_565
S20 Th1 2.979039 1_555
S21 Th2 3.004360 1_555
S22 Th3 2.984850 1_555
S24 Th0 3.012547 1_455
S26 Th0 2.992777 1_455
S27 Th1 2.983045 1_555
S28 Th2 2.987251 1_545
S29 Th3 3.009145 1_555
S30 Th1 2.782850 1_555
S31 Th2 2.774534 1_555
S32 Th3 2.778657 1_655
S34 Th0 2.779924 1_555
S35 Th3 2.779924 1_555
S37 Th0 2.778657 1_455
S38 Th1 2.774534 1_555
S39 Th2 2.782850 1_555
