# generated using pymatgen
data_In3Te3Br
_symmetry_space_group_name_H-M   'P 1'
_cell_length_a   4.36390842
_cell_length_b   11.61963809
_cell_length_c   20.13216625
_cell_angle_alpha   90.00000000
_cell_angle_beta   90.00000000
_cell_angle_gamma   90.00000000
_symmetry_Int_Tables_number   1
_chemical_formula_structural   In3Te3Br
_chemical_formula_sum   'In12 Te12 Br4'
_cell_volume   1020.84248883
_cell_formula_units_Z   4
loop_
 _symmetry_equiv_pos_site_id
 _symmetry_equiv_pos_as_xyz
  1  'x, y, z'
loop_
 _atom_site_type_symbol
 _atom_site_label
 _atom_site_symmetry_multiplicity
 _atom_site_fract_x
 _atom_site_fract_y
 _atom_site_fract_z
 _atom_site_occupancy
  In  In0  1  0.25000000  0.68122572  0.98882318  1
  In  In1  1  0.75000000  0.31877428  0.01117682  1
  In  In2  1  0.75000000  0.81877428  0.48882318  1
  In  In3  1  0.25000000  0.18122572  0.51117682  1
  In  In4  1  0.25000000  0.55410498  0.10653419  1
  In  In5  1  0.75000000  0.44589502  0.89346581  1
  In  In6  1  0.75000000  0.94589502  0.60653419  1
  In  In7  1  0.25000000  0.05410498  0.39346581  1
  In  In8  1  0.25000000  0.65157808  0.63578975  1
  In  In9  1  0.75000000  0.34842192  0.36421025  1
  In  In10  1  0.75000000  0.84842192  0.13578975  1
  In  In11  1  0.25000000  0.15157808  0.86421025  1
  Te  Te0  1  0.25000000  0.73979678  0.20071795  1
  Te  Te1  1  0.75000000  0.26020322  0.79928205  1
  Te  Te2  1  0.75000000  0.76020322  0.70071795  1
  Te  Te3  1  0.25000000  0.23979678  0.29928205  1
  Te  Te4  1  0.25000000  0.65792949  0.49545655  1
  Te  Te5  1  0.75000000  0.34207051  0.50454345  1
  Te  Te6  1  0.75000000  0.84207051  0.99545655  1
  Te  Te7  1  0.25000000  0.15792949  0.00454345  1
  Te  Te8  1  0.25000000  0.59232202  0.85756943  1
  Te  Te9  1  0.75000000  0.40767798  0.14243057  1
  Te  Te10  1  0.75000000  0.90767798  0.35756943  1
  Te  Te11  1  0.25000000  0.09232202  0.64243057  1
  Br  Br0  1  0.25000000  0.94205415  0.82916690  1
  Br  Br1  1  0.75000000  0.05794585  0.17083310  1
  Br  Br2  1  0.75000000  0.55794585  0.32916690  1
  Br  Br3  1  0.25000000  0.44205415  0.67083310  1
loop_
_geom_bond_atom_site_label_1
_geom_bond_atom_site_label_2
_geom_bond_distance
_geom_bond_site_symmetry_2
In0 In4 2.792429 1_556
In0 Te8 2.837172 1_555
In0 Te6 2.876067 1_555
In0 Te6 2.876067 1_455
In1 In5 2.792429 1_554
In1 Te9 2.837172 1_555
In1 Te7 2.876067 1_655
In1 Te7 2.876067 1_555
In2 In6 2.792429 1_555
In2 Te10 2.837172 1_555
In2 Te4 2.876067 1_555
In2 Te4 2.876067 1_655
In3 In7 2.792429 1_555
In3 Te11 2.837172 1_555
In3 Te5 2.876067 1_455
In3 Te5 2.876067 1_555
In4 Te9 2.859727 1_455
In4 Te9 2.859727 1_555
In4 Te0 2.872426 1_555
In5 Te8 2.859727 1_655
In5 Te8 2.859727 1_555
In5 Te1 2.872426 1_555
In6 Te11 2.859727 1_565
In6 Te11 2.859727 1_665
In6 Te2 2.872426 1_555
In7 Te10 2.859727 1_445
In7 Te10 2.859727 1_545
In7 Te3 2.872426 1_555
In8 Te4 2.826175 1_555
In8 Te2 2.839483 1_555
In8 Te2 2.839483 1_455
In9 Te5 2.826175 1_555
In9 Te3 2.839483 1_555
In9 Te3 2.839483 1_655
In10 Te6 2.826175 1_554
In10 Te0 2.839483 1_555
In10 Te0 2.839483 1_655
In11 Te7 2.826175 1_556
In11 Te1 2.839483 1_455
In11 Te1 2.839483 1_555
Br0 In11 2.534752 1_565
Br1 In10 2.534752 1_545
Br2 In9 2.534752 1_555
Br3 In8 2.534752 1_555
