# generated using pymatgen
data_Lu2MgS4
_symmetry_space_group_name_H-M   'P 1'
_cell_length_a   13.30034000
_cell_length_b   7.75232800
_cell_length_c   6.44383100
_cell_angle_alpha   90.00000000
_cell_angle_beta   90.00000000
_cell_angle_gamma   90.00000000
_symmetry_Int_Tables_number   1
_chemical_formula_structural   Lu2MgS4
_chemical_formula_sum   'Lu8 Mg4 S16'
_cell_volume   664.41438139
_cell_formula_units_Z   4
loop_
 _symmetry_equiv_pos_site_id
 _symmetry_equiv_pos_as_xyz
  1  'x, y, z'
loop_
 _atom_site_type_symbol
 _atom_site_label
 _atom_site_symmetry_multiplicity
 _atom_site_fract_x
 _atom_site_fract_y
 _atom_site_fract_z
 _atom_site_occupancy
  Lu  Lu0  1  0.00000000  0.00000000  0.50000000  1
  Lu  Lu1  1  0.50000000  0.00000000  0.00000000  1
  Lu  Lu2  1  0.50000000  0.50000000  0.00000000  1
  Lu  Lu3  1  0.00000000  0.50000000  0.50000000  1
  Lu  Lu4  1  0.23172800  0.75000000  0.00079900  1
  Lu  Lu5  1  0.76827200  0.25000000  0.99920100  1
  Lu  Lu6  1  0.26827200  0.25000000  0.50079900  1
  Lu  Lu7  1  0.73172800  0.75000000  0.49920100  1
  Mg  Mg0  1  0.09205500  0.25000000  0.93038100  1
  Mg  Mg1  1  0.90794500  0.75000000  0.06961900  1
  Mg  Mg2  1  0.40794500  0.75000000  0.43038100  1
  Mg  Mg3  1  0.59205500  0.25000000  0.56961900  1
  S  S0  1  0.16773300  0.00620300  0.74490300  1
  S  S1  1  0.83226700  0.99379700  0.25509700  1
  S  S2  1  0.33226700  0.99379700  0.24490300  1
  S  S3  1  0.66773300  0.00620300  0.75509700  1
  S  S4  1  0.66773300  0.49379700  0.75509700  1
  S  S5  1  0.33226700  0.50620300  0.24490300  1
  S  S6  1  0.83226700  0.50620300  0.25509700  1
  S  S7  1  0.16773300  0.49379700  0.74490300  1
  S  S8  1  0.07229100  0.75000000  0.24899800  1
  S  S9  1  0.92770900  0.25000000  0.75100200  1
  S  S10  1  0.42770900  0.25000000  0.74899800  1
  S  S11  1  0.57229100  0.75000000  0.25100200  1
  S  S12  1  0.09224200  0.25000000  0.30053100  1
  S  S13  1  0.90775800  0.75000000  0.69946900  1
  S  S14  1  0.40775800  0.75000000  0.80053100  1
  S  S15  1  0.59224200  0.25000000  0.19946900  1
loop_
_geom_bond_atom_site_label_1
_geom_bond_atom_site_label_2
_geom_bond_distance
_geom_bond_site_symmetry_2
Lu0 S12 2.629341 1_555
Lu0 S13 2.629341 1_445
Lu0 S9 2.701234 1_455
Lu0 S8 2.701234 1_545
Lu0 S0 2.733074 1_555
Lu0 S1 2.733074 1_445
Lu1 S14 2.629341 1_544
Lu1 S15 2.629341 1_555
Lu1 S10 2.701234 1_554
Lu1 S11 2.701234 1_545
Lu1 S2 2.733074 1_545
Lu1 S3 2.733074 1_554
Lu2 S14 2.629341 1_554
Lu2 S15 2.629341 1_555
Lu2 S10 2.701234 1_554
Lu2 S11 2.701234 1_555
Lu2 S4 2.733074 1_554
Lu2 S5 2.733074 1_555
Lu3 S12 2.629341 1_555
Lu3 S13 2.629341 1_455
Lu3 S9 2.701234 1_455
Lu3 S8 2.701234 1_555
Lu3 S7 2.733074 1_555
Lu3 S6 2.733074 1_455
Lu4 S8 2.656074 1_555
Lu4 S14 2.673362 1_554
Lu4 S0 2.718156 1_564
Lu4 S7 2.718156 1_554
Lu4 S5 2.799001 1_555
Lu4 S2 2.799001 1_555
Lu5 S9 2.656074 1_555
Lu5 S15 2.673362 1_556
Lu5 S1 2.718156 1_546
Lu5 S6 2.718156 1_556
Lu5 S3 2.799001 1_555
Lu5 S4 2.799001 1_555
Lu6 S10 2.656074 1_555
Lu6 S12 2.673362 1_555
Lu6 S5 2.718156 1_555
Lu6 S2 2.718156 1_545
Lu6 S7 2.799001 1_555
Lu6 S0 2.799001 1_555
Lu7 S11 2.656074 1_555
Lu7 S13 2.673362 1_555
Lu7 S3 2.718156 1_565
Lu7 S4 2.718156 1_555
Lu7 S1 2.799001 1_555
Lu7 S6 2.799001 1_555
Mg0 S12 2.385185 1_556
Mg0 S7 2.452281 1_555
Mg0 S0 2.452281 1_555
Mg0 S9 2.472661 1_455
Mg1 S13 2.385185 1_554
Mg1 S6 2.452281 1_555
Mg1 S1 2.452281 1_555
Mg1 S8 2.472661 1_655
Mg2 S14 2.385185 1_555
Mg2 S5 2.452281 1_555
Mg2 S2 2.452281 1_555
Mg2 S11 2.472661 1_555
Mg3 S15 2.385185 1_555
Mg3 S4 2.452281 1_555
Mg3 S3 2.452281 1_555
Mg3 S10 2.472661 1_555
