# generated using pymatgen
data_MgSnP2O7
_symmetry_space_group_name_H-M   'P 1'
_cell_length_a   6.72597000
_cell_length_b   7.04770682
_cell_length_c   7.12831135
_cell_angle_alpha   75.45766706
_cell_angle_beta   63.34739348
_cell_angle_gamma   80.09216731
_symmetry_Int_Tables_number   1
_chemical_formula_structural   MgSnP2O7
_chemical_formula_sum   'Mg2 Sn2 P4 O14'
_cell_volume   291.63075586
_cell_formula_units_Z   2
loop_
 _symmetry_equiv_pos_site_id
 _symmetry_equiv_pos_as_xyz
  1  'x, y, z'
loop_
 _atom_site_type_symbol
 _atom_site_label
 _atom_site_symmetry_multiplicity
 _atom_site_fract_x
 _atom_site_fract_y
 _atom_site_fract_z
 _atom_site_occupancy
  Mg  Mg0  1  0.68438900  0.17137700  0.89870600  1
  Mg  Mg1  1  0.31561100  0.82862300  0.10129400  1
  Sn  Sn0  1  0.87480400  0.30422000  0.27438400  1
  Sn  Sn1  1  0.12519600  0.69578000  0.72561600  1
  P  P0  1  0.78676600  0.81843100  0.22256100  1
  P  P1  1  0.21323400  0.18156900  0.77743900  1
  P  P2  1  0.35107400  0.36357100  0.30230100  1
  P  P3  1  0.64892600  0.63642900  0.69769900  1
  O  O0  1  0.37189900  0.27295700  0.53185700  1
  O  O1  1  0.62810100  0.72704300  0.46814300  1
  O  O2  1  0.95576400  0.94345800  0.22019100  1
  O  O3  1  0.04423600  0.05654200  0.77980900  1
  O  O4  1  0.73353900  0.42267500  0.68450100  1
  O  O5  1  0.26646100  0.57732500  0.31549900  1
  O  O6  1  0.40984000  0.66469600  0.86728900  1
  O  O7  1  0.59016000  0.33530400  0.13271100  1
  O  O8  1  0.38420900  0.07676300  0.86611400  1
  O  O9  1  0.61579100  0.92323700  0.13388600  1
  O  O10  1  0.08112100  0.35423600  0.89202800  1
  O  O11  1  0.91887900  0.64576400  0.10797200  1
  O  O12  1  0.79949300  0.76586300  0.71212500  1
  O  O13  1  0.20050700  0.23413700  0.28787500  1
loop_
_geom_bond_atom_site_label_1
_geom_bond_atom_site_label_2
_geom_bond_distance
_geom_bond_site_symmetry_2
Mg0 O4 1.991991 1_555
Mg0 O9 2.047705 1_546
Mg0 O7 2.070311 1_556
Mg0 O3 2.249734 1_655
Mg0 O8 2.353063 1_555
Mg1 O5 1.991991 1_555
Mg1 O8 2.047705 1_564
Mg1 O6 2.070311 1_554
Mg1 O2 2.249734 1_455
Mg1 O9 2.353063 1_555
O0 P1 1.616322 1_555
O0 P2 1.659862 1_555
O1 P0 1.616322 1_555
O1 P3 1.659862 1_555
O2 P0 1.545548 1_555
O2 Sn0 2.595836 1_565
O3 P1 1.545548 1_555
O3 Sn1 2.595836 1_545
O4 P3 1.526533 1_555
O5 P2 1.526533 1_555
O6 P3 1.534165 1_555
O6 Sn1 2.492464 1_555
O7 P2 1.534165 1_555
O7 Sn0 2.492464 1_555
O8 P1 1.546916 1_555
O9 P0 1.546916 1_555
O10 P1 1.553557 1_555
O10 Sn0 2.402325 1_456
O10 Sn1 2.405264 1_555
O11 P0 1.553557 1_555
O11 Sn1 2.402325 1_654
O11 Sn0 2.405264 1_555
O12 P3 1.525363 1_555
O12 Sn1 2.201144 1_655
O13 P2 1.525363 1_555
O13 Sn0 2.201144 1_455
