# generated using pymatgen
data_Ba2MnGe2O7
_symmetry_space_group_name_H-M   'P 1'
_cell_length_a   8.62291400
_cell_length_b   8.62292300
_cell_length_c   11.23153300
_cell_angle_alpha   90.00013276
_cell_angle_beta   90.00027727
_cell_angle_gamma   90.00031894
_symmetry_Int_Tables_number   1
_chemical_formula_structural   Ba2MnGe2O7
_chemical_formula_sum   'Ba8 Mn4 Ge8 O28'
_cell_volume   835.11753021
_cell_formula_units_Z   4
loop_
 _symmetry_equiv_pos_site_id
 _symmetry_equiv_pos_as_xyz
  1  'x, y, z'
loop_
 _atom_site_type_symbol
 _atom_site_label
 _atom_site_symmetry_multiplicity
 _atom_site_fract_x
 _atom_site_fract_y
 _atom_site_fract_z
 _atom_site_occupancy
  Ba  Ba0  1  0.33447300  0.16552600  0.25396800  1
  Ba  Ba1  1  0.33447500  0.16552600  0.75396500  1
  Ba  Ba2  1  0.16552400  0.66552400  0.24603200  1
  Ba  Ba3  1  0.16553000  0.66552200  0.74603400  1
  Ba  Ba4  1  0.66552300  0.83447300  0.25396800  1
  Ba  Ba5  1  0.66552700  0.83448300  0.75396900  1
  Ba  Ba6  1  0.83447100  0.33447600  0.24603300  1
  Ba  Ba7  1  0.83447600  0.33447400  0.74603600  1
  Mn  Mn0  1  0.49989600  0.49998200  0.50002300  1
  Mn  Mn1  1  0.00002400  0.99992400  0.00005200  1
  Mn  Mn2  1  0.50004100  0.50010500  0.99998200  1
  Mn  Mn3  1  0.00009900  0.00001700  0.49997000  1
  Ge  Ge0  1  0.13931400  0.36068600  0.47704800  1
  Ge  Ge1  1  0.13930800  0.36068900  0.97704900  1
  Ge  Ge2  1  0.36068000  0.86068700  0.02295000  1
  Ge  Ge3  1  0.36068600  0.86068300  0.52295000  1
  Ge  Ge4  1  0.86069000  0.63930800  0.47705000  1
  Ge  Ge5  1  0.86068700  0.63931200  0.97704800  1
  Ge  Ge6  1  0.63931100  0.13930700  0.02295000  1
  Ge  Ge7  1  0.63930600  0.13931200  0.52294900  1
  O  O0  1  0.50000100  0.99999900  0.08279700  1
  O  O1  1  0.50000000  0.00000100  0.58279600  1
  O  O2  1  0.99999700  0.50000200  0.41720300  1
  O  O3  1  0.00000200  0.49999800  0.91720300  1
  O  O4  1  0.13922800  0.36076800  0.13245200  1
  O  O5  1  0.13922900  0.36076800  0.63245300  1
  O  O6  1  0.36076700  0.86076600  0.36754700  1
  O  O7  1  0.36076800  0.86076800  0.86754700  1
  O  O8  1  0.86076600  0.63922900  0.13245200  1
  O  O9  1  0.86076700  0.63923100  0.63245200  1
  O  O10  1  0.63923000  0.13923000  0.36754700  1
  O  O11  1  0.63923000  0.13923100  0.86754700  1
  O  O12  1  0.31115200  0.42156500  0.40256700  1
  O  O13  1  0.31114300  0.42156200  0.90256700  1
  O  O14  1  0.18884400  0.92156300  0.09743000  1
  O  O15  1  0.18885300  0.92156300  0.59743100  1
  O  O16  1  0.68885200  0.57843700  0.40256500  1
  O  O17  1  0.68885700  0.57843800  0.90256400  1
  O  O18  1  0.81114900  0.07843300  0.09743000  1
  O  O19  1  0.81114100  0.07843900  0.59743400  1
  O  O20  1  0.57843500  0.31114300  0.09743100  1
  O  O21  1  0.57843400  0.31115100  0.59743000  1
  O  O22  1  0.92156000  0.81113900  0.40256500  1
  O  O23  1  0.92156400  0.81115300  0.90257000  1
  O  O24  1  0.42155900  0.68885700  0.09743400  1
  O  O25  1  0.42156700  0.68884400  0.59742900  1
  O  O26  1  0.07843400  0.18885300  0.40256600  1
  O  O27  1  0.07843500  0.18885000  0.90256700  1
loop_
_geom_bond_atom_site_label_1
_geom_bond_atom_site_label_2
_geom_bond_distance
_geom_bond_site_symmetry_2
Ba0 O4 2.744365 1_555
Ba0 O12 2.774955 1_555
Ba0 O26 2.774959 1_555
Ba0 O0 2.787586 1_545
Ba0 O10 2.929938 1_555
Ba0 O6 2.929970 1_545
Ba0 O20 3.015485 1_555
Ba0 O14 3.015528 1_545
Ba1 O5 2.744347 1_555
Ba1 O13 2.774961 1_555
Ba1 O27 2.774991 1_555
Ba1 O1 2.787548 1_555
Ba1 O11 2.929937 1_555
Ba1 O7 2.929969 1_545
Ba1 O15 3.015477 1_545
Ba1 O21 3.015483 1_555
Ba2 O6 2.744333 1_555
Ba2 O24 2.774934 1_555
Ba2 O14 2.774979 1_555
Ba2 O2 2.787556 1_455
Ba2 O4 2.929938 1_555
Ba2 O8 2.929948 1_455
Ba2 O22 3.015470 1_455
Ba2 O12 3.015496 1_555
Ba3 O7 2.744317 1_555
Ba3 O25 2.774988 1_555
Ba3 O15 2.775001 1_555
Ba3 O3 2.787553 1_555
Ba3 O5 2.929931 1_555
Ba3 O9 2.929993 1_455
Ba3 O13 3.015435 1_555
Ba3 O23 3.015559 1_455
Ba4 O8 2.744369 1_555
Ba4 O22 2.774930 1_555
Ba4 O16 2.774931 1_555
Ba4 O0 2.787550 1_555
Ba4 O6 2.929939 1_555
Ba4 O10 2.929942 1_565
Ba4 O24 3.015459 1_555
Ba4 O18 3.015512 1_565
Ba5 O9 2.744401 1_555
Ba5 O23 2.774955 1_555
Ba5 O17 2.774980 1_555
Ba5 O1 2.787552 1_565
Ba5 O11 2.929870 1_565
Ba5 O7 2.929952 1_555
Ba5 O19 3.015425 1_565
Ba5 O25 3.015557 1_555
Ba6 O10 2.744350 1_555
Ba6 O20 2.774954 1_555
Ba6 O18 2.775007 1_555
Ba6 O2 2.787547 1_555
Ba6 O8 2.929925 1_555
Ba6 O4 2.929954 1_655
Ba6 O16 3.015458 1_555
Ba6 O26 3.015485 1_655
Ba7 O11 2.744344 1_555
Ba7 O19 2.774953 1_555
Ba7 O21 2.775016 1_555
Ba7 O3 2.787515 1_655
Ba7 O5 2.929934 1_655
Ba7 O9 2.929968 1_555
Ba7 O17 3.015449 1_555
Ba7 O27 3.015451 1_655
Mn0 O12 2.074640 1_555
Mn0 O25 2.074906 1_555
Mn0 O21 2.075290 1_555
Mn0 O16 2.076203 1_555
Mn1 O14 2.074542 1_555
Mn1 O23 2.075100 1_454
Mn1 O18 2.075337 1_465
Mn1 O27 2.076036 1_564
Mn2 O17 2.074676 1_555
Mn2 O24 2.074865 1_556
Mn2 O13 2.075793 1_555
Mn2 O20 2.076021 1_556
Mn3 O26 2.074734 1_555
Mn3 O15 2.074848 1_545
Mn3 O22 2.075590 1_445
Mn3 O19 2.076163 1_455
Ge0 O5 1.745437 1_555
Ge0 O26 1.780680 1_555
Ge0 O12 1.780714 1_555
Ge0 O2 1.827051 1_455
Ge1 O4 1.745414 1_556
Ge1 O13 1.780682 1_555
Ge1 O27 1.780705 1_555
Ge1 O3 1.826953 1_555
Ge2 O7 1.745414 1_554
Ge2 O24 1.780675 1_555
Ge2 O14 1.780690 1_555
Ge2 O0 1.827048 1_555
Ge3 O6 1.745414 1_555
Ge3 O15 1.780684 1_555
Ge3 O25 1.780718 1_555
Ge3 O1 1.827038 1_565
Ge4 O9 1.745403 1_555
Ge4 O22 1.780662 1_555
Ge4 O16 1.780707 1_555
Ge4 O2 1.826948 1_555
Ge5 O8 1.745425 1_556
Ge5 O17 1.780652 1_555
Ge5 O23 1.780714 1_555
Ge5 O3 1.827030 1_655
Ge6 O11 1.745414 1_554
Ge6 O20 1.780693 1_555
Ge6 O18 1.780694 1_555
Ge6 O0 1.826969 1_545
Ge7 O10 1.745403 1_555
Ge7 O19 1.780696 1_555
Ge7 O21 1.780705 1_555
Ge7 O1 1.826964 1_555
