# generated using pymatgen
data_SnF3
_symmetry_space_group_name_H-M   'P 1'
_cell_length_a   4.19224600
_cell_length_b   7.50320316
_cell_length_c   9.29220052
_cell_angle_alpha   89.24179776
_cell_angle_beta   86.64429164
_cell_angle_gamma   85.79310946
_symmetry_Int_Tables_number   1
_chemical_formula_structural   SnF3
_chemical_formula_sum   'Sn4 F12'
_cell_volume   290.98963975
_cell_formula_units_Z   4
loop_
 _symmetry_equiv_pos_site_id
 _symmetry_equiv_pos_as_xyz
  1  'x, y, z'
loop_
 _atom_site_type_symbol
 _atom_site_label
 _atom_site_symmetry_multiplicity
 _atom_site_fract_x
 _atom_site_fract_y
 _atom_site_fract_z
 _atom_site_occupancy
  Sn  Sn0  1  0.77440500  0.74087600  0.83352500  1
  Sn  Sn1  1  0.22559500  0.25912400  0.16647500  1
  Sn  Sn2  1  0.03907300  0.72261800  0.30562600  1
  Sn  Sn3  1  0.96092700  0.27738200  0.69437400  1
  F  F0  1  0.13487400  0.35206200  0.36294900  1
  F  F1  1  0.86512600  0.64793800  0.63705100  1
  F  F2  1  0.76703400  0.80195800  0.03781900  1
  F  F3  1  0.23296600  0.19804200  0.96218100  1
  F  F4  1  0.27751800  0.75146300  0.83068900  1
  F  F5  1  0.72248200  0.24853700  0.16931100  1
  F  F6  1  0.26260500  0.00687400  0.23327900  1
  F  F7  1  0.73739500  0.99312600  0.76672100  1
  F  F8  1  0.51546500  0.30064800  0.60251100  1
  F  F9  1  0.48453500  0.69935200  0.39748900  1
  F  F10  1  0.23776800  0.52136600  0.11843700  1
  F  F11  1  0.76223200  0.47863400  0.88156300  1
loop_
_geom_bond_atom_site_label_1
_geom_bond_atom_site_label_2
_geom_bond_distance
_geom_bond_site_symmetry_2
F0 Sn1 1.969139 1_555
F1 Sn0 1.969139 1_555
F2 Sn0 1.956727 1_554
F3 Sn1 1.956727 1_556
F4 Sn0 2.080454 1_555
F4 Sn0 2.115097 1_455
F5 Sn1 2.080454 1_555
F5 Sn1 2.115097 1_655
F6 Sn1 1.982109 1_555
F6 Sn2 2.461829 1_545
F7 Sn0 1.982109 1_555
F7 Sn3 2.461829 1_565
F8 Sn3 2.093197 1_555
F8 Sn3 2.446817 1_455
F9 Sn2 2.093197 1_555
F9 Sn2 2.446817 1_655
F10 Sn1 2.015526 1_555
F10 Sn2 2.390588 1_555
F11 Sn0 2.015526 1_555
F11 Sn3 2.390588 1_555
