# generated using pymatgen
data_Rb3W2N5
_symmetry_space_group_name_H-M   'P 1'
_cell_length_a   10.68722660
_cell_length_b   10.68722660
_cell_length_c   10.68722660
_cell_angle_alpha   102.17738224
_cell_angle_beta   102.17738224
_cell_angle_gamma   125.31857057
_symmetry_Int_Tables_number   1
_chemical_formula_structural   Rb3W2N5
_chemical_formula_sum   'Rb12 W8 N20'
_cell_volume   884.73669535
_cell_formula_units_Z   4
loop_
 _symmetry_equiv_pos_site_id
 _symmetry_equiv_pos_as_xyz
  1  'x, y, z'
loop_
 _atom_site_type_symbol
 _atom_site_label
 _atom_site_symmetry_multiplicity
 _atom_site_fract_x
 _atom_site_fract_y
 _atom_site_fract_z
 _atom_site_occupancy
  Rb  Rb0  1  0.85234200  0.55284800  0.87771300  1
  Rb  Rb1  1  0.67513500  0.97462900  0.12228700  1
  Rb  Rb2  1  0.80284800  0.42513500  0.20050600  1
  Rb  Rb3  1  0.22462900  0.60234200  0.79949400  1
  Rb  Rb4  1  0.51665700  0.69810100  0.35132100  1
  Rb  Rb5  1  0.34678000  0.16533600  0.64867900  1
  Rb  Rb6  1  0.94810100  0.09678000  0.68144400  1
  Rb  Rb7  1  0.41533600  0.26665700  0.31855600  1
  Rb  Rb8  1  0.96266600  0.96266600  0.00000000  1
  Rb  Rb9  1  0.21266600  0.71266600  0.50000000  1
  Rb  Rb10  1  0.73083600  0.23083600  0.50000000  1
  Rb  Rb11  1  0.48083600  0.48083600  0.00000000  1
  W  W0  1  0.62597800  0.05895500  0.80465400  1
  W  W1  1  0.25430100  0.82132300  0.19534600  1
  W  W2  1  0.30895500  0.00430100  0.93297700  1
  W  W3  1  0.07132300  0.37597800  0.06702300  1
  W  W4  1  0.93570200  0.75782700  0.62728100  1
  W  W5  1  0.13054600  0.30842100  0.37271900  1
  W  W6  1  0.00782700  0.88054600  0.32212500  1
  W  W7  1  0.55842100  0.68570200  0.67787500  1
  N  N0  1  0.63384400  0.19230300  0.72558000  1
  N  N1  1  0.46672300  0.90826400  0.27442000  1
  N  N2  1  0.44230300  0.21672300  0.05845900  1
  N  N3  1  0.15826400  0.38384400  0.94154100  1
  N  N4  1  0.84492800  0.72337400  0.15120900  1
  N  N5  1  0.57216500  0.69371900  0.84879100  1
  N  N6  1  0.97337400  0.32216500  0.37844600  1
  N  N7  1  0.94371900  0.59492800  0.62155400  1
  N  N8  1  0.83336200  0.18927000  0.96749100  1
  N  N9  1  0.22177900  0.86587100  0.03250900  1
  N  N10  1  0.43927000  0.97177900  0.85590800  1
  N  N11  1  0.11587100  0.58336200  0.14409200  1
  N  N12  1  0.95024800  0.80169600  0.46290400  1
  N  N13  1  0.33879200  0.48734400  0.53709600  1
  N  N14  1  0.05169600  0.08879200  0.35144800  1
  N  N15  1  0.73734400  0.70024800  0.64855200  1
  N  N16  1  0.12844800  0.96448600  0.78861800  1
  N  N17  1  0.17586800  0.33983100  0.21138200  1
  N  N18  1  0.21448600  0.92586800  0.33603800  1
  N  N19  1  0.58983100  0.87844800  0.66396200  1
loop_
_geom_bond_atom_site_label_1
_geom_bond_atom_site_label_2
_geom_bond_distance
_geom_bond_site_symmetry_2
N0 W0 1.775312 1_555
N0 Rb5 2.825713 1_555
N0 Rb10 2.834731 1_555
N0 Rb0 2.880155 1_555
N1 W1 1.775309 1_555
N1 Rb4 2.825713 1_555
N1 Rb10 2.834731 1_565
N1 Rb1 2.880155 1_555
N2 W2 1.775312 1_554
N2 Rb7 2.825713 1_555
N2 Rb11 2.834731 1_555
N2 Rb2 2.880155 1_555
N3 W3 1.775319 1_556
N3 Rb6 2.825713 1_455
N3 Rb11 2.834731 1_556
N3 Rb3 2.880155 1_555
N4 W6 1.780922 1_655
N4 Rb11 2.896423 1_555
N4 Rb8 3.100896 1_555
N4 Rb2 3.128902 1_555
N4 Rb0 3.144584 1_554
N5 W7 1.780922 1_555
N5 Rb11 2.896423 1_556
N5 Rb8 3.100896 1_556
N5 Rb3 3.128902 1_555
N5 Rb1 3.144584 1_556
N6 W5 1.780922 1_655
N6 Rb10 2.896423 1_555
N6 Rb9 3.100896 1_655
N6 Rb1 3.128902 1_545
N6 Rb2 3.144584 1_555
N7 W4 1.780922 1_555
N7 Rb10 2.896423 1_555
N7 Rb9 3.100896 1_655
N7 Rb0 3.128902 1_555
N7 Rb3 3.144584 1_655
N8 W0 1.913557 1_555
N8 W3 1.917424 1_656
N8 Rb1 3.025639 1_546
N8 Rb2 3.362560 1_556
N8 Rb8 3.452141 1_546
N9 W1 1.913563 1_555
N9 W2 1.917430 1_564
N9 Rb0 3.025639 1_454
N9 Rb3 3.362560 1_554
N9 Rb8 3.452141 1_455
N10 W2 1.913557 1_565
N10 W0 1.917430 1_565
N10 Rb3 3.025639 1_555
N10 Rb1 3.362560 1_556
N10 Rb9 3.452141 1_555
N11 W3 1.913552 1_555
N11 W1 1.917421 1_555
N11 Rb2 3.025639 1_455
N11 Rb0 3.362560 1_454
N11 Rb9 3.452141 1_555
N12 W6 1.917893 1_655
N12 W4 1.925747 1_555
N12 Rb5 3.340190 1_665
N12 Rb9 3.421007 1_655
N12 Rb6 3.521331 1_565
N12 Rb2 3.547737 1_555
N13 W7 1.917893 1_555
N13 W5 1.925747 1_555
N13 Rb4 3.340190 1_555
N13 Rb9 3.421007 1_555
N13 Rb7 3.521331 1_555
N13 Rb3 3.547737 1_555
N14 W5 1.917893 1_555
N14 W6 1.925747 1_545
N14 Rb7 3.340190 1_555
N14 Rb8 3.421007 1_445
N14 Rb5 3.521331 1_555
N14 Rb1 3.547737 1_445
N15 W4 1.917893 1_555
N15 W7 1.925747 1_555
N15 Rb6 3.340190 1_565
N15 Rb8 3.421007 1_556
N15 Rb4 3.521331 1_555
N15 Rb0 3.547737 1_555
N16 W4 1.931018 1_455
N16 W2 1.949642 1_565
N16 Rb5 3.053560 1_565
N16 Rb8 3.148051 1_456
N16 Rb6 3.150955 1_465
N17 W5 1.931021 1_555
N17 W3 1.949640 1_555
N17 Rb4 3.053555 1_555
N17 Rb8 3.148059 1_445
N17 Rb7 3.150964 1_555
N18 W6 1.931018 1_555
N18 W1 1.949647 1_555
N18 Rb7 3.053560 1_565
N18 Rb9 3.148051 1_555
N18 Rb5 3.150955 1_565
N19 W7 1.931014 1_555
N19 W0 1.949647 1_565
N19 Rb6 3.053552 1_565
N19 Rb9 3.148060 1_555
N19 Rb4 3.150952 1_555
