# generated using pymatgen
data_TmInCu4
_symmetry_space_group_name_H-M   'P 1'
_cell_length_a   5.03756580
_cell_length_b   5.03756580
_cell_length_c   5.03756580
_cell_angle_alpha   60.00000000
_cell_angle_beta   60.00000000
_cell_angle_gamma   60.00000000
_symmetry_Int_Tables_number   1
_chemical_formula_structural   TmInCu4
_chemical_formula_sum   'Tm1 In1 Cu4'
_cell_volume   90.39558061
_cell_formula_units_Z   1
loop_
 _symmetry_equiv_pos_site_id
 _symmetry_equiv_pos_as_xyz
  1  'x, y, z'
loop_
 _atom_site_type_symbol
 _atom_site_label
 _atom_site_symmetry_multiplicity
 _atom_site_fract_x
 _atom_site_fract_y
 _atom_site_fract_z
 _atom_site_occupancy
  Tm  Tm0  1  0.25000000  0.25000000  0.25000000  1
  In  In0  1  -0.00000000  -0.00000000  -0.00000000  1
  Cu  Cu0  1  0.62513794  0.62513794  0.62513794  1
  Cu  Cu1  1  0.62513794  0.62513794  0.12458618  1
  Cu  Cu2  1  0.62513794  0.12458618  0.62513794  1
  Cu  Cu3  1  0.12458618  0.62513794  0.62513794  1
loop_
_geom_bond_atom_site_label_1
_geom_bond_atom_site_label_2
_geom_bond_distance
_geom_bond_site_symmetry_2
In0 Tm0 3.084866 1_555
In0 Tm0 3.084866 1_554
In0 Tm0 3.084866 1_545
In0 Tm0 3.084866 1_455
Cu0 Cu3 2.516003 1_655
Cu0 Cu1 2.516003 1_556
Cu0 Cu2 2.516003 1_565
Cu0 Cu3 2.521562 1_555
Cu0 Cu1 2.521562 1_555
Cu0 Cu2 2.521562 1_555
Cu0 In0 2.953239 1_665
Cu0 In0 2.953239 1_566
Cu0 In0 2.953239 1_656
Cu0 Tm0 2.953832 1_655
Cu0 Tm0 2.953832 1_565
Cu0 Tm0 2.953832 1_556
Cu1 Cu2 2.516003 1_564
Cu1 Cu3 2.516003 1_654
Cu1 Cu3 2.521562 1_555
Cu1 Cu2 2.521562 1_555
Cu1 In0 2.953239 1_565
Cu1 In0 2.953239 1_655
Cu1 In0 2.953239 1_665
Cu1 Tm0 2.953832 1_555
Cu1 Tm0 2.953832 1_655
Cu1 Tm0 2.953832 1_565
Cu2 Cu3 2.516003 1_645
Cu2 Cu3 2.521562 1_555
Cu2 In0 2.953239 1_556
Cu2 In0 2.953239 1_655
Cu2 In0 2.953239 1_656
Cu2 Tm0 2.953832 1_555
Cu2 Tm0 2.953832 1_655
Cu2 Tm0 2.953832 1_556
Cu3 In0 2.953239 1_565
Cu3 In0 2.953239 1_556
Cu3 In0 2.953239 1_566
Cu3 Tm0 2.953832 1_556
Cu3 Tm0 2.953832 1_565
Cu3 Tm0 2.953832 1_555
