# generated using pymatgen
data_SbN
_symmetry_space_group_name_H-M   'P 1'
_cell_length_a   16.12463596
_cell_length_b   15.30314963
_cell_length_c   16.34012527
_cell_angle_alpha   90.84895597
_cell_angle_beta   88.01800878
_cell_angle_gamma   89.12989219
_symmetry_Int_Tables_number   1
_chemical_formula_structural   SbN
_chemical_formula_sum   'Sb50 N50'
_cell_volume   4028.70028739
_cell_formula_units_Z   50
loop_
 _symmetry_equiv_pos_site_id
 _symmetry_equiv_pos_as_xyz
  1  'x, y, z'
loop_
 _atom_site_type_symbol
 _atom_site_label
 _atom_site_symmetry_multiplicity
 _atom_site_fract_x
 _atom_site_fract_y
 _atom_site_fract_z
 _atom_site_occupancy
  Sb  Sb0  1  0.99726098  0.85498320  0.60216319  1
  Sb  Sb1  1  0.59836110  0.35397037  0.51619214  1
  Sb  Sb2  1  0.56696796  0.15424161  0.40182669  1
  Sb  Sb3  1  0.30400696  0.36341594  0.27947803  1
  Sb  Sb4  1  0.94912820  0.00360051  0.49423986  1
  Sb  Sb5  1  0.21056972  0.84257353  0.59910937  1
  Sb  Sb6  1  0.37986195  0.74225105  0.51586561  1
  Sb  Sb7  1  0.56137281  0.23658571  0.68438383  1
  Sb  Sb8  1  0.23648894  0.26309466  0.14916422  1
  Sb  Sb9  1  0.86774767  0.44162904  0.30391095  1
  Sb  Sb10  1  0.49121378  0.28436399  0.99206093  1
  Sb  Sb11  1  0.03746142  0.38274407  0.29897910  1
  Sb  Sb12  1  0.57608042  0.47476531  0.06071395  1
  Sb  Sb13  1  0.81770041  0.70074505  0.71186795  1
  Sb  Sb14  1  0.50350527  0.61804607  0.74924803  1
  Sb  Sb15  1  0.85703303  0.78132744  0.52040366  1
  Sb  Sb16  1  0.53669426  0.53213658  0.27057473  1
  Sb  Sb17  1  0.16620301  0.57001331  0.50106130  1
  Sb  Sb18  1  0.22031561  0.65789421  0.65213794  1
  Sb  Sb19  1  0.39057882  0.53737359  0.63693644  1
  Sb  Sb20  1  0.59260759  0.67308954  0.60124240  1
  Sb  Sb21  1  0.20712916  0.55455114  0.30879218  1
  Sb  Sb22  1  0.18992655  0.21774934  0.43038972  1
  Sb  Sb23  1  0.25819920  0.73224967  0.26760290  1
  Sb  Sb24  1  0.77029835  0.21270314  0.42780890  1
  Sb  Sb25  1  0.77421731  0.03971269  0.52467577  1
  Sb  Sb26  1  0.68281447  0.46595169  0.69774548  1
  Sb  Sb27  1  0.66071001  0.79226074  0.72432212  1
  Sb  Sb28  1  0.71484011  0.15600230  0.25809435  1
  Sb  Sb29  1  0.09292934  0.08392521  0.27790954  1
  Sb  Sb30  1  0.79909904  0.88923575  0.66267569  1
  Sb  Sb31  1  0.47594277  0.37512360  0.36915626  1
  Sb  Sb32  1  0.82598067  0.93020747  0.39429959  1
  Sb  Sb33  1  0.21011369  0.08069266  0.15368277  1
  Sb  Sb34  1  0.59568334  0.30199511  0.20617460  1
  Sb  Sb35  1  0.65486614  0.59194495  0.88550251  1
  Sb  Sb36  1  0.49680203  0.55335887  0.48410408  1
  Sb  Sb37  1  0.15233829  0.75389541  0.43073932  1
  Sb  Sb38  1  0.98493525  0.52542168  0.52543875  1
  Sb  Sb39  1  0.42344386  0.21149409  0.52329123  1
  Sb  Sb40  1  0.44149992  0.53120777  0.93790694  1
  Sb  Sb41  1  0.39272558  0.59618643  0.10973516  1
  Sb  Sb42  1  0.40369885  0.18979018  0.12178921  1
  Sb  Sb43  1  0.49503096  0.36596776  0.79324837  1
  Sb  Sb44  1  0.99530817  0.56051851  0.35066488  1
  Sb  Sb45  1  0.83543482  0.40248196  0.47884586  1
  Sb  Sb46  1  0.37577087  0.61075476  0.32343478  1
  Sb  Sb47  1  0.75254449  0.59085465  0.51583970  1
  Sb  Sb48  1  0.33180108  0.37208702  0.48689777  1
  Sb  Sb49  1  0.01665673  0.27772271  0.44317603  1
  N  N0  1  0.98746172  0.67233610  0.14714105  1
  N  N1  1  0.79821635  0.73169173  0.23512868  1
  N  N2  1  0.49664513  0.53315076  0.14985738  1
  N  N3  1  0.25704214  0.32796423  0.39269621  1
  N  N4  1  0.61874444  0.83340251  0.45632336  1
  N  N5  1  0.09511616  0.58470976  0.97010111  1
  N  N6  1  0.86423734  0.95910789  0.88693859  1
  N  N7  1  0.44680375  0.91321027  0.18969910  1
  N  N8  1  0.94211119  0.67657053  0.09741771  1
  N  N9  1  0.18034098  0.25424196  0.73885237  1
  N  N10  1  0.26585240  0.77407555  0.89822618  1
  N  N11  1  0.51974879  0.72345924  0.13652293  1
  N  N12  1  0.20754112  0.37586461  0.96332387  1
  N  N13  1  0.77655386  0.66832221  0.25999842  1
  N  N14  1  0.10699027  0.19665378  0.34125467  1
  N  N15  1  0.26305284  0.83772008  0.86622626  1
  N  N16  1  0.59892250  0.88519165  0.50199259  1
  N  N17  1  0.96374360  0.24305933  0.70365764  1
  N  N18  1  0.82935844  0.66421068  0.58978720  1
  N  N19  1  0.00108224  0.14910672  0.00223619  1
  N  N20  1  0.64571556  0.23860022  0.46184565  1
  N  N21  1  0.78321627  0.35835739  0.85814700  1
  N  N22  1  0.75383439  0.41934562  0.89138036  1
  N  N23  1  0.83161860  0.91024927  0.92572810  1
  N  N24  1  0.95798251  0.39179982  0.51516400  1
  N  N25  1  0.61918065  0.02982207  0.79633902  1
  N  N26  1  0.34783851  0.66842987  0.62155945  1
  N  N27  1  0.59005581  0.19259900  0.28064160  1
  N  N28  1  0.43376564  0.95996208  0.13996246  1
  N  N29  1  0.94434960  0.17843694  0.72750623  1
  N  N30  1  0.45092493  0.72259480  0.10762322  1
  N  N31  1  0.65869723  0.55267648  0.60014554  1
  N  N32  1  0.53939070  0.85458215  0.98377205  1
  N  N33  1  0.25349647  0.42948312  0.96257974  1
  N  N34  1  0.08249480  0.53665663  0.01929985  1
  N  N35  1  0.58479991  0.72654200  0.16440703  1
  N  N36  1  0.10557154  0.83413676  0.53211197  1
  N  N37  1  0.26356910  0.78886988  0.48894845  1
  N  N38  1  0.49996249  0.86385026  0.92987807  1
  N  N39  1  0.61851357  0.05156527  0.86171989  1
  N  N40  1  0.47612559  0.41897558  0.00187095  1
  N  N41  1  0.50448933  0.29480864  0.58371154  1
  N  N42  1  0.39696720  0.62942398  0.44548218  1
  N  N43  1  0.55957921  0.57058574  0.97008992  1
  N  N44  1  0.60363304  0.53513783  0.78166827  1
  N  N45  1  0.51243776  0.27063203  0.11743314  1
  N  N46  1  0.03526446  0.14695333  0.94184141  1
  N  N47  1  0.60566406  0.35817596  0.72668007  1
  N  N48  1  0.23428000  0.28751799  0.76557463  1
  N  N49  1  0.72394290  0.48135863  0.93068390  1
loop_
_geom_bond_atom_site_label_1
_geom_bond_atom_site_label_2
_geom_bond_distance
_geom_bond_site_symmetry_2
Sb0 Sb4 3.007431 1_565
Sb0 Sb30 3.343284 1_555
Sb1 Sb31 3.178895 1_555
Sb3 Sb8 2.861916 1_555
Sb3 Sb31 3.186517 1_555
Sb11 Sb9 2.866191 1_455
Sb11 Sb49 2.884626 1_555
Sb11 Sb44 2.900428 1_455
Sb13 Sb27 2.873857 1_555
Sb13 Sb30 3.019193 1_555
Sb15 Sb30 2.948420 1_555
Sb15 Sb32 3.140579 1_555
Sb16 Sb31 3.066732 1_555
Sb17 Sb18 2.958084 1_555
Sb17 Sb38 3.025828 1_455
Sb17 Sb37 3.063214 1_555
Sb17 Sb21 3.192427 1_555
Sb20 Sb27 2.946408 1_555
Sb21 Sb46 2.881226 1_555
Sb21 Sb23 2.934258 1_555
Sb21 Sb3 3.315579 1_555
Sb21 Sb44 3.459681 1_455
Sb23 Sb46 2.818869 1_555
Sb23 Sb37 3.125889 1_555
Sb24 Sb25 3.105398 1_555
Sb25 Sb32 2.787843 1_545
Sb25 Sb4 2.890457 1_555
Sb25 Sb30 3.276714 1_545
Sb27 Sb30 2.861095 1_555
Sb29 Sb33 2.724364 1_555
Sb31 Sb48 2.966863 1_555
Sb31 Sb36 3.316675 1_555
Sb31 Sb34 3.400437 1_555
Sb32 Sb4 2.847629 1_565
Sb33 Sb8 2.831574 1_555
Sb38 Sb44 2.913303 1_555
Sb42 Sb8 2.921957 1_555
Sb44 Sb9 2.881954 1_555
Sb45 Sb9 2.959452 1_555
N0 N8 1.113684 1_555
N1 N13 1.113427 1_555
N2 Sb41 2.052765 1_555
N2 Sb12 2.087648 1_555
N2 Sb16 2.096875 1_555
N3 Sb3 2.058065 1_555
N3 Sb48 2.097775 1_555
N3 Sb22 2.106037 1_555
N10 N15 1.113299 1_555
N11 N35 1.159307 1_555
N11 N30 1.221167 1_555
N12 N33 1.113849 1_555
N14 Sb29 2.018402 1_555
N14 Sb22 2.036632 1_555
N14 Sb49 2.480012 1_555
N16 N4 1.115989 1_555
N17 N29 1.113557 1_555
N18 Sb13 2.065194 1_555
N18 Sb47 2.088032 1_555
N18 Sb15 2.178572 1_555
N19 N46 1.113387 1_554
N20 Sb2 2.083051 1_555
N20 Sb1 2.086724 1_555
N20 Sb24 2.096157 1_555
N21 N22 1.159386 1_555
N22 N49 1.221472 1_555
N23 N6 1.113707 1_555
N24 Sb45 2.087534 1_555
N24 Sb38 2.102447 1_555
N24 Sb49 2.266800 1_655
N25 N39 1.113879 1_555
N26 Sb18 2.108375 1_555
N26 Sb6 2.130586 1_555
N26 Sb19 2.131982 1_555
N27 Sb34 2.085379 1_555
N27 Sb2 2.096271 1_555
N27 Sb28 2.099124 1_555
N28 N7 1.114017 1_555
N30 Sb41 2.163059 1_555
N31 Sb47 2.106058 1_555
N31 Sb20 2.114137 1_555
N31 Sb26 2.132113 1_555
N32 N38 1.113338 1_555
N34 N5 1.113195 1_554
N36 Sb5 2.052374 1_555
N36 Sb0 2.072707 1_455
N36 Sb37 2.155345 1_555
N37 Sb6 2.060201 1_555
N37 Sb5 2.115261 1_555
N37 Sb37 2.130739 1_555
N40 Sb10 2.073814 1_554
N40 Sb12 2.091827 1_555
N40 Sb40 2.101997 1_554
N41 Sb1 2.069718 1_555
N41 Sb39 2.100148 1_555
N41 Sb7 2.112858 1_555
N42 Sb46 2.051531 1_555
N42 Sb6 2.069946 1_555
N42 Sb36 2.092806 1_555
N43 Sb35 2.063906 1_555
N43 Sb40 2.087954 1_555
N43 Sb12 2.119795 1_556
N44 Sb35 2.095692 1_555
N44 Sb26 2.103909 1_555
N44 Sb14 2.124602 1_555
N45 Sb34 2.065999 1_555
N45 Sb10 2.101690 1_554
N45 Sb42 2.160961 1_555
N47 Sb43 2.057966 1_555
N47 Sb7 2.118103 1_555
N47 Sb26 2.129808 1_555
N48 N9 1.113357 1_555
N49 Sb35 2.164780 1_555
