# generated using pymatgen
data_Sr(TlHg)2
_symmetry_space_group_name_H-M   'P 1'
_cell_length_a   10.94689200
_cell_length_b   10.94689200
_cell_length_c   5.03129300
_cell_angle_alpha   90.00000000
_cell_angle_beta   90.00000000
_cell_angle_gamma   90.00000000
_symmetry_Int_Tables_number   1
_chemical_formula_structural   Sr(TlHg)2
_chemical_formula_sum   'Sr4 Tl8 Hg8'
_cell_volume   602.92220157
_cell_formula_units_Z   4
loop_
 _symmetry_equiv_pos_site_id
 _symmetry_equiv_pos_as_xyz
  1  'x, y, z'
loop_
 _atom_site_type_symbol
 _atom_site_label
 _atom_site_symmetry_multiplicity
 _atom_site_fract_x
 _atom_site_fract_y
 _atom_site_fract_z
 _atom_site_occupancy
  Sr  Sr0  1  0.35350700  0.35350700  0.00000000  1
  Sr  Sr1  1  0.64649300  0.64649300  0.00000000  1
  Sr  Sr2  1  0.85350700  0.14649300  0.50000000  1
  Sr  Sr3  1  0.14649300  0.85350700  0.50000000  1
  Tl  Tl0  1  0.64331400  0.02808400  0.00000000  1
  Tl  Tl1  1  0.35668600  0.97191600  0.00000000  1
  Tl  Tl2  1  0.52808400  0.85668600  0.50000000  1
  Tl  Tl3  1  0.14331400  0.47191600  0.50000000  1
  Tl  Tl4  1  0.47191600  0.14331400  0.50000000  1
  Tl  Tl5  1  0.85668600  0.52808400  0.50000000  1
  Tl  Tl6  1  0.02808400  0.64331400  0.00000000  1
  Tl  Tl7  1  0.97191600  0.35668600  0.00000000  1
  Hg  Hg0  1  0.68895000  0.31105000  0.00000000  1
  Hg  Hg1  1  0.31105000  0.68895000  0.00000000  1
  Hg  Hg2  1  0.81105000  0.81105000  0.50000000  1
  Hg  Hg3  1  0.18895000  0.18895000  0.50000000  1
  Hg  Hg4  1  0.09431300  0.09431300  0.00000000  1
  Hg  Hg5  1  0.90568700  0.90568700  0.00000000  1
  Hg  Hg6  1  0.59431300  0.40568700  0.50000000  1
  Hg  Hg7  1  0.40568700  0.59431300  0.50000000  1
loop_
_geom_bond_atom_site_label_1
_geom_bond_atom_site_label_2
_geom_bond_distance
_geom_bond_site_symmetry_2
Sr0 Tl4 3.647336 1_555
Sr0 Tl4 3.647336 1_554
Sr0 Tl3 3.647336 1_554
Sr0 Tl3 3.647336 1_555
Sr1 Tl5 3.647336 1_554
Sr1 Tl2 3.647336 1_555
Sr1 Tl2 3.647336 1_554
Sr1 Tl5 3.647336 1_555
Sr2 Tl0 3.647336 1_555
Sr2 Tl7 3.647336 1_555
Sr2 Tl7 3.647336 1_556
Sr2 Tl0 3.647336 1_556
Sr3 Tl6 3.647336 1_556
Sr3 Tl6 3.647336 1_555
Sr3 Tl1 3.647336 1_555
Sr3 Tl1 3.647336 1_556
Tl0 Tl1 3.197363 1_545
Tl0 Tl2 3.382313 1_544
Tl0 Tl4 3.382313 1_555
Tl0 Tl4 3.382313 1_554
Tl0 Tl2 3.382313 1_545
Tl1 Tl4 3.382313 1_565
Tl1 Tl4 3.382313 1_564
Tl1 Tl2 3.382313 1_554
Tl1 Tl2 3.382313 1_555
Tl2 Tl4 3.197363 1_565
Tl3 Tl5 3.197363 1_455
Tl3 Tl6 3.382313 1_556
Tl3 Tl6 3.382313 1_555
Tl3 Tl7 3.382313 1_455
Tl3 Tl7 3.382313 1_456
Tl5 Tl7 3.382313 1_556
Tl5 Tl7 3.382313 1_555
Tl5 Tl6 3.382313 1_655
Tl5 Tl6 3.382313 1_656
Tl6 Tl7 3.197363 1_455
Hg0 Hg6 2.911184 1_555
Hg0 Hg6 2.911184 1_554
Hg0 Tl0 3.137624 1_555
Hg0 Tl7 3.137624 1_555
Hg0 Sr2 3.580289 1_555
Hg0 Sr2 3.580289 1_554
Hg0 Sr0 3.701355 1_555
Hg0 Sr1 3.701355 1_555
Hg1 Hg7 2.911184 1_555
Hg1 Hg7 2.911184 1_554
Hg1 Tl6 3.137624 1_555
Hg1 Tl1 3.137624 1_555
Hg1 Sr3 3.580289 1_554
Hg1 Sr3 3.580289 1_555
Hg1 Sr0 3.701355 1_555
Hg1 Sr1 3.701355 1_555
Hg2 Hg5 2.911184 1_556
Hg2 Hg5 2.911184 1_555
Hg2 Tl2 3.137624 1_555
Hg2 Tl5 3.137624 1_555
Hg2 Sr1 3.580289 1_555
Hg2 Sr1 3.580289 1_556
Hg2 Sr3 3.701355 1_655
Hg2 Sr2 3.701355 1_565
Hg3 Hg4 2.911184 1_555
Hg3 Hg4 2.911184 1_556
Hg3 Tl3 3.137624 1_555
Hg3 Tl4 3.137624 1_555
Hg3 Sr0 3.580289 1_556
Hg3 Sr0 3.580289 1_555
Hg3 Sr3 3.701355 1_545
Hg3 Sr2 3.701355 1_455
Hg4 Hg5 2.920165 1_445
Hg4 Tl1 3.169321 1_545
Hg4 Tl7 3.169321 1_455
Hg4 Sr3 3.688314 1_544
Hg4 Sr3 3.688314 1_545
Hg4 Sr2 3.688314 1_455
Hg4 Sr2 3.688314 1_454
Hg5 Tl6 3.169321 1_655
Hg5 Tl0 3.169321 1_565
Hg5 Sr3 3.688314 1_655
Hg5 Sr2 3.688314 1_564
Hg5 Sr3 3.688314 1_654
Hg5 Sr2 3.688314 1_565
Hg6 Hg7 2.920165 1_555
Hg6 Tl5 3.169321 1_555
Hg6 Tl4 3.169321 1_555
Hg6 Sr0 3.688314 1_556
Hg6 Sr1 3.688314 1_555
Hg6 Sr1 3.688314 1_556
Hg6 Sr0 3.688314 1_555
Hg7 Tl2 3.169321 1_555
Hg7 Tl3 3.169321 1_555
Hg7 Sr0 3.688314 1_556
Hg7 Sr1 3.688314 1_555
Hg7 Sr1 3.688314 1_556
Hg7 Sr0 3.688314 1_555
