# generated using pymatgen
data_MnFeCo(PO4)3
_symmetry_space_group_name_H-M   'P 1'
_cell_length_a   6.00883600
_cell_length_b   9.85915300
_cell_length_c   14.63546588
_cell_angle_alpha   89.83473401
_cell_angle_beta   90.00000000
_cell_angle_gamma   90.00000000
_symmetry_Int_Tables_number   1
_chemical_formula_structural   MnFeCo(PO4)3
_chemical_formula_sum   'Mn4 Fe4 Co4 P12 O48'
_cell_volume   867.03115294
_cell_formula_units_Z   4
loop_
 _symmetry_equiv_pos_site_id
 _symmetry_equiv_pos_as_xyz
  1  'x, y, z'
loop_
 _atom_site_type_symbol
 _atom_site_label
 _atom_site_symmetry_multiplicity
 _atom_site_fract_x
 _atom_site_fract_y
 _atom_site_fract_z
 _atom_site_occupancy
  Mn  Mn0  1  0.00000000  0.21447200  0.14702800  1
  Mn  Mn1  1  0.50000000  0.28191600  0.97883700  1
  Mn  Mn2  1  0.50000000  0.28375200  0.64514200  1
  Mn  Mn3  1  0.50000000  0.28568600  0.31083100  1
  Fe  Fe0  1  0.00000000  0.22209800  0.82033100  1
  Fe  Fe1  1  0.00000000  0.22182400  0.48739800  1
  Fe  Fe2  1  0.00000000  0.72757900  0.34470600  1
  Fe  Fe3  1  0.00000000  0.72856100  0.01051000  1
  Co  Co0  1  0.00000000  0.73050600  0.67536200  1
  Co  Co1  1  0.50000000  0.77384300  0.51100600  1
  Co  Co2  1  0.50000000  0.77073800  0.84046600  1
  Co  Co3  1  0.50000000  0.77264200  0.17654000  1
  P  P0  1  0.50000000  0.09916600  0.80630600  1
  P  P1  1  0.50000000  0.09954000  0.47359900  1
  P  P2  1  0.50000000  0.09795300  0.13977200  1
  P  P3  1  0.00000000  0.40099800  0.97271900  1
  P  P4  1  0.00000000  0.40476600  0.63930600  1
  P  P5  1  0.00000000  0.40175000  0.30528900  1
  P  P6  1  0.50000000  0.60034000  0.69443700  1
  P  P7  1  0.50000000  0.60100900  0.36126200  1
  P  P8  1  0.50000000  0.60009100  0.02681000  1
  P  P9  1  0.00000000  0.89887600  0.86130300  1
  P  P10  1  0.00000000  0.90101900  0.53100600  1
  P  P11  1  0.00000000  0.90200400  0.19568600  1
  O  O0  1  0.00000000  0.05023500  0.88303900  1
  O  O1  1  0.00000000  0.05454600  0.21926100  1
  O  O2  1  0.00000000  0.05217400  0.55405900  1
  O  O3  1  0.50000000  0.11770700  0.91131200  1
  O  O4  1  0.50000000  0.11879000  0.57857600  1
  O  O5  1  0.50000000  0.11907300  0.24380700  1
  O  O6  1  0.29728000  0.17023900  0.75974600  1
  O  O7  1  0.70272000  0.17023900  0.75974600  1
  O  O8  1  0.29936300  0.16812300  0.09080700  1
  O  O9  1  0.70063700  0.16812300  0.09080700  1
  O  O10  1  0.29672300  0.16892200  0.42695800  1
  O  O11  1  0.70327700  0.16892200  0.42695800  1
  O  O12  1  0.80210100  0.32617000  0.92319100  1
  O  O13  1  0.19789900  0.32617000  0.92319100  1
  O  O14  1  0.19801500  0.33026000  0.58947000  1
  O  O15  1  0.80198500  0.33026000  0.58947000  1
  O  O16  1  0.79944700  0.32858700  0.25720200  1
  O  O17  1  0.20055300  0.32858700  0.25720200  1
  O  O18  1  0.00000000  0.38110400  0.74209500  1
  O  O19  1  0.00000000  0.37972200  0.40883200  1
  O  O20  1  0.00000000  0.37884800  0.07646500  1
  O  O21  1  0.50000000  0.44688100  0.71499200  1
  O  O22  1  0.50000000  0.44826400  0.38228900  1
  O  O23  1  0.50000000  0.44692900  0.04830200  1
  O  O24  1  0.00000000  0.55207900  0.95096000  1
  O  O25  1  0.00000000  0.55750700  0.61724500  1
  O  O26  1  0.00000000  0.55386100  0.28290900  1
  O  O27  1  0.50000000  0.62212300  0.92254400  1
  O  O28  1  0.50000000  0.62249200  0.58977500  1
  O  O29  1  0.50000000  0.62433400  0.25659000  1
  O  O30  1  0.29930200  0.67067600  0.74358500  1
  O  O31  1  0.70069800  0.67067600  0.74358500  1
  O  O32  1  0.29836400  0.67267800  0.40900800  1
  O  O33  1  0.70163600  0.67267800  0.40900800  1
  O  O34  1  0.29837000  0.67190500  0.07501400  1
  O  O35  1  0.70163000  0.67190500  0.07501400  1
  O  O36  1  0.79920000  0.82696900  0.57968200  1
  O  O37  1  0.20080000  0.82696900  0.57968200  1
  O  O38  1  0.80053500  0.82582200  0.90997100  1
  O  O39  1  0.19946500  0.82582200  0.90997100  1
  O  O40  1  0.80042100  0.82932700  0.24482600  1
  O  O41  1  0.19957900  0.82932700  0.24482600  1
  O  O42  1  0.00000000  0.87762600  0.75671700  1
  O  O43  1  0.00000000  0.88020100  0.42761800  1
  O  O44  1  0.00000000  0.88321500  0.09197300  1
  O  O45  1  0.50000000  0.94444400  0.78759400  1
  O  O46  1  0.50000000  0.94327300  0.12101300  1
  O  O47  1  0.50000000  0.94416800  0.45568600  1
loop_
_geom_bond_atom_site_label_1
_geom_bond_atom_site_label_2
_geom_bond_distance
_geom_bond_site_symmetry_2
Mn0 O1 1.895804 1_555
Mn0 O20 1.919175 1_555
Mn0 O8 2.030710 1_555
Mn0 O9 2.030710 1_455
Mn0 O16 2.308353 1_455
Mn0 O17 2.308353 1_555
Mn1 O3 1.899190 1_555
Mn1 O23 1.920909 1_556
Mn1 O12 2.036368 1_555
Mn1 O13 2.036368 1_555
Mn1 O8 2.320984 1_556
Mn1 O9 2.320984 1_556
Mn2 O4 1.898258 1_555
Mn2 O21 1.908201 1_555
Mn2 O15 2.040751 1_555
Mn2 O14 2.040751 1_555
Mn2 O7 2.353449 1_555
Mn2 O6 2.353449 1_555
Mn3 O5 1.915687 1_555
Mn3 O22 1.916414 1_555
Mn3 O16 2.007639 1_555
Mn3 O17 2.007639 1_555
Mn3 O10 2.386309 1_555
Mn3 O11 2.386309 1_555
Fe0 O0 1.924678 1_555
Fe0 O18 1.938631 1_555
Fe0 O7 2.059403 1_455
Fe0 O6 2.059403 1_555
Fe0 O13 2.177617 1_555
Fe0 O12 2.177617 1_455
Fe1 O19 1.932685 1_555
Fe1 O2 1.933913 1_555
Fe1 O11 2.058179 1_455
Fe1 O10 2.058179 1_555
Fe1 O14 2.190783 1_555
Fe1 O15 2.190783 1_455
Fe2 O43 1.935769 1_555
Fe2 O26 1.939152 1_555
Fe2 O33 2.095208 1_455
Fe2 O32 2.095208 1_555
Fe2 O40 2.138422 1_455
Fe2 O41 2.138422 1_555
Fe3 O44 1.938254 1_555
Fe3 O24 1.948283 1_554
Fe3 O34 2.101078 1_555
Fe3 O35 2.101078 1_455
Fe3 O38 2.124387 1_454
Fe3 O39 2.124387 1_554
Co0 O42 1.879240 1_555
Co0 O25 1.908138 1_555
Co0 O37 2.076902 1_555
Co0 O36 2.076902 1_455
Co0 O31 2.139147 1_455
Co0 O30 2.139147 1_555
Co1 O47 1.862144 1_555
Co1 O28 1.883006 1_555
Co1 O36 2.125996 1_555
Co1 O37 2.125996 1_555
Co1 O32 2.167899 1_555
Co1 O33 2.167899 1_555
Co2 O45 1.877261 1_555
Co2 O27 1.892012 1_555
Co2 O31 2.108574 1_555
Co2 O30 2.108574 1_555
Co2 O38 2.143373 1_555
Co2 O39 2.143373 1_555
Co3 O46 1.866170 1_555
Co3 O29 1.871014 1_555
Co3 O41 2.138463 1_555
Co3 O40 2.138463 1_555
Co3 O34 2.161167 1_555
Co3 O35 2.161167 1_555
O0 P9 1.526699 1_545
O1 P11 1.543975 1_545
O2 P10 1.528924 1_545
O3 P0 1.548169 1_555
O4 P1 1.548608 1_555
O5 P2 1.537368 1_555
O6 P0 1.560894 1_555
O7 P0 1.560894 1_555
O8 P2 1.562934 1_555
O9 P2 1.562934 1_555
O10 P1 1.556646 1_555
O11 P1 1.556646 1_555
O12 P3 1.576971 1_655
O13 P3 1.576971 1_555
O14 P4 1.578094 1_555
O15 P4 1.578094 1_655
O16 P5 1.571872 1_655
O17 P5 1.571872 1_555
O18 P4 1.521681 1_555
O19 P5 1.530263 1_555
O20 P3 1.533371 1_554
O21 P6 1.541742 1_555
O22 P7 1.536188 1_555
O23 P8 1.541571 1_555
O24 P3 1.522294 1_555
O25 P4 1.539210 1_555
O26 P5 1.534114 1_555
O27 P8 1.540743 1_556
O28 P6 1.546645 1_555
O29 P7 1.548432 1_555
O30 P6 1.567002 1_555
O31 P6 1.567002 1_555
O32 P7 1.567927 1_555
O33 P7 1.567927 1_555
O34 P8 1.571552 1_555
O35 P8 1.571552 1_555
O36 P10 1.579029 1_655
O37 P10 1.579029 1_555
O38 P9 1.568334 1_655
O39 P9 1.568334 1_555
O40 P11 1.570302 1_655
O41 P11 1.570302 1_555
O42 P9 1.545535 1_555
O43 P10 1.527575 1_555
O44 P11 1.529680 1_555
O45 P0 1.550593 1_565
O46 P2 1.550309 1_565
O47 P1 1.554854 1_565
