# generated using pymatgen
data_Mo3Pb3N5
_symmetry_space_group_name_H-M   'P 1'
_cell_length_a   6.12877224
_cell_length_b   7.97632407
_cell_length_c   8.84341802
_cell_angle_alpha   107.56599562
_cell_angle_beta   97.10838300
_cell_angle_gamma   99.90650103
_symmetry_Int_Tables_number   1
_chemical_formula_structural   Mo3Pb3N5
_chemical_formula_sum   'Mo6 Pb6 N10'
_cell_volume   398.84128470
_cell_formula_units_Z   2
loop_
 _symmetry_equiv_pos_site_id
 _symmetry_equiv_pos_as_xyz
  1  'x, y, z'
loop_
 _atom_site_type_symbol
 _atom_site_label
 _atom_site_symmetry_multiplicity
 _atom_site_fract_x
 _atom_site_fract_y
 _atom_site_fract_z
 _atom_site_occupancy
  Mo  Mo0  1  0.92796900  0.31348900  0.96790800  1
  Mo  Mo1  1  0.07203100  0.68651100  0.03209200  1
  Mo  Mo2  1  0.67473000  0.99728400  0.61414400  1
  Mo  Mo3  1  0.32527000  0.00271600  0.38585600  1
  Mo  Mo4  1  0.07976900  0.90719700  0.70778600  1
  Mo  Mo5  1  0.92023100  0.09280300  0.29221400  1
  Pb  Pb0  1  0.74777100  0.45326700  0.51721200  1
  Pb  Pb1  1  0.25222900  0.54673300  0.48278800  1
  Pb  Pb2  1  0.52080700  0.80384100  0.88284400  1
  Pb  Pb3  1  0.47919300  0.19615900  0.11715600  1
  Pb  Pb4  1  0.57103200  0.64747700  0.21786000  1
  Pb  Pb5  1  0.42896800  0.35252300  0.78214000  1
  N  N0  1  0.97042900  0.13122600  0.77626800  1
  N  N1  1  0.02957100  0.86877400  0.22373200  1
  N  N2  1  0.80434600  0.78467500  0.55704500  1
  N  N3  1  0.19565400  0.21532500  0.44295500  1
  N  N4  1  0.77787200  0.52341400  0.97806500  1
  N  N5  1  0.22212800  0.47658600  0.02193500  1
  N  N6  1  0.32981000  0.93996400  0.58596700  1
  N  N7  1  0.67019000  0.06003600  0.41403300  1
  N  N8  1  0.10103200  0.79594700  0.87149800  1
  N  N9  1  0.89896800  0.20405300  0.12850200  1
loop_
_geom_bond_atom_site_label_1
_geom_bond_atom_site_label_2
_geom_bond_distance
_geom_bond_site_symmetry_2
Mo0 N9 1.888884 1_556
Mo0 N5 1.943070 1_656
Mo0 N0 1.950782 1_555
Mo0 N4 2.029207 1_555
Mo1 N8 1.888884 1_554
Mo1 N4 1.943070 1_454
Mo1 N1 1.950782 1_555
Mo1 N5 2.029207 1_555
Mo2 N2 1.951364 1_555
Mo2 N7 1.977444 1_565
Mo2 N6 2.051381 1_555
Mo2 N0 2.060941 1_565
Mo3 N3 1.951364 1_555
Mo3 N6 1.977444 1_545
Mo3 N7 2.051381 1_555
Mo3 N1 2.060941 1_545
Mo4 N8 1.915464 1_555
Mo4 N2 1.915881 1_455
Mo4 N0 1.966771 1_465
Mo4 N6 2.004492 1_555
Mo5 N9 1.915464 1_555
Mo5 N3 1.915881 1_655
Mo5 N1 1.966771 1_645
Mo5 N7 2.004492 1_555
N2 Pb0 2.514817 1_555
N3 Pb1 2.514817 1_555
N4 Pb5 2.467219 1_555
N4 Pb4 2.629356 1_556
N5 Pb4 2.467219 1_555
N5 Pb5 2.629356 1_554
N8 Pb2 2.551354 1_555
N9 Pb3 2.551354 1_555
