# generated using pymatgen
data_Ba2PrBiO6
_symmetry_space_group_name_H-M   'P 1'
_cell_length_a   8.88973849
_cell_length_b   8.88973849
_cell_length_c   8.88973849
_cell_angle_alpha   90.00000000
_cell_angle_beta   90.00000000
_cell_angle_gamma   90.00000000
_symmetry_Int_Tables_number   1
_chemical_formula_structural   Ba2PrBiO6
_chemical_formula_sum   'Ba8 Pr4 Bi4 O24'
_cell_volume   702.53336777
_cell_formula_units_Z   4
loop_
 _symmetry_equiv_pos_site_id
 _symmetry_equiv_pos_as_xyz
  1  'x, y, z'
loop_
 _atom_site_type_symbol
 _atom_site_label
 _atom_site_symmetry_multiplicity
 _atom_site_fract_x
 _atom_site_fract_y
 _atom_site_fract_z
 _atom_site_occupancy
  Ba  Ba0  1  0.50000000  0.50000000  0.50000000  1
  Ba  Ba1  1  0.00000000  0.00000000  0.00000000  1
  Ba  Ba2  1  0.00000000  0.00000000  0.50000000  1
  Ba  Ba3  1  0.00000000  0.50000000  0.00000000  1
  Ba  Ba4  1  0.50000000  0.00000000  0.00000000  1
  Ba  Ba5  1  0.50000000  0.50000000  0.00000000  1
  Ba  Ba6  1  0.50000000  0.00000000  0.50000000  1
  Ba  Ba7  1  0.00000000  0.50000000  0.50000000  1
  Pr  Pr0  1  0.25000000  0.25000000  0.25000000  1
  Pr  Pr1  1  0.25000000  0.75000000  0.75000000  1
  Pr  Pr2  1  0.75000000  0.25000000  0.75000000  1
  Pr  Pr3  1  0.75000000  0.75000000  0.25000000  1
  Bi  Bi0  1  0.75000000  0.75000000  0.75000000  1
  Bi  Bi1  1  0.75000000  0.25000000  0.25000000  1
  Bi  Bi2  1  0.25000000  0.75000000  0.25000000  1
  Bi  Bi3  1  0.25000000  0.25000000  0.75000000  1
  O  O0  1  0.22509303  0.27789126  0.51163285  1
  O  O1  1  0.22509303  0.72210874  0.48836715  1
  O  O2  1  0.77490697  0.27789126  0.48836715  1
  O  O3  1  0.77490697  0.72210874  0.51163285  1
  O  O4  1  0.27789126  0.51163285  0.22509303  1
  O  O5  1  0.72210874  0.48836715  0.22509303  1
  O  O6  1  0.27789126  0.48836715  0.77490697  1
  O  O7  1  0.72210874  0.51163285  0.77490697  1
  O  O8  1  0.51163285  0.22509303  0.27789126  1
  O  O9  1  0.48836715  0.22509303  0.72210874  1
  O  O10  1  0.48836715  0.77490697  0.27789126  1
  O  O11  1  0.51163285  0.77490697  0.72210874  1
  O  O12  1  0.27490697  0.22210874  0.98836715  1
  O  O13  1  0.27490697  0.77789126  0.01163285  1
  O  O14  1  0.72509303  0.22210874  0.01163285  1
  O  O15  1  0.72509303  0.77789126  0.98836715  1
  O  O16  1  0.22210874  0.98836715  0.27490697  1
  O  O17  1  0.77789126  0.01163285  0.27490697  1
  O  O18  1  0.22210874  0.01163285  0.72509303  1
  O  O19  1  0.77789126  0.98836715  0.72509303  1
  O  O20  1  0.98836715  0.27490697  0.22210874  1
  O  O21  1  0.01163285  0.27490697  0.77789126  1
  O  O22  1  0.01163285  0.72509303  0.22210874  1
  O  O23  1  0.98836715  0.72509303  0.77789126  1
loop_
_geom_bond_atom_site_label_1
_geom_bond_atom_site_label_2
_geom_bond_distance
_geom_bond_site_symmetry_2
Ba0 O1 3.143518 1_555
Ba0 O4 3.143518 1_555
Ba0 O11 3.143518 1_555
Ba0 O8 3.143518 1_555
Ba0 O5 3.143518 1_555
Ba0 O6 3.143518 1_555
Ba0 O9 3.143518 1_555
Ba0 O7 3.143518 1_555
Ba0 O10 3.143518 1_555
Ba0 O0 3.143518 1_555
Ba0 O3 3.143518 1_555
Ba0 O2 3.143518 1_555
Ba1 O20 3.143518 1_455
Ba1 O22 3.143518 1_545
Ba1 O16 3.143518 1_545
Ba1 O18 3.143518 1_554
Ba1 O21 3.143518 1_554
Ba1 O12 3.143518 1_554
Ba1 O23 3.143518 1_444
Ba1 O13 3.143518 1_545
Ba1 O19 3.143518 1_444
Ba1 O17 3.143518 1_455
Ba1 O15 3.143518 1_444
Ba1 O14 3.143518 1_455
Ba2 O18 2.813072 1_555
Ba2 O16 2.813072 1_545
Ba2 O19 2.813072 1_445
Ba2 O17 2.813072 1_455
Ba2 O1 3.180809 1_545
Ba2 O0 3.180809 1_555
Ba2 O2 3.180809 1_455
Ba2 O3 3.180809 1_445
Ba3 O22 2.813072 1_555
Ba3 O20 2.813072 1_455
Ba3 O23 2.813072 1_454
Ba3 O21 2.813072 1_554
Ba3 O6 3.180809 1_554
Ba3 O7 3.180809 1_454
Ba3 O4 3.180809 1_555
Ba3 O5 3.180809 1_455
Ba4 O14 2.813072 1_555
Ba4 O12 2.813072 1_554
Ba4 O15 2.813072 1_544
Ba4 O13 2.813072 1_545
Ba4 O9 3.180809 1_554
Ba4 O11 3.180809 1_544
Ba4 O8 3.180809 1_555
Ba4 O10 3.180809 1_545
Ba5 O7 2.813072 1_554
Ba5 O4 2.813072 1_555
Ba5 O5 2.813072 1_555
Ba5 O6 2.813072 1_554
Ba5 O15 3.180809 1_554
Ba5 O12 3.180809 1_554
Ba5 O14 3.180809 1_555
Ba5 O13 3.180809 1_555
Ba6 O9 2.813072 1_555
Ba6 O11 2.813072 1_545
Ba6 O8 2.813072 1_555
Ba6 O10 2.813072 1_545
Ba6 O19 3.180809 1_545
Ba6 O16 3.180809 1_545
Ba6 O17 3.180809 1_555
Ba6 O18 3.180809 1_555
Ba7 O0 2.813072 1_555
Ba7 O2 2.813072 1_455
Ba7 O1 2.813072 1_555
Ba7 O3 2.813072 1_455
Ba7 O20 3.180809 1_455
Ba7 O22 3.180809 1_555
Ba7 O21 3.180809 1_555
Ba7 O23 3.180809 1_455
Bi0 O19 2.144937 1_555
Bi0 O3 2.144937 1_555
Bi0 O23 2.144937 1_555
Bi0 O11 2.144937 1_555
Bi0 O15 2.144937 1_555
Bi0 O7 2.144937 1_555
Bi1 O20 2.144937 1_555
Bi1 O17 2.144937 1_555
Bi1 O8 2.144937 1_555
Bi1 O14 2.144937 1_555
Bi1 O2 2.144937 1_555
Bi1 O5 2.144937 1_555
Bi2 O13 2.144937 1_555
Bi2 O4 2.144937 1_555
Bi2 O22 2.144937 1_555
Bi2 O10 2.144937 1_555
Bi2 O16 2.144937 1_555
Bi2 O1 2.144937 1_555
Bi3 O21 2.144937 1_555
Bi3 O18 2.144937 1_555
Bi3 O9 2.144937 1_555
Bi3 O0 2.144937 1_555
Bi3 O12 2.144937 1_555
Bi3 O6 2.144937 1_555
O0 Pr0 2.349483 1_555
O1 Pr1 2.349483 1_555
O2 Pr2 2.349483 1_555
O3 Pr3 2.349483 1_555
O4 Pr0 2.349483 1_555
O5 Pr3 2.349483 1_555
O6 Pr1 2.349483 1_555
O7 Pr2 2.349483 1_555
O8 Pr0 2.349483 1_555
O9 Pr2 2.349483 1_555
O10 Pr3 2.349483 1_555
O11 Pr1 2.349483 1_555
O12 Pr0 2.349483 1_556
O13 Pr1 2.349483 1_554
O14 Pr2 2.349483 1_554
O15 Pr3 2.349483 1_556
O16 Pr0 2.349483 1_565
O17 Pr3 2.349483 1_545
O18 Pr1 2.349483 1_545
O19 Pr2 2.349483 1_565
O20 Pr0 2.349483 1_655
O21 Pr2 2.349483 1_455
O22 Pr3 2.349483 1_455
O23 Pr1 2.349483 1_655
