# generated using pymatgen
data_DyFe3(BO3)4
_symmetry_space_group_name_H-M   'P 1'
_cell_length_a   6.12436719
_cell_length_b   6.12436719
_cell_length_c   6.12436721
_cell_angle_alpha   103.97742327
_cell_angle_beta   103.97742327
_cell_angle_gamma   103.97741596
_symmetry_Int_Tables_number   1
_chemical_formula_structural   DyFe3(BO3)4
_chemical_formula_sum   'Dy1 Fe3 B4 O12'
_cell_volume   205.04835644
_cell_formula_units_Z   1
loop_
 _symmetry_equiv_pos_site_id
 _symmetry_equiv_pos_as_xyz
  1  'x, y, z'
loop_
 _atom_site_type_symbol
 _atom_site_label
 _atom_site_symmetry_multiplicity
 _atom_site_fract_x
 _atom_site_fract_y
 _atom_site_fract_z
 _atom_site_occupancy
  Dy  Dy0  1  0.50000000  0.50000000  0.50000000  1
  Fe  Fe0  1  0.04732200  0.95267800  0.50000000  1
  Fe  Fe1  1  0.95267800  0.50000000  0.04732200  1
  Fe  Fe2  1  0.50000000  0.04732200  0.95267800  1
  B  B0  1  0.45197700  0.54802300  0.00000000  1
  B  B1  1  0.54802300  0.00000000  0.45197700  1
  B  B2  1  0.00000000  0.45197700  0.54802300  1
  B  B3  1  0.00000000  0.00000000  0.00000000  1
  O  O0  1  0.29812500  0.52538300  0.13200300  1
  O  O1  1  0.52538300  0.13200300  0.29812500  1
  O  O2  1  0.70187500  0.86799700  0.47461700  1
  O  O3  1  0.13200300  0.29812500  0.52538300  1
  O  O4  1  0.47461700  0.70187500  0.86799700  1
  O  O5  1  0.86799700  0.47461700  0.70187500  1
  O  O6  1  0.85655000  0.14345000  0.00000000  1
  O  O7  1  0.14345000  0.00000000  0.85655000  1
  O  O8  1  0.00000000  0.85655000  0.14345000  1
  O  O9  1  0.59513700  0.40486300  0.00000000  1
  O  O10  1  0.40486300  0.00000000  0.59513700  1
  O  O11  1  0.00000000  0.59513700  0.40486300  1
loop_
_geom_bond_atom_site_label_1
_geom_bond_atom_site_label_2
_geom_bond_distance
_geom_bond_site_symmetry_2
Dy0 O1 2.355452 1_555
Dy0 O5 2.355452 1_555
Dy0 O4 2.355452 1_555
Dy0 O0 2.355452 1_555
Dy0 O2 2.355452 1_555
Dy0 O3 2.355452 1_555
Fe0 O3 2.010278 1_565
Fe0 O2 2.010278 1_455
Fe0 O8 2.046879 1_555
Fe0 O7 2.046879 1_565
Fe0 O11 2.052764 1_555
Fe0 O10 2.052764 1_565
Fe1 O5 2.010278 1_554
Fe1 O0 2.010278 1_655
Fe1 O8 2.046879 1_655
Fe1 O6 2.046879 1_555
Fe1 O11 2.052764 1_655
Fe1 O9 2.052765 1_555
Fe2 O1 2.010278 1_556
Fe2 O4 2.010278 1_545
Fe2 O7 2.046879 1_555
Fe2 O6 2.046879 1_556
Fe2 O10 2.052764 1_555
Fe2 O9 2.052765 1_556
B0 O9 1.381587 1_555
B0 O4 1.385511 1_554
B0 O0 1.385511 1_555
B1 O10 1.381587 1_555
B1 O2 1.385511 1_545
B1 O1 1.385511 1_555
B2 O11 1.381587 1_555
B2 O3 1.385511 1_555
B2 O5 1.385511 1_455
B3 O6 1.384385 1_455
B3 O7 1.384386 1_554
B3 O8 1.384386 1_545
