# generated using pymatgen
data_MgZr3U7O20
_symmetry_space_group_name_H-M   'P 1'
_cell_length_a   3.75538550
_cell_length_b   6.49170090
_cell_length_c   16.71741589
_cell_angle_alpha   92.30123648
_cell_angle_beta   96.45976643
_cell_angle_gamma   90.01767190
_symmetry_Int_Tables_number   1
_chemical_formula_structural   MgZr3U7O20
_chemical_formula_sum   'Mg1 Zr3 U7 O20'
_cell_volume   404.63232545
_cell_formula_units_Z   1
loop_
 _symmetry_equiv_pos_site_id
 _symmetry_equiv_pos_as_xyz
  1  'x, y, z'
loop_
 _atom_site_type_symbol
 _atom_site_label
 _atom_site_symmetry_multiplicity
 _atom_site_fract_x
 _atom_site_fract_y
 _atom_site_fract_z
 _atom_site_occupancy
  Mg  Mg0  1  0.74689446  0.25234908  0.49077858  1
  Zr  Zr0  1  0.40821010  0.80636171  0.81521269  1
  Zr  Zr1  1  0.18287169  0.38183236  0.36282086  1
  Zr  Zr2  1  0.49903810  0.49805041  0.99887601  1
  U  U0  1  0.90721538  0.31065867  0.81359397  1
  U  U1  1  0.81223152  0.62471904  0.62485991  1
  U  U2  1  0.69218068  0.86080144  0.38250688  1
  U  U3  1  0.31528226  0.11780809  0.62932776  1
  U  U4  1  0.09287775  0.68934986  0.18457066  1
  U  U5  1  0.59402609  0.18400312  0.18639306  1
  U  U6  1  0.99915322  0.99737486  0.99694630  1
  O  O0  1  0.92967401  0.97198200  0.85775081  1
  O  O1  1  0.47520671  0.81704227  0.94896273  1
  O  O2  1  0.77980536  0.97130093  0.55815442  1
  O  O3  1  0.33633001  0.79451426  0.67229318  1
  O  O4  1  0.43080710  0.49020744  0.86068302  1
  O  O5  1  0.97765433  0.33661149  0.95348006  1
  O  O6  1  0.88277150  0.64649952  0.76525567  1
  O  O7  1  0.17095873  0.70541599  0.34056428  1
  O  O8  1  0.83743597  0.29433048  0.67426747  1
  O  O9  1  0.62100412  0.85247688  0.24070636  1
  O  O10  1  0.28681647  0.43931872  0.57416307  1
  O  O11  1  0.71724180  0.52182735  0.43397631  1
  O  O12  1  0.38495895  0.12859622  0.76887612  1
  O  O13  1  0.66800610  0.20699276  0.33353953  1
  O  O14  1  0.56786571  0.51438325  0.13452742  1
  O  O15  1  0.11959410  0.36244898  0.23708792  1
  O  O16  1  0.22543599  0.14504879  0.44841677  1
  O  O17  1  0.02244775  0.66448689  0.04322024  1
  O  O18  1  0.07049406  0.01507586  0.13955818  1
  O  O19  1  0.52219000  0.17468428  0.04282073  1
loop_
_geom_bond_atom_site_label_1
_geom_bond_atom_site_label_2
_geom_bond_distance
_geom_bond_site_symmetry_2
Mg0 O11 2.020928 1_555
Mg0 O16 2.112780 1_655
Mg0 O16 2.114016 1_555
Mg0 O2 2.178650 1_545
Mg0 O10 2.598885 1_655
Mg0 O10 2.609386 1_555
Mg0 O13 2.616625 1_555
O0 Zr0 2.262418 1_655
O0 Zr0 2.262863 1_555
O0 U6 2.311424 1_555
O0 U0 2.345690 1_565
O1 Zr0 2.220036 1_555
O1 Zr2 2.261538 1_555
O1 U6 2.335267 1_555
O1 U6 2.336361 1_455
O2 U3 2.394501 1_665
O2 U3 2.395954 1_565
O2 U1 2.547852 1_555
O2 U2 2.976309 1_555
O3 U3 2.243925 1_565
O3 U1 2.299506 1_555
O3 U1 2.301052 1_455
O3 Zr0 2.372211 1_555
O4 Zr0 2.215437 1_555
O4 Zr2 2.294070 1_555
O4 U0 2.328340 1_455
O4 U0 2.328870 1_555
O5 Zr2 2.260206 1_655
O5 Zr2 2.269160 1_555
O5 U0 2.322981 1_555
O5 U6 2.345151 1_545
O6 Zr0 2.284075 1_555
O6 Zr0 2.286133 1_655
O6 U1 2.330720 1_555
O6 U0 2.353621 1_555
O7 Zr1 2.147574 1_555
O7 U2 2.229334 1_455
O7 U2 2.230176 1_555
O7 U4 2.589133 1_555
O8 U3 2.306654 1_555
O8 U3 2.309388 1_655
O8 U0 2.312531 1_555
O8 U1 2.327246 1_555
O9 U4 2.331469 1_555
O9 U4 2.331922 1_655
O9 U2 2.353922 1_555
O9 U5 2.367042 1_565
O10 U3 2.313143 1_555
O10 U1 2.366529 1_555
O10 U1 2.366971 1_455
O11 Zr1 2.375492 1_555
O11 Zr1 2.383441 1_655
O11 U2 2.392791 1_555
O12 Zr0 2.257993 1_545
O12 U3 2.316302 1_555
O12 U0 2.323798 1_555
O12 U0 2.325233 1_455
O13 Zr1 2.237048 1_555
O13 Zr1 2.237725 1_655
O13 U2 2.420781 1_545
O13 U5 2.442811 1_555
O14 Zr2 2.251551 1_554
O14 U4 2.329906 1_655
O14 U4 2.330779 1_555
O14 U5 2.343418 1_555
O15 Zr1 2.087286 1_555
O15 U4 2.326863 1_555
O15 U5 2.344508 1_555
O15 U5 2.345010 1_455
O16 Zr1 2.135704 1_555
O16 U2 2.822165 1_545
O16 U2 2.822636 1_445
O17 Zr2 2.270610 1_554
O17 Zr2 2.277507 1_454
O17 U6 2.322753 1_454
O17 U4 2.347031 1_555
O18 U4 2.271155 1_545
O18 U5 2.294421 1_555
O18 U5 2.294509 1_455
O18 U6 2.367104 1_444
O19 Zr2 2.250215 1_554
O19 U6 2.315146 1_444
O19 U6 2.315347 1_544
O19 U5 2.383240 1_555
