# generated using pymatgen
data_MgTa3
_symmetry_space_group_name_H-M   'P 1'
_cell_length_a   5.95167547
_cell_length_b   5.95167547
_cell_length_c   4.83739600
_cell_angle_alpha   90.00000000
_cell_angle_beta   90.00000000
_cell_angle_gamma   119.99999412
_symmetry_Int_Tables_number   1
_chemical_formula_structural   MgTa3
_chemical_formula_sum   'Mg2 Ta6'
_cell_volume   148.39551765
_cell_formula_units_Z   2
loop_
 _symmetry_equiv_pos_site_id
 _symmetry_equiv_pos_as_xyz
  1  'x, y, z'
loop_
 _atom_site_type_symbol
 _atom_site_label
 _atom_site_symmetry_multiplicity
 _atom_site_fract_x
 _atom_site_fract_y
 _atom_site_fract_z
 _atom_site_occupancy
  Mg  Mg0  1  0.66666700  0.33333300  0.25000000  1
  Mg  Mg1  1  0.33333300  0.66666700  0.75000000  1
  Ta  Ta0  1  0.16238300  0.32476600  0.25000000  1
  Ta  Ta1  1  0.16238300  0.83761700  0.25000000  1
  Ta  Ta2  1  0.67523400  0.83761700  0.25000000  1
  Ta  Ta3  1  0.32476600  0.16238300  0.75000000  1
  Ta  Ta4  1  0.83761700  0.16238300  0.75000000  1
  Ta  Ta5  1  0.83761700  0.67523400  0.75000000  1
loop_
_geom_bond_atom_site_label_1
_geom_bond_atom_site_label_2
_geom_bond_distance
_geom_bond_site_symmetry_2
Mg0 Ta0 2.976162 1_655
Mg0 Ta2 2.976162 1_545
Mg0 Ta1 2.976166 1_655
Mg0 Ta1 2.976166 1_545
Mg0 Ta0 2.976168 1_555
Mg0 Ta2 2.976168 1_555
Mg0 Ta4 2.992598 1_555
Mg0 Ta4 2.992598 1_554
Mg0 Ta5 2.992602 1_554
Mg0 Ta5 2.992602 1_555
Mg0 Ta3 2.992602 1_555
Mg0 Ta3 2.992602 1_554
Mg1 Ta3 2.976162 1_565
Mg1 Ta5 2.976162 1_455
Mg1 Ta4 2.976166 1_565
Mg1 Ta4 2.976166 1_455
Mg1 Ta5 2.976168 1_555
Mg1 Ta3 2.976168 1_555
Mg1 Ta1 2.992598 1_555
Mg1 Ta1 2.992598 1_556
Mg1 Ta0 2.992602 1_555
Mg1 Ta0 2.992602 1_556
Mg1 Ta2 2.992602 1_555
Mg1 Ta2 2.992602 1_556
Ta0 Ta1 2.899353 1_545
Ta0 Ta2 2.899353 1_445
Ta0 Ta3 2.941459 1_555
Ta0 Ta3 2.941459 1_554
Ta0 Ta4 2.941459 1_455
Ta0 Ta4 2.941459 1_454
Ta0 Ta1 3.052323 1_555
Ta0 Ta2 3.052323 1_555
Ta1 Ta2 2.899353 1_455
Ta1 Ta3 2.941459 1_565
Ta1 Ta3 2.941459 1_564
Ta1 Ta5 2.941459 1_455
Ta1 Ta5 2.941459 1_454
Ta1 Ta2 3.052323 1_555
Ta2 Ta5 2.941459 1_554
Ta2 Ta5 2.941459 1_555
Ta2 Ta4 2.941459 1_565
Ta2 Ta4 2.941459 1_564
Ta3 Ta4 2.899353 1_455
Ta3 Ta5 2.899353 1_445
Ta3 Ta4 3.052323 1_555
Ta3 Ta5 3.052323 1_555
Ta4 Ta5 2.899353 1_545
Ta4 Ta5 3.052323 1_555
