# generated using pymatgen
data_SrGeN2
_symmetry_space_group_name_H-M   'P 1'
_cell_length_a   5.43757600
_cell_length_b   10.85156100
_cell_length_c   16.17708600
_cell_angle_alpha   90.00000000
_cell_angle_beta   90.00000000
_cell_angle_gamma   90.00000000
_symmetry_Int_Tables_number   1
_chemical_formula_structural   SrGeN2
_chemical_formula_sum   'Sr16 Ge16 N32'
_cell_volume   954.54817225
_cell_formula_units_Z   16
loop_
 _symmetry_equiv_pos_site_id
 _symmetry_equiv_pos_as_xyz
  1  'x, y, z'
loop_
 _atom_site_type_symbol
 _atom_site_label
 _atom_site_symmetry_multiplicity
 _atom_site_fract_x
 _atom_site_fract_y
 _atom_site_fract_z
 _atom_site_occupancy
  Sr  Sr0  1  0.74415100  0.01228000  0.43465300  1
  Sr  Sr1  1  0.24415100  0.48772000  0.56534700  1
  Sr  Sr2  1  0.25584900  0.51228000  0.06534700  1
  Sr  Sr3  1  0.75584900  0.98772000  0.93465300  1
  Sr  Sr4  1  0.25584900  0.98772000  0.56534700  1
  Sr  Sr5  1  0.75584900  0.51228000  0.43465300  1
  Sr  Sr6  1  0.74415100  0.48772000  0.93465300  1
  Sr  Sr7  1  0.24415100  0.01228000  0.06534700  1
  Sr  Sr8  1  0.84516200  0.27160300  0.31284800  1
  Sr  Sr9  1  0.34516200  0.22839700  0.68715200  1
  Sr  Sr10  1  0.15483800  0.77160300  0.18715200  1
  Sr  Sr11  1  0.65483800  0.72839700  0.81284800  1
  Sr  Sr12  1  0.15483800  0.72839700  0.68715200  1
  Sr  Sr13  1  0.65483800  0.77160300  0.31284800  1
  Sr  Sr14  1  0.84516200  0.22839700  0.81284800  1
  Sr  Sr15  1  0.34516200  0.27160300  0.18715200  1
  Ge  Ge0  1  0.73381700  0.01500600  0.18811200  1
  Ge  Ge1  1  0.23381700  0.48499400  0.81188800  1
  Ge  Ge2  1  0.26618300  0.51500600  0.31188800  1
  Ge  Ge3  1  0.76618300  0.98499400  0.68811200  1
  Ge  Ge4  1  0.26618300  0.98499400  0.81188800  1
  Ge  Ge5  1  0.76618300  0.51500600  0.18811200  1
  Ge  Ge6  1  0.73381700  0.48499400  0.68811200  1
  Ge  Ge7  1  0.23381700  0.01500600  0.31188800  1
  Ge  Ge8  1  0.81639800  0.26773100  0.06267200  1
  Ge  Ge9  1  0.31639800  0.23226900  0.93732800  1
  Ge  Ge10  1  0.18360200  0.76773100  0.43732800  1
  Ge  Ge11  1  0.68360200  0.73226900  0.56267200  1
  Ge  Ge12  1  0.18360200  0.73226900  0.93732800  1
  Ge  Ge13  1  0.68360200  0.76773100  0.06267200  1
  Ge  Ge14  1  0.81639800  0.23226900  0.56267200  1
  Ge  Ge15  1  0.31639800  0.26773100  0.43732800  1
  N  N0  1  0.59688200  0.47523100  0.28636100  1
  N  N1  1  0.09688200  0.02476900  0.71363900  1
  N  N2  1  0.40311800  0.97523100  0.21363900  1
  N  N3  1  0.90311800  0.52476900  0.78636100  1
  N  N4  1  0.40311800  0.52476900  0.71363900  1
  N  N5  1  0.90311800  0.97523100  0.28636100  1
  N  N6  1  0.59688200  0.02476900  0.78636100  1
  N  N7  1  0.09688200  0.47523100  0.21363900  1
  N  N8  1  0.65564200  0.27811700  0.46348900  1
  N  N9  1  0.15564200  0.22188300  0.53651100  1
  N  N10  1  0.34435800  0.77811700  0.03651100  1
  N  N11  1  0.84435800  0.72188300  0.96348900  1
  N  N12  1  0.34435800  0.72188300  0.53651100  1
  N  N13  1  0.84435800  0.77811700  0.46348900  1
  N  N14  1  0.65564200  0.22188300  0.96348900  1
  N  N15  1  0.15564200  0.27811700  0.03651100  1
  N  N16  1  0.68998400  0.42741000  0.09003100  1
  N  N17  1  0.18998400  0.07259000  0.90996900  1
  N  N18  1  0.31001600  0.92741000  0.40996900  1
  N  N19  1  0.81001600  0.57259000  0.59003100  1
  N  N20  1  0.31001600  0.57259000  0.90996900  1
  N  N21  1  0.81001600  0.92741000  0.09003100  1
  N  N22  1  0.68998400  0.07259000  0.59003100  1
  N  N23  1  0.18998400  0.42741000  0.40996900  1
  N  N24  1  0.79390700  0.18216900  0.16426200  1
  N  N25  1  0.29390700  0.31783100  0.83573800  1
  N  N26  1  0.20609300  0.68216900  0.33573800  1
  N  N27  1  0.70609300  0.81783100  0.66426200  1
  N  N28  1  0.20609300  0.81783100  0.83573800  1
  N  N29  1  0.70609300  0.68216900  0.16426200  1
  N  N30  1  0.79390700  0.31783100  0.66426200  1
  N  N31  1  0.29390700  0.18216900  0.33573800  1
loop_
_geom_bond_atom_site_label_1
_geom_bond_atom_site_label_2
_geom_bond_distance
_geom_bond_site_symmetry_2
Ge0 N24 1.883121 1_555
Ge0 N5 1.886773 1_545
Ge0 N2 1.894823 1_545
Ge0 N21 1.895451 1_545
Ge1 N25 1.883121 1_555
Ge1 N4 1.886773 1_555
Ge1 N3 1.894823 1_455
Ge1 N20 1.895451 1_555
Ge2 N26 1.883121 1_555
Ge2 N7 1.886773 1_555
Ge2 N0 1.894823 1_555
Ge2 N23 1.895451 1_555
Ge3 N27 1.883121 1_555
Ge3 N6 1.886773 1_565
Ge3 N1 1.894823 1_665
Ge3 N22 1.895451 1_565
Ge4 N28 1.883121 1_555
Ge4 N1 1.886773 1_565
Ge4 N6 1.894823 1_565
Ge4 N17 1.895451 1_565
Ge5 N29 1.883121 1_555
Ge5 N0 1.886773 1_555
Ge5 N7 1.894823 1_655
Ge5 N16 1.895451 1_555
Ge6 N30 1.883121 1_555
Ge6 N3 1.886773 1_555
Ge6 N4 1.894823 1_555
Ge6 N19 1.895451 1_555
Ge7 N31 1.883121 1_555
Ge7 N2 1.886773 1_545
Ge7 N5 1.894823 1_445
Ge7 N18 1.895451 1_545
Ge8 N24 1.891533 1_555
Ge8 N14 1.893677 1_554
Ge8 N15 1.895942 1_655
Ge8 N16 1.915950 1_555
Ge9 N25 1.891533 1_555
Ge9 N15 1.893677 1_556
Ge9 N14 1.895942 1_555
Ge9 N17 1.915950 1_555
Ge10 N26 1.891533 1_555
Ge10 N12 1.893677 1_555
Ge10 N13 1.895942 1_455
Ge10 N18 1.915950 1_555
Ge11 N27 1.891533 1_555
Ge11 N13 1.893677 1_555
Ge11 N12 1.895942 1_555
Ge11 N19 1.915950 1_555
Ge12 N28 1.891533 1_555
Ge12 N10 1.893677 1_556
Ge12 N11 1.895942 1_455
Ge12 N20 1.915950 1_555
Ge13 N29 1.891533 1_555
Ge13 N11 1.893677 1_554
Ge13 N10 1.895942 1_555
Ge13 N21 1.915950 1_555
Ge14 N30 1.891533 1_555
Ge14 N8 1.893677 1_555
Ge14 N9 1.895942 1_655
Ge14 N22 1.915950 1_555
Ge15 N31 1.891533 1_555
Ge15 N9 1.893677 1_555
Ge15 N8 1.895942 1_555
Ge15 N23 1.915950 1_555
N0 Sr5 2.581413 1_555
N0 Sr8 2.624672 1_555
N1 Sr4 2.581413 1_545
N1 Sr9 2.624672 1_555
N2 Sr7 2.581413 1_565
N2 Sr10 2.624672 1_555
N3 Sr6 2.581413 1_555
N3 Sr11 2.624672 1_555
N4 Sr1 2.581413 1_555
N4 Sr12 2.624672 1_555
N5 Sr0 2.581413 1_565
N5 Sr13 2.624672 1_555
N6 Sr3 2.581413 1_545
N6 Sr14 2.624672 1_555
N7 Sr2 2.581413 1_555
N7 Sr15 2.624672 1_555
N8 Sr5 2.640333 1_555
N8 Sr8 2.646815 1_555
N8 Sr0 2.961586 1_555
N9 Sr4 2.640333 1_545
N9 Sr9 2.646815 1_555
N9 Sr1 2.961586 1_555
N10 Sr7 2.640333 1_565
N10 Sr10 2.646815 1_555
N10 Sr2 2.961586 1_555
N11 Sr6 2.640333 1_555
N11 Sr11 2.646815 1_555
N11 Sr3 2.961586 1_555
N12 Sr1 2.640333 1_555
N12 Sr12 2.646815 1_555
N12 Sr4 2.961586 1_555
N13 Sr0 2.640333 1_565
N13 Sr13 2.646815 1_555
N13 Sr5 2.961586 1_555
N14 Sr3 2.640333 1_545
N14 Sr14 2.646815 1_555
N14 Sr6 2.961586 1_555
N15 Sr2 2.640333 1_555
N15 Sr15 2.646815 1_555
N15 Sr7 2.961586 1_555
N16 Sr2 2.565204 1_555
N16 Sr6 2.614014 1_554
N17 Sr3 2.565204 1_445
N17 Sr7 2.614014 1_556
N18 Sr0 2.565204 1_565
N18 Sr4 2.614014 1_555
N19 Sr1 2.565204 1_655
N19 Sr5 2.614014 1_555
N20 Sr6 2.565204 1_555
N20 Sr2 2.614014 1_556
N21 Sr7 2.565204 1_665
N21 Sr3 2.614014 1_554
N22 Sr4 2.565204 1_545
N22 Sr0 2.614014 1_555
N23 Sr5 2.565204 1_455
N23 Sr1 2.614014 1_555
N24 Sr8 2.607156 1_555
N24 Sr15 2.651980 1_555
N25 Sr9 2.607156 1_555
N25 Sr14 2.651980 1_455
N26 Sr10 2.607156 1_555
N26 Sr13 2.651980 1_555
N27 Sr11 2.607156 1_555
N27 Sr12 2.651980 1_655
N28 Sr12 2.607156 1_555
N28 Sr11 2.651980 1_555
N29 Sr13 2.607156 1_555
N29 Sr10 2.651980 1_655
N30 Sr14 2.607156 1_555
N30 Sr9 2.651980 1_555
N31 Sr15 2.607156 1_555
N31 Sr8 2.651980 1_455
