# generated using pymatgen
data_Sb2Te3
_symmetry_space_group_name_H-M   'P 1'
_cell_length_a   6.77067924
_cell_length_b   6.77067924
_cell_length_c   31.23446200
_cell_angle_alpha   90.00000000
_cell_angle_beta   90.00000000
_cell_angle_gamma   119.99999255
_symmetry_Int_Tables_number   1
_chemical_formula_structural   Sb2Te3
_chemical_formula_sum   'Sb16 Te24'
_cell_volume   1240.02137964
_cell_formula_units_Z   8
loop_
 _symmetry_equiv_pos_site_id
 _symmetry_equiv_pos_as_xyz
  1  'x, y, z'
loop_
 _atom_site_type_symbol
 _atom_site_label
 _atom_site_symmetry_multiplicity
 _atom_site_fract_x
 _atom_site_fract_y
 _atom_site_fract_z
 _atom_site_occupancy
  Sb  Sb0_0  1  0.00000000  0.00000000  0.14856250  1
  Sb  Sb0_1  1  0.00000000  0.00000000  0.64856250  1
  Sb  Sb0_2  1  0.00000000  0.50000000  0.14856250  1
  Sb  Sb0_3  1  0.00000000  0.50000000  0.64856250  1
  Sb  Sb0_4  1  0.50000000  0.00000000  0.14856250  1
  Sb  Sb0_5  1  0.50000000  0.00000000  0.64856250  1
  Sb  Sb0_6  1  0.50000000  0.50000000  0.14856250  1
  Sb  Sb0_7  1  0.50000000  0.50000000  0.64856250  1
  Sb  Sb1_0  1  0.00000000  0.00000000  0.35143750  1
  Sb  Sb1_1  1  0.00000000  0.00000000  0.85143750  1
  Sb  Sb1_2  1  0.00000000  0.50000000  0.35143750  1
  Sb  Sb1_3  1  0.00000000  0.50000000  0.85143750  1
  Sb  Sb1_4  1  0.50000000  0.00000000  0.35143750  1
  Sb  Sb1_5  1  0.50000000  0.00000000  0.85143750  1
  Sb  Sb1_6  1  0.50000000  0.50000000  0.35143750  1
  Sb  Sb1_7  1  0.50000000  0.50000000  0.85143750  1
  Te  Te0_0  1  0.00000000  0.00000000  0.25000000  1
  Te  Te0_1  1  0.00000000  0.00000000  0.75000000  1
  Te  Te0_2  1  0.00000000  0.50000000  0.25000000  1
  Te  Te0_3  1  0.00000000  0.50000000  0.75000000  1
  Te  Te0_4  1  0.50000000  0.00000000  0.25000000  1
  Te  Te0_5  1  0.50000000  0.00000000  0.75000000  1
  Te  Te0_6  1  0.50000000  0.50000000  0.25000000  1
  Te  Te0_7  1  0.50000000  0.50000000  0.75000000  1
  Te  Te1_0  1  0.00000000  0.00000000  0.44428650  1
  Te  Te1_1  1  0.00000000  0.00000000  0.94428650  1
  Te  Te1_2  1  0.00000000  0.50000000  0.44428650  1
  Te  Te1_3  1  0.00000000  0.50000000  0.94428650  1
  Te  Te1_4  1  0.50000000  0.00000000  0.44428650  1
  Te  Te1_5  1  0.50000000  0.00000000  0.94428650  1
  Te  Te1_6  1  0.50000000  0.50000000  0.44428650  1
  Te  Te1_7  1  0.50000000  0.50000000  0.94428650  1
  Te  Te2_0  1  0.00000000  0.00000000  0.05571350  1
  Te  Te2_1  1  0.00000000  0.00000000  0.55571350  1
  Te  Te2_2  1  0.00000000  0.50000000  0.05571350  1
  Te  Te2_3  1  0.00000000  0.50000000  0.55571350  1
  Te  Te2_4  1  0.50000000  0.00000000  0.05571350  1
  Te  Te2_5  1  0.50000000  0.00000000  0.55571350  1
  Te  Te2_6  1  0.50000000  0.50000000  0.05571350  1
  Te  Te2_7  1  0.50000000  0.50000000  0.55571350  1
loop_
_geom_bond_atom_site_label_1
_geom_bond_atom_site_label_2
_geom_bond_distance
_geom_bond_site_symmetry_2
Sb0_0 Te2_0 2.900089 1_555
Sb0_0 Te0_0 3.168346 1_555
Sb0_0 Sb0_2 3.385340 1_545
Sb0_0 Sb0_2 3.385340 1_555
Sb0_0 Sb0_4 3.385340 1_455
Sb0_0 Sb0_4 3.385340 1_555
Sb0_0 Sb0_6 3.385340 1_555
Sb0_0 Sb0_6 3.385340 1_445
Sb0_1 Te2_1 2.900089 1_555
Sb0_1 Te0_1 3.168346 1_555
Sb0_1 Sb0_5 3.385340 1_455
Sb0_1 Sb0_3 3.385340 1_545
Sb0_1 Sb0_3 3.385340 1_555
Sb0_1 Sb0_5 3.385340 1_555
Sb0_1 Sb0_7 3.385340 1_445
Sb0_1 Sb0_7 3.385340 1_555
Sb0_2 Te2_2 2.900089 1_555
Sb0_2 Te0_2 3.168346 1_555
Sb0_2 Sb0_6 3.385340 1_455
Sb0_2 Sb0_6 3.385340 1_555
Sb0_2 Sb0_4 3.385340 1_455
Sb0_2 Sb0_4 3.385340 1_565
Sb0_3 Te2_3 2.900089 1_555
Sb0_3 Te0_3 3.168346 1_555
Sb0_3 Sb0_7 3.385340 1_555
Sb0_3 Sb0_7 3.385340 1_455
Sb0_3 Sb0_5 3.385340 1_455
Sb0_3 Sb0_5 3.385340 1_565
Sb0_4 Te2_4 2.900089 1_555
Sb0_4 Te0_4 3.168346 1_555
Sb0_4 Sb0_6 3.385340 1_545
Sb0_4 Sb0_6 3.385340 1_555
Sb0_5 Te2_5 2.900089 1_555
Sb0_5 Te0_5 3.168346 1_555
Sb0_5 Sb0_7 3.385340 1_555
Sb0_5 Sb0_7 3.385340 1_545
Sb0_6 Te2_6 2.900089 1_555
Sb0_6 Te0_6 3.168346 1_555
Sb0_7 Te2_7 2.900089 1_555
Sb0_7 Te0_7 3.168346 1_555
Sb1_0 Te1_0 2.900089 1_555
Sb1_0 Te0_0 3.168346 1_555
Sb1_0 Sb1_4 3.385340 1_455
Sb1_0 Sb1_2 3.385340 1_545
Sb1_0 Sb1_4 3.385340 1_555
Sb1_0 Sb1_2 3.385340 1_555
Sb1_0 Sb1_6 3.385340 1_445
Sb1_0 Sb1_6 3.385340 1_555
Sb1_1 Te1_1 2.900089 1_555
Sb1_1 Te0_1 3.168346 1_555
Sb1_1 Sb1_3 3.385340 1_555
Sb1_1 Sb1_3 3.385340 1_545
Sb1_1 Sb1_5 3.385340 1_455
Sb1_1 Sb1_5 3.385340 1_555
Sb1_1 Sb1_7 3.385340 1_555
Sb1_1 Sb1_7 3.385340 1_445
Sb1_2 Te1_2 2.900089 1_555
Sb1_2 Te0_2 3.168346 1_555
Sb1_2 Sb1_6 3.385340 1_455
Sb1_2 Sb1_6 3.385340 1_555
Sb1_2 Sb1_4 3.385340 1_565
Sb1_2 Sb1_4 3.385340 1_455
Sb1_3 Te1_3 2.900089 1_555
Sb1_3 Te0_3 3.168346 1_555
Sb1_3 Sb1_7 3.385340 1_455
Sb1_3 Sb1_7 3.385340 1_555
Sb1_3 Sb1_5 3.385340 1_455
Sb1_3 Sb1_5 3.385340 1_565
Sb1_4 Te1_4 2.900089 1_555
Sb1_4 Te0_4 3.168346 1_555
Sb1_4 Sb1_6 3.385340 1_545
Sb1_4 Sb1_6 3.385340 1_555
Sb1_5 Te1_5 2.900089 1_555
Sb1_5 Te0_5 3.168346 1_555
Sb1_5 Sb1_7 3.385340 1_555
Sb1_5 Sb1_7 3.385340 1_545
Sb1_6 Te1_6 2.900089 1_555
Sb1_6 Te0_6 3.168346 1_555
Sb1_7 Te1_7 2.900089 1_555
Sb1_7 Te0_7 3.168346 1_555
Te0_0 Te0_4 3.385340 1_555
Te0_0 Te0_2 3.385340 1_555
Te0_0 Te0_4 3.385340 1_455
Te0_0 Te0_2 3.385340 1_545
Te0_0 Te0_6 3.385340 1_445
Te0_0 Te0_6 3.385340 1_555
Te0_1 Te0_3 3.385340 1_545
Te0_1 Te0_3 3.385340 1_555
Te0_1 Te0_5 3.385340 1_555
Te0_1 Te0_5 3.385340 1_455
Te0_1 Te0_7 3.385340 1_445
Te0_1 Te0_7 3.385340 1_555
Te0_2 Te0_6 3.385340 1_555
Te0_2 Te0_6 3.385340 1_455
Te0_2 Te0_4 3.385340 1_455
Te0_2 Te0_4 3.385340 1_565
Te0_3 Te0_7 3.385340 1_455
Te0_3 Te0_7 3.385340 1_555
Te0_3 Te0_5 3.385340 1_455
Te0_3 Te0_5 3.385340 1_565
Te0_4 Te0_6 3.385340 1_555
Te0_4 Te0_6 3.385340 1_545
Te0_5 Te0_7 3.385340 1_555
Te0_5 Te0_7 3.385340 1_545
