# generated using pymatgen
data_RbMoPO6
_symmetry_space_group_name_H-M   'P 1'
_cell_length_a   10.26607118
_cell_length_b   9.82243595
_cell_length_c   8.47522280
_cell_angle_alpha   67.79667108
_cell_angle_beta   62.35497818
_cell_angle_gamma   49.84835074
_symmetry_Int_Tables_number   1
_chemical_formula_structural   RbMoPO6
_chemical_formula_sum   'Rb4 Mo4 P4 O24'
_cell_volume   574.72773123
_cell_formula_units_Z   4
loop_
 _symmetry_equiv_pos_site_id
 _symmetry_equiv_pos_as_xyz
  1  'x, y, z'
loop_
 _atom_site_type_symbol
 _atom_site_label
 _atom_site_symmetry_multiplicity
 _atom_site_fract_x
 _atom_site_fract_y
 _atom_site_fract_z
 _atom_site_occupancy
  Rb  Rb0  1  0.79655500  0.20344500  0.20344500  1
  Rb  Rb1  1  0.20344500  0.79655500  0.79655500  1
  Rb  Rb2  1  0.45344500  0.04655500  0.04655500  1
  Rb  Rb3  1  0.04655500  0.45344500  0.45344500  1
  Mo  Mo0  1  0.96896800  0.53103200  0.96896800  1
  Mo  Mo1  1  0.53103200  0.96896800  0.53103200  1
  Mo  Mo2  1  0.28103200  0.71896800  0.28103200  1
  Mo  Mo3  1  0.71896800  0.28103200  0.71896800  1
  P  P0  1  0.36750800  0.36750800  0.63249200  1
  P  P1  1  0.63249200  0.63249200  0.36750800  1
  P  P2  1  0.88249200  0.88249200  0.61750800  1
  P  P3  1  0.61750800  0.61750800  0.88249200  1
  O  O0  1  0.16154100  0.45539500  0.73035500  1
  O  O1  1  0.65270900  0.73035500  0.45539500  1
  O  O2  1  0.73035500  0.65270900  0.16154100  1
  O  O3  1  0.45539500  0.16154100  0.65270900  1
  O  O4  1  0.08845900  0.79460500  0.51964500  1
  O  O5  1  0.59729100  0.51964500  0.79460500  1
  O  O6  1  0.51964500  0.59729100  0.08845900  1
  O  O7  1  0.79460500  0.08845900  0.59729100  1
  O  O8  1  0.44462300  0.39383600  0.72708700  1
  O  O9  1  0.43445300  0.72708700  0.39383600  1
  O  O10  1  0.72708700  0.43445300  0.44462300  1
  O  O11  1  0.39383600  0.44462300  0.43445300  1
  O  O12  1  0.80537700  0.85616400  0.52291300  1
  O  O13  1  0.81554700  0.52291300  0.85616400  1
  O  O14  1  0.52291300  0.81554700  0.80537700  1
  O  O15  1  0.85616400  0.80537700  0.81554700  1
  O  O16  1  0.07343200  0.57125100  0.04007200  1
  O  O17  1  0.31524500  0.04007200  0.57125100  1
  O  O18  1  0.04007200  0.31524500  0.07343200  1
  O  O19  1  0.57125100  0.07343200  0.31524500  1
  O  O20  1  0.17656800  0.67874900  0.20992800  1
  O  O21  1  0.93475500  0.20992800  0.67874900  1
  O  O22  1  0.20992800  0.93475500  0.17656800  1
  O  O23  1  0.67874900  0.17656800  0.93475500  1
loop_
_geom_bond_atom_site_label_1
_geom_bond_atom_site_label_2
_geom_bond_distance
_geom_bond_site_symmetry_2
Mo0 O18 1.730711 1_656
Mo0 O16 1.730711 1_656
Mo0 O2 2.020229 1_556
Mo0 O0 2.020229 1_655
Mo0 O13 2.240101 1_555
Mo0 O15 2.240107 1_555
Mo1 O19 1.730711 1_565
Mo1 O17 1.730711 1_565
Mo1 O3 2.020229 1_565
Mo1 O1 2.020229 1_555
Mo1 O14 2.240107 1_555
Mo1 O12 2.240110 1_555
Mo2 O22 1.730711 1_555
Mo2 O20 1.730711 1_555
Mo2 O4 2.020229 1_555
Mo2 O6 2.020229 1_555
Mo2 O9 2.240101 1_555
Mo2 O11 2.240107 1_555
Mo3 O21 1.730711 1_555
Mo3 O23 1.730711 1_555
Mo3 O5 2.020229 1_555
Mo3 O7 2.020229 1_555
Mo3 O10 2.240107 1_555
Mo3 O8 2.240110 1_555
O0 P0 1.569650 1_555
O0 Rb3 3.087986 1_555
O1 P1 1.569650 1_555
O1 Rb3 3.087986 1_655
O2 P1 1.569650 1_555
O2 Rb2 3.087986 1_565
O3 P0 1.569650 1_555
O3 Rb2 3.087986 1_556
O4 P2 1.569650 1_455
O4 Rb1 3.087986 1_555
O5 P3 1.569650 1_555
O5 Rb1 3.087986 1_555
O6 P3 1.569650 1_554
O6 Rb0 3.087986 1_555
O7 P2 1.569650 1_545
O7 Rb0 3.087986 1_555
O8 P0 1.531686 1_555
O8 Rb1 3.146605 1_555
O8 Rb2 3.438571 1_556
O9 P1 1.531695 1_555
O9 Rb1 3.146604 1_555
O9 Rb2 3.438573 1_565
O10 P1 1.531693 1_555
O10 Rb0 3.146597 1_555
O10 Rb3 3.438577 1_655
O11 P0 1.531693 1_555
O11 Rb0 3.146603 1_555
O11 Rb3 3.438567 1_555
O12 P2 1.531686 1_555
O12 Rb3 3.146605 1_655
O12 Rb0 3.438571 1_565
O13 P3 1.531695 1_555
O13 Rb3 3.146604 1_655
O13 Rb0 3.438573 1_556
O14 P3 1.531693 1_555
O14 Rb2 3.146597 1_566
O14 Rb1 3.438577 1_555
O15 P2 1.531693 1_555
O15 Rb2 3.146603 1_566
O15 Rb1 3.438567 1_655
O16 Rb1 2.956267 1_554
O16 Rb3 3.184317 1_555
O17 Rb1 2.956267 1_545
O17 Rb3 3.184317 1_555
O18 Rb0 2.956267 1_455
O18 Rb2 3.184317 1_555
O19 Rb0 2.956267 1_555
O19 Rb2 3.184317 1_555
O20 Rb3 2.956267 1_555
O20 Rb1 3.184317 1_554
O21 Rb3 2.956267 1_655
O21 Rb1 3.184317 1_645
O22 Rb2 2.956267 1_565
O22 Rb0 3.184317 1_465
O23 Rb2 2.956267 1_556
O23 Rb0 3.184317 1_556
