# generated using pymatgen
data_Ba2MgCuMo2F14
_symmetry_space_group_name_H-M   'P 1'
_cell_length_a   5.30535201
_cell_length_b   7.67634888
_cell_length_c   15.21546796
_cell_angle_alpha   90.81633223
_cell_angle_beta   89.98697212
_cell_angle_gamma   110.12387380
_symmetry_Int_Tables_number   1
_chemical_formula_structural   Ba2MgCuMo2F14
_chemical_formula_sum   'Ba4 Mg2 Cu2 Mo4 F28'
_cell_volume   581.76511657
_cell_formula_units_Z   2
loop_
 _symmetry_equiv_pos_site_id
 _symmetry_equiv_pos_as_xyz
  1  'x, y, z'
loop_
 _atom_site_type_symbol
 _atom_site_label
 _atom_site_symmetry_multiplicity
 _atom_site_fract_x
 _atom_site_fract_y
 _atom_site_fract_z
 _atom_site_occupancy
  Ba  Ba0  1  0.09334300  0.36417600  0.62401000  1
  Ba  Ba1  1  0.27217200  0.36405900  0.12410200  1
  Ba  Ba2  1  0.90721000  0.63669800  0.37662200  1
  Ba  Ba3  1  0.72899200  0.63573100  0.87638000  1
  Mg  Mg0  1  0.43884200  0.00149500  0.75009600  1
  Mg  Mg1  1  0.56191500  0.99986000  0.25044300  1
  Cu  Cu0  1  0.50072300  0.00015800  0.00024000  1
  Cu  Cu1  1  0.49959000  0.00028500  0.50049700  1
  Mo  Mo0  1  0.09446000  0.23743100  0.87358900  1
  Mo  Mo1  1  0.90685400  0.76246700  0.12686600  1
  Mo  Mo2  1  0.14378000  0.23849800  0.37368600  1
  Mo  Mo3  1  0.85625200  0.76218500  0.62699500  1
  F  F0  1  0.86273200  0.97927900  0.33419400  1
  F  F1  1  0.86260200  0.29170000  0.45722900  1
  F  F2  1  0.13779900  0.70957300  0.54338300  1
  F  F3  1  0.62378200  0.48904600  0.59697500  1
  F  F4  1  0.62345600  0.07810400  0.61879900  1
  F  F5  1  0.54599800  0.92344500  0.88166100  1
  F  F6  1  0.42810100  0.28977500  0.95730500  1
  F  F7  1  0.88647100  0.02191700  0.16689300  1
  F  F8  1  0.36874800  0.34509200  0.77219800  1
  F  F9  1  0.37690000  0.51146300  0.40375000  1
  F  F10  1  0.78619100  0.21434100  0.77980600  1
  F  F11  1  0.13667100  0.51127500  0.90325600  1
  F  F12  1  0.42874500  0.21369300  0.27992600  1
  F  F13  1  0.21537200  0.78650100  0.22081300  1
  F  F14  1  0.45562200  0.07719300  0.11884800  1
  F  F15  1  0.63252300  0.65303700  0.22805000  1
  F  F16  1  0.12144900  0.84285500  0.00729800  1
  F  F17  1  0.13676500  0.02144400  0.66645300  1
  F  F18  1  0.87982300  0.15794900  0.99321000  1
  F  F19  1  0.72180200  0.84280900  0.50748600  1
  F  F20  1  0.57322000  0.70990200  0.04312400  1
  F  F21  1  0.57110200  0.78680700  0.72068200  1
  F  F22  1  0.98004600  0.34874400  0.27234400  1
  F  F23  1  0.27758400  0.15786000  0.49333200  1
  F  F24  1  0.37633400  0.92291800  0.38211300  1
  F  F25  1  0.11379700  0.97756200  0.83374000  1
  F  F26  1  0.02036200  0.65174200  0.72815300  1
  F  F27  1  0.86660700  0.48938600  0.09642800  1
loop_
_geom_bond_atom_site_label_1
_geom_bond_atom_site_label_2
_geom_bond_distance
_geom_bond_site_symmetry_2
Ba0 F3 2.676209 1_555
Ba0 F4 2.696564 1_455
Ba0 F8 2.720005 1_555
Ba0 F1 2.782142 1_455
Ba0 F17 2.803112 1_555
Ba0 F26 2.832290 1_555
Ba0 F2 2.872755 1_555
Ba0 F10 2.895498 1_455
Ba0 F23 2.896854 1_555
Ba0 F3 2.991464 1_455
Ba1 F27 2.677471 1_455
Ba1 F14 2.696759 1_555
Ba1 F22 2.717350 1_455
Ba1 F6 2.780797 1_554
Ba1 F7 2.803422 1_455
Ba1 F15 2.839104 1_555
Ba1 F20 2.879534 1_555
Ba1 F12 2.895223 1_555
Ba1 F18 2.906621 1_454
Ba1 F27 2.995299 1_555
Ba2 F9 2.675797 1_555
Ba2 F24 2.694602 1_655
Ba2 F15 2.717557 1_555
Ba2 F2 2.781677 1_655
Ba2 F0 2.804207 1_555
Ba2 F22 2.835543 1_555
Ba2 F1 2.869672 1_555
Ba2 F13 2.897894 1_655
Ba2 F19 2.901004 1_555
Ba2 F9 2.994018 1_655
Ba3 F11 2.681678 1_655
Ba3 F5 2.701338 1_555
Ba3 F26 2.714189 1_655
Ba3 F20 2.779502 1_556
Ba3 F25 2.799277 1_655
Ba3 F8 2.847744 1_555
Ba3 F6 2.879621 1_555
Ba3 F21 2.899396 1_555
Ba3 F16 2.909444 1_656
Ba3 F11 2.983253 1_555
Cu0 F5 1.930439 1_544
Cu0 F14 1.931466 1_555
Cu0 F16 1.962189 1_545
Cu0 F18 1.962402 1_554
Cu0 F6 2.479666 1_554
Cu0 F20 2.483823 1_545
Cu1 F24 1.930728 1_545
Cu1 F4 1.930944 1_555
Cu1 F23 1.961231 1_555
Cu1 F19 1.961323 1_545
Cu1 F2 2.486679 1_545
Cu1 F1 2.494711 1_555
F0 Mg1 2.091892 1_555
F0 Mo2 2.113905 1_665
F1 Mo2 2.100349 1_655
F2 Mo3 2.100559 1_455
F3 Mo3 2.078345 1_555
F4 Mg0 2.220895 1_555
F5 Mg0 2.226774 1_565
F6 Mo0 2.100998 1_555
F7 Mg1 2.100990 1_545
F7 Mo1 2.112534 1_545
F8 Mo0 2.094834 1_555
F9 Mo2 2.078266 1_555
F10 Mg0 2.043861 1_555
F10 Mo0 2.129971 1_655
F11 Mo0 2.078919 1_555
F12 Mg1 2.042463 1_545
F12 Mo2 2.132246 1_555
F13 Mg1 2.042851 1_555
F13 Mo1 2.131248 1_455
F14 Mg1 2.223571 1_545
F15 Mo1 2.094925 1_555
F16 Mo1 2.129411 1_455
F17 Mg0 2.094491 1_555
F17 Mo3 2.112897 1_445
F18 Mo0 2.129391 1_655
F19 Mo3 2.129505 1_555
F20 Mo1 2.101027 1_555
F21 Mg0 2.045284 1_565
F21 Mo3 2.131777 1_555
F22 Mo2 2.095731 1_655
F23 Mo2 2.129851 1_555
F24 Mg1 2.228138 1_555
F25 Mg0 2.101181 1_565
F25 Mo0 2.112791 1_565
F26 Mo3 2.095605 1_455
F27 Mo1 2.078170 1_555
