# generated using pymatgen
data_TbHfO14
_symmetry_space_group_name_H-M   'P 1'
_cell_length_a   8.37913899
_cell_length_b   8.37913899
_cell_length_c   8.37913899
_cell_angle_alpha   60.00000000
_cell_angle_beta   60.00000000
_cell_angle_gamma   60.00000000
_symmetry_Int_Tables_number   1
_chemical_formula_structural   TbHfO14
_chemical_formula_sum   'Tb2 Hf2 O28'
_cell_volume   415.99028213
_cell_formula_units_Z   2
loop_
 _symmetry_equiv_pos_site_id
 _symmetry_equiv_pos_as_xyz
  1  'x, y, z'
loop_
 _atom_site_type_symbol
 _atom_site_label
 _atom_site_symmetry_multiplicity
 _atom_site_fract_x
 _atom_site_fract_y
 _atom_site_fract_z
 _atom_site_occupancy
  Tb  Tb0  1  0.00000000  0.00000000  0.00000000  1
  Tb  Tb1  1  0.75000000  0.75000000  0.75000000  1
  Hf  Hf0  1  0.50000000  0.50000000  0.50000000  1
  Hf  Hf1  1  0.25000000  0.25000000  0.25000000  1
  O  O0  1  0.87500000  0.87500000  0.87500000  1
  O  O1  1  0.37500000  0.87500000  0.87500000  1
  O  O2  1  0.87500000  0.37500000  0.87500000  1
  O  O3  1  0.87500000  0.87500000  0.37500000  1
  O  O4  1  0.45352200  0.45352200  0.16446200  1
  O  O5  1  0.92849400  0.16446200  0.45352200  1
  O  O6  1  0.16446200  0.92849400  0.45352200  1
  O  O7  1  0.45352200  0.16446200  0.45352200  1
  O  O8  1  0.82150600  0.29647800  0.58553800  1
  O  O9  1  0.29647800  0.29647800  0.58553800  1
  O  O10  1  0.45352200  0.45352200  0.92849400  1
  O  O11  1  0.16446200  0.45352200  0.92849400  1
  O  O12  1  0.29647800  0.58553800  0.29647800  1
  O  O13  1  0.82150600  0.58553800  0.29647800  1
  O  O14  1  0.92849400  0.45352200  0.16446200  1
  O  O15  1  0.29647800  0.82150600  0.29647800  1
  O  O16  1  0.58553800  0.82150600  0.29647800  1
  O  O17  1  0.45352200  0.92849400  0.45352200  1
  O  O18  1  0.58553800  0.29647800  0.82150600  1
  O  O19  1  0.29647800  0.29647800  0.82150600  1
  O  O20  1  0.16446200  0.45352200  0.45352200  1
  O  O21  1  0.45352200  0.16446200  0.92849400  1
  O  O22  1  0.92849400  0.45352200  0.45352200  1
  O  O23  1  0.45352200  0.92849400  0.16446200  1
  O  O24  1  0.29647800  0.58553800  0.82150600  1
  O  O25  1  0.58553800  0.29647800  0.29647800  1
  O  O26  1  0.29647800  0.82150600  0.58553800  1
  O  O27  1  0.82150600  0.29647800  0.29647800  1
loop_
_geom_bond_atom_site_label_1
_geom_bond_atom_site_label_2
_geom_bond_distance
_geom_bond_site_symmetry_2
Hf0 O24 2.606473 1_555
Hf0 O16 2.606473 1_555
Hf0 O13 2.606473 1_555
Hf0 O26 2.606473 1_555
Hf0 O8 2.606473 1_555
Hf0 O18 2.606473 1_555
Hf0 O15 2.606473 1_555
Hf0 O27 2.606473 1_555
Hf0 O19 2.606473 1_555
Hf0 O9 2.606473 1_555
Hf0 O25 2.606473 1_555
Hf0 O12 2.606473 1_555
Hf1 O7 2.606473 1_555
Hf1 O4 2.606473 1_555
Hf1 O20 2.606473 1_555
Hf1 O10 2.606473 1_554
Hf1 O22 2.606473 1_455
Hf1 O17 2.606473 1_545
Hf1 O6 2.606473 1_545
Hf1 O21 2.606473 1_554
Hf1 O5 2.606473 1_455
Hf1 O11 2.606473 1_554
Hf1 O14 2.606473 1_455
Hf1 O23 2.606473 1_545
O0 Tb0 2.565577 1_666
O0 Tb1 2.565577 1_555
O1 Tb1 2.565577 1_555
O1 Tb0 2.565577 1_566
O2 Tb0 2.565577 1_656
O2 Tb1 2.565577 1_555
O3 Tb1 2.565577 1_555
O3 Tb0 2.565577 1_665
O5 O8 1.578369 1_555
O5 O6 1.977209 1_645
O7 O9 1.578369 1_555
O10 O18 1.578369 1_555
O10 O24 1.578369 1_555
O10 O4 1.977209 1_556
O11 O24 1.578369 1_555
O11 O19 1.578369 1_555
O11 O14 1.977209 1_456
O12 O20 1.578369 1_555
O12 O4 1.578369 1_555
O12 O15 1.977209 1_555
O13 O14 1.578369 1_555
O13 O22 1.578369 1_555
O13 O16 1.977209 1_555
O14 O27 1.578369 1_555
O15 O23 1.578369 1_555
O15 O6 1.578369 1_555
O16 O23 1.578369 1_555
O16 O17 1.578369 1_555
O17 O26 1.578369 1_555
O17 O7 1.977209 1_565
O18 O21 1.578369 1_555
O18 O8 1.977209 1_555
O19 O21 1.578369 1_555
O19 O9 1.977209 1_555
O20 O9 1.578369 1_555
O20 O22 1.977209 1_455
O21 O23 1.977209 1_546
O22 O8 1.578369 1_555
O24 O26 1.977209 1_555
O25 O4 1.578369 1_555
O25 O7 1.578369 1_555
O25 O27 1.977209 1_555
O26 O6 1.578369 1_555
O27 O5 1.578369 1_555
