# generated using pymatgen
data_Li9Mn2Co5O16
_symmetry_space_group_name_H-M   'P 1'
_cell_length_a   5.81316400
_cell_length_b   5.82905540
_cell_length_c   9.78200968
_cell_angle_alpha   81.37801399
_cell_angle_beta   81.18650349
_cell_angle_gamma   60.29065292
_symmetry_Int_Tables_number   1
_chemical_formula_structural   Li9Mn2Co5O16
_chemical_formula_sum   'Li9 Mn2 Co5 O16'
_cell_volume   283.43677566
_cell_formula_units_Z   1
loop_
 _symmetry_equiv_pos_site_id
 _symmetry_equiv_pos_as_xyz
  1  'x, y, z'
loop_
 _atom_site_type_symbol
 _atom_site_label
 _atom_site_symmetry_multiplicity
 _atom_site_fract_x
 _atom_site_fract_y
 _atom_site_fract_z
 _atom_site_occupancy
  Li  Li0  1  0.87418900  0.87540600  0.75433300  1
  Li  Li1  1  0.61807100  0.13748900  0.24295100  1
  Li  Li2  1  0.38045400  0.37430200  0.75449100  1
  Li  Li3  1  0.38799200  0.85741000  0.76075300  1
  Li  Li4  1  0.12463100  0.12612200  0.24567900  1
  Li  Li5  1  0.86523500  0.38373900  0.75318900  1
  Li  Li6  1  0.13422200  0.61569100  0.24441800  1
  Li  Li7  1  0.61977600  0.62601900  0.24533000  1
  Li  Li8  1  0.50021200  0.49944900  0.00038000  1
  Mn  Mn0  1  0.00102700  0.99960100  0.99955300  1
  Mn  Mn1  1  0.74884500  0.25163200  0.49941700  1
  Co  Co0  1  0.24803200  0.75141000  0.50086600  1
  Co  Co1  1  0.50019800  0.99978700  0.00047100  1
  Co  Co2  1  0.24991100  0.24873000  0.50070500  1
  Co  Co3  1  0.00066400  0.49952800  0.99949700  1
  Co  Co4  1  0.74969600  0.75109800  0.49948300  1
  O  O0  1  0.16670700  0.69598400  0.88994300  1
  O  O1  1  0.93325900  0.95453100  0.38494000  1
  O  O2  1  0.69263000  0.16356400  0.89321300  1
  O  O3  1  0.67720300  0.71221900  0.89045600  1
  O  O4  1  0.42215500  0.93855000  0.38473500  1
  O  O5  1  0.19444800  0.16722500  0.88809600  1
  O  O6  1  0.45165900  0.42931000  0.38079700  1
  O  O7  1  0.93315100  0.42449600  0.38380600  1
  O  O8  1  0.56594900  0.07933500  0.61465000  1
  O  O9  1  0.32333100  0.28845600  0.10901500  1
  O  O10  1  0.07783600  0.55784900  0.61697800  1
  O  O11  1  0.04303800  0.07480100  0.61659400  1
  O  O12  1  0.83501600  0.30444200  0.10774100  1
  O  O13  1  0.56569100  0.54650700  0.61758400  1
  O  O14  1  0.80779800  0.83053700  0.11193900  1
  O  O15  1  0.30697500  0.83478500  0.10799200  1
loop_
_geom_bond_atom_site_label_1
_geom_bond_atom_site_label_2
_geom_bond_distance
_geom_bond_site_symmetry_2
Li0 O3 2.054705 1_555
Li0 O0 2.063382 1_655
Li0 O2 2.066032 1_565
Li0 O11 2.094212 1_665
Li0 O8 2.154711 1_565
Li0 O10 2.172413 1_655
Li1 O9 2.067432 1_555
Li1 O6 2.074728 1_555
Li1 O14 2.087718 1_545
Li1 O12 2.146235 1_555
Li1 O1 2.196017 1_545
Li1 O4 2.215445 1_545
Li2 O13 2.046231 1_555
Li2 O8 2.098979 1_555
Li2 O10 2.115858 1_555
Li2 O2 2.165372 1_555
Li2 O5 2.172990 1_555
Li2 O0 2.178659 1_555
Li3 O3 2.018390 1_555
Li3 O5 2.076048 1_565
Li3 O0 2.117135 1_555
Li3 O13 2.185136 1_555
Li3 O8 2.259478 1_565
Li3 O11 2.329701 1_565
Li4 O9 2.060987 1_555
Li4 O12 2.067980 1_455
Li4 O15 2.070167 1_545
Li4 O1 2.079365 1_445
Li4 O7 2.101044 1_455
Li4 O4 2.106584 1_545
Li5 O13 2.093984 1_555
Li5 O11 2.133055 1_655
Li5 O10 2.160083 1_655
Li5 O2 2.204141 1_555
Li5 O5 2.208468 1_655
Li5 O3 2.215973 1_555
Li6 O6 2.167459 1_555
Li6 O14 2.181728 1_455
Li6 O15 2.184036 1_555
Li6 O7 2.194230 1_455
Li6 O9 2.198666 1_555
Li6 O1 2.278200 1_455
Li7 O6 2.069820 1_555
Li7 O15 2.158065 1_555
Li7 O4 2.165295 1_555
Li7 O7 2.165950 1_555
Li7 O14 2.169464 1_555
Li7 O12 2.192334 1_555
Li8 O9 2.055713 1_555
Li8 O12 2.063627 1_555
Li8 O2 2.066104 1_554
Li8 O15 2.066138 1_555
Li8 O3 2.068571 1_554
Li8 O0 2.075416 1_554
Mn0 O12 1.939056 1_466
Mn0 O0 1.942265 1_555
Mn0 O2 1.945387 1_465
Mn0 O15 1.946860 1_556
Mn0 O5 1.949755 1_565
Mn0 O14 1.958440 1_456
Mn1 O8 1.939435 1_555
Mn1 O1 1.943141 1_545
Mn1 O7 1.949178 1_555
Mn1 O11 1.949417 1_655
Mn1 O13 1.956723 1_555
Mn1 O6 1.970806 1_555
Co0 O4 1.968638 1_555
Co0 O10 1.979853 1_555
Co0 O1 2.030246 1_455
Co0 O13 2.047222 1_555
Co0 O11 2.062745 1_565
Co0 O6 2.082799 1_555
Co1 O9 1.871411 1_565
Co1 O3 1.875802 1_554
Co1 O2 1.913664 1_564
Co1 O15 1.923137 1_555
Co1 O5 1.969156 1_564
Co1 O14 1.971294 1_555
Co2 O10 2.005060 1_555
Co2 O4 2.007735 1_545
Co2 O8 2.022869 1_555
Co2 O7 2.042540 1_455
Co2 O11 2.050694 1_555
Co2 O6 2.071505 1_555
Co3 O12 1.937389 1_456
Co3 O0 1.949920 1_555
Co3 O9 2.028020 1_556
Co3 O3 2.029248 1_455
Co3 O5 2.074220 1_555
Co3 O14 2.074575 1_456
Co4 O1 2.071171 1_555
Co4 O4 2.074672 1_555
Co4 O7 2.075042 1_555
Co4 O8 2.079100 1_565
Co4 O13 2.091332 1_555
Co4 O10 2.093409 1_655
