# generated using pymatgen
data_H20RhC3N9Cl6O
_symmetry_space_group_name_H-M   'P 1'
_cell_length_a   7.94121600
_cell_length_b   8.80539053
_cell_length_c   16.56588969
_cell_angle_alpha   77.01077547
_cell_angle_beta   76.58160766
_cell_angle_gamma   64.63849754
_symmetry_Int_Tables_number   1
_chemical_formula_structural   H20RhC3N9Cl6O
_chemical_formula_sum   'H40 Rh2 C6 N18 Cl12 O2'
_cell_volume   1007.75277352
_cell_formula_units_Z   2
loop_
 _symmetry_equiv_pos_site_id
 _symmetry_equiv_pos_as_xyz
  1  'x, y, z'
loop_
 _atom_site_type_symbol
 _atom_site_label
 _atom_site_symmetry_multiplicity
 _atom_site_fract_x
 _atom_site_fract_y
 _atom_site_fract_z
 _atom_site_occupancy
  H  H0  1  0.87098900  0.67157800  0.41696100  1
  H  H1  1  0.12901100  0.32842200  0.58303900  1
  H  H2  1  0.08223200  0.68163000  0.41873100  1
  H  H3  1  0.91776800  0.31837000  0.58126900  1
  H  H4  1  0.89768700  0.12832000  0.40855400  1
  H  H5  1  0.10231300  0.87168000  0.59144600  1
  H  H6  1  0.10300700  0.93941000  0.40476800  1
  H  H7  1  0.89699300  0.06059000  0.59523200  1
  H  H8  1  0.59769200  0.91891400  0.41115000  1
  H  H9  1  0.40230800  0.08108600  0.58885000  1
  H  H10  1  0.60414200  0.11661800  0.40940300  1
  H  H11  1  0.39585800  0.88338200  0.59059700  1
  H  H12  1  0.79674100  0.31734700  0.28000000  1
  H  H13  1  0.20325900  0.68265300  0.72000000  1
  H  H14  1  0.81990300  0.21846900  0.19433700  1
  H  H15  1  0.18009700  0.78153100  0.80566300  1
  H  H16  1  0.69124500  0.39317300  0.07404900  1
  H  H17  1  0.30875500  0.60682700  0.92595100  1
  H  H18  1  0.55410600  0.60879900  0.07683600  1
  H  H19  1  0.44589400  0.39120100  0.92316400  1
  H  H20  1  0.62103200  0.60254500  0.28243100  1
  H  H21  1  0.37896800  0.39745500  0.71756900  1
  H  H22  1  0.55417400  0.73829200  0.19065300  1
  H  H23  1  0.44582600  0.26170800  0.80934700  1
  H  H24  1  0.18097700  0.33456200  0.09638000  1
  H  H25  1  0.81902300  0.66543800  0.90362000  1
  H  H26  1  0.09190400  0.55468800  0.08707800  1
  H  H27  1  0.90809600  0.44531200  0.91292200  1
  H  H28  1  0.11458600  0.68676200  0.19189200  1
  H  H29  1  0.88541400  0.31323800  0.80810800  1
  H  H30  1  0.22128000  0.55673600  0.27833700  1
  H  H31  1  0.77872000  0.44326400  0.72166300  1
  H  H32  1  0.35344300  0.16487700  0.20939900  1
  H  H33  1  0.64655700  0.83512300  0.79060100  1
  H  H34  1  0.35410700  0.27084400  0.28720400  1
  H  H35  1  0.64589300  0.72915600  0.71279600  1
  H  H36  1  0.31104800  0.98718800  0.14335800  1
  H  H37  1  0.68895200  0.01281200  0.85664200  1
  H  H38  1  0.50328800  0.00514300  0.10537900  1
  H  H39  1  0.49671200  0.99485700  0.89462100  1
  Rh  Rh0  1  0.00000000  0.00000000  0.00000000  1
  Rh  Rh1  1  0.50000000  0.50000000  0.50000000  1
  C  C0  1  0.86089700  0.91243800  0.40442800  1
  C  C1  1  0.13910300  0.08756200  0.59557200  1
  C  C2  1  0.67535700  0.48055100  0.18176500  1
  C  C3  1  0.32464300  0.51944900  0.81823500  1
  C  C4  1  0.21659200  0.42658000  0.19226800  1
  C  C5  1  0.78340800  0.57342000  0.80773200  1
  N  N0  1  0.94837900  0.74342600  0.40520600  1
  N  N1  1  0.05162100  0.25657400  0.59479400  1
  N  N2  1  0.96245900  0.00278100  0.40045200  1
  N  N3  1  0.03754100  0.99721900  0.59954800  1
  N  N4  1  0.67486900  0.99010400  0.40413900  1
  N  N5  1  0.32513100  0.00989600  0.59586100  1
  N  N6  1  0.76822000  0.32601900  0.22208200  1
  N  N7  1  0.23178000  0.67398100  0.77791800  1
  N  N8  1  0.64807000  0.49767300  0.10323700  1
  N  N9  1  0.35193000  0.50232700  0.89676300  1
  N  N10  1  0.61012700  0.61679600  0.22101400  1
  N  N11  1  0.38987300  0.38320400  0.77898600  1
  N  N12  1  0.16632400  0.43871000  0.11884400  1
  N  N13  1  0.83367600  0.56129000  0.88115600  1
  N  N14  1  0.18169500  0.56741400  0.22273900  1
  N  N15  1  0.81830500  0.43258600  0.77726100  1
  N  N16  1  0.30026900  0.27421900  0.23666600  1
  N  N17  1  0.69973100  0.72578100  0.76333400  1
  Cl  Cl0  1  0.97196400  0.96015700  0.14867800  1
  Cl  Cl1  1  0.02803600  0.03984300  0.85132200  1
  Cl  Cl2  1  0.90332600  0.77654300  0.00622900  1
  Cl  Cl3  1  0.09667400  0.22345700  0.99377100  1
  Cl  Cl4  1  0.67827900  0.19405500  0.00871900  1
  Cl  Cl5  1  0.32172100  0.80594500  0.99128100  1
  Cl  Cl6  1  0.79742800  0.40718600  0.41214800  1
  Cl  Cl7  1  0.20257200  0.59281400  0.58785200  1
  Cl  Cl8  1  0.37721800  0.39629200  0.41589900  1
  Cl  Cl9  1  0.62278200  0.60370800  0.58410100  1
  Cl  Cl10  1  0.58640600  0.23181300  0.58751200  1
  Cl  Cl11  1  0.41359400  0.76818700  0.41248800  1
  O  O0  1  0.42635200  0.98158100  0.15831900  1
  O  O1  1  0.57364800  0.01841900  0.84168100  1
loop_
_geom_bond_atom_site_label_1
_geom_bond_atom_site_label_2
_geom_bond_distance
_geom_bond_site_symmetry_2
H0 N0 1.018829 1_555
H1 N1 1.018829 1_555
H2 N0 1.018039 1_455
H3 N1 1.018039 1_655
H4 N2 1.025723 1_555
H5 N3 1.025723 1_555
H6 N2 1.023614 1_465
H7 N3 1.023614 1_645
H8 N4 1.022452 1_555
H9 N5 1.022452 1_555
H10 N4 1.024211 1_545
H11 N5 1.024211 1_565
H12 N6 1.015286 1_555
H13 N7 1.015286 1_555
H14 N6 1.025523 1_555
H15 N7 1.025523 1_555
H16 N8 1.025110 1_555
H17 N9 1.025110 1_555
H18 N8 1.019387 1_555
H19 N9 1.019387 1_555
H20 N10 1.016167 1_555
H21 N11 1.016167 1_555
H22 N10 1.024468 1_555
H23 N11 1.024468 1_555
H24 N12 1.017316 1_555
H25 N13 1.017316 1_555
H26 N12 1.027051 1_555
H27 N13 1.027051 1_555
H28 N14 1.027011 1_555
H29 N15 1.027011 1_555
H30 N14 1.012957 1_555
H31 N15 1.012957 1_555
H32 N16 1.033452 1_555
H33 N17 1.033452 1_555
H34 N16 1.014222 1_555
H35 N17 1.014222 1_555
H36 O0 0.981521 1_555
H37 O1 0.981521 1_555
H38 O0 0.981611 1_545
H39 O1 0.981611 1_565
C0 N4 1.336577 1_555
C0 N2 1.337561 1_565
C0 N0 1.344408 1_555
C1 N5 1.336577 1_555
C1 N3 1.337561 1_545
C1 N1 1.344408 1_555
C2 N8 1.332917 1_555
C2 N10 1.338771 1_555
C2 N6 1.342342 1_555
C3 N9 1.332917 1_555
C3 N11 1.338771 1_555
C3 N7 1.342342 1_555
C4 N12 1.334411 1_555
C4 N14 1.338476 1_555
C4 N16 1.342367 1_555
C5 N13 1.334411 1_555
C5 N15 1.338476 1_555
C5 N17 1.342367 1_555
Cl0 Rh0 2.379686 1_665
Cl1 Rh0 2.379686 1_556
Cl2 Rh0 2.374357 1_665
Cl3 Rh0 2.374357 1_556
Cl4 Rh0 2.380715 1_655
Cl5 Rh0 2.380715 1_566
Cl6 Rh1 2.377053 1_555
Cl7 Rh1 2.377053 1_555
Cl8 Rh1 2.385541 1_555
Cl9 Rh1 2.385541 1_555
Cl10 Rh1 2.384058 1_555
Cl11 Rh1 2.384058 1_555
