# generated using pymatgen
data_MgAl4(HO)12
_symmetry_space_group_name_H-M   'P 1'
_cell_length_a   7.52915671
_cell_length_b   7.57894108
_cell_length_c   8.01924654
_cell_angle_alpha   109.64759153
_cell_angle_beta   140.84100572
_cell_angle_gamma   88.15402703
_symmetry_Int_Tables_number   1
_chemical_formula_structural   MgAl4(HO)12
_chemical_formula_sum   'Mg1 Al4 H12 O12'
_cell_volume   251.25080587
_cell_formula_units_Z   1
loop_
 _symmetry_equiv_pos_site_id
 _symmetry_equiv_pos_as_xyz
  1  'x, y, z'
loop_
 _atom_site_type_symbol
 _atom_site_label
 _atom_site_symmetry_multiplicity
 _atom_site_fract_x
 _atom_site_fract_y
 _atom_site_fract_z
 _atom_site_occupancy
  Mg  Mg0  1  0.98427048  0.34943153  0.80644467  1
  Al  Al0  1  0.51011724  0.82628596  0.33040933  1
  Al  Al1  1  0.47837788  0.15655259  0.64161472  1
  Al  Al2  1  0.99318793  0.67012042  0.64067800  1
  Al  Al3  1  0.99051937  0.32677847  0.30924067  1
  H  H0  1  0.09907694  0.05471897  0.82584487  1
  H  H1  1  0.93786828  0.97538959  0.27270553  1
  H  H2  1  0.53221421  0.51120950  0.84448232  1
  H  H3  1  0.45112354  0.43395036  0.22467364  1
  H  H4  1  0.13599763  0.68991886  0.44214203  1
  H  H5  1  0.70628138  0.30247423  0.34130408  1
  H  H6  1  0.41260679  0.15382682  0.26504402  1
  H  H7  1  0.62419126  0.87789833  0.73523584  1
  H  H8  1  0.50632546  0.91302199  0.05182424  1
  H  H9  1  0.41820232  0.20767617  0.92844718  1
  H  H10  1  0.07696743  0.23422908  0.05901178  1
  H  H11  1  0.93344677  0.69951427  0.93381537  1
  O  O0  1  0.93470720  0.91037376  0.64571772  1
  O  O1  1  0.04331257  0.06613257  0.28807347  1
  O  O2  1  0.42611426  0.40818772  0.65134975  1
  O  O3  1  0.57567765  0.58755514  0.34222959  1
  O  O4  1  0.00705687  0.59675963  0.40210354  1
  O  O5  1  0.93569528  0.37204740  0.52229090  1
  O  O6  1  0.53533588  0.11548034  0.43246157  1
  O  O7  1  0.46770252  0.88607227  0.54929057  1
  O  O8  1  0.42409629  0.78969377  0.01967757  1
  O  O9  1  0.55705920  0.18725132  0.93719106  1
  O  O10  1  0.93229425  0.29560045  0.02117523  1
  O  O11  1  0.06385713  0.66103550  0.94234374  1
loop_
_geom_bond_atom_site_label_1
_geom_bond_atom_site_label_2
_geom_bond_distance
_geom_bond_site_symmetry_2
Mg0 O5 2.078895 1_555
Mg0 O11 2.114648 1_655
Mg0 O6 2.157063 1_555
Mg0 O10 2.193754 1_556
Al0 O3 1.873909 1_555
Al0 O0 1.879201 1_555
Al0 O7 1.927008 1_555
Al0 O8 1.936412 1_555
Al0 O11 1.994287 1_554
Al0 O6 2.022213 1_565
Al1 O9 1.866503 1_555
Al1 O7 1.911709 1_545
Al1 O1 1.916654 1_555
Al1 O2 1.922822 1_555
Al1 O6 1.962075 1_555
Al1 O10 1.999541 1_556
Al2 O0 1.854054 1_555
Al2 O3 1.858364 1_555
Al2 O4 1.889729 1_655
Al2 O8 1.905258 1_656
Al2 O5 2.043420 1_555
Al2 O11 2.062417 1_655
Al3 O4 1.898636 1_655
Al3 O10 1.911424 1_555
Al3 O9 1.916070 1_554
Al3 O2 1.924076 1_655
Al3 O5 1.974195 1_555
Al3 O1 1.979306 1_655
H0 O0 1.033053 1_445
H1 O1 0.972063 1_665
H2 O2 0.977138 1_555
H3 O3 1.041512 1_555
H3 Mg0 2.105302 1_454
H4 O4 0.975908 1_555
H5 O5 1.012099 1_555
H6 O6 1.030526 1_555
H7 O7 0.973849 1_555
H8 O8 0.975272 1_555
H9 O9 1.002539 1_555
H10 O10 1.022072 1_455
H10 Mg0 2.075915 1_454
H11 O11 0.971925 1_655
