# generated using pymatgen
data_TmCoSi2
_symmetry_space_group_name_H-M   'P 1'
_cell_length_a   3.95369600
_cell_length_b   3.95951200
_cell_length_c   8.33661851
_cell_angle_alpha   76.26231545
_cell_angle_beta   90.00000000
_cell_angle_gamma   90.00000000
_symmetry_Int_Tables_number   1
_chemical_formula_structural   TmCoSi2
_chemical_formula_sum   'Tm2 Co2 Si4'
_cell_volume   126.77391304
_cell_formula_units_Z   2
loop_
 _symmetry_equiv_pos_site_id
 _symmetry_equiv_pos_as_xyz
  1  'x, y, z'
loop_
 _atom_site_type_symbol
 _atom_site_label
 _atom_site_symmetry_multiplicity
 _atom_site_fract_x
 _atom_site_fract_y
 _atom_site_fract_z
 _atom_site_occupancy
  Tm  Tm0  1  0.25000000  0.60691300  0.78617400  1
  Tm  Tm1  1  0.75000000  0.39308700  0.21382600  1
  Co  Co0  1  0.25000000  0.82198500  0.35603000  1
  Co  Co1  1  0.75000000  0.17801500  0.64397000  1
  Si  Si0  1  0.25000000  0.95823000  0.08354000  1
  Si  Si1  1  0.75000000  0.04177000  0.91646000  1
  Si  Si2  1  0.25000000  0.24968000  0.50064000  1
  Si  Si3  1  0.75000000  0.75032000  0.49936000  1
loop_
_geom_bond_atom_site_label_1
_geom_bond_atom_site_label_2
_geom_bond_distance
_geom_bond_site_symmetry_2
Co0 Si0 2.206661 1_555
Co0 Si3 2.292415 1_555
Co0 Si3 2.292415 1_455
Co0 Si2 2.300183 1_555
Co0 Si2 2.300183 1_565
Co0 Tm1 3.025478 1_565
Co0 Tm1 3.025478 1_465
Co0 Tm1 3.025478 1_455
Co0 Tm1 3.025478 1_555
Co1 Si1 2.206661 1_555
Co1 Si2 2.292415 1_555
Co1 Si2 2.292415 1_655
Co1 Si3 2.300183 1_545
Co1 Si3 2.300183 1_555
Co1 Tm0 3.025478 1_655
Co1 Tm0 3.025478 1_555
Co1 Tm0 3.025478 1_545
Co1 Tm0 3.025478 1_645
Si0 Si1 2.395545 1_564
Si0 Si1 2.395545 1_464
Si0 Tm1 2.990074 1_565
Si0 Tm1 2.990074 1_465
Si0 Tm1 2.990074 1_455
Si0 Tm1 2.990074 1_555
Si0 Tm0 3.117439 1_564
Si0 Tm0 3.117439 1_554
Si1 Tm0 2.990074 1_555
Si1 Tm0 2.990074 1_655
Si1 Tm0 2.990074 1_645
Si1 Tm0 2.990074 1_545
Si1 Tm1 3.117439 1_556
Si1 Tm1 3.117439 1_546
Si2 Tm0 3.044032 1_555
Si2 Tm0 3.044032 1_545
Si2 Tm1 3.050028 1_455
Si2 Tm1 3.050028 1_555
Si3 Tm1 3.044032 1_565
Si3 Tm1 3.044032 1_555
Si3 Tm0 3.050028 1_555
Si3 Tm0 3.050028 1_655
