# generated using pymatgen
data_Y2CoTe2(SO7)2
_symmetry_space_group_name_H-M   'P 1'
_cell_length_a   8.17951263
_cell_length_b   14.83744211
_cell_length_c   10.63842005
_cell_angle_alpha   106.08570909
_cell_angle_beta   106.94901850
_cell_angle_gamma   88.91786049
_symmetry_Int_Tables_number   1
_chemical_formula_structural   Y2CoTe2(SO7)2
_chemical_formula_sum   'Y8 Co4 Te8 S8 O56'
_cell_volume   1183.98430916
_cell_formula_units_Z   4
loop_
 _symmetry_equiv_pos_site_id
 _symmetry_equiv_pos_as_xyz
  1  'x, y, z'
loop_
 _atom_site_type_symbol
 _atom_site_label
 _atom_site_symmetry_multiplicity
 _atom_site_fract_x
 _atom_site_fract_y
 _atom_site_fract_z
 _atom_site_occupancy
  Y  Y0  1  0.10667600  0.12385600  0.35262800  1
  Y  Y1  1  0.60661400  0.62380900  0.60263800  1
  Y  Y2  1  0.10666200  0.12391600  0.85264500  1
  Y  Y3  1  0.60674700  0.62390400  0.10261000  1
  Y  Y4  1  0.39332000  0.37607500  0.39737700  1
  Y  Y5  1  0.89338500  0.87617400  0.64736500  1
  Y  Y6  1  0.39334400  0.37615600  0.89735100  1
  Y  Y7  1  0.89325500  0.87610900  0.14738800  1
  Co  Co0  1  0.75001200  0.24999800  0.37499100  1
  Co  Co1  1  0.24999900  0.75000000  0.12500200  1
  Co  Co2  1  0.25000200  0.75000100  0.62500000  1
  Co  Co3  1  0.74998700  0.25000200  0.87500700  1
  Te  Te0  1  0.77487200  0.11454600  0.06550000  1
  Te  Te1  1  0.27503800  0.61446300  0.31548400  1
  Te  Te2  1  0.77489400  0.11456000  0.56552800  1
  Te  Te3  1  0.27489200  0.61457200  0.81552100  1
  Te  Te4  1  0.72515700  0.38542600  0.68450100  1
  Te  Te5  1  0.22496700  0.88553500  0.93452300  1
  Te  Te6  1  0.72507600  0.38546500  0.18446400  1
  Te  Te7  1  0.22510100  0.88543300  0.43448000  1
  S  S0  1  0.37580600  0.12780600  0.19563400  1
  S  S1  1  0.87604800  0.62791300  0.44573700  1
  S  S2  1  0.37587900  0.12786100  0.69568800  1
  S  S3  1  0.87578900  0.62780300  0.94563300  1
  S  S4  1  0.12417600  0.37217700  0.55433800  1
  S  S5  1  0.62394100  0.87208300  0.80425800  1
  S  S6  1  0.12413900  0.37215800  0.05434100  1
  S  S7  1  0.62422800  0.87219900  0.30437300  1
  O  O0  1  0.92582900  0.03081700  0.14151500  1
  O  O1  1  0.42602900  0.53078400  0.39146900  1
  O  O2  1  0.92586300  0.03089600  0.64157500  1
  O  O3  1  0.42582600  0.53085000  0.89160400  1
  O  O4  1  0.57416300  0.46911300  0.60841300  1
  O  O5  1  0.07397900  0.96920400  0.85852200  1
  O  O6  1  0.57414200  0.46917200  0.10849400  1
  O  O7  1  0.07416900  0.96916600  0.35841200  1
  O  O8  1  0.88091500  0.21232700  0.23074100  1
  O  O9  1  0.38087300  0.71231200  0.48060700  1
  O  O10  1  0.88083200  0.21239500  0.73068600  1
  O  O11  1  0.38097700  0.71233800  0.98079300  1
  O  O12  1  0.61911900  0.28763100  0.51926600  1
  O  O13  1  0.11913600  0.78768200  0.76940500  1
  O  O14  1  0.61912400  0.28764900  0.01929700  1
  O  O15  1  0.11902500  0.78766600  0.26920500  1
  O  O16  1  0.32818600  0.11560100  0.54594500  1
  O  O17  1  0.82810600  0.61558100  0.79589800  1
  O  O18  1  0.32813300  0.11559300  0.04589300  1
  O  O19  1  0.82837900  0.61563200  0.29599200  1
  O  O20  1  0.17181700  0.38439900  0.20408500  1
  O  O21  1  0.67189800  0.88442100  0.45411300  1
  O  O22  1  0.17186800  0.38440800  0.70407400  1
  O  O23  1  0.67161200  0.88436500  0.95399600  1
  O  O24  1  0.56510700  0.13697400  0.25082900  1
  O  O25  1  0.06544300  0.63710000  0.50091600  1
  O  O26  1  0.56519100  0.13702500  0.75086100  1
  O  O27  1  0.06505100  0.63696700  0.00083400  1
  O  O28  1  0.93488200  0.36301300  0.49916800  1
  O  O29  1  0.43455700  0.86289500  0.74907900  1
  O  O30  1  0.93481900  0.36299000  0.99914400  1
  O  O31  1  0.43495000  0.86303500  0.24916800  1
  O  O32  1  0.90324000  0.15398500  0.46452000  1
  O  O33  1  0.40325800  0.65375800  0.71440800  1
  O  O34  1  0.90320800  0.15392600  0.96448200  1
  O  O35  1  0.40328000  0.65400200  0.21450600  1
  O  O36  1  0.59676600  0.34601300  0.28548500  1
  O  O37  1  0.09674100  0.84624200  0.53559600  1
  O  O38  1  0.59678900  0.34607700  0.78551100  1
  O  O39  1  0.09671300  0.84599500  0.03549200  1
  O  O40  1  0.30139000  0.04764700  0.22394000  1
  O  O41  1  0.80177600  0.54773000  0.47411600  1
  O  O42  1  0.30148400  0.04770000  0.72404700  1
  O  O43  1  0.80133500  0.54765600  0.97395500  1
  O  O44  1  0.19859600  0.45231600  0.52598300  1
  O  O45  1  0.69822100  0.95226400  0.77586700  1
  O  O46  1  0.19853200  0.45233900  0.02603300  1
  O  O47  1  0.69866700  0.95234900  0.27605900  1
  O  O48  1  0.29834800  0.21277000  0.26692000  1
  O  O49  1  0.79856900  0.71284400  0.51698100  1
  O  O50  1  0.29839600  0.21281800  0.76693800  1
  O  O51  1  0.79830500  0.71278100  0.01690700  1
  O  O52  1  0.20162900  0.28719300  0.48306600  1
  O  O53  1  0.70143900  0.78714700  0.73301900  1
  O  O54  1  0.20161900  0.28722000  0.98307000  1
  O  O55  1  0.70169400  0.78722900  0.23309800  1
loop_
_geom_bond_atom_site_label_1
_geom_bond_atom_site_label_2
_geom_bond_distance
_geom_bond_site_symmetry_2
Co0 O8 2.067346 1_555
Co0 O12 2.067473 1_555
Co0 O36 2.120330 1_555
Co0 O32 2.120354 1_555
Co0 O28 2.132397 1_555
Co0 O24 2.132606 1_555
Co1 O15 2.067356 1_555
Co1 O11 2.067429 1_554
Co1 O35 2.120250 1_555
Co1 O39 2.120263 1_555
Co1 O27 2.132893 1_555
Co1 O31 2.132921 1_555
Co2 O9 2.068415 1_555
Co2 O13 2.068483 1_555
Co2 O37 2.122517 1_555
Co2 O33 2.122542 1_555
Co2 O29 2.129667 1_555
Co2 O25 2.129760 1_555
Co3 O14 2.067436 1_556
Co3 O10 2.067566 1_555
Co3 O34 2.120797 1_555
Co3 O38 2.120804 1_555
Co3 O26 2.131650 1_555
Co3 O30 2.131894 1_555
O0 Te0 1.907499 1_555
O0 Y7 2.335886 1_545
O0 Y0 2.357960 1_655
O1 Te1 1.906948 1_555
O1 Y4 2.336180 1_555
O1 Y1 2.357481 1_555
O2 Te2 1.906962 1_555
O2 Y5 2.335689 1_545
O2 Y2 2.357447 1_655
O3 Te3 1.907626 1_555
O3 Y6 2.335129 1_555
O3 Y3 2.357562 1_556
O4 Te4 1.907506 1_555
O4 Y1 2.335222 1_555
O4 Y4 2.357446 1_555
O5 Te5 1.906894 1_555
O5 Y2 2.336085 1_565
O5 Y5 2.357455 1_455
O6 Te6 1.906957 1_555
O6 Y3 2.336314 1_555
O6 Y6 2.357896 1_554
O7 Te7 1.907674 1_555
O7 Y0 2.335230 1_565
O7 Y7 2.357672 1_455
O8 Te0 1.921633 1_555
O8 Y0 2.504020 1_655
O9 Te1 1.921090 1_555
O9 Y1 2.504923 1_555
O10 Te2 1.921365 1_555
O10 Y2 2.504766 1_655
O11 Te3 1.921777 1_555
O11 Y3 2.503370 1_556
O12 Te4 1.921694 1_555
O12 Y4 2.503947 1_555
O13 Te5 1.921083 1_555
O13 Y5 2.504907 1_455
O14 Te6 1.921298 1_555
O14 Y6 2.504740 1_554
O15 Te7 1.921788 1_555
O15 Y7 2.503457 1_455
O16 S2 1.484177 1_555
O16 Y0 2.342221 1_555
O17 S3 1.484194 1_555
O17 Y1 2.341628 1_555
O18 S0 1.484282 1_555
O18 Y2 2.341851 1_554
O19 S1 1.484154 1_555
O19 Y3 2.343269 1_555
O20 S6 1.484241 1_555
O20 Y4 2.342302 1_555
O21 S7 1.484251 1_555
O21 Y5 2.341630 1_555
O22 S4 1.484178 1_555
O22 Y6 2.341781 1_555
O23 S5 1.484079 1_555
O23 Y7 2.343320 1_556
O24 S0 1.481350 1_555
O25 S1 1.482056 1_455
O26 S2 1.481419 1_555
O27 S3 1.481057 1_454
O28 S4 1.481279 1_655
O29 S5 1.481972 1_555
O30 S6 1.481497 1_656
O31 S7 1.481182 1_555
O32 Te2 1.904789 1_555
O32 Y0 2.284205 1_655
O33 Te3 1.904134 1_555
O33 Y1 2.282650 1_555
O34 Te0 1.904500 1_556
O34 Y2 2.283871 1_655
O35 Te1 1.904719 1_555
O35 Y3 2.284439 1_555
O36 Te6 1.904878 1_555
O36 Y4 2.284239 1_555
O37 Te7 1.904160 1_555
O37 Y5 2.282634 1_455
O38 Te4 1.904402 1_555
O38 Y6 2.283866 1_555
O39 Te5 1.904719 1_554
O39 Y7 2.284383 1_455
O40 S0 1.486077 1_555
O40 Y0 2.456592 1_555
O41 S1 1.486238 1_555
O41 Y1 2.457874 1_555
O42 S2 1.486327 1_555
O42 Y2 2.456738 1_555
O43 S3 1.486167 1_555
O43 Y3 2.455718 1_556
O44 S4 1.486120 1_555
O44 Y4 2.456257 1_555
O45 S5 1.486314 1_555
O45 Y5 2.457804 1_555
O46 S6 1.486280 1_555
O46 Y6 2.457082 1_554
O47 S7 1.486099 1_555
O47 Y7 2.455788 1_555
O48 S0 1.511936 1_555
O48 Y4 2.445337 1_555
O48 Y0 2.570588 1_555
O49 S1 1.511519 1_555
O49 Y5 2.445275 1_555
O49 Y1 2.573015 1_555
O50 S2 1.511827 1_555
O50 Y6 2.445621 1_555
O50 Y2 2.570837 1_555
O51 S3 1.512146 1_554
O51 Y7 2.445644 1_555
O51 Y3 2.569536 1_555
O52 S4 1.512059 1_555
O52 Y0 2.445668 1_555
O52 Y4 2.570268 1_555
O53 S5 1.511635 1_555
O53 Y1 2.445381 1_555
O53 Y5 2.572866 1_555
O54 S6 1.511708 1_556
O54 Y2 2.445235 1_555
O54 Y6 2.571184 1_555
O55 S7 1.511988 1_555
O55 Y3 2.445617 1_555
O55 Y7 2.569632 1_555
