# generated using pymatgen
data_Ba6Yb6Al13Si11N29O13
_symmetry_space_group_name_H-M   'P 1'
_cell_length_a   6.32475930
_cell_length_b   6.22061137
_cell_length_c   30.87714510
_cell_angle_alpha   89.94919936
_cell_angle_beta   89.91072760
_cell_angle_gamma   120.08046937
_symmetry_Int_Tables_number   1
_chemical_formula_structural   Ba6Yb6Al13Si11N29O13
_chemical_formula_sum   'Ba6 Yb6 Al13 Si11 N29 O13'
_cell_volume   1051.21314775
_cell_formula_units_Z   1
loop_
 _symmetry_equiv_pos_site_id
 _symmetry_equiv_pos_as_xyz
  1  'x, y, z'
loop_
 _atom_site_type_symbol
 _atom_site_label
 _atom_site_symmetry_multiplicity
 _atom_site_fract_x
 _atom_site_fract_y
 _atom_site_fract_z
 _atom_site_occupancy
  Ba  Ba0  1  0.34480100  0.64573000  0.03954700  1
  Ba  Ba1  1  0.31845000  0.65790100  0.71321200  1
  Ba  Ba2  1  0.32916800  0.65031000  0.39315400  1
  Ba  Ba3  1  0.66336300  0.35039400  0.54791700  1
  Ba  Ba4  1  0.67350100  0.37292200  0.87800600  1
  Ba  Ba5  1  0.69316800  0.32378300  0.21735300  1
  Yb  Yb0  1  0.38641500  0.63623500  0.27242800  1
  Yb  Yb1  1  0.39298400  0.76022600  0.92419700  1
  Yb  Yb2  1  0.33952500  0.67806200  0.60136800  1
  Yb  Yb3  1  0.68691100  0.32542200  0.10542400  1
  Yb  Yb4  1  0.66264800  0.32975100  0.43939300  1
  Yb  Yb5  1  0.66317700  0.33794000  0.76763600  1
  Al  Al0  1  0.13884100  0.81418800  0.80995200  1
  Al  Al1  1  0.13211900  0.79998700  0.48479200  1
  Al  Al2  1  0.00404000  0.99424600  0.06765400  1
  Al  Al3  1  0.18539900  0.32543700  0.48164700  1
  Al  Al4  1  0.32273400  0.20350700  0.64483000  1
  Al  Al5  1  0.33432800  0.16883800  0.31654200  1
  Al  Al6  1  0.33913400  0.18393100  0.97580900  1
  Al  Al7  1  0.84938600  0.66768100  0.31732600  1
  Al  Al8  1  0.85662500  0.68142300  0.64514800  1
  Al  Al9  1  0.85454900  0.68586400  0.97499500  1
  Al  Al10  1  0.82497700  0.13401400  0.31470500  1
  Al  Al11  1  0.79570100  0.13524900  0.64504400  1
  Al  Al12  1  0.82997200  0.16042200  0.97836400  1
  Si  Si0  1  0.16168900  0.79722700  0.14707100  1
  Si  Si1  1  0.03683700  0.02140400  0.23125100  1
  Si  Si2  1  0.98685800  0.98341600  0.40285900  1
  Si  Si3  1  0.97861900  0.99744500  0.56480100  1
  Si  Si4  1  0.97686000  0.99713500  0.73245300  1
  Si  Si5  1  0.99063100  0.01286200  0.89290200  1
  Si  Si6  1  0.18575500  0.34823000  0.80904200  1
  Si  Si7  1  0.21969600  0.33854100  0.14731100  1
  Si  Si8  1  0.63839100  0.87317000  0.80671100  1
  Si  Si9  1  0.65705900  0.86834700  0.47792900  1
  Si  Si10  1  0.63087900  0.83507500  0.14128200  1
  N  N0  1  0.04804500  0.01025300  0.17348300  1
  N  N1  1  0.25279200  0.05665000  0.91912100  1
  N  N2  1  0.28536600  0.21913100  0.25900200  1
  N  N3  1  0.23623600  0.24527300  0.58667700  1
  N  N4  1  0.53072700  0.53382700  0.65432800  1
  N  N5  1  0.51937900  0.52294100  0.97126000  1
  N  N6  1  0.52984600  0.53554000  0.15756700  1
  N  N7  1  0.49962400  0.55295200  0.81604200  1
  N  N8  1  0.51668800  0.55267000  0.48166100  1
  N  N9  1  0.74636000  0.99229000  0.42329400  1
  N  N10  1  0.72873900  0.96061800  0.09212400  1
  N  N11  1  0.72816900  0.98705100  0.75429500  1
  N  N12  1  0.46484200  0.97040500  0.15849700  1
  N  N13  1  0.46452000  0.98488600  0.48902500  1
  N  N14  1  0.46511600  0.99917400  0.82166500  1
  N  N15  1  0.02373300  0.77623900  0.91900900  1
  N  N16  1  0.82192000  0.75294100  0.25907600  1
  N  N17  1  0.00981700  0.76313800  0.58846200  1
  N  N18  1  0.04685400  0.47942300  0.15710000  1
  N  N19  1  0.00860700  0.47524100  0.81502600  1
  N  N20  1  0.99718100  0.46671600  0.48684100  1
  N  N21  1  0.80767200  0.08675100  0.91982000  1
  N  N22  1  0.77127100  0.98368000  0.25755900  1
  N  N23  1  0.74584200  0.01722000  0.58809800  1
  N  N24  1  0.99211900  0.01618900  0.83478300  1
  N  N25  1  0.01667200  0.01429700  0.00647400  1
  N  N26  1  0.00647700  0.99683900  0.34351500  1
  N  N27  1  0.97235100  0.98531700  0.50540400  1
  N  N28  1  0.00210000  0.01574600  0.67561400  1
  O  O0  1  0.05534700  0.76539800  0.09572200  1
  O  O1  1  0.98938800  0.73089800  0.41756500  1
  O  O2  1  0.00734900  0.76786900  0.75330600  1
  O  O3  1  0.98269500  0.47075700  0.31227000  1
  O  O4  1  0.96261800  0.46227900  0.65567300  1
  O  O5  1  0.95335300  0.47667300  0.99458300  1
  O  O6  1  0.24901200  0.26145500  0.09569000  1
  O  O7  1  0.24144300  0.21731400  0.42256300  1
  O  O8  1  0.22057500  0.24277100  0.75774500  1
  O  O9  1  0.50267900  0.01009200  0.32452400  1
  O  O10  1  0.47251500  0.02473800  0.65518800  1
  O  O11  1  0.50651400  0.02798500  0.99043700  1
  O  O12  1  0.53225900  0.49205600  0.33105200  1
loop_
_geom_bond_atom_site_label_1
_geom_bond_atom_site_label_2
_geom_bond_distance
_geom_bond_site_symmetry_2
Ba0 O11 2.559398 1_564
Ba0 O5 2.562509 1_454
Ba0 N5 2.662601 1_554
Ba0 N10 2.760235 1_555
Ba0 O6 2.761152 1_555
Ba0 O0 2.876246 1_555
Ba1 N4 2.595701 1_555
Ba1 O4 2.640684 1_455
Ba1 O10 2.669270 1_565
Ba1 N11 2.685659 1_555
Ba1 O2 2.686140 1_555
Ba1 O8 2.707611 1_555
Ba2 O1 2.552120 1_455
Ba2 N9 2.595820 1_555
Ba2 O7 2.623618 1_555
Ba2 O12 2.749409 1_555
Ba2 O9 2.868120 1_565
Ba2 O3 3.139328 1_455
Ba3 N20 2.644128 1_555
Ba3 N23 2.681063 1_555
Ba3 N13 2.684392 1_545
Ba3 N17 2.708411 1_655
Ba3 N3 2.715806 1_555
Ba3 N8 2.792960 1_555
Ba4 N21 2.658885 1_555
Ba4 N14 2.666729 1_545
Ba4 N15 2.692126 1_655
Ba4 N1 2.701838 1_555
Ba4 N19 2.703988 1_655
Ba4 N7 2.713212 1_555
Ba5 N2 2.652383 1_555
Ba5 N12 2.655808 1_545
Ba5 N18 2.686161 1_655
Ba5 N16 2.698119 1_555
Ba5 N22 2.702974 1_545
Ba5 N6 2.752385 1_555
Al0 N14 1.826499 1_555
Al0 N19 1.845718 1_555
Al0 O2 1.897135 1_555
Al0 N24 2.048502 1_465
Al1 N20 1.804521 1_455
Al1 N13 1.826761 1_555
Al1 N27 1.980492 1_455
Al1 O1 2.219685 1_455
Al2 N10 1.810236 1_455
Al2 O6 1.827015 1_565
Al2 O0 1.828862 1_555
Al2 N25 1.891990 1_565
Al3 N20 1.806548 1_455
Al3 N8 1.849174 1_555
Al3 N27 1.991610 1_445
Al3 O7 2.036028 1_555
Al4 O10 1.814590 1_555
Al4 N4 1.825196 1_555
Al4 N3 1.932793 1_555
Al4 N28 1.999466 1_555
Al5 O9 1.795567 1_555
Al5 O12 1.814020 1_555
Al5 N2 1.856928 1_555
Al5 N26 1.976658 1_545
Al6 O11 1.815475 1_555
Al6 N5 1.831835 1_555
Al6 N1 1.887032 1_555
Al6 N25 2.001102 1_556
Al7 O12 1.787774 1_555
Al7 O3 1.808632 1_555
Al7 N16 1.907367 1_555
Al7 N26 1.949281 1_655
Al8 N4 1.809034 1_555
Al8 O4 1.824650 1_555
Al8 N17 1.939109 1_655
Al8 N28 2.035834 1_665
Al9 O5 1.806834 1_555
Al9 N5 1.838910 1_555
Al9 N15 1.959311 1_655
Al9 N25 2.019121 1_666
Al10 O9 1.806633 1_555
Al10 O3 1.814805 1_555
Al10 N22 1.946732 1_545
Al10 N26 1.954744 1_645
Al11 O4 1.791676 1_555
Al11 O10 1.827003 1_555
Al11 N23 1.871405 1_555
Al11 N28 2.030543 1_655
Al12 O5 1.787171 1_555
Al12 O11 1.819485 1_555
Al12 N21 1.853391 1_555
Al12 N25 2.012893 1_656
N0 Si1 1.787796 1_555
N0 Si7 1.942668 1_555
N0 Si0 1.972975 1_545
N1 N15 1.615038 1_545
N1 Si5 1.740901 1_455
N1 Yb1 2.418627 1_545
N2 Si1 1.669097 1_555
N2 Yb0 2.377588 1_555
N3 Si3 1.724824 1_445
N3 Yb2 2.473984 1_555
N4 Yb2 2.456160 1_555
N5 Yb1 2.472285 1_555
N6 Si10 1.713712 1_555
N6 Si7 1.744388 1_555
N6 Yb3 2.566667 1_555
N7 Si8 1.751244 1_555
N7 Si6 1.754114 1_555
N7 Yb5 2.545304 1_555
N8 Si9 1.705656 1_555
N8 Yb4 2.400246 1_555
N9 Si2 1.672166 1_555
N9 Si9 1.821408 1_555
N9 Yb4 2.459533 1_565
N10 Si10 1.675501 1_555
N10 Yb3 2.447754 1_565
N11 Si4 1.682420 1_555
N11 Si8 1.742281 1_555
N11 Yb5 2.450207 1_565
N12 Si0 1.701036 1_555
N12 Si10 1.726061 1_555
N12 Yb3 2.532269 1_565
N13 Si9 1.734927 1_555
N13 Yb4 2.411307 1_565
N14 Si8 1.699643 1_555
N14 Yb5 2.476727 1_565
N15 Si5 1.779773 1_465
N15 Yb1 2.392514 1_555
N16 N22 1.620448 1_555
N16 Si1 1.758698 1_665
N16 Yb0 2.505088 1_555
N17 Si3 1.727412 1_455
N17 Yb2 2.428160 1_555
N18 Si7 1.736158 1_555
N18 Si0 1.757996 1_555
N18 Yb3 2.544448 1_455
N19 Si6 1.673531 1_555
N19 Yb5 2.405299 1_455
N20 Yb4 2.356666 1_555
N21 Si5 1.664924 1_555
N21 Yb1 2.383511 1_545
N22 Si1 1.770993 1_665
N22 Yb0 2.351188 1_555
N23 Si3 1.696625 1_545
N23 Yb2 2.404865 1_545
N24 Si5 1.794605 1_555
N24 Si6 1.963716 1_655
N24 Si8 2.135475 1_545
N26 Si2 1.835373 1_455
N27 Si3 1.835301 1_555
N27 Si9 1.943605 1_555
N28 Si4 1.760467 1_445
O0 Si0 1.695820 1_555
O0 Yb3 2.571717 1_455
O1 Si2 1.642517 1_555
O1 Yb4 2.403148 1_555
O2 Si4 1.661381 1_455
O2 Yb5 2.499168 1_455
O3 Yb0 2.538931 1_655
O4 Yb2 2.659329 1_655
O6 Si7 1.701302 1_555
O6 Yb3 2.611024 1_555
O7 Si2 1.654078 1_445
O7 Yb4 2.448140 1_555
O8 Si4 1.722069 1_445
O8 Si6 1.770084 1_555
O8 Yb5 2.573291 1_555
O9 Yb0 2.613959 1_545
O10 Yb2 2.512395 1_545
O11 Yb1 2.506964 1_545
O12 Yb0 2.400735 1_555
