# generated using pymatgen
data_CaMnSiO4
_symmetry_space_group_name_H-M   'P 1'
_cell_length_a   4.99549700
_cell_length_b   6.59519900
_cell_length_c   11.24809300
_cell_angle_alpha   90.00000000
_cell_angle_beta   90.00000000
_cell_angle_gamma   90.00000000
_symmetry_Int_Tables_number   1
_chemical_formula_structural   CaMnSiO4
_chemical_formula_sum   'Ca4 Mn4 Si4 O16'
_cell_volume   370.58301062
_cell_formula_units_Z   4
loop_
 _symmetry_equiv_pos_site_id
 _symmetry_equiv_pos_as_xyz
  1  'x, y, z'
loop_
 _atom_site_type_symbol
 _atom_site_label
 _atom_site_symmetry_multiplicity
 _atom_site_fract_x
 _atom_site_fract_y
 _atom_site_fract_z
 _atom_site_occupancy
  Ca  Ca0  1  0.02240600  0.75000000  0.72307700  1
  Ca  Ca1  1  0.97759400  0.25000000  0.27692300  1
  Ca  Ca2  1  0.52240600  0.25000000  0.77692300  1
  Ca  Ca3  1  0.47759400  0.75000000  0.22307700  1
  Mn  Mn0  1  0.50000000  0.50000000  0.50000000  1
  Mn  Mn1  1  0.00000000  0.50000000  0.00000000  1
  Mn  Mn2  1  0.50000000  0.00000000  0.50000000  1
  Mn  Mn3  1  0.00000000  0.00000000  0.00000000  1
  Si  Si0  1  0.58522400  0.75000000  0.91465500  1
  Si  Si1  1  0.41477600  0.25000000  0.08534500  1
  Si  Si2  1  0.08522400  0.25000000  0.58534500  1
  Si  Si3  1  0.91477600  0.75000000  0.41465500  1
  O  O0  1  0.71932000  0.54972000  0.84773600  1
  O  O1  1  0.28068000  0.45028000  0.15226400  1
  O  O2  1  0.21932000  0.45028000  0.65226400  1
  O  O3  1  0.28068000  0.04972000  0.15226400  1
  O  O4  1  0.78068000  0.54972000  0.34773600  1
  O  O5  1  0.71932000  0.95028000  0.84773600  1
  O  O6  1  0.78068000  0.95028000  0.34773600  1
  O  O7  1  0.21932000  0.04972000  0.65226400  1
  O  O8  1  0.76986400  0.75000000  0.54987500  1
  O  O9  1  0.23013600  0.25000000  0.45012500  1
  O  O10  1  0.26986400  0.25000000  0.95012500  1
  O  O11  1  0.73013600  0.75000000  0.04987500  1
  O  O12  1  0.25834000  0.75000000  0.91781900  1
  O  O13  1  0.74166000  0.25000000  0.08218100  1
  O  O14  1  0.75834000  0.25000000  0.58218100  1
  O  O15  1  0.24166000  0.75000000  0.41781900  1
loop_
_geom_bond_atom_site_label_1
_geom_bond_atom_site_label_2
_geom_bond_distance
_geom_bond_site_symmetry_2
Ca0 O8 2.320995 1_455
Ca0 O7 2.347223 1_565
Ca0 O2 2.347223 1_555
Ca0 O0 2.450149 1_455
Ca0 O5 2.450149 1_455
Ca0 O12 2.487429 1_555
Ca1 O9 2.320995 1_655
Ca1 O6 2.347223 1_545
Ca1 O4 2.347223 1_555
Ca1 O3 2.450149 1_655
Ca1 O1 2.450149 1_655
Ca1 O13 2.487429 1_555
Ca2 O10 2.320995 1_555
Ca2 O5 2.347223 1_545
Ca2 O0 2.347223 1_555
Ca2 O7 2.450149 1_555
Ca2 O2 2.450149 1_555
Ca2 O14 2.487429 1_555
Ca3 O11 2.320995 1_555
Ca3 O3 2.347223 1_565
Ca3 O1 2.347223 1_555
Ca3 O4 2.450149 1_555
Ca3 O6 2.450149 1_555
Ca3 O15 2.487429 1_555
Mn0 O8 2.202418 1_555
Mn0 O9 2.202418 1_555
Mn0 O2 2.237584 1_555
Mn0 O4 2.237584 1_555
Mn0 O15 2.288778 1_555
Mn0 O14 2.288778 1_555
Mn1 O11 2.202418 1_455
Mn1 O10 2.202418 1_554
Mn1 O1 2.237584 1_555
Mn1 O0 2.237584 1_454
Mn1 O13 2.288778 1_455
Mn1 O12 2.288778 1_554
Mn2 O8 2.202418 1_545
Mn2 O9 2.202418 1_555
Mn2 O7 2.237584 1_555
Mn2 O6 2.237584 1_545
Mn2 O14 2.288778 1_555
Mn2 O15 2.288778 1_545
Mn3 O11 2.202418 1_445
Mn3 O10 2.202418 1_554
Mn3 O3 2.237584 1_555
Mn3 O5 2.237584 1_444
Mn3 O13 2.288778 1_455
Mn3 O12 2.288778 1_544
O0 Si0 1.661340 1_555
O1 Si1 1.661340 1_555
O2 Si2 1.661340 1_555
O3 Si1 1.661340 1_555
O4 Si3 1.661340 1_555
O5 Si0 1.661340 1_555
O6 Si3 1.661340 1_555
O7 Si2 1.661340 1_555
O8 Si3 1.684453 1_555
O9 Si2 1.684453 1_555
O10 Si1 1.684453 1_556
O11 Si0 1.684453 1_554
O12 Si0 1.633336 1_555
O13 Si1 1.633336 1_555
O14 Si2 1.633336 1_655
O15 Si3 1.633336 1_455
