# generated using pymatgen
data_Li4Mn3O7
_symmetry_space_group_name_H-M   'P 1'
_cell_length_a   5.09850600
_cell_length_b   5.83026905
_cell_length_c   9.28922853
_cell_angle_alpha   89.93663295
_cell_angle_beta   98.98770097
_cell_angle_gamma   107.19308195
_symmetry_Int_Tables_number   1
_chemical_formula_structural   Li4Mn3O7
_chemical_formula_sum   'Li8 Mn6 O14'
_cell_volume   260.25315423
_cell_formula_units_Z   2
loop_
 _symmetry_equiv_pos_site_id
 _symmetry_equiv_pos_as_xyz
  1  'x, y, z'
loop_
 _atom_site_type_symbol
 _atom_site_label
 _atom_site_symmetry_multiplicity
 _atom_site_fract_x
 _atom_site_fract_y
 _atom_site_fract_z
 _atom_site_occupancy
  Li  Li0  1  0.36126600  0.71254200  0.22011700  1
  Li  Li1  1  0.63873400  0.28745800  0.77988300  1
  Li  Li2  1  0.77488900  0.57145600  0.08668300  1
  Li  Li3  1  0.08428300  0.14370400  0.63121800  1
  Li  Li4  1  0.22511100  0.42854400  0.91331700  1
  Li  Li5  1  0.50000000  0.00000000  0.50000000  1
  Li  Li6  1  0.91571700  0.85629600  0.36878200  1
  Li  Li7  1  0.50000000  0.50000000  0.50000000  1
  Mn  Mn0  1  0.92537500  0.35552000  0.36724400  1
  Mn  Mn1  1  0.07462500  0.64448000  0.63275600  1
  Mn  Mn2  1  0.21818900  0.92798300  0.92590100  1
  Mn  Mn3  1  0.78181100  0.07201700  0.07409900  1
  Mn  Mn4  1  0.35061700  0.21438600  0.22687000  1
  Mn  Mn5  1  0.64938300  0.78561400  0.77313000  1
  O  O0  1  0.18441000  0.66062900  0.44147700  1
  O  O1  1  0.50459000  0.23174200  0.99599400  1
  O  O2  1  0.63927000  0.51027800  0.28497000  1
  O  O3  1  0.93524300  0.08568100  0.85690700  1
  O  O4  1  0.05267800  0.37759400  0.16760300  1
  O  O5  1  0.36550300  0.94498200  0.70521900  1
  O  O6  1  0.81055900  0.80739300  0.57355000  1
  O  O7  1  0.49541000  0.76825800  0.00400600  1
  O  O8  1  0.81559000  0.33937100  0.55852300  1
  O  O9  1  0.94732200  0.62240600  0.83239700  1
  O  O10  1  0.18944100  0.19260700  0.42645000  1
  O  O11  1  0.36073000  0.48972200  0.71503000  1
  O  O12  1  0.63449700  0.05501800  0.29478100  1
  O  O13  1  0.06475700  0.91431900  0.14309300  1
loop_
_geom_bond_atom_site_label_1
_geom_bond_atom_site_label_2
_geom_bond_distance
_geom_bond_site_symmetry_2
Li0 O12 2.113139 1_565
Li0 O4 2.114907 1_555
Li0 O2 2.117166 1_555
Li0 O13 2.211979 1_555
Li0 O7 2.213495 1_555
Li0 O0 2.355735 1_555
Li1 O5 2.113139 1_545
Li1 O9 2.114907 1_555
Li1 O11 2.117166 1_555
Li1 O3 2.211979 1_555
Li1 O1 2.213495 1_555
Li1 O8 2.355735 1_555
Li2 O2 2.061244 1_555
Li2 O4 2.111948 1_655
Li2 O13 2.113885 1_655
Li2 O1 2.135197 1_554
Li2 O7 2.135296 1_555
Li3 O10 2.052788 1_555
Li3 O6 2.056766 1_445
Li3 O8 2.065742 1_455
Li3 O5 2.131444 1_545
Li3 O11 2.154570 1_555
Li3 O3 2.330511 1_455
Li4 O11 2.061244 1_555
Li4 O9 2.111948 1_455
Li4 O3 2.113885 1_455
Li4 O7 2.135197 1_556
Li4 O1 2.135296 1_555
Li5 O5 2.117605 1_545
Li5 O12 2.117605 1_555
Li5 O8 2.155556 1_555
Li5 O0 2.155556 1_545
Li5 O6 2.224048 1_545
Li5 O10 2.224048 1_555
Li6 O6 2.052788 1_555
Li6 O10 2.056766 1_665
Li6 O0 2.065742 1_655
Li6 O12 2.131444 1_565
Li6 O2 2.154570 1_555
Li6 O13 2.330511 1_655
Li7 O6 2.042771 1_555
Li7 O10 2.042771 1_555
Li7 O8 2.092369 1_555
Li7 O0 2.092369 1_555
Li7 O2 2.217065 1_555
Li7 O11 2.217065 1_555
Mn0 O10 1.881696 1_655
Mn0 O0 1.927012 1_655
Mn0 O8 1.938694 1_555
Mn0 O12 1.968926 1_555
Mn0 O2 1.988538 1_555
Mn0 O4 2.050175 1_655
Mn1 O6 1.881696 1_455
Mn1 O8 1.927012 1_455
Mn1 O0 1.938694 1_555
Mn1 O5 1.968926 1_555
Mn1 O11 1.988538 1_555
Mn1 O9 2.050175 1_455
Mn2 O3 1.957329 1_465
Mn2 O7 1.961524 1_556
Mn2 O1 1.967046 1_565
Mn2 O9 2.002449 1_455
Mn2 O13 2.268197 1_556
Mn2 O5 2.283181 1_555
Mn3 O13 1.957329 1_645
Mn3 O1 1.961524 1_554
Mn3 O7 1.967046 1_545
Mn3 O4 2.002449 1_655
Mn3 O3 2.268197 1_554
Mn3 O12 2.283181 1_555
Mn4 O2 1.919947 1_555
Mn4 O12 1.965865 1_555
Mn4 O13 1.982852 1_545
Mn4 O4 2.026845 1_555
Mn4 O10 2.131271 1_555
Mn4 O1 2.388447 1_554
Mn5 O11 1.919947 1_555
Mn5 O5 1.965865 1_555
Mn5 O3 1.982852 1_565
Mn5 O9 2.026845 1_555
Mn5 O6 2.131271 1_555
Mn5 O7 2.388447 1_556
