# generated using pymatgen
data_ZrGa6Fe5Co
_symmetry_space_group_name_H-M   'P 1'
_cell_length_a   5.04268700
_cell_length_b   6.52265752
_cell_length_c   6.52265752
_cell_angle_alpha   100.51580261
_cell_angle_beta   112.74009266
_cell_angle_gamma   67.25990734
_symmetry_Int_Tables_number   1
_chemical_formula_structural   ZrGa6Fe5Co
_chemical_formula_sum   'Zr1 Ga6 Fe5 Co1'
_cell_volume   182.34610813
_cell_formula_units_Z   1
loop_
 _symmetry_equiv_pos_site_id
 _symmetry_equiv_pos_as_xyz
  1  'x, y, z'
loop_
 _atom_site_type_symbol
 _atom_site_label
 _atom_site_symmetry_multiplicity
 _atom_site_fract_x
 _atom_site_fract_y
 _atom_site_fract_z
 _atom_site_occupancy
  Zr  Zr0  1  0.99814100  0.00185900  0.99814100  1
  Ga  Ga0  1  0.50132500  0.00464400  0.50397600  1
  Ga  Ga1  1  0.99800700  0.00464400  0.50397600  1
  Ga  Ga2  1  0.50132500  0.49602400  0.99535600  1
  Ga  Ga3  1  0.99800700  0.49602400  0.99535600  1
  Ga  Ga4  1  0.50049900  0.79492800  0.79592600  1
  Ga  Ga5  1  0.50049900  0.20407400  0.20507200  1
  Fe  Fe0  1  0.36073700  0.63926300  0.36073700  1
  Fe  Fe1  1  0.00007100  0.36335000  0.36349100  1
  Fe  Fe2  1  0.00007100  0.63650900  0.63665000  1
  Fe  Fe3  1  0.72627800  0.77372200  0.22627800  1
  Fe  Fe4  1  0.28202700  0.21797300  0.78202700  1
  Co  Co0  1  0.63301300  0.36698700  0.63301300  1
loop_
_geom_bond_atom_site_label_1
_geom_bond_atom_site_label_2
_geom_bond_distance
_geom_bond_site_symmetry_2
Ga0 Ga1 2.504612 1_555
Ga0 Ga5 2.531505 1_555
Ga0 Ga1 2.538075 1_455
Ga0 Ga4 2.541429 1_545
Ga0 Zr0 3.226372 1_555
Ga0 Zr0 3.296382 1_454
Ga1 Ga5 2.531505 1_555
Ga1 Ga4 2.541429 1_645
Ga1 Zr0 3.226371 1_555
Ga1 Zr0 3.296382 1_554
Ga2 Ga3 2.504612 1_555
Ga2 Ga4 2.531505 1_555
Ga2 Ga3 2.538075 1_455
Ga2 Ga5 2.541429 1_556
Ga2 Zr0 3.226372 1_555
Ga2 Zr0 3.296382 1_465
Ga3 Ga4 2.531505 1_555
Ga3 Ga5 2.541429 1_656
Ga3 Zr0 3.226371 1_555
Ga3 Zr0 3.296382 1_565
Ga4 Zr0 3.044456 1_565
Ga4 Zr0 3.044456 1_465
Ga5 Zr0 3.044456 1_554
Ga5 Zr0 3.044456 1_454
Fe0 Ga2 2.652697 1_554
Fe0 Ga0 2.652697 1_565
Fe0 Ga1 2.652697 1_465
Fe0 Ga3 2.652697 1_454
Fe0 Ga4 2.745867 1_555
Fe0 Ga5 2.745867 1_555
Fe0 Fe3 2.777871 1_555
Fe0 Fe3 2.777871 1_455
Fe0 Fe1 3.019020 1_555
Fe0 Fe2 3.019020 1_555
Fe0 Fe2 3.019025 1_655
Fe0 Fe1 3.019025 1_655
Fe0 Zr0 3.144169 1_464
Fe1 Fe2 2.278228 1_555
Fe1 Fe3 2.633262 1_455
Fe1 Ga0 2.668861 1_555
Fe1 Ga1 2.668863 1_455
Fe1 Ga3 2.692036 1_454
Fe1 Ga2 2.692039 1_454
Fe1 Fe4 2.697262 1_555
Fe1 Ga5 2.848221 1_555
Fe1 Ga5 2.848226 1_455
Fe1 Zr0 3.031082 1_454
Fe2 Fe3 2.633262 1_455
Fe2 Ga2 2.668861 1_555
Fe2 Ga3 2.668863 1_455
Fe2 Ga1 2.692036 1_465
Fe2 Ga0 2.692039 1_465
Fe2 Fe4 2.697262 1_555
Fe2 Ga4 2.848221 1_555
Fe2 Ga4 2.848226 1_455
Fe2 Zr0 3.031082 1_465
Fe3 Ga2 2.471464 1_554
Fe3 Ga0 2.471464 1_565
Fe3 Ga3 2.471464 1_554
Fe3 Ga1 2.471464 1_565
Fe3 Ga4 2.596934 1_554
Fe3 Ga5 2.596934 1_565
Fe3 Zr0 3.204777 1_564
Fe3 Zr0 3.204778 1_464
Fe4 Ga0 2.426546 1_555
Fe4 Ga2 2.426546 1_555
Fe4 Ga1 2.426546 1_455
Fe4 Ga3 2.426546 1_455
Fe4 Ga5 2.549507 1_556
Fe4 Ga4 2.549507 1_545
Fe4 Zr0 3.141494 1_455
Fe4 Zr0 3.141494 1_555
Co0 Fe0 2.360979 1_555
Co0 Ga2 2.605838 1_555
Co0 Ga0 2.605838 1_555
Co0 Ga3 2.605838 1_555
Co0 Ga1 2.605838 1_555
Co0 Ga4 2.718713 1_555
Co0 Ga5 2.718713 1_555
Co0 Fe4 2.833161 1_555
Co0 Fe4 2.833161 1_655
Co0 Fe2 2.997273 1_555
Co0 Fe1 2.997273 1_555
Co0 Fe2 2.997277 1_655
Co0 Fe1 2.997277 1_655
Co0 Zr0 3.166124 1_555
