# generated using pymatgen
data_Sr5MnN4
_symmetry_space_group_name_H-M   'P 1'
_cell_length_a   9.89116467
_cell_length_b   15.63607410
_cell_length_c   13.36566100
_cell_angle_alpha   90.00000000
_cell_angle_beta   115.06111278
_cell_angle_gamma   90.00000000
_symmetry_Int_Tables_number   1
_chemical_formula_structural   Sr5MnN4
_chemical_formula_sum   'Sr40 Mn8 N32'
_cell_volume   1872.51367534
_cell_formula_units_Z   8
loop_
 _symmetry_equiv_pos_site_id
 _symmetry_equiv_pos_as_xyz
  1  'x, y, z'
loop_
 _atom_site_type_symbol
 _atom_site_label
 _atom_site_symmetry_multiplicity
 _atom_site_fract_x
 _atom_site_fract_y
 _atom_site_fract_z
 _atom_site_occupancy
  Sr  Sr0  1  0.43117519  0.75000000  0.71851745  1
  Sr  Sr1  1  0.56882481  0.25000000  0.28148255  1
  Sr  Sr2  1  0.48643206  0.75000000  0.16655427  1
  Sr  Sr3  1  0.51356794  0.25000000  0.83344573  1
  Sr  Sr4  1  0.15017316  0.59666089  0.77295407  1
  Sr  Sr5  1  0.84982684  0.09666089  0.22704593  1
  Sr  Sr6  1  0.84982684  0.40333911  0.22704593  1
  Sr  Sr7  1  0.15017316  0.90333911  0.77295407  1
  Sr  Sr8  1  0.72842152  0.37106591  0.56205949  1
  Sr  Sr9  1  0.27157848  0.87106591  0.43794051  1
  Sr  Sr10  1  0.27157848  0.62893409  0.43794051  1
  Sr  Sr11  1  0.72842152  0.12893409  0.56205949  1
  Sr  Sr12  1  0.86354398  0.25000000  0.82049477  1
  Sr  Sr13  1  0.13645602  0.75000000  0.17950523  1
  Sr  Sr14  1  0.20478976  0.50111908  0.03154668  1
  Sr  Sr15  1  0.79521024  0.00111908  0.96845332  1
  Sr  Sr16  1  0.79521024  0.49888092  0.96845332  1
  Sr  Sr17  1  0.20478976  0.99888092  0.03154668  1
  Sr  Sr18  1  0.00000000  0.50000000  0.50000000  1
  Sr  Sr19  1  0.00000000  0.00000000  0.50000000  1
  Sr  Sr20  1  0.49002584  0.38681847  0.02017929  1
  Sr  Sr21  1  0.50997416  0.88681847  0.97982071  1
  Sr  Sr22  1  0.50997416  0.61318153  0.97982071  1
  Sr  Sr23  1  0.49002584  0.11318153  0.02017929  1
  Sr  Sr24  1  0.16600972  0.35553073  0.76455152  1
  Sr  Sr25  1  0.83399028  0.85553073  0.23544848  1
  Sr  Sr26  1  0.83399028  0.64446927  0.23544848  1
  Sr  Sr27  1  0.16600972  0.14446927  0.76455152  1
  Sr  Sr28  1  0.76895468  0.63257201  0.71220216  1
  Sr  Sr29  1  0.23104532  0.13257201  0.28779784  1
  Sr  Sr30  1  0.23104532  0.36742799  0.28779784  1
  Sr  Sr31  1  0.76895468  0.86742799  0.71220216  1
  Sr  Sr32  1  0.78864552  0.75000000  0.95725055  1
  Sr  Sr33  1  0.21135448  0.25000000  0.04274945  1
  Sr  Sr34  1  0.56495550  0.48516742  0.28504550  1
  Sr  Sr35  1  0.43504450  0.98516742  0.71495450  1
  Sr  Sr36  1  0.43504450  0.51483258  0.71495450  1
  Sr  Sr37  1  0.56495550  0.01483258  0.28504550  1
  Sr  Sr38  1  0.96523521  0.25000000  0.48376352  1
  Sr  Sr39  1  0.03476479  0.75000000  0.51623648  1
  Mn  Mn0  1  0.91252794  0.45637434  0.79142108  1
  Mn  Mn1  1  0.08747206  0.95637434  0.20857892  1
  Mn  Mn2  1  0.08747206  0.54362566  0.20857892  1
  Mn  Mn3  1  0.91252794  0.04362566  0.79142108  1
  Mn  Mn4  1  0.64154238  0.75000000  0.44374916  1
  Mn  Mn5  1  0.35845762  0.25000000  0.55625084  1
  Mn  Mn6  1  0.82658283  0.25000000  0.06514484  1
  Mn  Mn7  1  0.17341717  0.75000000  0.93485516  1
  N  N0  1  0.90005968  0.25000000  0.64826927  1
  N  N1  1  0.09994032  0.75000000  0.35173073  1
  N  N2  1  0.00650818  0.75000000  0.81937241  1
  N  N3  1  0.99349182  0.25000000  0.18062759  1
  N  N4  1  0.37262892  0.37191597  0.17524372  1
  N  N5  1  0.62737108  0.87191597  0.82475628  1
  N  N6  1  0.62737108  0.62808403  0.82475628  1
  N  N7  1  0.37262892  0.12808403  0.17524372  1
  N  N8  1  0.34568978  0.48443426  0.85833461  1
  N  N9  1  0.65431022  0.98443426  0.14166539  1
  N  N10  1  0.65431022  0.51556574  0.14166539  1
  N  N11  1  0.34568978  0.01556574  0.85833461  1
  N  N12  1  0.92901194  0.49090119  0.67717515  1
  N  N13  1  0.07098806  0.99090119  0.32282485  1
  N  N14  1  0.07098806  0.50909881  0.32282485  1
  N  N15  1  0.92901194  0.00909881  0.67717515  1
  N  N16  1  0.73753532  0.34006233  0.00322553  1
  N  N17  1  0.26246468  0.84006233  0.99677447  1
  N  N18  1  0.26246468  0.65993767  0.99677447  1
  N  N19  1  0.73753532  0.15993767  0.00322553  1
  N  N20  1  0.98809481  0.60875120  0.10403285  1
  N  N21  1  0.01190519  0.10875120  0.89596715  1
  N  N22  1  0.01190519  0.39124880  0.89596715  1
  N  N23  1  0.98809481  0.89124880  0.10403285  1
  N  N24  1  0.66559828  0.75000000  0.08946233  1
  N  N25  1  0.33440172  0.25000000  0.91053767  1
  N  N26  1  0.79111736  0.38325559  0.39596118  1
  N  N27  1  0.20888264  0.88325559  0.60403882  1
  N  N28  1  0.20888264  0.61674441  0.60403882  1
  N  N29  1  0.79111736  0.11674441  0.39596118  1
  N  N30  1  0.74214412  0.75000000  0.36338090  1
  N  N31  1  0.25785588  0.25000000  0.63661910  1
loop_
_geom_bond_atom_site_label_1
_geom_bond_atom_site_label_2
_geom_bond_distance
_geom_bond_site_symmetry_2
Mn0 N22 1.670952 1_655
Mn0 N12 1.691331 1_555
Mn1 N23 1.670952 1_455
Mn1 N13 1.691331 1_555
Mn2 N20 1.670952 1_455
Mn2 N14 1.691331 1_555
Mn3 N21 1.670952 1_655
Mn3 N15 1.691331 1_555
Mn4 N30 1.746291 1_555
Mn5 N31 1.746291 1_555
Mn6 N19 1.681145 1_555
Mn6 N16 1.681145 1_555
Mn6 N3 1.717321 1_555
Mn7 N18 1.681145 1_555
Mn7 N17 1.681145 1_555
Mn7 N2 1.717321 1_555
N0 Sr12 2.476606 1_555
N0 Sr11 2.477113 1_555
N0 Sr8 2.477113 1_555
N0 Sr38 2.539843 1_555
N0 Sr27 2.931648 1_655
N0 Sr24 2.931648 1_655
N1 Sr13 2.476606 1_555
N1 Sr10 2.477113 1_555
N1 Sr9 2.477113 1_555
N1 Sr39 2.539843 1_555
N1 Sr25 2.931648 1_455
N1 Sr26 2.931648 1_455
N2 Sr28 2.844781 1_455
N2 Sr31 2.844781 1_455
N2 Sr4 2.983229 1_555
N2 Sr7 2.983229 1_555
N3 Sr30 2.844781 1_655
N3 Sr29 2.844781 1_655
N3 Sr5 2.983229 1_555
N3 Sr6 2.983229 1_555
N4 Sr30 2.452344 1_555
N4 Sr34 2.557981 1_555
N4 Sr33 2.630857 1_555
N4 Sr1 2.661149 1_555
N4 Sr20 2.781527 1_555
N4 Sr14 2.797305 1_555
N5 Sr31 2.452344 1_555
N5 Sr35 2.557981 1_555
N5 Sr32 2.630857 1_555
N5 Sr0 2.661149 1_555
N5 Sr21 2.781527 1_555
N5 Sr15 2.797305 1_565
N6 Sr28 2.452344 1_555
N6 Sr36 2.557981 1_555
N6 Sr32 2.630857 1_555
N6 Sr0 2.661149 1_555
N6 Sr22 2.781527 1_555
N6 Sr16 2.797305 1_555
N7 Sr29 2.452344 1_555
N7 Sr37 2.557981 1_555
N7 Sr33 2.630857 1_555
N7 Sr1 2.661149 1_555
N7 Sr23 2.781527 1_555
N7 Sr17 2.797305 1_545
N8 Sr36 2.472734 1_555
N8 Sr4 2.500368 1_555
N8 Sr20 2.535916 1_556
N8 Sr24 2.627728 1_555
N8 Sr22 2.663522 1_555
N8 Sr14 3.178582 1_556
N9 Sr37 2.472734 1_565
N9 Sr5 2.500368 1_565
N9 Sr21 2.535916 1_554
N9 Sr25 2.627728 1_555
N9 Sr23 2.663522 1_565
N9 Sr15 3.178582 1_564
N10 Sr34 2.472734 1_555
N10 Sr6 2.500368 1_555
N10 Sr22 2.535916 1_554
N10 Sr26 2.627728 1_555
N10 Sr20 2.663522 1_555
N10 Sr16 3.178582 1_554
N11 Sr35 2.472734 1_545
N11 Sr7 2.500368 1_545
N11 Sr23 2.535916 1_556
N11 Sr27 2.627728 1_555
N11 Sr21 2.663522 1_545
N11 Sr17 3.178582 1_546
N12 Sr4 2.605060 1_655
N12 Sr8 2.688612 1_555
N12 Sr18 2.744014 1_655
N12 Sr28 2.874098 1_555
N12 Sr24 3.003344 1_655
N13 Sr5 2.605060 1_465
N13 Sr9 2.688612 1_555
N13 Sr19 2.744014 1_565
N13 Sr29 2.874098 1_565
N13 Sr25 3.003344 1_455
N14 Sr6 2.605060 1_455
N14 Sr10 2.688612 1_555
N14 Sr18 2.744014 1_555
N14 Sr30 2.874098 1_555
N14 Sr26 3.003344 1_455
N15 Sr7 2.605060 1_645
N15 Sr11 2.688612 1_555
N15 Sr19 2.744014 1_655
N15 Sr31 2.874098 1_545
N15 Sr27 3.003344 1_655
N16 Sr16 2.633025 1_554
N16 Sr20 2.655046 1_555
N16 Sr3 2.789493 1_554
N16 Sr6 2.889087 1_555
N17 Sr17 2.633025 1_556
N17 Sr21 2.655046 1_555
N17 Sr2 2.789493 1_556
N17 Sr7 2.889087 1_555
N18 Sr14 2.633025 1_556
N18 Sr22 2.655046 1_555
N18 Sr2 2.789493 1_556
N18 Sr4 2.889087 1_555
N19 Sr15 2.633025 1_554
N19 Sr23 2.655046 1_555
N19 Sr3 2.789493 1_554
N19 Sr5 2.889087 1_555
N20 Sr13 2.606677 1_655
N20 Sr16 2.635545 1_554
N20 Sr26 2.826412 1_555
N20 Sr32 3.056096 1_554
N21 Sr12 2.606677 1_455
N21 Sr17 2.635545 1_546
N21 Sr27 2.826412 1_555
N21 Sr33 3.056096 1_556
N22 Sr12 2.606677 1_455
N22 Sr14 2.635545 1_556
N22 Sr24 2.826412 1_555
N22 Sr33 3.056096 1_556
N23 Sr13 2.606677 1_655
N23 Sr15 2.635545 1_564
N23 Sr25 2.826412 1_555
N23 Sr32 3.056096 1_554
N24 Sr2 2.397747 1_555
N24 Sr32 2.534941 1_554
N24 Sr26 2.559482 1_555
N24 Sr25 2.559482 1_555
N24 Sr21 2.680032 1_554
N24 Sr22 2.680032 1_554
N25 Sr3 2.397747 1_555
N25 Sr33 2.534941 1_556
N25 Sr24 2.559482 1_555
N25 Sr27 2.559482 1_555
N25 Sr23 2.680032 1_556
N25 Sr20 2.680032 1_556
N26 Sr8 2.552579 1_555
N26 Sr6 2.577508 1_555
N26 Sr34 2.632808 1_555
N26 Sr38 2.640532 1_555
N26 Sr18 2.664698 1_655
N26 Sr1 2.943953 1_555
N27 Sr9 2.552579 1_555
N27 Sr7 2.577508 1_555
N27 Sr35 2.632808 1_555
N27 Sr39 2.640532 1_555
N27 Sr19 2.664698 1_565
N27 Sr0 2.943953 1_555
N28 Sr10 2.552579 1_555
N28 Sr4 2.577508 1_555
N28 Sr36 2.632808 1_555
N28 Sr39 2.640532 1_555
N28 Sr18 2.664698 1_555
N28 Sr0 2.943953 1_555
N29 Sr11 2.552579 1_555
N29 Sr5 2.577508 1_555
N29 Sr37 2.632808 1_555
N29 Sr38 2.640532 1_555
N29 Sr19 2.664698 1_655
N29 Sr1 2.943953 1_555
N30 Sr39 2.746221 1_655
N30 Sr2 2.771470 1_555
N30 Sr25 2.790670 1_555
N30 Sr26 2.790670 1_555
N31 Sr38 2.746221 1_455
N31 Sr3 2.771470 1_555
N31 Sr24 2.790670 1_555
N31 Sr27 2.790670 1_555
