# generated using pymatgen
data_Cu3PdAu4
_symmetry_space_group_name_H-M   'P 1'
_cell_length_a   5.79671338
_cell_length_b   5.79671338
_cell_length_c   28.49351282
_cell_angle_alpha   90.00000000
_cell_angle_beta   90.00000000
_cell_angle_gamma   90.00000000
_symmetry_Int_Tables_number   1
_chemical_formula_structural   Cu3PdAu4
_chemical_formula_sum   'Cu24 Pd8 Au32'
_cell_volume   957.43576980
_cell_formula_units_Z   8
loop_
 _symmetry_equiv_pos_site_id
 _symmetry_equiv_pos_as_xyz
  1  'x, y, z'
loop_
 _atom_site_type_symbol
 _atom_site_label
 _atom_site_symmetry_multiplicity
 _atom_site_fract_x
 _atom_site_fract_y
 _atom_site_fract_z
 _atom_site_occupancy
  Cu  Cu0_0  1  0.25000000  0.25000000  0.12805459  1
  Cu  Cu0_1  1  0.25000000  0.25000000  0.62805459  1
  Cu  Cu0_2  1  0.25000000  0.75000000  0.12805459  1
  Cu  Cu0_3  1  0.25000000  0.75000000  0.62805459  1
  Cu  Cu0_4  1  0.75000000  0.25000000  0.12805459  1
  Cu  Cu0_5  1  0.75000000  0.25000000  0.62805459  1
  Cu  Cu0_6  1  0.75000000  0.75000000  0.12805459  1
  Cu  Cu0_7  1  0.75000000  0.75000000  0.62805459  1
  Cu  Cu1_0  1  0.25000000  0.25000000  0.25000000  1
  Cu  Cu1_1  1  0.25000000  0.25000000  0.75000000  1
  Cu  Cu1_2  1  0.25000000  0.75000000  0.25000000  1
  Cu  Cu1_3  1  0.25000000  0.75000000  0.75000000  1
  Cu  Cu1_4  1  0.75000000  0.25000000  0.25000000  1
  Cu  Cu1_5  1  0.75000000  0.25000000  0.75000000  1
  Cu  Cu1_6  1  0.75000000  0.75000000  0.25000000  1
  Cu  Cu1_7  1  0.75000000  0.75000000  0.75000000  1
  Cu  Cu2_0  1  0.25000000  0.25000000  0.37194541  1
  Cu  Cu2_1  1  0.25000000  0.25000000  0.87194541  1
  Cu  Cu2_2  1  0.25000000  0.75000000  0.37194541  1
  Cu  Cu2_3  1  0.25000000  0.75000000  0.87194541  1
  Cu  Cu2_4  1  0.75000000  0.25000000  0.37194541  1
  Cu  Cu2_5  1  0.75000000  0.25000000  0.87194541  1
  Cu  Cu2_6  1  0.75000000  0.75000000  0.37194541  1
  Cu  Cu2_7  1  0.75000000  0.75000000  0.87194541  1
  Pd  Pd0_0  1  0.25000000  0.25000000  0.00000000  1
  Pd  Pd0_1  1  0.25000000  0.25000000  0.50000000  1
  Pd  Pd0_2  1  0.25000000  0.75000000  0.00000000  1
  Pd  Pd0_3  1  0.25000000  0.75000000  0.50000000  1
  Pd  Pd0_4  1  0.75000000  0.25000000  0.00000000  1
  Pd  Pd0_5  1  0.75000000  0.25000000  0.50000000  1
  Pd  Pd0_6  1  0.75000000  0.75000000  0.00000000  1
  Pd  Pd0_7  1  0.75000000  0.75000000  0.50000000  1
  Au  Au0_0  1  0.00000000  0.00000000  0.43171205  1
  Au  Au0_1  1  0.00000000  0.00000000  0.93171205  1
  Au  Au0_2  1  0.00000000  0.50000000  0.43171205  1
  Au  Au0_3  1  0.00000000  0.50000000  0.93171205  1
  Au  Au0_4  1  0.50000000  0.00000000  0.43171205  1
  Au  Au0_5  1  0.50000000  0.00000000  0.93171205  1
  Au  Au0_6  1  0.50000000  0.50000000  0.43171205  1
  Au  Au0_7  1  0.50000000  0.50000000  0.93171205  1
  Au  Au1_0  1  0.00000000  0.00000000  0.06828795  1
  Au  Au1_1  1  0.00000000  0.00000000  0.56828795  1
  Au  Au1_2  1  0.00000000  0.50000000  0.06828795  1
  Au  Au1_3  1  0.00000000  0.50000000  0.56828795  1
  Au  Au1_4  1  0.50000000  0.00000000  0.06828795  1
  Au  Au1_5  1  0.50000000  0.00000000  0.56828795  1
  Au  Au1_6  1  0.50000000  0.50000000  0.06828795  1
  Au  Au1_7  1  0.50000000  0.50000000  0.56828795  1
  Au  Au2_0  1  0.00000000  0.00000000  0.18903433  1
  Au  Au2_1  1  0.00000000  0.00000000  0.68903433  1
  Au  Au2_2  1  0.00000000  0.50000000  0.18903433  1
  Au  Au2_3  1  0.00000000  0.50000000  0.68903433  1
  Au  Au2_4  1  0.50000000  0.00000000  0.18903433  1
  Au  Au2_5  1  0.50000000  0.00000000  0.68903433  1
  Au  Au2_6  1  0.50000000  0.50000000  0.18903433  1
  Au  Au2_7  1  0.50000000  0.50000000  0.68903433  1
  Au  Au3_0  1  0.00000000  0.00000000  0.31096567  1
  Au  Au3_1  1  0.00000000  0.00000000  0.81096567  1
  Au  Au3_2  1  0.00000000  0.50000000  0.31096567  1
  Au  Au3_3  1  0.00000000  0.50000000  0.81096567  1
  Au  Au3_4  1  0.50000000  0.00000000  0.31096567  1
  Au  Au3_5  1  0.50000000  0.00000000  0.81096567  1
  Au  Au3_6  1  0.50000000  0.50000000  0.31096567  1
  Au  Au3_7  1  0.50000000  0.50000000  0.81096567  1
loop_
_geom_bond_atom_site_label_1
_geom_bond_atom_site_label_2
_geom_bond_distance
_geom_bond_site_symmetry_2
Cu0_0 Cu0_2 2.898357 1_545
Cu0_0 Cu0_2 2.898357 1_555
Cu0_0 Cu0_4 2.898357 1_455
Cu0_0 Cu0_4 2.898357 1_555
Cu0_1 Cu0_5 2.898357 1_555
Cu0_1 Cu0_5 2.898357 1_455
Cu0_1 Cu0_3 2.898357 1_555
Cu0_1 Cu0_3 2.898357 1_545
Cu0_2 Cu0_6 2.898357 1_555
Cu0_2 Cu0_6 2.898357 1_455
Cu0_3 Cu0_7 2.898357 1_555
Cu0_3 Cu0_7 2.898357 1_455
Cu0_4 Cu0_6 2.898357 1_545
Cu0_4 Cu0_6 2.898357 1_555
Cu0_5 Cu0_7 2.898357 1_545
Cu0_5 Cu0_7 2.898357 1_555
Cu1_0 Cu1_4 2.898357 1_555
Cu1_0 Cu1_4 2.898357 1_455
Cu1_0 Cu1_2 2.898357 1_555
Cu1_0 Cu1_2 2.898357 1_545
Cu1_1 Cu1_3 2.898357 1_555
Cu1_1 Cu1_3 2.898357 1_545
Cu1_1 Cu1_5 2.898357 1_555
Cu1_1 Cu1_5 2.898357 1_455
Cu1_2 Cu1_6 2.898357 1_455
Cu1_2 Cu1_6 2.898357 1_555
Cu1_3 Cu1_7 2.898357 1_555
Cu1_3 Cu1_7 2.898357 1_455
Cu1_4 Cu1_6 2.898357 1_545
Cu1_4 Cu1_6 2.898357 1_555
Cu1_5 Cu1_7 2.898357 1_545
Cu1_5 Cu1_7 2.898357 1_555
Cu2_0 Cu2_4 2.898357 1_455
Cu2_0 Cu2_4 2.898357 1_555
Cu2_0 Cu2_2 2.898357 1_545
Cu2_0 Cu2_2 2.898357 1_555
Cu2_1 Cu2_5 2.898357 1_555
Cu2_1 Cu2_3 2.898357 1_545
Cu2_1 Cu2_3 2.898357 1_555
Cu2_1 Cu2_5 2.898357 1_455
Cu2_2 Cu2_6 2.898357 1_455
Cu2_2 Cu2_6 2.898357 1_555
Cu2_3 Cu2_7 2.898357 1_455
Cu2_3 Cu2_7 2.898357 1_555
Cu2_4 Cu2_6 2.898357 1_545
Cu2_4 Cu2_6 2.898357 1_555
Cu2_5 Cu2_7 2.898357 1_555
Cu2_5 Cu2_7 2.898357 1_545
Pd0_0 Pd0_4 2.898357 1_555
Pd0_0 Pd0_2 2.898357 1_545
Pd0_0 Pd0_2 2.898357 1_555
Pd0_0 Pd0_4 2.898357 1_455
Pd0_1 Pd0_3 2.898357 1_555
Pd0_1 Pd0_3 2.898357 1_545
Pd0_1 Pd0_5 2.898357 1_455
Pd0_1 Pd0_5 2.898357 1_555
Pd0_2 Pd0_6 2.898357 1_455
Pd0_2 Pd0_6 2.898357 1_555
Pd0_3 Pd0_7 2.898357 1_555
Pd0_3 Pd0_7 2.898357 1_455
Pd0_4 Pd0_6 2.898357 1_545
Pd0_4 Pd0_6 2.898357 1_555
Pd0_5 Pd0_7 2.898357 1_555
Pd0_5 Pd0_7 2.898357 1_545
Au0_0 Cu2_2 2.664641 1_545
Au0_0 Cu2_0 2.664641 1_555
Au0_0 Cu2_6 2.664641 1_445
Au0_0 Cu2_4 2.664641 1_455
Au0_0 Pd0_3 2.825992 1_545
Au0_0 Pd0_1 2.825992 1_555
Au0_0 Pd0_5 2.825992 1_455
Au0_0 Pd0_7 2.825992 1_445
Au0_0 Au0_4 2.898357 1_555
Au0_0 Au0_2 2.898357 1_545
Au0_0 Au0_2 2.898357 1_555
Au0_0 Au0_4 2.898357 1_455
Au0_1 Cu2_5 2.664641 1_455
Au0_1 Cu2_7 2.664641 1_445
Au0_1 Cu2_1 2.664641 1_555
Au0_1 Cu2_3 2.664641 1_545
Au0_1 Pd0_4 2.825992 1_456
Au0_1 Pd0_0 2.825992 1_556
Au0_1 Pd0_2 2.825992 1_546
Au0_1 Pd0_6 2.825992 1_446
Au0_1 Au0_3 2.898357 1_555
Au0_1 Au0_3 2.898357 1_545
Au0_1 Au0_5 2.898357 1_455
Au0_1 Au0_5 2.898357 1_555
Au0_2 Cu2_6 2.664641 1_455
Au0_2 Cu2_0 2.664641 1_555
Au0_2 Cu2_2 2.664641 1_555
Au0_2 Cu2_4 2.664641 1_455
Au0_2 Pd0_1 2.825992 1_555
Au0_2 Pd0_3 2.825992 1_555
Au0_2 Pd0_5 2.825992 1_455
Au0_2 Pd0_7 2.825992 1_455
Au0_2 Au0_6 2.898357 1_455
Au0_2 Au0_6 2.898357 1_555
Au0_3 Cu2_5 2.664641 1_455
Au0_3 Cu2_3 2.664641 1_555
Au0_3 Cu2_1 2.664641 1_555
Au0_3 Cu2_7 2.664641 1_455
Au0_3 Pd0_2 2.825992 1_556
Au0_3 Pd0_6 2.825992 1_456
Au0_3 Pd0_4 2.825992 1_456
Au0_3 Pd0_0 2.825992 1_556
Au0_3 Au0_7 2.898357 1_555
Au0_3 Au0_7 2.898357 1_455
Au0_4 Cu2_2 2.664641 1_545
Au0_4 Cu2_6 2.664641 1_545
Au0_4 Cu2_0 2.664641 1_555
Au0_4 Cu2_4 2.664641 1_555
Au0_4 Pd0_3 2.825992 1_545
Au0_4 Pd0_7 2.825992 1_545
Au0_4 Pd0_1 2.825992 1_555
Au0_4 Pd0_5 2.825992 1_555
Au0_4 Au0_6 2.898357 1_545
Au0_4 Au0_6 2.898357 1_555
Au0_5 Cu2_7 2.664641 1_545
Au0_5 Cu2_1 2.664641 1_555
Au0_5 Cu2_5 2.664641 1_555
Au0_5 Cu2_3 2.664641 1_545
Au0_5 Pd0_4 2.825992 1_556
Au0_5 Pd0_0 2.825992 1_556
Au0_5 Pd0_2 2.825992 1_546
Au0_5 Pd0_6 2.825992 1_546
Au0_5 Au0_7 2.898357 1_545
Au0_5 Au0_7 2.898357 1_555
Au0_6 Cu2_0 2.664641 1_555
Au0_6 Cu2_2 2.664641 1_555
Au0_6 Cu2_6 2.664641 1_555
Au0_6 Cu2_4 2.664641 1_555
Au0_6 Pd0_1 2.825992 1_555
Au0_6 Pd0_3 2.825992 1_555
Au0_6 Pd0_5 2.825992 1_555
Au0_6 Pd0_7 2.825992 1_555
Au0_7 Cu2_3 2.664641 1_555
Au0_7 Cu2_7 2.664641 1_555
Au0_7 Cu2_1 2.664641 1_555
Au0_7 Cu2_5 2.664641 1_555
Au0_7 Pd0_2 2.825992 1_556
Au0_7 Pd0_4 2.825992 1_556
Au0_7 Pd0_6 2.825992 1_556
Au0_7 Pd0_0 2.825992 1_556
Au1_0 Cu0_4 2.664641 1_455
Au1_0 Cu0_0 2.664641 1_555
Au1_0 Cu0_6 2.664641 1_445
Au1_0 Cu0_2 2.664641 1_545
Au1_0 Pd0_6 2.825992 1_445
Au1_0 Pd0_2 2.825992 1_545
Au1_0 Pd0_4 2.825992 1_455
Au1_0 Pd0_0 2.825992 1_555
Au1_0 Au1_2 2.898357 1_555
Au1_0 Au1_4 2.898357 1_455
Au1_0 Au1_4 2.898357 1_555
Au1_0 Au1_2 2.898357 1_545
Au1_1 Cu0_7 2.664641 1_445
Au1_1 Cu0_1 2.664641 1_555
Au1_1 Cu0_5 2.664641 1_455
Au1_1 Cu0_3 2.664641 1_545
Au1_1 Pd0_7 2.825992 1_445
Au1_1 Pd0_1 2.825992 1_555
Au1_1 Pd0_3 2.825992 1_545
Au1_1 Pd0_5 2.825992 1_455
Au1_1 Au1_3 2.898357 1_555
Au1_1 Au1_3 2.898357 1_545
Au1_1 Au1_5 2.898357 1_455
Au1_1 Au1_5 2.898357 1_555
Au1_2 Cu0_4 2.664641 1_455
Au1_2 Cu0_0 2.664641 1_555
Au1_2 Cu0_6 2.664641 1_455
Au1_2 Cu0_2 2.664641 1_555
Au1_2 Pd0_4 2.825992 1_455
Au1_2 Pd0_6 2.825992 1_455
Au1_2 Pd0_2 2.825992 1_555
Au1_2 Pd0_0 2.825992 1_555
Au1_2 Au1_6 2.898357 1_555
Au1_2 Au1_6 2.898357 1_455
Au1_3 Cu0_1 2.664641 1_555
Au1_3 Cu0_7 2.664641 1_455
Au1_3 Cu0_5 2.664641 1_455
Au1_3 Cu0_3 2.664641 1_555
Au1_3 Pd0_5 2.825992 1_455
Au1_3 Pd0_1 2.825992 1_555
Au1_3 Pd0_7 2.825992 1_455
Au1_3 Pd0_3 2.825992 1_555
Au1_3 Au1_7 2.898357 1_555
Au1_3 Au1_7 2.898357 1_455
Au1_4 Cu0_0 2.664641 1_555
Au1_4 Cu0_6 2.664641 1_545
Au1_4 Cu0_4 2.664641 1_555
Au1_4 Cu0_2 2.664641 1_545
Au1_4 Pd0_6 2.825992 1_545
Au1_4 Pd0_2 2.825992 1_545
Au1_4 Pd0_0 2.825992 1_555
Au1_4 Pd0_4 2.825992 1_555
Au1_4 Au1_6 2.898357 1_555
Au1_4 Au1_6 2.898357 1_545
Au1_5 Cu0_1 2.664641 1_555
Au1_5 Cu0_7 2.664641 1_545
Au1_5 Cu0_5 2.664641 1_555
Au1_5 Cu0_3 2.664641 1_545
Au1_5 Pd0_5 2.825992 1_555
Au1_5 Pd0_7 2.825992 1_545
Au1_5 Pd0_1 2.825992 1_555
Au1_5 Pd0_3 2.825992 1_545
Au1_5 Au1_7 2.898357 1_555
Au1_5 Au1_7 2.898357 1_545
Au1_6 Cu0_0 2.664641 1_555
Au1_6 Cu0_6 2.664641 1_555
Au1_6 Cu0_4 2.664641 1_555
Au1_6 Cu0_2 2.664641 1_555
Au1_6 Pd0_2 2.825992 1_555
Au1_6 Pd0_0 2.825992 1_555
Au1_6 Pd0_6 2.825992 1_555
Au1_6 Pd0_4 2.825992 1_555
Au1_7 Cu0_1 2.664641 1_555
Au1_7 Cu0_5 2.664641 1_555
Au1_7 Cu0_3 2.664641 1_555
Au1_7 Cu0_7 2.664641 1_555
Au1_7 Pd0_5 2.825992 1_555
Au1_7 Pd0_7 2.825992 1_555
Au1_7 Pd0_1 2.825992 1_555
Au1_7 Pd0_3 2.825992 1_555
Au2_0 Cu1_0 2.686604 1_555
Au2_0 Cu1_6 2.686604 1_445
Au2_0 Cu1_4 2.686604 1_455
Au2_0 Cu1_2 2.686604 1_545
Au2_0 Cu0_6 2.686864 1_445
Au2_0 Cu0_4 2.686864 1_455
Au2_0 Cu0_0 2.686864 1_555
Au2_0 Cu0_2 2.686864 1_545
Au2_0 Au2_4 2.898357 1_555
Au2_0 Au2_2 2.898357 1_545
Au2_0 Au2_2 2.898357 1_555
Au2_0 Au2_4 2.898357 1_455
Au2_1 Cu1_5 2.686604 1_455
Au2_1 Cu1_3 2.686604 1_545
Au2_1 Cu1_7 2.686604 1_445
Au2_1 Cu1_1 2.686604 1_555
Au2_1 Cu0_5 2.686864 1_455
Au2_1 Cu0_3 2.686864 1_545
Au2_1 Cu0_7 2.686864 1_445
Au2_1 Cu0_1 2.686864 1_555
Au2_1 Au2_3 2.898357 1_545
Au2_1 Au2_5 2.898357 1_455
Au2_1 Au2_5 2.898357 1_555
Au2_1 Au2_3 2.898357 1_555
Au2_2 Cu1_0 2.686604 1_555
Au2_2 Cu1_6 2.686604 1_455
Au2_2 Cu1_4 2.686604 1_455
Au2_2 Cu1_2 2.686604 1_555
Au2_2 Cu0_4 2.686864 1_455
Au2_2 Cu0_0 2.686864 1_555
Au2_2 Cu0_6 2.686864 1_455
Au2_2 Cu0_2 2.686864 1_555
Au2_2 Au2_6 2.898357 1_555
Au2_2 Au2_6 2.898357 1_455
Au2_3 Cu1_3 2.686604 1_555
Au2_3 Cu1_5 2.686604 1_455
Au2_3 Cu1_7 2.686604 1_455
Au2_3 Cu1_1 2.686604 1_555
Au2_3 Cu0_7 2.686864 1_455
Au2_3 Cu0_5 2.686864 1_455
Au2_3 Cu0_3 2.686864 1_555
Au2_3 Cu0_1 2.686864 1_555
Au2_3 Au2_7 2.898357 1_555
Au2_3 Au2_7 2.898357 1_455
Au2_4 Cu1_0 2.686604 1_555
Au2_4 Cu1_4 2.686604 1_555
Au2_4 Cu1_6 2.686604 1_545
Au2_4 Cu1_2 2.686604 1_545
Au2_4 Cu0_0 2.686864 1_555
Au2_4 Cu0_6 2.686864 1_545
Au2_4 Cu0_4 2.686864 1_555
Au2_4 Cu0_2 2.686864 1_545
Au2_4 Au2_6 2.898357 1_555
Au2_4 Au2_6 2.898357 1_545
Au2_5 Cu1_5 2.686604 1_555
Au2_5 Cu1_3 2.686604 1_545
Au2_5 Cu1_7 2.686604 1_545
Au2_5 Cu1_1 2.686604 1_555
Au2_5 Cu0_5 2.686864 1_555
Au2_5 Cu0_3 2.686864 1_545
Au2_5 Cu0_1 2.686864 1_555
Au2_5 Cu0_7 2.686864 1_545
Au2_5 Au2_7 2.898357 1_555
Au2_5 Au2_7 2.898357 1_545
Au2_6 Cu1_0 2.686604 1_555
Au2_6 Cu1_4 2.686604 1_555
Au2_6 Cu1_2 2.686604 1_555
Au2_6 Cu1_6 2.686604 1_555
Au2_6 Cu0_0 2.686864 1_555
Au2_6 Cu0_6 2.686864 1_555
Au2_6 Cu0_4 2.686864 1_555
Au2_6 Cu0_2 2.686864 1_555
Au2_7 Cu1_3 2.686604 1_555
Au2_7 Cu1_5 2.686604 1_555
Au2_7 Cu1_7 2.686604 1_555
Au2_7 Cu1_1 2.686604 1_555
Au2_7 Cu0_5 2.686864 1_555
Au2_7 Cu0_3 2.686864 1_555
Au2_7 Cu0_7 2.686864 1_555
Au2_7 Cu0_1 2.686864 1_555
Au3_0 Cu1_0 2.686604 1_555
Au3_0 Cu1_6 2.686604 1_445
Au3_0 Cu1_4 2.686604 1_455
Au3_0 Cu1_2 2.686604 1_545
Au3_0 Cu2_4 2.686864 1_455
Au3_0 Cu2_2 2.686864 1_545
Au3_0 Cu2_0 2.686864 1_555
Au3_0 Cu2_6 2.686864 1_445
Au3_0 Au3_4 2.898357 1_455
Au3_0 Au3_2 2.898357 1_555
Au3_0 Au3_4 2.898357 1_555
Au3_0 Au3_2 2.898357 1_545
Au3_1 Cu1_5 2.686604 1_455
Au3_1 Cu1_3 2.686604 1_545
Au3_1 Cu1_7 2.686604 1_445
Au3_1 Cu1_1 2.686604 1_555
Au3_1 Cu2_1 2.686864 1_555
Au3_1 Cu2_7 2.686864 1_445
Au3_1 Cu2_3 2.686864 1_545
Au3_1 Cu2_5 2.686864 1_455
Au3_1 Au3_5 2.898357 1_555
Au3_1 Au3_3 2.898357 1_545
Au3_1 Au3_3 2.898357 1_555
Au3_1 Au3_5 2.898357 1_455
Au3_2 Cu1_0 2.686604 1_555
Au3_2 Cu1_6 2.686604 1_455
Au3_2 Cu1_4 2.686604 1_455
Au3_2 Cu1_2 2.686604 1_555
Au3_2 Cu2_4 2.686864 1_455
Au3_2 Cu2_6 2.686864 1_455
Au3_2 Cu2_0 2.686864 1_555
Au3_2 Cu2_2 2.686864 1_555
Au3_2 Au3_6 2.898357 1_555
Au3_2 Au3_6 2.898357 1_455
Au3_3 Cu1_3 2.686604 1_555
Au3_3 Cu1_5 2.686604 1_455
Au3_3 Cu1_7 2.686604 1_455
Au3_3 Cu1_1 2.686604 1_555
Au3_3 Cu2_1 2.686864 1_555
Au3_3 Cu2_7 2.686864 1_455
Au3_3 Cu2_3 2.686864 1_555
Au3_3 Cu2_5 2.686864 1_455
Au3_3 Au3_7 2.898357 1_455
Au3_3 Au3_7 2.898357 1_555
Au3_4 Cu1_4 2.686604 1_555
Au3_4 Cu1_0 2.686604 1_555
Au3_4 Cu1_6 2.686604 1_545
Au3_4 Cu1_2 2.686604 1_545
Au3_4 Cu2_4 2.686864 1_555
Au3_4 Cu2_2 2.686864 1_545
Au3_4 Cu2_6 2.686864 1_545
Au3_4 Cu2_0 2.686864 1_555
Au3_4 Au3_6 2.898357 1_555
Au3_4 Au3_6 2.898357 1_545
Au3_5 Cu1_5 2.686604 1_555
Au3_5 Cu1_3 2.686604 1_545
Au3_5 Cu1_7 2.686604 1_545
Au3_5 Cu1_1 2.686604 1_555
Au3_5 Cu2_1 2.686864 1_555
Au3_5 Cu2_5 2.686864 1_555
Au3_5 Cu2_3 2.686864 1_545
Au3_5 Cu2_7 2.686864 1_545
Au3_5 Au3_7 2.898357 1_545
Au3_5 Au3_7 2.898357 1_555
Au3_6 Cu1_0 2.686604 1_555
Au3_6 Cu1_4 2.686604 1_555
Au3_6 Cu1_2 2.686604 1_555
Au3_6 Cu1_6 2.686604 1_555
Au3_6 Cu2_4 2.686864 1_555
Au3_6 Cu2_0 2.686864 1_555
Au3_6 Cu2_2 2.686864 1_555
Au3_6 Cu2_6 2.686864 1_555
Au3_7 Cu1_3 2.686604 1_555
Au3_7 Cu1_5 2.686604 1_555
Au3_7 Cu1_7 2.686604 1_555
Au3_7 Cu1_1 2.686604 1_555
Au3_7 Cu2_1 2.686864 1_555
Au3_7 Cu2_5 2.686864 1_555
Au3_7 Cu2_3 2.686864 1_555
Au3_7 Cu2_7 2.686864 1_555
