# generated using pymatgen
data_CrCo3
_symmetry_space_group_name_H-M   'P 1'
_cell_length_a   5.00869484
_cell_length_b   5.00869484
_cell_length_c   16.00023600
_cell_angle_alpha   90.00000000
_cell_angle_beta   90.00000000
_cell_angle_gamma   120.00352465
_symmetry_Int_Tables_number   1
_chemical_formula_structural   CrCo3
_chemical_formula_sum   'Cr8 Co24'
_cell_volume   347.60878191
_cell_formula_units_Z   8
loop_
 _symmetry_equiv_pos_site_id
 _symmetry_equiv_pos_as_xyz
  1  'x, y, z'
loop_
 _atom_site_type_symbol
 _atom_site_label
 _atom_site_symmetry_multiplicity
 _atom_site_fract_x
 _atom_site_fract_y
 _atom_site_fract_z
 _atom_site_occupancy
  Cr  Cr0_0  1  0.33334000  0.16666000  0.18750000  1
  Cr  Cr0_1  1  0.33334000  0.16666000  0.68750000  1
  Cr  Cr0_2  1  0.33334000  0.66666000  0.18750000  1
  Cr  Cr0_3  1  0.33334000  0.66666000  0.68750000  1
  Cr  Cr0_4  1  0.83334000  0.16666000  0.18750000  1
  Cr  Cr0_5  1  0.83334000  0.16666000  0.68750000  1
  Cr  Cr0_6  1  0.83334000  0.66666000  0.18750000  1
  Cr  Cr0_7  1  0.83334000  0.66666000  0.68750000  1
  Co  Co0_0  1  0.33334150  0.16665850  0.43750000  1
  Co  Co0_1  1  0.33334150  0.16665850  0.93750000  1
  Co  Co0_2  1  0.33334150  0.66665850  0.43750000  1
  Co  Co0_3  1  0.33334150  0.66665850  0.93750000  1
  Co  Co0_4  1  0.83334150  0.16665850  0.43750000  1
  Co  Co0_5  1  0.83334150  0.16665850  0.93750000  1
  Co  Co0_6  1  0.83334150  0.66665850  0.43750000  1
  Co  Co0_7  1  0.83334150  0.66665850  0.93750000  1
  Co  Co1_0  1  0.16665950  0.33334050  0.06285200  1
  Co  Co1_1  1  0.16665950  0.33334050  0.56285200  1
  Co  Co1_2  1  0.16665950  0.83334050  0.06285200  1
  Co  Co1_3  1  0.16665950  0.83334050  0.56285200  1
  Co  Co1_4  1  0.66665950  0.33334050  0.06285200  1
  Co  Co1_5  1  0.66665950  0.33334050  0.56285200  1
  Co  Co1_6  1  0.66665950  0.83334050  0.06285200  1
  Co  Co1_7  1  0.66665950  0.83334050  0.56285200  1
  Co  Co2_0  1  0.16665950  0.33334050  0.31214800  1
  Co  Co2_1  1  0.16665950  0.33334050  0.81214800  1
  Co  Co2_2  1  0.16665950  0.83334050  0.31214800  1
  Co  Co2_3  1  0.16665950  0.83334050  0.81214800  1
  Co  Co2_4  1  0.66665950  0.33334050  0.31214800  1
  Co  Co2_5  1  0.66665950  0.33334050  0.81214800  1
  Co  Co2_6  1  0.66665950  0.83334050  0.31214800  1
  Co  Co2_7  1  0.66665950  0.83334050  0.81214800  1
loop_
_geom_bond_atom_site_label_1
_geom_bond_atom_site_label_2
_geom_bond_distance
_geom_bond_site_symmetry_2
Cr0_0 Cr0_6 2.504214 1_555
Cr0_0 Cr0_6 2.504214 1_445
Cr0_0 Cr0_4 2.504347 1_555
Cr0_0 Cr0_2 2.504347 1_555
Cr0_0 Cr0_4 2.504347 1_455
Cr0_0 Cr0_2 2.504347 1_545
Cr0_1 Cr0_7 2.504214 1_555
Cr0_1 Cr0_7 2.504214 1_445
Cr0_1 Cr0_5 2.504347 1_555
Cr0_1 Cr0_3 2.504347 1_555
Cr0_1 Cr0_5 2.504347 1_455
Cr0_1 Cr0_3 2.504347 1_545
Cr0_2 Cr0_4 2.504214 1_565
Cr0_2 Cr0_4 2.504214 1_455
Cr0_2 Cr0_6 2.504347 1_555
Cr0_2 Cr0_6 2.504347 1_455
Cr0_3 Cr0_5 2.504214 1_455
Cr0_3 Cr0_5 2.504214 1_565
Cr0_3 Cr0_7 2.504347 1_555
Cr0_3 Cr0_7 2.504347 1_455
Cr0_4 Cr0_6 2.504347 1_545
Cr0_4 Cr0_6 2.504347 1_555
Cr0_5 Cr0_7 2.504347 1_545
Cr0_5 Cr0_7 2.504347 1_555
Co0_0 Co1_3 2.472433 1_545
Co0_0 Co1_5 2.472433 1_555
Co0_0 Co2_2 2.472433 1_545
Co0_0 Co2_4 2.472433 1_555
Co0_0 Co1_1 2.472594 1_555
Co0_0 Co2_0 2.472594 1_555
Co0_0 Co0_6 2.504214 1_445
Co0_0 Co0_6 2.504214 1_555
Co0_0 Co0_2 2.504347 1_555
Co0_0 Co0_4 2.504347 1_455
Co0_0 Co0_4 2.504347 1_555
Co0_0 Co0_2 2.504347 1_545
Co0_1 Co1_2 2.472433 1_546
Co0_1 Co1_4 2.472433 1_556
Co0_1 Co2_3 2.472433 1_545
Co0_1 Co2_5 2.472433 1_555
Co0_1 Co1_0 2.472594 1_556
Co0_1 Co2_1 2.472594 1_555
Co0_1 Co0_7 2.504214 1_555
Co0_1 Co0_7 2.504214 1_445
Co0_1 Co0_5 2.504347 1_455
Co0_1 Co0_3 2.504347 1_555
Co0_1 Co0_3 2.504347 1_545
Co0_1 Co0_5 2.504347 1_555
Co0_2 Co1_1 2.472433 1_555
Co0_2 Co1_7 2.472433 1_555
Co0_2 Co2_0 2.472433 1_555
Co0_2 Co2_6 2.472433 1_555
Co0_2 Co1_3 2.472594 1_555
Co0_2 Co2_2 2.472594 1_555
Co0_2 Co0_4 2.504214 1_565
Co0_2 Co0_4 2.504214 1_455
Co0_2 Co0_6 2.504347 1_555
Co0_2 Co0_6 2.504347 1_455
Co0_3 Co1_0 2.472433 1_556
Co0_3 Co1_6 2.472433 1_556
Co0_3 Co2_1 2.472433 1_555
Co0_3 Co2_7 2.472433 1_555
Co0_3 Co1_2 2.472594 1_556
Co0_3 Co2_3 2.472594 1_555
Co0_3 Co0_5 2.504214 1_565
Co0_3 Co0_5 2.504214 1_455
Co0_3 Co0_7 2.504347 1_555
Co0_3 Co0_7 2.504347 1_455
Co0_4 Co1_7 2.472433 1_545
Co0_4 Co1_1 2.472433 1_655
Co0_4 Co2_6 2.472433 1_545
Co0_4 Co2_0 2.472433 1_655
Co0_4 Co1_5 2.472594 1_555
Co0_4 Co2_4 2.472594 1_555
Co0_4 Co0_6 2.504347 1_545
Co0_4 Co0_6 2.504347 1_555
Co0_5 Co1_6 2.472433 1_546
Co0_5 Co1_0 2.472433 1_656
Co0_5 Co2_7 2.472433 1_545
Co0_5 Co2_1 2.472433 1_655
Co0_5 Co1_4 2.472594 1_556
Co0_5 Co2_5 2.472594 1_555
Co0_5 Co0_7 2.504347 1_545
Co0_5 Co0_7 2.504347 1_555
Co0_6 Co1_5 2.472433 1_555
Co0_6 Co1_3 2.472433 1_655
Co0_6 Co2_4 2.472433 1_555
Co0_6 Co2_2 2.472433 1_655
Co0_6 Co1_7 2.472594 1_555
Co0_6 Co2_6 2.472594 1_555
Co0_7 Co1_4 2.472433 1_556
Co0_7 Co1_2 2.472433 1_656
Co0_7 Co2_5 2.472433 1_555
Co0_7 Co2_3 2.472433 1_655
Co0_7 Co1_6 2.472594 1_556
Co0_7 Co2_7 2.472594 1_555
Co1_0 Cr0_2 2.463308 1_555
Co1_0 Cr0_4 2.463308 1_455
Co1_0 Cr0_0 2.463458 1_555
Co1_0 Co1_6 2.504214 1_555
Co1_0 Co1_6 2.504214 1_445
Co1_0 Co1_2 2.504347 1_545
Co1_0 Co1_2 2.504347 1_555
Co1_0 Co1_4 2.504347 1_555
Co1_0 Co1_4 2.504347 1_455
Co1_1 Cr0_3 2.463308 1_555
Co1_1 Cr0_5 2.463308 1_455
Co1_1 Cr0_1 2.463458 1_555
Co1_1 Co1_7 2.504214 1_555
Co1_1 Co1_7 2.504214 1_445
Co1_1 Co1_3 2.504347 1_545
Co1_1 Co1_5 2.504347 1_555
Co1_1 Co1_3 2.504347 1_555
Co1_1 Co1_5 2.504347 1_455
Co1_2 Cr0_0 2.463308 1_565
Co1_2 Cr0_6 2.463308 1_455
Co1_2 Cr0_2 2.463458 1_555
Co1_2 Co1_4 2.504214 1_455
Co1_2 Co1_4 2.504214 1_565
Co1_2 Co1_6 2.504347 1_455
Co1_2 Co1_6 2.504347 1_555
Co1_3 Cr0_1 2.463308 1_565
Co1_3 Cr0_7 2.463308 1_455
Co1_3 Cr0_3 2.463458 1_555
Co1_3 Co1_5 2.504214 1_455
Co1_3 Co1_5 2.504214 1_565
Co1_3 Co1_7 2.504347 1_455
Co1_3 Co1_7 2.504347 1_555
Co1_4 Cr0_0 2.463308 1_555
Co1_4 Cr0_6 2.463308 1_555
Co1_4 Cr0_4 2.463458 1_555
Co1_4 Co1_6 2.504347 1_555
Co1_4 Co1_6 2.504347 1_545
Co1_5 Cr0_1 2.463308 1_555
Co1_5 Cr0_7 2.463308 1_555
Co1_5 Cr0_5 2.463458 1_555
Co1_5 Co1_7 2.504347 1_545
Co1_5 Co1_7 2.504347 1_555
Co1_6 Cr0_2 2.463308 1_555
Co1_6 Cr0_4 2.463308 1_565
Co1_6 Cr0_6 2.463458 1_555
Co1_7 Cr0_3 2.463308 1_555
Co1_7 Cr0_5 2.463308 1_565
Co1_7 Cr0_7 2.463458 1_555
Co2_0 Cr0_2 2.463308 1_555
Co2_0 Cr0_4 2.463308 1_455
Co2_0 Cr0_0 2.463458 1_555
Co2_0 Co2_6 2.504214 1_555
Co2_0 Co2_6 2.504214 1_445
Co2_0 Co2_2 2.504347 1_545
Co2_0 Co2_4 2.504347 1_555
Co2_0 Co2_2 2.504347 1_555
Co2_0 Co2_4 2.504347 1_455
Co2_1 Cr0_3 2.463308 1_555
Co2_1 Cr0_5 2.463308 1_455
Co2_1 Cr0_1 2.463458 1_555
Co2_1 Co2_7 2.504214 1_445
Co2_1 Co2_7 2.504214 1_555
Co2_1 Co2_3 2.504347 1_545
Co2_1 Co2_3 2.504347 1_555
Co2_1 Co2_5 2.504347 1_555
Co2_1 Co2_5 2.504347 1_455
Co2_2 Cr0_0 2.463308 1_565
Co2_2 Cr0_6 2.463308 1_455
Co2_2 Cr0_2 2.463458 1_555
Co2_2 Co2_4 2.504214 1_565
Co2_2 Co2_4 2.504214 1_455
Co2_2 Co2_6 2.504347 1_455
Co2_2 Co2_6 2.504347 1_555
Co2_3 Cr0_1 2.463308 1_565
Co2_3 Cr0_7 2.463308 1_455
Co2_3 Cr0_3 2.463458 1_555
Co2_3 Co2_5 2.504214 1_565
Co2_3 Co2_5 2.504214 1_455
Co2_3 Co2_7 2.504347 1_455
Co2_3 Co2_7 2.504347 1_555
Co2_4 Cr0_0 2.463308 1_555
Co2_4 Cr0_6 2.463308 1_555
Co2_4 Cr0_4 2.463458 1_555
Co2_4 Co2_6 2.504347 1_555
Co2_4 Co2_6 2.504347 1_545
Co2_5 Cr0_1 2.463308 1_555
Co2_5 Cr0_7 2.463308 1_555
Co2_5 Cr0_5 2.463458 1_555
Co2_5 Co2_7 2.504347 1_545
Co2_5 Co2_7 2.504347 1_555
Co2_6 Cr0_2 2.463308 1_555
Co2_6 Cr0_4 2.463308 1_565
Co2_6 Cr0_6 2.463458 1_555
Co2_7 Cr0_3 2.463308 1_555
Co2_7 Cr0_5 2.463308 1_565
Co2_7 Cr0_7 2.463458 1_555
