# generated using pymatgen
data_KTi3AlO8
_symmetry_space_group_name_H-M   'P 1'
_cell_length_a   2.97209700
_cell_length_b   7.29486879
_cell_length_c   7.31308613
_cell_angle_alpha   92.43104274
_cell_angle_beta   101.66656845
_cell_angle_gamma   78.17209414
_symmetry_Int_Tables_number   1
_chemical_formula_structural   KTi3AlO8
_chemical_formula_sum   'K1 Ti3 Al1 O8'
_cell_volume   151.98280996
_cell_formula_units_Z   1
loop_
 _symmetry_equiv_pos_site_id
 _symmetry_equiv_pos_as_xyz
  1  'x, y, z'
loop_
 _atom_site_type_symbol
 _atom_site_label
 _atom_site_symmetry_multiplicity
 _atom_site_fract_x
 _atom_site_fract_y
 _atom_site_fract_z
 _atom_site_occupancy
  K  K0  1  0.15031600  0.00552000  0.00455400  1
  Ti  Ti0  1  0.32748800  0.51231000  0.16914400  1
  Ti  Ti1  1  0.86280300  0.80465100  0.52369500  1
  Ti  Ti2  1  0.14642600  0.18521000  0.48925700  1
  Al  Al0  1  0.67544600  0.48382900  0.81596200  1
  O  O0  1  0.96980700  0.37373600  0.29068500  1
  O  O1  1  0.05344600  0.61955900  0.70723500  1
  O  O2  1  0.67594300  0.29930300  0.62861900  1
  O  O3  1  0.34230600  0.70862500  0.37299400  1
  O  O4  1  0.71101800  0.64330800  0.04278100  1
  O  O5  1  0.30576100  0.36196300  0.94714100  1
  O  O6  1  0.66913200  0.05262800  0.36207800  1
  O  O7  1  0.36010800  0.94935800  0.64585400  1
loop_
_geom_bond_atom_site_label_1
_geom_bond_atom_site_label_2
_geom_bond_distance
_geom_bond_site_symmetry_2
K0 O5 2.795411 1_554
K0 O6 2.800429 1_555
K0 O7 2.811305 1_544
K0 O4 2.811776 1_545
Al0 O2 1.879514 1_555
Al0 O1 1.937014 1_555
Al0 O1 1.938766 1_655
Al0 O5 1.953691 1_555
Al0 O5 1.970502 1_655
Al0 O4 1.982891 1_556
O0 Ti2 1.959826 1_655
O0 Ti0 1.959827 1_655
O0 Ti0 2.013749 1_555
O1 Ti1 1.865020 1_455
O2 Ti2 1.927179 1_655
O2 Ti2 2.006116 1_555
O3 Ti1 1.946185 1_555
O3 Ti1 1.974021 1_455
O3 Ti0 2.023220 1_555
O4 Ti0 1.948471 1_655
O4 Ti0 2.003495 1_555
O5 Ti0 1.917934 1_556
O6 Ti2 1.940440 1_655
O6 Ti2 2.026329 1_555
O6 Ti1 2.116594 1_545
O7 Ti1 1.989444 1_555
O7 Ti2 2.024860 1_565
O7 Ti1 2.030422 1_455
