# generated using pymatgen
data_Cr4FeCu(SeS)4
_symmetry_space_group_name_H-M   'P 1'
_cell_length_a   7.22721820
_cell_length_b   7.22721820
_cell_length_c   7.22721820
_cell_angle_alpha   60.00000000
_cell_angle_beta   60.00000000
_cell_angle_gamma   60.00000000
_symmetry_Int_Tables_number   1
_chemical_formula_structural   Cr4FeCu(SeS)4
_chemical_formula_sum   'Cr4 Fe1 Cu1 Se4 S4'
_cell_volume   266.93068641
_cell_formula_units_Z   1
loop_
 _symmetry_equiv_pos_site_id
 _symmetry_equiv_pos_as_xyz
  1  'x, y, z'
loop_
 _atom_site_type_symbol
 _atom_site_label
 _atom_site_symmetry_multiplicity
 _atom_site_fract_x
 _atom_site_fract_y
 _atom_site_fract_z
 _atom_site_occupancy
  Cr  Cr0  1  0.64909400  0.11696900  0.11696900  1
  Cr  Cr1  1  0.11696900  0.64909400  0.11696900  1
  Cr  Cr2  1  0.11696900  0.11696900  0.64909400  1
  Cr  Cr3  1  0.11696900  0.11696900  0.11696900  1
  Fe  Fe0  1  0.50000000  0.50000000  0.50000000  1
  Cu  Cu0  1  0.75000000  0.75000000  0.75000000  1
  Se  Se0  1  0.89923200  0.36692300  0.36692300  1
  Se  Se1  1  0.36692300  0.89923200  0.36692300  1
  Se  Se2  1  0.36692300  0.36692300  0.89923200  1
  Se  Se3  1  0.36692300  0.36692300  0.36692300  1
  S  S0  1  0.34963600  0.88345500  0.88345500  1
  S  S1  1  0.88345500  0.34963600  0.88345500  1
  S  S2  1  0.88345500  0.88345500  0.34963600  1
  S  S3  1  0.88345500  0.88345500  0.88345500  1
loop_
_geom_bond_atom_site_label_1
_geom_bond_atom_site_label_2
_geom_bond_distance
_geom_bond_site_symmetry_2
Cr0 S3 2.386715 1_544
Cr0 S2 2.386715 1_545
Cr0 S1 2.386715 1_554
Cr0 Se2 2.565326 1_554
Cr0 Se1 2.565326 1_545
Cr0 Se3 2.565326 1_555
Cr1 S3 2.386715 1_454
Cr1 S0 2.386715 1_554
Cr1 S2 2.386715 1_455
Cr1 Se2 2.565326 1_554
Cr1 Se0 2.565326 1_455
Cr1 Se3 2.565326 1_555
Cr2 S3 2.386715 1_445
Cr2 S1 2.386715 1_455
Cr2 S0 2.386715 1_545
Cr2 Se1 2.565326 1_545
Cr2 Se0 2.565326 1_455
Cr2 Se3 2.565326 1_555
Cr3 S1 2.386715 1_454
Cr3 S0 2.386715 1_544
Cr3 S2 2.386715 1_445
Cr3 Se0 2.565326 1_455
Cr3 Se2 2.565326 1_554
Cr3 Se1 2.565326 1_545
Fe0 Se3 2.355862 1_555
Fe0 Se0 2.355868 1_555
Fe0 Se2 2.355868 1_555
Fe0 Se1 2.355868 1_555
Cu0 S1 2.362548 1_555
Cu0 S0 2.362548 1_555
Cu0 S2 2.362548 1_555
Cu0 S3 2.362553 1_555
