# generated using pymatgen
data_K2(NbS2)3
_symmetry_space_group_name_H-M   'P 1'
_cell_length_a   5.93595313
_cell_length_b   5.93595313
_cell_length_c   15.77503611
_cell_angle_alpha   90.00000000
_cell_angle_beta   90.00000000
_cell_angle_gamma   120.00193833
_symmetry_Int_Tables_number   1
_chemical_formula_structural   K2(NbS2)3
_chemical_formula_sum   'K4 Nb6 S12'
_cell_volume   481.36381142
_cell_formula_units_Z   2
loop_
 _symmetry_equiv_pos_site_id
 _symmetry_equiv_pos_as_xyz
  1  'x, y, z'
loop_
 _atom_site_type_symbol
 _atom_site_label
 _atom_site_symmetry_multiplicity
 _atom_site_fract_x
 _atom_site_fract_y
 _atom_site_fract_z
 _atom_site_occupancy
  K  K0  1  -0.00000404  0.66670705  0.50000000  1
  K  K1  1  0.66670705  -0.00000404  0.50000000  1
  K  K2  1  0.66684412  0.33332891  -0.00000000  1
  K  K3  1  0.33332891  0.66684412  -0.00000000  1
  Nb  Nb0  1  0.66853720  0.33330842  0.25077382  1
  Nb  Nb1  1  0.99810397  0.99810397  0.25099614  1
  Nb  Nb2  1  0.33330842  0.66853720  0.25077382  1
  Nb  Nb3  1  0.66853720  0.33330842  0.74922618  1
  Nb  Nb4  1  0.99810397  0.99810397  0.74900386  1
  Nb  Nb5  1  0.33330842  0.66853720  0.74922618  1
  S  S0  1  0.66701056  0.66701056  0.15326606  1
  S  S1  1  0.00121937  0.33163449  0.15324600  1
  S  S2  1  0.33163449  0.00121937  0.15324600  1
  S  S3  1  0.66701056  0.66701056  0.84673394  1
  S  S4  1  0.00121937  0.33163449  0.84675400  1
  S  S5  1  0.33163449  0.00121937  0.84675400  1
  S  S6  1  0.66330105  0.66330105  0.34819599  1
  S  S7  1  0.00317752  0.33350089  0.34820694  1
  S  S8  1  0.33350089  0.00317752  0.34820694  1
  S  S9  1  0.66330105  0.66330105  0.65180401  1
  S  S10  1  0.00317752  0.33350089  0.65179306  1
  S  S11  1  0.33350089  0.00317752  0.65179306  1
loop_
_geom_bond_atom_site_label_1
_geom_bond_atom_site_label_2
_geom_bond_distance
_geom_bond_site_symmetry_2
K0 S7 3.111850 1_555
K0 S10 3.111850 1_555
K0 S8 3.112530 1_565
K0 S11 3.112530 1_565
K0 S9 3.112728 1_455
K0 S6 3.112728 1_455
K1 S8 3.111850 1_555
K1 S11 3.111850 1_555
K1 S7 3.112530 1_655
K1 S10 3.112530 1_655
K1 S9 3.112728 1_545
K1 S6 3.112728 1_545
K2 S5 3.125199 1_554
K2 S2 3.125199 1_555
K2 S3 3.125210 1_554
K2 S0 3.125210 1_555
K2 S1 3.131095 1_655
K2 S4 3.131095 1_654
K3 S4 3.125199 1_554
K3 S1 3.125199 1_555
K3 S3 3.125210 1_554
K3 S0 3.125210 1_555
K3 S5 3.131095 1_564
K3 S2 3.131095 1_565
Nb0 S8 2.502055 1_555
Nb0 S6 2.502140 1_555
Nb0 S1 2.507289 1_655
Nb0 S7 2.511166 1_655
Nb0 S0 2.511531 1_555
Nb0 S2 2.511930 1_555
Nb1 S0 2.497843 1_555
Nb1 S7 2.501252 1_665
Nb1 S8 2.501252 1_665
Nb1 S2 2.502243 1_665
Nb1 S1 2.502243 1_665
Nb1 S6 2.510086 1_555
Nb2 S7 2.502055 1_555
Nb2 S6 2.502140 1_555
Nb2 S2 2.507289 1_565
Nb2 S8 2.511166 1_565
Nb2 S0 2.511531 1_555
Nb2 S1 2.511930 1_555
Nb3 S11 2.502055 1_555
Nb3 S9 2.502140 1_555
Nb3 S4 2.507289 1_655
Nb3 S10 2.511166 1_655
Nb3 S3 2.511531 1_555
Nb3 S5 2.511930 1_555
Nb4 S3 2.497843 1_555
Nb4 S10 2.501252 1_665
Nb4 S11 2.501252 1_665
Nb4 S5 2.502243 1_665
Nb4 S4 2.502243 1_665
Nb4 S9 2.510086 1_555
Nb5 S10 2.502055 1_555
Nb5 S9 2.502140 1_555
Nb5 S5 2.507289 1_565
Nb5 S11 2.511166 1_565
Nb5 S3 2.511531 1_555
Nb5 S4 2.511930 1_555
