# generated using pymatgen
data_Lu3Al5O12
_symmetry_space_group_name_H-M   'P 1'
_cell_length_a   10.36222952
_cell_length_b   10.36222952
_cell_length_c   10.36222952
_cell_angle_alpha   109.47122063
_cell_angle_beta   109.47122063
_cell_angle_gamma   109.47122063
_symmetry_Int_Tables_number   1
_chemical_formula_structural   Lu3Al5O12
_chemical_formula_sum   'Lu12 Al20 O48'
_cell_volume   856.52043967
_cell_formula_units_Z   4
loop_
 _symmetry_equiv_pos_site_id
 _symmetry_equiv_pos_as_xyz
  1  'x, y, z'
loop_
 _atom_site_type_symbol
 _atom_site_label
 _atom_site_symmetry_multiplicity
 _atom_site_fract_x
 _atom_site_fract_y
 _atom_site_fract_z
 _atom_site_occupancy
  Lu  Lu0  1  0.37500000  0.12500000  0.25000000  1
  Lu  Lu1  1  0.75000000  0.12500000  0.37500000  1
  Lu  Lu2  1  0.25000000  0.37500000  0.12500000  1
  Lu  Lu3  1  0.12500000  0.25000000  0.37500000  1
  Lu  Lu4  1  0.37500000  0.75000000  0.12500000  1
  Lu  Lu5  1  0.12500000  0.37500000  0.75000000  1
  Lu  Lu6  1  0.62500000  0.87500000  0.75000000  1
  Lu  Lu7  1  0.25000000  0.87500000  0.62500000  1
  Lu  Lu8  1  0.75000000  0.62500000  0.87500000  1
  Lu  Lu9  1  0.87500000  0.75000000  0.62500000  1
  Lu  Lu10  1  0.62500000  0.25000000  0.87500000  1
  Lu  Lu11  1  0.87500000  0.62500000  0.25000000  1
  Al  Al0  1  0.00000000  0.00000000  0.00000000  1
  Al  Al1  1  0.50000000  0.00000000  0.00000000  1
  Al  Al2  1  0.00000000  0.50000000  0.00000000  1
  Al  Al3  1  0.00000000  0.00000000  0.50000000  1
  Al  Al4  1  0.50000000  0.50000000  0.00000000  1
  Al  Al5  1  0.00000000  0.50000000  0.50000000  1
  Al  Al6  1  0.50000000  0.00000000  0.50000000  1
  Al  Al7  1  0.50000000  0.50000000  0.50000000  1
  Al  Al8  1  0.62500000  0.37500000  0.25000000  1
  Al  Al9  1  0.75000000  0.37500000  0.62500000  1
  Al  Al10  1  0.25000000  0.12500000  0.87500000  1
  Al  Al11  1  0.87500000  0.25000000  0.12500000  1
  Al  Al12  1  0.12500000  0.87500000  0.25000000  1
  Al  Al13  1  0.87500000  0.12500000  0.75000000  1
  Al  Al14  1  0.25000000  0.62500000  0.37500000  1
  Al  Al15  1  0.37500000  0.25000000  0.62500000  1
  Al  Al16  1  0.75000000  0.87500000  0.12500000  1
  Al  Al17  1  0.12500000  0.75000000  0.87500000  1
  Al  Al18  1  0.37500000  0.62500000  0.75000000  1
  Al  Al19  1  0.62500000  0.75000000  0.37500000  1
  O  O0  1  0.41842800  0.82115600  0.79744500  1
  O  O1  1  0.87901700  0.40272900  0.08157200  1
  O  O2  1  0.09727100  0.97628900  0.67884400  1
  O  O3  1  0.52371100  0.62098300  0.70255500  1
  O  O4  1  0.67884400  0.08157200  0.70255500  1
  O  O5  1  0.62098300  0.70255500  0.52371100  1
  O  O6  1  0.62098300  0.41842800  0.09727100  1
  O  O7  1  0.70255500  0.52371100  0.62098300  1
  O  O8  1  0.82115600  0.52371100  0.40272900  1
  O  O9  1  0.97628900  0.79744500  0.87901700  1
  O  O10  1  0.79744500  0.87901700  0.97628900  1
  O  O11  1  0.70255500  0.67884400  0.08157200  1
  O  O12  1  0.41842800  0.09727100  0.62098300  1
  O  O13  1  0.40272900  0.82115600  0.52371100  1
  O  O14  1  0.08157200  0.70255500  0.67884400  1
  O  O15  1  0.09727100  0.62098300  0.41842800  1
  O  O16  1  0.52371100  0.40272900  0.82115600  1
  O  O17  1  0.08157200  0.87901700  0.40272900  1
  O  O18  1  0.97628900  0.67884400  0.09727100  1
  O  O19  1  0.17884400  0.47628900  0.59727100  1
  O  O20  1  0.67884400  0.09727100  0.97628900  1
  O  O21  1  0.79744500  0.41842800  0.82115600  1
  O  O22  1  0.40272900  0.08157200  0.87901700  1
  O  O23  1  0.87901700  0.97628900  0.79744500  1
  O  O24  1  0.58157200  0.17884400  0.20255500  1
  O  O25  1  0.12098300  0.59727100  0.91842800  1
  O  O26  1  0.90272900  0.02371100  0.32115600  1
  O  O27  1  0.47628900  0.37901700  0.29744500  1
  O  O28  1  0.32115600  0.91842800  0.29744500  1
  O  O29  1  0.37901700  0.29744500  0.47628900  1
  O  O30  1  0.37901700  0.58157200  0.90272900  1
  O  O31  1  0.29744500  0.47628900  0.37901700  1
  O  O32  1  0.12098300  0.02371100  0.20255500  1
  O  O33  1  0.59727100  0.91842800  0.12098300  1
  O  O34  1  0.20255500  0.58157200  0.17884400  1
  O  O35  1  0.17884400  0.20255500  0.58157200  1
  O  O36  1  0.32115600  0.90272900  0.02371100  1
  O  O37  1  0.02371100  0.32115600  0.90272900  1
  O  O38  1  0.91842800  0.12098300  0.59727100  1
  O  O39  1  0.47628900  0.59727100  0.17884400  1
  O  O40  1  0.90272900  0.37901700  0.58157200  1
  O  O41  1  0.91842800  0.29744500  0.32115600  1
  O  O42  1  0.59727100  0.17884400  0.47628900  1
  O  O43  1  0.58157200  0.90272900  0.37901700  1
  O  O44  1  0.29744500  0.32115600  0.91842800  1
  O  O45  1  0.20255500  0.12098300  0.02371100  1
  O  O46  1  0.02371100  0.20255500  0.12098300  1
  O  O47  1  0.82115600  0.79744500  0.41842800  1
loop_
_geom_bond_atom_site_label_1
_geom_bond_atom_site_label_2
_geom_bond_distance
_geom_bond_site_symmetry_2
Lu0 O32 2.285431 1_555
Lu0 O28 2.285431 1_545
Lu0 O27 2.285431 1_555
Lu0 O24 2.285431 1_555
Lu0 O42 2.405223 1_555
Lu0 O36 2.405223 1_545
Lu0 O29 2.405229 1_555
Lu0 O45 2.405229 1_555
Lu1 O40 2.285431 1_555
Lu1 O33 2.285431 1_545
Lu1 O42 2.285440 1_555
Lu1 O26 2.285440 1_555
Lu1 O38 2.405222 1_555
Lu1 O43 2.405222 1_545
Lu1 O41 2.405229 1_555
Lu1 O24 2.405229 1_555
Lu2 O45 2.285431 1_555
Lu2 O44 2.285431 1_554
Lu2 O31 2.285431 1_555
Lu2 O34 2.285431 1_555
Lu2 O39 2.405223 1_555
Lu2 O37 2.405223 1_554
Lu2 O27 2.405229 1_555
Lu2 O46 2.405229 1_555
Lu3 O46 2.285431 1_555
Lu3 O29 2.285431 1_555
Lu3 O41 2.285431 1_455
Lu3 O35 2.285431 1_555
Lu3 O19 2.405223 1_555
Lu3 O26 2.405223 1_455
Lu3 O31 2.405229 1_555
Lu3 O32 2.405229 1_555
Lu4 O43 2.285431 1_555
Lu4 O25 2.285431 1_554
Lu4 O39 2.285440 1_555
Lu4 O36 2.285440 1_555
Lu4 O33 2.405222 1_555
Lu4 O30 2.405222 1_554
Lu4 O28 2.405229 1_555
Lu4 O34 2.405229 1_555
Lu5 O30 2.285431 1_555
Lu5 O38 2.285431 1_455
Lu5 O19 2.285440 1_555
Lu5 O37 2.285440 1_555
Lu5 O25 2.405222 1_555
Lu5 O40 2.405222 1_455
Lu5 O44 2.405229 1_555
Lu5 O35 2.405229 1_555
Lu6 O23 2.285431 1_555
Lu6 O3 2.285431 1_555
Lu6 O4 2.285431 1_565
Lu6 O0 2.285431 1_555
Lu6 O20 2.405223 1_565
Lu6 O13 2.405223 1_555
Lu6 O10 2.405229 1_555
Lu6 O5 2.405229 1_555
Lu7 O22 2.285431 1_565
Lu7 O15 2.285431 1_555
Lu7 O2 2.285440 1_555
Lu7 O13 2.285440 1_555
Lu7 O12 2.405222 1_565
Lu7 O17 2.405222 1_555
Lu7 O0 2.405229 1_555
Lu7 O14 2.405229 1_555
Lu8 O10 2.285431 1_555
Lu8 O7 2.285431 1_555
Lu8 O11 2.285431 1_556
Lu8 O21 2.285431 1_555
Lu8 O18 2.405223 1_556
Lu8 O16 2.405223 1_555
Lu8 O9 2.405229 1_555
Lu8 O3 2.405229 1_555
Lu9 O9 2.285431 1_555
Lu9 O14 2.285431 1_655
Lu9 O5 2.285431 1_555
Lu9 O47 2.285431 1_555
Lu9 O2 2.405223 1_655
Lu9 O8 2.405223 1_555
Lu9 O23 2.405229 1_555
Lu9 O7 2.405229 1_555
Lu10 O1 2.285431 1_556
Lu10 O12 2.285431 1_555
Lu10 O20 2.285440 1_555
Lu10 O16 2.285440 1_555
Lu10 O6 2.405222 1_556
Lu10 O22 2.405222 1_555
Lu10 O21 2.405229 1_555
Lu10 O4 2.405229 1_555
Lu11 O17 2.285431 1_655
Lu11 O6 2.285431 1_555
Lu11 O18 2.285440 1_555
Lu11 O8 2.285440 1_555
Lu11 O15 2.405222 1_655
Lu11 O1 2.405222 1_555
Lu11 O47 2.405229 1_555
Lu11 O11 2.405229 1_555
Al0 O32 1.932388 1_555
Al0 O45 1.932388 1_555
Al0 O46 1.932388 1_555
Al0 O23 1.932388 1_444
Al0 O10 1.932388 1_444
Al0 O9 1.932388 1_444
Al1 O22 1.932383 1_554
Al1 O33 1.932383 1_545
Al1 O36 1.932386 1_545
Al1 O20 1.932386 1_554
Al1 O24 1.932388 1_555
Al1 O0 1.932388 1_544
Al2 O1 1.932383 1_455
Al2 O25 1.932383 1_554
Al2 O18 1.932386 1_455
Al2 O37 1.932386 1_554
Al2 O34 1.932388 1_555
Al2 O21 1.932388 1_454
Al3 O17 1.932383 1_545
Al3 O38 1.932383 1_455
Al3 O26 1.932386 1_455
Al3 O2 1.932386 1_545
Al3 O35 1.932388 1_555
Al3 O47 1.932388 1_445
Al4 O30 1.932383 1_554
Al4 O6 1.932383 1_555
Al4 O16 1.932386 1_554
Al4 O39 1.932386 1_555
Al4 O11 1.932388 1_555
Al4 O44 1.932388 1_554
Al5 O40 1.932383 1_455
Al5 O15 1.932383 1_555
Al5 O8 1.932386 1_455
Al5 O19 1.932386 1_555
Al5 O14 1.932388 1_555
Al5 O41 1.932388 1_455
Al6 O43 1.932383 1_545
Al6 O12 1.932383 1_555
Al6 O13 1.932386 1_545
Al6 O42 1.932386 1_555
Al6 O4 1.932388 1_555
Al6 O28 1.932388 1_545
Al7 O5 1.932388 1_555
Al7 O7 1.932388 1_555
Al7 O3 1.932388 1_555
Al7 O27 1.932388 1_555
Al7 O31 1.932388 1_555
Al7 O29 1.932388 1_555
Al8 O24 1.775454 1_555
Al8 O27 1.775454 1_555
Al8 O8 1.775456 1_555
Al8 O6 1.775464 1_555
Al9 O7 1.775454 1_555
Al9 O21 1.775454 1_555
Al9 O42 1.775456 1_555
Al9 O40 1.775464 1_555
Al10 O44 1.775454 1_555
Al10 O45 1.775454 1_556
Al10 O2 1.775456 1_545
Al10 O22 1.775464 1_555
Al11 O41 1.775454 1_555
Al11 O46 1.775454 1_655
Al11 O20 1.775456 1_554
Al11 O1 1.775464 1_555
Al12 O28 1.775454 1_555
Al12 O32 1.775454 1_565
Al12 O18 1.775456 1_455
Al12 O17 1.775464 1_555
Al13 O4 1.775454 1_555
Al13 O23 1.775454 1_545
Al13 O37 1.775456 1_655
Al13 O38 1.775464 1_555
Al14 O34 1.775454 1_555
Al14 O31 1.775454 1_555
Al14 O13 1.775456 1_555
Al14 O15 1.775464 1_555
Al15 O35 1.775454 1_555
Al15 O29 1.775454 1_555
Al15 O16 1.775456 1_555
Al15 O12 1.775464 1_555
Al16 O11 1.775454 1_555
Al16 O10 1.775454 1_554
Al16 O26 1.775456 1_565
Al16 O33 1.775464 1_555
Al17 O14 1.775454 1_555
Al17 O9 1.775454 1_455
Al17 O36 1.775456 1_556
Al17 O25 1.775464 1_555
Al18 O3 1.775454 1_555
Al18 O0 1.775454 1_555
Al18 O19 1.775456 1_555
Al18 O30 1.775464 1_555
Al19 O5 1.775454 1_555
Al19 O47 1.775454 1_555
Al19 O39 1.775456 1_555
Al19 O43 1.775464 1_555
