# generated using pymatgen
data_Pr12(ReC3)5
_symmetry_space_group_name_H-M   'P 1'
_cell_length_a   11.09264220
_cell_length_b   11.09264220
_cell_length_c   5.40230800
_cell_angle_alpha   90.00000000
_cell_angle_beta   90.00000000
_cell_angle_gamma   120.00000120
_symmetry_Int_Tables_number   1
_chemical_formula_structural   Pr12(ReC3)5
_chemical_formula_sum   'Pr12 Re5 C15'
_cell_volume   575.67845613
_cell_formula_units_Z   1
loop_
 _symmetry_equiv_pos_site_id
 _symmetry_equiv_pos_as_xyz
  1  'x, y, z'
loop_
 _atom_site_type_symbol
 _atom_site_label
 _atom_site_symmetry_multiplicity
 _atom_site_fract_x
 _atom_site_fract_y
 _atom_site_fract_z
 _atom_site_occupancy
  Pr  Pr0  1  0.72978500  0.18748100  0.00000000  1
  Pr  Pr1  1  0.81251900  0.54230400  0.00000000  1
  Pr  Pr2  1  0.45769600  0.27021500  0.00000000  1
  Pr  Pr3  1  0.18748100  0.72978500  0.00000000  1
  Pr  Pr4  1  0.54230400  0.81251900  0.00000000  1
  Pr  Pr5  1  0.27021500  0.45769600  0.00000000  1
  Pr  Pr6  1  0.57636200  0.57636200  0.50000000  1
  Pr  Pr7  1  0.42363800  0.00000000  0.50000000  1
  Pr  Pr8  1  0.00000000  0.42363800  0.50000000  1
  Pr  Pr9  1  0.20435100  0.20435100  0.50000000  1
  Pr  Pr10  1  0.79564900  0.00000000  0.50000000  1
  Pr  Pr11  1  0.00000000  0.79564900  0.50000000  1
  Re  Re0  1  0.84582500  0.84582500  0.00000000  1
  Re  Re1  1  0.15417500  0.00000000  0.00000000  1
  Re  Re2  1  0.00000000  0.15417500  0.00000000  1
  Re  Re3  1  0.66666700  0.33333300  0.50000000  1
  Re  Re4  1  0.33333300  0.66666700  0.50000000  1
  C  C0  1  0.71834700  0.19277500  0.50000000  1
  C  C1  1  0.80722500  0.52557200  0.50000000  1
  C  C2  1  0.47442800  0.28165300  0.50000000  1
  C  C3  1  0.19277500  0.71834700  0.50000000  1
  C  C4  1  0.52557200  0.80722500  0.50000000  1
  C  C5  1  0.28165300  0.47442800  0.50000000  1
  C  C6  1  0.67095000  0.67095000  0.00000000  1
  C  C7  1  0.32905000  0.00000000  0.00000000  1
  C  C8  1  0.00000000  0.32905000  0.00000000  1
  C  C9  1  0.54889000  0.54889000  0.00000000  1
  C  C10  1  0.45111000  0.00000000  0.00000000  1
  C  C11  1  0.00000000  0.45111000  0.00000000  1
  C  C12  1  0.20490200  0.20490200  0.00000000  1
  C  C13  1  0.79509800  0.00000000  0.00000000  1
  C  C14  1  0.00000000  0.79509800  0.00000000  1
loop_
_geom_bond_atom_site_label_1
_geom_bond_atom_site_label_2
_geom_bond_distance
_geom_bond_site_symmetry_2
C0 Re3 1.911395 1_555
C0 Pr10 2.672376 1_555
C0 Pr0 2.706147 1_555
C0 Pr0 2.706147 1_556
C0 Pr7 2.875607 1_555
C0 Pr8 2.884148 1_655
C1 Re3 1.911403 1_555
C1 Pr11 2.672376 1_655
C1 Pr1 2.706147 1_556
C1 Pr1 2.706147 1_555
C1 Pr8 2.875607 1_655
C1 Pr6 2.884148 1_555
C2 Re3 1.911406 1_555
C2 Pr9 2.672376 1_555
C2 Pr2 2.706147 1_555
C2 Pr2 2.706147 1_556
C2 Pr6 2.875607 1_555
C2 Pr7 2.884148 1_555
C3 Re4 1.911395 1_555
C3 Pr11 2.672376 1_555
C3 Pr3 2.706147 1_555
C3 Pr3 2.706147 1_556
C3 Pr8 2.875607 1_555
C3 Pr7 2.884148 1_565
C4 Re4 1.911403 1_555
C4 Pr10 2.672376 1_565
C4 Pr4 2.706147 1_556
C4 Pr4 2.706147 1_555
C4 Pr7 2.875607 1_565
C4 Pr6 2.884148 1_555
C5 Re4 1.911406 1_555
C5 Pr9 2.672376 1_555
C5 Pr5 2.706147 1_555
C5 Pr5 2.706147 1_556
C5 Pr6 2.875607 1_555
C5 Pr8 2.884148 1_555
C6 C9 1.353968 1_555
C6 Re0 1.939826 1_555
C6 Pr4 2.596812 1_555
C6 Pr1 2.596812 1_555
C6 Pr6 2.897778 1_554
C6 Pr6 2.897778 1_555
C7 Re1 1.939826 1_555
C7 Pr3 2.596812 1_545
C7 Pr2 2.596812 1_555
C7 Pr7 2.897778 1_554
C7 Pr7 2.897778 1_555
C8 Re2 1.939826 1_555
C8 Pr0 2.596812 1_455
C8 Pr5 2.596812 1_555
C8 Pr8 2.897778 1_555
C8 Pr8 2.897778 1_554
C9 Pr6 2.718289 1_554
C9 Pr6 2.718289 1_555
C9 Pr2 2.729841 1_555
C9 Pr5 2.729841 1_555
C10 C7 1.353968 1_555
C10 Pr7 2.718289 1_554
C10 Pr7 2.718289 1_555
C10 Pr0 2.729841 1_555
C10 Pr4 2.729841 1_545
C11 C8 1.353968 1_555
C11 Pr8 2.718289 1_555
C11 Pr8 2.718289 1_554
C11 Pr3 2.729841 1_555
C11 Pr1 2.729841 1_455
C12 Re1 2.050309 1_555
C12 Re2 2.050309 1_555
C12 Pr5 2.521225 1_555
C12 Pr2 2.521225 1_555
C12 Pr9 2.701161 1_555
C12 Pr9 2.701161 1_554
C13 Re2 2.050309 1_655
C13 Re0 2.050309 1_545
C13 Pr4 2.521225 1_545
C13 Pr0 2.521225 1_555
C13 Pr10 2.701161 1_555
C13 Pr10 2.701161 1_554
C14 Re1 2.050309 1_565
C14 Re0 2.050309 1_455
C14 Pr1 2.521225 1_455
C14 Pr3 2.521225 1_555
C14 Pr11 2.701161 1_555
C14 Pr11 2.701161 1_554
