# generated using pymatgen
data_Te16Rh15
_symmetry_space_group_name_H-M   'P 1'
_cell_length_a   8.03284605
_cell_length_b   8.99329574
_cell_length_c   8.99317792
_cell_angle_alpha   78.76930834
_cell_angle_beta   90.00000000
_cell_angle_gamma   90.00000000
_symmetry_Int_Tables_number   1
_chemical_formula_structural   Te16Rh15
_chemical_formula_sum   'Te16 Rh15'
_cell_volume   637.24220286
_cell_formula_units_Z   1
loop_
 _symmetry_equiv_pos_site_id
 _symmetry_equiv_pos_as_xyz
  1  'x, y, z'
loop_
 _atom_site_type_symbol
 _atom_site_label
 _atom_site_symmetry_multiplicity
 _atom_site_fract_x
 _atom_site_fract_y
 _atom_site_fract_z
 _atom_site_occupancy
  Te  Te0  1  0.24670865  0.54488737  0.28752286  1
  Te  Te1  1  0.00000000  0.28613048  0.05311237  1
  Te  Te2  1  0.74631509  0.04314587  0.79113866  1
  Te  Te3  1  0.50000000  0.79229607  0.53759967  1
  Te  Te4  1  0.00000000  0.71386952  0.94688763  1
  Te  Te5  1  0.75329135  0.45511263  0.71247714  1
  Te  Te6  1  0.50000000  0.20770393  0.46240033  1
  Te  Te7  1  0.25368491  0.95685413  0.20886134  1
  Te  Te8  1  0.50000000  0.29403776  0.03938328  1
  Te  Te9  1  0.25368491  0.04314587  0.79113866  1
  Te  Te10  1  0.00000000  0.79072250  0.53850055  1
  Te  Te11  1  0.75329135  0.54488737  0.28752286  1
  Te  Te12  1  0.74631509  0.95685413  0.20886134  1
  Te  Te13  1  0.50000000  0.70596224  0.96061672  1
  Te  Te14  1  0.24670865  0.45511263  0.71247714  1
  Te  Te15  1  0.00000000  0.20927750  0.46149945  1
  Rh  Rh0  1  0.23616632  0.50000000  0.00000000  1
  Rh  Rh1  1  0.00000000  0.25600981  0.76338593  1
  Rh  Rh2  1  0.73795120  -0.00000000  0.50000000  1
  Rh  Rh3  1  0.50000000  0.73722235  0.26079674  1
  Rh  Rh4  1  0.00000000  0.74399019  0.23661407  1
  Rh  Rh5  1  0.76383368  0.50000000  0.00000000  1
  Rh  Rh6  1  0.50000000  0.26277765  0.73920326  1
  Rh  Rh7  1  0.26204880  -0.00000000  0.50000000  1
  Rh  Rh8  1  0.00000000  0.50000000  0.50000000  1
  Rh  Rh9  1  0.74629229  0.25602241  0.25636655  1
  Rh  Rh10  1  0.50000000  -0.00000000  0.00000000  1
  Rh  Rh11  1  0.25370771  0.74397759  0.74363345  1
  Rh  Rh12  1  0.25370771  0.25602241  0.25636655  1
  Rh  Rh13  1  0.00000000  -0.00000000  0.00000000  1
  Rh  Rh14  1  0.74629229  0.74397759  0.74363345  1
loop_
_geom_bond_atom_site_label_1
_geom_bond_atom_site_label_2
_geom_bond_distance
_geom_bond_site_symmetry_2
Rh0 Te1 2.677438 1_555
Rh0 Te4 2.677438 1_554
Rh0 Te0 2.694958 1_555
Rh0 Te14 2.694958 1_554
Rh0 Te13 2.791491 1_554
Rh0 Te8 2.791491 1_555
Rh1 Te5 2.650269 1_455
Rh1 Te14 2.650269 1_555
Rh1 Te1 2.671564 1_556
Rh1 Te9 2.773732 1_555
Rh1 Te2 2.773732 1_455
Rh1 Rh13 2.814352 1_556
Rh1 Te15 2.826989 1_555
Rh2 Te6 2.647842 1_555
Rh2 Te3 2.647842 1_545
Rh2 Te2 2.721415 1_555
Rh2 Te12 2.721415 1_545
Rh2 Te10 2.799883 1_645
Rh2 Te15 2.799883 1_655
Rh3 Te3 2.631042 1_555
Rh3 Te11 2.650959 1_555
Rh3 Te0 2.650959 1_555
Rh3 Te13 2.768094 1_554
Rh3 Te12 2.770409 1_555
Rh3 Te7 2.770409 1_555
Rh4 Te11 2.650269 1_455
Rh4 Te0 2.650269 1_555
Rh4 Te4 2.671564 1_554
Rh4 Te7 2.773732 1_555
Rh4 Te12 2.773732 1_455
Rh4 Te10 2.826989 1_555
Rh5 Te1 2.677438 1_655
Rh5 Te4 2.677438 1_654
Rh5 Te11 2.694958 1_555
Rh5 Te5 2.694958 1_554
Rh5 Te13 2.791491 1_554
Rh5 Te8 2.791491 1_555
Rh6 Te6 2.631042 1_555
Rh6 Te14 2.650959 1_555
Rh6 Te5 2.650959 1_555
Rh6 Te8 2.768094 1_556
Rh6 Te2 2.770409 1_555
Rh6 Te9 2.770409 1_555
Rh7 Te3 2.647842 1_545
Rh7 Te6 2.647842 1_555
Rh7 Te9 2.721415 1_555
Rh7 Te7 2.721415 1_545
Rh7 Te10 2.799883 1_545
Rh7 Te15 2.799883 1_555
Rh8 Te10 2.703404 1_555
Rh8 Te15 2.703404 1_555
Rh8 Te5 2.727864 1_455
Rh8 Te11 2.727864 1_455
Rh8 Te14 2.727864 1_555
Rh8 Te0 2.727864 1_555
Rh9 Te11 2.667211 1_555
Rh9 Te6 2.687491 1_555
Rh9 Te1 2.715727 1_655
Rh9 Te15 2.726048 1_655
Rh9 Te8 2.753005 1_555
Rh9 Te12 2.805190 1_545
Rh10 Te12 2.703642 1_545
Rh10 Te2 2.703642 1_554
Rh10 Te9 2.703642 1_554
Rh10 Te7 2.703642 1_545
Rh10 Te8 2.735498 1_555
Rh10 Te13 2.735498 1_544
Rh11 Te14 2.667211 1_555
Rh11 Te3 2.687491 1_555
Rh11 Te4 2.715727 1_555
Rh11 Te10 2.726048 1_555
Rh11 Te13 2.753005 1_555
Rh11 Te9 2.805190 1_565
Rh12 Te0 2.667211 1_555
Rh12 Te6 2.687491 1_555
Rh12 Te1 2.715727 1_555
Rh12 Te15 2.726048 1_555
Rh12 Te8 2.753005 1_555
Rh12 Te7 2.805190 1_545
Rh13 Te4 2.707131 1_544
Rh13 Te1 2.707131 1_555
Rh13 Te7 2.747264 1_545
Rh13 Te9 2.747264 1_554
Rh13 Te2 2.747264 1_454
Rh13 Te12 2.747264 1_445
Rh13 Rh4 2.814352 1_545
Rh14 Te5 2.667211 1_555
Rh14 Te3 2.687491 1_555
Rh14 Te4 2.715727 1_655
Rh14 Te10 2.726048 1_655
Rh14 Te13 2.753005 1_555
Rh14 Te2 2.805190 1_565
