# generated using pymatgen
data_RbNa2CrF6
_symmetry_space_group_name_H-M   'P 1'
_cell_length_a   6.37677700
_cell_length_b   6.37677599
_cell_length_c   6.37677626
_cell_angle_alpha   59.99999836
_cell_angle_beta   60.00000134
_cell_angle_gamma   59.99999995
_symmetry_Int_Tables_number   1
_chemical_formula_structural   RbNa2CrF6
_chemical_formula_sum   'Rb1 Na2 Cr1 F6'
_cell_volume   183.35323245
_cell_formula_units_Z   1
loop_
 _symmetry_equiv_pos_site_id
 _symmetry_equiv_pos_as_xyz
  1  'x, y, z'
loop_
 _atom_site_type_symbol
 _atom_site_label
 _atom_site_symmetry_multiplicity
 _atom_site_fract_x
 _atom_site_fract_y
 _atom_site_fract_z
 _atom_site_occupancy
  Rb  Rb0  1  0.50000000  0.50000000  0.50000000  1
  Na  Na0  1  0.25000000  0.25000000  0.25000000  1
  Na  Na1  1  0.75000000  0.75000000  0.75000000  1
  Cr  Cr0  1  0.00000000  0.00000000  0.00000000  1
  F  F0  1  0.21344200  0.78655800  0.21344200  1
  F  F1  1  0.78655800  0.78655800  0.21344200  1
  F  F2  1  0.78655800  0.21344200  0.78655800  1
  F  F3  1  0.78655800  0.21344200  0.21344200  1
  F  F4  1  0.21344200  0.78655800  0.78655800  1
  F  F5  1  0.21344200  0.21344200  0.78655800  1
loop_
_geom_bond_atom_site_label_1
_geom_bond_atom_site_label_2
_geom_bond_distance
_geom_bond_site_symmetry_2
Cr0 F3 1.924846 1_455
Cr0 F4 1.924846 1_544
Cr0 F0 1.924846 1_545
Cr0 F5 1.924846 1_554
Cr0 F1 1.924846 1_445
Cr0 F2 1.924846 1_454
F0 Rb0 2.584216 1_555
F1 Rb0 2.584216 1_555
F2 Rb0 2.584216 1_555
F3 Rb0 2.584215 1_555
F4 Rb0 2.584215 1_555
F5 Rb0 2.584216 1_555
