# generated using pymatgen
data_Mg3FeN3
_symmetry_space_group_name_H-M   'P 1'
_cell_length_a   6.31737310
_cell_length_b   6.13336319
_cell_length_c   4.33643800
_cell_angle_alpha   90.00000000
_cell_angle_beta   90.00000000
_cell_angle_gamma   101.09276915
_symmetry_Int_Tables_number   1
_chemical_formula_structural   Mg3FeN3
_chemical_formula_sum   'Mg6 Fe2 N6'
_cell_volume   164.88367257
_cell_formula_units_Z   2
loop_
 _symmetry_equiv_pos_site_id
 _symmetry_equiv_pos_as_xyz
  1  'x, y, z'
loop_
 _atom_site_type_symbol
 _atom_site_label
 _atom_site_symmetry_multiplicity
 _atom_site_fract_x
 _atom_site_fract_y
 _atom_site_fract_z
 _atom_site_occupancy
  Mg  Mg0  1  0.86671600  0.60463000  0.25000000  1
  Mg  Mg1  1  0.88503100  0.09465400  0.25000000  1
  Mg  Mg2  1  0.37100100  0.18878400  0.25000000  1
  Mg  Mg3  1  0.13328400  0.39537000  0.75000000  1
  Mg  Mg4  1  0.11496900  0.90534600  0.75000000  1
  Mg  Mg5  1  0.62899900  0.81121600  0.75000000  1
  Fe  Fe0  1  0.68210300  0.30195900  0.75000000  1
  Fe  Fe1  1  0.31789700  0.69804100  0.25000000  1
  N  N0  1  0.85056500  0.57977900  0.75000000  1
  N  N1  1  0.87094800  0.11137100  0.75000000  1
  N  N2  1  0.39912800  0.19334400  0.75000000  1
  N  N3  1  0.14943500  0.42022100  0.25000000  1
  N  N4  1  0.12905200  0.88862900  0.25000000  1
  N  N5  1  0.60087200  0.80665600  0.25000000  1
loop_
_geom_bond_atom_site_label_1
_geom_bond_atom_site_label_2
_geom_bond_distance
_geom_bond_site_symmetry_2
Mg0 N4 2.160984 1_655
Mg0 N0 2.174588 1_555
Mg0 N0 2.174588 1_554
Mg0 N5 2.270821 1_555
Mg0 N3 2.290532 1_655
Mg1 N4 2.173193 1_645
Mg1 N1 2.173272 1_555
Mg1 N1 2.173272 1_554
Mg1 N5 2.263298 1_545
Mg1 N3 2.343904 1_655
Mg2 N4 2.154674 1_545
Mg2 N2 2.175228 1_554
Mg2 N2 2.175228 1_555
Mg2 N3 2.176853 1_555
Mg3 N1 2.160984 1_455
Mg3 N3 2.174588 1_556
Mg3 N3 2.174588 1_555
Mg3 N2 2.270821 1_555
Mg3 N0 2.290532 1_455
Mg4 N1 2.173193 1_465
Mg4 N4 2.173272 1_556
Mg4 N4 2.173272 1_555
Mg4 N2 2.263298 1_565
Mg4 N0 2.343904 1_455
Mg5 N1 2.154674 1_565
Mg5 N5 2.175228 1_555
Mg5 N5 2.175228 1_556
Mg5 N0 2.176853 1_555
Fe0 N2 1.783609 1_555
Fe0 N1 1.823818 1_555
Fe0 N0 1.827106 1_555
Fe1 N5 1.783609 1_555
Fe1 N4 1.823818 1_555
Fe1 N3 1.827106 1_555
