# generated using pymatgen
data_Cs2Bi2Pd
_symmetry_space_group_name_H-M   'P 1'
_cell_length_a   8.62374257
_cell_length_b   8.62374257
_cell_length_c   7.00420109
_cell_angle_alpha   90.00000000
_cell_angle_beta   90.00000000
_cell_angle_gamma   126.46962233
_symmetry_Int_Tables_number   1
_chemical_formula_structural   Cs2Bi2Pd
_chemical_formula_sum   'Cs4 Bi4 Pd2'
_cell_volume   418.88922018
_cell_formula_units_Z   2
loop_
 _symmetry_equiv_pos_site_id
 _symmetry_equiv_pos_as_xyz
  1  'x, y, z'
loop_
 _atom_site_type_symbol
 _atom_site_label
 _atom_site_symmetry_multiplicity
 _atom_site_fract_x
 _atom_site_fract_y
 _atom_site_fract_z
 _atom_site_occupancy
  Cs  Cs0  1  0.60527203  0.39472797  0.75000000  1
  Cs  Cs1  1  0.39472797  0.60527203  0.25000000  1
  Cs  Cs2  1  0.19385357  0.80614643  0.75000000  1
  Cs  Cs3  1  0.80614643  0.19385357  0.25000000  1
  Bi  Bi0  1  0.70970861  0.90888729  0.75000000  1
  Bi  Bi1  1  0.90888729  0.70970861  0.25000000  1
  Bi  Bi2  1  0.29029139  0.09111271  0.25000000  1
  Bi  Bi3  1  0.09111271  0.29029139  0.75000000  1
  Pd  Pd0  1  -0.00000000  -0.00000000  -0.00000000  1
  Pd  Pd1  1  -0.00000000  -0.00000000  0.50000000  1
loop_
_geom_bond_atom_site_label_1
_geom_bond_atom_site_label_2
_geom_bond_distance
_geom_bond_site_symmetry_2
Cs2 Pd0 3.460922 1_566
Cs2 Pd1 3.460922 1_565
Cs3 Pd0 3.460922 1_655
Cs3 Pd1 3.460922 1_655
Bi0 Pd0 2.759021 1_666
Bi0 Pd1 2.759021 1_665
Bi0 Bi3 2.962422 1_665
Bi0 Cs0 3.965348 1_555
Bi0 Cs2 3.986155 1_555
Bi0 Cs3 4.070126 1_565
Bi0 Cs3 4.070126 1_566
Bi0 Cs1 4.247789 1_555
Bi0 Cs1 4.247789 1_556
Bi1 Pd0 2.759021 1_665
Bi1 Pd1 2.759021 1_665
Bi1 Bi2 2.962422 1_665
Bi1 Cs1 3.965348 1_555
Bi1 Cs3 3.986155 1_555
Bi1 Cs2 4.070126 1_654
Bi1 Cs2 4.070126 1_655
Bi1 Cs0 4.247789 1_554
Bi1 Cs0 4.247789 1_555
Bi2 Pd1 2.759021 1_555
Bi2 Pd0 2.759021 1_555
Bi2 Cs1 3.965348 1_555
Bi2 Cs3 3.986155 1_555
Bi2 Cs2 4.070126 1_545
Bi2 Cs2 4.070126 1_544
Bi2 Cs0 4.247789 1_554
Bi2 Cs0 4.247789 1_555
Bi3 Pd0 2.759021 1_556
Bi3 Pd1 2.759021 1_555
Bi3 Cs0 3.965348 1_555
Bi3 Cs2 3.986155 1_555
Bi3 Cs3 4.070126 1_456
Bi3 Cs3 4.070126 1_455
Bi3 Cs1 4.247789 1_555
Bi3 Cs1 4.247789 1_556
