# generated using pymatgen
data_Tm(FeGe)6
_symmetry_space_group_name_H-M   'P 1'
_cell_length_a   14.11395445
_cell_length_b   14.11395445
_cell_length_c   14.11395445
_cell_angle_alpha   159.05035841
_cell_angle_beta   146.61632791
_cell_angle_gamma   39.74481048
_symmetry_Int_Tables_number   1
_chemical_formula_structural   Tm(FeGe)6
_chemical_formula_sum   'Tm3 Fe18 Ge18'
_cell_volume   552.28791351
_cell_formula_units_Z   3
loop_
 _symmetry_equiv_pos_site_id
 _symmetry_equiv_pos_as_xyz
  1  'x, y, z'
loop_
 _atom_site_type_symbol
 _atom_site_label
 _atom_site_symmetry_multiplicity
 _atom_site_fract_x
 _atom_site_fract_y
 _atom_site_fract_z
 _atom_site_occupancy
  Tm  Tm0  1  0.16776100  0.66776100  0.50000000  1
  Tm  Tm1  1  0.83223900  0.33223900  0.50000000  1
  Tm  Tm2  1  0.00000000  0.00000000  0.00000000  1
  Fe  Fe0  1  0.24983000  0.50000000  0.74983000  1
  Fe  Fe1  1  0.75017000  0.50000000  0.25017000  1
  Fe  Fe2  1  0.50000000  0.00000000  0.00000000  1
  Fe  Fe3  1  0.00000000  0.00000000  0.50000000  1
  Fe  Fe4  1  0.00000000  0.50000000  0.00000000  1
  Fe  Fe5  1  0.50000000  0.50000000  0.50000000  1
  Fe  Fe6  1  0.58355000  0.83346700  0.75008300  1
  Fe  Fe7  1  0.91661600  0.16653300  0.75008300  1
  Fe  Fe8  1  0.08338400  0.83346700  0.24991700  1
  Fe  Fe9  1  0.41645000  0.16653300  0.24991700  1
  Fe  Fe10  1  0.33313400  0.83348100  0.99991500  1
  Fe  Fe11  1  0.16643400  0.16651900  0.49965300  1
  Fe  Fe12  1  0.83356600  0.33321900  0.00008500  1
  Fe  Fe13  1  0.66686600  0.66678100  0.50034700  1
  Fe  Fe14  1  0.66686600  0.16651900  0.00008500  1
  Fe  Fe15  1  0.83356600  0.83348100  0.50034700  1
  Fe  Fe16  1  0.16643400  0.66678100  0.99991500  1
  Fe  Fe17  1  0.33313400  0.33321900  0.49965300  1
  Ge  Ge0  1  0.05544200  0.55544200  0.50000000  1
  Ge  Ge1  1  0.94455800  0.44455800  0.50000000  1
  Ge  Ge2  1  0.55530100  0.55530100  0.00000000  1
  Ge  Ge3  1  0.44469900  0.44469900  0.00000000  1
  Ge  Ge4  1  0.11224100  0.11224100  0.00000000  1
  Ge  Ge5  1  0.88775900  0.88775900  0.00000000  1
  Ge  Ge6  1  0.61045100  0.11045100  0.50000000  1
  Ge  Ge7  1  0.38954900  0.88954900  0.50000000  1
  Ge  Ge8  1  0.22318600  0.22318600  0.00000000  1
  Ge  Ge9  1  0.77681400  0.77681400  0.00000000  1
  Ge  Ge10  1  0.72042700  0.22042700  0.50000000  1
  Ge  Ge11  1  0.27957300  0.77957300  0.50000000  1
  Ge  Ge12  1  0.34568700  0.00000000  0.34568700  1
  Ge  Ge13  1  0.65431300  0.00000000  0.65431300  1
  Ge  Ge14  1  0.51283000  0.66636900  0.84646100  1
  Ge  Ge15  1  0.18009100  0.33363100  0.84646100  1
  Ge  Ge16  1  0.81990900  0.66636900  0.15353900  1
  Ge  Ge17  1  0.48717000  0.33363100  0.15353900  1
loop_
_geom_bond_atom_site_label_1
_geom_bond_atom_site_label_2
_geom_bond_distance
_geom_bond_site_symmetry_2
Fe0 Ge0 2.503822 1_555
Fe0 Ge1 2.503822 1_455
Fe0 Ge2 2.503856 1_556
Fe0 Ge3 2.503856 1_556
Fe0 Fe10 2.558080 1_555
Fe0 Fe11 2.558080 1_555
Fe0 Fe16 2.558080 1_555
Fe0 Fe17 2.558080 1_555
Fe0 Ge12 2.681080 1_566
Fe0 Ge12 2.681080 1_555
Fe0 Tm2 3.269105 1_566
Fe0 Tm2 3.269105 1_555
Fe1 Ge0 2.503822 1_655
Fe1 Ge1 2.503822 1_555
Fe1 Ge2 2.503856 1_555
Fe1 Ge3 2.503856 1_555
Fe1 Fe15 2.558080 1_555
Fe1 Fe12 2.558080 1_555
Fe1 Fe13 2.558080 1_555
Fe1 Fe14 2.558080 1_555
Fe1 Ge13 2.681080 1_565
Fe1 Ge13 2.681080 1_554
Fe1 Tm2 3.269105 1_666
Fe1 Tm2 3.269105 1_655
Fe2 Ge9 2.502240 1_545
Fe2 Ge8 2.502240 1_555
Fe2 Ge11 2.524053 1_544
Fe2 Ge10 2.524053 1_555
Fe2 Fe9 2.560431 1_555
Fe2 Fe6 2.560431 1_544
Fe2 Fe5 2.565965 1_555
Fe2 Fe5 2.565965 1_544
Fe2 Ge14 2.680814 1_544
Fe2 Ge17 2.680814 1_555
Fe2 Tm1 3.243587 1_555
Fe2 Tm0 3.243587 1_544
Fe3 Ge8 2.502240 1_556
Fe3 Ge9 2.502240 1_445
Fe3 Ge11 2.524053 1_545
Fe3 Ge10 2.524053 1_455
Fe3 Fe7 2.560431 1_455
Fe3 Fe8 2.560431 1_545
Fe3 Fe4 2.565965 1_556
Fe3 Fe4 2.565965 1_545
Fe3 Ge16 2.680803 1_445
Fe3 Ge15 2.680803 1_555
Fe3 Tm1 3.243587 1_455
Fe3 Tm0 3.243587 1_545
Fe4 Ge8 2.502240 1_555
Fe4 Ge9 2.502240 1_455
Fe4 Ge11 2.524053 1_555
Fe4 Ge10 2.524053 1_454
Fe4 Fe7 2.560431 1_454
Fe4 Fe8 2.560431 1_555
Fe4 Ge16 2.680801 1_455
Fe4 Ge15 2.680801 1_554
Fe4 Tm1 3.243587 1_454
Fe4 Tm0 3.243587 1_555
Fe5 Ge8 2.502240 1_555
Fe5 Ge9 2.502240 1_556
Fe5 Ge11 2.524053 1_555
Fe5 Ge10 2.524053 1_555
Fe5 Fe9 2.560431 1_555
Fe5 Fe6 2.560431 1_555
Fe5 Ge14 2.680814 1_555
Fe5 Ge17 2.680814 1_555
Fe5 Tm1 3.243587 1_555
Fe5 Tm0 3.243587 1_555
Fe6 Ge11 2.481564 1_555
Fe6 Ge5 2.486573 1_556
Fe6 Ge7 2.515500 1_555
Fe6 Ge9 2.523420 1_556
Fe6 Ge17 2.682703 1_566
Fe6 Ge17 2.682703 1_555
Fe6 Tm1 3.269705 1_555
Fe6 Tm1 3.269705 1_566
Fe7 Ge10 2.481564 1_555
Fe7 Ge4 2.486573 1_656
Fe7 Ge6 2.515500 1_555
Fe7 Ge8 2.523420 1_656
Fe7 Ge16 2.682700 1_556
Fe7 Ge16 2.682705 1_545
Fe7 Tm0 3.269705 1_656
Fe7 Tm0 3.269705 1_645
Fe8 Ge11 2.481564 1_555
Fe8 Ge5 2.486573 1_455
Fe8 Ge7 2.515500 1_555
Fe8 Ge9 2.523420 1_455
Fe8 Ge15 2.682700 1_554
Fe8 Ge15 2.682705 1_565
Fe8 Tm1 3.269705 1_454
Fe8 Tm1 3.269705 1_465
Fe9 Ge10 2.481564 1_555
Fe9 Ge4 2.486573 1_555
Fe9 Ge6 2.515500 1_555
Fe9 Ge8 2.523420 1_555
Fe9 Ge14 2.682703 1_555
Fe9 Ge14 2.682703 1_544
Fe9 Tm0 3.269705 1_555
Fe9 Tm0 3.269705 1_544
Fe10 Ge6 2.505492 1_566
Fe10 Ge0 2.509587 1_555
Fe10 Ge2 2.513521 1_556
Fe10 Ge4 2.516729 1_566
Fe10 Fe9 2.553571 1_566
Fe10 Fe17 2.564620 1_566
Fe10 Fe17 2.567310 1_555
Fe10 Ge14 2.668212 1_555
Fe10 Ge12 2.672998 1_566
Fe10 Tm2 3.262160 1_566
Fe10 Tm0 3.281856 1_555
Fe11 Ge7 2.505492 1_545
Fe11 Ge1 2.509587 1_455
Fe11 Ge3 2.513521 1_556
Fe11 Ge5 2.516729 1_445
Fe11 Fe8 2.553571 1_545
Fe11 Fe16 2.564620 1_544
Fe11 Fe16 2.567310 1_555
Fe11 Ge15 2.668223 1_555
Fe11 Ge12 2.672998 1_555
Fe11 Tm2 3.262160 1_555
Fe11 Tm1 3.281856 1_455
Fe12 Ge6 2.505492 1_554
Fe12 Ge0 2.509587 1_655
Fe12 Ge2 2.513521 1_555
Fe12 Ge4 2.516729 1_655
Fe12 Fe7 2.553571 1_554
Fe12 Fe15 2.564620 1_544
Fe12 Fe15 2.567310 1_555
Fe12 Ge16 2.668221 1_555
Fe12 Ge13 2.672998 1_554
Fe12 Tm2 3.262160 1_655
Fe12 Tm0 3.281856 1_655
Fe13 Ge7 2.505492 1_555
Fe13 Ge1 2.509587 1_555
Fe13 Ge3 2.513521 1_555
Fe13 Ge5 2.516729 1_556
Fe13 Fe6 2.553571 1_555
Fe13 Fe14 2.564620 1_566
Fe13 Fe14 2.567310 1_555
Fe13 Ge17 2.668212 1_555
Fe13 Ge13 2.672998 1_565
Fe13 Tm2 3.262160 1_666
Fe13 Tm1 3.281856 1_555
Fe14 Ge7 2.505492 1_544
Fe14 Ge1 2.509587 1_555
Fe14 Ge3 2.513521 1_555
Fe14 Ge5 2.516729 1_545
Fe14 Fe6 2.553571 1_544
Fe14 Ge17 2.668212 1_555
Fe14 Ge13 2.672998 1_554
Fe14 Tm2 3.262160 1_655
Fe14 Tm1 3.281856 1_555
Fe15 Ge6 2.505492 1_565
Fe15 Ge0 2.509587 1_655
Fe15 Ge2 2.513521 1_555
Fe15 Ge4 2.516729 1_666
Fe15 Fe7 2.553571 1_565
Fe15 Ge16 2.668223 1_555
Fe15 Ge13 2.672998 1_565
Fe15 Tm2 3.262160 1_666
Fe15 Tm0 3.281856 1_655
Fe16 Ge7 2.505492 1_556
Fe16 Ge1 2.509587 1_455
Fe16 Ge3 2.513521 1_556
Fe16 Ge5 2.516729 1_456
Fe16 Fe8 2.553571 1_556
Fe16 Ge15 2.668221 1_555
Fe16 Ge12 2.672998 1_566
Fe16 Tm2 3.262160 1_566
Fe16 Tm1 3.281856 1_455
Fe17 Ge6 2.505492 1_555
Fe17 Ge0 2.509587 1_555
Fe17 Ge2 2.513521 1_556
Fe17 Ge4 2.516729 1_555
Fe17 Fe9 2.553571 1_555
Fe17 Ge14 2.668212 1_555
Fe17 Ge12 2.672998 1_555
Fe17 Tm2 3.262160 1_555
Fe17 Tm0 3.281856 1_555
Ge0 Tm2 2.958112 1_555
Ge0 Tm2 2.958112 1_566
Ge0 Tm0 2.981732 1_555
Ge1 Tm2 2.958112 1_655
Ge1 Tm2 2.958112 1_666
Ge1 Tm1 2.981732 1_555
Ge4 Tm0 2.959143 1_555
Ge4 Tm0 2.959143 1_544
Ge4 Tm2 2.979661 1_555
Ge5 Tm1 2.959143 1_554
Ge5 Tm1 2.959143 1_565
Ge5 Tm2 2.979661 1_665
Ge8 Tm0 2.957887 1_555
Ge8 Tm0 2.957887 1_544
Ge9 Tm1 2.957887 1_554
Ge9 Tm1 2.957887 1_565
Ge10 Tm1 2.968272 1_555
Ge11 Tm0 2.968272 1_555
Ge12 Ge13 2.502258 1_555
Ge12 Tm2 2.802738 1_555
Ge13 Tm2 2.802738 1_656
Ge14 Ge16 2.489711 1_556
Ge14 Tm0 2.809257 1_555
Ge15 Ge17 2.489711 1_556
Ge15 Tm1 2.809252 1_455
Ge16 Tm0 2.809252 1_655
Ge17 Tm1 2.809257 1_555
