# generated using pymatgen
data_Li2NbO3
_symmetry_space_group_name_H-M   'P 1'
_cell_length_a   3.03622030
_cell_length_b   3.03622030
_cell_length_c   8.11064500
_cell_angle_alpha   90.00000000
_cell_angle_beta   90.00000000
_cell_angle_gamma   120.00000658
_symmetry_Int_Tables_number   1
_chemical_formula_structural   Li2NbO3
_chemical_formula_sum   'Li2 Nb1 O3'
_cell_volume   64.75190585
_cell_formula_units_Z   1
loop_
 _symmetry_equiv_pos_site_id
 _symmetry_equiv_pos_as_xyz
  1  'x, y, z'
loop_
 _atom_site_type_symbol
 _atom_site_label
 _atom_site_symmetry_multiplicity
 _atom_site_fract_x
 _atom_site_fract_y
 _atom_site_fract_z
 _atom_site_occupancy
  Li  Li0  1  0.33333300  0.66666700  0.60515300  1
  Li  Li1  1  0.66666700  0.33333300  0.39484700  1
  Nb  Nb0  1  0.00000000  0.00000000  0.00000000  1
  O  O0  1  0.33333300  0.66666700  0.14631400  1
  O  O1  1  0.66666700  0.33333300  0.85368600  1
  O  O2  1  0.00000000  0.00000000  0.50000000  1
loop_
_geom_bond_atom_site_label_1
_geom_bond_atom_site_label_2
_geom_bond_distance
_geom_bond_site_symmetry_2
Li0 O2 1.949420 1_565
Li0 O2 1.949423 1_555
Li0 O2 1.949423 1_665
Li1 O2 1.949420 1_655
Li1 O2 1.949423 1_665
Li1 O2 1.949423 1_555
Nb0 O0 2.116868 1_545
Nb0 O1 2.116868 1_454
Nb0 O0 2.116870 1_555
Nb0 O0 2.116870 1_445
Nb0 O1 2.116870 1_554
Nb0 O1 2.116870 1_444
