# generated using pymatgen
data_Sr3Cr2O8
_symmetry_space_group_name_H-M   'P 1'
_cell_length_a   7.46550237
_cell_length_b   7.46549875
_cell_length_c   7.46550090
_cell_angle_alpha   43.70616957
_cell_angle_beta   43.70616019
_cell_angle_gamma   43.70615202
_symmetry_Int_Tables_number   1
_chemical_formula_structural   Sr3Cr2O8
_chemical_formula_sum   'Sr3 Cr2 O8'
_cell_volume   180.31578222
_cell_formula_units_Z   1
loop_
 _symmetry_equiv_pos_site_id
 _symmetry_equiv_pos_as_xyz
  1  'x, y, z'
loop_
 _atom_site_type_symbol
 _atom_site_label
 _atom_site_symmetry_multiplicity
 _atom_site_fract_x
 _atom_site_fract_y
 _atom_site_fract_z
 _atom_site_occupancy
  Sr  Sr0  1  0.79684504  0.79684504  0.79684504  1
  Sr  Sr1  1  0.20316164  0.20316164  0.20316064  1
  Sr  Sr2  1  -0.00000272  -0.00000272  -0.00000272  1
  Cr  Cr0  1  0.59393270  0.59393270  0.59393270  1
  Cr  Cr1  1  0.40606748  0.40606748  0.40606748  1
  O  O0  1  0.26909615  0.26909715  0.76734234  1
  O  O1  1  0.26909615  0.76734234  0.26909615  1
  O  O2  1  0.76734234  0.26909715  0.26909615  1
  O  O3  1  0.23268750  0.73089365  0.73089465  1
  O  O4  1  0.73089465  0.73089365  0.23268850  1
  O  O5  1  0.32274992  0.32274892  0.32275092  1
  O  O6  1  0.73089365  0.23268850  0.73089465  1
  O  O7  1  0.67723350  0.67723350  0.67723450  1
loop_
_geom_bond_atom_site_label_1
_geom_bond_atom_site_label_2
_geom_bond_distance
_geom_bond_site_symmetry_2
Cr0 O7 1.684534 1_555
Cr0 O6 1.703541 1_555
Cr0 O4 1.703542 1_555
Cr0 O3 1.703547 1_555
Cr1 O5 1.684866 1_555
Cr1 O1 1.703689 1_555
Cr1 O2 1.703690 1_555
Cr1 O0 1.703690 1_555
O0 Sr1 2.605734 1_556
O0 Sr2 2.614201 1_556
O0 Sr0 2.837322 1_455
O0 Sr0 2.837328 1_545
O1 Sr1 2.605740 1_565
O1 Sr2 2.614195 1_565
O1 Sr0 2.837327 1_455
O1 Sr0 2.837328 1_554
O2 Sr1 2.605737 1_655
O2 Sr2 2.614200 1_655
O2 Sr0 2.837323 1_554
O2 Sr0 2.837329 1_545
O3 Sr0 2.605773 1_455
O3 Sr2 2.614129 1_566
O3 Sr1 2.837310 1_556
O3 Sr1 2.837321 1_565
O4 Sr0 2.605780 1_554
O4 Sr2 2.614127 1_665
O4 Sr1 2.837313 1_655
O4 Sr1 2.837320 1_565
O5 Sr1 2.418347 1_555
O6 Sr0 2.605779 1_545
O6 Sr2 2.614127 1_656
O6 Sr1 2.837312 1_556
O6 Sr1 2.837323 1_655
O7 Sr0 2.418804 1_555
