# generated using pymatgen
data_KV(CuSe2)2
_symmetry_space_group_name_H-M   'P 1'
_cell_length_a   9.80277711
_cell_length_b   9.80277711
_cell_length_c   7.70886500
_cell_angle_alpha   90.00000000
_cell_angle_beta   90.00000000
_cell_angle_gamma   146.74359664
_symmetry_Int_Tables_number   1
_chemical_formula_structural   KV(CuSe2)2
_chemical_formula_sum   'K2 V2 Cu4 Se8'
_cell_volume   406.23337510
_cell_formula_units_Z   2
loop_
 _symmetry_equiv_pos_site_id
 _symmetry_equiv_pos_as_xyz
  1  'x, y, z'
loop_
 _atom_site_type_symbol
 _atom_site_label
 _atom_site_symmetry_multiplicity
 _atom_site_fract_x
 _atom_site_fract_y
 _atom_site_fract_z
 _atom_site_occupancy
  K  K0  1  0.17004400  0.79997500  0.75000000  1
  K  K1  1  0.79997500  0.17004400  0.25000000  1
  V  V0  1  0.64200600  0.85778200  0.75000000  1
  V  V1  1  0.85778200  0.64200600  0.25000000  1
  Cu  Cu0  1  0.73426100  0.73426100  0.50000000  1
  Cu  Cu1  1  0.73426100  0.73426100  0.00000000  1
  Cu  Cu2  1  0.35910900  0.14204900  0.25000000  1
  Cu  Cu3  1  0.14204900  0.35910900  0.75000000  1
  Se  Se0  1  0.62216600  0.40220300  0.00103000  1
  Se  Se1  1  0.40220300  0.62216700  0.50103000  1
  Se  Se2  1  0.98992800  0.99916800  0.75000000  1
  Se  Se3  1  0.40220300  0.62216700  0.99897000  1
  Se  Se4  1  0.19198800  0.77404900  0.25000000  1
  Se  Se5  1  0.77404900  0.19198800  0.75000000  1
  Se  Se6  1  0.99916800  0.98992800  0.25000000  1
  Se  Se7  1  0.62216600  0.40220300  0.49897000  1
loop_
_geom_bond_atom_site_label_1
_geom_bond_atom_site_label_2
_geom_bond_distance
_geom_bond_site_symmetry_2
K0 Se5 3.430933 1_565
K0 Se5 3.449151 1_455
K0 Se2 3.563192 1_455
K0 Se7 3.573449 1_455
K0 Se0 3.573449 1_456
K0 Se7 3.805292 1_565
K0 Se0 3.805292 1_566
K0 Se4 3.880586 1_556
K0 Se4 3.880586 1_555
K1 Se4 3.430933 1_655
K1 Se4 3.449151 1_545
K1 Se6 3.563192 1_545
K1 Se3 3.573444 1_544
K1 Se1 3.573444 1_545
K1 Se3 3.805291 1_654
K1 Se1 3.805291 1_655
K1 Se5 3.880586 1_555
K1 Se5 3.880586 1_554
Cu0 Se7 2.412688 1_555
Cu0 Se1 2.412694 1_555
Cu0 Se2 2.419536 1_555
Cu0 Se6 2.419536 1_555
Cu1 Se0 2.412688 1_555
Cu1 Se3 2.412694 1_554
Cu1 Se2 2.419536 1_554
Cu1 Se6 2.419536 1_555
Cu2 Se4 2.411102 1_545
Cu2 Se0 2.416296 1_555
Cu2 Se7 2.416296 1_555
Cu2 Se6 2.423568 1_445
Cu3 Se5 2.411102 1_455
Cu3 Se1 2.416297 1_555
Cu3 Se3 2.416297 1_555
Cu3 Se2 2.423568 1_445
Se0 V1 2.337462 1_555
Se1 V0 2.337461 1_555
Se2 V0 2.376435 1_555
Se3 V0 2.337461 1_555
Se4 V1 2.305728 1_455
Se5 V0 2.305728 1_545
Se6 V1 2.376435 1_555
Se7 V1 2.337462 1_555
