# generated using pymatgen
data_Ca3Mn2O7
_symmetry_space_group_name_H-M   'P 1'
_cell_length_a   3.78608600
_cell_length_b   3.78608600
_cell_length_c   10.04668432
_cell_angle_alpha   100.86086297
_cell_angle_beta   100.86086297
_cell_angle_gamma   90.00000000
_symmetry_Int_Tables_number   1
_chemical_formula_structural   Ca3Mn2O7
_chemical_formula_sum   'Ca3 Mn2 O7'
_cell_volume   138.80648703
_cell_formula_units_Z   1
loop_
 _symmetry_equiv_pos_site_id
 _symmetry_equiv_pos_as_xyz
  1  'x, y, z'
loop_
 _atom_site_type_symbol
 _atom_site_label
 _atom_site_symmetry_multiplicity
 _atom_site_fract_x
 _atom_site_fract_y
 _atom_site_fract_z
 _atom_site_occupancy
  Ca  Ca0  1  0.50000000  0.50000000  0.00000000  1
  Ca  Ca1  1  0.68373800  0.68373800  0.36747600  1
  Ca  Ca2  1  0.31626200  0.31626200  0.63252400  1
  Mn  Mn0  1  0.89988700  0.89988700  0.79977400  1
  Mn  Mn1  1  0.10011300  0.10011300  0.20022600  1
  O  O0  1  0.00000000  0.00000000  0.00000000  1
  O  O1  1  0.80191100  0.80191100  0.60382200  1
  O  O2  1  0.19808900  0.19808900  0.39617800  1
  O  O3  1  0.40217800  0.90217800  0.80435600  1
  O  O4  1  0.90217800  0.40217800  0.80435600  1
  O  O5  1  0.59782200  0.09782200  0.19564400  1
  O  O6  1  0.09782200  0.59782200  0.19564400  1
loop_
_geom_bond_atom_site_label_1
_geom_bond_atom_site_label_2
_geom_bond_distance
_geom_bond_site_symmetry_2
Ca0 O0 2.677167 1_655
Ca0 O0 2.677167 1_565
Ca0 O0 2.677167 1_665
Ca0 O0 2.677167 1_555
Ca0 O5 2.678200 1_555
Ca0 O6 2.678200 1_555
Ca0 O6 2.678200 1_655
Ca0 O5 2.678200 1_565
Ca0 O3 2.678200 1_544
Ca0 O4 2.678200 1_454
Ca0 O4 2.678200 1_554
Ca0 O3 2.678200 1_554
Ca1 O1 2.288638 1_555
Ca1 O5 2.520366 1_555
Ca1 O6 2.520366 1_555
Ca1 O6 2.520366 1_655
Ca1 O5 2.520366 1_565
Ca1 O2 2.691555 1_665
Ca1 O2 2.691555 1_655
Ca1 O2 2.691555 1_555
Ca1 O2 2.691555 1_565
Ca2 O2 2.288638 1_555
Ca2 O3 2.520366 1_545
Ca2 O4 2.520366 1_455
Ca2 O3 2.520366 1_555
Ca2 O4 2.520366 1_555
Ca2 O1 2.691555 1_445
Ca2 O1 2.691555 1_545
Ca2 O1 2.691555 1_555
Ca2 O1 2.691555 1_455
Mn0 O3 1.893563 1_655
Mn0 O4 1.893563 1_565
Mn0 O4 1.893563 1_555
Mn0 O3 1.893563 1_555
Mn0 O1 1.897486 1_555
Mn0 O0 1.938873 1_666
Mn1 O5 1.893563 1_555
Mn1 O6 1.893563 1_555
Mn1 O6 1.893563 1_545
Mn1 O5 1.893563 1_455
Mn1 O2 1.897486 1_555
Mn1 O0 1.938873 1_555
