# generated using pymatgen
data_Tb(Fe3Mo)3
_symmetry_space_group_name_H-M   'P 1'
_cell_length_a   4.78752500
_cell_length_b   6.52639983
_cell_length_c   6.52639983
_cell_angle_alpha   98.30120364
_cell_angle_beta   111.51726309
_cell_angle_gamma   68.48273691
_symmetry_Int_Tables_number   1
_chemical_formula_structural   Tb(Fe3Mo)3
_chemical_formula_sum   'Tb1 Fe9 Mo3'
_cell_volume   176.47490644
_cell_formula_units_Z   1
loop_
 _symmetry_equiv_pos_site_id
 _symmetry_equiv_pos_as_xyz
  1  'x, y, z'
loop_
 _atom_site_type_symbol
 _atom_site_label
 _atom_site_symmetry_multiplicity
 _atom_site_fract_x
 _atom_site_fract_y
 _atom_site_fract_z
 _atom_site_occupancy
  Tb  Tb0  1  0.99155800  0.00844200  0.99155800  1
  Fe  Fe0  1  0.50174800  0.99967700  0.50080800  1
  Fe  Fe1  1  0.99938400  0.99967700  0.50080800  1
  Fe  Fe2  1  0.50174800  0.49919200  0.00032300  1
  Fe  Fe3  1  0.99938400  0.49919200  0.00032300  1
  Fe  Fe4  1  0.71752400  0.78247600  0.21752400  1
  Fe  Fe5  1  0.27988900  0.22011100  0.77988900  1
  Fe  Fe6  1  0.50174400  0.77783000  0.78131700  1
  Fe  Fe7  1  0.50174400  0.21868300  0.22217000  1
  Fe  Fe8  1  0.64046900  0.35953100  0.64046900  1
  Mo  Mo0  1  0.35848100  0.64151900  0.35848100  1
  Mo  Mo1  1  0.00316500  0.35335200  0.35968100  1
  Mo  Mo2  1  0.00316500  0.64031900  0.64664800  1
loop_
_geom_bond_atom_site_label_1
_geom_bond_atom_site_label_2
_geom_bond_distance
_geom_bond_site_symmetry_2
Fe0 Fe1 2.382445 1_555
Fe0 Fe1 2.405080 1_455
Fe0 Fe5 2.461083 1_565
Fe0 Fe4 2.462680 1_555
Fe0 Fe7 2.469899 1_565
Fe0 Fe6 2.492638 1_555
Fe0 Mo1 2.614064 1_565
Fe0 Fe8 2.620983 1_565
Fe0 Mo0 2.622761 1_555
Fe0 Mo2 2.647181 1_655
Fe0 Tb0 3.208791 1_565
Fe0 Tb0 3.318550 1_464
Fe1 Fe5 2.461081 1_665
Fe1 Fe4 2.462683 1_555
Fe1 Fe7 2.469899 1_565
Fe1 Fe6 2.492637 1_655
Fe1 Mo1 2.614064 1_665
Fe1 Fe8 2.620985 1_565
Fe1 Mo0 2.622758 1_655
Fe1 Mo2 2.647182 1_655
Fe1 Tb0 3.208793 1_565
Fe1 Tb0 3.318549 1_564
Fe2 Fe3 2.382445 1_555
Fe2 Fe3 2.405080 1_455
Fe2 Fe5 2.461083 1_554
Fe2 Fe4 2.462680 1_555
Fe2 Fe6 2.469899 1_554
Fe2 Fe7 2.492638 1_555
Fe2 Mo2 2.614064 1_554
Fe2 Fe8 2.620983 1_554
Fe2 Mo0 2.622761 1_555
Fe2 Mo1 2.647181 1_655
Fe2 Tb0 3.208791 1_554
Fe2 Tb0 3.318550 1_464
Fe3 Fe5 2.461081 1_654
Fe3 Fe4 2.462683 1_555
Fe3 Fe6 2.469899 1_554
Fe3 Fe7 2.492637 1_655
Fe3 Mo2 2.614064 1_654
Fe3 Fe8 2.620985 1_554
Fe3 Mo0 2.622758 1_655
Fe3 Mo1 2.647182 1_655
Fe3 Tb0 3.208793 1_554
Fe3 Tb0 3.318549 1_564
Fe4 Fe6 2.648285 1_554
Fe4 Fe7 2.648285 1_565
Fe4 Mo0 2.685452 1_655
Fe4 Mo0 2.685452 1_555
Fe4 Mo2 2.754000 1_655
Fe4 Mo1 2.754000 1_655
Fe4 Tb0 3.088286 1_464
Fe4 Tb0 3.088287 1_564
Fe5 Fe8 2.679462 1_455
Fe5 Fe8 2.679462 1_555
Fe5 Mo2 2.685263 1_555
Fe5 Mo1 2.685263 1_555
Fe5 Fe7 2.685447 1_556
Fe5 Fe6 2.685447 1_545
Fe5 Tb0 3.011803 1_555
Fe5 Tb0 3.011804 1_455
Fe6 Mo2 2.660861 1_655
Fe6 Mo2 2.660861 1_555
Fe6 Fe8 2.670597 1_555
Fe6 Mo0 2.688399 1_555
Fe6 Tb0 3.046198 1_565
Fe6 Tb0 3.046202 1_465
Fe7 Mo1 2.660861 1_655
Fe7 Mo1 2.660861 1_555
Fe7 Fe8 2.670597 1_555
Fe7 Mo0 2.688399 1_555
Fe7 Tb0 3.046198 1_554
Fe7 Tb0 3.046202 1_454
Fe8 Mo0 2.435021 1_555
Fe8 Mo1 2.938784 1_555
Fe8 Mo2 2.938784 1_555
Fe8 Mo2 2.938788 1_655
Fe8 Mo1 2.938788 1_655
Fe8 Tb0 3.031721 1_555
Mo0 Mo1 2.965065 1_555
Mo0 Mo2 2.965065 1_555
Mo0 Mo1 2.965068 1_655
Mo0 Mo2 2.965068 1_655
Mo0 Tb0 3.168451 1_464
Mo1 Mo2 2.449976 1_555
Mo1 Tb0 3.045404 1_454
Mo2 Tb0 3.045404 1_465
