# generated using pymatgen
data_BaCa2Mg(SiO4)2
_symmetry_space_group_name_H-M   'P 1'
_cell_length_a   5.49807198
_cell_length_b   5.49807198
_cell_length_c   6.85576700
_cell_angle_alpha   90.00000000
_cell_angle_beta   90.00000000
_cell_angle_gamma   119.99999975
_symmetry_Int_Tables_number   1
_chemical_formula_structural   BaCa2Mg(SiO4)2
_chemical_formula_sum   'Ba1 Ca2 Mg1 Si2 O8'
_cell_volume   179.47647221
_cell_formula_units_Z   1
loop_
 _symmetry_equiv_pos_site_id
 _symmetry_equiv_pos_as_xyz
  1  'x, y, z'
loop_
 _atom_site_type_symbol
 _atom_site_label
 _atom_site_symmetry_multiplicity
 _atom_site_fract_x
 _atom_site_fract_y
 _atom_site_fract_z
 _atom_site_occupancy
  Ba  Ba0  1  0.00000000  0.00000000  0.00000000  1
  Ca  Ca0  1  0.33333300  0.66666700  0.65910300  1
  Ca  Ca1  1  0.66666700  0.33333300  0.34089700  1
  Mg  Mg0  1  0.00000000  0.00000000  0.50000000  1
  Si  Si0  1  0.33333300  0.66666700  0.22385900  1
  Si  Si1  1  0.66666700  0.33333300  0.77614100  1
  O  O0  1  0.17531100  0.82468900  0.32325000  1
  O  O1  1  0.82468900  0.17531100  0.67675000  1
  O  O2  1  0.17531100  0.35062200  0.32325000  1
  O  O3  1  0.82468900  0.64937800  0.67675000  1
  O  O4  1  0.64937800  0.82468900  0.32325000  1
  O  O5  1  0.35062200  0.17531100  0.67675000  1
  O  O6  1  0.33333300  0.66666700  0.98719400  1
  O  O7  1  0.66666700  0.33333300  0.01280600  1
loop_
_geom_bond_atom_site_label_1
_geom_bond_atom_site_label_2
_geom_bond_distance
_geom_bond_site_symmetry_2
Ba0 O0 2.774593 1_545
Ba0 O1 2.774593 1_454
Ba0 O2 2.774593 1_555
Ba0 O4 2.774593 1_445
Ba0 O5 2.774593 1_554
Ba0 O3 2.774593 1_444
Ba0 O6 3.175524 1_544
Ba0 O7 3.175524 1_455
Ba0 O6 3.175529 1_444
Ba0 O7 3.175529 1_555
Ba0 O7 3.175529 1_445
Ba0 O6 3.175529 1_554
Ca0 O6 2.249315 1_555
Ca0 O0 2.750667 1_555
Ca0 O4 2.750670 1_555
Ca0 O2 2.750670 1_555
Ca0 O5 2.752925 1_565
Ca0 O3 2.752925 1_455
Ca0 O1 2.752928 1_455
Ca0 O1 2.752928 1_565
Ca0 O3 2.752931 1_555
Ca0 O5 2.752931 1_555
Ca1 O7 2.249315 1_555
Ca1 O1 2.750667 1_555
Ca1 O5 2.750670 1_555
Ca1 O3 2.750670 1_555
Ca1 O4 2.752925 1_545
Ca1 O2 2.752925 1_655
Ca1 O0 2.752928 1_545
Ca1 O0 2.752928 1_655
Ca1 O4 2.752931 1_555
Ca1 O2 2.752931 1_555
Mg0 O1 2.062888 1_455
Mg0 O0 2.062888 1_545
Mg0 O3 2.062888 1_445
Mg0 O5 2.062888 1_555
Mg0 O2 2.062888 1_555
Mg0 O4 2.062888 1_445
O0 Si0 1.651918 1_555
O1 Si1 1.651918 1_555
O2 Si0 1.651922 1_555
O3 Si1 1.651922 1_555
O4 Si0 1.651922 1_555
O5 Si1 1.651922 1_555
O6 Si0 1.622520 1_556
O7 Si1 1.622520 1_554
