# generated using pymatgen
data_Lu(MnSi)2
_symmetry_space_group_name_H-M   'P 1'
_cell_length_a   5.85182027
_cell_length_b   5.85182027
_cell_length_c   5.85182027
_cell_angle_alpha   141.83666168
_cell_angle_beta   141.83666168
_cell_angle_gamma   55.07491718
_symmetry_Int_Tables_number   1
_chemical_formula_structural   Lu(MnSi)2
_chemical_formula_sum   'Lu1 Mn2 Si2'
_cell_volume   75.96002821
_cell_formula_units_Z   1
loop_
 _symmetry_equiv_pos_site_id
 _symmetry_equiv_pos_as_xyz
  1  'x, y, z'
loop_
 _atom_site_type_symbol
 _atom_site_label
 _atom_site_symmetry_multiplicity
 _atom_site_fract_x
 _atom_site_fract_y
 _atom_site_fract_z
 _atom_site_occupancy
  Lu  Lu0  1  0.00000000  0.00000000  -0.00000000  1
  Mn  Mn0  1  0.75000000  0.25000000  0.50000000  1
  Mn  Mn1  1  0.25000000  0.75000000  0.50000000  1
  Si  Si0  1  0.38442699  0.38442699  -0.00000000  1
  Si  Si1  1  0.61557301  0.61557301  0.00000000  1
loop_
_geom_bond_atom_site_label_1
_geom_bond_atom_site_label_2
_geom_bond_distance
_geom_bond_site_symmetry_2
Lu0 Si0 2.959401 1_444
Lu0 Si0 2.959401 1_455
Lu0 Si1 2.959401 1_444
Lu0 Si1 2.959401 1_455
Lu0 Si0 2.959401 1_545
Lu0 Si0 2.959401 1_556
Lu0 Si1 2.959401 1_556
Lu0 Si1 2.959401 1_545
Mn0 Si1 2.367682 1_545
Mn0 Si0 2.367682 1_555
Mn0 Si1 2.367682 1_556
Mn0 Si0 2.367682 1_656
Mn1 Si1 2.367682 1_455
Mn1 Si1 2.367682 1_556
Mn1 Si0 2.367682 1_555
Mn1 Si0 2.367682 1_566
Si0 Si1 2.398769 1_555
