# generated using pymatgen
data_Co4B6O13
_symmetry_space_group_name_H-M   'P 1'
_cell_length_a   6.53229317
_cell_length_b   6.53301204
_cell_length_c   6.53299797
_cell_angle_alpha   70.54568282
_cell_angle_beta   70.51812702
_cell_angle_gamma   109.48199445
_symmetry_Int_Tables_number   1
_chemical_formula_structural   Co4B6O13
_chemical_formula_sum   'Co4 B6 O13'
_cell_volume   214.60779387
_cell_formula_units_Z   1
loop_
 _symmetry_equiv_pos_site_id
 _symmetry_equiv_pos_as_xyz
  1  'x, y, z'
loop_
 _atom_site_type_symbol
 _atom_site_label
 _atom_site_symmetry_multiplicity
 _atom_site_fract_x
 _atom_site_fract_y
 _atom_site_fract_z
 _atom_site_occupancy
  Co  Co0  1  0.99999600  0.69287100  0.99976500  1
  Co  Co1  1  0.99999500  0.00023500  0.30712900  1
  Co  Co2  1  0.69270000  0.99990400  0.00009600  1
  Co  Co3  1  0.30730100  0.30720600  0.69279400  1
  B  B0  1  0.50000000  0.75004700  0.74995200  1
  B  B1  1  0.75007300  0.50005300  0.74997100  1
  B  B2  1  0.24992500  0.49995600  0.25002100  1
  B  B3  1  0.24992600  0.74997900  0.50004400  1
  B  B4  1  0.75007400  0.25003000  0.49994500  1
  B  B5  1  0.50000100  0.25004800  0.24995200  1
  O  O0  1  0.99999400  0.00017200  0.99983000  1
  O  O1  1  0.72376400  0.99987100  0.55811000  1
  O  O2  1  0.55788300  0.28184700  0.44206700  1
  O  O3  1  0.71813300  0.27613000  0.72387100  1
  O  O4  1  0.27623900  0.71812800  0.72389300  1
  O  O5  1  0.55788300  0.55793400  0.71815300  1
  O  O6  1  0.44212000  0.72396700  0.99994900  1
  O  O7  1  0.72376200  0.44188800  0.00013000  1
  O  O8  1  0.28186800  0.55799900  0.44200100  1
  O  O9  1  0.00000200  0.72366700  0.55808800  1
  O  O10  1  0.27623900  0.27610500  0.28187100  1
  O  O11  1  0.44211900  0.00005200  0.27603400  1
  O  O12  1  0.00000200  0.44190900  0.27633500  1
loop_
_geom_bond_atom_site_label_1
_geom_bond_atom_site_label_2
_geom_bond_distance
_geom_bond_site_symmetry_2
Co0 O7 1.991371 1_556
Co0 O4 1.991397 1_655
Co0 O12 1.994881 1_656
Co0 O0 2.007747 1_565
Co1 O1 1.991357 1_545
Co1 O10 1.991389 1_655
Co1 O9 1.994867 1_645
Co1 O0 2.007723 1_554
Co2 O6 1.990733 1_554
Co2 O11 1.990745 1_565
Co2 O3 1.992858 1_564
Co2 O0 2.006172 1_564
Co3 O2 1.990750 1_555
Co3 O5 1.990753 1_555
Co3 O8 1.992863 1_555
Co3 O0 2.006231 1_455
B0 O4 1.481646 1_555
B0 O1 1.481663 1_555
B0 O5 1.482957 1_555
B0 O6 1.482972 1_555
B1 O9 1.481611 1_655
B1 O3 1.482887 1_555
B1 O7 1.483323 1_556
B1 O5 1.483474 1_555
B2 O12 1.481575 1_555
B2 O8 1.482881 1_555
B2 O10 1.483359 1_555
B2 O6 1.483485 1_554
B3 O9 1.481589 1_555
B3 O8 1.482882 1_555
B3 O4 1.483339 1_555
B3 O11 1.483485 1_565
B4 O12 1.481594 1_655
B4 O3 1.482902 1_555
B4 O1 1.483328 1_545
B4 O2 1.483468 1_555
B5 O10 1.481647 1_555
B5 O7 1.481648 1_555
B5 O11 1.482962 1_555
B5 O2 1.482964 1_555
