# generated using pymatgen
data_KGdH2C2SO9
_symmetry_space_group_name_H-M   'P 1'
_cell_length_a   8.70933200
_cell_length_b   6.64761400
_cell_length_c   14.98943579
_cell_angle_alpha   67.68388140
_cell_angle_beta   90.00000000
_cell_angle_gamma   90.00000000
_symmetry_Int_Tables_number   1
_chemical_formula_structural   KGdH2C2SO9
_chemical_formula_sum   'K4 Gd4 H8 C8 S4 O36'
_cell_volume   802.83441954
_cell_formula_units_Z   4
loop_
 _symmetry_equiv_pos_site_id
 _symmetry_equiv_pos_as_xyz
  1  'x, y, z'
loop_
 _atom_site_type_symbol
 _atom_site_label
 _atom_site_symmetry_multiplicity
 _atom_site_fract_x
 _atom_site_fract_y
 _atom_site_fract_z
 _atom_site_occupancy
  K  K0  1  0.15253200  0.47101000  0.80114200  1
  K  K1  1  0.84746800  0.52899000  0.19885800  1
  K  K2  1  0.65253200  0.52899000  0.69885800  1
  K  K3  1  0.34746800  0.47101000  0.30114200  1
  Gd  Gd0  1  0.76155200  0.83518900  0.91153700  1
  Gd  Gd1  1  0.23844800  0.16481100  0.08846300  1
  Gd  Gd2  1  0.26155200  0.16481100  0.58846300  1
  Gd  Gd3  1  0.73844800  0.83518900  0.41153700  1
  H  H0  1  0.95462400  0.77794900  0.58034500  1
  H  H1  1  0.04537600  0.22205100  0.41965500  1
  H  H2  1  0.45462400  0.22205100  0.91965500  1
  H  H3  1  0.54537600  0.77794900  0.08034500  1
  H  H4  1  0.45625500  0.45379600  0.92376300  1
  H  H5  1  0.54374500  0.54620400  0.07623700  1
  H  H6  1  0.95625500  0.54620400  0.57623700  1
  H  H7  1  0.04374500  0.45379600  0.42376300  1
  C  C0  1  0.47026500  0.86415300  0.76869300  1
  C  C1  1  0.52973500  0.13584700  0.23130700  1
  C  C2  1  0.97026500  0.13584700  0.73130700  1
  C  C3  1  0.02973500  0.86415300  0.26869300  1
  C  C4  1  0.96534300  0.91581500  0.71975100  1
  C  C5  1  0.03465700  0.08418500  0.28024900  1
  C  C6  1  0.46534300  0.08418500  0.78024900  1
  C  C7  1  0.53465700  0.91581500  0.21975100  1
  S  S0  1  0.16205500  0.75575600  0.97787400  1
  S  S1  1  0.83794500  0.24424400  0.02212600  1
  S  S2  1  0.66205500  0.24424400  0.52212600  1
  S  S3  1  0.33794500  0.75575600  0.47787400  1
  O  O0  1  0.26683600  0.93335100  0.50146900  1
  O  O1  1  0.73316400  0.06664900  0.49853100  1
  O  O2  1  0.76683600  0.06664900  0.99853100  1
  O  O3  1  0.23316400  0.93335100  0.00146900  1
  O  O4  1  0.89855700  0.68344900  0.55370000  1
  O  O5  1  0.10144300  0.31655100  0.44630000  1
  O  O6  1  0.39855700  0.31655100  0.94630000  1
  O  O7  1  0.60144300  0.68344900  0.05370000  1
  O  O8  1  0.05501000  0.28207600  0.67260300  1
  O  O9  1  0.94499000  0.71792400  0.32739700  1
  O  O10  1  0.55501000  0.71792400  0.82739700  1
  O  O11  1  0.44499000  0.28207600  0.17260300  1
  O  O12  1  0.87625000  0.77129700  0.77450900  1
  O  O13  1  0.12375000  0.22870300  0.22549100  1
  O  O14  1  0.37625000  0.22870300  0.72549100  1
  O  O15  1  0.62375000  0.77129700  0.27450900  1
  O  O16  1  0.19018900  0.79329400  0.87592900  1
  O  O17  1  0.80981100  0.20670600  0.12407100  1
  O  O18  1  0.69018900  0.20670600  0.62407100  1
  O  O19  1  0.30981100  0.79329400  0.37592900  1
  O  O20  1  0.05311000  0.89415900  0.65607400  1
  O  O21  1  0.94689000  0.10584100  0.34392600  1
  O  O22  1  0.55311000  0.10584100  0.84392600  1
  O  O23  1  0.44689000  0.89415900  0.15607400  1
  O  O24  1  0.39217900  0.84484700  0.70116400  1
  O  O25  1  0.60782100  0.15515300  0.29883600  1
  O  O26  1  0.89217900  0.15515300  0.79883600  1
  O  O27  1  0.10782100  0.84484700  0.20116400  1
  O  O28  1  0.99229800  0.74821700  0.99743200  1
  O  O29  1  0.00770200  0.25178300  0.00256800  1
  O  O30  1  0.49229800  0.25178300  0.50256800  1
  O  O31  1  0.50770200  0.74821700  0.49743200  1
  O  O32  1  0.26899100  0.54564000  0.54287400  1
  O  O33  1  0.73100900  0.45436000  0.45712600  1
  O  O34  1  0.76899100  0.45436000  0.95712600  1
  O  O35  1  0.23100900  0.54564000  0.04287400  1
loop_
_geom_bond_atom_site_label_1
_geom_bond_atom_site_label_2
_geom_bond_distance
_geom_bond_site_symmetry_2
K0 O16 2.788928 1_555
K0 O8 2.801581 1_555
K0 O6 2.946712 1_555
K0 O20 2.957287 1_555
K0 O14 3.010644 1_555
K0 O12 3.054326 1_455
K0 O29 3.080466 1_556
K0 O26 3.099450 1_455
K0 O24 3.154304 1_555
K1 O17 2.788928 1_555
K1 O9 2.801581 1_555
K1 O7 2.946712 1_555
K1 O21 2.957287 1_555
K1 O15 3.010644 1_555
K1 O13 3.054326 1_655
K1 O28 3.080466 1_554
K1 O27 3.099450 1_655
K1 O25 3.154304 1_555
K2 O18 2.788928 1_555
K2 O10 2.801581 1_555
K2 O4 2.946712 1_555
K2 O22 2.957287 1_555
K2 O12 3.010644 1_555
K2 O14 3.054326 1_555
K2 O31 3.080466 1_555
K2 O24 3.099450 1_555
K2 O26 3.154304 1_555
K3 O19 2.788928 1_555
K3 O11 2.801581 1_555
K3 O5 2.946712 1_555
K3 O23 2.957287 1_555
K3 O13 3.010644 1_555
K3 O15 3.054326 1_555
K3 O30 3.080466 1_555
K3 O25 3.099450 1_555
K3 O27 3.154304 1_555
Gd0 O28 2.337803 1_555
Gd0 O34 2.359319 1_555
Gd0 O2 2.365100 1_565
Gd0 O7 2.422907 1_556
Gd0 O26 2.437919 1_565
Gd0 O12 2.461626 1_555
Gd0 O22 2.484968 1_565
Gd0 O10 2.486122 1_555
Gd1 O29 2.337803 1_555
Gd1 O35 2.359319 1_555
Gd1 O3 2.365100 1_545
Gd1 O6 2.422907 1_554
Gd1 O27 2.437919 1_545
Gd1 O13 2.461626 1_555
Gd1 O23 2.484968 1_545
Gd1 O11 2.486122 1_555
Gd2 O30 2.337803 1_555
Gd2 O32 2.359319 1_555
Gd2 O0 2.365100 1_545
Gd2 O5 2.422907 1_555
Gd2 O24 2.437919 1_545
Gd2 O14 2.461626 1_555
Gd2 O20 2.484968 1_545
Gd2 O8 2.486122 1_555
Gd3 O31 2.337803 1_555
Gd3 O33 2.359319 1_555
Gd3 O1 2.365100 1_565
Gd3 O4 2.422907 1_555
Gd3 O25 2.437919 1_565
Gd3 O15 2.461626 1_555
Gd3 O21 2.484968 1_565
Gd3 O9 2.486122 1_555
H0 O4 0.991531 1_555
H1 O5 0.991531 1_555
H2 O6 0.991531 1_555
H3 O7 0.991531 1_555
H4 O6 0.982324 1_555
H5 O7 0.982324 1_555
H6 O4 0.982324 1_555
H7 O5 0.982324 1_555
C0 O24 1.265790 1_555
C0 O10 1.270582 1_555
C1 O25 1.265790 1_555
C1 O11 1.270582 1_555
C2 O26 1.265790 1_555
C2 O8 1.270582 1_655
C3 O27 1.265790 1_555
C3 O9 1.270582 1_455
C4 O12 1.264867 1_555
C4 O20 1.272953 1_655
C5 O13 1.264867 1_555
C5 O21 1.272953 1_455
C6 O14 1.264867 1_555
C6 O22 1.272953 1_555
C7 O15 1.264867 1_555
C7 O23 1.272953 1_555
O0 S3 1.489801 1_555
O1 S2 1.489801 1_555
O2 S1 1.489801 1_556
O3 S0 1.489801 1_554
O16 S0 1.472347 1_555
O17 S1 1.472347 1_555
O18 S2 1.472347 1_555
O19 S3 1.472347 1_555
O28 S0 1.504384 1_655
O29 S1 1.504384 1_455
O30 S2 1.504384 1_555
O31 S3 1.504384 1_555
O32 S3 1.492447 1_555
O33 S2 1.492447 1_555
O34 S1 1.492447 1_556
O35 S0 1.492447 1_554
