# generated using pymatgen
data_NdGaPt
_symmetry_space_group_name_H-M   'P 1'
_cell_length_a   4.49829065
_cell_length_b   7.18008593
_cell_length_c   7.70610624
_cell_angle_alpha   89.99925081
_cell_angle_beta   90.00000000
_cell_angle_gamma   90.00000000
_symmetry_Int_Tables_number   1
_chemical_formula_structural   NdGaPt
_chemical_formula_sum   'Nd4 Ga4 Pt4'
_cell_volume   248.89269324
_cell_formula_units_Z   4
loop_
 _symmetry_equiv_pos_site_id
 _symmetry_equiv_pos_as_xyz
  1  'x, y, z'
loop_
 _atom_site_type_symbol
 _atom_site_label
 _atom_site_symmetry_multiplicity
 _atom_site_fract_x
 _atom_site_fract_y
 _atom_site_fract_z
 _atom_site_occupancy
  Nd  Nd0  1  0.25000000  0.01829414  0.69704351  1
  Nd  Nd1  1  0.25000000  0.51829099  0.80295721  1
  Nd  Nd2  1  0.75000000  0.98170486  0.30295549  1
  Nd  Nd3  1  0.75000000  0.48171001  0.19704679  1
  Ga  Ga0  1  0.25000000  0.16952037  0.07696036  1
  Ga  Ga1  1  0.25000000  0.66952268  0.42303744  1
  Ga  Ga2  1  0.75000000  0.83048063  0.92303964  1
  Ga  Ga3  1  0.75000000  0.33047732  0.57696056  1
  Pt  Pt0  1  0.25000000  0.28641804  0.40340946  1
  Pt  Pt1  1  0.25000000  0.78642767  0.09659009  1
  Pt  Pt2  1  0.75000000  0.71358196  0.59659054  1
  Pt  Pt3  1  0.75000000  0.21357333  0.90340991  1
loop_
_geom_bond_atom_site_label_1
_geom_bond_atom_site_label_2
_geom_bond_distance
_geom_bond_site_symmetry_2
Nd0 Pt0 2.970901 1_555
Nd0 Pt3 3.090898 1_455
Nd0 Pt3 3.090898 1_555
Nd0 Pt2 3.231820 1_445
Nd0 Pt2 3.231820 1_545
Nd0 Pt1 3.500203 1_546
Nd0 Nd1 3.681640 1_555
Nd0 Nd1 3.681664 1_545
Nd0 Nd2 3.788187 1_545
Nd0 Nd2 3.788187 1_445
Nd1 Pt1 2.970992 1_556
Nd1 Pt2 3.090919 1_555
Nd1 Pt2 3.090919 1_455
Nd1 Pt3 3.231833 1_555
Nd1 Pt3 3.231833 1_455
Nd1 Pt0 3.500271 1_555
Nd1 Nd3 3.788187 1_556
Nd1 Nd3 3.788187 1_456
Nd2 Pt2 2.970902 1_555
Nd2 Pt1 3.090888 1_655
Nd2 Pt1 3.090888 1_555
Nd2 Pt0 3.231827 1_665
Nd2 Pt0 3.231827 1_565
Nd2 Pt3 3.500203 1_564
Nd2 Nd3 3.681618 1_555
Nd2 Nd3 3.681669 1_565
Nd3 Pt3 2.971015 1_554
Nd3 Pt0 3.090906 1_655
Nd3 Pt0 3.090906 1_555
Nd3 Pt1 3.231840 1_555
Nd3 Pt1 3.231840 1_655
Nd3 Pt2 3.500240 1_555
Ga0 Pt3 2.635778 1_454
Ga0 Pt3 2.635778 1_554
Ga0 Pt0 2.651988 1_555
Ga0 Pt1 2.754793 1_545
Ga0 Nd0 3.122561 1_554
Ga0 Nd2 3.148031 1_545
Ga0 Nd2 3.148031 1_445
Ga0 Nd1 3.275563 1_554
Ga0 Nd3 3.307508 1_455
Ga0 Nd3 3.307508 1_555
Ga1 Pt2 2.635798 1_555
Ga1 Pt2 2.635798 1_455
Ga1 Pt1 2.651971 1_555
Ga1 Pt0 2.754882 1_555
Ga1 Nd1 3.122570 1_555
Ga1 Nd3 3.148023 1_555
Ga1 Nd3 3.148023 1_455
Ga1 Nd0 3.275625 1_565
Ga1 Nd2 3.307446 1_555
Ga1 Nd2 3.307446 1_455
Ga2 Pt1 2.635778 1_556
Ga2 Pt1 2.635778 1_656
Ga2 Pt2 2.651990 1_555
Ga2 Pt3 2.754793 1_565
Ga2 Nd2 3.122549 1_556
Ga2 Nd0 3.148029 1_565
Ga2 Nd0 3.148029 1_665
Ga2 Nd3 3.275583 1_556
Ga2 Nd1 3.307500 1_655
Ga2 Nd1 3.307500 1_555
Ga3 Pt0 2.635790 1_555
Ga3 Pt0 2.635790 1_655
Ga3 Pt3 2.651984 1_555
Ga3 Pt2 2.754882 1_555
Ga3 Nd3 3.122529 1_555
Ga3 Nd1 3.148052 1_655
Ga3 Nd1 3.148052 1_555
Ga3 Nd2 3.275625 1_545
Ga3 Nd0 3.307453 1_555
Ga3 Nd0 3.307453 1_655
