# generated using pymatgen
data_La12(ReC3)5
_symmetry_space_group_name_H-M   'P 1'
_cell_length_a   11.19399296
_cell_length_b   11.19402173
_cell_length_c   5.47327276
_cell_angle_alpha   90.00000000
_cell_angle_beta   90.00000000
_cell_angle_gamma   119.99916535
_symmetry_Int_Tables_number   1
_chemical_formula_structural   La12(ReC3)5
_chemical_formula_sum   'La12 Re5 C15'
_cell_volume   593.95364334
_cell_formula_units_Z   1
loop_
 _symmetry_equiv_pos_site_id
 _symmetry_equiv_pos_as_xyz
  1  'x, y, z'
loop_
 _atom_site_type_symbol
 _atom_site_label
 _atom_site_symmetry_multiplicity
 _atom_site_fract_x
 _atom_site_fract_y
 _atom_site_fract_z
 _atom_site_occupancy
  La  La0  1  0.79530180  -0.00000601  0.50000000  1
  La  La1  1  -0.00000673  0.79530304  0.50000000  1
  La  La2  1  0.20467880  0.20468459  0.50000000  1
  La  La3  1  0.27065695  0.45744649  0.00000000  1
  La  La4  1  0.54255564  0.81322015  0.00000000  1
  La  La5  1  0.45743736  0.27065453  0.00000000  1
  La  La6  1  0.18678617  0.72933663  0.00000000  1
  La  La7  1  0.81322530  0.54255290  0.00000000  1
  La  La8  1  0.72932830  0.18678137  0.00000000  1
  La  La9  1  0.41891468  -0.00000425  0.50000000  1
  La  La10  1  -0.00000435  0.41890781  0.50000000  1
  La  La11  1  0.58110843  0.58110798  0.50000000  1
  Re  Re0  1  0.15221404  0.00000003  0.00000000  1
  Re  Re1  1  -0.00000335  0.15221413  0.00000000  1
  Re  Re2  1  0.84778446  0.84778415  0.00000000  1
  Re  Re3  1  0.33335003  0.66668658  0.50000000  1
  Re  Re4  1  0.66668461  0.33334587  0.50000000  1
  C  C0  1  0.32432948  -0.00001023  -0.00000000  1
  C  C1  1  -0.00000924  0.32433427  0.00000000  1
  C  C2  1  0.67567170  0.67566789  0.00000000  1
  C  C3  1  0.79703502  -0.00000922  -0.00000000  1
  C  C4  1  -0.00000885  0.79703316  -0.00000000  1
  C  C5  1  0.20295204  0.20295704  0.00000000  1
  C  C6  1  0.44537893  0.99999303  0.00000000  1
  C  C7  1  -0.00000090  0.44539071  -0.00000000  1
  C  C8  1  0.55461865  0.55461628  0.00000000  1
  C  C9  1  0.28935960  0.47934348  0.50000000  1
  C  C10  1  0.52066215  0.81002465  0.50000000  1
  C  C11  1  0.47934502  0.28935636  0.50000000  1
  C  C12  1  0.18998644  0.71064616  0.50000000  1
  C  C13  1  0.81002667  0.52065963  0.50000000  1
  C  C14  1  0.71064313  0.18998081  0.50000000  1
loop_
_geom_bond_atom_site_label_1
_geom_bond_atom_site_label_2
_geom_bond_distance
_geom_bond_site_symmetry_2
C0 C6 1.355008 1_545
C0 Re0 1.926716 1_555
C0 La6 2.623934 1_545
C0 La5 2.624047 1_555
C0 La9 2.934303 1_554
C0 La9 2.934303 1_555
C1 C7 1.355062 1_555
C1 Re1 1.926750 1_555
C1 La8 2.624019 1_455
C1 La3 2.624054 1_555
C1 La10 2.934259 1_554
C1 La10 2.934259 1_555
C2 C8 1.355078 1_555
C2 Re2 1.926675 1_555
C2 La4 2.624045 1_555
C2 La7 2.624048 1_555
C2 La11 2.934225 1_555
C2 La11 2.934225 1_554
C3 Re2 2.047819 1_545
C3 Re1 2.047941 1_655
C3 La4 2.555444 1_545
C3 La8 2.555611 1_555
C3 La0 2.736705 1_555
C3 La0 2.736705 1_554
C4 Re2 2.047828 1_455
C4 Re0 2.047983 1_565
C4 La7 2.555441 1_455
C4 La6 2.555574 1_555
C4 La1 2.736705 1_554
C4 La1 2.736705 1_555
C5 Re1 2.047841 1_555
C5 Re0 2.047880 1_555
C5 La5 2.555521 1_555
C5 La3 2.555551 1_555
C5 La2 2.736705 1_554
C5 La2 2.736705 1_555
C6 La9 2.752625 1_564
C6 La9 2.752625 1_565
C6 La4 2.797987 1_555
C6 La8 2.798052 1_565
C6 La6 2.964555 1_555
C6 La5 2.964607 1_565
C7 La10 2.752644 1_555
C7 La10 2.752644 1_554
C7 La7 2.797870 1_455
C7 La6 2.798025 1_555
C7 La3 2.964572 1_555
C7 La8 2.964727 1_455
C8 La11 2.752656 1_554
C8 La11 2.752656 1_555
C8 La5 2.798134 1_555
C8 La3 2.798149 1_555
C8 La4 2.964640 1_555
C8 La7 2.964666 1_555
C9 Re3 1.899408 1_555
C9 La2 2.727086 1_555
C9 La3 2.746229 1_555
C9 La3 2.746229 1_556
C9 La11 2.871089 1_555
C9 La10 2.959461 1_555
C10 Re3 1.899136 1_555
C10 La0 2.726916 1_565
C10 La4 2.746225 1_555
C10 La4 2.746225 1_556
C10 La9 2.870782 1_565
C10 La11 2.959403 1_555
C11 Re4 1.899368 1_555
C11 La2 2.727178 1_555
C11 La5 2.746235 1_556
C11 La5 2.746235 1_555
C11 La11 2.871129 1_555
C11 La9 2.959452 1_555
C12 Re3 1.899276 1_555
C12 La1 2.727021 1_555
C12 La6 2.746221 1_556
C12 La6 2.746221 1_555
C12 La10 2.871032 1_555
C12 La9 2.959387 1_565
C13 Re4 1.899164 1_555
C13 La1 2.726945 1_655
C13 La7 2.746224 1_556
C13 La7 2.746224 1_555
C13 La10 2.870794 1_655
C13 La11 2.959430 1_555
C14 Re4 1.899287 1_555
C14 La0 2.726971 1_555
C14 La8 2.746216 1_556
C14 La8 2.746216 1_555
C14 La9 2.870931 1_555
C14 La10 2.959401 1_655
