# generated using pymatgen
data_CsFeP2H3CO10
_symmetry_space_group_name_H-M   'P 1'
_cell_length_a   8.14484444
_cell_length_b   10.41540700
_cell_length_c   11.67753412
_cell_angle_alpha   90.00000000
_cell_angle_beta   100.28293251
_cell_angle_gamma   90.00000000
_symmetry_Int_Tables_number   1
_chemical_formula_structural   CsFeP2H3CO10
_chemical_formula_sum   'Cs4 Fe4 P8 H12 C4 O40'
_cell_volume   974.71585656
_cell_formula_units_Z   4
loop_
 _symmetry_equiv_pos_site_id
 _symmetry_equiv_pos_as_xyz
  1  'x, y, z'
loop_
 _atom_site_type_symbol
 _atom_site_label
 _atom_site_symmetry_multiplicity
 _atom_site_fract_x
 _atom_site_fract_y
 _atom_site_fract_z
 _atom_site_occupancy
  Cs  Cs0  1  0.05310400  0.82675700  0.66291200  1
  Cs  Cs1  1  0.55310400  0.67324300  0.16291200  1
  Cs  Cs2  1  0.94689600  0.17324300  0.33708800  1
  Cs  Cs3  1  0.44689600  0.32675700  0.83708800  1
  Fe  Fe0  1  0.04387000  0.23501200  0.99948900  1
  Fe  Fe1  1  0.54387000  0.26498800  0.49948900  1
  Fe  Fe2  1  0.95613000  0.76498800  0.00051100  1
  Fe  Fe3  1  0.45613000  0.73501200  0.50051100  1
  P  P0  1  0.85286200  0.19971700  0.72012200  1
  P  P1  1  0.35286200  0.30028300  0.22012200  1
  P  P2  1  0.14713800  0.80028300  0.27987800  1
  P  P3  1  0.64713800  0.69971700  0.77987800  1
  P  P4  1  0.25032800  0.97708600  0.95661500  1
  P  P5  1  0.75032800  0.52291400  0.45661500  1
  P  P6  1  0.74967200  0.02291400  0.04338500  1
  P  P7  1  0.24967200  0.47708600  0.54338500  1
  H  H0  1  0.77413300  0.02554600  0.79142300  1
  H  H1  1  0.27413300  0.47445400  0.29142300  1
  H  H2  1  0.22586700  0.97445400  0.20857700  1
  H  H3  1  0.72586700  0.52554600  0.70857700  1
  H  H4  1  0.04765700  0.29680300  0.63883900  1
  H  H5  1  0.54765700  0.20319700  0.13883900  1
  H  H6  1  0.95234300  0.70319700  0.36116100  1
  H  H7  1  0.45234300  0.79680300  0.86116100  1
  H  H8  1  0.45672400  0.99714600  0.10658300  1
  H  H9  1  0.95672400  0.50285400  0.60658300  1
  H  H10  1  0.54327600  0.00285400  0.89341700  1
  H  H11  1  0.04327600  0.49714600  0.39341700  1
  C  C0  1  0.92318100  0.49125400  0.02918100  1
  C  C1  1  0.42318100  0.00874600  0.52918100  1
  C  C2  1  0.07681900  0.50874600  0.97081900  1
  C  C3  1  0.57681900  0.99125400  0.47081900  1
  O  O0  1  0.90079500  0.25533600  0.84193300  1
  O  O1  1  0.40079500  0.24466400  0.34193300  1
  O  O2  1  0.09920500  0.74466400  0.15806700  1
  O  O3  1  0.59920500  0.75533600  0.65806700  1
  O  O4  1  0.69142000  0.26168000  0.65747700  1
  O  O5  1  0.19142000  0.23832000  0.15747700  1
  O  O6  1  0.30858000  0.73832000  0.34252300  1
  O  O7  1  0.80858000  0.76168000  0.84252300  1
  O  O8  1  0.83130600  0.04797900  0.72560200  1
  O  O9  1  0.33130600  0.45202100  0.22560200  1
  O  O10  1  0.16869400  0.95202100  0.27439800  1
  O  O11  1  0.66869400  0.54797900  0.77439800  1
  O  O12  1  0.99693000  0.20852900  0.64621900  1
  O  O13  1  0.49693000  0.29147100  0.14621900  1
  O  O14  1  0.00307000  0.79147100  0.35378100  1
  O  O15  1  0.50307000  0.70852900  0.85378100  1
  O  O16  1  0.09361600  0.89315800  0.93864700  1
  O  O17  1  0.59361600  0.60684200  0.43864700  1
  O  O18  1  0.90638400  0.10684200  0.06135300  1
  O  O19  1  0.40638400  0.39315800  0.56135300  1
  O  O20  1  0.20706300  0.12082000  0.93976700  1
  O  O21  1  0.70706300  0.37918000  0.43976700  1
  O  O22  1  0.79293700  0.87918000  0.06023300  1
  O  O23  1  0.29293700  0.62082000  0.56023300  1
  O  O24  1  0.37200800  0.93678600  0.87601400  1
  O  O25  1  0.87200800  0.56321400  0.37601400  1
  O  O26  1  0.62799200  0.06321400  0.12398600  1
  O  O27  1  0.12799200  0.43678600  0.62398600  1
  O  O28  1  0.34041700  0.95418100  0.08975800  1
  O  O29  1  0.84041700  0.54581900  0.58975800  1
  O  O30  1  0.65958300  0.04581900  0.91024200  1
  O  O31  1  0.15958300  0.45418100  0.41024200  1
  O  O32  1  0.88900700  0.37837400  0.05634400  1
  O  O33  1  0.38900700  0.12162600  0.55634400  1
  O  O34  1  0.11099300  0.62162600  0.94365600  1
  O  O35  1  0.61099300  0.87837400  0.44365600  1
  O  O36  1  0.15692200  0.40740400  0.95502200  1
  O  O37  1  0.65692200  0.09259600  0.45502200  1
  O  O38  1  0.84307800  0.59259600  0.04497800  1
  O  O39  1  0.34307800  0.90740400  0.54497800  1
loop_
_geom_bond_atom_site_label_1
_geom_bond_atom_site_label_2
_geom_bond_distance
_geom_bond_site_symmetry_2
Cs0 O39 3.056383 1_555
Cs0 O8 3.095239 1_465
Cs0 O7 3.211918 1_455
Cs0 O16 3.252022 1_555
Cs0 O23 3.269611 1_555
Cs0 O29 3.429908 1_455
Cs0 O24 3.456142 1_555
Cs0 O14 3.578718 1_555
Cs1 O38 3.056383 1_555
Cs1 O9 3.095239 1_555
Cs1 O6 3.211918 1_555
Cs1 O17 3.252022 1_555
Cs1 O22 3.269611 1_555
Cs1 O28 3.429908 1_555
Cs1 O25 3.456142 1_555
Cs1 O15 3.578718 1_554
Cs2 O37 3.056383 1_555
Cs2 O10 3.095239 1_645
Cs2 O5 3.211918 1_655
Cs2 O18 3.252022 1_555
Cs2 O21 3.269611 1_555
Cs2 O31 3.429908 1_655
Cs2 O26 3.456142 1_555
Cs2 O12 3.578718 1_555
Cs3 O36 3.056383 1_555
Cs3 O11 3.095239 1_555
Cs3 O4 3.211918 1_555
Cs3 O19 3.252022 1_555
Cs3 O20 3.269611 1_555
Cs3 O30 3.429908 1_555
Cs3 O27 3.456142 1_555
Cs3 O13 3.578718 1_556
Fe0 O18 1.961309 1_456
Fe0 O20 1.999654 1_555
Fe0 O0 2.005600 1_455
Fe0 O5 2.014341 1_556
Fe0 O36 2.124178 1_555
Fe0 O32 2.135488 1_456
Fe1 O19 1.961309 1_555
Fe1 O21 1.999654 1_555
Fe1 O1 2.005600 1_555
Fe1 O4 2.014341 1_555
Fe1 O37 2.124178 1_555
Fe1 O33 2.135488 1_555
Fe2 O16 1.961309 1_654
Fe2 O22 1.999654 1_555
Fe2 O2 2.005600 1_655
Fe2 O7 2.014341 1_554
Fe2 O38 2.124178 1_555
Fe2 O34 2.135488 1_654
Fe3 O17 1.961309 1_555
Fe3 O23 1.999654 1_555
Fe3 O3 2.005600 1_555
Fe3 O6 2.014341 1_555
Fe3 O39 2.124178 1_555
Fe3 O35 2.135488 1_555
H0 O8 0.994992 1_555
H1 O9 0.994992 1_555
H2 O10 0.994992 1_555
H3 O11 0.994992 1_555
H4 O12 1.017918 1_455
H4 O27 1.620011 1_555
H5 O13 1.017918 1_555
H5 O26 1.620011 1_555
H6 O14 1.017918 1_655
H6 O25 1.620011 1_555
H7 O15 1.017918 1_555
H7 O24 1.620011 1_555
H8 O28 1.034307 1_555
H8 O26 1.536065 1_565
H9 O29 1.034307 1_555
H9 O27 1.536065 1_655
H10 O30 1.034307 1_555
H10 O24 1.536065 1_545
H11 O31 1.034307 1_555
H11 O25 1.536065 1_455
C0 O32 1.261689 1_555
C0 O38 1.271525 1_555
C1 O33 1.261689 1_555
C1 O39 1.271525 1_545
C2 O34 1.261689 1_555
C2 O36 1.271525 1_555
C3 O35 1.261689 1_555
C3 O37 1.271525 1_565
O0 P0 1.520890 1_555
O1 P1 1.520890 1_555
O2 P2 1.520890 1_555
O3 P3 1.520890 1_555
O4 P0 1.528805 1_555
O5 P1 1.528805 1_555
O6 P2 1.528805 1_555
O7 P3 1.528805 1_555
O8 P0 1.592682 1_555
O9 P1 1.592682 1_555
O10 P2 1.592682 1_555
O11 P3 1.592682 1_555
O12 P0 1.578491 1_555
O13 P1 1.578491 1_555
O14 P2 1.578491 1_555
O15 P3 1.578491 1_555
O16 P4 1.530269 1_555
O17 P5 1.530269 1_555
O18 P6 1.530269 1_555
O19 P7 1.530269 1_555
O20 P4 1.542493 1_545
O21 P5 1.542493 1_555
O22 P6 1.542493 1_565
O23 P7 1.542493 1_555
O24 P4 1.541856 1_555
O25 P5 1.541856 1_555
O26 P6 1.541856 1_555
O27 P7 1.541856 1_555
O28 P4 1.614114 1_554
O29 P5 1.614114 1_555
O30 P6 1.614114 1_556
O31 P7 1.614114 1_555
