# generated using pymatgen
data_CaV3O7
_symmetry_space_group_name_H-M   'P 1'
_cell_length_a   5.37956100
_cell_length_b   10.44776400
_cell_length_c   10.90659500
_cell_angle_alpha   90.00000000
_cell_angle_beta   90.00000000
_cell_angle_gamma   90.00000000
_symmetry_Int_Tables_number   1
_chemical_formula_structural   CaV3O7
_chemical_formula_sum   'Ca4 V12 O28'
_cell_volume   612.99845080
_cell_formula_units_Z   4
loop_
 _symmetry_equiv_pos_site_id
 _symmetry_equiv_pos_as_xyz
  1  'x, y, z'
loop_
 _atom_site_type_symbol
 _atom_site_label
 _atom_site_symmetry_multiplicity
 _atom_site_fract_x
 _atom_site_fract_y
 _atom_site_fract_z
 _atom_site_occupancy
  Ca  Ca0  1  0.68067500  0.75000000  0.07888900  1
  Ca  Ca1  1  0.18067500  0.25000000  0.42111100  1
  Ca  Ca2  1  0.31932500  0.25000000  0.92111100  1
  Ca  Ca3  1  0.81932500  0.75000000  0.57888900  1
  V  V0  1  0.30160800  0.02428300  0.68822500  1
  V  V1  1  0.80160800  0.97571700  0.81177500  1
  V  V2  1  0.69839200  0.52428300  0.31177500  1
  V  V3  1  0.19839200  0.47571700  0.18822500  1
  V  V4  1  0.30969000  0.75000000  0.78379700  1
  V  V5  1  0.80969000  0.25000000  0.71620300  1
  V  V6  1  0.69031000  0.25000000  0.21620300  1
  V  V7  1  0.19031000  0.75000000  0.28379700  1
  V  V8  1  0.80160800  0.52428300  0.81177500  1
  V  V9  1  0.30160800  0.47571700  0.68822500  1
  V  V10  1  0.19839200  0.02428300  0.18822500  1
  V  V11  1  0.69839200  0.97571700  0.31177500  1
  O  O0  1  0.93265300  0.11919400  0.27832800  1
  O  O1  1  0.43265300  0.88080600  0.22167200  1
  O  O2  1  0.06734700  0.61919400  0.72167200  1
  O  O3  1  0.56734700  0.38080600  0.77832800  1
  O  O4  1  0.06734700  0.88080600  0.72167200  1
  O  O5  1  0.56734700  0.11919400  0.77832800  1
  O  O6  1  0.93265300  0.38080600  0.27832800  1
  O  O7  1  0.43265300  0.61919400  0.22167200  1
  O  O8  1  0.45737300  0.11870200  0.28304100  1
  O  O9  1  0.95737300  0.88129800  0.21695900  1
  O  O10  1  0.54262700  0.61870200  0.71695900  1
  O  O11  1  0.04262700  0.38129800  0.78304100  1
  O  O12  1  0.54262700  0.88129800  0.71695900  1
  O  O13  1  0.04262700  0.11870200  0.78304100  1
  O  O14  1  0.45737300  0.38129800  0.28304100  1
  O  O15  1  0.95737300  0.61870200  0.21695900  1
  O  O16  1  0.17580200  0.75000000  0.43596800  1
  O  O17  1  0.67580200  0.25000000  0.06403200  1
  O  O18  1  0.82419800  0.25000000  0.56403200  1
  O  O19  1  0.32419800  0.75000000  0.93596800  1
  O  O20  1  0.21700700  0.42278200  0.04509100  1
  O  O21  1  0.71700700  0.57721800  0.45490900  1
  O  O22  1  0.78299300  0.92278200  0.95490900  1
  O  O23  1  0.28299300  0.07721800  0.54509100  1
  O  O24  1  0.78299300  0.57721800  0.95490900  1
  O  O25  1  0.28299300  0.42278200  0.54509100  1
  O  O26  1  0.21700700  0.07721800  0.04509100  1
  O  O27  1  0.71700700  0.92278200  0.45490900  1
loop_
_geom_bond_atom_site_label_1
_geom_bond_atom_site_label_2
_geom_bond_distance
_geom_bond_site_symmetry_2
Ca0 O24 2.321661 1_554
Ca0 O22 2.321661 1_554
Ca0 O7 2.464348 1_555
Ca0 O1 2.464348 1_555
Ca0 O19 2.471302 1_554
Ca0 O9 2.522912 1_555
Ca0 O15 2.522912 1_555
Ca1 O25 2.321661 1_555
Ca1 O23 2.321661 1_555
Ca1 O0 2.464348 1_455
Ca1 O6 2.464348 1_455
Ca1 O18 2.471302 1_455
Ca1 O14 2.522912 1_555
Ca1 O8 2.522912 1_555
Ca2 O26 2.321661 1_556
Ca2 O20 2.321661 1_556
Ca2 O3 2.464348 1_555
Ca2 O5 2.464348 1_555
Ca2 O17 2.471302 1_556
Ca2 O11 2.522912 1_555
Ca2 O13 2.522912 1_555
Ca3 O27 2.321661 1_555
Ca3 O21 2.321661 1_555
Ca3 O4 2.464348 1_655
Ca3 O2 2.464348 1_655
Ca3 O16 2.471302 1_655
Ca3 O12 2.522912 1_555
Ca3 O10 2.522912 1_555
O0 V11 1.992053 1_545
O0 V10 1.998164 1_655
O0 V6 2.006592 1_555
O1 V10 1.992053 1_565
O1 V11 1.998164 1_555
O1 V7 2.006592 1_555
O2 V9 1.992053 1_555
O2 V8 1.998164 1_455
O2 V4 2.006592 1_555
O3 V8 1.992053 1_555
O3 V9 1.998164 1_555
O3 V5 2.006592 1_555
O4 V0 1.992053 1_565
O4 V1 1.998164 1_455
O4 V4 2.006592 1_555
O5 V1 1.992053 1_545
O5 V0 1.998164 1_555
O5 V5 2.006592 1_555
O6 V2 1.992053 1_555
O6 V3 1.998164 1_655
O6 V6 2.006592 1_555
O7 V3 1.992053 1_555
O7 V2 1.998164 1_555
O7 V7 2.006592 1_555
O8 V6 1.995850 1_555
O8 V10 1.995881 1_555
O8 V11 2.002744 1_545
O9 V7 1.995850 1_655
O9 V11 1.995881 1_555
O9 V10 2.002744 1_665
O10 V4 1.995850 1_555
O10 V8 1.995881 1_555
O10 V9 2.002744 1_555
O11 V5 1.995850 1_455
O11 V9 1.995881 1_555
O11 V8 2.002744 1_455
O12 V4 1.995850 1_555
O12 V1 1.995881 1_555
O12 V0 2.002744 1_565
O13 V5 1.995850 1_455
O13 V0 1.995881 1_555
O13 V1 2.002744 1_445
O14 V6 1.995850 1_555
O14 V3 1.995881 1_555
O14 V2 2.002744 1_555
O15 V7 1.995850 1_655
O15 V2 1.995881 1_555
O15 V3 2.002744 1_655
O16 V7 1.661502 1_555
O17 V6 1.661502 1_555
O18 V5 1.661502 1_555
O19 V4 1.661502 1_555
O20 V3 1.659199 1_555
O21 V2 1.659199 1_555
O22 V1 1.659199 1_555
O23 V0 1.659199 1_555
O24 V8 1.659199 1_555
O25 V9 1.659199 1_555
O26 V10 1.659199 1_555
O27 V11 1.659199 1_555
