# generated using pymatgen
data_Yb(P2Rh3)2
_symmetry_space_group_name_H-M   'P 1'
_cell_length_a   7.01744196
_cell_length_b   7.01744196
_cell_length_c   3.71474600
_cell_angle_alpha   90.00000000
_cell_angle_beta   90.00000000
_cell_angle_gamma   119.99999966
_symmetry_Int_Tables_number   1
_chemical_formula_structural   Yb(P2Rh3)2
_chemical_formula_sum   'Yb1 P4 Rh6'
_cell_volume   158.42270197
_cell_formula_units_Z   1
loop_
 _symmetry_equiv_pos_site_id
 _symmetry_equiv_pos_as_xyz
  1  'x, y, z'
loop_
 _atom_site_type_symbol
 _atom_site_label
 _atom_site_symmetry_multiplicity
 _atom_site_fract_x
 _atom_site_fract_y
 _atom_site_fract_z
 _atom_site_occupancy
  Yb  Yb0  1  0.00000000  0.00000000  0.50000000  1
  P  P0  1  0.66666700  0.33333300  0.50000000  1
  P  P1  1  0.19275100  0.37585200  0.00000000  1
  P  P2  1  0.18310200  0.80724900  0.00000000  1
  P  P3  1  0.62414800  0.81689800  0.00000000  1
  Rh  Rh0  1  0.48045800  0.93235500  0.50000000  1
  Rh  Rh1  1  0.45189700  0.51954200  0.50000000  1
  Rh  Rh2  1  0.06764500  0.54810300  0.50000000  1
  Rh  Rh3  1  0.79364000  0.60422300  0.00000000  1
  Rh  Rh4  1  0.81058300  0.20636000  0.00000000  1
  Rh  Rh5  1  0.39577700  0.18941700  0.00000000  1
loop_
_geom_bond_atom_site_label_1
_geom_bond_atom_site_label_2
_geom_bond_distance
_geom_bond_site_symmetry_2
P0 Rh0 2.438916 1_545
P0 Rh2 2.438917 1_655
P0 Rh1 2.438923 1_555
P0 Rh4 2.482654 1_556
P0 Rh4 2.482654 1_555
P0 Rh5 2.482658 1_555
P0 Rh5 2.482658 1_556
P0 Rh3 2.482658 1_556
P0 Rh3 2.482658 1_555
P1 Rh4 2.327480 1_455
P1 Rh5 2.367580 1_555
P1 Rh1 2.437205 1_554
P1 Rh1 2.437205 1_555
P1 Rh2 2.596708 1_555
P1 Rh2 2.596708 1_554
P1 Yb0 2.944208 1_555
P1 Yb0 2.944208 1_554
P2 Rh5 2.327480 1_565
P2 Rh3 2.367586 1_455
P2 Rh2 2.437205 1_555
P2 Rh2 2.437205 1_554
P2 Rh0 2.596703 1_555
P2 Rh0 2.596703 1_554
P2 Yb0 2.944213 1_564
P2 Yb0 2.944213 1_565
P3 Rh3 2.327474 1_555
P3 Rh4 2.367587 1_565
P3 Rh0 2.437209 1_555
P3 Rh0 2.437209 1_554
P3 Rh1 2.596704 1_554
P3 Rh1 2.596704 1_555
P3 Yb0 2.944208 1_665
P3 Yb0 2.944208 1_664
Rh3 Yb0 3.039505 1_664
Rh3 Yb0 3.039505 1_665
Rh4 Yb0 3.039505 1_655
Rh4 Yb0 3.039505 1_654
Rh5 Yb0 3.039505 1_554
Rh5 Yb0 3.039505 1_555
