# generated using pymatgen
data_TlHg3
_symmetry_space_group_name_H-M   'P 1'
_cell_length_a   4.80549767
_cell_length_b   4.80549767
_cell_length_c   4.80549767
_cell_angle_alpha   90.00000000
_cell_angle_beta   90.00000000
_cell_angle_gamma   90.00000000
_symmetry_Int_Tables_number   1
_chemical_formula_structural   TlHg3
_chemical_formula_sum   'Tl1 Hg3'
_cell_volume   110.97243435
_cell_formula_units_Z   1
loop_
 _symmetry_equiv_pos_site_id
 _symmetry_equiv_pos_as_xyz
  1  'x, y, z'
loop_
 _atom_site_type_symbol
 _atom_site_label
 _atom_site_symmetry_multiplicity
 _atom_site_fract_x
 _atom_site_fract_y
 _atom_site_fract_z
 _atom_site_occupancy
  Tl  Tl0  1  -0.00000000  -0.00000000  -0.00000000  1
  Hg  Hg0  1  -0.00000000  0.50000000  0.50000000  1
  Hg  Hg1  1  0.50000000  0.50000000  -0.00000000  1
  Hg  Hg2  1  0.50000000  -0.00000000  0.50000000  1
loop_
_geom_bond_atom_site_label_1
_geom_bond_atom_site_label_2
_geom_bond_distance
_geom_bond_site_symmetry_2
Hg0 Hg1 3.398000 1_455
Hg0 Hg2 3.398000 1_455
Hg0 Hg2 3.398000 1_465
Hg0 Tl0 3.398000 1_556
Hg0 Tl0 3.398000 1_565
Hg0 Hg2 3.398000 1_555
Hg0 Hg2 3.398000 1_565
Hg0 Hg1 3.398000 1_456
Hg0 Tl0 3.398000 1_566
Hg0 Hg1 3.398000 1_556
Hg0 Hg1 3.398000 1_555
Hg0 Tl0 3.398000 1_555
Hg1 Hg2 3.398000 1_554
Hg1 Tl0 3.398000 1_565
Hg1 Tl0 3.398000 1_665
Hg1 Hg2 3.398000 1_555
Hg1 Tl0 3.398000 1_655
Hg1 Hg2 3.398000 1_565
Hg1 Hg2 3.398000 1_564
Hg1 Tl0 3.398000 1_555
Hg2 Tl0 3.398000 1_556
Hg2 Tl0 3.398000 1_655
Hg2 Tl0 3.398000 1_656
Hg2 Tl0 3.398000 1_555
