# generated using pymatgen
data_BaMgSbF7
_symmetry_space_group_name_H-M   'P 1'
_cell_length_a   10.72473200
_cell_length_b   5.82403600
_cell_length_c   9.97286763
_cell_angle_alpha   84.76164554
_cell_angle_beta   90.00000000
_cell_angle_gamma   90.00000000
_symmetry_Int_Tables_number   1
_chemical_formula_structural   BaMgSbF7
_chemical_formula_sum   'Ba4 Mg4 Sb4 F28'
_cell_volume   620.31591967
_cell_formula_units_Z   4
loop_
 _symmetry_equiv_pos_site_id
 _symmetry_equiv_pos_as_xyz
  1  'x, y, z'
loop_
 _atom_site_type_symbol
 _atom_site_label
 _atom_site_symmetry_multiplicity
 _atom_site_fract_x
 _atom_site_fract_y
 _atom_site_fract_z
 _atom_site_occupancy
  Ba  Ba0  1  0.33958100  0.73618900  0.47639000  1
  Ba  Ba1  1  0.83958100  0.26381100  0.02361000  1
  Ba  Ba2  1  0.66041900  0.26381100  0.52361000  1
  Ba  Ba3  1  0.16041900  0.73618900  0.97639000  1
  Mg  Mg0  1  0.36626000  0.30193800  0.80274900  1
  Mg  Mg1  1  0.86626000  0.69806200  0.69725100  1
  Mg  Mg2  1  0.13374000  0.30193800  0.30274900  1
  Mg  Mg3  1  0.63374000  0.69806200  0.19725100  1
  Sb  Sb0  1  0.58854300  0.79449400  0.84446500  1
  Sb  Sb1  1  0.41145700  0.20550600  0.15553500  1
  Sb  Sb2  1  0.91145700  0.79449400  0.34446500  1
  Sb  Sb3  1  0.08854300  0.20550600  0.65553500  1
  F  F0  1  0.47624600  0.86736500  0.13696600  1
  F  F1  1  0.11612400  0.57864900  0.40239500  1
  F  F2  1  0.71075400  0.52559800  0.76952500  1
  F  F3  1  0.28924600  0.47440200  0.23047500  1
  F  F4  1  0.46710900  0.11153000  0.35563100  1
  F  F5  1  0.79180000  0.85016900  0.52423100  1
  F  F6  1  0.75166400  0.96610600  0.77071700  1
  F  F7  1  0.96710900  0.88847000  0.14436900  1
  F  F8  1  0.38387600  0.57864900  0.90239500  1
  F  F9  1  0.21075400  0.47440200  0.73047500  1
  F  F10  1  0.02375400  0.86736500  0.63696600  1
  F  F11  1  0.52375400  0.13263500  0.86303400  1
  F  F12  1  0.25166400  0.03389400  0.72928300  1
  F  F13  1  0.95011000  0.59549300  0.86546600  1
  F  F14  1  0.53289100  0.88847000  0.64436900  1
  F  F15  1  0.03289100  0.11153000  0.85563100  1
  F  F16  1  0.24833600  0.03389400  0.22928300  1
  F  F17  1  0.97624600  0.13263500  0.36303400  1
  F  F18  1  0.45011000  0.40450700  0.63453400  1
  F  F19  1  0.88387600  0.42135100  0.59760500  1
  F  F20  1  0.04989000  0.40450700  0.13453400  1
  F  F21  1  0.74833600  0.96610600  0.27071700  1
  F  F22  1  0.54989000  0.59549300  0.36546600  1
  F  F23  1  0.29180000  0.14983100  0.97576900  1
  F  F24  1  0.20820000  0.14983100  0.47576900  1
  F  F25  1  0.70820000  0.85016900  0.02423100  1
  F  F26  1  0.61612400  0.42135100  0.09760500  1
  F  F27  1  0.78924600  0.52559800  0.26952500  1
loop_
_geom_bond_atom_site_label_1
_geom_bond_atom_site_label_2
_geom_bond_distance
_geom_bond_site_symmetry_2
Ba0 F18 2.658538 1_555
Ba0 F22 2.673579 1_555
Ba0 F1 2.693199 1_555
Ba0 F4 2.760229 1_565
Ba0 F24 2.790388 1_565
Ba0 F14 2.856995 1_555
Ba0 F16 3.042485 1_565
Ba0 F3 3.051788 1_555
Ba0 F9 3.154199 1_555
Ba0 F12 3.324840 1_565
Ba1 F13 2.658538 1_554
Ba1 F20 2.673579 1_655
Ba1 F26 2.693199 1_555
Ba1 F7 2.760229 1_545
Ba1 F25 2.790388 1_545
Ba1 F15 2.856995 1_654
Ba1 F21 3.042485 1_545
Ba1 F27 3.051788 1_555
Ba1 F2 3.154199 1_554
Ba1 F6 3.324840 1_544
Ba2 F22 2.658538 1_555
Ba2 F18 2.673579 1_555
Ba2 F19 2.693199 1_555
Ba2 F14 2.760229 1_545
Ba2 F5 2.790388 1_545
Ba2 F4 2.856995 1_555
Ba2 F6 3.042485 1_545
Ba2 F2 3.051788 1_555
Ba2 F27 3.154199 1_555
Ba2 F21 3.324840 1_545
Ba3 F20 2.658538 1_556
Ba3 F13 2.673579 1_455
Ba3 F8 2.693199 1_555
Ba3 F15 2.760229 1_565
Ba3 F23 2.790388 1_565
Ba3 F7 2.856995 1_456
Ba3 F12 3.042485 1_565
Ba3 F9 3.051788 1_555
Ba3 F3 3.154199 1_556
Ba3 F16 3.324840 1_566
F0 Mg3 2.019519 1_555
F0 Sb1 2.112349 1_565
F1 Mg2 1.978093 1_555
F1 Sb2 2.568939 1_455
F2 Mg1 2.043928 1_555
F2 Sb0 2.223219 1_555
F3 Mg2 2.043928 1_555
F3 Sb1 2.223219 1_555
F4 Sb1 2.106775 1_555
F5 Mg1 2.029959 1_555
F5 Sb2 2.252152 1_555
F6 Sb0 2.113328 1_555
F6 Mg1 2.166367 1_555
F7 Sb2 2.106775 1_555
F8 Mg0 1.978093 1_555
F8 Sb0 2.568939 1_555
F9 Mg0 2.043928 1_555
F9 Sb3 2.223219 1_555
F10 Mg1 2.019519 1_455
F10 Sb3 2.112349 1_565
F11 Mg0 2.019519 1_555
F11 Sb0 2.112349 1_545
F12 Sb3 2.113328 1_555
F12 Mg0 2.166367 1_555
F13 Mg1 1.948547 1_555
F14 Sb0 2.106775 1_555
F15 Sb3 2.106775 1_555
F16 Sb1 2.113328 1_555
F16 Mg2 2.166367 1_555
F17 Mg2 2.019519 1_655
F17 Sb2 2.112349 1_545
F18 Mg0 1.948547 1_555
F19 Mg1 1.978093 1_555
F19 Sb3 2.568939 1_655
F20 Mg2 1.948547 1_555
F21 Sb2 2.113328 1_555
F21 Mg3 2.166367 1_555
F22 Mg3 1.948547 1_555
F23 Mg0 2.029959 1_555
F23 Sb1 2.252152 1_556
F24 Mg2 2.029959 1_555
F24 Sb3 2.252152 1_555
F25 Mg3 2.029959 1_555
F25 Sb0 2.252152 1_554
F26 Mg3 1.978093 1_555
F26 Sb1 2.568939 1_555
F27 Mg3 2.043928 1_555
F27 Sb2 2.223219 1_555
