# generated using pymatgen
data_Li5Co3O8
_symmetry_space_group_name_H-M   'P 1'
_cell_length_a   9.65468709
_cell_length_b   9.65468709
_cell_length_c   5.05659019
_cell_angle_alpha   85.51367008
_cell_angle_beta   85.51367008
_cell_angle_gamma   17.17620909
_symmetry_Int_Tables_number   1
_chemical_formula_structural   Li5Co3O8
_chemical_formula_sum   'Li5 Co3 O8'
_cell_volume   138.75579239
_cell_formula_units_Z   1
loop_
 _symmetry_equiv_pos_site_id
 _symmetry_equiv_pos_as_xyz
  1  'x, y, z'
loop_
 _atom_site_type_symbol
 _atom_site_label
 _atom_site_symmetry_multiplicity
 _atom_site_fract_x
 _atom_site_fract_y
 _atom_site_fract_z
 _atom_site_occupancy
  Li  Li0  1  0.12219700  0.12219700  0.61820200  1
  Li  Li1  1  0.87780300  0.87780300  0.38179800  1
  Li  Li2  1  0.62183500  0.62183500  0.12414200  1
  Li  Li3  1  0.37816500  0.37816500  0.87585800  1
  Li  Li4  1  0.50000000  0.50000000  0.50000000  1
  Co  Co0  1  0.00000000  0.00000000  0.00000000  1
  Co  Co1  1  0.75038300  0.75038300  0.74988000  1
  Co  Co2  1  0.24961700  0.24961700  0.25012000  1
  O  O0  1  0.55452000  0.55452000  0.83358100  1
  O  O1  1  0.31005600  0.31005600  0.56981800  1
  O  O2  1  0.05528400  0.05528400  0.27324600  1
  O  O3  1  0.80834100  0.80834100  0.07430900  1
  O  O4  1  0.68994400  0.68994400  0.43018200  1
  O  O5  1  0.44548000  0.44548000  0.16641900  1
  O  O6  1  0.19165900  0.19165900  0.92569100  1
  O  O7  1  0.94471600  0.94471600  0.72675400  1
loop_
_geom_bond_atom_site_label_1
_geom_bond_atom_site_label_2
_geom_bond_distance
_geom_bond_site_symmetry_2
Li0 O4 2.112117 1_545
Li0 O4 2.112117 1_455
Li0 O6 2.121953 1_555
Li0 O0 2.170644 1_545
Li0 O0 2.170644 1_455
Li0 O2 2.242170 1_555
Li1 O1 2.112117 1_565
Li1 O1 2.112117 1_655
Li1 O3 2.121953 1_555
Li1 O5 2.170644 1_655
Li1 O5 2.170644 1_565
Li1 O7 2.242170 1_555
Li2 O0 2.027138 1_554
Li2 O2 2.027320 1_655
Li2 O2 2.027320 1_565
Li2 O4 2.098627 1_555
Li2 O6 2.156661 1_564
Li2 O6 2.156661 1_654
Li3 O5 2.027138 1_556
Li3 O7 2.027320 1_455
Li3 O7 2.027320 1_545
Li3 O1 2.098627 1_555
Li3 O3 2.156661 1_546
Li3 O3 2.156661 1_456
Li4 O0 2.051000 1_555
Li4 O5 2.051000 1_555
Li4 O2 2.077488 1_655
Li4 O2 2.077488 1_565
Li4 O7 2.077488 1_455
Li4 O7 2.077488 1_545
Co0 O7 1.803875 1_444
Co0 O2 1.803875 1_555
Co0 O5 1.931764 1_455
Co0 O5 1.931764 1_545
Co0 O0 1.931764 1_544
Co0 O0 1.931764 1_454
Co1 O6 1.992068 1_565
Co1 O6 1.992068 1_655
Co1 O1 2.010361 1_655
Co1 O1 2.010361 1_565
Co1 O3 2.050123 1_556
Co1 O4 2.059148 1_555
Co2 O3 1.992068 1_545
Co2 O3 1.992068 1_455
Co2 O4 2.010361 1_455
Co2 O4 2.010361 1_545
Co2 O6 2.050123 1_554
Co2 O1 2.059148 1_555
