# generated using pymatgen
data_Li4Mn3O7
_symmetry_space_group_name_H-M   'P 1'
_cell_length_a   7.82022692
_cell_length_b   7.82022692
_cell_length_c   13.56112338
_cell_angle_alpha   60.60784581
_cell_angle_beta   60.60784581
_cell_angle_gamma   21.24412360
_symmetry_Int_Tables_number   1
_chemical_formula_structural   Li4Mn3O7
_chemical_formula_sum   'Li8 Mn6 O14'
_cell_volume   260.36034193
_cell_formula_units_Z   2
loop_
 _symmetry_equiv_pos_site_id
 _symmetry_equiv_pos_as_xyz
  1  'x, y, z'
loop_
 _atom_site_type_symbol
 _atom_site_label
 _atom_site_symmetry_multiplicity
 _atom_site_fract_x
 _atom_site_fract_y
 _atom_site_fract_z
 _atom_site_occupancy
  Li  Li0  1  0.06985500  0.06985500  0.64958100  1
  Li  Li1  1  0.36193800  0.36193800  0.20462300  1
  Li  Li2  1  0.63806200  0.63806200  0.79537700  1
  Li  Li3  1  0.50000000  0.50000000  0.50000000  1
  Li  Li4  1  0.79444300  0.79444300  0.06356300  1
  Li  Li5  1  0.93014500  0.93014500  0.35041900  1
  Li  Li6  1  0.20555700  0.20555700  0.93643700  1
  Li  Li7  1  0.00000000  0.00000000  0.00000000  1
  Mn  Mn0  1  0.42950600  0.42950600  0.86890800  1
  Mn  Mn1  1  0.57049400  0.57049400  0.13109200  1
  Mn  Mn2  1  0.71359300  0.71359300  0.42698400  1
  Mn  Mn3  1  0.28640700  0.28640700  0.57301600  1
  Mn  Mn4  1  0.85530200  0.85530200  0.72397700  1
  Mn  Mn5  1  0.14469800  0.14469800  0.27602300  1
  O  O0  1  0.02696400  0.02696400  0.82445600  1
  O  O1  1  0.31143400  0.31143400  0.39046100  1
  O  O2  1  0.60366500  0.60366500  0.98219600  1
  O  O3  1  0.45332300  0.45332300  0.69557400  1
  O  O4  1  0.74130500  0.74130500  0.24460900  1
  O  O5  1  0.88574200  0.88574200  0.53560000  1
  O  O6  1  0.16494400  0.16494400  0.10694200  1
  O  O7  1  0.11425800  0.11425800  0.46440000  1
  O  O8  1  0.39633500  0.39633500  0.01780400  1
  O  O9  1  0.68856600  0.68856600  0.60953900  1
  O  O10  1  0.54667700  0.54667700  0.30442600  1
  O  O11  1  0.83505600  0.83505600  0.89305800  1
  O  O12  1  0.97303600  0.97303600  0.17554400  1
  O  O13  1  0.25869500  0.25869500  0.75539100  1
loop_
_geom_bond_atom_site_label_1
_geom_bond_atom_site_label_2
_geom_bond_distance
_geom_bond_site_symmetry_2
Li0 O0 2.120657 1_555
Li0 O3 2.135452 1_455
Li0 O3 2.135452 1_545
Li0 O9 2.171023 1_545
Li0 O9 2.171023 1_455
Li0 O7 2.249550 1_555
Li1 O12 2.116031 1_455
Li1 O12 2.116031 1_545
Li1 O4 2.192398 1_545
Li1 O4 2.192398 1_455
Li1 O1 2.236070 1_555
Li1 O8 2.315220 1_555
Li2 O0 2.116031 1_565
Li2 O0 2.116031 1_655
Li2 O13 2.192398 1_655
Li2 O13 2.192398 1_565
Li2 O9 2.236070 1_555
Li2 O2 2.315220 1_555
Li3 O7 2.132882 1_655
Li3 O7 2.132882 1_565
Li3 O5 2.132882 1_545
Li3 O5 2.132882 1_455
Li3 O3 2.376656 1_555
Li3 O10 2.376656 1_555
Li4 O8 1.986377 1_565
Li4 O8 1.986377 1_655
Li4 O11 2.072330 1_554
Li4 O4 2.166172 1_555
Li4 O6 2.284164 1_565
Li4 O6 2.284164 1_655
Li5 O12 2.120657 1_555
Li5 O10 2.135452 1_565
Li5 O10 2.135452 1_655
Li5 O1 2.171023 1_565
Li5 O1 2.171023 1_655
Li5 O5 2.249550 1_555
Li6 O2 1.986377 1_545
Li6 O2 1.986377 1_455
Li6 O6 2.072330 1_556
Li6 O13 2.166172 1_555
Li6 O11 2.284164 1_455
Li6 O11 2.284164 1_545
Li7 O2 2.071589 1_454
Li7 O2 2.071589 1_544
Li7 O8 2.071589 1_545
Li7 O8 2.071589 1_455
Li7 O12 2.203064 1_445
Li7 O0 2.203064 1_554
Mn0 O8 1.819039 1_556
Mn0 O0 1.945222 1_655
Mn0 O0 1.945222 1_565
Mn0 O11 1.954071 1_545
Mn0 O11 1.954071 1_455
Mn0 O3 2.190868 1_555
Mn1 O2 1.819039 1_554
Mn1 O12 1.945222 1_455
Mn1 O12 1.945222 1_545
Mn1 O6 1.954071 1_655
Mn1 O6 1.954071 1_565
Mn1 O10 2.190868 1_555
Mn2 O1 1.959964 1_565
Mn2 O1 1.959964 1_655
Mn2 O7 1.973166 1_655
Mn2 O7 1.973166 1_565
Mn2 O4 2.290424 1_555
Mn2 O9 2.307741 1_555
Mn3 O9 1.959964 1_455
Mn3 O9 1.959964 1_545
Mn3 O5 1.973166 1_545
Mn3 O5 1.973166 1_455
Mn3 O13 2.290424 1_555
Mn3 O1 2.307741 1_555
Mn4 O13 1.957821 1_655
Mn4 O13 1.957821 1_565
Mn4 O3 1.979185 1_655
Mn4 O3 1.979185 1_565
Mn4 O11 2.154460 1_555
Mn4 O5 2.356087 1_555
Mn5 O4 1.957821 1_455
Mn5 O4 1.957821 1_545
Mn5 O10 1.979185 1_455
Mn5 O10 1.979185 1_545
Mn5 O6 2.154460 1_555
Mn5 O7 2.356087 1_555
