# generated using pymatgen
data_K3LiGe4
_symmetry_space_group_name_H-M   'P 1'
_cell_length_a   7.71996382
_cell_length_b   9.83993302
_cell_length_c   12.39537032
_cell_angle_alpha   90.00000000
_cell_angle_beta   90.00000000
_cell_angle_gamma   90.00000000
_symmetry_Int_Tables_number   1
_chemical_formula_structural   K3LiGe4
_chemical_formula_sum   'K12 Li4 Ge16'
_cell_volume   941.60100496
_cell_formula_units_Z   4
loop_
 _symmetry_equiv_pos_site_id
 _symmetry_equiv_pos_as_xyz
  1  'x, y, z'
loop_
 _atom_site_type_symbol
 _atom_site_label
 _atom_site_symmetry_multiplicity
 _atom_site_fract_x
 _atom_site_fract_y
 _atom_site_fract_z
 _atom_site_occupancy
  K  K0  1  0.15529821  0.25000000  0.60031153  1
  K  K1  1  0.84470179  0.75000000  0.39968847  1
  K  K2  1  0.34470179  0.75000000  0.10031153  1
  K  K3  1  0.65529821  0.25000000  0.89968847  1
  K  K4  1  0.15567498  0.05522125  0.30584084  1
  K  K5  1  0.84432502  0.94477875  0.69415916  1
  K  K6  1  0.34432502  0.94477875  0.80584084  1
  K  K7  1  0.84432502  0.55522125  0.69415916  1
  K  K8  1  0.65567498  0.05522125  0.19415916  1
  K  K9  1  0.15567498  0.44477875  0.30584084  1
  K  K10  1  0.65567498  0.44477875  0.19415916  1
  K  K11  1  0.34432502  0.55522125  0.80584084  1
  Li  Li0  1  -0.00000000  -0.00000000  -0.00000000  1
  Li  Li1  1  0.50000000  -0.00000000  0.50000000  1
  Li  Li2  1  -0.00000000  0.50000000  -0.00000000  1
  Li  Li3  1  0.50000000  0.50000000  0.50000000  1
  Ge  Ge0  1  0.63599304  0.25000000  0.60588794  1
  Ge  Ge1  1  0.36400696  0.75000000  0.39411206  1
  Ge  Ge2  1  0.86400696  0.75000000  0.10588794  1
  Ge  Ge3  1  0.13599304  0.25000000  0.89411206  1
  Ge  Ge4  1  0.29094559  0.12296428  0.04883233  1
  Ge  Ge5  1  0.70905441  0.87703572  0.95116767  1
  Ge  Ge6  1  0.20905441  0.87703572  0.54883233  1
  Ge  Ge7  1  0.70905441  0.62296428  0.95116767  1
  Ge  Ge8  1  0.79094559  0.12296428  0.45116767  1
  Ge  Ge9  1  0.29094559  0.37703572  0.04883233  1
  Ge  Ge10  1  0.79094559  0.37703572  0.45116767  1
  Ge  Ge11  1  0.20905441  0.62296428  0.54883233  1
  Ge  Ge12  1  0.00513409  0.25000000  0.08670629  1
  Ge  Ge13  1  0.99486591  0.75000000  0.91329371  1
  Ge  Ge14  1  0.49486591  0.75000000  0.58670629  1
  Ge  Ge15  1  0.50513409  0.25000000  0.41329371  1
loop_
_geom_bond_atom_site_label_1
_geom_bond_atom_site_label_2
_geom_bond_distance
_geom_bond_site_symmetry_2
Ge0 Ge8 2.582931 1_555
Ge0 Ge10 2.582931 1_555
Ge0 Ge15 2.592228 1_555
Ge0 Li3 2.979335 1_555
Ge0 Li1 2.979335 1_555
Ge0 K7 3.578268 1_555
Ge0 K5 3.578268 1_545
Ge0 K3 3.644815 1_555
Ge0 K0 3.711590 1_555
Ge1 Ge11 2.582931 1_555
Ge1 Ge6 2.582931 1_555
Ge1 Ge14 2.592228 1_555
Ge1 Li3 2.979335 1_555
Ge1 Li1 2.979335 1_565
Ge1 K9 3.578268 1_555
Ge1 K4 3.578268 1_565
Ge1 K2 3.644815 1_555
Ge1 K1 3.711590 1_555
Ge2 Ge5 2.582931 1_554
Ge2 Ge7 2.582931 1_554
Ge2 Li2 2.979335 1_655
Ge2 Li0 2.979335 1_665
Ge2 K8 3.578268 1_565
Ge2 K10 3.578268 1_555
Ge2 K1 3.644815 1_555
Ge2 K2 3.711590 1_655
Ge3 Ge9 2.582931 1_556
Ge3 Ge4 2.582931 1_556
Ge3 Li0 2.979335 1_556
Ge3 Li2 2.979335 1_556
Ge3 K6 3.578268 1_545
Ge3 K11 3.578268 1_555
Ge3 K0 3.644815 1_555
Ge3 K3 3.711590 1_455
Ge4 Ge9 2.500046 1_555
Ge4 Li0 2.622080 1_555
Ge4 K8 3.408440 1_555
Ge4 K4 3.418136 1_555
Ge4 K6 3.509410 1_544
Ge4 K3 3.590544 1_554
Ge4 K2 3.748051 1_545
Ge5 Ge7 2.500046 1_555
Ge5 Li0 2.622080 1_666
Ge5 K6 3.408440 1_555
Ge5 K5 3.418136 1_555
Ge5 K8 3.509410 1_566
Ge5 K2 3.590544 1_556
Ge5 K3 3.748051 1_565
Ge6 Li1 2.622080 1_565
Ge6 K5 3.408440 1_455
Ge6 K6 3.418136 1_555
Ge6 K4 3.509410 1_565
Ge6 K1 3.590544 1_455
Ge6 K0 3.748051 1_565
Ge7 Li2 2.622080 1_656
Ge7 K11 3.408440 1_555
Ge7 K7 3.418136 1_555
Ge7 K10 3.509410 1_556
Ge7 K2 3.590544 1_556
Ge7 K3 3.748051 1_555
Ge8 Li1 2.622080 1_555
Ge8 K4 3.408440 1_655
Ge8 K8 3.418136 1_555
Ge8 K5 3.509410 1_545
Ge8 K0 3.590544 1_655
Ge8 K1 3.748051 1_545
Ge9 Li2 2.622080 1_555
Ge9 K10 3.408440 1_555
Ge9 K9 3.418136 1_555
Ge9 K11 3.509410 1_554
Ge9 K3 3.590544 1_554
Ge9 K2 3.748051 1_555
Ge10 Ge8 2.500046 1_555
Ge10 Ge15 2.579029 1_555
Ge10 Li3 2.622080 1_555
Ge10 K9 3.408440 1_655
Ge10 K10 3.418136 1_555
Ge10 K7 3.509410 1_555
Ge10 K0 3.590544 1_655
Ge10 K1 3.748051 1_555
Ge11 Ge6 2.500046 1_555
Ge11 Ge14 2.579029 1_555
Ge11 Li3 2.622080 1_555
Ge11 K7 3.408440 1_455
Ge11 K11 3.418136 1_555
Ge11 K9 3.509410 1_555
Ge11 K1 3.590544 1_455
Ge11 K0 3.748051 1_555
Ge12 Ge4 2.579029 1_555
Ge12 Ge9 2.579029 1_555
Ge12 Ge3 2.592228 1_554
Ge12 Li2 2.684807 1_555
Ge12 Li0 2.684807 1_555
Ge12 K9 3.521657 1_555
Ge12 K4 3.521657 1_555
Ge12 K3 3.559176 1_454
Ge12 K8 3.567294 1_455
Ge12 K10 3.567294 1_455
Ge13 Ge7 2.579029 1_555
Ge13 Ge5 2.579029 1_555
Ge13 Ge2 2.592228 1_556
Ge13 Li2 2.684807 1_656
Ge13 Li0 2.684807 1_666
Ge13 K7 3.521657 1_555
Ge13 K5 3.521657 1_555
Ge13 K2 3.559176 1_656
Ge13 K11 3.567294 1_655
Ge13 K6 3.567294 1_655
Ge14 Ge6 2.579029 1_555
Ge14 Li3 2.684807 1_555
Ge14 Li1 2.684807 1_565
Ge14 K11 3.521657 1_555
Ge14 K6 3.521657 1_555
Ge14 K1 3.559176 1_555
Ge14 K7 3.567294 1_555
Ge14 K5 3.567294 1_555
Ge15 Ge8 2.579029 1_555
Ge15 Li3 2.684807 1_555
Ge15 Li1 2.684807 1_555
Ge15 K10 3.521657 1_555
Ge15 K8 3.521657 1_555
Ge15 K0 3.559176 1_555
Ge15 K4 3.567294 1_555
Ge15 K9 3.567294 1_555
