# generated using pymatgen
data_Nd6Fe13Hg
_symmetry_space_group_name_H-M   'P 1'
_cell_length_a   8.09362400
_cell_length_b   8.09362400
_cell_length_c   12.82748412
_cell_angle_alpha   108.38978072
_cell_angle_beta   108.38978072
_cell_angle_gamma   90.00000000
_symmetry_Int_Tables_number   1
_chemical_formula_structural   Nd6Fe13Hg
_chemical_formula_sum   'Nd12 Fe26 Hg2'
_cell_volume   752.01912139
_cell_formula_units_Z   2
loop_
 _symmetry_equiv_pos_site_id
 _symmetry_equiv_pos_as_xyz
  1  'x, y, z'
loop_
 _atom_site_type_symbol
 _atom_site_label
 _atom_site_symmetry_multiplicity
 _atom_site_fract_x
 _atom_site_fract_y
 _atom_site_fract_z
 _atom_site_occupancy
  Nd  Nd0  1  0.97493000  0.47493000  0.62543000  1
  Nd  Nd1  1  0.65050000  0.15050000  0.62543000  1
  Nd  Nd2  1  0.15050000  0.97493000  0.62543000  1
  Nd  Nd3  1  0.47493000  0.65050000  0.62543000  1
  Nd  Nd4  1  0.02507000  0.52507000  0.37457000  1
  Nd  Nd5  1  0.34950000  0.84950000  0.37457000  1
  Nd  Nd6  1  0.84950000  0.02507000  0.37457000  1
  Nd  Nd7  1  0.52507000  0.34950000  0.37457000  1
  Nd  Nd8  1  0.60599800  0.60599800  0.21199700  1
  Nd  Nd9  1  0.10599800  0.10599800  0.21199700  1
  Nd  Nd10  1  0.39400200  0.39400200  0.78800300  1
  Nd  Nd11  1  0.89400200  0.89400200  0.78800300  1
  Fe  Fe0  1  0.11807500  0.61807500  0.88018000  1
  Fe  Fe1  1  0.76210500  0.26210500  0.88018000  1
  Fe  Fe2  1  0.26210500  0.11807500  0.88018000  1
  Fe  Fe3  1  0.61807500  0.76210500  0.88018000  1
  Fe  Fe4  1  0.88192500  0.38192500  0.11982000  1
  Fe  Fe5  1  0.23789500  0.73789500  0.11982000  1
  Fe  Fe6  1  0.73789500  0.88192500  0.11982000  1
  Fe  Fe7  1  0.38192500  0.23789500  0.11982000  1
  Fe  Fe8  1  0.71040500  0.56672400  0.00000000  1
  Fe  Fe9  1  0.28959500  0.43327600  0.00000000  1
  Fe  Fe10  1  0.78959500  0.06672400  0.00000000  1
  Fe  Fe11  1  0.21040500  0.93327600  0.00000000  1
  Fe  Fe12  1  0.56672400  0.28959500  0.00000000  1
  Fe  Fe13  1  0.43327600  0.71040500  0.00000000  1
  Fe  Fe14  1  0.06672400  0.21040500  0.00000000  1
  Fe  Fe15  1  0.93327600  0.78959500  0.00000000  1
  Fe  Fe16  1  0.29034700  0.79034700  0.80837200  1
  Fe  Fe17  1  0.51802500  0.01802500  0.80837200  1
  Fe  Fe18  1  0.01802500  0.29034700  0.80837200  1
  Fe  Fe19  1  0.79034700  0.51802500  0.80837200  1
  Fe  Fe20  1  0.70965300  0.20965300  0.19162800  1
  Fe  Fe21  1  0.48197500  0.98197500  0.19162800  1
  Fe  Fe22  1  0.98197500  0.70965300  0.19162800  1
  Fe  Fe23  1  0.20965300  0.48197500  0.19162800  1
  Fe  Fe24  1  0.00000000  0.50000000  0.00000000  1
  Fe  Fe25  1  0.50000000  0.00000000  0.00000000  1
  Hg  Hg0  1  0.25000000  0.25000000  0.50000000  1
  Hg  Hg1  1  0.75000000  0.75000000  0.50000000  1
loop_
_geom_bond_atom_site_label_1
_geom_bond_atom_site_label_2
_geom_bond_distance
_geom_bond_site_symmetry_2
Fe0 Fe24 2.458136 1_556
Fe0 Fe11 2.496048 1_556
Fe0 Fe13 2.496048 1_556
Fe0 Fe16 2.521375 1_555
Fe0 Fe19 2.554945 1_455
Fe0 Fe18 2.554945 1_555
Fe0 Fe15 2.575036 1_456
Fe0 Fe9 2.575036 1_556
Fe0 Fe5 2.751073 1_556
Fe0 Nd0 2.930102 1_455
Fe0 Nd11 3.160314 1_455
Fe0 Nd10 3.160314 1_555
Fe1 Fe24 2.458136 1_656
Fe1 Fe10 2.496048 1_556
Fe1 Fe12 2.496048 1_556
Fe1 Fe17 2.521375 1_555
Fe1 Fe18 2.554945 1_655
Fe1 Fe19 2.554945 1_555
Fe1 Fe14 2.575036 1_656
Fe1 Fe8 2.575036 1_556
Fe1 Fe4 2.751073 1_556
Fe1 Nd1 2.930102 1_555
Fe1 Nd11 3.160311 1_545
Fe1 Nd10 3.160311 1_555
Fe2 Fe25 2.458136 1_556
Fe2 Fe9 2.496048 1_556
Fe2 Fe7 2.751073 1_556
Fe2 Nd2 2.930102 1_545
Fe2 Nd11 3.160307 1_445
Fe2 Nd10 3.160318 1_555
Fe3 Fe8 2.496048 1_556
Fe3 Fe6 2.751073 1_556
Fe3 Nd3 2.930102 1_555
Fe3 Nd10 3.160307 1_555
Fe3 Nd11 3.160318 1_555
Fe4 Fe8 2.575036 1_555
Fe4 Nd4 2.930102 1_655
Fe4 Nd8 3.160314 1_555
Fe4 Nd9 3.160314 1_655
Fe5 Fe9 2.575036 1_555
Fe5 Nd5 2.930102 1_555
Fe5 Nd8 3.160311 1_555
Fe5 Nd9 3.160311 1_565
Fe6 Fe8 2.496048 1_555
Fe6 Nd6 2.930102 1_565
Fe6 Nd9 3.160307 1_665
Fe6 Nd8 3.160318 1_555
Fe7 Fe9 2.496048 1_555
Fe7 Nd7 2.930102 1_555
Fe7 Nd8 3.160307 1_555
Fe7 Nd9 3.160318 1_555
Fe8 Nd10 3.019051 1_554
Fe8 Nd8 3.019057 1_555
Fe9 Nd8 3.019051 1_555
Fe9 Nd10 3.019057 1_554
Fe10 Fe25 2.405282 1_555
Fe10 Fe4 2.496048 1_555
Fe10 Fe15 2.526517 1_545
Fe10 Fe14 2.526517 1_655
Fe10 Fe12 2.551007 1_555
Fe10 Fe3 2.575036 1_544
Fe10 Fe6 2.575036 1_545
Fe10 Fe20 2.647350 1_555
Fe10 Fe17 2.647350 1_554
Fe10 Nd9 3.019053 1_655
Fe10 Nd11 3.019056 1_544
Fe11 Fe25 2.405282 1_565
Fe11 Fe5 2.496048 1_555
Fe11 Fe14 2.526517 1_565
Fe11 Fe15 2.526517 1_455
Fe11 Fe13 2.551007 1_555
Fe11 Fe7 2.575036 1_565
Fe11 Fe2 2.575036 1_564
Fe11 Fe21 2.647350 1_555
Fe11 Fe16 2.647350 1_554
Fe11 Nd11 3.019053 1_454
Fe11 Nd9 3.019056 1_565
Fe12 Fe25 2.405282 1_555
Fe12 Fe4 2.496048 1_555
Fe12 Fe9 2.526517 1_555
Fe12 Fe8 2.526517 1_555
Fe12 Fe7 2.575036 1_555
Fe12 Fe2 2.575036 1_554
Fe12 Fe20 2.647350 1_555
Fe12 Fe17 2.647350 1_554
Fe12 Nd8 3.019053 1_555
Fe12 Nd10 3.019056 1_554
Fe13 Fe25 2.405282 1_565
Fe13 Fe5 2.496048 1_555
Fe13 Fe9 2.526517 1_555
Fe13 Fe8 2.526517 1_555
Fe13 Fe6 2.575036 1_555
Fe13 Fe3 2.575036 1_554
Fe13 Fe21 2.647350 1_555
Fe13 Fe16 2.647350 1_554
Fe13 Nd10 3.019053 1_554
Fe13 Nd8 3.019056 1_555
Fe14 Fe24 2.405282 1_555
Fe14 Fe7 2.496048 1_555
Fe14 Fe2 2.496048 1_554
Fe14 Fe9 2.551007 1_555
Fe14 Fe4 2.575036 1_455
Fe14 Fe23 2.647350 1_555
Fe14 Fe18 2.647350 1_554
Fe14 Nd11 3.019051 1_444
Fe14 Nd9 3.019057 1_555
Fe15 Fe24 2.405282 1_655
Fe15 Fe3 2.496048 1_554
Fe15 Fe6 2.496048 1_555
Fe15 Fe8 2.551007 1_555
Fe15 Fe5 2.575036 1_655
Fe15 Fe19 2.647350 1_554
Fe15 Fe22 2.647350 1_555
Fe15 Nd9 3.019051 1_665
Fe15 Nd11 3.019057 1_554
Fe16 Fe2 2.554945 1_565
Fe16 Fe3 2.554945 1_555
Fe16 Fe25 2.556830 1_566
Fe16 Fe17 2.606028 1_565
Fe16 Nd2 3.091286 1_555
Fe16 Nd3 3.091286 1_555
Fe16 Nd11 3.266798 1_455
Fe16 Nd10 3.266798 1_555
Fe16 Nd0 3.313807 1_455
Fe17 Fe2 2.554945 1_555
Fe17 Fe3 2.554945 1_545
Fe17 Fe25 2.556830 1_556
Fe17 Nd2 3.091286 1_545
Fe17 Nd3 3.091286 1_545
Fe17 Nd11 3.266804 1_545
Fe17 Nd10 3.266804 1_555
Fe17 Nd1 3.313807 1_555
Fe18 Fe2 2.521375 1_555
Fe18 Fe24 2.556830 1_556
Fe18 Fe19 2.606028 1_455
Fe18 Fe9 2.647350 1_556
Fe18 Nd0 3.091286 1_455
Fe18 Nd1 3.091286 1_455
Fe18 Nd11 3.266796 1_445
Fe18 Nd10 3.266806 1_555
Fe18 Nd2 3.313807 1_545
Fe19 Fe3 2.521375 1_555
Fe19 Fe24 2.556830 1_656
Fe19 Fe8 2.647350 1_556
Fe19 Nd0 3.091286 1_555
Fe19 Nd1 3.091286 1_555
Fe19 Nd10 3.266796 1_555
Fe19 Nd11 3.266806 1_555
Fe19 Nd3 3.313807 1_555
Fe20 Fe4 2.521375 1_555
Fe20 Fe7 2.554945 1_555
Fe20 Fe6 2.554945 1_545
Fe20 Fe25 2.556830 1_555
Fe20 Fe21 2.606028 1_545
Fe20 Nd7 3.091286 1_555
Fe20 Nd6 3.091286 1_555
Fe20 Nd8 3.266798 1_555
Fe20 Nd9 3.266798 1_655
Fe20 Nd4 3.313807 1_655
Fe21 Fe5 2.521375 1_555
Fe21 Fe7 2.554945 1_565
Fe21 Fe6 2.554945 1_555
Fe21 Fe25 2.556830 1_565
Fe21 Nd7 3.091286 1_565
Fe21 Nd6 3.091286 1_565
Fe21 Nd9 3.266804 1_565
Fe21 Nd8 3.266804 1_555
Fe21 Nd5 3.313807 1_555
Fe22 Fe6 2.521375 1_555
Fe22 Fe5 2.554945 1_655
Fe22 Fe4 2.554945 1_555
Fe22 Fe24 2.556830 1_655
Fe22 Fe23 2.606028 1_655
Fe22 Fe8 2.647350 1_555
Fe22 Nd5 3.091286 1_655
Fe22 Nd4 3.091286 1_655
Fe22 Nd9 3.266796 1_665
Fe22 Nd8 3.266806 1_555
Fe22 Nd6 3.313807 1_565
Fe23 Fe7 2.521375 1_555
Fe23 Fe5 2.554945 1_555
Fe23 Fe4 2.554945 1_455
Fe23 Fe24 2.556830 1_555
Fe23 Fe9 2.647350 1_555
Fe23 Nd5 3.091286 1_555
Fe23 Nd4 3.091286 1_555
Fe23 Nd8 3.266796 1_555
Fe23 Nd9 3.266806 1_555
Fe23 Nd7 3.313807 1_555
Fe24 Fe9 2.405282 1_555
Fe24 Fe8 2.405282 1_455
Fe24 Fe5 2.458136 1_555
Fe24 Fe4 2.458136 1_455
Fe25 Fe6 2.458136 1_545
Fe25 Fe7 2.458136 1_555
Fe25 Fe3 2.458136 1_544
Hg0 Nd10 3.306282 1_555
Hg0 Nd9 3.306282 1_555
Hg0 Nd7 3.357289 1_555
Hg0 Nd1 3.357289 1_555
Hg0 Nd6 3.357289 1_455
Hg0 Nd5 3.357289 1_545
Hg0 Nd3 3.357289 1_555
Hg0 Nd4 3.357289 1_555
Hg0 Nd0 3.357289 1_455
Hg0 Nd2 3.357289 1_545
Hg1 Nd11 3.306282 1_555
Hg1 Nd8 3.306282 1_555
Hg1 Nd6 3.357289 1_565
Hg1 Nd4 3.357289 1_655
Hg1 Nd7 3.357289 1_555
Hg1 Nd0 3.357289 1_555
Hg1 Nd5 3.357289 1_555
Hg1 Nd2 3.357289 1_655
Hg1 Nd1 3.357289 1_565
Hg1 Nd3 3.357289 1_555
