# generated using pymatgen
data_NbVRe
_symmetry_space_group_name_H-M   'P 1'
_cell_length_a   13.91279344
_cell_length_b   13.52084919
_cell_length_c   5.51224903
_cell_angle_alpha   82.43171309
_cell_angle_beta   74.44265568
_cell_angle_gamma   23.12563123
_symmetry_Int_Tables_number   1
_chemical_formula_structural   NbVRe
_chemical_formula_sum   'Nb8 V8 Re8'
_cell_volume   373.78739570
_cell_formula_units_Z   8
loop_
 _symmetry_equiv_pos_site_id
 _symmetry_equiv_pos_as_xyz
  1  'x, y, z'
loop_
 _atom_site_type_symbol
 _atom_site_label
 _atom_site_symmetry_multiplicity
 _atom_site_fract_x
 _atom_site_fract_y
 _atom_site_fract_z
 _atom_site_occupancy
  Nb  Nb0_0  1  0.00052450  0.00052450  0.49947550  1
  Nb  Nb0_1  1  0.00052450  0.00052450  0.99947550  1
  Nb  Nb0_2  1  0.00052450  0.50052450  0.49947550  1
  Nb  Nb0_3  1  0.00052450  0.50052450  0.99947550  1
  Nb  Nb0_4  1  0.50052450  0.00052450  0.49947550  1
  Nb  Nb0_5  1  0.50052450  0.00052450  0.99947550  1
  Nb  Nb0_6  1  0.50052450  0.50052450  0.49947550  1
  Nb  Nb0_7  1  0.50052450  0.50052450  0.99947550  1
  V  V0_0  1  0.33635100  0.33635100  0.16364900  1
  V  V0_1  1  0.33635100  0.33635100  0.66364900  1
  V  V0_2  1  0.33635100  0.83635100  0.16364900  1
  V  V0_3  1  0.33635100  0.83635100  0.66364900  1
  V  V0_4  1  0.83635100  0.33635100  0.16364900  1
  V  V0_5  1  0.83635100  0.33635100  0.66364900  1
  V  V0_6  1  0.83635100  0.83635100  0.16364900  1
  V  V0_7  1  0.83635100  0.83635100  0.66364900  1
  Re  Re0_0  1  0.16312450  0.16312450  0.33687550  1
  Re  Re0_1  1  0.16312450  0.16312450  0.83687550  1
  Re  Re0_2  1  0.16312450  0.66312450  0.33687550  1
  Re  Re0_3  1  0.16312450  0.66312450  0.83687550  1
  Re  Re0_4  1  0.66312450  0.16312450  0.33687550  1
  Re  Re0_5  1  0.66312450  0.16312450  0.83687550  1
  Re  Re0_6  1  0.66312450  0.66312450  0.33687550  1
  Re  Re0_7  1  0.66312450  0.66312450  0.83687550  1
loop_
_geom_bond_atom_site_label_1
_geom_bond_atom_site_label_2
_geom_bond_distance
_geom_bond_site_symmetry_2
Nb0_0 V0_2 2.747976 1_545
Nb0_0 V0_5 2.747976 1_455
Nb0_0 Nb0_1 2.756125 1_555
Nb0_0 Nb0_1 2.756125 1_554
Nb0_0 Nb0_6 2.756125 1_545
Nb0_0 Nb0_6 2.756125 1_455
Nb0_0 Re0_2 2.782083 1_545
Nb0_0 Re0_5 2.782083 1_455
Nb0_0 Nb0_7 3.133084 1_455
Nb0_0 Nb0_7 3.133084 1_544
Nb0_0 V0_3 3.199920 1_545
Nb0_0 V0_4 3.199920 1_455
Nb0_0 Re0_3 3.229257 1_545
Nb0_0 Re0_4 3.229257 1_455
Nb0_1 V0_3 2.747976 1_545
Nb0_1 V0_4 2.747976 1_456
Nb0_1 Nb0_7 2.756125 1_545
Nb0_1 Nb0_7 2.756125 1_455
Nb0_1 Re0_3 2.782083 1_545
Nb0_1 Re0_4 2.782083 1_456
Nb0_1 Nb0_6 3.133084 1_545
Nb0_1 Nb0_6 3.133084 1_456
Nb0_1 V0_5 3.199920 1_455
Nb0_1 V0_2 3.199920 1_546
Nb0_1 Re0_2 3.229257 1_546
Nb0_1 Re0_5 3.229257 1_455
Nb0_2 V0_0 2.747976 1_555
Nb0_2 V0_7 2.747976 1_455
Nb0_2 Nb0_4 2.756125 1_555
Nb0_2 Nb0_4 2.756125 1_465
Nb0_2 Nb0_3 2.756125 1_555
Nb0_2 Nb0_3 2.756125 1_554
Nb0_2 Re0_7 2.782083 1_455
Nb0_2 Re0_0 2.782083 1_555
Nb0_2 Nb0_5 3.133084 1_554
Nb0_2 Nb0_5 3.133084 1_465
Nb0_2 V0_1 3.199920 1_555
Nb0_2 V0_6 3.199920 1_455
Nb0_2 Re0_6 3.229257 1_455
Nb0_2 Re0_1 3.229257 1_555
Nb0_3 V0_1 2.747976 1_555
Nb0_3 V0_6 2.747976 1_456
Nb0_3 Nb0_5 2.756125 1_555
Nb0_3 Nb0_5 2.756125 1_465
Nb0_3 Re0_6 2.782083 1_456
Nb0_3 Re0_1 2.782083 1_555
Nb0_3 Nb0_4 3.133084 1_555
Nb0_3 Nb0_4 3.133084 1_466
Nb0_3 V0_0 3.199920 1_556
Nb0_3 V0_7 3.199920 1_455
Nb0_3 Re0_7 3.229257 1_455
Nb0_3 Re0_0 3.229257 1_556
Nb0_4 V0_1 2.747976 1_555
Nb0_4 V0_6 2.747976 1_545
Nb0_4 Nb0_5 2.756125 1_555
Nb0_4 Nb0_5 2.756125 1_554
Nb0_4 Re0_6 2.782083 1_545
Nb0_4 Re0_1 2.782083 1_555
Nb0_4 V0_0 3.199920 1_555
Nb0_4 V0_7 3.199920 1_545
Nb0_4 Re0_7 3.229257 1_545
Nb0_4 Re0_0 3.229257 1_555
Nb0_5 V0_0 2.747976 1_556
Nb0_5 V0_7 2.747976 1_545
Nb0_5 Re0_7 2.782083 1_545
Nb0_5 Re0_0 2.782083 1_556
Nb0_5 V0_1 3.199920 1_555
Nb0_5 V0_6 3.199920 1_546
Nb0_5 Re0_6 3.229257 1_546
Nb0_5 Re0_1 3.229257 1_555
Nb0_6 V0_4 2.747976 1_555
Nb0_6 V0_3 2.747976 1_555
Nb0_6 Nb0_7 2.756125 1_554
Nb0_6 Nb0_7 2.756125 1_555
Nb0_6 Re0_4 2.782083 1_555
Nb0_6 Re0_3 2.782083 1_555
Nb0_6 V0_5 3.199920 1_555
Nb0_6 V0_2 3.199920 1_555
Nb0_6 Re0_2 3.229257 1_555
Nb0_6 Re0_5 3.229257 1_555
Nb0_7 V0_5 2.747976 1_555
Nb0_7 V0_2 2.747976 1_556
Nb0_7 Re0_5 2.782083 1_555
Nb0_7 Re0_2 2.782083 1_556
Nb0_7 V0_4 3.199920 1_556
Nb0_7 V0_3 3.199920 1_555
Nb0_7 Re0_3 3.229257 1_555
Nb0_7 Re0_4 3.229257 1_556
Re0_0 V0_5 2.555925 1_455
Re0_0 V0_2 2.555925 1_545
Re0_1 V0_4 2.555925 1_456
Re0_1 V0_3 2.555925 1_545
Re0_2 V0_7 2.555925 1_455
Re0_2 V0_0 2.555925 1_555
Re0_3 V0_6 2.555925 1_456
Re0_3 V0_1 2.555925 1_555
Re0_4 V0_6 2.555925 1_545
Re0_4 V0_1 2.555925 1_555
Re0_5 V0_7 2.555925 1_545
Re0_5 V0_0 2.555925 1_556
Re0_6 V0_4 2.555925 1_555
Re0_6 V0_3 2.555925 1_555
Re0_7 V0_5 2.555925 1_555
Re0_7 V0_2 2.555925 1_556
