# generated using pymatgen
data_AlSiMo
_symmetry_space_group_name_H-M   'P 1'
_cell_length_a   4.72895389
_cell_length_b   4.72940378
_cell_length_c   6.57743544
_cell_angle_alpha   89.99110359
_cell_angle_beta   90.00477179
_cell_angle_gamma   120.00337914
_symmetry_Int_Tables_number   1
_chemical_formula_structural   AlSiMo
_chemical_formula_sum   'Al3 Si3 Mo3'
_cell_volume   127.39251294
_cell_formula_units_Z   3
loop_
 _symmetry_equiv_pos_site_id
 _symmetry_equiv_pos_as_xyz
  1  'x, y, z'
loop_
 _atom_site_type_symbol
 _atom_site_label
 _atom_site_symmetry_multiplicity
 _atom_site_fract_x
 _atom_site_fract_y
 _atom_site_fract_z
 _atom_site_occupancy
  Al  Al0  1  0.33251730  0.16626743  0.49999930  1
  Al  Al1  1  0.83365752  0.16647068  0.16673359  1
  Al  Al2  1  0.83365857  0.66718890  0.83326803  1
  Si  Si0  1  0.67758641  0.83879221  0.50000321  1
  Si  Si1  1  0.16113751  0.83892103  0.16658178  1
  Si  Si2  1  0.16113142  0.32220333  0.83341790  1
  Mo  Mo0  1  0.01157385  0.50578885  0.50000518  1
  Mo  Mo1  1  0.49437092  0.50587282  0.16667330  1
  Mo  Mo2  1  0.49436749  0.98849575  0.83331772  1
loop_
_geom_bond_atom_site_label_1
_geom_bond_atom_site_label_2
_geom_bond_distance
_geom_bond_site_symmetry_2
Al0 Si2 2.570748 1_555
Al0 Si1 2.570783 1_545
Al0 Mo2 2.596521 1_545
Al0 Mo1 2.596531 1_555
Al0 Si0 2.682109 1_445
Al0 Mo0 2.705400 1_555
Al0 Mo0 2.705448 1_545
Al0 Si0 2.754732 1_555
Al0 Si0 2.754822 1_545
Al0 Mo0 2.780910 1_655
Al1 Si2 2.570306 1_654
Al1 Si0 2.570372 1_545
Al1 Mo0 2.595923 1_655
Al1 Mo2 2.596446 1_544
Al1 Si1 2.682778 1_645
Al1 Mo1 2.705903 1_545
Al1 Mo1 2.706128 1_655
Al1 Si1 2.754433 1_655
Al1 Si1 2.754449 1_545
Al1 Mo1 2.779677 1_555
Al2 Si1 2.570290 1_656
Al2 Si0 2.570333 1_555
Al2 Mo0 2.595879 1_655
Al2 Mo1 2.596398 1_556
Al2 Si2 2.682706 1_665
Al2 Mo2 2.705913 1_555
Al2 Mo2 2.706110 1_655
Al2 Si2 2.754476 1_655
Al2 Si2 2.754479 1_555
Al2 Mo2 2.779686 1_545
Mo0 Si2 2.583911 1_555
Mo0 Si1 2.583950 1_555
Mo0 Si0 2.727491 1_555
Mo0 Si0 2.731767 1_455
Mo0 Si0 2.731782 1_445
Mo1 Si0 2.583226 1_555
Mo1 Si2 2.583339 1_554
Mo1 Si1 2.728862 1_555
Mo1 Si1 2.730580 1_655
Mo1 Si1 2.731598 1_545
Mo2 Si0 2.583158 1_555
Mo2 Si1 2.583381 1_556
Mo2 Si2 2.728897 1_555
Mo2 Si2 2.730569 1_665
Mo2 Si2 2.731574 1_565
