# generated using pymatgen
data_Li9Mn7O16
_symmetry_space_group_name_H-M   'P 1'
_cell_length_a   10.15417964
_cell_length_b   10.15417964
_cell_length_c   5.33918926
_cell_angle_alpha   83.70045424
_cell_angle_beta   83.70045424
_cell_angle_gamma   32.84140046
_symmetry_Int_Tables_number   1
_chemical_formula_structural   Li9Mn7O16
_chemical_formula_sum   'Li9 Mn7 O16'
_cell_volume   296.59014385
_cell_formula_units_Z   1
loop_
 _symmetry_equiv_pos_site_id
 _symmetry_equiv_pos_as_xyz
  1  'x, y, z'
loop_
 _atom_site_type_symbol
 _atom_site_label
 _atom_site_symmetry_multiplicity
 _atom_site_fract_x
 _atom_site_fract_y
 _atom_site_fract_z
 _atom_site_occupancy
  Li  Li0  1  0.62074200  0.12949400  0.25168300  1
  Li  Li1  1  0.37925800  0.87050600  0.74831700  1
  Li  Li2  1  0.12949400  0.62074200  0.25168300  1
  Li  Li3  1  0.38025300  0.38025300  0.75221200  1
  Li  Li4  1  0.12227600  0.12227600  0.25608600  1
  Li  Li5  1  0.87772400  0.87772400  0.74391400  1
  Li  Li6  1  0.87050600  0.37925800  0.74831700  1
  Li  Li7  1  0.61974700  0.61974700  0.24778800  1
  Li  Li8  1  0.50000000  0.50000000  0.00000000  1
  Mn  Mn0  1  0.00000000  0.00000000  0.00000000  1
  Mn  Mn1  1  0.25127200  0.74872800  0.50000000  1
  Mn  Mn2  1  0.74998200  0.74998200  0.49954700  1
  Mn  Mn3  1  0.25001800  0.25001800  0.50045300  1
  Mn  Mn4  1  0.50000000  0.00000000  0.00000000  1
  Mn  Mn5  1  0.00000000  0.50000000  0.00000000  1
  Mn  Mn6  1  0.74872800  0.25127200  0.50000000  1
  O  O0  1  0.70775700  0.18935700  0.83813700  1
  O  O1  1  0.44150600  0.94184100  0.39503100  1
  O  O2  1  0.18935700  0.70775700  0.83813700  1
  O  O3  1  0.44215900  0.44215900  0.39807400  1
  O  O4  1  0.19033600  0.19033600  0.89889600  1
  O  O5  1  0.94176800  0.94176800  0.38985600  1
  O  O6  1  0.94184100  0.44150600  0.39503100  1
  O  O7  1  0.68965300  0.68965300  0.89919400  1
  O  O8  1  0.55849400  0.05815900  0.60496900  1
  O  O9  1  0.29224300  0.81064300  0.16186300  1
  O  O10  1  0.05815900  0.55849400  0.60496900  1
  O  O11  1  0.31034700  0.31034700  0.10080600  1
  O  O12  1  0.05823200  0.05823200  0.61014400  1
  O  O13  1  0.80966400  0.80966400  0.10110400  1
  O  O14  1  0.81064300  0.29224300  0.16186300  1
  O  O15  1  0.55784100  0.55784100  0.60192600  1
loop_
_geom_bond_atom_site_label_1
_geom_bond_atom_site_label_2
_geom_bond_distance
_geom_bond_site_symmetry_2
Li0 O11 2.112313 1_555
Li0 O3 2.130349 1_555
Li0 O5 2.140494 1_545
Li0 O13 2.153897 1_545
Li0 O8 2.165649 1_555
Li0 O0 2.491037 1_554
Li1 O7 2.112313 1_555
Li1 O15 2.130349 1_555
Li1 O12 2.140494 1_565
Li1 O4 2.153897 1_565
Li1 O1 2.165649 1_555
Li1 O9 2.491037 1_556
Li2 O11 2.112313 1_555
Li2 O3 2.130349 1_555
Li2 O5 2.140494 1_455
Li2 O13 2.153897 1_455
Li2 O10 2.165649 1_555
Li2 O2 2.491037 1_554
Li3 O0 2.082022 1_555
Li3 O2 2.082022 1_555
Li3 O3 2.123148 1_555
Li3 O11 2.176845 1_556
Li3 O10 2.212662 1_555
Li3 O8 2.212662 1_555
Li4 O14 2.055942 1_455
Li4 O9 2.055942 1_545
Li4 O12 2.142530 1_555
Li4 O6 2.159737 1_455
Li4 O1 2.159737 1_545
Li4 O4 2.194618 1_554
Li5 O2 2.055942 1_655
Li5 O0 2.055942 1_565
Li5 O5 2.142530 1_555
Li5 O10 2.159737 1_655
Li5 O8 2.159737 1_565
Li5 O13 2.194618 1_556
Li6 O7 2.112313 1_555
Li6 O15 2.130349 1_555
Li6 O12 2.140494 1_655
Li6 O4 2.153897 1_655
Li6 O6 2.165649 1_555
Li6 O14 2.491037 1_556
Li7 O14 2.082022 1_555
Li7 O9 2.082022 1_555
Li7 O15 2.123148 1_555
Li7 O7 2.176845 1_554
Li7 O1 2.212662 1_555
Li7 O6 2.212662 1_555
Li8 O14 2.040472 1_555
Li8 O9 2.040472 1_555
Li8 O0 2.040472 1_554
Li8 O2 2.040472 1_554
Li8 O15 2.288877 1_554
Li8 O3 2.288877 1_555
Mn0 O14 1.964767 1_455
Mn0 O9 1.964767 1_545
Mn0 O2 1.964767 1_544
Mn0 O0 1.964767 1_454
Mn0 O12 2.253725 1_554
Mn0 O5 2.253725 1_445
Mn1 O15 1.935194 1_555
Mn1 O3 1.935194 1_555
Mn1 O2 1.962986 1_555
Mn1 O9 1.962986 1_555
Mn1 O12 1.966250 1_565
Mn1 O5 1.966250 1_455
Mn2 O6 1.951723 1_555
Mn2 O1 1.951723 1_555
Mn2 O10 1.952451 1_655
Mn2 O8 1.952451 1_565
Mn2 O13 2.304664 1_555
Mn2 O7 2.315269 1_555
Mn3 O10 1.951723 1_555
Mn3 O8 1.951723 1_555
Mn3 O6 1.952451 1_455
Mn3 O1 1.952451 1_545
Mn3 O4 2.304664 1_555
Mn3 O11 2.315269 1_555
Mn4 O13 1.961038 1_545
Mn4 O4 1.961038 1_554
Mn4 O11 1.968825 1_555
Mn4 O7 1.968825 1_544
Mn4 O8 2.278417 1_554
Mn4 O1 2.278417 1_545
Mn5 O13 1.961038 1_455
Mn5 O4 1.961038 1_554
Mn5 O11 1.968825 1_555
Mn5 O7 1.968825 1_454
Mn5 O10 2.278417 1_554
Mn5 O6 2.278417 1_455
Mn6 O15 1.935194 1_555
Mn6 O3 1.935194 1_555
Mn6 O0 1.962986 1_555
Mn6 O14 1.962986 1_555
Mn6 O12 1.966250 1_655
Mn6 O5 1.966250 1_545
