# generated using pymatgen
data_Tm(FeO2)2
_symmetry_space_group_name_H-M   'P 1'
_cell_length_a   8.70151655
_cell_length_b   8.70151655
_cell_length_c   8.70151718
_cell_angle_alpha   23.02014258
_cell_angle_beta   23.02014258
_cell_angle_gamma   23.02014021
_symmetry_Int_Tables_number   1
_chemical_formula_structural   Tm(FeO2)2
_chemical_formula_sum   'Tm1 Fe2 O4'
_cell_volume   88.42822729
_cell_formula_units_Z   1
loop_
 _symmetry_equiv_pos_site_id
 _symmetry_equiv_pos_as_xyz
  1  'x, y, z'
loop_
 _atom_site_type_symbol
 _atom_site_label
 _atom_site_symmetry_multiplicity
 _atom_site_fract_x
 _atom_site_fract_y
 _atom_site_fract_z
 _atom_site_occupancy
  Tm  Tm0  1  0.00000000  0.00000000  0.00000000  1
  Fe  Fe0  1  0.78604600  0.78604600  0.78604600  1
  Fe  Fe1  1  0.21395400  0.21395400  0.21395400  1
  O  O0  1  0.87168900  0.87168900  0.87168900  1
  O  O1  1  0.12831100  0.12831100  0.12831100  1
  O  O2  1  0.70761200  0.70761200  0.70761200  1
  O  O3  1  0.29238800  0.29238800  0.29238800  1
loop_
_geom_bond_atom_site_label_1
_geom_bond_atom_site_label_2
_geom_bond_distance
_geom_bond_site_symmetry_2
Fe0 O2 1.992394 1_555
Fe0 O1 2.017706 1_656
Fe0 O1 2.017706 1_566
Fe0 O1 2.017706 1_665
Fe0 O0 2.175519 1_555
Fe1 O3 1.992394 1_555
Fe1 O0 2.017706 1_454
Fe1 O0 2.017706 1_544
Fe1 O0 2.017706 1_445
Fe1 O1 2.175519 1_555
O2 Tm0 2.258643 1_566
O2 Tm0 2.258643 1_656
O2 Tm0 2.258644 1_665
O3 Tm0 2.258643 1_655
O3 Tm0 2.258643 1_565
O3 Tm0 2.258644 1_556
