# generated using pymatgen
data_CeSiRh
_symmetry_space_group_name_H-M   'P 1'
_cell_length_a   6.31963400
_cell_length_b   6.31963400
_cell_length_c   6.31963400
_cell_angle_alpha   90.00000000
_cell_angle_beta   90.00000000
_cell_angle_gamma   90.00000000
_symmetry_Int_Tables_number   1
_chemical_formula_structural   CeSiRh
_chemical_formula_sum   'Ce4 Si4 Rh4'
_cell_volume   252.39211378
_cell_formula_units_Z   4
loop_
 _symmetry_equiv_pos_site_id
 _symmetry_equiv_pos_as_xyz
  1  'x, y, z'
loop_
 _atom_site_type_symbol
 _atom_site_label
 _atom_site_symmetry_multiplicity
 _atom_site_fract_x
 _atom_site_fract_y
 _atom_site_fract_z
 _atom_site_occupancy
  Ce  Ce0  1  0.36677500  0.36677500  0.36677500  1
  Ce  Ce1  1  0.13322500  0.63322500  0.86677500  1
  Ce  Ce2  1  0.63322500  0.86677500  0.13322500  1
  Ce  Ce3  1  0.86677500  0.13322500  0.63322500  1
  Si  Si0  1  0.67026900  0.67026900  0.67026900  1
  Si  Si1  1  0.82973100  0.32973100  0.17026900  1
  Si  Si2  1  0.32973100  0.17026900  0.82973100  1
  Si  Si3  1  0.17026900  0.82973100  0.32973100  1
  Rh  Rh0  1  0.07019900  0.07019900  0.07019900  1
  Rh  Rh1  1  0.42980100  0.92980100  0.57019900  1
  Rh  Rh2  1  0.92980100  0.57019900  0.42980100  1
  Rh  Rh3  1  0.57019900  0.42980100  0.92980100  1
loop_
_geom_bond_atom_site_label_1
_geom_bond_atom_site_label_2
_geom_bond_distance
_geom_bond_site_symmetry_2
Ce0 Rh3 3.072017 1_554
Ce0 Rh2 3.072017 1_455
Ce0 Rh1 3.072017 1_545
Ce0 Si3 3.186970 1_555
Ce0 Si1 3.186970 1_555
Ce0 Si2 3.186970 1_555
Ce0 Rh0 3.246299 1_555
Ce0 Si0 3.322023 1_555
Ce1 Rh0 3.072017 1_566
Ce1 Rh2 3.072017 1_455
Ce1 Rh3 3.072017 1_555
Ce1 Si0 3.186970 1_455
Ce1 Si2 3.186970 1_555
Ce1 Si3 3.186970 1_556
Ce1 Rh1 3.246299 1_555
Ce1 Si1 3.322023 1_456
Ce2 Rh0 3.072017 1_665
Ce2 Rh3 3.072017 1_554
Ce2 Rh1 3.072017 1_555
Ce2 Si0 3.186970 1_554
Ce2 Si3 3.186970 1_555
Ce2 Si1 3.186970 1_565
Ce2 Rh2 3.246299 1_555
Ce2 Si2 3.322023 1_564
Ce3 Rh0 3.072017 1_656
Ce3 Rh2 3.072017 1_555
Ce3 Rh1 3.072017 1_545
Ce3 Si1 3.186970 1_555
Ce3 Si2 3.186970 1_655
Ce3 Si0 3.186970 1_545
Ce3 Rh3 3.246299 1_555
Ce3 Si3 3.322023 1_645
Rh0 Si1 2.323664 1_455
Rh0 Si3 2.323664 1_545
Rh0 Si2 2.323664 1_554
Rh1 Si2 2.323664 1_565
Rh1 Si0 2.323664 1_555
Rh1 Si3 2.323664 1_555
Rh2 Si1 2.323664 1_555
Rh2 Si3 2.323664 1_655
Rh2 Si0 2.323664 1_555
Rh3 Si2 2.323664 1_555
Rh3 Si0 2.323664 1_555
Rh3 Si1 2.323664 1_556
