# generated using pymatgen
data_Sm31(CuSe16)3
_symmetry_space_group_name_H-M   'P 1'
_cell_length_a   7.64970737
_cell_length_b   7.65385160
_cell_length_c   45.86938906
_cell_angle_alpha   109.78772690
_cell_angle_beta   109.75610437
_cell_angle_gamma   108.73006350
_symmetry_Int_Tables_number   1
_chemical_formula_structural   Sm31(CuSe16)3
_chemical_formula_sum   'Sm31 Cu3 Se48'
_cell_volume   2070.79422693
_cell_formula_units_Z   1
loop_
 _symmetry_equiv_pos_site_id
 _symmetry_equiv_pos_as_xyz
  1  'x, y, z'
loop_
 _atom_site_type_symbol
 _atom_site_label
 _atom_site_symmetry_multiplicity
 _atom_site_fract_x
 _atom_site_fract_y
 _atom_site_fract_z
 _atom_site_occupancy
  Sm  Sm0  1  0.11463044  0.74073371  0.97846226  1
  Sm  Sm1  1  0.25555975  0.62740605  0.89458512  1
  Sm  Sm2  1  0.11317139  0.74561133  0.81207663  1
  Sm  Sm3  1  0.37409966  0.24060050  0.93873965  1
  Sm  Sm4  1  0.25557851  0.62692380  0.72814776  1
  Sm  Sm5  1  0.11533388  0.74722818  0.64624141  1
  Sm  Sm6  1  0.62480238  0.37414762  0.87481611  1
  Sm  Sm7  1  0.37547294  0.24117978  0.77194096  1
  Sm  Sm8  1  0.75899486  0.89018764  0.85583366  1
  Sm  Sm9  1  0.26470899  0.63727410  0.56356357  1
  Sm  Sm10  1  0.12356438  0.74431395  0.47707960  1
  Sm  Sm11  1  0.62610771  0.37601104  0.70861816  1
  Sm  Sm12  1  0.37634666  0.24227887  0.60546763  1
  Sm  Sm13  1  0.75986776  0.89127701  0.68943149  1
  Sm  Sm14  1  0.12946858  0.74701791  0.31503586  1
  Sm  Sm15  1  0.63737537  0.38290031  0.54355996  1
  Sm  Sm16  1  0.36518716  0.24729229  0.43522092  1
  Sm  Sm17  1  0.75526622  0.88182498  0.52201708  1
  Sm  Sm18  1  0.24148951  0.62432724  0.22668392  1
  Sm  Sm19  1  0.63146318  0.38132352  0.37642827  1
  Sm  Sm20  1  0.37799648  0.25555860  0.26990406  1
  Sm  Sm21  1  0.74777557  0.87225669  0.35413018  1
  Sm  Sm22  1  0.85377220  0.10989828  0.45628535  1
  Sm  Sm23  1  0.24019637  0.62195556  0.06337401  1
  Sm  Sm24  1  0.60865995  0.35291729  0.20544779  1
  Sm  Sm25  1  0.36981490  0.24709105  0.10375168  1
  Sm  Sm26  1  0.74549049  0.86430034  0.18498621  1
  Sm  Sm27  1  0.88536646  0.14134715  0.29388665  1
  Sm  Sm28  1  0.62909649  0.37776842  0.04213165  1
  Sm  Sm29  1  0.75952108  0.88628522  0.01974964  1
  Sm  Sm30  1  0.87790623  0.12824801  0.12561867  1
  Cu  Cu0  1  0.88467465  0.13681738  0.96123811  1
  Cu  Cu1  1  0.88521692  0.13435786  0.79496425  1
  Cu  Cu2  1  0.88010979  0.13366075  0.62759064  1
  Se  Se0  1  0.98349455  0.86131222  0.91762925  1
  Se  Se1  1  0.98513105  0.86222992  0.75111277  1
  Se  Se2  1  0.13105641  0.14256924  0.85208845  1
  Se  Se3  1  0.37597227  0.51877578  0.83475381  1
  Se  Se4  1  0.47976248  0.99085978  0.97546843  1
  Se  Se5  1  0.63241786  0.62198222  0.93994464  1
  Se  Se6  1  0.98619138  0.86392619  0.58507487  1
  Se  Se7  1  0.51679713  0.01361840  0.89522668  1
  Se  Se8  1  0.13207779  0.14394880  0.68582530  1
  Se  Se9  1  0.37701146  0.51948560  0.66842962  1
  Se  Se10  1  0.48150831  0.98959744  0.80907421  1
  Se  Se11  1  0.63254734  0.62383848  0.77374076  1
  Se  Se12  1  0.99662822  0.85785695  0.41754855  1
  Se  Se13  1  0.85560111  0.47308056  0.83161602  1
  Se  Se14  1  0.00887127  0.36459484  0.91497551  1
  Se  Se15  1  0.51821483  0.01430772  0.72884747  1
  Se  Se16  1  0.15009174  0.14336585  0.52407959  1
  Se  Se17  1  0.35999122  0.50391468  0.50051542  1
  Se  Se18  1  0.48210028  0.99138929  0.64281740  1
  Se  Se19  1  0.63671488  0.62754647  0.60822758  1
  Se  Se20  1  0.00314023  0.86232445  0.25040632  1
  Se  Se21  1  0.85597183  0.47277455  0.66524482  1
  Se  Se22  1  0.52902744  0.01523938  0.56325730  1
  Se  Se23  1  0.14142914  0.13536496  0.35720195  1
  Se  Se24  1  0.00943060  0.36556228  0.74864450  1
  Se  Se25  1  0.00005711  0.35929884  0.25001261  1
  Se  Se26  1  0.35550964  0.49640528  0.33222185  1
  Se  Se27  1  0.50612335  0.01378228  0.47804313  1
  Se  Se28  1  0.65416970  0.65016439  0.44274647  1
  Se  Se29  1  0.99372211  0.85224038  0.08076520  1
  Se  Se30  1  0.86371613  0.50559440  0.50114022  1
  Se  Se31  1  0.01450737  0.36891959  0.58272594  1
  Se  Se32  1  0.14847203  0.15351138  0.19199948  1
  Se  Se33  1  0.49643699  0.99995140  0.39093145  1
  Se  Se34  1  0.35517879  0.49556632  0.16696354  1
  Se  Se35  1  0.49767461  0.00078474  0.30911287  1
  Se  Se36  1  0.64516344  0.65089680  0.27343340  1
  Se  Se37  1  0.84298938  0.50093340  0.33329073  1
  Se  Se38  1  0.51588010  0.00496494  0.22775087  1
  Se  Se39  1  0.99794902  0.34243303  0.41675624  1
  Se  Se40  1  0.13624914  0.14398938  0.01879420  1
  Se  Se41  1  0.37921573  0.51902393  0.00166658  1
  Se  Se42  1  0.49865595  0.99419405  0.14035726  1
  Se  Se43  1  0.63188817  0.63757759  0.10599051  1
  Se  Se44  1  0.84121150  0.49702399  0.16629772  1
  Se  Se45  1  0.49509719  0.99986579  0.05876663  1
  Se  Se46  1  0.85366459  0.46485798  0.99727712  1
  Se  Se47  1  0.99620025  0.34123163  0.08252986  1
loop_
_geom_bond_atom_site_label_1
_geom_bond_atom_site_label_2
_geom_bond_distance
_geom_bond_site_symmetry_2
Cu0 Se46 2.632557 1_555
Cu0 Se40 2.660042 1_656
Cu0 Se0 2.865184 1_545
Cu0 Se7 2.928993 1_555
Cu1 Se2 2.624436 1_655
Cu1 Se13 2.698630 1_555
Cu1 Se1 2.862401 1_545
Cu1 Se15 2.936702 1_555
Cu2 Se8 2.671343 1_655
Cu2 Se21 2.691116 1_555
Cu2 Se22 2.830262 1_555
Cu2 Se6 2.853714 1_545
Se0 Sm8 2.899956 1_555
Se0 Sm3 2.977131 1_665
Se0 Sm0 3.176485 1_655
Se0 Sm6 3.180778 1_555
Se0 Sm1 3.354505 1_655
Se1 Sm13 2.898216 1_555
Se1 Sm7 2.979032 1_665
Se1 Sm2 3.158414 1_655
Se1 Sm11 3.177587 1_555
Se1 Sm4 3.348882 1_655
Se2 Sm2 2.899299 1_545
Se2 Sm8 2.980930 1_445
Se2 Sm1 3.170941 1_555
Se2 Sm6 3.206530 1_555
Se2 Sm3 3.450597 1_555
Se3 Sm8 2.911270 1_555
Se3 Sm6 2.931091 1_555
Se3 Sm7 2.942464 1_555
Se3 Sm1 3.118893 1_555
Se3 Sm2 3.191924 1_555
Se4 Sm0 2.913549 1_555
Se4 Sm29 2.933996 1_556
Se4 Sm28 2.959664 1_566
Se4 Sm3 3.065524 1_565
Se4 Sm1 3.176637 1_555
Se5 Sm6 2.915602 1_555
Se5 Sm3 2.922521 1_555
Se5 Sm1 2.953293 1_555
Se5 Sm29 3.123220 1_556
Se5 Sm0 3.147758 1_655
Se6 Sm17 2.911176 1_555
Se6 Sm12 2.982719 1_665
Se6 Sm15 3.132093 1_555
Se6 Sm5 3.167834 1_655
Se6 Sm9 3.340402 1_655
Se7 Sm3 2.921727 1_555
Se7 Sm1 2.973217 1_545
Se7 Sm8 3.133954 1_545
Se7 Sm6 3.159358 1_555
Se7 Sm2 3.310911 1_545
Se8 Sm5 2.897110 1_545
Se8 Sm13 2.978782 1_445
Se8 Sm4 3.159844 1_555
Se8 Sm11 3.207926 1_555
Se8 Sm7 3.430945 1_555
Se9 Sm13 2.913318 1_555
Se9 Sm11 2.928288 1_555
Se9 Sm12 2.945624 1_555
Se9 Sm4 3.119002 1_555
Se9 Sm5 3.185288 1_555
Se10 Sm2 2.915949 1_555
Se10 Sm6 2.939717 1_565
Se10 Sm8 2.957929 1_555
Se10 Sm7 3.091388 1_565
Se10 Sm4 3.174410 1_555
Se11 Sm7 2.911982 1_555
Se11 Sm11 2.920193 1_555
Se11 Sm4 2.947898 1_555
Se11 Sm2 3.130078 1_655
Se11 Sm8 3.216306 1_555
Se12 Sm22 2.901468 1_565
Se12 Sm21 2.950639 1_555
Se12 Sm16 2.985371 1_665
Se12 Sm10 3.083948 1_655
Se12 Sm19 3.146530 1_555
Se13 Sm1 2.914389 1_655
Se13 Sm2 2.976016 1_655
Se13 Sm7 3.140067 1_555
Se13 Sm6 3.184271 1_555
Se13 Sm8 3.411894 1_555
Se14 Sm1 2.917413 1_555
Se14 Sm6 2.932740 1_455
Se14 Sm0 2.942464 1_555
Se14 Sm8 3.092760 1_445
Se14 Sm3 3.199862 1_555
Se15 Sm7 2.909926 1_555
Se15 Sm4 2.982433 1_545
Se15 Sm13 3.130082 1_545
Se15 Sm11 3.161643 1_555
Se15 Sm5 3.293827 1_545
Se16 Sm10 2.977500 1_545
Se16 Sm17 2.988992 1_445
Se16 Sm22 3.032556 1_455
Se16 Sm15 3.210085 1_555
Se16 Sm12 3.222181 1_555
Se16 Sm9 3.240644 1_555
Se17 Sm17 2.986235 1_555
Se17 Sm15 2.987787 1_555
Se17 Sm16 2.996202 1_555
Se17 Sm9 3.137013 1_555
Se17 Sm10 3.158192 1_555
Se17 Sm22 3.354502 1_455
Se18 Sm5 2.918571 1_555
Se18 Sm11 2.939916 1_565
Se18 Sm13 2.959278 1_555
Se18 Sm12 3.092759 1_565
Se18 Sm9 3.110351 1_555
Se19 Sm12 2.912604 1_555
Se19 Sm15 2.925834 1_555
Se19 Sm9 2.932402 1_555
Se19 Sm5 3.119832 1_655
Se19 Sm13 3.186194 1_555
Se20 Sm27 2.986085 1_465
Se20 Sm26 2.990165 1_455
Se20 Sm20 2.997043 1_565
Se20 Sm18 3.155770 1_555
Se20 Sm14 3.299022 1_555
Se20 Sm24 3.369502 1_455
Se21 Sm4 2.911661 1_655
Se21 Sm5 2.973416 1_655
Se21 Sm12 3.139895 1_555
Se21 Sm11 3.181961 1_555
Se21 Sm13 3.418938 1_555
Se22 Sm12 2.947328 1_555
Se22 Sm9 2.957619 1_545
Se22 Sm17 3.107507 1_545
Se22 Sm15 3.186192 1_555
Se22 Sm10 3.402469 1_545
Se23 Sm14 2.897824 1_545
Se23 Sm27 2.928375 1_455
Se23 Sm21 2.961392 1_445
Se23 Sm16 3.051582 1_555
Se23 Sm19 3.237706 1_555
Se24 Sm4 2.912435 1_555
Se24 Sm11 2.930211 1_455
Se24 Sm2 2.963603 1_555
Se24 Sm13 3.093147 1_445
Se24 Sm7 3.204187 1_555
Se25 Sm14 2.967595 1_555
Se25 Sm24 2.974283 1_455
Se25 Sm18 3.011732 1_555
Se25 Sm20 3.162758 1_555
Se25 Sm27 3.182661 1_455
Se25 Sm26 3.275137 1_445
Se26 Sm20 2.926939 1_555
Se26 Sm21 2.958036 1_555
Se26 Sm19 2.975459 1_555
Se26 Sm14 3.085949 1_555
Se26 Sm27 3.102279 1_455
Se27 Sm15 2.900166 1_555
Se27 Sm17 2.955946 1_545
Se27 Sm10 2.965552 1_545
Se27 Sm22 3.105582 1_555
Se27 Sm16 3.224526 1_555
Se28 Sm19 2.948387 1_555
Se28 Sm16 2.983269 1_555
Se28 Sm22 3.086667 1_565
Se28 Sm10 3.104799 1_655
Se28 Sm17 3.133098 1_555
Se29 Sm29 2.917954 1_555
Se29 Sm25 2.954664 1_665
Se29 Sm30 2.995336 1_565
Se29 Sm23 3.081722 1_655
Se29 Sm28 3.147122 1_555
Se30 Sm9 2.957482 1_655
Se30 Sm22 2.989750 1_555
Se30 Sm10 3.003920 1_655
Se30 Sm17 3.178315 1_555
Se30 Sm15 3.183750 1_555
Se30 Sm16 3.303009 1_555
Se31 Sm15 2.895944 1_455
Se31 Sm9 2.913678 1_555
Se31 Sm5 2.966791 1_555
Se31 Sm17 3.174220 1_445
Se31 Sm12 3.185118 1_555
Se32 Sm30 2.945552 1_455
Se32 Sm26 2.995243 1_445
Se32 Sm20 3.074126 1_555
Se32 Sm24 3.089729 1_555
Se32 Sm18 3.119181 1_555
Se33 Sm22 2.905462 1_565
Se33 Sm16 2.952063 1_565
Se33 Sm14 3.014560 1_555
Se33 Sm21 3.128140 1_555
Se33 Sm19 3.142104 1_565
Se34 Sm24 2.901495 1_555
Se34 Sm25 2.942629 1_555
Se34 Sm26 2.983825 1_555
Se34 Sm18 3.092687 1_555
Se34 Sm30 3.153965 1_455
Se35 Sm21 2.967368 1_545
Se35 Sm19 2.987441 1_555
Se35 Sm14 3.023425 1_545
Se35 Sm20 3.206732 1_555
Se35 Sm27 3.209470 1_555
Se35 Sm18 3.229024 1_545
Se36 Sm20 2.971878 1_555
Se36 Sm18 3.000040 1_555
Se36 Sm24 3.031684 1_555
Se36 Sm21 3.181728 1_555
Se36 Sm27 3.219956 1_565
Se36 Sm14 3.229221 1_655
Se37 Sm27 2.923637 1_555
Se37 Sm14 2.951066 1_655
Se37 Sm21 3.079317 1_555
Se37 Sm20 3.107139 1_555
Se37 Sm19 3.132289 1_555
Se38 Sm27 2.906178 1_555
Se38 Sm20 2.949049 1_555
Se38 Sm18 2.966911 1_545
Se38 Sm24 3.124815 1_555
Se38 Sm26 3.194662 1_545
Se39 Sm10 2.929620 1_655
Se39 Sm19 2.961915 1_555
Se39 Sm16 3.043424 1_655
Se39 Sm21 3.118659 1_545
Se39 Sm22 3.154027 1_555
Se40 Sm0 2.928377 1_544
Se40 Sm29 2.948029 1_445
Se40 Sm23 3.188163 1_555
Se40 Sm28 3.194350 1_555
Se40 Sm25 3.362530 1_555
Se41 Sm28 2.924942 1_555
Se41 Sm3 2.929089 1_554
Se41 Sm29 2.931081 1_555
Se41 Sm0 3.175113 1_554
Se41 Sm23 3.290351 1_555
Se42 Sm24 2.903122 1_565
Se42 Sm26 2.952091 1_555
Se42 Sm23 3.057167 1_555
Se42 Sm30 3.132151 1_565
Se42 Sm25 3.137572 1_565
Se43 Sm23 2.909551 1_555
Se43 Sm28 2.919147 1_555
Se43 Sm25 2.960942 1_555
Se43 Sm26 3.088940 1_555
Se43 Sm30 3.237663 1_565
Se44 Sm18 2.918974 1_655
Se44 Sm30 2.970570 1_555
Se44 Sm26 3.047603 1_555
Se44 Sm25 3.123112 1_555
Se44 Sm24 3.137947 1_555
Se45 Sm25 2.935076 1_565
Se45 Sm30 2.997565 1_565
Se45 Sm23 3.046887 1_555
Se45 Sm0 3.173558 1_554
Se45 Sm28 3.180876 1_565
Se45 Sm29 3.251693 1_555
Se46 Sm23 2.927243 1_656
Se46 Sm0 2.979931 1_655
Se46 Sm3 3.128960 1_555
Se46 Sm28 3.195481 1_556
Se46 Sm29 3.424590 1_556
Se47 Sm23 2.946839 1_655
Se47 Sm28 2.955576 1_555
Se47 Sm29 3.054971 1_545
Se47 Sm25 3.090597 1_655
Se47 Sm30 3.134619 1_555
