# generated using pymatgen
data_Fe5(GeN3)2
_symmetry_space_group_name_H-M   'P 1'
_cell_length_a   7.54338052
_cell_length_b   4.65626110
_cell_length_c   9.92400643
_cell_angle_alpha   90.00000044
_cell_angle_beta   84.37851621
_cell_angle_gamma   107.97682482
_symmetry_Int_Tables_number   1
_chemical_formula_structural   Fe5(GeN3)2
_chemical_formula_sum   'Fe10 Ge4 N12'
_cell_volume   329.79074387
_cell_formula_units_Z   2
loop_
 _symmetry_equiv_pos_site_id
 _symmetry_equiv_pos_as_xyz
  1  'x, y, z'
loop_
 _atom_site_type_symbol
 _atom_site_label
 _atom_site_symmetry_multiplicity
 _atom_site_fract_x
 _atom_site_fract_y
 _atom_site_fract_z
 _atom_site_occupancy
  Fe  Fe0  1  0.21234217  0.95989525  0.96924243  1
  Fe  Fe1  1  0.78765783  0.74755408  0.53075757  1
  Fe  Fe2  1  0.78765783  0.04010475  0.03075757  1
  Fe  Fe3  1  0.21234217  0.25244592  0.46924243  1
  Fe  Fe4  1  0.09946442  0.78403334  0.63860518  1
  Fe  Fe5  1  0.90053558  0.68456891  0.86139482  1
  Fe  Fe6  1  0.90053558  0.21596666  0.36139482  1
  Fe  Fe7  1  0.09946442  0.31543109  0.13860518  1
  Fe  Fe8  1  0.00000000  0.19856629  0.75000000  1
  Fe  Fe9  1  -0.00000000  0.80143371  0.25000000  1
  Ge  Ge0  1  0.56619056  0.24935836  0.59331394  1
  Ge  Ge1  1  0.43380944  0.68316780  0.90668606  1
  Ge  Ge2  1  0.43380944  0.75064164  0.40668606  1
  Ge  Ge3  1  0.56619056  0.31683220  0.09331394  1
  N  N0  1  0.85471746  0.82120293  0.69759365  1
  N  N1  1  0.14528254  0.96648648  0.80240635  1
  N  N2  1  0.14528254  0.17879707  0.30240635  1
  N  N3  1  0.85471746  0.03351352  0.19759365  1
  N  N4  1  0.12784756  0.43061487  0.60602562  1
  N  N5  1  0.87215244  0.30276831  0.89397438  1
  N  N6  1  0.87215244  0.56938513  0.39397438  1
  N  N7  1  0.12784756  0.69723169  0.10602562  1
  N  N8  1  0.32465955  0.99435629  0.53791424  1
  N  N9  1  0.67534045  0.66969674  0.96208576  1
  N  N10  1  0.67534045  0.00564371  0.46208576  1
  N  N11  1  0.32465955  0.33030326  0.03791424  1
loop_
_geom_bond_atom_site_label_1
_geom_bond_atom_site_label_2
_geom_bond_distance
_geom_bond_site_symmetry_2
Fe0 N7 1.758979 1_556
Fe0 N1 1.780950 1_555
Fe0 N11 1.835226 1_566
Fe1 N6 1.758979 1_555
Fe1 N0 1.780949 1_555
Fe1 N10 1.835222 1_565
Fe2 N5 1.758979 1_554
Fe2 N3 1.780950 1_555
Fe2 N9 1.835226 1_544
Fe3 N4 1.758979 1_555
Fe3 N2 1.780949 1_555
Fe3 N8 1.835222 1_545
Fe4 N4 1.749950 1_555
Fe4 N1 1.847288 1_555
Fe4 N8 1.866504 1_555
Fe4 N0 1.940791 1_455
Fe5 N5 1.749945 1_555
Fe5 N0 1.847286 1_555
Fe5 N9 1.866504 1_555
Fe5 N1 1.940793 1_655
Fe6 N6 1.749950 1_555
Fe6 N3 1.847288 1_555
Fe6 N10 1.866504 1_555
Fe6 N2 1.940791 1_655
Fe7 N7 1.749945 1_555
Fe7 N2 1.847286 1_555
Fe7 N11 1.866504 1_555
Fe7 N3 1.940793 1_455
Fe8 N4 1.796059 1_555
Fe8 N5 1.796061 1_455
Fe8 N1 1.865999 1_545
Fe8 N0 1.866003 1_445
Fe9 N6 1.796059 1_455
Fe9 N7 1.796061 1_555
Fe9 N3 1.865999 1_465
Fe9 N2 1.866003 1_565
Ge0 N8 1.972948 1_545
Ge0 N10 2.007079 1_555
Ge1 N9 1.972948 1_555
Ge1 N11 2.007079 1_556
Ge2 N10 1.972948 1_565
Ge2 N8 2.007079 1_555
Ge3 N11 1.972948 1_555
Ge3 N9 2.007079 1_554
