# generated using pymatgen
data_Na3CaMg3AlF14
_symmetry_space_group_name_H-M   'P 1'
_cell_length_a   7.15535392
_cell_length_b   7.15535392
_cell_length_c   7.15535382
_cell_angle_alpha   59.77727869
_cell_angle_beta   59.77727869
_cell_angle_gamma   59.77728470
_symmetry_Int_Tables_number   1
_chemical_formula_structural   Na3CaMg3AlF14
_chemical_formula_sum   'Na3 Ca1 Mg3 Al1 F14'
_cell_volume   257.73696913
_cell_formula_units_Z   1
loop_
 _symmetry_equiv_pos_site_id
 _symmetry_equiv_pos_as_xyz
  1  'x, y, z'
loop_
 _atom_site_type_symbol
 _atom_site_label
 _atom_site_symmetry_multiplicity
 _atom_site_fract_x
 _atom_site_fract_y
 _atom_site_fract_z
 _atom_site_occupancy
  Na  Na0  1  -0.00000000  -0.00000000  0.50000000  1
  Na  Na1  1  0.50000000  -0.00000000  0.00000000  1
  Na  Na2  1  -0.00000000  0.50000000  0.00000000  1
  Ca  Ca0  1  -0.00000000  -0.00000000  0.00000000  1
  Mg  Mg0  1  0.50000000  -0.00000000  0.50000000  1
  Mg  Mg1  1  -0.00000000  0.50000000  0.50000000  1
  Mg  Mg2  1  0.50000000  0.50000000  0.00000000  1
  Al  Al0  1  0.50000000  0.50000000  0.50000000  1
  F  F0  1  0.83101103  0.42110474  0.83101103  1
  F  F1  1  0.42110474  0.83101103  0.83101103  1
  F  F2  1  0.83101103  0.83101103  0.42110474  1
  F  F3  1  0.16898897  0.57889526  0.16898897  1
  F  F4  1  0.57889526  0.16898897  0.16898897  1
  F  F5  1  0.16898897  0.16898897  0.57889526  1
  F  F6  1  0.56276456  0.20061969  0.56276456  1
  F  F7  1  0.20061969  0.56276456  0.56276456  1
  F  F8  1  0.56276456  0.56276456  0.20061969  1
  F  F9  1  0.43723544  0.79938031  0.43723544  1
  F  F10  1  0.79938031  0.43723544  0.43723544  1
  F  F11  1  0.43723544  0.43723544  0.79938031  1
  F  F12  1  0.87452354  0.87452354  0.87452354  1
  F  F13  1  0.12547646  0.12547646  0.12547646  1
loop_
_geom_bond_atom_site_label_1
_geom_bond_atom_site_label_2
_geom_bond_distance
_geom_bond_site_symmetry_2
Ca0 F12 2.202916 1_444
Ca0 F13 2.202916 1_555
Ca0 F5 2.477776 1_554
Ca0 F2 2.477776 1_445
Ca0 F0 2.477776 1_454
Ca0 F4 2.477776 1_455
Ca0 F1 2.477776 1_544
Ca0 F3 2.477776 1_545
Al0 F11 1.805072 1_555
Al0 F8 1.805072 1_555
Al0 F9 1.805073 1_555
Al0 F10 1.805073 1_555
Al0 F6 1.805073 1_555
Al0 F7 1.805073 1_555
F0 Mg1 1.961766 1_655
F0 Mg2 1.961766 1_556
F0 Na2 2.467638 1_656
F1 Mg0 1.961766 1_565
F1 Mg2 1.961766 1_556
F1 Na1 2.467638 1_566
F2 Mg1 1.961767 1_655
F2 Mg0 1.961767 1_565
F2 Na0 2.467638 1_665
F3 Mg1 1.961766 1_555
F3 Mg2 1.961766 1_555
F3 Na2 2.467638 1_555
F4 Mg0 1.961766 1_555
F4 Mg2 1.961766 1_555
F4 Na1 2.467638 1_555
F5 Mg0 1.961767 1_555
F5 Mg1 1.961767 1_555
F5 Na0 2.467638 1_555
F6 Mg0 1.991271 1_555
F6 Na1 2.600689 1_556
F6 Na0 2.600689 1_655
F7 Mg1 1.991271 1_555
F7 Na2 2.600689 1_556
F7 Na0 2.600689 1_565
F8 Mg2 1.991271 1_555
F8 Na1 2.600689 1_565
F8 Na2 2.600689 1_655
F9 Mg0 1.991271 1_565
F9 Na1 2.600689 1_565
F9 Na0 2.600689 1_565
F10 Mg1 1.991271 1_655
F10 Na2 2.600689 1_655
F10 Na0 2.600689 1_655
F11 Mg2 1.991271 1_556
F11 Na1 2.600689 1_556
F11 Na2 2.600689 1_556
F12 Na0 2.181936 1_665
F12 Na2 2.181936 1_656
F12 Na1 2.181936 1_566
F13 Na0 2.181936 1_555
F13 Na1 2.181936 1_555
F13 Na2 2.181936 1_555
