# generated using pymatgen
data_BaU3O14
_symmetry_space_group_name_H-M   'P 1'
_cell_length_a   6.97398614
_cell_length_b   7.38236200
_cell_length_c   11.82983391
_cell_angle_alpha   90.00000000
_cell_angle_beta   90.19761524
_cell_angle_gamma   90.00000000
_symmetry_Int_Tables_number   1
_chemical_formula_structural   BaU3O14
_chemical_formula_sum   'Ba2 U6 O28'
_cell_volume   609.04934608
_cell_formula_units_Z   2
loop_
 _symmetry_equiv_pos_site_id
 _symmetry_equiv_pos_as_xyz
  1  'x, y, z'
loop_
 _atom_site_type_symbol
 _atom_site_label
 _atom_site_symmetry_multiplicity
 _atom_site_fract_x
 _atom_site_fract_y
 _atom_site_fract_z
 _atom_site_occupancy
  Ba  Ba0  1  0.18938800  0.50889300  0.51404400  1
  Ba  Ba1  1  0.68938800  0.49110700  0.01404400  1
  U  U0  1  0.50118600  0.97908400  0.50244400  1
  U  U1  1  0.00118600  0.02091600  0.00244400  1
  U  U2  1  0.03398800  0.97993100  0.68294300  1
  U  U3  1  0.53398800  0.02006900  0.18294300  1
  U  U4  1  0.00185000  0.98868000  0.36302900  1
  U  U5  1  0.50185000  0.01132000  0.86302900  1
  O  O0  1  0.51346800  0.72871300  0.48765300  1
  O  O1  1  0.01346800  0.27128700  0.98765300  1
  O  O2  1  0.46094700  0.22808700  0.50348800  1
  O  O3  1  0.96094700  0.77191300  0.00348800  1
  O  O4  1  0.02709500  0.72769500  0.69107100  1
  O  O5  1  0.52709500  0.27230500  0.19107100  1
  O  O6  1  0.07894600  0.22558900  0.66178200  1
  O  O7  1  0.57894600  0.77441100  0.16178200  1
  O  O8  1  0.98158900  0.73798600  0.35648500  1
  O  O9  1  0.48158900  0.26201400  0.85648500  1
  O  O10  1  0.02069500  0.23496000  0.39285100  1
  O  O11  1  0.52069500  0.76504000  0.89285100  1
  O  O12  1  0.18145100  0.93069600  0.51783000  1
  O  O13  1  0.68145100  0.06930400  0.01783000  1
  O  O14  1  0.81051600  0.98629000  0.55292700  1
  O  O15  1  0.31051600  0.01371000  0.05292700  1
  O  O16  1  0.43761700  0.97262500  0.68488800  1
  O  O17  1  0.93761700  0.02737500  0.18488800  1
  O  O18  1  0.31293400  0.98410900  0.31241000  1
  O  O19  1  0.81293400  0.01589100  0.81241000  1
  O  O20  1  0.68079800  0.00911100  0.34759700  1
  O  O21  1  0.18079800  0.99088900  0.84759700  1
  O  O22  1  0.29449400  0.53375100  0.24081200  1
  O  O23  1  0.79449400  0.46624900  0.74081200  1
  O  O24  1  0.49157700  0.51983200  0.70070900  1
  O  O25  1  0.99157700  0.48016800  0.20070900  1
  O  O26  1  0.65914200  0.46884100  0.66662700  1
  O  O27  1  0.15914200  0.53115900  0.16662700  1
loop_
_geom_bond_atom_site_label_1
_geom_bond_atom_site_label_2
_geom_bond_distance
_geom_bond_site_symmetry_2
Ba0 O10 2.741804 1_555
Ba0 O0 2.800709 1_555
Ba0 O2 2.810919 1_555
Ba0 O6 2.833939 1_555
Ba0 O4 2.879614 1_555
Ba0 O8 2.901024 1_455
Ba0 O24 3.048284 1_555
Ba0 O12 3.114719 1_555
Ba0 O22 3.321899 1_555
Ba1 O11 2.741804 1_554
Ba1 O1 2.800709 1_654
Ba1 O3 2.810919 1_555
Ba1 O7 2.833939 1_555
Ba1 O5 2.879614 1_555
Ba1 O9 2.901024 1_554
Ba1 O25 3.048284 1_555
Ba1 O13 3.114719 1_555
Ba1 O23 3.321899 1_554
O0 U0 1.858596 1_555
O1 U1 1.858596 1_556
O2 U0 1.859575 1_545
O3 U1 1.859575 1_665
O4 U2 1.865206 1_555
O5 U3 1.865206 1_555
O6 U2 1.857532 1_545
O7 U3 1.857532 1_565
O8 U4 1.857693 1_655
O9 U5 1.857693 1_555
O10 U4 1.856611 1_545
O11 U5 1.856611 1_565
O12 U2 2.240269 1_555
O12 U4 2.256060 1_555
O12 U0 2.266200 1_555
O13 U3 2.240269 1_555
O13 U5 2.256060 1_554
O13 U1 2.266200 1_655
O14 U2 2.186370 1_655
O14 U0 2.237048 1_555
O14 U4 2.616887 1_655
O15 U3 2.186370 1_555
O15 U1 2.237048 1_555
O15 U5 2.616887 1_554
O16 U5 2.171820 1_565
O16 U0 2.205356 1_555
O17 U4 2.171820 1_645
O17 U1 2.205356 1_655
O18 U3 2.192964 1_565
O18 U4 2.252863 1_555
O18 U0 2.599703 1_555
O19 U2 2.192964 1_645
O19 U5 2.252863 1_555
O19 U1 2.599703 1_656
O20 U3 2.198886 1_555
O20 U0 2.233729 1_545
O20 U4 2.250874 1_645
O21 U2 2.198886 1_555
O21 U1 2.233729 1_566
O21 U5 2.250874 1_565
O22 O27 1.286800 1_555
O23 O26 1.286800 1_555
O24 O26 1.293494 1_555
O25 O27 1.293494 1_655
