# generated using pymatgen
data_SmGd3Al4O12
_symmetry_space_group_name_H-M   'P 1'
_cell_length_a   7.51766600
_cell_length_b   5.28561300
_cell_length_c   5.36894476
_cell_angle_alpha   89.89648443
_cell_angle_beta   90.00000000
_cell_angle_gamma   90.00000000
_symmetry_Int_Tables_number   1
_chemical_formula_structural   SmGd3Al4O12
_chemical_formula_sum   'Sm1 Gd3 Al4 O12'
_cell_volume   213.33721221
_cell_formula_units_Z   1
loop_
 _symmetry_equiv_pos_site_id
 _symmetry_equiv_pos_as_xyz
  1  'x, y, z'
loop_
 _atom_site_type_symbol
 _atom_site_label
 _atom_site_symmetry_multiplicity
 _atom_site_fract_x
 _atom_site_fract_y
 _atom_site_fract_z
 _atom_site_occupancy
  Sm  Sm0  1  0.50000000  0.49071100  0.54107000  1
  Gd  Gd0  1  0.50000000  0.00903200  0.04341100  1
  Gd  Gd1  1  0.00000000  0.50887400  0.45626500  1
  Gd  Gd2  1  0.00000000  0.99130400  0.95713800  1
  Al  Al0  1  0.24948900  0.49974400  0.99993500  1
  Al  Al1  1  0.75054600  0.00017100  0.50001600  1
  Al  Al2  1  0.75051100  0.49974400  0.99993500  1
  Al  Al3  1  0.24945400  0.00017100  0.50001600  1
  O  O0  1  0.50000000  0.57402700  0.98613500  1
  O  O1  1  0.50000000  0.92998700  0.48265800  1
  O  O2  1  0.00000000  0.42618800  0.01639700  1
  O  O3  1  0.00000000  0.07420200  0.51845500  1
  O  O4  1  0.28927300  0.21151400  0.78911100  1
  O  O5  1  0.71313000  0.28712000  0.28753800  1
  O  O6  1  0.78946700  0.78785900  0.21155300  1
  O  O7  1  0.21067600  0.71142900  0.71108300  1
  O  O8  1  0.21053300  0.78785900  0.21155300  1
  O  O9  1  0.78932400  0.71142900  0.71108300  1
  O  O10  1  0.71072700  0.21151400  0.78911100  1
  O  O11  1  0.28687000  0.28712000  0.28753800  1
loop_
_geom_bond_atom_site_label_1
_geom_bond_atom_site_label_2
_geom_bond_distance
_geom_bond_site_symmetry_2
Gd0 O0 2.320291 1_544
Gd0 O4 2.348160 1_554
Gd0 O10 2.348160 1_554
Gd0 O1 2.394273 1_545
Gd0 O11 2.540194 1_555
Gd0 O5 2.540194 1_555
Gd0 O6 2.629308 1_545
Gd0 O8 2.629308 1_545
Gd1 O3 2.321046 1_555
Gd1 O7 2.351944 1_555
Gd1 O9 2.351944 1_455
Gd1 O2 2.402503 1_555
Gd1 O8 2.529555 1_555
Gd1 O6 2.529555 1_455
Gd1 O5 2.617096 1_455
Gd1 O11 2.617096 1_555
Gd2 O2 2.321112 1_566
Gd2 O8 2.349854 1_556
Gd2 O6 2.349854 1_456
Gd2 O3 2.394897 1_565
Gd2 O7 2.539490 1_555
Gd2 O9 2.539490 1_455
Gd2 O4 2.625632 1_565
Gd2 O10 2.625632 1_465
Al0 O2 1.917453 1_556
Al0 O4 1.922980 1_555
Al0 O8 1.924060 1_556
Al0 O0 1.925151 1_555
Al0 O11 1.928745 1_556
Al0 O7 1.932834 1_555
Al1 O5 1.916934 1_555
Al1 O3 1.918294 1_655
Al1 O9 1.921487 1_545
Al1 O1 1.921998 1_545
Al1 O6 1.936446 1_545
Al1 O10 1.937229 1_555
Al2 O2 1.917453 1_656
Al2 O10 1.922980 1_555
Al2 O6 1.924060 1_556
Al2 O0 1.925151 1_555
Al2 O5 1.928745 1_556
Al2 O9 1.932834 1_555
Al3 O11 1.916934 1_555
Al3 O3 1.918294 1_555
Al3 O7 1.921487 1_545
Al3 O1 1.921998 1_545
Al3 O8 1.936446 1_545
Al3 O4 1.937229 1_555
O0 Sm0 2.430552 1_555
O1 Sm0 2.342365 1_555
O4 Sm0 2.540424 1_555
O5 Sm0 2.362907 1_555
O7 Sm0 2.632273 1_555
O9 Sm0 2.632273 1_555
O10 Sm0 2.540424 1_555
O11 Sm0 2.362907 1_555
