# generated using pymatgen
data_Yb(Mo3Se4)2
_symmetry_space_group_name_H-M   'P 1'
_cell_length_a   6.82637283
_cell_length_b   6.82637283
_cell_length_c   6.82637258
_cell_angle_alpha   89.16867806
_cell_angle_beta   89.16867806
_cell_angle_gamma   89.16868318
_symmetry_Int_Tables_number   1
_chemical_formula_structural   Yb(Mo3Se4)2
_chemical_formula_sum   'Yb1 Mo6 Se8'
_cell_volume   318.00514703
_cell_formula_units_Z   1
loop_
 _symmetry_equiv_pos_site_id
 _symmetry_equiv_pos_as_xyz
  1  'x, y, z'
loop_
 _atom_site_type_symbol
 _atom_site_label
 _atom_site_symmetry_multiplicity
 _atom_site_fract_x
 _atom_site_fract_y
 _atom_site_fract_z
 _atom_site_occupancy
  Yb  Yb0  1  0.00000000  0.00000000  0.00000000  1
  Mo  Mo0  1  0.76400300  0.57683400  0.44120500  1
  Mo  Mo1  1  0.44120500  0.76400300  0.57683400  1
  Mo  Mo2  1  0.57683400  0.44120500  0.76400300  1
  Mo  Mo3  1  0.23599700  0.42316600  0.55879500  1
  Mo  Mo4  1  0.55879500  0.23599700  0.42316600  1
  Mo  Mo5  1  0.42316600  0.55879500  0.23599700  1
  Se  Se0  1  0.76082900  0.76082900  0.76082900  1
  Se  Se1  1  0.23917100  0.23917100  0.23917100  1
  Se  Se2  1  0.24778300  0.62471700  0.87690100  1
  Se  Se3  1  0.87690100  0.24778300  0.62471700  1
  Se  Se4  1  0.62471700  0.87690100  0.24778300  1
  Se  Se5  1  0.75221700  0.37528300  0.12309900  1
  Se  Se6  1  0.12309900  0.75221700  0.37528300  1
  Se  Se7  1  0.37528300  0.12309900  0.75221700  1
loop_
_geom_bond_atom_site_label_1
_geom_bond_atom_site_label_2
_geom_bond_distance
_geom_bond_site_symmetry_2
Mo0 Se0 2.532978 1_555
Mo0 Se5 2.590348 1_555
Mo0 Se4 2.597053 1_555
Mo0 Se3 2.665506 1_555
Mo0 Se6 2.771709 1_655
Mo1 Se0 2.532979 1_555
Mo1 Se6 2.590348 1_555
Mo1 Se2 2.597053 1_555
Mo1 Se4 2.665505 1_555
Mo1 Se7 2.771709 1_565
Mo2 Se0 2.532978 1_555
Mo2 Se7 2.590348 1_555
Mo2 Se3 2.597053 1_555
Mo2 Se2 2.665506 1_555
Mo2 Se5 2.771709 1_556
Mo3 Se1 2.532978 1_555
Mo3 Se2 2.590348 1_555
Mo3 Se7 2.597053 1_555
Mo3 Se6 2.665506 1_555
Mo3 Se3 2.771709 1_455
Mo4 Se1 2.532979 1_555
Mo4 Se3 2.590348 1_555
Mo4 Se5 2.597053 1_555
Mo4 Se7 2.665505 1_555
Mo4 Se4 2.771709 1_545
Mo5 Se1 2.532978 1_555
Mo5 Se4 2.590348 1_555
Mo5 Se6 2.597053 1_555
Mo5 Se5 2.665506 1_555
Mo5 Se2 2.771709 1_554
Se0 Yb0 2.868604 1_666
Se1 Yb0 2.868604 1_555
Se2 Yb0 3.166321 1_566
Se3 Yb0 3.166320 1_656
Se4 Yb0 3.166320 1_665
Se5 Yb0 3.166321 1_655
Se6 Yb0 3.166320 1_565
Se7 Yb0 3.166320 1_556
