# generated using pymatgen
data_Ho3C4
_symmetry_space_group_name_H-M   'P 1'
_cell_length_a   8.00747709
_cell_length_b   8.00747709
_cell_length_c   15.77840953
_cell_angle_alpha   90.00000000
_cell_angle_beta   90.00000000
_cell_angle_gamma   90.00000000
_symmetry_Int_Tables_number   1
_chemical_formula_structural   Ho3C4
_chemical_formula_sum   'Ho30 C40'
_cell_volume   1011.70671745
_cell_formula_units_Z   10
loop_
 _symmetry_equiv_pos_site_id
 _symmetry_equiv_pos_as_xyz
  1  'x, y, z'
loop_
 _atom_site_type_symbol
 _atom_site_label
 _atom_site_symmetry_multiplicity
 _atom_site_fract_x
 _atom_site_fract_y
 _atom_site_fract_z
 _atom_site_occupancy
  Ho  Ho0  1  0.50000000  0.50000000  0.50000000  1
  Ho  Ho1  1  -0.00000000  0.00000000  0.00000000  1
  Ho  Ho2  1  0.50000000  0.50000000  0.18712404  1
  Ho  Ho3  1  -0.00000000  0.00000000  0.68712404  1
  Ho  Ho4  1  0.50000000  0.50000000  0.81287596  1
  Ho  Ho5  1  -0.00000000  0.00000000  0.31287596  1
  Ho  Ho6  1  0.70291261  0.90476025  0.50000000  1
  Ho  Ho7  1  0.29708739  0.09523975  0.50000000  1
  Ho  Ho8  1  0.79708739  0.40476025  0.00000000  1
  Ho  Ho9  1  0.20291261  0.59523975  0.00000000  1
  Ho  Ho10  1  0.90476025  0.29708739  0.50000000  1
  Ho  Ho11  1  0.09523975  0.70291261  0.50000000  1
  Ho  Ho12  1  0.40476025  0.20291261  0.00000000  1
  Ho  Ho13  1  0.59523975  0.79708739  0.00000000  1
  Ho  Ho14  1  0.78798671  0.59997139  0.35408804  1
  Ho  Ho15  1  0.21201329  0.40002861  0.35408804  1
  Ho  Ho16  1  0.71201329  0.09997139  0.85408804  1
  Ho  Ho17  1  0.28798671  0.90002861  0.85408804  1
  Ho  Ho18  1  0.59997139  0.21201329  0.35408804  1
  Ho  Ho19  1  0.40002861  0.78798671  0.35408804  1
  Ho  Ho20  1  0.09997139  0.28798671  0.85408804  1
  Ho  Ho21  1  0.90002861  0.71201329  0.85408804  1
  Ho  Ho22  1  0.21201329  0.40002861  0.64591196  1
  Ho  Ho23  1  0.78798671  0.59997139  0.64591196  1
  Ho  Ho24  1  0.28798671  0.90002861  0.14591196  1
  Ho  Ho25  1  0.71201329  0.09997139  0.14591196  1
  Ho  Ho26  1  0.40002861  0.78798671  0.64591196  1
  Ho  Ho27  1  0.59997139  0.21201329  0.64591196  1
  Ho  Ho28  1  0.90002861  0.71201329  0.14591196  1
  Ho  Ho29  1  0.09997139  0.28798671  0.14591196  1
  C  C0  1  0.50000000  0.50000000  0.95883177  1
  C  C1  1  -0.00000000  0.00000000  0.45883177  1
  C  C2  1  0.50000000  0.50000000  0.04116823  1
  C  C3  1  -0.00000000  0.00000000  0.54116823  1
  C  C4  1  0.50000000  0.50000000  0.34328109  1
  C  C5  1  -0.00000000  0.00000000  0.84328109  1
  C  C6  1  0.50000000  0.50000000  0.65671891  1
  C  C7  1  -0.00000000  0.00000000  0.15671791  1
  C  C8  1  0.60601355  0.19593475  0.50000000  1
  C  C9  1  0.39398645  0.80406525  0.50000000  1
  C  C10  1  0.89398645  0.69593475  0.00000000  1
  C  C11  1  0.10601355  0.30406525  0.00000000  1
  C  C12  1  0.19593475  0.39398645  0.50000000  1
  C  C13  1  0.80406525  0.60601355  0.50000000  1
  C  C14  1  0.69593475  0.10601355  0.00000000  1
  C  C15  1  0.30406525  0.89398645  0.00000000  1
  C  C16  1  0.69358071  0.90141520  0.32763924  1
  C  C17  1  0.30641929  0.09858480  0.32763924  1
  C  C18  1  0.80641929  0.40141520  0.82763924  1
  C  C19  1  0.19358071  0.59858480  0.82763924  1
  C  C20  1  0.90141520  0.30641929  0.32763924  1
  C  C21  1  0.09858480  0.69358071  0.32763924  1
  C  C22  1  0.40141520  0.19358071  0.82763924  1
  C  C23  1  0.59858480  0.80641929  0.82763924  1
  C  C24  1  0.30641929  0.09858480  0.67236076  1
  C  C25  1  0.69358071  0.90141520  0.67236076  1
  C  C26  1  0.19358071  0.59858480  0.17236076  1
  C  C27  1  0.80641929  0.40141520  0.17236076  1
  C  C28  1  0.09858480  0.69358071  0.67236076  1
  C  C29  1  0.90141520  0.30641929  0.67236076  1
  C  C30  1  0.59858480  0.80641929  0.17236076  1
  C  C31  1  0.40141520  0.19358071  0.17236076  1
  C  C32  1  0.64993033  0.85006967  0.25000000  1
  C  C33  1  0.35006967  0.14993033  0.25000000  1
  C  C34  1  0.85006967  0.35006967  0.75000000  1
  C  C35  1  0.14993033  0.64993033  0.75000000  1
  C  C36  1  0.85006967  0.35006967  0.25000000  1
  C  C37  1  0.14993033  0.64993033  0.25000000  1
  C  C38  1  0.35006967  0.14993033  0.75000000  1
  C  C39  1  0.64993033  0.85006967  0.75000000  1
loop_
_geom_bond_atom_site_label_1
_geom_bond_atom_site_label_2
_geom_bond_distance
_geom_bond_site_symmetry_2
C0 C2 1.299138 1_556
C0 Ho4 2.302951 1_555
C0 Ho13 2.581241 1_556
C0 Ho9 2.581241 1_556
C0 Ho12 2.581241 1_556
C0 Ho8 2.581241 1_556
C1 C3 1.299138 1_555
C1 Ho5 2.302951 1_555
C1 Ho6 2.581241 1_445
C1 Ho11 2.581241 1_545
C1 Ho10 2.581241 1_455
C1 Ho7 2.581241 1_555
C2 Ho2 2.302951 1_555
C2 Ho8 2.581241 1_555
C2 Ho13 2.581241 1_555
C2 Ho12 2.581241 1_555
C2 Ho9 2.581241 1_555
C3 Ho3 2.302951 1_555
C3 Ho6 2.581241 1_445
C3 Ho11 2.581241 1_545
C3 Ho10 2.581241 1_455
C3 Ho7 2.581241 1_555
C4 Ho14 2.446990 1_555
C4 Ho18 2.446990 1_555
C4 Ho15 2.446990 1_555
C4 Ho19 2.446990 1_555
C4 Ho2 2.463910 1_555
C4 Ho0 2.472775 1_555
C5 Ho20 2.446990 1_555
C5 Ho17 2.446990 1_545
C5 Ho16 2.446990 1_455
C5 Ho21 2.446990 1_445
C5 Ho3 2.463910 1_555
C5 Ho1 2.472775 1_556
C6 Ho27 2.446990 1_555
C6 Ho26 2.446990 1_555
C6 Ho22 2.446990 1_555
C6 Ho23 2.446990 1_555
C6 Ho4 2.463910 1_555
C6 Ho0 2.472775 1_555
C7 Ho29 2.446989 1_555
C7 Ho28 2.446989 1_445
C7 Ho24 2.446989 1_545
C7 Ho25 2.446989 1_455
C7 Ho5 2.463926 1_555
C7 Ho1 2.472759 1_555
C8 Ho27 2.306363 1_555
C8 Ho18 2.306363 1_555
C8 Ho6 2.457291 1_545
C8 Ho10 2.525613 1_555
C8 Ho0 2.578539 1_555
C8 Ho7 2.601812 1_555
C9 Ho26 2.306363 1_555
C9 Ho19 2.306363 1_555
C9 Ho7 2.457291 1_565
C9 Ho11 2.525613 1_555
C9 Ho0 2.578539 1_555
C9 Ho6 2.601812 1_555
C10 Ho21 2.306363 1_554
C10 Ho28 2.306363 1_555
C10 Ho8 2.457291 1_555
C10 Ho13 2.525613 1_555
C10 Ho1 2.578539 1_665
C10 Ho9 2.601812 1_655
C11 Ho20 2.306363 1_554
C11 Ho29 2.306363 1_555
C11 Ho9 2.457291 1_555
C11 Ho12 2.525613 1_555
C11 Ho1 2.578539 1_555
C11 Ho8 2.601812 1_455
C12 Ho22 2.306363 1_555
C12 Ho15 2.306363 1_555
C12 Ho10 2.457291 1_455
C12 Ho7 2.525613 1_555
C12 Ho0 2.578539 1_555
C12 Ho11 2.601812 1_555
C13 Ho23 2.306363 1_555
C13 Ho14 2.306363 1_555
C13 Ho11 2.457291 1_655
C13 Ho6 2.525613 1_555
C13 Ho0 2.578539 1_555
C13 Ho10 2.601812 1_555
C14 Ho16 2.306363 1_554
C14 Ho25 2.306363 1_555
C14 Ho12 2.457291 1_555
C14 Ho8 2.525613 1_555
C14 Ho1 2.578539 1_655
C14 Ho13 2.601812 1_545
C15 Ho17 2.306363 1_554
C15 Ho24 2.306363 1_555
C15 Ho13 2.457291 1_555
C15 Ho9 2.525613 1_555
C15 Ho1 2.578539 1_565
C15 Ho12 2.601812 1_565
C16 C32 1.338617 1_555
C16 Ho19 2.554309 1_555
C16 Ho14 2.563606 1_555
C16 Ho5 2.588014 1_665
C16 Ho18 2.630916 1_565
C16 Ho6 2.720737 1_555
C17 C33 1.338617 1_555
C17 Ho18 2.554309 1_555
C17 Ho15 2.563606 1_555
C17 Ho5 2.588014 1_555
C17 Ho19 2.630916 1_545
C17 Ho7 2.720737 1_555
C18 C34 1.338617 1_555
C18 Ho20 2.554309 1_655
C18 Ho16 2.563606 1_555
C18 Ho4 2.588014 1_555
C18 Ho21 2.630916 1_555
C18 Ho8 2.720737 1_556
C19 C35 1.338617 1_555
C19 Ho21 2.554309 1_455
C19 Ho17 2.563606 1_555
C19 Ho4 2.588014 1_555
C19 Ho20 2.630916 1_555
C19 Ho9 2.720737 1_556
C20 C36 1.338617 1_555
C20 Ho14 2.554309 1_555
C20 Ho18 2.563606 1_555
C20 Ho5 2.588014 1_655
C20 Ho15 2.630916 1_655
C20 Ho10 2.720737 1_555
C21 C37 1.338617 1_555
C21 Ho15 2.554309 1_555
C21 Ho19 2.563606 1_555
C21 Ho5 2.588014 1_565
C21 Ho14 2.630916 1_455
C21 Ho11 2.720737 1_555
C22 C38 1.338617 1_555
C22 Ho17 2.554309 1_545
C22 Ho20 2.563606 1_555
C22 Ho4 2.588014 1_555
C22 Ho16 2.630916 1_555
C22 Ho12 2.720737 1_556
C23 C39 1.338617 1_555
C23 Ho16 2.554309 1_565
C23 Ho21 2.563606 1_555
C23 Ho4 2.588014 1_555
C23 Ho17 2.630916 1_555
C23 Ho13 2.720737 1_556
C24 C38 1.338617 1_555
C24 Ho27 2.554309 1_555
C24 Ho22 2.563606 1_555
C24 Ho3 2.588014 1_555
C24 Ho26 2.630916 1_545
C24 Ho7 2.720737 1_555
C25 C39 1.338617 1_555
C25 Ho26 2.554309 1_555
C25 Ho23 2.563606 1_555
C25 Ho3 2.588014 1_665
C25 Ho27 2.630916 1_565
C25 Ho6 2.720737 1_555
C26 C37 1.338617 1_555
C26 Ho28 2.554309 1_455
C26 Ho24 2.563606 1_555
C26 Ho2 2.588014 1_555
C26 Ho29 2.630916 1_555
C26 Ho9 2.720737 1_555
C27 C36 1.338617 1_555
C27 Ho29 2.554309 1_655
C27 Ho25 2.563606 1_555
C27 Ho2 2.588014 1_555
C27 Ho28 2.630916 1_555
C27 Ho8 2.720737 1_555
C28 C35 1.338617 1_555
C28 Ho22 2.554309 1_555
C28 Ho26 2.563606 1_555
C28 Ho3 2.588014 1_565
C28 Ho23 2.630916 1_455
C28 Ho11 2.720737 1_555
C29 C34 1.338617 1_555
C29 Ho23 2.554309 1_555
C29 Ho27 2.563606 1_555
C29 Ho3 2.588014 1_655
C29 Ho22 2.630916 1_655
C29 Ho10 2.720737 1_555
C30 C32 1.338617 1_555
C30 Ho25 2.554309 1_565
C30 Ho28 2.563606 1_555
C30 Ho2 2.588014 1_555
C30 Ho24 2.630916 1_555
C30 Ho13 2.720737 1_555
C31 C33 1.338617 1_555
C31 Ho24 2.554309 1_545
C31 Ho29 2.563606 1_555
C31 Ho2 2.588014 1_555
C31 Ho25 2.630916 1_555
C31 Ho12 2.720737 1_555
C32 Ho25 2.636050 1_565
C32 Ho19 2.636050 1_555
C32 Ho28 2.816029 1_555
C32 Ho14 2.816029 1_555
C33 Ho18 2.636050 1_555
C33 Ho24 2.636050 1_545
C33 Ho15 2.816029 1_555
C33 Ho29 2.816029 1_555
C34 Ho20 2.636050 1_655
C34 Ho23 2.636050 1_555
C34 Ho16 2.816029 1_555
C34 Ho27 2.816029 1_555
C35 Ho22 2.636050 1_555
C35 Ho21 2.636050 1_455
C35 Ho17 2.816029 1_555
C35 Ho26 2.816029 1_555
C36 Ho29 2.636050 1_655
C36 Ho14 2.636050 1_555
C36 Ho25 2.816029 1_555
C36 Ho18 2.816029 1_555
C37 Ho15 2.636050 1_555
C37 Ho28 2.636050 1_455
C37 Ho24 2.816029 1_555
C37 Ho19 2.816029 1_555
C38 Ho27 2.636050 1_555
C38 Ho17 2.636050 1_545
C38 Ho22 2.816029 1_555
C38 Ho20 2.816029 1_555
C39 Ho16 2.636050 1_565
C39 Ho26 2.636050 1_555
C39 Ho23 2.816029 1_555
C39 Ho21 2.816029 1_555
