# generated using pymatgen
data_NaNd(GaS2)4
_symmetry_space_group_name_H-M   'P 1'
_cell_length_a   14.45863970
_cell_length_b   11.94023379
_cell_length_c   11.90717458
_cell_angle_alpha   74.64448375
_cell_angle_beta   52.78193830
_cell_angle_gamma   52.57357794
_symmetry_Int_Tables_number   1
_chemical_formula_structural   NaNd(GaS2)4
_chemical_formula_sum   'Na4 Nd4 Ga16 S32'
_cell_volume   1282.70775333
_cell_formula_units_Z   4
loop_
 _symmetry_equiv_pos_site_id
 _symmetry_equiv_pos_as_xyz
  1  'x, y, z'
loop_
 _atom_site_type_symbol
 _atom_site_label
 _atom_site_symmetry_multiplicity
 _atom_site_fract_x
 _atom_site_fract_y
 _atom_site_fract_z
 _atom_site_occupancy
  Na  Na0  1  0.75370000  0.75370000  0.24630000  1
  Na  Na1  1  0.00370000  0.00370000  0.49630000  1
  Na  Na2  1  0.49630000  0.49630000  0.00370000  1
  Na  Na3  1  0.24630000  0.24630000  0.75370000  1
  Nd  Nd0  1  0.25000000  0.25000000  0.25000000  1
  Nd  Nd1  1  0.00000000  0.00000000  0.00000000  1
  Nd  Nd2  1  0.75000000  0.75000000  0.75000000  1
  Nd  Nd3  1  0.50000000  0.50000000  0.50000000  1
  Ga  Ga0  1  0.09232800  0.65597300  0.26663800  1
  Ga  Ga1  1  0.98506100  0.26663800  0.65597300  1
  Ga  Ga2  1  0.65597300  0.09232800  0.98506100  1
  Ga  Ga3  1  0.26663800  0.98506100  0.09232800  1
  Ga  Ga4  1  0.15767200  0.59402700  0.98336200  1
  Ga  Ga5  1  0.26493900  0.98336200  0.59402700  1
  Ga  Ga6  1  0.59402700  0.15767200  0.26493900  1
  Ga  Ga7  1  0.98336200  0.26493900  0.15767200  1
  Ga  Ga8  1  0.01460800  0.74059100  0.75827000  1
  Ga  Ga9  1  0.48653100  0.75827000  0.74059100  1
  Ga  Ga10  1  0.74059100  0.01460800  0.48653100  1
  Ga  Ga11  1  0.75827000  0.48653100  0.01460800  1
  Ga  Ga12  1  0.23539200  0.50940900  0.49173000  1
  Ga  Ga13  1  0.76346900  0.49173000  0.50940900  1
  Ga  Ga14  1  0.50940900  0.23539200  0.76346900  1
  Ga  Ga15  1  0.49173000  0.76346900  0.23539200  1
  S  S0  1  0.03764100  0.04289100  0.71741000  1
  S  S1  1  0.71741000  0.20205800  0.03764100  1
  S  S2  1  0.04289100  0.03764100  0.20205800  1
  S  S3  1  0.20205800  0.71741000  0.04289100  1
  S  S4  1  0.21235900  0.20710900  0.53259000  1
  S  S5  1  0.04794200  0.53259000  0.20710900  1
  S  S6  1  0.20710900  0.21235900  0.04794200  1
  S  S7  1  0.53259000  0.04794200  0.21235900  1
  S  S8  1  0.70699600  0.71179800  0.54946500  1
  S  S9  1  0.03174100  0.54946500  0.71179800  1
  S  S10  1  0.71179800  0.70699600  0.03174100  1
  S  S11  1  0.54946500  0.03174100  0.70699600  1
  S  S12  1  0.54300400  0.53820200  0.70053500  1
  S  S13  1  0.21825900  0.70053500  0.53820200  1
  S  S14  1  0.53820200  0.54300400  0.21825900  1
  S  S15  1  0.70053500  0.21825900  0.54300400  1
  S  S16  1  0.80952900  0.93976900  0.77786600  1
  S  S17  1  0.47283600  0.77786600  0.93976900  1
  S  S18  1  0.93976900  0.80952900  0.47283600  1
  S  S19  1  0.77786600  0.47283600  0.80952900  1
  S  S20  1  0.97490400  0.78349200  0.96319700  1
  S  S21  1  0.27840700  0.96319700  0.78349200  1
  S  S22  1  0.78349200  0.97490400  0.27840700  1
  S  S23  1  0.96319700  0.27840700  0.97490400  1
  S  S24  1  0.27509600  0.46650800  0.28680300  1
  S  S25  1  0.97159300  0.28680300  0.46650800  1
  S  S26  1  0.46650800  0.27509600  0.97159300  1
  S  S27  1  0.28680300  0.97159300  0.27509600  1
  S  S28  1  0.47213400  0.77716400  0.44047100  1
  S  S29  1  0.31023100  0.44047100  0.77716400  1
  S  S30  1  0.77716400  0.47213400  0.31023100  1
  S  S31  1  0.44047100  0.31023100  0.47213400  1
loop_
_geom_bond_atom_site_label_1
_geom_bond_atom_site_label_2
_geom_bond_distance
_geom_bond_site_symmetry_2
Na0 S22 3.069959 1_555
Na0 S20 3.069959 1_554
Na0 S28 3.093223 1_555
Na0 S30 3.093223 1_555
Na0 S5 3.144200 1_655
Na0 S7 3.144200 1_565
Na0 S8 3.200402 1_555
Na0 S10 3.200402 1_555
Na1 S25 3.069959 1_455
Na1 S27 3.069959 1_545
Na1 S16 3.093223 1_445
Na1 S18 3.093223 1_445
Na1 S2 3.144200 1_555
Na1 S0 3.144200 1_555
Na1 S13 3.200402 1_545
Na1 S15 3.200402 1_455
Na2 S24 3.069959 1_555
Na2 S26 3.069959 1_554
Na2 S17 3.093223 1_554
Na2 S19 3.093223 1_554
Na2 S3 3.144200 1_555
Na2 S1 3.144200 1_555
Na2 S14 3.200402 1_555
Na2 S12 3.200402 1_554
Na3 S23 3.069959 1_455
Na3 S21 3.069959 1_545
Na3 S29 3.093223 1_555
Na3 S31 3.093223 1_555
Na3 S6 3.144200 1_556
Na3 S4 3.144200 1_555
Na3 S11 3.200402 1_555
Na3 S9 3.200402 1_555
Nd0 S24 2.989855 1_555
Nd0 S26 2.989855 1_554
Nd0 S25 2.989855 1_455
Nd0 S27 2.989855 1_545
Nd0 S4 3.015213 1_555
Nd0 S5 3.015213 1_555
Nd0 S7 3.015213 1_555
Nd0 S6 3.015213 1_555
Nd1 S23 2.989855 1_454
Nd1 S21 2.989855 1_544
Nd1 S22 2.989855 1_445
Nd1 S20 2.989855 1_444
Nd1 S0 3.015213 1_554
Nd1 S1 3.015213 1_455
Nd1 S3 3.015213 1_545
Nd1 S2 3.015213 1_555
Nd2 S10 3.002315 1_556
Nd2 S9 3.002315 1_655
Nd2 S11 3.002315 1_565
Nd2 S8 3.002315 1_555
Nd2 S16 3.016510 1_555
Nd2 S18 3.016510 1_555
Nd2 S19 3.016510 1_555
Nd2 S17 3.016510 1_555
Nd3 S12 3.002315 1_555
Nd3 S15 3.002315 1_555
Nd3 S13 3.002315 1_555
Nd3 S14 3.002315 1_555
Nd3 S30 3.016510 1_555
Nd3 S28 3.016510 1_555
Nd3 S29 3.016510 1_555
Nd3 S31 3.016510 1_555
Ga0 S18 2.274276 1_455
Ga0 S5 2.310237 1_555
Ga0 S24 2.317791 1_555
Ga0 S3 2.327985 1_555
Ga1 S19 2.274276 1_555
Ga1 S4 2.310237 1_655
Ga1 S25 2.317791 1_555
Ga1 S0 2.327985 1_655
Ga2 S16 2.274276 1_545
Ga2 S7 2.310237 1_556
Ga2 S26 2.317791 1_555
Ga2 S1 2.327985 1_556
Ga3 S17 2.274276 1_554
Ga3 S6 2.310237 1_565
Ga3 S27 2.317791 1_555
Ga3 S2 2.327985 1_565
Ga4 S29 2.274276 1_555
Ga4 S3 2.310237 1_556
Ga4 S20 2.317791 1_455
Ga4 S5 2.327985 1_556
Ga5 S28 2.274276 1_555
Ga5 S0 2.310237 1_565
Ga5 S21 2.317791 1_555
Ga5 S4 2.327985 1_565
Ga6 S31 2.274276 1_555
Ga6 S1 2.310237 1_555
Ga6 S22 2.317791 1_545
Ga6 S7 2.327985 1_555
Ga7 S30 2.274276 1_555
Ga7 S2 2.310237 1_655
Ga7 S23 2.317791 1_554
Ga7 S6 2.327985 1_655
Ga8 S20 2.270700 1_455
Ga8 S13 2.320253 1_555
Ga8 S16 2.321240 1_455
Ga8 S9 2.321924 1_555
Ga9 S21 2.270700 1_555
Ga9 S12 2.320253 1_555
Ga9 S17 2.321240 1_555
Ga9 S8 2.321924 1_555
Ga10 S22 2.270700 1_545
Ga10 S15 2.320253 1_555
Ga10 S18 2.321240 1_545
Ga10 S11 2.321924 1_555
Ga11 S23 2.270700 1_554
Ga11 S14 2.320253 1_555
Ga11 S19 2.321240 1_554
Ga11 S10 2.321924 1_555
Ga12 S24 2.270700 1_555
Ga12 S9 2.320253 1_555
Ga12 S31 2.321240 1_555
Ga12 S13 2.321924 1_555
Ga13 S25 2.270700 1_555
Ga13 S8 2.320253 1_555
Ga13 S30 2.321240 1_555
Ga13 S12 2.321924 1_555
Ga14 S26 2.270700 1_555
Ga14 S11 2.320253 1_555
Ga14 S29 2.321240 1_555
Ga14 S15 2.321924 1_555
Ga15 S27 2.270700 1_555
Ga15 S10 2.320253 1_555
Ga15 S28 2.321240 1_555
Ga15 S14 2.321924 1_555
