# generated using pymatgen
data_YBi3
_symmetry_space_group_name_H-M   'P 1'
_cell_length_a   6.82560497
_cell_length_b   6.82560497
_cell_length_c   6.07842400
_cell_angle_alpha   90.00000000
_cell_angle_beta   90.00000000
_cell_angle_gamma   119.99998999
_symmetry_Int_Tables_number   1
_chemical_formula_structural   YBi3
_chemical_formula_sum   'Y2 Bi6'
_cell_volume   245.24714829
_cell_formula_units_Z   2
loop_
 _symmetry_equiv_pos_site_id
 _symmetry_equiv_pos_as_xyz
  1  'x, y, z'
loop_
 _atom_site_type_symbol
 _atom_site_label
 _atom_site_symmetry_multiplicity
 _atom_site_fract_x
 _atom_site_fract_y
 _atom_site_fract_z
 _atom_site_occupancy
  Y  Y0  1  0.33333300  0.66666700  0.75000000  1
  Y  Y1  1  0.66666700  0.33333300  0.25000000  1
  Bi  Bi0  1  0.17217800  0.34435700  0.25000000  1
  Bi  Bi1  1  0.65564300  0.82782200  0.25000000  1
  Bi  Bi2  1  0.17217800  0.82782200  0.25000000  1
  Bi  Bi3  1  0.82782200  0.65564300  0.75000000  1
  Bi  Bi4  1  0.34435700  0.17217800  0.75000000  1
  Bi  Bi5  1  0.82782200  0.17217800  0.75000000  1
loop_
_geom_bond_atom_site_label_1
_geom_bond_atom_site_label_2
_geom_bond_distance
_geom_bond_site_symmetry_2
Bi0 Bi2 3.299941 1_555
Bi0 Bi1 3.299942 1_555
Bi0 Y1 3.413418 1_455
Bi0 Y1 3.413431 1_555
Bi0 Bi2 3.525664 1_545
Bi0 Bi1 3.525664 1_445
Bi0 Y0 3.587016 1_555
Bi0 Y0 3.587016 1_554
Bi0 Bi5 3.657900 1_455
Bi0 Bi5 3.657900 1_454
Bi0 Bi4 3.657906 1_554
Bi0 Bi4 3.657906 1_555
Bi1 Bi2 3.299941 1_555
Bi1 Y1 3.413418 1_565
Bi1 Y1 3.413431 1_555
Bi1 Bi2 3.525664 1_655
Bi1 Y0 3.587016 1_554
Bi1 Y0 3.587016 1_555
Bi1 Bi5 3.657900 1_564
Bi1 Bi5 3.657900 1_565
Bi1 Bi3 3.657906 1_555
Bi1 Bi3 3.657906 1_554
Bi2 Y1 3.413425 1_455
Bi2 Y1 3.413425 1_565
Bi2 Y0 3.587015 1_554
Bi2 Y0 3.587015 1_555
Bi2 Bi4 3.657900 1_565
Bi2 Bi4 3.657900 1_564
Bi2 Bi3 3.657900 1_454
Bi2 Bi3 3.657900 1_455
Bi3 Bi5 3.299941 1_555
Bi3 Bi4 3.299942 1_555
Bi3 Y0 3.413418 1_655
Bi3 Y0 3.413431 1_555
Bi3 Bi5 3.525664 1_565
Bi3 Bi4 3.525664 1_665
Bi3 Y1 3.587016 1_556
Bi3 Y1 3.587016 1_555
Bi4 Bi5 3.299941 1_555
Bi4 Y0 3.413418 1_545
Bi4 Y0 3.413431 1_555
Bi4 Bi5 3.525664 1_455
Bi4 Y1 3.587016 1_556
Bi4 Y1 3.587016 1_555
Bi5 Y0 3.413425 1_545
Bi5 Y0 3.413425 1_655
Bi5 Y1 3.587015 1_555
Bi5 Y1 3.587015 1_556
