# generated using pymatgen
data_MgZn
_symmetry_space_group_name_H-M   'P 1'
_cell_length_a   6.15974332
_cell_length_b   6.15974332
_cell_length_c   18.32098000
_cell_angle_alpha   90.00000000
_cell_angle_beta   90.00000000
_cell_angle_gamma   119.99999270
_symmetry_Int_Tables_number   1
_chemical_formula_structural   MgZn
_chemical_formula_sum   'Mg16 Zn16'
_cell_volume   602.01123288
_cell_formula_units_Z   16
loop_
 _symmetry_equiv_pos_site_id
 _symmetry_equiv_pos_as_xyz
  1  'x, y, z'
loop_
 _atom_site_type_symbol
 _atom_site_label
 _atom_site_symmetry_multiplicity
 _atom_site_fract_x
 _atom_site_fract_y
 _atom_site_fract_z
 _atom_site_occupancy
  Mg  Mg0_0  1  0.16666650  0.33333350  0.32162150  1
  Mg  Mg0_1  1  0.16666650  0.33333350  0.82162150  1
  Mg  Mg0_2  1  0.16666650  0.83333350  0.32162150  1
  Mg  Mg0_3  1  0.16666650  0.83333350  0.82162150  1
  Mg  Mg0_4  1  0.66666650  0.33333350  0.32162150  1
  Mg  Mg0_5  1  0.66666650  0.33333350  0.82162150  1
  Mg  Mg0_6  1  0.66666650  0.83333350  0.32162150  1
  Mg  Mg0_7  1  0.66666650  0.83333350  0.82162150  1
  Mg  Mg1_0  1  0.33333350  0.16666650  0.17837850  1
  Mg  Mg1_1  1  0.33333350  0.16666650  0.67837850  1
  Mg  Mg1_2  1  0.33333350  0.66666650  0.17837850  1
  Mg  Mg1_3  1  0.33333350  0.66666650  0.67837850  1
  Mg  Mg1_4  1  0.83333350  0.16666650  0.17837850  1
  Mg  Mg1_5  1  0.83333350  0.16666650  0.67837850  1
  Mg  Mg1_6  1  0.83333350  0.66666650  0.17837850  1
  Mg  Mg1_7  1  0.83333350  0.66666650  0.67837850  1
  Zn  Zn0_0  1  0.33333350  0.16666650  0.44491850  1
  Zn  Zn0_1  1  0.33333350  0.16666650  0.94491850  1
  Zn  Zn0_2  1  0.33333350  0.66666650  0.44491850  1
  Zn  Zn0_3  1  0.33333350  0.66666650  0.94491850  1
  Zn  Zn0_4  1  0.83333350  0.16666650  0.44491850  1
  Zn  Zn0_5  1  0.83333350  0.16666650  0.94491850  1
  Zn  Zn0_6  1  0.83333350  0.66666650  0.44491850  1
  Zn  Zn0_7  1  0.83333350  0.66666650  0.94491850  1
  Zn  Zn1_0  1  0.16666650  0.33333350  0.05508150  1
  Zn  Zn1_1  1  0.16666650  0.33333350  0.55508150  1
  Zn  Zn1_2  1  0.16666650  0.83333350  0.05508150  1
  Zn  Zn1_3  1  0.16666650  0.83333350  0.55508150  1
  Zn  Zn1_4  1  0.66666650  0.33333350  0.05508150  1
  Zn  Zn1_5  1  0.66666650  0.33333350  0.55508150  1
  Zn  Zn1_6  1  0.66666650  0.83333350  0.05508150  1
  Zn  Zn1_7  1  0.66666650  0.83333350  0.55508150  1
loop_
_geom_bond_atom_site_label_1
_geom_bond_atom_site_label_2
_geom_bond_distance
_geom_bond_site_symmetry_2
Mg0_0 Zn0_4 2.874820 1_455
Mg0_0 Zn0_2 2.874820 1_555
Mg0_0 Zn0_0 2.874824 1_555
Mg0_0 Mg0_2 3.079872 1_545
Mg0_0 Mg0_4 3.079872 1_455
Mg0_0 Mg0_4 3.079872 1_555
Mg0_0 Mg0_2 3.079872 1_555
Mg0_0 Mg0_6 3.079872 1_445
Mg0_0 Mg0_6 3.079872 1_555
Mg0_0 Mg1_4 3.170030 1_455
Mg0_0 Mg1_2 3.170030 1_555
Mg0_0 Mg1_0 3.170033 1_555
Mg0_1 Zn0_5 2.874820 1_455
Mg0_1 Zn0_3 2.874820 1_555
Mg0_1 Zn0_1 2.874824 1_555
Mg0_1 Mg0_5 3.079872 1_555
Mg0_1 Mg0_3 3.079872 1_545
Mg0_1 Mg0_3 3.079872 1_555
Mg0_1 Mg0_5 3.079872 1_455
Mg0_1 Mg0_7 3.079872 1_555
Mg0_1 Mg0_7 3.079872 1_445
Mg0_1 Mg1_3 3.170030 1_555
Mg0_1 Mg1_5 3.170030 1_455
Mg0_1 Mg1_1 3.170033 1_555
Mg0_2 Zn0_6 2.874820 1_455
Mg0_2 Zn0_0 2.874820 1_565
Mg0_2 Zn0_2 2.874824 1_555
Mg0_2 Mg0_6 3.079872 1_455
Mg0_2 Mg0_6 3.079872 1_555
Mg0_2 Mg0_4 3.079872 1_455
Mg0_2 Mg0_4 3.079872 1_565
Mg0_2 Mg1_6 3.170030 1_455
Mg0_2 Mg1_0 3.170030 1_565
Mg0_2 Mg1_2 3.170033 1_555
Mg0_3 Zn0_7 2.874820 1_455
Mg0_3 Zn0_1 2.874820 1_565
Mg0_3 Zn0_3 2.874824 1_555
Mg0_3 Mg0_7 3.079872 1_455
Mg0_3 Mg0_7 3.079872 1_555
Mg0_3 Mg0_5 3.079872 1_455
Mg0_3 Mg0_5 3.079872 1_565
Mg0_3 Mg1_7 3.170030 1_455
Mg0_3 Mg1_1 3.170030 1_565
Mg0_3 Mg1_3 3.170033 1_555
Mg0_4 Zn0_0 2.874820 1_555
Mg0_4 Zn0_6 2.874820 1_555
Mg0_4 Zn0_4 2.874824 1_555
Mg0_4 Mg0_6 3.079872 1_545
Mg0_4 Mg0_6 3.079872 1_555
Mg0_4 Mg1_6 3.170030 1_555
Mg0_4 Mg1_0 3.170030 1_555
Mg0_4 Mg1_4 3.170033 1_555
Mg0_5 Zn0_7 2.874820 1_555
Mg0_5 Zn0_1 2.874820 1_555
Mg0_5 Zn0_5 2.874824 1_555
Mg0_5 Mg0_7 3.079872 1_545
Mg0_5 Mg0_7 3.079872 1_555
Mg0_5 Mg1_1 3.170030 1_555
Mg0_5 Mg1_7 3.170030 1_555
Mg0_5 Mg1_5 3.170033 1_555
Mg0_6 Zn0_4 2.874820 1_565
Mg0_6 Zn0_2 2.874820 1_555
Mg0_6 Zn0_6 2.874824 1_555
Mg0_6 Mg1_2 3.170030 1_555
Mg0_6 Mg1_4 3.170030 1_565
Mg0_6 Mg1_6 3.170033 1_555
Mg0_7 Zn0_3 2.874820 1_555
Mg0_7 Zn0_5 2.874820 1_565
Mg0_7 Zn0_7 2.874824 1_555
Mg0_7 Mg1_3 3.170030 1_555
Mg0_7 Mg1_5 3.170030 1_565
Mg0_7 Mg1_7 3.170033 1_555
Mg1_0 Zn1_4 2.874820 1_555
Mg1_0 Zn1_2 2.874820 1_545
Mg1_0 Zn1_0 2.874824 1_555
Mg1_0 Mg1_4 3.079872 1_455
Mg1_0 Mg1_4 3.079872 1_555
Mg1_0 Mg1_2 3.079872 1_545
Mg1_0 Mg1_2 3.079872 1_555
Mg1_0 Mg1_6 3.079872 1_555
Mg1_0 Mg1_6 3.079872 1_445
Mg1_1 Zn1_5 2.874820 1_555
Mg1_1 Zn1_3 2.874820 1_545
Mg1_1 Zn1_1 2.874824 1_555
Mg1_1 Mg1_5 3.079872 1_555
Mg1_1 Mg1_5 3.079872 1_455
Mg1_1 Mg1_3 3.079872 1_555
Mg1_1 Mg1_3 3.079872 1_545
Mg1_1 Mg1_7 3.079872 1_445
Mg1_1 Mg1_7 3.079872 1_555
Mg1_2 Zn1_0 2.874820 1_555
Mg1_2 Zn1_6 2.874820 1_555
Mg1_2 Zn1_2 2.874824 1_555
Mg1_2 Mg1_6 3.079872 1_455
Mg1_2 Mg1_6 3.079872 1_555
Mg1_2 Mg1_4 3.079872 1_565
Mg1_2 Mg1_4 3.079872 1_455
Mg1_3 Zn1_1 2.874820 1_555
Mg1_3 Zn1_7 2.874820 1_555
Mg1_3 Zn1_3 2.874824 1_555
Mg1_3 Mg1_7 3.079872 1_455
Mg1_3 Mg1_7 3.079872 1_555
Mg1_3 Mg1_5 3.079872 1_565
Mg1_3 Mg1_5 3.079872 1_455
Mg1_4 Zn1_6 2.874820 1_545
Mg1_4 Zn1_0 2.874820 1_655
Mg1_4 Zn1_4 2.874824 1_555
Mg1_4 Mg1_6 3.079872 1_545
Mg1_4 Mg1_6 3.079872 1_555
Mg1_5 Zn1_7 2.874820 1_545
Mg1_5 Zn1_1 2.874820 1_655
Mg1_5 Zn1_5 2.874824 1_555
Mg1_5 Mg1_7 3.079872 1_545
Mg1_5 Mg1_7 3.079872 1_555
Mg1_6 Zn1_4 2.874820 1_555
Mg1_6 Zn1_2 2.874820 1_655
Mg1_6 Zn1_6 2.874824 1_555
Mg1_7 Zn1_3 2.874820 1_655
Mg1_7 Zn1_5 2.874820 1_555
Mg1_7 Zn1_7 2.874824 1_555
Zn0_0 Zn1_5 2.689865 1_555
Zn0_0 Zn1_3 2.689865 1_545
Zn0_0 Zn1_1 2.689869 1_555
Zn0_0 Zn0_4 3.079872 1_555
Zn0_0 Zn0_2 3.079872 1_555
Zn0_0 Zn0_2 3.079872 1_545
Zn0_0 Zn0_4 3.079872 1_455
Zn0_0 Zn0_6 3.079872 1_445
Zn0_0 Zn0_6 3.079872 1_555
Zn0_1 Zn1_2 2.689865 1_546
Zn0_1 Zn1_4 2.689865 1_556
Zn0_1 Zn1_0 2.689869 1_556
Zn0_1 Zn0_5 3.079872 1_555
Zn0_1 Zn0_5 3.079872 1_455
Zn0_1 Zn0_3 3.079872 1_545
Zn0_1 Zn0_3 3.079872 1_555
Zn0_1 Zn0_7 3.079872 1_445
Zn0_1 Zn0_7 3.079872 1_555
Zn0_2 Zn1_7 2.689865 1_555
Zn0_2 Zn1_1 2.689865 1_555
Zn0_2 Zn1_3 2.689869 1_555
Zn0_2 Zn0_6 3.079872 1_455
Zn0_2 Zn0_6 3.079872 1_555
Zn0_2 Zn0_4 3.079872 1_565
Zn0_2 Zn0_4 3.079872 1_455
Zn0_3 Zn1_6 2.689865 1_556
Zn0_3 Zn1_0 2.689865 1_556
Zn0_3 Zn1_2 2.689869 1_556
Zn0_3 Zn0_7 3.079872 1_455
Zn0_3 Zn0_7 3.079872 1_555
Zn0_3 Zn0_5 3.079872 1_455
Zn0_3 Zn0_5 3.079872 1_565
Zn0_4 Zn1_7 2.689865 1_545
Zn0_4 Zn1_1 2.689865 1_655
Zn0_4 Zn1_5 2.689869 1_555
Zn0_4 Zn0_6 3.079872 1_555
Zn0_4 Zn0_6 3.079872 1_545
Zn0_5 Zn1_6 2.689865 1_546
Zn0_5 Zn1_0 2.689865 1_656
Zn0_5 Zn1_4 2.689869 1_556
Zn0_5 Zn0_7 3.079872 1_555
Zn0_5 Zn0_7 3.079872 1_545
Zn0_6 Zn1_5 2.689865 1_555
Zn0_6 Zn1_3 2.689865 1_655
Zn0_6 Zn1_7 2.689869 1_555
Zn0_7 Zn1_2 2.689865 1_656
Zn0_7 Zn1_4 2.689865 1_556
Zn0_7 Zn1_6 2.689869 1_556
Zn1_0 Zn1_2 3.079872 1_555
Zn1_0 Zn1_2 3.079872 1_545
Zn1_0 Zn1_4 3.079872 1_555
Zn1_0 Zn1_4 3.079872 1_455
Zn1_0 Zn1_6 3.079872 1_445
Zn1_0 Zn1_6 3.079872 1_555
Zn1_1 Zn1_5 3.079872 1_555
Zn1_1 Zn1_3 3.079872 1_555
Zn1_1 Zn1_3 3.079872 1_545
Zn1_1 Zn1_5 3.079872 1_455
Zn1_1 Zn1_7 3.079872 1_445
Zn1_1 Zn1_7 3.079872 1_555
Zn1_2 Zn1_6 3.079872 1_555
Zn1_2 Zn1_6 3.079872 1_455
Zn1_2 Zn1_4 3.079872 1_455
Zn1_2 Zn1_4 3.079872 1_565
Zn1_3 Zn1_7 3.079872 1_555
Zn1_3 Zn1_7 3.079872 1_455
Zn1_3 Zn1_5 3.079872 1_455
Zn1_3 Zn1_5 3.079872 1_565
Zn1_4 Zn1_6 3.079872 1_545
Zn1_4 Zn1_6 3.079872 1_555
Zn1_5 Zn1_7 3.079872 1_545
Zn1_5 Zn1_7 3.079872 1_555
