# generated using pymatgen
data_MnGaNi
_symmetry_space_group_name_H-M   'P 1'
_cell_length_a   4.12874074
_cell_length_b   4.12874074
_cell_length_c   5.16619400
_cell_angle_alpha   90.00000000
_cell_angle_beta   90.00000000
_cell_angle_gamma   119.99997977
_symmetry_Int_Tables_number   1
_chemical_formula_structural   MnGaNi
_chemical_formula_sum   'Mn2 Ga2 Ni2'
_cell_volume   76.26699863
_cell_formula_units_Z   2
loop_
 _symmetry_equiv_pos_site_id
 _symmetry_equiv_pos_as_xyz
  1  'x, y, z'
loop_
 _atom_site_type_symbol
 _atom_site_label
 _atom_site_symmetry_multiplicity
 _atom_site_fract_x
 _atom_site_fract_y
 _atom_site_fract_z
 _atom_site_occupancy
  Mn  Mn0  1  0.00000000  0.00000000  0.00000000  1
  Mn  Mn1  1  0.00000000  0.00000000  0.50000000  1
  Ga  Ga0  1  0.66666700  0.33333300  0.75000000  1
  Ga  Ga1  1  0.33333300  0.66666700  0.25000000  1
  Ni  Ni0  1  0.66666700  0.33333300  0.25000000  1
  Ni  Ni1  1  0.33333300  0.66666700  0.75000000  1
loop_
_geom_bond_atom_site_label_1
_geom_bond_atom_site_label_2
_geom_bond_distance
_geom_bond_site_symmetry_2
Mn0 Mn1 2.583097 1_555
Mn0 Mn1 2.583097 1_554
Mn0 Ni1 2.711135 1_544
Mn0 Ni0 2.711135 1_455
Mn0 Ni0 2.711139 1_555
Mn0 Ni1 2.711139 1_554
Mn0 Ni0 2.711139 1_445
Mn0 Ni1 2.711139 1_444
Mn1 Ni1 2.711135 1_545
Mn1 Ni0 2.711135 1_455
Mn1 Ni0 2.711139 1_555
Mn1 Ni0 2.711139 1_445
Mn1 Ni1 2.711139 1_445
Mn1 Ni1 2.711139 1_555
Ga0 Ni1 2.383728 1_545
Ga0 Ni1 2.383728 1_655
Ga0 Ni1 2.383734 1_555
Ga0 Ni0 2.583097 1_555
Ga0 Ni0 2.583097 1_556
Ga0 Mn1 2.711135 1_655
Ga0 Mn0 2.711135 1_656
Ga0 Mn1 2.711139 1_555
Ga0 Mn0 2.711139 1_666
Ga0 Mn1 2.711139 1_665
Ga0 Mn0 2.711139 1_556
Ga1 Ni0 2.383728 1_455
Ga1 Ni0 2.383728 1_565
Ga1 Ni0 2.383734 1_555
Ga1 Ni1 2.583097 1_554
Ga1 Ni1 2.583097 1_555
Ga1 Mn0 2.711135 1_565
Ga1 Mn1 2.711135 1_565
Ga1 Mn1 2.711139 1_555
Ga1 Mn0 2.711139 1_665
Ga1 Mn0 2.711139 1_555
Ga1 Mn1 2.711139 1_665
