# generated using pymatgen
data_Ho5(Ge5Os2)2
_symmetry_space_group_name_H-M   'P 1'
_cell_length_a   12.99479129
_cell_length_b   12.99479617
_cell_length_c   4.28701943
_cell_angle_alpha   90.00000000
_cell_angle_beta   90.00000000
_cell_angle_gamma   89.99999343
_symmetry_Int_Tables_number   1
_chemical_formula_structural   Ho5(Ge5Os2)2
_chemical_formula_sum   'Ho10 Ge20 Os8'
_cell_volume   723.92609597
_cell_formula_units_Z   2
loop_
 _symmetry_equiv_pos_site_id
 _symmetry_equiv_pos_as_xyz
  1  'x, y, z'
loop_
 _atom_site_type_symbol
 _atom_site_label
 _atom_site_symmetry_multiplicity
 _atom_site_fract_x
 _atom_site_fract_y
 _atom_site_fract_z
 _atom_site_occupancy
  Ho  Ho0  1  0.50000884  0.49999785  -0.00000000  1
  Ho  Ho1  1  -0.00000891  0.00000147  -0.00000000  1
  Ho  Ho2  1  0.67216625  0.17218755  0.50000000  1
  Ho  Ho3  1  0.32784213  0.82781113  0.50000000  1
  Ho  Ho4  1  0.17218282  0.32783640  0.50000000  1
  Ho  Ho5  1  0.82780727  0.67215938  0.50000000  1
  Ho  Ho6  1  0.88229451  0.38232314  0.50000000  1
  Ho  Ho7  1  0.11769167  0.61767778  0.50000000  1
  Ho  Ho8  1  0.38233062  0.11770214  0.50000000  1
  Ho  Ho9  1  0.61768563  0.88230447  0.50000000  1
  Ge  Ge0  1  0.56775336  0.06777149  0.00000000  1
  Ge  Ge1  1  0.43225614  0.93223025  0.00000000  1
  Ge  Ge2  1  0.06776559  0.43225075  -0.00000000  1
  Ge  Ge3  1  0.93222431  0.56774732  -0.00000000  1
  Ge  Ge4  1  0.66469818  0.69930553  -0.00000000  1
  Ge  Ge5  1  0.33530550  0.30069366  0.00000000  1
  Ge  Ge6  1  0.16472545  0.80065179  0.00000000  1
  Ge  Ge7  1  0.83527052  0.19934749  0.00000000  1
  Ge  Ge8  1  0.30069482  0.66469613  -0.00000000  1
  Ge  Ge9  1  0.69930595  0.33530415  -0.00000000  1
  Ge  Ge10  1  0.19934668  0.16472834  0.00000000  1
  Ge  Ge11  1  0.80065198  0.83527389  0.00000000  1
  Ge  Ge12  1  0.65782210  0.50780886  0.50000000  1
  Ge  Ge13  1  0.34218228  0.49219031  0.50000000  1
  Ge  Ge14  1  0.15785897  0.99218833  0.50000000  1
  Ge  Ge15  1  0.84213639  0.00781175  0.50000000  1
  Ge  Ge16  1  0.49219373  0.65781872  0.50000000  1
  Ge  Ge17  1  0.50781229  0.34217902  0.50000000  1
  Ge  Ge18  1  0.00780914  0.15786153  0.50000000  1
  Ge  Ge19  1  0.99218430  0.84213882  0.50000000  1
  Os  Os0  1  0.74679951  0.51853340  -0.00000000  1
  Os  Os1  1  0.25319984  0.48146311  -0.00000000  1
  Os  Os2  1  0.24682417  0.98147026  -0.00000000  1
  Os  Os3  1  0.75317623  0.01853489  -0.00000000  1
  Os  Os4  1  0.48147395  0.74679894  -0.00000000  1
  Os  Os5  1  0.51854433  0.25319990  -0.00000000  1
  Os  Os6  1  0.01852253  0.24682386  -0.00000000  1
  Os  Os7  1  0.98145892  0.75317521  -0.00000000  1
loop_
_geom_bond_atom_site_label_1
_geom_bond_atom_site_label_2
_geom_bond_distance
_geom_bond_site_symmetry_2
Ho0 Os0 3.216026 1_555
Ho0 Os5 3.216121 1_555
Ho0 Os4 3.216161 1_555
Ho0 Os1 3.216263 1_555
Ho1 Os3 3.216337 1_455
Ho1 Os6 3.216434 1_555
Ho1 Os7 3.216485 1_445
Ho1 Os2 3.216571 1_545
Ho2 Os5 3.112563 1_555
Ho2 Os5 3.112563 1_556
Ho2 Os3 3.112809 1_556
Ho2 Os3 3.112809 1_555
Ho3 Os4 3.112644 1_555
Ho3 Os4 3.112644 1_556
Ho3 Os2 3.112898 1_555
Ho3 Os2 3.112898 1_556
Ho4 Os1 3.112624 1_556
Ho4 Os1 3.112624 1_555
Ho4 Os6 3.112883 1_556
Ho4 Os6 3.112883 1_555
Ho5 Os0 3.112577 1_556
Ho5 Os0 3.112577 1_555
Ho5 Os7 3.112826 1_556
Ho5 Os7 3.112826 1_555
Ho6 Os0 3.290560 1_556
Ho6 Os0 3.290560 1_555
Ho6 Os6 3.290714 1_655
Ho6 Os6 3.290714 1_656
Ho7 Os1 3.290683 1_556
Ho7 Os1 3.290683 1_555
Ho7 Os7 3.290734 1_455
Ho7 Os7 3.290734 1_456
Ho8 Os5 3.290604 1_555
Ho8 Os5 3.290604 1_556
Ho8 Os2 3.290791 1_545
Ho8 Os2 3.290791 1_546
Ho9 Os4 3.290644 1_555
Ho9 Os4 3.290644 1_556
Ho9 Os3 3.290671 1_565
Ho9 Os3 3.290671 1_566
Ge0 Ge1 2.490493 1_545
Ge0 Os5 2.493011 1_555
Ge0 Os3 2.493032 1_555
Ge0 Ho2 2.876923 1_554
Ge0 Ho2 2.876923 1_555
Ge0 Ho8 3.289599 1_554
Ge0 Ho8 3.289599 1_555
Ge0 Ho9 3.290025 1_544
Ge0 Ho9 3.290025 1_545
Ge1 Os4 2.493077 1_555
Ge1 Os2 2.493158 1_555
Ge1 Ho3 2.876949 1_555
Ge1 Ho3 2.876949 1_554
Ge1 Ho9 3.289650 1_554
Ge1 Ho9 3.289650 1_555
Ge1 Ho8 3.290054 1_565
Ge1 Ho8 3.290054 1_564
Ge2 Ge3 2.490487 1_455
Ge2 Os1 2.493095 1_555
Ge2 Os6 2.493105 1_555
Ge2 Ho4 2.876939 1_555
Ge2 Ho4 2.876939 1_554
Ge2 Ho7 3.289628 1_555
Ge2 Ho7 3.289628 1_554
Ge2 Ho6 3.290051 1_455
Ge2 Ho6 3.290051 1_454
Ge3 Os0 2.492981 1_555
Ge3 Os7 2.493090 1_555
Ge3 Ho5 2.876924 1_554
Ge3 Ho5 2.876924 1_555
Ge3 Ho6 3.289611 1_555
Ge3 Ho6 3.289611 1_554
Ge3 Ho7 3.290023 1_655
Ge3 Ho7 3.290023 1_654
Ge4 Os4 2.459648 1_555
Ge4 Os0 2.580021 1_555
Ge4 Ho5 3.035069 1_554
Ge4 Ho5 3.035069 1_555
Ge4 Ho9 3.259279 1_555
Ge4 Ho9 3.259279 1_554
Ge4 Ho0 3.359755 1_555
Ge5 Os5 2.459833 1_555
Ge5 Os1 2.580013 1_555
Ge5 Ho4 3.035187 1_555
Ge5 Ho4 3.035187 1_554
Ge5 Ho8 3.259239 1_555
Ge5 Ho8 3.259239 1_554
Ge5 Ho0 3.359836 1_555
Ge6 Os7 2.460125 1_455
Ge6 Ge8 2.498639 1_555
Ge6 Os2 2.580556 1_555
Ge6 Ho3 3.035158 1_555
Ge6 Ho3 3.035158 1_554
Ge6 Ho7 3.259095 1_555
Ge6 Ho7 3.259095 1_554
Ge6 Ho1 3.360548 1_565
Ge7 Os6 2.459942 1_655
Ge7 Ge9 2.498604 1_555
Ge7 Os3 2.580462 1_555
Ge7 Ho2 3.035046 1_554
Ge7 Ho2 3.035046 1_555
Ge7 Ho6 3.259086 1_555
Ge7 Ho6 3.259086 1_554
Ge7 Ho1 3.360397 1_655
Ge8 Os1 2.459765 1_555
Ge8 Os4 2.580112 1_555
Ge8 Ho3 3.035125 1_555
Ge8 Ho3 3.035125 1_554
Ge8 Ho7 3.259333 1_555
Ge8 Ho7 3.259333 1_554
Ge8 Ho0 3.359892 1_555
Ge9 Os0 2.459713 1_555
Ge9 Os5 2.579912 1_555
Ge9 Ho2 3.035128 1_554
Ge9 Ho2 3.035128 1_555
Ge9 Ho6 3.259196 1_555
Ge9 Ho6 3.259196 1_554
Ge9 Ho0 3.359684 1_555
Ge10 Os2 2.460023 1_545
Ge10 Ge5 2.498631 1_555
Ge10 Os6 2.580605 1_555
Ge10 Ho4 3.035087 1_555
Ge10 Ho4 3.035087 1_554
Ge10 Ho8 3.259169 1_554
Ge10 Ho8 3.259169 1_555
Ge10 Ho1 3.360545 1_555
Ge11 Os3 2.460054 1_565
Ge11 Ge4 2.498613 1_555
Ge11 Os7 2.580418 1_555
Ge11 Ho5 3.035132 1_554
Ge11 Ho5 3.035132 1_555
Ge11 Ho9 3.259013 1_554
Ge11 Ho9 3.259013 1_555
Ge11 Ho1 3.360386 1_665
Ge12 Os0 2.439458 1_556
Ge12 Os0 2.439458 1_555
Ge12 Ge16 2.903855 1_555
Ge12 Ge17 2.903870 1_555
Ge12 Ho0 2.968251 1_556
Ge12 Ho0 2.968251 1_555
Ge12 Ho5 3.072549 1_555
Ge12 Ho6 3.341823 1_555
Ge13 Os1 2.439491 1_555
Ge13 Os1 2.439491 1_556
Ge13 Ge16 2.903870 1_555
Ge13 Ge17 2.903884 1_555
Ge13 Ho0 2.968369 1_556
Ge13 Ho0 2.968369 1_555
Ge13 Ho4 3.072713 1_555
Ge13 Ho7 3.342041 1_555
Ge14 Os2 2.439378 1_556
Ge14 Os2 2.439378 1_555
Ge14 Ge18 2.904636 1_565
Ge14 Ge19 2.904648 1_455
Ge14 Ho1 2.968742 1_566
Ge14 Ho1 2.968742 1_565
Ge14 Ho3 3.072771 1_555
Ge14 Ho8 3.341993 1_565
Ge15 Os3 2.439350 1_555
Ge15 Os3 2.439350 1_556
Ge15 Ge19 2.904617 1_545
Ge15 Ge18 2.904631 1_655
Ge15 Ho1 2.968623 1_655
Ge15 Ho1 2.968623 1_656
Ge15 Ho2 3.072637 1_555
Ge15 Ho9 3.341715 1_545
Ge16 Os4 2.439472 1_555
Ge16 Os4 2.439472 1_556
Ge16 Ho0 2.968322 1_556
Ge16 Ho0 2.968322 1_555
Ge16 Ho3 3.072626 1_555
Ge16 Ho9 3.342015 1_555
Ge17 Os5 2.439474 1_556
Ge17 Os5 2.439474 1_555
Ge17 Ho0 2.968298 1_555
Ge17 Ho0 2.968298 1_556
Ge17 Ho2 3.072639 1_555
Ge17 Ho8 3.341849 1_555
Ge18 Os6 2.439357 1_556
Ge18 Os6 2.439357 1_555
Ge18 Ho1 2.968675 1_555
Ge18 Ho1 2.968675 1_556
Ge18 Ho4 3.072662 1_555
Ge18 Ho6 3.341885 1_455
Ge19 Os7 2.439373 1_555
Ge19 Os7 2.439373 1_556
Ge19 Ho1 2.968693 1_665
Ge19 Ho1 2.968693 1_666
Ge19 Ho5 3.072735 1_555
Ge19 Ho7 3.341832 1_655
