# generated using pymatgen
data_Li9Mn2Co5O16
_symmetry_space_group_name_H-M   'P 1'
_cell_length_a   7.75265178
_cell_length_b   7.75265178
_cell_length_c   5.20988219
_cell_angle_alpha   75.22533383
_cell_angle_beta   75.22533383
_cell_angle_gamma   95.53974528
_symmetry_Int_Tables_number   1
_chemical_formula_structural   Li9Mn2Co5O16
_chemical_formula_sum   'Li9 Mn2 Co5 O16'
_cell_volume   288.36375757
_cell_formula_units_Z   1
loop_
 _symmetry_equiv_pos_site_id
 _symmetry_equiv_pos_as_xyz
  1  'x, y, z'
loop_
 _atom_site_type_symbol
 _atom_site_label
 _atom_site_symmetry_multiplicity
 _atom_site_fract_x
 _atom_site_fract_y
 _atom_site_fract_z
 _atom_site_occupancy
  Li  Li0  1  0.37869200  0.12505900  0.00370000  1
  Li  Li1  1  0.87494100  0.62130800  0.99630000  1
  Li  Li2  1  0.49378900  0.99400800  0.50563400  1
  Li  Li3  1  0.00599200  0.50621100  0.49436600  1
  Li  Li4  1  0.61930100  0.87309900  0.00415500  1
  Li  Li5  1  0.12690100  0.38069900  0.99584500  1
  Li  Li6  1  0.75025500  0.74795200  0.50231500  1
  Li  Li7  1  0.25204800  0.24974500  0.49768500  1
  Li  Li8  1  0.24978100  0.75021900  0.00000000  1
  Mn  Mn0  1  0.00225500  0.99774500  0.00000000  1
  Mn  Mn1  1  0.12464800  0.87535200  0.50000000  1
  Co  Co0  1  0.49543400  0.50456600  0.00000000  1
  Co  Co1  1  0.62566600  0.37433400  0.50000000  1
  Co  Co2  1  0.75187700  0.24812300  0.00000000  1
  Co  Co3  1  0.37446600  0.62553400  0.50000000  1
  Co  Co4  1  0.87490400  0.12509600  0.50000000  1
  O  O0  1  0.22881000  0.98866000  0.73738700  1
  O  O1  1  0.73236500  0.49068000  0.77830400  1
  O  O2  1  0.36318700  0.87133800  0.27789500  1
  O  O3  1  0.86125000  0.36040600  0.27139100  1
  O  O4  1  0.49755100  0.72605300  0.76194000  1
  O  O5  1  0.99142300  0.24305800  0.76799700  1
  O  O6  1  0.61814300  0.60827600  0.26629800  1
  O  O7  1  0.11259500  0.11780400  0.27470700  1
  O  O8  1  0.50932000  0.26763500  0.22169600  1
  O  O9  1  0.01134000  0.77119000  0.26261300  1
  O  O10  1  0.63959400  0.13875000  0.72860900  1
  O  O11  1  0.12866200  0.63681300  0.72210500  1
  O  O12  1  0.75694200  0.00857700  0.23200300  1
  O  O13  1  0.27394700  0.50244900  0.23806000  1
  O  O14  1  0.88219600  0.88740500  0.72529300  1
  O  O15  1  0.39172400  0.38185700  0.73370200  1
loop_
_geom_bond_atom_site_label_1
_geom_bond_atom_site_label_2
_geom_bond_distance
_geom_bond_site_symmetry_2
Li0 O2 2.087550 1_545
Li0 O15 2.100661 1_554
Li0 O8 2.132616 1_555
Li0 O10 2.135174 1_554
Li0 O7 2.168861 1_555
Li0 O0 2.393077 1_544
Li1 O11 2.087550 1_655
Li1 O6 2.100661 1_556
Li1 O1 2.132616 1_555
Li1 O3 2.135174 1_556
Li1 O14 2.168861 1_555
Li1 O9 2.393077 1_656
Li2 O2 2.083197 1_555
Li2 O0 2.091077 1_555
Li2 O12 2.144108 1_565
Li2 O4 2.171662 1_555
Li2 O8 2.227590 1_565
Li2 O10 2.230722 1_565
Li3 O11 2.083197 1_555
Li3 O9 2.091077 1_555
Li3 O5 2.144108 1_455
Li3 O13 2.171662 1_555
Li3 O1 2.227590 1_455
Li3 O3 2.230722 1_455
Li4 O2 2.125351 1_555
Li4 O6 2.154185 1_555
Li4 O14 2.154285 1_554
Li4 O10 2.154399 1_564
Li4 O12 2.171754 1_565
Li4 O4 2.217298 1_554
Li5 O11 2.125351 1_555
Li5 O15 2.154185 1_555
Li5 O7 2.154285 1_556
Li5 O3 2.154399 1_456
Li5 O5 2.171754 1_455
Li5 O13 2.217298 1_556
Li6 O4 2.040504 1_555
Li6 O9 2.052949 1_655
Li6 O1 2.108802 1_555
Li6 O12 2.135361 1_565
Li6 O14 2.144248 1_555
Li6 O6 2.200204 1_555
Li7 O13 2.040504 1_555
Li7 O0 2.052949 1_545
Li7 O8 2.108802 1_555
Li7 O5 2.135361 1_455
Li7 O7 2.144248 1_555
Li7 O15 2.200204 1_555
Li8 O0 2.048661 1_554
Li8 O9 2.048661 1_555
Li8 O13 2.058156 1_555
Li8 O4 2.058156 1_554
Li8 O2 2.221269 1_555
Li8 O11 2.221269 1_554
Mn0 O9 1.951720 1_555
Mn0 O0 1.951720 1_554
Mn0 O5 1.998782 1_464
Mn0 O12 1.998782 1_465
Mn0 O7 2.190100 1_565
Mn0 O14 2.190100 1_454
Mn1 O2 1.923001 1_555
Mn1 O11 1.923001 1_555
Mn1 O9 1.969738 1_555
Mn1 O0 1.969738 1_555
Mn1 O14 1.970807 1_455
Mn1 O7 1.970807 1_565
Co0 O4 1.839827 1_554
Co0 O13 1.839827 1_555
Co0 O8 1.933688 1_555
Co0 O1 1.933688 1_554
Co0 O15 2.137926 1_554
Co0 O6 2.137926 1_555
Co1 O15 1.924996 1_555
Co1 O6 1.924996 1_555
Co1 O3 1.939107 1_555
Co1 O10 1.939107 1_555
Co1 O1 2.175973 1_555
Co1 O8 2.175973 1_555
Co2 O12 1.950590 1_555
Co2 O5 1.950590 1_554
Co2 O1 1.982251 1_554
Co2 O8 1.982251 1_555
Co2 O3 2.138370 1_555
Co2 O10 2.138370 1_554
Co3 O2 1.984228 1_555
Co3 O11 1.984228 1_555
Co3 O6 2.006974 1_555
Co3 O15 2.006974 1_555
Co3 O4 2.107894 1_555
Co3 O13 2.107894 1_555
Co4 O14 1.930635 1_545
Co4 O7 1.930635 1_655
Co4 O3 1.936784 1_555
Co4 O10 1.936784 1_555
Co4 O5 2.176433 1_555
Co4 O12 2.176433 1_555
