# generated using pymatgen
data_Na3YbCl6
_symmetry_space_group_name_H-M   'P 1'
_cell_length_a   7.14351260
_cell_length_b   7.47804700
_cell_length_c   9.65014885
_cell_angle_alpha   90.00000000
_cell_angle_beta   90.23623365
_cell_angle_gamma   90.00000000
_symmetry_Int_Tables_number   1
_chemical_formula_structural   Na3YbCl6
_chemical_formula_sum   'Na6 Yb2 Cl12'
_cell_volume   515.50196635
_cell_formula_units_Z   2
loop_
 _symmetry_equiv_pos_site_id
 _symmetry_equiv_pos_as_xyz
  1  'x, y, z'
loop_
 _atom_site_type_symbol
 _atom_site_label
 _atom_site_symmetry_multiplicity
 _atom_site_fract_x
 _atom_site_fract_y
 _atom_site_fract_z
 _atom_site_occupancy
  Na  Na0  1  0.00000000  0.00000000  0.50000000  1
  Na  Na1  1  0.50000000  0.50000000  0.00000000  1
  Na  Na2  1  0.99363000  0.57345100  0.26077200  1
  Na  Na3  1  0.00637000  0.42654900  0.73922800  1
  Na  Na4  1  0.50637000  0.07345100  0.23922800  1
  Na  Na5  1  0.49363000  0.92654900  0.76077200  1
  Yb  Yb0  1  0.00000000  0.00000000  0.00000000  1
  Yb  Yb1  1  0.50000000  0.50000000  0.50000000  1
  Cl  Cl0  1  0.82426700  0.30421700  0.08982200  1
  Cl  Cl1  1  0.17573300  0.69578300  0.91017800  1
  Cl  Cl2  1  0.67573300  0.80421700  0.41017800  1
  Cl  Cl3  1  0.32426700  0.19578300  0.58982200  1
  Cl  Cl4  1  0.15539300  0.91192000  0.24481400  1
  Cl  Cl5  1  0.84460700  0.08808000  0.75518600  1
  Cl  Cl6  1  0.34460700  0.41192000  0.25518600  1
  Cl  Cl7  1  0.65539300  0.58808000  0.74481400  1
  Cl  Cl8  1  0.68735000  0.81646600  0.07336500  1
  Cl  Cl9  1  0.31265000  0.18353400  0.92663500  1
  Cl  Cl10  1  0.81265000  0.31646600  0.42663500  1
  Cl  Cl11  1  0.18735000  0.68353400  0.57336500  1
loop_
_geom_bond_atom_site_label_1
_geom_bond_atom_site_label_2
_geom_bond_distance
_geom_bond_site_symmetry_2
Cl0 Yb0 2.740731 1_655
Cl0 Na2 2.867458 1_555
Cl0 Na1 2.871241 1_555
Cl0 Na4 3.200112 1_555
Cl1 Yb0 2.740731 1_566
Cl1 Na3 2.867458 1_555
Cl1 Na1 2.871241 1_556
Cl1 Na5 3.200112 1_555
Cl2 Yb1 2.740731 1_555
Cl2 Na4 2.867458 1_565
Cl2 Na0 2.871241 1_665
Cl2 Na2 3.200112 1_555
Cl3 Yb1 2.740731 1_555
Cl3 Na5 2.867458 1_545
Cl3 Na0 2.871241 1_555
Cl3 Na3 3.200112 1_555
Cl4 Yb0 2.688084 1_565
Cl4 Na4 2.783743 1_565
Cl4 Na0 2.784405 1_565
Cl4 Na2 2.786915 1_455
Cl5 Yb0 2.688084 1_656
Cl5 Na5 2.783743 1_545
Cl5 Na0 2.784405 1_655
Cl5 Na3 2.786915 1_655
Cl6 Yb1 2.688084 1_555
Cl6 Na2 2.783743 1_455
Cl6 Na1 2.784405 1_555
Cl6 Na4 2.786915 1_555
Cl7 Yb1 2.688084 1_555
Cl7 Na3 2.783743 1_655
Cl7 Na1 2.784405 1_556
Cl7 Na5 2.786915 1_555
Cl8 Yb0 2.717744 1_665
Cl8 Na1 2.808046 1_555
Cl8 Na4 2.818425 1_565
Cl8 Na2 3.365640 1_555
Cl8 Na5 3.414374 1_554
Cl9 Yb0 2.717744 1_556
Cl9 Na1 2.808046 1_556
Cl9 Na5 2.818425 1_545
Cl9 Na3 3.365640 1_555
Cl9 Na4 3.414374 1_556
Cl10 Yb1 2.717744 1_555
Cl10 Na0 2.808046 1_655
Cl10 Na2 2.818425 1_555
Cl10 Na4 3.365640 1_555
Cl10 Na3 3.414374 1_655
Cl11 Yb1 2.717744 1_555
Cl11 Na0 2.808046 1_565
Cl11 Na3 2.818425 1_555
Cl11 Na5 3.365640 1_555
Cl11 Na2 3.414374 1_455
