# generated using pymatgen
data_Sr2AlCu2AgO7
_symmetry_space_group_name_H-M   'P 1'
_cell_length_a   5.25025022
_cell_length_b   5.24859514
_cell_length_c   12.51115146
_cell_angle_alpha   101.88159932
_cell_angle_beta   101.87137401
_cell_angle_gamma   90.08675660
_symmetry_Int_Tables_number   1
_chemical_formula_structural   Sr2AlCu2AgO7
_chemical_formula_sum   'Sr4 Al2 Cu4 Ag2 O14'
_cell_volume   329.81383780
_cell_formula_units_Z   2
loop_
 _symmetry_equiv_pos_site_id
 _symmetry_equiv_pos_as_xyz
  1  'x, y, z'
loop_
 _atom_site_type_symbol
 _atom_site_label
 _atom_site_symmetry_multiplicity
 _atom_site_fract_x
 _atom_site_fract_y
 _atom_site_fract_z
 _atom_site_occupancy
  Sr  Sr0  1  0.31871900  0.35001700  0.70023800  1
  Sr  Sr1  1  0.62085500  0.64946700  0.29902000  1
  Sr  Sr2  1  0.81974000  0.84805400  0.70028900  1
  Sr  Sr3  1  0.12217100  0.15337300  0.29881100  1
  Al  Al0  1  0.00016400  0.00804700  0.99873600  1
  Al  Al1  1  0.48487200  0.49257500  0.99927500  1
  Cu  Cu0  1  0.91614900  0.43833800  0.87960600  1
  Cu  Cu1  1  0.04478100  0.56620000  0.11965200  1
  Cu  Cu2  1  0.41982900  0.93284700  0.87843800  1
  Cu  Cu3  1  0.54968000  0.06268300  0.12054100  1
  Ag  Ag0  1  0.22287900  0.76248800  0.50006300  1
  Ag  Ag1  1  0.72290200  0.23877800  0.49944900  1
  O  O0  1  0.21119500  0.24026800  0.49970000  1
  O  O1  1  0.70817200  0.75836200  0.49970900  1
  O  O2  1  0.24337500  0.26065700  0.90130100  1
  O  O3  1  0.35671900  0.73486500  0.10029600  1
  O  O4  1  0.74724000  0.12774800  0.89956900  1
  O  O5  1  0.86171000  0.87800400  0.10085300  1
  O  O6  1  0.59686600  0.61415600  0.89030700  1
  O  O7  1  0.71771400  0.38366400  0.10962800  1
  O  O8  1  0.09993000  0.76470000  0.89009000  1
  O  O9  1  0.22044600  0.23834900  0.11029100  1
  O  O10  1  0.30776800  0.84257000  0.67614800  1
  O  O11  1  0.63519900  0.15821200  0.32351800  1
  O  O12  1  0.80775400  0.33135400  0.67513300  1
  O  O13  1  0.13409400  0.66954000  0.32426500  1
loop_
_geom_bond_atom_site_label_1
_geom_bond_atom_site_label_2
_geom_bond_distance
_geom_bond_site_symmetry_2
Al0 O8 1.825760 1_545
Al0 O4 1.828399 1_455
Al0 O5 1.834725 1_446
Al0 O9 1.839448 1_556
Al1 O6 1.816175 1_555
Al1 O2 1.825733 1_555
Al1 O3 1.832465 1_556
Al1 O7 1.833051 1_556
Cu0 O6 1.930197 1_555
Cu0 O8 1.932046 1_655
Cu0 O4 1.939240 1_555
Cu0 O2 1.952482 1_655
Cu0 O12 2.447869 1_555
Cu1 O5 1.930713 1_455
Cu1 O7 1.933717 1_455
Cu1 O3 1.942065 1_555
Cu1 O9 1.947201 1_555
Cu1 O13 2.449690 1_555
Cu2 O6 1.932371 1_555
Cu2 O4 1.941029 1_565
Cu2 O8 1.941709 1_555
Cu2 O2 1.952320 1_565
Cu2 O10 2.422548 1_555
Cu3 O5 1.938184 1_545
Cu3 O3 1.939230 1_545
Cu3 O7 1.942921 1_555
Cu3 O9 1.953654 1_555
Cu3 O11 2.430601 1_555
Ag0 O13 2.104390 1_555
Ag0 O10 2.107794 1_555
Ag0 O0 2.509433 1_565
Ag0 O1 2.548941 1_555
Ag0 O1 2.701480 1_455
Ag0 O0 2.740563 1_555
Ag1 O12 2.102972 1_555
Ag1 O11 2.105902 1_555
Ag1 O1 2.523270 1_545
Ag1 O0 2.563014 1_655
Ag1 O0 2.687259 1_555
Ag1 O1 2.727651 1_555
O0 Sr0 2.401363 1_555
O0 Sr3 2.405707 1_555
O1 Sr2 2.402118 1_555
O1 Sr1 2.403308 1_555
O2 Sr0 2.756631 1_555
O3 Sr1 2.710677 1_555
O4 Sr2 2.720494 1_545
O5 Sr3 2.686903 1_665
O6 Sr0 2.630012 1_555
O7 Sr1 2.637456 1_555
O8 Sr2 2.643258 1_455
O9 Sr3 2.638431 1_555
O10 Sr0 2.617177 1_565
O10 Sr2 2.640515 1_455
O10 Sr2 2.641866 1_555
O10 Sr0 2.663011 1_555
O11 Sr1 2.623443 1_545
O11 Sr3 2.637264 1_655
O11 Sr3 2.646748 1_555
O11 Sr1 2.657868 1_555
O12 Sr2 2.618907 1_545
O12 Sr0 2.635328 1_655
O12 Sr0 2.649620 1_555
O12 Sr2 2.664123 1_555
O13 Sr3 2.622861 1_565
O13 Sr1 2.638417 1_555
O13 Sr1 2.647108 1_455
O13 Sr3 2.660988 1_555
