# generated using pymatgen
data_LiMn2(BO3)2
_symmetry_space_group_name_H-M   'P 1'
_cell_length_a   5.78003127
_cell_length_b   5.32093277
_cell_length_c   9.07359617
_cell_angle_alpha   90.79984061
_cell_angle_beta   102.36693401
_cell_angle_gamma   113.64048328
_symmetry_Int_Tables_number   1
_chemical_formula_structural   LiMn2(BO3)2
_chemical_formula_sum   'Li2 Mn4 B4 O12'
_cell_volume   248.14995831
_cell_formula_units_Z   2
loop_
 _symmetry_equiv_pos_site_id
 _symmetry_equiv_pos_as_xyz
  1  'x, y, z'
loop_
 _atom_site_type_symbol
 _atom_site_label
 _atom_site_symmetry_multiplicity
 _atom_site_fract_x
 _atom_site_fract_y
 _atom_site_fract_z
 _atom_site_occupancy
  Li  Li0  1  0.67121900  0.94110700  0.53384500  1
  Li  Li1  1  0.33452500  0.56857800  0.97254300  1
  Mn  Mn0  1  0.73783900  0.46177800  0.70245300  1
  Mn  Mn1  1  0.75581600  0.96149100  0.19242900  1
  Mn  Mn2  1  0.24608000  0.02933500  0.79698800  1
  Mn  Mn3  1  0.25304000  0.52754000  0.31728700  1
  B  B0  1  0.75320300  0.45576100  0.37417500  1
  B  B1  1  0.25848900  0.04862500  0.12790200  1
  B  B2  1  0.73406100  0.94169600  0.85688400  1
  B  B3  1  0.25268100  0.54833500  0.64112800  1
  O  O0  1  0.87889100  0.41488200  0.26535700  1
  O  O1  1  0.73393100  0.30559000  0.49288700  1
  O  O2  1  0.61649900  0.12458100  0.82443500  1
  O  O3  1  0.64180200  0.65179000  0.35116300  1
  O  O4  1  0.86408600  0.90983300  0.74472700  1
  O  O5  1  0.27475700  0.19034100  0.00234600  1
  O  O6  1  0.70576300  0.78741500  0.97301700  1
  O  O7  1  0.16996500  0.13865400  0.24168700  1
  O  O8  1  0.32341100  0.33156200  0.65924000  1
  O  O9  1  0.33256700  0.82915900  0.14847800  1
  O  O10  1  0.29898400  0.70480000  0.52196300  1
  O  O11  1  0.16239300  0.62714500  0.75906400  1
loop_
_geom_bond_atom_site_label_1
_geom_bond_atom_site_label_2
_geom_bond_distance
_geom_bond_site_symmetry_2
Li0 O1 1.882756 1_565
Li0 O10 1.987193 1_555
Li0 O4 2.043457 1_555
Li0 O3 2.178179 1_555
Li1 O5 1.934046 1_556
Li1 O6 1.988033 1_555
Li1 O11 2.068589 1_555
Li1 O9 2.104640 1_556
Mn0 O1 2.056544 1_555
Mn0 O2 2.077221 1_555
Mn0 O8 2.151932 1_555
Mn0 O11 2.185326 1_655
Mn0 O4 2.196079 1_555
Mn1 O6 2.095718 1_554
Mn1 O7 2.130457 1_665
Mn1 O3 2.196855 1_555
Mn1 O9 2.198282 1_555
Mn1 O0 2.267454 1_565
Mn2 O2 1.949552 1_555
Mn2 O4 1.980234 1_445
Mn2 O5 1.985619 1_556
Mn2 O11 2.002512 1_545
Mn2 O8 2.016678 1_555
Mn3 O0 1.942712 1_455
Mn3 O10 1.986981 1_555
Mn3 O7 2.001319 1_555
Mn3 O3 2.021849 1_555
Mn3 O9 2.216229 1_555
B0 O1 1.347283 1_555
B0 O0 1.406405 1_555
B0 O3 1.425940 1_555
B1 O5 1.374166 1_555
B1 O9 1.398108 1_545
B1 O7 1.402236 1_555
B2 O6 1.342136 1_555
B2 O2 1.395708 1_565
B2 O4 1.433247 1_555
B3 O8 1.370856 1_555
B3 O10 1.379946 1_555
B3 O11 1.412624 1_555
