# generated using pymatgen
data_La11(Ni2Ge3)2
_symmetry_space_group_name_H-M   'P 1'
_cell_length_a   9.57956962
_cell_length_b   9.57956962
_cell_length_c   14.28341175
_cell_angle_alpha   73.97948108
_cell_angle_beta   73.97948108
_cell_angle_gamma   26.65650267
_symmetry_Int_Tables_number   1
_chemical_formula_structural   La11(Ni2Ge3)2
_chemical_formula_sum   'La11 Ni4 Ge6'
_cell_volume   563.91341232
_cell_formula_units_Z   1
loop_
 _symmetry_equiv_pos_site_id
 _symmetry_equiv_pos_as_xyz
  1  'x, y, z'
loop_
 _atom_site_type_symbol
 _atom_site_label
 _atom_site_symmetry_multiplicity
 _atom_site_fract_x
 _atom_site_fract_y
 _atom_site_fract_z
 _atom_site_occupancy
  La  La0  1  0.09711300  0.09711300  0.21525300  1
  La  La1  1  0.14619500  0.14619500  0.64849400  1
  La  La2  1  0.78651700  0.78651700  0.09944800  1
  La  La3  1  0.45379200  0.45379200  0.12512500  1
  La  La4  1  0.66341400  0.66341400  0.40685700  1
  La  La5  1  0.54620800  0.54620800  0.87487500  1
  La  La6  1  0.00000000  0.00000000  0.50000000  1
  La  La7  1  0.85380500  0.85380500  0.35150600  1
  La  La8  1  0.21348300  0.21348300  0.90055200  1
  La  La9  1  0.33658600  0.33658600  0.59314300  1
  La  La10  1  0.90826700  0.90826700  0.78483800  1
  Ni  Ni0  1  0.24883400  0.24883400  0.44997800  1
  Ni  Ni1  1  0.06315000  0.06315000  0.02387200  1
  Ni  Ni2  1  0.94264600  0.94264600  0.97584100  1
  Ni  Ni3  1  0.75116600  0.75116600  0.55002200  1
  Ge  Ge0  1  0.37432400  0.37432400  0.95172900  1
  Ge  Ge1  1  0.74124200  0.74124200  0.73349200  1
  Ge  Ge2  1  0.25875800  0.25875800  0.26650800  1
  Ge  Ge3  1  0.62567600  0.62567600  0.04827100  1
  Ge  Ge4  1  0.48824600  0.48824600  0.34980900  1
  Ge  Ge5  1  0.51175400  0.51175400  0.65019100  1
loop_
_geom_bond_atom_site_label_1
_geom_bond_atom_site_label_2
_geom_bond_distance
_geom_bond_site_symmetry_2
La0 Ni1 2.975758 1_555
La1 Ni0 2.936630 1_555
La1 Ni3 3.020537 1_545
La1 Ni3 3.020537 1_455
La2 Ni2 2.945232 1_554
La3 Ni1 3.074503 1_655
La3 Ni1 3.074503 1_565
La3 Ni2 3.117381 1_544
La3 Ni2 3.117381 1_454
La4 Ni0 2.889407 1_655
La4 Ni0 2.889407 1_565
La4 Ni3 2.958983 1_555
La5 Ni2 3.017439 1_455
La5 Ni2 3.017439 1_545
La5 Ni1 3.144383 1_566
La5 Ni1 3.144383 1_656
La7 Ni3 2.936630 1_555
La7 Ni0 3.020537 1_565
La7 Ni0 3.020537 1_655
La8 Ni1 2.856099 1_556
La9 Ni3 2.889407 1_545
La9 Ni3 2.889407 1_455
La9 Ni0 2.958983 1_555
La10 Ni2 2.974154 1_555
Ni0 Ni3 2.637423 1_545
Ni0 Ni3 2.637423 1_455
Ni1 Ni2 2.528238 1_444
Ge0 Ni2 2.620450 1_545
Ge0 Ni2 2.620450 1_455
Ge0 La5 3.078664 1_555
Ge0 La2 3.170056 1_456
Ge0 La2 3.170056 1_546
Ge0 La10 3.178690 1_455
Ge0 La10 3.178690 1_545
Ge0 La3 3.226496 1_556
Ge0 La8 3.281634 1_555
Ge1 Ni3 2.574225 1_555
Ge1 La9 3.167628 1_565
Ge1 La9 3.167628 1_655
Ge1 La8 3.184045 1_655
Ge1 La8 3.184045 1_565
Ge1 La1 3.272772 1_655
Ge1 La1 3.272772 1_565
Ge1 La10 3.395500 1_555
Ge1 La5 3.624054 1_555
Ge2 Ni0 2.574225 1_555
Ge2 La4 3.167628 1_455
Ge2 La4 3.167628 1_545
Ge2 La2 3.184045 1_545
Ge2 La2 3.184045 1_455
Ge2 La7 3.272772 1_455
Ge2 La7 3.272772 1_545
Ge2 La0 3.296814 1_555
Ge2 La3 3.624054 1_555
Ge3 Ni1 2.566634 1_655
Ge3 Ni1 2.566634 1_565
Ge3 La3 3.078664 1_555
Ge3 La8 3.170056 1_654
Ge3 La8 3.170056 1_564
Ge3 La0 3.182549 1_565
Ge3 La0 3.182549 1_655
Ge3 La5 3.226496 1_554
Ge3 La2 3.281634 1_555
Ge4 La6 3.129480 1_565
Ge4 La6 3.129480 1_655
Ge4 La0 3.236875 1_565
Ge4 La0 3.236875 1_655
Ge4 La7 3.335426 1_545
Ge4 La7 3.335426 1_455
Ge4 La3 3.446913 1_555
Ge4 La4 3.583018 1_555
Ge4 La9 3.807888 1_555
Ge5 La6 3.129480 1_565
Ge5 La6 3.129480 1_655
Ge5 La10 3.192680 1_455
Ge5 La10 3.192680 1_545
Ge5 La1 3.335426 1_655
Ge5 La1 3.335426 1_565
Ge5 La5 3.446913 1_555
Ge5 La9 3.583018 1_555
Ge5 La4 3.807888 1_555
