# generated using pymatgen
data_Na4Eu2SiAs4
_symmetry_space_group_name_H-M   'P 1'
_cell_length_a   9.44214718
_cell_length_b   9.44214718
_cell_length_c   7.30731632
_cell_angle_alpha   89.32189564
_cell_angle_beta   89.32189564
_cell_angle_gamma   119.80041057
_symmetry_Int_Tables_number   1
_chemical_formula_structural   Na4Eu2SiAs4
_chemical_formula_sum   'Na8 Eu4 Si2 As8'
_cell_volume   565.16993539
_cell_formula_units_Z   2
loop_
 _symmetry_equiv_pos_site_id
 _symmetry_equiv_pos_as_xyz
  1  'x, y, z'
loop_
 _atom_site_type_symbol
 _atom_site_label
 _atom_site_symmetry_multiplicity
 _atom_site_fract_x
 _atom_site_fract_y
 _atom_site_fract_z
 _atom_site_occupancy
  Na  Na0  1  0.47484975  0.94486739  0.38363124  1
  Na  Na1  1  0.94486739  0.47484975  0.88363124  1
  Na  Na2  1  0.86514779  0.72320252  0.17409069  1
  Na  Na3  1  0.28565307  0.13326278  0.22001948  1
  Na  Na4  1  0.84902889  0.13977105  0.20316186  1
  Na  Na5  1  0.13326278  0.28565307  0.72001948  1
  Na  Na6  1  0.72320252  0.86514779  0.67409069  1
  Na  Na7  1  0.13977105  0.84902889  0.70316186  1
  Eu  Eu0  1  0.04797649  0.52708677  0.38136167  1
  Eu  Eu1  1  0.48174799  0.52891093  0.37818405  1
  Eu  Eu2  1  0.52708677  0.04797649  0.88136167  1
  Eu  Eu3  1  0.52891093  0.48174799  0.87818405  1
  Si  Si0  1  0.66257350  0.32909140  0.49758872  1
  Si  Si1  1  0.32909140  0.66257350  0.99758872  1
  As  As0  1  0.66115306  0.33607417  0.16653108  1
  As  As1  1  0.33607417  0.66115306  0.66653108  1
  As  As2  1  0.19624578  0.38558854  0.11008142  1
  As  As3  1  0.61384097  0.80707078  0.08713302  1
  As  As4  1  0.19888592  0.80803246  0.09719377  1
  As  As5  1  0.80707078  0.61384097  0.58713302  1
  As  As6  1  0.38558854  0.19624578  0.61008142  1
  As  As7  1  0.80803246  0.19888592  0.59719377  1
loop_
_geom_bond_atom_site_label_1
_geom_bond_atom_site_label_2
_geom_bond_distance
_geom_bond_site_symmetry_2
Na0 Si0 3.272869 1_565
Na1 Si1 3.272869 1_655
As0 Si0 2.419639 1_555
As0 Na1 3.079382 1_554
As0 Eu3 3.097010 1_554
As0 Na3 3.097023 1_555
As0 Na4 3.149888 1_555
As0 Na2 3.175470 1_555
As0 Eu2 3.180955 1_554
As1 Si1 2.419639 1_555
As1 Na0 3.079382 1_555
As1 Eu1 3.097010 1_555
As1 Na5 3.097023 1_555
As1 Na7 3.149888 1_555
As1 Na6 3.175470 1_555
As1 Eu0 3.180955 1_555
As2 Si1 2.398553 1_554
As2 Na5 2.985685 1_554
As2 Na4 2.990751 1_455
As2 Na3 3.000705 1_555
As2 Eu1 3.081924 1_555
As2 Eu0 3.087190 1_555
As2 Eu3 3.250398 1_554
As2 Na1 3.336257 1_454
As3 Si1 2.436205 1_554
As3 Na2 2.924536 1_555
As3 Na4 2.948287 1_565
As3 Eu1 3.086423 1_555
As3 Na6 3.130644 1_554
As3 Na0 3.131453 1_555
As3 Eu2 3.147421 1_564
As3 Eu3 3.178296 1_554
As4 Si1 2.368207 1_554
As4 Na2 2.885487 1_455
As4 Na3 2.913586 1_565
As4 Na7 2.996377 1_554
As4 Eu0 3.069484 1_555
As4 Na0 3.112362 1_555
As4 Eu2 3.169365 1_564
As4 Na1 3.284813 1_454
As5 Si0 2.436205 1_555
As5 Na6 2.924536 1_555
As5 Na7 2.948287 1_655
As5 Eu3 3.086423 1_555
As5 Na2 3.130644 1_555
As5 Na1 3.131453 1_555
As5 Eu0 3.147421 1_655
As5 Eu1 3.178296 1_555
As6 Si0 2.398553 1_555
As6 Na3 2.985685 1_555
As6 Na7 2.990751 1_545
As6 Na5 3.000705 1_555
As6 Eu3 3.081924 1_555
As6 Eu2 3.087190 1_555
As6 Eu1 3.250398 1_555
As6 Na0 3.336257 1_545
As7 Si0 2.368207 1_555
As7 Na6 2.885487 1_545
As7 Na5 2.913586 1_655
As7 Na4 2.996377 1_555
As7 Eu2 3.069484 1_555
As7 Na1 3.112362 1_555
As7 Eu0 3.169365 1_655
As7 Na0 3.284813 1_545
