# generated using pymatgen
data_Nb2NiS4
_symmetry_space_group_name_H-M   'P 1'
_cell_length_a   3.35959500
_cell_length_b   10.02507100
_cell_length_c   13.33084800
_cell_angle_alpha   90.00000000
_cell_angle_beta   90.00000000
_cell_angle_gamma   90.00000000
_symmetry_Int_Tables_number   1
_chemical_formula_structural   Nb2NiS4
_chemical_formula_sum   'Nb8 Ni4 S16'
_cell_volume   448.98533895
_cell_formula_units_Z   4
loop_
 _symmetry_equiv_pos_site_id
 _symmetry_equiv_pos_as_xyz
  1  'x, y, z'
loop_
 _atom_site_type_symbol
 _atom_site_label
 _atom_site_symmetry_multiplicity
 _atom_site_fract_x
 _atom_site_fract_y
 _atom_site_fract_z
 _atom_site_occupancy
  Nb  Nb0  1  0.75000000  0.85859600  0.59675500  1
  Nb  Nb1  1  0.25000000  0.14140400  0.40324500  1
  Nb  Nb2  1  0.25000000  0.64140400  0.09675500  1
  Nb  Nb3  1  0.75000000  0.35859600  0.90324500  1
  Nb  Nb4  1  0.75000000  0.51380200  0.40822200  1
  Nb  Nb5  1  0.25000000  0.48619800  0.59177800  1
  Nb  Nb6  1  0.25000000  0.98619800  0.90822200  1
  Nb  Nb7  1  0.75000000  0.01380200  0.09177800  1
  Ni  Ni0  1  0.75000000  0.76516300  0.81474100  1
  Ni  Ni1  1  0.25000000  0.23483700  0.18525900  1
  Ni  Ni2  1  0.25000000  0.73483700  0.31474100  1
  Ni  Ni3  1  0.75000000  0.26516300  0.68525900  1
  S  S0  1  0.75000000  0.62612500  0.68041600  1
  S  S1  1  0.25000000  0.37387500  0.31958400  1
  S  S2  1  0.25000000  0.87387500  0.18041600  1
  S  S3  1  0.75000000  0.12612500  0.81958400  1
  S  S4  1  0.75000000  0.62800000  0.24253500  1
  S  S5  1  0.25000000  0.37200000  0.75746500  1
  S  S6  1  0.25000000  0.87200000  0.74253500  1
  S  S7  1  0.75000000  0.12800000  0.25746500  1
  S  S8  1  0.75000000  0.95374900  0.41629000  1
  S  S9  1  0.25000000  0.04625100  0.58371000  1
  S  S10  1  0.25000000  0.54625100  0.91629000  1
  S  S11  1  0.75000000  0.45374900  0.08371000  1
  S  S12  1  0.75000000  0.80255200  0.98369200  1
  S  S13  1  0.25000000  0.19744800  0.01630800  1
  S  S14  1  0.25000000  0.69744800  0.48369200  1
  S  S15  1  0.75000000  0.30255200  0.51630800  1
loop_
_geom_bond_atom_site_label_1
_geom_bond_atom_site_label_2
_geom_bond_distance
_geom_bond_site_symmetry_2
Nb0 S9 2.528059 1_565
Nb0 S9 2.528059 1_665
Nb0 S6 2.572250 1_655
Nb0 S6 2.572250 1_555
Nb0 S0 2.583649 1_555
Nb0 S8 2.587971 1_555
Nb0 S14 2.775492 1_655
Nb0 S14 2.775492 1_555
Nb1 S8 2.528059 1_545
Nb1 S8 2.528059 1_445
Nb1 S7 2.572250 1_555
Nb1 S7 2.572250 1_455
Nb1 S1 2.583649 1_555
Nb1 S9 2.587971 1_555
Nb1 S15 2.775492 1_455
Nb1 S15 2.775492 1_555
Nb2 S11 2.528059 1_455
Nb2 S11 2.528059 1_555
Nb2 S4 2.572250 1_555
Nb2 S4 2.572250 1_455
Nb2 S2 2.583649 1_555
Nb2 S10 2.587971 1_554
Nb2 S12 2.775492 1_454
Nb2 S12 2.775492 1_554
Nb3 S10 2.528059 1_555
Nb3 S10 2.528059 1_655
Nb3 S5 2.572250 1_655
Nb3 S5 2.572250 1_555
Nb3 S3 2.583649 1_555
Nb3 S11 2.587971 1_556
Nb3 S13 2.775492 1_656
Nb3 S13 2.775492 1_556
Nb4 S1 2.487113 1_555
Nb4 S1 2.487113 1_655
Nb4 S4 2.487817 1_555
Nb4 S15 2.561482 1_555
Nb4 S14 2.687644 1_555
Nb4 S14 2.687644 1_655
Nb5 S0 2.487113 1_555
Nb5 S0 2.487113 1_455
Nb5 S5 2.487817 1_555
Nb5 S14 2.561482 1_555
Nb5 S15 2.687644 1_455
Nb5 S15 2.687644 1_555
Nb6 S3 2.487113 1_565
Nb6 S3 2.487113 1_465
Nb6 S6 2.487817 1_555
Nb6 S13 2.561482 1_566
Nb6 S12 2.687644 1_455
Nb6 S12 2.687644 1_555
Nb7 S2 2.487113 1_545
Nb7 S2 2.487113 1_645
Nb7 S7 2.487817 1_555
Nb7 S12 2.561482 1_544
Nb7 S13 2.687644 1_555
Nb7 S13 2.687644 1_655
Ni0 S6 2.212555 1_555
Ni0 S6 2.212555 1_655
Ni0 S0 2.269217 1_555
Ni0 S12 2.283237 1_555
Ni1 S7 2.212555 1_455
Ni1 S7 2.212555 1_555
Ni1 S1 2.269217 1_555
Ni1 S13 2.283237 1_555
Ni2 S4 2.212555 1_555
Ni2 S4 2.212555 1_455
Ni2 S2 2.269217 1_555
Ni2 S14 2.283237 1_555
Ni3 S5 2.212555 1_555
Ni3 S5 2.212555 1_655
Ni3 S3 2.269217 1_555
Ni3 S15 2.283237 1_555
