# generated using pymatgen
data_Ta5Al3
_symmetry_space_group_name_H-M   'P 1'
_cell_length_a   7.81896600
_cell_length_b   7.81896584
_cell_length_c   5.23404700
_cell_angle_alpha   90.00000000
_cell_angle_beta   90.00000000
_cell_angle_gamma   120.00000069
_symmetry_Int_Tables_number   1
_chemical_formula_structural   Ta5Al3
_chemical_formula_sum   'Ta10 Al6'
_cell_volume   277.11937262
_cell_formula_units_Z   2
loop_
 _symmetry_equiv_pos_site_id
 _symmetry_equiv_pos_as_xyz
  1  'x, y, z'
loop_
 _atom_site_type_symbol
 _atom_site_label
 _atom_site_symmetry_multiplicity
 _atom_site_fract_x
 _atom_site_fract_y
 _atom_site_fract_z
 _atom_site_occupancy
  Ta  Ta0  1  0.66666700  0.33333300  0.50000000  1
  Ta  Ta1  1  0.33333300  0.66666700  0.50000000  1
  Ta  Ta2  1  0.33333300  0.66666700  0.00000000  1
  Ta  Ta3  1  0.66666700  0.33333300  0.00000000  1
  Ta  Ta4  1  0.77006500  0.77006500  0.25000000  1
  Ta  Ta5  1  0.22993500  0.00000000  0.25000000  1
  Ta  Ta6  1  0.00000000  0.22993500  0.25000000  1
  Ta  Ta7  1  0.22993500  0.22993500  0.75000000  1
  Ta  Ta8  1  0.77006500  0.00000000  0.75000000  1
  Ta  Ta9  1  0.00000000  0.77006500  0.75000000  1
  Al  Al0  1  0.40460600  0.40460600  0.25000000  1
  Al  Al1  1  0.59539400  0.00000000  0.25000000  1
  Al  Al2  1  0.00000000  0.59539400  0.25000000  1
  Al  Al3  1  0.59539400  0.59539400  0.75000000  1
  Al  Al4  1  0.40460600  0.00000000  0.75000000  1
  Al  Al5  1  0.00000000  0.40460600  0.75000000  1
loop_
_geom_bond_atom_site_label_1
_geom_bond_atom_site_label_2
_geom_bond_distance
_geom_bond_site_symmetry_2
Ta0 Ta3 2.617024 1_555
Ta0 Ta3 2.617024 1_556
Ta1 Ta2 2.617024 1_555
Ta1 Ta2 2.617024 1_556
Ta4 Ta6 3.113974 1_665
Ta4 Ta5 3.113974 1_665
Ta4 Ta8 3.175073 1_565
Ta4 Ta8 3.175073 1_564
Ta4 Ta9 3.175073 1_655
Ta4 Ta9 3.175073 1_654
Ta5 Ta6 3.113974 1_555
Ta5 Ta9 3.175073 1_544
Ta5 Ta7 3.175073 1_555
Ta5 Ta9 3.175073 1_545
Ta5 Ta7 3.175073 1_554
Ta6 Ta8 3.175073 1_455
Ta6 Ta8 3.175073 1_454
Ta6 Ta7 3.175073 1_554
Ta6 Ta7 3.175073 1_555
Ta7 Ta9 3.113974 1_545
Ta7 Ta8 3.113974 1_455
Ta8 Ta9 3.113974 1_645
Al0 Ta1 2.713531 1_555
Al0 Ta2 2.713531 1_555
Al0 Ta3 2.713531 1_555
Al0 Ta0 2.713531 1_555
Al0 Ta5 2.748264 1_555
Al0 Ta6 2.748264 1_555
Al0 Ta4 2.857511 1_555
Al0 Ta7 2.951961 1_555
Al0 Ta7 2.951961 1_554
Al0 Al3 3.012337 1_554
Al0 Al3 3.012337 1_555
Al1 Ta3 2.713524 1_555
Al1 Ta0 2.713524 1_555
Al1 Ta2 2.713526 1_545
Al1 Ta1 2.713526 1_545
Al1 Ta6 2.748264 1_655
Al1 Ta4 2.748264 1_545
Al1 Ta5 2.857511 1_555
Al1 Ta8 2.951961 1_555
Al1 Ta8 2.951961 1_554
Al1 Al4 3.012337 1_555
Al1 Al4 3.012337 1_554
Al2 Ta1 2.713524 1_555
Al2 Ta2 2.713524 1_555
Al2 Ta3 2.713526 1_455
Al2 Ta0 2.713526 1_455
Al2 Ta5 2.748264 1_565
Al2 Ta4 2.748264 1_455
Al2 Ta6 2.857511 1_555
Al2 Ta9 2.951961 1_555
Al2 Ta9 2.951961 1_554
Al2 Al5 3.012337 1_555
Al2 Al5 3.012337 1_554
Al3 Ta0 2.713531 1_555
Al3 Ta3 2.713531 1_556
Al3 Ta2 2.713531 1_556
Al3 Ta1 2.713531 1_555
Al3 Ta8 2.748264 1_565
Al3 Ta9 2.748264 1_655
Al3 Ta7 2.857511 1_555
Al3 Ta4 2.951961 1_555
Al3 Ta4 2.951961 1_556
Al4 Ta1 2.713524 1_545
Al4 Ta2 2.713524 1_546
Al4 Ta0 2.713526 1_555
Al4 Ta3 2.713526 1_556
Al4 Ta7 2.748264 1_555
Al4 Ta9 2.748264 1_545
Al4 Ta8 2.857511 1_555
Al4 Ta5 2.951961 1_555
Al4 Ta5 2.951961 1_556
Al5 Ta0 2.713524 1_455
Al5 Ta3 2.713524 1_456
Al5 Ta1 2.713526 1_555
Al5 Ta2 2.713526 1_556
Al5 Ta8 2.748264 1_455
Al5 Ta7 2.748264 1_555
Al5 Ta9 2.857511 1_555
Al5 Ta6 2.951961 1_555
Al5 Ta6 2.951961 1_556
