# generated using pymatgen
data_Ca3CoO6
_symmetry_space_group_name_H-M   'P 1'
_cell_length_a   6.40518066
_cell_length_b   12.70806301
_cell_length_c   6.39967521
_cell_angle_alpha   87.61468310
_cell_angle_beta   87.66056566
_cell_angle_gamma   87.65858347
_symmetry_Int_Tables_number   1
_chemical_formula_structural   Ca3CoO6
_chemical_formula_sum   'Ca12 Co4 O24'
_cell_volume   519.63187712
_cell_formula_units_Z   4
loop_
 _symmetry_equiv_pos_site_id
 _symmetry_equiv_pos_as_xyz
  1  'x, y, z'
loop_
 _atom_site_type_symbol
 _atom_site_label
 _atom_site_symmetry_multiplicity
 _atom_site_fract_x
 _atom_site_fract_y
 _atom_site_fract_z
 _atom_site_occupancy
  Ca  Ca0  1  0.74747600  0.20016900  0.10651100  1
  Ca  Ca1  1  0.75018700  0.70090200  0.10120800  1
  Ca  Ca2  1  0.39899800  0.04876300  0.75058100  1
  Ca  Ca3  1  0.39338000  0.54989700  0.75126900  1
  Ca  Ca4  1  0.89879400  0.12191400  0.60654700  1
  Ca  Ca5  1  0.89349900  0.62774600  0.60061300  1
  Ca  Ca6  1  0.25247400  0.29994700  0.90142600  1
  Ca  Ca7  1  0.25125100  0.80252400  0.89900300  1
  Ca  Ca8  1  0.59888500  0.45065400  0.24790700  1
  Ca  Ca9  1  0.59963200  0.94746400  0.25025200  1
  Ca  Ca10  1  0.10994500  0.37496100  0.39050800  1
  Ca  Ca11  1  0.09878000  0.87532200  0.40194300  1
  Co  Co0  1  0.00183800  0.49981100  0.99465100  1
  Co  Co1  1  0.50096600  0.74724300  0.49626700  1
  Co  Co2  1  0.00268700  0.00255900  0.99924900  1
  Co  Co3  1  0.50579200  0.25051000  0.50064300  1
  O  O0  1  0.57904900  0.21366600  0.78648400  1
  O  O1  1  0.57985300  0.71283300  0.78542900  1
  O  O2  1  0.06102000  0.46731300  0.72719300  1
  O  O3  1  0.07993200  0.96498400  0.72212700  1
  O  O4  1  0.42714500  0.38728300  0.57465900  1
  O  O5  1  0.43867100  0.87847000  0.58173100  1
  O  O6  1  0.24073000  0.20895200  0.56559800  1
  O  O7  1  0.21787000  0.70847400  0.56867000  1
  O  O8  1  0.06375900  0.13783400  0.93193500  1
  O  O9  1  0.07688000  0.64340700  0.92629600  1
  O  O10  1  0.57312200  0.10682300  0.42359600  1
  O  O11  1  0.56874100  0.61223900  0.43500100  1
  O  O12  1  0.77353600  0.28262000  0.43901800  1
  O  O13  1  0.77828000  0.78503600  0.42010700  1
  O  O14  1  0.71643900  0.03579700  0.92086100  1
  O  O15  1  0.71141200  0.53767300  0.91969100  1
  O  O16  1  0.27493900  0.46221500  0.06873000  1
  O  O17  1  0.27211300  0.96578100  0.07721700  1
  O  O18  1  0.92914000  0.04089400  0.28220300  1
  O  O19  1  0.93458500  0.54040700  0.25936600  1
  O  O20  1  0.92441100  0.36357500  0.07230400  1
  O  O21  1  0.91783700  0.87121400  0.05995700  1
  O  O22  1  0.43174900  0.28761300  0.22656200  1
  O  O23  1  0.42420100  0.78451000  0.22669000  1
loop_
_geom_bond_atom_site_label_1
_geom_bond_atom_site_label_2
_geom_bond_distance
_geom_bond_site_symmetry_2
Ca0 O0 2.350286 1_554
Ca0 O22 2.382306 1_555
Ca0 O8 2.395318 1_654
Ca0 O20 2.403882 1_555
Ca0 O12 2.425433 1_555
Ca0 O14 2.464587 1_554
Ca0 O18 2.537711 1_555
Ca0 O10 2.548536 1_555
Ca1 O1 2.332008 1_554
Ca1 O13 2.359645 1_555
Ca1 O23 2.426187 1_555
Ca1 O9 2.432584 1_654
Ca1 O15 2.445437 1_554
Ca1 O21 2.454862 1_555
Ca1 O19 2.511630 1_555
Ca1 O11 2.624386 1_555
Ca2 O14 2.342524 1_555
Ca2 O3 2.359574 1_545
Ca2 O17 2.426940 1_546
Ca2 O10 2.432165 1_555
Ca2 O0 2.456321 1_555
Ca2 O5 2.458220 1_545
Ca2 O6 2.510361 1_555
Ca2 O8 2.635585 1_555
Ca3 O15 2.339855 1_555
Ca3 O16 2.387366 1_556
Ca3 O4 2.394292 1_555
Ca3 O11 2.395733 1_555
Ca3 O2 2.424838 1_555
Ca3 O1 2.454144 1_555
Ca3 O7 2.533083 1_555
Ca3 O9 2.550504 1_555
Ca4 O18 2.352656 1_555
Ca4 O3 2.372465 1_645
Ca4 O12 2.391249 1_555
Ca4 O8 2.392877 1_655
Ca4 O10 2.451474 1_555
Ca4 O6 2.493163 1_655
Ca4 O14 2.517437 1_555
Ca4 O0 2.569842 1_555
Ca5 O7 2.352218 1_655
Ca5 O13 2.373047 1_555
Ca5 O2 2.391435 1_655
Ca5 O11 2.391645 1_555
Ca5 O9 2.452942 1_655
Ca5 O19 2.490265 1_555
Ca5 O1 2.517740 1_555
Ca5 O15 2.561313 1_555
Ca6 O16 2.374867 1_556
Ca6 O22 2.413695 1_556
Ca6 O0 2.423418 1_555
Ca6 O8 2.427780 1_555
Ca6 O20 2.452009 1_456
Ca6 O6 2.487779 1_555
Ca6 O4 2.563964 1_555
Ca6 O2 2.640438 1_555
Ca7 O9 2.346464 1_555
Ca7 O23 2.409634 1_556
Ca7 O17 2.419706 1_556
Ca7 O1 2.450607 1_555
Ca7 O21 2.475201 1_456
Ca7 O7 2.492268 1_555
Ca7 O5 2.495557 1_555
Ca7 O3 2.543538 1_555
Ca8 O22 2.382091 1_555
Ca8 O16 2.407717 1_555
Ca8 O11 2.416791 1_555
Ca8 O15 2.429518 1_554
Ca8 O4 2.444533 1_555
Ca8 O19 2.479916 1_555
Ca8 O20 2.560985 1_555
Ca8 O12 2.646936 1_555
Ca9 O10 2.346107 1_565
Ca9 O23 2.409078 1_555
Ca9 O17 2.410308 1_555
Ca9 O14 2.450796 1_564
Ca9 O5 2.464207 1_555
Ca9 O18 2.483178 1_565
Ca9 O21 2.512043 1_555
Ca9 O13 2.544297 1_555
Ca10 O4 2.403774 1_555
Ca10 O20 2.411692 1_455
Ca10 O19 2.474590 1_455
Ca10 O6 2.478589 1_555
Ca10 O12 2.497615 1_455
Ca10 O2 2.498703 1_555
Ca10 O16 2.512964 1_555
Ca10 O22 2.512969 1_555
Ca11 O3 2.382119 1_555
Ca11 O13 2.388735 1_455
Ca11 O18 2.437632 1_465
Ca11 O7 2.441731 1_555
Ca11 O5 2.506092 1_555
Ca11 O21 2.521397 1_455
Ca11 O17 2.567067 1_555
Ca11 O23 2.579671 1_555
Co0 O2 1.799183 1_555
Co0 O19 1.821171 1_456
Co0 O20 1.862449 1_456
Co0 O16 1.869090 1_556
Co0 O9 1.934022 1_555
Co0 O15 1.975501 1_455
Co1 O5 1.800866 1_555
Co1 O11 1.807441 1_555
Co1 O23 1.850567 1_555
Co1 O13 1.898108 1_555
Co1 O7 1.931533 1_555
Co1 O1 1.965188 1_555
Co2 O21 1.798679 1_446
Co2 O8 1.809251 1_555
Co2 O17 1.852164 1_546
Co2 O3 1.896742 1_545
Co2 O18 1.929593 1_456
Co2 O14 1.945729 1_455
Co3 O12 1.803236 1_555
Co3 O6 1.825241 1_555
Co3 O4 1.864592 1_555
Co3 O22 1.872073 1_555
Co3 O10 1.938186 1_555
Co3 O0 1.940754 1_555
