# generated using pymatgen
data_DyFe3(BO3)4
_symmetry_space_group_name_H-M   'P 1'
_cell_length_a   9.61802390
_cell_length_b   9.61802390
_cell_length_c   7.66837500
_cell_angle_alpha   90.00000000
_cell_angle_beta   90.00000000
_cell_angle_gamma   119.99999930
_symmetry_Int_Tables_number   1
_chemical_formula_structural   DyFe3(BO3)4
_chemical_formula_sum   'Dy3 Fe9 B12 O36'
_cell_volume   614.33559743
_cell_formula_units_Z   3
loop_
 _symmetry_equiv_pos_site_id
 _symmetry_equiv_pos_as_xyz
  1  'x, y, z'
loop_
 _atom_site_type_symbol
 _atom_site_label
 _atom_site_symmetry_multiplicity
 _atom_site_fract_x
 _atom_site_fract_y
 _atom_site_fract_z
 _atom_site_occupancy
  Dy  Dy0  1  0.33581900  0.33581900  0.00000000  1
  Dy  Dy1  1  0.00000000  0.66418100  0.66666700  1
  Dy  Dy2  1  0.66418100  0.00000000  0.33333300  1
  Fe  Fe0  1  0.88435400  0.88435400  0.00000000  1
  Fe  Fe1  1  0.00000000  0.11564600  0.66666700  1
  Fe  Fe2  1  0.11564600  0.00000000  0.33333300  1
  Fe  Fe3  1  0.78629800  0.33470900  0.98945900  1
  Fe  Fe4  1  0.54841100  0.21370200  0.65612600  1
  Fe  Fe5  1  0.66529100  0.45158900  0.32279200  1
  Fe  Fe6  1  0.45158900  0.66529100  0.67720800  1
  Fe  Fe7  1  0.21370200  0.54841100  0.34387400  1
  Fe  Fe8  1  0.33470900  0.78629800  0.01054100  1
  B  B0  1  0.33244400  0.33244400  0.50000000  1
  B  B1  1  0.00000000  0.66755600  0.16666700  1
  B  B2  1  0.66755600  0.00000000  0.83333300  1
  B  B3  1  0.55186700  0.67555200  0.18010400  1
  B  B4  1  0.12368400  0.44813300  0.84677100  1
  B  B5  1  0.32444800  0.87631600  0.51343700  1
  B  B6  1  0.87631600  0.32444800  0.48656300  1
  B  B7  1  0.44813300  0.12368400  0.15322900  1
  B  B8  1  0.67555200  0.55186700  0.81989600  1
  B  B9  1  0.77921400  0.77921400  0.50000000  1
  B  B10  1  0.00000000  0.22078600  0.16666700  1
  B  B11  1  0.22078600  0.00000000  0.83333300  1
  O  O0  1  0.92295700  0.92295700  0.50000000  1
  O  O1  1  0.00000000  0.07704300  0.16666700  1
  O  O2  1  0.07704300  0.00000000  0.83333300  1
  O  O3  1  0.41820300  0.69265100  0.20390700  1
  O  O4  1  0.27444900  0.58179700  0.87057300  1
  O  O5  1  0.30734900  0.72555100  0.53724000  1
  O  O6  1  0.72555100  0.30734900  0.46276000  1
  O  O7  1  0.58179700  0.27444900  0.12942700  1
  O  O8  1  0.69265100  0.41820300  0.79609300  1
  O  O9  1  0.87659300  0.18258700  0.51337000  1
  O  O10  1  0.30599400  0.12340700  0.18003700  1
  O  O11  1  0.81741300  0.69400600  0.84670400  1
  O  O12  1  0.69400600  0.81741300  0.15329600  1
  O  O13  1  0.12340700  0.30599400  0.81996300  1
  O  O14  1  0.18258700  0.87659300  0.48663000  1
  O  O15  1  0.85226000  0.21310700  0.15121300  1
  O  O16  1  0.36084800  0.14774000  0.81788000  1
  O  O17  1  0.78689300  0.63915200  0.48454600  1
  O  O18  1  0.63915200  0.78689300  0.51545400  1
  O  O19  1  0.14774000  0.36084800  0.18212000  1
  O  O20  1  0.21310700  0.85226000  0.84878700  1
  O  O21  1  0.47515500  0.33055800  0.49105300  1
  O  O22  1  0.85540300  0.52484500  0.15772000  1
  O  O23  1  0.66944200  0.14459700  0.82438700  1
  O  O24  1  0.14459700  0.66944200  0.17561300  1
  O  O25  1  0.52484500  0.85540300  0.84228000  1
  O  O26  1  0.33055800  0.47515500  0.50894700  1
  O  O27  1  0.18839700  0.18839700  0.50000000  1
  O  O28  1  0.00000000  0.81160300  0.16666700  1
  O  O29  1  0.81160300  0.00000000  0.83333300  1
  O  O30  1  0.47534900  0.01023700  0.51852400  1
  O  O31  1  0.53488800  0.52465100  0.18519100  1
  O  O32  1  0.98976300  0.46511200  0.85185700  1
  O  O33  1  0.46511200  0.98976300  0.14814300  1
  O  O34  1  0.52465100  0.53488800  0.81480900  1
  O  O35  1  0.01023700  0.47534900  0.48147600  1
loop_
_geom_bond_atom_site_label_1
_geom_bond_atom_site_label_2
_geom_bond_distance
_geom_bond_site_symmetry_2
Dy0 O34 2.346015 1_554
Dy0 O31 2.346015 1_555
Dy0 O13 2.361367 1_554
Dy0 O10 2.361367 1_555
Dy0 O16 2.390838 1_554
Dy0 O19 2.390838 1_555
Dy1 O32 2.346011 1_455
Dy1 O35 2.346015 1_555
Dy1 O11 2.361367 1_455
Dy1 O14 2.361368 1_555
Dy1 O20 2.390833 1_555
Dy1 O17 2.390834 1_455
Dy2 O33 2.346011 1_545
Dy2 O30 2.346015 1_555
Dy2 O12 2.361367 1_545
Dy2 O9 2.361368 1_555
Dy2 O15 2.390833 1_555
Dy2 O18 2.390834 1_545
Fe0 O11 1.992336 1_554
Fe0 O12 1.992336 1_555
Fe0 O29 2.034338 1_564
Fe0 O28 2.034338 1_655
Fe0 O2 2.060077 1_664
Fe0 O1 2.060077 1_665
Fe1 O13 1.992336 1_555
Fe1 O9 1.992341 1_455
Fe1 O29 2.034333 1_455
Fe1 O27 2.034338 1_555
Fe1 O2 2.060073 1_555
Fe1 O0 2.060077 1_445
Fe2 O10 1.992336 1_555
Fe2 O14 1.992341 1_545
Fe2 O28 2.034333 1_545
Fe2 O27 2.034338 1_555
Fe2 O1 2.060073 1_555
Fe2 O0 2.060077 1_445
Fe3 O15 2.012700 1_556
Fe3 O32 2.015351 1_555
Fe3 O23 2.038103 1_555
Fe3 O7 2.053448 1_556
Fe3 O22 2.058008 1_556
Fe3 O8 2.092404 1_555
Fe4 O16 2.012693 1_555
Fe4 O30 2.015351 1_555
Fe4 O21 2.038107 1_555
Fe4 O8 2.053442 1_555
Fe4 O23 2.058008 1_555
Fe4 O6 2.092398 1_555
Fe5 O17 2.012694 1_555
Fe5 O31 2.015346 1_555
Fe5 O22 2.038103 1_555
Fe5 O6 2.053440 1_555
Fe5 O21 2.058008 1_555
Fe5 O7 2.092392 1_555
Fe6 O18 2.012694 1_555
Fe6 O34 2.015346 1_555
Fe6 O25 2.038103 1_555
Fe6 O5 2.053440 1_555
Fe6 O26 2.058008 1_555
Fe6 O4 2.092392 1_555
Fe7 O19 2.012693 1_555
Fe7 O35 2.015351 1_555
Fe7 O26 2.038107 1_555
Fe7 O3 2.053442 1_555
Fe7 O24 2.058008 1_555
Fe7 O5 2.092398 1_555
Fe8 O20 2.012700 1_554
Fe8 O33 2.015351 1_555
Fe8 O24 2.038103 1_555
Fe8 O4 2.053448 1_554
Fe8 O25 2.058008 1_554
Fe8 O3 2.092404 1_555
B0 O26 1.383459 1_555
B0 O21 1.383459 1_555
B0 O27 1.385448 1_555
B1 O24 1.383459 1_555
B1 O22 1.383459 1_455
B1 O28 1.385447 1_555
B2 O23 1.383459 1_555
B2 O25 1.383459 1_545
B2 O29 1.385447 1_555
B3 O31 1.377552 1_555
B3 O12 1.381146 1_555
B3 O3 1.387269 1_555
B4 O32 1.377542 1_455
B4 O13 1.381151 1_555
B4 O4 1.387279 1_555
B5 O30 1.377548 1_565
B5 O14 1.381140 1_555
B5 O5 1.387288 1_555
B6 O35 1.377548 1_655
B6 O9 1.381140 1_555
B6 O6 1.387288 1_555
B7 O33 1.377542 1_545
B7 O10 1.381151 1_555
B7 O7 1.387279 1_555
B8 O34 1.377552 1_555
B8 O11 1.381146 1_555
B8 O8 1.387269 1_555
B9 O0 1.382524 1_555
B9 O18 1.390584 1_555
B9 O17 1.390584 1_555
B10 O1 1.382524 1_555
B10 O15 1.390575 1_455
B10 O19 1.390578 1_555
B11 O2 1.382524 1_555
B11 O20 1.390575 1_545
B11 O16 1.390578 1_555
