# generated using pymatgen
data_Ca5P12Rh19
_symmetry_space_group_name_H-M   'P 1'
_cell_length_a   12.71013183
_cell_length_b   12.71013183
_cell_length_c   3.93527800
_cell_angle_alpha   90.00000000
_cell_angle_beta   90.00000000
_cell_angle_gamma   119.99999911
_symmetry_Int_Tables_number   1
_chemical_formula_structural   Ca5P12Rh19
_chemical_formula_sum   'Ca5 P12 Rh19'
_cell_volume   550.56191184
_cell_formula_units_Z   1
loop_
 _symmetry_equiv_pos_site_id
 _symmetry_equiv_pos_as_xyz
  1  'x, y, z'
loop_
 _atom_site_type_symbol
 _atom_site_label
 _atom_site_symmetry_multiplicity
 _atom_site_fract_x
 _atom_site_fract_y
 _atom_site_fract_z
 _atom_site_occupancy
  Ca  Ca0  1  0.00000000  0.18401800  0.50000000  1
  Ca  Ca1  1  0.81598200  0.81598200  0.50000000  1
  Ca  Ca2  1  0.18401800  0.00000000  0.50000000  1
  Ca  Ca3  1  0.66666700  0.33333300  0.00000000  1
  Ca  Ca4  1  0.33333300  0.66666700  0.00000000  1
  P  P0  1  0.48187000  0.31392500  0.50000000  1
  P  P1  1  0.81896600  0.00000000  0.00000000  1
  P  P2  1  0.18103400  0.18103400  0.00000000  1
  P  P3  1  0.00000000  0.81896600  0.00000000  1
  P  P4  1  0.36599400  0.00000000  0.00000000  1
  P  P5  1  0.68607500  0.16794500  0.50000000  1
  P  P6  1  0.83205500  0.51813000  0.50000000  1
  P  P7  1  0.51813000  0.83205500  0.50000000  1
  P  P8  1  0.16794500  0.68607500  0.50000000  1
  P  P9  1  0.31392500  0.48187000  0.50000000  1
  P  P10  1  0.00000000  0.36599400  0.00000000  1
  P  P11  1  0.63400600  0.63400600  0.00000000  1
  Rh  Rh0  1  0.80416400  0.18066300  0.00000000  1
  Rh  Rh1  1  0.37649900  0.19583600  0.00000000  1
  Rh  Rh2  1  0.64096800  0.51147100  0.50000000  1
  Rh  Rh3  1  0.87050300  0.35903200  0.50000000  1
  Rh  Rh4  1  0.35903200  0.87050300  0.50000000  1
  Rh  Rh5  1  0.51147100  0.64096800  0.50000000  1
  Rh  Rh6  1  0.12949700  0.48852900  0.50000000  1
  Rh  Rh7  1  0.81933700  0.62350100  0.00000000  1
  Rh  Rh8  1  0.62350100  0.81933700  0.00000000  1
  Rh  Rh9  1  0.18066300  0.80416400  0.00000000  1
  Rh  Rh10  1  0.19583600  0.37649900  0.00000000  1
  Rh  Rh11  1  0.00000000  0.71627600  0.50000000  1
  Rh  Rh12  1  0.28372400  0.28372400  0.50000000  1
  Rh  Rh13  1  0.71627600  0.00000000  0.50000000  1
  Rh  Rh14  1  0.00000000  0.54630200  0.00000000  1
  Rh  Rh15  1  0.45369800  0.45369800  0.00000000  1
  Rh  Rh16  1  0.54630200  0.00000000  0.00000000  1
  Rh  Rh17  1  0.00000000  0.00000000  0.00000000  1
  Rh  Rh18  1  0.48852900  0.12949700  0.50000000  1
loop_
_geom_bond_atom_site_label_1
_geom_bond_atom_site_label_2
_geom_bond_distance
_geom_bond_site_symmetry_2
Ca0 P10 3.036658 1_556
Ca0 P10 3.036658 1_555
Ca0 P2 3.042163 1_556
Ca0 P2 3.042163 1_555
Ca0 P1 3.042163 1_456
Ca0 P1 3.042163 1_455
Ca0 Rh17 3.056472 1_556
Ca0 Rh17 3.056472 1_555
Ca0 Rh0 3.156407 1_456
Ca0 Rh0 3.156407 1_455
Ca0 Rh10 3.156407 1_556
Ca0 Rh10 3.156407 1_555
Ca0 Rh12 3.168664 1_555
Ca0 Rh13 3.168664 1_455
Ca0 Rh3 3.364302 1_455
Ca0 Rh6 3.364302 1_555
Ca1 P11 3.036658 1_556
Ca1 P11 3.036658 1_555
Ca1 P3 3.042163 1_655
Ca1 P3 3.042163 1_656
Ca1 P1 3.042163 1_565
Ca1 P1 3.042163 1_566
Ca1 Rh17 3.056472 1_666
Ca1 Rh17 3.056472 1_665
Ca1 Rh7 3.156407 1_555
Ca1 Rh7 3.156407 1_556
Ca1 Rh8 3.156407 1_555
Ca1 Rh8 3.156407 1_556
Ca1 Rh13 3.168664 1_565
Ca1 Rh11 3.168664 1_655
Ca1 Rh5 3.364302 1_555
Ca1 Rh2 3.364302 1_555
Ca2 P4 3.036658 1_556
Ca2 P4 3.036658 1_555
Ca2 P2 3.042163 1_556
Ca2 P2 3.042163 1_555
Ca2 P3 3.042163 1_546
Ca2 P3 3.042163 1_545
Ca2 Rh17 3.056472 1_556
Ca2 Rh17 3.056472 1_555
Ca2 Rh9 3.156407 1_546
Ca2 Rh9 3.156407 1_545
Ca2 Rh1 3.156407 1_555
Ca2 Rh1 3.156407 1_556
Ca2 Rh12 3.168664 1_555
Ca2 Rh11 3.168664 1_545
Ca2 Rh4 3.364302 1_545
Ca2 Rh18 3.364302 1_555
Ca3 P5 2.978227 1_555
Ca3 P5 2.978227 1_554
Ca3 P6 2.978232 1_554
Ca3 P6 2.978232 1_555
Ca3 P0 2.978236 1_555
Ca3 P0 2.978236 1_554
Ca3 Rh3 3.137547 1_555
Ca3 Rh3 3.137547 1_554
Ca3 Rh18 3.137551 1_555
Ca3 Rh18 3.137551 1_554
Ca3 Rh2 3.137557 1_554
Ca3 Rh2 3.137557 1_555
Ca3 Rh0 3.195410 1_555
Ca3 Rh7 3.195420 1_555
Ca3 Rh1 3.195421 1_555
Ca4 P8 2.978227 1_554
Ca4 P8 2.978227 1_555
Ca4 P7 2.978232 1_555
Ca4 P7 2.978232 1_554
Ca4 P9 2.978236 1_555
Ca4 P9 2.978236 1_554
Ca4 Rh4 3.137547 1_554
Ca4 Rh4 3.137547 1_555
Ca4 Rh6 3.137551 1_554
Ca4 Rh6 3.137551 1_555
Ca4 Rh5 3.137557 1_554
Ca4 Rh5 3.137557 1_555
Ca4 Rh9 3.195410 1_555
Ca4 Rh8 3.195420 1_555
Ca4 Rh10 3.195421 1_555
P0 Rh2 2.305669 1_555
P0 Rh12 2.350163 1_555
P0 Rh18 2.387548 1_555
P0 Rh1 2.430616 1_556
P0 Rh1 2.430616 1_555
P0 Rh15 2.791417 1_555
P0 Rh15 2.791417 1_556
P1 Rh17 2.300966 1_655
P1 Rh13 2.361178 1_554
P1 Rh13 2.361178 1_555
P1 Rh0 2.395865 1_555
P1 Rh8 2.395865 1_545
P2 Rh17 2.300966 1_555
P2 Rh12 2.361178 1_554
P2 Rh12 2.361178 1_555
P2 Rh1 2.395865 1_555
P2 Rh10 2.395865 1_555
P3 Rh17 2.300966 1_565
P3 Rh11 2.361178 1_554
P3 Rh11 2.361178 1_555
P3 Rh9 2.395865 1_555
P3 Rh7 2.395865 1_455
P4 Rh16 2.291738 1_555
P4 Rh1 2.425100 1_555
P4 Rh9 2.425100 1_545
P4 Rh4 2.538278 1_544
P4 Rh4 2.538278 1_545
P4 Rh18 2.538278 1_554
P4 Rh18 2.538278 1_555
P5 Rh18 2.305669 1_555
P5 Rh13 2.350162 1_555
P5 Rh3 2.387548 1_555
P5 Rh0 2.430616 1_556
P5 Rh0 2.430616 1_555
P5 Rh16 2.791417 1_555
P5 Rh16 2.791417 1_556
P6 Rh3 2.305669 1_555
P6 Rh11 2.350163 1_655
P6 Rh2 2.387548 1_555
P6 Rh7 2.430616 1_555
P6 Rh7 2.430616 1_556
P6 Rh14 2.791417 1_656
P6 Rh14 2.791417 1_655
P7 Rh4 2.305669 1_555
P7 Rh13 2.350163 1_565
P7 Rh5 2.387548 1_555
P7 Rh8 2.430616 1_555
P7 Rh8 2.430616 1_556
P7 Rh16 2.791417 1_565
P7 Rh16 2.791417 1_566
P8 Rh6 2.305669 1_555
P8 Rh11 2.350162 1_555
P8 Rh4 2.387548 1_555
P8 Rh9 2.430616 1_555
P8 Rh9 2.430616 1_556
P8 Rh14 2.791417 1_556
P8 Rh14 2.791417 1_555
P9 Rh5 2.305669 1_555
P9 Rh12 2.350163 1_555
P9 Rh6 2.387548 1_555
P9 Rh10 2.430616 1_556
P9 Rh10 2.430616 1_555
P9 Rh15 2.791417 1_556
P9 Rh15 2.791417 1_555
P10 Rh14 2.291738 1_555
P10 Rh10 2.425100 1_555
P10 Rh0 2.425100 1_455
P10 Rh3 2.538278 1_455
P10 Rh3 2.538278 1_454
P10 Rh6 2.538278 1_554
P10 Rh6 2.538278 1_555
P11 Rh15 2.291738 1_555
P11 Rh8 2.425100 1_555
P11 Rh7 2.425100 1_555
P11 Rh5 2.538278 1_554
P11 Rh2 2.538278 1_554
P11 Rh5 2.538278 1_555
P11 Rh2 2.538278 1_555
Rh0 Rh3 2.794763 1_555
Rh0 Rh3 2.794763 1_554
Rh0 Rh13 2.797703 1_554
Rh0 Rh13 2.797703 1_555
Rh0 Rh16 2.913527 1_555
Rh1 Rh18 2.794763 1_554
Rh1 Rh18 2.794763 1_555
Rh1 Rh12 2.797703 1_554
Rh1 Rh12 2.797703 1_555
Rh1 Rh15 2.913527 1_555
Rh2 Rh7 2.794763 1_556
Rh2 Rh7 2.794763 1_555
Rh2 Rh5 2.850824 1_555
Rh3 Rh6 2.850824 1_655
Rh4 Rh9 2.794763 1_556
Rh4 Rh9 2.794763 1_555
Rh5 Rh8 2.794763 1_555
Rh5 Rh8 2.794763 1_556
Rh10 Rh6 2.794763 1_554
Rh10 Rh6 2.794763 1_555
Rh10 Rh12 2.797703 1_554
Rh10 Rh12 2.797703 1_555
Rh10 Rh15 2.913527 1_555
Rh11 Rh9 2.797703 1_555
Rh11 Rh9 2.797703 1_556
Rh11 Rh7 2.797703 1_455
Rh11 Rh7 2.797703 1_456
Rh13 Rh8 2.797703 1_546
Rh13 Rh8 2.797703 1_545
Rh14 Rh6 2.885910 1_554
Rh14 Rh6 2.885910 1_555
Rh14 Rh3 2.885910 1_455
Rh14 Rh3 2.885910 1_454
Rh14 Rh7 2.913527 1_455
Rh14 Rh9 2.913527 1_555
Rh15 Rh2 2.885910 1_555
Rh15 Rh5 2.885910 1_555
Rh15 Rh5 2.885910 1_554
Rh15 Rh2 2.885910 1_554
Rh16 Rh18 2.885910 1_554
Rh16 Rh18 2.885910 1_555
Rh16 Rh4 2.885910 1_545
Rh16 Rh4 2.885910 1_544
Rh16 Rh8 2.913527 1_545
Rh18 Rh4 2.850824 1_545
