# generated using pymatgen
data_AcCu3
_symmetry_space_group_name_H-M   'P 1'
_cell_length_a   6.63273527
_cell_length_b   6.63273535
_cell_length_c   4.24688587
_cell_angle_alpha   90.00000000
_cell_angle_beta   90.00000000
_cell_angle_gamma   120.00000480
_symmetry_Int_Tables_number   1
_chemical_formula_structural   AcCu3
_chemical_formula_sum   'Ac2 Cu6'
_cell_volume   161.80298664
_cell_formula_units_Z   2
loop_
 _symmetry_equiv_pos_site_id
 _symmetry_equiv_pos_as_xyz
  1  'x, y, z'
loop_
 _atom_site_type_symbol
 _atom_site_label
 _atom_site_symmetry_multiplicity
 _atom_site_fract_x
 _atom_site_fract_y
 _atom_site_fract_z
 _atom_site_occupancy
  Ac  Ac0  1  0.33333400  0.66666700  0.75000100  1
  Ac  Ac1  1  0.66666600  0.33333400  0.25000200  1
  Cu  Cu0  1  0.12331548  0.24663395  0.25000200  1
  Cu  Cu1  1  0.75336505  0.87668352  0.25000200  1
  Cu  Cu2  1  0.12331748  0.87668352  0.25000200  1
  Cu  Cu3  1  0.87668252  0.75336505  0.75000100  1
  Cu  Cu4  1  0.24663495  0.12331648  0.75000100  1
  Cu  Cu5  1  0.87668352  0.12331648  0.75000100  1
loop_
_geom_bond_atom_site_label_1
_geom_bond_atom_site_label_2
_geom_bond_distance
_geom_bond_site_symmetry_2
Ac0 Cu1 3.214055 1_555
Ac0 Cu1 3.214061 1_556
Ac0 Cu0 3.214064 1_555
Ac0 Cu2 3.214064 1_555
Ac0 Cu0 3.214069 1_556
Ac0 Cu2 3.214069 1_556
Ac0 Cu4 3.353545 1_565
Ac0 Cu3 3.353547 1_555
Ac0 Cu5 3.353549 1_565
Ac0 Cu3 3.353554 1_455
Ac0 Cu5 3.353555 1_455
Ac0 Cu4 3.353558 1_555
Ac1 Cu4 3.214055 1_555
Ac1 Cu3 3.214055 1_555
Ac1 Cu4 3.214061 1_554
Ac1 Cu3 3.214061 1_554
Ac1 Cu5 3.214072 1_555
Ac1 Cu5 3.214078 1_554
Ac1 Cu2 3.353547 1_545
Ac1 Cu0 3.353549 1_655
Ac1 Cu1 3.353551 1_555
Ac1 Cu1 3.353552 1_545
Ac1 Cu2 3.353554 1_655
Ac1 Cu0 3.353556 1_555
Cu0 Cu1 2.453783 1_445
Cu0 Cu2 2.453790 1_545
Cu0 Cu5 2.552642 1_455
Cu0 Cu5 2.552649 1_454
Cu0 Cu4 2.552658 1_555
Cu0 Cu4 2.552665 1_554
Cu1 Cu2 2.453797 1_655
Cu1 Cu5 2.552645 1_565
Cu1 Cu5 2.552652 1_564
Cu1 Cu3 2.552655 1_555
Cu1 Cu3 2.552662 1_554
Cu2 Cu4 2.552645 1_565
Cu2 Cu3 2.552652 1_455
Cu2 Cu4 2.552652 1_564
Cu2 Cu3 2.552659 1_454
Cu3 Cu5 2.453787 1_565
Cu3 Cu4 2.453793 1_665
Cu4 Cu5 2.453790 1_455
