# generated using pymatgen
data_CaMg14Mn
_symmetry_space_group_name_H-M   'P 1'
_cell_length_a   6.44554004
_cell_length_b   6.40553442
_cell_length_c   10.35216765
_cell_angle_alpha   90.00000000
_cell_angle_beta   90.00000000
_cell_angle_gamma   119.79490063
_symmetry_Int_Tables_number   1
_chemical_formula_structural   CaMg14Mn
_chemical_formula_sum   'Ca1 Mg14 Mn1'
_cell_volume   370.91164386
_cell_formula_units_Z   1
loop_
 _symmetry_equiv_pos_site_id
 _symmetry_equiv_pos_as_xyz
  1  'x, y, z'
loop_
 _atom_site_type_symbol
 _atom_site_label
 _atom_site_symmetry_multiplicity
 _atom_site_fract_x
 _atom_site_fract_y
 _atom_site_fract_z
 _atom_site_occupancy
  Ca  Ca0  1  0.16377777  0.33188839  0.12500000  1
  Mg  Mg0  1  0.16698287  0.33349094  0.62500000  1
  Mg  Mg1  1  0.16519378  0.83259639  0.62500000  1
  Mg  Mg2  1  0.65970781  0.32348863  0.12500000  1
  Mg  Mg3  1  0.66623181  0.33415774  0.62500000  1
  Mg  Mg4  1  0.65970781  0.83621818  0.12500000  1
  Mg  Mg5  1  0.66623181  0.83207306  0.62500000  1
  Mg  Mg6  1  0.33412372  0.15956392  0.37680187  1
  Mg  Mg7  1  0.33412372  0.15956392  0.87319813  1
  Mg  Mg8  1  0.33412372  0.67456079  0.37680187  1
  Mg  Mg9  1  0.33412372  0.67456079  0.87319813  1
  Mg  Mg10  1  0.82938864  0.16469482  0.38306964  1
  Mg  Mg11  1  0.82938864  0.16469482  0.86693036  1
  Mg  Mg12  1  0.84004922  0.67002511  0.36559310  1
  Mg  Mg13  1  0.84004922  0.67002511  0.88440690  1
  Mn  Mn0  1  0.17679575  0.83839737  0.12500000  1
loop_
_geom_bond_atom_site_label_1
_geom_bond_atom_site_label_2
_geom_bond_distance
_geom_bond_site_symmetry_2
Ca0 Mn0 3.203595 1_555
Ca0 Mn0 3.203595 1_545
Ca0 Mg4 3.222606 1_445
Ca0 Mg2 3.222606 1_455
Ca0 Mg4 3.223610 1_555
Ca0 Mg2 3.223611 1_555
Ca0 Mg6 3.228513 1_555
Ca0 Mg7 3.228513 1_554
Ca0 Mg8 3.228519 1_555
Ca0 Mg9 3.228519 1_554
Ca0 Mg11 3.261251 1_454
Ca0 Mg10 3.261251 1_455
Mg0 Mg11 3.136613 1_455
Mg0 Mg10 3.136613 1_455
Mg0 Mg6 3.193172 1_555
Mg0 Mg7 3.193172 1_555
Mg0 Mg9 3.193179 1_555
Mg0 Mg8 3.193179 1_555
Mg0 Mg1 3.202783 1_555
Mg0 Mg1 3.202783 1_545
Mg0 Mg5 3.215808 1_555
Mg0 Mg3 3.215809 1_555
Mg0 Mg5 3.229735 1_445
Mg0 Mg3 3.229735 1_455
Mg1 Mg9 3.147618 1_555
Mg1 Mg8 3.147618 1_555
Mg1 Mg6 3.147624 1_565
Mg1 Mg7 3.147624 1_565
Mg1 Mg3 3.214415 1_455
Mg1 Mg5 3.214415 1_455
Mg1 Mg3 3.231127 1_565
Mg1 Mg5 3.231128 1_555
Mg1 Mg12 3.243325 1_455
Mg1 Mg13 3.243325 1_455
Mg2 Mn0 3.119588 1_545
Mg2 Mg4 3.121228 1_545
Mg2 Mg6 3.179861 1_555
Mg2 Mg7 3.179861 1_554
Mg2 Mg4 3.284307 1_555
Mg2 Mn0 3.325997 1_655
Mg3 Mg6 3.171057 1_555
Mg3 Mg7 3.171057 1_555
Mg3 Mg5 3.189414 1_555
Mg3 Mg5 3.216121 1_545
Mg4 Mn0 3.119589 1_555
Mg4 Mg8 3.179861 1_555
Mg4 Mg9 3.179861 1_554
Mg4 Mn0 3.325997 1_655
Mg5 Mg9 3.171057 1_555
Mg5 Mg8 3.171057 1_555
Mg6 Mg8 3.106704 1_545
Mg6 Mn0 3.159463 1_545
Mg6 Mg8 3.298830 1_555
Mg7 Mg9 3.106704 1_545
Mg7 Mn0 3.159463 1_546
Mg7 Mg9 3.298830 1_555
Mg8 Mn0 3.159457 1_555
Mg9 Mn0 3.159457 1_556
Mg10 Mg3 3.113077 1_555
Mg10 Mg5 3.113083 1_545
Mg10 Mg8 3.176709 1_545
Mg10 Mg6 3.176710 1_555
Mg10 Mg12 3.208427 1_555
Mg10 Mg12 3.208427 1_545
Mg10 Mg2 3.236301 1_555
Mg10 Mg4 3.236307 1_545
Mg10 Mg8 3.270389 1_655
Mg10 Mg6 3.270389 1_655
Mg11 Mg3 3.113077 1_555
Mg11 Mg5 3.113083 1_545
Mg11 Mg9 3.176709 1_545
Mg11 Mg7 3.176710 1_555
Mg11 Mg13 3.208427 1_555
Mg11 Mg13 3.208427 1_545
Mg11 Mg2 3.236301 1_556
Mg11 Mg4 3.236307 1_546
Mg11 Mg9 3.270389 1_655
Mg11 Mg7 3.270389 1_655
Mg12 Mn0 3.122708 1_655
Mg12 Mg4 3.149221 1_555
Mg12 Mg2 3.149227 1_555
Mg12 Mg6 3.172363 1_665
Mg12 Mg8 3.172363 1_655
Mg12 Mg5 3.271060 1_555
Mg12 Mg3 3.271067 1_555
Mg12 Mg6 3.277551 1_555
Mg12 Mg8 3.277551 1_555
Mg13 Mn0 3.122708 1_656
Mg13 Mg4 3.149221 1_556
Mg13 Mg2 3.149227 1_556
Mg13 Mg7 3.172363 1_665
Mg13 Mg9 3.172363 1_655
Mg13 Mg5 3.271060 1_555
Mg13 Mg3 3.271067 1_555
Mg13 Mg7 3.277551 1_555
Mg13 Mg9 3.277551 1_555
