# generated using pymatgen
data_CsCrCoF6
_symmetry_space_group_name_H-M   'P 1'
_cell_length_a   7.49578129
_cell_length_b   7.49578129
_cell_length_c   7.49578129
_cell_angle_alpha   120.56537561
_cell_angle_beta   120.45258211
_cell_angle_gamma   89.12068872
_symmetry_Int_Tables_number   1
_chemical_formula_structural   CsCrCoF6
_chemical_formula_sum   'Cs2 Cr2 Co2 F12'
_cell_volume   295.47837057
_cell_formula_units_Z   2
loop_
 _symmetry_equiv_pos_site_id
 _symmetry_equiv_pos_as_xyz
  1  'x, y, z'
loop_
 _atom_site_type_symbol
 _atom_site_label
 _atom_site_symmetry_multiplicity
 _atom_site_fract_x
 _atom_site_fract_y
 _atom_site_fract_z
 _atom_site_occupancy
  Cs  Cs0  1  0.37118300  0.12118300  0.25000000  1
  Cs  Cs1  1  0.62881700  0.87881700  0.75000000  1
  Cr  Cr0  1  0.00000000  0.50000000  0.50000000  1
  Cr  Cr1  1  0.50000000  0.50000000  0.00000000  1
  Co  Co0  1  0.00000000  0.50000000  0.00000000  1
  Co  Co1  1  0.00000000  0.00000000  0.50000000  1
  F  F0  1  0.31115500  0.56115500  0.75000000  1
  F  F1  1  0.92757000  0.17757000  0.75000000  1
  F  F2  1  0.32860000  0.19169400  0.76353200  1
  F  F3  1  0.92816100  0.56506700  0.73646800  1
  F  F4  1  0.32860000  0.56506700  0.13690600  1
  F  F5  1  0.92816100  0.19169400  0.36309400  1
  F  F6  1  0.68884500  0.43884500  0.25000000  1
  F  F7  1  0.07243000  0.82243000  0.25000000  1
  F  F8  1  0.67140000  0.80830600  0.23646800  1
  F  F9  1  0.07183900  0.43493300  0.26353200  1
  F  F10  1  0.67140000  0.43493300  0.86309400  1
  F  F11  1  0.07183900  0.80830600  0.63690600  1
loop_
_geom_bond_atom_site_label_1
_geom_bond_atom_site_label_2
_geom_bond_distance
_geom_bond_site_symmetry_2
Cs0 F7 3.191180 1_545
Cs0 F8 3.225228 1_545
Cs0 F9 3.225228 1_555
Cs0 F10 3.225228 1_555
Cs0 F11 3.225228 1_544
Cs0 F6 3.393159 1_555
Cs1 F1 3.191180 1_565
Cs1 F2 3.225228 1_565
Cs1 F3 3.225228 1_555
Cs1 F5 3.225228 1_566
Cs1 F4 3.225228 1_555
Cs1 F0 3.393159 1_555
Cr0 F5 1.936448 1_455
Cr0 F11 1.936448 1_555
Cr0 F9 1.936455 1_555
Cr0 F3 1.936455 1_455
Cr0 F0 1.972424 1_555
Cr0 F6 1.972424 1_455
Cr1 F2 1.936448 1_554
Cr1 F8 1.936448 1_555
Cr1 F4 1.936448 1_555
Cr1 F10 1.936448 1_554
Cr1 F6 1.972424 1_555
Cr1 F0 1.972424 1_554
Co0 F1 2.012559 1_454
Co0 F7 2.012559 1_555
Co0 F3 2.079311 1_454
Co0 F9 2.079311 1_555
Co0 F10 2.079318 1_454
Co0 F4 2.079318 1_555
Co1 F1 2.012559 1_455
Co1 F7 2.012559 1_545
Co1 F5 2.079318 1_455
Co1 F11 2.079318 1_545
Co1 F2 2.079318 1_555
Co1 F8 2.079318 1_445
