# generated using pymatgen
data_Y3Mg
_symmetry_space_group_name_H-M   'P 1'
_cell_length_a   4.94590700
_cell_length_b   4.94590700
_cell_length_c   4.94590700
_cell_angle_alpha   90.00000000
_cell_angle_beta   90.00000000
_cell_angle_gamma   90.00000000
_symmetry_Int_Tables_number   1
_chemical_formula_structural   Y3Mg
_chemical_formula_sum   'Y3 Mg1'
_cell_volume   120.98675751
_cell_formula_units_Z   1
loop_
 _symmetry_equiv_pos_site_id
 _symmetry_equiv_pos_as_xyz
  1  'x, y, z'
loop_
 _atom_site_type_symbol
 _atom_site_label
 _atom_site_symmetry_multiplicity
 _atom_site_fract_x
 _atom_site_fract_y
 _atom_site_fract_z
 _atom_site_occupancy
  Y  Y0  1  0.50000000  0.50000000  0.00000000  1
  Y  Y1  1  0.50000000  0.00000000  0.50000000  1
  Y  Y2  1  0.00000000  0.50000000  0.50000000  1
  Mg  Mg0  1  0.00000000  0.00000000  0.00000000  1
loop_
_geom_bond_atom_site_label_1
_geom_bond_atom_site_label_2
_geom_bond_distance
_geom_bond_site_symmetry_2
Y0 Y1 3.497284 1_554
Y0 Y1 3.497284 1_564
Y0 Y2 3.497284 1_654
Y0 Y2 3.497284 1_554
Y0 Y1 3.497284 1_565
Y0 Y2 3.497284 1_655
Y0 Y1 3.497284 1_555
Y0 Y2 3.497284 1_555
Y1 Y2 3.497284 1_645
Y1 Y2 3.497284 1_545
Y1 Y2 3.497284 1_655
Y1 Y2 3.497284 1_555
Mg0 Y1 3.497284 1_554
Mg0 Y1 3.497284 1_455
Mg0 Y0 3.497284 1_555
Mg0 Y0 3.497284 1_445
Mg0 Y2 3.497284 1_555
Mg0 Y2 3.497284 1_554
Mg0 Y1 3.497284 1_454
Mg0 Y0 3.497284 1_545
Mg0 Y1 3.497284 1_555
Mg0 Y2 3.497284 1_544
Mg0 Y2 3.497284 1_545
Mg0 Y0 3.497284 1_455
