# generated using pymatgen
data_B5Pb2IO9
_symmetry_space_group_name_H-M   'P 1'
_cell_length_a   6.58680900
_cell_length_b   11.69691100
_cell_length_c   11.83889700
_cell_angle_alpha   90.00000000
_cell_angle_beta   90.00000000
_cell_angle_gamma   90.00000000
_symmetry_Int_Tables_number   1
_chemical_formula_structural   B5Pb2IO9
_chemical_formula_sum   'B20 Pb8 I4 O36'
_cell_volume   912.13159179
_cell_formula_units_Z   4
loop_
 _symmetry_equiv_pos_site_id
 _symmetry_equiv_pos_as_xyz
  1  'x, y, z'
loop_
 _atom_site_type_symbol
 _atom_site_label
 _atom_site_symmetry_multiplicity
 _atom_site_fract_x
 _atom_site_fract_y
 _atom_site_fract_z
 _atom_site_occupancy
  B  B0  1  0.74467200  0.76683000  0.45585200  1
  B  B1  1  0.74467200  0.23317000  0.54414800  1
  B  B2  1  0.24467200  0.73317000  0.95585200  1
  B  B3  1  0.24467200  0.26683000  0.04414800  1
  B  B4  1  0.58258100  0.00853200  0.25157600  1
  B  B5  1  0.58258100  0.99146800  0.74842400  1
  B  B6  1  0.08258100  0.49146800  0.75157600  1
  B  B7  1  0.08258100  0.50853200  0.24842400  1
  B  B8  1  0.70929600  0.20237000  0.32102800  1
  B  B9  1  0.70929600  0.79763000  0.67897200  1
  B  B10  1  0.20929600  0.29763000  0.82102800  1
  B  B11  1  0.20929600  0.70237000  0.17897200  1
  B  B12  1  0.52481000  0.78496400  0.28715200  1
  B  B13  1  0.52481000  0.21503600  0.71284800  1
  B  B14  1  0.02481000  0.71503600  0.78715200  1
  B  B15  1  0.02481000  0.28496400  0.21284800  1
  B  B16  1  0.85794800  0.68010300  0.27016000  1
  B  B17  1  0.85794800  0.31989700  0.72984000  1
  B  B18  1  0.35794800  0.81989700  0.77016000  1
  B  B19  1  0.35794800  0.18010300  0.22984000  1
  Pb  Pb0  1  0.71376200  0.76852800  0.03529600  1
  Pb  Pb1  1  0.71376200  0.23147200  0.96470400  1
  Pb  Pb2  1  0.21376200  0.73147200  0.53529600  1
  Pb  Pb3  1  0.21376200  0.26852800  0.46470400  1
  Pb  Pb4  1  0.56034200  0.54962100  0.76215400  1
  Pb  Pb5  1  0.56034200  0.45037900  0.23784600  1
  Pb  Pb6  1  0.06034200  0.95037900  0.26215400  1
  Pb  Pb7  1  0.06034200  0.04962100  0.73784600  1
  I  I0  1  0.76120500  0.50000000  0.00000000  1
  I  I1  1  0.26120500  0.00000000  0.50000000  1
  I  I2  1  0.49901700  0.50000000  0.50000000  1
  I  I3  1  0.99901700  0.00000000  0.00000000  1
  O  O0  1  0.73456400  0.07792500  0.29235000  1
  O  O1  1  0.73456400  0.92207500  0.70765000  1
  O  O2  1  0.23456400  0.42207500  0.79235000  1
  O  O3  1  0.23456400  0.57792500  0.20765000  1
  O  O4  1  0.55239800  0.78617300  0.41370900  1
  O  O5  1  0.55239800  0.21382700  0.58629100  1
  O  O6  1  0.05239800  0.71382700  0.91370900  1
  O  O7  1  0.05239800  0.28617300  0.08629100  1
  O  O8  1  0.89951500  0.73728500  0.38068400  1
  O  O9  1  0.89951500  0.26271500  0.61931600  1
  O  O10  1  0.39951500  0.76271500  0.88068400  1
  O  O11  1  0.39951500  0.23728500  0.11931600  1
  O  O12  1  0.62256500  0.89324000  0.23873700  1
  O  O13  1  0.62256500  0.10676000  0.76126300  1
  O  O14  1  0.12256500  0.60676000  0.73873700  1
  O  O15  1  0.12256500  0.39324000  0.26126300  1
  O  O16  1  0.98867800  0.73081600  0.18069300  1
  O  O17  1  0.98867800  0.26918400  0.81930700  1
  O  O18  1  0.48867800  0.76918400  0.68069300  1
  O  O19  1  0.48867800  0.23081600  0.31930700  1
  O  O20  1  0.80224700  0.22387700  0.43339200  1
  O  O21  1  0.80224700  0.77612300  0.56660800  1
  O  O22  1  0.30224700  0.27612300  0.93339200  1
  O  O23  1  0.30224700  0.72387700  0.06660800  1
  O  O24  1  0.64382200  0.69054300  0.23684600  1
  O  O25  1  0.64382200  0.30945700  0.76315400  1
  O  O26  1  0.14382200  0.80945700  0.73684600  1
  O  O27  1  0.14382200  0.19054300  0.26315400  1
  O  O28  1  0.80938600  0.72327600  0.76351500  1
  O  O29  1  0.80938600  0.27672400  0.23648500  1
  O  O30  1  0.30938600  0.77672400  0.26351500  1
  O  O31  1  0.30938600  0.22327600  0.73648500  1
  O  O32  1  0.89885300  0.55462000  0.28128300  1
  O  O33  1  0.89885300  0.44538000  0.71871700  1
  O  O34  1  0.39885300  0.94538000  0.78128300  1
  O  O35  1  0.39885300  0.05462000  0.21871700  1
loop_
_geom_bond_atom_site_label_1
_geom_bond_atom_site_label_2
_geom_bond_distance
_geom_bond_site_symmetry_2
B0 O21 1.369290 1_555
B0 O4 1.379880 1_555
B0 O8 1.396997 1_555
B1 O20 1.369290 1_555
B1 O5 1.379880 1_555
B1 O9 1.396997 1_555
B2 O23 1.369290 1_556
B2 O6 1.379880 1_555
B2 O10 1.396997 1_555
B3 O22 1.369290 1_554
B3 O7 1.379880 1_555
B3 O11 1.396997 1_555
B4 O0 1.376232 1_555
B4 O35 1.380756 1_555
B4 O12 1.382418 1_545
B5 O1 1.376232 1_555
B5 O34 1.380756 1_555
B5 O13 1.382418 1_565
B6 O2 1.376232 1_555
B6 O33 1.380756 1_455
B6 O14 1.382418 1_555
B7 O3 1.376232 1_555
B7 O32 1.380756 1_455
B7 O15 1.382418 1_555
B8 O29 1.480822 1_555
B8 O20 1.485848 1_555
B8 O19 1.490914 1_555
B8 O0 1.503931 1_555
B9 O28 1.480822 1_555
B9 O21 1.485848 1_555
B9 O18 1.490914 1_555
B9 O1 1.503931 1_555
B10 O31 1.480822 1_555
B10 O22 1.485848 1_555
B10 O17 1.490914 1_455
B10 O2 1.503931 1_555
B11 O30 1.480822 1_555
B11 O23 1.485848 1_555
B11 O16 1.490914 1_455
B11 O3 1.503931 1_555
B12 O30 1.449495 1_555
B12 O24 1.479523 1_555
B12 O4 1.509341 1_555
B12 O12 1.532039 1_555
B13 O31 1.449495 1_555
B13 O25 1.479523 1_555
B13 O5 1.509341 1_555
B13 O13 1.532039 1_555
B14 O28 1.449495 1_455
B14 O26 1.479523 1_555
B14 O6 1.509341 1_555
B14 O14 1.532039 1_555
B15 O29 1.449495 1_455
B15 O27 1.479523 1_555
B15 O7 1.509341 1_555
B15 O15 1.532039 1_555
B16 O24 1.469596 1_555
B16 O16 1.488367 1_555
B16 O8 1.494809 1_555
B16 O32 1.498087 1_555
B17 O25 1.469596 1_555
B17 O17 1.488367 1_555
B17 O9 1.494809 1_555
B17 O33 1.498087 1_555
B18 O26 1.469596 1_555
B18 O18 1.488367 1_555
B18 O10 1.494809 1_555
B18 O34 1.498087 1_555
B19 O27 1.469596 1_555
B19 O19 1.488367 1_555
B19 O11 1.494809 1_555
B19 O35 1.498087 1_555
I0 Pb5 3.164846 1_555
I0 Pb4 3.164846 1_554
I0 Pb0 3.183995 1_555
I0 Pb1 3.183995 1_554
I1 Pb7 3.164846 1_555
I1 Pb6 3.164846 1_545
I1 Pb2 3.183995 1_545
I1 Pb3 3.183995 1_555
I2 Pb5 3.183153 1_555
I2 Pb4 3.183153 1_555
I2 Pb2 3.321980 1_555
I2 Pb3 3.321980 1_555
I3 Pb6 3.183153 1_645
I3 Pb7 3.183153 1_654
I3 Pb0 3.321980 1_545
I3 Pb1 3.321980 1_554
O0 Pb6 2.637833 1_645
O1 Pb7 2.637833 1_665
O2 Pb4 2.637833 1_555
O3 Pb5 2.637833 1_555
O4 Pb2 2.730693 1_555
O5 Pb3 2.730693 1_555
O6 Pb0 2.730693 1_456
O7 Pb1 2.730693 1_454
O8 Pb2 2.763972 1_655
O9 Pb3 2.763972 1_655
O10 Pb0 2.763972 1_556
O11 Pb1 2.763972 1_554
O12 Pb0 2.879189 1_555
O13 Pb1 2.879189 1_555
O14 Pb2 2.879189 1_555
O15 Pb3 2.879189 1_555
O16 Pb0 2.537057 1_555
O17 Pb1 2.537057 1_555
O18 Pb2 2.537057 1_555
O19 Pb3 2.537057 1_555
O20 Pb3 2.785209 1_655
O21 Pb2 2.785209 1_655
O22 Pb1 2.785209 1_555
O23 Pb0 2.785209 1_555
O24 Pb0 2.595751 1_555
O25 Pb1 2.595751 1_555
O26 Pb2 2.595751 1_555
O27 Pb3 2.595751 1_555
O28 Pb4 2.610952 1_555
O29 Pb5 2.610952 1_555
O30 Pb6 2.610952 1_555
O31 Pb7 2.610952 1_555
O32 Pb5 2.592823 1_555
O33 Pb4 2.592823 1_555
O34 Pb7 2.592823 1_565
O35 Pb6 2.592823 1_545
