# generated using pymatgen
data_ZrVCr
_symmetry_space_group_name_H-M   'P 1'
_cell_length_a   5.10777910
_cell_length_b   5.10777910
_cell_length_c   5.10777910
_cell_angle_alpha   122.09473308
_cell_angle_beta   117.74851882
_cell_angle_gamma   90.17690973
_symmetry_Int_Tables_number   1
_chemical_formula_structural   ZrVCr
_chemical_formula_sum   'Zr2 V2 Cr2'
_cell_volume   94.17037719
_cell_formula_units_Z   2
loop_
 _symmetry_equiv_pos_site_id
 _symmetry_equiv_pos_as_xyz
  1  'x, y, z'
loop_
 _atom_site_type_symbol
 _atom_site_label
 _atom_site_symmetry_multiplicity
 _atom_site_fract_x
 _atom_site_fract_y
 _atom_site_fract_z
 _atom_site_occupancy
  Zr  Zr0  1  0.12747891  0.87747891  0.25000000  1
  Zr  Zr1  1  0.87252109  0.12252109  0.75000000  1
  V  V0  1  0.50000000  0.50000000  -0.00000000  1
  V  V1  1  0.00000000  0.50000000  0.50000000  1
  Cr  Cr0  1  0.50000000  0.50000000  0.50000000  1
  Cr  Cr1  1  0.50000000  0.00000000  -0.00000000  1
loop_
_geom_bond_atom_site_label_1
_geom_bond_atom_site_label_2
_geom_bond_distance
_geom_bond_site_symmetry_2
Zr0 Zr1 3.081414 1_465
Zr0 Zr1 3.081414 1_454
Zr0 Zr1 3.177206 1_464
Zr0 Zr1 3.177206 1_565
V0 V1 2.640303 1_655
V0 V1 2.640303 1_554
V0 Zr1 2.938952 1_554
V0 Zr0 2.938952 1_544
V0 Zr1 2.938952 1_565
V0 Zr0 2.938952 1_555
V0 Zr1 3.025693 1_454
V0 Zr0 3.025693 1_655
V1 Zr1 2.938952 1_465
V1 Zr0 2.938952 1_545
V1 Zr1 2.938952 1_454
V1 Zr0 2.938952 1_556
V1 Zr1 3.025693 1_455
V1 Zr0 3.025693 1_555
Cr0 Cr1 2.472606 1_555
Cr0 Cr1 2.472606 1_566
Cr0 V0 2.553890 1_555
Cr0 V1 2.553890 1_655
Cr0 V1 2.553890 1_555
Cr0 V0 2.553890 1_556
Cr0 Zr1 2.957540 1_565
Cr0 Zr0 2.957540 1_545
Cr0 Zr1 3.056956 1_555
Cr0 Zr0 3.056956 1_555
Cr0 Zr1 3.056956 1_454
Cr0 Zr0 3.056956 1_656
Cr1 V1 2.553890 1_544
Cr1 V0 2.553890 1_555
Cr1 V1 2.553890 1_655
Cr1 V0 2.553890 1_545
Cr1 Zr0 2.957540 1_545
Cr1 Zr1 2.957540 1_554
Cr1 Zr1 3.056956 1_555
Cr1 Zr1 3.056956 1_454
Cr1 Zr0 3.056956 1_544
Cr1 Zr0 3.056956 1_645
