# generated using pymatgen
data_Ba3Nb2Se9
_symmetry_space_group_name_H-M   'P 1'
_cell_length_a   7.45770700
_cell_length_b   12.57895800
_cell_length_c   17.85361280
_cell_angle_alpha   90.00000000
_cell_angle_beta   97.40201706
_cell_angle_gamma   90.00000000
_symmetry_Int_Tables_number   1
_chemical_formula_structural   Ba3Nb2Se9
_chemical_formula_sum   'Ba12 Nb8 Se36'
_cell_volume   1660.89353219
_cell_formula_units_Z   4
loop_
 _symmetry_equiv_pos_site_id
 _symmetry_equiv_pos_as_xyz
  1  'x, y, z'
loop_
 _atom_site_type_symbol
 _atom_site_label
 _atom_site_symmetry_multiplicity
 _atom_site_fract_x
 _atom_site_fract_y
 _atom_site_fract_z
 _atom_site_occupancy
  Ba  Ba0  1  0.26239500  0.91102200  0.91528500  1
  Ba  Ba1  1  0.73760500  0.41102200  0.58471500  1
  Ba  Ba2  1  0.73760500  0.08897800  0.08471500  1
  Ba  Ba3  1  0.26239500  0.58897800  0.41528500  1
  Ba  Ba4  1  0.74517300  0.74360700  0.74619900  1
  Ba  Ba5  1  0.25482700  0.24360700  0.75380100  1
  Ba  Ba6  1  0.25482700  0.25639300  0.25380100  1
  Ba  Ba7  1  0.74517300  0.75639300  0.24619900  1
  Ba  Ba8  1  0.74286700  0.43133700  0.91980900  1
  Ba  Ba9  1  0.25713300  0.93133700  0.58019100  1
  Ba  Ba10  1  0.25713300  0.56866300  0.08019100  1
  Ba  Ba11  1  0.74286700  0.06866300  0.41980900  1
  Nb  Nb0  1  0.71372600  0.05561700  0.85089300  1
  Nb  Nb1  1  0.28627400  0.55561700  0.64910700  1
  Nb  Nb2  1  0.28627400  0.94438300  0.14910700  1
  Nb  Nb3  1  0.71372600  0.44438300  0.35089300  1
  Nb  Nb4  1  0.21977000  0.56745700  0.84652400  1
  Nb  Nb5  1  0.78023000  0.06745700  0.65347600  1
  Nb  Nb6  1  0.78023000  0.43254300  0.15347600  1
  Nb  Nb7  1  0.21977000  0.93254300  0.34652400  1
  Se  Se0  1  0.24537700  0.72668900  0.74087100  1
  Se  Se1  1  0.75462300  0.22668900  0.75912900  1
  Se  Se2  1  0.75462300  0.27331100  0.25912900  1
  Se  Se3  1  0.24537700  0.77331100  0.24087100  1
  Se  Se4  1  0.03578300  0.70457800  0.61938300  1
  Se  Se5  1  0.96421700  0.20457800  0.88061700  1
  Se  Se6  1  0.96421700  0.29542200  0.38061700  1
  Se  Se7  1  0.03578300  0.79542200  0.11938300  1
  Se  Se8  1  0.00278600  0.65822400  0.91609100  1
  Se  Se9  1  0.99721400  0.15822400  0.58390900  1
  Se  Se10  1  0.99721400  0.34177600  0.08390900  1
  Se  Se11  1  0.00278600  0.84177600  0.41609100  1
  Se  Se12  1  0.98913300  0.98317700  0.75964500  1
  Se  Se13  1  0.01086700  0.48317700  0.74035500  1
  Se  Se14  1  0.01086700  0.01682300  0.24035500  1
  Se  Se15  1  0.98913300  0.51682300  0.25964500  1
  Se  Se16  1  0.81611100  0.91716500  0.94023800  1
  Se  Se17  1  0.18388900  0.41716500  0.55976200  1
  Se  Se18  1  0.18388900  0.08283500  0.05976200  1
  Se  Se19  1  0.81611100  0.58283500  0.44023800  1
  Se  Se20  1  0.49494200  0.97357300  0.75074600  1
  Se  Se21  1  0.50505800  0.47357300  0.74925400  1
  Se  Se22  1  0.50505800  0.02642700  0.24925400  1
  Se  Se23  1  0.49494200  0.52642700  0.25074600  1
  Se  Se24  1  0.49780200  0.15234900  0.91962700  1
  Se  Se25  1  0.50219800  0.65234900  0.58037300  1
  Se  Se26  1  0.50219800  0.84765100  0.08037300  1
  Se  Se27  1  0.49780200  0.34765100  0.41962700  1
  Se  Se28  1  0.48770700  0.68965200  0.88171800  1
  Se  Se29  1  0.51229300  0.18965200  0.61828200  1
  Se  Se30  1  0.51229300  0.31034800  0.11828200  1
  Se  Se31  1  0.48770700  0.81034800  0.38171800  1
  Se  Se32  1  0.69913800  0.91497700  0.57164100  1
  Se  Se33  1  0.30086200  0.41497700  0.92835900  1
  Se  Se34  1  0.30086200  0.08502300  0.42835900  1
  Se  Se35  1  0.69913800  0.58502300  0.07164100  1
loop_
_geom_bond_atom_site_label_1
_geom_bond_atom_site_label_2
_geom_bond_distance
_geom_bond_site_symmetry_2
Ba0 Se26 3.341085 1_556
Ba0 Se28 3.346054 1_555
Ba0 Se12 3.352486 1_455
Ba0 Se16 3.415226 1_455
Ba0 Se18 3.472218 1_566
Ba0 Se24 3.502597 1_565
Ba0 Se20 3.683619 1_555
Ba0 Se8 3.723951 1_555
Ba0 Se0 3.871334 1_555
Ba1 Se27 3.341085 1_555
Ba1 Se29 3.346054 1_555
Ba1 Se13 3.352486 1_655
Ba1 Se17 3.415226 1_655
Ba1 Se19 3.472218 1_555
Ba1 Se25 3.502597 1_555
Ba1 Se21 3.683619 1_555
Ba1 Se9 3.723951 1_555
Ba1 Se1 3.871334 1_555
Ba2 Se24 3.341085 1_554
Ba2 Se30 3.346054 1_555
Ba2 Se14 3.352486 1_655
Ba2 Se18 3.415226 1_655
Ba2 Se16 3.472218 1_544
Ba2 Se26 3.502597 1_545
Ba2 Se22 3.683619 1_555
Ba2 Se10 3.723951 1_555
Ba2 Se2 3.871334 1_555
Ba3 Se25 3.341085 1_555
Ba3 Se31 3.346054 1_555
Ba3 Se15 3.352486 1_455
Ba3 Se19 3.415226 1_455
Ba3 Se17 3.472218 1_555
Ba3 Se27 3.502597 1_555
Ba3 Se23 3.683619 1_555
Ba3 Se11 3.723951 1_555
Ba3 Se3 3.871334 1_555
Ba4 Se28 3.346409 1_555
Ba4 Se4 3.365820 1_655
Ba4 Se20 3.449064 1_555
Ba4 Se25 3.461800 1_555
Ba4 Se12 3.512360 1_555
Ba4 Se8 3.541651 1_655
Ba4 Se0 3.722363 1_555
Ba4 Se0 3.749862 1_655
Ba4 Se32 3.768495 1_555
Ba4 Se13 3.836944 1_655
Ba4 Se21 3.843522 1_555
Ba5 Se29 3.346409 1_555
Ba5 Se5 3.365820 1_455
Ba5 Se21 3.449064 1_555
Ba5 Se24 3.461800 1_555
Ba5 Se13 3.512360 1_555
Ba5 Se9 3.541651 1_455
Ba5 Se1 3.722363 1_555
Ba5 Se1 3.749862 1_455
Ba5 Se33 3.768495 1_555
Ba5 Se12 3.836944 1_445
Ba5 Se20 3.843522 1_545
Ba6 Se30 3.346409 1_555
Ba6 Se6 3.365820 1_455
Ba6 Se22 3.449064 1_555
Ba6 Se27 3.461800 1_555
Ba6 Se14 3.512360 1_555
Ba6 Se10 3.541651 1_455
Ba6 Se2 3.722363 1_555
Ba6 Se2 3.749862 1_455
Ba6 Se34 3.768495 1_555
Ba6 Se15 3.836944 1_455
Ba6 Se23 3.843522 1_555
Ba7 Se31 3.346409 1_555
Ba7 Se7 3.365820 1_655
Ba7 Se23 3.449064 1_555
Ba7 Se26 3.461800 1_555
Ba7 Se15 3.512360 1_555
Ba7 Se11 3.541651 1_655
Ba7 Se3 3.722363 1_555
Ba7 Se3 3.749862 1_655
Ba7 Se35 3.768495 1_555
Ba7 Se14 3.836944 1_665
Ba7 Se22 3.843522 1_565
Ba8 Se33 3.325836 1_555
Ba8 Se21 3.362781 1_555
Ba8 Se35 3.379289 1_556
Ba8 Se5 3.412973 1_555
Ba8 Se8 3.455471 1_655
Ba8 Se10 3.466829 1_556
Ba8 Se1 3.863786 1_555
Ba9 Se32 3.325836 1_555
Ba9 Se20 3.362781 1_555
Ba9 Se34 3.379289 1_565
Ba9 Se4 3.412973 1_555
Ba9 Se9 3.455471 1_465
Ba9 Se11 3.466829 1_555
Ba9 Se0 3.863786 1_555
Ba10 Se35 3.325836 1_555
Ba10 Se23 3.362781 1_555
Ba10 Se33 3.379289 1_554
Ba10 Se7 3.412973 1_555
Ba10 Se10 3.455471 1_455
Ba10 Se8 3.466829 1_554
Ba10 Se3 3.863786 1_555
Ba11 Se34 3.325836 1_555
Ba11 Se22 3.362781 1_555
Ba11 Se32 3.379289 1_545
Ba11 Se6 3.412973 1_555
Ba11 Se11 3.455471 1_645
Ba11 Se9 3.466829 1_555
Ba11 Se2 3.863786 1_555
Nb0 Se16 2.418005 1_545
Nb0 Se24 2.467527 1_555
Nb0 Se20 2.484452 1_545
Nb0 Se5 2.650844 1_555
Nb0 Se1 2.745281 1_555
Nb0 Se12 2.926598 1_545
Nb1 Se17 2.418005 1_555
Nb1 Se25 2.467527 1_555
Nb1 Se21 2.484452 1_555
Nb1 Se4 2.650844 1_555
Nb1 Se0 2.745281 1_555
Nb1 Se13 2.926598 1_555
Nb2 Se18 2.418005 1_565
Nb2 Se26 2.467527 1_555
Nb2 Se22 2.484452 1_565
Nb2 Se7 2.650844 1_555
Nb2 Se3 2.745281 1_555
Nb2 Se14 2.926598 1_565
Nb3 Se19 2.418005 1_555
Nb3 Se27 2.467527 1_555
Nb3 Se23 2.484452 1_555
Nb3 Se6 2.650844 1_555
Nb3 Se2 2.745281 1_555
Nb3 Se15 2.926598 1_555
Nb4 Se33 2.439593 1_555
Nb4 Se8 2.445948 1_555
Nb4 Se13 2.526485 1_555
Nb4 Se28 2.535098 1_555
Nb4 Se0 2.774755 1_555
Nb4 Se21 3.144709 1_555
Nb5 Se32 2.439593 1_545
Nb5 Se9 2.445948 1_555
Nb5 Se12 2.526485 1_545
Nb5 Se29 2.535098 1_555
Nb5 Se1 2.774755 1_555
Nb5 Se20 3.144709 1_545
Nb6 Se35 2.439593 1_555
Nb6 Se10 2.445948 1_555
Nb6 Se15 2.526485 1_555
Nb6 Se30 2.535098 1_555
Nb6 Se2 2.774755 1_555
Nb6 Se23 3.144709 1_555
Nb7 Se34 2.439593 1_565
Nb7 Se11 2.445948 1_555
Nb7 Se14 2.526485 1_565
Nb7 Se31 2.535098 1_555
Nb7 Se3 2.774755 1_555
Nb7 Se22 3.144709 1_565
Se0 Se4 2.520240 1_555
Se0 Se28 2.938627 1_555
Se1 Se5 2.520240 1_555
Se1 Se29 2.938627 1_555
Se2 Se6 2.520240 1_555
Se2 Se30 2.938627 1_555
Se3 Se7 2.520240 1_555
Se3 Se31 2.938627 1_555
