# generated using pymatgen
data_Sr
_symmetry_space_group_name_H-M   'P 1'
_cell_length_a   8.60239832
_cell_length_b   8.60239570
_cell_length_c   14.08911402
_cell_angle_alpha   90.00000000
_cell_angle_beta   90.00000000
_cell_angle_gamma   120.00000167
_symmetry_Int_Tables_number   1
_chemical_formula_structural   Sr
_chemical_formula_sum   Sr16
_cell_volume   902.92831356
_cell_formula_units_Z   16
loop_
 _symmetry_equiv_pos_site_id
 _symmetry_equiv_pos_as_xyz
  1  'x, y, z'
loop_
 _atom_site_type_symbol
 _atom_site_label
 _atom_site_symmetry_multiplicity
 _atom_site_fract_x
 _atom_site_fract_y
 _atom_site_fract_z
 _atom_site_occupancy
  Sr  Sr0_0  1  0.16666650  0.33333350  0.12500000  1
  Sr  Sr0_1  1  0.16666650  0.33333350  0.62500000  1
  Sr  Sr0_2  1  0.16666650  0.83333350  0.12500000  1
  Sr  Sr0_3  1  0.16666650  0.83333350  0.62500000  1
  Sr  Sr0_4  1  0.66666650  0.33333350  0.12500000  1
  Sr  Sr0_5  1  0.66666650  0.33333350  0.62500000  1
  Sr  Sr0_6  1  0.66666650  0.83333350  0.12500000  1
  Sr  Sr0_7  1  0.66666650  0.83333350  0.62500000  1
  Sr  Sr1_0  1  0.33333350  0.16666650  0.37500000  1
  Sr  Sr1_1  1  0.33333350  0.16666650  0.87500000  1
  Sr  Sr1_2  1  0.33333350  0.66666650  0.37500000  1
  Sr  Sr1_3  1  0.33333350  0.66666650  0.87500000  1
  Sr  Sr1_4  1  0.83333350  0.16666650  0.37500000  1
  Sr  Sr1_5  1  0.83333350  0.16666650  0.87500000  1
  Sr  Sr1_6  1  0.83333350  0.66666650  0.37500000  1
  Sr  Sr1_7  1  0.83333350  0.66666650  0.87500000  1
loop_
_geom_bond_atom_site_label_1
_geom_bond_atom_site_label_2
_geom_bond_distance
_geom_bond_site_symmetry_2
Sr0_0 Sr0_2 4.301198 1_555
Sr0_0 Sr0_2 4.301198 1_545
Sr0_0 Sr0_6 4.301198 1_445
Sr0_0 Sr0_6 4.301198 1_555
Sr0_0 Sr0_4 4.301199 1_555
Sr0_0 Sr0_4 4.301199 1_455
Sr0_0 Sr1_2 4.309664 1_555
Sr0_0 Sr1_3 4.309664 1_554
Sr0_0 Sr1_5 4.309664 1_454
Sr0_0 Sr1_4 4.309664 1_455
Sr0_0 Sr1_1 4.309668 1_554
Sr0_0 Sr1_0 4.309668 1_555
Sr0_1 Sr0_3 4.301198 1_555
Sr0_1 Sr0_3 4.301198 1_545
Sr0_1 Sr0_7 4.301198 1_555
Sr0_1 Sr0_7 4.301198 1_445
Sr0_1 Sr0_5 4.301199 1_555
Sr0_1 Sr0_5 4.301199 1_455
Sr0_1 Sr1_2 4.309664 1_555
Sr0_1 Sr1_3 4.309664 1_555
Sr0_1 Sr1_4 4.309664 1_455
Sr0_1 Sr1_5 4.309664 1_455
Sr0_1 Sr1_0 4.309668 1_555
Sr0_1 Sr1_1 4.309668 1_555
Sr0_2 Sr0_4 4.301198 1_565
Sr0_2 Sr0_4 4.301198 1_455
Sr0_2 Sr0_6 4.301199 1_455
Sr0_2 Sr0_6 4.301199 1_555
Sr0_2 Sr1_0 4.309664 1_565
Sr0_2 Sr1_1 4.309664 1_564
Sr0_2 Sr1_6 4.309664 1_455
Sr0_2 Sr1_7 4.309664 1_454
Sr0_2 Sr1_2 4.309668 1_555
Sr0_2 Sr1_3 4.309668 1_554
Sr0_3 Sr0_5 4.301198 1_565
Sr0_3 Sr0_5 4.301198 1_455
Sr0_3 Sr0_7 4.301199 1_455
Sr0_3 Sr0_7 4.301199 1_555
Sr0_3 Sr1_0 4.309664 1_565
Sr0_3 Sr1_1 4.309664 1_565
Sr0_3 Sr1_6 4.309664 1_455
Sr0_3 Sr1_7 4.309664 1_455
Sr0_3 Sr1_2 4.309668 1_555
Sr0_3 Sr1_3 4.309668 1_555
Sr0_4 Sr0_6 4.301198 1_555
Sr0_4 Sr0_6 4.301198 1_545
Sr0_4 Sr1_6 4.309664 1_555
Sr0_4 Sr1_7 4.309664 1_554
Sr0_4 Sr1_1 4.309664 1_554
Sr0_4 Sr1_0 4.309664 1_555
Sr0_4 Sr1_5 4.309668 1_554
Sr0_4 Sr1_4 4.309668 1_555
Sr0_5 Sr0_7 4.301198 1_555
Sr0_5 Sr0_7 4.301198 1_545
Sr0_5 Sr1_6 4.309664 1_555
Sr0_5 Sr1_7 4.309664 1_555
Sr0_5 Sr1_0 4.309664 1_555
Sr0_5 Sr1_1 4.309664 1_555
Sr0_5 Sr1_4 4.309668 1_555
Sr0_5 Sr1_5 4.309668 1_555
Sr0_6 Sr1_5 4.309664 1_564
Sr0_6 Sr1_4 4.309664 1_565
Sr0_6 Sr1_2 4.309664 1_555
Sr0_6 Sr1_3 4.309664 1_554
Sr0_6 Sr1_7 4.309668 1_554
Sr0_6 Sr1_6 4.309668 1_555
Sr0_7 Sr1_4 4.309664 1_565
Sr0_7 Sr1_5 4.309664 1_565
Sr0_7 Sr1_2 4.309664 1_555
Sr0_7 Sr1_3 4.309664 1_555
Sr0_7 Sr1_6 4.309668 1_555
Sr0_7 Sr1_7 4.309668 1_555
Sr1_0 Sr1_2 4.301198 1_555
Sr1_0 Sr1_2 4.301198 1_545
Sr1_0 Sr1_6 4.301198 1_555
Sr1_0 Sr1_6 4.301198 1_445
Sr1_0 Sr1_4 4.301199 1_455
Sr1_0 Sr1_4 4.301199 1_555
Sr1_1 Sr1_3 4.301198 1_545
Sr1_1 Sr1_3 4.301198 1_555
Sr1_1 Sr1_7 4.301198 1_555
Sr1_1 Sr1_7 4.301198 1_445
Sr1_1 Sr1_5 4.301199 1_455
Sr1_1 Sr1_5 4.301199 1_555
Sr1_2 Sr1_4 4.301198 1_455
Sr1_2 Sr1_4 4.301198 1_565
Sr1_2 Sr1_6 4.301199 1_555
Sr1_2 Sr1_6 4.301199 1_455
Sr1_3 Sr1_5 4.301198 1_455
Sr1_3 Sr1_5 4.301198 1_565
Sr1_3 Sr1_7 4.301199 1_455
Sr1_3 Sr1_7 4.301199 1_555
Sr1_4 Sr1_6 4.301198 1_555
Sr1_4 Sr1_6 4.301198 1_545
Sr1_5 Sr1_7 4.301198 1_545
Sr1_5 Sr1_7 4.301198 1_555
