# generated using pymatgen
data_CeMg6B
_symmetry_space_group_name_H-M   'P 1'
_cell_length_a   6.48700285
_cell_length_b   6.48700285
_cell_length_c   4.34882679
_cell_angle_alpha   90.00000000
_cell_angle_beta   90.00000000
_cell_angle_gamma   103.23684845
_symmetry_Int_Tables_number   1
_chemical_formula_structural   CeMg6B
_chemical_formula_sum   'Ce1 Mg6 B1'
_cell_volume   178.14180005
_cell_formula_units_Z   1
loop_
 _symmetry_equiv_pos_site_id
 _symmetry_equiv_pos_as_xyz
  1  'x, y, z'
loop_
 _atom_site_type_symbol
 _atom_site_label
 _atom_site_symmetry_multiplicity
 _atom_site_fract_x
 _atom_site_fract_y
 _atom_site_fract_z
 _atom_site_occupancy
  Ce  Ce0  1  0.88141696  0.11858304  0.00000000  1
  Mg  Mg0  1  0.79785459  0.57613494  0.00000000  1
  Mg  Mg1  1  0.42386506  0.20214541  0.00000000  1
  Mg  Mg2  1  0.30861580  0.69138420  0.00000000  1
  Mg  Mg3  1  0.59157978  0.85558960  0.50000000  1
  Mg  Mg4  1  0.14441040  0.40842022  0.50000000  1
  Mg  Mg5  1  0.11028826  0.88971174  0.50000000  1
  B  B0  1  0.74197014  0.25802986  0.50000000  1
loop_
_geom_bond_atom_site_label_1
_geom_bond_atom_site_label_2
_geom_bond_distance
_geom_bond_site_symmetry_2
Ce0 Mg5 3.185301 1_644
Ce0 Mg5 3.185301 1_645
Mg0 Mg2 3.225300 1_655
Mg0 Mg5 3.329511 1_655
Mg0 Mg5 3.329511 1_654
Mg0 Mg2 3.423137 1_555
Mg1 Mg2 3.225300 1_545
Mg1 Mg5 3.329511 1_544
Mg1 Mg5 3.329511 1_545
Mg1 Mg2 3.423137 1_555
Mg2 Mg3 2.887332 1_555
Mg2 Mg3 2.887332 1_554
Mg2 Mg4 2.887332 1_555
Mg2 Mg4 2.887332 1_554
Mg2 Mg5 2.965892 1_555
Mg2 Mg5 2.965892 1_554
Mg3 Mg5 3.180132 1_555
Mg3 Mg5 3.321176 1_655
Mg4 Mg5 3.180132 1_555
Mg4 Mg5 3.321176 1_545
B0 Mg4 2.569202 1_655
B0 Mg3 2.569202 1_545
B0 Ce0 2.596032 1_556
B0 Ce0 2.596032 1_555
