# generated using pymatgen
data_YMg3
_symmetry_space_group_name_H-M   'P 1'
_cell_length_a   4.88666019
_cell_length_b   4.88666019
_cell_length_c   4.21986007
_cell_angle_alpha   90.00000000
_cell_angle_beta   90.00000000
_cell_angle_gamma   90.00000000
_symmetry_Int_Tables_number   1
_chemical_formula_structural   YMg3
_chemical_formula_sum   'Y1 Mg3'
_cell_volume   100.76792832
_cell_formula_units_Z   1
loop_
 _symmetry_equiv_pos_site_id
 _symmetry_equiv_pos_as_xyz
  1  'x, y, z'
loop_
 _atom_site_type_symbol
 _atom_site_label
 _atom_site_symmetry_multiplicity
 _atom_site_fract_x
 _atom_site_fract_y
 _atom_site_fract_z
 _atom_site_occupancy
  Y  Y0  1  0.00000000  -0.00000000  0.50000000  1
  Mg  Mg0  1  0.00000000  0.50000000  -0.00000000  1
  Mg  Mg1  1  0.50000000  -0.00000000  -0.00000000  1
  Mg  Mg2  1  0.50000000  0.50000000  0.50000000  1
loop_
_geom_bond_atom_site_label_1
_geom_bond_atom_site_label_2
_geom_bond_distance
_geom_bond_site_symmetry_2
Mg0 Mg2 3.228261 1_555
Mg0 Y0 3.228261 1_565
Mg0 Y0 3.228261 1_555
Mg0 Mg2 3.228261 1_554
Mg0 Y0 3.228261 1_564
Mg0 Mg2 3.228261 1_455
Mg0 Mg2 3.228261 1_454
Mg0 Y0 3.228261 1_554
Mg0 Mg1 3.455391 1_555
Mg0 Mg1 3.455391 1_565
Mg0 Mg1 3.455391 1_455
Mg0 Mg1 3.455391 1_465
Mg1 Mg2 3.228261 1_545
Mg1 Y0 3.228261 1_555
Mg1 Mg2 3.228261 1_555
Mg1 Mg2 3.228261 1_544
Mg1 Mg2 3.228261 1_554
Mg1 Y0 3.228261 1_655
Mg1 Y0 3.228261 1_654
Mg1 Y0 3.228261 1_554
Mg2 Y0 3.455391 1_655
Mg2 Y0 3.455391 1_555
Mg2 Y0 3.455391 1_565
Mg2 Y0 3.455391 1_665
