# generated using pymatgen
data_Mg2Ti3FeS8
_symmetry_space_group_name_H-M   'P 1'
_cell_length_a   7.25954689
_cell_length_b   7.27145039
_cell_length_c   7.27030473
_cell_angle_alpha   59.10381370
_cell_angle_beta   59.01922212
_cell_angle_gamma   58.97219215
_symmetry_Int_Tables_number   1
_chemical_formula_structural   Mg2Ti3FeS8
_chemical_formula_sum   'Mg2 Ti3 Fe1 S8'
_cell_volume   265.38065864
_cell_formula_units_Z   1
loop_
 _symmetry_equiv_pos_site_id
 _symmetry_equiv_pos_as_xyz
  1  'x, y, z'
loop_
 _atom_site_type_symbol
 _atom_site_label
 _atom_site_symmetry_multiplicity
 _atom_site_fract_x
 _atom_site_fract_y
 _atom_site_fract_z
 _atom_site_occupancy
  Mg  Mg0  1  0.87567225  0.87616332  0.87612798  1
  Mg  Mg1  1  0.12432990  0.12383935  0.12387244  1
  Ti  Ti0  1  0.50000318  0.49999270  0.00000649  1
  Ti  Ti1  1  0.99999831  0.49999068  0.50001440  1
  Ti  Ti2  1  0.49999640  0.99998681  0.50000614  1
  Fe  Fe0  1  0.50000399  0.50001884  0.49998138  1
  S  S0  1  0.74235017  0.74229138  0.74233789  1
  S  S1  1  0.26899830  0.26879287  0.71397141  1
  S  S2  1  0.26885350  0.71389509  0.26884477  1
  S  S3  1  0.71372783  0.26884362  0.26933446  1
  S  S4  1  0.73113652  0.28611144  0.73114222  1
  S  S5  1  0.28626841  0.73114770  0.73066729  1
  S  S6  1  0.25764492  0.25770477  0.25767510  1
  S  S7  1  0.73102032  0.73121642  0.28601903  1
loop_
_geom_bond_atom_site_label_1
_geom_bond_atom_site_label_2
_geom_bond_distance
_geom_bond_site_symmetry_2
Mg0 S0 2.396529 1_555
Mg0 S5 2.403090 1_655
Mg0 S4 2.405253 1_565
Mg0 S7 2.405810 1_556
Mg1 S6 2.396523 1_555
Mg1 S3 2.403122 1_455
Mg1 S2 2.405226 1_545
Mg1 S1 2.405872 1_554
Fe0 S5 2.360562 1_555
Fe0 S3 2.360608 1_555
Fe0 S2 2.363713 1_555
Fe0 S4 2.363730 1_555
Fe0 S7 2.365106 1_555
Fe0 S1 2.365187 1_555
S0 Ti1 2.470721 1_555
S0 Ti2 2.472403 1_555
S0 Ti0 2.474202 1_556
S1 Ti2 2.471924 1_545
S1 Ti1 2.473191 1_455
S2 Ti0 2.471854 1_555
S2 Ti1 2.474115 1_455
S3 Ti2 2.474487 1_545
S3 Ti0 2.475047 1_555
S4 Ti0 2.471900 1_556
S4 Ti1 2.474041 1_555
S5 Ti2 2.474376 1_555
S5 Ti0 2.475157 1_556
S6 Ti1 2.470726 1_455
S6 Ti2 2.472392 1_545
S6 Ti0 2.474204 1_555
S7 Ti2 2.471824 1_555
S7 Ti1 2.473251 1_555
