# generated using pymatgen
data_Sr5Nb5O17
_symmetry_space_group_name_H-M   'P 1'
_cell_length_a   4.04950900
_cell_length_b   5.76699100
_cell_length_c   33.12391600
_cell_angle_alpha   90.00000000
_cell_angle_beta   90.00000000
_cell_angle_gamma   90.00000000
_symmetry_Int_Tables_number   1
_chemical_formula_structural   Sr5Nb5O17
_chemical_formula_sum   'Sr10 Nb10 O34'
_cell_volume   773.55877467
_cell_formula_units_Z   2
loop_
 _symmetry_equiv_pos_site_id
 _symmetry_equiv_pos_as_xyz
  1  'x, y, z'
loop_
 _atom_site_type_symbol
 _atom_site_label
 _atom_site_symmetry_multiplicity
 _atom_site_fract_x
 _atom_site_fract_y
 _atom_site_fract_z
 _atom_site_occupancy
  Sr  Sr0  1  0.98746100  0.06509400  0.28407200  1
  Sr  Sr1  1  0.98746100  0.93490600  0.71592800  1
  Sr  Sr2  1  0.48746100  0.56509400  0.21592800  1
  Sr  Sr3  1  0.48746100  0.43490600  0.78407200  1
  Sr  Sr4  1  0.49820400  0.50000000  0.00000000  1
  Sr  Sr5  1  0.99820400  0.00000000  0.50000000  1
  Sr  Sr6  1  0.48793200  0.00162500  0.08942700  1
  Sr  Sr7  1  0.48793200  0.99837500  0.91057300  1
  Sr  Sr8  1  0.98793200  0.50162500  0.41057300  1
  Sr  Sr9  1  0.98793200  0.49837500  0.58942700  1
  Nb  Nb0  1  0.98874500  0.00000000  0.00000000  1
  Nb  Nb1  1  0.48874500  0.50000000  0.50000000  1
  Nb  Nb2  1  0.99371700  0.03507500  0.17684900  1
  Nb  Nb3  1  0.99371700  0.96492500  0.82315100  1
  Nb  Nb4  1  0.49371700  0.53507500  0.32315100  1
  Nb  Nb5  1  0.49371700  0.46492500  0.67684900  1
  Nb  Nb6  1  0.99161300  0.50625200  0.09027700  1
  Nb  Nb7  1  0.99161300  0.49374800  0.90972300  1
  Nb  Nb8  1  0.49161300  0.00625200  0.40972300  1
  Nb  Nb9  1  0.49161300  0.99374800  0.59027700  1
  O  O0  1  0.00025400  0.72519300  0.96321200  1
  O  O1  1  0.00025400  0.27480700  0.03678800  1
  O  O2  1  0.50025400  0.22519300  0.53678800  1
  O  O3  1  0.50025400  0.77480700  0.46321200  1
  O  O4  1  0.98522600  0.77253100  0.04783400  1
  O  O5  1  0.98522600  0.22746900  0.95216600  1
  O  O6  1  0.48522600  0.27253100  0.45216600  1
  O  O7  1  0.48522600  0.72746900  0.54783400  1
  O  O8  1  0.49208600  0.00000000  0.00000000  1
  O  O9  1  0.99208600  0.50000000  0.50000000  1
  O  O10  1  0.48943000  0.79897100  0.29105600  1
  O  O11  1  0.48943000  0.20102900  0.70894400  1
  O  O12  1  0.98943000  0.29897100  0.20894400  1
  O  O13  1  0.98943000  0.70102900  0.79105600  1
  O  O14  1  0.48726300  0.70561900  0.37964600  1
  O  O15  1  0.48726300  0.29438100  0.62035400  1
  O  O16  1  0.98726300  0.20561900  0.12035400  1
  O  O17  1  0.98726300  0.79438100  0.87964600  1
  O  O18  1  0.50746500  0.22256800  0.36755200  1
  O  O19  1  0.50746500  0.77743200  0.63244800  1
  O  O20  1  0.00746500  0.72256800  0.13244800  1
  O  O21  1  0.00746500  0.27743200  0.86755200  1
  O  O22  1  0.98791600  0.81671400  0.22024000  1
  O  O23  1  0.98791600  0.18328600  0.77976000  1
  O  O24  1  0.48791600  0.31671400  0.27976000  1
  O  O25  1  0.48791600  0.68328600  0.72024000  1
  O  O26  1  0.49345800  0.00268300  0.16883600  1
  O  O27  1  0.49345800  0.99731700  0.83116400  1
  O  O28  1  0.99345800  0.50268300  0.33116400  1
  O  O29  1  0.99345800  0.49731700  0.66883600  1
  O  O30  1  0.49444700  0.48815500  0.08284700  1
  O  O31  1  0.49444700  0.51184500  0.91715300  1
  O  O32  1  0.99444700  0.98815500  0.41715300  1
  O  O33  1  0.99444700  0.01184500  0.58284700  1
loop_
_geom_bond_atom_site_label_1
_geom_bond_atom_site_label_2
_geom_bond_distance
_geom_bond_site_symmetry_2
Nb0 O1 1.999672 1_655
Nb0 O0 1.999672 1_644
Nb0 O8 2.011225 1_555
Nb0 O8 2.038284 1_655
Nb0 O4 2.057069 1_545
Nb0 O5 2.057069 1_554
Nb1 O3 1.999672 1_555
Nb1 O2 1.999672 1_555
Nb1 O9 2.011225 1_455
Nb1 O9 2.038284 1_555
Nb1 O6 2.057069 1_555
Nb1 O7 2.057069 1_555
Nb2 O12 1.856514 1_555
Nb2 O22 1.911054 1_545
Nb2 O26 2.049568 1_655
Nb2 O26 2.051639 1_555
Nb2 O16 2.114214 1_555
Nb2 O20 2.326838 1_645
Nb3 O13 1.856514 1_555
Nb3 O23 1.911054 1_565
Nb3 O27 2.049568 1_655
Nb3 O27 2.051639 1_555
Nb3 O17 2.114214 1_555
Nb3 O21 2.326838 1_665
Nb4 O10 1.856514 1_555
Nb4 O24 1.911054 1_555
Nb4 O28 2.049568 1_555
Nb4 O28 2.051639 1_455
Nb4 O14 2.114214 1_555
Nb4 O18 2.326838 1_555
Nb5 O11 1.856514 1_555
Nb5 O25 1.911054 1_555
Nb5 O29 2.049568 1_555
Nb5 O29 2.051639 1_455
Nb5 O15 2.114214 1_555
Nb5 O19 2.326838 1_555
Nb6 O20 1.873926 1_655
Nb6 O16 1.999685 1_555
Nb6 O30 2.030948 1_555
Nb6 O30 2.053704 1_655
Nb6 O4 2.082143 1_555
Nb6 O1 2.218538 1_655
Nb7 O21 1.873926 1_655
Nb7 O17 1.999685 1_555
Nb7 O31 2.030948 1_555
Nb7 O31 2.053704 1_655
Nb7 O5 2.082143 1_555
Nb7 O0 2.218538 1_655
Nb8 O18 1.873926 1_555
Nb8 O14 1.999685 1_545
Nb8 O32 2.030948 1_445
Nb8 O32 2.053704 1_545
Nb8 O6 2.082143 1_555
Nb8 O3 2.218538 1_545
Nb9 O19 1.873926 1_555
Nb9 O15 1.999685 1_565
Nb9 O33 2.030948 1_465
Nb9 O33 2.053704 1_565
Nb9 O7 2.082143 1_555
Nb9 O2 2.218538 1_565
O0 Sr4 2.690272 1_556
O0 Sr4 2.702739 1_456
O0 Sr7 3.069567 1_555
O0 Sr7 3.134703 1_455
O1 Sr4 2.690272 1_555
O1 Sr4 2.702739 1_455
O1 Sr6 3.069567 1_555
O1 Sr6 3.134703 1_455
O2 Sr5 2.690272 1_555
O2 Sr5 2.702739 1_455
O2 Sr9 3.069567 1_555
O2 Sr9 3.134703 1_455
O3 Sr5 2.690272 1_565
O3 Sr5 2.702739 1_465
O3 Sr8 3.069567 1_555
O3 Sr8 3.134703 1_455
O4 Sr6 2.774711 1_565
O4 Sr6 2.790658 1_665
O4 Sr4 2.978295 1_555
O4 Sr4 3.048915 1_655
O5 Sr7 2.774711 1_545
O5 Sr7 2.790658 1_645
O5 Sr4 2.978295 1_556
O5 Sr4 3.048915 1_656
O6 Sr8 2.774711 1_455
O6 Sr8 2.790658 1_555
O6 Sr5 2.978295 1_455
O6 Sr5 3.048915 1_555
O7 Sr9 2.774711 1_455
O7 Sr9 2.790658 1_555
O7 Sr5 2.978295 1_465
O7 Sr5 3.048915 1_565
O8 Sr4 2.883602 1_555
O8 Sr4 2.883602 1_545
O8 Sr6 2.962235 1_555
O8 Sr7 2.962235 1_544
O9 Sr5 2.883602 1_555
O9 Sr5 2.883602 1_565
O9 Sr8 2.962235 1_555
O9 Sr9 2.962235 1_555
O10 Sr0 2.544861 1_565
O10 Sr0 2.557517 1_465
O10 Sr2 2.830554 1_555
O11 Sr1 2.544861 1_545
O11 Sr1 2.557517 1_445
O11 Sr3 2.830554 1_555
O12 Sr2 2.544861 1_655
O12 Sr2 2.557517 1_555
O12 Sr0 2.830554 1_555
O13 Sr3 2.544861 1_655
O13 Sr3 2.557517 1_555
O13 Sr1 2.830554 1_555
O14 Sr8 2.553841 1_455
O14 Sr8 2.558133 1_555
O15 Sr9 2.553841 1_455
O15 Sr9 2.558133 1_555
O16 Sr6 2.553841 1_555
O16 Sr6 2.558133 1_655
O17 Sr7 2.553841 1_555
O17 Sr7 2.558133 1_655
O18 Sr8 2.899341 1_555
O18 Sr8 3.007790 1_455
O19 Sr9 2.899341 1_555
O19 Sr9 3.007790 1_455
O20 Sr6 2.899341 1_565
O20 Sr6 3.007790 1_465
O21 Sr7 2.899341 1_545
O21 Sr7 3.007790 1_445
O22 Sr2 2.493639 1_655
O22 Sr2 2.496630 1_555
O22 Sr0 2.553885 1_565
O23 Sr3 2.493639 1_655
O23 Sr3 2.496630 1_555
O23 Sr1 2.553885 1_545
O24 Sr0 2.493639 1_555
O24 Sr0 2.496630 1_455
O24 Sr2 2.553885 1_555
O25 Sr1 2.493639 1_555
O25 Sr1 2.496630 1_455
O25 Sr3 2.553885 1_555
O26 Sr6 2.630439 1_555
O26 Sr2 2.966851 1_545
O27 Sr7 2.630439 1_555
O27 Sr3 2.966851 1_565
O28 Sr8 2.630439 1_555
O28 Sr0 2.966851 1_555
O29 Sr9 2.630439 1_555
O29 Sr1 2.966851 1_555
O30 Sr4 2.745109 1_555
O30 Sr6 2.814390 1_555
O30 Sr6 2.969304 1_565
O31 Sr4 2.745109 1_556
O31 Sr7 2.814390 1_555
O31 Sr7 2.969304 1_545
O32 Sr5 2.745109 1_565
O32 Sr8 2.814390 1_555
O32 Sr8 2.969304 1_565
O33 Sr5 2.745109 1_555
O33 Sr9 2.814390 1_555
O33 Sr9 2.969304 1_545
