# generated using pymatgen
data_Mg2TiMn3S8
_symmetry_space_group_name_H-M   'P 1'
_cell_length_a   7.30750100
_cell_length_b   7.30856919
_cell_length_c   7.30652794
_cell_angle_alpha   60.16933739
_cell_angle_beta   60.14872480
_cell_angle_gamma   60.17903002
_symmetry_Int_Tables_number   1
_chemical_formula_structural   Mg2TiMn3S8
_chemical_formula_sum   'Mg2 Ti1 Mn3 S8'
_cell_volume   276.96444305
_cell_formula_units_Z   1
loop_
 _symmetry_equiv_pos_site_id
 _symmetry_equiv_pos_as_xyz
  1  'x, y, z'
loop_
 _atom_site_type_symbol
 _atom_site_label
 _atom_site_symmetry_multiplicity
 _atom_site_fract_x
 _atom_site_fract_y
 _atom_site_fract_z
 _atom_site_occupancy
  Mg  Mg0  1  0.87320069  0.87298815  0.87314381  1
  Mg  Mg1  1  0.12684790  0.12697430  0.12687552  1
  Ti  Ti0  1  0.50005936  0.50002995  0.49991856  1
  Mn  Mn0  1  0.49994201  0.49999679  0.00005389  1
  Mn  Mn1  1  0.99996105  0.50004776  0.49991034  1
  Mn  Mn2  1  0.50003443  0.00003141  0.49988815  1
  S  S0  1  0.73720589  0.73702952  0.73707585  1
  S  S1  1  0.26281834  0.26277596  0.71734906  1
  S  S2  1  0.26279809  0.71709752  0.26295719  1
  S  S3  1  0.71714186  0.26291588  0.26292891  1
  S  S4  1  0.73716806  0.28286999  0.73708151  1
  S  S5  1  0.28284675  0.73719442  0.73695479  1
  S  S6  1  0.26280720  0.26284839  0.26311931  1
  S  S7  1  0.73717237  0.73719495  0.28274410  1
loop_
_geom_bond_atom_site_label_1
_geom_bond_atom_site_label_2
_geom_bond_distance
_geom_bond_site_symmetry_2
Mg0 S0 2.431437 1_555
Mg0 S7 2.448341 1_556
Mg0 S5 2.449178 1_655
Mg0 S4 2.451451 1_565
Mg1 S6 2.431770 1_555
Mg1 S1 2.447900 1_554
Mg1 S3 2.449537 1_455
Mg1 S2 2.451421 1_545
Mn0 S6 2.461377 1_555
Mn0 S0 2.461391 1_554
Mn0 S2 2.488828 1_555
Mn0 S4 2.489329 1_554
Mn0 S3 2.489808 1_555
Mn0 S5 2.490504 1_554
Mn1 S6 2.460070 1_655
Mn1 S0 2.460778 1_555
Mn1 S2 2.488074 1_655
Mn1 S4 2.488458 1_555
Mn1 S7 2.489253 1_555
Mn1 S1 2.490965 1_655
Mn2 S6 2.460736 1_555
Mn2 S0 2.462610 1_545
Mn2 S3 2.488740 1_555
Mn2 S5 2.488874 1_545
Mn2 S7 2.488886 1_545
Mn2 S1 2.489947 1_555
S1 Ti0 2.458354 1_555
S2 Ti0 2.457734 1_555
S3 Ti0 2.456558 1_555
S4 Ti0 2.457959 1_555
S5 Ti0 2.457026 1_555
S7 Ti0 2.457294 1_555
