# generated using pymatgen
data_ScAs2H4NO7
_symmetry_space_group_name_H-M   'P 1'
_cell_length_a   10.74485200
_cell_length_b   8.54788100
_cell_length_c   9.71406111
_cell_angle_alpha   67.01979203
_cell_angle_beta   90.00000000
_cell_angle_gamma   90.00000000
_symmetry_Int_Tables_number   1
_chemical_formula_structural   ScAs2H4NO7
_chemical_formula_sum   'Sc4 As8 H16 N4 O28'
_cell_volume   821.39010920
_cell_formula_units_Z   4
loop_
 _symmetry_equiv_pos_site_id
 _symmetry_equiv_pos_as_xyz
  1  'x, y, z'
loop_
 _atom_site_type_symbol
 _atom_site_label
 _atom_site_symmetry_multiplicity
 _atom_site_fract_x
 _atom_site_fract_y
 _atom_site_fract_z
 _atom_site_occupancy
  Sc  Sc0  1  0.14256600  0.22317000  0.73876900  1
  Sc  Sc1  1  0.64256600  0.77683000  0.76123100  1
  Sc  Sc2  1  0.85743400  0.77683000  0.26123100  1
  Sc  Sc3  1  0.35743400  0.22317000  0.23876900  1
  As  As0  1  0.44093300  0.17251400  0.61494300  1
  As  As1  1  0.94093300  0.82748600  0.88505700  1
  As  As2  1  0.55906700  0.82748600  0.38505700  1
  As  As3  1  0.05906700  0.17251400  0.11494300  1
  As  As4  1  0.11275500  0.42042900  0.32640500  1
  As  As5  1  0.61275500  0.57957100  0.17359500  1
  As  As6  1  0.88724500  0.57957100  0.67359500  1
  As  As7  1  0.38724500  0.42042900  0.82640500  1
  H  H0  1  0.05901400  0.96540500  0.66065200  1
  H  H1  1  0.55901400  0.03459500  0.83934800  1
  H  H2  1  0.94098600  0.03459500  0.33934800  1
  H  H3  1  0.44098600  0.96540500  0.16065200  1
  H  H4  1  0.30489100  0.99455100  0.51644300  1
  H  H5  1  0.80489100  0.00544900  0.98355700  1
  H  H6  1  0.69510900  0.00544900  0.48355700  1
  H  H7  1  0.19510900  0.99455100  0.01644300  1
  H  H8  1  0.06331700  0.64710100  0.38303800  1
  H  H9  1  0.56331700  0.35289900  0.11696200  1
  H  H10  1  0.93668300  0.35289900  0.61696200  1
  H  H11  1  0.43668300  0.64710100  0.88303800  1
  H  H12  1  0.19901100  0.68641200  0.68225200  1
  H  H13  1  0.69901100  0.31358800  0.81774800  1
  H  H14  1  0.80098900  0.31358800  0.31774800  1
  H  H15  1  0.30098900  0.68641200  0.18225200  1
  N  N0  1  0.19473800  0.81598500  0.61368200  1
  N  N1  1  0.69473800  0.18401500  0.88631800  1
  N  N2  1  0.80526200  0.18401500  0.38631800  1
  N  N3  1  0.30526200  0.81598500  0.11368200  1
  O  O0  1  0.12375600  0.07292100  0.97373500  1
  O  O1  1  0.62375600  0.92707900  0.52626500  1
  O  O2  1  0.87624400  0.92707900  0.02626500  1
  O  O3  1  0.37624400  0.07292100  0.47373500  1
  O  O4  1  0.09345800  0.33844300  0.51521800  1
  O  O5  1  0.59345800  0.66155700  0.98478200  1
  O  O6  1  0.90654200  0.66155700  0.48478200  1
  O  O7  1  0.40654200  0.33844300  0.01521800  1
  O  O8  1  0.02377700  0.01357200  0.72991700  1
  O  O9  1  0.52377700  0.98642800  0.77008300  1
  O  O10  1  0.97622300  0.98642800  0.27008300  1
  O  O11  1  0.47622300  0.01357200  0.22991700  1
  O  O12  1  0.29788500  0.12890800  0.70880300  1
  O  O13  1  0.79788500  0.87109200  0.79119700  1
  O  O14  1  0.70211500  0.87109200  0.29119700  1
  O  O15  1  0.20211500  0.12890800  0.20880300  1
  O  O16  1  0.93197400  0.35928500  0.71678800  1
  O  O17  1  0.43197400  0.64071500  0.78321200  1
  O  O18  1  0.06802600  0.64071500  0.28321200  1
  O  O19  1  0.56802600  0.35928500  0.21678800  1
  O  O20  1  0.23475800  0.42442700  0.77309000  1
  O  O21  1  0.73475800  0.57557300  0.72691000  1
  O  O22  1  0.76524200  0.57557300  0.22691000  1
  O  O23  1  0.26524200  0.42442700  0.27309000  1
  O  O24  1  0.01046600  0.34860500  0.23227600  1
  O  O25  1  0.51046600  0.65139500  0.26772400  1
  O  O26  1  0.98953400  0.65139500  0.76772400  1
  O  O27  1  0.48953400  0.34860500  0.73227600  1
loop_
_geom_bond_atom_site_label_1
_geom_bond_atom_site_label_2
_geom_bond_distance
_geom_bond_site_symmetry_2
As0 O12 1.751383 1_555
As0 O9 1.929223 1_545
As0 O3 2.000307 1_555
As0 O27 2.275309 1_555
As1 O13 1.751383 1_555
As1 O8 1.929223 1_665
As1 O2 2.000307 1_556
As1 O26 2.275309 1_555
As2 O14 1.751383 1_555
As2 O11 1.929223 1_565
As2 O1 2.000307 1_555
As2 O25 2.275309 1_555
As3 O15 1.751383 1_555
As3 O10 1.929223 1_445
As3 O0 2.000307 1_554
As3 O24 2.275309 1_555
As4 O24 1.690952 1_555
As4 O4 1.701334 1_555
As4 O23 1.714670 1_555
As4 O18 1.826400 1_555
As5 O25 1.690952 1_555
As5 O5 1.701334 1_554
As5 O22 1.714670 1_555
As5 O19 1.826400 1_555
As6 O26 1.690952 1_555
As6 O6 1.701334 1_555
As6 O21 1.714670 1_555
As6 O16 1.826400 1_555
As7 O27 1.690952 1_555
As7 O7 1.701334 1_556
As7 O20 1.714670 1_555
As7 O17 1.826400 1_555
H0 O8 0.990908 1_565
H1 O9 0.990908 1_545
H2 O10 0.990908 1_545
H3 O11 0.990908 1_565
H4 O3 0.995824 1_565
H5 O2 0.995824 1_546
H6 O1 0.995824 1_545
H7 O0 0.995824 1_564
H8 O18 0.993590 1_555
H9 O19 0.993590 1_555
H10 O16 0.993590 1_555
H11 O17 0.993590 1_555
H12 N0 1.047118 1_555
H13 N1 1.047118 1_555
H14 N2 1.047118 1_555
H15 N3 1.047118 1_555
O0 Sc0 2.147341 1_555
O1 Sc1 2.147341 1_555
O2 Sc2 2.147341 1_555
O3 Sc3 2.147341 1_555
O4 Sc0 2.072278 1_555
O5 Sc1 2.072278 1_555
O6 Sc2 2.072278 1_555
O7 Sc3 2.072278 1_555
O8 Sc0 2.228611 1_555
O9 Sc1 2.228611 1_555
O10 Sc2 2.228611 1_555
O11 Sc3 2.228611 1_555
O12 Sc0 1.924123 1_555
O13 Sc1 1.924123 1_555
O14 Sc2 1.924123 1_555
O15 Sc3 1.924123 1_555
O16 Sc0 2.515055 1_655
O17 Sc1 2.515055 1_555
O18 Sc2 2.515055 1_455
O19 Sc3 2.515055 1_555
O20 Sc0 2.121265 1_555
O21 Sc1 2.121265 1_555
O22 Sc2 2.121265 1_555
O23 Sc3 2.121265 1_555
