# generated using pymatgen
data_BaSrTbBiO6
_symmetry_space_group_name_H-M   'P 1'
_cell_length_a   8.64227744
_cell_length_b   8.65249143
_cell_length_c   8.62797701
_cell_angle_alpha   90.00000000
_cell_angle_beta   90.00000000
_cell_angle_gamma   90.00000000
_symmetry_Int_Tables_number   1
_chemical_formula_structural   BaSrTbBiO6
_chemical_formula_sum   'Ba4 Sr4 Tb4 Bi4 O24'
_cell_volume   645.17623413
_cell_formula_units_Z   4
loop_
 _symmetry_equiv_pos_site_id
 _symmetry_equiv_pos_as_xyz
  1  'x, y, z'
loop_
 _atom_site_type_symbol
 _atom_site_label
 _atom_site_symmetry_multiplicity
 _atom_site_fract_x
 _atom_site_fract_y
 _atom_site_fract_z
 _atom_site_occupancy
  Ba  Ba0  1  0.00000000  0.00000000  0.00000000  1
  Ba  Ba1  1  0.50000000  0.50000000  0.50000000  1
  Ba  Ba2  1  0.50000000  0.50000000  -0.00000000  1
  Ba  Ba3  1  0.00000000  -0.00000000  0.50000000  1
  Sr  Sr0  1  0.00000000  0.50000000  0.50000000  1
  Sr  Sr1  1  0.50000000  0.00000000  0.50000000  1
  Sr  Sr2  1  0.50000000  0.00000000  0.00000000  1
  Sr  Sr3  1  0.00000000  0.50000000  0.00000000  1
  Tb  Tb0  1  0.25000000  0.25000000  0.25000000  1
  Tb  Tb1  1  0.75000000  0.75000000  0.25000000  1
  Tb  Tb2  1  0.75000000  0.25000000  0.75000000  1
  Tb  Tb3  1  0.25000000  0.75000000  0.75000000  1
  Bi  Bi0  1  0.75000000  0.75000000  0.75000000  1
  Bi  Bi1  1  0.25000000  0.25000000  0.75000000  1
  Bi  Bi2  1  0.25000000  0.75000000  0.25000000  1
  Bi  Bi3  1  0.75000000  0.25000000  0.25000000  1
  O  O0  1  0.99346269  0.22237618  0.27676047  1
  O  O1  1  0.00653731  0.77762382  0.27676047  1
  O  O2  1  0.00653731  0.22237618  0.72323953  1
  O  O3  1  0.99346269  0.77762382  0.72323953  1
  O  O4  1  0.27954475  0.99247486  0.20926968  1
  O  O5  1  0.27954475  0.00752514  0.79073032  1
  O  O6  1  0.72045525  0.00752514  0.20926968  1
  O  O7  1  0.72045525  0.99247486  0.79073032  1
  O  O8  1  0.21612682  0.28799153  0.99242461  1
  O  O9  1  0.78387318  0.28799153  0.00757539  1
  O  O10  1  0.21612682  0.71200847  0.00757539  1
  O  O11  1  0.78387318  0.71200847  0.99242461  1
  O  O12  1  0.50653731  0.27762382  0.22323953  1
  O  O13  1  0.49346269  0.72237618  0.22323953  1
  O  O14  1  0.49346269  0.27762382  0.77676047  1
  O  O15  1  0.50653731  0.72237618  0.77676047  1
  O  O16  1  0.22045525  0.50752514  0.29073032  1
  O  O17  1  0.22045525  0.49247486  0.70926968  1
  O  O18  1  0.77954475  0.49247486  0.29073032  1
  O  O19  1  0.77954475  0.50752514  0.70926968  1
  O  O20  1  0.28387318  0.21200847  0.50757539  1
  O  O21  1  0.71612682  0.21200847  0.49242461  1
  O  O22  1  0.28387318  0.78799153  0.49242461  1
  O  O23  1  0.71612682  0.78799153  0.50757539  1
loop_
_geom_bond_atom_site_label_1
_geom_bond_atom_site_label_2
_geom_bond_distance
_geom_bond_site_symmetry_2
Ba0 O5 3.016774 1_554
Ba0 O7 3.016774 1_444
Ba0 O6 3.016774 1_455
Ba0 O4 3.016774 1_545
Ba0 O2 3.067143 1_554
Ba0 O1 3.067143 1_545
Ba0 O0 3.067143 1_455
Ba0 O3 3.067143 1_444
Ba0 O9 3.114858 1_455
Ba0 O11 3.114858 1_444
Ba0 O10 3.114858 1_545
Ba0 O8 3.114858 1_554
Ba1 O17 3.016774 1_555
Ba1 O18 3.016774 1_555
Ba1 O16 3.016774 1_555
Ba1 O19 3.016774 1_555
Ba1 O14 3.067143 1_555
Ba1 O12 3.067143 1_555
Ba1 O15 3.067143 1_555
Ba1 O13 3.067143 1_555
Ba1 O22 3.114858 1_555
Ba1 O20 3.114858 1_555
Ba1 O23 3.114858 1_555
Ba1 O21 3.114858 1_555
Ba2 O12 2.723099 1_555
Ba2 O14 2.723099 1_554
Ba2 O15 2.723099 1_554
Ba2 O13 2.723099 1_555
Ba2 O8 3.063990 1_554
Ba2 O10 3.063990 1_555
Ba2 O9 3.063990 1_555
Ba2 O11 3.063990 1_554
Ba3 O2 2.723099 1_555
Ba3 O3 2.723099 1_445
Ba3 O0 2.723099 1_455
Ba3 O1 2.723099 1_545
Ba3 O23 3.063990 1_445
Ba3 O21 3.063990 1_455
Ba3 O20 3.063990 1_555
Ba3 O22 3.063990 1_545
Bi0 O15 2.130154 1_555
Bi0 O3 2.130154 1_555
Bi0 O23 2.137449 1_555
Bi0 O11 2.137449 1_555
Bi0 O19 2.142509 1_555
Bi0 O7 2.142509 1_555
Bi1 O2 2.130154 1_555
Bi1 O14 2.130154 1_555
Bi1 O20 2.137449 1_555
Bi1 O8 2.137449 1_555
Bi1 O5 2.142509 1_555
Bi1 O17 2.142509 1_555
Bi2 O1 2.130154 1_555
Bi2 O13 2.130154 1_555
Bi2 O22 2.137449 1_555
Bi2 O10 2.137449 1_555
Bi2 O16 2.142509 1_555
Bi2 O4 2.142509 1_555
Bi3 O0 2.130154 1_555
Bi3 O12 2.130154 1_555
Bi3 O21 2.137449 1_555
Bi3 O9 2.137449 1_555
Bi3 O6 2.142509 1_555
Bi3 O18 2.142509 1_555
O0 Tb0 2.241835 1_655
O0 Sr0 3.079503 1_655
O1 Tb1 2.241835 1_455
O1 Sr0 3.079503 1_555
O2 Tb2 2.241835 1_455
O2 Sr0 3.079503 1_555
O3 Tb3 2.241835 1_655
O3 Sr0 3.079503 1_655
O4 Tb0 2.270180 1_565
O4 Sr2 2.625692 1_565
O5 Tb3 2.270180 1_545
O5 Sr2 2.625692 1_556
O6 Tb1 2.270180 1_545
O6 Sr2 2.625692 1_555
O7 Tb2 2.270180 1_565
O7 Sr2 2.625692 1_566
O8 Tb0 2.265528 1_556
O8 Sr3 2.618794 1_556
O9 Tb2 2.265528 1_554
O9 Sr3 2.618794 1_655
O10 Tb3 2.265528 1_554
O10 Sr3 2.618794 1_555
O11 Tb1 2.265528 1_556
O11 Sr3 2.618794 1_656
O12 Tb0 2.241835 1_555
O12 Sr2 3.079503 1_555
O13 Tb1 2.241835 1_555
O13 Sr2 3.079503 1_565
O14 Tb2 2.241835 1_555
O14 Sr2 3.079503 1_556
O15 Tb3 2.241835 1_555
O15 Sr2 3.079503 1_566
O16 Tb0 2.270180 1_555
O16 Sr0 2.625692 1_555
O17 Tb3 2.270180 1_555
O17 Sr0 2.625692 1_555
O18 Tb1 2.270180 1_555
O18 Sr0 2.625692 1_655
O19 Tb2 2.270180 1_555
O19 Sr0 2.625692 1_655
O20 Tb0 2.265528 1_555
O20 Sr1 2.618794 1_555
O21 Tb2 2.265528 1_555
O21 Sr1 2.618794 1_555
O22 Tb3 2.265528 1_555
O22 Sr1 2.618794 1_565
O23 Tb1 2.265528 1_555
O23 Sr1 2.618794 1_565
