# generated using pymatgen
data_CrN2
_symmetry_space_group_name_H-M   'P 1'
_cell_length_a   16.48283098
_cell_length_b   16.48283098
_cell_length_c   9.15810600
_cell_angle_alpha   90.00000000
_cell_angle_beta   90.00000000
_cell_angle_gamma   101.42251090
_symmetry_Int_Tables_number   1
_chemical_formula_structural   CrN2
_chemical_formula_sum   'Cr32 N64'
_cell_volume   2438.82741718
_cell_formula_units_Z   32
loop_
 _symmetry_equiv_pos_site_id
 _symmetry_equiv_pos_as_xyz
  1  'x, y, z'
loop_
 _atom_site_type_symbol
 _atom_site_label
 _atom_site_symmetry_multiplicity
 _atom_site_fract_x
 _atom_site_fract_y
 _atom_site_fract_z
 _atom_site_occupancy
  Cr  Cr0  1  0.11758800  0.88241200  0.93802300  1
  Cr  Cr1  1  0.88241200  0.11758800  0.06197700  1
  Cr  Cr2  1  0.11758800  0.88241200  0.56197700  1
  Cr  Cr3  1  0.88241200  0.11758800  0.43802300  1
  Cr  Cr4  1  0.24385400  0.75614600  0.06424900  1
  Cr  Cr5  1  0.75614600  0.24385400  0.93575100  1
  Cr  Cr6  1  0.24385400  0.75614600  0.43575100  1
  Cr  Cr7  1  0.75614600  0.24385400  0.56424900  1
  Cr  Cr8  1  0.12934900  0.58564400  0.93605300  1
  Cr  Cr9  1  0.58564400  0.12934900  0.06394700  1
  Cr  Cr10  1  0.12934900  0.58564400  0.56394700  1
  Cr  Cr11  1  0.58564400  0.12934900  0.43605300  1
  Cr  Cr12  1  0.87065100  0.41435600  0.06394700  1
  Cr  Cr13  1  0.41435600  0.87065100  0.93605300  1
  Cr  Cr14  1  0.87065100  0.41435600  0.43605300  1
  Cr  Cr15  1  0.41435600  0.87065100  0.56394700  1
  Cr  Cr16  1  0.93211000  0.60520100  0.93632000  1
  Cr  Cr17  1  0.60520100  0.93211000  0.06368000  1
  Cr  Cr18  1  0.93211000  0.60520100  0.56368000  1
  Cr  Cr19  1  0.60520100  0.93211000  0.43632000  1
  Cr  Cr20  1  0.06789000  0.39479900  0.06368000  1
  Cr  Cr21  1  0.39479900  0.06789000  0.93632000  1
  Cr  Cr22  1  0.06789000  0.39479900  0.43632000  1
  Cr  Cr23  1  0.39479900  0.06789000  0.56368000  1
  Cr  Cr24  1  0.92251400  0.79472300  0.06124100  1
  Cr  Cr25  1  0.79472300  0.92251400  0.93875900  1
  Cr  Cr26  1  0.92251400  0.79472300  0.43875900  1
  Cr  Cr27  1  0.79472300  0.92251400  0.56124100  1
  Cr  Cr28  1  0.07748600  0.20527700  0.93875900  1
  Cr  Cr29  1  0.20527700  0.07748600  0.06124100  1
  Cr  Cr30  1  0.07748600  0.20527700  0.56124100  1
  Cr  Cr31  1  0.20527700  0.07748600  0.43875900  1
  N  N0  1  0.11069100  0.88930900  0.75000000  1
  N  N1  1  0.88930900  0.11069100  0.25000000  1
  N  N2  1  0.18337200  0.81662800  0.97863200  1
  N  N3  1  0.81662800  0.18337200  0.02136800  1
  N  N4  1  0.18337200  0.81662800  0.52136800  1
  N  N5  1  0.81662800  0.18337200  0.47863200  1
  N  N6  1  0.02025800  0.84425000  0.00774400  1
  N  N7  1  0.84425000  0.02025800  0.99225600  1
  N  N8  1  0.02025800  0.84425000  0.49225600  1
  N  N9  1  0.84425000  0.02025800  0.50774400  1
  N  N10  1  0.97974200  0.15575000  0.99225600  1
  N  N11  1  0.15575000  0.97974200  0.00774400  1
  N  N12  1  0.97974200  0.15575000  0.50774400  1
  N  N13  1  0.15575000  0.97974200  0.49225600  1
  N  N14  1  0.23386200  0.76613800  0.25000000  1
  N  N15  1  0.76613800  0.23386200  0.75000000  1
  N  N16  1  0.20924700  0.65320400  0.02036300  1
  N  N17  1  0.65320400  0.20924700  0.97963700  1
  N  N18  1  0.20924700  0.65320400  0.47963700  1
  N  N19  1  0.65320400  0.20924700  0.52036300  1
  N  N20  1  0.79075300  0.34679600  0.97963700  1
  N  N21  1  0.34679600  0.79075300  0.02036300  1
  N  N22  1  0.79075300  0.34679600  0.52036300  1
  N  N23  1  0.34679600  0.79075300  0.47963700  1
  N  N24  1  0.14205100  0.59261800  0.75000000  1
  N  N25  1  0.59261800  0.14205100  0.25000000  1
  N  N26  1  0.85794900  0.40738200  0.25000000  1
  N  N27  1  0.40738200  0.85794900  0.75000000  1
  N  N28  1  0.03461900  0.60967500  0.97633300  1
  N  N29  1  0.60967500  0.03461900  0.02366700  1
  N  N30  1  0.03461900  0.60967500  0.52366700  1
  N  N31  1  0.60967500  0.03461900  0.47633300  1
  N  N32  1  0.96538100  0.39032500  0.02366700  1
  N  N33  1  0.39032500  0.96538100  0.97633300  1
  N  N34  1  0.96538100  0.39032500  0.47633300  1
  N  N35  1  0.39032500  0.96538100  0.52366700  1
  N  N36  1  0.87568100  0.51630400  0.01383100  1
  N  N37  1  0.51630400  0.87568100  0.98616900  1
  N  N38  1  0.87568100  0.51630400  0.48616900  1
  N  N39  1  0.51630400  0.87568100  0.51383100  1
  N  N40  1  0.12431900  0.48369600  0.98616900  1
  N  N41  1  0.48369600  0.12431900  0.01383100  1
  N  N42  1  0.12431900  0.48369600  0.51383100  1
  N  N43  1  0.48369600  0.12431900  0.48616900  1
  N  N44  1  0.92130300  0.59675400  0.75000000  1
  N  N45  1  0.59675400  0.92130300  0.25000000  1
  N  N46  1  0.07869700  0.40324600  0.25000000  1
  N  N47  1  0.40324600  0.07869700  0.75000000  1
  N  N48  1  0.90222100  0.69600700  0.99174800  1
  N  N49  1  0.69600700  0.90222100  0.00825200  1
  N  N50  1  0.90222100  0.69600700  0.50825200  1
  N  N51  1  0.69600700  0.90222100  0.49174800  1
  N  N52  1  0.09777900  0.30399300  0.00825200  1
  N  N53  1  0.30399300  0.09777900  0.99174800  1
  N  N54  1  0.09777900  0.30399300  0.49174800  1
  N  N55  1  0.30399300  0.09777900  0.50825200  1
  N  N56  1  0.91934700  0.79000100  0.25000000  1
  N  N57  1  0.79000100  0.91934700  0.75000000  1
  N  N58  1  0.08065300  0.20999900  0.75000000  1
  N  N59  1  0.20999900  0.08065300  0.25000000  1
  N  N60  1  0.85260700  0.85260700  0.00000000  1
  N  N61  1  0.85260700  0.85260700  0.50000000  1
  N  N62  1  0.14739300  0.14739300  0.00000000  1
  N  N63  1  0.14739300  0.14739300  0.50000000  1
loop_
_geom_bond_atom_site_label_1
_geom_bond_atom_site_label_2
_geom_bond_distance
_geom_bond_site_symmetry_2
Cr0 N2 1.719139 1_555
Cr0 N11 1.725503 1_556
Cr0 N6 1.725503 1_556
Cr0 N0 1.730903 1_555
Cr1 N3 1.719139 1_555
Cr1 N10 1.725503 1_554
Cr1 N7 1.725503 1_554
Cr1 N1 1.730903 1_555
Cr2 N4 1.719139 1_555
Cr2 N13 1.725503 1_555
Cr2 N8 1.725503 1_555
Cr2 N0 1.730903 1_555
Cr3 N5 1.719139 1_555
Cr3 N12 1.725503 1_555
Cr3 N9 1.725503 1_555
Cr3 N1 1.730903 1_555
Cr4 N14 1.720124 1_555
Cr4 N21 1.727021 1_555
Cr4 N16 1.727021 1_555
Cr4 N2 1.730930 1_554
Cr5 N15 1.720124 1_555
Cr5 N20 1.727021 1_555
Cr5 N17 1.727021 1_555
Cr5 N3 1.730930 1_556
Cr6 N14 1.720124 1_555
Cr6 N23 1.727021 1_555
Cr6 N18 1.727021 1_555
Cr6 N4 1.730930 1_555
Cr7 N15 1.720124 1_555
Cr7 N22 1.727021 1_555
Cr7 N19 1.727021 1_555
Cr7 N5 1.730930 1_555
Cr8 N24 1.717780 1_555
Cr8 N28 1.725100 1_555
Cr8 N40 1.728022 1_555
Cr8 N16 1.729077 1_556
Cr9 N25 1.717780 1_555
Cr9 N29 1.725100 1_555
Cr9 N41 1.728022 1_555
Cr9 N17 1.729077 1_554
Cr10 N24 1.717780 1_555
Cr10 N30 1.725100 1_555
Cr10 N42 1.728022 1_555
Cr10 N18 1.729077 1_555
Cr11 N25 1.717780 1_555
Cr11 N31 1.725100 1_555
Cr11 N43 1.728022 1_555
Cr11 N19 1.729077 1_555
Cr12 N26 1.717780 1_555
Cr12 N32 1.725100 1_555
Cr12 N36 1.728022 1_555
Cr12 N20 1.729077 1_554
Cr13 N27 1.717780 1_555
Cr13 N33 1.725100 1_555
Cr13 N37 1.728022 1_555
Cr13 N21 1.729077 1_556
Cr14 N26 1.717780 1_555
Cr14 N34 1.725100 1_555
Cr14 N38 1.728022 1_555
Cr14 N22 1.729077 1_555
Cr15 N27 1.717780 1_555
Cr15 N35 1.725100 1_555
Cr15 N39 1.728022 1_555
Cr15 N23 1.729077 1_555
Cr16 N28 1.716172 1_655
Cr16 N44 1.718395 1_555
Cr16 N36 1.725171 1_556
Cr16 N48 1.741458 1_555
Cr17 N29 1.716172 1_565
Cr17 N45 1.718395 1_555
Cr17 N37 1.725171 1_554
Cr17 N49 1.741458 1_555
Cr18 N30 1.716172 1_655
Cr18 N44 1.718395 1_555
Cr18 N38 1.725171 1_555
Cr18 N50 1.741458 1_555
Cr19 N31 1.716172 1_565
Cr19 N45 1.718395 1_555
Cr19 N39 1.725171 1_555
Cr19 N51 1.741458 1_555
Cr20 N32 1.716172 1_455
Cr20 N46 1.718395 1_555
Cr20 N40 1.725171 1_554
Cr20 N52 1.741458 1_555
Cr21 N33 1.716172 1_545
Cr21 N47 1.718395 1_555
Cr21 N41 1.725171 1_556
Cr21 N53 1.741458 1_555
Cr22 N34 1.716172 1_455
Cr22 N46 1.718395 1_555
Cr22 N42 1.725171 1_555
Cr22 N54 1.741458 1_555
Cr23 N35 1.716172 1_545
Cr23 N47 1.718395 1_555
Cr23 N43 1.725171 1_555
Cr23 N55 1.741458 1_555
Cr24 N48 1.717226 1_554
Cr24 N6 1.726601 1_655
Cr24 N60 1.728585 1_555
Cr24 N56 1.730749 1_555
Cr25 N49 1.717226 1_556
Cr25 N7 1.726601 1_565
Cr25 N60 1.728585 1_556
Cr25 N57 1.730749 1_555
Cr26 N50 1.717226 1_555
Cr26 N8 1.726601 1_655
Cr26 N61 1.728585 1_555
Cr26 N56 1.730749 1_555
Cr27 N51 1.717226 1_555
Cr27 N9 1.726601 1_565
Cr27 N61 1.728585 1_555
Cr27 N57 1.730749 1_555
Cr28 N52 1.717226 1_556
Cr28 N10 1.726601 1_455
Cr28 N62 1.728585 1_556
Cr28 N58 1.730749 1_555
Cr29 N53 1.717226 1_554
Cr29 N11 1.726601 1_545
Cr29 N62 1.728585 1_555
Cr29 N59 1.730749 1_555
Cr30 N54 1.717226 1_555
Cr30 N12 1.726601 1_455
Cr30 N63 1.728585 1_555
Cr30 N58 1.730749 1_555
Cr31 N55 1.717226 1_555
Cr31 N13 1.726601 1_545
Cr31 N63 1.728585 1_555
Cr31 N59 1.730749 1_555
