# generated using pymatgen
data_LiEr4Zr4O14
_symmetry_space_group_name_H-M   'P 1'
_cell_length_a   3.51840279
_cell_length_b   15.25768628
_cell_length_c   13.21240354
_cell_angle_alpha   30.00856364
_cell_angle_beta   57.81930029
_cell_angle_gamma   62.53557977
_symmetry_Int_Tables_number   1
_chemical_formula_structural   LiEr4Zr4O14
_chemical_formula_sum   'Li1 Er4 Zr4 O14'
_cell_volume   300.23414832
_cell_formula_units_Z   1
loop_
 _symmetry_equiv_pos_site_id
 _symmetry_equiv_pos_as_xyz
  1  'x, y, z'
loop_
 _atom_site_type_symbol
 _atom_site_label
 _atom_site_symmetry_multiplicity
 _atom_site_fract_x
 _atom_site_fract_y
 _atom_site_fract_z
 _atom_site_occupancy
  Li  Li0  1  0.58980900  0.50000000  0.20509500  1
  Er  Er0  1  0.00825800  0.24348300  0.00238800  1
  Er  Er1  1  0.93340800  0.00000000  0.53329500  1
  Er  Er2  1  0.00825800  0.75651700  0.48935500  1
  Er  Er3  1  0.99927200  0.50000000  0.50036400  1
  Zr  Zr0  1  0.98939100  0.00000000  0.00530500  1
  Zr  Zr1  1  0.08983200  0.50000000  0.95508400  1
  Zr  Zr2  1  0.95996200  0.22604500  0.54397400  1
  Zr  Zr3  1  0.95996200  0.77395500  0.99606400  1
  O  O0  1  0.26034100  0.00000000  0.11982900  1
  O  O1  1  0.20915700  0.21913600  0.17628600  1
  O  O2  1  0.21599900  0.00000000  0.64199900  1
  O  O3  1  0.39770900  0.50000000  0.05114500  1
  O  O4  1  0.19615800  0.23670300  0.66521800  1
  O  O5  1  0.19615800  0.76329700  0.13862400  1
  O  O6  1  0.66748000  0.25701200  0.40924800  1
  O  O7  1  0.74128700  0.00000000  0.87935700  1
  O  O8  1  0.88471700  0.50000000  0.30764300  1
  O  O9  1  0.72947300  0.28775900  0.84750400  1
  O  O10  1  0.72947300  0.71224100  0.42302300  1
  O  O11  1  0.20915700  0.78086400  0.61455700  1
  O  O12  1  0.85725800  0.50000000  0.82137100  1
  O  O13  1  0.66748000  0.74298800  0.92327100  1
loop_
_geom_bond_atom_site_label_1
_geom_bond_atom_site_label_2
_geom_bond_distance
_geom_bond_site_symmetry_2
Li0 O6 1.904375 1_555
Li0 O13 1.904377 1_554
Li0 O8 2.099949 1_455
Li0 O8 2.099973 1_555
Li0 O3 2.461416 1_655
Li0 O3 2.461417 1_555
Er0 O12 2.131753 1_454
Er0 O9 2.176882 1_554
Er0 O9 2.176888 1_454
Er0 O0 2.332102 1_555
Er0 O1 2.434362 1_455
Er0 O1 2.434368 1_555
Er1 O2 2.138329 1_655
Er1 O2 2.138334 1_555
Er1 O1 2.274488 1_655
Er1 O11 2.274496 1_645
Er1 O13 2.461134 1_545
Er1 O6 2.461141 1_555
Er2 O12 2.131749 1_455
Er2 O10 2.176882 1_555
Er2 O10 2.176888 1_455
Er2 O0 2.332109 1_565
Er2 O11 2.434342 1_555
Er2 O11 2.434357 1_455
Er3 O9 2.213291 1_555
Er3 O10 2.213299 1_555
Er3 O5 2.290991 1_655
Er3 O4 2.290991 1_655
Er3 O8 2.781963 1_555
Er3 O8 2.781976 1_655
O0 Zr0 2.175983 1_455
O0 Zr0 2.175994 1_555
O1 Zr1 2.244666 1_554
O2 Zr3 2.241603 1_445
O2 Zr2 2.241603 1_455
O3 Zr1 2.061241 1_554
O3 Zr1 2.061246 1_654
O4 Zr0 2.144544 1_456
O4 Zr2 2.297184 1_555
O4 Zr2 2.297185 1_455
O5 Zr0 2.144544 1_465
O5 Zr3 2.297184 1_554
O5 Zr3 2.297185 1_454
O6 Zr2 2.120593 1_455
O6 Zr2 2.120594 1_555
O7 Zr2 2.114301 1_555
O7 Zr3 2.114301 1_545
O7 Zr0 2.253543 1_456
O7 Zr0 2.253544 1_556
O8 Zr3 2.132419 1_554
O8 Zr2 2.132419 1_555
O9 Zr0 2.633191 1_556
O10 Zr0 2.633197 1_565
O11 Zr1 2.244670 1_555
O12 Zr1 2.308808 1_555
O12 Zr1 2.308809 1_655
O13 Zr3 2.120594 1_455
O13 Zr3 2.120606 1_555
