# generated using pymatgen
data_Tb3CuSnSe7
_symmetry_space_group_name_H-M   'P 1'
_cell_length_a   10.27758414
_cell_length_b   10.27758414
_cell_length_c   6.50755700
_cell_angle_alpha   90.00000000
_cell_angle_beta   90.00000000
_cell_angle_gamma   120.00000093
_symmetry_Int_Tables_number   1
_chemical_formula_structural   Tb3CuSnSe7
_chemical_formula_sum   'Tb6 Cu2 Sn2 Se14'
_cell_volume   595.29288334
_cell_formula_units_Z   2
loop_
 _symmetry_equiv_pos_site_id
 _symmetry_equiv_pos_as_xyz
  1  'x, y, z'
loop_
 _atom_site_type_symbol
 _atom_site_label
 _atom_site_symmetry_multiplicity
 _atom_site_fract_x
 _atom_site_fract_y
 _atom_site_fract_z
 _atom_site_occupancy
  Tb  Tb0  1  0.64255500  0.84951600  0.90139500  1
  Tb  Tb1  1  0.79303900  0.64255500  0.40139500  1
  Tb  Tb2  1  0.84951600  0.20696100  0.40139500  1
  Tb  Tb3  1  0.15048400  0.79303900  0.90139500  1
  Tb  Tb4  1  0.20696100  0.35744500  0.90139500  1
  Tb  Tb5  1  0.35744500  0.15048400  0.40139500  1
  Cu  Cu0  1  0.00000000  0.00000000  0.50024500  1
  Cu  Cu1  1  0.00000000  0.00000000  0.00024500  1
  Sn  Sn0  1  0.66666700  0.33333300  0.82966100  1
  Sn  Sn1  1  0.33333300  0.66666700  0.32966100  1
  Se  Se0  1  0.48199500  0.56074300  0.14796100  1
  Se  Se1  1  0.92125200  0.48199500  0.64796100  1
  Se  Se2  1  0.56074300  0.07874800  0.64796100  1
  Se  Se3  1  0.43925700  0.92125200  0.14796100  1
  Se  Se4  1  0.33333300  0.66666700  0.72218900  1
  Se  Se5  1  0.66666700  0.33333300  0.22218900  1
  Se  Se6  1  0.07874800  0.51800500  0.14796100  1
  Se  Se7  1  0.51800500  0.43925700  0.64796100  1
  Se  Se8  1  0.26416100  0.11575300  0.97341200  1
  Se  Se9  1  0.14840800  0.26416100  0.47341200  1
  Se  Se10  1  0.11575300  0.85159200  0.47341200  1
  Se  Se11  1  0.88424700  0.14840800  0.97341200  1
  Se  Se12  1  0.85159200  0.73583900  0.97341200  1
  Se  Se13  1  0.73583900  0.88424700  0.47341200  1
loop_
_geom_bond_atom_site_label_1
_geom_bond_atom_site_label_2
_geom_bond_distance
_geom_bond_site_symmetry_2
Cu0 Se9 2.363644 1_555
Cu0 Se13 2.363644 1_445
Cu0 Se10 2.363644 1_545
Cu1 Se12 2.363644 1_444
Cu1 Se8 2.363644 1_554
Cu1 Se11 2.363644 1_454
Se0 Sn1 2.565351 1_555
Se0 Tb4 3.004037 1_554
Se0 Tb0 3.034544 1_554
Se0 Tb1 3.310353 1_555
Se1 Sn0 2.565344 1_555
Se1 Tb2 3.004037 1_555
Se1 Tb1 3.034544 1_555
Se1 Tb3 3.310353 1_655
Se2 Sn0 2.565343 1_555
Se2 Tb5 3.004037 1_555
Se2 Tb2 3.034544 1_555
Se2 Tb0 3.310353 1_545
Se3 Sn1 2.565343 1_555
Se3 Tb0 3.004037 1_554
Se3 Tb3 3.034544 1_554
Se3 Tb5 3.310353 1_565
Se4 Sn1 2.554398 1_555
Se4 Tb3 3.003201 1_555
Se4 Tb0 3.003208 1_555
Se4 Tb4 3.003209 1_555
Se5 Sn0 2.554398 1_554
Se5 Tb2 3.003201 1_555
Se5 Tb5 3.003208 1_555
Se5 Tb1 3.003209 1_555
Se6 Sn1 2.565344 1_555
Se6 Tb3 3.004037 1_554
Se6 Tb4 3.034544 1_554
Se6 Tb2 3.310353 1_455
Se7 Sn0 2.565351 1_555
Se7 Tb1 3.004037 1_555
Se7 Tb5 3.034544 1_555
Se7 Tb4 3.310353 1_555
Se8 Tb4 2.862837 1_555
Se8 Tb5 2.908828 1_556
Se8 Tb3 2.951313 1_545
Se9 Tb2 2.862837 1_455
Se9 Tb4 2.908828 1_555
Se9 Tb5 2.951313 1_555
Se10 Tb5 2.862837 1_565
Se10 Tb3 2.908828 1_555
Se10 Tb1 2.951313 1_455
Se11 Tb0 2.862837 1_545
Se11 Tb2 2.908828 1_556
Se11 Tb4 2.951313 1_655
Se12 Tb3 2.862837 1_655
Se12 Tb1 2.908828 1_556
Se12 Tb0 2.951313 1_555
Se13 Tb1 2.862837 1_555
Se13 Tb0 2.908828 1_555
Se13 Tb2 2.951313 1_565
