# generated using pymatgen
data_Mo8O23
_symmetry_space_group_name_H-M   'P 1'
_cell_length_a   13.70739600
_cell_length_b   8.18788500
_cell_length_c   17.26485103
_cell_angle_alpha   90.00000000
_cell_angle_beta   106.30530088
_cell_angle_gamma   90.00000000
_symmetry_Int_Tables_number   1
_chemical_formula_structural   Mo8O23
_chemical_formula_sum   'Mo32 O92'
_cell_volume   1859.77719421
_cell_formula_units_Z   4
loop_
 _symmetry_equiv_pos_site_id
 _symmetry_equiv_pos_as_xyz
  1  'x, y, z'
loop_
 _atom_site_type_symbol
 _atom_site_label
 _atom_site_symmetry_multiplicity
 _atom_site_fract_x
 _atom_site_fract_y
 _atom_site_fract_z
 _atom_site_occupancy
  Mo  Mo0  1  0.93405500  0.71239000  0.08346700  1
  Mo  Mo1  1  0.93405500  0.28761000  0.58346700  1
  Mo  Mo2  1  0.06754400  0.71009200  0.41901300  1
  Mo  Mo3  1  0.06754400  0.28990800  0.91901300  1
  Mo  Mo4  1  0.93399800  0.21549500  0.08517400  1
  Mo  Mo5  1  0.93399800  0.78450500  0.58517400  1
  Mo  Mo6  1  0.06585100  0.20586000  0.42099400  1
  Mo  Mo7  1  0.06585100  0.79414000  0.92099400  1
  Mo  Mo8  1  0.81769400  0.78930800  0.25541500  1
  Mo  Mo9  1  0.81769400  0.21069200  0.75541500  1
  Mo  Mo10  1  0.18467400  0.79029900  0.24492100  1
  Mo  Mo11  1  0.18467400  0.20970100  0.74492100  1
  Mo  Mo12  1  0.81446700  0.29208600  0.25707400  1
  Mo  Mo13  1  0.81446700  0.70791400  0.75707400  1
  Mo  Mo14  1  0.18574000  0.28765400  0.24741000  1
  Mo  Mo15  1  0.18574000  0.71234600  0.74741000  1
  Mo  Mo16  1  0.68475500  0.71030000  0.42007400  1
  Mo  Mo17  1  0.68475500  0.28970000  0.92007400  1
  Mo  Mo18  1  0.32001000  0.70904700  0.08183700  1
  Mo  Mo19  1  0.32001000  0.29095300  0.58183700  1
  Mo  Mo20  1  0.68491600  0.20416600  0.42253100  1
  Mo  Mo21  1  0.68491600  0.79583400  0.92253100  1
  Mo  Mo22  1  0.31669000  0.20585200  0.08141600  1
  Mo  Mo23  1  0.31669000  0.79414800  0.58141600  1
  Mo  Mo24  1  0.55603600  0.79266100  0.09925300  1
  Mo  Mo25  1  0.55603600  0.20733900  0.59925300  1
  Mo  Mo26  1  0.44688800  0.79445300  0.40473300  1
  Mo  Mo27  1  0.44688800  0.20554700  0.90473300  1
  Mo  Mo28  1  0.55574600  0.29332300  0.09856100  1
  Mo  Mo29  1  0.55574600  0.70667700  0.59856100  1
  Mo  Mo30  1  0.44738000  0.29433700  0.40363700  1
  Mo  Mo31  1  0.44738000  0.70566300  0.90363700  1
  O  O0  1  0.92608900  0.00438900  0.09351100  1
  O  O1  1  0.92608900  0.99561100  0.59351100  1
  O  O2  1  0.07635600  0.99468400  0.41053600  1
  O  O3  1  0.07635600  0.00531600  0.91053600  1
  O  O4  1  0.94188500  0.50238300  0.07497400  1
  O  O5  1  0.94188500  0.49761700  0.57497400  1
  O  O6  1  0.05567600  0.49993400  0.42353300  1
  O  O7  1  0.05567600  0.50006600  0.92353300  1
  O  O8  1  0.80498800  0.50273300  0.26543800  1
  O  O9  1  0.80498800  0.49726700  0.76543800  1
  O  O10  1  0.20078700  0.49752400  0.23960800  1
  O  O11  1  0.20078700  0.50247600  0.73960800  1
  O  O12  1  0.81326300  0.00133600  0.24660200  1
  O  O13  1  0.81326300  0.99866400  0.74660200  1
  O  O14  1  0.18389900  0.00314200  0.25506300  1
  O  O15  1  0.18389900  0.99685800  0.75506300  1
  O  O16  1  0.67996700  0.99291600  0.43070800  1
  O  O17  1  0.67996700  0.00708400  0.93070800  1
  O  O18  1  0.32051300  0.99441600  0.06994800  1
  O  O19  1  0.32051300  0.00558400  0.56994800  1
  O  O20  1  0.68264300  0.49791200  0.41652900  1
  O  O21  1  0.68264300  0.50208800  0.91652900  1
  O  O22  1  0.31926800  0.49738800  0.08652500  1
  O  O23  1  0.31926800  0.50261200  0.58652500  1
  O  O24  1  0.55372300  0.50575000  0.09760200  1
  O  O25  1  0.55372300  0.49425000  0.59760200  1
  O  O26  1  0.44861000  0.50674900  0.40429100  1
  O  O27  1  0.44861000  0.49325100  0.90429100  1
  O  O28  1  0.55602700  0.00517500  0.09177600  1
  O  O29  1  0.55602700  0.99482500  0.59177600  1
  O  O30  1  0.44933000  0.00696200  0.41187200  1
  O  O31  1  0.44933000  0.99303800  0.91187200  1
  O  O32  1  0.99793000  0.76876400  0.50283500  1
  O  O33  1  0.99793000  0.23123600  0.00283500  1
  O  O34  1  0.99945800  0.21567300  0.50033400  1
  O  O35  1  0.99945800  0.78432700  0.00033400  1
  O  O36  1  0.93510100  0.76056500  0.33613600  1
  O  O37  1  0.93510100  0.23943500  0.83613600  1
  O  O38  1  0.06251200  0.75679900  0.16819300  1
  O  O39  1  0.06251200  0.24320100  0.66819300  1
  O  O40  1  0.94220300  0.24568300  0.33709400  1
  O  O41  1  0.94220300  0.75431700  0.83709400  1
  O  O42  1  0.06777700  0.25378600  0.16494400  1
  O  O43  1  0.06777700  0.74621400  0.66494400  1
  O  O44  1  0.86674000  0.72985900  0.17109500  1
  O  O45  1  0.86674000  0.27014100  0.67109500  1
  O  O46  1  0.13491900  0.72852100  0.33236300  1
  O  O47  1  0.13491900  0.27147900  0.83236300  1
  O  O48  1  0.87491200  0.27671300  0.16878900  1
  O  O49  1  0.87491200  0.72328700  0.66878900  1
  O  O50  1  0.13108900  0.27448600  0.33127100  1
  O  O51  1  0.13108900  0.72551400  0.83127100  1
  O  O52  1  0.79787100  0.75139900  0.00671500  1
  O  O53  1  0.79787100  0.24860100  0.50671500  1
  O  O54  1  0.20188500  0.74271500  0.49972900  1
  O  O55  1  0.20188500  0.25728500  0.99972900  1
  O  O56  1  0.80003400  0.25731200  0.00626200  1
  O  O57  1  0.80003400  0.74268800  0.50626200  1
  O  O58  1  0.19360800  0.25385400  0.49223100  1
  O  O59  1  0.19360800  0.74614600  0.99223100  1
  O  O60  1  0.73803300  0.76062400  0.33708600  1
  O  O61  1  0.73803300  0.23937600  0.83708600  1
  O  O62  1  0.25890000  0.76700700  0.16851900  1
  O  O63  1  0.25890000  0.23299300  0.66851900  1
  O  O64  1  0.74084300  0.22504800  0.33931900  1
  O  O65  1  0.74084300  0.77495200  0.83931900  1
  O  O66  1  0.26670400  0.22294900  0.16803600  1
  O  O67  1  0.26670400  0.77705100  0.66803600  1
  O  O68  1  0.67449300  0.75559600  0.17568500  1
  O  O69  1  0.67449300  0.24440400  0.67568500  1
  O  O70  1  0.32797000  0.75995700  0.32988800  1
  O  O71  1  0.32797000  0.24004300  0.82988800  1
  O  O72  1  0.67524400  0.25519900  0.17401300  1
  O  O73  1  0.67524400  0.74480100  0.67401300  1
  O  O74  1  0.32685100  0.25287000  0.32969800  1
  O  O75  1  0.32685100  0.74713000  0.82969800  1
  O  O76  1  0.59080700  0.74303100  0.49668100  1
  O  O77  1  0.59080700  0.25696900  0.99668100  1
  O  O78  1  0.41350200  0.74097000  0.00628000  1
  O  O79  1  0.41350200  0.25903000  0.50628000  1
  O  O80  1  0.58979700  0.25666000  0.49670100  1
  O  O81  1  0.58979700  0.74334000  0.99670100  1
  O  O82  1  0.41242600  0.25565600  0.00562500  1
  O  O83  1  0.41242600  0.74434400  0.50562500  1
  O  O84  1  0.54475800  0.75841800  0.34880000  1
  O  O85  1  0.54475800  0.24158200  0.84880000  1
  O  O86  1  0.45984400  0.76175800  0.15587700  1
  O  O87  1  0.45984400  0.23824200  0.65587700  1
  O  O88  1  0.54439600  0.24982200  0.34857500  1
  O  O89  1  0.54439600  0.75017800  0.84857500  1
  O  O90  1  0.45792700  0.24923700  0.15310100  1
  O  O91  1  0.45792700  0.75076300  0.65310100  1
loop_
_geom_bond_atom_site_label_1
_geom_bond_atom_site_label_2
_geom_bond_distance
_geom_bond_site_symmetry_2
Mo0 O4 1.731642 1_555
Mo0 O38 1.981446 1_655
Mo0 O35 1.983229 1_555
Mo0 O44 1.986083 1_555
Mo0 O52 1.988378 1_555
Mo0 O0 2.401835 1_565
Mo1 O5 1.731642 1_555
Mo1 O39 1.981446 1_655
Mo1 O34 1.983229 1_555
Mo1 O45 1.986083 1_555
Mo1 O53 1.988378 1_555
Mo1 O1 2.401835 1_545
Mo2 O6 1.732242 1_555
Mo2 O46 1.972179 1_555
Mo2 O54 1.990826 1_555
Mo2 O32 2.002762 1_455
Mo2 O36 2.013800 1_455
Mo2 O2 2.340042 1_555
Mo3 O7 1.732242 1_555
Mo3 O47 1.972179 1_555
Mo3 O55 1.990826 1_555
Mo3 O33 2.002762 1_456
Mo3 O37 2.013800 1_455
Mo3 O3 2.340042 1_555
Mo4 O0 1.740398 1_555
Mo4 O33 1.872156 1_555
Mo4 O48 1.909897 1_555
Mo4 O42 1.984847 1_655
Mo4 O56 1.985092 1_555
Mo4 O4 2.360343 1_555
Mo5 O1 1.740398 1_555
Mo5 O32 1.872156 1_555
Mo5 O49 1.909897 1_555
Mo5 O43 1.984847 1_655
Mo5 O57 1.985092 1_555
Mo5 O5 2.360343 1_555
Mo6 O2 1.748619 1_545
Mo6 O34 1.846893 1_455
Mo6 O58 1.877348 1_555
Mo6 O40 1.923183 1_455
Mo6 O50 2.071906 1_555
Mo6 O6 2.412990 1_555
Mo7 O3 1.748619 1_565
Mo7 O35 1.846893 1_456
Mo7 O59 1.877348 1_555
Mo7 O41 1.923183 1_455
Mo7 O51 2.071906 1_555
Mo7 O7 2.412990 1_555
Mo8 O12 1.742285 1_565
Mo8 O36 1.824340 1_555
Mo8 O44 1.832414 1_555
Mo8 O60 2.024910 1_555
Mo8 O68 2.075293 1_555
Mo8 O8 2.362837 1_555
Mo9 O13 1.742285 1_545
Mo9 O37 1.824340 1_555
Mo9 O45 1.832414 1_555
Mo9 O61 2.024910 1_555
Mo9 O69 2.075293 1_555
Mo9 O9 2.362837 1_555
Mo10 O14 1.751839 1_565
Mo10 O38 1.840794 1_555
Mo10 O62 1.888148 1_555
Mo10 O46 1.891628 1_555
Mo10 O70 2.110415 1_555
Mo10 O10 2.411468 1_555
Mo11 O15 1.751839 1_545
Mo11 O39 1.840794 1_555
Mo11 O63 1.888148 1_555
Mo11 O47 1.891628 1_555
Mo11 O71 2.110415 1_555
Mo11 O11 2.411468 1_555
Mo12 O8 1.738690 1_555
Mo12 O48 1.932543 1_555
Mo12 O40 1.939191 1_555
Mo12 O64 2.034861 1_555
Mo12 O72 2.062263 1_555
Mo12 O12 2.387189 1_555
Mo13 O9 1.738690 1_555
Mo13 O49 1.932543 1_555
Mo13 O41 1.939191 1_555
Mo13 O65 2.034861 1_555
Mo13 O73 2.062263 1_555
Mo13 O13 2.387189 1_555
Mo14 O10 1.740447 1_555
Mo14 O50 1.810551 1_555
Mo14 O42 1.850914 1_555
Mo14 O66 2.060163 1_555
Mo14 O74 2.073120 1_555
Mo14 O14 2.333833 1_555
Mo15 O11 1.740447 1_555
Mo15 O51 1.810551 1_555
Mo15 O43 1.850914 1_555
Mo15 O67 2.060163 1_555
Mo15 O75 2.073120 1_555
Mo15 O15 2.333833 1_555
Mo16 O20 1.740040 1_555
Mo16 O60 1.828527 1_555
Mo16 O57 1.860427 1_555
Mo16 O84 2.006498 1_555
Mo16 O76 2.106154 1_555
Mo16 O16 2.323683 1_555
Mo17 O21 1.740040 1_555
Mo17 O61 1.828527 1_555
Mo17 O56 1.860427 1_556
Mo17 O85 2.006498 1_555
Mo17 O77 2.106154 1_555
Mo17 O17 2.323683 1_555
Mo18 O22 1.735092 1_555
Mo18 O62 1.967350 1_555
Mo18 O59 1.995628 1_554
Mo18 O86 2.029400 1_555
Mo18 O78 2.085907 1_555
Mo18 O18 2.345747 1_555
Mo19 O23 1.735092 1_555
Mo19 O63 1.967350 1_555
Mo19 O58 1.995628 1_555
Mo19 O87 2.029400 1_555
Mo19 O79 2.085907 1_555
Mo19 O19 2.345747 1_555
Mo20 O16 1.738315 1_545
Mo20 O64 1.816396 1_555
Mo20 O53 1.838070 1_555
Mo20 O88 2.024645 1_555
Mo20 O80 2.112343 1_555
Mo20 O20 2.407215 1_555
Mo21 O17 1.738315 1_565
Mo21 O65 1.816396 1_555
Mo21 O52 1.838070 1_556
Mo21 O89 2.024645 1_555
Mo21 O81 2.112343 1_555
Mo21 O21 2.407215 1_555
Mo22 O18 1.744957 1_545
Mo22 O66 1.816836 1_555
Mo22 O55 1.842984 1_554
Mo22 O90 2.015088 1_555
Mo22 O82 2.136546 1_555
Mo22 O22 2.388587 1_555
Mo23 O19 1.744957 1_565
Mo23 O67 1.816836 1_555
Mo23 O54 1.842984 1_555
Mo23 O91 2.015088 1_555
Mo23 O83 2.136546 1_555
Mo23 O23 2.388587 1_555
Mo24 O28 1.744819 1_565
Mo24 O68 1.807431 1_555
Mo24 O86 1.866034 1_555
Mo24 O81 1.993027 1_554
Mo24 O78 2.193613 1_555
Mo24 O24 2.349473 1_555
Mo25 O29 1.744819 1_545
Mo25 O69 1.807431 1_555
Mo25 O87 1.866034 1_555
Mo25 O80 1.993027 1_555
Mo25 O79 2.193613 1_555
Mo25 O25 2.349473 1_555
Mo26 O30 1.744016 1_565
Mo26 O70 1.795516 1_555
Mo26 O84 1.883283 1_555
Mo26 O83 1.971720 1_555
Mo26 O76 2.197866 1_555
Mo26 O26 2.355839 1_555
Mo27 O31 1.744016 1_545
Mo27 O71 1.795516 1_555
Mo27 O85 1.883283 1_555
Mo27 O82 1.971720 1_556
Mo27 O77 2.197866 1_555
Mo27 O27 2.355839 1_555
Mo28 O24 1.739554 1_555
Mo28 O72 1.810886 1_555
Mo28 O90 1.877170 1_555
Mo28 O77 1.971832 1_554
Mo28 O82 2.181532 1_555
Mo28 O28 2.362286 1_555
Mo29 O25 1.739554 1_555
Mo29 O73 1.810886 1_555
Mo29 O91 1.877170 1_555
Mo29 O76 1.971832 1_555
Mo29 O83 2.181532 1_555
Mo29 O29 2.362286 1_555
Mo30 O26 1.739293 1_555
Mo30 O74 1.813882 1_555
Mo30 O88 1.874802 1_555
Mo30 O79 1.975273 1_555
Mo30 O80 2.174047 1_555
Mo30 O30 2.356984 1_555
Mo31 O27 1.739293 1_555
Mo31 O75 1.813882 1_555
Mo31 O89 1.874802 1_555
Mo31 O78 1.975273 1_556
Mo31 O81 2.174047 1_555
Mo31 O31 2.356984 1_555
