# generated using pymatgen
data_V5O7
_symmetry_space_group_name_H-M   'P 1'
_cell_length_a   5.33441156
_cell_length_b   5.33441156
_cell_length_c   18.88380100
_cell_angle_alpha   90.00000000
_cell_angle_beta   90.00000000
_cell_angle_gamma   147.03783294
_symmetry_Int_Tables_number   1
_chemical_formula_structural   V5O7
_chemical_formula_sum   'V10 O14'
_cell_volume   292.36764772
_cell_formula_units_Z   2
loop_
 _symmetry_equiv_pos_site_id
 _symmetry_equiv_pos_as_xyz
  1  'x, y, z'
loop_
 _atom_site_type_symbol
 _atom_site_label
 _atom_site_symmetry_multiplicity
 _atom_site_fract_x
 _atom_site_fract_y
 _atom_site_fract_z
 _atom_site_occupancy
  V  V0  1  0.73566700  0.26433300  0.57606300  1
  V  V1  1  0.00000000  0.00000000  0.50000000  1
  V  V2  1  0.00000000  0.00000000  0.00000000  1
  V  V3  1  0.26433300  0.73566700  0.42393800  1
  V  V4  1  0.26433300  0.73566700  0.07606200  1
  V  V5  1  0.73566700  0.26433300  0.92393800  1
  V  V6  1  0.52026900  0.47973100  0.15830400  1
  V  V7  1  0.47973100  0.52026900  0.84169600  1
  V  V8  1  0.47973100  0.52026900  0.65830400  1
  V  V9  1  0.52026900  0.47973100  0.34169600  1
  O  O0  1  0.35283400  0.64716600  0.97377400  1
  O  O1  1  0.64716600  0.35283400  0.02622600  1
  O  O2  1  0.64716600  0.35283400  0.47377400  1
  O  O3  1  0.35283400  0.64716600  0.52622600  1
  O  O4  1  0.85547300  0.14452700  0.84671900  1
  O  O5  1  0.14452700  0.85547300  0.15328100  1
  O  O6  1  0.14452700  0.85547300  0.34671900  1
  O  O7  1  0.85547300  0.14452700  0.65328100  1
  O  O8  1  0.10137900  0.89862100  0.89676600  1
  O  O9  1  0.89862100  0.10137900  0.10323400  1
  O  O10  1  0.89862100  0.10137900  0.39676600  1
  O  O11  1  0.10137900  0.89862100  0.60323400  1
  O  O12  1  0.52550000  0.47450000  0.75000000  1
  O  O13  1  0.47450000  0.52550000  0.25000000  1
loop_
_geom_bond_atom_site_label_1
_geom_bond_atom_site_label_2
_geom_bond_distance
_geom_bond_site_symmetry_2
O0 V4 2.133258 1_556
O0 V5 2.147732 1_455
O0 V5 2.147732 1_565
O0 V2 2.191418 1_556
O0 V2 2.191418 1_666
O1 V5 2.133258 1_554
O1 V4 2.147732 1_655
O1 V4 2.147732 1_545
O1 V2 2.191418 1_665
O1 V2 2.191418 1_555
O2 V0 2.133275 1_555
O2 V3 2.147732 1_655
O2 V3 2.147732 1_545
O2 V1 2.191418 1_665
O2 V1 2.191418 1_555
O3 V3 2.133258 1_555
O3 V0 2.147740 1_565
O3 V0 2.147740 1_455
O3 V1 2.191418 1_665
O3 V1 2.191418 1_555
O4 V5 1.904885 1_555
O4 V7 1.978704 1_545
O4 V7 1.978704 1_655
O5 V4 1.904885 1_555
O5 V6 1.978704 1_455
O5 V6 1.978704 1_565
O6 V3 1.904885 1_555
O6 V9 1.978704 1_455
O6 V9 1.978704 1_565
O7 V0 1.904870 1_555
O7 V8 1.978704 1_545
O7 V8 1.978704 1_655
O8 V5 2.107361 1_565
O8 V5 2.107361 1_455
O8 V2 2.208178 1_566
O8 V7 2.218233 1_565
O8 V7 2.218233 1_455
O9 V4 2.107361 1_545
O9 V4 2.107361 1_655
O9 V2 2.208178 1_655
O9 V6 2.218233 1_655
O9 V6 2.218233 1_545
O10 V3 2.107361 1_655
O10 V3 2.107361 1_545
O10 V1 2.208178 1_655
O10 V9 2.218233 1_655
O10 V9 2.218233 1_545
O11 V0 2.107356 1_565
O11 V0 2.107356 1_455
O11 V1 2.208178 1_565
O11 V8 2.218233 1_565
O11 V8 2.218233 1_455
O12 V8 1.793761 1_555
O12 V7 1.793761 1_555
O13 V9 1.793761 1_555
O13 V6 1.793761 1_555
