# generated using pymatgen
data_Yb3Ga8Rh3
_symmetry_space_group_name_H-M   'P 1'
_cell_length_a   8.24888047
_cell_length_b   8.24888047
_cell_length_c   8.24888047
_cell_angle_alpha   150.11088911
_cell_angle_beta   107.40899652
_cell_angle_gamma   80.43408844
_symmetry_Int_Tables_number   1
_chemical_formula_structural   Yb3Ga8Rh3
_chemical_formula_sum   'Yb3 Ga8 Rh3'
_cell_volume   261.71156240
_cell_formula_units_Z   1
loop_
 _symmetry_equiv_pos_site_id
 _symmetry_equiv_pos_as_xyz
  1  'x, y, z'
loop_
 _atom_site_type_symbol
 _atom_site_label
 _atom_site_symmetry_multiplicity
 _atom_site_fract_x
 _atom_site_fract_y
 _atom_site_fract_z
 _atom_site_occupancy
  Yb  Yb0  1  0.50000000  0.50000000  0.00000000  1
  Yb  Yb1  1  0.17422300  0.17422300  0.00000000  1
  Yb  Yb2  1  0.82577700  0.82577700  0.00000000  1
  Ga  Ga0  1  0.08885900  0.37897400  0.70988600  1
  Ga  Ga1  1  0.91114100  0.62102600  0.29011400  1
  Ga  Ga2  1  0.66908800  0.37897400  0.29011400  1
  Ga  Ga3  1  0.33091200  0.62102600  0.70988600  1
  Ga  Ga4  1  0.80387700  0.16699700  0.63688000  1
  Ga  Ga5  1  0.19612300  0.83300300  0.36312000  1
  Ga  Ga6  1  0.53011700  0.16699700  0.36312000  1
  Ga  Ga7  1  0.46988300  0.83300300  0.63688000  1
  Rh  Rh0  1  0.00000000  0.50000000  0.50000000  1
  Rh  Rh1  1  0.78183700  0.00000000  0.78183700  1
  Rh  Rh2  1  0.21816300  0.00000000  0.21816300  1
loop_
_geom_bond_atom_site_label_1
_geom_bond_atom_site_label_2
_geom_bond_distance
_geom_bond_site_symmetry_2
Ga0 Rh0 2.554585 1_555
Ga0 Rh2 2.618461 1_566
Ga0 Rh2 2.618465 1_555
Ga0 Ga5 2.664583 1_556
Ga0 Ga5 2.664586 1_545
Ga0 Ga4 2.763964 1_455
Ga0 Yb2 3.029130 1_456
Ga0 Yb2 3.029133 1_445
Ga0 Yb0 3.217405 1_556
Ga1 Rh0 2.554585 1_655
Ga1 Rh1 2.618461 1_554
Ga1 Rh1 2.618465 1_565
Ga1 Ga4 2.664583 1_554
Ga1 Ga4 2.664586 1_565
Ga1 Ga5 2.763964 1_655
Ga1 Yb1 3.029130 1_655
Ga1 Yb1 3.029133 1_666
Ga1 Yb0 3.217405 1_555
Ga2 Rh0 2.554585 1_655
Ga2 Rh1 2.618459 1_554
Ga2 Rh1 2.618459 1_565
Ga2 Ga7 2.664583 1_555
Ga2 Ga7 2.664583 1_544
Ga2 Ga6 2.763972 1_555
Ga2 Yb2 3.029136 1_545
Ga2 Yb2 3.029136 1_556
Ga2 Yb0 3.217398 1_555
Ga3 Rh0 2.554585 1_555
Ga3 Rh2 2.618459 1_555
Ga3 Rh2 2.618459 1_566
Ga3 Ga6 2.664583 1_566
Ga3 Ga6 2.664583 1_555
Ga3 Ga7 2.763972 1_555
Ga3 Yb1 3.029136 1_555
Ga3 Yb1 3.029136 1_566
Ga3 Yb0 3.217398 1_556
Ga4 Rh1 2.535730 1_555
Ga4 Yb2 3.211418 1_556
Ga4 Yb2 3.211418 1_545
Ga4 Yb0 3.276895 1_545
Ga4 Yb0 3.276895 1_556
Ga5 Rh2 2.535730 1_565
Ga5 Yb1 3.211418 1_566
Ga5 Yb1 3.211418 1_555
Ga5 Yb0 3.276895 1_566
Ga5 Yb0 3.276895 1_555
Ga6 Rh2 2.535730 1_555
Ga6 Yb2 3.211418 1_556
Ga6 Yb2 3.211418 1_545
Ga6 Yb0 3.276895 1_556
Ga6 Yb0 3.276895 1_545
Ga7 Rh1 2.535730 1_565
Ga7 Yb1 3.211418 1_555
Ga7 Yb1 3.211418 1_566
Ga7 Yb0 3.276895 1_566
Ga7 Yb0 3.276895 1_555
Rh0 Yb2 3.056542 1_445
Rh0 Yb1 3.056542 1_555
Rh0 Yb1 3.056542 1_566
Rh0 Yb2 3.056542 1_456
Rh1 Yb1 3.058833 1_656
Rh1 Yb2 3.058833 1_546
Rh1 Yb0 3.478620 1_545
Rh1 Yb0 3.478620 1_556
Rh2 Yb2 3.058833 1_445
Rh2 Yb1 3.058833 1_555
Rh2 Yb0 3.478620 1_545
Rh2 Yb0 3.478620 1_556
