# generated using pymatgen
data_Ca(SbO2)2
_symmetry_space_group_name_H-M   'P 1'
_cell_length_a   3.64039500
_cell_length_b   10.80968500
_cell_length_c   11.16435200
_cell_angle_alpha   90.00000000
_cell_angle_beta   90.00000000
_cell_angle_gamma   90.00000000
_symmetry_Int_Tables_number   1
_chemical_formula_structural   Ca(SbO2)2
_chemical_formula_sum   'Ca4 Sb8 O16'
_cell_volume   439.33425703
_cell_formula_units_Z   4
loop_
 _symmetry_equiv_pos_site_id
 _symmetry_equiv_pos_as_xyz
  1  'x, y, z'
loop_
 _atom_site_type_symbol
 _atom_site_label
 _atom_site_symmetry_multiplicity
 _atom_site_fract_x
 _atom_site_fract_y
 _atom_site_fract_z
 _atom_site_occupancy
  Ca  Ca0  1  0.39180600  0.75000000  0.86432400  1
  Ca  Ca1  1  0.39180600  0.25000000  0.63567600  1
  Ca  Ca2  1  0.60819400  0.75000000  0.36432400  1
  Ca  Ca3  1  0.60819400  0.25000000  0.13567600  1
  Sb  Sb0  1  0.84524600  0.57799500  0.61966600  1
  Sb  Sb1  1  0.84524600  0.07799500  0.88033400  1
  Sb  Sb2  1  0.15475400  0.07799500  0.38033400  1
  Sb  Sb3  1  0.84524600  0.42200500  0.88033400  1
  Sb  Sb4  1  0.15475400  0.42200500  0.38033400  1
  Sb  Sb5  1  0.84524600  0.92200500  0.61966600  1
  Sb  Sb6  1  0.15475400  0.92200500  0.11966600  1
  Sb  Sb7  1  0.15475400  0.57799500  0.11966600  1
  O  O0  1  0.09557000  0.88251100  0.46044500  1
  O  O1  1  0.90443000  0.11748900  0.53955500  1
  O  O2  1  0.18240700  0.00000000  0.75000000  1
  O  O3  1  0.90443000  0.88251100  0.96044500  1
  O  O4  1  0.90443000  0.61748900  0.96044500  1
  O  O5  1  0.99475900  0.25000000  0.79836900  1
  O  O6  1  0.09557000  0.11748900  0.03955500  1
  O  O7  1  0.00524100  0.25000000  0.29836900  1
  O  O8  1  0.18240700  0.50000000  0.75000000  1
  O  O9  1  0.81759300  0.00000000  0.25000000  1
  O  O10  1  0.09557000  0.61748900  0.46044500  1
  O  O11  1  0.00524100  0.75000000  0.20163100  1
  O  O12  1  0.99475900  0.75000000  0.70163100  1
  O  O13  1  0.81759300  0.50000000  0.25000000  1
  O  O14  1  0.09557000  0.38251100  0.03955500  1
  O  O15  1  0.90443000  0.38251100  0.53955500  1
loop_
_geom_bond_atom_site_label_1
_geom_bond_atom_site_label_2
_geom_bond_distance
_geom_bond_site_symmetry_2
Ca0 O12 2.321287 1_455
Ca0 O3 2.520181 1_455
Ca0 O4 2.520181 1_455
Ca0 O4 2.585713 1_555
Ca0 O3 2.585713 1_555
Ca0 O12 2.849059 1_555
Ca1 O5 2.321287 1_455
Ca1 O1 2.520181 1_455
Ca1 O15 2.520181 1_455
Ca1 O15 2.585713 1_555
Ca1 O1 2.585713 1_555
Ca1 O5 2.849059 1_555
Ca2 O11 2.321287 1_655
Ca2 O0 2.520181 1_655
Ca2 O10 2.520181 1_655
Ca2 O10 2.585713 1_555
Ca2 O0 2.585713 1_555
Ca2 O11 2.849059 1_555
Ca3 O7 2.321287 1_655
Ca3 O14 2.520181 1_655
Ca3 O6 2.520181 1_655
Ca3 O14 2.585713 1_555
Ca3 O6 2.585713 1_555
Ca3 O7 2.849059 1_555
O0 Sb5 2.042681 1_455
O0 Sb2 2.304697 1_565
O1 Sb2 2.042681 1_655
O1 Sb5 2.304697 1_545
O2 Sb1 2.081977 1_455
O2 Sb5 2.081977 1_445
O3 Sb6 2.042681 1_656
O3 Sb1 2.304697 1_565
O4 Sb7 2.042681 1_656
O4 Sb3 2.304697 1_555
O5 Sb3 2.142592 1_555
O5 Sb1 2.142592 1_555
O6 Sb1 2.042681 1_454
O6 Sb6 2.304697 1_545
O7 Sb2 2.142592 1_555
O7 Sb4 2.142592 1_555
O8 Sb3 2.081977 1_455
O8 Sb0 2.081977 1_455
O9 Sb2 2.081977 1_655
O9 Sb6 2.081977 1_645
O10 Sb0 2.042681 1_455
O10 Sb4 2.304697 1_555
O11 Sb7 2.142592 1_555
O11 Sb6 2.142592 1_555
O12 Sb0 2.142592 1_555
O12 Sb5 2.142592 1_555
O13 Sb4 2.081977 1_655
O13 Sb7 2.081977 1_655
O14 Sb3 2.042681 1_454
O14 Sb7 2.304697 1_555
O15 Sb4 2.042681 1_655
O15 Sb0 2.304697 1_555
