# generated using pymatgen
data_Dy(NiBi)2
_symmetry_space_group_name_H-M   'P 1'
_cell_length_a   4.59949700
_cell_length_b   4.59949700
_cell_length_c   10.30512300
_cell_angle_alpha   90.00000000
_cell_angle_beta   90.00000000
_cell_angle_gamma   90.00000000
_symmetry_Int_Tables_number   1
_chemical_formula_structural   Dy(NiBi)2
_chemical_formula_sum   'Dy2 Ni4 Bi4'
_cell_volume   218.00871730
_cell_formula_units_Z   2
loop_
 _symmetry_equiv_pos_site_id
 _symmetry_equiv_pos_as_xyz
  1  'x, y, z'
loop_
 _atom_site_type_symbol
 _atom_site_label
 _atom_site_symmetry_multiplicity
 _atom_site_fract_x
 _atom_site_fract_y
 _atom_site_fract_z
 _atom_site_occupancy
  Dy  Dy0  1  0.00000000  0.50000000  0.22304500  1
  Dy  Dy1  1  0.50000000  0.00000000  0.77695500  1
  Ni  Ni0  1  0.00000000  0.00000000  0.00000000  1
  Ni  Ni1  1  0.50000000  0.50000000  0.00000000  1
  Ni  Ni2  1  0.00000000  0.50000000  0.63200300  1
  Ni  Ni3  1  0.50000000  0.00000000  0.36799700  1
  Bi  Bi0  1  0.00000000  0.00000000  0.50000000  1
  Bi  Bi1  1  0.50000000  0.50000000  0.50000000  1
  Bi  Bi2  1  0.00000000  0.50000000  0.87595500  1
  Bi  Bi3  1  0.50000000  0.00000000  0.12404500  1
loop_
_geom_bond_atom_site_label_1
_geom_bond_atom_site_label_2
_geom_bond_distance
_geom_bond_site_symmetry_2
Dy0 Ni0 3.251457 1_555
Dy0 Ni0 3.251457 1_565
Dy0 Ni1 3.251457 1_455
Dy0 Ni1 3.251457 1_555
Dy0 Ni3 3.578962 1_565
Dy0 Ni3 3.578962 1_455
Dy0 Ni3 3.578962 1_555
Dy0 Ni3 3.578962 1_465
Dy1 Ni0 3.251457 1_556
Dy1 Ni1 3.251457 1_556
Dy1 Ni0 3.251457 1_656
Dy1 Ni1 3.251457 1_546
Dy1 Ni2 3.578962 1_645
Dy1 Ni2 3.578962 1_555
Dy1 Ni2 3.578962 1_545
Dy1 Ni2 3.578962 1_655
Bi0 Ni2 2.671943 1_555
Bi0 Ni2 2.671943 1_545
Bi0 Ni3 2.671943 1_555
Bi0 Ni3 2.671943 1_455
Bi0 Dy1 3.665307 1_455
Bi0 Dy1 3.665307 1_555
Bi0 Dy0 3.665307 1_555
Bi0 Dy0 3.665307 1_545
Bi1 Ni2 2.671943 1_555
Bi1 Ni2 2.671943 1_655
Bi1 Ni3 2.671943 1_565
Bi1 Ni3 2.671943 1_555
Bi1 Dy1 3.665307 1_565
Bi1 Dy1 3.665307 1_555
Bi1 Dy0 3.665307 1_655
Bi1 Dy0 3.665307 1_555
Bi2 Ni2 2.513955 1_555
Bi2 Ni0 2.631139 1_566
Bi2 Ni0 2.631139 1_556
Bi2 Ni1 2.631139 1_456
Bi2 Ni1 2.631139 1_556
Bi2 Dy1 3.408593 1_455
Bi2 Dy1 3.408593 1_555
Bi2 Dy1 3.408593 1_565
Bi2 Dy1 3.408593 1_465
Bi2 Dy0 3.576805 1_556
Bi3 Ni3 2.513955 1_555
Bi3 Ni0 2.631139 1_555
Bi3 Ni1 2.631139 1_545
Bi3 Ni1 2.631139 1_555
Bi3 Ni0 2.631139 1_655
Bi3 Dy0 3.408593 1_655
Bi3 Dy0 3.408593 1_555
Bi3 Dy0 3.408593 1_545
Bi3 Dy0 3.408593 1_645
Bi3 Dy1 3.576805 1_554
