# generated using pymatgen
data_TeAsIr
_symmetry_space_group_name_H-M   'P 1'
_cell_length_a   6.20717564
_cell_length_b   6.20717564
_cell_length_c   6.20717564
_cell_angle_alpha   90.00000000
_cell_angle_beta   90.00000000
_cell_angle_gamma   90.00000000
_symmetry_Int_Tables_number   1
_chemical_formula_structural   TeAsIr
_chemical_formula_sum   'Te4 As4 Ir4'
_cell_volume   239.15645288
_cell_formula_units_Z   4
loop_
 _symmetry_equiv_pos_site_id
 _symmetry_equiv_pos_as_xyz
  1  'x, y, z'
loop_
 _atom_site_type_symbol
 _atom_site_label
 _atom_site_symmetry_multiplicity
 _atom_site_fract_x
 _atom_site_fract_y
 _atom_site_fract_z
 _atom_site_occupancy
  Te  Te0  1  0.12150119  0.62150119  0.87849881  1
  Te  Te1  1  0.62150119  0.87849881  0.12150119  1
  Te  Te2  1  0.87849881  0.12150119  0.62150119  1
  Te  Te3  1  0.37849881  0.37849881  0.37849881  1
  As  As0  1  0.87767530  0.37767530  0.12232470  1
  As  As1  1  0.37767530  0.12232470  0.87767530  1
  As  As2  1  0.12232470  0.87767530  0.37767530  1
  As  As3  1  0.62232470  0.62232470  0.62232470  1
  Ir  Ir0  1  0.48914754  0.98914754  0.51085246  1
  Ir  Ir1  1  0.98914754  0.51085246  0.48914754  1
  Ir  Ir2  1  0.51085246  0.48914754  0.98914754  1
  Ir  Ir3  1  0.01085246  0.01085246  0.01085246  1
loop_
_geom_bond_atom_site_label_1
_geom_bond_atom_site_label_2
_geom_bond_distance
_geom_bond_site_symmetry_2
As0 Ir1 2.519236 1_555
As0 Ir3 2.519236 1_655
As0 Ir2 2.519236 1_554
As0 Te0 2.621407 1_654
As1 Ir2 2.519236 1_555
As1 Ir3 2.519236 1_556
As1 Ir0 2.519236 1_545
As1 Te1 2.621407 1_546
As2 Ir0 2.519236 1_555
As2 Ir3 2.519236 1_565
As2 Ir1 2.519236 1_455
As2 Te2 2.621407 1_465
As3 Ir0 2.519236 1_555
As3 Ir1 2.519236 1_555
As3 Ir2 2.519236 1_555
As3 Te3 2.621407 1_555
Ir0 Te3 2.643375 1_565
Ir0 Te1 2.643375 1_555
Ir0 Te2 2.643375 1_565
Ir1 Te3 2.643375 1_655
Ir1 Te0 2.643375 1_655
Ir1 Te2 2.643375 1_555
Ir2 Te3 2.643375 1_556
Ir2 Te1 2.643375 1_556
Ir2 Te0 2.643375 1_555
Ir3 Te0 2.643375 1_544
Ir3 Te1 2.643375 1_445
Ir3 Te2 2.643375 1_454
