# generated using pymatgen
data_Nd2Co
_symmetry_space_group_name_H-M   'P 1'
_cell_length_a   6.24318154
_cell_length_b   6.24318154
_cell_length_c   6.24318154
_cell_angle_alpha   60.00000000
_cell_angle_beta   60.00000000
_cell_angle_gamma   60.00000000
_symmetry_Int_Tables_number   1
_chemical_formula_structural   Nd2Co
_chemical_formula_sum   'Nd4 Co2'
_cell_volume   172.06910192
_cell_formula_units_Z   2
loop_
 _symmetry_equiv_pos_site_id
 _symmetry_equiv_pos_as_xyz
  1  'x, y, z'
loop_
 _atom_site_type_symbol
 _atom_site_label
 _atom_site_symmetry_multiplicity
 _atom_site_fract_x
 _atom_site_fract_y
 _atom_site_fract_z
 _atom_site_occupancy
  Nd  Nd0  1  0.62500000  0.62500000  0.62500000  1
  Nd  Nd1  1  0.62500000  0.62500000  0.12500000  1
  Nd  Nd2  1  0.62500000  0.12500000  0.62500000  1
  Nd  Nd3  1  0.12500000  0.62500000  0.62500000  1
  Co  Co0  1  0.00000000  0.00000000  0.00000000  1
  Co  Co1  1  0.25000000  0.25000000  0.25000000  1
loop_
_geom_bond_atom_site_label_1
_geom_bond_atom_site_label_2
_geom_bond_distance
_geom_bond_site_symmetry_2
Nd0 Nd1 3.121591 1_555
Nd0 Nd1 3.121591 1_556
Nd0 Nd3 3.121591 1_655
Nd0 Nd2 3.121591 1_555
Nd0 Nd2 3.121591 1_565
Nd0 Nd3 3.121591 1_555
Nd1 Nd2 3.121591 1_564
Nd1 Nd3 3.121591 1_654
Nd1 Nd2 3.121591 1_555
Nd1 Nd3 3.121591 1_555
Nd2 Nd3 3.121591 1_645
Nd2 Nd3 3.121591 1_555
Co0 Nd3 3.660390 1_544
Co0 Nd1 3.660390 1_445
Co0 Nd0 3.660390 1_454
Co0 Nd0 3.660390 1_544
Co0 Nd3 3.660390 1_545
Co0 Nd2 3.660390 1_455
Co0 Nd2 3.660390 1_454
Co0 Nd3 3.660390 1_554
Co0 Nd0 3.660390 1_445
Co0 Nd1 3.660390 1_455
Co0 Nd2 3.660390 1_554
Co0 Nd1 3.660390 1_545
Co1 Nd3 3.660390 1_555
Co1 Nd1 3.660390 1_555
Co1 Nd3 3.660390 1_545
Co1 Nd0 3.660390 1_545
Co1 Nd2 3.660390 1_554
Co1 Nd3 3.660390 1_554
Co1 Nd0 3.660390 1_554
Co1 Nd2 3.660390 1_555
Co1 Nd0 3.660390 1_455
Co1 Nd1 3.660390 1_455
Co1 Nd2 3.660390 1_455
Co1 Nd1 3.660390 1_545
