# generated using pymatgen
data_CaYb3
_symmetry_space_group_name_H-M   'P 1'
_cell_length_a   7.17739883
_cell_length_b   7.17739883
_cell_length_c   5.81739281
_cell_angle_alpha   90.00000000
_cell_angle_beta   90.00000000
_cell_angle_gamma   119.99999921
_symmetry_Int_Tables_number   1
_chemical_formula_structural   CaYb3
_chemical_formula_sum   'Ca2 Yb6'
_cell_volume   259.53335669
_cell_formula_units_Z   2
loop_
 _symmetry_equiv_pos_site_id
 _symmetry_equiv_pos_as_xyz
  1  'x, y, z'
loop_
 _atom_site_type_symbol
 _atom_site_label
 _atom_site_symmetry_multiplicity
 _atom_site_fract_x
 _atom_site_fract_y
 _atom_site_fract_z
 _atom_site_occupancy
  Ca  Ca0  1  0.33333300  0.66666700  0.75000000  1
  Ca  Ca1  1  0.66666700  0.33333300  0.25000000  1
  Yb  Yb0  1  0.16271579  0.32543157  0.25000000  1
  Yb  Yb1  1  0.67456843  0.83728421  0.25000000  1
  Yb  Yb2  1  0.16271579  0.83728421  0.25000000  1
  Yb  Yb3  1  0.83728421  0.67456843  0.75000000  1
  Yb  Yb4  1  0.32543157  0.16271579  0.75000000  1
  Yb  Yb5  1  0.83728421  0.16271579  0.75000000  1
loop_
_geom_bond_atom_site_label_1
_geom_bond_atom_site_label_2
_geom_bond_distance
_geom_bond_site_symmetry_2
Ca0 Yb4 3.589032 1_565
Ca0 Yb3 3.589032 1_455
Ca0 Yb5 3.589036 1_455
Ca0 Yb5 3.589036 1_565
Ca0 Yb4 3.589039 1_555
Ca0 Yb3 3.589039 1_555
Ca0 Yb2 3.599911 1_555
Ca0 Yb2 3.599911 1_556
Ca0 Yb1 3.599915 1_555
Ca0 Yb0 3.599915 1_556
Ca0 Yb0 3.599915 1_555
Ca0 Yb1 3.599915 1_556
Ca1 Yb1 3.589032 1_545
Ca1 Yb0 3.589032 1_655
Ca1 Yb2 3.589036 1_545
Ca1 Yb2 3.589036 1_655
Ca1 Yb0 3.589039 1_555
Ca1 Yb1 3.589039 1_555
Ca1 Yb5 3.599911 1_554
Ca1 Yb5 3.599911 1_555
Ca1 Yb4 3.599915 1_555
Ca1 Yb4 3.599915 1_554
Ca1 Yb3 3.599915 1_554
Ca1 Yb3 3.599915 1_555
Yb0 Yb2 3.503628 1_545
Yb0 Yb1 3.503628 1_445
Yb0 Yb4 3.542925 1_555
Yb0 Yb4 3.542925 1_554
Yb0 Yb5 3.542925 1_455
Yb0 Yb5 3.542925 1_454
Yb0 Yb2 3.673771 1_555
Yb0 Yb1 3.673771 1_555
Yb1 Yb2 3.503628 1_655
Yb1 Yb3 3.542925 1_554
Yb1 Yb3 3.542925 1_555
Yb1 Yb5 3.542925 1_565
Yb1 Yb5 3.542925 1_564
Yb1 Yb2 3.673771 1_555
Yb2 Yb3 3.542925 1_455
Yb2 Yb4 3.542925 1_564
Yb2 Yb3 3.542925 1_454
Yb2 Yb4 3.542925 1_565
Yb3 Yb5 3.503628 1_565
Yb3 Yb4 3.503628 1_665
Yb3 Yb5 3.673771 1_555
Yb3 Yb4 3.673771 1_555
Yb4 Yb5 3.503628 1_455
Yb4 Yb5 3.673771 1_555
