# generated using pymatgen
data_CaCrF4
_symmetry_space_group_name_H-M   'P 1'
_cell_length_a   6.53769602
_cell_length_b   6.53767676
_cell_length_c   6.53769682
_cell_angle_alpha   130.94142823
_cell_angle_beta   130.94151894
_cell_angle_gamma   71.90674409
_symmetry_Int_Tables_number   1
_chemical_formula_structural   CaCrF4
_chemical_formula_sum   'Ca2 Cr2 F8'
_cell_volume   155.94585844
_cell_formula_units_Z   2
loop_
 _symmetry_equiv_pos_site_id
 _symmetry_equiv_pos_as_xyz
  1  'x, y, z'
loop_
 _atom_site_type_symbol
 _atom_site_label
 _atom_site_symmetry_multiplicity
 _atom_site_fract_x
 _atom_site_fract_y
 _atom_site_fract_z
 _atom_site_occupancy
  Ca  Ca0  1  0.75000034  0.75000024  1.00000025  1
  Ca  Ca1  1  0.24999920  0.25000017  0.00000026  1
  Cr  Cr0  1  0.00000150  0.49999871  0.50000045  1
  Cr  Cr1  1  0.49999685  0.99999897  0.49999606  1
  F  F0  1  0.94623032  0.44623152  0.13207950  1
  F  F1  1  0.68584882  0.18585034  0.13207627  1
  F  F2  1  0.05376833  0.55376961  0.86791945  1
  F  F3  1  0.55377475  0.68585202  0.50000226  1
  F  F4  1  0.31414871  0.81414977  0.86792428  1
  F  F5  1  0.81414908  0.94622552  0.49999958  1
  F  F6  1  0.44622487  0.31414919  0.49999939  1
  F  F7  1  0.18585723  0.05377393  0.50000225  1
loop_
_geom_bond_atom_site_label_1
_geom_bond_atom_site_label_2
_geom_bond_distance
_geom_bond_site_symmetry_2
Ca0 F6 2.355523 1_555
Ca0 F0 2.355533 1_556
Ca0 F3 2.355539 1_555
Ca0 F2 2.355541 1_655
Ca0 F7 2.355542 1_666
Ca0 F1 2.355546 1_566
Ca0 F5 2.355548 1_556
Ca0 F4 2.355560 1_555
Ca1 F5 2.355519 1_444
Ca1 F3 2.355526 1_555
Ca1 F0 2.355541 1_455
Ca1 F6 2.355543 1_555
Ca1 F2 2.355544 1_554
Ca1 F4 2.355547 1_544
Ca1 F1 2.355548 1_555
Ca1 F7 2.355563 1_554
Cr0 F4 1.973103 1_555
Cr0 F1 1.973113 1_455
Cr0 F2 1.973142 1_555
Cr0 F0 1.973152 1_455
Cr1 F7 1.973095 1_565
Cr1 F6 1.973125 1_565
Cr1 F3 1.973133 1_555
Cr1 F5 1.973142 1_555
