# generated using pymatgen
data_Mo3As2O15
_symmetry_space_group_name_H-M   'P 1'
_cell_length_a   7.59668881
_cell_length_b   7.59668881
_cell_length_c   13.13146820
_cell_angle_alpha   65.44413619
_cell_angle_beta   65.44413619
_cell_angle_gamma   61.65965952
_symmetry_Int_Tables_number   1
_chemical_formula_structural   Mo3As2O15
_chemical_formula_sum   'Mo6 As4 O30'
_cell_volume   583.66799117
_cell_formula_units_Z   2
loop_
 _symmetry_equiv_pos_site_id
 _symmetry_equiv_pos_as_xyz
  1  'x, y, z'
loop_
 _atom_site_type_symbol
 _atom_site_label
 _atom_site_symmetry_multiplicity
 _atom_site_fract_x
 _atom_site_fract_y
 _atom_site_fract_z
 _atom_site_occupancy
  Mo  Mo0  1  0.86475100  0.77758200  0.84875400  1
  Mo  Mo1  1  0.17109000  0.12335700  0.66673300  1
  Mo  Mo2  1  0.12335600  0.17109000  0.16673300  1
  Mo  Mo3  1  0.77758200  0.86475100  0.34875400  1
  Mo  Mo4  1  0.51389800  0.45997200  0.52598900  1
  Mo  Mo5  1  0.45997200  0.51389800  0.02598900  1
  As  As0  1  0.31216600  0.04275700  0.90372300  1
  As  As1  1  0.97261200  0.68878800  0.58635100  1
  As  As2  1  0.68878800  0.97261200  0.08635100  1
  As  As3  1  0.04275700  0.31216600  0.40372300  1
  O  O0  1  0.21976000  0.70145900  0.53245800  1
  O  O1  1  0.29888700  0.79636800  0.95007000  1
  O  O2  1  0.79636800  0.29888700  0.45007000  1
  O  O3  1  0.70145900  0.21976000  0.03245800  1
  O  O4  1  0.95696700  0.03414500  0.75309100  1
  O  O5  1  0.03414500  0.95696700  0.25309100  1
  O  O6  1  0.53152600  0.44644100  0.65458900  1
  O  O7  1  0.62615900  0.41388200  0.86275000  1
  O  O8  1  0.41388200  0.62615900  0.36275000  1
  O  O9  1  0.44644100  0.53152600  0.15458900  1
  O  O10  1  0.60664000  0.71591900  0.43321300  1
  O  O11  1  0.27720700  0.39750200  0.06294800  1
  O  O12  1  0.39750200  0.27720700  0.56294800  1
  O  O13  1  0.71591900  0.60664000  0.93321300  1
  O  O14  1  0.11267100  0.60114000  0.83262200  1
  O  O15  1  0.37816300  0.89359200  0.67509600  1
  O  O16  1  0.89359200  0.37816300  0.17509600  1
  O  O17  1  0.60114000  0.11267100  0.33262200  1
  O  O18  1  0.15917100  0.14368200  0.51397900  1
  O  O19  1  0.85844000  0.83592200  0.98503500  1
  O  O20  1  0.83592200  0.85844000  0.48503500  1
  O  O21  1  0.14368200  0.15917100  0.01397900  1
  O  O22  1  0.83670500  0.81111500  0.69654200  1
  O  O23  1  0.18531100  0.18865000  0.79597300  1
  O  O24  1  0.18865000  0.18531100  0.29597300  1
  O  O25  1  0.81111500  0.83670500  0.19654200  1
  O  O26  1  0.97025300  0.44645100  0.63128200  1
  O  O27  1  0.55551100  0.03819000  0.86380200  1
  O  O28  1  0.03819000  0.55551100  0.36380200  1
  O  O29  1  0.44645100  0.97025300  0.13128200  1
loop_
_geom_bond_atom_site_label_1
_geom_bond_atom_site_label_2
_geom_bond_distance
_geom_bond_site_symmetry_2
Mo0 O14 1.701832 1_655
Mo0 O13 1.830129 1_555
Mo0 O19 1.992236 1_555
Mo0 O22 1.996141 1_555
Mo0 O4 2.096993 1_565
Mo0 O27 2.236283 1_565
Mo1 O15 1.706063 1_545
Mo1 O4 1.807172 1_455
Mo1 O18 1.983903 1_555
Mo1 O23 2.010175 1_555
Mo1 O26 2.157334 1_455
Mo1 O12 2.194998 1_555
Mo2 O16 1.706058 1_455
Mo2 O5 1.807168 1_545
Mo2 O21 1.983901 1_555
Mo2 O24 2.010180 1_555
Mo2 O29 2.157340 1_545
Mo2 O11 2.195003 1_555
Mo3 O17 1.701832 1_565
Mo3 O10 1.830129 1_555
Mo3 O20 1.992236 1_555
Mo3 O25 1.996141 1_555
Mo3 O5 2.096993 1_655
Mo3 O28 2.236283 1_655
Mo4 O6 1.706120 1_555
Mo4 O12 1.787147 1_555
Mo4 O2 1.959289 1_555
Mo4 O10 2.092704 1_555
Mo4 O0 2.108424 1_555
Mo4 O8 2.227039 1_555
Mo5 O9 1.706120 1_555
Mo5 O11 1.787147 1_555
Mo5 O1 1.959289 1_554
Mo5 O13 2.092704 1_554
Mo5 O3 2.108424 1_555
Mo5 O7 2.227039 1_554
As0 O27 1.685869 1_555
As0 O21 1.722156 1_556
As0 O23 1.724788 1_555
As0 O1 1.750831 1_545
As1 O26 1.690356 1_555
As1 O20 1.720992 1_555
As1 O22 1.728657 1_555
As1 O0 1.745201 1_655
As2 O29 1.690356 1_555
As2 O19 1.720992 1_554
As2 O25 1.728657 1_555
As2 O3 1.745201 1_565
As3 O28 1.685869 1_555
As3 O18 1.722156 1_555
As3 O24 1.724788 1_555
As3 O2 1.750831 1_455
