# generated using pymatgen
data_Na6MnO4
_symmetry_space_group_name_H-M   'P 1'
_cell_length_a   5.84267088
_cell_length_b   7.60764136
_cell_length_c   13.17972950
_cell_angle_alpha   90.00000000
_cell_angle_beta   90.00000000
_cell_angle_gamma   90.00000000
_symmetry_Int_Tables_number   1
_chemical_formula_structural   Na6MnO4
_chemical_formula_sum   'Na24 Mn4 O16'
_cell_volume   585.82506691
_cell_formula_units_Z   4
loop_
 _symmetry_equiv_pos_site_id
 _symmetry_equiv_pos_as_xyz
  1  'x, y, z'
loop_
 _atom_site_type_symbol
 _atom_site_label
 _atom_site_symmetry_multiplicity
 _atom_site_fract_x
 _atom_site_fract_y
 _atom_site_fract_z
 _atom_site_occupancy
  Na  Na0  1  0.14233934  0.50000000  0.03791294  1
  Na  Na1  1  0.14233934  0.00000000  0.53791294  1
  Na  Na2  1  0.64255034  0.19322041  0.26933760  1
  Na  Na3  1  0.64255034  0.69322041  0.76933760  1
  Na  Na4  1  0.14255034  0.69322041  0.23066240  1
  Na  Na5  1  0.14255034  0.19322041  0.73066240  1
  Na  Na6  1  0.14255034  0.30677959  0.23066240  1
  Na  Na7  1  0.14255034  0.80677959  0.73066240  1
  Na  Na8  1  0.64255034  0.80677959  0.26933760  1
  Na  Na9  1  0.64255034  0.30677959  0.76933760  1
  Na  Na10  1  0.64233934  0.00000000  0.46208706  1
  Na  Na11  1  0.64233934  0.50000000  0.96208706  1
  Na  Na12  1  0.97373786  0.71002783  0.43008235  1
  Na  Na13  1  0.97373786  0.21002783  0.93008235  1
  Na  Na14  1  0.47373786  0.21002783  0.06991765  1
  Na  Na15  1  0.47373786  0.71002783  0.56991765  1
  Na  Na16  1  0.47412023  0.50000000  0.35935849  1
  Na  Na17  1  0.47412023  0.00000000  0.85935849  1
  Na  Na18  1  0.47373786  0.78997217  0.06991765  1
  Na  Na19  1  0.47373786  0.28997217  0.56991765  1
  Na  Na20  1  0.97373786  0.28997217  0.43008235  1
  Na  Na21  1  0.97373786  0.78997217  0.93008235  1
  Na  Na22  1  0.97412023  0.00000000  0.14064151  1
  Na  Na23  1  0.97412023  0.50000000  0.64064151  1
  Mn  Mn0  1  0.74780009  0.00000000  0.66684632  1
  Mn  Mn1  1  0.24780009  0.50000000  0.83315368  1
  Mn  Mn2  1  0.74780009  0.50000000  0.16684632  1
  Mn  Mn3  1  0.24780009  0.00000000  0.33315368  1
  O  O0  1  0.40542009  0.50000000  0.16667491  1
  O  O1  1  0.40542009  0.00000000  0.66667491  1
  O  O2  1  0.90542009  0.00000000  0.33332509  1
  O  O3  1  0.90542009  0.50000000  0.83332509  1
  O  O4  1  0.36393385  0.78066658  0.40635333  1
  O  O5  1  0.36393385  0.28066658  0.90635333  1
  O  O6  1  0.86393385  0.28066658  0.09364667  1
  O  O7  1  0.86393385  0.78066658  0.59364667  1
  O  O8  1  0.86415414  0.50000000  0.31297783  1
  O  O9  1  0.86415414  0.00000000  0.81297783  1
  O  O10  1  0.36415414  0.00000000  0.18702217  1
  O  O11  1  0.36415414  0.50000000  0.68702217  1
  O  O12  1  0.36393385  0.21933342  0.40635333  1
  O  O13  1  0.36393385  0.71933342  0.90635333  1
  O  O14  1  0.86393385  0.71933342  0.09364667  1
  O  O15  1  0.86393385  0.21933342  0.59364667  1
loop_
_geom_bond_atom_site_label_1
_geom_bond_atom_site_label_2
_geom_bond_distance
_geom_bond_site_symmetry_2
Na0 O0 2.289679 1_555
Na0 O14 2.443310 1_455
Na0 O6 2.443310 1_455
Na0 O13 2.732580 1_554
Na0 O5 2.732580 1_554
Na1 O1 2.289679 1_555
Na1 O7 2.443310 1_445
Na1 O15 2.443310 1_455
Na1 O4 2.732580 1_545
Na1 O12 2.732580 1_555
Na2 O2 2.287104 1_555
Na2 O12 2.439350 1_555
Na2 O10 2.446121 1_555
Na2 O8 2.730231 1_555
Na2 O6 2.734493 1_555
Na3 O3 2.287104 1_555
Na3 O13 2.439350 1_555
Na3 O11 2.446121 1_555
Na3 O9 2.730231 1_565
Na3 O7 2.734493 1_555
Na4 O0 2.287104 1_555
Na4 O14 2.439350 1_455
Na4 O8 2.446121 1_455
Na4 O10 2.730231 1_565
Na4 O4 2.734493 1_555
Na5 O1 2.287104 1_555
Na5 O15 2.439350 1_455
Na5 O9 2.446121 1_455
Na5 O11 2.730231 1_555
Na5 O5 2.734493 1_555
Na6 O0 2.287104 1_555
Na6 O6 2.439350 1_455
Na6 O8 2.446121 1_455
Na6 O10 2.730231 1_555
Na6 O12 2.734493 1_555
Na7 O1 2.287104 1_565
Na7 O7 2.439350 1_455
Na7 O9 2.446121 1_465
Na7 O11 2.730231 1_555
Na7 O13 2.734493 1_555
Na8 O2 2.287104 1_565
Na8 O4 2.439350 1_555
Na8 O10 2.446121 1_565
Na8 O8 2.730231 1_555
Na8 O14 2.734493 1_555
Na9 O3 2.287104 1_555
Na9 O5 2.439350 1_555
Na9 O11 2.446121 1_555
Na9 O9 2.730231 1_555
Na9 O15 2.734493 1_555
Na10 O2 2.289679 1_555
Na10 O4 2.443310 1_545
Na10 O12 2.443310 1_555
Na10 O7 2.732580 1_545
Na10 O15 2.732580 1_555
Na11 O3 2.289679 1_555
Na11 O13 2.443310 1_555
Na11 O5 2.443310 1_555
Na11 O6 2.732580 1_556
Na11 O14 2.732580 1_556
Na12 O8 2.311937 1_555
Na12 O7 2.312480 1_555
Na12 O4 2.363055 1_655
Na12 O2 2.579148 1_565
Na13 O9 2.311937 1_555
Na13 O6 2.312480 1_556
Na13 O5 2.363055 1_655
Na13 O3 2.579148 1_555
Na14 O10 2.311937 1_555
Na14 O5 2.312480 1_554
Na14 O6 2.363055 1_555
Na14 O0 2.579148 1_555
Na15 O11 2.311937 1_555
Na15 O4 2.312480 1_555
Na15 O7 2.363055 1_555
Na15 O1 2.579148 1_565
Na16 O4 2.314565 1_555
Na16 O12 2.314565 1_555
Na16 O8 2.359402 1_555
Na16 O0 2.571044 1_555
Na17 O5 2.314565 1_555
Na17 O13 2.314565 1_545
Na17 O9 2.359402 1_555
Na17 O1 2.571044 1_555
Na18 O10 2.311937 1_565
Na18 O13 2.312480 1_554
Na18 O14 2.363055 1_555
Na18 O0 2.579148 1_555
Na19 O11 2.311937 1_555
Na19 O12 2.312480 1_555
Na19 O15 2.363055 1_555
Na19 O1 2.579148 1_555
Na20 O8 2.311937 1_555
Na20 O15 2.312480 1_555
Na20 O12 2.363055 1_655
Na20 O2 2.579148 1_555
Na21 O9 2.311937 1_565
Na21 O14 2.312480 1_556
Na21 O13 2.363055 1_655
Na21 O3 2.579148 1_555
Na22 O6 2.314565 1_555
Na22 O14 2.314565 1_545
Na22 O10 2.359402 1_655
Na22 O2 2.571044 1_555
Na23 O7 2.314565 1_555
Na23 O15 2.314565 1_555
Na23 O11 2.359402 1_655
Na23 O3 2.571044 1_555
Mn0 O1 2.000415 1_555
Mn0 O9 2.042432 1_555
Mn0 O15 2.043382 1_555
Mn0 O7 2.043382 1_545
Mn1 O3 2.000415 1_455
Mn1 O11 2.042432 1_555
Mn1 O5 2.043382 1_555
Mn1 O13 2.043382 1_555
Mn2 O0 2.000415 1_555
Mn2 O8 2.042432 1_555
Mn2 O6 2.043382 1_555
Mn2 O14 2.043382 1_555
Mn3 O2 2.000415 1_455
Mn3 O10 2.042432 1_555
Mn3 O12 2.043382 1_555
Mn3 O4 2.043382 1_545
