# generated using pymatgen
data_Zr5N5O2
_symmetry_space_group_name_H-M   'P 1'
_cell_length_a   5.52347654
_cell_length_b   5.52347654
_cell_length_c   9.25958089
_cell_angle_alpha   74.94477077
_cell_angle_beta   74.94477077
_cell_angle_gamma   32.80053170
_symmetry_Int_Tables_number   1
_chemical_formula_structural   Zr5N5O2
_chemical_formula_sum   'Zr5 N5 O2'
_cell_volume   147.31744463
_cell_formula_units_Z   1
loop_
 _symmetry_equiv_pos_site_id
 _symmetry_equiv_pos_as_xyz
  1  'x, y, z'
loop_
 _atom_site_type_symbol
 _atom_site_label
 _atom_site_symmetry_multiplicity
 _atom_site_fract_x
 _atom_site_fract_y
 _atom_site_fract_z
 _atom_site_occupancy
  Zr  Zr0  1  0.88596900  0.88596900  0.42300600  1
  Zr  Zr1  1  0.29892700  0.29892700  0.80604900  1
  Zr  Zr2  1  0.70107300  0.70107300  0.19395100  1
  Zr  Zr3  1  0.11403100  0.11403100  0.57699400  1
  Zr  Zr4  1  0.00000000  0.00000000  0.00000000  1
  N  N0  1  0.50000000  0.50000000  0.50000000  1
  N  N1  1  0.34393500  0.34393500  0.05251900  1
  N  N2  1  0.26224200  0.26224200  0.35170800  1
  N  N3  1  0.73775800  0.73775800  0.64829200  1
  N  N4  1  0.65606500  0.65606500  0.94748100  1
  O  O0  1  0.95528100  0.95528100  0.78697000  1
  O  O1  1  0.04471900  0.04471900  0.21303000  1
loop_
_geom_bond_atom_site_label_1
_geom_bond_atom_site_label_2
_geom_bond_distance
_geom_bond_site_symmetry_2
N0 Zr0 2.206194 1_455
N0 Zr3 2.206194 1_565
N0 Zr0 2.206194 1_545
N0 Zr3 2.206194 1_655
N1 Zr4 2.229001 1_565
N1 Zr4 2.229001 1_655
N1 Zr2 2.316380 1_545
N1 Zr2 2.316380 1_455
N1 Zr1 2.454682 1_554
N2 Zr3 2.245947 1_555
N2 Zr0 2.248553 1_545
N2 Zr0 2.248553 1_455
N2 Zr2 2.344988 1_545
N2 Zr2 2.344988 1_455
N3 Zr0 2.245947 1_555
N3 Zr3 2.248553 1_655
N3 Zr3 2.248553 1_565
N3 Zr1 2.344988 1_565
N3 Zr1 2.344988 1_655
N4 Zr4 2.229001 1_656
N4 Zr4 2.229001 1_566
N4 Zr1 2.316380 1_655
N4 Zr1 2.316380 1_565
N4 Zr2 2.454682 1_556
O0 Zr4 2.149849 1_666
O0 Zr3 2.199823 1_665
O0 Zr1 2.247296 1_565
O0 Zr1 2.247296 1_655
O1 Zr4 2.149849 1_555
O1 Zr0 2.199823 1_445
O1 Zr2 2.247296 1_455
O1 Zr2 2.247296 1_545
