# generated using pymatgen
data_ScVO4
_symmetry_space_group_name_H-M   'P 1'
_cell_length_a   4.90214400
_cell_length_b   4.90214400
_cell_length_c   6.41926438
_cell_angle_alpha   112.44712457
_cell_angle_beta   112.44712457
_cell_angle_gamma   90.00000000
_symmetry_Int_Tables_number   1
_chemical_formula_structural   ScVO4
_chemical_formula_sum   'Sc2 V2 O8'
_cell_volume   129.83743959
_cell_formula_units_Z   2
loop_
 _symmetry_equiv_pos_site_id
 _symmetry_equiv_pos_as_xyz
  1  'x, y, z'
loop_
 _atom_site_type_symbol
 _atom_site_label
 _atom_site_symmetry_multiplicity
 _atom_site_fract_x
 _atom_site_fract_y
 _atom_site_fract_z
 _atom_site_occupancy
  Sc  Sc0  1  0.62500000  0.87500000  0.25000000  1
  Sc  Sc1  1  0.37500000  0.12500000  0.75000000  1
  V  V0  1  0.12500000  0.37500000  0.25000000  1
  V  V1  1  0.87500000  0.62500000  0.75000000  1
  O  O0  1  0.37182000  0.71983200  0.41282200  1
  O  O1  1  0.04100100  0.19299000  0.41282200  1
  O  O2  1  0.21983200  0.54100100  0.91282200  1
  O  O3  1  0.69299000  0.87182000  0.91282200  1
  O  O4  1  0.62818000  0.28016800  0.58717800  1
  O  O5  1  0.95899900  0.80701000  0.58717800  1
  O  O6  1  0.78016800  0.45899900  0.08717800  1
  O  O7  1  0.30701000  0.12818000  0.08717800  1
loop_
_geom_bond_atom_site_label_1
_geom_bond_atom_site_label_2
_geom_bond_distance
_geom_bond_site_symmetry_2
O0 V0 1.760373 1_555
O0 Sc0 2.192989 1_555
O0 Sc1 2.306782 1_565
O1 V0 1.760375 1_555
O1 Sc0 2.192985 1_445
O1 Sc1 2.306784 1_555
O2 V1 1.760375 1_455
O2 Sc1 2.192985 1_555
O2 Sc0 2.306784 1_556
O3 V1 1.760373 1_555
O3 Sc1 2.192989 1_565
O3 Sc0 2.306782 1_556
O4 V1 1.760373 1_555
O4 Sc1 2.192989 1_555
O4 Sc0 2.306782 1_545
O5 V1 1.760375 1_555
O5 Sc1 2.192985 1_665
O5 Sc0 2.306784 1_555
O6 V0 1.760375 1_655
O6 Sc0 2.192985 1_555
O6 Sc1 2.306784 1_554
O7 V0 1.760373 1_555
O7 Sc0 2.192989 1_545
O7 Sc1 2.306782 1_554
