# generated using pymatgen
data_Cs12Sn2Bi6O
_symmetry_space_group_name_H-M   'P 1'
_cell_length_a   13.64488745
_cell_length_b   13.64488745
_cell_length_c   6.59217500
_cell_angle_alpha   90.00000000
_cell_angle_beta   90.00000000
_cell_angle_gamma   119.99999731
_symmetry_Int_Tables_number   1
_chemical_formula_structural   Cs12Sn2Bi6O
_chemical_formula_sum   'Cs12 Sn2 Bi6 O1'
_cell_volume   1062.91683717
_cell_formula_units_Z   1
loop_
 _symmetry_equiv_pos_site_id
 _symmetry_equiv_pos_as_xyz
  1  'x, y, z'
loop_
 _atom_site_type_symbol
 _atom_site_label
 _atom_site_symmetry_multiplicity
 _atom_site_fract_x
 _atom_site_fract_y
 _atom_site_fract_z
 _atom_site_occupancy
  Cs  Cs0  1  0.90229600  0.45114800  0.24945000  1
  Cs  Cs1  1  0.54885200  0.45114800  0.24945000  1
  Cs  Cs2  1  0.54885200  0.09770400  0.24945000  1
  Cs  Cs3  1  0.09770400  0.54885200  0.75055000  1
  Cs  Cs4  1  0.45114800  0.54885200  0.75055000  1
  Cs  Cs5  1  0.45114800  0.90229600  0.75055000  1
  Cs  Cs6  1  0.22226800  0.11113400  0.27657400  1
  Cs  Cs7  1  0.88886600  0.11113400  0.27657400  1
  Cs  Cs8  1  0.88886600  0.77773200  0.27657400  1
  Cs  Cs9  1  0.77773200  0.88886600  0.72342600  1
  Cs  Cs10  1  0.11113400  0.88886600  0.72342600  1
  Cs  Cs11  1  0.11113400  0.22226800  0.72342600  1
  Sn  Sn0  1  0.66666700  0.33333300  0.75079300  1
  Sn  Sn1  1  0.33333300  0.66666700  0.24920700  1
  Bi  Bi0  1  0.57699900  0.78850000  0.24908200  1
  Bi  Bi1  1  0.21150000  0.78850000  0.24908200  1
  Bi  Bi2  1  0.21150000  0.42300100  0.24908200  1
  Bi  Bi3  1  0.42300100  0.21150000  0.75091800  1
  Bi  Bi4  1  0.78850000  0.21150000  0.75091800  1
  Bi  Bi5  1  0.78850000  0.57699900  0.75091800  1
  O  O0  1  0.00000000  0.00000000  0.50000000  1
loop_
_geom_bond_atom_site_label_1
_geom_bond_atom_site_label_2
_geom_bond_distance
_geom_bond_site_symmetry_2
Cs0 Cs3 4.018506 1_654
Cs0 Cs3 4.030384 1_655
Cs0 Sn0 4.307982 1_554
Cs0 Sn0 4.321508 1_555
Cs1 Cs4 4.018506 1_554
Cs1 Cs4 4.030384 1_555
Cs1 Sn0 4.307990 1_554
Cs1 Sn0 4.321516 1_555
Cs2 Cs5 4.018506 1_544
Cs2 Cs5 4.030384 1_545
Cs2 Sn0 4.307982 1_554
Cs2 Sn0 4.321508 1_555
Cs3 Sn1 4.307982 1_556
Cs3 Sn1 4.321508 1_555
Cs4 Sn1 4.307990 1_556
Cs4 Sn1 4.321516 1_555
Cs5 Sn1 4.307982 1_556
Cs5 Sn1 4.321508 1_555
Cs6 O0 3.011284 1_555
Cs7 O0 3.011284 1_655
Cs8 O0 3.011284 1_665
Cs9 O0 3.011284 1_665
Cs10 O0 3.011284 1_565
Cs11 O0 3.011284 1_555
Bi0 Sn1 2.879357 1_555
Bi0 Cs9 3.924841 1_555
Bi0 Cs9 4.199313 1_554
Bi0 Cs7 4.334507 1_565
Bi0 Cs8 4.334514 1_555
Bi0 Cs5 4.338976 1_554
Bi0 Cs4 4.338984 1_554
Bi0 Cs5 4.353654 1_555
Bi0 Cs4 4.353662 1_555
Bi0 Cs2 4.423608 1_565
Bi0 Cs1 4.423621 1_555
Bi1 Sn1 2.879357 1_555
Bi1 Cs10 3.924834 1_555
Bi1 Cs10 4.199306 1_554
Bi1 Cs6 4.334501 1_565
Bi1 Cs8 4.334501 1_455
Bi1 Cs5 4.338984 1_554
Bi1 Cs3 4.338984 1_554
Bi1 Cs5 4.353662 1_555
Bi1 Cs3 4.353662 1_555
Bi1 Cs2 4.423616 1_565
Bi1 Cs0 4.423616 1_455
Bi2 Sn1 2.879357 1_555
Bi2 Cs11 3.924841 1_555
Bi2 Cs11 4.199313 1_554
Bi2 Cs7 4.334507 1_455
Bi2 Cs6 4.334514 1_555
Bi2 Cs3 4.338976 1_554
Bi2 Cs4 4.338984 1_554
Bi2 Cs3 4.353654 1_555
Bi2 Cs4 4.353662 1_555
Bi2 Cs0 4.423608 1_455
Bi2 Cs1 4.423621 1_555
Bi3 Sn0 2.879357 1_555
Bi3 Cs6 3.924841 1_555
Bi3 Cs6 4.199313 1_556
Bi3 Cs10 4.334507 1_545
Bi3 Cs11 4.334514 1_555
Bi3 Cs2 4.338976 1_556
Bi3 Cs1 4.338984 1_556
Bi3 Cs2 4.353654 1_555
Bi3 Cs1 4.353662 1_555
Bi3 Cs5 4.423608 1_545
Bi3 Cs4 4.423621 1_555
Bi4 Sn0 2.879357 1_555
Bi4 Cs7 3.924834 1_555
Bi4 Cs7 4.199306 1_556
Bi4 Cs11 4.334501 1_655
Bi4 Cs9 4.334501 1_545
Bi4 Cs0 4.338984 1_556
Bi4 Cs2 4.338984 1_556
Bi4 Cs0 4.353662 1_555
Bi4 Cs2 4.353662 1_555
Bi4 Cs3 4.423616 1_655
Bi4 Cs5 4.423616 1_545
Bi5 Sn0 2.879357 1_555
Bi5 Cs8 3.924841 1_555
Bi5 Cs8 4.199313 1_556
Bi5 Cs10 4.334507 1_655
Bi5 Cs9 4.334514 1_555
Bi5 Cs0 4.338976 1_556
Bi5 Cs1 4.338984 1_556
Bi5 Cs0 4.353654 1_555
Bi5 Cs1 4.353662 1_555
Bi5 Cs3 4.423608 1_655
Bi5 Cs4 4.423621 1_555
