# generated using pymatgen
data_Pr3Os
_symmetry_space_group_name_H-M   'P 1'
_cell_length_a   6.63479493
_cell_length_b   7.49778070
_cell_length_c   9.76742840
_cell_angle_alpha   90.00000000
_cell_angle_beta   90.00000000
_cell_angle_gamma   90.00000000
_symmetry_Int_Tables_number   1
_chemical_formula_structural   Pr3Os
_chemical_formula_sum   'Pr12 Os4'
_cell_volume   485.89281173
_cell_formula_units_Z   4
loop_
 _symmetry_equiv_pos_site_id
 _symmetry_equiv_pos_as_xyz
  1  'x, y, z'
loop_
 _atom_site_type_symbol
 _atom_site_label
 _atom_site_symmetry_multiplicity
 _atom_site_fract_x
 _atom_site_fract_y
 _atom_site_fract_z
 _atom_site_occupancy
  Pr  Pr0  1  0.32641696  0.67181511  0.06791236  1
  Pr  Pr1  1  0.17358304  0.17181511  0.43208764  1
  Pr  Pr2  1  0.67358304  0.32818489  0.56791236  1
  Pr  Pr3  1  0.82641696  0.82818489  0.93208764  1
  Pr  Pr4  1  0.67358304  0.32818489  0.93208764  1
  Pr  Pr5  1  0.82641696  0.82818489  0.56791236  1
  Pr  Pr6  1  0.32641696  0.67181511  0.43208764  1
  Pr  Pr7  1  0.17358304  0.17181511  0.06791236  1
  Pr  Pr8  1  0.85867690  0.54762562  0.25000000  1
  Pr  Pr9  1  0.64132310  0.04762562  0.25000000  1
  Pr  Pr10  1  0.14132310  0.45237438  0.75000000  1
  Pr  Pr11  1  0.35867690  0.95237438  0.75000000  1
  Os  Os0  1  0.04595936  0.88862719  0.25000000  1
  Os  Os1  1  0.45404064  0.38862719  0.25000000  1
  Os  Os2  1  0.95404064  0.11137281  0.75000000  1
  Os  Os3  1  0.54595936  0.61137281  0.75000000  1
loop_
_geom_bond_atom_site_label_1
_geom_bond_atom_site_label_2
_geom_bond_distance
_geom_bond_site_symmetry_2
Os0 Pr8 2.842710 1_455
Os0 Pr7 2.896287 1_565
Os0 Pr1 2.896287 1_565
Os0 Pr9 2.937462 1_465
Os0 Pr6 3.044383 1_555
Os0 Pr0 3.044383 1_555
Os0 Pr3 3.459667 1_454
Os0 Pr5 3.459667 1_455
Os1 Pr9 2.842710 1_555
Os1 Pr0 2.896287 1_555
Os1 Pr6 2.896287 1_555
Os1 Pr8 2.937462 1_555
Os1 Pr1 3.044383 1_555
Os1 Pr7 3.044383 1_555
Os1 Pr2 3.459667 1_555
Os1 Pr4 3.459667 1_554
Os2 Pr10 2.842710 1_655
Os2 Pr5 2.896287 1_545
Os2 Pr3 2.896287 1_545
Os2 Pr11 2.937462 1_645
Os2 Pr2 3.044383 1_555
Os2 Pr4 3.044383 1_555
Os2 Pr1 3.459667 1_655
Os2 Pr7 3.459667 1_656
Os3 Pr11 2.842710 1_555
Os3 Pr2 2.896287 1_555
Os3 Pr4 2.896287 1_555
Os3 Pr10 2.937462 1_555
Os3 Pr5 3.044383 1_555
Os3 Pr3 3.044383 1_555
Os3 Pr0 3.459667 1_556
Os3 Pr6 3.459667 1_555
