# generated using pymatgen
data_Tb5Tl3
_symmetry_space_group_name_H-M   'P 1'
_cell_length_a   8.09558700
_cell_length_b   9.26319525
_cell_length_c   8.09558700
_cell_angle_alpha   115.91108970
_cell_angle_beta   90.00000000
_cell_angle_gamma   115.91108970
_symmetry_Int_Tables_number   1
_chemical_formula_structural   Tb5Tl3
_chemical_formula_sum   'Tb10 Tl6'
_cell_volume   477.29659223
_cell_formula_units_Z   2
loop_
 _symmetry_equiv_pos_site_id
 _symmetry_equiv_pos_as_xyz
  1  'x, y, z'
loop_
 _atom_site_type_symbol
 _atom_site_label
 _atom_site_symmetry_multiplicity
 _atom_site_fract_x
 _atom_site_fract_y
 _atom_site_fract_z
 _atom_site_occupancy
  Tb  Tb0  1  0.00000000  0.00000000  0.00000000  1
  Tb  Tb1  1  0.50000000  0.00000000  0.50000000  1
  Tb  Tb2  1  0.51107700  0.69792300  0.68684600  1
  Tb  Tb3  1  0.18684600  0.69792300  0.01107700  1
  Tb  Tb4  1  0.68684600  0.69792300  0.18684600  1
  Tb  Tb5  1  0.01107700  0.69792300  0.51107700  1
  Tb  Tb6  1  0.48892300  0.30207700  0.31315400  1
  Tb  Tb7  1  0.81315400  0.30207700  0.98892300  1
  Tb  Tb8  1  0.31315400  0.30207700  0.81315400  1
  Tb  Tb9  1  0.98892300  0.30207700  0.48892300  1
  Tl  Tl0  1  0.75000000  0.50000000  0.75000000  1
  Tl  Tl1  1  0.25000000  0.50000000  0.25000000  1
  Tl  Tl2  1  0.86629700  0.00000000  0.63370300  1
  Tl  Tl3  1  0.13370300  0.00000000  0.36629700  1
  Tl  Tl4  1  0.63370300  0.00000000  0.13370300  1
  Tl  Tl5  1  0.36629700  0.00000000  0.86629700  1
loop_
_geom_bond_atom_site_label_1
_geom_bond_atom_site_label_2
_geom_bond_distance
_geom_bond_site_symmetry_2
Tb0 Tl3 3.156760 1_555
Tb0 Tl2 3.156760 1_454
Tb0 Tl4 3.156760 1_455
Tb0 Tl5 3.156760 1_554
Tb0 Tl0 3.641344 1_444
Tb0 Tl1 3.641344 1_555
Tb1 Tl3 3.156760 1_555
Tb1 Tl4 3.156760 1_555
Tb1 Tl5 3.156760 1_555
Tb1 Tl2 3.156760 1_555
Tb1 Tl0 3.641344 1_555
Tb1 Tl1 3.641344 1_545
Tb2 Tl2 3.210034 1_565
Tb2 Tl5 3.260030 1_565
Tb2 Tl4 3.260030 1_566
Tb2 Tl0 3.358925 1_555
Tb2 Tl1 3.358926 1_555
Tb3 Tl3 3.210034 1_565
Tb3 Tl5 3.260030 1_564
Tb3 Tl4 3.260030 1_565
Tb3 Tl1 3.358925 1_555
Tb3 Tl0 3.358926 1_454
Tb4 Tl4 3.210033 1_565
Tb4 Tl3 3.260030 1_665
Tb4 Tl2 3.260030 1_565
Tb4 Tl1 3.358926 1_555
Tb4 Tl0 3.358926 1_554
Tb5 Tl5 3.210034 1_565
Tb5 Tl2 3.260029 1_465
Tb5 Tl3 3.260029 1_565
Tb5 Tl1 3.358925 1_555
Tb5 Tl0 3.358925 1_455
Tb6 Tl3 3.210034 1_555
Tb6 Tl4 3.260030 1_555
Tb6 Tl5 3.260030 1_554
Tb6 Tl1 3.358925 1_555
Tb6 Tl0 3.358926 1_555
Tb7 Tl2 3.210034 1_555
Tb7 Tl4 3.260030 1_556
Tb7 Tl5 3.260030 1_555
Tb7 Tl0 3.358925 1_555
Tb7 Tl1 3.358926 1_656
Tb8 Tl5 3.210033 1_555
Tb8 Tl2 3.260030 1_455
Tb8 Tl3 3.260030 1_555
Tb8 Tl1 3.358926 1_556
Tb8 Tl0 3.358926 1_555
Tb9 Tl4 3.210034 1_555
Tb9 Tl3 3.260029 1_655
Tb9 Tl2 3.260029 1_555
Tb9 Tl0 3.358925 1_555
Tb9 Tl1 3.358925 1_655
Tl2 Tl3 3.061502 1_655
Tl4 Tl5 3.061502 1_554
