# generated using pymatgen
data_MgTiNb2(PbO3)4
_symmetry_space_group_name_H-M   'P 1'
_cell_length_a   5.77901000
_cell_length_b   5.87667600
_cell_length_c   8.03807600
_cell_angle_alpha   90.00000000
_cell_angle_beta   90.00000000
_cell_angle_gamma   90.00000000
_symmetry_Int_Tables_number   1
_chemical_formula_structural   MgTiNb2(PbO3)4
_chemical_formula_sum   'Mg1 Ti1 Nb2 Pb4 O12'
_cell_volume   272.98406807
_cell_formula_units_Z   1
loop_
 _symmetry_equiv_pos_site_id
 _symmetry_equiv_pos_as_xyz
  1  'x, y, z'
loop_
 _atom_site_type_symbol
 _atom_site_label
 _atom_site_symmetry_multiplicity
 _atom_site_fract_x
 _atom_site_fract_y
 _atom_site_fract_z
 _atom_site_occupancy
  Mg  Mg0  1  0.00000000  0.49163600  0.00000000  1
  Ti  Ti0  1  0.50000000  0.01522200  0.50000000  1
  Nb  Nb0  1  0.50000000  0.98658700  0.00000000  1
  Nb  Nb1  1  0.00000000  0.51383200  0.50000000  1
  Pb  Pb0  1  0.00000000  0.04162200  0.75796800  1
  Pb  Pb1  1  0.50000000  0.53264000  0.76803100  1
  Pb  Pb2  1  0.00000000  0.04162200  0.24203200  1
  Pb  Pb3  1  0.50000000  0.53264000  0.23196900  1
  O  O0  1  0.00000000  0.44446800  0.74057200  1
  O  O1  1  0.50000000  0.96308000  0.74547900  1
  O  O2  1  0.00000000  0.44446800  0.25942800  1
  O  O3  1  0.50000000  0.96308000  0.25452100  1
  O  O4  1  0.73156700  0.71859500  0.00000000  1
  O  O5  1  0.24828600  0.21009700  0.00000000  1
  O  O6  1  0.74560400  0.71738000  0.50000000  1
  O  O7  1  0.25181800  0.20943300  0.50000000  1
  O  O8  1  0.26843300  0.71859500  0.00000000  1
  O  O9  1  0.75171400  0.21009700  0.00000000  1
  O  O10  1  0.25439600  0.71738000  0.50000000  1
  O  O11  1  0.74818200  0.20943300  0.50000000  1
loop_
_geom_bond_atom_site_label_1
_geom_bond_atom_site_label_2
_geom_bond_distance
_geom_bond_site_symmetry_2
Mg0 O8 2.045822 1_555
Mg0 O4 2.045822 1_455
Mg0 O2 2.103644 1_555
Mg0 O0 2.103644 1_554
Mg0 O5 2.190023 1_555
Mg0 O9 2.190023 1_455
Nb0 O9 1.959924 1_565
Nb0 O5 1.959924 1_565
Nb0 O3 2.050518 1_555
Nb0 O1 2.050518 1_554
Nb0 O4 2.066681 1_555
Nb0 O8 2.066681 1_555
Nb1 O10 1.895316 1_555
Nb1 O6 1.895316 1_455
Nb1 O0 1.976233 1_555
Nb1 O2 1.976233 1_555
Nb1 O7 2.306031 1_555
Nb1 O11 2.306031 1_455
O0 Pb0 2.371521 1_555
O1 Ti0 1.996830 1_565
O1 Pb1 2.536043 1_555
O2 Pb2 2.371521 1_555
O3 Ti0 1.996830 1_565
O3 Pb3 2.536043 1_555
O4 Pb3 2.541994 1_555
O4 Pb1 2.541994 1_554
O5 Pb0 2.612258 1_554
O5 Pb2 2.612258 1_555
O6 Ti0 2.253480 1_565
O6 Pb1 2.799084 1_555
O6 Pb3 2.799084 1_555
O7 Ti0 1.832938 1_555
O7 Pb2 2.718453 1_555
O7 Pb0 2.718453 1_555
O8 Pb3 2.541994 1_555
O8 Pb1 2.541994 1_554
O9 Pb0 2.612258 1_654
O9 Pb2 2.612258 1_655
O10 Ti0 2.253480 1_565
O10 Pb1 2.799084 1_555
O10 Pb3 2.799084 1_555
O11 Ti0 1.832938 1_555
O11 Pb2 2.718453 1_655
O11 Pb0 2.718453 1_655
