# generated using pymatgen
data_La3BeAlS7
_symmetry_space_group_name_H-M   'P 1'
_cell_length_a   10.21682029
_cell_length_b   10.21682029
_cell_length_c   5.93516700
_cell_angle_alpha   90.00000000
_cell_angle_beta   90.00000000
_cell_angle_gamma   120.00000187
_symmetry_Int_Tables_number   1
_chemical_formula_structural   La3BeAlS7
_chemical_formula_sum   'La6 Be2 Al2 S14'
_cell_volume   536.53131578
_cell_formula_units_Z   2
loop_
 _symmetry_equiv_pos_site_id
 _symmetry_equiv_pos_as_xyz
  1  'x, y, z'
loop_
 _atom_site_type_symbol
 _atom_site_label
 _atom_site_symmetry_multiplicity
 _atom_site_fract_x
 _atom_site_fract_y
 _atom_site_fract_z
 _atom_site_occupancy
  La  La0  1  0.74688600  0.13759300  0.24958400  1
  La  La1  1  0.39070700  0.25311400  0.24958400  1
  La  La2  1  0.86240700  0.60929300  0.24958400  1
  La  La3  1  0.25311400  0.86240700  0.74958400  1
  La  La4  1  0.60929300  0.74688600  0.74958400  1
  La  La5  1  0.13759300  0.39070700  0.74958400  1
  Be  Be0  1  0.66666700  0.33333300  0.66232800  1
  Be  Be1  1  0.33333300  0.66666700  0.16232800  1
  Al  Al0  1  0.00000000  0.00000000  0.01016500  1
  Al  Al1  1  0.00000000  0.00000000  0.51016500  1
  S  S0  1  0.85879200  0.07564000  0.76644300  1
  S  S1  1  0.21684800  0.14120800  0.76644300  1
  S  S2  1  0.92436000  0.78315200  0.76644300  1
  S  S3  1  0.14120800  0.92436000  0.26644300  1
  S  S4  1  0.78315200  0.85879200  0.26644300  1
  S  S5  1  0.07564000  0.21684800  0.26644300  1
  S  S6  1  0.88697500  0.40669300  0.53418100  1
  S  S7  1  0.51971800  0.11302500  0.53418100  1
  S  S8  1  0.59330700  0.48028200  0.53418100  1
  S  S9  1  0.11302500  0.59330700  0.03418100  1
  S  S10  1  0.48028200  0.88697500  0.03418100  1
  S  S11  1  0.40669300  0.51971800  0.03418100  1
  S  S12  1  0.66666700  0.33333300  0.01589900  1
  S  S13  1  0.33333300  0.66666700  0.51589900  1
loop_
_geom_bond_atom_site_label_1
_geom_bond_atom_site_label_2
_geom_bond_distance
_geom_bond_site_symmetry_2
La0 S7 2.778549 1_555
La0 S12 2.869455 1_555
La0 S6 2.919853 1_555
La0 S10 2.938635 1_545
La0 S5 3.037697 1_655
La0 S4 3.052285 1_545
La0 S0 3.264077 1_554
La0 S0 3.441214 1_555
La1 S8 2.778549 1_555
La1 S12 2.869463 1_555
La1 S7 2.919853 1_555
La1 S11 2.938635 1_555
La1 S3 3.037697 1_545
La1 S5 3.052285 1_555
La1 S1 3.264077 1_554
La1 S1 3.441214 1_555
La2 S6 2.778549 1_555
La2 S12 2.869461 1_555
La2 S8 2.919853 1_555
La2 S9 2.938635 1_655
La2 S4 3.037697 1_555
La2 S3 3.052285 1_655
La2 S2 3.264077 1_554
La2 S2 3.441214 1_555
La3 S10 2.778549 1_556
La3 S13 2.869455 1_555
La3 S9 2.919853 1_556
La3 S7 2.938635 1_565
La3 S2 3.037697 1_455
La3 S1 3.052285 1_565
La3 S3 3.264077 1_555
La3 S3 3.441214 1_556
La4 S11 2.778549 1_556
La4 S13 2.869463 1_555
La4 S10 2.919853 1_556
La4 S8 2.938635 1_555
La4 S0 3.037697 1_565
La4 S2 3.052285 1_555
La4 S4 3.264077 1_555
La4 S4 3.441214 1_556
La5 S9 2.778549 1_556
La5 S13 2.869461 1_555
La5 S11 2.919853 1_556
La5 S6 2.938635 1_455
La5 S1 3.037697 1_555
La5 S0 3.052285 1_455
La5 S5 3.264077 1_555
La5 S5 3.441214 1_556
Be0 S12 2.098503 1_556
Be0 S6 2.125917 1_555
Be0 S7 2.125918 1_555
Be0 S8 2.125926 1_555
Be1 S13 2.098503 1_555
Be1 S9 2.125917 1_555
Be1 S10 2.125918 1_555
Be1 S11 2.125926 1_555
Al0 S1 2.426100 1_554
Al0 S2 2.426100 1_444
Al0 S0 2.426100 1_454
Al0 S4 2.471257 1_445
Al0 S5 2.471257 1_555
Al0 S3 2.471257 1_545
Al1 S4 2.426100 1_445
Al1 S5 2.426100 1_555
Al1 S3 2.426100 1_545
Al1 S1 2.471257 1_555
Al1 S2 2.471257 1_445
Al1 S0 2.471257 1_455
