# generated using pymatgen
data_Li4Ca2Mg(SiN3)2
_symmetry_space_group_name_H-M   'P 1'
_cell_length_a   5.73807188
_cell_length_b   5.73807188
_cell_length_c   5.64345983
_cell_angle_alpha   87.45201026
_cell_angle_beta   87.45201026
_cell_angle_gamma   117.79214878
_symmetry_Int_Tables_number   1
_chemical_formula_structural   Li4Ca2Mg(SiN3)2
_chemical_formula_sum   'Li4 Ca2 Mg1 Si2 N6'
_cell_volume   163.76920971
_cell_formula_units_Z   1
loop_
 _symmetry_equiv_pos_site_id
 _symmetry_equiv_pos_as_xyz
  1  'x, y, z'
loop_
 _atom_site_type_symbol
 _atom_site_label
 _atom_site_symmetry_multiplicity
 _atom_site_fract_x
 _atom_site_fract_y
 _atom_site_fract_z
 _atom_site_occupancy
  Li  Li0  1  0.99008800  0.33217600  0.37529200  1
  Li  Li1  1  0.33217600  0.99008800  0.37529200  1
  Li  Li2  1  0.00991200  0.66782400  0.62470800  1
  Li  Li3  1  0.66782400  0.00991200  0.62470800  1
  Ca  Ca0  1  0.32200000  0.67800000  0.00000000  1
  Ca  Ca1  1  0.67800000  0.32200000  0.00000000  1
  Mg  Mg0  1  0.00000000  0.00000000  0.00000000  1
  Si  Si0  1  0.32174400  0.32174400  0.63297200  1
  Si  Si1  1  0.67825600  0.67825600  0.36702800  1
  N  N0  1  0.62205400  0.62205400  0.68691400  1
  N  N1  1  0.37794600  0.37794600  0.31308600  1
  N  N2  1  0.03344600  0.32259200  0.74789600  1
  N  N3  1  0.32259200  0.03344600  0.74789600  1
  N  N4  1  0.96655400  0.67740800  0.25210400  1
  N  N5  1  0.67740800  0.96655400  0.25210400  1
loop_
_geom_bond_atom_site_label_1
_geom_bond_atom_site_label_2
_geom_bond_distance
_geom_bond_site_symmetry_2
Li0 N1 2.126638 1_655
Li0 N2 2.129690 1_655
Li0 N4 2.135681 1_555
Li0 N5 2.198698 1_545
Li1 N1 2.126638 1_565
Li1 N3 2.129690 1_565
Li1 N5 2.135681 1_555
Li1 N4 2.198698 1_455
Li2 N0 2.126638 1_455
Li2 N4 2.129690 1_455
Li2 N2 2.135681 1_555
Li2 N3 2.198698 1_565
Li3 N0 2.126638 1_545
Li3 N5 2.129690 1_545
Li3 N3 2.135681 1_555
Li3 N2 2.198698 1_655
Ca0 N3 2.432934 1_564
Ca0 N4 2.432934 1_455
Ca0 N5 2.498648 1_555
Ca0 N2 2.498648 1_554
Ca0 N1 2.546504 1_555
Ca0 N0 2.546504 1_554
Ca1 N2 2.432934 1_654
Ca1 N5 2.432934 1_545
Ca1 N4 2.498648 1_555
Ca1 N3 2.498648 1_554
Ca1 N1 2.546504 1_555
Ca1 N0 2.546504 1_554
Mg0 N4 2.213078 1_445
Mg0 N5 2.213078 1_445
Mg0 N2 2.213078 1_554
Mg0 N3 2.213078 1_554
N0 Si1 1.807337 1_555
N0 Si0 1.831862 1_555
N1 Si0 1.807337 1_555
N1 Si1 1.831862 1_555
N2 Si0 1.752051 1_555
N3 Si0 1.752051 1_555
N4 Si1 1.752051 1_555
N5 Si1 1.752051 1_555
