# generated using pymatgen
data_PrMn2
_symmetry_space_group_name_H-M   'P 1'
_cell_length_a   5.55495664
_cell_length_b   5.55495664
_cell_length_c   8.40692100
_cell_angle_alpha   90.00000000
_cell_angle_beta   90.00000000
_cell_angle_gamma   119.97242223
_symmetry_Int_Tables_number   1
_chemical_formula_structural   PrMn2
_chemical_formula_sum   'Pr4 Mn8'
_cell_volume   224.72405630
_cell_formula_units_Z   4
loop_
 _symmetry_equiv_pos_site_id
 _symmetry_equiv_pos_as_xyz
  1  'x, y, z'
loop_
 _atom_site_type_symbol
 _atom_site_label
 _atom_site_symmetry_multiplicity
 _atom_site_fract_x
 _atom_site_fract_y
 _atom_site_fract_z
 _atom_site_occupancy
  Pr  Pr0  1  0.66667100  0.33332900  0.55728300  1
  Pr  Pr1  1  0.33332900  0.66667100  0.44271700  1
  Pr  Pr2  1  0.33332900  0.66667100  0.05728300  1
  Pr  Pr3  1  0.66667100  0.33332900  0.94271700  1
  Mn  Mn0  1  0.00000000  0.00000000  0.50000000  1
  Mn  Mn1  1  0.00000000  0.00000000  0.00000000  1
  Mn  Mn2  1  0.16094600  0.32194400  0.75000000  1
  Mn  Mn3  1  0.16106500  0.83893500  0.75000000  1
  Mn  Mn4  1  0.67805600  0.83905400  0.75000000  1
  Mn  Mn5  1  0.83905400  0.67805600  0.25000000  1
  Mn  Mn6  1  0.83893500  0.16106500  0.25000000  1
  Mn  Mn7  1  0.32194400  0.16094600  0.25000000  1
loop_
_geom_bond_atom_site_label_1
_geom_bond_atom_site_label_2
_geom_bond_distance
_geom_bond_site_symmetry_2
Pr0 Pr3 3.240313 1_555
Pr0 Pr1 3.348309 1_555
Pr0 Pr1 3.349470 1_655
Pr0 Pr1 3.349470 1_545
Pr1 Pr2 3.240313 1_555
Pr2 Pr3 3.348309 1_554
Pr2 Pr3 3.349470 1_454
Pr2 Pr3 3.349470 1_564
Mn0 Mn7 2.611004 1_555
Mn0 Mn2 2.611004 1_555
Mn0 Mn4 2.611004 1_445
Mn0 Mn5 2.611004 1_445
Mn0 Mn3 2.611152 1_545
Mn0 Mn6 2.611152 1_455
Mn0 Pr0 3.242628 1_455
Mn0 Pr1 3.242628 1_545
Mn0 Pr0 3.244012 1_555
Mn0 Pr0 3.244012 1_445
Mn0 Pr1 3.244012 1_555
Mn0 Pr1 3.244012 1_445
Mn1 Mn7 2.611004 1_555
Mn1 Mn2 2.611004 1_554
Mn1 Mn5 2.611004 1_445
Mn1 Mn4 2.611004 1_444
Mn1 Mn6 2.611152 1_455
Mn1 Mn3 2.611152 1_544
Mn1 Pr2 3.242628 1_545
Mn1 Pr3 3.242628 1_454
Mn1 Pr2 3.244012 1_555
Mn1 Pr2 3.244012 1_445
Mn1 Pr3 3.244012 1_554
Mn1 Pr3 3.244012 1_444
Mn2 Mn3 2.683424 1_545
Mn2 Mn4 2.683551 1_445
Mn2 Mn3 2.871532 1_555
Mn2 Mn4 2.873721 1_555
Mn2 Pr2 3.070056 1_556
Mn2 Pr1 3.070056 1_555
Mn2 Pr3 3.215765 1_455
Mn2 Pr0 3.215765 1_455
Mn2 Pr3 3.216123 1_555
Mn2 Pr0 3.216123 1_555
Mn3 Mn4 2.683424 1_455
Mn3 Mn4 2.871532 1_555
Mn3 Pr2 3.069166 1_556
Mn3 Pr1 3.069166 1_555
Mn3 Pr3 3.216929 1_455
Mn3 Pr0 3.216929 1_455
Mn3 Pr3 3.216929 1_565
Mn3 Pr0 3.216929 1_565
Mn4 Pr2 3.070056 1_556
Mn4 Pr1 3.070056 1_555
Mn4 Pr3 3.215765 1_565
Mn4 Pr0 3.215765 1_565
Mn4 Pr3 3.216123 1_555
Mn4 Pr0 3.216123 1_555
Mn5 Mn6 2.683424 1_565
Mn5 Mn7 2.683551 1_665
Mn5 Mn6 2.871532 1_555
Mn5 Mn7 2.873721 1_555
Mn5 Pr0 3.070056 1_555
Mn5 Pr3 3.070056 1_554
Mn5 Pr1 3.215765 1_655
Mn5 Pr2 3.215765 1_655
Mn5 Pr1 3.216123 1_555
Mn5 Pr2 3.216123 1_555
Mn6 Mn7 2.683424 1_655
Mn6 Mn7 2.871532 1_555
Mn6 Pr0 3.069166 1_555
Mn6 Pr3 3.069166 1_554
Mn6 Pr1 3.216929 1_545
Mn6 Pr2 3.216929 1_545
Mn6 Pr1 3.216929 1_655
Mn6 Pr2 3.216929 1_655
Mn7 Pr0 3.070056 1_555
Mn7 Pr3 3.070056 1_554
Mn7 Pr1 3.215765 1_545
Mn7 Pr2 3.215765 1_545
Mn7 Pr1 3.216123 1_555
Mn7 Pr2 3.216123 1_555
