# generated using pymatgen
data_CaThV2O8
_symmetry_space_group_name_H-M   'P 1'
_cell_length_a   6.13533665
_cell_length_b   6.13533665
_cell_length_c   6.13533665
_cell_angle_alpha   106.27778352
_cell_angle_beta   106.27778352
_cell_angle_gamma   116.06630378
_symmetry_Int_Tables_number   1
_chemical_formula_structural   CaThV2O8
_chemical_formula_sum   'Ca1 Th1 V2 O8'
_cell_volume   175.99782589
_cell_formula_units_Z   1
loop_
 _symmetry_equiv_pos_site_id
 _symmetry_equiv_pos_as_xyz
  1  'x, y, z'
loop_
 _atom_site_type_symbol
 _atom_site_label
 _atom_site_symmetry_multiplicity
 _atom_site_fract_x
 _atom_site_fract_y
 _atom_site_fract_z
 _atom_site_occupancy
  Ca  Ca0  1  0.00000000  0.00000000  0.00000000  1
  Th  Th0  1  0.25000000  0.75000000  0.50000000  1
  V  V0  1  0.75000000  0.25000000  0.50000000  1
  V  V1  1  0.50000000  0.50000000  0.00000000  1
  O  O0  1  0.92554700  0.60440300  0.67885600  1
  O  O1  1  0.48177600  0.66711800  0.81465800  1
  O  O2  1  0.85246000  0.66711800  0.18534200  1
  O  O3  1  0.92554700  0.24669100  0.32114400  1
  O  O4  1  0.33288200  0.14754000  0.81465800  1
  O  O5  1  0.75330900  0.07445300  0.67885600  1
  O  O6  1  0.39559700  0.07445300  0.32114400  1
  O  O7  1  0.33288200  0.51822400  0.18534200  1
loop_
_geom_bond_atom_site_label_1
_geom_bond_atom_site_label_2
_geom_bond_distance
_geom_bond_site_symmetry_2
Ca0 O5 2.412884 1_454
Ca0 O3 2.412884 1_455
Ca0 O0 2.412884 1_444
Ca0 O6 2.412884 1_555
Ca0 O2 2.556930 1_445
Ca0 O1 2.556930 1_444
Ca0 O4 2.556930 1_554
Ca0 O7 2.556930 1_555
O0 V0 1.741799 1_555
O0 Th0 2.485168 1_655
O1 V1 1.743547 1_556
O1 Th0 2.377927 1_555
O2 V1 1.743547 1_555
O2 Th0 2.377927 1_655
O3 V0 1.741799 1_555
O3 Th0 2.485168 1_655
O4 V1 1.743547 1_556
O4 Th0 2.377927 1_545
O5 V0 1.741799 1_555
O5 Th0 2.485168 1_545
O6 V0 1.741799 1_555
O6 Th0 2.485168 1_545
O7 V1 1.743547 1_555
O7 Th0 2.377927 1_555
