# generated using pymatgen
data_Li3MnCo3O8
_symmetry_space_group_name_H-M   'P 1'
_cell_length_a   5.83741423
_cell_length_b   10.38384092
_cell_length_c   5.83229939
_cell_angle_alpha   90.40334955
_cell_angle_beta   61.76185674
_cell_angle_gamma   107.79446285
_symmetry_Int_Tables_number   1
_chemical_formula_structural   Li3MnCo3O8
_chemical_formula_sum   'Li6 Mn2 Co6 O16'
_cell_volume   292.53595875
_cell_formula_units_Z   2
loop_
 _symmetry_equiv_pos_site_id
 _symmetry_equiv_pos_as_xyz
  1  'x, y, z'
loop_
 _atom_site_type_symbol
 _atom_site_label
 _atom_site_symmetry_multiplicity
 _atom_site_fract_x
 _atom_site_fract_y
 _atom_site_fract_z
 _atom_site_occupancy
  Li  Li0  1  0.50172400  0.24958700  0.74982900  1
  Li  Li1  1  0.49829300  0.75040800  0.25011500  1
  Li  Li2  1  0.00106800  0.25079500  0.75105900  1
  Li  Li3  1  0.99895900  0.74920400  0.24889500  1
  Li  Li4  1  0.99903400  0.24969800  0.25047600  1
  Li  Li5  1  0.00094400  0.75030200  0.74952600  1
  Mn  Mn0  1  0.99997400  0.00012200  0.99996900  1
  Mn  Mn1  1  0.99981800  0.49987500  0.50014200  1
  Co  Co0  1  0.50014500  0.49999800  0.50002600  1
  Co  Co1  1  0.00019900  0.50002300  0.99998700  1
  Co  Co2  1  0.49990000  0.99999700  0.50004600  1
  Co  Co3  1  0.49979900  0.99995600  0.99995200  1
  Co  Co4  1  0.99988200  0.99997300  0.49994800  1
  Co  Co5  1  0.50011100  0.49996900  0.00002400  1
  O  O0  1  0.73379500  0.11083200  0.62208300  1
  O  O1  1  0.73414000  0.61071100  0.12251400  1
  O  O2  1  0.26621800  0.38931800  0.87745600  1
  O  O3  1  0.26606800  0.88912900  0.37788200  1
  O  O4  1  0.23479200  0.11053600  0.12380100  1
  O  O5  1  0.23512500  0.61068300  0.62392000  1
  O  O6  1  0.75765500  0.10715500  0.11328600  1
  O  O7  1  0.75823300  0.60731200  0.61264200  1
  O  O8  1  0.22078800  0.10726700  0.65025600  1
  O  O9  1  0.22102800  0.60742300  0.14995600  1
  O  O10  1  0.77918600  0.39252200  0.85017100  1
  O  O11  1  0.77907300  0.89280500  0.34961000  1
  O  O12  1  0.24196800  0.39264800  0.38740100  1
  O  O13  1  0.24202000  0.89295800  0.88674300  1
  O  O14  1  0.76503200  0.38926800  0.37608600  1
  O  O15  1  0.76502700  0.88952500  0.87619600  1
loop_
_geom_bond_atom_site_label_1
_geom_bond_atom_site_label_2
_geom_bond_distance
_geom_bond_site_symmetry_2
Li0 O10 2.141051 1_555
Li0 O8 2.149064 1_555
Li0 O0 2.165413 1_555
Li0 O4 2.173302 1_556
Li0 O14 2.174667 1_555
Li0 O2 2.187433 1_555
Li1 O9 2.139847 1_555
Li1 O11 2.148521 1_555
Li1 O3 2.165716 1_555
Li1 O15 2.173361 1_554
Li1 O5 2.175096 1_555
Li1 O1 2.188461 1_555
Li2 O12 2.145058 1_555
Li2 O6 2.148315 1_456
Li2 O10 2.149914 1_455
Li2 O8 2.157400 1_555
Li2 O2 2.170741 1_555
Li2 O0 2.195794 1_455
Li3 O7 2.145635 1_555
Li3 O13 2.148645 1_654
Li3 O9 2.151169 1_655
Li3 O11 2.158723 1_555
Li3 O1 2.169244 1_555
Li3 O3 2.195021 1_655
Li4 O6 2.142862 1_555
Li4 O12 2.149531 1_655
Li4 O0 2.162828 1_555
Li4 O2 2.172333 1_654
Li4 O14 2.179689 1_555
Li4 O4 2.183179 1_655
Li5 O13 2.142440 1_555
Li5 O7 2.148759 1_455
Li5 O3 2.162763 1_555
Li5 O1 2.171984 1_456
Li5 O5 2.180824 1_555
Li5 O15 2.184342 1_455
Mn0 O4 1.918228 1_656
Mn0 O15 1.919234 1_545
Mn0 O8 1.930549 1_655
Mn0 O11 1.930911 1_546
Mn0 O13 1.933498 1_645
Mn0 O6 1.933598 1_556
Mn1 O14 1.919779 1_555
Mn1 O5 1.921573 1_655
Mn1 O10 1.932752 1_555
Mn1 O7 1.933790 1_555
Mn1 O9 1.934174 1_655
Mn1 O12 1.934497 1_655
Co0 O7 1.960315 1_555
Co0 O12 1.960867 1_555
Co0 O14 2.062221 1_555
Co0 O5 2.062443 1_555
Co0 O2 2.064741 1_555
Co0 O1 2.065222 1_555
Co1 O9 1.960864 1_556
Co1 O10 1.961321 1_455
Co1 O5 2.058596 1_555
Co1 O14 2.059082 1_456
Co1 O2 2.067103 1_555
Co1 O1 2.067142 1_456
Co2 O0 1.908646 1_565
Co2 O3 1.909041 1_555
Co2 O13 2.094747 1_555
Co2 O6 2.095379 1_565
Co2 O11 2.099138 1_555
Co2 O8 2.099432 1_565
Co3 O13 1.960276 1_555
Co3 O6 1.961812 1_566
Co3 O15 2.061300 1_555
Co3 O4 2.061533 1_566
Co3 O0 2.067412 1_565
Co3 O3 2.067519 1_556
Co4 O11 1.961528 1_555
Co4 O8 1.962265 1_665
Co4 O4 2.058584 1_665
Co4 O15 2.058600 1_555
Co4 O0 2.068689 1_565
Co4 O3 2.069011 1_655
Co5 O2 1.910102 1_554
Co5 O1 1.910701 1_555
Co5 O12 2.098689 1_555
Co5 O7 2.098778 1_554
Co5 O10 2.100583 1_554
Co5 O9 2.100694 1_555
