# generated using pymatgen
data_Rb2Pu(Cl2O)2
_symmetry_space_group_name_H-M   'P 1'
_cell_length_a   5.58177427
_cell_length_b   6.90073382
_cell_length_c   6.90073382
_cell_angle_alpha   66.38707501
_cell_angle_beta   85.38625186
_cell_angle_gamma   85.38625186
_symmetry_Int_Tables_number   1
_chemical_formula_structural   Rb2Pu(Cl2O)2
_chemical_formula_sum   'Rb2 Pu1 Cl4 O2'
_cell_volume   242.42184010
_cell_formula_units_Z   1
loop_
 _symmetry_equiv_pos_site_id
 _symmetry_equiv_pos_as_xyz
  1  'x, y, z'
loop_
 _atom_site_type_symbol
 _atom_site_label
 _atom_site_symmetry_multiplicity
 _atom_site_fract_x
 _atom_site_fract_y
 _atom_site_fract_z
 _atom_site_occupancy
  Rb  Rb0  1  0.79235321  0.84159585  0.84159585  1
  Rb  Rb1  1  0.20764679  0.15840415  0.15840415  1
  Pu  Pu0  1  0.50000000  0.50000000  0.50000000  1
  Cl  Cl0  1  0.72041257  0.86332646  0.35063623  1
  Cl  Cl1  1  0.72041257  0.35063623  0.86332646  1
  Cl  Cl2  1  0.27958743  0.13667354  0.64936377  1
  Cl  Cl3  1  0.27958743  0.64936377  0.13667354  1
  O  O0  1  0.72397951  0.38160292  0.38160292  1
  O  O1  1  0.27602049  0.61839708  0.61839708  1
loop_
_geom_bond_atom_site_label_1
_geom_bond_atom_site_label_2
_geom_bond_distance
_geom_bond_site_symmetry_2
Cl0 Pu0 2.661602 1_555
Cl0 Rb1 3.383638 1_665
Cl0 Rb0 3.385901 1_555
Cl0 Rb1 3.406930 1_565
Cl0 Rb0 3.564904 1_554
Cl1 Pu0 2.661602 1_555
Cl1 Rb1 3.383638 1_656
Cl1 Rb0 3.385901 1_555
Cl1 Rb1 3.406930 1_556
Cl1 Rb0 3.564904 1_545
Cl2 Pu0 2.661602 1_555
Cl2 Rb0 3.383638 1_445
Cl2 Rb1 3.385901 1_555
Cl2 Rb0 3.406930 1_545
Cl2 Rb1 3.564904 1_556
Cl3 Pu0 2.661602 1_555
Cl3 Rb0 3.383638 1_454
Cl3 Rb1 3.385901 1_555
Cl3 Rb0 3.406930 1_554
Cl3 Rb1 3.564904 1_565
O0 Pu0 1.761870 1_555
O0 Rb1 3.549046 1_655
O1 Pu0 1.761870 1_555
O1 Rb0 3.549046 1_455
