# generated using pymatgen
data_Ce2SiPd14
_symmetry_space_group_name_H-M   'P 1'
_cell_length_a   9.00043300
_cell_length_b   9.00043300
_cell_length_c   7.03529400
_cell_angle_alpha   90.00000000
_cell_angle_beta   90.00000000
_cell_angle_gamma   90.00000000
_symmetry_Int_Tables_number   1
_chemical_formula_structural   Ce2SiPd14
_chemical_formula_sum   'Ce4 Si2 Pd28'
_cell_volume   569.91364840
_cell_formula_units_Z   2
loop_
 _symmetry_equiv_pos_site_id
 _symmetry_equiv_pos_as_xyz
  1  'x, y, z'
loop_
 _atom_site_type_symbol
 _atom_site_label
 _atom_site_symmetry_multiplicity
 _atom_site_fract_x
 _atom_site_fract_y
 _atom_site_fract_z
 _atom_site_occupancy
  Ce  Ce0  1  0.50000000  0.00000000  0.93636900  1
  Ce  Ce1  1  0.00000000  0.50000000  0.06363100  1
  Ce  Ce2  1  0.00000000  0.00000000  0.50000000  1
  Ce  Ce3  1  0.50000000  0.50000000  0.50000000  1
  Si  Si0  1  0.50000000  0.00000000  0.44984700  1
  Si  Si1  1  0.00000000  0.50000000  0.55015300  1
  Pd  Pd0  1  0.33461200  0.83461200  0.61548300  1
  Pd  Pd1  1  0.33461200  0.16538800  0.61548300  1
  Pd  Pd2  1  0.66538800  0.83461200  0.61548300  1
  Pd  Pd3  1  0.66538800  0.16538800  0.61548300  1
  Pd  Pd4  1  0.16538800  0.66538800  0.38451700  1
  Pd  Pd5  1  0.16538800  0.33461200  0.38451700  1
  Pd  Pd6  1  0.83461200  0.66538800  0.38451700  1
  Pd  Pd7  1  0.83461200  0.33461200  0.38451700  1
  Pd  Pd8  1  0.50000000  0.76912700  0.26023400  1
  Pd  Pd9  1  0.50000000  0.23087300  0.26023400  1
  Pd  Pd10  1  0.26912700  0.00000000  0.26023400  1
  Pd  Pd11  1  0.73087300  0.00000000  0.26023400  1
  Pd  Pd12  1  0.00000000  0.73087300  0.73976600  1
  Pd  Pd13  1  0.00000000  0.26912700  0.73976600  1
  Pd  Pd14  1  0.23087300  0.50000000  0.73976600  1
  Pd  Pd15  1  0.76912700  0.50000000  0.73976600  1
  Pd  Pd16  1  0.50000000  0.34962700  0.85090900  1
  Pd  Pd17  1  0.50000000  0.65037300  0.85090900  1
  Pd  Pd18  1  0.84962700  0.00000000  0.85090900  1
  Pd  Pd19  1  0.15037300  0.00000000  0.85090900  1
  Pd  Pd20  1  0.00000000  0.15037300  0.14909100  1
  Pd  Pd21  1  0.00000000  0.84962700  0.14909100  1
  Pd  Pd22  1  0.65037300  0.50000000  0.14909100  1
  Pd  Pd23  1  0.34962700  0.50000000  0.14909100  1
  Pd  Pd24  1  0.25000000  0.75000000  0.00000000  1
  Pd  Pd25  1  0.25000000  0.25000000  0.00000000  1
  Pd  Pd26  1  0.75000000  0.75000000  0.00000000  1
  Pd  Pd27  1  0.75000000  0.25000000  0.00000000  1
loop_
_geom_bond_atom_site_label_1
_geom_bond_atom_site_label_2
_geom_bond_distance
_geom_bond_site_symmetry_2
Ce0 Pd10 3.083732 1_556
Ce0 Pd11 3.083732 1_556
Ce0 Pd9 3.083732 1_556
Ce0 Pd8 3.083732 1_546
Ce0 Pd2 3.086758 1_545
Ce0 Pd1 3.086758 1_555
Ce0 Pd0 3.086758 1_545
Ce0 Pd3 3.086758 1_555
Ce0 Pd19 3.203717 1_555
Ce0 Pd16 3.203717 1_555
Ce0 Pd18 3.203717 1_555
Ce0 Pd17 3.203717 1_545
Ce0 Pd25 3.213468 1_556
Ce0 Pd24 3.213468 1_546
Ce0 Pd27 3.213468 1_556
Ce0 Pd26 3.213468 1_546
Ce1 Pd12 3.083732 1_554
Ce1 Pd13 3.083732 1_554
Ce1 Pd14 3.083732 1_554
Ce1 Pd15 3.083732 1_454
Ce1 Pd7 3.086758 1_455
Ce1 Pd6 3.086758 1_455
Ce1 Pd5 3.086758 1_555
Ce1 Pd4 3.086758 1_555
Ce1 Pd21 3.203717 1_555
Ce1 Pd23 3.203717 1_555
Ce1 Pd20 3.203717 1_555
Ce1 Pd22 3.203717 1_455
Ce1 Pd27 3.213468 1_455
Ce1 Pd24 3.213468 1_555
Ce1 Pd26 3.213468 1_455
Ce1 Pd25 3.213468 1_555
Ce2 Pd21 2.815398 1_545
Ce2 Pd18 2.815398 1_455
Ce2 Pd19 2.815398 1_555
Ce2 Pd20 2.815398 1_555
Ce2 Pd13 2.951731 1_555
Ce2 Pd11 2.951731 1_455
Ce2 Pd10 2.951731 1_555
Ce2 Pd12 2.951731 1_545
Ce3 Pd17 2.815398 1_555
Ce3 Pd23 2.815398 1_555
Ce3 Pd22 2.815398 1_555
Ce3 Pd16 2.815398 1_555
Ce3 Pd9 2.951731 1_555
Ce3 Pd14 2.951731 1_555
Ce3 Pd8 2.951731 1_555
Ce3 Pd15 2.951731 1_555
Pd0 Si0 2.406151 1_565
Pd0 Pd24 2.911693 1_556
Pd1 Si0 2.406151 1_555
Pd1 Pd25 2.911693 1_556
Pd2 Si0 2.406151 1_565
Pd2 Pd26 2.911693 1_556
Pd3 Si0 2.406151 1_555
Pd4 Si1 2.406151 1_555
Pd5 Si1 2.406151 1_555
Pd6 Si1 2.406151 1_655
Pd7 Si1 2.406151 1_655
Pd8 Si0 2.469295 1_565
Pd9 Si0 2.469295 1_555
Pd10 Si0 2.469295 1_555
Pd10 Pd24 2.905948 1_545
Pd10 Pd25 2.905948 1_555
Pd11 Si0 2.469295 1_555
Pd11 Pd26 2.905948 1_545
Pd11 Pd27 2.905948 1_555
Pd12 Si1 2.469295 1_555
Pd12 Pd26 2.905948 1_456
Pd12 Pd24 2.905948 1_556
Pd13 Si1 2.469295 1_555
Pd13 Pd25 2.905948 1_556
Pd13 Pd27 2.905948 1_456
Pd14 Si1 2.469295 1_555
Pd14 Pd25 2.905948 1_556
Pd14 Pd24 2.905948 1_556
Pd15 Si1 2.469295 1_655
Pd15 Pd26 2.905948 1_556
Pd15 Pd27 2.905948 1_556
Pd16 Pd27 2.639550 1_556
Pd16 Pd25 2.639550 1_556
Pd17 Pd24 2.639550 1_556
Pd17 Pd26 2.639550 1_556
Pd18 Pd27 2.639550 1_556
Pd18 Pd26 2.639550 1_546
Pd19 Pd25 2.639550 1_556
Pd19 Pd24 2.639550 1_546
Pd20 Pd27 2.639550 1_455
Pd20 Pd25 2.639550 1_555
Pd21 Pd24 2.639550 1_555
Pd21 Pd26 2.639550 1_455
Pd22 Pd27 2.639550 1_555
Pd22 Pd26 2.639550 1_555
Pd23 Pd24 2.639550 1_555
Pd23 Pd25 2.639550 1_555
Pd24 Pd8 2.905948 1_555
Pd24 Pd4 2.911693 1_555
Pd25 Pd9 2.905948 1_555
Pd25 Pd5 2.911693 1_555
Pd26 Pd8 2.905948 1_555
Pd26 Pd6 2.911693 1_555
Pd27 Pd9 2.905948 1_555
Pd27 Pd7 2.911693 1_555
Pd27 Pd3 2.911693 1_554
