# generated using pymatgen
data_La4CrS7
_symmetry_space_group_name_H-M   'P 1'
_cell_length_a   10.42079900
_cell_length_b   6.47115100
_cell_length_c   10.43608353
_cell_angle_alpha   90.00000000
_cell_angle_beta   119.71264142
_cell_angle_gamma   90.00000000
_symmetry_Int_Tables_number   1
_chemical_formula_structural   La4CrS7
_chemical_formula_sum   'La8 Cr2 S14'
_cell_volume   611.22486388
_cell_formula_units_Z   2
loop_
 _symmetry_equiv_pos_site_id
 _symmetry_equiv_pos_as_xyz
  1  'x, y, z'
loop_
 _atom_site_type_symbol
 _atom_site_label
 _atom_site_symmetry_multiplicity
 _atom_site_fract_x
 _atom_site_fract_y
 _atom_site_fract_z
 _atom_site_occupancy
  La  La0  1  0.99823400  0.97675000  0.00136000  1
  La  La1  1  0.00176600  0.47675000  0.99864000  1
  La  La2  1  0.73901900  0.74599900  0.13599200  1
  La  La3  1  0.39654700  0.75499000  0.25918400  1
  La  La4  1  0.86328200  0.75655900  0.60170500  1
  La  La5  1  0.26098100  0.24599900  0.86400800  1
  La  La6  1  0.60345300  0.25499000  0.74081600  1
  La  La7  1  0.13671800  0.25655900  0.39829500  1
  Cr  Cr0  1  0.66601200  0.33357500  0.33285700  1
  Cr  Cr1  1  0.33398800  0.83357500  0.66714300  1
  S  S0  1  0.83453500  0.23018500  0.08972000  1
  S  S1  1  0.25302000  0.22255300  0.16472600  1
  S  S2  1  0.91046300  0.22231900  0.74592200  1
  S  S3  1  0.16546500  0.73018500  0.91028000  1
  S  S4  1  0.74698000  0.72255300  0.83527400  1
  S  S5  1  0.08953700  0.72231900  0.25407800  1
  S  S6  1  0.89520800  0.49270700  0.40896700  1
  S  S7  1  0.50963400  0.49133200  0.10579400  1
  S  S8  1  0.59368500  0.49681900  0.48585200  1
  S  S9  1  0.10479200  0.99270700  0.59103300  1
  S  S10  1  0.49036600  0.99133200  0.89420600  1
  S  S11  1  0.40631500  0.99681900  0.51414800  1
  S  S12  1  0.66606300  0.96621300  0.33020100  1
  S  S13  1  0.33393700  0.46621300  0.66979900  1
loop_
_geom_bond_atom_site_label_1
_geom_bond_atom_site_label_2
_geom_bond_distance
_geom_bond_site_symmetry_2
La0 S1 2.828240 1_665
La0 S0 2.830079 1_565
La0 S2 2.837460 1_564
La0 S4 2.840199 1_554
La0 S5 2.843306 1_655
La0 S3 2.851012 1_654
La1 S4 2.828240 1_455
La1 S3 2.830079 1_555
La1 S5 2.837460 1_556
La1 S1 2.840199 1_556
La1 S2 2.843306 1_455
La1 S0 2.851012 1_456
La2 S7 2.789679 1_555
La2 S12 2.871245 1_555
La2 S6 2.975728 1_555
La2 S10 3.019966 1_554
La2 S4 3.183871 1_554
La2 S5 3.228312 1_655
La2 S0 3.393757 1_565
La2 S0 3.583579 1_555
La3 S8 2.791024 1_555
La3 S12 2.870927 1_555
La3 S7 2.955057 1_555
La3 S11 3.044801 1_555
La3 S5 3.180251 1_555
La3 S3 3.223486 1_554
La3 S1 3.301801 1_565
La3 S1 3.690330 1_555
La4 S6 2.781224 1_555
La4 S12 2.884478 1_555
La4 S8 2.968601 1_555
La4 S9 2.993229 1_655
La4 S3 3.203618 1_655
La4 S4 3.222950 1_555
La4 S2 3.295089 1_565
La4 S2 3.704762 1_555
La5 S10 2.789679 1_545
La5 S13 2.871245 1_555
La5 S9 2.975728 1_545
La5 S7 3.019966 1_556
La5 S1 3.183871 1_556
La5 S2 3.228312 1_455
La5 S3 3.393757 1_555
La5 S3 3.583579 1_545
La6 S11 2.791024 1_545
La6 S13 2.870927 1_555
La6 S10 2.955057 1_545
La6 S8 3.044801 1_555
La6 S2 3.180251 1_555
La6 S0 3.223486 1_556
La6 S4 3.301801 1_555
La6 S4 3.690330 1_545
La7 S9 2.781224 1_545
La7 S13 2.884478 1_555
La7 S11 2.968601 1_545
La7 S6 2.993229 1_455
La7 S0 3.203618 1_455
La7 S1 3.222950 1_555
La7 S5 3.295089 1_555
La7 S5 3.704762 1_545
Cr0 S8 2.329442 1_555
Cr0 S7 2.342008 1_555
Cr0 S6 2.348449 1_555
Cr0 S12 2.377420 1_545
Cr1 S11 2.329442 1_555
Cr1 S10 2.342008 1_555
Cr1 S9 2.348449 1_555
Cr1 S13 2.377420 1_555
