# generated using pymatgen
data_Sr7CaFe7CoO20
_symmetry_space_group_name_H-M   'P 1'
_cell_length_a   11.07395605
_cell_length_b   11.43169739
_cell_length_c   17.64736599
_cell_angle_alpha   108.83490848
_cell_angle_beta   108.33029314
_cell_angle_gamma   89.93528476
_symmetry_Int_Tables_number   1
_chemical_formula_structural   Sr7CaFe7CoO20
_chemical_formula_sum   'Sr28 Ca4 Fe28 Co4 O80'
_cell_volume   1994.56511530
_cell_formula_units_Z   4
loop_
 _symmetry_equiv_pos_site_id
 _symmetry_equiv_pos_as_xyz
  1  'x, y, z'
loop_
 _atom_site_type_symbol
 _atom_site_label
 _atom_site_symmetry_multiplicity
 _atom_site_fract_x
 _atom_site_fract_y
 _atom_site_fract_z
 _atom_site_occupancy
  Sr  Sr0  1  0.30559700  0.06419200  0.60932500  1
  Sr  Sr1  1  0.30605800  0.56358200  0.60951400  1
  Sr  Sr2  1  0.80690100  0.06410400  0.60961300  1
  Sr  Sr3  1  0.80788000  0.56528000  0.10845100  1
  Sr  Sr4  1  0.80673100  0.56379800  0.60944800  1
  Sr  Sr5  1  0.19585400  0.43434100  0.38897400  1
  Sr  Sr6  1  0.19502400  0.43896700  0.89290000  1
  Sr  Sr7  1  0.19653300  0.93561200  0.38780400  1
  Sr  Sr8  1  0.19725000  0.93663200  0.89325000  1
  Sr  Sr9  1  0.69583300  0.43576500  0.38959400  1
  Sr  Sr10  1  0.70317900  0.43972900  0.89333200  1
  Sr  Sr11  1  0.69477500  0.93545500  0.38962700  1
  Sr  Sr12  1  0.69963900  0.93455700  0.89360300  1
  Sr  Sr13  1  0.05591300  0.29335000  0.10998400  1
  Sr  Sr14  1  0.05663100  0.29616200  0.60943300  1
  Sr  Sr15  1  0.05652700  0.79616600  0.60917200  1
  Sr  Sr16  1  0.55769500  0.29112400  0.10953200  1
  Sr  Sr17  1  0.55505100  0.29576100  0.60891200  1
  Sr  Sr18  1  0.55875900  0.79656700  0.10916300  1
  Sr  Sr19  1  0.55549700  0.79599900  0.60908200  1
  Sr  Sr20  1  0.44563300  0.20207000  0.38652900  1
  Sr  Sr21  1  0.44774700  0.20432600  0.89252800  1
  Sr  Sr22  1  0.44551700  0.70318100  0.38708800  1
  Sr  Sr23  1  0.45208900  0.70852200  0.89384600  1
  Sr  Sr24  1  0.94465900  0.20227800  0.38780100  1
  Sr  Sr25  1  0.94972300  0.20677800  0.89301800  1
  Sr  Sr26  1  0.94514600  0.70386300  0.38876200  1
  Sr  Sr27  1  0.94672900  0.70633900  0.89402900  1
  Ca  Ca0  1  0.29646000  0.06558800  0.10549100  1
  Ca  Ca1  1  0.29705100  0.56724300  0.10530500  1
  Ca  Ca2  1  0.79770200  0.06457300  0.10525400  1
  Ca  Ca3  1  0.04850400  0.78669300  0.10590100  1
  Fe  Fe0  1  0.00313600  0.99953100  0.49817100  1
  Fe  Fe1  1  0.00341600  0.49955100  0.49913700  1
  Fe  Fe2  1  0.50353000  0.00045000  0.50002800  1
  Fe  Fe3  1  0.50606600  0.50248700  0.00295700  1
  Fe  Fe4  1  0.50389400  0.50039100  0.49991100  1
  Fe  Fe5  1  0.25665700  0.25182800  0.00479700  1
  Fe  Fe6  1  0.25258500  0.24852500  0.49778600  1
  Fe  Fe7  1  0.25641300  0.75406700  0.00645400  1
  Fe  Fe8  1  0.25332100  0.74959400  0.49892400  1
  Fe  Fe9  1  0.75611000  0.24844400  0.00143600  1
  Fe  Fe10  1  0.75313700  0.24963900  0.49941400  1
  Fe  Fe11  1  0.75376900  0.75016900  0.50058100  1
  Fe  Fe12  1  0.10460500  0.08579100  0.24642600  1
  Fe  Fe13  1  0.10859100  0.09183700  0.75153800  1
  Fe  Fe14  1  0.11055700  0.59248700  0.25046100  1
  Fe  Fe15  1  0.10889300  0.59236100  0.75177500  1
  Fe  Fe16  1  0.60508800  0.08903700  0.24878600  1
  Fe  Fe17  1  0.60890800  0.09128600  0.75127900  1
  Fe  Fe18  1  0.60348400  0.58929000  0.24658200  1
  Fe  Fe19  1  0.60828300  0.59050100  0.74970500  1
  Fe  Fe20  1  0.35672000  0.40835900  0.24647400  1
  Fe  Fe21  1  0.35890900  0.41017300  0.75147100  1
  Fe  Fe22  1  0.35035000  0.90723600  0.24430300  1
  Fe  Fe23  1  0.35774200  0.90892900  0.74856600  1
  Fe  Fe24  1  0.85721900  0.40680700  0.24857100  1
  Fe  Fe25  1  0.85766800  0.40902100  0.74839700  1
  Fe  Fe26  1  0.85840200  0.91294300  0.24853700  1
  Fe  Fe27  1  0.85774200  0.90875100  0.74944500  1
  Co  Co0  1  0.00807600  0.00223100  0.00746100  1
  Co  Co1  1  0.00877400  0.50305400  0.00602900  1
  Co  Co2  1  0.50666700  0.00242700  0.00475000  1
  Co  Co3  1  0.75932900  0.75569800  0.00617200  1
  O  O0  1  0.12429000  0.12251600  0.49181800  1
  O  O1  1  0.12569100  0.12143300  0.99417100  1
  O  O2  1  0.12331500  0.62131400  0.49049300  1
  O  O3  1  0.12540100  0.62209100  0.99672700  1
  O  O4  1  0.62245100  0.12155500  0.49121200  1
  O  O5  1  0.62551700  0.12133500  0.99326500  1
  O  O6  1  0.62294100  0.62206100  0.49079300  1
  O  O7  1  0.62497300  0.62152900  0.99264100  1
  O  O8  1  0.13565100  0.38650000  0.01413400  1
  O  O9  1  0.13221600  0.37691300  0.50711400  1
  O  O10  1  0.13472200  0.88133300  0.01565200  1
  O  O11  1  0.13172700  0.87792200  0.50710600  1
  O  O12  1  0.63396800  0.37581100  0.00907900  1
  O  O13  1  0.63097200  0.37777700  0.50729200  1
  O  O14  1  0.63309500  0.88740000  0.01245700  1
  O  O15  1  0.63032100  0.87767900  0.50632500  1
  O  O16  1  0.37395100  0.11958200  0.49148300  1
  O  O17  1  0.37683000  0.11821600  0.99466600  1
  O  O18  1  0.37351000  0.61861200  0.49018000  1
  O  O19  1  0.37384800  0.62068100  0.99395600  1
  O  O20  1  0.87344100  0.11911900  0.49076300  1
  O  O21  1  0.87690800  0.11765900  0.99508600  1
  O  O22  1  0.87337400  0.61940400  0.49053600  1
  O  O23  1  0.88420600  0.61444300  0.99478500  1
  O  O24  1  0.38247500  0.38374900  0.01280500  1
  O  O25  1  0.38084700  0.37848300  0.50533400  1
  O  O26  1  0.38323600  0.88647900  0.01368400  1
  O  O27  1  0.38218300  0.88046600  0.50673900  1
  O  O28  1  0.88728300  0.38283600  0.01049900  1
  O  O29  1  0.88166300  0.37971700  0.50685800  1
  O  O30  1  0.89173600  0.88904100  0.01827700  1
  O  O31  1  0.88110100  0.87969200  0.50621800  1
  O  O32  1  0.10247900  0.10580300  0.14661500  1
  O  O33  1  0.08108800  0.09480900  0.64025600  1
  O  O34  1  0.09426500  0.60905600  0.14681000  1
  O  O35  1  0.08136900  0.59472300  0.63993900  1
  O  O36  1  0.60239000  0.10283600  0.14717800  1
  O  O37  1  0.58158100  0.09411200  0.63969800  1
  O  O38  1  0.58729700  0.59632000  0.13947300  1
  O  O39  1  0.57868500  0.59259800  0.63744600  1
  O  O40  1  0.44225900  0.40634000  0.35761100  1
  O  O41  1  0.44171000  0.40419400  0.86083000  1
  O  O42  1  0.43618400  0.90779600  0.35655100  1
  O  O43  1  0.44215600  0.89688100  0.85342600  1
  O  O44  1  0.94065400  0.40408700  0.35965800  1
  O  O45  1  0.94252600  0.39702600  0.85349100  1
  O  O46  1  0.94363900  0.90969000  0.36015700  1
  O  O47  1  0.94269700  0.89658500  0.85456700  1
  O  O48  1  0.33233700  0.28505000  0.13969700  1
  O  O49  1  0.33176700  0.29616100  0.64004100  1
  O  O50  1  0.33529700  0.78474900  0.13955000  1
  O  O51  1  0.32910200  0.79497500  0.63648600  1
  O  O52  1  0.83237500  0.28790000  0.14010600  1
  O  O53  1  0.82976900  0.29487000  0.63673400  1
  O  O54  1  0.84217500  0.79316300  0.14429100  1
  O  O55  1  0.82859200  0.79548700  0.63669100  1
  O  O56  1  0.18927400  0.19846700  0.35957500  1
  O  O57  1  0.19225400  0.20545900  0.86240700  1
  O  O58  1  0.19219600  0.70593900  0.36194200  1
  O  O59  1  0.19215500  0.70491500  0.86246200  1
  O  O60  1  0.68565400  0.20323000  0.36098600  1
  O  O61  1  0.69432400  0.20463000  0.86180500  1
  O  O62  1  0.68573000  0.70340000  0.35801800  1
  O  O63  1  0.69531900  0.70481600  0.85690500  1
  O  O64  1  0.42525600  0.05718200  0.23953700  1
  O  O65  1  0.43530800  0.06258700  0.75008000  1
  O  O66  1  0.42616300  0.55892000  0.24017600  1
  O  O67  1  0.43548500  0.56162500  0.75101200  1
  O  O68  1  0.92671500  0.06391000  0.24167200  1
  O  O69  1  0.93523700  0.06156600  0.75041600  1
  O  O70  1  0.93705700  0.55687600  0.24883900  1
  O  O71  1  0.93557600  0.56219300  0.75051700  1
  O  O72  1  0.18634200  0.43987500  0.24956900  1
  O  O73  1  0.18527100  0.43985900  0.75050800  1
  O  O74  1  0.17373500  0.92801300  0.24120500  1
  O  O75  1  0.18495800  0.94007200  0.75058400  1
  O  O76  1  0.68509200  0.44030600  0.24940200  1
  O  O77  1  0.68430100  0.43817600  0.74932200  1
  O  O78  1  0.68530000  0.93839700  0.25062900  1
  O  O79  1  0.68473200  0.93953500  0.75039000  1
loop_
_geom_bond_atom_site_label_1
_geom_bond_atom_site_label_2
_geom_bond_distance
_geom_bond_site_symmetry_2
Ca0 O64 2.379846 1_555
Ca0 O48 2.385368 1_555
Ca0 O32 2.472942 1_555
Ca0 O10 2.494881 1_545
Ca0 O1 2.512645 1_554
Ca0 O26 2.563895 1_545
Ca0 O17 2.614368 1_554
Ca1 O50 2.366061 1_555
Ca1 O66 2.392430 1_555
Ca1 O8 2.470925 1_555
Ca1 O3 2.481927 1_554
Ca1 O34 2.571765 1_555
Ca1 O24 2.591438 1_555
Ca1 O19 2.604826 1_554
Ca2 O68 2.384376 1_555
Ca2 O52 2.425565 1_555
Ca2 O14 2.468985 1_545
Ca2 O36 2.492419 1_555
Ca2 O5 2.533297 1_554
Ca2 O30 2.545349 1_545
Ca2 O21 2.598665 1_554
Ca3 O34 2.369781 1_555
Ca3 O74 2.380353 1_555
Ca3 O30 2.499799 1_455
Ca3 O23 2.510728 1_454
Ca3 O54 2.574109 1_455
Ca3 O3 2.581723 1_554
Ca3 O10 2.586506 1_555
Fe0 O20 1.985365 1_465
Fe0 O31 1.993435 1_455
Fe0 O11 1.995283 1_555
Fe0 O0 1.997469 1_565
Fe0 O46 2.190437 1_455
Fe0 O33 2.257425 1_565
Fe1 O29 1.988299 1_455
Fe1 O22 1.991593 1_455
Fe1 O2 1.998105 1_555
Fe1 O9 2.004080 1_555
Fe1 O44 2.218992 1_455
Fe1 O35 2.238405 1_555
Fe2 O27 1.977447 1_545
Fe2 O16 1.982077 1_555
Fe2 O4 1.986762 1_555
Fe2 O15 1.987877 1_545
Fe2 O37 2.219647 1_555
Fe2 O42 2.274088 1_545
Fe3 O7 1.983365 1_554
Fe3 O19 1.995619 1_554
Fe3 O24 2.012953 1_555
Fe3 O12 2.028546 1_555
Fe3 O38 2.175840 1_555
Fe3 O41 2.262555 1_554
Fe4 O18 1.982471 1_555
Fe4 O13 1.990024 1_555
Fe4 O25 1.995113 1_555
Fe4 O6 1.995126 1_555
Fe4 O39 2.184872 1_555
Fe4 O40 2.260154 1_555
Fe5 O24 1.994708 1_555
Fe5 O1 2.003472 1_554
Fe5 O17 2.026004 1_554
Fe5 O8 2.040433 1_555
Fe5 O48 2.162410 1_555
Fe5 O57 2.262172 1_554
Fe6 O0 1.979180 1_555
Fe6 O9 1.983835 1_555
Fe6 O16 1.993788 1_555
Fe6 O25 2.000076 1_555
Fe6 O56 2.189093 1_555
Fe6 O49 2.258640 1_555
Fe7 O10 1.984865 1_555
Fe7 O19 2.005929 1_554
Fe7 O26 2.011807 1_555
Fe7 O3 2.022779 1_554
Fe7 O50 2.140362 1_555
Fe7 O59 2.284910 1_554
Fe8 O11 1.991771 1_555
Fe8 O2 1.993609 1_555
Fe8 O18 2.003204 1_555
Fe8 O27 2.010342 1_555
Fe8 O58 2.177962 1_555
Fe8 O51 2.184735 1_555
Fe9 O12 1.987763 1_555
Fe9 O5 1.990463 1_554
Fe9 O21 2.004727 1_554
Fe9 O28 2.048463 1_555
Fe9 O52 2.212126 1_555
Fe9 O61 2.221330 1_554
Fe10 O13 1.994393 1_555
Fe10 O4 1.998872 1_555
Fe10 O20 2.000198 1_555
Fe10 O29 2.003813 1_555
Fe10 O53 2.181397 1_555
Fe10 O60 2.196232 1_555
Fe11 O6 1.989371 1_555
Fe11 O15 1.997783 1_555
Fe11 O22 1.998113 1_555
Fe11 O31 2.002985 1_555
Fe11 O55 2.161045 1_555
Fe11 O62 2.263448 1_555
Fe12 O32 1.841063 1_555
Fe12 O56 1.920892 1_555
Fe12 O74 1.944663 1_545
Fe12 O68 1.958036 1_455
Fe13 O57 1.896102 1_555
Fe13 O33 1.901948 1_555
Fe13 O75 1.926716 1_545
Fe13 O69 1.943866 1_455
Fe14 O34 1.852117 1_555
Fe14 O58 1.899023 1_555
Fe14 O72 1.932749 1_555
Fe14 O70 1.953896 1_455
Fe15 O59 1.888981 1_555
Fe15 O35 1.909133 1_555
Fe15 O73 1.933540 1_555
Fe15 O71 1.942398 1_455
Fe16 O36 1.841185 1_555
Fe16 O60 1.908713 1_555
Fe16 O78 1.941684 1_545
Fe16 O64 1.970772 1_555
Fe17 O61 1.894332 1_555
Fe17 O37 1.906899 1_555
Fe17 O79 1.924097 1_545
Fe17 O65 1.942990 1_555
Fe18 O38 1.869853 1_555
Fe18 O62 1.902162 1_555
Fe18 O76 1.934642 1_555
Fe18 O66 1.955962 1_555
Fe19 O63 1.864220 1_555
Fe19 O39 1.911777 1_555
Fe19 O77 1.932257 1_555
Fe19 O67 1.950719 1_555
Fe20 O48 1.891146 1_555
Fe20 O40 1.898697 1_555
Fe20 O72 1.934740 1_555
Fe20 O66 1.935565 1_555
Fe21 O41 1.882000 1_555
Fe21 O49 1.905315 1_555
Fe21 O67 1.932213 1_555
Fe21 O73 1.947958 1_555
Fe22 O50 1.881799 1_555
Fe22 O42 1.906553 1_555
Fe22 O64 1.942577 1_565
Fe22 O74 1.955694 1_555
Fe23 O43 1.842117 1_555
Fe23 O51 1.911131 1_555
Fe23 O65 1.944928 1_565
Fe23 O75 1.955060 1_555
Fe24 O52 1.891266 1_555
Fe24 O44 1.896786 1_555
Fe24 O70 1.928819 1_555
Fe24 O76 1.947432 1_555
Fe25 O45 1.846408 1_555
Fe25 O53 1.907627 1_555
Fe25 O71 1.937164 1_555
Fe25 O77 1.952424 1_555
Fe26 O54 1.859499 1_555
Fe26 O46 1.910547 1_555
Fe26 O68 1.939323 1_565
Fe26 O78 1.948576 1_555
Fe27 O47 1.847824 1_555
Fe27 O55 1.916623 1_555
Fe27 O69 1.939936 1_565
Fe27 O79 1.951819 1_555
Co0 O30 1.920545 1_445
Co0 O21 1.970021 1_454
Co0 O10 1.973586 1_545
Co0 O1 2.002704 1_554
Co0 O32 2.244081 1_555
Co0 O47 2.435594 1_444
Co1 O23 1.884344 1_454
Co1 O8 1.939666 1_555
Co1 O3 1.956603 1_554
Co1 O28 1.961098 1_455
Co1 O34 2.261927 1_555
Co1 O45 2.430382 1_454
Co2 O14 1.923359 1_545
Co2 O17 1.959058 1_554
Co2 O26 1.981078 1_545
Co2 O5 1.992680 1_554
Co2 O36 2.285351 1_555
Co2 O43 2.412280 1_544
Co3 O30 2.029029 1_555
Co3 O7 2.041669 1_554
Co3 O14 2.053817 1_555
Co3 O23 2.126147 1_554
Co3 O54 2.210547 1_555
Co3 O63 2.369978 1_554
O0 Sr24 2.633976 1_455
O0 Sr7 2.638561 1_545
O0 Sr0 2.654588 1_555
O0 Sr14 2.669163 1_555
O1 Sr8 2.591806 1_545
O1 Sr25 2.620678 1_455
O1 Sr13 2.651984 1_556
O2 Sr5 2.617686 1_555
O2 Sr26 2.620716 1_455
O2 Sr1 2.676018 1_555
O2 Sr15 2.682675 1_555
O3 Sr6 2.596599 1_555
O3 Sr27 2.644666 1_455
O4 Sr11 2.611121 1_545
O4 Sr20 2.629189 1_555
O4 Sr17 2.671756 1_555
O4 Sr2 2.677301 1_555
O5 Sr12 2.608715 1_545
O5 Sr21 2.611403 1_555
O5 Sr16 2.633617 1_556
O6 Sr9 2.612202 1_555
O6 Sr22 2.626722 1_555
O6 Sr19 2.677011 1_555
O6 Sr4 2.680942 1_555
O7 Sr23 2.590317 1_555
O7 Sr10 2.596064 1_555
O7 Sr3 2.633411 1_556
O7 Sr18 2.656745 1_556
O8 Sr13 2.622867 1_555
O8 Sr6 2.661498 1_554
O8 Sr25 2.726702 1_454
O9 Sr14 2.615687 1_555
O9 Sr1 2.618507 1_555
O9 Sr5 2.661430 1_555
O9 Sr24 2.697653 1_455
O10 Sr8 2.714492 1_554
O10 Sr27 2.714623 1_454
O11 Sr0 2.615340 1_565
O11 Sr15 2.616003 1_555
O11 Sr26 2.683648 1_455
O11 Sr7 2.688956 1_555
O12 Sr16 2.616300 1_555
O12 Sr3 2.628365 1_555
O12 Sr21 2.657812 1_554
O12 Sr10 2.691349 1_554
O13 Sr17 2.614900 1_555
O13 Sr4 2.624391 1_555
O13 Sr9 2.664210 1_555
O13 Sr20 2.698702 1_555
O14 Sr18 2.588082 1_555
O14 Sr12 2.633656 1_554
O14 Sr23 2.680904 1_554
O15 Sr19 2.624305 1_555
O15 Sr2 2.635775 1_565
O15 Sr11 2.644004 1_555
O15 Sr22 2.680585 1_555
O16 Sr7 2.625733 1_545
O16 Sr20 2.646510 1_555
O16 Sr17 2.659499 1_555
O16 Sr0 2.672098 1_555
O17 Sr8 2.615098 1_545
O17 Sr21 2.621525 1_555
O17 Sr16 2.625988 1_556
O18 Sr5 2.620653 1_555
O18 Sr22 2.632534 1_555
O18 Sr19 2.679272 1_555
O18 Sr1 2.689711 1_555
O19 Sr6 2.610190 1_555
O19 Sr23 2.643950 1_555
O19 Sr18 2.668443 1_556
O20 Sr24 2.616410 1_555
O20 Sr11 2.622409 1_545
O20 Sr2 2.676264 1_555
O20 Sr14 2.682841 1_655
O21 Sr12 2.611483 1_545
O21 Sr13 2.631737 1_656
O21 Sr25 2.651949 1_555
O22 Sr26 2.609402 1_555
O22 Sr9 2.614881 1_555
O22 Sr15 2.680836 1_655
O22 Sr4 2.681199 1_555
O23 Sr10 2.579914 1_555
O23 Sr27 2.593575 1_555
O23 Sr3 2.617125 1_556
O24 Sr16 2.622804 1_555
O24 Sr6 2.698456 1_554
O24 Sr21 2.717614 1_554
O25 Sr17 2.617433 1_555
O25 Sr1 2.642983 1_555
O25 Sr5 2.649320 1_555
O25 Sr20 2.681466 1_555
O26 Sr18 2.593717 1_555
O26 Sr8 2.668063 1_554
O26 Sr23 2.724931 1_554
O27 Sr19 2.611414 1_555
O27 Sr0 2.629566 1_565
O27 Sr7 2.677068 1_555
O27 Sr22 2.687562 1_555
O28 Sr13 2.590204 1_655
O28 Sr3 2.595223 1_555
O28 Sr25 2.651686 1_554
O28 Sr10 2.658698 1_554
O29 Sr14 2.617152 1_655
O29 Sr4 2.622141 1_555
O29 Sr9 2.665022 1_555
O29 Sr24 2.680020 1_555
O30 Sr27 2.724128 1_554
O30 Sr12 2.725721 1_554
O31 Sr15 2.623465 1_655
O31 Sr2 2.627584 1_565
O31 Sr11 2.659104 1_555
O31 Sr26 2.659127 1_555
O32 Sr13 2.441961 1_555
O33 Sr14 2.526243 1_555
O33 Sr0 2.707385 1_555
O33 Sr2 2.912395 1_455
O34 Sr3 3.033325 1_455
O35 Sr15 2.526950 1_555
O35 Sr1 2.705739 1_555
O35 Sr4 2.917955 1_455
O36 Sr16 2.456314 1_555
O37 Sr17 2.530238 1_555
O37 Sr2 2.709099 1_555
O37 Sr0 2.932314 1_555
O38 Sr18 2.511753 1_555
O38 Sr3 2.665761 1_555
O39 Sr19 2.528327 1_555
O39 Sr4 2.721753 1_555
O39 Sr1 2.903165 1_555
O40 Sr20 2.544019 1_555
O40 Sr9 2.683209 1_555
O40 Sr5 2.947549 1_555
O41 Sr21 2.517780 1_555
O41 Sr10 2.772274 1_555
O41 Sr6 2.960698 1_555
O42 Sr22 2.559452 1_555
O42 Sr11 2.733597 1_555
O42 Sr7 2.872963 1_555
O43 Sr23 2.469674 1_555
O43 Sr12 2.711537 1_555
O43 Sr8 3.007599 1_555
O44 Sr24 2.509321 1_555
O44 Sr5 2.709430 1_655
O44 Sr9 2.921581 1_555
O45 Sr25 2.483368 1_555
O45 Sr6 2.663944 1_655
O45 Sr10 2.950509 1_555
O46 Sr26 2.559889 1_555
O46 Sr7 2.686625 1_655
O46 Sr11 2.958551 1_555
O47 Sr27 2.484959 1_555
O47 Sr8 2.685626 1_655
O47 Sr12 2.979652 1_555
O48 Sr16 2.715899 1_555
O48 Sr13 2.945539 1_555
O49 Sr0 2.526788 1_555
O49 Sr17 2.696009 1_555
O49 Sr14 2.922305 1_555
O50 Sr18 2.704018 1_555
O51 Sr1 2.530019 1_555
O51 Sr19 2.699230 1_555
O51 Sr15 2.903921 1_555
O52 Sr13 2.695128 1_655
O52 Sr16 2.919807 1_555
O53 Sr2 2.522404 1_555
O53 Sr14 2.703662 1_655
O53 Sr17 2.925729 1_555
O54 Sr3 2.473465 1_555
O54 Sr18 3.004620 1_555
O55 Sr4 2.531970 1_555
O55 Sr15 2.716745 1_655
O55 Sr19 2.908343 1_555
O56 Sr5 2.572674 1_555
O56 Sr20 2.724995 1_555
O56 Sr24 2.902128 1_455
O56 Sr7 3.197615 1_545
O57 Sr6 2.545285 1_555
O57 Sr21 2.710380 1_555
O57 Sr25 2.900461 1_455
O58 Sr7 2.513346 1_555
O58 Sr22 2.700604 1_555
O58 Sr26 2.920814 1_455
O59 Sr8 2.523277 1_555
O59 Sr23 2.752627 1_555
O59 Sr27 2.939998 1_455
O60 Sr9 2.536204 1_555
O60 Sr24 2.756850 1_555
O60 Sr20 2.832981 1_555
O61 Sr10 2.557938 1_555
O61 Sr25 2.704569 1_555
O61 Sr21 2.946606 1_555
O62 Sr11 2.523577 1_555
O62 Sr26 2.750450 1_555
O62 Sr22 2.863313 1_555
O63 Sr12 2.490358 1_555
O63 Sr27 2.650703 1_555
O63 Sr23 2.961114 1_555
O64 Sr20 2.526206 1_555
O65 Sr0 2.453324 1_555
O65 Sr21 2.473145 1_555
O66 Sr22 2.525442 1_555
O67 Sr1 2.464746 1_555
O67 Sr23 2.486668 1_555
O68 Sr24 2.497254 1_555
O69 Sr2 2.453594 1_555
O69 Sr25 2.482688 1_555
O70 Sr26 2.472033 1_555
O70 Sr3 2.473394 1_555
O71 Sr4 2.455397 1_555
O71 Sr27 2.500756 1_555
O72 Sr5 2.450474 1_555
O72 Sr13 2.462358 1_555
O73 Sr14 2.461672 1_555
O73 Sr6 2.484349 1_555
O74 Sr7 2.491669 1_555
O75 Sr15 2.465541 1_555
O75 Sr8 2.491413 1_555
O76 Sr9 2.456712 1_555
O76 Sr16 2.467489 1_555
O77 Sr17 2.451276 1_555
O77 Sr10 2.477785 1_555
O78 Sr11 2.433201 1_555
O78 Sr18 2.452781 1_555
O79 Sr19 2.465298 1_555
O79 Sr12 2.499664 1_555
